1,2,3,4
 OpenBabel05122313063D

 68 69  0  0  0  0  0  0  0  0999 V2000
    0.3076   -0.1582    2.1167 P   0  0  1  0  0  0  0  0  0  0  0  0
   -2.2136   -0.1724    0.4780 P   0  0  2  0  0  0  0  0  0  0  0  0
   -0.7219    2.4012   -0.4522 P   0  0  1  0  0  0  0  0  0  0  0  0
    1.9628    0.6140   -0.4218 P   0  0  2  0  0  0  0  0  0  0  0  0
   -3.0403   -1.4214   -0.3276 N   0  0  0  0  0  0  0  0  0  0  0  0
   -1.2717    0.0504    3.0855 C   0  0  0  0  0  0  0  0  0  0  0  0
   -2.4130   -0.5830    2.2903 C   0  0  0  0  0  0  0  0  0  0  0  0
   -3.2134    1.3791    0.2091 C   0  0  0  0  0  0  0  0  0  0  0  0
   -2.5464    2.2914   -0.8239 C   0  0  0  0  0  0  0  0  0  0  0  0
    0.0313    2.9832   -2.0384 C   0  0  0  0  0  0  0  0  0  0  0  0
    1.5694    2.9724   -2.0320 C   0  0  0  0  0  0  0  0  0  0  0  0
    2.2175    1.5789   -1.9825 C   0  0  0  0  0  0  0  0  0  0  0  0
    2.8977    1.5883    0.8523 C   0  0  0  0  0  0  0  0  0  0  0  0
    2.9065    0.9731    2.2583 C   0  0  0  0  0  0  0  0  0  0  0  0
    1.5354    0.9409    2.9537 C   0  0  0  0  0  0  0  0  0  0  0  0
    0.8869   -1.8521    2.5512 C   0  0  0  0  0  0  0  0  0  0  0  0
   -2.3624   -2.7300   -0.2939 C   0  0  0  0  0  0  0  0  0  0  0  0
   -3.3223   -3.9023   -0.1221 C   0  0  0  0  0  0  0  0  0  0  0  0
   -3.8059   -1.1349   -1.5574 C   0  0  0  0  0  0  0  0  0  0  0  0
   -5.3178   -1.2266   -1.3624 C   0  0  0  0  0  0  0  0  0  0  0  0
   -0.5935    3.8549    0.6793 C   0  0  0  0  0  0  0  0  0  0  0  0
    2.9570   -0.9092   -0.6503 C   0  0  0  0  0  0  0  0  0  0  0  0
    2.2958   -2.1499   -0.7511 C   0  0  0  0  0  0  0  0  0  0  0  0
    3.0349   -3.3268   -0.9415 C   0  0  0  0  0  0  0  0  0  0  0  0
    4.4347   -3.2739   -1.0278 C   0  0  0  0  0  0  0  0  0  0  0  0
    5.0986   -2.0398   -0.9290 C   0  0  0  0  0  0  0  0  0  0  0  0
    4.3649   -0.8596   -0.7426 C   0  0  0  0  0  0  0  0  0  0  0  0
   -1.4215    1.1447    3.2024 H   0  0  0  0  0  0  0  0  0  0  0  0
   -1.1763   -0.3832    4.1023 H   0  0  0  0  0  0  0  0  0  0  0  0
   -2.3942   -1.6888    2.3692 H   0  0  0  0  0  0  0  0  0  0  0  0
   -3.4172   -0.2565    2.6301 H   0  0  0  0  0  0  0  0  0  0  0  0
   -3.2414    1.8741    1.2034 H   0  0  0  0  0  0  0  0  0  0  0  0
   -4.2598    1.1224   -0.0501 H   0  0  0  0  0  0  0  0  0  0  0  0
   -2.6246    1.8582   -1.8426 H   0  0  0  0  0  0  0  0  0  0  0  0
   -3.0151    3.2966   -0.8458 H   0  0  0  0  0  0  0  0  0  0  0  0
   -0.3506    3.9975   -2.2783 H   0  0  0  0  0  0  0  0  0  0  0  0
   -0.3454    2.2846   -2.8153 H   0  0  0  0  0  0  0  0  0  0  0  0
    1.9599    3.6132   -1.2110 H   0  0  0  0  0  0  0  0  0  0  0  0
    1.9154    3.4626   -2.9659 H   0  0  0  0  0  0  0  0  0  0  0  0
    1.8164    0.9275   -2.7867 H   0  0  0  0  0  0  0  0  0  0  0  0
    3.3142    1.6588   -2.1347 H   0  0  0  0  0  0  0  0  0  0  0  0
    2.4400    2.5997    0.8757 H   0  0  0  0  0  0  0  0  0  0  0  0
    3.9369    1.7219    0.4870 H   0  0  0  0  0  0  0  0  0  0  0  0
    3.6004    1.5631    2.8923 H   0  0  0  0  0  0  0  0  0  0  0  0
    3.3420   -0.0487    2.2150 H   0  0  0  0  0  0  0  0  0  0  0  0
    1.6429    0.6121    4.0088 H   0  0  0  0  0  0  0  0  0  0  0  0
    1.0880    1.9579    2.9687 H   0  0  0  0  0  0  0  0  0  0  0  0
    0.1427   -2.5946    2.2033 H   0  0  0  0  0  0  0  0  0  0  0  0
    1.0372   -1.9620    3.6442 H   0  0  0  0  0  0  0  0  0  0  0  0
    1.8350   -2.0626    2.0194 H   0  0  0  0  0  0  0  0  0  0  0  0
   -1.7485   -2.8437   -1.2170 H   0  0  0  0  0  0  0  0  0  0  0  0
   -1.6318   -2.7174    0.5441 H   0  0  0  0  0  0  0  0  0  0  0  0
   -2.7556   -4.8528   -0.0616 H   0  0  0  0  0  0  0  0  0  0  0  0
   -4.0162   -3.9896   -0.9812 H   0  0  0  0  0  0  0  0  0  0  0  0
   -3.9294   -3.7944    0.7991 H   0  0  0  0  0  0  0  0  0  0  0  0
   -3.5231   -0.1404   -1.9594 H   0  0  0  0  0  0  0  0  0  0  0  0
   -3.4609   -1.8419   -2.3404 H   0  0  0  0  0  0  0  0  0  0  0  0
   -5.8425   -1.0188   -2.3166 H   0  0  0  0  0  0  0  0  0  0  0  0
   -5.6792   -0.4968   -0.6091 H   0  0  0  0  0  0  0  0  0  0  0  0
   -5.6216   -2.2333   -1.0161 H   0  0  0  0  0  0  0  0  0  0  0  0
   -1.1338    3.6342    1.6214 H   0  0  0  0  0  0  0  0  0  0  0  0
   -1.0149    4.7759    0.2277 H   0  0  0  0  0  0  0  0  0  0  0  0
    0.4680    4.0385    0.9378 H   0  0  0  0  0  0  0  0  0  0  0  0
    1.1968   -2.1752   -0.6952 H   0  0  0  0  0  0  0  0  0  0  0  0
    2.5126   -4.2912   -1.0294 H   0  0  0  0  0  0  0  0  0  0  0  0
    5.0133   -4.1977   -1.1774 H   0  0  0  0  0  0  0  0  0  0  0  0
    6.1955   -1.9952   -1.0012 H   0  0  0  0  0  0  0  0  0  0  0  0
    4.9022    0.0994   -0.6750 H   0  0  0  0  0  0  0  0  0  0  0  0
  1 16  1  1  0  0  0
  1 15  1  0  0  0  0
  1  6  1  0  0  0  0
  2  5  1  6  0  0  0
  2  7  1  0  0  0  0
  3 21  1  1  0  0  0
  4 22  1  6  0  0  0
  4 13  1  0  0  0  0
  5 17  1  0  0  0  0
  6 28  1  0  0  0  0
  6 29  1  0  0  0  0
  7 30  1  0  0  0  0
  7 31  1  0  0  0  0
  7  6  1  0  0  0  0
  8  2  1  0  0  0  0
  8 32  1  0  0  0  0
  9  3  1  0  0  0  0
  9  8  1  0  0  0  0
 10 11  1  0  0  0  0
 10  3  1  0  0  0  0
 11 12  1  0  0  0  0
 11 38  1  0  0  0  0
 12  4  1  0  0  0  0
 13 42  1  0  0  0  0
 13 14  1  0  0  0  0
 14 44  1  0  0  0  0
 14 15  1  0  0  0  0
 15 47  1  0  0  0  0
 15 46  1  0  0  0  0
 16 49  1  0  0  0  0
 17 18  1  0  0  0  0
 17 52  1  0  0  0  0
 18 53  1  0  0  0  0
 18 55  1  0  0  0  0
 19 20  1  0  0  0  0
 19  5  1  0  0  0  0
 20 60  1  0  0  0  0
 20 59  1  0  0  0  0
 21 63  1  0  0  0  0
 21 61  1  0  0  0  0
 23 64  1  0  0  0  0
 23 22  2  0  0  0  0
 24 23  1  0  0  0  0
 25 24  2  0  0  0  0
 25 26  1  0  0  0  0
 26 27  2  0  0  0  0
 27 68  1  0  0  0  0
 27 22  1  0  0  0  0
 33  8  1  0  0  0  0
 34  9  1  0  0  0  0
 35  9  1  0  0  0  0
 36 10  1  0  0  0  0
 37 10  1  0  0  0  0
 39 11  1  0  0  0  0
 40 12  1  0  0  0  0
 41 12  1  0  0  0  0
 43 13  1  0  0  0  0
 45 14  1  0  0  0  0
 48 16  1  0  0  0  0
 50 16  1  0  0  0  0
 51 17  1  0  0  0  0
 54 18  1  0  0  0  0
 56 19  1  0  0  0  0
 57 19  1  0  0  0  0
 58 20  1  0  0  0  0
 62 21  1  0  0  0  0
 65 24  1  0  0  0  0
 66 25  1  0  0  0  0
 67 26  1  0  0  0  0
M  END
