1,2,3,4
 OpenBabel05122313063D

 34 36  0  0  0  0  0  0  0  0999 V2000
   -2.8117    0.0089    0.0050 P   0  0  2  0  0  0  0  0  0  0  0  0
   -0.9409    2.2744    0.0713 P   0  0  0  0  0  0  0  0  0  0  0  0
   -0.9533   -1.0727   -1.9993 P   0  0  0  0  0  0  0  0  0  0  0  0
   -0.9466   -1.1956    1.9309 P   0  0  0  0  0  0  0  0  0  0  0  0
   -3.5429   -0.7954    1.2568 O   0  0  0  0  0  0  0  0  0  0  0  0
   -3.5391    1.4964    0.0792 O   0  0  0  0  0  0  0  0  0  0  0  0
   -3.5471   -0.6688   -1.3171 O   0  0  0  0  0  0  0  0  0  0  0  0
   -0.2622   -2.0080    3.3002 C   0  0  0  0  0  0  0  0  0  0  0  0
    0.8369   -2.0249    3.3747 H   0  0  0  0  0  0  0  0  0  0  0  0
   -3.2345    3.8722    0.1230 C   0  0  0  0  0  0  0  0  0  0  0  0
   -4.3324    3.9570    0.1339 H   0  0  0  0  0  0  0  0  0  0  0  0
   -0.2747   -1.8701   -3.3803 C   0  0  0  0  0  0  0  0  0  0  0  0
    0.8240   -1.9332   -3.4325 H   0  0  0  0  0  0  0  0  0  0  0  0
   -2.6796    2.5950    0.0960 C   0  0  0  0  0  0  0  0  0  0  0  0
   -2.6939   -1.2095   -2.2790 C   0  0  0  0  0  0  0  0  0  0  0  0
   -0.2529    3.8651    0.0786 C   0  0  0  0  0  0  0  0  0  0  0  0
    0.8461    3.9356    0.0496 H   0  0  0  0  0  0  0  0  0  0  0  0
   -2.4421    5.0362    0.1330 C   0  0  0  0  0  0  0  0  0  0  0  0
   -2.9589    6.0068    0.1556 H   0  0  0  0  0  0  0  0  0  0  0  0
   -3.2561   -1.8282   -3.3931 C   0  0  0  0  0  0  0  0  0  0  0  0
   -4.3545   -1.8592   -3.4658 H   0  0  0  0  0  0  0  0  0  0  0  0
   -1.0663   -2.4261   -4.3963 C   0  0  0  0  0  0  0  0  0  0  0  0
   -0.5466   -2.9111   -5.2381 H   0  0  0  0  0  0  0  0  0  0  0  0
   -2.4705   -2.4078   -4.4080 C   0  0  0  0  0  0  0  0  0  0  0  0
   -2.9930   -2.8759   -5.2549 H   0  0  0  0  0  0  0  0  0  0  0  0
   -1.0379    5.0274    0.1104 C   0  0  0  0  0  0  0  0  0  0  0  0
   -0.5126    5.9959    0.1151 H   0  0  0  0  0  0  0  0  0  0  0  0
   -1.0499   -2.6162    4.2890 C   0  0  0  0  0  0  0  0  0  0  0  0
   -0.5268   -3.1114    5.1227 H   0  0  0  0  0  0  0  0  0  0  0  0
   -3.2439   -2.0317    3.2869 C   0  0  0  0  0  0  0  0  0  0  0  0
   -4.3420   -2.0774    3.3557 H   0  0  0  0  0  0  0  0  0  0  0  0
   -2.4542   -2.6316    4.2867 C   0  0  0  0  0  0  0  0  0  0  0  0
   -2.9733   -3.1369    5.1142 H   0  0  0  0  0  0  0  0  0  0  0  0
   -2.6861   -1.3684    2.1966 C   0  0  0  0  0  0  0  0  0  0  0  0
  1  7  1  6  0  0  0
  1  6  1  0  0  0  0
  1  5  1  0  0  0  0
  2 16  1  0  0  0  0
  2 14  2  0  0  0  0
  4 34  1  0  0  0  0
  4  8  2  0  0  0  0
  5 34  1  0  0  0  0
  6 14  1  0  0  0  0
  8  9  1  0  0  0  0
  8 28  1  0  0  0  0
 10 18  2  0  0  0  0
 10 11  1  0  0  0  0
 12  3  2  0  0  0  0
 13 12  1  0  0  0  0
 14 10  1  0  0  0  0
 15  3  1  0  0  0  0
 15  7  1  0  0  0  0
 16 26  2  0  0  0  0
 17 16  1  0  0  0  0
 18 19  1  0  0  0  0
 20 15  2  0  0  0  0
 21 20  1  0  0  0  0
 22 12  1  0  0  0  0
 23 22  1  0  0  0  0
 24 22  2  0  0  0  0
 24 20  1  0  0  0  0
 25 24  1  0  0  0  0
 26 27  1  0  0  0  0
 26 18  1  0  0  0  0
 28 29  1  0  0  0  0
 30 31  1  0  0  0  0
 30 32  1  0  0  0  0
 32 28  2  0  0  0  0
 32 33  1  0  0  0  0
 34 30  2  0  0  0  0
M  END
