1,2,3,4,5,6
 OpenBabel05122313063D

 67 66  0  0  1  0  0  0  0  0999 V2000
    0.8699   -1.5170    1.3259 S   0  0  0  0  0  1  0  0  0  0  0  0
   -0.8692   -1.5187   -1.3240 S   0  0  0  0  0  1  0  0  0  0  0  0
    0.4849    1.4672    1.3965 N   0  0  0  0  0  0  0  0  0  0  0  0
   -1.6571    0.0468    0.9269 N   0  0  0  0  0  2  0  0  0  0  0  0
    1.6571    0.0463   -0.9268 N   0  0  0  0  0  2  0  0  0  0  0  0
   -0.4854    1.4653   -1.3981 N   0  0  0  0  0  0  0  0  0  0  0  0
    2.7148   -0.6946   -0.5130 N   0  0  0  0  0  0  0  0  0  0  0  0
   -3.4230   -2.2587   -1.0272 N   0  0  0  0  0  0  0  0  0  0  0  0
   -2.7146   -0.6947    0.5138 N   0  0  0  0  0  0  0  0  0  0  0  0
    3.4238   -2.2567    1.0296 N   0  0  0  0  0  0  0  0  0  0  0  0
   -0.5661    1.5165    2.5169 C   0  0  0  0  0  0  0  0  0  0  0  0
    2.4482   -1.4627    0.5367 C   0  0  0  0  0  0  0  0  0  0  0  0
    1.7696    0.7106   -2.0552 C   0  0  2  0  0  3  0  0  0  0  0  0
   -1.7698    0.7124    2.0544 C   0  0  2  0  0  3  0  0  0  0  0  0
   -2.4476   -1.4639   -0.5351 C   0  0  0  0  0  0  0  0  0  0  0  0
    0.5657    1.5139   -2.5185 C   0  0  0  0  0  0  0  0  0  0  0  0
    0.9992    2.7320    0.8246 C   0  0  0  0  0  0  0  0  0  0  0  0
    1.8498    2.4245    0.1830 H   0  0  0  0  0  0  0  0  0  0  0  0
    1.4312    3.3771    1.6193 H   0  0  0  0  0  0  0  0  0  0  0  0
   -1.0005    2.7305   -0.8278 C   0  0  0  0  0  0  0  0  0  0  0  0
   -1.8511    2.4233   -0.1860 H   0  0  0  0  0  0  0  0  0  0  0  0
   -1.4327    3.3744   -1.6233 H   0  0  0  0  0  0  0  0  0  0  0  0
   -3.0229    0.6273    2.8646 C   0  0  0  0  0  0  0  0  0  0  0  0
   -3.3130   -0.4354    2.9918 H   0  0  0  0  0  0  0  0  0  0  0  0
   -3.8710    1.1043    2.3289 H   0  0  0  0  0  0  0  0  0  0  0  0
   -2.9177    1.1047    3.8549 H   0  0  0  0  0  0  0  0  0  0  0  0
   -0.0671    0.8650   -3.7714 C   0  0  0  0  0  0  0  0  0  0  0  0
   -0.8951    1.5005   -4.1485 H   0  0  0  0  0  0  0  0  0  0  0  0
   -0.4603   -0.1430   -3.5380 H   0  0  0  0  0  0  0  0  0  0  0  0
    0.6804    0.7738   -4.5823 H   0  0  0  0  0  0  0  0  0  0  0  0
   -4.7399   -2.4076   -0.4140 C   0  0  0  0  0  0  0  0  0  0  0  0
   -5.0794   -1.3996   -0.1009 H   0  0  0  0  0  0  0  0  0  0  0  0
   -4.6545   -3.0084    0.5204 H   0  0  0  0  0  0  0  0  0  0  0  0
    0.0669    0.8690    3.7704 C   0  0  0  0  0  0  0  0  0  0  0  0
    0.8947    1.5051    4.1470 H   0  0  0  0  0  0  0  0  0  0  0  0
    0.4605   -0.1391    3.5379 H   0  0  0  0  0  0  0  0  0  0  0  0
   -0.6805    0.7782    4.5815 H   0  0  0  0  0  0  0  0  0  0  0  0
    1.0100    2.9407   -2.9013 C   0  0  0  0  0  0  0  0  0  0  0  0
    0.1423    3.5923   -3.1177 H   0  0  0  0  0  0  0  0  0  0  0  0
    1.6062    2.8898   -3.8311 H   0  0  0  0  0  0  0  0  0  0  0  0
    1.6458    3.4178   -2.1344 H   0  0  0  0  0  0  0  0  0  0  0  0
    3.0226    0.6246   -2.8654 C   0  0  0  0  0  0  0  0  0  0  0  0
    3.3121   -0.4383   -2.9925 H   0  0  0  0  0  0  0  0  0  0  0  0
    3.8709    1.1011   -2.3298 H   0  0  0  0  0  0  0  0  0  0  0  0
    2.9176    1.1018   -3.8558 H   0  0  0  0  0  0  0  0  0  0  0  0
   -0.0010    3.5460   -0.0019 C   0  0  0  0  0  0  0  0  0  0  0  0
    0.5878    4.2212   -0.6496 H   0  0  0  0  0  0  0  0  0  0  0  0
   -0.5903    4.2214    0.6451 H   0  0  0  0  0  0  0  0  0  0  0  0
    5.7237   -3.0474    1.3859 C   0  0  0  0  0  0  0  0  0  0  0  0
    6.7147   -3.1609    0.9062 H   0  0  0  0  0  0  0  0  0  0  0  0
    5.3899   -4.0602    1.6939 H   0  0  0  0  0  0  0  0  0  0  0  0
    5.8533   -2.4313    2.2982 H   0  0  0  0  0  0  0  0  0  0  0  0
   -1.0107    2.9435    2.8985 C   0  0  0  0  0  0  0  0  0  0  0  0
   -0.1432    3.5956    3.1141 H   0  0  0  0  0  0  0  0  0  0  0  0
   -1.6067    2.8933    3.8285 H   0  0  0  0  0  0  0  0  0  0  0  0
   -1.6468    3.4198    2.1313 H   0  0  0  0  0  0  0  0  0  0  0  0
    4.7406   -2.4060    0.4164 C   0  0  0  0  0  0  0  0  0  0  0  0
    5.0801   -1.3982    0.1025 H   0  0  0  0  0  0  0  0  0  0  0  0
    4.6552   -3.0073   -0.5177 H   0  0  0  0  0  0  0  0  0  0  0  0
   -5.7229   -3.0496   -1.3832 C   0  0  0  0  0  0  0  0  0  0  0  0
   -6.7139   -3.1629   -0.9035 H   0  0  0  0  0  0  0  0  0  0  0  0
   -5.3891   -4.0626   -1.6905 H   0  0  0  0  0  0  0  0  0  0  0  0
   -5.8524   -2.4341   -2.2959 H   0  0  0  0  0  0  0  0  0  0  0  0
    1.2919    0.9751    1.8085 H   0  0  0  0  0  0  0  0  0  0  0  0
   -1.2919    0.9722   -1.8095 H   0  0  0  0  0  0  0  0  0  0  0  0
   -3.1587   -2.9080   -1.7704 H   0  0  0  0  0  0  0  0  0  0  0  0
    3.1598   -2.9051    1.7737 H   0  0  0  0  0  0  0  0  0  0  0  0
  2 15  1  0  0  0  0
  3 64  1  0  0  0  0
  3 11  1  0  0  0  0
  5  7  1  0  0  0  0
  6 20  1  0  0  0  0
  7 12  2  0  0  0  0
  8 15  1  0  0  0  0
  8 31  1  0  0  0  0
  9  4  1  0  0  0  0
 10 67  1  0  0  0  0
 11 53  1  0  0  0  0
 11 34  1  0  0  0  0
 12 10  1  0  0  0  0
 12  1  1  0  0  0  0
 13  5  1  6  0  0  0
 14  4  1  1  0  0  0
 14 11  1  0  0  0  0
 14 23  1  0  0  0  0
 15  9  2  0  0  0  0
 16 13  1  0  0  0  0
 16  6  1  0  0  0  0
 17  3  1  0  0  0  0
 17 19  1  0  0  0  0
 18 17  1  0  0  0  0
 20 21  1  0  0  0  0
 20 46  1  0  0  0  0
 22 20  1  0  0  0  0
 23 24  1  0  0  0  0
 23 26  1  0  0  0  0
 25 23  1  0  0  0  0
 27 29  1  0  0  0  0
 27 16  1  0  0  0  0
 28 27  1  0  0  0  0
 30 27  1  0  0  0  0
 31 32  1  0  0  0  0
 31 33  1  0  0  0  0
 34 35  1  0  0  0  0
 34 37  1  0  0  0  0
 36 34  1  0  0  0  0
 38 16  1  0  0  0  0
 38 41  1  0  0  0  0
 39 38  1  0  0  0  0
 40 38  1  0  0  0  0
 42 44  1  0  0  0  0
 42 13  1  0  0  0  0
 43 42  1  0  0  0  0
 45 42  1  0  0  0  0
 46 48  1  0  0  0  0
 46 17  1  0  0  0  0
 47 46  1  0  0  0  0
 49 51  1  0  0  0  0
 49 52  1  0  0  0  0
 50 49  1  0  0  0  0
 53 54  1  0  0  0  0
 53 55  1  0  0  0  0
 56 53  1  0  0  0  0
 57 10  1  0  0  0  0
 57 49  1  0  0  0  0
 58 57  1  0  0  0  0
 59 57  1  0  0  0  0
 60 61  1  0  0  0  0
 60 31  1  0  0  0  0
 62 60  1  0  0  0  0
 63 60  1  0  0  0  0
 65  6  1  0  0  0  0
 66  8  1  0  0  0  0
M  END
