1,2,5,7,8,10
 OpenBabel05122313063D

 52 55  0  0  1  0  0  0  0  0999 V2000
   -0.7372   -1.4730   -1.4199 S   0  0  0  0  0  0  0  0  0  0  0  0
    0.7380   -1.4723    1.4204 S   0  0  0  0  0  0  0  0  0  0  0  0
   -3.0262    1.1318    2.5160 O   0  0  0  0  0  0  0  0  0  0  0  0
    3.0267    1.1344   -2.5145 O   0  0  0  0  0  0  0  0  0  0  0  0
    0.3278    1.4259    1.3213 N   0  0  0  0  0  2  0  0  0  0  0  0
    0.4831    3.3762    3.3519 N   0  0  0  0  0  0  0  0  0  0  0  0
   -1.8019    0.0981    0.7772 N   0  0  0  0  0  2  0  0  0  0  0  0
    1.8021    0.0988   -0.7769 N   0  0  0  0  0  2  0  0  0  0  0  0
   -0.4840    3.3762   -3.3516 N   0  0  0  0  0  0  0  0  0  0  0  0
   -0.3282    1.4255   -1.3215 N   0  0  0  0  0  2  0  0  0  0  0  0
    1.4690    2.1215    1.5386 C   0  0  0  0  0  3  0  0  0  0  0  0
    1.5268    3.0845    2.5537 C   0  0  0  0  0  0  0  0  0  0  0  0
   -0.6424    2.6846    3.1208 C   0  0  0  0  0  0  0  0  0  0  0  0
   -0.7433    1.7111    2.1152 C   0  0  0  0  0  0  0  0  0  0  0  0
   -2.0023    0.9473    1.8410 C   0  0  0  0  0  0  0  0  0  0  0  0
   -2.7862   -0.7456    0.2754 C   0  0  0  0  0  0  0  0  0  0  0  0
   -4.1276   -0.8349    0.7457 C   0  0  0  0  0  0  0  0  0  0  0  0
   -5.0310   -1.7155    0.1421 C   0  0  0  0  0  0  0  0  0  0  0  0
   -4.6560   -2.5308   -0.9425 C   0  0  0  0  0  0  0  0  0  0  0  0
   -3.3430   -2.4577   -1.4259 C   0  0  0  0  0  0  0  0  0  0  0  0
   -2.4249   -1.5917   -0.8143 C   0  0  0  0  0  0  0  0  0  0  0  0
   -0.0007   -3.0401   -0.7541 C   0  0  0  0  0  0  0  0  0  0  0  0
    0.0006   -3.0395    0.7559 C   0  0  0  0  0  0  0  0  0  0  0  0
    2.4253   -1.5917    0.8138 C   0  0  0  0  0  0  0  0  0  0  0  0
    3.3434   -2.4583    1.4246 C   0  0  0  0  0  0  0  0  0  0  0  0
    4.6561   -2.5317    0.9406 C   0  0  0  0  0  0  0  0  0  0  0  0
    5.0309   -1.7161   -0.1438 C   0  0  0  0  0  0  0  0  0  0  0  0
    4.1275   -0.8348   -0.7466 C   0  0  0  0  0  0  0  0  0  0  0  0
    2.7864   -0.7453   -0.2757 C   0  0  0  0  0  0  0  0  0  0  0  0
    2.0025    0.9488   -1.8401 C   0  0  0  0  0  0  0  0  0  0  0  0
    0.7432    1.7120   -2.1145 C   0  0  2  0  0  3  0  0  0  0  0  0
    0.6421    2.6857   -3.1198 C   0  0  0  0  0  0  0  0  0  0  0  0
   -1.5280    3.0831   -2.5543 C   0  0  0  0  0  0  0  0  0  0  0  0
   -1.4699    2.1198   -1.5394 C   0  0  0  0  0  0  0  0  0  0  0  0
    2.3280    1.8872    0.8934 H   0  0  0  0  0  0  0  0  0  0  0  0
    2.4658    3.6394    2.7222 H   0  0  0  0  0  0  0  0  0  0  0  0
   -1.5321    2.8835    3.7418 H   0  0  0  0  0  0  0  0  0  0  0  0
   -4.4178   -0.1968    1.5888 H   0  0  0  0  0  0  0  0  0  0  0  0
   -6.0617   -1.7628    0.5265 H   0  0  0  0  0  0  0  0  0  0  0  0
   -5.3822   -3.2098   -1.4127 H   0  0  0  0  0  0  0  0  0  0  0  0
   -3.0223   -3.0710   -2.2825 H   0  0  0  0  0  0  0  0  0  0  0  0
    1.0284   -3.0629   -1.1683 H   0  0  0  0  0  0  0  0  0  0  0  0
   -0.5747   -3.8896   -1.1759 H   0  0  0  0  0  0  0  0  0  0  0  0
    0.5740   -3.8890    1.1784 H   0  0  0  0  0  0  0  0  0  0  0  0
   -1.0286   -3.0613    1.1701 H   0  0  0  0  0  0  0  0  0  0  0  0
    3.0228   -3.0719    2.2811 H   0  0  0  0  0  0  0  0  0  0  0  0
    5.3822   -3.2113    1.4101 H   0  0  0  0  0  0  0  0  0  0  0  0
    6.0614   -1.7635   -0.5287 H   0  0  0  0  0  0  0  0  0  0  0  0
    4.4177   -0.1963   -1.5894 H   0  0  0  0  0  0  0  0  0  0  0  0
    1.5321    2.8857   -3.7401 H   0  0  0  0  0  0  0  0  0  0  0  0
   -2.4674    3.6370   -2.7235 H   0  0  0  0  0  0  0  0  0  0  0  0
   -2.3291    1.8846   -0.8949 H   0  0  0  0  0  0  0  0  0  0  0  0
  1 21  1  0  0  0  0
  1 22  1  0  0  0  0
  4 30  2  0  0  0  0
  5 11  1  0  0  0  0
  5 14  1  0  0  0  0
  7 15  1  0  0  0  0
  8 29  1  0  0  0  0
  9 32  2  0  0  0  0
  9 33  1  0  0  0  0
 11 12  1  0  0  0  0
 12 36  1  0  0  0  0
 12  6  2  0  0  0  0
 13  6  1  0  0  0  0
 13 37  1  0  0  0  0
 14 13  2  0  0  0  0
 15 14  1  0  0  0  0
 15  3  2  0  0  0  0
 16 17  1  0  0  0  0
 16  7  1  0  0  0  0
 17 38  1  0  0  0  0
 18 39  1  0  0  0  0
 18 17  2  0  0  0  0
 19 18  1  0  0  0  0
 20 19  2  0  0  0  0
 20 21  1  0  0  0  0
 21 16  2  0  0  0  0
 22 23  1  0  0  0  0
 23 45  1  0  0  0  0
 23 44  1  0  0  0  0
 23  2  1  0  0  0  0
 24  2  1  0  0  0  0
 24 25  1  0  0  0  0
 25 46  1  0  0  0  0
 26 47  1  0  0  0  0
 26 25  2  0  0  0  0
 27 26  1  0  0  0  0
 28 29  1  0  0  0  0
 28 27  2  0  0  0  0
 29 24  2  0  0  0  0
 30  8  1  0  0  0  0
 31 30  1  1  0  0  0
 31 10  1  0  0  0  0
 32 31  1  0  0  0  0
 33 34  2  0  0  0  0
 34 10  1  0  0  0  0
 34 52  1  0  0  0  0
 35 11  1  0  0  0  0
 40 19  1  0  0  0  0
 41 20  1  0  0  0  0
 42 22  1  0  0  0  0
 43 22  1  0  0  0  0
 48 27  1  0  0  0  0
 49 28  1  0  0  0  0
 50 32  1  0  0  0  0
 51 33  1  0  0  0  0
M  END
