1,2,5
 OpenBabel05122313063D

 73 75  0  0  1  0  0  0  0  0999 V2000
   -2.2066    0.8649   -0.3825 S   0  0  0  0  0  0  0  0  0  0  0  0
    2.1855   -0.6842   -0.8202 S   0  0  0  0  0  0  0  0  0  0  0  0
   -0.7408    0.0802    2.3748 N   0  0  0  0  0  0  0  0  0  0  0  0
    0.4312   -1.6626    1.8380 N   0  0  0  0  0  0  0  0  0  0  0  0
   -0.0818   -0.5062    1.3350 C   0  0  0  0  0  2  0  0  0  0  0  0
    0.0998   -1.8041    3.1818 C   0  0  0  0  0  0  0  0  0  0  0  0
    0.4114   -2.6675    3.7776 H   0  0  0  0  0  0  0  0  0  0  0  0
   -0.6455   -0.7025    3.5206 C   0  0  0  0  0  0  0  0  0  0  0  0
   -1.0977   -0.4112    4.4736 H   0  0  0  0  0  0  0  0  0  0  0  0
   -1.3255    1.4139    2.2698 C   0  0  0  0  0  0  0  0  0  0  0  0
   -0.5255    2.1048    1.9379 H   0  0  0  0  0  0  0  0  0  0  0  0
   -1.6371    1.7279    3.2851 H   0  0  0  0  0  0  0  0  0  0  0  0
   -2.5346    1.5260    1.3316 C   0  0  1  0  0  0  0  0  0  0  0  0
   -3.3580    0.8951    1.7256 H   0  0  0  0  0  0  0  0  0  0  0  0
   -3.0157    2.9955    1.2177 C   0  0  0  0  0  0  0  0  0  0  0  0
   -3.0954    3.3576    2.2688 H   0  0  0  0  0  0  0  0  0  0  0  0
   -2.0138    3.8936    0.4762 C   0  0  0  0  0  0  0  0  0  0  0  0
   -1.8853    3.5681   -0.5776 H   0  0  0  0  0  0  0  0  0  0  0  0
   -1.0119    3.9118    0.9503 H   0  0  0  0  0  0  0  0  0  0  0  0
   -2.3815    4.9378    0.4565 H   0  0  0  0  0  0  0  0  0  0  0  0
   -4.4105    3.0807    0.5886 C   0  0  0  0  0  0  0  0  0  0  0  0
   -4.7632    4.1302    0.5713 H   0  0  0  0  0  0  0  0  0  0  0  0
   -5.1551    2.4843    1.1537 H   0  0  0  0  0  0  0  0  0  0  0  0
   -4.3978    2.7165   -0.4592 H   0  0  0  0  0  0  0  0  0  0  0  0
    1.2829   -2.5537    1.0536 C   0  0  0  0  0  0  0  0  0  0  0  0
    0.7005   -2.9492    0.1968 H   0  0  0  0  0  0  0  0  0  0  0  0
    1.5505   -3.4120    1.6987 H   0  0  0  0  0  0  0  0  0  0  0  0
    2.5654   -1.8549    0.5808 C   0  0  1  0  0  0  0  0  0  0  0  0
    2.9447   -1.2287    1.4152 H   0  0  0  0  0  0  0  0  0  0  0  0
    3.6734   -2.8358    0.1232 C   0  0  0  0  0  0  0  0  0  0  0  0
    4.4642   -2.2012   -0.3360 H   0  0  0  0  0  0  0  0  0  0  0  0
    4.3080   -3.5452    1.3280 C   0  0  0  0  0  0  0  0  0  0  0  0
    3.5954   -4.2318    1.8317 H   0  0  0  0  0  0  0  0  0  0  0  0
    4.6832   -2.8246    2.0827 H   0  0  0  0  0  0  0  0  0  0  0  0
    5.1658   -4.1636    0.9986 H   0  0  0  0  0  0  0  0  0  0  0  0
    3.1906   -3.8273   -0.9425 C   0  0  0  0  0  0  0  0  0  0  0  0
    2.4688   -4.5603   -0.5260 H   0  0  0  0  0  0  0  0  0  0  0  0
    4.0440   -4.4081   -1.3429 H   0  0  0  0  0  0  0  0  0  0  0  0
    2.7081   -3.3095   -1.7959 H   0  0  0  0  0  0  0  0  0  0  0  0
   -3.1100   -0.7651   -0.3313 C   0  0  0  0  0  0  0  0  0  0  0  0
   -2.8316   -1.2412    0.6345 H   0  0  0  0  0  0  0  0  0  0  0  0
   -2.6193   -1.6337   -1.4958 C   0  0  0  0  0  0  0  0  0  0  0  0
   -1.5250   -1.8049   -1.4036 H   0  0  0  0  0  0  0  0  0  0  0  0
   -2.7645   -1.0823   -2.4503 H   0  0  0  0  0  0  0  0  0  0  0  0
   -3.3830   -2.9660   -1.5337 C   0  0  0  0  0  0  0  0  0  0  0  0
   -3.0349   -3.5612   -2.4023 H   0  0  0  0  0  0  0  0  0  0  0  0
   -3.1294   -3.5584   -0.6256 H   0  0  0  0  0  0  0  0  0  0  0  0
   -4.8995   -2.7507   -1.5927 C   0  0  0  0  0  0  0  0  0  0  0  0
   -5.1639   -2.2630   -2.5568 H   0  0  0  0  0  0  0  0  0  0  0  0
   -5.4287   -3.7251   -1.5800 H   0  0  0  0  0  0  0  0  0  0  0  0
   -5.3757   -1.8703   -0.4324 C   0  0  0  0  0  0  0  0  0  0  0  0
   -5.2169   -2.4054    0.5307 H   0  0  0  0  0  0  0  0  0  0  0  0
   -6.4651   -1.6757   -0.5040 H   0  0  0  0  0  0  0  0  0  0  0  0
   -4.6230   -0.5297   -0.3973 C   0  0  0  0  0  0  0  0  0  0  0  0
   -4.8509    0.0535   -1.3160 H   0  0  0  0  0  0  0  0  0  0  0  0
   -4.9696    0.0812    0.4616 H   0  0  0  0  0  0  0  0  0  0  0  0
    3.3655    0.7002   -0.4257 C   0  0  0  0  0  0  0  0  0  0  0  0
    4.2952    0.1603   -0.1347 H   0  0  0  0  0  0  0  0  0  0  0  0
    2.8897    1.5862    0.7293 C   0  0  0  0  0  0  0  0  0  0  0  0
    1.9069    2.0222    0.4379 H   0  0  0  0  0  0  0  0  0  0  0  0
    2.7152    0.9837    1.6466 H   0  0  0  0  0  0  0  0  0  0  0  0
    3.9016    2.7110    0.9983 C   0  0  0  0  0  0  0  0  0  0  0  0
    4.8550    2.2685    1.3641 H   0  0  0  0  0  0  0  0  0  0  0  0
    3.5259    3.3577    1.8180 H   0  0  0  0  0  0  0  0  0  0  0  0
    4.1683    3.5315   -0.2695 C   0  0  0  0  0  0  0  0  0  0  0  0
    3.2351    4.0596   -0.5666 H   0  0  0  0  0  0  0  0  0  0  0  0
    4.9230    4.3180   -0.0658 H   0  0  0  0  0  0  0  0  0  0  0  0
    4.6296    2.6332   -1.4231 C   0  0  0  0  0  0  0  0  0  0  0  0
    5.6210    2.1927   -1.1739 H   0  0  0  0  0  0  0  0  0  0  0  0
    4.7774    3.2270   -2.3476 H   0  0  0  0  0  0  0  0  0  0  0  0
    3.6246    1.5051   -1.7041 C   0  0  0  0  0  0  0  0  0  0  0  0
    3.9967    0.8350   -2.5053 H   0  0  0  0  0  0  0  0  0  0  0  0
    2.6606    1.9245   -2.0645 H   0  0  0  0  0  0  0  0  0  0  0  0
  1 40  1  0  0  0  0
  1 13  1  0  0  0  0
  2 57  1  0  0  0  0
  2 28  1  0  0  0  0
  3  8  1  0  0  0  0
  4  6  1  0  0  0  0
  5  4  1  0  0  0  0
  5  3  1  0  0  0  0
  6  8  2  0  0  0  0
  6  7  1  0  0  0  0
  8  9  1  0  0  0  0
 10  3  1  0  0  0  0
 10 12  1  0  0  0  0
 11 10  1  0  0  0  0
 13 14  1  1  0  0  0
 13 10  1  0  0  0  0
 15 13  1  0  0  0  0
 15 16  1  0  0  0  0
 17 19  1  0  0  0  0
 17 15  1  0  0  0  0
 18 17  1  0  0  0  0
 20 17  1  0  0  0  0
 21 23  1  0  0  0  0
 21 15  1  0  0  0  0
 22 21  1  0  0  0  0
 24 21  1  0  0  0  0
 25 27  1  0  0  0  0
 25  4  1  0  0  0  0
 26 25  1  0  0  0  0
 28 25  1  0  0  0  0
 28 29  1  1  0  0  0
 30 28  1  0  0  0  0
 30 32  1  0  0  0  0
 31 30  1  0  0  0  0
 32 33  1  0  0  0  0
 32 34  1  0  0  0  0
 35 32  1  0  0  0  0
 36 37  1  0  0  0  0
 36 30  1  0  0  0  0
 38 36  1  0  0  0  0
 39 36  1  0  0  0  0
 40 41  1  0  0  0  0
 42 43  1  0  0  0  0
 42 40  1  0  0  0  0
 44 42  1  0  0  0  0
 45 42  1  0  0  0  0
 45 47  1  0  0  0  0
 46 45  1  0  0  0  0
 48 50  1  0  0  0  0
 48 45  1  0  0  0  0
 48 51  1  0  0  0  0
 49 48  1  0  0  0  0
 51 54  1  0  0  0  0
 51 52  1  0  0  0  0
 53 51  1  0  0  0  0
 54 40  1  0  0  0  0
 54 56  1  0  0  0  0
 55 54  1  0  0  0  0
 57 58  1  0  0  0  0
 57 59  1  0  0  0  0
 59 62  1  0  0  0  0
 59 61  1  0  0  0  0
 60 59  1  0  0  0  0
 62 63  1  0  0  0  0
 62 64  1  0  0  0  0
 65 67  1  0  0  0  0
 65 62  1  0  0  0  0
 66 65  1  0  0  0  0
 68 69  1  0  0  0  0
 68 65  1  0  0  0  0
 70 68  1  0  0  0  0
 71 68  1  0  0  0  0
 71 57  1  0  0  0  0
 72 71  1  0  0  0  0
 73 71  1  0  0  0  0
M  END
