1,2,5
 OpenBabel05122313063D

 45 47  0  0  1  0  0  0  0  0999 V2000
    2.1608    1.2034   -0.8088 S   0  0  0  0  0  1  0  0  0  0  0  0
   -2.1610    1.2035    0.8088 S   0  0  0  0  0  1  0  0  0  0  0  0
    3.4341   -1.1074   -1.2592 N   0  0  0  0  0  0  0  0  0  0  0  0
   -3.4343   -1.1073    1.2596 N   0  0  0  0  0  0  0  0  0  0  0  0
   -0.0001   -0.5748    0.0003 C   0  0  0  0  0  2  0  0  0  0  0  0
    1.1500   -1.3104   -0.4255 C   0  0  0  0  0  0  0  0  0  0  0  0
    1.1361   -2.7225   -0.4249 C   0  0  0  0  0  0  0  0  0  0  0  0
    0.0000   -3.4247    0.0007 C   0  0  0  0  0  0  0  0  0  0  0  0
   -1.1361   -2.7224    0.4261 C   0  0  0  0  0  0  0  0  0  0  0  0
   -1.1501   -1.3103    0.4262 C   0  0  0  0  0  0  0  0  0  0  0  0
    2.3017   -0.5062   -0.8481 C   0  0  2  0  0  3  0  0  0  0  0  0
    4.6738   -0.4329   -1.6322 C   0  0  0  0  0  0  0  0  0  0  0  0
    5.7292   -0.5204   -0.5477 C   0  0  0  0  0  0  0  0  0  0  0  0
    5.5106    0.0962    0.7028 C   0  0  0  0  0  0  0  0  0  0  0  0
    6.4751    0.0014    1.7146 C   0  0  0  0  0  0  0  0  0  0  0  0
    7.6690   -0.7059    1.4909 C   0  0  0  0  0  0  0  0  0  0  0  0
    7.8940   -1.3194    0.2498 C   0  0  0  0  0  0  0  0  0  0  0  0
    6.9257   -1.2287   -0.7631 C   0  0  0  0  0  0  0  0  0  0  0  0
   -2.3018   -0.5061    0.8485 C   0  0  0  0  0  0  0  0  0  0  0  0
   -4.6741   -0.4327    1.6320 C   0  0  0  0  0  0  0  0  0  0  0  0
   -5.7293   -0.5203    0.5472 C   0  0  0  0  0  0  0  0  0  0  0  0
   -6.9256   -1.2290    0.7622 C   0  0  0  0  0  0  0  0  0  0  0  0
   -7.8936   -1.3198   -0.2511 C   0  0  0  0  0  0  0  0  0  0  0  0
   -7.6683   -0.7061   -1.4920 C   0  0  0  0  0  0  0  0  0  0  0  0
   -6.4745    0.0015   -1.7152 C   0  0  0  0  0  0  0  0  0  0  0  0
   -5.5104    0.0965   -0.7031 C   0  0  0  0  0  0  0  0  0  0  0  0
    3.4858   -2.1233   -1.1549 H   0  0  0  0  0  0  0  0  0  0  0  0
   -3.4860   -2.1232    1.1552 H   0  0  0  0  0  0  0  0  0  0  0  0
    2.0108   -3.3051   -0.7601 H   0  0  0  0  0  0  0  0  0  0  0  0
    0.0001   -4.5241    0.0009 H   0  0  0  0  0  0  0  0  0  0  0  0
   -2.0108   -3.3050    0.7616 H   0  0  0  0  0  0  0  0  0  0  0  0
    4.4115    0.6228   -1.8487 H   0  0  0  0  0  0  0  0  0  0  0  0
    5.0513   -0.8846   -2.5727 H   0  0  0  0  0  0  0  0  0  0  0  0
    4.5795    0.6594    0.8745 H   0  0  0  0  0  0  0  0  0  0  0  0
    6.2967    0.4899    2.6844 H   0  0  0  0  0  0  0  0  0  0  0  0
    8.4264   -0.7754    2.2863 H   0  0  0  0  0  0  0  0  0  0  0  0
    8.8276   -1.8730    0.0673 H   0  0  0  0  0  0  0  0  0  0  0  0
    7.1039   -1.7107   -1.7382 H   0  0  0  0  0  0  0  0  0  0  0  0
   -4.4119    0.6230    1.8486 H   0  0  0  0  0  0  0  0  0  0  0  0
   -5.0521   -0.8844    2.5724 H   0  0  0  0  0  0  0  0  0  0  0  0
   -7.1039   -1.7111    1.7371 H   0  0  0  0  0  0  0  0  0  0  0  0
   -8.8271   -1.8737   -0.0689 H   0  0  0  0  0  0  0  0  0  0  0  0
   -8.4255   -0.7758   -2.2877 H   0  0  0  0  0  0  0  0  0  0  0  0
   -6.2959    0.4902   -2.6850 H   0  0  0  0  0  0  0  0  0  0  0  0
   -4.5794    0.6599   -0.8746 H   0  0  0  0  0  0  0  0  0  0  0  0
  2 19  1  0  0  0  0
  3 27  1  0  0  0  0
  3 11  1  0  0  0  0
  4 20  1  0  0  0  0
  5 10  1  0  0  0  0
  6  7  2  0  0  0  0
  6  5  1  0  0  0  0
  7  8  1  0  0  0  0
  8 30  1  0  0  0  0
  8  9  2  0  0  0  0
  9 10  1  0  0  0  0
  9 31  1  0  0  0  0
 10 19  2  0  0  0  0
 11  1  1  6  0  0  0
 11  6  1  0  0  0  0
 12  3  1  0  0  0  0
 12 13  1  0  0  0  0
 13 14  1  0  0  0  0
 14 34  1  0  0  0  0
 14 15  2  0  0  0  0
 15 35  1  0  0  0  0
 16 15  1  0  0  0  0
 16 36  1  0  0  0  0
 17 16  2  0  0  0  0
 18 13  2  0  0  0  0
 18 17  1  0  0  0  0
 19  4  1  0  0  0  0
 20 39  1  0  0  0  0
 20 40  1  0  0  0  0
 21 22  1  0  0  0  0
 21 20  1  0  0  0  0
 22 41  1  0  0  0  0
 23 42  1  0  0  0  0
 23 22  2  0  0  0  0
 24 23  1  0  0  0  0
 25 24  2  0  0  0  0
 25 26  1  0  0  0  0
 26 21  2  0  0  0  0
 28  4  1  0  0  0  0
 29  7  1  0  0  0  0
 32 12  1  0  0  0  0
 33 12  1  0  0  0  0
 37 17  1  0  0  0  0
 38 18  1  0  0  0  0
 43 24  1  0  0  0  0
 44 25  1  0  0  0  0
 45 26  1  0  0  0  0
M  END
