1,2,6
 OpenBabel05122313063D

 46 46  0  0  1  0  0  0  0  0999 V2000
   -2.2495   -1.5128   -0.3615 S   0  0  0  0  0  1  0  0  0  0  0  0
    2.0561   -1.7126   -0.2193 S   0  0  0  0  0  1  0  0  0  0  0  0
    0.1223    2.9298   -0.5981 N   0  0  0  0  0  0  0  0  0  0  0  0
   -3.7291    0.7006   -0.0971 N   0  0  0  0  0  0  0  0  0  0  0  0
    3.6772    0.3578    0.2636 N   0  0  0  0  0  0  0  0  0  0  0  0
   -0.0238    0.1515   -0.2109 C   0  0  0  0  0  2  0  0  0  0  0  0
   -2.4830    0.1949   -0.2193 C   0  0  2  0  0  3  0  0  0  0  0  0
    2.4189   -0.0346   -0.0169 C   0  0  2  0  0  3  0  0  0  0  0  0
   -1.2190    0.9609   -0.2730 C   0  0  0  0  0  0  0  0  0  0  0  0
    1.2423    0.8458   -0.1786 C   0  0  0  0  0  0  0  0  0  0  0  0
   -1.1018    2.3327   -0.4917 C   0  0  0  0  0  0  0  0  0  0  0  0
   -1.9518    3.0077   -0.6352 H   0  0  0  0  0  0  0  0  0  0  0  0
    1.2749    2.2193   -0.4204 C   0  0  0  0  0  0  0  0  0  0  0  0
    2.1943    2.8007   -0.5463 H   0  0  0  0  0  0  0  0  0  0  0  0
    0.1913    4.3514   -0.9694 C   0  0  0  0  0  0  0  0  0  0  0  0
   -0.6000    4.9142   -0.4413 H   0  0  0  0  0  0  0  0  0  0  0  0
    0.0568    4.4677   -2.0633 H   0  0  0  0  0  0  0  0  0  0  0  0
    1.1738    4.7622   -0.6781 H   0  0  0  0  0  0  0  0  0  0  0  0
   -4.8891   -0.2105   -0.2140 C   0  0  0  0  0  0  0  0  0  0  0  0
   -4.6115   -1.0178   -0.9199 H   0  0  0  0  0  0  0  0  0  0  0  0
   -5.7024    0.3739   -0.6905 H   0  0  0  0  0  0  0  0  0  0  0  0
   -5.3426   -0.7956    1.1225 C   0  0  0  0  0  0  0  0  0  0  0  0
   -4.5286   -1.3748    1.6001 H   0  0  0  0  0  0  0  0  0  0  0  0
   -6.1933   -1.4840    0.9527 H   0  0  0  0  0  0  0  0  0  0  0  0
   -5.6832   -0.0087    1.8245 H   0  0  0  0  0  0  0  0  0  0  0  0
   -4.0530    2.0600    0.3799 C   0  0  0  0  0  0  0  0  0  0  0  0
   -5.1576    2.1152    0.3899 H   0  0  0  0  0  0  0  0  0  0  0  0
   -3.7467    2.8144   -0.3753 H   0  0  0  0  0  0  0  0  0  0  0  0
   -3.5196    2.3865    1.7735 C   0  0  0  0  0  0  0  0  0  0  0  0
   -3.8998    1.6595    2.5168 H   0  0  0  0  0  0  0  0  0  0  0  0
   -3.8618    3.3959    2.0758 H   0  0  0  0  0  0  0  0  0  0  0  0
   -2.4136    2.3712    1.8244 H   0  0  0  0  0  0  0  0  0  0  0  0
    4.0692    1.6977    0.7256 C   0  0  0  0  0  0  0  0  0  0  0  0
    4.7634    1.5445    1.5778 H   0  0  0  0  0  0  0  0  0  0  0  0
    3.1835    2.2004    1.1573 H   0  0  0  0  0  0  0  0  0  0  0  0
    4.7518    2.5495   -0.3448 C   0  0  0  0  0  0  0  0  0  0  0  0
    5.6723    2.0629   -0.7223 H   0  0  0  0  0  0  0  0  0  0  0  0
    5.0457    3.5289    0.0816 H   0  0  0  0  0  0  0  0  0  0  0  0
    4.1002    2.7301   -1.2239 H   0  0  0  0  0  0  0  0  0  0  0  0
    4.7637   -0.6443    0.3045 C   0  0  0  0  0  0  0  0  0  0  0  0
    5.6964   -0.1142    0.0256 H   0  0  0  0  0  0  0  0  0  0  0  0
    4.5652   -1.3915   -0.4896 H   0  0  0  0  0  0  0  0  0  0  0  0
    4.9055   -1.3220    1.6668 C   0  0  0  0  0  0  0  0  0  0  0  0
    5.1241   -0.5896    2.4698 H   0  0  0  0  0  0  0  0  0  0  0  0
    5.7447   -2.0436    1.6325 H   0  0  0  0  0  0  0  0  0  0  0  0
    3.9876   -1.8802    1.9335 H   0  0  0  0  0  0  0  0  0  0  0  0
  3 11  1  0  0  0  0
  3 13  1  0  0  0  0
  4 26  1  0  0  0  0
  5 40  1  0  0  0  0
  5 33  1  0  0  0  0
  6 10  1  0  0  0  0
  7  1  1  6  0  0  0
  7  4  1  0  0  0  0
  8  2  1  1  0  0  0
  8  5  1  0  0  0  0
  9  7  1  0  0  0  0
  9  6  1  0  0  0  0
 10  8  1  0  0  0  0
 11  9  2  0  0  0  0
 12 11  1  0  0  0  0
 13 10  2  0  0  0  0
 14 13  1  0  0  0  0
 15 18  1  0  0  0  0
 15  3  1  0  0  0  0
 15 16  1  0  0  0  0
 17 15  1  0  0  0  0
 19  4  1  0  0  0  0
 19 22  1  0  0  0  0
 20 19  1  0  0  0  0
 21 19  1  0  0  0  0
 22 23  1  0  0  0  0
 22 25  1  0  0  0  0
 24 22  1  0  0  0  0
 26 27  1  0  0  0  0
 26 29  1  0  0  0  0
 28 26  1  0  0  0  0
 29 32  1  0  0  0  0
 29 31  1  0  0  0  0
 29 30  1  0  0  0  0
 33 35  1  0  0  0  0
 33 34  1  0  0  0  0
 36 38  1  0  0  0  0
 36 33  1  0  0  0  0
 37 36  1  0  0  0  0
 39 36  1  0  0  0  0
 40 43  1  0  0  0  0
 41 40  1  0  0  0  0
 42 40  1  0  0  0  0
 43 46  1  0  0  0  0
 43 44  1  0  0  0  0
 45 43  1  0  0  0  0
M  END
