1,2,6
 OpenBabel05122313063D

 44 45  0  0  0  0  0  0  0  0999 V2000
   -0.6474   -2.7158    0.4985 S   0  0  0  0  0  0  0  0  0  0  0  0
   -0.1402    0.7479   -2.4566 S   0  0  0  0  0  0  0  0  0  0  0  0
   -1.1454   -0.0248    2.2248 O   0  0  0  0  0  0  0  0  0  0  0  0
   -0.2986    2.6897    2.4672 O   0  0  0  0  0  0  0  0  0  0  0  0
    0.8255    2.9524   -0.2870 O   0  0  0  0  0  0  0  0  0  0  0  0
   -2.1067   -0.5269   -0.8669 C   0  0  0  0  0  3  0  0  0  0  0  0
   -2.6259    0.6726   -1.4158 C   0  0  0  0  0  0  0  0  0  0  0  0
   -4.0171    0.8973   -1.4211 C   0  0  0  0  0  0  0  0  0  0  0  0
   -4.8874   -0.0567   -0.8759 C   0  0  0  0  0  0  0  0  0  0  0  0
   -4.3824   -1.2619   -0.3624 C   0  0  0  0  0  0  0  0  0  0  0  0
   -2.9974   -1.5140   -0.3726 C   0  0  0  0  0  0  0  0  0  0  0  0
   -2.4397   -2.8416    0.0622 C   0  0  0  0  0  0  0  0  0  0  0  0
   -0.7266   -2.3807    2.3071 C   0  0  0  0  0  0  0  0  0  0  0  0
   -1.6274   -1.2412    2.7447 C   0  0  0  0  0  0  0  0  0  0  0  0
   -2.0443    1.0661    2.3999 C   0  0  0  0  0  0  0  0  0  0  0  0
   -1.4534    2.2913    1.7497 C   0  0  0  0  0  0  0  0  0  0  0  0
    0.3577    3.8220    1.9244 C   0  0  0  0  0  0  0  0  0  0  0  0
    1.4200    3.4693    0.8977 C   0  0  0  0  0  0  0  0  0  0  0  0
    1.7897    2.4782   -1.2006 C   0  0  0  0  0  0  0  0  0  0  0  0
    1.1373    2.0693   -2.5058 C   0  0  0  0  0  0  0  0  0  0  0  0
   -1.6667    1.6808   -1.9900 C   0  0  0  0  0  0  0  0  0  0  0  0
   -4.4216    1.8248   -1.8556 H   0  0  0  0  0  0  0  0  0  0  0  0
   -5.9713    0.1297   -0.8691 H   0  0  0  0  0  0  0  0  0  0  0  0
   -5.0756   -2.0193    0.0363 H   0  0  0  0  0  0  0  0  0  0  0  0
   -2.4546   -3.5751   -0.7723 H   0  0  0  0  0  0  0  0  0  0  0  0
   -2.9772   -3.3094    0.9122 H   0  0  0  0  0  0  0  0  0  0  0  0
   -1.0463   -3.3303    2.7820 H   0  0  0  0  0  0  0  0  0  0  0  0
    0.3270   -2.1897    2.5947 H   0  0  0  0  0  0  0  0  0  0  0  0
   -1.6416   -1.2217    3.8627 H   0  0  0  0  0  0  0  0  0  0  0  0
   -2.6791   -1.4169    2.4141 H   0  0  0  0  0  0  0  0  0  0  0  0
   -3.0224    0.8319    1.9178 H   0  0  0  0  0  0  0  0  0  0  0  0
   -2.2168    1.2515    3.4860 H   0  0  0  0  0  0  0  0  0  0  0  0
   -2.2229    3.1014    1.7455 H   0  0  0  0  0  0  0  0  0  0  0  0
   -1.2053    2.0487    0.6941 H   0  0  0  0  0  0  0  0  0  0  0  0
   -0.3749    4.5375    1.4816 H   0  0  0  0  0  0  0  0  0  0  0  0
    0.8613    4.3422    2.7665 H   0  0  0  0  0  0  0  0  0  0  0  0
    2.1105    2.7096    1.3353 H   0  0  0  0  0  0  0  0  0  0  0  0
    2.0244    4.3805    0.6638 H   0  0  0  0  0  0  0  0  0  0  0  0
    2.5382    3.2753   -1.4388 H   0  0  0  0  0  0  0  0  0  0  0  0
    2.3571    1.6205   -0.7700 H   0  0  0  0  0  0  0  0  0  0  0  0
    1.9096    1.6858   -3.2015 H   0  0  0  0  0  0  0  0  0  0  0  0
    0.6395    2.9291   -2.9999 H   0  0  0  0  0  0  0  0  0  0  0  0
   -1.3468    2.4496   -1.2566 H   0  0  0  0  0  0  0  0  0  0  0  0
   -2.0593    2.1862   -2.8954 H   0  0  0  0  0  0  0  0  0  0  0  0
  1 13  1  0  0  0  0
  2 21  1  0  0  0  0
  3 15  1  0  0  0  0
  3 14  1  0  0  0  0
  5 18  1  0  0  0  0
  6 11  1  0  0  0  0
  7  6  2  0  0  0  0
  8  7  1  0  0  0  0
  8  9  2  0  0  0  0
  9 23  1  0  0  0  0
  9 10  1  0  0  0  0
 10 24  1  0  0  0  0
 11 10  2  0  0  0  0
 11 12  1  0  0  0  0
 12  1  1  0  0  0  0
 12 26  1  0  0  0  0
 13 28  1  0  0  0  0
 13 14  1  0  0  0  0
 13 27  1  0  0  0  0
 14 29  1  0  0  0  0
 15 32  1  0  0  0  0
 16 15  1  0  0  0  0
 16  4  1  0  0  0  0
 17  4  1  0  0  0  0
 17 36  1  0  0  0  0
 18 37  1  0  0  0  0
 18 17  1  0  0  0  0
 19 40  1  0  0  0  0
 19  5  1  0  0  0  0
 20  2  1  0  0  0  0
 20 19  1  0  0  0  0
 21  7  1  0  0  0  0
 21 43  1  0  0  0  0
 22  8  1  0  0  0  0
 25 12  1  0  0  0  0
 30 14  1  0  0  0  0
 31 15  1  0  0  0  0
 33 16  1  0  0  0  0
 34 16  1  0  0  0  0
 35 17  1  0  0  0  0
 38 18  1  0  0  0  0
 39 19  1  0  0  0  0
 41 20  1  0  0  0  0
 42 20  1  0  0  0  0
 44 21  1  0  0  0  0
M  END
