1,2,7
 OpenBabel05122313063D

 41 43  0  0  1  0  0  0  0  0999 V2000
   -2.3030    1.3861   -0.1852 S   0  0  0  0  0  1  0  0  0  0  0  0
    2.3031    1.3861   -0.1853 S   0  0  0  0  0  1  0  0  0  0  0  0
   -5.7146   -1.4080    1.5718 O   0  0  0  0  0  0  0  0  0  0  0  0
    5.7146   -1.4081    1.5718 O   0  0  0  0  0  0  0  0  0  0  0  0
   -3.6793   -0.9050   -0.3642 N   0  0  0  0  0  0  0  0  0  0  0  0
    3.6793   -0.9051   -0.3642 N   0  0  0  0  0  0  0  0  0  0  0  0
   -0.0000   -0.3602   -0.5243 C   0  0  0  0  0  3  0  0  0  0  0  0
   -1.2312   -1.0558   -0.7521 C   0  0  0  0  0  0  0  0  0  0  0  0
   -1.2153   -2.3163   -1.3968 C   0  0  0  0  0  0  0  0  0  0  0  0
   -0.0000   -2.9247   -1.7392 C   0  0  0  0  0  0  0  0  0  0  0  0
    1.2152   -2.3163   -1.3968 C   0  0  0  0  0  0  0  0  0  0  0  0
    1.2312   -1.0559   -0.7521 C   0  0  0  0  0  0  0  0  0  0  0  0
   -2.4565   -0.3090   -0.4385 C   0  0  1  0  0  3  0  0  0  0  0  0
   -4.9113   -0.1092   -0.3135 C   0  0  0  0  0  0  0  0  0  0  0  0
   -5.4795   -0.0865    1.1072 C   0  0  0  0  0  0  0  0  0  0  0  0
   -3.8931   -2.2583    0.1682 C   0  0  0  0  0  0  0  0  0  0  0  0
   -4.5192   -2.1595    1.5696 C   0  0  0  0  0  0  0  0  0  0  0  0
    2.4565   -0.3090   -0.4385 C   0  0  2  0  0  3  0  0  0  0  0  0
    4.9113   -0.1093   -0.3135 C   0  0  0  0  0  0  0  0  0  0  0  0
    5.4796   -0.0866    1.1072 C   0  0  0  0  0  0  0  0  0  0  0  0
    3.8930   -2.2584    0.1683 C   0  0  0  0  0  0  0  0  0  0  0  0
    4.5192   -2.1594    1.5697 C   0  0  0  0  0  0  0  0  0  0  0  0
   -2.1550   -2.8002   -1.6997 H   0  0  0  0  0  0  0  0  0  0  0  0
   -0.0000   -3.8753   -2.2919 H   0  0  0  0  0  0  0  0  0  0  0  0
    2.1549   -2.8002   -1.6997 H   0  0  0  0  0  0  0  0  0  0  0  0
   -4.6994    0.9126   -0.6810 H   0  0  0  0  0  0  0  0  0  0  0  0
   -5.6464   -0.5929   -0.9930 H   0  0  0  0  0  0  0  0  0  0  0  0
   -6.4515    0.4447    1.1270 H   0  0  0  0  0  0  0  0  0  0  0  0
   -4.7672    0.4511    1.7783 H   0  0  0  0  0  0  0  0  0  0  0  0
   -4.5740   -2.8147   -0.5122 H   0  0  0  0  0  0  0  0  0  0  0  0
   -2.9344   -2.7994    0.2359 H   0  0  0  0  0  0  0  0  0  0  0  0
   -3.7662   -1.7090    2.2637 H   0  0  0  0  0  0  0  0  0  0  0  0
   -4.7686   -3.1755    1.9372 H   0  0  0  0  0  0  0  0  0  0  0  0
    5.6463   -0.5931   -0.9930 H   0  0  0  0  0  0  0  0  0  0  0  0
    4.6994    0.9125   -0.6811 H   0  0  0  0  0  0  0  0  0  0  0  0
    4.7672    0.4511    1.7783 H   0  0  0  0  0  0  0  0  0  0  0  0
    6.4515    0.4446    1.1269 H   0  0  0  0  0  0  0  0  0  0  0  0
    2.9343   -2.7994    0.2361 H   0  0  0  0  0  0  0  0  0  0  0  0
    4.5739   -2.8148   -0.5121 H   0  0  0  0  0  0  0  0  0  0  0  0
    4.7685   -3.1754    1.9373 H   0  0  0  0  0  0  0  0  0  0  0  0
    3.7661   -1.7089    2.2638 H   0  0  0  0  0  0  0  0  0  0  0  0
  5 14  1  0  0  0  0
  5 16  1  0  0  0  0
  6 19  1  0  0  0  0
  6 21  1  0  0  0  0
  8  7  2  0  0  0  0
  8 13  1  0  0  0  0
  9  8  1  0  0  0  0
 10  9  2  0  0  0  0
 10 11  1  0  0  0  0
 11 12  2  0  0  0  0
 12  7  1  0  0  0  0
 12 18  1  0  0  0  0
 13  5  1  0  0  0  0
 13  1  1  6  0  0  0
 14 15  1  0  0  0  0
 15 28  1  0  0  0  0
 15  3  1  0  0  0  0
 15 29  1  0  0  0  0
 16 31  1  0  0  0  0
 16 17  1  0  0  0  0
 17  3  1  0  0  0  0
 17 33  1  0  0  0  0
 17 32  1  0  0  0  0
 18  6  1  0  0  0  0
 18  2  1  6  0  0  0
 19 20  1  0  0  0  0
 20 37  1  0  0  0  0
 20  4  1  0  0  0  0
 20 36  1  0  0  0  0
 21 38  1  0  0  0  0
 21 22  1  0  0  0  0
 22  4  1  0  0  0  0
 22 40  1  0  0  0  0
 22 41  1  0  0  0  0
 23  9  1  0  0  0  0
 24 10  1  0  0  0  0
 25 11  1  0  0  0  0
 26 14  1  0  0  0  0
 27 14  1  0  0  0  0
 30 16  1  0  0  0  0
 34 19  1  0  0  0  0
 35 19  1  0  0  0  0
 39 21  1  0  0  0  0
M  END
