1,2,5
 OpenBabel05122313063D

 39 41  0  0  0  0  0  0  0  0999 V2000
   -1.5919   -0.5989    1.6742 S   0  0  0  0  0  0  0  0  0  0  0  0
    1.5918   -0.5989   -1.6741 S   0  0  0  0  0  0  0  0  0  0  0  0
   -5.6969    1.7007   -0.5030 F   0  0  0  0  0  0  0  0  0  0  0  0
    5.6970    1.7006    0.5027 F   0  0  0  0  0  0  0  0  0  0  0  0
   -0.0000    1.2157    0.0000 C   0  0  0  0  0  3  0  0  0  0  0  0
   -0.6580    1.9361    1.0298 C   0  0  0  0  0  0  0  0  0  0  0  0
   -0.6663    3.3436    1.0174 C   0  0  0  0  0  0  0  0  0  0  0  0
   -1.1852    3.8990    1.8152 H   0  0  0  0  0  0  0  0  0  0  0  0
    0.0001    4.0444    0.0001 C   0  0  0  0  0  0  0  0  0  0  0  0
    0.0001    5.1444    0.0001 H   0  0  0  0  0  0  0  0  0  0  0  0
    0.6664    3.3436   -1.0172 C   0  0  0  0  0  0  0  0  0  0  0  0
    1.1852    3.8990   -1.8151 H   0  0  0  0  0  0  0  0  0  0  0  0
    0.6580    1.9361   -1.0297 C   0  0  0  0  0  0  0  0  0  0  0  0
   -1.2795    1.1544    2.1563 C   0  0  0  0  0  0  0  0  0  0  0  0
   -2.2074    1.5932    2.5760 H   0  0  0  0  0  0  0  0  0  0  0  0
   -0.5696    1.0311    3.0027 H   0  0  0  0  0  0  0  0  0  0  0  0
   -3.0641   -0.5182    0.6371 C   0  0  0  0  0  0  0  0  0  0  0  0
   -3.8185    0.6518    0.4653 C   0  0  0  0  0  0  0  0  0  0  0  0
   -3.5366    1.6195    0.8987 H   0  0  0  0  0  0  0  0  0  0  0  0
   -4.9705    0.5814   -0.3300 C   0  0  0  0  0  0  0  0  0  0  0  0
   -5.3796   -0.6048   -0.9471 C   0  0  0  0  0  0  0  0  0  0  0  0
   -6.2896   -0.6076   -1.5630 H   0  0  0  0  0  0  0  0  0  0  0  0
   -4.5981   -1.7576   -0.7650 C   0  0  0  0  0  0  0  0  0  0  0  0
   -4.8942   -2.6975   -1.2541 H   0  0  0  0  0  0  0  0  0  0  0  0
   -3.4404   -1.7296    0.0229 C   0  0  0  0  0  0  0  0  0  0  0  0
   -2.7999   -2.6198    0.1303 H   0  0  0  0  0  0  0  0  0  0  0  0
    1.2794    1.1544   -2.1563 C   0  0  0  0  0  0  0  0  0  0  0  0
    2.2073    1.5932   -2.5760 H   0  0  0  0  0  0  0  0  0  0  0  0
    0.5695    1.0310   -3.0026 H   0  0  0  0  0  0  0  0  0  0  0  0
    3.0640   -0.5182   -0.6371 C   0  0  0  0  0  0  0  0  0  0  0  0
    3.8186    0.6518   -0.4654 C   0  0  0  0  0  0  0  0  0  0  0  0
    3.5367    1.6194   -0.8989 H   0  0  0  0  0  0  0  0  0  0  0  0
    4.9706    0.5814    0.3298 C   0  0  0  0  0  0  0  0  0  0  0  0
    5.3797   -0.6049    0.9469 C   0  0  0  0  0  0  0  0  0  0  0  0
    6.2897   -0.6076    1.5628 H   0  0  0  0  0  0  0  0  0  0  0  0
    4.5981   -1.7576    0.7650 C   0  0  0  0  0  0  0  0  0  0  0  0
    4.8941   -2.6975    1.2542 H   0  0  0  0  0  0  0  0  0  0  0  0
    3.4403   -1.7296   -0.0228 C   0  0  0  0  0  0  0  0  0  0  0  0
    2.7998   -2.6197   -0.1301 H   0  0  0  0  0  0  0  0  0  0  0  0
  1 14  1  0  0  0  0
  2 30  1  0  0  0  0
  3 20  1  0  0  0  0
  5  6  1  0  0  0  0
  6 14  1  0  0  0  0
  7  6  2  0  0  0  0
  7  8  1  0  0  0  0
  9 10  1  0  0  0  0
  9  7  1  0  0  0  0
 11  9  2  0  0  0  0
 12 11  1  0  0  0  0
 13 11  1  0  0  0  0
 13  5  2  0  0  0  0
 14 15  1  0  0  0  0
 14 16  1  0  0  0  0
 17  1  1  0  0  0  0
 18 17  1  0  0  0  0
 18 19  1  0  0  0  0
 20 18  2  0  0  0  0
 21 23  2  0  0  0  0
 21 20  1  0  0  0  0
 22 21  1  0  0  0  0
 23 25  1  0  0  0  0
 24 23  1  0  0  0  0
 25 26  1  0  0  0  0
 25 17  2  0  0  0  0
 27  2  1  0  0  0  0
 27 13  1  0  0  0  0
 28 27  1  0  0  0  0
 29 27  1  0  0  0  0
 30 31  2  0  0  0  0
 30 38  1  0  0  0  0
 31 33  1  0  0  0  0
 32 31  1  0  0  0  0
 33  4  1  0  0  0  0
 33 34  2  0  0  0  0
 34 35  1  0  0  0  0
 36 34  1  0  0  0  0
 36 37  1  0  0  0  0
 38 36  2  0  0  0  0
 39 38  1  0  0  0  0
M  END
