1,2,7
 OpenBabel05122313063D

 48 51  0  0  0  0  0  0  0  0999 V2000
   -2.6335    0.9699   -0.3932 S   0  0  0  0  0  1  0  0  0  0  0  0
    1.8689    1.3354   -1.5301 S   0  0  0  0  0  1  0  0  0  0  0  0
    2.4170   -0.0743   -0.1748 P   0  0  0  0  0  4  0  0  0  0  0  0
   -3.8059   -1.3882    0.2816 N   0  0  0  0  0  0  0  0  0  0  0  0
   -3.6320   -2.3641    0.5360 H   0  0  0  0  0  0  0  0  0  0  0  0
   -1.3861   -1.3946    0.1084 C   0  0  0  0  0  0  0  0  0  0  0  0
   -0.2229   -0.6093   -0.1814 C   0  0  0  0  0  2  0  0  0  0  0  0
    1.0374   -1.2371    0.0069 C   0  0  0  0  0  0  0  0  0  0  0  0
    1.1708   -2.5805    0.3949 C   0  0  0  0  0  0  0  0  0  0  0  0
    2.1672   -3.0325    0.5239 H   0  0  0  0  0  0  0  0  0  0  0  0
    0.0121   -3.3481    0.6096 C   0  0  0  0  0  0  0  0  0  0  0  0
    0.0947   -4.4069    0.8941 H   0  0  0  0  0  0  0  0  0  0  0  0
   -1.2488   -2.7532    0.4803 C   0  0  0  0  0  0  0  0  0  0  0  0
   -2.1307   -3.3867    0.6813 H   0  0  0  0  0  0  0  0  0  0  0  0
   -2.6721   -0.6894    0.0158 C   0  0  0  0  0  0  0  0  0  0  0  0
   -5.1742   -1.0674    0.2994 C   0  0  0  0  0  0  0  0  0  0  0  0
   -6.0527   -2.1048    0.6967 C   0  0  0  0  0  0  0  0  0  0  0  0
   -5.6395   -3.0898    0.9700 H   0  0  0  0  0  0  0  0  0  0  0  0
   -7.4322   -1.8905    0.7455 C   0  0  0  0  0  0  0  0  0  0  0  0
   -8.0966   -2.7101    1.0573 H   0  0  0  0  0  0  0  0  0  0  0  0
   -7.9646   -0.6370    0.3989 C   0  0  0  0  0  0  0  0  0  0  0  0
   -9.0503   -0.4650    0.4370 H   0  0  0  0  0  0  0  0  0  0  0  0
   -7.0963    0.3905    0.0031 C   0  0  0  0  0  0  0  0  0  0  0  0
   -7.4990    1.3764   -0.2736 H   0  0  0  0  0  0  0  0  0  0  0  0
   -5.7093    0.1915   -0.0512 C   0  0  0  0  0  0  0  0  0  0  0  0
   -5.0467    1.0060   -0.3667 H   0  0  0  0  0  0  0  0  0  0  0  0
    2.7131    0.6315    1.4874 C   0  0  0  0  0  0  0  0  0  0  0  0
    3.1039   -0.2056    2.5534 C   0  0  0  0  0  0  0  0  0  0  0  0
    3.2668   -1.2819    2.3869 H   0  0  0  0  0  0  0  0  0  0  0  0
    3.2808    0.3388    3.8325 C   0  0  0  0  0  0  0  0  0  0  0  0
    3.5876   -0.3111    4.6659 H   0  0  0  0  0  0  0  0  0  0  0  0
    3.0590    1.7098    4.0503 C   0  0  0  0  0  0  0  0  0  0  0  0
    3.1936    2.1330    5.0574 H   0  0  0  0  0  0  0  0  0  0  0  0
    2.6595    2.5371    2.9896 C   0  0  0  0  0  0  0  0  0  0  0  0
    2.4753    3.6082    3.1606 H   0  0  0  0  0  0  0  0  0  0  0  0
    2.4847    2.0020    1.7038 C   0  0  0  0  0  0  0  0  0  0  0  0
    2.1569    2.6330    0.8619 H   0  0  0  0  0  0  0  0  0  0  0  0
    3.9209   -0.9795   -0.6591 C   0  0  0  0  0  0  0  0  0  0  0  0
    5.1715   -0.7184   -0.0651 C   0  0  0  0  0  0  0  0  0  0  0  0
    5.2498    0.0082    0.7571 H   0  0  0  0  0  0  0  0  0  0  0  0
    6.3149   -1.3877   -0.5270 C   0  0  0  0  0  0  0  0  0  0  0  0
    7.2912   -1.1823   -0.0628 H   0  0  0  0  0  0  0  0  0  0  0  0
    6.2147   -2.3118   -1.5786 C   0  0  0  0  0  0  0  0  0  0  0  0
    7.1137   -2.8351   -1.9377 H   0  0  0  0  0  0  0  0  0  0  0  0
    4.9694   -2.5652   -2.1786 C   0  0  0  0  0  0  0  0  0  0  0  0
    4.8916   -3.2833   -3.0087 H   0  0  0  0  0  0  0  0  0  0  0  0
    3.8235   -1.8978   -1.7269 C   0  0  0  0  0  0  0  0  0  0  0  0
    2.8486   -2.0800   -2.2051 H   0  0  0  0  0  0  0  0  0  0  0  0
  1 15  1  0  0  0  0
  2  3  1  0  0  0  0
  3  8  1  0  0  0  0
  3 27  1  0  0  0  0
  4 16  1  0  0  0  0
  4  5  1  0  0  0  0
  6 13  1  0  0  0  0
  7  8  1  0  0  0  0
  7  6  1  0  0  0  0
  8  9  2  0  0  0  0
  9 10  1  0  0  0  0
  9 11  1  0  0  0  0
 11 12  1  0  0  0  0
 13 11  2  0  0  0  0
 13 14  1  0  0  0  0
 15  6  2  0  0  0  0
 15  4  1  0  0  0  0
 16 17  1  0  0  0  0
 17 19  2  0  0  0  0
 17 18  1  0  0  0  0
 19 20  1  0  0  0  0
 21 22  1  0  0  0  0
 21 19  1  0  0  0  0
 23 21  2  0  0  0  0
 24 23  1  0  0  0  0
 25 23  1  0  0  0  0
 25 16  2  0  0  0  0
 26 25  1  0  0  0  0
 27 36  2  0  0  0  0
 27 28  1  0  0  0  0
 28 30  2  0  0  0  0
 29 28  1  0  0  0  0
 30 32  1  0  0  0  0
 30 31  1  0  0  0  0
 32 33  1  0  0  0  0
 34 35  1  0  0  0  0
 34 32  2  0  0  0  0
 36 34  1  0  0  0  0
 37 36  1  0  0  0  0
 38  3  1  0  0  0  0
 38 39  1  0  0  0  0
 39 40  1  0  0  0  0
 41 39  2  0  0  0  0
 41 42  1  0  0  0  0
 43 41  1  0  0  0  0
 44 43  1  0  0  0  0
 45 47  1  0  0  0  0
 45 43  2  0  0  0  0
 46 45  1  0  0  0  0
 47 38  2  0  0  0  0
 48 47  1  0  0  0  0
M  END
