2,3,4
 OpenBabel05122313063D

 51 53  0  0  0  0  0  0  0  0999 V2000
    0.9915   -1.8954    0.2227 P   0  0  2  0  0  4  0  0  0  0  0  0
   -1.3669    0.9749    0.9626 P   0  0  1  0  0  0  0  0  0  0  0  0
   -0.1771   -1.5711   -0.9253 N   0  0  0  0  0  2  0  0  0  0  0  0
   -3.0171    0.3784   -1.4907 N   0  0  0  0  0  2  0  0  0  0  0  0
   -0.3101   -2.7387   -1.8384 C   0  0  0  0  0  0  0  0  0  0  0  0
    0.9823   -3.5720   -1.7695 C   0  0  0  0  0  0  0  0  0  0  0  0
    1.4026   -3.6081   -0.2895 C   0  0  0  0  0  0  0  0  0  0  0  0
    0.4162   -1.8744    1.9624 C   0  0  0  0  0  0  0  0  0  0  0  0
    0.4069   -0.5281    2.7063 C   0  0  0  0  0  0  0  0  0  0  0  0
   -0.8752    0.3044    2.6038 C   0  0  0  0  0  0  0  0  0  0  0  0
   -2.8751    1.7713    1.1175 C   0  0  0  0  0  3  0  0  0  0  0  0
   -3.4841    2.4192   -0.0709 C   0  0  0  0  0  0  0  0  0  0  0  0
   -3.6207    1.4708   -1.2967 C   0  0  0  0  0  0  0  0  0  0  0  0
    2.4151   -0.7925    0.0437 C   0  0  0  0  0  0  0  0  0  0  0  0
    2.4946    0.0374   -1.0914 C   0  0  0  0  0  0  0  0  0  0  0  0
    3.6181    0.8566   -1.2707 C   0  0  0  0  0  0  0  0  0  0  0  0
    4.6555    0.8468   -0.3254 C   0  0  0  0  0  0  0  0  0  0  0  0
    4.5762    0.0171    0.8063 C   0  0  0  0  0  0  0  0  0  0  0  0
    3.4585   -0.8064    0.9957 C   0  0  0  0  0  0  0  0  0  0  0  0
   -0.0765    2.0478    0.2494 C   0  0  0  0  0  0  0  0  0  0  0  0
   -0.1033    2.3359   -1.1332 C   0  0  0  0  0  0  0  0  0  0  0  0
    0.8370    3.2195   -1.6826 C   0  0  0  0  0  0  0  0  0  0  0  0
    1.8239    3.7946   -0.8672 C   0  0  0  0  0  0  0  0  0  0  0  0
    1.8667    3.4914    0.5035 C   0  0  0  0  0  0  0  0  0  0  0  0
    0.9175    2.6272    1.0667 C   0  0  0  0  0  0  0  0  0  0  0  0
   -0.5134   -2.3829   -2.8685 H   0  0  0  0  0  0  0  0  0  0  0  0
   -1.1850   -3.3498   -1.5183 H   0  0  0  0  0  0  0  0  0  0  0  0
    1.7787   -3.0891   -2.3731 H   0  0  0  0  0  0  0  0  0  0  0  0
    0.8315   -4.5927   -2.1721 H   0  0  0  0  0  0  0  0  0  0  0  0
    2.4651   -3.8623   -0.1143 H   0  0  0  0  0  0  0  0  0  0  0  0
    0.7641   -4.2961    0.3048 H   0  0  0  0  0  0  0  0  0  0  0  0
   -0.5929   -2.3424    1.9283 H   0  0  0  0  0  0  0  0  0  0  0  0
    1.0969   -2.5853    2.4774 H   0  0  0  0  0  0  0  0  0  0  0  0
    0.5477   -0.7496    3.7840 H   0  0  0  0  0  0  0  0  0  0  0  0
    1.2890    0.0781    2.4132 H   0  0  0  0  0  0  0  0  0  0  0  0
   -1.7593   -0.3008    2.8943 H   0  0  0  0  0  0  0  0  0  0  0  0
   -0.8193    1.1669    3.2982 H   0  0  0  0  0  0  0  0  0  0  0  0
   -3.5552    1.3090    1.8535 H   0  0  0  0  0  0  0  0  0  0  0  0
   -4.4870    2.8306    0.1618 H   0  0  0  0  0  0  0  0  0  0  0  0
   -2.8759    3.2733   -0.4544 H   0  0  0  0  0  0  0  0  0  0  0  0
   -4.2794    1.8618   -2.1071 H   0  0  0  0  0  0  0  0  0  0  0  0
    1.6676    0.0398   -1.8164 H   0  0  0  0  0  0  0  0  0  0  0  0
    3.6817    1.5072   -2.1548 H   0  0  0  0  0  0  0  0  0  0  0  0
    5.5370    1.4891   -0.4707 H   0  0  0  0  0  0  0  0  0  0  0  0
    5.3929    0.0080    1.5433 H   0  0  0  0  0  0  0  0  0  0  0  0
    3.4099   -1.4592    1.8815 H   0  0  0  0  0  0  0  0  0  0  0  0
   -0.8603    1.8709   -1.7828 H   0  0  0  0  0  0  0  0  0  0  0  0
    0.8000    3.4539   -2.7570 H   0  0  0  0  0  0  0  0  0  0  0  0
    2.5635    4.4843   -1.3005 H   0  0  0  0  0  0  0  0  0  0  0  0
    2.6372    3.9432    1.1457 H   0  0  0  0  0  0  0  0  0  0  0  0
    0.9446    2.4281    2.1479 H   0  0  0  0  0  0  0  0  0  0  0  0
  1  8  1  1  0  0  0
  2 11  1  1  0  0  0
  2 10  1  0  0  0  0
  3  1  1  0  0  0  0
  4 13  2  0  0  0  0
  5  6  1  0  0  0  0
  5 27  1  0  0  0  0
  5  3  1  0  0  0  0
  6  7  1  0  0  0  0
  7 30  1  0  0  0  0
  7  1  1  0  0  0  0
  7 31  1  0  0  0  0
  8 33  1  0  0  0  0
  8  9  1  0  0  0  0
  9 34  1  0  0  0  0
 10  9  1  0  0  0  0
 10 36  1  0  0  0  0
 10 37  1  0  0  0  0
 11 38  1  0  0  0  0
 12 39  1  0  0  0  0
 12 11  1  0  0  0  0
 13 12  1  0  0  0  0
 14  1  1  0  0  0  0
 14 19  1  0  0  0  0
 15 14  2  0  0  0  0
 16 15  1  0  0  0  0
 16 17  2  0  0  0  0
 17 18  1  0  0  0  0
 18 19  2  0  0  0  0
 18 45  1  0  0  0  0
 19 46  1  0  0  0  0
 20  2  1  0  0  0  0
 20 25  1  0  0  0  0
 21 20  2  0  0  0  0
 22 21  1  0  0  0  0
 22 23  2  0  0  0  0
 23 24  1  0  0  0  0
 24 25  2  0  0  0  0
 24 50  1  0  0  0  0
 25 51  1  0  0  0  0
 26  5  1  0  0  0  0
 28  6  1  0  0  0  0
 29  6  1  0  0  0  0
 32  8  1  0  0  0  0
 35  9  1  0  0  0  0
 40 12  1  0  0  0  0
 41 13  1  0  0  0  0
 42 15  1  0  0  0  0
 43 16  1  0  0  0  0
 44 17  1  0  0  0  0
 47 21  1  0  0  0  0
 48 22  1  0  0  0  0
 49 23  1  0  0  0  0
M  END
