1,2,29,30
 OpenBabel05122313063D

 82 81  0  0  0  0  0  0  0  0999 V2000
    2.0315   -1.0145    0.0657 P   0  0  0  0  0  0  0  0  0  0  0  0
   -0.0684   -0.3277    2.1600 N   0  0  0  0  0  0  0  0  0  0  0  0
    1.2205   -0.9064    2.6631 C   0  0  0  0  0  0  0  0  0  0  0  0
    1.0583   -1.3472    3.6722 H   0  0  0  0  0  0  0  0  0  0  0  0
    1.9415   -0.0757    2.7967 H   0  0  0  0  0  0  0  0  0  0  0  0
    1.7909   -1.9162    1.6835 C   0  0  0  0  0  0  0  0  0  0  0  0
    1.0865   -2.7575    1.5101 H   0  0  0  0  0  0  0  0  0  0  0  0
    2.7257   -2.3616    2.0764 H   0  0  0  0  0  0  0  0  0  0  0  0
    3.6468   -0.0692    0.3503 C   0  0  0  0  0  0  0  0  0  0  0  0
    3.2799    0.8294    0.8963 H   0  0  0  0  0  0  0  0  0  0  0  0
    4.6923   -0.7516    1.2399 C   0  0  0  0  0  0  0  0  0  0  0  0
    5.0495   -1.7062    0.8083 H   0  0  0  0  0  0  0  0  0  0  0  0
    4.3263   -0.9539    2.2653 H   0  0  0  0  0  0  0  0  0  0  0  0
    5.5750   -0.0864    1.3399 H   0  0  0  0  0  0  0  0  0  0  0  0
    4.2597    0.4089   -0.9737 C   0  0  0  0  0  0  0  0  0  0  0  0
    4.9775    1.2322   -0.7821 H   0  0  0  0  0  0  0  0  0  0  0  0
    3.5021    0.7759   -1.6912 H   0  0  0  0  0  0  0  0  0  0  0  0
    4.8222   -0.4074   -1.4662 H   0  0  0  0  0  0  0  0  0  0  0  0
    2.3169   -2.4403   -1.1374 C   0  0  0  0  0  0  0  0  0  0  0  0
    1.2978   -2.8940   -1.1271 H   0  0  0  0  0  0  0  0  0  0  0  0
    3.3234   -3.4956   -0.6617 C   0  0  0  0  0  0  0  0  0  0  0  0
    3.2854   -4.3696   -1.3442 H   0  0  0  0  0  0  0  0  0  0  0  0
    3.1256   -3.8699    0.3613 H   0  0  0  0  0  0  0  0  0  0  0  0
    4.3613   -3.1092   -0.6947 H   0  0  0  0  0  0  0  0  0  0  0  0
    2.6017   -2.0074   -2.5818 C   0  0  0  0  0  0  0  0  0  0  0  0
    3.6468   -1.6686   -2.7079 H   0  0  0  0  0  0  0  0  0  0  0  0
    1.9158   -1.2072   -2.9167 H   0  0  0  0  0  0  0  0  0  0  0  0
    2.4592   -2.8780   -3.2540 H   0  0  0  0  0  0  0  0  0  0  0  0
    0.1650    1.9144    0.2270 P   0  0  0  0  0  0  0  0  0  0  0  0
   -2.2449   -0.7084    0.1874 P   0  0  0  0  0  0  0  0  0  0  0  0
   -0.2528    1.0334    2.7624 C   0  0  0  0  0  0  0  0  0  0  0  0
   -1.1825   -1.2051    2.6450 C   0  0  0  0  0  0  0  0  0  0  0  0
   -0.0062    0.9877    3.8475 H   0  0  0  0  0  0  0  0  0  0  0  0
   -1.2315   -1.1482    3.7567 H   0  0  0  0  0  0  0  0  0  0  0  0
   -1.3260    1.2922    2.6889 H   0  0  0  0  0  0  0  0  0  0  0  0
   -0.9083   -2.2484    2.3916 H   0  0  0  0  0  0  0  0  0  0  0  0
    0.5615    2.0899    2.0384 C   0  0  0  0  0  0  0  0  0  0  0  0
   -2.5257   -0.8597    2.0177 C   0  0  0  0  0  0  0  0  0  0  0  0
   -2.9261    0.1060    2.3889 H   0  0  0  0  0  0  0  0  0  0  0  0
    1.6526    1.9263    2.1589 H   0  0  0  0  0  0  0  0  0  0  0  0
   -3.2768   -1.6304    2.2769 H   0  0  0  0  0  0  0  0  0  0  0  0
    0.3414    3.0974    2.4409 H   0  0  0  0  0  0  0  0  0  0  0  0
   -2.0399   -2.5195   -0.3666 C   0  0  0  0  0  0  0  0  0  0  0  0
   -1.4244    2.9067   -0.0380 C   0  0  0  0  0  0  0  0  0  0  0  0
   -0.9324   -2.6645   -0.2697 H   0  0  0  0  0  0  0  0  0  0  0  0
   -2.1878    2.1314    0.1824 H   0  0  0  0  0  0  0  0  0  0  0  0
   -2.7239   -3.5646    0.5252 C   0  0  0  0  0  0  0  0  0  0  0  0
   -1.6565    4.0798    0.9219 C   0  0  0  0  0  0  0  0  0  0  0  0
   -3.8242   -3.4370    0.5312 H   0  0  0  0  0  0  0  0  0  0  0  0
   -0.8818    4.8647    0.8280 H   0  0  0  0  0  0  0  0  0  0  0  0
   -2.3734   -3.5567    1.5750 H   0  0  0  0  0  0  0  0  0  0  0  0
   -1.7011    3.7660    1.9835 H   0  0  0  0  0  0  0  0  0  0  0  0
   -2.5140   -4.5772    0.1236 H   0  0  0  0  0  0  0  0  0  0  0  0
   -2.6317    4.5541    0.6857 H   0  0  0  0  0  0  0  0  0  0  0  0
   -2.3929   -2.7357   -1.8424 C   0  0  0  0  0  0  0  0  0  0  0  0
   -1.5911    3.3138   -1.5074 C   0  0  0  0  0  0  0  0  0  0  0  0
   -2.0596   -3.7468   -2.1535 H   0  0  0  0  0  0  0  0  0  0  0  0
   -2.6428    3.6095   -1.6972 H   0  0  0  0  0  0  0  0  0  0  0  0
   -1.8996   -1.9949   -2.4992 H   0  0  0  0  0  0  0  0  0  0  0  0
   -1.3356    2.4862   -2.1978 H   0  0  0  0  0  0  0  0  0  0  0  0
   -3.4878   -2.6878   -2.0016 H   0  0  0  0  0  0  0  0  0  0  0  0
   -0.9558    4.1856   -1.7591 H   0  0  0  0  0  0  0  0  0  0  0  0
   -3.8638   -0.0047   -0.4420 C   0  0  0  0  0  0  0  0  0  0  0  0
    1.5929    2.8438   -0.5720 C   0  0  0  0  0  0  0  0  0  0  0  0
   -3.9092    0.9404    0.1492 H   0  0  0  0  0  0  0  0  0  0  0  0
    2.4506    2.2798   -0.1476 H   0  0  0  0  0  0  0  0  0  0  0  0
   -5.0975   -0.8440   -0.0859 C   0  0  0  0  0  0  0  0  0  0  0  0
    1.7102    4.3005   -0.0995 C   0  0  0  0  0  0  0  0  0  0  0  0
   -6.0160   -0.2881   -0.3663 H   0  0  0  0  0  0  0  0  0  0  0  0
    2.6705    4.7227   -0.4608 H   0  0  0  0  0  0  0  0  0  0  0  0
   -5.1698   -1.0737    0.9952 H   0  0  0  0  0  0  0  0  0  0  0  0
    1.6986    4.4090    1.0026 H   0  0  0  0  0  0  0  0  0  0  0  0
   -5.1139   -1.7997   -0.6458 H   0  0  0  0  0  0  0  0  0  0  0  0
    0.9037    4.9329   -0.5192 H   0  0  0  0  0  0  0  0  0  0  0  0
   -3.8217    0.3748   -1.9280 C   0  0  0  0  0  0  0  0  0  0  0  0
    1.6834    2.7357   -2.0980 C   0  0  0  0  0  0  0  0  0  0  0  0
   -3.9231   -0.5155   -2.5763 H   0  0  0  0  0  0  0  0  0  0  0  0
    0.9386    3.3796   -2.6014 H   0  0  0  0  0  0  0  0  0  0  0  0
   -2.8764    0.8752   -2.2052 H   0  0  0  0  0  0  0  0  0  0  0  0
    1.5209    1.7010   -2.4536 H   0  0  0  0  0  0  0  0  0  0  0  0
   -4.6675    1.0531   -2.1613 H   0  0  0  0  0  0  0  0  0  0  0  0
    2.6861    3.0765   -2.4275 H   0  0  0  0  0  0  0  0  0  0  0  0
  1  9  1  0  0  0  0
  1  6  1  0  0  0  0
  2 32  1  0  0  0  0
  2  3  1  0  0  0  0
  2 31  1  0  0  0  0
  3  5  1  0  0  0  0
  3  4  1  0  0  0  0
  6  8  1  0  0  0  0
  6  3  1  0  0  0  0
  7  6  1  0  0  0  0
  9 10  1  0  0  0  0
  9 11  1  0  0  0  0
 11 14  1  0  0  0  0
 11 13  1  0  0  0  0
 12 11  1  0  0  0  0
 15 16  1  0  0  0  0
 15  9  1  0  0  0  0
 17 15  1  0  0  0  0
 18 15  1  0  0  0  0
 19 20  1  0  0  0  0
 19 21  1  0  0  0  0
 19  1  1  0  0  0  0
 21 23  1  0  0  0  0
 22 21  1  0  0  0  0
 24 21  1  0  0  0  0
 25 19  1  0  0  0  0
 26 25  1  0  0  0  0
 27 25  1  0  0  0  0
 28 25  1  0  0  0  0
 29 37  1  0  0  0  0
 30 38  1  0  0  0  0
 31 33  1  0  0  0  0
 32 34  1  0  0  0  0
 35 31  1  0  0  0  0
 36 32  1  0  0  0  0
 37 40  1  0  0  0  0
 37 42  1  0  0  0  0
 37 31  1  0  0  0  0
 38 41  1  0  0  0  0
 38 39  1  0  0  0  0
 38 32  1  0  0  0  0
 43 45  1  0  0  0  0
 43 30  1  0  0  0  0
 43 47  1  0  0  0  0
 44 46  1  0  0  0  0
 44 29  1  0  0  0  0
 44 48  1  0  0  0  0
 47 49  1  0  0  0  0
 47 51  1  0  0  0  0
 48 52  1  0  0  0  0
 50 48  1  0  0  0  0
 53 47  1  0  0  0  0
 54 48  1  0  0  0  0
 55 43  1  0  0  0  0
 56 44  1  0  0  0  0
 57 55  1  0  0  0  0
 58 56  1  0  0  0  0
 59 55  1  0  0  0  0
 60 56  1  0  0  0  0
 61 55  1  0  0  0  0
 62 56  1  0  0  0  0
 63 67  1  0  0  0  0
 63 65  1  0  0  0  0
 63 30  1  0  0  0  0
 64 66  1  0  0  0  0
 64 68  1  0  0  0  0
 64 29  1  0  0  0  0
 67 71  1  0  0  0  0
 68 72  1  0  0  0  0
 69 67  1  0  0  0  0
 70 68  1  0  0  0  0
 73 67  1  0  0  0  0
 74 68  1  0  0  0  0
 75 63  1  0  0  0  0
 76 64  1  0  0  0  0
 77 75  1  0  0  0  0
 78 76  1  0  0  0  0
 79 75  1  0  0  0  0
 80 76  1  0  0  0  0
 81 75  1  0  0  0  0
 82 76  1  0  0  0  0
M  END
