1,2,3
 OpenBabel05122313063D

 61 62  0  0  0  0  0  0  0  0999 V2000
   -2.1199   -0.1468   -0.0908 P   0  0  0  0  0  0  0  0  0  0  0  0
    0.0482    1.7653   -0.3866 N   0  0  0  0  0  2  0  0  0  0  0  0
    2.3135    0.3143   -0.0172 N   0  0  0  0  0  2  0  0  0  0  0  0
   -2.3059    1.5104   -0.9396 C   0  0  0  0  0  0  0  0  0  0  0  0
   -2.3146    1.2899   -2.0287 H   0  0  0  0  0  0  0  0  0  0  0  0
   -3.2693    2.0036   -0.7042 H   0  0  0  0  0  0  0  0  0  0  0  0
   -1.1315    2.3930   -0.6445 C   0  0  0  0  0  0  0  0  0  0  0  0
   -1.2122    3.7935   -0.6537 C   0  0  0  0  0  0  0  0  0  0  0  0
   -2.1736    4.2832   -0.8615 H   0  0  0  0  0  0  0  0  0  0  0  0
   -0.0585    4.5435   -0.3953 C   0  0  0  0  0  0  0  0  0  0  0  0
   -0.0986    5.6423   -0.3850 H   0  0  0  0  0  0  0  0  0  0  0  0
    1.1509    3.8830   -0.1562 C   0  0  0  0  0  0  0  0  0  0  0  0
    2.0586    4.4657    0.0402 H   0  0  0  0  0  0  0  0  0  0  0  0
    1.1868    2.4764   -0.1676 C   0  0  0  0  0  0  0  0  0  0  0  0
    2.4242    1.6823    0.0099 C   0  0  0  0  0  0  0  0  0  0  0  0
    3.6603    2.3344    0.1427 C   0  0  0  0  0  0  0  0  0  0  0  0
    3.7139    3.4290    0.1743 H   0  0  0  0  0  0  0  0  0  0  0  0
    4.8264    1.5739    0.2151 C   0  0  0  0  0  0  0  0  0  0  0  0
    5.8088    2.0565    0.3210 H   0  0  0  0  0  0  0  0  0  0  0  0
    4.7158    0.1879    0.1259 C   0  0  0  0  0  0  0  0  0  0  0  0
    5.6185   -0.4314    0.1502 H   0  0  0  0  0  0  0  0  0  0  0  0
    3.4546   -0.4363    0.0090 C   0  0  0  0  0  0  0  0  0  0  0  0
    3.3816   -1.9692   -0.0554 C   0  0  0  0  0  0  0  0  0  0  0  0
    2.5332   -2.4039   -1.2743 C   0  0  0  0  0  0  0  0  0  0  0  0
    1.5737   -1.8558   -1.3563 H   0  0  0  0  0  0  0  0  0  0  0  0
    2.3084   -3.4868   -1.2172 H   0  0  0  0  0  0  0  0  0  0  0  0
    3.0972   -2.2187   -2.2106 H   0  0  0  0  0  0  0  0  0  0  0  0
    2.8461   -2.4591    1.3150 C   0  0  0  0  0  0  0  0  0  0  0  0
    3.6258   -2.3213    2.0906 H   0  0  0  0  0  0  0  0  0  0  0  0
    2.5875   -3.5350    1.2715 H   0  0  0  0  0  0  0  0  0  0  0  0
    1.9535   -1.9001    1.6499 H   0  0  0  0  0  0  0  0  0  0  0  0
    4.7710   -2.6149   -0.2480 C   0  0  0  0  0  0  0  0  0  0  0  0
    5.2713   -2.2666   -1.1737 H   0  0  0  0  0  0  0  0  0  0  0  0
    4.6388   -3.7108   -0.3374 H   0  0  0  0  0  0  0  0  0  0  0  0
    5.4481   -2.4445    0.6121 H   0  0  0  0  0  0  0  0  0  0  0  0
   -3.0868   -1.3279   -1.2355 C   0  0  0  0  0  0  0  0  0  0  0  0
   -3.4292   -2.6396   -0.5070 C   0  0  0  0  0  0  0  0  0  0  0  0
   -4.1728   -2.4911    0.2990 H   0  0  0  0  0  0  0  0  0  0  0  0
   -2.5393   -3.1389   -0.0812 H   0  0  0  0  0  0  0  0  0  0  0  0
   -3.8798   -3.3401   -1.2402 H   0  0  0  0  0  0  0  0  0  0  0  0
   -4.3808   -0.6756   -1.7611 C   0  0  0  0  0  0  0  0  0  0  0  0
   -4.9001   -1.4096   -2.4115 H   0  0  0  0  0  0  0  0  0  0  0  0
   -4.1887    0.2192   -2.3843 H   0  0  0  0  0  0  0  0  0  0  0  0
   -5.0839   -0.3979   -0.9553 H   0  0  0  0  0  0  0  0  0  0  0  0
   -2.1485   -1.6258   -2.4218 C   0  0  0  0  0  0  0  0  0  0  0  0
   -2.6861   -2.2646   -3.1529 H   0  0  0  0  0  0  0  0  0  0  0  0
   -1.2337   -2.1602   -2.1026 H   0  0  0  0  0  0  0  0  0  0  0  0
   -1.8327   -0.7068   -2.9569 H   0  0  0  0  0  0  0  0  0  0  0  0
   -2.9179    0.0825    1.6237 C   0  0  0  0  0  0  0  0  0  0  0  0
   -4.4416    0.2647    1.5475 C   0  0  0  0  0  0  0  0  0  0  0  0
   -4.9615   -0.6520    1.2107 H   0  0  0  0  0  0  0  0  0  0  0  0
   -4.7401    1.1025    0.8856 H   0  0  0  0  0  0  0  0  0  0  0  0
   -4.8233    0.5021    2.5623 H   0  0  0  0  0  0  0  0  0  0  0  0
   -2.5578   -1.1278    2.5055 C   0  0  0  0  0  0  0  0  0  0  0  0
   -3.0066   -0.9830    3.5099 H   0  0  0  0  0  0  0  0  0  0  0  0
   -1.4616   -1.2165    2.6350 H   0  0  0  0  0  0  0  0  0  0  0  0
   -2.9396   -2.0848    2.1054 H   0  0  0  0  0  0  0  0  0  0  0  0
   -2.2720    1.3420    2.2342 C   0  0  0  0  0  0  0  0  0  0  0  0
   -2.5572    2.2717    1.7033 H   0  0  0  0  0  0  0  0  0  0  0  0
   -1.1654    1.2650    2.2482 H   0  0  0  0  0  0  0  0  0  0  0  0
   -2.6187    1.4457    3.2831 H   0  0  0  0  0  0  0  0  0  0  0  0
  1 49  1  0  0  0  0
  2 14  1  0  0  0  0
  3 22  1  0  0  0  0
  3 15  1  0  0  0  0
  4  6  1  0  0  0  0
  4  7  1  0  0  0  0
  4  1  1  0  0  0  0
  5  4  1  0  0  0  0
  7  2  1  0  0  0  0
  8  7  2  0  0  0  0
  8 10  1  0  0  0  0
  9  8  1  0  0  0  0
 10 11  1  0  0  0  0
 10 12  2  0  0  0  0
 12 13  1  0  0  0  0
 14 12  1  0  0  0  0
 14 15  2  0  0  0  0
 15 16  1  0  0  0  0
 16 17  1  0  0  0  0
 16 18  2  0  0  0  0
 18 19  1  0  0  0  0
 20 21  1  0  0  0  0
 20 18  1  0  0  0  0
 22 20  2  0  0  0  0
 23 22  1  0  0  0  0
 23 28  1  0  0  0  0
 24 26  1  0  0  0  0
 24 23  1  0  0  0  0
 25 24  1  0  0  0  0
 27 24  1  0  0  0  0
 28 31  1  0  0  0  0
 28 29  1  0  0  0  0
 30 28  1  0  0  0  0
 32 23  1  0  0  0  0
 32 35  1  0  0  0  0
 33 32  1  0  0  0  0
 34 32  1  0  0  0  0
 36 37  1  0  0  0  0
 36  1  1  0  0  0  0
 37 39  1  0  0  0  0
 37 38  1  0  0  0  0
 40 37  1  0  0  0  0
 41 36  1  0  0  0  0
 41 44  1  0  0  0  0
 42 41  1  0  0  0  0
 43 41  1  0  0  0  0
 45 47  1  0  0  0  0
 45 36  1  0  0  0  0
 46 45  1  0  0  0  0
 48 45  1  0  0  0  0
 49 58  1  0  0  0  0
 49 54  1  0  0  0  0
 50 49  1  0  0  0  0
 50 53  1  0  0  0  0
 51 50  1  0  0  0  0
 52 50  1  0  0  0  0
 54 56  1  0  0  0  0
 54 55  1  0  0  0  0
 57 54  1  0  0  0  0
 58 60  1  0  0  0  0
 58 61  1  0  0  0  0
 59 58  1  0  0  0  0
M  END
