1,2,3
 OpenBabel05122313063D

 57 57  0  0  1  0  0  0  0  0999 V2000
    1.9121    0.1941   -0.0594 P   0  0  0  0  0  0  0  0  0  0  0  0
   -0.4595    1.8956   -0.2002 N   0  0  0  0  0  2  0  0  0  0  0  0
   -2.7934    0.3925    0.0427 N   0  0  0  0  0  0  0  0  0  0  0  0
   -3.6440   -0.5120    0.8652 C   0  0  0  0  0  0  0  0  0  0  0  0
   -5.0920   -0.0717    1.1000 C   0  0  0  0  0  0  0  0  0  0  0  0
   -3.3422    0.5789   -1.3307 C   0  0  0  0  0  0  0  0  0  0  0  0
   -3.6466   -0.7205   -2.0640 C   0  0  0  0  0  0  0  0  0  0  0  0
   -2.6902    1.7166    0.7105 C   0  0  0  0  0  0  0  0  0  0  0  0
   -1.6023    2.5713    0.1269 C   0  0  1  0  0  3  0  0  0  0  0  0
   -1.7243    3.9551   -0.0196 C   0  0  0  0  0  0  0  0  0  0  0  0
   -0.6287    4.6950   -0.4953 C   0  0  0  0  0  0  0  0  0  0  0  0
    0.5467    4.0040   -0.8214 C   0  0  0  0  0  0  0  0  0  0  0  0
    0.6116    2.6094   -0.6818 C   0  0  0  0  0  0  0  0  0  0  0  0
    1.8391    1.8269   -1.0309 C   0  0  0  0  0  0  0  0  0  0  0  0
    2.7393    0.7331    1.6090 C   0  0  0  0  0  0  0  0  0  0  0  0
    1.8969    1.8940    2.1740 C   0  0  0  0  0  0  0  0  0  0  0  0
    4.1909    1.2206    1.4932 C   0  0  0  0  0  0  0  0  0  0  0  0
    2.6782   -0.4516    2.5903 C   0  0  0  0  0  0  0  0  0  0  0  0
    3.2633   -0.7131   -1.1351 C   0  0  0  0  0  0  0  0  0  0  0  0
    4.4427    0.1594   -1.5997 C   0  0  0  0  0  0  0  0  0  0  0  0
    3.7837   -1.9301   -0.3554 C   0  0  0  0  0  0  0  0  0  0  0  0
    2.5358   -1.2131   -2.3928 C   0  0  0  0  0  0  0  0  0  0  0  0
   -3.6288   -1.4980    0.3730 H   0  0  0  0  0  0  0  0  0  0  0  0
   -3.1278   -0.6412    1.8355 H   0  0  0  0  0  0  0  0  0  0  0  0
   -5.6642    0.0398    0.1570 H   0  0  0  0  0  0  0  0  0  0  0  0
   -5.6074   -0.8433    1.7060 H   0  0  0  0  0  0  0  0  0  0  0  0
   -5.1664    0.8815    1.6603 H   0  0  0  0  0  0  0  0  0  0  0  0
   -4.2631    1.2082   -1.2799 H   0  0  0  0  0  0  0  0  0  0  0  0
   -2.5925    1.1665   -1.8950 H   0  0  0  0  0  0  0  0  0  0  0  0
   -4.5590   -1.2190   -1.6807 H   0  0  0  0  0  0  0  0  0  0  0  0
   -3.8038   -0.5108   -3.1397 H   0  0  0  0  0  0  0  0  0  0  0  0
   -2.7979   -1.4257   -1.9790 H   0  0  0  0  0  0  0  0  0  0  0  0
   -3.6568    2.2688    0.6788 H   0  0  0  0  0  0  0  0  0  0  0  0
   -2.4529    1.5211    1.7776 H   0  0  0  0  0  0  0  0  0  0  0  0
   -2.6731    4.4452    0.2436 H   0  0  0  0  0  0  0  0  0  0  0  0
   -0.6928    5.7862   -0.6139 H   0  0  0  0  0  0  0  0  0  0  0  0
    1.4294    4.5413   -1.1977 H   0  0  0  0  0  0  0  0  0  0  0  0
    2.7479    2.4590   -0.9612 H   0  0  0  0  0  0  0  0  0  0  0  0
    1.7619    1.4834   -2.0853 H   0  0  0  0  0  0  0  0  0  0  0  0
    2.2485    2.1256    3.2022 H   0  0  0  0  0  0  0  0  0  0  0  0
    2.0053    2.8178    1.5723 H   0  0  0  0  0  0  0  0  0  0  0  0
    0.8228    1.6431    2.2322 H   0  0  0  0  0  0  0  0  0  0  0  0
    4.8933    0.4070    1.2306 H   0  0  0  0  0  0  0  0  0  0  0  0
    4.3073    2.0384    0.7540 H   0  0  0  0  0  0  0  0  0  0  0  0
    4.5146    1.6223    2.4780 H   0  0  0  0  0  0  0  0  0  0  0  0
    3.3065   -1.3008    2.2617 H   0  0  0  0  0  0  0  0  0  0  0  0
    3.0551   -0.1243    3.5835 H   0  0  0  0  0  0  0  0  0  0  0  0
    1.6462   -0.8180    2.7264 H   0  0  0  0  0  0  0  0  0  0  0  0
    4.1080    1.0269   -2.2012 H   0  0  0  0  0  0  0  0  0  0  0  0
    5.0705    0.5327   -0.7731 H   0  0  0  0  0  0  0  0  0  0  0  0
    5.0974   -0.4506   -2.2597 H   0  0  0  0  0  0  0  0  0  0  0  0
    4.3934   -2.5724   -1.0268 H   0  0  0  0  0  0  0  0  0  0  0  0
    4.4263   -1.6434    0.4995 H   0  0  0  0  0  0  0  0  0  0  0  0
    2.9484   -2.5470    0.0325 H   0  0  0  0  0  0  0  0  0  0  0  0
    1.6512   -1.8190   -2.1360 H   0  0  0  0  0  0  0  0  0  0  0  0
    2.1902   -0.3851   -3.0419 H   0  0  0  0  0  0  0  0  0  0  0  0
    3.2312   -1.8363   -2.9953 H   0  0  0  0  0  0  0  0  0  0  0  0
  1 15  1  0  0  0  0
  2  9  1  0  0  0  0
  3  8  1  0  0  0  0
  3  4  1  0  0  0  0
  4  5  1  0  0  0  0
  4 24  1  0  0  0  0
  5 27  1  0  0  0  0
  5 26  1  0  0  0  0
  6 28  1  0  0  0  0
  6  3  1  0  0  0  0
  7 32  1  0  0  0  0
  7 30  1  0  0  0  0
  7  6  1  0  0  0  0
  8 34  1  0  0  0  0
  9  8  1  1  0  0  0
 10  9  1  0  0  0  0
 10 35  1  0  0  0  0
 11 10  2  0  0  0  0
 12 13  2  0  0  0  0
 12 11  1  0  0  0  0
 13  2  1  0  0  0  0
 14 38  1  0  0  0  0
 14 13  1  0  0  0  0
 14  1  1  0  0  0  0
 15 16  1  0  0  0  0
 15 18  1  0  0  0  0
 16 42  1  0  0  0  0
 16 40  1  0  0  0  0
 17 15  1  0  0  0  0
 17 45  1  0  0  0  0
 18 48  1  0  0  0  0
 18 47  1  0  0  0  0
 19 21  1  0  0  0  0
 19  1  1  0  0  0  0
 20 19  1  0  0  0  0
 20 50  1  0  0  0  0
 21 54  1  0  0  0  0
 21 53  1  0  0  0  0
 22 55  1  0  0  0  0
 22 19  1  0  0  0  0
 23  4  1  0  0  0  0
 25  5  1  0  0  0  0
 29  6  1  0  0  0  0
 31  7  1  0  0  0  0
 33  8  1  0  0  0  0
 36 11  1  0  0  0  0
 37 12  1  0  0  0  0
 39 14  1  0  0  0  0
 41 16  1  0  0  0  0
 43 17  1  0  0  0  0
 44 17  1  0  0  0  0
 46 18  1  0  0  0  0
 49 20  1  0  0  0  0
 51 20  1  0  0  0  0
 52 21  1  0  0  0  0
 56 22  1  0  0  0  0
 57 22  1  0  0  0  0
M  END
