1,33,35
 OpenBabel05122313063D

 58 62  0  0  1  0  0  0  0  0999 V2000
   -1.2143    0.2077    0.0550 P   0  0  0  0  0  0  0  0  0  0  0  0
   -1.5619    1.5111   -1.1869 C   0  0  0  0  0  0  0  0  0  0  0  0
   -2.5144   -1.4467   -2.3351 C   0  0  0  0  0  0  0  0  0  0  0  0
   -2.5655   -2.4263   -2.8478 H   0  0  0  0  0  0  0  0  0  0  0  0
   -1.4445   -1.1748   -2.2507 H   0  0  0  0  0  0  0  0  0  0  0  0
   -3.0031   -0.6984   -2.9947 H   0  0  0  0  0  0  0  0  0  0  0  0
   -2.7318   -0.7979    0.1484 C   0  0  0  0  0  0  0  0  0  0  0  0
    0.8958    2.1320   -1.3430 C   0  0  0  0  0  3  0  0  0  0  0  0
    1.5715    2.9450   -1.6670 H   0  0  0  0  0  0  0  0  0  0  0  0
   -4.3633   -2.2838   -0.8426 C   0  0  0  0  0  0  0  0  0  0  0  0
   -4.7370   -2.8472   -1.7117 H   0  0  0  0  0  0  0  0  0  0  0  0
   -0.4677    0.5698    2.7829 C   0  0  0  0  0  0  0  0  0  0  0  0
    3.4683   -0.0926   -0.3034 C   0  0  2  0  0  3  0  0  0  0  0  0
   -2.8807    1.7908   -1.5775 C   0  0  0  0  0  0  0  0  0  0  0  0
   -3.7039    1.1854   -1.1697 H   0  0  0  0  0  0  0  0  0  0  0  0
   -0.4979    2.3138   -1.6911 C   0  0  0  0  0  0  0  0  0  0  0  0
   -3.1946   -1.5121   -0.9921 C   0  0  0  0  0  0  0  0  0  0  0  0
   -3.1601    2.8404   -2.4708 C   0  0  0  0  0  0  0  0  0  0  0  0
   -4.2006    3.0379   -2.7688 H   0  0  0  0  0  0  0  0  0  0  0  0
   -0.8024    3.3824   -2.5720 C   0  0  0  0  0  0  0  0  0  0  0  0
    0.0178    4.0109   -2.9522 H   0  0  0  0  0  0  0  0  0  0  0  0
   -3.4220   -0.8691    1.3772 C   0  0  0  0  0  0  0  0  0  0  0  0
   -3.0536   -0.3059    2.2470 H   0  0  0  0  0  0  0  0  0  0  0  0
    2.8242    1.1751   -0.3916 C   0  0  0  0  0  0  0  0  0  0  0  0
   -5.0487   -2.3582    0.3778 C   0  0  0  0  0  0  0  0  0  0  0  0
   -5.9545   -2.9775    0.4583 H   0  0  0  0  0  0  0  0  0  0  0  0
    0.1241   -0.8134    2.7821 C   0  0  0  0  0  0  0  0  0  0  0  0
    0.4596   -1.1020    3.7960 H   0  0  0  0  0  0  0  0  0  0  0  0
    1.0046   -0.8796    2.1056 H   0  0  0  0  0  0  0  0  0  0  0  0
   -0.5911   -1.5809    2.4240 H   0  0  0  0  0  0  0  0  0  0  0  0
   -2.1186    3.6387   -2.9684 C   0  0  0  0  0  0  0  0  0  0  0  0
   -2.3334    4.4641   -3.6624 H   0  0  0  0  0  0  0  0  0  0  0  0
    1.4407    1.1102   -0.7192 N   0  0  0  0  0  2  0  0  0  0  0  0
   -1.0805    1.1476    1.6349 C   0  0  0  0  0  0  0  0  0  0  0  0
    2.6660   -1.1975   -0.4257 N   0  0  0  0  0  2  0  0  0  0  0  0
    3.5641    2.3367   -0.1716 C   0  0  0  0  0  0  0  0  0  0  0  0
    3.0739    3.3206   -0.1658 H   0  0  0  0  0  0  0  0  0  0  0  0
    4.8786   -0.1833   -0.0880 C   0  0  0  0  0  0  0  0  0  0  0  0
    3.2229   -2.4099   -0.3892 C   0  0  0  0  0  0  0  0  0  0  0  0
    2.5252   -3.2587   -0.4802 H   0  0  0  0  0  0  0  0  0  0  0  0
    4.6169   -2.5933   -0.2179 C   0  0  0  0  0  0  0  0  0  0  0  0
    5.0204   -3.6154   -0.2014 H   0  0  0  0  0  0  0  0  0  0  0  0
   -0.4243    1.3446    3.9594 C   0  0  0  0  0  0  0  0  0  0  0  0
    0.0419    0.9092    4.8567 H   0  0  0  0  0  0  0  0  0  0  0  0
   -1.5567    3.1979    2.8787 C   0  0  0  0  0  0  0  0  0  0  0  0
   -1.9841    4.2109    2.9099 H   0  0  0  0  0  0  0  0  0  0  0  0
   -1.6169    2.4524    1.6943 C   0  0  0  0  0  0  0  0  0  0  0  0
   -2.0960    2.8921    0.8083 H   0  0  0  0  0  0  0  0  0  0  0  0
   -0.9565    2.6401    4.0157 C   0  0  0  0  0  0  0  0  0  0  0  0
   -0.9037    3.2133    4.9533 H   0  0  0  0  0  0  0  0  0  0  0  0
    4.9584    2.2502    0.0738 C   0  0  0  0  0  0  0  0  0  0  0  0
    5.5249    3.1762    0.2499 H   0  0  0  0  0  0  0  0  0  0  0  0
    5.6120    1.0242    0.0989 C   0  0  0  0  0  0  0  0  0  0  0  0
    6.6949    0.9700    0.2844 H   0  0  0  0  0  0  0  0  0  0  0  0
   -4.5792   -1.6487    1.4929 C   0  0  0  0  0  0  0  0  0  0  0  0
   -5.1110   -1.7005    2.4541 H   0  0  0  0  0  0  0  0  0  0  0  0
    5.4430   -1.4904   -0.0556 C   0  0  0  0  0  0  0  0  0  0  0  0
    6.5256   -1.6110    0.1017 H   0  0  0  0  0  0  0  0  0  0  0  0
  1  7  1  0  0  0  0
  1 34  1  0  0  0  0
  2  1  1  0  0  0  0
  3  5  1  0  0  0  0
  3 17  1  0  0  0  0
  4  3  1  0  0  0  0
  6  3  1  0  0  0  0
  7 22  1  0  0  0  0
  8 33  1  0  0  0  0
  9  8  1  0  0  0  0
 10 25  2  0  0  0  0
 11 10  1  0  0  0  0
 12 43  1  0  0  0  0
 13 35  1  1  0  0  0
 13 38  1  0  0  0  0
 14  2  1  0  0  0  0
 14 15  1  0  0  0  0
 16  8  1  0  0  0  0
 16  2  2  0  0  0  0
 17 10  1  0  0  0  0
 17  7  2  0  0  0  0
 18 14  2  0  0  0  0
 19 18  1  0  0  0  0
 20 16  1  0  0  0  0
 21 20  1  0  0  0  0
 22 55  2  0  0  0  0
 22 23  1  0  0  0  0
 24 13  1  0  0  0  0
 24 36  2  0  0  0  0
 25 26  1  0  0  0  0
 25 55  1  0  0  0  0
 27 12  1  0  0  0  0
 27 28  1  0  0  0  0
 29 27  1  0  0  0  0
 30 27  1  0  0  0  0
 31 20  2  0  0  0  0
 31 18  1  0  0  0  0
 32 31  1  0  0  0  0
 33 24  1  0  0  0  0
 34 47  1  0  0  0  0
 34 12  2  0  0  0  0
 35 39  1  0  0  0  0
 36 37  1  0  0  0  0
 36 51  1  0  0  0  0
 38 57  2  0  0  0  0
 38 53  1  0  0  0  0
 39 41  2  0  0  0  0
 40 39  1  0  0  0  0
 41 42  1  0  0  0  0
 41 57  1  0  0  0  0
 43 49  2  0  0  0  0
 43 44  1  0  0  0  0
 45 46  1  0  0  0  0
 45 49  1  0  0  0  0
 47 45  2  0  0  0  0
 48 47  1  0  0  0  0
 49 50  1  0  0  0  0
 51 53  2  0  0  0  0
 51 52  1  0  0  0  0
 53 54  1  0  0  0  0
 55 56  1  0  0  0  0
 57 58  1  0  0  0  0
M  END
