1,4,5
 OpenBabel05122313063D

 66 68  0  0  0  0  0  0  0  0999 V2000
   -2.4561    0.6414    0.0680 P   0  0  0  0  0  0  0  0  0  0  0  0
   -0.9209    3.2360    0.3754 Si  0  0  0  0  0  0  0  0  0  0  0  0
   -1.2083   -1.1513    2.2124 Si  0  0  0  0  0  0  0  0  0  0  0  0
    0.3325    2.0390   -0.0951 N   0  0  0  0  0  2  0  0  0  0  0  0
   -0.0990   -1.2037    0.8074 N   0  0  0  0  0  2  0  0  0  0  0  0
   -2.6229    2.4706   -0.0246 C   0  0  0  0  0  0  0  0  0  0  0  0
   -2.5468    0.1669    1.8509 C   0  0  0  0  0  0  0  0  0  0  0  0
   -0.7942    3.6258    2.2216 C   0  0  0  0  0  0  0  0  0  0  0  0
   -0.6980    4.8250   -0.6139 C   0  0  0  0  0  0  0  0  0  0  0  0
   -0.2659   -0.6308    3.7658 C   0  0  0  0  0  0  0  0  0  0  0  0
   -1.9809   -2.8497    2.4976 C   0  0  0  0  0  0  0  0  0  0  0  0
    1.6594    2.5409    0.0972 C   0  0  0  0  0  0  0  0  0  0  0  0
    2.3031    2.4048    1.3485 C   0  0  0  0  0  0  0  0  0  0  0  0
    3.6045    2.8916    1.5406 C   0  0  0  0  0  0  0  0  0  0  0  0
    4.2862    3.5269    0.4897 C   0  0  0  0  0  0  0  0  0  0  0  0
    3.6530    3.6685   -0.7566 C   0  0  0  0  0  0  0  0  0  0  0  0
    2.3517    3.1851   -0.9523 C   0  0  0  0  0  0  0  0  0  0  0  0
   -3.9445   -0.0941   -0.7659 C   0  0  0  0  0  0  0  0  0  0  0  0
   -5.2972    0.4292   -0.2627 C   0  0  0  0  0  0  0  0  0  0  0  0
   -6.4604   -0.2087   -1.0390 C   0  0  0  0  0  0  0  0  0  0  0  0
   -6.3959   -1.7408   -0.9980 C   0  0  0  0  0  0  0  0  0  0  0  0
   -5.0416   -2.2569   -1.5008 C   0  0  0  0  0  0  0  0  0  0  0  0
   -3.8773   -1.6308   -0.7210 C   0  0  0  0  0  0  0  0  0  0  0  0
    0.9086   -2.2151    0.9426 C   0  0  0  0  0  0  0  0  0  0  0  0
    0.7096   -3.4950    0.3799 C   0  0  0  0  0  0  0  0  0  0  0  0
    1.6996   -4.4840    0.4849 C   0  0  0  0  0  0  0  0  0  0  0  0
    2.9052   -4.2134    1.1504 C   0  0  0  0  0  0  0  0  0  0  0  0
    3.1132   -2.9423    1.7101 C   0  0  0  0  0  0  0  0  0  0  0  0
    2.1245   -1.9542    1.6151 C   0  0  0  0  0  0  0  0  0  0  0  0
   -2.8556    2.7073   -1.0855 H   0  0  0  0  0  0  0  0  0  0  0  0
   -3.4344    2.8855    0.6094 H   0  0  0  0  0  0  0  0  0  0  0  0
   -3.5612   -0.1766    2.1427 H   0  0  0  0  0  0  0  0  0  0  0  0
   -2.3253    1.0690    2.4564 H   0  0  0  0  0  0  0  0  0  0  0  0
   -0.8554    2.7108    2.8447 H   0  0  0  0  0  0  0  0  0  0  0  0
   -1.6094    4.3119    2.5320 H   0  0  0  0  0  0  0  0  0  0  0  0
    0.1721    4.1203    2.4463 H   0  0  0  0  0  0  0  0  0  0  0  0
   -0.7657    4.6238   -1.7023 H   0  0  0  0  0  0  0  0  0  0  0  0
    0.2905    5.2832   -0.4103 H   0  0  0  0  0  0  0  0  0  0  0  0
   -1.4824    5.5631   -0.3467 H   0  0  0  0  0  0  0  0  0  0  0  0
   -0.9507   -0.5669    4.6370 H   0  0  0  0  0  0  0  0  0  0  0  0
    0.2071    0.3630    3.6243 H   0  0  0  0  0  0  0  0  0  0  0  0
    0.5335   -1.3587    4.0094 H   0  0  0  0  0  0  0  0  0  0  0  0
   -2.5391   -3.1992    1.6062 H   0  0  0  0  0  0  0  0  0  0  0  0
   -2.6796   -2.8217    3.3593 H   0  0  0  0  0  0  0  0  0  0  0  0
   -1.1928   -3.5977    2.7172 H   0  0  0  0  0  0  0  0  0  0  0  0
    1.7697    1.8898    2.1612 H   0  0  0  0  0  0  0  0  0  0  0  0
    4.0930    2.7645    2.5190 H   0  0  0  0  0  0  0  0  0  0  0  0
    5.3091    3.9036    0.6387 H   0  0  0  0  0  0  0  0  0  0  0  0
    4.1817    4.1543   -1.5910 H   0  0  0  0  0  0  0  0  0  0  0  0
    1.8563    3.2775   -1.9299 H   0  0  0  0  0  0  0  0  0  0  0  0
   -3.7983    0.2181   -1.8256 H   0  0  0  0  0  0  0  0  0  0  0  0
   -5.3412    1.5352   -0.3453 H   0  0  0  0  0  0  0  0  0  0  0  0
   -5.4053    0.1880    0.8192 H   0  0  0  0  0  0  0  0  0  0  0  0
   -6.4148    0.1307   -2.0980 H   0  0  0  0  0  0  0  0  0  0  0  0
   -7.4296    0.1533   -0.6360 H   0  0  0  0  0  0  0  0  0  0  0  0
   -7.2242   -2.1781   -1.5936 H   0  0  0  0  0  0  0  0  0  0  0  0
   -6.5503   -2.0840    0.0503 H   0  0  0  0  0  0  0  0  0  0  0  0
   -4.9269   -2.0080   -2.5793 H   0  0  0  0  0  0  0  0  0  0  0  0
   -4.9942   -3.3635   -1.4285 H   0  0  0  0  0  0  0  0  0  0  0  0
   -3.9303   -1.9672    0.3385 H   0  0  0  0  0  0  0  0  0  0  0  0
   -2.9019   -1.9757   -1.1216 H   0  0  0  0  0  0  0  0  0  0  0  0
   -0.2321   -3.6923   -0.1542 H   0  0  0  0  0  0  0  0  0  0  0  0
    1.5294   -5.4724    0.0306 H   0  0  0  0  0  0  0  0  0  0  0  0
    3.6869   -4.9843    1.2197 H   0  0  0  0  0  0  0  0  0  0  0  0
    4.0648   -2.7095    2.2116 H   0  0  0  0  0  0  0  0  0  0  0  0
    2.2980   -0.9469    2.0211 H   0  0  0  0  0  0  0  0  0  0  0  0
  1  7  1  0  0  0  0
  2  8  1  0  0  0  0
  3 11  1  0  0  0  0
  3 10  1  0  0  0  0
  4 12  1  0  0  0  0
  4  2  1  0  0  0  0
  5 24  1  0  0  0  0
  5  3  1  0  0  0  0
  6  1  1  0  0  0  0
  6  2  1  0  0  0  0
  6 31  1  0  0  0  0
  7 32  1  0  0  0  0
  7  3  1  0  0  0  0
  7 33  1  0  0  0  0
  8 36  1  0  0  0  0
  8 35  1  0  0  0  0
  8 34  1  0  0  0  0
  9 38  1  0  0  0  0
  9 39  1  0  0  0  0
  9  2  1  0  0  0  0
 10 42  1  0  0  0  0
 10 40  1  0  0  0  0
 11 45  1  0  0  0  0
 11 44  1  0  0  0  0
 12 13  1  0  0  0  0
 13 14  2  0  0  0  0
 13 46  1  0  0  0  0
 14 47  1  0  0  0  0
 15 48  1  0  0  0  0
 15 14  1  0  0  0  0
 16 15  2  0  0  0  0
 17 16  1  0  0  0  0
 17 12  2  0  0  0  0
 18 23  1  0  0  0  0
 18 19  1  0  0  0  0
 18  1  1  0  0  0  0
 19 53  1  0  0  0  0
 20 21  1  0  0  0  0
 20 55  1  0  0  0  0
 20 19  1  0  0  0  0
 21 57  1  0  0  0  0
 22 59  1  0  0  0  0
 22 21  1  0  0  0  0
 22 23  1  0  0  0  0
 23 60  1  0  0  0  0
 24 29  1  0  0  0  0
 25 26  1  0  0  0  0
 25 24  2  0  0  0  0
 26 27  2  0  0  0  0
 27 64  1  0  0  0  0
 27 28  1  0  0  0  0
 28 65  1  0  0  0  0
 29 28  2  0  0  0  0
 29 66  1  0  0  0  0
 30  6  1  0  0  0  0
 37  9  1  0  0  0  0
 41 10  1  0  0  0  0
 43 11  1  0  0  0  0
 49 16  1  0  0  0  0
 50 17  1  0  0  0  0
 51 18  1  0  0  0  0
 52 19  1  0  0  0  0
 54 20  1  0  0  0  0
 56 21  1  0  0  0  0
 58 22  1  0  0  0  0
 61 23  1  0  0  0  0
 62 25  1  0  0  0  0
 63 26  1  0  0  0  0
M  END
