1,2,3
 OpenBabel05122313063D

 74 75  0  0  0  0  0  0  0  0999 V2000
   -2.4676   -0.2857    0.2622 P   0  0  0  0  0  0  0  0  0  0  0  0
    1.5196    0.5320   -0.2305 N   0  0  0  0  0  2  0  0  0  0  0  0
   -0.6775    1.6978   -0.5414 N   0  0  0  0  0  2  0  0  0  0  0  0
    2.9587    2.2662   -1.3276 C   0  0  0  0  0  0  0  0  0  0  0  0
    3.2720    3.1173   -0.6851 H   0  0  0  0  0  0  0  0  0  0  0  0
    2.8750    2.6514   -2.3638 H   0  0  0  0  0  0  0  0  0  0  0  0
    3.7574    1.5039   -1.2916 H   0  0  0  0  0  0  0  0  0  0  0  0
    1.6576    1.7048   -0.8385 C   0  0  0  0  0  0  0  0  0  0  0  0
    0.4074    2.4146   -1.0051 C   0  0  0  0  0  0  0  0  0  0  0  0
    0.2433    3.6768   -1.6075 C   0  0  0  0  0  0  0  0  0  0  0  0
    1.1242    4.2164   -1.9814 H   0  0  0  0  0  0  0  0  0  0  0  0
   -1.0358    4.2270   -1.7083 C   0  0  0  0  0  0  0  0  0  0  0  0
   -1.1886    5.2091   -2.1781 H   0  0  0  0  0  0  0  0  0  0  0  0
   -2.1256    3.5140   -1.1705 C   0  0  0  0  0  0  0  0  0  0  0  0
   -3.1409    3.9352   -1.1906 H   0  0  0  0  0  0  0  0  0  0  0  0
   -1.9211    2.2659   -0.5721 C   0  0  0  0  0  0  0  0  0  0  0  0
   -3.0118    1.4930    0.1182 C   0  0  0  0  0  0  0  0  0  0  0  0
   -4.0051    1.6556   -0.3453 H   0  0  0  0  0  0  0  0  0  0  0  0
   -3.0623    1.8500    1.1704 H   0  0  0  0  0  0  0  0  0  0  0  0
   -2.9914   -1.0597   -1.4243 C   0  0  0  0  0  0  0  0  0  0  0  0
   -2.3532   -0.1928   -2.5291 C   0  0  0  0  0  0  0  0  0  0  0  0
   -2.5715   -0.6563   -3.5144 H   0  0  0  0  0  0  0  0  0  0  0  0
   -1.2524   -0.1356   -2.4177 H   0  0  0  0  0  0  0  0  0  0  0  0
   -2.7491    0.8410   -2.5533 H   0  0  0  0  0  0  0  0  0  0  0  0
   -2.4179   -2.4818   -1.5640 C   0  0  0  0  0  0  0  0  0  0  0  0
   -2.5873   -2.8337   -2.6040 H   0  0  0  0  0  0  0  0  0  0  0  0
   -2.8978   -3.2065   -0.8833 H   0  0  0  0  0  0  0  0  0  0  0  0
   -1.3313   -2.5026   -1.3577 H   0  0  0  0  0  0  0  0  0  0  0  0
   -4.5142   -1.0777   -1.6230 C   0  0  0  0  0  0  0  0  0  0  0  0
   -4.9711   -0.0743   -1.5045 H   0  0  0  0  0  0  0  0  0  0  0  0
   -5.0202   -1.7761   -0.9297 H   0  0  0  0  0  0  0  0  0  0  0  0
   -4.7402   -1.4206   -2.6557 H   0  0  0  0  0  0  0  0  0  0  0  0
   -3.5121   -1.0092    1.6907 C   0  0  0  0  0  0  0  0  0  0  0  0
   -2.7889   -0.6266    2.9948 C   0  0  0  0  0  0  0  0  0  0  0  0
   -3.3587   -1.0479    3.8507 H   0  0  0  0  0  0  0  0  0  0  0  0
   -2.7103    0.4683    3.1346 H   0  0  0  0  0  0  0  0  0  0  0  0
   -1.7581   -1.0269    3.0163 H   0  0  0  0  0  0  0  0  0  0  0  0
   -4.9432   -0.4466    1.7226 C   0  0  0  0  0  0  0  0  0  0  0  0
   -5.4837   -0.8969    2.5828 H   0  0  0  0  0  0  0  0  0  0  0  0
   -5.5231   -0.6771    0.8100 H   0  0  0  0  0  0  0  0  0  0  0  0
   -4.9542    0.6508    1.8751 H   0  0  0  0  0  0  0  0  0  0  0  0
   -3.5289   -2.5445    1.5884 C   0  0  0  0  0  0  0  0  0  0  0  0
   -2.5023   -2.9476    1.4793 H   0  0  0  0  0  0  0  0  0  0  0  0
   -4.1517   -2.9089    0.7490 H   0  0  0  0  0  0  0  0  0  0  0  0
   -3.9627   -2.9577    2.5236 H   0  0  0  0  0  0  0  0  0  0  0  0
    2.6387   -0.3535   -0.1360 C   0  0  0  0  0  0  0  0  0  0  0  0
    2.8137   -1.3214   -1.1600 C   0  0  0  0  0  0  0  0  0  0  0  0
    3.9299   -2.1716   -1.0806 C   0  0  0  0  0  0  0  0  0  0  0  0
    4.0904   -2.9247   -1.8668 H   0  0  0  0  0  0  0  0  0  0  0  0
    4.8310   -2.0841   -0.0112 C   0  0  0  0  0  0  0  0  0  0  0  0
    5.6991   -2.7593    0.0346 H   0  0  0  0  0  0  0  0  0  0  0  0
    4.6122   -1.1515    1.0093 C   0  0  0  0  0  0  0  0  0  0  0  0
    5.3068   -1.1043    1.8621 H   0  0  0  0  0  0  0  0  0  0  0  0
    3.5120   -0.2736    0.9742 C   0  0  0  0  0  0  0  0  0  0  0  0
    3.2449    0.6845    2.1258 C   0  0  0  0  0  0  0  0  0  0  0  0
    2.3955    1.3365    1.8386 H   0  0  0  0  0  0  0  0  0  0  0  0
    2.7802   -0.1013    3.3646 C   0  0  0  0  0  0  0  0  0  0  0  0
    1.8862   -0.7071    3.1214 H   0  0  0  0  0  0  0  0  0  0  0  0
    2.5070    0.5941    4.1842 H   0  0  0  0  0  0  0  0  0  0  0  0
    3.5772   -0.7805    3.7341 H   0  0  0  0  0  0  0  0  0  0  0  0
    4.4511    1.5843    2.4345 C   0  0  0  0  0  0  0  0  0  0  0  0
    5.3264    0.9993    2.7869 H   0  0  0  0  0  0  0  0  0  0  0  0
    4.1978    2.3107    3.2336 H   0  0  0  0  0  0  0  0  0  0  0  0
    4.7719    2.1576    1.5402 H   0  0  0  0  0  0  0  0  0  0  0  0
    1.8207   -1.4334   -2.3108 C   0  0  0  0  0  0  0  0  0  0  0  0
    0.9000   -0.9065   -1.9794 H   0  0  0  0  0  0  0  0  0  0  0  0
    2.3320   -0.7248   -3.5765 C   0  0  0  0  0  0  0  0  0  0  0  0
    3.2649   -1.2007   -3.9449 H   0  0  0  0  0  0  0  0  0  0  0  0
    2.5565    0.3433   -3.3870 H   0  0  0  0  0  0  0  0  0  0  0  0
    1.5795   -0.7764   -4.3907 H   0  0  0  0  0  0  0  0  0  0  0  0
    1.4225   -2.8866   -2.6006 C   0  0  0  0  0  0  0  0  0  0  0  0
    2.2667   -3.4716   -3.0207 H   0  0  0  0  0  0  0  0  0  0  0  0
    0.5981   -2.9211   -3.3421 H   0  0  0  0  0  0  0  0  0  0  0  0
    1.0810   -3.3852   -1.6726 H   0  0  0  0  0  0  0  0  0  0  0  0
  1 33  1  0  0  0  0
  2 46  1  0  0  0  0
  4  7  1  0  0  0  0
  4  8  1  0  0  0  0
  4  5  1  0  0  0  0
  6  4  1  0  0  0  0
  8  2  1  0  0  0  0
  9  8  2  0  0  0  0
  9  3  1  0  0  0  0
 10  9  1  0  0  0  0
 11 10  1  0  0  0  0
 12 10  2  0  0  0  0
 12 14  1  0  0  0  0
 13 12  1  0  0  0  0
 14 16  2  0  0  0  0
 15 14  1  0  0  0  0
 16  3  1  0  0  0  0
 16 17  1  0  0  0  0
 17  1  1  0  0  0  0
 17 19  1  0  0  0  0
 18 17  1  0  0  0  0
 20  1  1  0  0  0  0
 21 23  1  0  0  0  0
 21 20  1  0  0  0  0
 22 21  1  0  0  0  0
 24 21  1  0  0  0  0
 25 20  1  0  0  0  0
 25 28  1  0  0  0  0
 25 27  1  0  0  0  0
 26 25  1  0  0  0  0
 29 30  1  0  0  0  0
 29 20  1  0  0  0  0
 29 31  1  0  0  0  0
 32 29  1  0  0  0  0
 33 38  1  0  0  0  0
 33 34  1  0  0  0  0
 34 37  1  0  0  0  0
 34 36  1  0  0  0  0
 34 35  1  0  0  0  0
 38 41  1  0  0  0  0
 38 39  1  0  0  0  0
 40 38  1  0  0  0  0
 42 33  1  0  0  0  0
 42 45  1  0  0  0  0
 43 42  1  0  0  0  0
 44 42  1  0  0  0  0
 46 54  1  0  0  0  0
 47 48  1  0  0  0  0
 47 46  2  0  0  0  0
 48 50  2  0  0  0  0
 49 48  1  0  0  0  0
 50 51  1  0  0  0  0
 50 52  1  0  0  0  0
 52 53  1  0  0  0  0
 54 52  2  0  0  0  0
 54 55  1  0  0  0  0
 55 61  1  0  0  0  0
 55 57  1  0  0  0  0
 56 55  1  0  0  0  0
 57 60  1  0  0  0  0
 57 59  1  0  0  0  0
 58 57  1  0  0  0  0
 61 62  1  0  0  0  0
 61 63  1  0  0  0  0
 64 61  1  0  0  0  0
 65 66  1  0  0  0  0
 65 47  1  0  0  0  0
 67 69  1  0  0  0  0
 67 65  1  0  0  0  0
 68 67  1  0  0  0  0
 70 67  1  0  0  0  0
 71 65  1  0  0  0  0
 71 74  1  0  0  0  0
 72 71  1  0  0  0  0
 73 71  1  0  0  0  0
M  END
