1,2,3
 OpenBabel05122313063D

 67 69  0  0  0  0  0  0  0  0999 V2000
    0.7808    0.2409    0.0740 P   0  0  0  0  0  0  0  0  0  0  0  0
   -1.9354   -0.5299    1.7706 N   0  0  0  0  0  0  0  0  0  0  0  0
   -1.7984    1.8291   -1.3340 N   0  0  0  0  0  0  0  0  0  0  0  0
    1.1899   -2.6979   -0.9571 N   0  0  0  0  0  0  0  0  0  0  0  0
    1.3441   -0.6149    1.5951 C   0  0  0  0  0  0  0  0  0  0  0  0
    0.4422   -0.7484    2.6886 C   0  0  0  0  0  0  0  0  0  0  0  0
    0.8620   -1.4908    3.8098 C   0  0  0  0  0  0  0  0  0  0  0  0
    0.1680   -1.5985    4.6587 H   0  0  0  0  0  0  0  0  0  0  0  0
    2.1301   -2.0870    3.8712 C   0  0  0  0  0  0  0  0  0  0  0  0
    2.4240   -2.6642    4.7606 H   0  0  0  0  0  0  0  0  0  0  0  0
    3.0182   -1.9322    2.7973 C   0  0  0  0  0  0  0  0  0  0  0  0
    4.0225   -2.3811    2.8344 H   0  0  0  0  0  0  0  0  0  0  0  0
    2.6236   -1.1969    1.6711 C   0  0  0  0  0  0  0  0  0  0  0  0
    3.3177   -1.0672    0.8284 H   0  0  0  0  0  0  0  0  0  0  0  0
   -0.9153   -0.0724    2.7462 C   0  0  0  0  0  0  0  0  0  0  0  0
   -1.3188   -0.2180    3.7792 H   0  0  0  0  0  0  0  0  0  0  0  0
   -0.7975    1.0221    2.6028 H   0  0  0  0  0  0  0  0  0  0  0  0
   -3.2055    0.1505    2.0702 C   0  0  0  0  0  0  0  0  0  0  0  0
   -3.9626   -0.1385    1.3176 H   0  0  0  0  0  0  0  0  0  0  0  0
   -3.0596    1.2464    2.0188 H   0  0  0  0  0  0  0  0  0  0  0  0
   -3.5684   -0.1056    3.0967 H   0  0  0  0  0  0  0  0  0  0  0  0
   -2.1089   -1.9883    1.8503 C   0  0  0  0  0  0  0  0  0  0  0  0
   -1.1647   -2.4911    1.5741 H   0  0  0  0  0  0  0  0  0  0  0  0
   -2.8961   -2.3167    1.1479 H   0  0  0  0  0  0  0  0  0  0  0  0
   -2.3972   -2.3045    2.8830 H   0  0  0  0  0  0  0  0  0  0  0  0
    0.8120    2.0245    0.5966 C   0  0  0  0  0  0  0  0  0  0  0  0
    0.1371    2.9817   -0.2097 C   0  0  0  0  0  0  0  0  0  0  0  0
    0.1088    4.3242    0.2088 C   0  0  0  0  0  0  0  0  0  0  0  0
   -0.4105    5.0637   -0.4217 H   0  0  0  0  0  0  0  0  0  0  0  0
    0.7195    4.7326    1.4049 C   0  0  0  0  0  0  0  0  0  0  0  0
    0.6772    5.7881    1.7128 H   0  0  0  0  0  0  0  0  0  0  0  0
    1.3814    3.7867    2.1995 C   0  0  0  0  0  0  0  0  0  0  0  0
    1.8700    4.0922    3.1374 H   0  0  0  0  0  0  0  0  0  0  0  0
    1.4294    2.4440    1.7925 C   0  0  0  0  0  0  0  0  0  0  0  0
    1.9585    1.7045    2.4127 H   0  0  0  0  0  0  0  0  0  0  0  0
   -0.5411    2.5913   -1.5053 C   0  0  0  0  0  0  0  0  0  0  0  0
   -0.7403    3.5167   -2.1014 H   0  0  0  0  0  0  0  0  0  0  0  0
    0.1394    1.9598   -2.1136 H   0  0  0  0  0  0  0  0  0  0  0  0
   -2.3019    1.4239   -2.6555 C   0  0  0  0  0  0  0  0  0  0  0  0
   -3.2415    0.8594   -2.5171 H   0  0  0  0  0  0  0  0  0  0  0  0
   -1.5618    0.7660   -3.1500 H   0  0  0  0  0  0  0  0  0  0  0  0
   -2.4889    2.3131   -3.3065 H   0  0  0  0  0  0  0  0  0  0  0  0
   -2.8175    2.6116   -0.6258 C   0  0  0  0  0  0  0  0  0  0  0  0
   -3.0965    3.5359   -1.1915 H   0  0  0  0  0  0  0  0  0  0  0  0
   -2.4363    2.9179    0.3671 H   0  0  0  0  0  0  0  0  0  0  0  0
   -3.7155    1.9803   -0.4950 H   0  0  0  0  0  0  0  0  0  0  0  0
    2.1695    0.1857   -1.1413 C   0  0  0  0  0  0  0  0  0  0  0  0
    2.1601   -0.7968   -2.1710 C   0  0  0  0  0  0  0  0  0  0  0  0
    3.1456   -0.7355   -3.1724 C   0  0  0  0  0  0  0  0  0  0  0  0
    3.1394   -1.5020   -3.9636 H   0  0  0  0  0  0  0  0  0  0  0  0
    4.1258    0.2688   -3.1765 C   0  0  0  0  0  0  0  0  0  0  0  0
    4.8853    0.2931   -3.9726 H   0  0  0  0  0  0  0  0  0  0  0  0
    4.1357    1.2327   -2.1581 C   0  0  0  0  0  0  0  0  0  0  0  0
    4.9036    2.0211   -2.1441 H   0  0  0  0  0  0  0  0  0  0  0  0
    3.1598    1.1915   -1.1516 C   0  0  0  0  0  0  0  0  0  0  0  0
    3.1608    1.9580   -0.3623 H   0  0  0  0  0  0  0  0  0  0  0  0
    1.1284   -1.9022   -2.1778 C   0  0  0  0  0  0  0  0  0  0  0  0
    0.1102   -1.4544   -2.2233 H   0  0  0  0  0  0  0  0  0  0  0  0
    1.2573   -2.5239   -3.1040 H   0  0  0  0  0  0  0  0  0  0  0  0
    0.0553   -3.5993   -0.8192 C   0  0  0  0  0  0  0  0  0  0  0  0
   -0.8962   -3.0489   -0.9557 H   0  0  0  0  0  0  0  0  0  0  0  0
    0.0699   -4.0602    0.1901 H   0  0  0  0  0  0  0  0  0  0  0  0
    0.0821   -4.4345   -1.5683 H   0  0  0  0  0  0  0  0  0  0  0  0
    2.4495   -3.4018   -0.8055 C   0  0  0  0  0  0  0  0  0  0  0  0
    2.5870   -4.2135   -1.5695 H   0  0  0  0  0  0  0  0  0  0  0  0
    2.5006   -3.8666    0.1999 H   0  0  0  0  0  0  0  0  0  0  0  0
    3.3025   -2.7017   -0.9047 H   0  0  0  0  0  0  0  0  0  0  0  0
  1 26  1  0  0  0  0
  1  5  1  0  0  0  0
  2 22  1  0  0  0  0
  2 18  1  0  0  0  0
  2 15  1  0  0  0  0
  3 43  1  0  0  0  0
  4 60  1  0  0  0  0
  4 64  1  0  0  0  0
  5 13  2  0  0  0  0
  5  6  1  0  0  0  0
  6 15  1  0  0  0  0
  6  7  2  0  0  0  0
  7  9  1  0  0  0  0
  7  8  1  0  0  0  0
  9 10  1  0  0  0  0
 11 12  1  0  0  0  0
 11  9  2  0  0  0  0
 13 11  1  0  0  0  0
 14 13  1  0  0  0  0
 15 16  1  0  0  0  0
 17 15  1  0  0  0  0
 18 21  1  0  0  0  0
 19 18  1  0  0  0  0
 20 18  1  0  0  0  0
 22 25  1  0  0  0  0
 23 22  1  0  0  0  0
 24 22  1  0  0  0  0
 26 34  1  0  0  0  0
 27 28  1  0  0  0  0
 27 26  2  0  0  0  0
 28 30  2  0  0  0  0
 29 28  1  0  0  0  0
 30 31  1  0  0  0  0
 30 32  1  0  0  0  0
 32 33  1  0  0  0  0
 34 32  2  0  0  0  0
 34 35  1  0  0  0  0
 36  3  1  0  0  0  0
 36 27  1  0  0  0  0
 37 36  1  0  0  0  0
 38 36  1  0  0  0  0
 39 40  1  0  0  0  0
 39  3  1  0  0  0  0
 41 39  1  0  0  0  0
 42 39  1  0  0  0  0
 43 46  1  0  0  0  0
 43 45  1  0  0  0  0
 44 43  1  0  0  0  0
 47  1  1  0  0  0  0
 48 47  2  0  0  0  0
 49 48  1  0  0  0  0
 50 49  1  0  0  0  0
 51 49  2  0  0  0  0
 51 53  1  0  0  0  0
 52 51  1  0  0  0  0
 53 54  1  0  0  0  0
 53 55  2  0  0  0  0
 55 47  1  0  0  0  0
 55 56  1  0  0  0  0
 57 48  1  0  0  0  0
 57  4  1  0  0  0  0
 58 57  1  0  0  0  0
 59 57  1  0  0  0  0
 60 62  1  0  0  0  0
 61 60  1  0  0  0  0
 63 60  1  0  0  0  0
 64 66  1  0  0  0  0
 65 64  1  0  0  0  0
 67 64  1  0  0  0  0
M  END
