1,2,3
 OpenBabel05122313063D

 42 44  0  0  0  0  0  0  0  0999 V2000
    1.1508    0.1279   -0.5794 P   0  0  0  0  0  0  0  0  0  0  0  0
   -2.7741    0.2470    0.3300 N   0  0  0  0  0  2  0  0  0  0  0  0
   -1.2866    0.9052   -1.6143 N   0  0  0  0  0  2  0  0  0  0  0  0
   -3.4670   -0.1393    1.4193 C   0  0  0  0  0  3  0  0  0  0  0  0
   -2.8564   -0.5327    2.2481 H   0  0  0  0  0  0  0  0  0  0  0  0
   -4.8574   -0.0300    1.4861 C   0  0  0  0  0  0  0  0  0  0  0  0
   -5.3822   -0.3532    2.3960 H   0  0  0  0  0  0  0  0  0  0  0  0
   -5.5639    0.4874    0.3790 C   0  0  0  0  0  0  0  0  0  0  0  0
   -6.6596    0.5801    0.4096 H   0  0  0  0  0  0  0  0  0  0  0  0
   -4.8543    0.8743   -0.7572 C   0  0  0  0  0  0  0  0  0  0  0  0
   -5.3651    1.2728   -1.6458 H   0  0  0  0  0  0  0  0  0  0  0  0
   -3.4478    0.7481   -0.7640 C   0  0  0  0  0  0  0  0  0  0  0  0
   -2.5725    1.0789   -1.8538 C   0  0  0  0  0  3  0  0  0  0  0  0
   -2.9498    1.4209   -2.8336 H   0  0  0  0  0  0  0  0  0  0  0  0
   -0.2688    1.1446   -2.6389 C   0  0  0  0  0  0  0  0  0  0  0  0
    0.0968    2.1902   -2.5249 H   0  0  0  0  0  0  0  0  0  0  0  0
   -0.6968    1.0470   -3.6609 H   0  0  0  0  0  0  0  0  0  0  0  0
    0.8891    0.1667   -2.4222 C   0  0  0  0  0  0  0  0  0  0  0  0
    1.8049    0.4620   -2.9716 H   0  0  0  0  0  0  0  0  0  0  0  0
    0.5775   -0.8589   -2.7056 H   0  0  0  0  0  0  0  0  0  0  0  0
    2.4013   -1.1268   -0.1797 C   0  0  0  0  0  0  0  0  0  0  0  0
    2.5284   -2.3033   -0.9459 C   0  0  0  0  0  0  0  0  0  0  0  0
    1.8607   -2.4831   -1.7994 H   0  0  0  0  0  0  0  0  0  0  0  0
    3.4843   -3.2653   -0.5897 C   0  0  0  0  0  0  0  0  0  0  0  0
    3.5815   -4.1817   -1.1909 H   0  0  0  0  0  0  0  0  0  0  0  0
    4.2993   -3.0700    0.5365 C   0  0  0  0  0  0  0  0  0  0  0  0
    5.0434   -3.8315    0.8158 H   0  0  0  0  0  0  0  0  0  0  0  0
    4.1558   -1.9099    1.3146 C   0  0  0  0  0  0  0  0  0  0  0  0
    4.7807   -1.7612    2.2080 H   0  0  0  0  0  0  0  0  0  0  0  0
    3.2079   -0.9398    0.9629 C   0  0  0  0  0  0  0  0  0  0  0  0
    3.0795   -0.0394    1.5813 H   0  0  0  0  0  0  0  0  0  0  0  0
    1.9504    1.7474   -0.2437 C   0  0  0  0  0  0  0  0  0  0  0  0
    3.2691    2.0029   -0.6745 C   0  0  0  0  0  0  0  0  0  0  0  0
    3.8617    1.2016   -1.1433 H   0  0  0  0  0  0  0  0  0  0  0  0
    3.8307    3.2749   -0.4915 C   0  0  0  0  0  0  0  0  0  0  0  0
    4.8612    3.4706   -0.8250 H   0  0  0  0  0  0  0  0  0  0  0  0
    3.0812    4.2939    0.1201 C   0  0  0  0  0  0  0  0  0  0  0  0
    3.5259    5.2902    0.2661 H   0  0  0  0  0  0  0  0  0  0  0  0
    1.7699    4.0395    0.5518 C   0  0  0  0  0  0  0  0  0  0  0  0
    1.1852    4.8333    1.0410 H   0  0  0  0  0  0  0  0  0  0  0  0
    1.2026    2.7686    0.3727 C   0  0  0  0  0  0  0  0  0  0  0  0
    0.1849    2.5419    0.7272 H   0  0  0  0  0  0  0  0  0  0  0  0
  1 32  1  0  0  0  0
  1 21  1  0  0  0  0
  2  4  1  0  0  0  0
  4  6  1  0  0  0  0
  4  5  1  0  0  0  0
  6  7  1  0  0  0  0
  8  9  1  0  0  0  0
  8  6  2  0  0  0  0
 10  8  1  0  0  0  0
 11 10  1  0  0  0  0
 12 10  2  0  0  0  0
 12  2  1  0  0  0  0
 13  3  1  0  0  0  0
 13 12  1  0  0  0  0
 14 13  1  0  0  0  0
 15 16  1  0  0  0  0
 15 18  1  0  0  0  0
 15  3  1  0  0  0  0
 17 15  1  0  0  0  0
 18  1  1  0  0  0  0
 19 18  1  0  0  0  0
 20 18  1  0  0  0  0
 21 30  1  0  0  0  0
 22 24  1  0  0  0  0
 22 21  2  0  0  0  0
 23 22  1  0  0  0  0
 24 26  2  0  0  0  0
 25 24  1  0  0  0  0
 26 27  1  0  0  0  0
 26 28  1  0  0  0  0
 28 29  1  0  0  0  0
 30 28  2  0  0  0  0
 30 31  1  0  0  0  0
 32 41  1  0  0  0  0
 33 35  1  0  0  0  0
 33 32  2  0  0  0  0
 34 33  1  0  0  0  0
 35 37  2  0  0  0  0
 36 35  1  0  0  0  0
 37 38  1  0  0  0  0
 37 39  1  0  0  0  0
 39 40  1  0  0  0  0
 41 39  2  0  0  0  0
 41 42  1  0  0  0  0
M  END
