1,3,4
 OpenBabel05122313063D

 46 48  0  0  1  0  0  0  0  0999 V2000
    1.3172   -1.2427    0.0620 P   0  0  0  0  0  0  0  0  0  0  0  0
    2.8244    4.5314   -0.0929 F   0  0  0  0  0  0  0  0  0  0  0  0
   -0.3994    0.9543    0.0887 N   0  0  0  0  0  2  0  0  0  0  0  0
   -2.6568   -0.1405    0.0640 N   0  0  0  0  0  2  0  0  0  0  0  0
    0.9087    1.4229    0.0034 C   0  0  0  0  0  0  0  0  0  0  0  0
   -1.4306    1.8611    0.1296 C   0  0  0  0  0  0  0  0  0  0  0  0
   -2.7363    1.2276    0.1240 C   0  0  1  0  0  3  0  0  0  0  0  0
    1.1832    2.8276    0.0123 C   0  0  0  0  0  0  0  0  0  0  0  0
    2.5456    3.2152   -0.0984 C   0  0  1  0  0  3  0  0  0  0  0  0
   -1.1890    3.2576    0.1666 C   0  0  0  0  0  0  0  0  0  0  0  0
    2.1993   -2.3572   -1.1565 C   0  0  0  0  0  0  0  0  0  0  0  0
    1.9580    0.4691   -0.0969 C   0  0  0  0  0  0  0  0  0  0  0  0
    0.1011    3.7537    0.1125 C   0  0  0  0  0  0  0  0  0  0  0  0
   -3.9848    1.8809    0.1717 C   0  0  0  0  0  0  0  0  0  0  0  0
    3.2782    0.9138   -0.2115 C   0  0  0  0  0  0  0  0  0  0  0  0
   -3.7900   -0.8735    0.0230 C   0  0  0  0  0  0  0  0  0  0  0  0
    3.5793    2.2949   -0.2172 C   0  0  0  0  0  0  0  0  0  0  0  0
    1.9236   -1.7679    1.7676 C   0  0  0  0  0  0  0  0  0  0  0  0
    2.4692   -1.6795   -2.5044 C   0  0  0  0  0  0  0  0  0  0  0  0
   -5.0548   -0.2842    0.0532 C   0  0  0  0  0  0  0  0  0  0  0  0
   -5.1542    1.1191    0.1347 C   0  0  0  0  0  0  0  0  0  0  0  0
    1.3417   -3.6247   -1.3033 C   0  0  0  0  0  0  0  0  0  0  0  0
    1.3999   -0.7719    2.8102 C   0  0  0  0  0  0  0  0  0  0  0  0
    3.4331   -1.9754    1.8978 C   0  0  0  0  0  0  0  0  0  0  0  0
    4.0997    0.1887   -0.3045 H   0  0  0  0  0  0  0  0  0  0  0  0
    4.6119    2.6590   -0.3115 H   0  0  0  0  0  0  0  0  0  0  0  0
   -3.6454   -1.9633   -0.0121 H   0  0  0  0  0  0  0  0  0  0  0  0
   -5.9515   -0.9187    0.0155 H   0  0  0  0  0  0  0  0  0  0  0  0
   -6.1377    1.6104    0.1653 H   0  0  0  0  0  0  0  0  0  0  0  0
   -4.0296    2.9771    0.2310 H   0  0  0  0  0  0  0  0  0  0  0  0
   -2.0462    3.9426    0.2225 H   0  0  0  0  0  0  0  0  0  0  0  0
    0.3063    4.8318    0.1285 H   0  0  0  0  0  0  0  0  0  0  0  0
    3.1693   -2.6247   -0.6851 H   0  0  0  0  0  0  0  0  0  0  0  0
    1.3872   -2.7310    1.9151 H   0  0  0  0  0  0  0  0  0  0  0  0
    1.5229   -1.3263   -2.9580 H   0  0  0  0  0  0  0  0  0  0  0  0
    3.1499   -0.8115   -2.4089 H   0  0  0  0  0  0  0  0  0  0  0  0
    2.9432   -2.4083   -3.1949 H   0  0  0  0  0  0  0  0  0  0  0  0
    1.1173   -4.0994   -0.3268 H   0  0  0  0  0  0  0  0  0  0  0  0
    0.3746   -3.3712   -1.7817 H   0  0  0  0  0  0  0  0  0  0  0  0
    1.8663   -4.3695   -1.9367 H   0  0  0  0  0  0  0  0  0  0  0  0
    1.8856    0.2198    2.6989 H   0  0  0  0  0  0  0  0  0  0  0  0
    0.3040   -0.6435    2.7250 H   0  0  0  0  0  0  0  0  0  0  0  0
    1.6210   -1.1423    3.8324 H   0  0  0  0  0  0  0  0  0  0  0  0
    3.8285   -2.7455    1.2067 H   0  0  0  0  0  0  0  0  0  0  0  0
    3.9909   -1.0317    1.7249 H   0  0  0  0  0  0  0  0  0  0  0  0
    3.6749   -2.3085    2.9289 H   0  0  0  0  0  0  0  0  0  0  0  0
  1 18  1  0  0  0  0
  3  6  1  0  0  0  0
  4  7  1  0  0  0  0
  5  8  1  0  0  0  0
  5  3  1  0  0  0  0
  6 10  2  0  0  0  0
  7  6  1  6  0  0  0
  7 14  1  0  0  0  0
  8 13  2  0  0  0  0
  9  2  1  6  0  0  0
  9  8  1  0  0  0  0
 10 31  1  0  0  0  0
 11 33  1  0  0  0  0
 11  1  1  0  0  0  0
 12  5  2  0  0  0  0
 12  1  1  0  0  0  0
 13 32  1  0  0  0  0
 13 10  1  0  0  0  0
 14 30  1  0  0  0  0
 15 12  1  0  0  0  0
 16 20  2  0  0  0  0
 16  4  1  0  0  0  0
 17 15  2  0  0  0  0
 17  9  1  0  0  0  0
 18 24  1  0  0  0  0
 18 34  1  0  0  0  0
 18 23  1  0  0  0  0
 19 36  1  0  0  0  0
 19 11  1  0  0  0  0
 20 21  1  0  0  0  0
 21 29  1  0  0  0  0
 21 14  2  0  0  0  0
 22 11  1  0  0  0  0
 22 38  1  0  0  0  0
 23 43  1  0  0  0  0
 24 46  1  0  0  0  0
 25 15  1  0  0  0  0
 26 17  1  0  0  0  0
 27 16  1  0  0  0  0
 28 20  1  0  0  0  0
 35 19  1  0  0  0  0
 37 19  1  0  0  0  0
 39 22  1  0  0  0  0
 40 22  1  0  0  0  0
 41 23  1  0  0  0  0
 42 23  1  0  0  0  0
 44 24  1  0  0  0  0
 45 24  1  0  0  0  0
M  END
