1,2,3
 OpenBabel05122313063D

 61 65  0  0  1  0  0  0  0  0999 V2000
   -2.0436   -0.0661   -0.0003 P   0  0  0  0  0  0  0  0  0  0  0  0
    0.4409    1.0823   -0.0561 N   0  0  0  0  0  2  0  0  0  0  0  0
    1.9418   -0.4603   -0.1416 N   0  0  0  0  0  2  0  0  0  0  0  0
   -0.4382    2.1250   -0.2605 C   0  0  0  0  0  0  0  0  0  0  0  0
   -1.8168    1.7373   -0.2537 C   0  0  0  0  0  0  0  0  0  0  0  0
   -2.8310    2.6803   -0.4779 C   0  0  0  0  0  0  0  0  0  0  0  0
   -3.8832    2.3569   -0.4993 H   0  0  0  0  0  0  0  0  0  0  0  0
   -2.5025    4.0270   -0.6948 C   0  0  0  0  0  0  0  0  0  0  0  0
   -3.2942    4.7689   -0.8735 H   0  0  0  0  0  0  0  0  0  0  0  0
   -1.1485    4.4135   -0.7019 C   0  0  0  0  0  0  0  0  0  0  0  0
   -0.8845    5.4659   -0.8891 H   0  0  0  0  0  0  0  0  0  0  0  0
   -0.1200    3.4879   -0.4918 C   0  0  0  0  0  0  0  0  0  0  0  0
    0.9278    3.8114   -0.5258 H   0  0  0  0  0  0  0  0  0  0  0  0
    1.7812    0.8653   -0.0959 C   0  0  1  0  0  3  0  0  0  0  0  0
    2.8361    1.9057   -0.1066 C   0  0  0  0  0  0  0  0  0  0  0  0
    3.8288    1.8952   -1.1099 C   0  0  0  0  0  0  0  0  0  0  0  0
    3.8071    1.1115   -1.8812 H   0  0  0  0  0  0  0  0  0  0  0  0
    4.8299    2.8746   -1.1176 C   0  0  0  0  0  0  0  0  0  0  0  0
    5.5969    2.8643   -1.9065 H   0  0  0  0  0  0  0  0  0  0  0  0
    4.8576    3.8652   -0.1216 C   0  0  0  0  0  0  0  0  0  0  0  0
    5.6483    4.6306   -0.1276 H   0  0  0  0  0  0  0  0  0  0  0  0
    3.8762    3.8765    0.8833 C   0  0  0  0  0  0  0  0  0  0  0  0
    3.8988    4.6470    1.6687 H   0  0  0  0  0  0  0  0  0  0  0  0
    2.8669    2.9037    0.8911 C   0  0  0  0  0  0  0  0  0  0  0  0
    2.0981    2.9039    1.6784 H   0  0  0  0  0  0  0  0  0  0  0  0
    3.0944   -1.2304    0.0003 C   0  0  0  0  0  0  0  0  0  0  0  0
    3.0890   -2.5230   -0.5779 C   0  0  0  0  0  0  0  0  0  0  0  0
    2.1709   -2.8605   -1.0801 H   0  0  0  0  0  0  0  0  0  0  0  0
    4.2102   -3.3489   -0.4757 C   0  0  0  0  0  0  0  0  0  0  0  0
    4.1806   -4.3507   -0.9339 H   0  0  0  0  0  0  0  0  0  0  0  0
    5.3739   -2.9346    0.2086 C   0  0  0  0  0  0  0  0  0  0  0  0
    5.3574   -1.6590    0.8077 C   0  0  0  0  0  0  0  0  0  0  0  0
    6.2399   -1.3184    1.3730 H   0  0  0  0  0  0  0  0  0  0  0  0
    4.2426   -0.8167    0.7180 C   0  0  0  0  0  0  0  0  0  0  0  0
    4.2553    0.1589    1.2224 H   0  0  0  0  0  0  0  0  0  0  0  0
    6.5820   -3.8322    0.2967 C   0  0  0  0  0  0  0  0  0  0  0  0
    6.3093   -4.8483    0.6500 H   0  0  0  0  0  0  0  0  0  0  0  0
    7.3450   -3.4245    0.9882 H   0  0  0  0  0  0  0  0  0  0  0  0
    7.0647   -3.9595   -0.6962 H   0  0  0  0  0  0  0  0  0  0  0  0
   -2.8894   -0.3071    1.6044 C   0  0  0  0  0  0  0  0  0  0  0  0
   -3.2704    0.7651    2.4337 C   0  0  0  0  0  0  0  0  0  0  0  0
   -3.0712    1.8006    2.1190 H   0  0  0  0  0  0  0  0  0  0  0  0
   -3.9024    0.5070    3.6609 C   0  0  0  0  0  0  0  0  0  0  0  0
   -4.2033    1.3466    4.3059 H   0  0  0  0  0  0  0  0  0  0  0  0
   -4.1465   -0.8146    4.0646 C   0  0  0  0  0  0  0  0  0  0  0  0
   -4.6405   -1.0133    5.0279 H   0  0  0  0  0  0  0  0  0  0  0  0
   -3.7505   -1.8850    3.2435 C   0  0  0  0  0  0  0  0  0  0  0  0
   -3.9274   -2.9226    3.5652 H   0  0  0  0  0  0  0  0  0  0  0  0
   -3.1195   -1.6381    2.0178 C   0  0  0  0  0  0  0  0  0  0  0  0
   -2.7748   -2.4698    1.3819 H   0  0  0  0  0  0  0  0  0  0  0  0
   -3.2536   -0.6571   -1.2388 C   0  0  0  0  0  0  0  0  0  0  0  0
   -4.6344   -0.4151   -1.0868 C   0  0  0  0  0  0  0  0  0  0  0  0
   -5.0109    0.0816   -0.1789 H   0  0  0  0  0  0  0  0  0  0  0  0
   -5.5288   -0.8299   -2.0841 C   0  0  0  0  0  0  0  0  0  0  0  0
   -6.6065   -0.6393   -1.9661 H   0  0  0  0  0  0  0  0  0  0  0  0
   -5.0511   -1.4980   -3.2239 C   0  0  0  0  0  0  0  0  0  0  0  0
   -5.7561   -1.8283   -4.0020 H   0  0  0  0  0  0  0  0  0  0  0  0
   -3.6788   -1.7607   -3.3624 C   0  0  0  0  0  0  0  0  0  0  0  0
   -3.3068   -2.3049   -4.2437 H   0  0  0  0  0  0  0  0  0  0  0  0
   -2.7773   -1.3442   -2.3722 C   0  0  0  0  0  0  0  0  0  0  0  0
   -1.7052   -1.5821   -2.4430 H   0  0  0  0  0  0  0  0  0  0  0  0
  1 40  1  0  0  0  0
  3 26  1  0  0  0  0
  4  5  1  0  0  0  0
  4  2  1  0  0  0  0
  5  1  1  0  0  0  0
  6  5  2  0  0  0  0
  7  6  1  0  0  0  0
  8  6  1  0  0  0  0
  9  8  1  0  0  0  0
 10  8  2  0  0  0  0
 10 12  1  0  0  0  0
 11 10  1  0  0  0  0
 12  4  2  0  0  0  0
 13 12  1  0  0  0  0
 14  3  1  6  0  0  0
 14  2  1  0  0  0  0
 15 14  1  0  0  0  0
 15 24  1  0  0  0  0
 16 15  2  0  0  0  0
 17 16  1  0  0  0  0
 18 16  1  0  0  0  0
 18 20  2  0  0  0  0
 19 18  1  0  0  0  0
 20 22  1  0  0  0  0
 21 20  1  0  0  0  0
 22 24  2  0  0  0  0
 22 23  1  0  0  0  0
 24 25  1  0  0  0  0
 26 34  1  0  0  0  0
 27 29  1  0  0  0  0
 27 26  2  0  0  0  0
 28 27  1  0  0  0  0
 29 31  2  0  0  0  0
 30 29  1  0  0  0  0
 31 36  1  0  0  0  0
 31 32  1  0  0  0  0
 32 33  1  0  0  0  0
 34 32  2  0  0  0  0
 34 35  1  0  0  0  0
 36 37  1  0  0  0  0
 36 38  1  0  0  0  0
 39 36  1  0  0  0  0
 40 49  2  0  0  0  0
 40 41  1  0  0  0  0
 41 43  2  0  0  0  0
 42 41  1  0  0  0  0
 43 45  1  0  0  0  0
 43 44  1  0  0  0  0
 45 46  1  0  0  0  0
 47 48  1  0  0  0  0
 47 45  2  0  0  0  0
 49 47  1  0  0  0  0
 50 49  1  0  0  0  0
 51 52  1  0  0  0  0
 51  1  1  0  0  0  0
 52 53  1  0  0  0  0
 54 55  1  0  0  0  0
 54 52  2  0  0  0  0
 56 54  1  0  0  0  0
 57 56  1  0  0  0  0
 58 56  2  0  0  0  0
 58 60  1  0  0  0  0
 59 58  1  0  0  0  0
 60 51  2  0  0  0  0
 61 60  1  0  0  0  0
M  END
