1,2,3
 OpenBabel05122313063D

 49 50  0  0  0  0  0  0  0  0999 V2000
   -1.7093    0.1755   -0.0613 P   0  0  0  0  0  0  0  0  0  0  0  0
    0.9432    1.2290   -0.2676 N   0  0  0  0  0  2  0  0  0  0  0  0
    2.4187   -0.8915   -0.0148 N   0  0  0  0  0  2  0  0  0  0  0  0
   -3.0052   -0.4865   -1.2945 C   0  0  0  0  0  0  0  0  0  0  0  0
   -2.1967   -0.8433   -2.5584 C   0  0  0  0  0  0  0  0  0  0  0  0
   -2.8853   -1.2589   -3.3253 H   0  0  0  0  0  0  0  0  0  0  0  0
   -1.4158   -1.5947   -2.3288 H   0  0  0  0  0  0  0  0  0  0  0  0
   -1.6955    0.0406   -3.0042 H   0  0  0  0  0  0  0  0  0  0  0  0
   -3.6161   -1.7781   -0.7234 C   0  0  0  0  0  0  0  0  0  0  0  0
   -4.2068   -2.2821   -1.5180 H   0  0  0  0  0  0  0  0  0  0  0  0
   -4.3046   -1.5757    0.1203 H   0  0  0  0  0  0  0  0  0  0  0  0
   -2.8239   -2.4772   -0.3846 H   0  0  0  0  0  0  0  0  0  0  0  0
   -4.1050    0.5261   -1.6526 C   0  0  0  0  0  0  0  0  0  0  0  0
   -3.6958    1.4544   -2.0997 H   0  0  0  0  0  0  0  0  0  0  0  0
   -4.7277    0.8080   -0.7837 H   0  0  0  0  0  0  0  0  0  0  0  0
   -4.7798    0.0735   -2.4108 H   0  0  0  0  0  0  0  0  0  0  0  0
   -2.4286    0.4221    1.6930 C   0  0  0  0  0  0  0  0  0  0  0  0
   -2.4952   -0.9490    2.3911 C   0  0  0  0  0  0  0  0  0  0  0  0
   -2.7092   -0.7974    3.4708 H   0  0  0  0  0  0  0  0  0  0  0  0
   -1.5372   -1.4972    2.2896 H   0  0  0  0  0  0  0  0  0  0  0  0
   -3.2930   -1.5935    1.9784 H   0  0  0  0  0  0  0  0  0  0  0  0
   -1.3919    1.2910    2.4334 C   0  0  0  0  0  0  0  0  0  0  0  0
   -1.3182    2.3169    2.0199 H   0  0  0  0  0  0  0  0  0  0  0  0
   -0.3859    0.8249    2.3897 H   0  0  0  0  0  0  0  0  0  0  0  0
   -1.6912    1.3825    3.4992 H   0  0  0  0  0  0  0  0  0  0  0  0
   -3.7985    1.1127    1.7179 C   0  0  0  0  0  0  0  0  0  0  0  0
   -4.5957    0.4744    1.2901 H   0  0  0  0  0  0  0  0  0  0  0  0
   -3.7971    2.0803    1.1749 H   0  0  0  0  0  0  0  0  0  0  0  0
   -4.0818    1.3285    2.7707 H   0  0  0  0  0  0  0  0  0  0  0  0
   -1.3679    1.9201   -0.6756 C   0  0  0  0  0  0  0  0  0  0  0  0
   -1.5352    1.8773   -1.7739 H   0  0  0  0  0  0  0  0  0  0  0  0
   -2.0632    2.6868   -0.2778 H   0  0  0  0  0  0  0  0  0  0  0  0
    0.0723    2.2851   -0.4376 C   0  0  0  0  0  0  0  0  0  0  0  0
    0.5337    3.6027   -0.4399 C   0  0  0  0  0  0  0  0  0  0  0  0
   -0.1915    4.4201   -0.5630 H   0  0  0  0  0  0  0  0  0  0  0  0
    1.9096    3.8758   -0.3066 C   0  0  0  0  0  0  0  0  0  0  0  0
    2.2793    4.9108   -0.3075 H   0  0  0  0  0  0  0  0  0  0  0  0
    2.7939    2.8012   -0.1882 C   0  0  0  0  0  0  0  0  0  0  0  0
    3.8748    2.9765   -0.0986 H   0  0  0  0  0  0  0  0  0  0  0  0
    2.3014    1.4856   -0.1726 C   0  0  0  0  0  0  0  0  0  0  0  0
    3.1280    0.2836   -0.0479 C   0  0  0  0  0  0  0  0  0  0  0  0
    4.5344    0.2742    0.0333 C   0  0  0  0  0  0  0  0  0  0  0  0
    5.0924    1.2202    0.0051 H   0  0  0  0  0  0  0  0  0  0  0  0
    5.2112   -0.9435    0.1471 C   0  0  0  0  0  0  0  0  0  0  0  0
    6.3093   -0.9632    0.2095 H   0  0  0  0  0  0  0  0  0  0  0  0
    4.4671   -2.1369    0.1805 C   0  0  0  0  0  0  0  0  0  0  0  0
    4.9589   -3.1159    0.2706 H   0  0  0  0  0  0  0  0  0  0  0  0
    3.0740   -2.0667    0.0982 C   0  0  0  0  0  0  0  0  0  0  0  0
    2.4186   -2.9543    0.1273 H   0  0  0  0  0  0  0  0  0  0  0  0
  1 17  1  0  0  0  0
  2 40  1  0  0  0  0
  3 48  1  0  0  0  0
  4  9  1  0  0  0  0
  4  1  1  0  0  0  0
  5  7  1  0  0  0  0
  5  4  1  0  0  0  0
  6  5  1  0  0  0  0
  8  5  1  0  0  0  0
  9 12  1  0  0  0  0
  9 11  1  0  0  0  0
 10  9  1  0  0  0  0
 13  4  1  0  0  0  0
 13 15  1  0  0  0  0
 14 13  1  0  0  0  0
 16 13  1  0  0  0  0
 17 26  1  0  0  0  0
 17 18  1  0  0  0  0
 17 22  1  0  0  0  0
 18 19  1  0  0  0  0
 20 18  1  0  0  0  0
 21 18  1  0  0  0  0
 22 25  1  0  0  0  0
 23 22  1  0  0  0  0
 24 22  1  0  0  0  0
 26 29  1  0  0  0  0
 27 26  1  0  0  0  0
 28 26  1  0  0  0  0
 30 33  1  0  0  0  0
 30 32  1  0  0  0  0
 30  1  1  0  0  0  0
 31 30  1  0  0  0  0
 33  2  1  0  0  0  0
 34 33  2  0  0  0  0
 34 36  1  0  0  0  0
 35 34  1  0  0  0  0
 36 38  2  0  0  0  0
 37 36  1  0  0  0  0
 38 40  1  0  0  0  0
 38 39  1  0  0  0  0
 40 41  2  0  0  0  0
 41  3  1  0  0  0  0
 41 42  1  0  0  0  0
 42 44  2  0  0  0  0
 43 42  1  0  0  0  0
 44 46  1  0  0  0  0
 44 45  1  0  0  0  0
 46 47  1  0  0  0  0
 48 49  1  0  0  0  0
 48 46  2  0  0  0  0
M  END
