1,2,3
 OpenBabel05122313063D

 57 57  0  0  1  0  0  0  0  0999 V2000
   -1.5755    0.0495    0.1808 P   0  0  0  0  0  0  0  0  0  0  0  0
    0.8610    1.2549    0.1082 N   0  0  0  0  0  2  0  0  0  0  0  0
    2.3756   -0.6683   -0.7415 N   0  0  0  0  0  0  0  0  0  0  0  0
    2.3591   -1.3268   -1.5361 H   0  0  0  0  0  0  0  0  0  0  0  0
   -1.2354    1.5289    1.2926 C   0  0  0  0  0  0  0  0  0  0  0  0
   -2.0555    2.2741    1.3475 H   0  0  0  0  0  0  0  0  0  0  0  0
   -1.1057    1.1130    2.3159 H   0  0  0  0  0  0  0  0  0  0  0  0
    0.0587    2.1301    0.8223 C   0  0  1  0  0  3  0  0  0  0  0  0
    0.4632    3.4447    1.0618 C   0  0  0  0  0  0  0  0  0  0  0  0
   -0.2042    4.1090    1.6308 H   0  0  0  0  0  0  0  0  0  0  0  0
    1.7089    3.9062    0.5948 C   0  0  0  0  0  0  0  0  0  0  0  0
    2.0364    4.9373    0.7865 H   0  0  0  0  0  0  0  0  0  0  0  0
    2.5207    3.0103   -0.1281 C   0  0  0  0  0  0  0  0  0  0  0  0
    3.4988    3.3225   -0.5243 H   0  0  0  0  0  0  0  0  0  0  0  0
    2.0757    1.7126   -0.3622 C   0  0  0  0  0  0  0  0  0  0  0  0
    2.7779    0.6820   -1.2044 C   0  0  0  0  0  0  0  0  0  0  0  0
    2.4276    0.7734   -2.2556 H   0  0  0  0  0  0  0  0  0  0  0  0
    3.8792    0.8422   -1.2128 H   0  0  0  0  0  0  0  0  0  0  0  0
   -2.7069    0.7560   -1.1936 C   0  0  0  0  0  0  0  0  0  0  0  0
   -2.8695   -0.3038   -2.2987 C   0  0  0  0  0  0  0  0  0  0  0  0
   -3.5304   -1.1347   -1.9914 H   0  0  0  0  0  0  0  0  0  0  0  0
   -1.8920   -0.7444   -2.5788 H   0  0  0  0  0  0  0  0  0  0  0  0
   -3.3215    0.1714   -3.1958 H   0  0  0  0  0  0  0  0  0  0  0  0
   -4.0764    1.2368   -0.6971 C   0  0  0  0  0  0  0  0  0  0  0  0
   -3.9938    1.9684    0.1327 H   0  0  0  0  0  0  0  0  0  0  0  0
   -4.7155    0.3981   -0.3590 H   0  0  0  0  0  0  0  0  0  0  0  0
   -4.6138    1.7430   -1.5284 H   0  0  0  0  0  0  0  0  0  0  0  0
   -1.9179    1.9440   -1.7803 C   0  0  0  0  0  0  0  0  0  0  0  0
   -2.4517    2.3309   -2.6745 H   0  0  0  0  0  0  0  0  0  0  0  0
   -0.9018    1.6250   -2.0890 H   0  0  0  0  0  0  0  0  0  0  0  0
   -1.8095    2.7831   -1.0648 H   0  0  0  0  0  0  0  0  0  0  0  0
   -2.5166   -1.1672    1.3113 C   0  0  0  0  0  0  0  0  0  0  0  0
   -3.5170   -0.4808    2.2554 C   0  0  0  0  0  0  0  0  0  0  0  0
   -3.9998   -1.2515    2.8945 H   0  0  0  0  0  0  0  0  0  0  0  0
   -4.3214    0.0499    1.7131 H   0  0  0  0  0  0  0  0  0  0  0  0
   -3.0258    0.2424    2.9364 H   0  0  0  0  0  0  0  0  0  0  0  0
   -1.4149   -1.8619    2.1364 C   0  0  0  0  0  0  0  0  0  0  0  0
   -0.8068   -1.1406    2.7210 H   0  0  0  0  0  0  0  0  0  0  0  0
   -0.7333   -2.4254    1.4701 H   0  0  0  0  0  0  0  0  0  0  0  0
   -1.8820   -2.5702    2.8549 H   0  0  0  0  0  0  0  0  0  0  0  0
   -3.2249   -2.2323    0.4564 C   0  0  0  0  0  0  0  0  0  0  0  0
   -3.5857   -3.0484    1.1187 H   0  0  0  0  0  0  0  0  0  0  0  0
   -2.5295   -2.6715   -0.2875 H   0  0  0  0  0  0  0  0  0  0  0  0
   -4.1083   -1.8238   -0.0721 H   0  0  0  0  0  0  0  0  0  0  0  0
    3.2428   -1.2919    0.3296 C   0  0  0  0  0  0  0  0  0  0  0  0
    3.3790   -0.3442    1.5289 C   0  0  0  0  0  0  0  0  0  0  0  0
    3.9213    0.5883    1.2786 H   0  0  0  0  0  0  0  0  0  0  0  0
    3.9418   -0.8561    2.3343 H   0  0  0  0  0  0  0  0  0  0  0  0
    2.3784   -0.0705    1.9158 H   0  0  0  0  0  0  0  0  0  0  0  0
    4.6273   -1.6184   -0.2606 C   0  0  0  0  0  0  0  0  0  0  0  0
    4.5384   -2.3301   -1.1075 H   0  0  0  0  0  0  0  0  0  0  0  0
    5.2711   -2.0898    0.5081 H   0  0  0  0  0  0  0  0  0  0  0  0
    5.1554   -0.7120   -0.6201 H   0  0  0  0  0  0  0  0  0  0  0  0
    2.5600   -2.5891    0.7824 C   0  0  0  0  0  0  0  0  0  0  0  0
    1.5994   -2.3623    1.2836 H   0  0  0  0  0  0  0  0  0  0  0  0
    3.2184   -3.1314    1.4905 H   0  0  0  0  0  0  0  0  0  0  0  0
    2.3248   -3.2489   -0.0752 H   0  0  0  0  0  0  0  0  0  0  0  0
  1  5  1  0  0  0  0
  1 32  1  0  0  0  0
  2  8  1  0  0  0  0
  3 45  1  0  0  0  0
  4  3  1  0  0  0  0
  5  6  1  0  0  0  0
  5  7  1  0  0  0  0
  8  9  1  0  0  0  0
  8  5  1  1  0  0  0
  9 10  1  0  0  0  0
 11 12  1  0  0  0  0
 11  9  2  0  0  0  0
 13 11  1  0  0  0  0
 14 13  1  0  0  0  0
 15 13  2  0  0  0  0
 15  2  1  0  0  0  0
 16  3  1  0  0  0  0
 16 15  1  0  0  0  0
 17 16  1  0  0  0  0
 18 16  1  0  0  0  0
 19 24  1  0  0  0  0
 19  1  1  0  0  0  0
 20 21  1  0  0  0  0
 20 19  1  0  0  0  0
 22 20  1  0  0  0  0
 23 20  1  0  0  0  0
 24 26  1  0  0  0  0
 24 25  1  0  0  0  0
 27 24  1  0  0  0  0
 28 19  1  0  0  0  0
 28 31  1  0  0  0  0
 29 28  1  0  0  0  0
 30 28  1  0  0  0  0
 32 37  1  0  0  0  0
 32 33  1  0  0  0  0
 33 34  1  0  0  0  0
 33 36  1  0  0  0  0
 35 33  1  0  0  0  0
 37 38  1  0  0  0  0
 37 40  1  0  0  0  0
 39 37  1  0  0  0  0
 41 42  1  0  0  0  0
 41 32  1  0  0  0  0
 43 41  1  0  0  0  0
 44 41  1  0  0  0  0
 45 54  1  0  0  0  0
 45 46  1  0  0  0  0
 46 49  1  0  0  0  0
 46 48  1  0  0  0  0
 47 46  1  0  0  0  0
 50 45  1  0  0  0  0
 50 52  1  0  0  0  0
 51 50  1  0  0  0  0
 53 50  1  0  0  0  0
 54 55  1  0  0  0  0
 54 56  1  0  0  0  0
 57 54  1  0  0  0  0
M  END
