1,2,3
 OpenBabel05122313063D

 54 54  0  0  1  0  0  0  0  0999 V2000
   -1.6275   -0.0015    0.0202 P   0  0  0  0  0  0  0  0  0  0  0  0
    0.7930    1.5767   -0.1365 N   0  0  0  0  0  2  0  0  0  0  0  0
    2.7691   -0.2379    0.0280 N   0  0  0  0  0  0  0  0  0  0  0  0
    2.7916   -0.1972   -1.0159 H   0  0  0  0  0  0  0  0  0  0  0  0
   -1.5150    1.6367   -0.8986 C   0  0  0  0  0  0  0  0  0  0  0  0
   -1.4441    1.3287   -1.9656 H   0  0  0  0  0  0  0  0  0  0  0  0
   -2.4013    2.2929   -0.7877 H   0  0  0  0  0  0  0  0  0  0  0  0
   -0.2372    2.3531   -0.5614 C   0  0  2  0  0  3  0  0  0  0  0  0
   -0.0580    3.7380   -0.7085 C   0  0  0  0  0  0  0  0  0  0  0  0
   -0.8993    4.3617   -1.0426 H   0  0  0  0  0  0  0  0  0  0  0  0
    1.1991    4.3017   -0.4497 C   0  0  0  0  0  0  0  0  0  0  0  0
    1.3566    5.3838   -0.5703 H   0  0  0  0  0  0  0  0  0  0  0  0
    2.2591    3.4722   -0.0555 C   0  0  0  0  0  0  0  0  0  0  0  0
    3.2625    3.8797    0.1336 H   0  0  0  0  0  0  0  0  0  0  0  0
    2.0176    2.1010    0.0987 C   0  0  0  0  0  0  0  0  0  0  0  0
    3.0490    1.1064    0.5670 C   0  0  0  0  0  0  0  0  0  0  0  0
    4.0743    1.4546    0.3038 H   0  0  0  0  0  0  0  0  0  0  0  0
    2.9963    1.0490    1.6760 H   0  0  0  0  0  0  0  0  0  0  0  0
   -2.8774   -1.0091   -1.0298 C   0  0  0  0  0  0  0  0  0  0  0  0
   -2.0955   -1.5926   -2.2200 C   0  0  0  0  0  0  0  0  0  0  0  0
   -1.2986   -2.2828   -1.8886 H   0  0  0  0  0  0  0  0  0  0  0  0
   -1.5967   -0.8190   -2.8346 H   0  0  0  0  0  0  0  0  0  0  0  0
   -2.8051   -2.1527   -2.8662 H   0  0  0  0  0  0  0  0  0  0  0  0
   -3.4207   -2.1808   -0.1922 C   0  0  0  0  0  0  0  0  0  0  0  0
   -4.0056   -2.8520   -0.8564 H   0  0  0  0  0  0  0  0  0  0  0  0
   -4.0968   -1.8532    0.6206 H   0  0  0  0  0  0  0  0  0  0  0  0
   -2.6018   -2.7838    0.2474 H   0  0  0  0  0  0  0  0  0  0  0  0
   -4.0335   -0.1509   -1.5749 C   0  0  0  0  0  0  0  0  0  0  0  0
   -3.6719    0.6418   -2.2590 H   0  0  0  0  0  0  0  0  0  0  0  0
   -4.6426    0.3221   -0.7842 H   0  0  0  0  0  0  0  0  0  0  0  0
   -4.7096   -0.8023   -2.1690 H   0  0  0  0  0  0  0  0  0  0  0  0
   -2.4197    0.4724    1.7107 C   0  0  0  0  0  0  0  0  0  0  0  0
   -1.5961    1.6494    2.2698 C   0  0  0  0  0  0  0  0  0  0  0  0
   -1.7391    2.5812    1.6874 H   0  0  0  0  0  0  0  0  0  0  0  0
   -0.5158    1.4064    2.2925 H   0  0  0  0  0  0  0  0  0  0  0  0
   -1.9272    1.8565    3.3096 H   0  0  0  0  0  0  0  0  0  0  0  0
   -2.2674   -0.7216    2.6711 C   0  0  0  0  0  0  0  0  0  0  0  0
   -2.5986   -0.4184    3.6871 H   0  0  0  0  0  0  0  0  0  0  0  0
   -1.2086   -1.0412    2.7289 H   0  0  0  0  0  0  0  0  0  0  0  0
   -2.8744   -1.5939    2.3670 H   0  0  0  0  0  0  0  0  0  0  0  0
   -3.8904    0.9064    1.6205 C   0  0  0  0  0  0  0  0  0  0  0  0
   -4.5632    0.0792    1.3254 H   0  0  0  0  0  0  0  0  0  0  0  0
   -4.0393    1.7481    0.9136 H   0  0  0  0  0  0  0  0  0  0  0  0
   -4.2251    1.2582    2.6200 H   0  0  0  0  0  0  0  0  0  0  0  0
    3.7353   -1.2740    0.4860 C   0  0  0  0  0  0  0  0  0  0  0  0
    4.7564   -0.8272    0.3922 H   0  0  0  0  0  0  0  0  0  0  0  0
    3.5124   -1.6581    1.9481 C   0  0  0  0  0  0  0  0  0  0  0  0
    3.5893   -0.7893    2.6319 H   0  0  0  0  0  0  0  0  0  0  0  0
    4.2763   -2.3963    2.2623 H   0  0  0  0  0  0  0  0  0  0  0  0
    2.5071   -2.1041    2.0767 H   0  0  0  0  0  0  0  0  0  0  0  0
    3.6633   -2.4863   -0.4413 C   0  0  0  0  0  0  0  0  0  0  0  0
    2.6913   -3.0052   -0.3379 H   0  0  0  0  0  0  0  0  0  0  0  0
    4.4703   -3.2016   -0.1885 H   0  0  0  0  0  0  0  0  0  0  0  0
    3.7741   -2.1915   -1.5038 H   0  0  0  0  0  0  0  0  0  0  0  0
  1 32  1  0  0  0  0
  2 15  1  0  0  0  0
  3 45  1  0  0  0  0
  3 16  1  0  0  0  0
  4  3  1  0  0  0  0
  5  7  1  0  0  0  0
  5  1  1  0  0  0  0
  6  5  1  0  0  0  0
  8  5  1  6  0  0  0
  8  2  1  0  0  0  0
  9  8  1  0  0  0  0
  9 11  2  0  0  0  0
 10  9  1  0  0  0  0
 11 13  1  0  0  0  0
 12 11  1  0  0  0  0
 13 15  2  0  0  0  0
 13 14  1  0  0  0  0
 15 16  1  0  0  0  0
 16 18  1  0  0  0  0
 17 16  1  0  0  0  0
 19 24  1  0  0  0  0
 19  1  1  0  0  0  0
 20 21  1  0  0  0  0
 20 19  1  0  0  0  0
 22 20  1  0  0  0  0
 23 20  1  0  0  0  0
 24 27  1  0  0  0  0
 24 26  1  0  0  0  0
 25 24  1  0  0  0  0
 28 19  1  0  0  0  0
 28 30  1  0  0  0  0
 29 28  1  0  0  0  0
 31 28  1  0  0  0  0
 32 33  1  0  0  0  0
 32 37  1  0  0  0  0
 33 35  1  0  0  0  0
 33 36  1  0  0  0  0
 34 33  1  0  0  0  0
 37 39  1  0  0  0  0
 37 38  1  0  0  0  0
 40 37  1  0  0  0  0
 41 32  1  0  0  0  0
 41 44  1  0  0  0  0
 42 41  1  0  0  0  0
 43 41  1  0  0  0  0
 45 47  1  0  0  0  0
 46 45  1  0  0  0  0
 47 50  1  0  0  0  0
 47 49  1  0  0  0  0
 47 48  1  0  0  0  0
 51 52  1  0  0  0  0
 51 53  1  0  0  0  0
 51 45  1  0  0  0  0
 54 51  1  0  0  0  0
M  END
