1,2,3
 OpenBabel05122313063D

 42 43  0  0  1  0  0  0  0  0999 V2000
    1.8741    0.2099   -0.0480 P   0  0  0  0  0  0  0  0  0  0  0  0
   -2.2199   -0.8495   -0.0376 N   0  0  0  0  0  2  0  0  0  0  0  0
   -0.7655    1.2805   -0.0500 N   0  0  0  0  0  2  0  0  0  0  0  0
    1.4594    1.9167   -0.0547 N   0  0  0  0  0  0  0  0  0  0  0  0
    2.1631    2.6585   -0.0597 H   0  0  0  0  0  0  0  0  0  0  0  0
   -2.8858   -2.0240   -0.0340 C   0  0  0  0  0  3  0  0  0  0  0  0
   -2.2711   -2.9352   -0.0210 H   0  0  0  0  0  0  0  0  0  0  0  0
   -4.2827   -2.0935   -0.0457 C   0  0  0  0  0  0  0  0  0  0  0  0
   -4.7750   -3.0759   -0.0427 H   0  0  0  0  0  0  0  0  0  0  0  0
   -5.0222   -0.9018   -0.0609 C   0  0  0  0  0  0  0  0  0  0  0  0
   -6.1215   -0.9207   -0.0702 H   0  0  0  0  0  0  0  0  0  0  0  0
   -4.3350    0.3163   -0.0639 C   0  0  0  0  0  0  0  0  0  0  0  0
   -4.8853    1.2665   -0.0757 H   0  0  0  0  0  0  0  0  0  0  0  0
   -2.9296    0.3199   -0.0522 C   0  0  0  0  0  0  0  0  0  0  0  0
   -2.1032    1.5379   -0.0554 C   0  0  2  0  0  3  0  0  0  0  0  0
   -2.5890    2.8507   -0.0637 C   0  0  0  0  0  0  0  0  0  0  0  0
   -3.6672    3.0531   -0.0677 H   0  0  0  0  0  0  0  0  0  0  0  0
   -1.6607    3.9073   -0.0657 C   0  0  0  0  0  0  0  0  0  0  0  0
   -2.0135    4.9487   -0.0709 H   0  0  0  0  0  0  0  0  0  0  0  0
   -0.2926    3.6408   -0.0613 C   0  0  0  0  0  0  0  0  0  0  0  0
    0.4467    4.4538   -0.0636 H   0  0  0  0  0  0  0  0  0  0  0  0
    0.1392    2.2918   -0.0544 C   0  0  0  0  0  0  0  0  0  0  0  0
    2.9188    0.0498   -1.5932 C   0  0  0  0  0  0  0  0  0  0  0  0
    2.1809    0.2717   -2.3941 H   0  0  0  0  0  0  0  0  0  0  0  0
    4.0511    1.0784   -1.6856 C   0  0  0  0  0  0  0  0  0  0  0  0
    3.6874    2.1237   -1.6241 H   0  0  0  0  0  0  0  0  0  0  0  0
    4.5599    0.9769   -2.6656 H   0  0  0  0  0  0  0  0  0  0  0  0
    4.8250    0.9262   -0.9060 H   0  0  0  0  0  0  0  0  0  0  0  0
    3.4233   -1.3879   -1.7770 C   0  0  0  0  0  0  0  0  0  0  0  0
    4.2106   -1.6426   -1.0395 H   0  0  0  0  0  0  0  0  0  0  0  0
    3.8735   -1.4959   -2.7841 H   0  0  0  0  0  0  0  0  0  0  0  0
    2.6145   -2.1401   -1.6929 H   0  0  0  0  0  0  0  0  0  0  0  0
    3.0743    0.0105    1.3773 C   0  0  0  0  0  0  0  0  0  0  0  0
    4.0624    0.2865    0.9489 H   0  0  0  0  0  0  0  0  0  0  0  0
    2.7695    0.9526    2.5472 C   0  0  0  0  0  0  0  0  0  0  0  0
    2.8357    2.0206    2.2650 H   0  0  0  0  0  0  0  0  0  0  0  0
    3.5069    0.7765    3.3564 H   0  0  0  0  0  0  0  0  0  0  0  0
    1.7651    0.7728    2.9772 H   0  0  0  0  0  0  0  0  0  0  0  0
    3.1288   -1.4614    1.8174 C   0  0  0  0  0  0  0  0  0  0  0  0
    2.2053   -1.7600    2.3503 H   0  0  0  0  0  0  0  0  0  0  0  0
    3.9747   -1.6044    2.5195 H   0  0  0  0  0  0  0  0  0  0  0  0
    3.2732   -2.1632    0.9740 H   0  0  0  0  0  0  0  0  0  0  0  0
  1 33  1  0  0  0  0
  2  6  1  0  0  0  0
  4 22  1  0  0  0  0
  4  1  1  0  0  0  0
  5  4  1  0  0  0  0
  6  7  1  0  0  0  0
  8  9  1  0  0  0  0
  8  6  1  0  0  0  0
 10  8  2  0  0  0  0
 11 10  1  0  0  0  0
 12 10  1  0  0  0  0
 12 14  2  0  0  0  0
 13 12  1  0  0  0  0
 14  2  1  0  0  0  0
 15 14  1  6  0  0  0
 15  3  1  0  0  0  0
 16 15  1  0  0  0  0
 17 16  1  0  0  0  0
 18 16  2  0  0  0  0
 18 20  1  0  0  0  0
 19 18  1  0  0  0  0
 20 22  2  0  0  0  0
 21 20  1  0  0  0  0
 22  3  1  0  0  0  0
 23  1  1  0  0  0  0
 24 23  1  0  0  0  0
 25 26  1  0  0  0  0
 25 23  1  0  0  0  0
 25 28  1  0  0  0  0
 27 25  1  0  0  0  0
 29 32  1  0  0  0  0
 29 23  1  0  0  0  0
 29 30  1  0  0  0  0
 31 29  1  0  0  0  0
 33 39  1  0  0  0  0
 33 35  1  0  0  0  0
 34 33  1  0  0  0  0
 35 38  1  0  0  0  0
 35 37  1  0  0  0  0
 36 35  1  0  0  0  0
 39 40  1  0  0  0  0
 39 41  1  0  0  0  0
 42 39  1  0  0  0  0
M  END
