1,6,7
 OpenBabel05122313063D

 62 64  0  0  1  0  0  0  0  0999 V2000
   -0.2995    1.1107    0.2455 P   0  0  1  0  0  0  0  0  0  0  0  0
    0.8036    2.2901    0.6011 O   0  0  0  0  0  0  0  0  0  0  0  0
    4.2039    0.9816    0.5197 O   0  0  0  0  0  0  0  0  0  0  0  0
   -1.1917    1.0657    1.6650 O   0  0  0  0  0  0  0  0  0  0  0  0
   -3.2713   -1.9719    1.3269 O   0  0  0  0  0  0  0  0  0  0  0  0
    2.3765   -0.0448   -0.3019 N   0  0  0  0  0  2  0  0  0  0  0  0
   -1.4220   -1.5302    0.1235 N   0  0  0  0  0  2  0  0  0  0  0  0
    2.1155    2.0424    1.1526 C   0  0  0  0  0  0  0  0  0  0  0  0
    2.0113    1.6799    2.6416 C   0  0  0  0  0  0  0  0  0  0  0  0
    2.8602    3.3691    0.9459 C   0  0  0  0  0  0  0  0  0  0  0  0
    2.8536    0.9356    0.4026 C   0  0  1  0  0  3  0  0  0  0  0  0
    3.5432   -0.7687   -0.9192 C   0  0  0  0  0  0  0  0  0  0  0  0
    4.6831   -0.2856    0.0006 C   0  0  0  0  0  0  0  0  0  0  0  0
    3.3256   -2.2793   -0.8697 C   0  0  0  0  0  0  0  0  0  0  0  0
    3.7167   -0.2601   -2.3569 C   0  0  0  0  0  0  0  0  0  0  0  0
   -2.2521    0.1279    1.9205 C   0  0  0  0  0  0  0  0  0  0  0  0
   -2.0963   -0.2874    3.3920 C   0  0  0  0  0  0  0  0  0  0  0  0
   -3.5923    0.8494    1.6698 C   0  0  0  0  0  0  0  0  0  0  0  0
   -2.2346   -1.1391    1.0599 C   0  0  1  0  0  3  0  0  0  0  0  0
   -1.9674   -2.8054   -0.4594 C   0  0  0  0  0  0  0  0  0  0  0  0
   -2.9717   -3.2120    0.6403 C   0  0  0  0  0  0  0  0  0  0  0  0
   -0.8407   -3.8196   -0.6484 C   0  0  0  0  0  0  0  0  0  0  0  0
   -2.6716   -2.4746   -1.7819 C   0  0  0  0  0  0  0  0  0  0  0  0
   -1.4191    2.1197   -0.7929 C   0  0  0  0  0  0  0  0  0  0  0  0
   -1.7290    3.4398   -0.3986 C   0  0  0  0  0  0  0  0  0  0  0  0
   -2.6777    4.1768   -1.1185 C   0  0  0  0  0  0  0  0  0  0  0  0
   -3.3272    3.6023   -2.2256 C   0  0  0  0  0  0  0  0  0  0  0  0
   -3.0149    2.2923   -2.6185 C   0  0  0  0  0  0  0  0  0  0  0  0
   -2.0598    1.5478   -1.9068 C   0  0  0  0  0  0  0  0  0  0  0  0
    3.0248    1.5888    3.0789 H   0  0  0  0  0  0  0  0  0  0  0  0
    1.4589    2.4832    3.1672 H   0  0  0  0  0  0  0  0  0  0  0  0
    1.4848    0.7145    2.7686 H   0  0  0  0  0  0  0  0  0  0  0  0
    3.8943    3.2984    1.3285 H   0  0  0  0  0  0  0  0  0  0  0  0
    2.8882    3.6317   -0.1290 H   0  0  0  0  0  0  0  0  0  0  0  0
    2.3204    4.1662    1.4912 H   0  0  0  0  0  0  0  0  0  0  0  0
    5.6389   -0.1045   -0.5255 H   0  0  0  0  0  0  0  0  0  0  0  0
    4.8447   -0.9681    0.8630 H   0  0  0  0  0  0  0  0  0  0  0  0
    3.0876   -2.6118    0.1597 H   0  0  0  0  0  0  0  0  0  0  0  0
    2.4847   -2.5544   -1.5384 H   0  0  0  0  0  0  0  0  0  0  0  0
    4.2302   -2.8101   -1.2291 H   0  0  0  0  0  0  0  0  0  0  0  0
    4.5558   -0.7916   -2.8509 H   0  0  0  0  0  0  0  0  0  0  0  0
    2.7826   -0.4314   -2.9267 H   0  0  0  0  0  0  0  0  0  0  0  0
    3.9351    0.8269   -2.3628 H   0  0  0  0  0  0  0  0  0  0  0  0
   -2.1229    0.6235    4.0207 H   0  0  0  0  0  0  0  0  0  0  0  0
   -2.9156   -0.9660    3.6949 H   0  0  0  0  0  0  0  0  0  0  0  0
   -1.1226   -0.7973    3.5219 H   0  0  0  0  0  0  0  0  0  0  0  0
   -3.6260    1.7583    2.3003 H   0  0  0  0  0  0  0  0  0  0  0  0
   -3.6803    1.1553    0.6095 H   0  0  0  0  0  0  0  0  0  0  0  0
   -4.4447    0.1931    1.9271 H   0  0  0  0  0  0  0  0  0  0  0  0
   -2.5258   -3.9122    1.3794 H   0  0  0  0  0  0  0  0  0  0  0  0
   -3.9187   -3.6292    0.2498 H   0  0  0  0  0  0  0  0  0  0  0  0
   -0.2631   -3.9432    0.2889 H   0  0  0  0  0  0  0  0  0  0  0  0
   -1.2520   -4.8015   -0.9583 H   0  0  0  0  0  0  0  0  0  0  0  0
   -0.1572   -3.4676   -1.4473 H   0  0  0  0  0  0  0  0  0  0  0  0
   -3.0977   -3.3970   -2.2269 H   0  0  0  0  0  0  0  0  0  0  0  0
   -3.4950   -1.7507   -1.6158 H   0  0  0  0  0  0  0  0  0  0  0  0
   -1.9434   -2.0308   -2.4890 H   0  0  0  0  0  0  0  0  0  0  0  0
   -1.2240    3.8810    0.4730 H   0  0  0  0  0  0  0  0  0  0  0  0
   -2.9158    5.2074   -0.8129 H   0  0  0  0  0  0  0  0  0  0  0  0
   -4.0757    4.1834   -2.7861 H   0  0  0  0  0  0  0  0  0  0  0  0
   -3.5113    1.8441   -3.4928 H   0  0  0  0  0  0  0  0  0  0  0  0
   -1.7784    0.5335   -2.2277 H   0  0  0  0  0  0  0  0  0  0  0  0
  1  2  1  1  0  0  0
  1  4  1  0  0  0  0
  2  8  1  0  0  0  0
  4 16  1  0  0  0  0
  6 11  1  0  0  0  0
  7 19  1  0  0  0  0
  8  9  1  0  0  0  0
  9 32  1  0  0  0  0
  9 30  1  0  0  0  0
  9 31  1  0  0  0  0
 10  8  1  0  0  0  0
 10 33  1  0  0  0  0
 10 35  1  0  0  0  0
 11  3  1  0  0  0  0
 11  8  1  1  0  0  0
 12 14  1  0  0  0  0
 12  6  1  0  0  0  0
 12 13  1  0  0  0  0
 13  3  1  0  0  0  0
 13 37  1  0  0  0  0
 14 38  1  0  0  0  0
 15 12  1  0  0  0  0
 16 17  1  0  0  0  0
 17 46  1  0  0  0  0
 17 45  1  0  0  0  0
 17 44  1  0  0  0  0
 18 16  1  0  0  0  0
 18 49  1  0  0  0  0
 18 47  1  0  0  0  0
 19  5  1  0  0  0  0
 19 16  1  6  0  0  0
 20  7  1  0  0  0  0
 20 21  1  0  0  0  0
 21  5  1  0  0  0  0
 21 50  1  0  0  0  0
 22 20  1  0  0  0  0
 22 52  1  0  0  0  0
 23 56  1  0  0  0  0
 23 20  1  0  0  0  0
 24 25  1  0  0  0  0
 24  1  1  0  0  0  0
 25 58  1  0  0  0  0
 26 59  1  0  0  0  0
 26 25  2  0  0  0  0
 27 26  1  0  0  0  0
 28 27  2  0  0  0  0
 28 29  1  0  0  0  0
 29 24  2  0  0  0  0
 34 10  1  0  0  0  0
 36 13  1  0  0  0  0
 39 14  1  0  0  0  0
 40 14  1  0  0  0  0
 41 15  1  0  0  0  0
 42 15  1  0  0  0  0
 43 15  1  0  0  0  0
 48 18  1  0  0  0  0
 51 21  1  0  0  0  0
 53 22  1  0  0  0  0
 54 22  1  0  0  0  0
 55 23  1  0  0  0  0
 57 23  1  0  0  0  0
 60 27  1  0  0  0  0
 61 28  1  0  0  0  0
 62 29  1  0  0  0  0
M  END
