1,2,3
 OpenBabel05122313063D

 44 47  0  0  0  0  0  0  0  0999 V2000
   -0.7446    0.0278    0.0253 P   0  0  0  0  0  0  0  0  0  0  0  0
    3.1641   -0.8816   -0.0525 N   0  0  0  0  0  2  0  0  0  0  0  0
    1.7635    1.2387    0.1538 N   0  0  0  0  0  2  0  0  0  0  0  0
    4.0413   -1.8895   -0.1653 C   0  0  0  0  0  3  0  0  0  0  0  0
    3.6891   -2.9283   -0.2129 H   0  0  0  0  0  0  0  0  0  0  0  0
    5.3742   -1.3755   -0.2003 C   0  0  0  0  0  0  0  0  0  0  0  0
    6.2896   -1.9734   -0.2853 H   0  0  0  0  0  0  0  0  0  0  0  0
    5.2822    0.0188   -0.1029 C   0  0  0  0  0  0  0  0  0  0  0  0
    6.1030    0.7456   -0.0984 H   0  0  0  0  0  0  0  0  0  0  0  0
    3.8889    0.3111   -0.0115 C   0  0  0  0  0  0  0  0  0  0  0  0
    3.0865    1.4549    0.1088 C   0  0  0  0  0  0  0  0  0  0  0  0
    3.5067    2.4721    0.1688 H   0  0  0  0  0  0  0  0  0  0  0  0
    0.8019    2.2413    0.3290 C   0  0  0  0  0  0  0  0  0  0  0  0
    1.0832    3.6152    0.5268 C   0  0  0  0  0  0  0  0  0  0  0  0
    2.1206    3.9775    0.5384 H   0  0  0  0  0  0  0  0  0  0  0  0
    0.0378    4.5222    0.7293 C   0  0  0  0  0  0  0  0  0  0  0  0
    0.2754    5.5852    0.8882 H   0  0  0  0  0  0  0  0  0  0  0  0
   -1.3043    4.0966    0.7471 C   0  0  0  0  0  0  0  0  0  0  0  0
   -2.1144    4.8195    0.9217 H   0  0  0  0  0  0  0  0  0  0  0  0
   -1.5967    2.7405    0.5467 C   0  0  0  0  0  0  0  0  0  0  0  0
   -2.6396    2.3890    0.5655 H   0  0  0  0  0  0  0  0  0  0  0  0
   -0.5578    1.8219    0.3264 C   0  0  0  0  0  0  0  0  0  0  0  0
   -1.6406   -0.1551   -1.5604 C   0  0  0  0  0  0  0  0  0  0  0  0
   -1.9317    0.9433   -2.3928 C   0  0  0  0  0  0  0  0  0  0  0  0
   -1.6423    1.9593   -2.0857 H   0  0  0  0  0  0  0  0  0  0  0  0
   -2.5930    0.7388   -3.6143 C   0  0  0  0  0  0  0  0  0  0  0  0
   -2.8223    1.6003   -4.2599 H   0  0  0  0  0  0  0  0  0  0  0  0
   -2.9578   -0.5567   -4.0109 C   0  0  0  0  0  0  0  0  0  0  0  0
   -3.4756   -0.7138   -4.9694 H   0  0  0  0  0  0  0  0  0  0  0  0
   -2.6537   -1.6544   -3.1873 C   0  0  0  0  0  0  0  0  0  0  0  0
   -2.9267   -2.6732   -3.5017 H   0  0  0  0  0  0  0  0  0  0  0  0
   -1.9942   -1.4608   -1.9670 C   0  0  0  0  0  0  0  0  0  0  0  0
   -1.7214   -2.3178   -1.3316 H   0  0  0  0  0  0  0  0  0  0  0  0
   -1.8999   -0.6222    1.2849 C   0  0  0  0  0  0  0  0  0  0  0  0
   -3.2914   -0.4248    1.1739 C   0  0  0  0  0  0  0  0  0  0  0  0
   -3.7092    0.0687    0.2825 H   0  0  0  0  0  0  0  0  0  0  0  0
   -4.1438   -0.8804    2.1903 C   0  0  0  0  0  0  0  0  0  0  0  0
   -5.2300   -0.7257    2.1033 H   0  0  0  0  0  0  0  0  0  0  0  0
   -3.6128   -1.5425    3.3095 C   0  0  0  0  0  0  0  0  0  0  0  0
   -4.2844   -1.9045    4.1028 H   0  0  0  0  0  0  0  0  0  0  0  0
   -2.2287   -1.7581    3.4089 C   0  0  0  0  0  0  0  0  0  0  0  0
   -1.8141   -2.2960    4.2748 H   0  0  0  0  0  0  0  0  0  0  0  0
   -1.3700   -1.3023    2.3985 C   0  0  0  0  0  0  0  0  0  0  0  0
   -0.2886   -1.5009    2.4418 H   0  0  0  0  0  0  0  0  0  0  0  0
  1 22  1  0  0  0  0
  1 34  1  0  0  0  0
  2 10  1  0  0  0  0
  3 13  1  0  0  0  0
  4  2  1  0  0  0  0
  5  4  1  0  0  0  0
  6  4  1  0  0  0  0
  6  8  2  0  0  0  0
  7  6  1  0  0  0  0
  8  9  1  0  0  0  0
  8 10  1  0  0  0  0
 10 11  2  0  0  0  0
 11  3  1  0  0  0  0
 11 12  1  0  0  0  0
 13 14  1  0  0  0  0
 14 15  1  0  0  0  0
 14 16  2  0  0  0  0
 16 18  1  0  0  0  0
 16 17  1  0  0  0  0
 18 19  1  0  0  0  0
 20 21  1  0  0  0  0
 20 18  2  0  0  0  0
 22 13  2  0  0  0  0
 22 20  1  0  0  0  0
 23  1  1  0  0  0  0
 24 25  1  0  0  0  0
 24 23  2  0  0  0  0
 26 24  1  0  0  0  0
 27 26  1  0  0  0  0
 28 26  2  0  0  0  0
 28 30  1  0  0  0  0
 29 28  1  0  0  0  0
 30 32  2  0  0  0  0
 31 30  1  0  0  0  0
 32 23  1  0  0  0  0
 32 33  1  0  0  0  0
 34 43  1  0  0  0  0
 35 34  2  0  0  0  0
 35 37  1  0  0  0  0
 36 35  1  0  0  0  0
 37 39  2  0  0  0  0
 38 37  1  0  0  0  0
 39 41  1  0  0  0  0
 39 40  1  0  0  0  0
 41 42  1  0  0  0  0
 43 44  1  0  0  0  0
 43 41  2  0  0  0  0
M  END
