1,3,5,7
 OpenBabel05122313063D

 65 67  0  0  1  0  0  0  0  0999 V2000
    1.1214    0.0178    0.2098 P   0  0  0  0  0  0  0  0  0  0  0  0
   -4.1058   -2.0412    0.5475 S   0  0  0  0  0  0  0  0  0  0  0  0
   -0.0445    2.3743   -0.7869 O   0  5  0  0  0  0  0  0  0  0  0  0
   -0.4300   -2.1962   -1.1743 O   0  0  0  0  0  0  0  0  0  0  0  0
   -2.6139    1.4460   -0.2950 N   0  0  0  0  0  2  0  0  0  0  0  0
   -3.5983    0.5305   -0.0184 N   0  0  0  0  0  0  0  0  0  0  0  0
   -1.7025   -0.8055    0.1372 N   0  0  0  0  0  2  0  0  0  0  0  0
   -3.0550   -0.6515    0.1799 C   0  0  0  0  0  0  0  0  0  0  0  0
   -5.7371   -1.2713    0.3287 C   0  0  0  0  0  0  0  0  0  0  0  0
   -5.8493   -0.8870   -0.7019 H   0  0  0  0  0  0  0  0  0  0  0  0
   -5.8670   -0.4376    1.0428 H   0  0  0  0  0  0  0  0  0  0  0  0
   -6.4761   -2.0711    0.5267 H   0  0  0  0  0  0  0  0  0  0  0  0
   -4.4453    3.0466   -0.4808 C   0  0  0  0  0  0  0  0  0  0  0  0
   -4.8588    2.7817    0.5135 H   0  0  0  0  0  0  0  0  0  0  0  0
   -5.0153    2.4376   -1.2119 H   0  0  0  0  0  0  0  0  0  0  0  0
   -4.6139    4.1202   -0.6821 H   0  0  0  0  0  0  0  0  0  0  0  0
   -2.9807    2.7057   -0.5460 C   0  0  2  0  0  3  0  0  0  0  0  0
   -2.0270    3.7119   -0.8694 C   0  0  0  0  0  0  0  0  0  0  0  0
   -2.4149    4.7234   -1.0490 H   0  0  0  0  0  0  0  0  0  0  0  0
   -0.6516    3.5131   -0.9794 C   0  0  0  0  0  0  0  0  0  0  0  0
    0.2816    4.6458   -1.3329 C   0  0  0  0  0  0  0  0  0  0  0  0
    0.8390    4.4043   -2.2624 H   0  0  0  0  0  0  0  0  0  0  0  0
    1.0406    4.7695   -0.5320 H   0  0  0  0  0  0  0  0  0  0  0  0
   -0.2547    5.6020   -1.4763 H   0  0  0  0  0  0  0  0  0  0  0  0
    0.5362   -3.4845   -2.9285 C   0  0  0  0  0  0  0  0  0  0  0  0
    1.3021   -2.7061   -3.1124 H   0  0  0  0  0  0  0  0  0  0  0  0
   -0.3302   -3.2814   -3.5885 H   0  0  0  0  0  0  0  0  0  0  0  0
    0.9667   -4.4686   -3.2018 H   0  0  0  0  0  0  0  0  0  0  0  0
    0.1086   -3.4770   -1.4724 C   0  0  0  0  0  0  0  0  0  0  0  0
   -0.6607   -4.2660   -1.2806 H   0  0  0  0  0  0  0  0  0  0  0  0
    0.9753   -3.7074   -0.8057 H   0  0  0  0  0  0  0  0  0  0  0  0
   -1.0765   -2.0908    0.0978 C   0  0  2  0  0  0  0  0  0  0  0  0
   -1.8512   -2.8944    0.1777 H   0  0  0  0  0  0  0  0  0  0  0  0
    1.0165   -1.3942    1.3752 C   0  0  0  0  0  0  0  0  0  0  0  0
   -0.0768   -2.2840    1.2324 C   0  0  0  0  0  0  0  0  0  0  0  0
   -0.2199   -3.3421    2.1433 C   0  0  0  0  0  0  0  0  0  0  0  0
   -1.0739   -4.0294    2.0331 H   0  0  0  0  0  0  0  0  0  0  0  0
    0.7001   -3.5212    3.1890 C   0  0  0  0  0  0  0  0  0  0  0  0
    0.5705   -4.3535    3.8974 H   0  0  0  0  0  0  0  0  0  0  0  0
    1.7781   -2.6358    3.3315 C   0  0  0  0  0  0  0  0  0  0  0  0
    2.5008   -2.7674    4.1509 H   0  0  0  0  0  0  0  0  0  0  0  0
    1.9314   -1.5700    2.4294 C   0  0  0  0  0  0  0  0  0  0  0  0
    2.7648   -0.8613    2.5508 H   0  0  0  0  0  0  0  0  0  0  0  0
    2.2239   -0.5259   -1.1510 C   0  0  0  0  0  0  0  0  0  0  0  0
    3.1061   -1.6166   -1.0308 C   0  0  0  0  0  0  0  0  0  0  0  0
    3.1469   -2.1898   -0.0920 H   0  0  0  0  0  0  0  0  0  0  0  0
    3.9261   -1.9747   -2.1130 C   0  0  0  0  0  0  0  0  0  0  0  0
    4.6112   -2.8311   -2.0191 H   0  0  0  0  0  0  0  0  0  0  0  0
    3.8689   -1.2468   -3.3123 C   0  0  0  0  0  0  0  0  0  0  0  0
    4.5095   -1.5325   -4.1605 H   0  0  0  0  0  0  0  0  0  0  0  0
    2.9896   -0.1567   -3.4306 C   0  0  0  0  0  0  0  0  0  0  0  0
    2.9407    0.4129   -4.3712 H   0  0  0  0  0  0  0  0  0  0  0  0
    2.1653    0.2043   -2.3556 C   0  0  0  0  0  0  0  0  0  0  0  0
    1.4682    1.0536   -2.4332 H   0  0  0  0  0  0  0  0  0  0  0  0
    2.1240    1.2657    1.1125 C   0  0  0  0  0  0  0  0  0  0  0  0
    3.5158    1.3948    0.9447 C   0  0  0  0  0  0  0  0  0  0  0  0
    4.0471    0.7375    0.2398 H   0  0  0  0  0  0  0  0  0  0  0  0
    4.2243    2.3672    1.6694 C   0  0  0  0  0  0  0  0  0  0  0  0
    5.3121    2.4646    1.5320 H   0  0  0  0  0  0  0  0  0  0  0  0
    3.5480    3.2151    2.5597 C   0  0  0  0  0  0  0  0  0  0  0  0
    4.1046    3.9790    3.1238 H   0  0  0  0  0  0  0  0  0  0  0  0
    2.1572    3.0937    2.7232 C   0  0  0  0  0  0  0  0  0  0  0  0
    1.6212    3.7635    3.4128 H   0  0  0  0  0  0  0  0  0  0  0  0
    1.4460    2.1286    1.9986 C   0  0  0  0  0  0  0  0  0  0  0  0
    0.3527    2.0452    2.1018 H   0  0  0  0  0  0  0  0  0  0  0  0
  1 55  1  0  0  0  0
  1 34  1  0  0  0  0
  4 32  1  0  0  0  0
  5  6  1  0  0  0  0
  6  8  2  0  0  0  0
  7  8  1  0  0  0  0
  8  2  1  0  0  0  0
  9 12  1  0  0  0  0
  9  2  1  0  0  0  0
  9 11  1  0  0  0  0
 10  9  1  0  0  0  0
 13 14  1  0  0  0  0
 15 13  1  0  0  0  0
 16 13  1  0  0  0  0
 17 18  1  6  0  0  0
 17 13  1  0  0  0  0
 17  5  1  0  0  0  0
 19 18  1  0  0  0  0
 20 18  2  0  0  0  0
 20  3  1  0  0  0  0
 21 20  1  0  0  0  0
 21 23  1  0  0  0  0
 22 21  1  0  0  0  0
 24 21  1  0  0  0  0
 25 29  1  0  0  0  0
 26 25  1  0  0  0  0
 27 25  1  0  0  0  0
 28 25  1  0  0  0  0
 29 30  1  0  0  0  0
 29  4  1  0  0  0  0
 29 31  1  0  0  0  0
 32  7  1  0  0  0  0
 32 33  1  1  0  0  0
 32 35  1  0  0  0  0
 34 42  1  0  0  0  0
 35 34  2  0  0  0  0
 35 36  1  0  0  0  0
 36 38  2  0  0  0  0
 37 36  1  0  0  0  0
 38 40  1  0  0  0  0
 38 39  1  0  0  0  0
 40 41  1  0  0  0  0
 42 43  1  0  0  0  0
 42 40  2  0  0  0  0
 44 45  1  0  0  0  0
 44  1  1  0  0  0  0
 45 46  1  0  0  0  0
 47 48  1  0  0  0  0
 47 45  2  0  0  0  0
 49 47  1  0  0  0  0
 50 49  1  0  0  0  0
 51 49  2  0  0  0  0
 51 53  1  0  0  0  0
 52 51  1  0  0  0  0
 53 44  2  0  0  0  0
 54 53  1  0  0  0  0
 55 64  1  0  0  0  0
 56 55  2  0  0  0  0
 56 58  1  0  0  0  0
 57 56  1  0  0  0  0
 58 60  2  0  0  0  0
 59 58  1  0  0  0  0
 60 62  1  0  0  0  0
 60 61  1  0  0  0  0
 62 63  1  0  0  0  0
 64 65  1  0  0  0  0
 64 62  2  0  0  0  0
M  CHG  1   3  -1
M  END
