1,2,3
 OpenBabel05122313063D

 34 36  0  0  0  0  0  0  0  0999 V2000
    0.2492    2.1899    0.9836 S   0  0  0  0  0  1  0  0  0  0  0  0
    0.4307   -2.1722    0.9799 S   0  0  0  0  0  1  0  0  0  0  0  0
    2.2524    0.0887    0.2733 P   0  0  0  0  0  0  0  0  0  0  0  0
    1.9668    2.6310    1.0625 C   0  0  0  0  0  0  0  0  0  0  0  0
    2.9774    1.6882    0.7349 C   0  0  0  0  0  0  0  0  0  0  0  0
    4.3348    2.0536    0.7229 C   0  0  0  0  0  0  0  0  0  0  0  0
    5.1036    1.3238    0.4282 H   0  0  0  0  0  0  0  0  0  0  0  0
    4.7094    3.3578    1.0753 C   0  0  0  0  0  0  0  0  0  0  0  0
    5.7708    3.6456    1.0800 H   0  0  0  0  0  0  0  0  0  0  0  0
    3.7146    4.2953    1.4147 C   0  0  0  0  0  0  0  0  0  0  0  0
    4.0038    5.3212    1.6914 H   0  0  0  0  0  0  0  0  0  0  0  0
    2.3589    3.9477    1.3983 C   0  0  0  0  0  0  0  0  0  0  0  0
    1.5865    4.6906    1.6489 H   0  0  0  0  0  0  0  0  0  0  0  0
    2.1747   -2.4325    1.1577 C   0  0  0  0  0  0  0  0  0  0  0  0
    3.1026   -1.3877    0.8939 C   0  0  0  0  0  0  0  0  0  0  0  0
    4.4861   -1.5946    1.0321 C   0  0  0  0  0  0  0  0  0  0  0  0
    5.1919   -0.7784    0.8198 H   0  0  0  0  0  0  0  0  0  0  0  0
    4.9683   -2.8453    1.4438 C   0  0  0  0  0  0  0  0  0  0  0  0
    6.0489   -3.0069    1.5686 H   0  0  0  0  0  0  0  0  0  0  0  0
    4.0571   -3.8907    1.6901 C   0  0  0  0  0  0  0  0  0  0  0  0
    4.4307   -4.8765    2.0082 H   0  0  0  0  0  0  0  0  0  0  0  0
    2.6789   -3.6975    1.5405 C   0  0  0  0  0  0  0  0  0  0  0  0
    1.9730   -4.5193    1.7346 H   0  0  0  0  0  0  0  0  0  0  0  0
    2.3172   -0.0144   -1.5611 C   0  0  0  0  0  0  0  0  0  0  0  0
    1.8179    1.0737   -2.3099 C   0  0  0  0  0  0  0  0  0  0  0  0
    1.4768    1.9834   -1.7907 H   0  0  0  0  0  0  0  0  0  0  0  0
    1.7229    0.9757   -3.7037 C   0  0  0  0  0  0  0  0  0  0  0  0
    1.3322    1.8259   -4.2832 H   0  0  0  0  0  0  0  0  0  0  0  0
    2.1096   -0.2071   -4.3587 C   0  0  0  0  0  0  0  0  0  0  0  0
    2.0261   -0.2834   -5.4535 H   0  0  0  0  0  0  0  0  0  0  0  0
    2.5985   -1.2912   -3.6131 C   0  0  0  0  0  0  0  0  0  0  0  0
    2.9032   -2.2192   -4.1210 H   0  0  0  0  0  0  0  0  0  0  0  0
    2.7008   -1.2009   -2.2155 C   0  0  0  0  0  0  0  0  0  0  0  0
    3.0732   -2.0542   -1.6292 H   0  0  0  0  0  0  0  0  0  0  0  0
  1  4  1  0  0  0  0
  2 14  1  0  0  0  0
  3  5  1  0  0  0  0
  3 15  1  0  0  0  0
  4 12  1  0  0  0  0
  5  4  2  0  0  0  0
  6  5  1  0  0  0  0
  6  8  2  0  0  0  0
  7  6  1  0  0  0  0
  8  9  1  0  0  0  0
  8 10  1  0  0  0  0
 10 11  1  0  0  0  0
 12 10  2  0  0  0  0
 12 13  1  0  0  0  0
 14 22  1  0  0  0  0
 15 16  1  0  0  0  0
 15 14  2  0  0  0  0
 16 18  2  0  0  0  0
 17 16  1  0  0  0  0
 18 19  1  0  0  0  0
 18 20  1  0  0  0  0
 20 21  1  0  0  0  0
 22 20  2  0  0  0  0
 22 23  1  0  0  0  0
 24  3  1  0  0  0  0
 25 26  1  0  0  0  0
 25 24  2  0  0  0  0
 27 25  1  0  0  0  0
 28 27  1  0  0  0  0
 29 27  2  0  0  0  0
 29 31  1  0  0  0  0
 30 29  1  0  0  0  0
 31 33  2  0  0  0  0
 32 31  1  0  0  0  0
 33 34  1  0  0  0  0
 33 24  1  0  0  0  0
M  END
