1,2,3
 OpenBabel05122313063D

 35 35  0  0  0  0  0  0  0  0999 V2000
   -1.5819   -1.2351    1.0143 S   0  0  0  0  0  1  0  0  0  0  0  0
   -1.0246   -0.3397   -1.9781 S   0  0  0  0  0  1  0  0  0  0  0  0
   -2.5513   -0.5611   -0.6522 P   0  0  0  0  0  4  0  0  0  0  0  0
   -5.5201    4.5148    0.4026 O   0  0  0  0  0  0  0  0  0  0  0  0
   -3.7705   -1.5431   -1.1572 O   0  0  0  0  0  0  0  0  0  0  0  0
   -3.4644    0.9713   -0.3771 C   0  0  0  0  0  0  0  0  0  0  0  0
   -2.7310    2.1614   -0.2163 C   0  0  0  0  0  0  0  0  0  0  0  0
   -1.6320    2.1341   -0.3098 H   0  0  0  0  0  0  0  0  0  0  0  0
   -3.3829    3.3710    0.0460 C   0  0  0  0  0  0  0  0  0  0  0  0
   -2.7864    4.2851    0.1631 H   0  0  0  0  0  0  0  0  0  0  0  0
   -4.7917    3.3979    0.1511 C   0  0  0  0  0  0  0  0  0  0  0  0
   -5.5281    2.2030   -0.0150 C   0  0  0  0  0  0  0  0  0  0  0  0
   -6.6236    2.2515    0.0652 H   0  0  0  0  0  0  0  0  0  0  0  0
   -4.8723    0.9995   -0.2746 C   0  0  0  0  0  0  0  0  0  0  0  0
   -5.4476    0.0728   -0.4078 H   0  0  0  0  0  0  0  0  0  0  0  0
   -4.8371    5.7432    0.5810 C   0  0  0  0  0  0  0  0  0  0  0  0
   -4.1395    5.7066    1.4472 H   0  0  0  0  0  0  0  0  0  0  0  0
   -5.6132    6.5060    0.7757 H   0  0  0  0  0  0  0  0  0  0  0  0
   -4.2639    6.0336   -0.3276 H   0  0  0  0  0  0  0  0  0  0  0  0
   -3.4636   -2.9080   -1.5302 C   0  0  0  0  0  0  0  0  0  0  0  0
   -2.4138   -3.1434   -1.2508 H   0  0  0  0  0  0  0  0  0  0  0  0
   -3.5395   -2.9699   -2.6358 H   0  0  0  0  0  0  0  0  0  0  0  0
   -4.4542   -3.8479   -0.8619 C   0  0  0  0  0  0  0  0  0  0  0  0
   -4.3264   -4.8571   -1.3147 H   0  0  0  0  0  0  0  0  0  0  0  0
   -5.4785   -3.5136   -1.1359 H   0  0  0  0  0  0  0  0  0  0  0  0
   -4.3342   -3.9522    0.6698 C   0  0  0  0  0  0  0  0  0  0  0  0
   -4.3113   -2.9128    1.0690 H   0  0  0  0  0  0  0  0  0  0  0  0
   -3.0381   -4.6499    1.1000 C   0  0  0  0  0  0  0  0  0  0  0  0
   -2.9711   -4.7123    2.2051 H   0  0  0  0  0  0  0  0  0  0  0  0
   -2.1381   -4.1024    0.7553 H   0  0  0  0  0  0  0  0  0  0  0  0
   -2.9950   -5.6865    0.7008 H   0  0  0  0  0  0  0  0  0  0  0  0
   -5.5625   -4.6584    1.2553 C   0  0  0  0  0  0  0  0  0  0  0  0
   -5.6423   -5.6990    0.8729 H   0  0  0  0  0  0  0  0  0  0  0  0
   -6.5023   -4.1320    0.9896 H   0  0  0  0  0  0  0  0  0  0  0  0
   -5.5060   -4.7142    2.3613 H   0  0  0  0  0  0  0  0  0  0  0  0
  2  3  1  0  0  0  0
  3  6  1  0  0  0  0
  3  1  1  0  0  0  0
  4 16  1  0  0  0  0
  5  3  1  0  0  0  0
  6 14  2  0  0  0  0
  6  7  1  0  0  0  0
  7  9  2  0  0  0  0
  8  7  1  0  0  0  0
  9 11  1  0  0  0  0
  9 10  1  0  0  0  0
 11  4  1  0  0  0  0
 12 13  1  0  0  0  0
 12 11  2  0  0  0  0
 14 12  1  0  0  0  0
 15 14  1  0  0  0  0
 16 18  1  0  0  0  0
 16 17  1  0  0  0  0
 19 16  1  0  0  0  0
 20 21  1  0  0  0  0
 20  5  1  0  0  0  0
 20 23  1  0  0  0  0
 22 20  1  0  0  0  0
 23 26  1  0  0  0  0
 24 23  1  0  0  0  0
 25 23  1  0  0  0  0
 26 27  1  0  0  0  0
 26 28  1  0  0  0  0
 26 32  1  0  0  0  0
 28 29  1  0  0  0  0
 30 28  1  0  0  0  0
 31 28  1  0  0  0  0
 32 35  1  0  0  0  0
 33 32  1  0  0  0  0
 34 32  1  0  0  0  0
M  END
