1,2,3
 OpenBabel05122313063D

 23 23  0  0  0  0  0  0  0  0999 V2000
    0.9511   -2.5221   -0.8779 S   0  0  0  0  0  1  0  0  0  0  0  0
    2.2439   -1.1449   -1.6003 P   0  0  0  0  0  4  0  0  0  0  0  0
    1.1548    0.2609   -2.5699 S   0  0  0  0  0  1  0  0  0  0  0  0
    3.4378   -1.8097   -2.5655 O   0  0  0  0  0  0  0  0  0  0  0  0
    3.0044   -2.4549   -3.7585 C   0  0  0  0  0  0  0  0  0  0  0  0
    3.9098   -2.8269   -4.2771 H   0  0  0  0  0  0  0  0  0  0  0  0
    2.4575   -1.7486   -4.4211 H   0  0  0  0  0  0  0  0  0  0  0  0
    2.3292   -3.3086   -3.5289 H   0  0  0  0  0  0  0  0  0  0  0  0
    3.3024   -0.4433   -0.3027 C   0  0  0  0  0  0  0  0  0  0  0  0
    2.6735    0.0594    0.8496 C   0  0  0  0  0  0  0  0  0  0  0  0
    1.5786   -0.0108    0.9495 H   0  0  0  0  0  0  0  0  0  0  0  0
    4.8232    0.7546    1.7444 C   0  0  0  0  0  0  0  0  0  0  0  0
    3.4217    0.6571    1.8701 C   0  0  0  0  0  0  0  0  0  0  0  0
    2.8915    1.0459    2.7495 H   0  0  0  0  0  0  0  0  0  0  0  0
    4.7043   -0.3476   -0.4254 C   0  0  0  0  0  0  0  0  0  0  0  0
    5.1961   -0.7431   -1.3252 H   0  0  0  0  0  0  0  0  0  0  0  0
    5.4585    0.2437    0.5921 C   0  0  0  0  0  0  0  0  0  0  0  0
    6.5529    0.3287    0.5189 H   0  0  0  0  0  0  0  0  0  0  0  0
    5.6426    1.3216    2.6801 O   0  0  0  0  0  0  0  0  0  0  0  0
    5.0454    1.8639    3.8397 C   0  0  0  0  0  0  0  0  0  0  0  0
    5.8681    2.2774    4.4538 H   0  0  0  0  0  0  0  0  0  0  0  0
    4.5054    1.0914    4.4334 H   0  0  0  0  0  0  0  0  0  0  0  0
    4.3285    2.6811    3.5980 H   0  0  0  0  0  0  0  0  0  0  0  0
  2  1  1  0  0  0  0
  2  9  1  0  0  0  0
  3  2  1  0  0  0  0
  4  2  1  0  0  0  0
  5  8  1  0  0  0  0
  5  4  1  0  0  0  0
  6  5  1  0  0  0  0
  7  5  1  0  0  0  0
  9 10  1  0  0  0  0
 10 11  1  0  0  0  0
 10 13  2  0  0  0  0
 12 13  1  0  0  0  0
 12 19  1  0  0  0  0
 13 14  1  0  0  0  0
 15  9  2  0  0  0  0
 15 17  1  0  0  0  0
 16 15  1  0  0  0  0
 17 12  2  0  0  0  0
 18 17  1  0  0  0  0
 19 20  1  0  0  0  0
 20 22  1  0  0  0  0
 20 21  1  0  0  0  0
 23 20  1  0  0  0  0
M  END
