1,2,3
 OpenBabel05122313063D

 54 56  0  0  0  0  0  0  0  0999 V2000
    0.8523   -0.2757    0.3466 P   0  0  0  0  0  0  0  0  0  0  0  0
    0.7032   -1.1551   -2.5570 S   0  0  0  0  0  1  0  0  0  0  0  0
   -2.2980   -0.1502    0.8799 S   0  0  0  0  0  0  0  0  0  0  0  0
   -0.3946    2.6590    0.6679 S   0  0  0  0  0  0  0  0  0  0  0  0
    1.9317   -1.6702   -0.0861 C   0  0  0  0  0  0  0  0  0  0  0  0
    1.8731   -1.9424   -1.4852 C   0  0  0  0  0  0  0  0  0  0  0  0
    2.7882   -2.8893   -2.0074 C   0  0  0  0  0  0  0  0  0  0  0  0
    2.7706   -3.1090   -3.0858 H   0  0  0  0  0  0  0  0  0  0  0  0
    3.6735   -3.5662   -1.1612 C   0  0  0  0  0  0  0  0  0  0  0  0
    4.3573   -4.3152   -1.5899 H   0  0  0  0  0  0  0  0  0  0  0  0
    3.6882   -3.3214    0.2262 C   0  0  0  0  0  0  0  0  0  0  0  0
    4.3713   -3.8774    0.8846 H   0  0  0  0  0  0  0  0  0  0  0  0
    2.8202   -2.3579    0.7592 C   0  0  0  0  0  0  0  0  0  0  0  0
    2.8281   -2.1464    1.8392 H   0  0  0  0  0  0  0  0  0  0  0  0
    0.2434   -0.3349    2.0762 C   0  0  0  0  0  0  0  0  0  0  0  0
   -1.1548   -0.3086    2.2736 C   0  0  0  0  0  0  0  0  0  0  0  0
   -1.6803   -0.3118    3.5777 C   0  0  0  0  0  0  0  0  0  0  0  0
   -2.7690   -0.2536    3.7281 H   0  0  0  0  0  0  0  0  0  0  0  0
   -0.8164   -0.3635    4.6812 C   0  0  0  0  0  0  0  0  0  0  0  0
   -1.2347   -0.3718    5.6988 H   0  0  0  0  0  0  0  0  0  0  0  0
    0.5752   -0.3665    4.4908 C   0  0  0  0  0  0  0  0  0  0  0  0
    1.2521   -0.3770    5.3579 H   0  0  0  0  0  0  0  0  0  0  0  0
    1.1028   -0.3341    3.1925 C   0  0  0  0  0  0  0  0  0  0  0  0
    2.1921   -0.2899    3.0412 H   0  0  0  0  0  0  0  0  0  0  0  0
    1.9428    1.2057    0.2920 C   0  0  0  0  0  0  0  0  0  0  0  0
    1.3616    2.4944    0.4107 C   0  0  0  0  0  0  0  0  0  0  0  0
    2.1866    3.6330    0.3315 C   0  0  0  0  0  0  0  0  0  0  0  0
    1.7334    4.6294    0.4429 H   0  0  0  0  0  0  0  0  0  0  0  0
    3.5651    3.4991    0.1130 C   0  0  0  0  0  0  0  0  0  0  0  0
    4.1961    4.3980    0.0430 H   0  0  0  0  0  0  0  0  0  0  0  0
    4.1381    2.2231   -0.0071 C   0  0  0  0  0  0  0  0  0  0  0  0
    5.2193    2.1142   -0.1792 H   0  0  0  0  0  0  0  0  0  0  0  0
    3.3306    1.0802    0.0856 C   0  0  0  0  0  0  0  0  0  0  0  0
    3.7732    0.0791   -0.0246 H   0  0  0  0  0  0  0  0  0  0  0  0
   -3.1463   -1.8293    0.9905 C   0  0  0  0  0  0  0  0  0  0  0  0
   -3.4283   -1.8908    2.0635 H   0  0  0  0  0  0  0  0  0  0  0  0
   -2.1947   -2.9603    0.6261 C   0  0  0  0  0  0  0  0  0  0  0  0
   -1.2823   -2.9563    1.2551 H   0  0  0  0  0  0  0  0  0  0  0  0
   -1.8845   -2.8813   -0.4362 H   0  0  0  0  0  0  0  0  0  0  0  0
   -2.7078   -3.9338    0.7716 H   0  0  0  0  0  0  0  0  0  0  0  0
   -4.3934   -1.7623    0.1150 C   0  0  0  0  0  0  0  0  0  0  0  0
   -5.0871   -0.9673    0.4527 H   0  0  0  0  0  0  0  0  0  0  0  0
   -4.9253   -2.7343    0.1669 H   0  0  0  0  0  0  0  0  0  0  0  0
   -4.1171   -1.5604   -0.9412 H   0  0  0  0  0  0  0  0  0  0  0  0
   -0.9569    3.5561   -0.8788 C   0  0  0  0  0  0  0  0  0  0  0  0
   -0.6752    4.6186   -0.7151 H   0  0  0  0  0  0  0  0  0  0  0  0
   -2.4803    3.4203   -0.8956 C   0  0  0  0  0  0  0  0  0  0  0  0
   -2.9358    3.7188    0.0703 H   0  0  0  0  0  0  0  0  0  0  0  0
   -2.7778    2.3782   -1.1342 H   0  0  0  0  0  0  0  0  0  0  0  0
   -2.8966    4.0783   -1.6855 H   0  0  0  0  0  0  0  0  0  0  0  0
   -0.3084    3.0275   -2.1507 C   0  0  0  0  0  0  0  0  0  0  0  0
    0.7957    3.1026   -2.1250 H   0  0  0  0  0  0  0  0  0  0  0  0
   -0.6708    3.6224   -3.0150 H   0  0  0  0  0  0  0  0  0  0  0  0
   -0.5871    1.9677   -2.3275 H   0  0  0  0  0  0  0  0  0  0  0  0
  1 15  1  0  0  0  0
  2  6  1  0  0  0  0
  3 35  1  0  0  0  0
  3 16  1  0  0  0  0
  5  1  1  0  0  0  0
  5 13  1  0  0  0  0
  6  5  2  0  0  0  0
  7  6  1  0  0  0  0
  7  9  2  0  0  0  0
  8  7  1  0  0  0  0
  9 11  1  0  0  0  0
 10  9  1  0  0  0  0
 11 13  2  0  0  0  0
 11 12  1  0  0  0  0
 13 14  1  0  0  0  0
 15 16  2  0  0  0  0
 15 23  1  0  0  0  0
 16 17  1  0  0  0  0
 17 18  1  0  0  0  0
 17 19  2  0  0  0  0
 19 20  1  0  0  0  0
 21 19  1  0  0  0  0
 21 22  1  0  0  0  0
 23 21  2  0  0  0  0
 24 23  1  0  0  0  0
 25  1  1  0  0  0  0
 25 26  1  0  0  0  0
 26  4  1  0  0  0  0
 27 26  2  0  0  0  0
 27 28  1  0  0  0  0
 29 27  1  0  0  0  0
 30 29  1  0  0  0  0
 31 33  1  0  0  0  0
 31 29  2  0  0  0  0
 32 31  1  0  0  0  0
 33 25  2  0  0  0  0
 34 33  1  0  0  0  0
 35 36  1  0  0  0  0
 37 40  1  0  0  0  0
 37 35  1  0  0  0  0
 37 38  1  0  0  0  0
 39 37  1  0  0  0  0
 41 43  1  0  0  0  0
 41 42  1  0  0  0  0
 41 35  1  0  0  0  0
 44 41  1  0  0  0  0
 45 46  1  0  0  0  0
 45  4  1  0  0  0  0
 47 45  1  0  0  0  0
 47 48  1  0  0  0  0
 49 47  1  0  0  0  0
 50 47  1  0  0  0  0
 51 52  1  0  0  0  0
 51 45  1  0  0  0  0
 53 51  1  0  0  0  0
 54 51  1  0  0  0  0
M  END
