1,2,3
 OpenBabel05122313063D

 20 20  0  0  0  0  0  0  0  0999 V2000
   -1.8790   -1.9106   -0.1433 P   0  0  0  0  0  4  0  0  0  0  0  0
   -0.6830   -1.5659    1.4706 S   0  0  0  0  0  1  0  0  0  0  0  0
   -0.7135   -1.3033   -1.6948 S   0  0  0  0  0  1  0  0  0  0  0  0
   -2.4106   -3.4742   -0.2286 O   0  0  0  0  0  0  0  0  0  0  0  0
   -1.6369   -4.0674   -0.1397 H   0  0  0  0  0  0  0  0  0  0  0  0
   -7.0695    1.0274    0.1762 O   0  0  0  0  0  0  0  0  0  0  0  0
   -3.4599   -1.0424   -0.0910 C   0  0  0  0  0  0  0  0  0  0  0  0
   -3.4691    0.3425   -0.3395 C   0  0  0  0  0  0  0  0  0  0  0  0
   -2.5259    0.8480   -0.6075 H   0  0  0  0  0  0  0  0  0  0  0  0
   -4.6592    1.0734   -0.2596 C   0  0  0  0  0  0  0  0  0  0  0  0
   -4.6387    2.1523   -0.4612 H   0  0  0  0  0  0  0  0  0  0  0  0
   -5.8639    0.4142    0.0733 C   0  0  0  0  0  0  0  0  0  0  0  0
   -5.8546   -0.9776    0.3196 C   0  0  0  0  0  0  0  0  0  0  0  0
   -6.8058   -1.4679    0.5716 H   0  0  0  0  0  0  0  0  0  0  0  0
   -4.6642   -1.7003    0.2422 C   0  0  0  0  0  0  0  0  0  0  0  0
   -4.6616   -2.7825    0.4332 H   0  0  0  0  0  0  0  0  0  0  0  0
   -7.1424    2.4233   -0.0562 C   0  0  0  0  0  0  0  0  0  0  0  0
   -8.2017    2.7074    0.0831 H   0  0  0  0  0  0  0  0  0  0  0  0
   -6.8298    2.6870   -1.0911 H   0  0  0  0  0  0  0  0  0  0  0  0
   -6.5160    2.9955    0.6637 H   0  0  0  0  0  0  0  0  0  0  0  0
  1  7  1  0  0  0  0
  1  2  1  0  0  0  0
  3  1  1  0  0  0  0
  4  1  1  0  0  0  0
  4  5  1  0  0  0  0
  7 15  1  0  0  0  0
  8 10  1  0  0  0  0
  8  7  2  0  0  0  0
  9  8  1  0  0  0  0
 10 12  2  0  0  0  0
 11 10  1  0  0  0  0
 12  6  1  0  0  0  0
 12 13  1  0  0  0  0
 13 14  1  0  0  0  0
 15 13  2  0  0  0  0
 15 16  1  0  0  0  0
 17 18  1  0  0  0  0
 17  6  1  0  0  0  0
 17 20  1  0  0  0  0
 19 17  1  0  0  0  0
M  END
