1,2,3
 OpenBabel05122313063D

 25 24  0  0  0  0  0  0  0  0999 V2000
   -1.2720    2.0121   -0.4448 S   0  0  0  0  0  1  0  0  0  0  0  0
    1.8113    1.1088   -0.7647 S   0  0  0  0  0  1  0  0  0  0  0  0
    0.6177    2.5381    0.0704 P   0  0  0  0  0  4  0  0  0  0  0  0
    0.7075    2.5756    1.6830 O   0  0  0  0  0  0  0  0  0  0  0  0
    1.0576    4.0472   -0.3176 O   0  0  0  0  0  0  0  0  0  0  0  0
    2.0329    2.7025    2.3305 C   0  0  0  0  0  0  0  0  0  0  0  0
    2.7988    2.7567    1.5253 H   0  0  0  0  0  0  0  0  0  0  0  0
    2.2514    1.4410    3.1464 C   0  0  0  0  0  0  0  0  0  0  0  0
    3.2372    1.4761    3.6509 H   0  0  0  0  0  0  0  0  0  0  0  0
    2.2271    0.5460    2.4957 H   0  0  0  0  0  0  0  0  0  0  0  0
    1.4672    1.3387    3.9239 H   0  0  0  0  0  0  0  0  0  0  0  0
    2.0247    3.9969    3.1232 C   0  0  0  0  0  0  0  0  0  0  0  0
    3.0026    4.1448    3.6228 H   0  0  0  0  0  0  0  0  0  0  0  0
    1.2351    3.9734    3.9006 H   0  0  0  0  0  0  0  0  0  0  0  0
    1.8372    4.8582    2.4539 H   0  0  0  0  0  0  0  0  0  0  0  0
    1.1357    4.4359   -1.7419 C   0  0  0  0  0  0  0  0  0  0  0  0
    0.7957    3.5640   -2.3448 H   0  0  0  0  0  0  0  0  0  0  0  0
    2.5908    4.7392   -2.0530 C   0  0  0  0  0  0  0  0  0  0  0  0
    2.6988    5.0455   -3.1122 H   0  0  0  0  0  0  0  0  0  0  0  0
    3.2212    3.8441   -1.8846 H   0  0  0  0  0  0  0  0  0  0  0  0
    2.9632    5.5636   -1.4125 H   0  0  0  0  0  0  0  0  0  0  0  0
    0.1814    5.6005   -1.9386 C   0  0  0  0  0  0  0  0  0  0  0  0
    0.1967    5.9305   -2.9961 H   0  0  0  0  0  0  0  0  0  0  0  0
    0.4744    6.4581   -1.3007 H   0  0  0  0  0  0  0  0  0  0  0  0
   -0.8538    5.3043   -1.6804 H   0  0  0  0  0  0  0  0  0  0  0  0
  1  3  1  0  0  0  0
  2  3  1  0  0  0  0
  3  4  1  0  0  0  0
  4  6  1  0  0  0  0
  5  3  1  0  0  0  0
  6 12  1  0  0  0  0
  6  8  1  0  0  0  0
  7  6  1  0  0  0  0
  8  9  1  0  0  0  0
  8 11  1  0  0  0  0
 10  8  1  0  0  0  0
 12 13  1  0  0  0  0
 12 14  1  0  0  0  0
 15 12  1  0  0  0  0
 16  5  1  0  0  0  0
 17 16  1  0  0  0  0
 18 20  1  0  0  0  0
 18 16  1  0  0  0  0
 18 21  1  0  0  0  0
 19 18  1  0  0  0  0
 22 16  1  0  0  0  0
 22 25  1  0  0  0  0
 22 24  1  0  0  0  0
 23 22  1  0  0  0  0
M  END
