1,2,5
 OpenBabel05122313063D

 71 73  0  0  0  0  0  0  0  0999 V2000
   -2.5888   -0.8537   -0.9654 S   0  0  0  0  0  1  0  0  0  0  0  0
    1.5050   -1.5435    0.3987 S   0  0  0  0  0  1  0  0  0  0  0  0
    1.6175    1.9523   -0.5790 S   0  0  0  0  0  0  0  0  0  0  0  0
    1.0495    0.6564   -0.6084 H   0  0  0  0  0  0  0  0  0  0  0  0
   -0.7738    0.3667    1.0259 P   0  0  0  0  0  0  0  0  0  0  0  0
   -5.8467   -1.4674   -0.3727 Si  0  0  0  0  0  0  0  0  0  0  0  0
    4.1885   -1.9035    2.3436 Si  0  0  0  0  0  0  0  0  0  0  0  0
    1.3733    5.1483   -1.3968 Si  0  0  0  0  0  0  0  0  0  0  0  0
   -2.4206   -0.0566    1.6780 C   0  0  0  0  0  0  0  0  0  0  0  0
   -2.8841    0.1260    2.9876 C   0  0  0  0  0  0  0  0  0  0  0  0
   -2.1960    0.4937    3.7648 H   0  0  0  0  0  0  0  0  0  0  0  0
   -4.2220   -0.1688    3.2963 C   0  0  0  0  0  0  0  0  0  0  0  0
   -4.5957   -0.0500    4.3248 H   0  0  0  0  0  0  0  0  0  0  0  0
   -5.0784   -0.6158    2.2740 C   0  0  0  0  0  0  0  0  0  0  0  0
   -6.1293   -0.8302    2.5276 H   0  0  0  0  0  0  0  0  0  0  0  0
   -4.6424   -0.8179    0.9460 C   0  0  0  0  0  0  0  0  0  0  0  0
   -3.2687   -0.5612    0.6472 C   0  0  0  0  0  0  0  0  0  0  0  0
   -5.3095   -3.1764   -0.9857 C   0  0  0  0  0  0  0  0  0  0  0  0
   -5.3391   -3.9138   -0.1573 H   0  0  0  0  0  0  0  0  0  0  0  0
   -4.2703   -3.1270   -1.3675 H   0  0  0  0  0  0  0  0  0  0  0  0
   -5.9751   -3.5362   -1.7980 H   0  0  0  0  0  0  0  0  0  0  0  0
   -7.5713   -1.6368    0.4174 C   0  0  0  0  0  0  0  0  0  0  0  0
   -7.5734   -2.3642    1.2555 H   0  0  0  0  0  0  0  0  0  0  0  0
   -8.2952   -1.9993   -0.3422 H   0  0  0  0  0  0  0  0  0  0  0  0
   -7.9465   -0.6661    0.8028 H   0  0  0  0  0  0  0  0  0  0  0  0
   -5.9866   -0.2408   -1.8101 C   0  0  0  0  0  0  0  0  0  0  0  0
   -6.6477   -0.6379   -2.6087 H   0  0  0  0  0  0  0  0  0  0  0  0
   -4.9833   -0.0483   -2.2397 H   0  0  0  0  0  0  0  0  0  0  0  0
   -6.4044    0.7256   -1.4597 H   0  0  0  0  0  0  0  0  0  0  0  0
    0.5499    0.2686    2.2685 C   0  0  0  0  0  0  0  0  0  0  0  0
    0.6248    1.0483    3.4346 C   0  0  0  0  0  0  0  0  0  0  0  0
   -0.1600    1.7925    3.6455 H   0  0  0  0  0  0  0  0  0  0  0  0
    1.7097    0.8894    4.3063 C   0  0  0  0  0  0  0  0  0  0  0  0
    1.7755    1.4852    5.2295 H   0  0  0  0  0  0  0  0  0  0  0  0
    2.7285   -0.0262    3.9754 C   0  0  0  0  0  0  0  0  0  0  0  0
    3.5843   -0.1265    4.6626 H   0  0  0  0  0  0  0  0  0  0  0  0
    2.7098   -0.7926    2.7932 C   0  0  0  0  0  0  0  0  0  0  0  0
    1.5843   -0.6473    1.9210 C   0  0  0  0  0  0  0  0  0  0  0  0
    3.6679   -3.7131    2.1364 C   0  0  0  0  0  0  0  0  0  0  0  0
    4.5427   -4.3409    1.8659 H   0  0  0  0  0  0  0  0  0  0  0  0
    2.9074   -3.7994    1.3354 H   0  0  0  0  0  0  0  0  0  0  0  0
    3.2305   -4.1089    3.0761 H   0  0  0  0  0  0  0  0  0  0  0  0
    5.0346   -1.2636    0.7763 C   0  0  0  0  0  0  0  0  0  0  0  0
    5.9175   -1.8865    0.5213 H   0  0  0  0  0  0  0  0  0  0  0  0
    5.3729   -0.2162    0.9169 H   0  0  0  0  0  0  0  0  0  0  0  0
    4.3327   -1.2881   -0.0806 H   0  0  0  0  0  0  0  0  0  0  0  0
    5.4460   -1.8219    3.7723 C   0  0  0  0  0  0  0  0  0  0  0  0
    6.3161   -2.4705    3.5382 H   0  0  0  0  0  0  0  0  0  0  0  0
    5.0100   -2.1770    4.7291 H   0  0  0  0  0  0  0  0  0  0  0  0
    5.8286   -0.7921    3.9290 H   0  0  0  0  0  0  0  0  0  0  0  0
   -0.9094    2.1593    0.6003 C   0  0  0  0  0  0  0  0  0  0  0  0
   -2.0676    2.8818    0.9452 C   0  0  0  0  0  0  0  0  0  0  0  0
   -2.8892    2.3598    1.4581 H   0  0  0  0  0  0  0  0  0  0  0  0
   -2.1754    4.2466    0.6528 C   0  0  0  0  0  0  0  0  0  0  0  0
   -3.0817    4.8020    0.9394 H   0  0  0  0  0  0  0  0  0  0  0  0
   -1.1239    4.8946   -0.0111 C   0  0  0  0  0  0  0  0  0  0  0  0
   -1.2203    5.9680   -0.2373 H   0  0  0  0  0  0  0  0  0  0  0  0
    0.0391    4.2055   -0.4168 C   0  0  0  0  0  0  0  0  0  0  0  0
    0.1419    2.8177   -0.1042 C   0  0  0  0  0  0  0  0  0  0  0  0
    1.5393    4.4516   -3.1495 C   0  0  0  0  0  0  0  0  0  0  0  0
    2.3201    4.9994   -3.7176 H   0  0  0  0  0  0  0  0  0  0  0  0
    0.5787    4.5489   -3.6956 H   0  0  0  0  0  0  0  0  0  0  0  0
    1.8080    3.3778   -3.1176 H   0  0  0  0  0  0  0  0  0  0  0  0
    3.0418    5.1318   -0.4949 C   0  0  0  0  0  0  0  0  0  0  0  0
    3.7985    5.7018   -1.0740 H   0  0  0  0  0  0  0  0  0  0  0  0
    3.4173    4.1000   -0.3493 H   0  0  0  0  0  0  0  0  0  0  0  0
    2.9450    5.6025    0.5052 H   0  0  0  0  0  0  0  0  0  0  0  0
    0.8362    6.9675   -1.5433 C   0  0  0  0  0  0  0  0  0  0  0  0
    1.6079    7.5348   -2.1046 H   0  0  0  0  0  0  0  0  0  0  0  0
    0.7219    7.4483   -0.5499 H   0  0  0  0  0  0  0  0  0  0  0  0
   -0.1225    7.0743   -2.0913 H   0  0  0  0  0  0  0  0  0  0  0  0
  1 17  1  0  0  0  0
  2 38  1  0  0  0  0
  3 59  1  0  0  0  0
  4  3  1  0  0  0  0
  5  9  1  0  0  0  0
  5 30  1  0  0  0  0
  6 22  1  0  0  0  0
  6 16  1  0  0  0  0
  7 37  1  0  0  0  0
  7 47  1  0  0  0  0
  8 64  1  0  0  0  0
  8 58  1  0  0  0  0
  9 10  1  0  0  0  0
 10 12  2  0  0  0  0
 10 11  1  0  0  0  0
 12 13  1  0  0  0  0
 14 15  1  0  0  0  0
 14 12  1  0  0  0  0
 16 14  2  0  0  0  0
 17 16  1  0  0  0  0
 17  9  2  0  0  0  0
 18  6  1  0  0  0  0
 18 19  1  0  0  0  0
 20 18  1  0  0  0  0
 21 18  1  0  0  0  0
 22 25  1  0  0  0  0
 22 23  1  0  0  0  0
 24 22  1  0  0  0  0
 26 29  1  0  0  0  0
 26  6  1  0  0  0  0
 27 26  1  0  0  0  0
 28 26  1  0  0  0  0
 30 31  1  0  0  0  0
 31 32  1  0  0  0  0
 31 33  2  0  0  0  0
 33 34  1  0  0  0  0
 35 33  1  0  0  0  0
 35 36  1  0  0  0  0
 37 35  2  0  0  0  0
 38 30  2  0  0  0  0
 38 37  1  0  0  0  0
 39  7  1  0  0  0  0
 39 42  1  0  0  0  0
 40 39  1  0  0  0  0
 41 39  1  0  0  0  0
 43 45  1  0  0  0  0
 43  7  1  0  0  0  0
 44 43  1  0  0  0  0
 46 43  1  0  0  0  0
 47 50  1  0  0  0  0
 47 49  1  0  0  0  0
 48 47  1  0  0  0  0
 51 52  1  0  0  0  0
 51  5  1  0  0  0  0
 52 53  1  0  0  0  0
 54 55  1  0  0  0  0
 54 52  2  0  0  0  0
 56 54  1  0  0  0  0
 57 56  1  0  0  0  0
 58 59  1  0  0  0  0
 58 56  2  0  0  0  0
 59 51  2  0  0  0  0
 60 63  1  0  0  0  0
 60  8  1  0  0  0  0
 61 60  1  0  0  0  0
 62 60  1  0  0  0  0
 64 66  1  0  0  0  0
 64 67  1  0  0  0  0
 65 64  1  0  0  0  0
 68  8  1  0  0  0  0
 68 70  1  0  0  0  0
 69 68  1  0  0  0  0
 71 68  1  0  0  0  0
M  END
