1,2
 OpenBabel05122313063D

 40 42  0  0  1  0  0  0  0  0999 V2000
   -2.0295    1.5249    0.1543 O   0  0  0  0  0  1  0  0  0  0  0  0
   -0.2546   -0.4325   -0.0331 N   0  0  0  0  0  2  0  0  0  0  0  0
    0.6683    0.4100    0.2218 C   0  0  0  0  0  0  0  0  0  0  0  0
    0.3281    1.8209    0.6984 C   0  0  0  0  0  0  0  0  0  0  0  0
   -0.9578    2.4422    0.0894 C   0  0  0  0  0  0  0  0  0  0  0  0
    2.1513    0.0261    0.1111 C   0  0  1  0  0  0  0  0  0  0  0  0
    2.8073    0.8108   -1.0588 C   0  0  0  0  0  0  0  0  0  0  0  0
    2.9169    0.3595    1.4191 C   0  0  0  0  0  0  0  0  0  0  0  0
    2.3009   -1.4832   -0.1750 C   0  0  0  0  0  0  0  0  0  0  0  0
    3.7847   -1.8684   -0.3100 C   0  0  1  0  0  0  0  0  0  0  0  0
    4.4160   -1.0789   -1.4727 C   0  0  0  0  0  0  0  0  0  0  0  0
    4.2948    0.4309   -1.1919 C   0  0  2  0  0  0  0  0  0  0  0  0
    5.0291    0.7704    0.1199 C   0  0  0  0  0  0  0  0  0  0  0  0
    4.4032   -0.0237    1.2832 C   0  0  2  0  0  0  0  0  0  0  0  0
    4.5239   -1.5328    0.9996 C   0  0  0  0  0  0  0  0  0  0  0  0
   -1.3683    3.6740    0.9139 C   0  0  0  0  0  0  0  0  0  0  0  0
   -0.6853    2.8542   -1.3705 C   0  0  0  0  0  0  0  0  0  0  0  0
    1.1766    2.5131    0.5255 H   0  0  0  0  0  0  0  0  0  0  0  0
    0.1989    1.7619    1.8025 H   0  0  0  0  0  0  0  0  0  0  0  0
    2.7108    1.9049   -0.8903 H   0  0  0  0  0  0  0  0  0  0  0  0
    2.2648    0.5809   -2.0013 H   0  0  0  0  0  0  0  0  0  0  0  0
    2.4531   -0.1905    2.2669 H   0  0  0  0  0  0  0  0  0  0  0  0
    2.8325    1.4420    1.6512 H   0  0  0  0  0  0  0  0  0  0  0  0
    1.7386   -1.7347   -1.0978 H   0  0  0  0  0  0  0  0  0  0  0  0
    1.8177   -2.0593    0.6422 H   0  0  0  0  0  0  0  0  0  0  0  0
    3.8634   -2.9577   -0.5137 H   0  0  0  0  0  0  0  0  0  0  0  0
    3.9048   -1.3312   -2.4267 H   0  0  0  0  0  0  0  0  0  0  0  0
    5.4845   -1.3600   -1.5935 H   0  0  0  0  0  0  0  0  0  0  0  0
    4.7433    1.0056   -2.0306 H   0  0  0  0  0  0  0  0  0  0  0  0
    4.9636    1.8614    0.3231 H   0  0  0  0  0  0  0  0  0  0  0  0
    6.1087    0.5241    0.0271 H   0  0  0  0  0  0  0  0  0  0  0  0
    4.9308    0.2232    2.2295 H   0  0  0  0  0  0  0  0  0  0  0  0
    5.5942   -1.8226    0.9231 H   0  0  0  0  0  0  0  0  0  0  0  0
    4.0906   -2.1144    1.8417 H   0  0  0  0  0  0  0  0  0  0  0  0
   -2.2840    4.1250    0.4825 H   0  0  0  0  0  0  0  0  0  0  0  0
   -1.5919    3.3745    1.9572 H   0  0  0  0  0  0  0  0  0  0  0  0
   -0.5688    4.4424    0.9297 H   0  0  0  0  0  0  0  0  0  0  0  0
   -1.6056    3.2654   -1.8305 H   0  0  0  0  0  0  0  0  0  0  0  0
    0.1033    3.6318   -1.4233 H   0  0  0  0  0  0  0  0  0  0  0  0
   -0.3512    1.9851   -1.9686 H   0  0  0  0  0  0  0  0  0  0  0  0
  2  3  2  0  0  0  0
  3  4  1  0  0  0  0
  4 19  1  0  0  0  0
  5  1  1  0  0  0  0
  5  4  1  0  0  0  0
  5 16  1  0  0  0  0
  6  3  1  1  0  0  0
  6  8  1  0  0  0  0
  7 20  1  0  0  0  0
  7  6  1  0  0  0  0
  8 23  1  0  0  0  0
  8 22  1  0  0  0  0
  9  6  1  0  0  0  0
  9 25  1  0  0  0  0
 10 26  1  6  0  0  0
 10  9  1  0  0  0  0
 10 15  1  0  0  0  0
 11 12  1  0  0  0  0
 11 10  1  0  0  0  0
 12 29  1  6  0  0  0
 12  7  1  0  0  0  0
 12 13  1  0  0  0  0
 13 30  1  0  0  0  0
 13 14  1  0  0  0  0
 14  8  1  0  0  0  0
 14 32  1  1  0  0  0
 15 14  1  0  0  0  0
 15 34  1  0  0  0  0
 16 37  1  0  0  0  0
 16 36  1  0  0  0  0
 17  5  1  0  0  0  0
 18  4  1  0  0  0  0
 21  7  1  0  0  0  0
 24  9  1  0  0  0  0
 27 11  1  0  0  0  0
 28 11  1  0  0  0  0
 31 13  1  0  0  0  0
 33 15  1  0  0  0  0
 35 16  1  0  0  0  0
 38 17  1  0  0  0  0
 39 17  1  0  0  0  0
 40 17  1  0  0  0  0
M  END
