2,37,38
 OpenBabel05122313063D

 38 39  0  0  1  0  0  0  0  0999 V2000
    1.6094   -1.4357    0.3474 Se  0  0  0  0  0  0  0  0  0  0  0  0
   -1.6477   -1.4769   -0.3120 Se  0  0  0  0  0  1  0  0  0  0  0  0
    1.9224   -1.3360    2.2922 C   0  0  0  0  0  0  0  0  0  0  0  0
    2.8019   -1.9636    2.5258 H   0  0  0  0  0  0  0  0  0  0  0  0
    1.0104   -1.7413    2.7684 H   0  0  0  0  0  0  0  0  0  0  0  0
    2.0821   -0.2848    2.5889 H   0  0  0  0  0  0  0  0  0  0  0  0
    3.2556   -0.5847   -0.2240 C   0  0  0  0  0  0  0  0  0  0  0  0
    4.2429   -1.4747   -0.6714 C   0  0  0  0  0  0  0  0  0  0  0  0
    4.0224   -2.5520   -0.7229 H   0  0  0  0  0  0  0  0  0  0  0  0
    5.5128   -1.0042   -1.0458 C   0  0  0  0  0  0  0  0  0  0  0  0
    6.2762   -1.7145   -1.3958 H   0  0  0  0  0  0  0  0  0  0  0  0
    5.7991    0.3658   -0.9601 C   0  0  0  0  0  0  0  0  0  0  0  0
    6.7923    0.7450   -1.2407 H   0  0  0  0  0  0  0  0  0  0  0  0
    4.8140    1.2539   -0.5187 C   0  0  0  0  0  0  0  0  0  0  0  0
    5.0396    2.3301   -0.4609 H   0  0  0  0  0  0  0  0  0  0  0  0
    3.5126    0.8136   -0.1585 C   0  0  0  0  0  0  0  0  0  0  0  0
    2.5818    1.8710    0.2149 C   0  0  0  0  0  3  0  0  0  0  0  0
    3.0525    2.8634    0.3600 H   0  0  0  0  0  0  0  0  0  0  0  0
    0.5504    3.0400    0.6827 C   0  0  0  0  0  0  0  0  0  0  0  0
    1.1818    3.9405    0.5355 H   0  0  0  0  0  0  0  0  0  0  0  0
    0.2578    2.9854    1.7529 H   0  0  0  0  0  0  0  0  0  0  0  0
   -0.6983    3.1010   -0.1907 C   0  0  0  0  0  0  0  0  0  0  0  0
   -1.3616    3.9281    0.1350 H   0  0  0  0  0  0  0  0  0  0  0  0
   -0.4046    3.2874   -1.2462 H   0  0  0  0  0  0  0  0  0  0  0  0
   -2.7113    1.8107   -0.1560 C   0  0  0  0  0  0  0  0  0  0  0  0
   -3.1791    2.8141   -0.1878 H   0  0  0  0  0  0  0  0  0  0  0  0
   -3.6543    0.7261   -0.1658 C   0  0  0  0  0  0  0  0  0  0  0  0
   -5.0262    1.1295   -0.1368 C   0  0  0  0  0  0  0  0  0  0  0  0
   -5.2520    2.2067   -0.0995 H   0  0  0  0  0  0  0  0  0  0  0  0
   -6.0644    0.2088   -0.1556 C   0  0  0  0  0  0  0  0  0  0  0  0
   -7.1093    0.5487   -0.1295 H   0  0  0  0  0  0  0  0  0  0  0  0
   -5.7597   -1.1680   -0.2132 C   0  0  0  0  0  0  0  0  0  0  0  0
   -6.5692   -1.9130   -0.2311 H   0  0  0  0  0  0  0  0  0  0  0  0
   -4.4328   -1.5967   -0.2473 C   0  0  0  0  0  0  0  0  0  0  0  0
   -4.2109   -2.6739   -0.2922 H   0  0  0  0  0  0  0  0  0  0  0  0
   -3.3586   -0.6745   -0.2205 C   0  0  1  0  0  3  0  0  0  0  0  0
    1.2857    1.8126    0.3446 N   0  0  0  0  0  2  0  0  0  0  0  0
   -1.4005    1.8083   -0.1174 N   0  0  0  0  0  2  0  0  0  0  0  0
  1  3  1  0  0  0  0
  3  4  1  0  0  0  0
  3  6  1  0  0  0  0
  3  5  1  0  0  0  0
  7 16  1  0  0  0  0
  7  1  1  0  0  0  0
  8  7  2  0  0  0  0
  9  8  1  0  0  0  0
 10 12  2  0  0  0  0
 10  8  1  0  0  0  0
 11 10  1  0  0  0  0
 12 14  1  0  0  0  0
 13 12  1  0  0  0  0
 14 15  1  0  0  0  0
 14 16  2  0  0  0  0
 16 17  1  0  0  0  0
 17 37  1  0  0  0  0
 17 18  1  0  0  0  0
 19 21  1  0  0  0  0
 20 19  1  0  0  0  0
 22 38  1  0  0  0  0
 22 23  1  0  0  0  0
 22 19  1  0  0  0  0
 24 22  1  0  0  0  0
 25 38  1  0  0  0  0
 26 25  1  0  0  0  0
 27 25  2  0  0  0  0
 27 28  1  0  0  0  0
 28 29  1  0  0  0  0
 30 28  2  0  0  0  0
 30 31  1  0  0  0  0
 32 30  1  0  0  0  0
 33 32  1  0  0  0  0
 34 36  1  0  0  0  0
 34 32  2  0  0  0  0
 35 34  1  0  0  0  0
 36  2  1  6  0  0  0
 36 27  1  0  0  0  0
 37 19  1  0  0  0  0
M  END
