5,7,9
 OpenBabel05122313063D

 38 38  0  0  1  0  0  0  0  0999 V2000
    1.2776    0.0148    1.8982 O   0  0  0  0  0  0  0  0  0  0  0  0
   -0.5430    3.3369   -0.4772 O   0  0  0  0  0  0  0  0  0  0  0  0
    2.8065   -0.4651    0.2663 N   0  0  0  0  0  0  0  0  0  0  0  0
    0.4181   -0.2816   -0.3263 C   0  0  2  0  0  3  0  0  0  0  0  0
   -0.1336    0.9512   -0.8108 C   0  0  2  0  0  3  0  0  0  0  0  0
   -1.1959    0.9249   -1.7642 C   0  0  0  0  0  3  0  0  0  0  0  0
   -1.7491   -0.3151   -2.1678 C   0  0  0  0  0  3  0  0  0  0  0  0
   -1.2312   -1.5427   -1.6657 C   0  0  0  0  0  3  0  0  0  0  0  0
   -0.1661   -1.5385   -0.7160 C   0  0  1  0  0  3  0  0  0  0  0  0
    1.5239   -0.2354    0.7161 C   0  0  0  0  0  0  0  0  0  0  0  0
    3.1761   -0.6591   -1.1341 C   0  0  0  0  0  0  0  0  0  0  0  0
    3.8497   -2.0006   -1.4310 C   0  0  0  0  0  0  0  0  0  0  0  0
    3.8861   -0.3083    1.2461 C   0  0  0  0  0  0  0  0  0  0  0  0
    4.3691    1.1382    1.3642 C   0  0  0  0  0  0  0  0  0  0  0  0
    0.4266    2.3101   -0.3697 C   0  0  1  0  0  0  0  0  0  0  0  0
    1.6121    2.7154   -1.2459 C   0  0  0  0  0  0  0  0  0  0  0  0
    0.3472   -2.8403   -0.1577 C   0  0  0  0  0  0  0  0  0  0  0  0
   -1.6221    1.8829   -2.0894 H   0  0  0  0  0  0  0  0  0  0  0  0
   -2.6144   -0.3302   -2.8460 H   0  0  0  0  0  0  0  0  0  0  0  0
   -1.7009   -2.4949   -1.9471 H   0  0  0  0  0  0  0  0  0  0  0  0
    2.2588   -0.5512   -1.7442 H   0  0  0  0  0  0  0  0  0  0  0  0
    3.8527    0.1694   -1.4462 H   0  0  0  0  0  0  0  0  0  0  0  0
    4.8129   -2.1122   -0.8944 H   0  0  0  0  0  0  0  0  0  0  0  0
    4.0655   -2.0828   -2.5148 H   0  0  0  0  0  0  0  0  0  0  0  0
    3.2017   -2.8506   -1.1419 H   0  0  0  0  0  0  0  0  0  0  0  0
    4.7172   -0.9825    0.9571 H   0  0  0  0  0  0  0  0  0  0  0  0
    3.4922   -0.6523    2.2217 H   0  0  0  0  0  0  0  0  0  0  0  0
    3.5431    1.7909    1.7088 H   0  0  0  0  0  0  0  0  0  0  0  0
    5.1938    1.2134    2.1009 H   0  0  0  0  0  0  0  0  0  0  0  0
    4.7460    1.5294    0.3969 H   0  0  0  0  0  0  0  0  0  0  0  0
    0.7705    2.2002    0.6834 H   0  0  0  0  0  0  0  0  0  0  0  0
    1.9822    3.7069   -0.9216 H   0  0  0  0  0  0  0  0  0  0  0  0
    2.4391    1.9861   -1.1679 H   0  0  0  0  0  0  0  0  0  0  0  0
    1.2995    2.7896   -2.3067 H   0  0  0  0  0  0  0  0  0  0  0  0
   -1.1540    3.2393    0.2793 H   0  0  0  0  0  0  0  0  0  0  0  0
    0.7397   -2.7174    0.8688 H   0  0  0  0  0  0  0  0  0  0  0  0
    1.1616   -3.2430   -0.7944 H   0  0  0  0  0  0  0  0  0  0  0  0
   -0.4602   -3.5959   -0.1267 H   0  0  0  0  0  0  0  0  0  0  0  0
  2 15  1  0  0  0  0
  2 35  1  0  0  0  0
  3 10  1  0  0  0  0
  3 13  1  0  0  0  0
  4 10  1  1  0  0  0
  5 15  1  6  0  0  0
  5  4  1  0  0  0  0
  6  5  1  0  0  0  0
  7  6  1  0  0  0  0
  7  8  1  0  0  0  0
  8  9  1  0  0  0  0
  9  4  1  0  0  0  0
  9 17  1  6  0  0  0
 10  1  2  0  0  0  0
 11  3  1  0  0  0  0
 12 25  1  0  0  0  0
 12 11  1  0  0  0  0
 12 23  1  0  0  0  0
 13 14  1  0  0  0  0
 13 27  1  0  0  0  0
 14 28  1  0  0  0  0
 14 29  1  0  0  0  0
 15 31  1  1  0  0  0
 16 33  1  0  0  0  0
 16 32  1  0  0  0  0
 16 15  1  0  0  0  0
 17 38  1  0  0  0  0
 17 36  1  0  0  0  0
 18  6  1  0  0  0  0
 19  7  1  0  0  0  0
 20  8  1  0  0  0  0
 21 11  1  0  0  0  0
 22 11  1  0  0  0  0
 24 12  1  0  0  0  0
 26 13  1  0  0  0  0
 30 14  1  0  0  0  0
 34 16  1  0  0  0  0
 37 17  1  0  0  0  0
M  END
