2,4,6
 OpenBabel05122313063D

 32 33  0  0  1  0  0  0  0  0999 V2000
   -0.8372   -1.7164    0.1598 C   0  0  0  0  0  0  0  0  0  0  0  0
   -1.8740   -1.3172    1.0766 C   0  0  0  0  0  3  0  0  0  0  0  0
   -3.1416   -0.8360    0.6448 C   0  0  2  0  0  3  0  0  0  0  0  0
   -3.3453   -0.6838   -0.7608 C   0  0  0  0  0  3  0  0  0  0  0  0
   -2.3508   -1.0740   -1.6972 C   0  0  0  0  0  3  0  0  0  0  0  0
   -1.0970   -1.5600   -1.2443 C   0  0  0  0  0  3  0  0  0  0  0  0
    0.4647   -2.0227    0.7083 C   0  0  0  0  0  0  0  0  0  0  0  0
    2.8930   -2.0327    0.7098 C   0  0  0  0  0  0  0  0  0  0  0  0
    3.3235   -0.5983    0.5262 C   0  0  0  0  0  0  0  0  0  0  0  0
    4.0210   -0.2140   -0.6347 C   0  0  0  0  0  0  0  0  0  0  0  0
    4.2868    1.1401   -0.8818 C   0  0  0  0  0  0  0  0  0  0  0  0
    3.8494    2.1213    0.0217 C   0  0  0  0  0  0  0  0  0  0  0  0
    3.1497    1.7459    1.1792 C   0  0  0  0  0  0  0  0  0  0  0  0
    2.8888    0.3917    1.4290 C   0  0  0  0  0  0  0  0  0  0  0  0
   -4.2075   -0.4509    1.6338 C   0  0  0  0  0  0  0  0  0  0  0  0
    1.6541   -2.3051   -1.2619 O   0  0  0  0  0  1  0  0  0  0  0  0
    1.5773   -2.1979   -0.0049 N   0  0  0  0  0  0  0  0  0  0  0  0
   -1.6699   -1.3667    2.1571 H   0  0  0  0  0  0  0  0  0  0  0  0
   -4.2866   -0.2426   -1.1199 H   0  0  0  0  0  0  0  0  0  0  0  0
   -2.5193   -0.9246   -2.7719 H   0  0  0  0  0  0  0  0  0  0  0  0
   -0.2836   -1.8004   -1.9400 H   0  0  0  0  0  0  0  0  0  0  0  0
    0.6046   -1.9611    1.7945 H   0  0  0  0  0  0  0  0  0  0  0  0
    2.7577   -2.2946    1.7760 H   0  0  0  0  0  0  0  0  0  0  0  0
    3.5832   -2.7498    0.2290 H   0  0  0  0  0  0  0  0  0  0  0  0
    4.3314   -0.9829   -1.3576 H   0  0  0  0  0  0  0  0  0  0  0  0
    4.8262    1.4334   -1.7950 H   0  0  0  0  0  0  0  0  0  0  0  0
    4.0462    3.1847   -0.1821 H   0  0  0  0  0  0  0  0  0  0  0  0
    2.7865    2.5088    1.8836 H   0  0  0  0  0  0  0  0  0  0  0  0
    2.3172    0.1063    2.3263 H   0  0  0  0  0  0  0  0  0  0  0  0
   -3.7661   -0.1318    2.5974 H   0  0  0  0  0  0  0  0  0  0  0  0
   -4.8290    0.3803    1.2488 H   0  0  0  0  0  0  0  0  0  0  0  0
   -4.8813   -1.3105    1.8377 H   0  0  0  0  0  0  0  0  0  0  0  0
  1  7  2  0  0  0  0
  1  2  1  0  0  0  0
  2 18  1  0  0  0  0
  3  2  1  0  0  0  0
  3 15  1  1  0  0  0
  4  3  1  0  0  0  0
  5  6  1  0  0  0  0
  5  4  1  0  0  0  0
  6  1  1  0  0  0  0
  7 22  1  0  0  0  0
  8 23  1  0  0  0  0
  9  8  1  0  0  0  0
  9 14  1  0  0  0  0
 10  9  2  0  0  0  0
 11 10  1  0  0  0  0
 11 12  2  0  0  0  0
 12 13  1  0  0  0  0
 13 14  2  0  0  0  0
 13 28  1  0  0  0  0
 14 29  1  0  0  0  0
 15 32  1  0  0  0  0
 15 30  1  0  0  0  0
 16 17  1  0  0  0  0
 17  7  1  0  0  0  0
 17  8  1  0  0  0  0
 19  4  1  0  0  0  0
 20  5  1  0  0  0  0
 21  6  1  0  0  0  0
 24  8  1  0  0  0  0
 25 10  1  0  0  0  0
 26 11  1  0  0  0  0
 27 12  1  0  0  0  0
 31 15  1  0  0  0  0
M  END
