1,5,8
 OpenBabel05122313063D

 18 17  0  0  1  0  0  0  0  0999 V2000
    0.4287    1.4445   -1.8734 C   0  0  0  0  0  3  0  0  0  0  0  0
    0.8543    2.4564   -1.7782 H   0  0  0  0  0  0  0  0  0  0  0  0
    0.9986    0.7945   -2.5547 H   0  0  0  0  0  0  0  0  0  0  0  0
   -1.0059    1.3623   -1.8297 C   0  0  1  0  0  3  0  0  0  0  0  0
   -1.7541    0.1387   -1.8154 C   0  0  0  0  0  3  0  0  0  0  0  0
   -2.8442    0.2657   -1.7186 H   0  0  0  0  0  0  0  0  0  0  0  0
   -1.3045   -1.2278   -1.7870 C   0  0  1  0  0  3  0  0  0  0  0  0
    0.0657   -1.6401   -1.8004 C   0  0  0  0  0  3  0  0  0  0  0  0
    0.2604   -2.7165   -1.6735 H   0  0  0  0  0  0  0  0  0  0  0  0
    0.7949   -1.1303   -2.4432 H   0  0  0  0  0  0  0  0  0  0  0  0
   -1.7941    2.6502   -1.7176 C   0  0  0  0  0  0  0  0  0  0  0  0
   -2.7933    2.5047   -1.2621 H   0  0  0  0  0  0  0  0  0  0  0  0
   -1.2488    3.4097   -1.1221 H   0  0  0  0  0  0  0  0  0  0  0  0
   -1.9395    3.0859   -2.7301 H   0  0  0  0  0  0  0  0  0  0  0  0
   -2.3756   -2.2915   -1.6768 C   0  0  0  0  0  0  0  0  0  0  0  0
   -2.6293   -2.6633   -2.6934 H   0  0  0  0  0  0  0  0  0  0  0  0
   -3.3084   -1.9184   -1.2105 H   0  0  0  0  0  0  0  0  0  0  0  0
   -2.0225   -3.1671   -1.0973 H   0  0  0  0  0  0  0  0  0  0  0  0
  1  2  1  0  0  0  0
  3  1  1  0  0  0  0
  4  1  1  1  0  0  0
  4  5  1  0  0  0  0
  4 11  1  0  0  0  0
  5  6  1  0  0  0  0
  7  5  1  1  0  0  0
  7 15  1  0  0  0  0
  8  7  1  0  0  0  0
  8  9  1  0  0  0  0
 10  8  1  0  0  0  0
 11 12  1  0  0  0  0
 11 13  1  0  0  0  0
 14 11  1  0  0  0  0
 15 17  1  0  0  0  0
 15 18  1  0  0  0  0
 16 15  1  0  0  0  0
M  END
