23,26,30
 OpenBabel05122313063D

 56 58  0  0  1  0  0  0  0  0999 V2000
   -2.8525   -2.2720   -0.9540 Si  0  0  0  0  0  0  0  0  0  0  0  0
    5.2312   -0.5630    1.2448 O   0  0  0  0  0  0  0  0  0  0  0  0
    5.4934    1.3188   -0.7126 O   0  0  0  0  0  0  0  0  0  0  0  0
    2.6868    1.9906   -1.0258 O   0  0  0  0  0  0  0  0  0  0  0  0
    0.8888    0.1145    0.3919 O   0  0  0  0  0  0  0  0  0  0  0  0
    3.8902   -1.9134   -0.1280 O   0  0  0  0  0  0  0  0  0  0  0  0
    0.4172   -2.0993    0.9985 O   0  0  0  0  0  0  0  0  0  0  0  0
    4.8999   -0.9041   -0.0691 C   0  0  1  0  0  0  0  0  0  0  0  0
    5.7744   -1.3488   -0.5979 H   0  0  0  0  0  0  0  0  0  0  0  0
    4.4491    0.3779   -0.7992 C   0  0  1  0  0  0  0  0  0  0  0  0
    4.2632    0.0884   -1.8615 H   0  0  0  0  0  0  0  0  0  0  0  0
    3.1194    0.9087   -0.2253 C   0  0  2  0  0  0  0  0  0  0  0  0
    3.3064    1.2365    0.8242 H   0  0  0  0  0  0  0  0  0  0  0  0
    2.1199   -0.2475   -0.2317 C   0  0  1  0  0  0  0  0  0  0  0  0
    1.9205   -0.5147   -1.2995 H   0  0  0  0  0  0  0  0  0  0  0  0
    2.6869   -1.4759    0.4900 C   0  0  1  0  0  0  0  0  0  0  0  0
    2.8678   -1.1927    1.5515 H   0  0  0  0  0  0  0  0  0  0  0  0
    1.6429   -2.5882    0.4527 C   0  0  0  0  0  0  0  0  0  0  0  0
    1.5037   -2.9295   -0.6027 H   0  0  0  0  0  0  0  0  0  0  0  0
    1.9490   -3.4587    1.0645 H   0  0  0  0  0  0  0  0  0  0  0  0
   -0.0381   -0.9457    0.3090 C   0  0  1  0  0  0  0  0  0  0  0  0
   -0.1844   -1.2059   -0.7694 H   0  0  0  0  0  0  0  0  0  0  0  0
   -1.3437   -0.5112    0.9444 C   0  0  2  0  0  3  0  0  0  0  0  0
   -1.2682    0.4411    2.0040 C   0  0  0  0  0  3  0  0  0  0  0  0
   -0.2885    0.8568    2.2684 H   0  0  0  0  0  0  0  0  0  0  0  0
   -2.4555    0.9238    2.6095 C   0  0  0  0  0  3  0  0  0  0  0  0
   -2.3978    1.7202    3.3652 H   0  0  0  0  0  0  0  0  0  0  0  0
   -3.7171    0.3932    2.2301 C   0  0  0  0  0  3  0  0  0  0  0  0
   -4.6436    0.7745    2.6794 H   0  0  0  0  0  0  0  0  0  0  0  0
   -3.7706   -0.5749    1.1909 C   0  0  0  0  0  3  0  0  0  0  0  0
   -4.7601   -0.9240    0.8647 H   0  0  0  0  0  0  0  0  0  0  0  0
   -2.6023   -1.0694    0.5203 C   0  0  1  0  0  3  0  0  0  0  0  0
    5.9390   -1.5768    1.9376 C   0  0  0  0  0  0  0  0  0  0  0  0
    6.1393   -1.1993    2.9580 H   0  0  0  0  0  0  0  0  0  0  0  0
    6.9107   -1.8033    1.4396 H   0  0  0  0  0  0  0  0  0  0  0  0
    5.3528   -2.5202    2.0049 H   0  0  0  0  0  0  0  0  0  0  0  0
    5.6527    2.1375   -1.8574 C   0  0  0  0  0  0  0  0  0  0  0  0
    6.5205    2.7977   -1.6631 H   0  0  0  0  0  0  0  0  0  0  0  0
    4.7529    2.7569   -2.0564 H   0  0  0  0  0  0  0  0  0  0  0  0
    5.8700    1.5312   -2.7705 H   0  0  0  0  0  0  0  0  0  0  0  0
    1.9329    2.9753   -0.3363 C   0  0  0  0  0  0  0  0  0  0  0  0
    1.6487    3.7428   -1.0813 H   0  0  0  0  0  0  0  0  0  0  0  0
    2.5379    3.4602    0.4665 H   0  0  0  0  0  0  0  0  0  0  0  0
    1.0073    2.5596    0.1137 H   0  0  0  0  0  0  0  0  0  0  0  0
   -2.0049   -3.9140   -0.5566 C   0  0  0  0  0  0  0  0  0  0  0  0
   -2.0954   -4.6190   -1.4083 H   0  0  0  0  0  0  0  0  0  0  0  0
   -2.4723   -4.3851    0.3322 H   0  0  0  0  0  0  0  0  0  0  0  0
   -0.9326   -3.7687   -0.3236 H   0  0  0  0  0  0  0  0  0  0  0  0
   -4.7146   -2.5437   -1.1494 C   0  0  0  0  0  0  0  0  0  0  0  0
   -4.8890   -3.2469   -1.9898 H   0  0  0  0  0  0  0  0  0  0  0  0
   -5.2402   -1.5979   -1.3938 H   0  0  0  0  0  0  0  0  0  0  0  0
   -5.1801   -2.9865   -0.2454 H   0  0  0  0  0  0  0  0  0  0  0  0
   -2.2253   -1.5528   -2.5880 C   0  0  0  0  0  0  0  0  0  0  0  0
   -2.3978   -2.2933   -3.3970 H   0  0  0  0  0  0  0  0  0  0  0  0
   -1.1489   -1.2935   -2.5935 H   0  0  0  0  0  0  0  0  0  0  0  0
   -2.7893   -0.6321   -2.8380 H   0  0  0  0  0  0  0  0  0  0  0  0
  1 45  1  0  0  0  0
  2 33  1  0  0  0  0
  4 41  1  0  0  0  0
  4 12  1  0  0  0  0
  6  8  1  0  0  0  0
  6 16  1  0  0  0  0
  8  9  1  6  0  0  0
  8  2  1  0  0  0  0
 10 11  1  6  0  0  0
 10  3  1  0  0  0  0
 10 12  1  0  0  0  0
 10  8  1  0  0  0  0
 12 13  1  1  0  0  0
 14 15  1  6  0  0  0
 14 12  1  0  0  0  0
 14  5  1  0  0  0  0
 14 16  1  0  0  0  0
 16 17  1  1  0  0  0
 18 16  1  0  0  0  0
 18  7  1  0  0  0  0
 18 20  1  0  0  0  0
 19 18  1  0  0  0  0
 21 22  1  6  0  0  0
 21  5  1  0  0  0  0
 21 23  1  0  0  0  0
 21  7  1  0  0  0  0
 23 24  1  1  0  0  0
 24 25  1  0  0  0  0
 24 26  1  0  0  0  0
 26 27  1  0  0  0  0
 28 26  1  0  0  0  0
 28 29  1  0  0  0  0
 30 28  1  0  0  0  0
 31 30  1  0  0  0  0
 32  1  1  6  0  0  0
 32 23  1  0  0  0  0
 32 30  1  0  0  0  0
 33 36  1  0  0  0  0
 33 34  1  0  0  0  0
 35 33  1  0  0  0  0
 37 38  1  0  0  0  0
 37  3  1  0  0  0  0
 39 37  1  0  0  0  0
 40 37  1  0  0  0  0
 41 44  1  0  0  0  0
 41 43  1  0  0  0  0
 42 41  1  0  0  0  0
 45 48  1  0  0  0  0
 45 47  1  0  0  0  0
 46 45  1  0  0  0  0
 49  1  1  0  0  0  0
 49 52  1  0  0  0  0
 50 49  1  0  0  0  0
 51 49  1  0  0  0  0
 53  1  1  0  0  0  0
 54 53  1  0  0  0  0
 55 53  1  0  0  0  0
 56 53  1  0  0  0  0
M  END
