34,38,42
 OpenBabel05122313063D

 47 49  0  0  1  0  0  0  0  0999 V2000
   -5.0140   -0.9843   -0.3713 O   0  0  0  0  0  0  0  0  0  0  0  0
   -4.8520    1.7363    0.1170 O   0  0  0  0  0  0  0  0  0  0  0  0
   -2.0596    2.2238   -0.4735 O   0  0  0  0  0  0  0  0  0  0  0  0
   -0.6839   -0.1605   -1.2285 O   0  0  0  0  0  0  0  0  0  0  0  0
   -3.2138   -1.4516    1.0747 O   0  0  0  0  0  0  0  0  0  0  0  0
   -0.1075   -2.3712   -0.6196 O   0  0  0  0  0  0  0  0  0  0  0  0
   -4.3034   -0.5881    0.7660 C   0  0  1  0  0  0  0  0  0  0  0  0
   -4.9493   -0.6520    1.6741 H   0  0  0  0  0  0  0  0  0  0  0  0
   -3.8214    0.8697    0.5379 C   0  0  1  0  0  0  0  0  0  0  0  0
   -3.3960    1.2158    1.5133 H   0  0  0  0  0  0  0  0  0  0  0  0
   -2.6924    0.9567   -0.5055 C   0  0  2  0  0  0  0  0  0  0  0  0
   -3.1223    0.7459   -1.5116 H   0  0  0  0  0  0  0  0  0  0  0  0
   -1.6431   -0.0917   -0.1785 C   0  0  1  0  0  0  0  0  0  0  0  0
   -1.1587    0.2164    0.7797 H   0  0  0  0  0  0  0  0  0  0  0  0
   -2.2459   -1.4781    0.0308 C   0  0  1  0  0  0  0  0  0  0  0  0
   -2.7034   -1.8153   -0.9264 H   0  0  0  0  0  0  0  0  0  0  0  0
   -1.1008   -2.4144    0.4020 C   0  0  0  0  0  0  0  0  0  0  0  0
   -0.6929   -2.1126    1.3969 H   0  0  0  0  0  0  0  0  0  0  0  0
   -1.4371   -3.4675    0.4698 H   0  0  0  0  0  0  0  0  0  0  0  0
    0.3784   -1.0677   -0.9550 C   0  0  2  0  0  0  0  0  0  0  0  0
   -5.7008   -2.2152   -0.2142 C   0  0  0  0  0  0  0  0  0  0  0  0
   -6.2404   -2.4134   -1.1592 H   0  0  0  0  0  0  0  0  0  0  0  0
   -6.4391   -2.1621    0.6206 H   0  0  0  0  0  0  0  0  0  0  0  0
   -5.0034   -3.0561   -0.0060 H   0  0  0  0  0  0  0  0  0  0  0  0
   -5.8739    1.9522    1.0639 C   0  0  0  0  0  0  0  0  0  0  0  0
   -6.4994    2.7851    0.6883 H   0  0  0  0  0  0  0  0  0  0  0  0
   -5.4650    2.2381    2.0634 H   0  0  0  0  0  0  0  0  0  0  0  0
   -6.5314    1.0612    1.1964 H   0  0  0  0  0  0  0  0  0  0  0  0
   -2.5464    3.1607   -1.4180 C   0  0  0  0  0  0  0  0  0  0  0  0
   -1.9428    4.0816   -1.2990 H   0  0  0  0  0  0  0  0  0  0  0  0
   -3.6185    3.3994   -1.2509 H   0  0  0  0  0  0  0  0  0  0  0  0
   -2.4212    2.7904   -2.4629 H   0  0  0  0  0  0  0  0  0  0  0  0
    1.2410   -0.5152    0.2003 C   0  0  0  0  0  3  0  0  0  0  0  0
    2.0384   -1.3885    0.9949 C   0  0  0  0  0  3  0  0  0  0  0  0
    2.0501   -2.4593    0.7462 H   0  0  0  0  0  0  0  0  0  0  0  0
    2.7975   -0.8971    2.0946 C   0  0  0  0  0  3  0  0  0  0  0  0
    3.4224   -1.5805    2.6846 H   0  0  0  0  0  0  0  0  0  0  0  0
    2.8081    0.5001    2.3618 C   0  0  0  0  0  3  0  0  0  0  0  0
    3.4392    0.8948    3.1707 H   0  0  0  0  0  0  0  0  0  0  0  0
    2.0337    1.3946    1.5703 C   0  0  0  0  0  3  0  0  0  0  0  0
    2.0682    2.4755    1.7589 H   0  0  0  0  0  0  0  0  0  0  0  0
    1.2858    0.8857    0.4727 C   0  0  0  0  0  3  0  0  0  0  0  0
    0.7009    1.5631   -0.1666 H   0  0  0  0  0  0  0  0  0  0  0  0
    1.1390   -1.2347   -2.2617 C   0  0  0  0  0  0  0  0  0  0  0  0
    0.4408   -1.6440   -3.0160 H   0  0  0  0  0  0  0  0  0  0  0  0
    1.9869   -1.9296   -2.1272 H   0  0  0  0  0  0  0  0  0  0  0  0
    1.5236   -0.2573   -2.6023 H   0  0  0  0  0  0  0  0  0  0  0  0
  1 21  1  0  0  0  0
  1  7  1  0  0  0  0
  2  9  1  0  0  0  0
  2 25  1  0  0  0  0
  4 20  1  0  0  0  0
  4 13  1  0  0  0  0
  6 17  1  0  0  0  0
  7  5  1  0  0  0  0
  7  8  1  1  0  0  0
  9  7  1  0  0  0  0
  9 10  1  1  0  0  0
 11 12  1  6  0  0  0
 11  3  1  0  0  0  0
 11 13  1  0  0  0  0
 11  9  1  0  0  0  0
 13 15  1  0  0  0  0
 13 14  1  1  0  0  0
 15 16  1  6  0  0  0
 15 17  1  0  0  0  0
 15  5  1  0  0  0  0
 17 19  1  0  0  0  0
 17 18  1  0  0  0  0
 20 44  1  6  0  0  0
 20  6  1  0  0  0  0
 20 33  1  0  0  0  0
 21 24  1  0  0  0  0
 21 23  1  0  0  0  0
 22 21  1  0  0  0  0
 25 28  1  0  0  0  0
 25 27  1  0  0  0  0
 26 25  1  0  0  0  0
 29 30  1  0  0  0  0
 29 31  1  0  0  0  0
 29  3  1  0  0  0  0
 32 29  1  0  0  0  0
 33 42  1  0  0  0  0
 33 34  1  0  0  0  0
 34 36  1  0  0  0  0
 35 34  1  0  0  0  0
 36 38  1  0  0  0  0
 36 37  1  0  0  0  0
 38 39  1  0  0  0  0
 40 41  1  0  0  0  0
 40 38  1  0  0  0  0
 42 40  1  0  0  0  0
 43 42  1  0  0  0  0
 44 46  1  0  0  0  0
 45 44  1  0  0  0  0
 47 44  1  0  0  0  0
M  END
