2,6,9
 OpenBabel05122313063D

 24 24  0  0  1  0  0  0  0  0999 V2000
   -4.6918   -1.4254   -0.0973 C   0  0  1  0  0  3  0  0  0  0  0  0
   -4.5299   -0.4359   -1.1401 C   0  0  0  0  0  3  0  0  0  0  0  0
   -5.3091    0.3324   -1.2596 H   0  0  0  0  0  0  0  0  0  0  0  0
   -3.3374   -0.3311   -1.9074 C   0  0  0  0  0  3  0  0  0  0  0  0
   -3.2254    0.4842   -2.6372 H   0  0  0  0  0  0  0  0  0  0  0  0
   -2.2139   -1.1973   -1.6262 C   0  0  2  0  0  3  0  0  0  0  0  0
   -2.3658   -2.2053   -0.6235 C   0  0  0  0  0  3  0  0  0  0  0  0
   -1.5063   -2.8319   -0.3452 H   0  0  0  0  0  0  0  0  0  0  0  0
   -3.5831   -2.2933    0.1365 C   0  0  0  0  0  3  0  0  0  0  0  0
   -3.6013   -2.9634    1.0066 H   0  0  0  0  0  0  0  0  0  0  0  0
   -5.9436   -1.4066    0.7606 C   0  0  0  0  0  0  0  0  0  0  0  0
   -6.1686   -0.3278    0.9145 H   0  0  0  0  0  0  0  0  0  0  0  0
   -7.1163   -2.0539    0.0039 C   0  0  0  0  0  0  0  0  0  0  0  0
   -7.2880   -1.5723   -0.9804 H   0  0  0  0  0  0  0  0  0  0  0  0
   -8.0538   -1.9712    0.5905 H   0  0  0  0  0  0  0  0  0  0  0  0
   -6.9230   -3.1321   -0.1780 H   0  0  0  0  0  0  0  0  0  0  0  0
   -5.7385   -2.0278    2.1451 C   0  0  0  0  0  0  0  0  0  0  0  0
   -5.5929   -3.1273    2.0860 H   0  0  0  0  0  0  0  0  0  0  0  0
   -6.6325   -1.8518    2.7759 H   0  0  0  0  0  0  0  0  0  0  0  0
   -4.8589   -1.5825    2.6525 H   0  0  0  0  0  0  0  0  0  0  0  0
   -0.9090   -1.0088   -2.3479 C   0  0  0  0  0  0  0  0  0  0  0  0
   -0.0480   -1.3518   -1.7441 H   0  0  0  0  0  0  0  0  0  0  0  0
   -0.7347    0.0546   -2.6005 H   0  0  0  0  0  0  0  0  0  0  0  0
   -0.9143   -1.5858   -3.2968 H   0  0  0  0  0  0  0  0  0  0  0  0
  1  9  1  0  0  0  0
  1 11  1  1  0  0  0
  2  1  1  0  0  0  0
  3  2  1  0  0  0  0
  4  6  1  0  0  0  0
  4  2  1  0  0  0  0
  5  4  1  0  0  0  0
  6 21  1  1  0  0  0
  6  7  1  0  0  0  0
  7  8  1  0  0  0  0
  7  9  1  0  0  0  0
  9 10  1  0  0  0  0
 11 12  1  0  0  0  0
 11 17  1  0  0  0  0
 13 15  1  0  0  0  0
 13 11  1  0  0  0  0
 14 13  1  0  0  0  0
 16 13  1  0  0  0  0
 17 20  1  0  0  0  0
 17 19  1  0  0  0  0
 18 17  1  0  0  0  0
 21 22  1  0  0  0  0
 23 21  1  0  0  0  0
 24 21  1  0  0  0  0
M  END
