3,17,20
 OpenBabel05122313063D

 52 55  0  0  1  0  0  0  0  0999 V2000
    1.7437   -0.1468    0.0064 B   0  0  0  0  0  0  0  0  0  0  0  0
    3.0939    0.2182   -0.0108 N   0  0  0  0  0  0  0  0  0  0  0  0
    0.5234    0.8550   -0.0423 C   0  0  0  0  0  3  0  0  0  0  0  0
   -0.2577    1.1885   -1.2160 C   0  0  0  0  0  0  0  0  0  0  0  0
    0.0061    0.9820   -2.6014 C   0  0  0  0  0  0  0  0  0  0  0  0
   -0.9478    1.3715   -3.5343 C   0  0  0  0  0  0  0  0  0  0  0  0
   -2.1801    1.9581   -3.1328 C   0  0  0  0  0  0  0  0  0  0  0  0
   -2.4705    2.1700   -1.7885 C   0  0  0  0  0  0  0  0  0  0  0  0
   -1.5224    1.7819   -0.8127 C   0  0  0  0  0  0  0  0  0  0  0  0
   -1.5220    1.8530    0.6348 C   0  0  0  0  0  0  0  0  0  0  0  0
   -2.4693    2.3351    1.5686 C   0  0  0  0  0  0  0  0  0  0  0  0
   -2.1780    2.2563    2.9269 C   0  0  0  0  0  0  0  0  0  0  0  0
   -0.9453    1.7119    3.3832 C   0  0  0  0  0  0  0  0  0  0  0  0
    0.0079    1.2328    2.4924 C   0  0  0  0  0  0  0  0  0  0  0  0
   -0.2568    1.3023    1.0936 C   0  0  0  0  0  0  0  0  0  0  0  0
    1.0947   -1.5894    0.0757 C   0  0  2  0  0  3  0  0  0  0  0  0
    0.4549   -2.2325   -1.0404 C   0  0  0  0  0  3  0  0  0  0  0  0
   -0.5110   -3.1712   -0.5561 C   0  0  0  0  0  0  0  0  0  0  0  0
   -0.5101   -3.1038    0.8573 C   0  0  0  0  0  0  0  0  0  0  0  0
    0.4565   -2.1234    1.2488 C   0  0  0  0  0  3  0  0  0  0  0  0
    4.2114   -0.7578    0.0356 C   0  0  0  0  0  0  0  0  0  0  0  0
    4.2176   -1.5513    1.3472 C   0  0  0  0  0  0  0  0  0  0  0  0
    4.2193   -1.6693   -1.1970 C   0  0  0  0  0  0  0  0  0  0  0  0
    3.4693    1.6489   -0.0788 C   0  0  0  0  0  0  0  0  0  0  0  0
    4.2211    2.1056    1.1771 C   0  0  0  0  0  0  0  0  0  0  0  0
    4.2242    1.9842   -1.3706 C   0  0  0  0  0  0  0  0  0  0  0  0
    0.9638    0.5418   -2.9193 H   0  0  0  0  0  0  0  0  0  0  0  0
   -0.7509    1.2222   -4.6066 H   0  0  0  0  0  0  0  0  0  0  0  0
   -2.9126    2.2468   -3.9008 H   0  0  0  0  0  0  0  0  0  0  0  0
   -3.4275    2.6185   -1.4837 H   0  0  0  0  0  0  0  0  0  0  0  0
   -3.4266    2.7515    1.2218 H   0  0  0  0  0  0  0  0  0  0  0  0
   -2.9099    2.6189    3.6634 H   0  0  0  0  0  0  0  0  0  0  0  0
   -0.7477    1.6684    4.4649 H   0  0  0  0  0  0  0  0  0  0  0  0
    0.9657    0.8257    2.8513 H   0  0  0  0  0  0  0  0  0  0  0  0
    0.6514   -2.0198   -2.0992 H   0  0  0  0  0  0  0  0  0  0  0  0
   -1.1605   -3.8007   -1.1748 H   0  0  0  0  0  0  0  0  0  0  0  0
   -1.1589   -3.6713    1.5339 H   0  0  0  0  0  0  0  0  0  0  0  0
    0.6544   -1.8107    2.2822 H   0  0  0  0  0  0  0  0  0  0  0  0
    5.1466   -0.1606    0.0087 H   0  0  0  0  0  0  0  0  0  0  0  0
    4.2228   -0.8699    2.2206 H   0  0  0  0  0  0  0  0  0  0  0  0
    5.1176   -2.1961    1.4059 H   0  0  0  0  0  0  0  0  0  0  0  0
    3.3252   -2.2032    1.4206 H   0  0  0  0  0  0  0  0  0  0  0  0
    3.3257   -2.3236   -1.2118 H   0  0  0  0  0  0  0  0  0  0  0  0
    5.1182   -2.3182   -1.1939 H   0  0  0  0  0  0  0  0  0  0  0  0
    4.2276   -1.0716   -2.1298 H   0  0  0  0  0  0  0  0  0  0  0  0
    2.5017    2.1904   -0.1060 H   0  0  0  0  0  0  0  0  0  0  0  0
    3.6279    1.8941    2.0889 H   0  0  0  0  0  0  0  0  0  0  0  0
    4.4073    3.1973    1.1348 H   0  0  0  0  0  0  0  0  0  0  0  0
    5.2072    1.6071    1.2811 H   0  0  0  0  0  0  0  0  0  0  0  0
    5.2105    1.4784   -1.4247 H   0  0  0  0  0  0  0  0  0  0  0  0
    4.4103    3.0751   -1.4317 H   0  0  0  0  0  0  0  0  0  0  0  0
    3.6332    1.6870   -2.2597 H   0  0  0  0  0  0  0  0  0  0  0  0
  2  1  1  0  0  0  0
  2 21  1  0  0  0  0
  3  1  1  0  0  0  0
  3 15  1  0  0  0  0
  4  9  1  0  0  0  0
  4  3  1  0  0  0  0
  5  4  2  0  0  0  0
  6  7  2  0  0  0  0
  6  5  1  0  0  0  0
  7  8  1  0  0  0  0
  8 30  1  0  0  0  0
  8  9  2  0  0  0  0
  9 10  1  0  0  0  0
 10 15  2  0  0  0  0
 10 11  1  0  0  0  0
 11 12  2  0  0  0  0
 12 13  1  0  0  0  0
 12 32  1  0  0  0  0
 13 33  1  0  0  0  0
 14 34  1  0  0  0  0
 14 13  2  0  0  0  0
 15 14  1  0  0  0  0
 16  1  1  6  0  0  0
 16 20  1  0  0  0  0
 17 18  1  0  0  0  0
 17 16  1  0  0  0  0
 18 19  2  0  0  0  0
 19 20  1  0  0  0  0
 19 37  1  0  0  0  0
 20 38  1  0  0  0  0
 21 22  1  0  0  0  0
 22 41  1  0  0  0  0
 22 42  1  0  0  0  0
 22 40  1  0  0  0  0
 23 44  1  0  0  0  0
 23 21  1  0  0  0  0
 24  2  1  0  0  0  0
 24 25  1  0  0  0  0
 25 49  1  0  0  0  0
 25 47  1  0  0  0  0
 26 24  1  0  0  0  0
 27  5  1  0  0  0  0
 28  6  1  0  0  0  0
 29  7  1  0  0  0  0
 31 11  1  0  0  0  0
 35 17  1  0  0  0  0
 36 18  1  0  0  0  0
 39 21  1  0  0  0  0
 43 23  1  0  0  0  0
 45 23  1  0  0  0  0
 46 24  1  0  0  0  0
 48 25  1  0  0  0  0
 50 26  1  0  0  0  0
 51 26  1  0  0  0  0
 52 26  1  0  0  0  0
M  END
