5,8,12
 OpenBabel05122313063D

 49 52  0  0  1  0  0  0  0  0999 V2000
   -0.1047   -0.9645    2.3140 Cl  0  0  0  0  0  0  0  0  0  0  0  0
   -0.1488    1.6981   -1.1014 N   0  0  0  0  0  0  0  0  0  0  0  0
   -0.3347    1.7713   -2.1022 H   0  0  0  0  0  0  0  0  0  0  0  0
    0.3544   -0.6506   -0.3894 C   0  0  1  0  0  3  0  0  0  0  0  0
    0.6056   -1.4267    0.7815 C   0  0  2  0  0  3  0  0  0  0  0  0
    1.4106   -2.6023    0.7581 C   0  0  0  0  0  3  0  0  0  0  0  0
    1.5939   -3.1530    1.6887 H   0  0  0  0  0  0  0  0  0  0  0  0
    2.0145   -2.9947   -0.4656 C   0  0  0  0  0  3  0  0  0  0  0  0
    2.6788   -3.8703   -0.4801 H   0  0  0  0  0  0  0  0  0  0  0  0
    1.7877   -2.2520   -1.6592 C   0  0  0  0  0  3  0  0  0  0  0  0
    2.2855   -2.5364   -2.5953 H   0  0  0  0  0  0  0  0  0  0  0  0
    1.0025   -1.0737   -1.5948 C   0  0  0  0  0  3  0  0  0  0  0  0
    0.8732   -0.4517   -2.4925 H   0  0  0  0  0  0  0  0  0  0  0  0
   -0.6119    0.5178   -0.4248 C   0  0  2  0  0  0  0  0  0  0  0  0
   -0.9038    0.7666    0.6150 H   0  0  0  0  0  0  0  0  0  0  0  0
    0.6366    2.6888   -0.5201 C   0  0  0  0  0  0  0  0  0  0  0  0
    1.0797    3.7757   -1.3118 C   0  0  0  0  0  0  0  0  0  0  0  0
    0.8069    3.8112   -2.3786 H   0  0  0  0  0  0  0  0  0  0  0  0
    1.8681    4.7864   -0.7544 C   0  0  0  0  0  0  0  0  0  0  0  0
    2.2058    5.6170   -1.3931 H   0  0  0  0  0  0  0  0  0  0  0  0
    2.2372    4.7440    0.6013 C   0  0  0  0  0  0  0  0  0  0  0  0
    2.8674    5.5346    1.0339 H   0  0  0  0  0  0  0  0  0  0  0  0
    1.7978    3.6704    1.3891 C   0  0  0  0  0  0  0  0  0  0  0  0
    2.0888    3.6040    2.4484 H   0  0  0  0  0  0  0  0  0  0  0  0
    1.0036    2.6511    0.8452 C   0  0  0  0  0  0  0  0  0  0  0  0
    0.6950    1.8131    1.4834 H   0  0  0  0  0  0  0  0  0  0  0  0
   -2.2005   -0.0364   -1.3461 P   0  0  0  0  0  0  0  0  0  0  0  0
   -3.4767    0.9813   -0.4864 C   0  0  0  0  0  0  0  0  0  0  0  0
   -4.8210    0.5456   -0.5181 C   0  0  0  0  0  0  0  0  0  0  0  0
   -5.0729   -0.4205   -0.9833 H   0  0  0  0  0  0  0  0  0  0  0  0
   -5.8368    1.3243    0.0531 C   0  0  0  0  0  0  0  0  0  0  0  0
   -6.8769    0.9644    0.0287 H   0  0  0  0  0  0  0  0  0  0  0  0
   -5.5305    2.5570    0.6528 C   0  0  0  0  0  0  0  0  0  0  0  0
   -6.3285    3.1684    1.1005 H   0  0  0  0  0  0  0  0  0  0  0  0
   -4.2012    3.0051    0.6732 C   0  0  0  0  0  0  0  0  0  0  0  0
   -3.9499    3.9715    1.1363 H   0  0  0  0  0  0  0  0  0  0  0  0
   -3.1791    2.2281    0.1052 C   0  0  0  0  0  0  0  0  0  0  0  0
   -2.1468    2.6074    0.1168 H   0  0  0  0  0  0  0  0  0  0  0  0
   -2.4513   -1.7085   -0.5946 C   0  0  0  0  0  0  0  0  0  0  0  0
   -2.0459   -2.8233   -1.3586 C   0  0  0  0  0  0  0  0  0  0  0  0
   -1.6620   -2.6678   -2.3792 H   0  0  0  0  0  0  0  0  0  0  0  0
   -2.1191   -4.1188   -0.8251 C   0  0  0  0  0  0  0  0  0  0  0  0
   -1.7938   -4.9796   -1.4290 H   0  0  0  0  0  0  0  0  0  0  0  0
   -2.6148   -4.3144    0.4735 C   0  0  0  0  0  0  0  0  0  0  0  0
   -2.6771   -5.3301    0.8931 H   0  0  0  0  0  0  0  0  0  0  0  0
   -3.0387   -3.2120    1.2342 C   0  0  0  0  0  0  0  0  0  0  0  0
   -3.4278   -3.3619    2.2529 H   0  0  0  0  0  0  0  0  0  0  0  0
   -2.9578   -1.9160    0.7056 C   0  0  0  0  0  0  0  0  0  0  0  0
   -3.2827   -1.0551    1.3087 H   0  0  0  0  0  0  0  0  0  0  0  0
  2 16  1  0  0  0  0
  2 14  1  0  0  0  0
  3  2  1  0  0  0  0
  4 14  1  6  0  0  0
  4  5  1  0  0  0  0
  5  1  1  6  0  0  0
  6  5  1  0  0  0  0
  6  7  1  0  0  0  0
  8  6  1  0  0  0  0
  9  8  1  0  0  0  0
 10 12  1  0  0  0  0
 10  8  1  0  0  0  0
 11 10  1  0  0  0  0
 12  4  1  0  0  0  0
 13 12  1  0  0  0  0
 14 15  1  1  0  0  0
 16 25  1  0  0  0  0
 17 19  1  0  0  0  0
 17 16  2  0  0  0  0
 18 17  1  0  0  0  0
 19 21  2  0  0  0  0
 20 19  1  0  0  0  0
 21 22  1  0  0  0  0
 21 23  1  0  0  0  0
 23 24  1  0  0  0  0
 25 23  2  0  0  0  0
 25 26  1  0  0  0  0
 27 39  1  0  0  0  0
 27 28  1  0  0  0  0
 27 14  1  0  0  0  0
 28 37  1  0  0  0  0
 29 28  2  0  0  0  0
 29 31  1  0  0  0  0
 30 29  1  0  0  0  0
 31 33  2  0  0  0  0
 32 31  1  0  0  0  0
 33 35  1  0  0  0  0
 33 34  1  0  0  0  0
 35 36  1  0  0  0  0
 37 38  1  0  0  0  0
 37 35  2  0  0  0  0
 39 48  1  0  0  0  0
 40 42  1  0  0  0  0
 40 39  2  0  0  0  0
 41 40  1  0  0  0  0
 42 44  2  0  0  0  0
 43 42  1  0  0  0  0
 44 45  1  0  0  0  0
 44 46  1  0  0  0  0
 46 47  1  0  0  0  0
 48 46  2  0  0  0  0
 48 49  1  0  0  0  0
M  END
