9,14,38
 OpenBabel05122313063D

 41 44  0  0  1  0  0  0  0  0999 V2000
   -1.2498    1.9248   -0.9684 N   0  0  0  0  0  0  0  0  0  0  0  0
   -2.0553    0.1607    1.0650 N   0  0  0  0  0  0  0  0  0  0  0  0
   -2.8274    0.4426    0.0623 C   0  0  0  0  0  0  0  0  0  0  0  0
   -0.4028    1.6446   -0.0151 C   0  0  0  0  0  0  0  0  0  0  0  0
   -4.2688    0.0855    0.0830 C   0  0  0  0  0  0  0  0  0  0  0  0
   -2.3480    1.1207   -1.0535 N   0  0  0  0  0  0  0  0  0  0  0  0
    1.0298    3.5596   -0.7596 C   0  0  0  0  0  0  0  0  0  0  0  0
    0.3163    3.7172   -1.5804 H   0  0  0  0  0  0  0  0  0  0  0  0
    0.2399   -0.9662   -1.1952 C   0  0  0  0  0  3  0  0  0  0  0  0
    0.0777   -0.0949   -1.8448 H   0  0  0  0  0  0  0  0  0  0  0  0
   -0.6243    0.4018    0.8351 C   0  0  2  0  0  0  0  0  0  0  0  0
   -6.9830   -0.6766    0.1897 C   0  0  0  0  0  0  0  0  0  0  0  0
   -8.0413   -0.9758    0.2288 H   0  0  0  0  0  0  0  0  0  0  0  0
    0.2922   -1.9649    1.0390 C   0  0  0  0  0  3  0  0  0  0  0  0
    0.1488   -1.8674    2.1251 H   0  0  0  0  0  0  0  0  0  0  0  0
   -5.2334    0.7611   -0.6947 C   0  0  0  0  0  0  0  0  0  0  0  0
   -4.9487    1.6193   -1.3236 H   0  0  0  0  0  0  0  0  0  0  0  0
    0.7740    2.5166    0.1635 C   0  0  0  0  0  0  0  0  0  0  0  0
   -6.5816    0.3785   -0.6438 C   0  0  0  0  0  0  0  0  0  0  0  0
   -7.3247    0.9172   -1.2508 H   0  0  0  0  0  0  0  0  0  0  0  0
   -0.0155   -0.8472    0.2019 C   0  0  0  0  0  3  0  0  0  0  0  0
    0.7396   -2.1774   -1.7549 C   0  0  0  0  0  3  0  0  0  0  0  0
    0.9634   -2.2363   -2.8282 H   0  0  0  0  0  0  0  0  0  0  0  0
   -6.0303   -1.3451    0.9779 C   0  0  0  0  0  0  0  0  0  0  0  0
   -6.3418   -2.1703    1.6362 H   0  0  0  0  0  0  0  0  0  0  0  0
    1.6922    2.3119    1.2174 C   0  0  0  0  0  0  0  0  0  0  0  0
    1.5323    1.5139    1.9534 H   0  0  0  0  0  0  0  0  0  0  0  0
    2.8365    3.1117    1.3371 C   0  0  0  0  0  0  0  0  0  0  0  0
    3.5438    2.9197    2.1576 H   0  0  0  0  0  0  0  0  0  0  0  0
   -4.6840   -0.9683    0.9253 C   0  0  0  0  0  0  0  0  0  0  0  0
   -3.9179   -1.4731    1.5310 H   0  0  0  0  0  0  0  0  0  0  0  0
    3.0838    4.1336    0.4099 C   0  0  0  0  0  0  0  0  0  0  0  0
    3.9879    4.7548    0.4978 H   0  0  0  0  0  0  0  0  0  0  0  0
    0.7905   -3.1805    0.5014 C   0  0  0  0  0  3  0  0  0  0  0  0
    1.0533   -4.0136    1.1666 H   0  0  0  0  0  0  0  0  0  0  0  0
    2.1717    4.3550   -0.6378 C   0  0  0  0  0  0  0  0  0  0  0  0
    2.3599    5.1537   -1.3715 H   0  0  0  0  0  0  0  0  0  0  0  0
    1.0411   -3.2699   -0.8981 C   0  0  0  0  0  3  0  0  0  0  0  0
    1.4908   -4.1823   -1.3146 H   0  0  0  0  0  0  0  0  0  0  0  0
   -2.9972    1.3971   -1.7907 H   0  0  0  0  0  0  0  0  0  0  0  0
   -0.1505    0.5257    1.8286 H   0  0  0  0  0  0  0  0  0  0  0  0
  1  4  2  0  0  0  0
  3  5  1  0  0  0  0
  3  2  2  0  0  0  0
  4 18  1  0  0  0  0
  4 11  1  0  0  0  0
  5 30  1  0  0  0  0
  6  1  1  0  0  0  0
  6  3  1  0  0  0  0
  7 36  2  0  0  0  0
  7 18  1  0  0  0  0
  8  7  1  0  0  0  0
  9 21  1  0  0  0  0
 10  9  1  0  0  0  0
 11  2  1  0  0  0  0
 11 41  1  1  0  0  0
 12 13  1  0  0  0  0
 12 24  1  0  0  0  0
 14 15  1  0  0  0  0
 16 19  1  0  0  0  0
 16  5  2  0  0  0  0
 17 16  1  0  0  0  0
 18 26  2  0  0  0  0
 19 12  2  0  0  0  0
 20 19  1  0  0  0  0
 21 11  1  0  0  0  0
 21 14  1  0  0  0  0
 22  9  1  0  0  0  0
 22 38  1  0  0  0  0
 23 22  1  0  0  0  0
 24 25  1  0  0  0  0
 26 28  1  0  0  0  0
 26 27  1  0  0  0  0
 28 29  1  0  0  0  0
 30 24  2  0  0  0  0
 30 31  1  0  0  0  0
 32 33  1  0  0  0  0
 32 28  2  0  0  0  0
 34 14  1  0  0  0  0
 34 35  1  0  0  0  0
 36 32  1  0  0  0  0
 37 36  1  0  0  0  0
 38 34  1  0  0  0  0
 39 38  1  0  0  0  0
 40  6  1  0  0  0  0
M  END
