8,10,12
 OpenBabel05122313063D

 40 40  0  0  0  0  0  0  0  0999 V2000
   -1.3639   -1.5484    1.0441 N   0  0  0  0  0  0  0  0  0  0  0  0
   -0.9704    1.9339    0.3846 O   0  0  0  0  0  0  0  0  0  0  0  0
   -2.2045    0.0981   -1.9802 O   0  0  0  0  0  0  0  0  0  0  0  0
   -3.4293   -0.1297   -0.0744 O   0  0  0  0  0  0  0  0  0  0  0  0
   -0.8865    0.7123    2.2938 O   0  0  0  0  0  0  0  0  0  0  0  0
   -2.2739   -2.8454   -0.5835 O   0  0  0  0  0  0  0  0  0  0  0  0
    0.1848   -0.6528   -0.6772 C   0  0  0  0  0  3  0  0  0  0  0  0
    0.6503    0.3443   -1.5793 C   0  0  0  0  0  3  0  0  0  0  0  0
    1.8313    0.1417   -2.3501 C   0  0  0  0  0  3  0  0  0  0  0  0
    2.5819   -1.0488   -2.1882 C   0  0  0  0  0  3  0  0  0  0  0  0
    2.1254   -2.0662   -1.2995 C   0  0  0  0  0  3  0  0  0  0  0  0
    0.9488   -1.8522   -0.5407 C   0  0  0  0  0  3  0  0  0  0  0  0
   -1.0893   -0.4462    0.1530 C   0  0  0  0  0  0  0  0  0  0  0  0
   -0.9565    0.7949    1.0825 C   0  0  0  0  0  0  0  0  0  0  0  0
   -0.8663    3.1660    1.1532 C   0  0  0  0  0  0  0  0  0  0  0  0
   -0.7641    4.3110    0.1714 C   0  0  0  0  0  0  0  0  0  0  0  0
   -2.2947   -0.1647   -0.8013 C   0  0  0  0  0  0  0  0  0  0  0  0
   -4.6348    0.2151   -0.7988 C   0  0  0  0  0  0  0  0  0  0  0  0
   -4.7814    1.7218   -0.9306 C   0  0  0  0  0  0  0  0  0  0  0  0
   -2.0114   -2.6772    0.6068 C   0  0  0  0  0  0  0  0  0  0  0  0
   -2.3881   -3.6681    1.6923 C   0  0  0  0  0  0  0  0  0  0  0  0
    0.0992    1.2875   -1.6639 H   0  0  0  0  0  0  0  0  0  0  0  0
    2.1923    0.9390   -3.0131 H   0  0  0  0  0  0  0  0  0  0  0  0
    3.5273   -1.1806   -2.7329 H   0  0  0  0  0  0  0  0  0  0  0  0
    2.7149   -2.9804   -1.1510 H   0  0  0  0  0  0  0  0  0  0  0  0
    0.6290   -2.6028    0.1922 H   0  0  0  0  0  0  0  0  0  0  0  0
   -1.7636    3.2347    1.8030 H   0  0  0  0  0  0  0  0  0  0  0  0
    0.0247    3.0921    1.8068 H   0  0  0  0  0  0  0  0  0  0  0  0
   -0.7295    5.2710    0.7231 H   0  0  0  0  0  0  0  0  0  0  0  0
   -1.6364    4.3340   -0.5117 H   0  0  0  0  0  0  0  0  0  0  0  0
   -4.6008   -0.2770   -1.7912 H   0  0  0  0  0  0  0  0  0  0  0  0
   -5.4542   -0.2286   -0.2012 H   0  0  0  0  0  0  0  0  0  0  0  0
   -5.7415    1.9677   -1.4272 H   0  0  0  0  0  0  0  0  0  0  0  0
   -4.7716    2.2103    0.0643 H   0  0  0  0  0  0  0  0  0  0  0  0
   -3.9595    2.1406   -1.5432 H   0  0  0  0  0  0  0  0  0  0  0  0
   -1.2357   -1.3312    2.0394 H   0  0  0  0  0  0  0  0  0  0  0  0
   -2.2988   -4.6927    1.2875 H   0  0  0  0  0  0  0  0  0  0  0  0
   -1.7743   -3.5694    2.6082 H   0  0  0  0  0  0  0  0  0  0  0  0
   -3.4519   -3.5084    1.9637 H   0  0  0  0  0  0  0  0  0  0  0  0
    0.1633    4.2281   -0.4278 H   0  0  0  0  0  0  0  0  0  0  0  0
  1 36  1  0  0  0  0
  2 14  1  0  0  0  0
  2 15  1  0  0  0  0
  3 17  2  0  0  0  0
  6 20  2  0  0  0  0
  7 12  1  0  0  0  0
  7 13  1  0  0  0  0
  8  7  1  0  0  0  0
  9 10  1  0  0  0  0
  9  8  1  0  0  0  0
 10 11  1  0  0  0  0
 11 25  1  0  0  0  0
 11 12  1  0  0  0  0
 12 26  1  0  0  0  0
 13  1  1  0  0  0  0
 13 14  1  0  0  0  0
 14  5  2  0  0  0  0
 15 27  1  0  0  0  0
 15 28  1  0  0  0  0
 16 29  1  0  0  0  0
 16 15  1  0  0  0  0
 17  4  1  0  0  0  0
 17 13  1  0  0  0  0
 18 32  1  0  0  0  0
 18  4  1  0  0  0  0
 19 18  1  0  0  0  0
 19 34  1  0  0  0  0
 20  1  1  0  0  0  0
 20 21  1  0  0  0  0
 21 39  1  0  0  0  0
 21 38  1  0  0  0  0
 22  8  1  0  0  0  0
 23  9  1  0  0  0  0
 24 10  1  0  0  0  0
 30 16  1  0  0  0  0
 31 18  1  0  0  0  0
 33 19  1  0  0  0  0
 35 19  1  0  0  0  0
 37 21  1  0  0  0  0
 40 16  1  0  0  0  0
M  END
