2,7,12
 OpenBabel05122313063D

 46 51  0  0  0  0  0  0  0  0999 V2000
   -1.5624    0.8889    1.2030 C   0  0  0  0  0  0  0  0  0  0  0  0
    0.7200   -1.9178   -1.1749 C   0  0  0  0  0  3  0  0  0  0  0  0
    0.3656   -1.9761   -2.2112 H   0  0  0  0  0  0  0  0  0  0  0  0
   -0.8862    3.2448   -1.6201 C   0  0  0  0  0  0  0  0  0  0  0  0
   -0.5334    4.2313   -1.2857 H   0  0  0  0  0  0  0  0  0  0  0  0
   -1.1691    2.2298   -0.6750 C   0  0  0  0  0  0  0  0  0  0  0  0
   -1.8003    0.0705    0.0315 C   0  0  0  0  0  3  0  0  0  0  0  0
   -0.0870   -2.1093   -0.0101 C   0  0  0  0  0  3  0  0  0  0  0  0
    2.1015   -1.7717    0.6980 C   0  0  0  0  0  0  0  0  0  0  0  0
   -1.5458   -2.3931    0.0020 C   0  0  0  0  0  0  0  0  0  0  0  0
   -1.1334    2.2060    0.7771 C   0  0  0  0  0  0  0  0  0  0  0  0
    0.7382   -1.9220    1.1429 C   0  0  0  0  0  3  0  0  0  0  0  0
    0.3999   -1.9863    2.1842 H   0  0  0  0  0  0  0  0  0  0  0  0
   -4.3246   -2.7908    0.0229 C   0  0  0  0  0  0  0  0  0  0  0  0
   -5.4138   -2.9486    0.0306 H   0  0  0  0  0  0  0  0  0  0  0  0
   -0.8930    2.8664    3.0889 C   0  0  0  0  0  0  0  0  0  0  0  0
   -0.6358    3.6200    3.8476 H   0  0  0  0  0  0  0  0  0  0  0  0
   -1.6246    0.9287   -1.1219 C   0  0  0  0  0  0  0  0  0  0  0  0
    3.3108   -1.6260   -1.4703 C   0  0  0  0  0  0  0  0  0  0  0  0
    3.3032   -1.6039   -2.5691 H   0  0  0  0  0  0  0  0  0  0  0  0
   -2.4144   -1.2822    0.0231 C   0  0  0  0  0  0  0  0  0  0  0  0
    2.0901   -1.7658   -0.7497 C   0  0  0  0  0  0  0  0  0  0  0  0
   -1.6314    0.5807    2.5900 C   0  0  0  0  0  0  0  0  0  0  0  0
   -1.9617   -0.4175    2.9143 H   0  0  0  0  0  0  0  0  0  0  0  0
   -3.4556   -3.8950    0.0025 C   0  0  0  0  0  0  0  0  0  0  0  0
   -3.8646   -4.9167   -0.0057 H   0  0  0  0  0  0  0  0  0  0  0  0
   -1.4900    1.6874   -3.4139 C   0  0  0  0  0  0  0  0  0  0  0  0
   -1.6073    1.5052   -4.4928 H   0  0  0  0  0  0  0  0  0  0  0  0
    4.5055   -1.5351    0.6709 C   0  0  0  0  0  0  0  0  0  0  0  0
    5.4673   -1.4453    1.1977 H   0  0  0  0  0  0  0  0  0  0  0  0
   -0.8063    3.1909    1.7393 C   0  0  0  0  0  0  0  0  0  0  0  0
   -0.4754    4.1898    1.4197 H   0  0  0  0  0  0  0  0  0  0  0  0
    3.3331   -1.6428    1.4012 C   0  0  0  0  0  0  0  0  0  0  0  0
    3.3424   -1.6330    2.5001 H   0  0  0  0  0  0  0  0  0  0  0  0
   -3.8076   -1.4865    0.0333 C   0  0  0  0  0  0  0  0  0  0  0  0
   -4.4809   -0.6161    0.0490 H   0  0  0  0  0  0  0  0  0  0  0  0
    4.4943   -1.5257   -0.7569 C   0  0  0  0  0  0  0  0  0  0  0  0
    5.4477   -1.4284   -1.2976 H   0  0  0  0  0  0  0  0  0  0  0  0
   -2.0661   -3.7001   -0.0079 C   0  0  0  0  0  0  0  0  0  0  0  0
   -1.3787   -4.5593   -0.0246 H   0  0  0  0  0  0  0  0  0  0  0  0
   -1.0458    2.9656   -2.9731 C   0  0  0  0  0  0  0  0  0  0  0  0
   -0.8234    3.7426   -3.7192 H   0  0  0  0  0  0  0  0  0  0  0  0
   -1.7726    0.6682   -2.5122 C   0  0  0  0  0  0  0  0  0  0  0  0
   -2.1242   -0.3177   -2.8510 H   0  0  0  0  0  0  0  0  0  0  0  0
   -1.3051    1.5709    3.5094 C   0  0  0  0  0  0  0  0  0  0  0  0
   -1.3633    1.3516    4.5862 H   0  0  0  0  0  0  0  0  0  0  0  0
  1 23  1  0  0  0  0
  2 22  1  0  0  0  0
  2  8  1  0  0  0  0
  3  2  1  0  0  0  0
  4  5  1  0  0  0  0
  4  6  1  0  0  0  0
  6 11  1  0  0  0  0
  7  1  1  0  0  0  0
  8 10  1  0  0  0  0
  8 12  1  0  0  0  0
  9 12  1  0  0  0  0
  9 33  1  0  0  0  0
 10 21  1  0  0  0  0
 11  1  2  0  0  0  0
 11 31  1  0  0  0  0
 12 13  1  0  0  0  0
 14 15  1  0  0  0  0
 14 35  1  0  0  0  0
 16 45  1  0  0  0  0
 16 17  1  0  0  0  0
 18  6  2  0  0  0  0
 18  7  1  0  0  0  0
 19 37  2  0  0  0  0
 19 22  1  0  0  0  0
 20 19  1  0  0  0  0
 21  7  1  0  0  0  0
 21 35  2  0  0  0  0
 22  9  2  0  0  0  0
 23 24  1  0  0  0  0
 23 45  2  0  0  0  0
 25 14  2  0  0  0  0
 26 25  1  0  0  0  0
 27 41  1  0  0  0  0
 27 43  2  0  0  0  0
 28 27  1  0  0  0  0
 29 30  1  0  0  0  0
 29 33  2  0  0  0  0
 31 16  2  0  0  0  0
 32 31  1  0  0  0  0
 33 34  1  0  0  0  0
 35 36  1  0  0  0  0
 37 29  1  0  0  0  0
 38 37  1  0  0  0  0
 39 10  2  0  0  0  0
 39 25  1  0  0  0  0
 40 39  1  0  0  0  0
 41  4  2  0  0  0  0
 42 41  1  0  0  0  0
 43 18  1  0  0  0  0
 44 43  1  0  0  0  0
 45 46  1  0  0  0  0
M  END
