3,6,8
 OpenBabel05122313063D

 22 22  0  0  0  0  0  0  0  0999 V2000
   -2.7369   -0.4518   -1.4015 O   0  0  0  0  0  0  0  0  0  0  0  0
   -3.4885   -1.0707   -1.4300 H   0  0  0  0  0  0  0  0  0  0  0  0
   -0.5863    1.1025   -1.2026 C   0  0  0  0  0  3  0  0  0  0  0  0
    0.5977    1.8832   -1.1874 C   0  0  0  0  0  3  0  0  0  0  0  0
    1.0834    2.1633   -2.1315 H   0  0  0  0  0  0  0  0  0  0  0  0
    1.2022    2.2198    0.0601 C   0  0  0  0  0  3  0  0  0  0  0  0
    0.5946    1.8217    1.2779 C   0  0  0  0  0  3  0  0  0  0  0  0
   -0.5915    1.0288    1.2429 C   0  0  0  0  0  3  0  0  0  0  0  0
   -1.2134    0.6771    0.0108 C   0  0  0  0  0  3  0  0  0  0  0  0
   -2.5164   -0.1252   -0.0273 C   0  0  0  0  0  0  0  0  0  0  0  0
   -3.6621    0.7778    0.4758 C   0  0  0  0  0  0  0  0  0  0  0  0
   -2.4221   -1.4154    0.8004 C   0  0  0  0  0  0  0  0  0  0  0  0
   -1.0314    0.7784   -2.1514 H   0  0  0  0  0  0  0  0  0  0  0  0
    2.1537    2.7697    0.0778 H   0  0  0  0  0  0  0  0  0  0  0  0
    1.0733    2.0508    2.2391 H   0  0  0  0  0  0  0  0  0  0  0  0
   -1.0183    0.6717    2.1911 H   0  0  0  0  0  0  0  0  0  0  0  0
   -3.7342    1.6848   -0.1551 H   0  0  0  0  0  0  0  0  0  0  0  0
   -3.5088    1.0903    1.5281 H   0  0  0  0  0  0  0  0  0  0  0  0
   -4.6277    0.2336    0.4193 H   0  0  0  0  0  0  0  0  0  0  0  0
   -2.1828   -1.2204    1.8639 H   0  0  0  0  0  0  0  0  0  0  0  0
   -3.3955   -1.9497    0.7757 H   0  0  0  0  0  0  0  0  0  0  0  0
   -1.6369   -2.0733    0.3839 H   0  0  0  0  0  0  0  0  0  0  0  0
  1 10  1  0  0  0  0
  2  1  1  0  0  0  0
  3  4  1  0  0  0  0
  3  9  1  0  0  0  0
  4  6  1  0  0  0  0
  5  4  1  0  0  0  0
  6 14  1  0  0  0  0
  6  7  1  0  0  0  0
  7 15  1  0  0  0  0
  8  7  1  0  0  0  0
  8 16  1  0  0  0  0
  9  8  1  0  0  0  0
 10  9  1  0  0  0  0
 10 11  1  0  0  0  0
 10 12  1  0  0  0  0
 11 18  1  0  0  0  0
 12 20  1  0  0  0  0
 13  3  1  0  0  0  0
 17 11  1  0  0  0  0
 19 11  1  0  0  0  0
 21 12  1  0  0  0  0
 22 12  1  0  0  0  0
M  END
