3,7,11
 OpenBabel05122313063D

 22 23  0  0  0  0  0  0  0  0999 V2000
   -3.1226   -1.5480   -0.1338 Br  0  0  0  0  0  0  0  0  0  0  0  0
   -0.2260   -0.2860    0.4243 C   0  0  0  0  0  3  0  0  0  0  0  0
    0.5284   -0.3251    1.6331 C   0  0  0  0  0  3  0  0  0  0  0  0
    0.2889    0.3914    2.4317 H   0  0  0  0  0  0  0  0  0  0  0  0
    1.5838   -1.2692    1.8172 C   0  0  0  0  0  3  0  0  0  0  0  0
    2.1694   -1.2638    2.7460 H   0  0  0  0  0  0  0  0  0  0  0  0
    1.9225   -2.1506    0.7611 C   0  0  0  0  0  3  0  0  0  0  0  0
    2.7739   -2.8365    0.8733 H   0  0  0  0  0  0  0  0  0  0  0  0
    1.1870   -2.1260   -0.4631 C   0  0  0  0  0  3  0  0  0  0  0  0
    1.4762   -2.7817   -1.2951 H   0  0  0  0  0  0  0  0  0  0  0  0
    0.1421   -1.1858   -0.6322 C   0  0  0  0  0  3  0  0  0  0  0  0
   -0.3865   -1.1224   -1.5931 H   0  0  0  0  0  0  0  0  0  0  0  0
   -1.3284    0.6989    0.2516 C   0  0  0  0  0  0  0  0  0  0  0  0
   -2.6593    0.3015   -0.0154 C   0  0  0  0  0  0  0  0  0  0  0  0
   -3.6896    1.2433   -0.1670 C   0  0  0  0  0  0  0  0  0  0  0  0
   -4.7119    0.8975   -0.3745 H   0  0  0  0  0  0  0  0  0  0  0  0
   -3.4046    2.6097   -0.0423 C   0  0  0  0  0  0  0  0  0  0  0  0
   -4.2138    3.3452   -0.1647 H   0  0  0  0  0  0  0  0  0  0  0  0
   -2.0948    3.0302    0.2354 C   0  0  0  0  0  0  0  0  0  0  0  0
   -1.8621    4.1010    0.3293 H   0  0  0  0  0  0  0  0  0  0  0  0
   -1.0741    2.0830    0.3754 C   0  0  0  0  0  0  0  0  0  0  0  0
   -0.0385    2.4032    0.5623 H   0  0  0  0  0  0  0  0  0  0  0  0
  1 14  1  0  0  0  0
  2  3  1  0  0  0  0
  3  5  1  0  0  0  0
  3  4  1  0  0  0  0
  5  6  1  0  0  0  0
  7  8  1  0  0  0  0
  7  5  1  0  0  0  0
  9  7  1  0  0  0  0
 10  9  1  0  0  0  0
 11  9  1  0  0  0  0
 11  2  1  0  0  0  0
 12 11  1  0  0  0  0
 13 21  1  0  0  0  0
 13  2  1  0  0  0  0
 14 13  2  0  0  0  0
 15 17  2  0  0  0  0
 15 14  1  0  0  0  0
 16 15  1  0  0  0  0
 17 19  1  0  0  0  0
 18 17  1  0  0  0  0
 19 20  1  0  0  0  0
 19 21  2  0  0  0  0
 21 22  1  0  0  0  0
M  END
