5,9,13
 OpenBabel05122313063D

 24 25  0  0  0  0  0  0  0  0999 V2000
    2.9144    2.2210   -0.4490 N   0  0  0  0  0  0  0  0  0  0  0  0
    2.1699    2.7215    0.0391 H   0  0  0  0  0  0  0  0  0  0  0  0
    3.7897    2.7445   -0.4819 H   0  0  0  0  0  0  0  0  0  0  0  0
    0.5841    0.7381    0.4157 C   0  0  0  0  0  3  0  0  0  0  0  0
   -0.1618    0.5934    1.6241 C   0  0  0  0  0  3  0  0  0  0  0  0
    0.2589   -0.0222    2.4318 H   0  0  0  0  0  0  0  0  0  0  0  0
   -1.4339    1.2200    1.7972 C   0  0  0  0  0  3  0  0  0  0  0  0
   -1.9994    1.0671    2.7261 H   0  0  0  0  0  0  0  0  0  0  0  0
   -1.9948    1.9691    0.7330 C   0  0  0  0  0  3  0  0  0  0  0  0
   -2.9988    2.4035    0.8386 H   0  0  0  0  0  0  0  0  0  0  0  0
   -1.2768    2.1263   -0.4925 C   0  0  0  0  0  3  0  0  0  0  0  0
   -1.7308    2.6684   -1.3329 H   0  0  0  0  0  0  0  0  0  0  0  0
   -0.0197    1.4914   -0.6536 C   0  0  0  0  0  3  0  0  0  0  0  0
    0.5092    1.5585   -1.6144 H   0  0  0  0  0  0  0  0  0  0  0  0
    1.9108    0.0903    0.2435 C   0  0  0  0  0  0  0  0  0  0  0  0
    3.0365    0.8646   -0.1692 C   0  0  0  0  0  0  0  0  0  0  0  0
    4.2833    0.2135   -0.3269 C   0  0  0  0  0  0  0  0  0  0  0  0
    5.1541    0.8061   -0.6498 H   0  0  0  0  0  0  0  0  0  0  0  0
    4.4227   -1.1538   -0.0723 C   0  0  0  0  0  0  0  0  0  0  0  0
    5.4061   -1.6298   -0.2061 H   0  0  0  0  0  0  0  0  0  0  0  0
    3.3198   -1.9145    0.3509 C   0  0  0  0  0  0  0  0  0  0  0  0
    3.4211   -2.9918    0.5448 H   0  0  0  0  0  0  0  0  0  0  0  0
    2.0789   -1.2849    0.5013 C   0  0  0  0  0  0  0  0  0  0  0  0
    1.1946   -1.8695    0.7967 H   0  0  0  0  0  0  0  0  0  0  0  0
  1 16  1  0  0  0  0
  1  2  1  0  0  0  0
  3  1  1  0  0  0  0
  4  5  1  0  0  0  0
  5  7  1  0  0  0  0
  5  6  1  0  0  0  0
  7  8  1  0  0  0  0
  9 10  1  0  0  0  0
  9  7  1  0  0  0  0
 11  9  1  0  0  0  0
 12 11  1  0  0  0  0
 13 11  1  0  0  0  0
 13  4  1  0  0  0  0
 14 13  1  0  0  0  0
 15  4  1  0  0  0  0
 15 23  1  0  0  0  0
 16 15  2  0  0  0  0
 17 16  1  0  0  0  0
 17 19  2  0  0  0  0
 18 17  1  0  0  0  0
 19 21  1  0  0  0  0
 20 19  1  0  0  0  0
 21 23  2  0  0  0  0
 21 22  1  0  0  0  0
 23 24  1  0  0  0  0
M  END
