7,9,11
 OpenBabel05122313063D

 57 58  0  0  1  0  0  0  0  0999 V2000
    2.0170    0.5390   -0.1044 O   0  0  0  0  0  0  0  0  0  0  0  0
    2.6771   -0.5368   -2.0146 O   0  0  0  0  0  0  0  0  0  0  0  0
   -4.0695   -2.0185    1.1784 O   0  0  0  0  0  0  0  0  0  0  0  0
    3.3334   -1.3081    0.0702 N   0  0  0  0  0  0  0  0  0  0  0  0
   -1.6924   -1.0096   -1.2392 N   0  0  0  0  0  0  0  0  0  0  0  0
   -2.0884   -2.2208   -0.9223 N   0  0  0  0  0  0  0  0  0  0  0  0
    1.1540    1.3133   -0.8587 C   0  0  1  0  0  3  0  0  0  0  0  0
   -0.1105    0.7774   -1.2600 C   0  0  2  0  0  3  0  0  0  0  0  0
   -1.0126    1.6798   -1.9225 C   0  0  0  0  0  3  0  0  0  0  0  0
   -0.6439    3.0076   -2.2414 C   0  0  0  0  0  3  0  0  0  0  0  0
    0.6263    3.5053   -1.8242 C   0  0  0  0  0  3  0  0  0  0  0  0
    1.5365    2.6529   -1.1528 C   0  0  0  0  0  3  0  0  0  0  0  0
    2.6941   -0.4674   -0.7968 C   0  0  0  0  0  0  0  0  0  0  0  0
    3.2889   -1.2063    1.5489 C   0  0  0  0  0  0  0  0  0  0  0  0
    3.9391    0.0753    2.0861 C   0  0  0  0  0  0  0  0  0  0  0  0
    1.8892   -1.4496    2.1299 C   0  0  0  0  0  0  0  0  0  0  0  0
    4.0882   -2.4235   -0.5378 C   0  0  0  0  0  0  0  0  0  0  0  0
    5.5802   -2.3569   -0.1945 C   0  0  0  0  0  0  0  0  0  0  0  0
    3.4598   -3.7793   -0.1938 C   0  0  0  0  0  0  0  0  0  0  0  0
   -0.4982   -0.5838   -0.9203 C   0  0  0  0  0  0  0  0  0  0  0  0
   -3.5044   -2.5715   -1.0912 C   0  0  1  0  0  0  0  0  0  0  0  0
   -3.4917   -4.0842   -0.8161 C   0  0  0  0  0  0  0  0  0  0  0  0
   -2.3674   -4.2739    0.2226 C   0  0  0  0  0  0  0  0  0  0  0  0
   -1.3407   -3.1770   -0.1073 C   0  0  0  0  0  0  0  0  0  0  0  0
   -4.3937   -1.7386   -0.1650 C   0  0  0  0  0  0  0  0  0  0  0  0
   -4.6834   -1.1326    2.0922 C   0  0  0  0  0  0  0  0  0  0  0  0
   -2.0087    1.2937   -2.1773 H   0  0  0  0  0  0  0  0  0  0  0  0
   -1.3641    3.6751   -2.7325 H   0  0  0  0  0  0  0  0  0  0  0  0
    0.8947    4.5552   -2.0057 H   0  0  0  0  0  0  0  0  0  0  0  0
    2.5112    3.0123   -0.8000 H   0  0  0  0  0  0  0  0  0  0  0  0
    3.9248   -2.0511    1.8837 H   0  0  0  0  0  0  0  0  0  0  0  0
    4.9433    0.2226    1.6419 H   0  0  0  0  0  0  0  0  0  0  0  0
    3.3179    0.9642    1.8720 H   0  0  0  0  0  0  0  0  0  0  0  0
    4.0560    0.0021    3.1860 H   0  0  0  0  0  0  0  0  0  0  0  0
    1.2009   -0.6172    1.8952 H   0  0  0  0  0  0  0  0  0  0  0  0
    1.4588   -2.3940    1.7410 H   0  0  0  0  0  0  0  0  0  0  0  0
    1.9506   -1.5312    3.2336 H   0  0  0  0  0  0  0  0  0  0  0  0
    3.9762   -2.2598   -1.6271 H   0  0  0  0  0  0  0  0  0  0  0  0
    6.0082   -1.3768   -0.4833 H   0  0  0  0  0  0  0  0  0  0  0  0
    5.7696   -2.5123    0.8881 H   0  0  0  0  0  0  0  0  0  0  0  0
    6.1317   -3.1477   -0.7411 H   0  0  0  0  0  0  0  0  0  0  0  0
    3.5190   -4.0036    0.8917 H   0  0  0  0  0  0  0  0  0  0  0  0
    2.3935   -3.8058   -0.4959 H   0  0  0  0  0  0  0  0  0  0  0  0
    3.9885   -4.5935   -0.7285 H   0  0  0  0  0  0  0  0  0  0  0  0
    0.2246   -1.2008   -0.3594 H   0  0  0  0  0  0  0  0  0  0  0  0
   -3.8100   -2.3409   -2.1341 H   0  0  0  0  0  0  0  0  0  0  0  0
   -4.4710   -4.4517   -0.4541 H   0  0  0  0  0  0  0  0  0  0  0  0
   -3.2532   -4.6248   -1.7551 H   0  0  0  0  0  0  0  0  0  0  0  0
   -2.7742   -4.1002    1.2352 H   0  0  0  0  0  0  0  0  0  0  0  0
   -1.9226   -5.2871    0.1892 H   0  0  0  0  0  0  0  0  0  0  0  0
   -0.9496   -2.6759    0.8073 H   0  0  0  0  0  0  0  0  0  0  0  0
   -0.4577   -3.5517   -0.6777 H   0  0  0  0  0  0  0  0  0  0  0  0
   -4.2220   -0.6596   -0.3978 H   0  0  0  0  0  0  0  0  0  0  0  0
   -5.4703   -1.9628   -0.3807 H   0  0  0  0  0  0  0  0  0  0  0  0
   -4.3816   -0.0765    1.9061 H   0  0  0  0  0  0  0  0  0  0  0  0
   -5.7983   -1.1945    2.0465 H   0  0  0  0  0  0  0  0  0  0  0  0
   -4.3580   -1.4255    3.1092 H   0  0  0  0  0  0  0  0  0  0  0  0
  2 13  2  0  0  0  0
  3 26  1  0  0  0  0
  4 14  1  0  0  0  0
  5  6  1  0  0  0  0
  5 20  2  0  0  0  0
  6 24  1  0  0  0  0
  7  1  1  1  0  0  0
  8 20  1  1  0  0  0
  8  7  1  0  0  0  0
  9  8  1  0  0  0  0
 10  9  1  0  0  0  0
 10 11  1  0  0  0  0
 11 12  1  0  0  0  0
 12  7  1  0  0  0  0
 12 30  1  0  0  0  0
 13  1  1  0  0  0  0
 13  4  1  0  0  0  0
 14 31  1  0  0  0  0
 14 15  1  0  0  0  0
 14 16  1  0  0  0  0
 15 34  1  0  0  0  0
 16 37  1  0  0  0  0
 17 18  1  0  0  0  0
 17 19  1  0  0  0  0
 17  4  1  0  0  0  0
 18 40  1  0  0  0  0
 19 42  1  0  0  0  0
 20 45  1  0  0  0  0
 21 46  1  6  0  0  0
 21  6  1  0  0  0  0
 21 22  1  0  0  0  0
 21 25  1  0  0  0  0
 22 47  1  0  0  0  0
 22 23  1  0  0  0  0
 23 49  1  0  0  0  0
 24 23  1  0  0  0  0
 24 51  1  0  0  0  0
 25  3  1  0  0  0  0
 26 57  1  0  0  0  0
 27  9  1  0  0  0  0
 28 10  1  0  0  0  0
 29 11  1  0  0  0  0
 32 15  1  0  0  0  0
 33 15  1  0  0  0  0
 35 16  1  0  0  0  0
 36 16  1  0  0  0  0
 38 17  1  0  0  0  0
 39 18  1  0  0  0  0
 41 18  1  0  0  0  0
 43 19  1  0  0  0  0
 44 19  1  0  0  0  0
 48 22  1  0  0  0  0
 50 23  1  0  0  0  0
 52 24  1  0  0  0  0
 53 25  1  0  0  0  0
 54 25  1  0  0  0  0
 55 26  1  0  0  0  0
 56 26  1  0  0  0  0
M  END
