2,24,30
 OpenBabel05122313063D

 39 41  0  0  1  0  0  0  0  0999 V2000
    2.3077   -0.7817    0.0094 N   0  0  0  0  0  0  0  0  0  0  0  0
    1.0345   -1.0868    0.4943 C   0  0  0  0  0  2  0  0  0  0  0  0
    0.9137   -2.2146    1.3478 C   0  0  0  0  0  0  0  0  0  0  0  0
   -0.0932   -2.4622    1.7123 H   0  0  0  0  0  0  0  0  0  0  0  0
    2.0192   -2.9814    1.6872 C   0  0  0  0  0  0  0  0  0  0  0  0
    1.9149   -3.8707    2.3279 H   0  0  0  0  0  0  0  0  0  0  0  0
    3.2947   -2.5771    1.2426 C   0  0  0  0  0  0  0  0  0  0  0  0
    4.2073   -3.0935    1.5687 H   0  0  0  0  0  0  0  0  0  0  0  0
    3.4346   -1.4426    0.4403 C   0  0  0  0  0  0  0  0  0  0  0  0
    4.8093   -0.9261    0.2029 C   0  0  0  0  0  0  0  0  0  0  0  0
    5.7539   -1.6884   -0.5122 C   0  0  0  0  0  0  0  0  0  0  0  0
    5.4437   -2.6411   -0.9677 H   0  0  0  0  0  0  0  0  0  0  0  0
    7.0683   -1.2232   -0.6650 C   0  0  0  0  0  0  0  0  0  0  0  0
    7.7948   -1.8182   -1.2389 H   0  0  0  0  0  0  0  0  0  0  0  0
    7.4548   -0.0017   -0.0913 C   0  0  0  0  0  0  0  0  0  0  0  0
    8.4858    0.3633   -0.2130 H   0  0  0  0  0  0  0  0  0  0  0  0
    6.5237    0.7491    0.6457 C   0  0  0  0  0  0  0  0  0  0  0  0
    6.8236    1.7008    1.1099 H   0  0  0  0  0  0  0  0  0  0  0  0
    5.2083    0.2904    0.7974 C   0  0  0  0  0  0  0  0  0  0  0  0
    4.4768    0.8790    1.3699 H   0  0  0  0  0  0  0  0  0  0  0  0
    0.6831    0.0584   -3.0235 C   0  0  0  0  0  0  0  0  0  0  0  0
    1.5039    0.1144   -3.7584 H   0  0  0  0  0  0  0  0  0  0  0  0
   -0.3342   -0.0612   -3.4297 H   0  0  0  0  0  0  0  0  0  0  0  0
    0.8719    0.1403   -1.6888 C   0  0  0  0  0  3  0  0  0  0  0  0
    2.2539    0.3699   -1.0218 C   0  0  2  0  0  0  0  0  0  0  0  0
    3.4207    0.4018   -1.9956 C   0  0  0  0  0  0  0  0  0  0  0  0
    3.5824   -0.5876   -2.4644 H   0  0  0  0  0  0  0  0  0  0  0  0
    4.3717    0.7385   -1.5527 H   0  0  0  0  0  0  0  0  0  0  0  0
    3.1556    1.1199   -2.7947 H   0  0  0  0  0  0  0  0  0  0  0  0
    0.7324    1.6506    0.3995 C   0  0  0  0  0  3  0  0  0  0  0  0
    2.0248    1.6354   -0.1946 C   0  0  0  0  0  0  0  0  0  0  0  0
    2.9233    2.6999   -0.0344 C   0  0  0  0  0  0  0  0  0  0  0  0
    3.9074    2.6874   -0.5285 H   0  0  0  0  0  0  0  0  0  0  0  0
    2.5507    3.8018    0.7576 C   0  0  0  0  0  0  0  0  0  0  0  0
    3.2442    4.6472    0.8850 H   0  0  0  0  0  0  0  0  0  0  0  0
    1.2893    3.8215    1.3784 C   0  0  0  0  0  0  0  0  0  0  0  0
    1.0016    4.6848    1.9999 H   0  0  0  0  0  0  0  0  0  0  0  0
    0.3862    2.7576    1.2014 C   0  0  0  0  0  0  0  0  0  0  0  0
   -0.6080    2.7975    1.6750 H   0  0  0  0  0  0  0  0  0  0  0  0
  1  9  1  0  0  0  0
  1  2  1  0  0  0  0
  2  3  1  0  0  0  0
  3  5  2  0  0  0  0
  3  4  1  0  0  0  0
  5  6  1  0  0  0  0
  7  8  1  0  0  0  0
  7  5  1  0  0  0  0
  9  7  2  0  0  0  0
 10  9  1  0  0  0  0
 10 19  1  0  0  0  0
 11 10  2  0  0  0  0
 12 11  1  0  0  0  0
 13 11  1  0  0  0  0
 13 15  2  0  0  0  0
 14 13  1  0  0  0  0
 15 17  1  0  0  0  0
 16 15  1  0  0  0  0
 17 19  2  0  0  0  0
 17 18  1  0  0  0  0
 19 20  1  0  0  0  0
 21 24  2  0  0  0  0
 22 21  1  0  0  0  0
 23 21  1  0  0  0  0
 25 24  1  6  0  0  0
 25 31  1  0  0  0  0
 25  1  1  0  0  0  0
 26 28  1  0  0  0  0
 26 25  1  0  0  0  0
 27 26  1  0  0  0  0
 29 26  1  0  0  0  0
 30 38  1  0  0  0  0
 31 32  1  0  0  0  0
 31 30  2  0  0  0  0
 32 34  2  0  0  0  0
 33 32  1  0  0  0  0
 34 35  1  0  0  0  0
 34 36  1  0  0  0  0
 36 37  1  0  0  0  0
 38 36  2  0  0  0  0
 38 39  1  0  0  0  0
M  END
