2,4,6
 OpenBabel05122313063D

 18 18  0  0  0  0  0  0  0  0999 V2000
    0.9162   -1.4096   -1.9164 C   0  0  0  0  0  3  0  0  0  0  0  0
   -0.3257   -0.7398   -1.7700 C   0  0  0  0  0  3  0  0  0  0  0  0
   -1.2118   -1.0658   -0.6935 C   0  0  0  0  0  3  0  0  0  0  0  0
   -0.8092   -2.0489    0.2626 C   0  0  0  0  0  3  0  0  0  0  0  0
    0.4326   -2.7273    0.1227 C   0  0  0  0  0  3  0  0  0  0  0  0
    1.3066   -2.3747   -0.9440 C   0  0  0  0  0  3  0  0  0  0  0  0
   -2.4305   -0.2197   -0.5272 C   0  0  0  0  0  0  0  0  0  0  0  0
   -4.1999    0.3546    0.9104 C   0  0  0  0  0  0  0  0  0  0  0  0
   -3.0759   -0.4902    0.6305 O   0  0  0  0  0  0  0  0  0  0  0  0
   -2.7895    0.6220   -1.3316 O   0  0  0  0  0  0  0  0  0  0  0  0
    1.6068   -1.1190   -2.7191 H   0  0  0  0  0  0  0  0  0  0  0  0
   -0.6318    0.0550   -2.4648 H   0  0  0  0  0  0  0  0  0  0  0  0
   -1.4615   -2.2482    1.1227 H   0  0  0  0  0  0  0  0  0  0  0  0
    0.7516   -3.4532    0.8822 H   0  0  0  0  0  0  0  0  0  0  0  0
    2.3005   -2.8398   -1.0079 H   0  0  0  0  0  0  0  0  0  0  0  0
   -3.8776    1.4131    0.9785 H   0  0  0  0  0  0  0  0  0  0  0  0
   -4.6072    0.0109    1.8773 H   0  0  0  0  0  0  0  0  0  0  0  0
   -4.9642    0.2716    0.1121 H   0  0  0  0  0  0  0  0  0  0  0  0
  1  2  1  0  0  0  0
  1  6  1  0  0  0  0
  2  3  1  0  0  0  0
  3  7  1  0  0  0  0
  3  4  1  0  0  0  0
  4 13  1  0  0  0  0
  5  4  1  0  0  0  0
  5 14  1  0  0  0  0
  6  5  1  0  0  0  0
  7  9  1  0  0  0  0
  8 16  1  0  0  0  0
  8 17  1  0  0  0  0
  9  8  1  0  0  0  0
 10  7  2  0  0  0  0
 11  1  1  0  0  0  0
 12  2  1  0  0  0  0
 15  6  1  0  0  0  0
 18  8  1  0  0  0  0
M  END
