3,5,7
 OpenBabel05122313063D

 18 18  0  0  1  0  0  0  0  0999 V2000
   -3.8599    0.4641   -0.2772 Cl  0  0  0  0  0  0  0  0  0  0  0  0
   -1.1786    0.4047    0.0829 C   0  0  0  0  0  3  0  0  0  0  0  0
   -0.6011    1.2169   -0.9451 C   0  0  0  0  0  3  0  0  0  0  0  0
    0.4684    2.1082   -0.6753 C   0  0  0  0  0  3  0  0  0  0  0  0
    1.0155    2.1610    0.6391 C   0  0  0  0  0  3  0  0  0  0  0  0
    0.4487    1.3851    1.6846 C   0  0  0  0  0  3  0  0  0  0  0  0
   -0.6253    0.4964    1.3939 C   0  0  0  0  0  3  0  0  0  0  0  0
   -2.3070   -0.5316   -0.2640 C   0  0  1  0  0  0  0  0  0  0  0  0
   -2.4962   -1.7358    0.6415 C   0  0  0  0  0  0  0  0  0  0  0  0
   -0.9876    1.1275   -1.9710 H   0  0  0  0  0  0  0  0  0  0  0  0
    0.9211    2.6897   -1.4890 H   0  0  0  0  0  0  0  0  0  0  0  0
    1.8905    2.7947    0.8415 H   0  0  0  0  0  0  0  0  0  0  0  0
    0.8859    1.4072    2.6915 H   0  0  0  0  0  0  0  0  0  0  0  0
   -1.0113   -0.1522    2.1916 H   0  0  0  0  0  0  0  0  0  0  0  0
   -2.1853   -0.8568   -1.3152 H   0  0  0  0  0  0  0  0  0  0  0  0
   -2.7514   -1.4301    1.6747 H   0  0  0  0  0  0  0  0  0  0  0  0
   -1.5694   -2.3438    0.6657 H   0  0  0  0  0  0  0  0  0  0  0  0
   -3.3242   -2.3649    0.2651 H   0  0  0  0  0  0  0  0  0  0  0  0
  1  8  1  0  0  0  0
  2  7  1  0  0  0  0
  3  4  1  0  0  0  0
  3  2  1  0  0  0  0
  4  5  1  0  0  0  0
  5 12  1  0  0  0  0
  5  6  1  0  0  0  0
  6 13  1  0  0  0  0
  7  6  1  0  0  0  0
  7 14  1  0  0  0  0
  8 15  1  6  0  0  0
  8  2  1  0  0  0  0
  8  9  1  0  0  0  0
  9 17  1  0  0  0  0
  9 16  1  0  0  0  0
 10  3  1  0  0  0  0
 11  4  1  0  0  0  0
 18  9  1  0  0  0  0
M  END
