11,14,17
 OpenBabel05122313063D

 21 21  0  0  1  0  0  0  0  0999 V2000
   -1.7699   -3.2851   -0.9266 O   0  0  0  0  0  0  0  0  0  0  0  0
    0.1812    3.7116   -0.9147 O   0  0  0  0  0  0  0  0  0  0  0  0
   -3.2937   -1.6053   -0.8731 O   0  0  0  0  0  0  0  0  0  0  0  0
   -3.8794   -2.3876   -0.7841 H   0  0  0  0  0  0  0  0  0  0  0  0
   -1.9924    3.0647   -0.8626 O   0  0  0  0  0  0  0  0  0  0  0  0
   -2.0882    4.0369   -0.7697 H   0  0  0  0  0  0  0  0  0  0  0  0
    3.6721    0.1899   -0.8821 O   0  0  0  0  0  0  0  0  0  0  0  0
    4.5641   -0.2100   -0.7963 H   0  0  0  0  0  0  0  0  0  0  0  0
    3.1496   -2.0173   -0.9360 O   0  0  0  0  0  0  0  0  0  0  0  0
   -1.0118   -1.0126   -1.0635 C   0  0  1  0  0  3  0  0  0  0  0  0
   -1.3616    0.3715   -1.0289 C   0  0  0  0  0  3  0  0  0  0  0  0
   -2.4163    0.6646   -0.9659 H   0  0  0  0  0  0  0  0  0  0  0  0
   -0.3477    1.3761   -1.0593 C   0  0  2  0  0  3  0  0  0  0  0  0
    1.0237    0.9852   -1.0366 C   0  0  0  0  0  3  0  0  0  0  0  0
    1.7922    1.7672   -0.9786 H   0  0  0  0  0  0  0  0  0  0  0  0
    1.3883   -0.3935   -1.0672 C   0  0  2  0  0  3  0  0  0  0  0  0
    0.3638   -1.3838   -1.0446 C   0  0  0  0  0  3  0  0  0  0  0  0
    0.6382   -2.4467   -0.9921 H   0  0  0  0  0  0  0  0  0  0  0  0
   -2.0325   -2.0971   -0.9469 C   0  0  0  0  0  0  0  0  0  0  0  0
   -0.6595    2.8315   -0.9377 C   0  0  0  0  0  0  0  0  0  0  0  0
    2.8067   -0.8498   -0.9545 C   0  0  0  0  0  0  0  0  0  0  0  0
  3  4  1  0  0  0  0
  5  6  1  0  0  0  0
  7  8  1  0  0  0  0
 10 17  1  0  0  0  0
 10 11  1  0  0  0  0
 10 19  1  1  0  0  0
 11 12  1  0  0  0  0
 13 14  1  0  0  0  0
 13 11  1  0  0  0  0
 13 20  1  1  0  0  0
 14 15  1  0  0  0  0
 16 17  1  0  0  0  0
 16 14  1  0  0  0  0
 16 21  1  1  0  0  0
 17 18  1  0  0  0  0
 19  1  2  0  0  0  0
 19  3  1  0  0  0  0
 20  2  2  0  0  0  0
 20  5  1  0  0  0  0
 21  9  2  0  0  0  0
 21  7  1  0  0  0  0
M  END
