1,11,24
 OpenBabel05122313063D

 35 37  0  0  0  0  0  0  0  0999 V2000
    0.3660    1.7669    0.0004 C   0  0  0  0  0  3  0  0  0  0  0  0
    1.7025    2.2406    0.0003 C   0  0  0  0  0  0  0  0  0  0  0  0
    1.9838    3.6235    0.0006 C   0  0  0  0  0  0  0  0  0  0  0  0
    3.0241    3.9875    0.0005 H   0  0  0  0  0  0  0  0  0  0  0  0
    0.9277    4.5522    0.0009 C   0  0  0  0  0  0  0  0  0  0  0  0
    1.1467    5.6311    0.0011 H   0  0  0  0  0  0  0  0  0  0  0  0
   -0.4059    4.1087    0.0009 C   0  0  0  0  0  0  0  0  0  0  0  0
   -1.2242    4.8470    0.0011 H   0  0  0  0  0  0  0  0  0  0  0  0
   -0.6856    2.7233    0.0006 C   0  0  0  0  0  0  0  0  0  0  0  0
    2.6949    1.1538   -0.0001 C   0  0  0  0  0  0  0  0  0  0  0  0
    2.1214   -0.1560   -0.0001 C   0  0  0  0  0  3  0  0  0  0  0  0
    3.0105   -1.2588   -0.0006 C   0  0  0  0  0  0  0  0  0  0  0  0
    2.6171   -2.2904   -0.0008 H   0  0  0  0  0  0  0  0  0  0  0  0
    4.4143   -1.1102   -0.0010 C   0  0  0  0  0  0  0  0  0  0  0  0
    4.9402    0.2005   -0.0011 C   0  0  0  0  0  0  0  0  0  0  0  0
    6.0332    0.3441   -0.0015 H   0  0  0  0  0  0  0  0  0  0  0  0
    4.0958    1.3178   -0.0006 C   0  0  0  0  0  0  0  0  0  0  0  0
    4.5360    2.3276   -0.0007 H   0  0  0  0  0  0  0  0  0  0  0  0
    5.3314   -2.3085   -0.0008 C   0  0  0  0  0  0  0  0  0  0  0  0
    5.9909   -2.3173    0.8928 H   0  0  0  0  0  0  0  0  0  0  0  0
    5.9998   -2.3109   -0.8878 H   0  0  0  0  0  0  0  0  0  0  0  0
    4.7600   -3.2575   -0.0069 H   0  0  0  0  0  0  0  0  0  0  0  0
   -2.0151    2.1005    0.0005 C   0  0  0  0  0  0  0  0  0  0  0  0
   -1.9632    0.6700    0.0007 C   0  0  0  0  0  3  0  0  0  0  0  0
   -3.1850   -0.0449    0.0003 C   0  0  0  0  0  0  0  0  0  0  0  0
   -3.1759   -1.1487    0.0003 H   0  0  0  0  0  0  0  0  0  0  0  0
   -4.4372    0.6035   -0.0003 C   0  0  0  0  0  0  0  0  0  0  0  0
   -4.4494    2.0176   -0.0007 C   0  0  0  0  0  0  0  0  0  0  0  0
   -5.4171    2.5463   -0.0015 H   0  0  0  0  0  0  0  0  0  0  0  0
   -3.2599    2.7601   -0.0002 C   0  0  0  0  0  0  0  0  0  0  0  0
   -3.3092    3.8608   -0.0008 H   0  0  0  0  0  0  0  0  0  0  0  0
   -5.7266   -0.1804    0.0009 C   0  0  0  0  0  0  0  0  0  0  0  0
   -6.3553    0.0656   -0.8811 H   0  0  0  0  0  0  0  0  0  0  0  0
   -6.3395    0.0430    0.9000 H   0  0  0  0  0  0  0  0  0  0  0  0
   -5.5349   -1.2711   -0.0141 H   0  0  0  0  0  0  0  0  0  0  0  0
  1  9  1  0  0  0  0
  2  1  2  0  0  0  0
  2  3  1  0  0  0  0
  3  5  2  0  0  0  0
  4  3  1  0  0  0  0
  5  7  1  0  0  0  0
  5  6  1  0  0  0  0
  7  8  1  0  0  0  0
  9  7  2  0  0  0  0
 10  2  1  0  0  0  0
 11 10  1  0  0  0  0
 12 11  2  0  0  0  0
 13 12  1  0  0  0  0
 14 19  1  0  0  0  0
 14 12  1  0  0  0  0
 15 14  2  0  0  0  0
 15 17  1  0  0  0  0
 16 15  1  0  0  0  0
 17 10  2  0  0  0  0
 18 17  1  0  0  0  0
 19 20  1  0  0  0  0
 21 19  1  0  0  0  0
 22 19  1  0  0  0  0
 23  9  1  0  0  0  0
 23 24  1  0  0  0  0
 25 26  1  0  0  0  0
 25 24  2  0  0  0  0
 27 25  1  0  0  0  0
 27 32  1  0  0  0  0
 28 27  2  0  0  0  0
 28 30  1  0  0  0  0
 29 28  1  0  0  0  0
 30 23  2  0  0  0  0
 31 30  1  0  0  0  0
 32 34  1  0  0  0  0
 33 32  1  0  0  0  0
 35 32  1  0  0  0  0
M  END
