4,6,8
 OpenBabel05122313063D

 41 41  0  0  1  0  0  0  0  0999 V2000
    3.5434    1.1399    0.4196 Si  0  0  0  0  0  0  0  0  0  0  0  0
   -3.3173    1.4423   -0.9192 O   0  0  0  0  0  0  0  0  0  0  0  0
   -3.1933   -0.3254    0.6247 O   0  0  0  0  0  0  0  0  0  0  0  0
   -1.1621    0.5221   -0.2473 C   0  0  2  0  0  3  0  0  0  0  0  0
   -0.6144    0.4560    1.0681 C   0  0  0  0  0  3  0  0  0  0  0  0
    0.7793    0.6491    1.2558 C   0  0  0  0  0  3  0  0  0  0  0  0
    1.6643    0.9617    0.1700 C   0  0  2  0  0  3  0  0  0  0  0  0
    1.0748    1.0403   -1.1314 C   0  0  0  0  0  3  0  0  0  0  0  0
   -0.3203    0.8585   -1.3442 C   0  0  0  0  0  3  0  0  0  0  0  0
   -2.6413    0.2676   -0.5148 C   0  0  0  0  0  0  0  0  0  0  0  0
   -3.2947    2.5175    0.0252 C   0  0  0  0  0  0  0  0  0  0  0  0
   -4.2400    3.5958   -0.4691 C   0  0  0  0  0  0  0  0  0  0  0  0
   -4.4233   -1.0149    0.3852 C   0  0  0  0  0  0  0  0  0  0  0  0
   -4.9369   -1.5502    1.7066 C   0  0  0  0  0  0  0  0  0  0  0  0
    4.4437    0.4051   -1.0683 C   0  0  0  0  0  0  0  0  0  0  0  0
    3.9321    2.9890    0.5560 C   0  0  0  0  0  0  0  0  0  0  0  0
    4.0417    0.2569    2.0124 C   0  0  0  0  0  0  0  0  0  0  0  0
   -1.2677    0.1622    1.8988 H   0  0  0  0  0  0  0  0  0  0  0  0
    1.1933    0.5162    2.2665 H   0  0  0  0  0  0  0  0  0  0  0  0
    1.7180    1.2153   -2.0070 H   0  0  0  0  0  0  0  0  0  0  0  0
   -0.7398    0.9008   -2.3589 H   0  0  0  0  0  0  0  0  0  0  0  0
   -2.7388   -0.4063   -1.3968 H   0  0  0  0  0  0  0  0  0  0  0  0
   -3.6019    2.1456    1.0286 H   0  0  0  0  0  0  0  0  0  0  0  0
   -2.2582    2.9185    0.1249 H   0  0  0  0  0  0  0  0  0  0  0  0
   -4.2403    4.4596    0.2251 H   0  0  0  0  0  0  0  0  0  0  0  0
   -5.2751    3.2070   -0.5447 H   0  0  0  0  0  0  0  0  0  0  0  0
   -3.9349    3.9543   -1.4724 H   0  0  0  0  0  0  0  0  0  0  0  0
   -5.1569   -0.3202   -0.0831 H   0  0  0  0  0  0  0  0  0  0  0  0
   -4.2360   -1.8465   -0.3343 H   0  0  0  0  0  0  0  0  0  0  0  0
   -5.8830   -2.1065    1.5558 H   0  0  0  0  0  0  0  0  0  0  0  0
   -5.1283   -0.7245    2.4209 H   0  0  0  0  0  0  0  0  0  0  0  0
   -4.1965   -2.2385    2.1606 H   0  0  0  0  0  0  0  0  0  0  0  0
    4.1739    0.9196   -2.0133 H   0  0  0  0  0  0  0  0  0  0  0  0
    4.2130   -0.6717   -1.1902 H   0  0  0  0  0  0  0  0  0  0  0  0
    5.5402    0.5121   -0.9366 H   0  0  0  0  0  0  0  0  0  0  0  0
    3.6260    3.5308   -0.3623 H   0  0  0  0  0  0  0  0  0  0  0  0
    5.0198    3.1548    0.7016 H   0  0  0  0  0  0  0  0  0  0  0  0
    3.3995    3.4480    1.4139 H   0  0  0  0  0  0  0  0  0  0  0  0
    3.5678    0.7154    2.9046 H   0  0  0  0  0  0  0  0  0  0  0  0
    5.1401    0.3289    2.1514 H   0  0  0  0  0  0  0  0  0  0  0  0
    3.7692   -0.8170    1.9893 H   0  0  0  0  0  0  0  0  0  0  0  0
  1 16  1  0  0  0  0
  1 17  1  0  0  0  0
  2 10  1  0  0  0  0
  2 11  1  0  0  0  0
  4 10  1  1  0  0  0
  4  5  1  0  0  0  0
  5  6  1  0  0  0  0
  5 18  1  0  0  0  0
  6 19  1  0  0  0  0
  7  1  1  6  0  0  0
  7  6  1  0  0  0  0
  8  7  1  0  0  0  0
  9  8  1  0  0  0  0
  9  4  1  0  0  0  0
 10  3  1  0  0  0  0
 11 24  1  0  0  0  0
 11 23  1  0  0  0  0
 12 11  1  0  0  0  0
 12 25  1  0  0  0  0
 13  3  1  0  0  0  0
 13 14  1  0  0  0  0
 14 32  1  0  0  0  0
 14 31  1  0  0  0  0
 15 35  1  0  0  0  0
 15  1  1  0  0  0  0
 16 37  1  0  0  0  0
 16 38  1  0  0  0  0
 17 40  1  0  0  0  0
 17 39  1  0  0  0  0
 20  8  1  0  0  0  0
 21  9  1  0  0  0  0
 22 10  1  0  0  0  0
 26 12  1  0  0  0  0
 27 12  1  0  0  0  0
 28 13  1  0  0  0  0
 29 13  1  0  0  0  0
 30 14  1  0  0  0  0
 33 15  1  0  0  0  0
 34 15  1  0  0  0  0
 36 16  1  0  0  0  0
 41 17  1  0  0  0  0
M  END
