4,6,8
 OpenBabel05122313063D

 62 66  0  0  1  0  0  0  0  0999 V2000
   -1.9278   -0.5477    0.3556 P   0  0  0  0  0  0  0  0  0  0  0  0
    1.8279   -0.2617    0.0246 P   0  0  0  0  0  0  0  0  0  0  0  0
   -1.0284    0.3233   -1.0143 C   0  0  2  0  0  3  0  0  0  0  0  0
    0.0707   -0.3059   -1.7177 C   0  0  1  0  0  3  0  0  0  0  0  0
    0.7138    0.3893   -2.7924 C   0  0  0  0  0  3  0  0  0  0  0  0
    0.3951    1.7511   -3.0760 C   0  0  0  0  0  3  0  0  0  0  0  0
   -0.6626    2.3928   -2.3837 C   0  0  0  0  0  3  0  0  0  0  0  0
   -1.3454    1.6841   -1.3622 C   0  0  0  0  0  3  0  0  0  0  0  0
    0.9007   -1.4563   -1.1263 C   0  0  2  0  0  0  0  0  0  0  0  0
    0.2513   -2.7242   -0.5873 C   0  0  0  0  0  0  0  0  0  0  0  0
   -3.0855   -1.6190   -0.6176 C   0  0  0  0  0  0  0  0  0  0  0  0
   -3.2332   -1.5570   -2.0184 C   0  0  0  0  0  0  0  0  0  0  0  0
   -4.1056   -2.4362   -2.6807 C   0  0  0  0  0  0  0  0  0  0  0  0
   -4.8447   -3.3820   -1.9532 C   0  0  0  0  0  0  0  0  0  0  0  0
   -4.7042   -3.4506   -0.5567 C   0  0  0  0  0  0  0  0  0  0  0  0
   -3.8238   -2.5826    0.1040 C   0  0  0  0  0  0  0  0  0  0  0  0
   -3.0781    0.7823    0.9346 C   0  0  0  0  0  0  0  0  0  0  0  0
   -4.3710    0.9817    0.4056 C   0  0  0  0  0  0  0  0  0  0  0  0
   -5.1888    2.0090    0.9011 C   0  0  0  0  0  0  0  0  0  0  0  0
   -4.7241    2.8547    1.9213 C   0  0  0  0  0  0  0  0  0  0  0  0
   -3.4399    2.6616    2.4552 C   0  0  0  0  0  0  0  0  0  0  0  0
   -2.6284    1.6239    1.9747 C   0  0  0  0  0  0  0  0  0  0  0  0
    1.5976   -0.8665    1.7530 C   0  0  0  0  0  0  0  0  0  0  0  0
    0.8556   -0.0921    2.6628 C   0  0  0  0  0  0  0  0  0  0  0  0
    0.6408   -0.5491    3.9718 C   0  0  0  0  0  0  0  0  0  0  0  0
    1.1575   -1.7890    4.3771 C   0  0  0  0  0  0  0  0  0  0  0  0
    1.9063   -2.5640    3.4752 C   0  0  0  0  0  0  0  0  0  0  0  0
    2.1334   -2.1026    2.1709 C   0  0  0  0  0  0  0  0  0  0  0  0
    3.6222   -0.5984   -0.2296 C   0  0  0  0  0  0  0  0  0  0  0  0
    4.5342    0.3829    0.2132 C   0  0  0  0  0  0  0  0  0  0  0  0
    5.9139    0.1831    0.0703 C   0  0  0  0  0  0  0  0  0  0  0  0
    6.4001   -0.9941   -0.5220 C   0  0  0  0  0  0  0  0  0  0  0  0
    5.4996   -1.9735   -0.9676 C   0  0  0  0  0  0  0  0  0  0  0  0
    4.1167   -1.7782   -0.8214 C   0  0  0  0  0  0  0  0  0  0  0  0
    1.5653   -0.0844   -3.3006 H   0  0  0  0  0  0  0  0  0  0  0  0
    0.9834    2.3006   -3.8243 H   0  0  0  0  0  0  0  0  0  0  0  0
   -0.8938    3.4505   -2.5678 H   0  0  0  0  0  0  0  0  0  0  0  0
   -2.1231    2.2013   -0.7844 H   0  0  0  0  0  0  0  0  0  0  0  0
    1.6319   -1.7353   -1.9110 H   0  0  0  0  0  0  0  0  0  0  0  0
    1.0241   -3.4955   -0.3956 H   0  0  0  0  0  0  0  0  0  0  0  0
   -0.2913   -2.5524    0.3616 H   0  0  0  0  0  0  0  0  0  0  0  0
   -0.4682   -3.1359   -1.3248 H   0  0  0  0  0  0  0  0  0  0  0  0
   -2.6630   -0.8129   -2.5946 H   0  0  0  0  0  0  0  0  0  0  0  0
   -4.2115   -2.3773   -3.7751 H   0  0  0  0  0  0  0  0  0  0  0  0
   -5.5283   -4.0694   -2.4743 H   0  0  0  0  0  0  0  0  0  0  0  0
   -5.2774   -4.1926    0.0201 H   0  0  0  0  0  0  0  0  0  0  0  0
   -3.7031   -2.6490    1.1977 H   0  0  0  0  0  0  0  0  0  0  0  0
   -4.7366    0.3300   -0.4021 H   0  0  0  0  0  0  0  0  0  0  0  0
   -6.1964    2.1532    0.4813 H   0  0  0  0  0  0  0  0  0  0  0  0
   -5.3654    3.6637    2.3032 H   0  0  0  0  0  0  0  0  0  0  0  0
   -3.0652    3.3195    3.2538 H   0  0  0  0  0  0  0  0  0  0  0  0
   -1.6287    1.4709    2.4056 H   0  0  0  0  0  0  0  0  0  0  0  0
    0.4623    0.8814    2.3405 H   0  0  0  0  0  0  0  0  0  0  0  0
    0.0635    0.0680    4.6771 H   0  0  0  0  0  0  0  0  0  0  0  0
    0.9841   -2.1513    5.4020 H   0  0  0  0  0  0  0  0  0  0  0  0
    2.3229   -3.5322    3.7926 H   0  0  0  0  0  0  0  0  0  0  0  0
    2.7426   -2.7023    1.4775 H   0  0  0  0  0  0  0  0  0  0  0  0
    4.1577    1.3130    0.6649 H   0  0  0  0  0  0  0  0  0  0  0  0
    6.6145    0.9580    0.4164 H   0  0  0  0  0  0  0  0  0  0  0  0
    7.4837   -1.1465   -0.6398 H   0  0  0  0  0  0  0  0  0  0  0  0
    5.8738   -2.8987   -1.4321 H   0  0  0  0  0  0  0  0  0  0  0  0
    3.4245   -2.5599   -1.1709 H   0  0  0  0  0  0  0  0  0  0  0  0
  1 17  1  0  0  0  0
  2 23  1  0  0  0  0
  3  1  1  1  0  0  0
  4  9  1  1  0  0  0
  4  3  1  0  0  0  0
  5  4  1  0  0  0  0
  6  5  1  0  0  0  0
  6  7  1  0  0  0  0
  7  8  1  0  0  0  0
  8  3  1  0  0  0  0
  8 38  1  0  0  0  0
  9 39  1  6  0  0  0
  9 10  1  0  0  0  0
  9  2  1  0  0  0  0
 10 40  1  0  0  0  0
 10 41  1  0  0  0  0
 11 16  1  0  0  0  0
 11  1  1  0  0  0  0
 12 11  2  0  0  0  0
 13 12  1  0  0  0  0
 13 14  2  0  0  0  0
 14 15  1  0  0  0  0
 15 46  1  0  0  0  0
 15 16  2  0  0  0  0
 16 47  1  0  0  0  0
 17 22  1  0  0  0  0
 18 19  1  0  0  0  0
 18 17  2  0  0  0  0
 19 20  2  0  0  0  0
 20 50  1  0  0  0  0
 20 21  1  0  0  0  0
 21 51  1  0  0  0  0
 22 52  1  0  0  0  0
 22 21  2  0  0  0  0
 23 28  2  0  0  0  0
 23 24  1  0  0  0  0
 24 25  2  0  0  0  0
 25 26  1  0  0  0  0
 25 54  1  0  0  0  0
 26 55  1  0  0  0  0
 27 56  1  0  0  0  0
 27 26  2  0  0  0  0
 28 27  1  0  0  0  0
 29  2  1  0  0  0  0
 29 30  1  0  0  0  0
 30 58  1  0  0  0  0
 31 30  2  0  0  0  0
 31 59  1  0  0  0  0
 32 31  1  0  0  0  0
 33 34  1  0  0  0  0
 33 32  2  0  0  0  0
 34 29  2  0  0  0  0
 35  5  1  0  0  0  0
 36  6  1  0  0  0  0
 37  7  1  0  0  0  0
 42 10  1  0  0  0  0
 43 12  1  0  0  0  0
 44 13  1  0  0  0  0
 45 14  1  0  0  0  0
 48 18  1  0  0  0  0
 49 19  1  0  0  0  0
 53 24  1  0  0  0  0
 57 28  1  0  0  0  0
 60 32  1  0  0  0  0
 61 33  1  0  0  0  0
 62 34  1  0  0  0  0
M  END
