2,22,28
 OpenBabel05122313063D

 40 42  0  0  1  0  0  0  0  0999 V2000
   -0.6638    1.3465    0.2647 C   0  0  2  0  0  3  0  0  0  0  0  0
   -0.3793    1.2724   -1.1457 C   0  0  0  0  0  3  0  0  0  0  0  0
   -0.9733    0.7474   -1.9020 H   0  0  0  0  0  0  0  0  0  0  0  0
    0.7887    2.0460   -1.4122 C   0  0  0  0  0  3  0  0  0  0  0  0
    1.2608    2.1757   -2.3920 H   0  0  0  0  0  0  0  0  0  0  0  0
    1.2696    2.5576   -0.1791 C   0  0  0  0  0  0  0  0  0  0  0  0
    2.1799    3.1507   -0.0341 H   0  0  0  0  0  0  0  0  0  0  0  0
    0.3740    2.1318    0.8484 C   0  0  0  0  0  0  0  0  0  0  0  0
    0.4729    2.3528    1.9183 H   0  0  0  0  0  0  0  0  0  0  0  0
   -1.7846    0.6983    1.0325 C   0  0  1  0  0  0  0  0  0  0  0  0
   -1.7515    1.0745    2.0736 H   0  0  0  0  0  0  0  0  0  0  0  0
   -3.2051    0.6815    0.3712 C   0  0  1  0  0  0  0  0  0  0  0  0
   -3.9460    0.6038    1.1982 H   0  0  0  0  0  0  0  0  0  0  0  0
   -3.6467    1.7876   -0.5780 C   0  0  0  0  0  0  0  0  0  0  0  0
   -2.9611    1.8338   -1.4498 H   0  0  0  0  0  0  0  0  0  0  0  0
   -4.6442    1.5185   -0.9902 H   0  0  0  0  0  0  0  0  0  0  0  0
   -3.7078    3.1600    0.0950 C   0  0  0  0  0  0  0  0  0  0  0  0
   -4.0530    3.9452   -0.6069 H   0  0  0  0  0  0  0  0  0  0  0  0
   -2.7079    3.4637    0.4688 H   0  0  0  0  0  0  0  0  0  0  0  0
   -4.4012    3.1555    0.9619 H   0  0  0  0  0  0  0  0  0  0  0  0
   -0.4590   -1.5054    0.5851 C   0  0  2  0  0  3  0  0  0  0  0  0
    0.5847   -1.7303    1.5332 C   0  0  0  0  0  3  0  0  0  0  0  0
    0.5412   -1.4834    2.6015 H   0  0  0  0  0  0  0  0  0  0  0  0
    1.6895   -2.3398    0.8602 C   0  0  0  0  0  0  0  0  0  0  0  0
    2.6468   -2.6152    1.3173 H   0  0  0  0  0  0  0  0  0  0  0  0
    1.3428   -2.4796   -0.5074 C   0  0  0  0  0  0  0  0  0  0  0  0
    1.9847   -2.8839   -1.2975 H   0  0  0  0  0  0  0  0  0  0  0  0
    0.0325   -1.9400   -0.6891 C   0  0  0  0  0  3  0  0  0  0  0  0
   -0.5211   -1.9081   -1.6352 H   0  0  0  0  0  0  0  0  0  0  0  0
   -1.7801   -0.8653    0.8983 C   0  0  2  0  0  0  0  0  0  0  0  0
   -2.1882   -1.3155    1.8284 H   0  0  0  0  0  0  0  0  0  0  0  0
   -2.9172   -0.7523   -0.1556 C   0  0  1  0  0  0  0  0  0  0  0  0
   -2.4826   -0.6882   -1.1773 H   0  0  0  0  0  0  0  0  0  0  0  0
   -4.0304   -1.7926   -0.1473 C   0  0  0  0  0  0  0  0  0  0  0  0
   -4.4678   -1.8340    0.8757 H   0  0  0  0  0  0  0  0  0  0  0  0
   -4.8512   -1.4486   -0.8148 H   0  0  0  0  0  0  0  0  0  0  0  0
   -3.5620   -3.1863   -0.5702 C   0  0  0  0  0  0  0  0  0  0  0  0
   -4.3875   -3.9250   -0.5333 H   0  0  0  0  0  0  0  0  0  0  0  0
   -2.7495   -3.5569    0.0885 H   0  0  0  0  0  0  0  0  0  0  0  0
   -3.1649   -3.1807   -1.6068 H   0  0  0  0  0  0  0  0  0  0  0  0
  1  2  1  1  0  0  0
  1  8  1  0  0  0  0
  1 10  1  0  0  0  0
  3  2  1  0  0  0  0
  4  2  1  0  0  0  0
  4  6  1  0  0  0  0
  5  4  1  0  0  0  0
  6  7  1  0  0  0  0
  6  8  2  0  0  0  0
  8  9  1  0  0  0  0
 10 11  1  1  0  0  0
 12 10  1  0  0  0  0
 12 13  1  1  0  0  0
 14 17  1  0  0  0  0
 14 12  1  0  0  0  0
 15 14  1  0  0  0  0
 16 14  1  0  0  0  0
 17 19  1  0  0  0  0
 17 20  1  0  0  0  0
 18 17  1  0  0  0  0
 21 28  1  6  0  0  0
 21 30  1  0  0  0  0
 21 22  1  0  0  0  0
 22 23  1  0  0  0  0
 24 25  1  0  0  0  0
 24 22  1  0  0  0  0
 26 24  2  0  0  0  0
 27 26  1  0  0  0  0
 28 26  1  0  0  0  0
 29 28  1  0  0  0  0
 30 10  1  0  0  0  0
 30 31  1  1  0  0  0
 32 33  1  6  0  0  0
 32 34  1  0  0  0  0
 32 12  1  0  0  0  0
 32 30  1  0  0  0  0
 34 35  1  0  0  0  0
 36 34  1  0  0  0  0
 37 38  1  0  0  0  0
 37 34  1  0  0  0  0
 37 39  1  0  0  0  0
 40 37  1  0  0  0  0
M  END
