1,4,28
 OpenBabel05122313063D

 46 49  0  0  0  0  0  0  0  0999 V2000
   -1.3062   -0.4028    1.1445 C   0  0  0  0  0  3  0  0  0  0  0  0
   -0.5512   -1.1181    2.0632 N   0  0  0  0  0  0  0  0  0  0  0  0
    0.8236   -0.8080    2.1776 C   0  0  0  0  0  0  0  0  0  0  0  0
    1.2132    0.1772    1.2377 C   0  0  0  0  0  3  0  0  0  0  0  0
    2.5671    0.5601    1.2923 C   0  0  0  0  0  0  0  0  0  0  0  0
    2.9582    1.3030    0.5840 H   0  0  0  0  0  0  0  0  0  0  0  0
    3.4525   -0.0154    2.2185 C   0  0  0  0  0  0  0  0  0  0  0  0
    4.5048    0.3071    2.2290 H   0  0  0  0  0  0  0  0  0  0  0  0
    3.0185   -1.0046    3.1212 C   0  0  0  0  0  0  0  0  0  0  0  0
    3.7225   -1.4509    3.8383 H   0  0  0  0  0  0  0  0  0  0  0  0
    1.6802   -1.4149    3.1072 C   0  0  0  0  0  0  0  0  0  0  0  0
    1.2985   -2.1784    3.8001 H   0  0  0  0  0  0  0  0  0  0  0  0
   -1.1874   -2.1050    2.6791 N   0  0  0  0  0  2  0  0  0  0  0  0
   -2.4008   -2.0648    2.1457 N   0  0  0  0  0  0  0  0  0  0  0  0
   -3.3962   -3.0300    2.5892 C   0  0  0  0  0  0  0  0  0  0  0  0
   -2.9011   -3.7197    3.2938 H   0  0  0  0  0  0  0  0  0  0  0  0
   -3.7829   -3.5958    1.7203 H   0  0  0  0  0  0  0  0  0  0  0  0
   -4.2330   -2.5165    3.1010 H   0  0  0  0  0  0  0  0  0  0  0  0
   -2.5426   -1.0605    1.2067 C   0  0  0  0  0  0  0  0  0  0  0  0
   -3.7342   -0.9354    0.3118 C   0  0  0  0  0  0  0  0  0  0  0  0
   -4.6365   -1.3736    0.7805 H   0  0  0  0  0  0  0  0  0  0  0  0
   -3.9371    0.1413    0.1305 H   0  0  0  0  0  0  0  0  0  0  0  0
   -3.5707   -1.6209   -0.9318 O   0  0  0  0  0  0  0  0  0  0  0  0
   -2.7346   -0.9405   -1.8690 C   0  0  0  0  0  0  0  0  0  0  0  0
   -2.8034    0.1573   -1.7322 H   0  0  0  0  0  0  0  0  0  0  0  0
   -3.1422   -1.1861   -2.8716 H   0  0  0  0  0  0  0  0  0  0  0  0
   -1.2840   -1.3109   -1.8099 C   0  0  0  0  0  0  0  0  0  0  0  0
   -0.1809   -0.6573   -1.2198 C   0  0  0  0  0  3  0  0  0  0  0  0
   -0.8087   -2.4760   -2.3605 N   0  0  0  0  0  0  0  0  0  0  0  0
   -1.5711   -3.5127   -3.0455 C   0  0  0  0  0  0  0  0  0  0  0  0
   -1.8977   -3.1523   -4.0403 H   0  0  0  0  0  0  0  0  0  0  0  0
   -2.4561   -3.7707   -2.4351 H   0  0  0  0  0  0  0  0  0  0  0  0
   -0.9152   -4.3916   -3.1677 H   0  0  0  0  0  0  0  0  0  0  0  0
    0.4906   -2.6201   -2.2100 N   0  0  0  0  0  2  0  0  0  0  0  0
    0.8586   -1.5240   -1.5356 N   0  0  0  0  0  0  0  0  0  0  0  0
    2.2647   -1.3736   -1.2789 C   0  0  0  0  0  0  0  0  0  0  0  0
    2.9424   -0.2908   -1.8541 C   0  0  0  0  0  0  0  0  0  0  0  0
    2.3879    0.4345   -2.4635 H   0  0  0  0  0  0  0  0  0  0  0  0
    4.3212   -0.1625   -1.6395 C   0  0  0  0  0  0  0  0  0  0  0  0
    4.8664    0.6800   -2.0902 H   0  0  0  0  0  0  0  0  0  0  0  0
    5.0043   -1.1124   -0.8627 C   0  0  0  0  0  0  0  0  0  0  0  0
    6.0870   -1.0099   -0.6976 H   0  0  0  0  0  0  0  0  0  0  0  0
    4.3103   -2.1966   -0.3012 C   0  0  0  0  0  0  0  0  0  0  0  0
    4.8447   -2.9389    0.3091 H   0  0  0  0  0  0  0  0  0  0  0  0
    2.9321   -2.3369   -0.5106 C   0  0  0  0  0  0  0  0  0  0  0  0
    2.3709   -3.1743   -0.0737 H   0  0  0  0  0  0  0  0  0  0  0  0
  1 19  2  0  0  0  0
  1  2  1  0  0  0  0
  2  3  1  0  0  0  0
  2 13  1  0  0  0  0
  3 11  1  0  0  0  0
  4  5  1  0  0  0  0
  4  3  2  0  0  0  0
  5  7  2  0  0  0  0
  6  5  1  0  0  0  0
  7  8  1  0  0  0  0
  7  9  1  0  0  0  0
  9 10  1  0  0  0  0
 11  9  2  0  0  0  0
 11 12  1  0  0  0  0
 14 15  1  0  0  0  0
 14 13  1  0  0  0  0
 15 18  1  0  0  0  0
 15 16  1  0  0  0  0
 17 15  1  0  0  0  0
 19 14  1  0  0  0  0
 20 21  1  0  0  0  0
 20 19  1  0  0  0  0
 22 20  1  0  0  0  0
 23 20  1  0  0  0  0
 24 27  1  0  0  0  0
 24 25  1  0  0  0  0
 24 23  1  0  0  0  0
 26 24  1  0  0  0  0
 27 28  2  0  0  0  0
 29 34  1  0  0  0  0
 29 27  1  0  0  0  0
 30 32  1  0  0  0  0
 30 29  1  0  0  0  0
 31 30  1  0  0  0  0
 33 30  1  0  0  0  0
 34 35  1  0  0  0  0
 35 36  1  0  0  0  0
 35 28  1  0  0  0  0
 36 45  1  0  0  0  0
 37 39  1  0  0  0  0
 37 36  2  0  0  0  0
 38 37  1  0  0  0  0
 39 41  2  0  0  0  0
 40 39  1  0  0  0  0
 41 42  1  0  0  0  0
 41 43  1  0  0  0  0
 43 44  1  0  0  0  0
 45 43  2  0  0  0  0
 45 46  1  0  0  0  0
M  END
