2,6,36
 OpenBabel05122313063D

 37 38  0  0  0  0  0  0  0  0999 V2000
   -1.8522    1.7702   -0.9677 N   0  0  0  0  0  4  0  0  0  0  0  0
   -0.4483    1.4147   -0.4842 C   0  0  0  0  0  3  0  0  0  0  0  0
    0.5886    2.2879   -0.6613 C   0  0  0  0  0  0  0  0  0  0  0  0
    0.5624    3.2563   -1.1821 H   0  0  0  0  0  0  0  0  0  0  0  0
    1.8265    1.8066   -0.0681 C   0  0  0  0  0  0  0  0  0  0  0  0
    1.6941    0.5359    0.5729 C   0  0  0  0  0  3  0  0  0  0  0  0
    2.8348   -0.0313    1.1679 C   0  0  0  0  0  0  0  0  0  0  0  0
    2.7727   -1.0260    1.6370 H   0  0  0  0  0  0  0  0  0  0  0  0
    4.0658    0.6519    1.1545 C   0  0  0  0  0  0  0  0  0  0  0  0
    4.9462    0.1943    1.6335 H   0  0  0  0  0  0  0  0  0  0  0  0
    4.1836    1.9053    0.5283 C   0  0  0  0  0  0  0  0  0  0  0  0
    5.1518    2.4289    0.5164 H   0  0  0  0  0  0  0  0  0  0  0  0
    3.0645    2.4806   -0.0908 C   0  0  0  0  0  0  0  0  0  0  0  0
    3.1489    3.4564   -0.5971 H   0  0  0  0  0  0  0  0  0  0  0  0
   -2.3247    0.7247   -1.9372 C   0  0  0  0  0  0  0  0  0  0  0  0
   -3.3851    0.9144   -2.1922 H   0  0  0  0  0  0  0  0  0  0  0  0
   -2.1714   -0.2693   -1.4817 H   0  0  0  0  0  0  0  0  0  0  0  0
   -1.6797    0.7774   -2.8312 H   0  0  0  0  0  0  0  0  0  0  0  0
   -1.8989    3.0971   -1.6593 C   0  0  0  0  0  0  0  0  0  0  0  0
   -1.1940    3.0759   -2.5071 H   0  0  0  0  0  0  0  0  0  0  0  0
   -1.6030    3.8862   -0.9468 H   0  0  0  0  0  0  0  0  0  0  0  0
   -2.9264    3.2764   -2.0242 H   0  0  0  0  0  0  0  0  0  0  0  0
   -2.7939    1.8738    0.2400 C   0  0  0  0  0  0  0  0  0  0  0  0
   -2.2469    2.5092    0.9626 H   0  0  0  0  0  0  0  0  0  0  0  0
   -3.6840    2.4307   -0.1165 H   0  0  0  0  0  0  0  0  0  0  0  0
   -3.2606    0.5692    0.8919 C   0  0  0  0  0  0  0  0  0  0  0  0
   -3.9719    0.8875    1.6867 H   0  0  0  0  0  0  0  0  0  0  0  0
   -3.8644   -0.0217    0.1748 H   0  0  0  0  0  0  0  0  0  0  0  0
   -2.1868   -0.3071    1.4751 C   0  0  0  0  0  0  0  0  0  0  0  0
   -1.9354   -1.6644    1.1109 C   0  0  0  0  0  0  0  0  0  0  0  0
   -2.5071   -2.2513    0.3820 H   0  0  0  0  0  0  0  0  0  0  0  0
   -0.7691   -2.1291    1.8456 C   0  0  0  0  0  0  0  0  0  0  0  0
   -0.3169   -3.1235    1.7625 H   0  0  0  0  0  0  0  0  0  0  0  0
   -0.3166   -1.0651    2.6713 C   0  0  0  0  0  0  0  0  0  0  0  0
    0.5479   -1.0909    3.3453 H   0  0  0  0  0  0  0  0  0  0  0  0
   -1.1640    0.0896    2.4437 C   0  0  0  0  0  3  0  0  0  0  0  0
   -1.1121    1.0403    2.9884 H   0  0  0  0  0  0  0  0  0  0  0  0
  1  2  1  0  0  0  0
  1 23  1  0  0  0  0
  3  2  2  0  0  0  0
  3  5  1  0  0  0  0
  4  3  1  0  0  0  0
  5  6  1  0  0  0  0
  6  7  2  0  0  0  0
  7  8  1  0  0  0  0
  9  7  1  0  0  0  0
  9 10  1  0  0  0  0
 11  9  2  0  0  0  0
 12 11  1  0  0  0  0
 13  5  2  0  0  0  0
 13 11  1  0  0  0  0
 14 13  1  0  0  0  0
 15 17  1  0  0  0  0
 15  1  1  0  0  0  0
 16 15  1  0  0  0  0
 18 15  1  0  0  0  0
 19  1  1  0  0  0  0
 19 21  1  0  0  0  0
 20 19  1  0  0  0  0
 22 19  1  0  0  0  0
 23 26  1  0  0  0  0
 23 24  1  0  0  0  0
 25 23  1  0  0  0  0
 26 29  1  0  0  0  0
 26 27  1  0  0  0  0
 28 26  1  0  0  0  0
 29 36  1  0  0  0  0
 30 29  2  0  0  0  0
 30 32  1  0  0  0  0
 31 30  1  0  0  0  0
 32 34  2  0  0  0  0
 33 32  1  0  0  0  0
 34 35  1  0  0  0  0
 36 34  1  0  0  0  0
 36 37  1  0  0  0  0
M  END
