3,5,8
 OpenBabel05122313063D

 60 59  0  0  0  0  0  0  0  0999 V2000
    1.6965   -2.2934    0.0003 Si  0  0  0  0  0  0  0  0  0  0  0  0
    5.8028    0.4896   -0.0002 Si  0  0  0  0  0  0  0  0  0  0  0  0
   -3.3151    1.1877    0.0003 C   0  0  0  0  0  3  0  0  0  0  0  0
   -2.1279    1.7244    0.0006 C   0  0  0  0  0  3  0  0  0  0  0  0
   -0.8224    1.5245    0.0005 C   0  0  0  0  0  3  0  0  0  0  0  0
    0.5097    1.7540    0.0006 C   0  0  0  0  0  0  0  0  0  0  0  0
    1.2936    0.4934    0.0004 C   0  0  0  0  0  0  0  0  0  0  0  0
    0.6023   -0.7224    0.0003 C   0  0  0  0  0  3  0  0  0  0  0  0
    2.7241    0.5492    0.0003 C   0  0  0  0  0  0  0  0  0  0  0  0
    3.9632    0.5506    0.0001 C   0  0  0  0  0  0  0  0  0  0  0  0
    6.4379    1.3672    1.5507 C   0  0  0  0  0  0  0  0  0  0  0  0
    6.0989    2.4228    1.5727 H   0  0  0  0  0  0  0  0  0  0  0  0
    7.5471    1.3598    1.5829 H   0  0  0  0  0  0  0  0  0  0  0  0
    6.0620    0.8690    2.4671 H   0  0  0  0  0  0  0  0  0  0  0  0
    6.3342   -1.3256    0.0009 C   0  0  0  0  0  0  0  0  0  0  0  0
    5.9432   -1.8493   -0.8948 H   0  0  0  0  0  0  0  0  0  0  0  0
    5.9429   -1.8485    0.8968 H   0  0  0  0  0  0  0  0  0  0  0  0
    7.4403   -1.4138    0.0011 H   0  0  0  0  0  0  0  0  0  0  0  0
    6.4371    1.3651   -1.5526 C   0  0  0  0  0  0  0  0  0  0  0  0
    6.0606    0.8657   -2.4681 H   0  0  0  0  0  0  0  0  0  0  0  0
    7.5464    1.3574   -1.5854 H   0  0  0  0  0  0  0  0  0  0  0  0
    6.0984    2.4208   -1.5758 H   0  0  0  0  0  0  0  0  0  0  0  0
    0.7830   -3.9653    0.0003 C   0  0  0  0  0  0  0  0  0  0  0  0
    1.5687   -4.7503   -0.0005 H   0  0  0  0  0  0  0  0  0  0  0  0
    0.1604   -4.1323   -0.8989 H   0  0  0  0  0  0  0  0  0  0  0  0
    0.1617   -4.1329    0.9003 H   0  0  0  0  0  0  0  0  0  0  0  0
    2.7791   -2.3778   -1.5670 C   0  0  0  0  0  0  0  0  0  0  0  0
    3.5334   -3.1846   -1.4521 H   0  0  0  0  0  0  0  0  0  0  0  0
    3.3118   -1.4282   -1.7603 H   0  0  0  0  0  0  0  0  0  0  0  0
    2.1685   -2.6243   -2.4606 H   0  0  0  0  0  0  0  0  0  0  0  0
    2.7789   -2.3778    1.5678 C   0  0  0  0  0  0  0  0  0  0  0  0
    3.5325   -3.1853    1.4534 H   0  0  0  0  0  0  0  0  0  0  0  0
    2.1680   -2.6231    2.4615 H   0  0  0  0  0  0  0  0  0  0  0  0
    3.3124   -1.4285    1.7605 H   0  0  0  0  0  0  0  0  0  0  0  0
   -4.7426    1.6624   -0.0000 C   0  0  0  0  0  0  0  0  0  0  0  0
   -5.7356    0.4840   -0.0009 C   0  0  0  0  0  0  0  0  0  0  0  0
   -5.6033   -0.1556    0.8934 H   0  0  0  0  0  0  0  0  0  0  0  0
   -5.6027   -0.1548   -0.8956 H   0  0  0  0  0  0  0  0  0  0  0  0
   -6.7795    0.8581   -0.0011 H   0  0  0  0  0  0  0  0  0  0  0  0
   -4.9798    2.5357    1.2556 C   0  0  0  0  0  0  0  0  0  0  0  0
   -4.8276    1.9574    2.1886 H   0  0  0  0  0  0  0  0  0  0  0  0
   -6.0193    2.9250    1.2637 H   0  0  0  0  0  0  0  0  0  0  0  0
   -4.2818    3.3959    1.2721 H   0  0  0  0  0  0  0  0  0  0  0  0
   -4.9790    2.5369   -1.2549 C   0  0  0  0  0  0  0  0  0  0  0  0
   -4.8263    1.9595   -2.1884 H   0  0  0  0  0  0  0  0  0  0  0  0
   -4.2808    3.3970   -1.2703 H   0  0  0  0  0  0  0  0  0  0  0  0
   -6.0185    2.9263   -1.2633 H   0  0  0  0  0  0  0  0  0  0  0  0
    1.1016    3.1732    0.0006 C   0  0  0  0  0  0  0  0  0  0  0  0
    1.9592    3.3761    1.2718 C   0  0  0  0  0  0  0  0  0  0  0  0
    2.3848    4.4012    1.2789 H   0  0  0  0  0  0  0  0  0  0  0  0
    2.7964    2.6556    1.3255 H   0  0  0  0  0  0  0  0  0  0  0  0
    1.3383    3.2572    2.1830 H   0  0  0  0  0  0  0  0  0  0  0  0
   -0.0195    4.2275    0.0008 C   0  0  0  0  0  0  0  0  0  0  0  0
    0.4230    5.2442    0.0008 H   0  0  0  0  0  0  0  0  0  0  0  0
   -0.6659    4.1337    0.8961 H   0  0  0  0  0  0  0  0  0  0  0  0
   -0.6661    4.1338   -0.8944 H   0  0  0  0  0  0  0  0  0  0  0  0
    1.9589    3.3762   -1.2708 C   0  0  0  0  0  0  0  0  0  0  0  0
    2.3846    4.4013   -1.2779 H   0  0  0  0  0  0  0  0  0  0  0  0
    1.3378    3.2575   -2.1819 H   0  0  0  0  0  0  0  0  0  0  0  0
    2.7960    2.6556   -1.3247 H   0  0  0  0  0  0  0  0  0  0  0  0
  1  8  1  0  0  0  0
  1 31  1  0  0  0  0
  2 10  1  0  0  0  0
  2 15  1  0  0  0  0
  2 11  1  0  0  0  0
  3  4  2  0  0  0  0
  5  6  2  0  0  0  0
  5  4  1  0  0  0  0
  6 48  1  0  0  0  0
  7  6  1  0  0  0  0
  8  7  2  0  0  0  0
  9  7  1  0  0  0  0
 10  9  3  0  0  0  0
 11 12  1  0  0  0  0
 11 13  1  0  0  0  0
 11 14  1  0  0  0  0
 15 18  1  0  0  0  0
 15 17  1  0  0  0  0
 16 15  1  0  0  0  0
 19  2  1  0  0  0  0
 20 19  1  0  0  0  0
 21 19  1  0  0  0  0
 22 19  1  0  0  0  0
 23  1  1  0  0  0  0
 23 26  1  0  0  0  0
 24 23  1  0  0  0  0
 25 23  1  0  0  0  0
 27 28  1  0  0  0  0
 27  1  1  0  0  0  0
 29 27  1  0  0  0  0
 30 27  1  0  0  0  0
 31 34  1  0  0  0  0
 31 33  1  0  0  0  0
 32 31  1  0  0  0  0
 35  3  1  0  0  0  0
 35 40  1  0  0  0  0
 36 35  1  0  0  0  0
 36 37  1  0  0  0  0
 38 36  1  0  0  0  0
 39 36  1  0  0  0  0
 40 42  1  0  0  0  0
 40 43  1  0  0  0  0
 40 41  1  0  0  0  0
 44 35  1  0  0  0  0
 45 44  1  0  0  0  0
 46 44  1  0  0  0  0
 47 44  1  0  0  0  0
 48 53  1  0  0  0  0
 48 49  1  0  0  0  0
 49 50  1  0  0  0  0
 49 51  1  0  0  0  0
 49 52  1  0  0  0  0
 53 54  1  0  0  0  0
 53 55  1  0  0  0  0
 56 53  1  0  0  0  0
 57 48  1  0  0  0  0
 58 57  1  0  0  0  0
 59 57  1  0  0  0  0
 60 57  1  0  0  0  0
M  END
