4,6,8
 OpenBabel05122313063D

 26 27  0  0  0  0  0  0  0  0999 V2000
    2.0000   -0.5584    1.4153 O   0  0  0  0  0  0  0  0  0  0  0  0
    2.3951   -0.4212   -0.8298 N   0  0  0  0  0  0  0  0  0  0  0  0
    0.2140   -1.2147   -0.0595 C   0  0  0  0  0  3  0  0  0  0  0  0
   -0.6106   -1.5620    1.0521 C   0  0  0  0  0  3  0  0  0  0  0  0
   -1.9749   -1.9239    0.8570 C   0  0  0  0  0  3  0  0  0  0  0  0
   -2.5315   -1.8730   -0.4477 C   0  0  0  0  0  3  0  0  0  0  0  0
   -1.7187   -1.5373   -1.5729 C   0  0  0  0  0  3  0  0  0  0  0  0
   -0.3635   -1.1837   -1.3721 C   0  0  0  0  0  3  0  0  0  0  0  0
    1.5894   -0.7300    0.1228 C   0  0  0  0  0  0  0  0  0  0  0  0
    3.5914    0.1737   -0.1961 C   0  0  0  0  0  0  0  0  0  0  0  0
    3.3787   -0.1335    1.3223 C   0  0  0  0  0  0  0  0  0  0  0  0
    3.5692    1.6855   -0.4786 C   0  0  0  0  0  0  0  0  0  0  0  0
    4.8656   -0.4734   -0.7461 C   0  0  0  0  0  0  0  0  0  0  0  0
   -0.1800   -1.5219    2.0614 H   0  0  0  0  0  0  0  0  0  0  0  0
   -2.6104   -2.1566    1.7216 H   0  0  0  0  0  0  0  0  0  0  0  0
   -3.6022   -2.0757   -0.5909 H   0  0  0  0  0  0  0  0  0  0  0  0
   -2.1623   -1.4729   -2.5752 H   0  0  0  0  0  0  0  0  0  0  0  0
    0.2751   -0.8527   -2.2026 H   0  0  0  0  0  0  0  0  0  0  0  0
    4.0249   -0.9628    1.6834 H   0  0  0  0  0  0  0  0  0  0  0  0
    3.5178    0.7470    1.9800 H   0  0  0  0  0  0  0  0  0  0  0  0
    4.4470    2.1854   -0.0197 H   0  0  0  0  0  0  0  0  0  0  0  0
    3.5867    1.8692   -1.5705 H   0  0  0  0  0  0  0  0  0  0  0  0
    2.6458    2.1466   -0.0746 H   0  0  0  0  0  0  0  0  0  0  0  0
    4.9477   -0.2910   -1.8354 H   0  0  0  0  0  0  0  0  0  0  0  0
    5.7667   -0.0538   -0.2535 H   0  0  0  0  0  0  0  0  0  0  0  0
    4.8523   -1.5691   -0.5812 H   0  0  0  0  0  0  0  0  0  0  0  0
  2 10  1  0  0  0  0
  2  9  2  0  0  0  0
  3  9  1  0  0  0  0
  3  4  1  0  0  0  0
  4 14  1  0  0  0  0
  5  4  1  0  0  0  0
  5 15  1  0  0  0  0
  6  5  1  0  0  0  0
  7  8  1  0  0  0  0
  7  6  1  0  0  0  0
  8  3  1  0  0  0  0
  9  1  1  0  0  0  0
 10 11  1  0  0  0  0
 11  1  1  0  0  0  0
 11 19  1  0  0  0  0
 11 20  1  0  0  0  0
 12 10  1  0  0  0  0
 12 23  1  0  0  0  0
 12 21  1  0  0  0  0
 13 26  1  0  0  0  0
 13 25  1  0  0  0  0
 13 10  1  0  0  0  0
 16  6  1  0  0  0  0
 17  7  1  0  0  0  0
 18  8  1  0  0  0  0
 22 12  1  0  0  0  0
 24 13  1  0  0  0  0
M  END
