5,21,41
 OpenBabel05122313063D

 55 57  0  0  0  0  0  0  0  0999 V2000
    0.7333    3.2338    0.1209 N   0  0  0  0  0  0  0  0  0  0  0  0
   -1.2228    2.2899    0.0367 N   0  0  0  0  0  0  0  0  0  0  0  0
   -1.1700   -2.3264    0.0394 N   0  0  0  0  0  0  0  0  0  0  0  0
    0.8067   -3.2266    0.1232 N   0  0  0  0  0  0  0  0  0  0  0  0
    0.1382    2.0104    0.0636 C   0  0  0  0  0  2  0  0  0  0  0  0
    2.1981    3.3928    0.1405 C   0  0  0  0  0  0  0  0  0  0  0  0
    2.5556    2.4830    0.6626 H   0  0  0  0  0  0  0  0  0  0  0  0
    2.7488    3.3972   -1.2885 C   0  0  0  0  0  0  0  0  0  0  0  0
    2.4144    2.4935   -1.8380 H   0  0  0  0  0  0  0  0  0  0  0  0
    3.8579    3.4179   -1.2714 H   0  0  0  0  0  0  0  0  0  0  0  0
    2.3997    4.2916   -1.8448 H   0  0  0  0  0  0  0  0  0  0  0  0
    2.6149    4.6158    0.9553 C   0  0  0  0  0  0  0  0  0  0  0  0
    2.3262    5.5655    0.4594 H   0  0  0  0  0  0  0  0  0  0  0  0
    3.7170    4.6280    1.0627 H   0  0  0  0  0  0  0  0  0  0  0  0
    2.1705    4.5935    1.9697 H   0  0  0  0  0  0  0  0  0  0  0  0
   -0.2171    4.2538    0.1085 C   0  0  0  0  0  0  0  0  0  0  0  0
    0.0517    5.3122    0.1449 H   0  0  0  0  0  0  0  0  0  0  0  0
   -1.4519    3.6553    0.0601 C   0  0  0  0  0  0  0  0  0  0  0  0
   -2.4548    4.0902    0.0510 H   0  0  0  0  0  0  0  0  0  0  0  0
   -2.1020    1.1766    0.0262 C   0  0  0  0  0  0  0  0  0  0  0  0
   -1.3756   -0.0212    0.0476 C   0  0  0  0  0  3  0  0  0  0  0  0
   -2.0734   -1.2326    0.0279 C   0  0  0  0  0  0  0  0  0  0  0  0
   -3.4756   -1.2698   -0.0039 C   0  0  0  0  0  0  0  0  0  0  0  0
   -4.0027   -2.2322   -0.0185 H   0  0  0  0  0  0  0  0  0  0  0  0
   -4.2028   -0.0561   -0.0193 C   0  0  0  0  0  0  0  0  0  0  0  0
   -3.5007    1.1774   -0.0057 C   0  0  0  0  0  0  0  0  0  0  0  0
   -4.0577    2.1256   -0.0220 H   0  0  0  0  0  0  0  0  0  0  0  0
   -5.7439   -0.0318   -0.0537 C   0  0  0  0  0  0  0  0  0  0  0  0
   -6.3481   -1.4468   -0.0670 C   0  0  0  0  0  0  0  0  0  0  0  0
   -7.4546   -1.3822   -0.0913 H   0  0  0  0  0  0  0  0  0  0  0  0
   -6.0680   -2.0228    0.8380 H   0  0  0  0  0  0  0  0  0  0  0  0
   -6.0285   -2.0228   -0.9588 H   0  0  0  0  0  0  0  0  0  0  0  0
   -6.2168    0.7055   -1.3273 C   0  0  0  0  0  0  0  0  0  0  0  0
   -7.3255    0.7354   -1.3713 H   0  0  0  0  0  0  0  0  0  0  0  0
   -5.8469    0.1948   -2.2392 H   0  0  0  0  0  0  0  0  0  0  0  0
   -5.8511    1.7510   -1.3578 H   0  0  0  0  0  0  0  0  0  0  0  0
   -6.2728    0.7058    1.1975 C   0  0  0  0  0  0  0  0  0  0  0  0
   -5.9075    1.7509    1.2443 H   0  0  0  0  0  0  0  0  0  0  0  0
   -5.9448    0.1947    2.1251 H   0  0  0  0  0  0  0  0  0  0  0  0
   -7.3824    0.7369    1.1918 H   0  0  0  0  0  0  0  0  0  0  0  0
    0.1844   -2.0169    0.0657 C   0  0  0  0  0  2  0  0  0  0  0  0
    2.2747   -3.3530    0.1414 C   0  0  0  0  0  0  0  0  0  0  0  0
    2.6125   -2.4342    0.6607 H   0  0  0  0  0  0  0  0  0  0  0  0
    2.7194   -4.5644    0.9588 C   0  0  0  0  0  0  0  0  0  0  0  0
    2.2757   -4.5493    1.9736 H   0  0  0  0  0  0  0  0  0  0  0  0
    3.8216   -4.5520    1.0650 H   0  0  0  0  0  0  0  0  0  0  0  0
    2.4511   -5.5215    0.4656 H   0  0  0  0  0  0  0  0  0  0  0  0
    2.8239   -3.3488   -1.2882 C   0  0  0  0  0  0  0  0  0  0  0  0
    3.9332   -3.3451   -1.2722 H   0  0  0  0  0  0  0  0  0  0  0  0
    2.4692   -2.4542   -1.8396 H   0  0  0  0  0  0  0  0  0  0  0  0
    2.4939   -4.2521   -1.8419 H   0  0  0  0  0  0  0  0  0  0  0  0
   -0.1207   -4.2675    0.1116 C   0  0  0  0  0  0  0  0  0  0  0  0
    0.1715   -5.3197    0.1483 H   0  0  0  0  0  0  0  0  0  0  0  0
   -1.3686   -3.6965    0.0633 C   0  0  0  0  0  0  0  0  0  0  0  0
   -2.3617   -4.1534    0.0547 H   0  0  0  0  0  0  0  0  0  0  0  0
  1  6  1  0  0  0  0
  2 18  1  0  0  0  0
  2  5  1  0  0  0  0
  3 54  1  0  0  0  0
  3 41  1  0  0  0  0
  4 42  1  0  0  0  0
  5  1  1  0  0  0  0
  6  7  1  0  0  0  0
  6 12  1  0  0  0  0
  8 10  1  0  0  0  0
  8  6  1  0  0  0  0
  9  8  1  0  0  0  0
 11  8  1  0  0  0  0
 12 14  1  0  0  0  0
 12 15  1  0  0  0  0
 13 12  1  0  0  0  0
 16  1  1  0  0  0  0
 16 17  1  0  0  0  0
 18 16  2  0  0  0  0
 19 18  1  0  0  0  0
 20  2  1  0  0  0  0
 20 21  1  0  0  0  0
 22  3  1  0  0  0  0
 22 21  2  0  0  0  0
 23 22  1  0  0  0  0
 24 23  1  0  0  0  0
 25 26  1  0  0  0  0
 25 23  2  0  0  0  0
 26 20  2  0  0  0  0
 27 26  1  0  0  0  0
 28 25  1  0  0  0  0
 28 37  1  0  0  0  0
 29 28  1  0  0  0  0
 29 31  1  0  0  0  0
 30 29  1  0  0  0  0
 32 29  1  0  0  0  0
 33 28  1  0  0  0  0
 34 33  1  0  0  0  0
 35 33  1  0  0  0  0
 36 33  1  0  0  0  0
 37 38  1  0  0  0  0
 37 39  1  0  0  0  0
 40 37  1  0  0  0  0
 41  4  1  0  0  0  0
 42 43  1  0  0  0  0
 42 44  1  0  0  0  0
 44 46  1  0  0  0  0
 44 45  1  0  0  0  0
 47 44  1  0  0  0  0
 48 49  1  0  0  0  0
 48 42  1  0  0  0  0
 50 48  1  0  0  0  0
 51 48  1  0  0  0  0
 52  4  1  0  0  0  0
 52 53  1  0  0  0  0
 54 52  2  0  0  0  0
 55 54  1  0  0  0  0
M  END
