1,9,17
 OpenBabel05122313063D

 70 75  0  0  0  0  0  0  0  0999 V2000
   -2.5004   -0.5463   -0.8825 C   0  0  0  0  0  3  0  0  0  0  0  0
   -2.3596    0.8039   -1.0601 C   0  0  0  0  0  3  0  0  0  0  0  0
   -2.7645    1.8159   -0.0497 C   0  0  0  0  0  0  0  0  0  0  0  0
   -2.1442    1.9418    1.2238 C   0  0  0  0  0  0  0  0  0  0  0  0
   -0.8332    1.3228    1.5364 C   0  0  0  0  0  0  0  0  0  0  0  0
    0.3234    1.6344    0.8869 C   0  0  0  0  0  0  0  0  0  0  0  0
    0.4255    2.6665   -0.1802 C   0  0  0  0  0  0  0  0  0  0  0  0
    0.9864    2.3730   -1.4569 C   0  0  0  0  0  0  0  0  0  0  0  0
    1.5057    1.0279   -1.8104 C   0  0  0  0  0  3  0  0  0  0  0  0
    2.5270    0.3170   -1.2124 C   0  0  0  0  0  3  0  0  0  0  0  0
    3.4646    0.7364   -0.1590 C   0  0  0  0  0  0  0  0  0  0  0  0
    4.2318   -0.2486    0.5346 C   0  0  0  0  0  0  0  0  0  0  0  0
    3.9924   -1.7004    0.3077 C   0  0  0  0  0  0  0  0  0  0  0  0
    3.0750   -2.4533    0.9573 C   0  0  0  0  0  0  0  0  0  0  0  0
    2.1849   -1.9992    2.0520 C   0  0  0  0  0  0  0  0  0  0  0  0
    0.7661   -2.1861    1.9768 C   0  0  0  0  0  0  0  0  0  0  0  0
    0.2108   -2.7263    0.7227 C   0  0  0  0  0  3  0  0  0  0  0  0
   -1.0717   -2.7731    0.2289 C   0  0  0  0  0  3  0  0  0  0  0  0
   -2.3463   -2.3458    0.8607 C   0  0  0  0  0  0  0  0  0  0  0  0
   -3.0379   -1.2225    0.3270 C   0  0  0  0  0  0  0  0  0  0  0  0
   -3.8958    2.6092   -0.3380 C   0  0  0  0  0  0  0  0  0  0  0  0
   -4.4578    3.4552    0.6272 C   0  0  0  0  0  0  0  0  0  0  0  0
   -3.8969    3.5117    1.9125 C   0  0  0  0  0  0  0  0  0  0  0  0
   -2.7482    2.7633    2.1995 C   0  0  0  0  0  0  0  0  0  0  0  0
   -0.0733    3.9646    0.0589 C   0  0  0  0  0  0  0  0  0  0  0  0
   -0.0376    4.9549   -0.9312 C   0  0  0  0  0  0  0  0  0  0  0  0
    0.4820    4.6532   -2.1992 C   0  0  0  0  0  0  0  0  0  0  0  0
    0.9780    3.3688   -2.4572 C   0  0  0  0  0  0  0  0  0  0  0  0
    3.7227    2.1042    0.1108 C   0  0  0  0  0  0  0  0  0  0  0  0
    4.7049    2.4928    1.0261 C   0  0  0  0  0  0  0  0  0  0  0  0
    5.4714    1.5203    1.6880 C   0  0  0  0  0  0  0  0  0  0  0  0
    5.2362    0.1629    1.4326 C   0  0  0  0  0  0  0  0  0  0  0  0
    2.7376   -1.3891    3.1977 C   0  0  0  0  0  0  0  0  0  0  0  0
    1.9318   -0.9735    4.2649 C   0  0  0  0  0  0  0  0  0  0  0  0
    0.5442   -1.1753    4.2037 C   0  0  0  0  0  0  0  0  0  0  0  0
   -0.0267   -1.7733    3.0749 C   0  0  0  0  0  0  0  0  0  0  0  0
   -2.9001   -3.0484    1.9496 C   0  0  0  0  0  0  0  0  0  0  0  0
   -4.1056   -2.6331    2.5328 C   0  0  0  0  0  0  0  0  0  0  0  0
   -4.7703   -1.5032    2.0308 C   0  0  0  0  0  0  0  0  0  0  0  0
   -4.2398   -0.8063    0.9372 C   0  0  0  0  0  0  0  0  0  0  0  0
   -2.2832   -1.1985   -1.7509 H   0  0  0  0  0  0  0  0  0  0  0  0
   -2.0485    1.1549   -2.0602 H   0  0  0  0  0  0  0  0  0  0  0  0
   -0.7796    0.6172    2.3826 H   0  0  0  0  0  0  0  0  0  0  0  0
    1.2538    1.1466    1.2291 H   0  0  0  0  0  0  0  0  0  0  0  0
    1.1102    0.6067   -2.7543 H   0  0  0  0  0  0  0  0  0  0  0  0
    2.7295   -0.6707   -1.6613 H   0  0  0  0  0  0  0  0  0  0  0  0
    4.6016   -2.1917   -0.4732 H   0  0  0  0  0  0  0  0  0  0  0  0
    2.9743   -3.5065    0.6417 H   0  0  0  0  0  0  0  0  0  0  0  0
    0.9626   -3.1298    0.0251 H   0  0  0  0  0  0  0  0  0  0  0  0
   -1.1695   -3.1878   -0.7938 H   0  0  0  0  0  0  0  0  0  0  0  0
   -4.3603    2.5265   -1.3328 H   0  0  0  0  0  0  0  0  0  0  0  0
   -5.3457    4.0562    0.3800 H   0  0  0  0  0  0  0  0  0  0  0  0
   -4.3428    4.1539    2.6869 H   0  0  0  0  0  0  0  0  0  0  0  0
   -2.2768    2.8395    3.1918 H   0  0  0  0  0  0  0  0  0  0  0  0
   -0.5024    4.1927    1.0448 H   0  0  0  0  0  0  0  0  0  0  0  0
   -0.4307    5.9595   -0.7147 H   0  0  0  0  0  0  0  0  0  0  0  0
    0.4967    5.4164   -2.9919 H   0  0  0  0  0  0  0  0  0  0  0  0
    1.3768    3.1209   -3.4527 H   0  0  0  0  0  0  0  0  0  0  0  0
    3.1587    2.8733   -0.4333 H   0  0  0  0  0  0  0  0  0  0  0  0
    4.8862    3.5625    1.2098 H   0  0  0  0  0  0  0  0  0  0  0  0
    6.2558    1.8184    2.4000 H   0  0  0  0  0  0  0  0  0  0  0  0
    5.8378   -0.6054    1.9424 H   0  0  0  0  0  0  0  0  0  0  0  0
    3.8264   -1.2590    3.2532 H   0  0  0  0  0  0  0  0  0  0  0  0
    2.3903   -0.5066    5.1495 H   0  0  0  0  0  0  0  0  0  0  0  0
   -0.1004   -0.8674    5.0409 H   0  0  0  0  0  0  0  0  0  0  0  0
   -1.1130   -1.9171    3.0366 H   0  0  0  0  0  0  0  0  0  0  0  0
   -2.3701   -3.9306    2.3399 H   0  0  0  0  0  0  0  0  0  0  0  0
   -4.5262   -3.1941    3.3809 H   0  0  0  0  0  0  0  0  0  0  0  0
   -5.7145   -1.1680    2.4857 H   0  0  0  0  0  0  0  0  0  0  0  0
   -4.7705    0.0678    0.5342 H   0  0  0  0  0  0  0  0  0  0  0  0
  1 20  1  0  0  0  0
  2  1  1  0  0  0  0
  2  3  1  0  0  0  0
  3  4  1  0  0  0  0
  4  5  1  0  0  0  0
  4 24  2  0  0  0  0
  5 43  1  0  0  0  0
  6 44  1  0  0  0  0
  6  5  2  0  0  0  0
  7 25  1  0  0  0  0
  7  6  1  0  0  0  0
  8  7  2  0  0  0  0
  9  8  1  0  0  0  0
  9 10  1  0  0  0  0
 10 11  1  0  0  0  0
 11 29  2  0  0  0  0
 11 12  1  0  0  0  0
 12 32  2  0  0  0  0
 13 12  1  0  0  0  0
 13 14  2  0  0  0  0
 14 15  1  0  0  0  0
 15 33  1  0  0  0  0
 16 15  2  0  0  0  0
 16 36  1  0  0  0  0
 17 16  1  0  0  0  0
 18 17  1  0  0  0  0
 18 19  1  0  0  0  0
 19 37  1  0  0  0  0
 20 19  2  0  0  0  0
 20 40  1  0  0  0  0
 21  3  2  0  0  0  0
 21 22  1  0  0  0  0
 22 23  2  0  0  0  0
 23 24  1  0  0  0  0
 23 53  1  0  0  0  0
 24 54  1  0  0  0  0
 25 55  1  0  0  0  0
 26 56  1  0  0  0  0
 26 25  2  0  0  0  0
 27 26  1  0  0  0  0
 28 27  2  0  0  0  0
 28  8  1  0  0  0  0
 29 30  1  0  0  0  0
 30 60  1  0  0  0  0
 30 31  2  0  0  0  0
 31 61  1  0  0  0  0
 32 31  1  0  0  0  0
 32 62  1  0  0  0  0
 33 63  1  0  0  0  0
 33 34  2  0  0  0  0
 34 64  1  0  0  0  0
 35 34  1  0  0  0  0
 35 65  1  0  0  0  0
 36 35  2  0  0  0  0
 37 67  1  0  0  0  0
 37 38  2  0  0  0  0
 38 68  1  0  0  0  0
 39 69  1  0  0  0  0
 39 38  1  0  0  0  0
 40 39  2  0  0  0  0
 41  1  1  0  0  0  0
 42  2  1  0  0  0  0
 45  9  1  0  0  0  0
 46 10  1  0  0  0  0
 47 13  1  0  0  0  0
 48 14  1  0  0  0  0
 49 17  1  0  0  0  0
 50 18  1  0  0  0  0
 51 21  1  0  0  0  0
 52 22  1  0  0  0  0
 57 27  1  0  0  0  0
 58 28  1  0  0  0  0
 59 29  1  0  0  0  0
 66 36  1  0  0  0  0
 70 40  1  0  0  0  0
M  END
