2,6,9
 OpenBabel05122313063D

 10  9  0  0  0  0  0  0  0  0999 V2000
    0.0000    3.2673   -0.3953 S   0  0  0  0  0  0  0  0  0  0  0  0
    0.0000    0.3668    2.1470 C   0  0  0  0  0  3  0  0  0  0  0  0
    0.0001   -0.2061    3.0943 H   0  0  0  0  0  0  0  0  0  0  0  0
    0.0001    1.7580    2.0983 C   0  0  0  0  0  0  0  0  0  0  0  0
    0.0001    2.5167    2.9022 H   0  0  0  0  0  0  0  0  0  0  0  0
    0.0000    1.9590    0.6729 C   0  0  0  0  0  2  0  0  0  0  0  0
    0.0000    2.3274   -1.9025 C   0  0  0  0  0  0  0  0  0  0  0  0
    0.0000    2.9648   -2.8029 H   0  0  0  0  0  0  0  0  0  0  0  0
    0.0000    0.9577   -1.8698 C   0  0  0  0  0  3  0  0  0  0  0  0
    0.0000    0.5007   -2.8818 H   0  0  0  0  0  0  0  0  0  0  0  0
  1  6  1  0  0  0  0
  2  3  1  0  0  0  0
  4  2  2  0  0  0  0
  4  5  1  0  0  0  0
  6  4  1  0  0  0  0
  7  9  2  0  0  0  0
  7  1  1  0  0  0  0
  8  7  1  0  0  0  0
 10  9  1  0  0  0  0
M  END
