5,6,12
 OpenBabel05122313063D

 43 45  0  0  0  0  0  0  0  0999 V2000
    2.3113    1.7465   -0.0441 N   0  0  0  0  0  0  0  0  0  0  0  0
    3.2290   -0.2163    0.1263 N   0  0  0  0  0  0  0  0  0  0  0  0
   -2.3113    1.7465   -0.0442 N   0  0  0  0  0  0  0  0  0  0  0  0
   -3.2290   -0.2162    0.1263 N   0  0  0  0  0  0  0  0  0  0  0  0
    2.0138    0.3921    0.0412 C   0  0  0  0  0  2  0  0  0  0  0  0
   -2.0138    0.3922    0.0412 C   0  0  0  0  0  2  0  0  0  0  0  0
   -3.6797    1.9585   -0.0285 C   0  0  0  0  0  0  0  0  0  0  0  0
   -4.1278    2.9542   -0.0806 H   0  0  0  0  0  0  0  0  0  0  0  0
   -4.2615    0.7192    0.0743 C   0  0  0  0  0  0  0  0  0  0  0  0
   -5.3162    0.4382    0.1239 H   0  0  0  0  0  0  0  0  0  0  0  0
   -1.2116    2.6399   -0.0936 C   0  0  0  0  0  0  0  0  0  0  0  0
    0.0000    1.9350   -0.0440 C   0  0  0  0  0  3  0  0  0  0  0  0
    1.2116    2.6399   -0.0935 C   0  0  0  0  0  0  0  0  0  0  0  0
    1.2335    4.0396   -0.1835 C   0  0  0  0  0  0  0  0  0  0  0  0
    2.1777    4.6022   -0.2224 H   0  0  0  0  0  0  0  0  0  0  0  0
    0.0000    4.7214   -0.2255 C   0  0  0  0  0  0  0  0  0  0  0  0
    0.0000    5.8190   -0.2954 H   0  0  0  0  0  0  0  0  0  0  0  0
   -1.2335    4.0396   -0.1835 C   0  0  0  0  0  0  0  0  0  0  0  0
   -2.1777    4.6022   -0.2224 H   0  0  0  0  0  0  0  0  0  0  0  0
    3.6798    1.9585   -0.0284 C   0  0  0  0  0  0  0  0  0  0  0  0
    4.1279    2.9542   -0.0805 H   0  0  0  0  0  0  0  0  0  0  0  0
    4.2615    0.7192    0.0744 C   0  0  0  0  0  0  0  0  0  0  0  0
    5.3162    0.4382    0.1240 H   0  0  0  0  0  0  0  0  0  0  0  0
    3.3702   -1.6806    0.2101 C   0  0  0  0  0  0  0  0  0  0  0  0
    2.4521   -2.0047    0.7391 H   0  0  0  0  0  0  0  0  0  0  0  0
    4.5813   -2.0759    1.0528 C   0  0  0  0  0  0  0  0  0  0  0  0
    5.5386   -1.8205    0.5532 H   0  0  0  0  0  0  0  0  0  0  0  0
    4.5791   -3.1724    1.2083 H   0  0  0  0  0  0  0  0  0  0  0  0
    4.5560   -1.5874    2.0466 H   0  0  0  0  0  0  0  0  0  0  0  0
    3.3798   -2.2926   -1.1938 C   0  0  0  0  0  0  0  0  0  0  0  0
    4.2825   -1.9775   -1.7571 H   0  0  0  0  0  0  0  0  0  0  0  0
    2.4844   -1.9727   -1.7649 H   0  0  0  0  0  0  0  0  0  0  0  0
    3.3882   -3.4000   -1.1286 H   0  0  0  0  0  0  0  0  0  0  0  0
   -3.3702   -1.6806    0.2101 C   0  0  0  0  0  0  0  0  0  0  0  0
   -2.4521   -2.0047    0.7391 H   0  0  0  0  0  0  0  0  0  0  0  0
   -4.5813   -2.0759    1.0529 C   0  0  0  0  0  0  0  0  0  0  0  0
   -5.5386   -1.8205    0.5532 H   0  0  0  0  0  0  0  0  0  0  0  0
   -4.5560   -1.5873    2.0466 H   0  0  0  0  0  0  0  0  0  0  0  0
   -4.5791   -3.1724    1.2084 H   0  0  0  0  0  0  0  0  0  0  0  0
   -3.3799   -2.2927   -1.1937 C   0  0  0  0  0  0  0  0  0  0  0  0
   -3.3883   -3.4000   -1.1286 H   0  0  0  0  0  0  0  0  0  0  0  0
   -2.4845   -1.9728   -1.7648 H   0  0  0  0  0  0  0  0  0  0  0  0
   -4.2825   -1.9776   -1.7571 H   0  0  0  0  0  0  0  0  0  0  0  0
  1 20  1  0  0  0  0
  1  5  1  0  0  0  0
  2 24  1  0  0  0  0
  3  7  1  0  0  0  0
  3  6  1  0  0  0  0
  4 34  1  0  0  0  0
  5  2  1  0  0  0  0
  6  4  1  0  0  0  0
  7  9  2  0  0  0  0
  8  7  1  0  0  0  0
  9 10  1  0  0  0  0
  9  4  1  0  0  0  0
 11  3  1  0  0  0  0
 11 12  1  0  0  0  0
 13  1  1  0  0  0  0
 13 12  2  0  0  0  0
 14 13  1  0  0  0  0
 15 14  1  0  0  0  0
 16 18  1  0  0  0  0
 16 14  2  0  0  0  0
 17 16  1  0  0  0  0
 18 11  2  0  0  0  0
 19 18  1  0  0  0  0
 20 22  2  0  0  0  0
 21 20  1  0  0  0  0
 22 23  1  0  0  0  0
 22  2  1  0  0  0  0
 24 25  1  0  0  0  0
 24 26  1  0  0  0  0
 26 28  1  0  0  0  0
 26 29  1  0  0  0  0
 27 26  1  0  0  0  0
 30 33  1  0  0  0  0
 30 24  1  0  0  0  0
 31 30  1  0  0  0  0
 32 30  1  0  0  0  0
 34 35  1  0  0  0  0
 34 36  1  0  0  0  0
 36 39  1  0  0  0  0
 36 38  1  0  0  0  0
 37 36  1  0  0  0  0
 40 41  1  0  0  0  0
 40 34  1  0  0  0  0
 42 40  1  0  0  0  0
 43 40  1  0  0  0  0
M  END
