2,6,30
 OpenBabel05122313063D

 41 45  0  0  1  0  0  0  0  0999 V2000
    2.0130    1.4028   -0.2139 C   0  0  0  0  0  0  0  0  0  0  0  0
    1.2254    2.1637   -1.1417 C   0  0  0  0  0  3  0  0  0  0  0  0
    1.2449    2.0670   -2.2333 H   0  0  0  0  0  0  0  0  0  0  0  0
    0.4469    3.1071   -0.4075 C   0  0  0  0  0  3  0  0  0  0  0  0
   -0.2625    3.8244   -0.8340 H   0  0  0  0  0  0  0  0  0  0  0  0
    0.7087    2.9106    0.9740 C   0  0  0  0  0  3  0  0  0  0  0  0
    0.2378    3.4464    1.8061 H   0  0  0  0  0  0  0  0  0  0  0  0
    1.6734    1.8632    1.0924 C   0  0  0  0  0  0  0  0  0  0  0  0
    2.0808    1.4755    2.0338 H   0  0  0  0  0  0  0  0  0  0  0  0
    2.9674    0.2879   -0.5327 C   0  0  2  0  0  0  0  0  0  0  0  0
    3.8606    0.3787    0.1196 H   0  0  0  0  0  0  0  0  0  0  0  0
    3.3784    0.0272   -2.0051 C   0  0  0  0  0  0  0  0  0  0  0  0
    2.6735    0.4755   -2.7313 H   0  0  0  0  0  0  0  0  0  0  0  0
    4.4013    0.3416   -2.2887 H   0  0  0  0  0  0  0  0  0  0  0  0
    3.1383   -1.4868   -1.7968 C   0  0  0  0  0  0  0  0  0  0  0  0
    4.0777   -2.0503   -1.6289 H   0  0  0  0  0  0  0  0  0  0  0  0
    2.5430   -2.0184   -2.5644 H   0  0  0  0  0  0  0  0  0  0  0  0
    2.4105   -1.1960   -0.4466 C   0  0  1  0  0  0  0  0  0  0  0  0
    2.8757   -2.0502    0.7423 C   0  0  0  0  0  0  0  0  0  0  0  0
    2.8124   -3.1198    0.4384 H   0  0  0  0  0  0  0  0  0  0  0  0
    3.9508   -1.8450    0.9300 H   0  0  0  0  0  0  0  0  0  0  0  0
    2.0490   -1.8453    2.0170 C   0  0  0  0  0  0  0  0  0  0  0  0
    2.4870   -2.4261    2.8537 H   0  0  0  0  0  0  0  0  0  0  0  0
    2.0870   -0.7783    2.3246 H   0  0  0  0  0  0  0  0  0  0  0  0
    0.5855   -2.2509    1.8024 C   0  0  0  0  0  0  0  0  0  0  0  0
    0.5034   -3.3612    1.7534 H   0  0  0  0  0  0  0  0  0  0  0  0
   -0.0451   -1.9215    2.6532 H   0  0  0  0  0  0  0  0  0  0  0  0
    0.0638   -1.6817    0.5173 C   0  0  0  0  0  0  0  0  0  0  0  0
    0.9012   -1.2269   -0.5440 C   0  0  0  0  0  0  0  0  0  0  0  0
    0.0728   -0.8162   -1.6435 C   0  0  0  0  0  3  0  0  0  0  0  0
    0.4226   -0.4679   -2.6224 H   0  0  0  0  0  0  0  0  0  0  0  0
   -1.2884   -1.1700   -1.3244 C   0  0  0  0  0  0  0  0  0  0  0  0
   -1.3011   -1.6579    0.0400 C   0  0  0  0  0  0  0  0  0  0  0  0
   -2.5322   -2.0218    0.6560 C   0  0  0  0  0  0  0  0  0  0  0  0
   -2.5472   -2.3606    1.7017 H   0  0  0  0  0  0  0  0  0  0  0  0
   -3.6973   -1.9471   -0.0934 C   0  0  0  0  0  0  0  0  0  0  0  0
   -4.6572   -2.2315    0.3629 H   0  0  0  0  0  0  0  0  0  0  0  0
   -3.6778   -1.5073   -1.4504 C   0  0  0  0  0  0  0  0  0  0  0  0
   -4.6227   -1.4704   -2.0131 H   0  0  0  0  0  0  0  0  0  0  0  0
   -2.5000   -1.1103   -2.0656 C   0  0  0  0  0  0  0  0  0  0  0  0
   -2.4965   -0.7456   -3.1031 H   0  0  0  0  0  0  0  0  0  0  0  0
  1  8  2  0  0  0  0
  2  4  1  0  0  0  0
  2  1  1  0  0  0  0
  3  2  1  0  0  0  0
  4  6  1  0  0  0  0
  5  4  1  0  0  0  0
  6  8  1  0  0  0  0
  6  7  1  0  0  0  0
  8  9  1  0  0  0  0
 10 18  1  0  0  0  0
 10  1  1  0  0  0  0
 10 11  1  1  0  0  0
 12 15  1  0  0  0  0
 12 10  1  0  0  0  0
 13 12  1  0  0  0  0
 14 12  1  0  0  0  0
 15 16  1  0  0  0  0
 15 18  1  0  0  0  0
 17 15  1  0  0  0  0
 18 29  1  6  0  0  0
 18 19  1  0  0  0  0
 19 21  1  0  0  0  0
 19 22  1  0  0  0  0
 20 19  1  0  0  0  0
 22 24  1  0  0  0  0
 22 23  1  0  0  0  0
 25 22  1  0  0  0  0
 25 27  1  0  0  0  0
 26 25  1  0  0  0  0
 28 25  1  0  0  0  0
 29 28  2  0  0  0  0
 30 32  1  0  0  0  0
 30 29  1  0  0  0  0
 31 30  1  0  0  0  0
 32 33  1  0  0  0  0
 33 28  1  0  0  0  0
 33 34  2  0  0  0  0
 34 35  1  0  0  0  0
 36 37  1  0  0  0  0
 36 34  1  0  0  0  0
 38 36  2  0  0  0  0
 39 38  1  0  0  0  0
 40 38  1  0  0  0  0
 40 32  2  0  0  0  0
 41 40  1  0  0  0  0
M  END
