4,5,10
 OpenBabel05122313063D

 25 25  0  0  0  0  0  0  0  0999 V2000
    3.4873    0.2684    0.2627 O   0  0  0  0  0  0  0  0  0  0  0  0
   -0.1456    0.5242   -1.6662 C   0  0  0  0  0  3  0  0  0  0  0  0
    0.6437   -0.8045    0.2515 C   0  0  0  0  0  3  0  0  0  0  0  0
    0.6414    0.4241   -0.4784 C   0  0  0  0  0  3  0  0  0  0  0  0
   -0.9660   -0.5642   -2.0759 C   0  0  0  0  0  3  0  0  0  0  0  0
    2.9730    1.3857   -0.4257 C   0  0  0  0  0  0  0  0  0  0  0  0
   -0.9697   -1.7866   -1.3492 C   0  0  0  0  0  3  0  0  0  0  0  0
    4.8171   -0.0608   -0.0957 C   0  0  0  0  0  0  0  0  0  0  0  0
    1.5085    1.5749   -0.0296 C   0  0  0  0  0  0  0  0  0  0  0  0
   -0.1794   -1.8837   -0.1692 C   0  0  0  0  0  3  0  0  0  0  0  0
    5.2494   -1.2822    0.6943 C   0  0  0  0  0  0  0  0  0  0  0  0
   -0.1765    1.4730   -2.2196 H   0  0  0  0  0  0  0  0  0  0  0  0
    1.2428   -0.8825    1.1669 H   0  0  0  0  0  0  0  0  0  0  0  0
   -1.6204   -0.4490   -2.9518 H   0  0  0  0  0  0  0  0  0  0  0  0
    3.5513    2.3106   -0.1757 H   0  0  0  0  0  0  0  0  0  0  0  0
    3.0574    1.2413   -1.5331 H   0  0  0  0  0  0  0  0  0  0  0  0
   -1.6270   -2.6125   -1.6506 H   0  0  0  0  0  0  0  0  0  0  0  0
    5.4981    0.8036    0.1102 H   0  0  0  0  0  0  0  0  0  0  0  0
    4.8816   -0.2583   -1.1957 H   0  0  0  0  0  0  0  0  0  0  0  0
    1.4527    1.6830    1.0724 H   0  0  0  0  0  0  0  0  0  0  0  0
    1.1346    2.5220   -0.4668 H   0  0  0  0  0  0  0  0  0  0  0  0
   -0.2219   -2.7988    0.4388 H   0  0  0  0  0  0  0  0  0  0  0  0
    5.1990   -1.0803    1.7827 H   0  0  0  0  0  0  0  0  0  0  0  0
    4.5886   -2.1438    0.4724 H   0  0  0  0  0  0  0  0  0  0  0  0
    6.2897   -1.5643    0.4385 H   0  0  0  0  0  0  0  0  0  0  0  0
  2  4  1  0  0  0  0
  3 13  1  0  0  0  0
  4  9  1  0  0  0  0
  4  3  1  0  0  0  0
  5  2  1  0  0  0  0
  5  7  1  0  0  0  0
  6 15  1  0  0  0  0
  6  9  1  0  0  0  0
  6  1  1  0  0  0  0
  7 10  1  0  0  0  0
  8 18  1  0  0  0  0
  8  1  1  0  0  0  0
  8 11  1  0  0  0  0
  9 20  1  0  0  0  0
 10  3  1  0  0  0  0
 10 22  1  0  0  0  0
 11 23  1  0  0  0  0
 12  2  1  0  0  0  0
 14  5  1  0  0  0  0
 16  6  1  0  0  0  0
 17  7  1  0  0  0  0
 19  8  1  0  0  0  0
 21  9  1  0  0  0  0
 24 11  1  0  0  0  0
 25 11  1  0  0  0  0
M  END
