9,10,11
 OpenBabel05122313063D

 79 82  0  0  0  0  0  0  0  0999 V2000
    1.5015    1.0128   -0.0266 P   0  0  0  0  0  4  0  0  0  0  0  0
   -1.6434    0.8222   -0.1547 P   0  0  0  0  0  4  0  0  0  0  0  0
    4.7982   -2.1450   -0.4142 Si  0  0  0  0  0  0  0  0  0  0  0  0
   -4.4196   -2.7769    0.2432 Si  0  0  0  0  0  0  0  0  0  0  0  0
    3.0640   -2.3564   -0.5900 O   0  0  0  0  0  0  0  0  0  0  0  0
   -2.6767   -2.7909    0.0082 O   0  0  0  0  0  0  0  0  0  0  0  0
    2.6865   -0.1436   -0.3097 N   0  0  0  0  0  0  0  0  0  0  0  0
   -2.6200   -0.5325    0.0241 N   0  0  0  0  0  0  0  0  0  0  0  0
   -0.0224    0.2935   -0.3889 C   0  0  0  0  0  2  0  0  0  0  0  0
    2.1826   -1.3641   -0.4397 C   0  0  0  0  0  3  0  0  0  0  0  0
   -1.9515   -1.6730   -0.0860 C   0  0  0  0  0  3  0  0  0  0  0  0
    1.9227    2.4840   -1.0161 C   0  0  0  0  0  0  0  0  0  0  0  0
    3.1055    2.5109   -1.7800 C   0  0  0  0  0  0  0  0  0  0  0  0
    3.7895    1.6512   -1.7325 H   0  0  0  0  0  0  0  0  0  0  0  0
    3.3848    3.6183   -2.5956 C   0  0  0  0  0  0  0  0  0  0  0  0
    4.3070    3.6338   -3.1963 H   0  0  0  0  0  0  0  0  0  0  0  0
    2.4933    4.7018   -2.6473 C   0  0  0  0  0  0  0  0  0  0  0  0
    2.7158    5.5685   -3.2882 H   0  0  0  0  0  0  0  0  0  0  0  0
    1.3138    4.6777   -1.8842 C   0  0  0  0  0  0  0  0  0  0  0  0
    0.6086    5.5215   -1.9273 H   0  0  0  0  0  0  0  0  0  0  0  0
    1.0256    3.5712   -1.0734 C   0  0  0  0  0  0  0  0  0  0  0  0
    0.0925    3.5506   -0.4897 H   0  0  0  0  0  0  0  0  0  0  0  0
    5.1680   -1.5499    1.3315 C   0  0  0  0  0  0  0  0  0  0  0  0
    4.7680   -0.5288    1.4827 H   0  0  0  0  0  0  0  0  0  0  0  0
    6.2623   -1.5389    1.5170 H   0  0  0  0  0  0  0  0  0  0  0  0
    4.7013   -2.2230    2.0793 H   0  0  0  0  0  0  0  0  0  0  0  0
    5.3985   -3.9081   -0.6743 C   0  0  0  0  0  0  0  0  0  0  0  0
    4.9307   -4.5967    0.0580 H   0  0  0  0  0  0  0  0  0  0  0  0
    6.4996   -3.9725   -0.5547 H   0  0  0  0  0  0  0  0  0  0  0  0
    5.1420   -4.2686   -1.6911 H   0  0  0  0  0  0  0  0  0  0  0  0
    5.4983   -1.0107   -1.7443 C   0  0  0  0  0  0  0  0  0  0  0  0
    5.3414    0.0514   -1.4768 H   0  0  0  0  0  0  0  0  0  0  0  0
    5.0039   -1.2014   -2.7183 H   0  0  0  0  0  0  0  0  0  0  0  0
    6.5863   -1.1902   -1.8713 H   0  0  0  0  0  0  0  0  0  0  0  0
    1.6912    1.4994    1.7359 C   0  0  0  0  0  0  0  0  0  0  0  0
    1.6836    0.4541    2.6846 C   0  0  0  0  0  0  0  0  0  0  0  0
    1.6104   -0.5902    2.3400 H   0  0  0  0  0  0  0  0  0  0  0  0
    1.7576    0.7449    4.0518 C   0  0  0  0  0  0  0  0  0  0  0  0
    1.7621   -0.0762    4.7850 H   0  0  0  0  0  0  0  0  0  0  0  0
    1.8215    2.0809    4.4869 C   0  0  0  0  0  0  0  0  0  0  0  0
    1.8722    2.3088    5.5626 H   0  0  0  0  0  0  0  0  0  0  0  0
    1.8206    3.1214    3.5474 C   0  0  0  0  0  0  0  0  0  0  0  0
    1.8685    4.1688    3.8823 H   0  0  0  0  0  0  0  0  0  0  0  0
    1.7658    2.8345    2.1731 C   0  0  0  0  0  0  0  0  0  0  0  0
    1.7868    3.6560    1.4424 H   0  0  0  0  0  0  0  0  0  0  0  0
   -4.8444   -1.9735    1.8912 C   0  0  0  0  0  0  0  0  0  0  0  0
   -4.6267   -0.8891    1.8610 H   0  0  0  0  0  0  0  0  0  0  0  0
   -4.2467   -2.4277    2.7078 H   0  0  0  0  0  0  0  0  0  0  0  0
   -5.9179   -2.1232    2.1311 H   0  0  0  0  0  0  0  0  0  0  0  0
   -5.2662   -1.9677   -1.2286 C   0  0  0  0  0  0  0  0  0  0  0  0
   -5.0373   -0.8857   -1.2632 H   0  0  0  0  0  0  0  0  0  0  0  0
   -6.3660   -2.1062   -1.1675 H   0  0  0  0  0  0  0  0  0  0  0  0
   -4.9163   -2.4271   -2.1755 H   0  0  0  0  0  0  0  0  0  0  0  0
   -4.7881   -4.6212    0.2914 C   0  0  0  0  0  0  0  0  0  0  0  0
   -4.4810   -5.1113   -0.6546 H   0  0  0  0  0  0  0  0  0  0  0  0
   -5.8729   -4.8035    0.4368 H   0  0  0  0  0  0  0  0  0  0  0  0
   -4.2425   -5.1133    1.1218 H   0  0  0  0  0  0  0  0  0  0  0  0
   -1.8603    1.8750    1.3242 C   0  0  0  0  0  0  0  0  0  0  0  0
   -1.6830    1.2620    2.5827 C   0  0  0  0  0  0  0  0  0  0  0  0
   -1.5313    0.1730    2.6363 H   0  0  0  0  0  0  0  0  0  0  0  0
   -1.6865    2.0389    3.7465 C   0  0  0  0  0  0  0  0  0  0  0  0
   -1.5396    1.5571    4.7245 H   0  0  0  0  0  0  0  0  0  0  0  0
   -1.8603    3.4320    3.6660 C   0  0  0  0  0  0  0  0  0  0  0  0
   -1.8539    4.0406    4.5830 H   0  0  0  0  0  0  0  0  0  0  0  0
   -2.0393    4.0453    2.4177 C   0  0  0  0  0  0  0  0  0  0  0  0
   -2.1807    5.1349    2.3518 H   0  0  0  0  0  0  0  0  0  0  0  0
   -2.0414    3.2700    1.2461 C   0  0  0  0  0  0  0  0  0  0  0  0
   -2.1961    3.7505    0.2679 H   0  0  0  0  0  0  0  0  0  0  0  0
   -2.3528    1.7729   -1.5455 C   0  0  0  0  0  0  0  0  0  0  0  0
   -1.5550    2.0397   -2.6724 C   0  0  0  0  0  0  0  0  0  0  0  0
   -0.5147    1.6782   -2.6820 H   0  0  0  0  0  0  0  0  0  0  0  0
   -2.0959    2.7431   -3.7603 C   0  0  0  0  0  0  0  0  0  0  0  0
   -1.4687    2.9554   -4.6395 H   0  0  0  0  0  0  0  0  0  0  0  0
   -3.4330    3.1683   -3.7274 C   0  0  0  0  0  0  0  0  0  0  0  0
   -3.8574    3.7172   -4.5822 H   0  0  0  0  0  0  0  0  0  0  0  0
   -4.2359    2.8884   -2.6072 C   0  0  0  0  0  0  0  0  0  0  0  0
   -5.2876    3.2128   -2.5877 H   0  0  0  0  0  0  0  0  0  0  0  0
   -3.6996    2.1913   -1.5157 C   0  0  0  0  0  0  0  0  0  0  0  0
   -4.3247    1.9673   -0.6373 H   0  0  0  0  0  0  0  0  0  0  0  0
  1 35  1  0  0  0  0
  2  8  1  0  0  0  0
  2 58  1  0  0  0  0
  3 23  1  0  0  0  0
  4 54  1  0  0  0  0
  4 46  1  0  0  0  0
  5 10  1  0  0  0  0
  5  3  1  0  0  0  0
  6  4  1  0  0  0  0
  7  1  1  0  0  0  0
  9  2  1  0  0  0  0
  9  1  1  0  0  0  0
 10  7  2  0  0  0  0
 11  6  1  0  0  0  0
 11  8  2  0  0  0  0
 12  1  1  0  0  0  0
 13 14  1  0  0  0  0
 13 12  2  0  0  0  0
 15 13  1  0  0  0  0
 16 15  1  0  0  0  0
 17 15  2  0  0  0  0
 17 19  1  0  0  0  0
 18 17  1  0  0  0  0
 19 21  2  0  0  0  0
 20 19  1  0  0  0  0
 21 12  1  0  0  0  0
 21 22  1  0  0  0  0
 23 24  1  0  0  0  0
 23 25  1  0  0  0  0
 23 26  1  0  0  0  0
 27 29  1  0  0  0  0
 27  3  1  0  0  0  0
 27 28  1  0  0  0  0
 30 27  1  0  0  0  0
 31 32  1  0  0  0  0
 31  3  1  0  0  0  0
 33 31  1  0  0  0  0
 34 31  1  0  0  0  0
 35 44  2  0  0  0  0
 35 36  1  0  0  0  0
 36 38  2  0  0  0  0
 37 36  1  0  0  0  0
 38 40  1  0  0  0  0
 38 39  1  0  0  0  0
 40 41  1  0  0  0  0
 42 43  1  0  0  0  0
 42 40  2  0  0  0  0
 44 42  1  0  0  0  0
 45 44  1  0  0  0  0
 46 49  1  0  0  0  0
 46 48  1  0  0  0  0
 47 46  1  0  0  0  0
 50 52  1  0  0  0  0
 50  4  1  0  0  0  0
 51 50  1  0  0  0  0
 53 50  1  0  0  0  0
 54 56  1  0  0  0  0
 54 57  1  0  0  0  0
 55 54  1  0  0  0  0
 58 59  1  0  0  0  0
 59 60  1  0  0  0  0
 59 61  2  0  0  0  0
 61 62  1  0  0  0  0
 63 61  1  0  0  0  0
 63 64  1  0  0  0  0
 65 63  2  0  0  0  0
 66 65  1  0  0  0  0
 67 58  2  0  0  0  0
 67 65  1  0  0  0  0
 68 67  1  0  0  0  0
 69 78  1  0  0  0  0
 69  2  1  0  0  0  0
 70 69  2  0  0  0  0
 71 70  1  0  0  0  0
 72 74  2  0  0  0  0
 72 70  1  0  0  0  0
 73 72  1  0  0  0  0
 74 76  1  0  0  0  0
 75 74  1  0  0  0  0
 76 77  1  0  0  0  0
 76 78  2  0  0  0  0
 78 79  1  0  0  0  0
M  END
