35,37,41
 OpenBabel05122313063D

 66 70  0  0  1  0  0  0  0  0999 V2000
   -1.0042    1.2066   -0.5674 P   0  0  0  0  0  0  0  0  0  0  0  0
    5.8316   -1.3818    0.4472 O   0  0  0  0  0  0  0  0  0  0  0  0
    5.7794    1.2117   -0.4899 O   0  0  0  0  0  0  0  0  0  0  0  0
    2.9367    1.7759   -0.4347 O   0  0  0  0  0  0  0  0  0  0  0  0
    1.3778   -0.4851    0.4139 O   0  0  0  0  0  0  0  0  0  0  0  0
    4.2610   -2.1010   -1.1529 O   0  0  0  0  0  0  0  0  0  0  0  0
    0.9375   -2.7784    0.1917 O   0  0  0  0  0  0  0  0  0  0  0  0
    5.3028   -1.1859   -0.8334 C   0  0  1  0  0  0  0  0  0  0  0  0
    6.0765   -1.3918   -1.6111 H   0  0  0  0  0  0  0  0  0  0  0  0
    4.8107    0.2825   -0.9251 C   0  0  1  0  0  0  0  0  0  0  0  0
    4.5546    0.4616   -1.9995 H   0  0  0  0  0  0  0  0  0  0  0  0
    3.5245    0.5368   -0.1090 C   0  0  2  0  0  0  0  0  0  0  0  0
    3.7823    0.4856    0.9754 H   0  0  0  0  0  0  0  0  0  0  0  0
    2.5204   -0.5575   -0.4377 C   0  0  1  0  0  0  0  0  0  0  0  0
    2.1929   -0.4175   -1.4978 H   0  0  0  0  0  0  0  0  0  0  0  0
    3.1436   -1.9499   -0.2861 C   0  0  1  0  0  0  0  0  0  0  0  0
    3.4502   -2.0714    0.7775 H   0  0  0  0  0  0  0  0  0  0  0  0
    2.0890   -3.0053   -0.6162 C   0  0  0  0  0  0  0  0  0  0  0  0
    1.8322   -2.9465   -1.7013 H   0  0  0  0  0  0  0  0  0  0  0  0
    2.4515   -4.0274   -0.3948 H   0  0  0  0  0  0  0  0  0  0  0  0
    0.4407   -1.4735    0.0157 C   0  0  1  0  0  0  0  0  0  0  0  0
    0.2046   -1.3097   -1.0673 H   0  0  0  0  0  0  0  0  0  0  0  0
    6.5179   -2.6136    0.5961 C   0  0  0  0  0  0  0  0  0  0  0  0
    6.9096   -2.6492    1.6301 H   0  0  0  0  0  0  0  0  0  0  0  0
    7.3722   -2.6895   -0.1176 H   0  0  0  0  0  0  0  0  0  0  0  0
    5.8484   -3.4855    0.4269 H   0  0  0  0  0  0  0  0  0  0  0  0
    6.9439    1.2734   -1.2814 C   0  0  0  0  0  0  0  0  0  0  0  0
    7.5167    2.1631   -0.9548 H   0  0  0  0  0  0  0  0  0  0  0  0
    6.7073    1.3831   -2.3676 H   0  0  0  0  0  0  0  0  0  0  0  0
    7.5975    0.3785   -1.1541 H   0  0  0  0  0  0  0  0  0  0  0  0
    3.3647    2.8780    0.3454 C   0  0  0  0  0  0  0  0  0  0  0  0
    2.7108    3.7298    0.0788 H   0  0  0  0  0  0  0  0  0  0  0  0
    4.4272    3.1393    0.1543 H   0  0  0  0  0  0  0  0  0  0  0  0
    3.2387    2.6761    1.4344 H   0  0  0  0  0  0  0  0  0  0  0  0
   -0.8002   -1.2707    0.8550 C   0  0  2  0  0  3  0  0  0  0  0  0
   -1.5520   -0.0495    0.7026 C   0  0  2  0  0  3  0  0  0  0  0  0
   -2.7298    0.1102    1.4869 C   0  0  0  0  0  3  0  0  0  0  0  0
   -3.3518    1.0037    1.3359 H   0  0  0  0  0  0  0  0  0  0  0  0
   -3.1416   -0.8802    2.4285 C   0  0  0  0  0  3  0  0  0  0  0  0
   -4.0755   -0.7490    2.9913 H   0  0  0  0  0  0  0  0  0  0  0  0
   -2.3878   -2.0722    2.5559 C   0  0  0  0  0  3  0  0  0  0  0  0
   -2.7329   -2.8709    3.2275 H   0  0  0  0  0  0  0  0  0  0  0  0
   -1.2006   -2.2600    1.7891 C   0  0  0  0  0  3  0  0  0  0  0  0
   -0.6213   -3.1892    1.8495 H   0  0  0  0  0  0  0  0  0  0  0  0
   -0.3744    2.5405    0.5445 C   0  0  0  0  0  0  0  0  0  0  0  0
    0.0884    2.2823    1.8509 C   0  0  0  0  0  0  0  0  0  0  0  0
    0.0528    1.2594    2.2516 H   0  0  0  0  0  0  0  0  0  0  0  0
    0.6009    3.3219    2.6427 C   0  0  0  0  0  0  0  0  0  0  0  0
    0.9519    3.1036    3.6631 H   0  0  0  0  0  0  0  0  0  0  0  0
    0.6622    4.6320    2.1436 C   0  0  0  0  0  0  0  0  0  0  0  0
    1.0555    5.4469    2.7701 H   0  0  0  0  0  0  0  0  0  0  0  0
    0.2271    4.8936    0.8336 C   0  0  0  0  0  0  0  0  0  0  0  0
    0.2807    5.9151    0.4265 H   0  0  0  0  0  0  0  0  0  0  0  0
   -0.2757    3.8553    0.0364 C   0  0  0  0  0  0  0  0  0  0  0  0
   -0.6122    4.0722   -0.9897 H   0  0  0  0  0  0  0  0  0  0  0  0
   -2.6558    1.8761   -1.0758 C   0  0  0  0  0  0  0  0  0  0  0  0
   -3.2373    1.2808   -2.2159 C   0  0  0  0  0  0  0  0  0  0  0  0
   -2.6889    0.4910   -2.7534 H   0  0  0  0  0  0  0  0  0  0  0  0
   -4.5085    1.6747   -2.6564 C   0  0  0  0  0  0  0  0  0  0  0  0
   -4.9558    1.1898   -3.5370 H   0  0  0  0  0  0  0  0  0  0  0  0
   -5.2076    2.6833   -1.9750 C   0  0  0  0  0  0  0  0  0  0  0  0
   -6.2048    2.9942   -2.3215 H   0  0  0  0  0  0  0  0  0  0  0  0
   -4.6298    3.2961   -0.8519 C   0  0  0  0  0  0  0  0  0  0  0  0
   -5.1723    4.0907   -0.3166 H   0  0  0  0  0  0  0  0  0  0  0  0
   -3.3619    2.8953   -0.4018 C   0  0  0  0  0  0  0  0  0  0  0  0
   -2.9150    3.3824    0.4784 H   0  0  0  0  0  0  0  0  0  0  0  0
  1 45  1  0  0  0  0
  2 23  1  0  0  0  0
  4 12  1  0  0  0  0
  4 31  1  0  0  0  0
  6  8  1  0  0  0  0
  6 16  1  0  0  0  0
  8  9  1  6  0  0  0
  8  2  1  0  0  0  0
 10 11  1  6  0  0  0
 10  8  1  0  0  0  0
 10  3  1  0  0  0  0
 10 12  1  0  0  0  0
 12 13  1  1  0  0  0
 14 15  1  6  0  0  0
 14 16  1  0  0  0  0
 14 12  1  0  0  0  0
 14  5  1  0  0  0  0
 16 17  1  1  0  0  0
 18 20  1  0  0  0  0
 18 16  1  0  0  0  0
 18  7  1  0  0  0  0
 19 18  1  0  0  0  0
 21 22  1  6  0  0  0
 21  7  1  0  0  0  0
 21  5  1  0  0  0  0
 21 35  1  0  0  0  0
 23 24  1  0  0  0  0
 25 23  1  0  0  0  0
 26 23  1  0  0  0  0
 27 30  1  0  0  0  0
 27 28  1  0  0  0  0
 27  3  1  0  0  0  0
 29 27  1  0  0  0  0
 31 34  1  0  0  0  0
 32 31  1  0  0  0  0
 33 31  1  0  0  0  0
 35 43  1  1  0  0  0
 36  1  1  6  0  0  0
 36 35  1  0  0  0  0
 36 37  1  0  0  0  0
 37 39  1  0  0  0  0
 38 37  1  0  0  0  0
 39 41  1  0  0  0  0
 39 40  1  0  0  0  0
 41 42  1  0  0  0  0
 43 44  1  0  0  0  0
 43 41  1  0  0  0  0
 45 46  1  0  0  0  0
 46 47  1  0  0  0  0
 46 48  2  0  0  0  0
 48 49  1  0  0  0  0
 50 48  1  0  0  0  0
 50 51  1  0  0  0  0
 52 50  2  0  0  0  0
 53 52  1  0  0  0  0
 54 45  2  0  0  0  0
 54 52  1  0  0  0  0
 55 54  1  0  0  0  0
 56  1  1  0  0  0  0
 56 65  1  0  0  0  0
 57 56  2  0  0  0  0
 58 57  1  0  0  0  0
 59 57  1  0  0  0  0
 59 61  2  0  0  0  0
 60 59  1  0  0  0  0
 61 63  1  0  0  0  0
 62 61  1  0  0  0  0
 63 65  2  0  0  0  0
 63 64  1  0  0  0  0
 65 66  1  0  0  0  0
M  END
