6,8,11
 OpenBabel05122313063D

 34 35  0  0  1  0  0  0  0  0999 V2000
   -3.4827   -0.7527    0.3898 N   0  0  0  0  0  0  0  0  0  0  0  0
   -1.2588   -0.7111   -0.6044 C   0  0  0  0  0  0  0  0  0  0  0  0
   -0.7251   -1.9328   -0.0874 C   0  0  0  0  0  0  0  0  0  0  0  0
    0.2927   -2.3917   -0.9741 C   0  0  0  0  0  0  0  0  0  0  0  0
    0.3966   -1.4602   -2.0452 C   0  0  0  0  0  0  0  0  0  0  0  0
   -0.5303   -0.4087   -1.8107 C   0  0  0  0  0  3  0  0  0  0  0  0
   -0.0792    1.9694    0.2370 C   0  0  2  0  0  3  0  0  0  0  0  0
    0.0612    1.4077    1.5533 C   0  0  0  0  0  3  0  0  0  0  0  0
    1.4409    1.4517    1.9145 C   0  0  0  0  0  0  0  0  0  0  0  0
    2.1676    1.9707    0.8130 C   0  0  0  0  0  0  0  0  0  0  0  0
    1.2365    2.2755   -0.2281 C   0  0  0  0  0  3  0  0  0  0  0  0
   -2.4398    0.0322   -0.1084 C   0  0  0  0  0  0  0  0  0  0  0  0
   -3.9088   -1.9485   -0.3265 C   0  0  0  0  0  0  0  0  0  0  0  0
   -4.5556   -0.0963    1.1074 C   0  0  0  0  0  0  0  0  0  0  0  0
   -2.5102    1.4064   -0.1615 C   0  0  0  0  0  0  0  0  0  0  0  0
   -1.3687    2.2896   -0.4194 C   0  0  0  0  0  0  0  0  0  0  0  0
   -1.4849    3.4425   -1.1365 C   0  0  0  0  0  0  0  0  0  0  0  0
   -1.0396   -2.4191    0.8431 H   0  0  0  0  0  0  0  0  0  0  0  0
    0.9137   -3.2837   -0.8306 H   0  0  0  0  0  0  0  0  0  0  0  0
    1.1065   -1.5159   -2.8774 H   0  0  0  0  0  0  0  0  0  0  0  0
   -0.7124    0.4634   -2.4506 H   0  0  0  0  0  0  0  0  0  0  0  0
   -0.7691    1.0631    2.1818 H   0  0  0  0  0  0  0  0  0  0  0  0
    1.8683    1.0887    2.8554 H   0  0  0  0  0  0  0  0  0  0  0  0
    3.2570    2.0702    0.7462 H   0  0  0  0  0  0  0  0  0  0  0  0
    1.4845    2.6755   -1.2190 H   0  0  0  0  0  0  0  0  0  0  0  0
   -4.6963   -1.7146   -1.0834 H   0  0  0  0  0  0  0  0  0  0  0  0
   -3.0575   -2.4142   -0.8530 H   0  0  0  0  0  0  0  0  0  0  0  0
   -4.3282   -2.6898    0.3846 H   0  0  0  0  0  0  0  0  0  0  0  0
   -4.1383    0.6449    1.8166 H   0  0  0  0  0  0  0  0  0  0  0  0
   -5.1284   -0.8554    1.6774 H   0  0  0  0  0  0  0  0  0  0  0  0
   -5.2759    0.4347    0.4367 H   0  0  0  0  0  0  0  0  0  0  0  0
   -3.4873    1.8922   -0.0264 H   0  0  0  0  0  0  0  0  0  0  0  0
   -0.6413    4.1405   -1.2389 H   0  0  0  0  0  0  0  0  0  0  0  0
   -2.4402    3.7196   -1.6078 H   0  0  0  0  0  0  0  0  0  0  0  0
  1 14  1  0  0  0  0
  2 12  1  0  0  0  0
  2  3  2  0  0  0  0
  3 18  1  0  0  0  0
  4 19  1  0  0  0  0
  4  3  1  0  0  0  0
  5  6  1  0  0  0  0
  5  4  2  0  0  0  0
  6  2  1  0  0  0  0
  7 16  1  1  0  0  0
  7  8  1  0  0  0  0
  8  9  1  0  0  0  0
  8 22  1  0  0  0  0
  9 23  1  0  0  0  0
 10  9  2  0  0  0  0
 11  7  1  0  0  0  0
 11 10  1  0  0  0  0
 12  1  1  0  0  0  0
 13 28  1  0  0  0  0
 13  1  1  0  0  0  0
 14 30  1  0  0  0  0
 14 29  1  0  0  0  0
 15 12  2  0  0  0  0
 15 32  1  0  0  0  0
 16 15  1  0  0  0  0
 17 16  2  0  0  0  0
 20  5  1  0  0  0  0
 21  6  1  0  0  0  0
 24 10  1  0  0  0  0
 25 11  1  0  0  0  0
 26 13  1  0  0  0  0
 27 13  1  0  0  0  0
 31 14  1  0  0  0  0
 33 17  1  0  0  0  0
 34 17  1  0  0  0  0
M  END
