2,5,8
 OpenBabel05122313063D

 50 50  0  0  1  0  0  0  0  0999 V2000
    1.6385   -0.4774   -1.0435 C   0  0  0  0  0  0  0  0  0  0  0  0
    1.3109    0.8448   -0.5835 C   0  0  0  0  0  3  0  0  0  0  0  0
    2.1865    1.4228   -0.2575 H   0  0  0  0  0  0  0  0  0  0  0  0
    0.0826    1.5714   -0.4944 C   0  0  1  0  0  3  0  0  0  0  0  0
   -1.2066    0.9902   -0.6656 C   0  0  0  0  0  3  0  0  0  0  0  0
   -2.0271    1.6577   -0.3840 H   0  0  0  0  0  0  0  0  0  0  0  0
   -1.6498   -0.3146   -1.0819 C   0  0  1  0  0  3  0  0  0  0  0  0
   -0.7683   -1.3890   -1.3607 C   0  0  0  0  0  3  0  0  0  0  0  0
   -1.2530   -2.3539   -1.5675 H   0  0  0  0  0  0  0  0  0  0  0  0
    0.6631   -1.4567   -1.3505 C   0  0  0  0  0  0  0  0  0  0  0  0
    1.0552   -2.4625   -1.5518 H   0  0  0  0  0  0  0  0  0  0  0  0
    3.1432   -0.8166   -1.1626 C   0  0  0  0  0  0  0  0  0  0  0  0
    3.7048    0.0987   -2.2807 C   0  0  0  0  0  0  0  0  0  0  0  0
    4.7804   -0.1180   -2.4334 H   0  0  0  0  0  0  0  0  0  0  0  0
    3.6147    1.1740   -2.0266 H   0  0  0  0  0  0  0  0  0  0  0  0
    3.1816   -0.0718   -3.2427 H   0  0  0  0  0  0  0  0  0  0  0  0
    3.8878   -0.5473    0.1623 C   0  0  0  0  0  0  0  0  0  0  0  0
    3.5299   -1.2239    0.9630 H   0  0  0  0  0  0  0  0  0  0  0  0
    3.7871    0.4966    0.5192 H   0  0  0  0  0  0  0  0  0  0  0  0
    4.9704   -0.7325    0.0206 H   0  0  0  0  0  0  0  0  0  0  0  0
    3.3881   -2.2827   -1.5580 C   0  0  0  0  0  0  0  0  0  0  0  0
    4.4778   -2.4584   -1.6410 H   0  0  0  0  0  0  0  0  0  0  0  0
    2.9452   -2.5360   -2.5418 H   0  0  0  0  0  0  0  0  0  0  0  0
    3.0029   -2.9912   -0.7967 H   0  0  0  0  0  0  0  0  0  0  0  0
    0.1949    3.0656   -0.0951 C   0  0  0  0  0  0  0  0  0  0  0  0
    1.0097    3.2395    1.2048 C   0  0  0  0  0  0  0  0  0  0  0  0
    1.1133    4.3177    1.4351 H   0  0  0  0  0  0  0  0  0  0  0  0
    2.0363    2.8286    1.1378 H   0  0  0  0  0  0  0  0  0  0  0  0
    0.4988    2.7553    2.0606 H   0  0  0  0  0  0  0  0  0  0  0  0
    0.9125    3.7774   -1.2695 C   0  0  0  0  0  0  0  0  0  0  0  0
    0.3469    3.6635   -2.2159 H   0  0  0  0  0  0  0  0  0  0  0  0
    1.9361    3.3844   -1.4329 H   0  0  0  0  0  0  0  0  0  0  0  0
    1.0016    4.8601   -1.0528 H   0  0  0  0  0  0  0  0  0  0  0  0
   -1.1788    3.7259    0.1140 C   0  0  0  0  0  0  0  0  0  0  0  0
   -1.7448    3.2627    0.9478 H   0  0  0  0  0  0  0  0  0  0  0  0
   -1.8044    3.7028   -0.8007 H   0  0  0  0  0  0  0  0  0  0  0  0
   -1.0323    4.7912    0.3762 H   0  0  0  0  0  0  0  0  0  0  0  0
   -3.1677   -0.5896   -1.2210 C   0  0  0  0  0  0  0  0  0  0  0  0
   -4.0324    0.5615   -0.6752 C   0  0  0  0  0  0  0  0  0  0  0  0
   -5.1005    0.2960   -0.7924 H   0  0  0  0  0  0  0  0  0  0  0  0
   -3.8789    1.5096   -1.2282 H   0  0  0  0  0  0  0  0  0  0  0  0
   -3.8603    0.7440    0.4046 H   0  0  0  0  0  0  0  0  0  0  0  0
   -3.5737   -1.8845   -0.4841 C   0  0  0  0  0  0  0  0  0  0  0  0
   -3.3684   -1.8082    0.6024 H   0  0  0  0  0  0  0  0  0  0  0  0
   -3.0607   -2.7869   -0.8700 H   0  0  0  0  0  0  0  0  0  0  0  0
   -4.6595   -2.0575   -0.6148 H   0  0  0  0  0  0  0  0  0  0  0  0
   -3.4419   -0.7391   -2.7391 C   0  0  0  0  0  0  0  0  0  0  0  0
   -4.5229   -0.9133   -2.9082 H   0  0  0  0  0  0  0  0  0  0  0  0
   -2.8894   -1.5941   -3.1772 H   0  0  0  0  0  0  0  0  0  0  0  0
   -3.1532    0.1763   -3.2935 H   0  0  0  0  0  0  0  0  0  0  0  0
  1  2  1  0  0  0  0
  2  4  1  0  0  0  0
  2  3  1  0  0  0  0
  4 25  1  1  0  0  0
  5  4  1  0  0  0  0
  5  6  1  0  0  0  0
  7 38  1  1  0  0  0
  7  5  1  0  0  0  0
  8 10  1  0  0  0  0
  8  7  1  0  0  0  0
  9  8  1  0  0  0  0
 10  1  2  0  0  0  0
 11 10  1  0  0  0  0
 12  1  1  0  0  0  0
 12 17  1  0  0  0  0
 13 15  1  0  0  0  0
 13 12  1  0  0  0  0
 14 13  1  0  0  0  0
 16 13  1  0  0  0  0
 17 19  1  0  0  0  0
 17 18  1  0  0  0  0
 20 17  1  0  0  0  0
 21 12  1  0  0  0  0
 21 24  1  0  0  0  0
 22 21  1  0  0  0  0
 23 21  1  0  0  0  0
 25 34  1  0  0  0  0
 25 26  1  0  0  0  0
 26 27  1  0  0  0  0
 26 29  1  0  0  0  0
 28 26  1  0  0  0  0
 30 33  1  0  0  0  0
 30 25  1  0  0  0  0
 31 30  1  0  0  0  0
 32 30  1  0  0  0  0
 34 37  1  0  0  0  0
 34 35  1  0  0  0  0
 36 34  1  0  0  0  0
 38 39  1  0  0  0  0
 38 43  1  0  0  0  0
 39 42  1  0  0  0  0
 40 39  1  0  0  0  0
 41 39  1  0  0  0  0
 43 44  1  0  0  0  0
 45 43  1  0  0  0  0
 46 43  1  0  0  0  0
 47 38  1  0  0  0  0
 48 47  1  0  0  0  0
 49 47  1  0  0  0  0
 50 47  1  0  0  0  0
M  END
