14,18,22
 OpenBabel05122313063D

 26 26  0  0  1  0  0  0  0  0999 V2000
   -0.8635   -1.8582    1.4666 F   0  0  0  0  0  0  0  0  0  0  0  0
   -3.4169    0.2433    0.1134 N   0  0  0  0  0  0  0  0  0  0  0  0
   -3.8063   -1.1356    0.3404 C   0  0  0  0  0  0  0  0  0  0  0  0
   -4.8918   -1.2515    0.1403 H   0  0  0  0  0  0  0  0  0  0  0  0
   -3.6188   -1.4178    1.3953 H   0  0  0  0  0  0  0  0  0  0  0  0
   -3.2707   -1.8776   -0.3102 H   0  0  0  0  0  0  0  0  0  0  0  0
   -1.8805    2.1012    0.7484 C   0  0  0  0  0  0  0  0  0  0  0  0
   -1.7965    2.6117   -0.2314 H   0  0  0  0  0  0  0  0  0  0  0  0
   -0.9524    2.3170    1.3100 H   0  0  0  0  0  0  0  0  0  0  0  0
   -2.7419    2.5408    1.2869 H   0  0  0  0  0  0  0  0  0  0  0  0
   -2.0834    0.5895    0.6294 C   0  0  2  0  0  0  0  0  0  0  0  0
   -2.0483    0.1745    1.6567 H   0  0  0  0  0  0  0  0  0  0  0  0
   -0.9709   -0.1106   -0.1543 C   0  0  2  0  0  3  0  0  0  0  0  0
   -0.4580    0.3820   -1.3951 C   0  0  0  0  0  3  0  0  0  0  0  0
   -0.7989    1.3614   -1.7580 H   0  0  0  0  0  0  0  0  0  0  0  0
    0.5004   -0.3418   -2.1611 C   0  0  0  0  0  3  0  0  0  0  0  0
    0.8959    0.0839   -3.0924 H   0  0  0  0  0  0  0  0  0  0  0  0
    1.0319   -1.5538   -1.6450 C   0  0  0  0  0  3  0  0  0  0  0  0
    1.8305   -2.0796   -2.1870 H   0  0  0  0  0  0  0  0  0  0  0  0
    0.5478   -2.0890   -0.4167 C   0  0  0  0  0  3  0  0  0  0  0  0
    0.9473   -3.0150    0.0158 H   0  0  0  0  0  0  0  0  0  0  0  0
   -0.4365   -1.3568    0.2920 C   0  0  1  0  0  3  0  0  0  0  0  0
   -3.7206    0.6852   -1.2336 C   0  0  0  0  0  0  0  0  0  0  0  0
   -3.1827    0.1161   -2.0378 H   0  0  0  0  0  0  0  0  0  0  0  0
   -3.4839    1.7600   -1.3579 H   0  0  0  0  0  0  0  0  0  0  0  0
   -4.8076    0.5633   -1.4214 H   0  0  0  0  0  0  0  0  0  0  0  0
  2  3  1  0  0  0  0
  2 11  1  0  0  0  0
  3  5  1  0  0  0  0
  4  3  1  0  0  0  0
  6  3  1  0  0  0  0
  7 10  1  0  0  0  0
  7  9  1  0  0  0  0
  8  7  1  0  0  0  0
 11  7  1  0  0  0  0
 11 12  1  1  0  0  0
 13 22  1  0  0  0  0
 13 11  1  6  0  0  0
 14 13  1  0  0  0  0
 15 14  1  0  0  0  0
 16 18  1  0  0  0  0
 16 14  1  0  0  0  0
 17 16  1  0  0  0  0
 18 20  1  0  0  0  0
 19 18  1  0  0  0  0
 20 21  1  0  0  0  0
 20 22  1  0  0  0  0
 22  1  1  1  0  0  0
 23  2  1  0  0  0  0
 24 23  1  0  0  0  0
 25 23  1  0  0  0  0
 26 23  1  0  0  0  0
M  END
