2,5,9
 OpenBabel05122313063D

 24 25  0  0  1  0  0  0  0  0999 V2000
   -0.6880    0.6931   -0.7237 C   0  0  1  0  0  3  0  0  0  0  0  0
    0.1721    1.6147   -0.0336 C   0  0  0  0  0  3  0  0  0  0  0  0
   -0.2195    2.1921    0.8151 H   0  0  0  0  0  0  0  0  0  0  0  0
    1.5316    1.8074   -0.4020 C   0  0  2  0  0  3  0  0  0  0  0  0
    2.0550    1.0076   -1.4703 C   0  0  0  0  0  3  0  0  0  0  0  0
    3.1211    1.0889   -1.7275 H   0  0  0  0  0  0  0  0  0  0  0  0
    1.2300    0.0981   -2.1764 C   0  0  0  0  0  3  0  0  0  0  0  0
    1.6567   -0.5305   -2.9695 H   0  0  0  0  0  0  0  0  0  0  0  0
   -0.1282   -0.0717   -1.7873 C   0  0  0  0  0  3  0  0  0  0  0  0
   -0.7802   -0.8081   -2.2758 H   0  0  0  0  0  0  0  0  0  0  0  0
   -2.0959    0.4450   -0.3135 C   0  0  0  0  0  0  0  0  0  0  0  0
   -2.8451   -0.2682   -1.1812 N   0  0  0  0  0  0  0  0  0  0  0  0
   -4.1195   -0.5286   -0.8691 C   0  0  0  0  0  0  0  0  0  0  0  0
   -4.6912   -1.1193   -1.6072 H   0  0  0  0  0  0  0  0  0  0  0  0
   -4.7333   -0.0937    0.3171 C   0  0  0  0  0  0  0  0  0  0  0  0
   -5.7867   -0.3327    0.5233 H   0  0  0  0  0  0  0  0  0  0  0  0
   -3.9570    0.6414    1.2247 C   0  0  0  0  0  0  0  0  0  0  0  0
   -4.3843    0.9917    2.1764 H   0  0  0  0  0  0  0  0  0  0  0  0
   -2.6211    0.9148    0.9117 C   0  0  0  0  0  0  0  0  0  0  0  0
   -1.9905    1.4582    1.6285 H   0  0  0  0  0  0  0  0  0  0  0  0
    2.4063    2.7916    0.3251 C   0  0  0  0  0  0  0  0  0  0  0  0
    3.4442    2.4158    0.4123 H   0  0  0  0  0  0  0  0  0  0  0  0
    2.0267    2.9894    1.3456 H   0  0  0  0  0  0  0  0  0  0  0  0
    2.4428    3.7595   -0.2192 H   0  0  0  0  0  0  0  0  0  0  0  0
  1 11  1  1  0  0  0
  1  2  1  0  0  0  0
  2  3  1  0  0  0  0
  4  2  1  0  0  0  0
  4 21  1  1  0  0  0
  5  4  1  0  0  0  0
  6  5  1  0  0  0  0
  7  9  1  0  0  0  0
  7  5  1  0  0  0  0
  8  7  1  0  0  0  0
  9  1  1  0  0  0  0
 10  9  1  0  0  0  0
 11 19  1  0  0  0  0
 12 13  1  0  0  0  0
 12 11  2  0  0  0  0
 13 15  2  0  0  0  0
 14 13  1  0  0  0  0
 15 16  1  0  0  0  0
 15 17  1  0  0  0  0
 17 18  1  0  0  0  0
 19 17  2  0  0  0  0
 19 20  1  0  0  0  0
 21 22  1  0  0  0  0
 21 23  1  0  0  0  0
 24 21  1  0  0  0  0
M  END
