5,27,36
 OpenBabel05122313063D

 59 65  0  0  1  0  0  0  0  0999 V2000
    5.5079   -0.6814    1.5670 O   0  0  0  0  0  0  0  0  0  0  0  0
    2.9529    0.1369    0.9103 N   0  0  0  0  0  0  0  0  0  0  0  0
    2.1484    2.0938    0.7166 N   0  0  0  0  0  0  0  0  0  0  0  0
    3.4006    2.3061    1.1970 N   0  0  0  0  0  0  0  0  0  0  0  0
    1.8050    0.7754    0.5243 C   0  0  0  0  0  2  0  0  0  0  0  0
    3.6174   -1.6819   -0.6309 C   0  0  0  0  0  0  0  0  0  0  0  0
    3.2651   -1.2947    0.7967 C   0  0  1  0  0  0  0  0  0  0  0  0
    2.3498   -1.8449    1.0976 H   0  0  0  0  0  0  0  0  0  0  0  0
    3.0462   -2.8399   -1.1905 C   0  0  0  0  0  0  0  0  0  0  0  0
    2.2877   -3.3945   -0.6193 H   0  0  0  0  0  0  0  0  0  0  0  0
    4.5405   -0.9369   -1.3900 C   0  0  0  0  0  0  0  0  0  0  0  0
    4.9911   -0.0255   -0.9715 H   0  0  0  0  0  0  0  0  0  0  0  0
    4.4165   -1.5651    1.7857 C   0  0  0  0  0  0  0  0  0  0  0  0
    4.0409   -1.4748    2.8346 H   0  0  0  0  0  0  0  0  0  0  0  0
    4.7983   -2.5919    1.6342 H   0  0  0  0  0  0  0  0  0  0  0  0
    4.8930   -1.3494   -2.6831 C   0  0  0  0  0  0  0  0  0  0  0  0
    5.6139   -0.7569   -3.2668 H   0  0  0  0  0  0  0  0  0  0  0  0
    1.1350    3.0300    0.3905 C   0  0  0  0  0  0  0  0  0  0  0  0
    3.8824    1.0819    1.3110 C   0  0  0  0  0  0  0  0  0  0  0  0
    3.4034   -3.2548   -2.4818 C   0  0  0  0  0  0  0  0  0  0  0  0
    2.9430   -4.1580   -2.9104 H   0  0  0  0  0  0  0  0  0  0  0  0
    5.1926    0.6543    1.9088 C   0  0  0  0  0  0  0  0  0  0  0  0
    4.3283   -2.5119   -3.2313 C   0  0  0  0  0  0  0  0  0  0  0  0
    4.6033   -2.8334   -4.2474 H   0  0  0  0  0  0  0  0  0  0  0  0
    1.1677    4.4301    0.4048 C   0  0  0  0  0  0  0  0  0  0  0  0
    2.0711    4.9725    0.7171 H   0  0  0  0  0  0  0  0  0  0  0  0
   -0.0001    2.3115   -0.0000 C   0  0  0  0  0  3  0  0  0  0  0  0
   -0.0001    5.1129    0.0000 C   0  0  0  0  0  0  0  0  0  0  0  0
   -0.0002    6.2129    0.0001 H   0  0  0  0  0  0  0  0  0  0  0  0
    5.1340    0.7782    3.0203 H   0  0  0  0  0  0  0  0  0  0  0  0
    6.0141    1.3028    1.5459 H   0  0  0  0  0  0  0  0  0  0  0  0
   -5.5081   -0.6816   -1.5668 O   0  0  0  0  0  0  0  0  0  0  0  0
   -2.9530    0.1368   -0.9103 N   0  0  0  0  0  0  0  0  0  0  0  0
   -2.1486    2.0937   -0.7166 N   0  0  0  0  0  0  0  0  0  0  0  0
   -3.4008    2.3060   -1.1969 N   0  0  0  0  0  0  0  0  0  0  0  0
   -1.8051    0.7754   -0.5244 C   0  0  0  0  0  2  0  0  0  0  0  0
   -3.6173   -1.6820    0.6310 C   0  0  0  0  0  0  0  0  0  0  0  0
   -3.2651   -1.2948   -0.7967 C   0  0  1  0  0  0  0  0  0  0  0  0
   -2.3499   -1.8450   -1.0977 H   0  0  0  0  0  0  0  0  0  0  0  0
   -3.0458   -2.8399    1.1905 C   0  0  0  0  0  0  0  0  0  0  0  0
   -2.2873   -3.3944    0.6193 H   0  0  0  0  0  0  0  0  0  0  0  0
   -4.5405   -0.9372    1.3900 C   0  0  0  0  0  0  0  0  0  0  0  0
   -4.9912   -0.0258    0.9716 H   0  0  0  0  0  0  0  0  0  0  0  0
   -4.4166   -1.5652   -1.7856 C   0  0  0  0  0  0  0  0  0  0  0  0
   -4.0411   -1.4749   -2.8345 H   0  0  0  0  0  0  0  0  0  0  0  0
   -4.7983   -2.5920   -1.6341 H   0  0  0  0  0  0  0  0  0  0  0  0
   -4.8928   -1.3497    2.6832 C   0  0  0  0  0  0  0  0  0  0  0  0
   -5.6137   -0.7573    3.2670 H   0  0  0  0  0  0  0  0  0  0  0  0
   -1.1352    3.0300   -0.3906 C   0  0  0  0  0  0  0  0  0  0  0  0
   -3.8826    1.0818   -1.3109 C   0  0  0  0  0  0  0  0  0  0  0  0
   -3.4029   -3.2548    2.4818 C   0  0  0  0  0  0  0  0  0  0  0  0
   -2.9423   -4.1579    2.9105 H   0  0  0  0  0  0  0  0  0  0  0  0
   -5.1928    0.6542   -1.9086 C   0  0  0  0  0  0  0  0  0  0  0  0
   -4.3279   -2.5120    3.2314 C   0  0  0  0  0  0  0  0  0  0  0  0
   -4.6027   -2.8336    4.2476 H   0  0  0  0  0  0  0  0  0  0  0  0
   -1.1680    4.4301   -0.4047 C   0  0  0  0  0  0  0  0  0  0  0  0
   -2.0714    4.9724   -0.7170 H   0  0  0  0  0  0  0  0  0  0  0  0
   -5.1343    0.7781   -3.0201 H   0  0  0  0  0  0  0  0  0  0  0  0
   -6.0143    1.3026   -1.5456 H   0  0  0  0  0  0  0  0  0  0  0  0
  1 13  1  0  0  0  0
  1 22  1  0  0  0  0
  2 19  1  0  0  0  0
  3  4  1  0  0  0  0
  4 19  2  0  0  0  0
  5  3  1  0  0  0  0
  5  2  1  0  0  0  0
  6  7  1  0  0  0  0
  7  2  1  0  0  0  0
  7  8  1  1  0  0  0
  7 13  1  0  0  0  0
  9  6  1  0  0  0  0
  9 10  1  0  0  0  0
 11 12  1  0  0  0  0
 11  6  2  0  0  0  0
 13 14  1  0  0  0  0
 15 13  1  0  0  0  0
 16 11  1  0  0  0  0
 17 16  1  0  0  0  0
 18 25  1  0  0  0  0
 18  3  1  0  0  0  0
 19 22  1  0  0  0  0
 20  9  2  0  0  0  0
 21 20  1  0  0  0  0
 22 30  1  0  0  0  0
 23 16  2  0  0  0  0
 23 20  1  0  0  0  0
 24 23  1  0  0  0  0
 25 26  1  0  0  0  0
 27 18  2  0  0  0  0
 28 29  1  0  0  0  0
 28 25  2  0  0  0  0
 31 22  1  0  0  0  0
 33 38  1  0  0  0  0
 33 36  1  0  0  0  0
 34 36  1  0  0  0  0
 34 49  1  0  0  0  0
 35 34  1  0  0  0  0
 37 40  2  0  0  0  0
 37 42  1  0  0  0  0
 38 39  1  6  0  0  0
 38 37  1  0  0  0  0
 40 51  1  0  0  0  0
 41 40  1  0  0  0  0
 42 47  2  0  0  0  0
 43 42  1  0  0  0  0
 44 46  1  0  0  0  0
 44 32  1  0  0  0  0
 44 38  1  0  0  0  0
 45 44  1  0  0  0  0
 47 54  1  0  0  0  0
 47 48  1  0  0  0  0
 49 27  1  0  0  0  0
 50 35  2  0  0  0  0
 50 33  1  0  0  0  0
 51 52  1  0  0  0  0
 51 54  2  0  0  0  0
 53 32  1  0  0  0  0
 53 59  1  0  0  0  0
 53 50  1  0  0  0  0
 54 55  1  0  0  0  0
 56 49  2  0  0  0  0
 56 28  1  0  0  0  0
 57 56  1  0  0  0  0
 58 53  1  0  0  0  0
M  END
