9,11,13
 OpenBabel05122313063D

 35 38  0  0  1  0  0  0  0  0999 V2000
    1.7940   -0.9412    1.6148 S   0  0  0  0  0  0  0  0  0  0  0  0
    3.2824   -1.9195    0.9860 C   0  0  1  0  0  0  0  0  0  0  0  0
    1.4699   -0.2962   -0.1304 C   0  0  1  0  0  0  0  0  0  0  0  0
    2.5835   -1.0397   -0.9928 C   0  0  2  0  0  0  0  0  0  0  0  0
    2.3062   -2.5308   -1.0191 C   0  0  0  0  0  0  0  0  0  0  0  0
    2.7127   -3.0488    0.1639 C   0  0  0  0  0  0  0  0  0  0  0  0
    3.8380   -0.9846   -0.0959 C   0  0  0  0  0  0  0  0  0  0  0  0
    0.0829   -0.6914   -0.6417 C   0  0  0  0  0  3  0  0  0  0  0  0
   -0.5882   -1.8712   -0.1816 C   0  0  0  0  0  3  0  0  0  0  0  0
   -1.8136   -2.2960   -0.7517 C   0  0  0  0  0  3  0  0  0  0  0  0
   -2.4249   -1.5113   -1.7754 C   0  0  0  0  0  3  0  0  0  0  0  0
   -1.7837   -0.3406   -2.2517 C   0  0  0  0  0  3  0  0  0  0  0  0
   -0.5508    0.0748   -1.6641 C   0  0  0  0  0  3  0  0  0  0  0  0
    1.6361    1.2275   -0.1311 C   0  0  0  0  0  0  0  0  0  0  0  0
    2.3276    1.9191   -1.1456 C   0  0  0  0  0  0  0  0  0  0  0  0
    2.3882    3.3234   -1.1509 C   0  0  0  0  0  0  0  0  0  0  0  0
    1.7500    4.0624   -0.1464 C   0  0  0  0  0  0  0  0  0  0  0  0
    1.0608    3.3852    0.8727 C   0  0  0  0  0  0  0  0  0  0  0  0
    1.0115    1.9866    0.8813 C   0  0  0  0  0  0  0  0  0  0  0  0
    3.9296   -2.1689    1.8458 H   0  0  0  0  0  0  0  0  0  0  0  0
    2.6647   -0.5758   -1.9924 H   0  0  0  0  0  0  0  0  0  0  0  0
    1.7546   -3.0495   -1.8143 H   0  0  0  0  0  0  0  0  0  0  0  0
    2.5587   -4.0727    0.5330 H   0  0  0  0  0  0  0  0  0  0  0  0
    4.7154   -1.4321   -0.6062 H   0  0  0  0  0  0  0  0  0  0  0  0
    4.0839    0.0280    0.2758 H   0  0  0  0  0  0  0  0  0  0  0  0
   -3.4079   -1.7991   -2.1741 H   0  0  0  0  0  0  0  0  0  0  0  0
   -2.2671    0.2878   -3.0115 H   0  0  0  0  0  0  0  0  0  0  0  0
   -0.0895    1.0191   -1.9854 H   0  0  0  0  0  0  0  0  0  0  0  0
    2.8330    1.3701   -1.9525 H   0  0  0  0  0  0  0  0  0  0  0  0
    2.9389    3.8385   -1.9527 H   0  0  0  0  0  0  0  0  0  0  0  0
    1.7911    5.1620   -0.1539 H   0  0  0  0  0  0  0  0  0  0  0  0
   -0.1419   -2.4173    0.6609 H   0  0  0  0  0  0  0  0  0  0  0  0
    0.5528    3.9496    1.6686 H   0  0  0  0  0  0  0  0  0  0  0  0
   -2.3265   -3.1811   -0.3525 H   0  0  0  0  0  0  0  0  0  0  0  0
    0.4786    1.4684    1.6912 H   0  0  0  0  0  0  0  0  0  0  0  0
  2  1  1  0  0  0  0
  2 20  1  1  0  0  0
  3  8  1  6  0  0  0
  3  1  1  0  0  0  0
  4 21  1  6  0  0  0
  4  3  1  0  0  0  0
  4  7  1  0  0  0  0
  5  4  1  0  0  0  0
  5  6  2  0  0  0  0
  6 23  1  0  0  0  0
  6  2  1  0  0  0  0
  7 25  1  0  0  0  0
  7  2  1  0  0  0  0
  8  9  1  0  0  0  0
  9 32  1  0  0  0  0
 10 34  1  0  0  0  0
 10  9  1  0  0  0  0
 11 10  1  0  0  0  0
 12 11  1  0  0  0  0
 12 13  1  0  0  0  0
 13  8  1  0  0  0  0
 14  3  1  0  0  0  0
 14 19  1  0  0  0  0
 15 14  2  0  0  0  0
 16 15  1  0  0  0  0
 16 17  2  0  0  0  0
 17 18  1  0  0  0  0
 18 19  2  0  0  0  0
 18 33  1  0  0  0  0
 19 35  1  0  0  0  0
 22  5  1  0  0  0  0
 24  7  1  0  0  0  0
 26 11  1  0  0  0  0
 27 12  1  0  0  0  0
 28 13  1  0  0  0  0
 29 15  1  0  0  0  0
 30 16  1  0  0  0  0
 31 17  1  0  0  0  0
M  END
