2,4,6
 OpenBabel05122313063D

 42 45  0  0  1  0  0  0  0  0999 V2000
   -0.6002    1.3053   -0.8988 C   0  0  2  0  0  3  0  0  0  0  0  0
   -1.4296    0.1213   -0.8764 C   0  0  2  0  0  3  0  0  0  0  0  0
   -0.8294   -1.1724   -0.8991 C   0  0  1  0  0  3  0  0  0  0  0  0
    0.6106   -1.2987   -0.8761 C   0  0  2  0  0  3  0  0  0  0  0  0
    1.4309   -0.1320   -0.8982 C   0  0  1  0  0  3  0  0  0  0  0  0
    0.8202    1.1782   -0.8753 C   0  0  1  0  0  3  0  0  0  0  0  0
   -1.2702    2.6692   -0.9337 C   0  0  0  0  0  0  0  0  0  0  0  0
   -0.3124    3.8326   -1.2029 C   0  0  0  0  0  0  0  0  0  0  0  0
    0.9679    3.6701   -0.3882 C   0  0  0  0  0  0  0  0  0  0  0  0
    1.7062    2.4075   -0.8298 C   0  0  0  0  0  0  0  0  0  0  0  0
   -1.6758   -2.4344   -0.9335 C   0  0  0  0  0  0  0  0  0  0  0  0
   -3.1620   -2.1867   -1.2038 C   0  0  0  0  0  0  0  0  0  0  0  0
   -3.6619   -0.9962   -0.3899 C   0  0  0  0  0  0  0  0  0  0  0  0
   -2.9373    0.2741   -0.8319 C   0  0  0  0  0  0  0  0  0  0  0  0
    2.9470   -0.2337   -0.9323 C   0  0  0  0  0  0  0  0  0  0  0  0
    3.4756   -1.6443   -1.2035 C   0  0  0  0  0  0  0  0  0  0  0  0
    2.6950   -2.6729   -0.3898 C   0  0  0  0  0  0  0  0  0  0  0  0
    1.2323   -2.6807   -0.8312 C   0  0  0  0  0  0  0  0  0  0  0  0
   -1.7952    2.8365    0.0311 H   0  0  0  0  0  0  0  0  0  0  0  0
   -2.0678    2.6506   -1.7054 H   0  0  0  0  0  0  0  0  0  0  0  0
   -0.8208    4.7906   -0.9724 H   0  0  0  0  0  0  0  0  0  0  0  0
   -0.0525    3.8667   -2.2844 H   0  0  0  0  0  0  0  0  0  0  0  0
    1.6310    4.5514   -0.5024 H   0  0  0  0  0  0  0  0  0  0  0  0
    0.7187    3.5901    0.6924 H   0  0  0  0  0  0  0  0  0  0  0  0
    2.5672    2.2191   -0.1600 H   0  0  0  0  0  0  0  0  0  0  0  0
    2.1385    2.5651   -1.8452 H   0  0  0  0  0  0  0  0  0  0  0  0
   -1.5587   -2.9717    0.0319 H   0  0  0  0  0  0  0  0  0  0  0  0
   -1.2606   -3.1167   -1.7043 H   0  0  0  0  0  0  0  0  0  0  0  0
   -3.7378   -3.1058   -0.9731 H   0  0  0  0  0  0  0  0  0  0  0  0
   -3.3207   -1.9791   -2.2854 H   0  0  0  0  0  0  0  0  0  0  0  0
   -4.7566   -0.8627   -0.5048 H   0  0  0  0  0  0  0  0  0  0  0  0
   -3.4684   -1.1716    0.6908 H   0  0  0  0  0  0  0  0  0  0  0  0
   -3.2893    0.5690   -1.8477 H   0  0  0  0  0  0  0  0  0  0  0  0
   -3.2049    1.1146   -0.1628 H   0  0  0  0  0  0  0  0  0  0  0  0
    3.3537    0.1358    0.0334 H   0  0  0  0  0  0  0  0  0  0  0  0
    3.3302    0.4677   -1.7026 H   0  0  0  0  0  0  0  0  0  0  0  0
    4.5595   -1.6834   -0.9734 H   0  0  0  0  0  0  0  0  0  0  0  0
    3.3747   -1.8850   -2.2852 H   0  0  0  0  0  0  0  0  0  0  0  0
    3.1267   -3.6876   -0.5052 H   0  0  0  0  0  0  0  0  0  0  0  0
    2.7506   -2.4183    0.6911 H   0  0  0  0  0  0  0  0  0  0  0  0
    1.1525   -3.1334   -1.8467 H   0  0  0  0  0  0  0  0  0  0  0  0
    0.6386   -3.3325   -0.1616 H   0  0  0  0  0  0  0  0  0  0  0  0
  1  7  1  1  0  0  0
  1  2  1  0  0  0  0
  1  6  1  0  0  0  0
  2 14  1  6  0  0  0
  3 11  1  1  0  0  0
  3  2  1  0  0  0  0
  3  4  1  0  0  0  0
  4 18  1  6  0  0  0
  5 15  1  1  0  0  0
  5  4  1  0  0  0  0
  5  6  1  0  0  0  0
  6 10  1  6  0  0  0
  7 19  1  0  0  0  0
  8 21  1  0  0  0  0
  8  7  1  0  0  0  0
  8  9  1  0  0  0  0
  9 24  1  0  0  0  0
 10  9  1  0  0  0  0
 10 25  1  0  0  0  0
 11 27  1  0  0  0  0
 12 29  1  0  0  0  0
 12 11  1  0  0  0  0
 12 13  1  0  0  0  0
 13 32  1  0  0  0  0
 14 13  1  0  0  0  0
 14 34  1  0  0  0  0
 15 35  1  0  0  0  0
 16 37  1  0  0  0  0
 16 15  1  0  0  0  0
 16 17  1  0  0  0  0
 17 40  1  0  0  0  0
 18 17  1  0  0  0  0
 18 42  1  0  0  0  0
 20  7  1  0  0  0  0
 22  8  1  0  0  0  0
 23  9  1  0  0  0  0
 26 10  1  0  0  0  0
 28 11  1  0  0  0  0
 30 12  1  0  0  0  0
 31 13  1  0  0  0  0
 33 14  1  0  0  0  0
 36 15  1  0  0  0  0
 38 16  1  0  0  0  0
 39 17  1  0  0  0  0
 41 18  1  0  0  0  0
M  END
