1,2,8
 OpenBabel05122313063D

 55 57  0  0  0  0  0  0  0  0999 V2000
    1.9713   -0.6088    0.6107 C   0  0  0  0  0  2  0  0  0  0  0  0
   -1.4673    1.2045   -0.3772 C   0  0  0  0  0  2  0  0  0  0  0  0
   -2.1617    3.2504   -1.1075 C   0  0  0  0  0  0  0  0  0  0  0  0
   -2.0886    4.2886   -1.4306 H   0  0  0  0  0  0  0  0  0  0  0  0
   -3.2673    2.4476   -0.9726 C   0  0  0  0  0  0  0  0  0  0  0  0
   -4.3206    2.6685   -1.1587 H   0  0  0  0  0  0  0  0  0  0  0  0
    0.3364    2.7450   -0.6698 C   0  0  0  0  0  0  0  0  0  0  0  0
    1.0347    1.6084   -0.2246 C   0  0  0  0  0  3  0  0  0  0  0  0
    2.4324    1.6401   -0.0774 C   0  0  0  0  0  0  0  0  0  0  0  0
    3.1679    2.8077   -0.3763 C   0  0  0  0  0  0  0  0  0  0  0  0
    4.6662    2.9194   -0.2479 C   0  0  0  0  0  0  0  0  0  0  0  0
    5.0080    3.9275   -0.5503 H   0  0  0  0  0  0  0  0  0  0  0  0
    5.1959    2.1854   -0.8914 H   0  0  0  0  0  0  0  0  0  0  0  0
    5.0093    2.7553    0.7957 H   0  0  0  0  0  0  0  0  0  0  0  0
    2.4202    3.9206   -0.8205 C   0  0  0  0  0  0  0  0  0  0  0  0
    2.9736    4.8428   -1.0592 H   0  0  0  0  0  0  0  0  0  0  0  0
    1.0175    3.9411   -0.9817 C   0  0  0  0  0  0  0  0  0  0  0  0
    0.3375    5.1976   -1.4638 C   0  0  0  0  0  0  0  0  0  0  0  0
   -0.2091    5.0361   -2.4171 H   0  0  0  0  0  0  0  0  0  0  0  0
    1.0805    5.9979   -1.6429 H   0  0  0  0  0  0  0  0  0  0  0  0
   -0.3934    5.5863   -0.7234 H   0  0  0  0  0  0  0  0  0  0  0  0
    4.1927   -0.0777    0.7060 C   0  0  0  0  0  0  0  0  0  0  0  0
    5.0922    0.5309    0.6162 H   0  0  0  0  0  0  0  0  0  0  0  0
    4.0438   -1.3736    1.1302 C   0  0  0  0  0  0  0  0  0  0  0  0
    4.7859   -2.1010    1.4711 H   0  0  0  0  0  0  0  0  0  0  0  0
    2.0898   -2.9677    1.3889 C   0  0  0  0  0  0  0  0  0  0  0  0
    1.1855   -2.7691    1.9973 H   0  0  0  0  0  0  0  0  0  0  0  0
    2.8151   -3.5110    2.0285 H   0  0  0  0  0  0  0  0  0  0  0  0
    1.7366   -3.7806    0.1406 C   0  0  0  0  0  0  0  0  0  0  0  0
    0.9801   -3.2159   -0.4449 H   0  0  0  0  0  0  0  0  0  0  0  0
    1.2480   -4.7223    0.4782 H   0  0  0  0  0  0  0  0  0  0  0  0
    2.9230   -4.1026   -0.7704 C   0  0  0  0  0  0  0  0  0  0  0  0
    3.6933   -4.6733   -0.2029 H   0  0  0  0  0  0  0  0  0  0  0  0
    3.4055   -3.1496   -1.0780 H   0  0  0  0  0  0  0  0  0  0  0  0
    2.5043   -4.8745   -2.0219 C   0  0  0  0  0  0  0  0  0  0  0  0
    2.0251   -5.8423   -1.7621 H   0  0  0  0  0  0  0  0  0  0  0  0
    3.3710   -5.0953   -2.6767 H   0  0  0  0  0  0  0  0  0  0  0  0
    1.7743   -4.2841   -2.6134 H   0  0  0  0  0  0  0  0  0  0  0  0
   -3.6172    0.0160   -0.2351 C   0  0  0  0  0  0  0  0  0  0  0  0
   -3.4120   -0.2652    0.8193 H   0  0  0  0  0  0  0  0  0  0  0  0
   -3.2224   -0.8053   -0.8693 H   0  0  0  0  0  0  0  0  0  0  0  0
   -5.1138    0.1856   -0.4583 C   0  0  0  0  0  0  0  0  0  0  0  0
   -5.3117    0.4742   -1.5140 H   0  0  0  0  0  0  0  0  0  0  0  0
   -5.5029    1.0120    0.1761 H   0  0  0  0  0  0  0  0  0  0  0  0
   -5.8779   -1.1034   -0.1344 C   0  0  0  0  0  0  0  0  0  0  0  0
   -5.4771   -1.9294   -0.7638 H   0  0  0  0  0  0  0  0  0  0  0  0
   -5.6669   -1.3945    0.9189 H   0  0  0  0  0  0  0  0  0  0  0  0
   -7.3871   -0.9814   -0.3438 C   0  0  0  0  0  0  0  0  0  0  0  0
   -7.8196   -0.1863    0.2984 H   0  0  0  0  0  0  0  0  0  0  0  0
   -7.9112   -1.9276   -0.1024 H   0  0  0  0  0  0  0  0  0  0  0  0
   -7.6282   -0.7244   -1.3961 H   0  0  0  0  0  0  0  0  0  0  0  0
    2.9200    0.3842    0.3897 N   0  0  0  0  0  0  0  0  0  0  0  0
    2.6860   -1.6717    1.0703 N   0  0  0  0  0  0  0  0  0  0  0  0
   -1.0632    2.4815   -0.7409 N   0  0  0  0  0  0  0  0  0  0  0  0
   -2.8190    1.2071   -0.5269 N   0  0  0  0  0  0  0  0  0  0  0  0
  1 53  1  0  0  0  0
  3  5  2  0  0  0  0
  3 54  1  0  0  0  0
  4  3  1  0  0  0  0
  5 55  1  0  0  0  0
  6  5  1  0  0  0  0
  7  8  1  0  0  0  0
  8  9  2  0  0  0  0
  9 52  1  0  0  0  0
 10 11  1  0  0  0  0
 10  9  1  0  0  0  0
 11 14  1  0  0  0  0
 12 11  1  0  0  0  0
 13 11  1  0  0  0  0
 15 10  2  0  0  0  0
 16 15  1  0  0  0  0
 17 15  1  0  0  0  0
 17  7  2  0  0  0  0
 18 17  1  0  0  0  0
 18 21  1  0  0  0  0
 19 18  1  0  0  0  0
 20 18  1  0  0  0  0
 22 24  2  0  0  0  0
 23 22  1  0  0  0  0
 24 25  1  0  0  0  0
 26 27  1  0  0  0  0
 26 28  1  0  0  0  0
 29 31  1  0  0  0  0
 29 26  1  0  0  0  0
 30 29  1  0  0  0  0
 32 33  1  0  0  0  0
 32 29  1  0  0  0  0
 34 32  1  0  0  0  0
 35 36  1  0  0  0  0
 35 32  1  0  0  0  0
 37 35  1  0  0  0  0
 38 35  1  0  0  0  0
 39 40  1  0  0  0  0
 41 39  1  0  0  0  0
 42 39  1  0  0  0  0
 42 45  1  0  0  0  0
 42 44  1  0  0  0  0
 43 42  1  0  0  0  0
 45 47  1  0  0  0  0
 46 45  1  0  0  0  0
 48 45  1  0  0  0  0
 48 50  1  0  0  0  0
 48 49  1  0  0  0  0
 51 48  1  0  0  0  0
 52  1  1  0  0  0  0
 52 22  1  0  0  0  0
 53 24  1  0  0  0  0
 53 26  1  0  0  0  0
 54  7  1  0  0  0  0
 54  2  1  0  0  0  0
 55  2  1  0  0  0  0
 55 39  1  0  0  0  0
M  END
