4,13,23
 OpenBabel05122313063D

 39 38  0  0  0  0  0  0  0  0999 V2000
    0.1627    1.0965    2.3689 C   0  0  0  0  0  3  0  0  0  0  0  0
   -0.4506    1.8877    2.8322 H   0  0  0  0  0  0  0  0  0  0  0  0
    1.2453    1.1236    2.5648 H   0  0  0  0  0  0  0  0  0  0  0  0
   -0.4247   -0.0545    1.8448 C   0  0  0  0  0  3  0  0  0  0  0  0
    0.2446   -0.9044    1.6074 H   0  0  0  0  0  0  0  0  0  0  0  0
   -1.9064   -0.3614    1.8539 C   0  0  0  0  0  0  0  0  0  0  0  0
   -2.4777    0.3927    2.4316 H   0  0  0  0  0  0  0  0  0  0  0  0
   -2.0722   -1.3340    2.3586 H   0  0  0  0  0  0  0  0  0  0  0  0
   -2.5227   -0.4486    0.4296 C   0  0  0  0  0  0  0  0  0  0  0  0
   -2.7700    0.9673   -0.1711 C   0  0  0  0  0  0  0  0  0  0  0  0
   -2.8729    0.8673   -1.2694 H   0  0  0  0  0  0  0  0  0  0  0  0
   -3.7564    1.3247    0.2053 H   0  0  0  0  0  0  0  0  0  0  0  0
   -1.7334    2.0315    0.1714 C   0  0  0  0  0  3  0  0  0  0  0  0
   -1.8509    2.3566    1.2263 H   0  0  0  0  0  0  0  0  0  0  0  0
   -1.7865    3.2736   -0.7227 C   0  0  0  0  0  0  0  0  0  0  0  0
   -1.8540    2.9719   -1.7896 H   0  0  0  0  0  0  0  0  0  0  0  0
   -2.7112    3.8587   -0.5160 H   0  0  0  0  0  0  0  0  0  0  0  0
   -0.5328    4.1128   -0.4831 C   0  0  0  0  0  0  0  0  0  0  0  0
   -0.4909    5.0005   -1.1542 H   0  0  0  0  0  0  0  0  0  0  0  0
   -0.5389    4.5108    0.5533 H   0  0  0  0  0  0  0  0  0  0  0  0
    0.7028    3.2565   -0.6790 C   0  0  0  0  0  3  0  0  0  0  0  0
    1.6275    3.5717   -0.1651 H   0  0  0  0  0  0  0  0  0  0  0  0
    0.8006    2.2717   -1.6633 C   0  0  0  0  0  3  0  0  0  0  0  0
   -0.0122    2.0956   -2.3854 H   0  0  0  0  0  0  0  0  0  0  0  0
    1.7673    1.8022   -1.8988 H   0  0  0  0  0  0  0  0  0  0  0  0
   -3.8529   -1.2131    0.4855 C   0  0  0  0  0  0  0  0  0  0  0  0
   -5.6278   -2.0183   -0.8417 C   0  0  0  0  0  0  0  0  0  0  0  0
   -5.4956   -3.0677   -0.5103 H   0  0  0  0  0  0  0  0  0  0  0  0
   -5.9271   -1.9835   -1.9039 H   0  0  0  0  0  0  0  0  0  0  0  0
   -6.4006   -1.5450   -0.2035 H   0  0  0  0  0  0  0  0  0  0  0  0
   -1.5474   -1.2034   -0.4892 C   0  0  0  0  0  0  0  0  0  0  0  0
   -0.7126   -3.3109   -1.1516 C   0  0  0  0  0  0  0  0  0  0  0  0
    0.3174   -3.0380   -0.8483 H   0  0  0  0  0  0  0  0  0  0  0  0
   -0.8522   -3.1171   -2.2326 H   0  0  0  0  0  0  0  0  0  0  0  0
   -0.9446   -4.3618   -0.9084 H   0  0  0  0  0  0  0  0  0  0  0  0
   -0.7252   -0.6427   -1.2083 O   0  0  0  0  0  0  0  0  0  0  0  0
   -1.6618   -2.5238   -0.3861 O   0  0  0  0  0  0  0  0  0  0  0  0
   -4.3766   -1.6571    1.4866 O   0  0  0  0  0  0  0  0  0  0  0  0
   -4.3876   -1.3037   -0.7545 O   0  0  0  0  0  0  0  0  0  0  0  0
  1  3  1  0  0  0  0
  1  2  1  0  0  0  0
  4  6  1  0  0  0  0
  4  1  1  0  0  0  0
  5  4  1  0  0  0  0
  6  8  1  0  0  0  0
  6  7  1  0  0  0  0
  9 26  1  0  0  0  0
  9  6  1  0  0  0  0
 10 13  1  0  0  0  0
 10 12  1  0  0  0  0
 10  9  1  0  0  0  0
 11 10  1  0  0  0  0
 13 14  1  0  0  0  0
 15 17  1  0  0  0  0
 15 18  1  0  0  0  0
 15 13  1  0  0  0  0
 16 15  1  0  0  0  0
 18 20  1  0  0  0  0
 19 18  1  0  0  0  0
 21 18  1  0  0  0  0
 21 22  1  0  0  0  0
 23 21  1  0  0  0  0
 24 23  1  0  0  0  0
 25 23  1  0  0  0  0
 26 38  2  0  0  0  0
 27 39  1  0  0  0  0
 27 28  1  0  0  0  0
 27 30  1  0  0  0  0
 29 27  1  0  0  0  0
 31 37  1  0  0  0  0
 31  9  1  0  0  0  0
 32 35  1  0  0  0  0
 32 33  1  0  0  0  0
 32 37  1  0  0  0  0
 34 32  1  0  0  0  0
 36 31  2  0  0  0  0
 39 26  1  0  0  0  0
M  END
