3,7,11
 OpenBabel05122313063D

 35 37  0  0  0  0  0  0  0  0999 V2000
   -2.3879    0.0055    0.4143 Si  0  0  0  0  0  0  0  0  0  0  0  0
   -0.9390   -0.0033   -0.7747 C   0  0  0  0  0  3  0  0  0  0  0  0
   -0.3606   -1.2553   -1.2032 C   0  0  0  0  0  3  0  0  0  0  0  0
   -0.7799   -2.1936   -0.8066 H   0  0  0  0  0  0  0  0  0  0  0  0
    0.6661   -1.3197   -2.2003 C   0  0  0  0  0  3  0  0  0  0  0  0
    1.0586   -2.2903   -2.5356 H   0  0  0  0  0  0  0  0  0  0  0  0
    1.2258   -0.1008   -2.6921 C   0  0  0  0  0  3  0  0  0  0  0  0
    2.0373   -0.1433   -3.4352 H   0  0  0  0  0  0  0  0  0  0  0  0
    0.6880    1.1693   -2.2951 C   0  0  0  0  0  3  0  0  0  0  0  0
    1.0993    2.1035   -2.7031 H   0  0  0  0  0  0  0  0  0  0  0  0
   -0.3374    1.2068   -1.3008 C   0  0  0  0  0  3  0  0  0  0  0  0
   -0.7313    2.1853   -0.9837 H   0  0  0  0  0  0  0  0  0  0  0  0
   -3.4049   -1.5660    0.1206 C   0  0  0  0  0  0  0  0  0  0  0  0
   -3.7645   -1.9687   -1.1863 C   0  0  0  0  0  0  0  0  0  0  0  0
   -3.4368   -1.3683   -2.0509 H   0  0  0  0  0  0  0  0  0  0  0  0
   -4.5214   -3.1293   -1.4034 C   0  0  0  0  0  0  0  0  0  0  0  0
   -4.7924   -3.4256   -2.4287 H   0  0  0  0  0  0  0  0  0  0  0  0
   -4.9297   -3.9166   -0.3132 C   0  0  0  0  0  0  0  0  0  0  0  0
   -5.5206   -4.8300   -0.4827 H   0  0  0  0  0  0  0  0  0  0  0  0
   -4.5787   -3.5367    0.9914 C   0  0  0  0  0  0  0  0  0  0  0  0
   -4.8933   -4.1522    1.8485 H   0  0  0  0  0  0  0  0  0  0  0  0
   -3.8242   -2.3708    1.2029 C   0  0  0  0  0  0  0  0  0  0  0  0
   -3.5534   -2.0804    2.2315 H   0  0  0  0  0  0  0  0  0  0  0  0
   -3.4123    1.5712    0.1238 C   0  0  0  0  0  0  0  0  0  0  0  0
   -3.7112    2.0096   -1.1869 C   0  0  0  0  0  0  0  0  0  0  0  0
   -3.3246    1.4456   -2.0516 H   0  0  0  0  0  0  0  0  0  0  0  0
   -4.4834    3.1601   -1.4067 C   0  0  0  0  0  0  0  0  0  0  0  0
   -4.7058    3.4851   -2.4350 H   0  0  0  0  0  0  0  0  0  0  0  0
   -4.9686    3.9000   -0.3153 C   0  0  0  0  0  0  0  0  0  0  0  0
   -5.5717    4.8051   -0.4862 H   0  0  0  0  0  0  0  0  0  0  0  0
   -4.6789    3.4834    0.9935 C   0  0  0  0  0  0  0  0  0  0  0  0
   -5.0541    4.0619    1.8520 H   0  0  0  0  0  0  0  0  0  0  0  0
   -3.9081    2.3293    1.2076 C   0  0  0  0  0  0  0  0  0  0  0  0
   -3.6835    2.0123    2.2392 H   0  0  0  0  0  0  0  0  0  0  0  0
   -2.0715   -0.0135    1.8890 H   0  0  0  0  0  0  0  0  0  0  0  0
  1 35  1  0  0  0  0
  2  1  1  0  0  0  0
  3  4  1  0  0  0  0
  3  2  1  0  0  0  0
  5  3  1  0  0  0  0
  6  5  1  0  0  0  0
  7  9  1  0  0  0  0
  7  5  1  0  0  0  0
  8  7  1  0  0  0  0
  9 11  1  0  0  0  0
 10  9  1  0  0  0  0
 11 12  1  0  0  0  0
 11  2  1  0  0  0  0
 13  1  1  0  0  0  0
 13 22  1  0  0  0  0
 14 13  2  0  0  0  0
 15 14  1  0  0  0  0
 16 14  1  0  0  0  0
 16 18  2  0  0  0  0
 17 16  1  0  0  0  0
 18 20  1  0  0  0  0
 19 18  1  0  0  0  0
 20 22  2  0  0  0  0
 20 21  1  0  0  0  0
 22 23  1  0  0  0  0
 24  1  1  0  0  0  0
 24 33  1  0  0  0  0
 25 24  2  0  0  0  0
 26 25  1  0  0  0  0
 27 25  1  0  0  0  0
 27 29  2  0  0  0  0
 28 27  1  0  0  0  0
 29 31  1  0  0  0  0
 30 29  1  0  0  0  0
 31 33  2  0  0  0  0
 31 32  1  0  0  0  0
 33 34  1  0  0  0  0
M  END
