4,6,8
 OpenBabel05122313063D

 36 38  0  0  0  0  0  0  0  0999 V2000
   -1.2085   -0.0411    0.5817 C   0  0  0  0  0  0  0  0  0  0  0  0
   -0.9993   -0.1638    1.9861 O   0  0  0  0  0  0  0  0  0  0  0  0
   -0.0584   -0.7382   -0.1730 C   0  0  0  0  0  3  0  0  0  0  0  0
    0.5308   -1.9070    0.4096 C   0  0  0  0  0  3  0  0  0  0  0  0
    1.5586   -2.6168   -0.2550 C   0  0  0  0  0  3  0  0  0  0  0  0
    2.0393   -2.1468   -1.5160 C   0  0  0  0  0  3  0  0  0  0  0  0
    1.4671   -0.9973   -2.1124 C   0  0  0  0  0  3  0  0  0  0  0  0
    0.4340   -0.2851   -1.4264 C   0  0  0  0  0  3  0  0  0  0  0  0
   -1.3040    1.4385    0.1550 C   0  0  0  0  0  0  0  0  0  0  0  0
   -0.3968    2.3742    0.6914 C   0  0  0  0  0  0  0  0  0  0  0  0
   -0.4110    3.7121    0.2749 C   0  0  0  0  0  0  0  0  0  0  0  0
   -1.3404    4.1412   -0.6855 C   0  0  0  0  0  0  0  0  0  0  0  0
   -2.2553    3.2220   -1.2190 C   0  0  0  0  0  0  0  0  0  0  0  0
   -2.2371    1.8810   -0.8021 C   0  0  0  0  0  0  0  0  0  0  0  0
   -2.5256   -0.7827    0.2998 C   0  0  0  0  0  0  0  0  0  0  0  0
   -3.5586   -0.7050    1.2540 C   0  0  0  0  0  0  0  0  0  0  0  0
   -4.7922   -1.3264    1.0173 C   0  0  0  0  0  0  0  0  0  0  0  0
   -5.0126   -2.0332   -0.1763 C   0  0  0  0  0  0  0  0  0  0  0  0
   -3.9870   -2.1175   -1.1290 C   0  0  0  0  0  0  0  0  0  0  0  0
   -2.7488   -1.4988   -0.8906 C   0  0  0  0  0  0  0  0  0  0  0  0
   -0.2112    0.3605    2.2253 H   0  0  0  0  0  0  0  0  0  0  0  0
    0.1843   -2.2154    1.4053 H   0  0  0  0  0  0  0  0  0  0  0  0
    2.0270   -3.4864    0.2251 H   0  0  0  0  0  0  0  0  0  0  0  0
    2.8778   -2.6595   -2.0079 H   0  0  0  0  0  0  0  0  0  0  0  0
    1.8616   -0.6111   -3.0617 H   0  0  0  0  0  0  0  0  0  0  0  0
    0.0317    0.6428   -1.8560 H   0  0  0  0  0  0  0  0  0  0  0  0
    0.3510    2.0672    1.4377 H   0  0  0  0  0  0  0  0  0  0  0  0
    0.3162    4.4200    0.6995 H   0  0  0  0  0  0  0  0  0  0  0  0
   -1.3518    5.1912   -1.0147 H   0  0  0  0  0  0  0  0  0  0  0  0
   -2.9947    3.5482   -1.9663 H   0  0  0  0  0  0  0  0  0  0  0  0
   -2.9609    1.1693   -1.2242 H   0  0  0  0  0  0  0  0  0  0  0  0
   -3.3751   -0.1549    2.1869 H   0  0  0  0  0  0  0  0  0  0  0  0
   -5.5897   -1.2586    1.7731 H   0  0  0  0  0  0  0  0  0  0  0  0
   -5.9817   -2.5210   -0.3612 H   0  0  0  0  0  0  0  0  0  0  0  0
   -4.1458   -2.6742   -2.0650 H   0  0  0  0  0  0  0  0  0  0  0  0
   -1.9511   -1.5800   -1.6431 H   0  0  0  0  0  0  0  0  0  0  0  0
  1  2  1  0  0  0  0
  2 21  1  0  0  0  0
  3  4  1  0  0  0  0
  3  1  1  0  0  0  0
  4 22  1  0  0  0  0
  5 23  1  0  0  0  0
  5  4  1  0  0  0  0
  6  5  1  0  0  0  0
  7  6  1  0  0  0  0
  7  8  1  0  0  0  0
  8  3  1  0  0  0  0
  9  1  1  0  0  0  0
  9 10  1  0  0  0  0
 10 27  1  0  0  0  0
 11 10  2  0  0  0  0
 11 28  1  0  0  0  0
 12 11  1  0  0  0  0
 13 14  1  0  0  0  0
 13 12  2  0  0  0  0
 14  9  2  0  0  0  0
 15  1  1  0  0  0  0
 15 16  1  0  0  0  0
 16 32  1  0  0  0  0
 17 16  2  0  0  0  0
 17 33  1  0  0  0  0
 18 17  1  0  0  0  0
 19 20  1  0  0  0  0
 19 18  2  0  0  0  0
 20 15  2  0  0  0  0
 24  6  1  0  0  0  0
 25  7  1  0  0  0  0
 26  8  1  0  0  0  0
 29 12  1  0  0  0  0
 30 13  1  0  0  0  0
 31 14  1  0  0  0  0
 34 18  1  0  0  0  0
 35 19  1  0  0  0  0
 36 20  1  0  0  0  0
M  END
