5,9,13
 OpenBabel05122313063D

 34 34  0  0  1  0  0  0  0  0999 V2000
   -3.6607    0.8648   -1.3183 O   0  0  0  0  0  0  0  0  0  0  0  0
   -4.7085   -0.0602    0.4585 O   0  0  0  0  0  0  0  0  0  0  0  0
   -1.3892    1.0702    0.7992 O   0  0  0  0  0  0  0  0  0  0  0  0
    0.0686   -0.7067    0.0238 C   0  0  0  0  0  3  0  0  0  0  0  0
    0.6550   -0.8316    1.3160 C   0  0  0  0  0  3  0  0  0  0  0  0
    0.1698   -0.3120    2.1533 H   0  0  0  0  0  0  0  0  0  0  0  0
    1.8558   -1.5724    1.5158 C   0  0  0  0  0  3  0  0  0  0  0  0
    2.3083   -1.6317    2.5144 H   0  0  0  0  0  0  0  0  0  0  0  0
    2.5148   -2.1455    0.3955 C   0  0  0  0  0  3  0  0  0  0  0  0
    3.4765   -2.6601    0.5321 H   0  0  0  0  0  0  0  0  0  0  0  0
    1.9557   -2.0282   -0.9109 C   0  0  0  0  0  3  0  0  0  0  0  0
    2.4861   -2.4388   -1.7801 H   0  0  0  0  0  0  0  0  0  0  0  0
    0.7587   -1.2845   -1.0881 C   0  0  0  0  0  3  0  0  0  0  0  0
    0.3609   -1.1310   -2.1018 H   0  0  0  0  0  0  0  0  0  0  0  0
   -1.2349    0.0428   -0.1685 C   0  0  1  0  0  0  0  0  0  0  0  0
   -1.2510    0.4724   -1.1945 H   0  0  0  0  0  0  0  0  0  0  0  0
   -2.4975   -0.8714   -0.0594 C   0  0  0  0  0  0  0  0  0  0  0  0
   -3.6615    0.0840   -0.3822 C   0  0  0  0  0  0  0  0  0  0  0  0
   -5.8313    0.7906    0.1904 C   0  0  0  0  0  0  0  0  0  0  0  0
   -6.5942    0.5384    0.9479 H   0  0  0  0  0  0  0  0  0  0  0  0
   -6.2228    0.6159   -0.8318 H   0  0  0  0  0  0  0  0  0  0  0  0
   -5.5409    1.8572    0.2721 H   0  0  0  0  0  0  0  0  0  0  0  0
   -1.0749    2.3702    0.3200 C   0  0  0  0  0  0  0  0  0  0  0  0
   -1.1116    3.0547    1.1888 H   0  0  0  0  0  0  0  0  0  0  0  0
   -1.8147    2.6987   -0.4445 H   0  0  0  0  0  0  0  0  0  0  0  0
   -0.0546    2.4153   -0.1185 H   0  0  0  0  0  0  0  0  0  0  0  0
   -2.6164   -1.5003    1.3338 C   0  0  0  0  0  0  0  0  0  0  0  0
   -1.7763   -2.2008    1.5119 H   0  0  0  0  0  0  0  0  0  0  0  0
   -3.5620   -2.0662    1.4265 H   0  0  0  0  0  0  0  0  0  0  0  0
   -2.6042   -0.7211    2.1187 H   0  0  0  0  0  0  0  0  0  0  0  0
   -2.4911   -1.9593   -1.1513 C   0  0  0  0  0  0  0  0  0  0  0  0
   -1.6512   -2.6652   -0.9952 H   0  0  0  0  0  0  0  0  0  0  0  0
   -2.4023   -1.5128   -2.1616 H   0  0  0  0  0  0  0  0  0  0  0  0
   -3.4321   -2.5437   -1.1157 H   0  0  0  0  0  0  0  0  0  0  0  0
  1 18  2  0  0  0  0
  4  5  1  0  0  0  0
  5  7  1  0  0  0  0
  5  6  1  0  0  0  0
  7  8  1  0  0  0  0
  9 10  1  0  0  0  0
  9  7  1  0  0  0  0
 11  9  1  0  0  0  0
 12 11  1  0  0  0  0
 13 11  1  0  0  0  0
 13  4  1  0  0  0  0
 14 13  1  0  0  0  0
 15 16  1  6  0  0  0
 15 17  1  0  0  0  0
 15  4  1  0  0  0  0
 15  3  1  0  0  0  0
 17 27  1  0  0  0  0
 18 17  1  0  0  0  0
 18  2  1  0  0  0  0
 19 22  1  0  0  0  0
 19  2  1  0  0  0  0
 19 20  1  0  0  0  0
 21 19  1  0  0  0  0
 23  3  1  0  0  0  0
 23 24  1  0  0  0  0
 25 23  1  0  0  0  0
 26 23  1  0  0  0  0
 27 29  1  0  0  0  0
 27 28  1  0  0  0  0
 27 30  1  0  0  0  0
 31 34  1  0  0  0  0
 31 32  1  0  0  0  0
 31 17  1  0  0  0  0
 33 31  1  0  0  0  0
M  END
