4,8,12
 OpenBabel05122313063D

 21 21  0  0  0  0  0  0  0  0999 V2000
   -3.1446    0.4330   -0.8681 O   0  0  0  0  0  0  0  0  0  0  0  0
   -3.5128    0.3158    1.3733 O   0  0  0  0  0  0  0  0  0  0  0  0
   -0.8346   -0.1875   -0.3591 C   0  0  0  0  0  3  0  0  0  0  0  0
   -0.1229   -0.7923   -1.4408 C   0  0  0  0  0  3  0  0  0  0  0  0
   -0.2904   -0.4236   -2.4637 H   0  0  0  0  0  0  0  0  0  0  0  0
    0.8242   -1.8290   -1.2159 C   0  0  0  0  0  3  0  0  0  0  0  0
    1.3928   -2.2503   -2.0553 H   0  0  0  0  0  0  0  0  0  0  0  0
    1.1043   -2.2347    0.1186 C   0  0  0  0  0  3  0  0  0  0  0  0
    1.8882   -2.9820    0.3069 H   0  0  0  0  0  0  0  0  0  0  0  0
    0.3915   -1.6679    1.2128 C   0  0  0  0  0  3  0  0  0  0  0  0
    0.6265   -1.9682    2.2424 H   0  0  0  0  0  0  0  0  0  0  0  0
   -0.5527   -0.6348    0.9702 C   0  0  0  0  0  3  0  0  0  0  0  0
   -1.0769   -0.1513    1.8061 H   0  0  0  0  0  0  0  0  0  0  0  0
   -1.8090    0.9324   -0.6093 C   0  0  0  0  0  0  0  0  0  0  0  0
   -1.8362    1.6216    0.2568 H   0  0  0  0  0  0  0  0  0  0  0  0
   -1.5324    1.4921   -1.5218 H   0  0  0  0  0  0  0  0  0  0  0  0
   -3.9025    0.1611    0.2310 C   0  0  0  0  0  0  0  0  0  0  0  0
   -5.2600   -0.3568   -0.1751 C   0  0  0  0  0  0  0  0  0  0  0  0
   -5.1476   -1.3463   -0.6625 H   0  0  0  0  0  0  0  0  0  0  0  0
   -5.7272    0.3188   -0.9175 H   0  0  0  0  0  0  0  0  0  0  0  0
   -5.9009   -0.4543    0.7177 H   0  0  0  0  0  0  0  0  0  0  0  0
  1 14  1  0  0  0  0
  1 17  1  0  0  0  0
  3 12  1  0  0  0  0
  4  6  1  0  0  0  0
  4  3  1  0  0  0  0
  5  4  1  0  0  0  0
  6  8  1  0  0  0  0
  7  6  1  0  0  0  0
  8  9  1  0  0  0  0
  8 10  1  0  0  0  0
 10 11  1  0  0  0  0
 12 10  1  0  0  0  0
 12 13  1  0  0  0  0
 14  3  1  0  0  0  0
 14 15  1  0  0  0  0
 16 14  1  0  0  0  0
 17  2  2  0  0  0  0
 18 17  1  0  0  0  0
 18 21  1  0  0  0  0
 19 18  1  0  0  0  0
 20 18  1  0  0  0  0
M  END
