3,9,11
 OpenBabel05122313063D

 53 58  0  0  1  0  0  0  0  0999 V2000
    1.8030    0.0004    0.1440 Si  0  0  0  0  0  0  0  0  0  0  0  0
    0.8324    0.0017    1.7553 C   0  0  1  0  0  3  0  0  0  0  0  0
    0.1311    1.1520    2.2566 C   0  0  0  0  0  3  0  0  0  0  0  0
    0.3687    2.1984    2.0229 H   0  0  0  0  0  0  0  0  0  0  0  0
   -0.9394    0.7133    3.0955 C   0  0  0  0  0  0  0  0  0  0  0  0
   -1.6527    1.3593    3.6198 H   0  0  0  0  0  0  0  0  0  0  0  0
   -0.9395   -0.7053    3.0978 C   0  0  0  0  0  0  0  0  0  0  0  0
   -1.6528   -1.3496    3.6242 H   0  0  0  0  0  0  0  0  0  0  0  0
    0.1312   -1.1469    2.2605 C   0  0  0  0  0  3  0  0  0  0  0  0
    0.3684   -2.1940    2.0299 H   0  0  0  0  0  0  0  0  0  0  0  0
    0.3091    0.0004   -0.9869 C   0  0  0  0  0  3  0  0  0  0  0  0
   -0.4724    1.1648   -1.3880 C   0  0  0  0  0  0  0  0  0  0  0  0
   -0.2371    2.5626   -1.2316 C   0  0  0  0  0  0  0  0  0  0  0  0
    0.6953    2.9193   -0.7738 H   0  0  0  0  0  0  0  0  0  0  0  0
   -1.1926    3.4637   -1.6898 C   0  0  0  0  0  0  0  0  0  0  0  0
   -1.0118    4.5432   -1.5765 H   0  0  0  0  0  0  0  0  0  0  0  0
   -2.3999    3.0237   -2.2952 C   0  0  0  0  0  0  0  0  0  0  0  0
   -3.1335    3.7678   -2.6387 H   0  0  0  0  0  0  0  0  0  0  0  0
   -2.6657    1.6668   -2.4523 C   0  0  0  0  0  0  0  0  0  0  0  0
   -3.6060    1.3259   -2.9102 H   0  0  0  0  0  0  0  0  0  0  0  0
   -1.7159    0.7255   -1.9940 C   0  0  0  0  0  0  0  0  0  0  0  0
   -1.7156   -0.7236   -1.9953 C   0  0  0  0  0  0  0  0  0  0  0  0
   -2.6651   -1.6645   -2.4552 C   0  0  0  0  0  0  0  0  0  0  0  0
   -3.6058   -1.3232   -2.9119 H   0  0  0  0  0  0  0  0  0  0  0  0
   -2.3983   -3.0215   -2.3012 C   0  0  0  0  0  0  0  0  0  0  0  0
   -3.1317   -3.7653   -2.6460 H   0  0  0  0  0  0  0  0  0  0  0  0
   -1.1903   -3.4621   -1.6975 C   0  0  0  0  0  0  0  0  0  0  0  0
   -1.0088   -4.5418   -1.5867 H   0  0  0  0  0  0  0  0  0  0  0  0
   -0.2353   -2.5615   -1.2377 C   0  0  0  0  0  0  0  0  0  0  0  0
    0.6973   -2.9186   -0.7807 H   0  0  0  0  0  0  0  0  0  0  0  0
   -0.4717   -1.1635   -1.3906 C   0  0  0  0  0  0  0  0  0  0  0  0
    2.8544   -1.5501   -0.0394 C   0  0  0  0  0  0  0  0  0  0  0  0
    3.2206   -2.0162   -1.3227 C   0  0  0  0  0  0  0  0  0  0  0  0
    2.8451   -1.4983   -2.2206 H   0  0  0  0  0  0  0  0  0  0  0  0
    4.0403   -3.1443   -1.4713 C   0  0  0  0  0  0  0  0  0  0  0  0
    4.3125   -3.4975   -2.4778 H   0  0  0  0  0  0  0  0  0  0  0  0
    4.5085   -3.8261   -0.3356 C   0  0  0  0  0  0  0  0  0  0  0  0
    5.1487   -4.7142   -0.4511 H   0  0  0  0  0  0  0  0  0  0  0  0
    4.1579   -3.3740    0.9462 C   0  0  0  0  0  0  0  0  0  0  0  0
    4.5239   -3.9059    1.8379 H   0  0  0  0  0  0  0  0  0  0  0  0
    3.3389   -2.2428    1.0921 C   0  0  0  0  0  0  0  0  0  0  0  0
    3.0702   -1.8949    2.1027 H   0  0  0  0  0  0  0  0  0  0  0  0
    2.8545    1.5507   -0.0411 C   0  0  0  0  0  0  0  0  0  0  0  0
    3.3413    2.2429    1.0896 C   0  0  0  0  0  0  0  0  0  0  0  0
    3.0745    1.8948    2.1006 H   0  0  0  0  0  0  0  0  0  0  0  0
    4.1603    3.3739    0.9425 C   0  0  0  0  0  0  0  0  0  0  0  0
    4.5282    3.9055    1.8336 H   0  0  0  0  0  0  0  0  0  0  0  0
    4.5085    3.8264   -0.3399 C   0  0  0  0  0  0  0  0  0  0  0  0
    5.1485    4.7144   -0.4564 H   0  0  0  0  0  0  0  0  0  0  0  0
    4.0378    3.1451   -1.4749 C   0  0  0  0  0  0  0  0  0  0  0  0
    4.3080    3.4986   -2.4818 H   0  0  0  0  0  0  0  0  0  0  0  0
    3.2181    2.0171   -1.3250 C   0  0  0  0  0  0  0  0  0  0  0  0
    2.8405    1.4996   -2.2222 H   0  0  0  0  0  0  0  0  0  0  0  0
  2  1  1  6  0  0  0
  2  3  1  0  0  0  0
  2  9  1  0  0  0  0
  3  5  1  0  0  0  0
  4  3  1  0  0  0  0
  5  7  2  0  0  0  0
  5  6  1  0  0  0  0
  7  8  1  0  0  0  0
  9  7  1  0  0  0  0
 10  9  1  0  0  0  0
 11  1  1  0  0  0  0
 12 13  1  0  0  0  0
 12 11  1  0  0  0  0
 13 14  1  0  0  0  0
 15 16  1  0  0  0  0
 15 13  2  0  0  0  0
 17 15  1  0  0  0  0
 18 17  1  0  0  0  0
 19 17  2  0  0  0  0
 19 21  1  0  0  0  0
 20 19  1  0  0  0  0
 21 12  2  0  0  0  0
 22 21  1  0  0  0  0
 22 31  1  0  0  0  0
 23 25  1  0  0  0  0
 23 22  2  0  0  0  0
 24 23  1  0  0  0  0
 25 27  2  0  0  0  0
 26 25  1  0  0  0  0
 27 28  1  0  0  0  0
 27 29  1  0  0  0  0
 29 30  1  0  0  0  0
 31 29  2  0  0  0  0
 31 11  1  0  0  0  0
 32  1  1  0  0  0  0
 32 41  1  0  0  0  0
 33 32  2  0  0  0  0
 34 33  1  0  0  0  0
 35 33  1  0  0  0  0
 35 37  2  0  0  0  0
 36 35  1  0  0  0  0
 37 39  1  0  0  0  0
 38 37  1  0  0  0  0
 39 41  2  0  0  0  0
 39 40  1  0  0  0  0
 41 42  1  0  0  0  0
 43  1  1  0  0  0  0
 43 44  1  0  0  0  0
 44 45  1  0  0  0  0
 46 44  2  0  0  0  0
 46 47  1  0  0  0  0
 48 46  1  0  0  0  0
 49 48  1  0  0  0  0
 50 52  1  0  0  0  0
 50 48  2  0  0  0  0
 51 50  1  0  0  0  0
 52 43  2  0  0  0  0
 53 52  1  0  0  0  0
M  END
