24,26,28
 OpenBabel05122313063D

 51 55  0  0  1  0  0  0  0  0999 V2000
    0.9236   -0.0838    3.4406 O   0  0  0  0  0  0  0  0  0  0  0  0
   -0.9510   -0.6847    2.2213 N   0  0  0  0  0  0  0  0  0  0  0  0
   -1.6160   -0.2188    1.0657 C   0  0  0  0  0  0  0  0  0  0  0  0
   -1.3917   -1.7392    3.1107 C   0  0  0  0  0  0  0  0  0  0  0  0
    0.3408    2.4911    2.0036 C   0  0  0  0  0  0  0  0  0  0  0  0
    1.5613    2.9820    2.7408 C   0  0  0  0  0  0  0  0  0  0  0  0
    1.1211    3.6728    1.4730 C   0  0  0  0  0  0  0  0  0  0  0  0
   -0.9561    0.8434    0.5047 C   0  0  0  0  0  0  0  0  0  0  0  0
    0.3142    1.1055    1.3278 C   0  0  2  0  0  0  0  0  0  0  0  0
    0.1837    0.0565    2.4719 C   0  0  0  0  0  0  0  0  0  0  0  0
   -2.8661   -0.8650    0.6152 C   0  0  0  0  0  0  0  0  0  0  0  0
   -4.0432   -0.1027    0.4543 C   0  0  0  0  0  0  0  0  0  0  0  0
   -5.2211   -0.7068   -0.0045 C   0  0  0  0  0  0  0  0  0  0  0  0
   -5.2394   -2.0778   -0.3082 C   0  0  0  0  0  0  0  0  0  0  0  0
   -4.0722   -2.8428   -0.1524 C   0  0  0  0  0  0  0  0  0  0  0  0
   -2.8909   -2.2441    0.3071 C   0  0  0  0  0  0  0  0  0  0  0  0
   -1.3900    1.5549   -0.7123 C   0  0  0  0  0  0  0  0  0  0  0  0
   -1.3950    2.9699   -0.7886 C   0  0  0  0  0  0  0  0  0  0  0  0
   -1.8066    3.6270   -1.9568 C   0  0  0  0  0  0  0  0  0  0  0  0
   -2.2271    2.8917   -3.0764 C   0  0  0  0  0  0  0  0  0  0  0  0
   -2.2308    1.4885   -3.0152 C   0  0  0  0  0  0  0  0  0  0  0  0
   -1.8176    0.8287   -1.8517 C   0  0  0  0  0  0  0  0  0  0  0  0
    1.6018    0.8337    0.5312 C   0  0  0  0  0  3  0  0  0  0  0  0
    2.7333    0.1881    1.1405 C   0  0  0  0  0  3  0  0  0  0  0  0
    3.9278   -0.0360    0.4171 C   0  0  0  0  0  3  0  0  0  0  0  0
    4.0259    0.3704   -0.9494 C   0  0  0  0  0  3  0  0  0  0  0  0
    2.9313    1.0195   -1.5635 C   0  0  0  0  0  3  0  0  0  0  0  0
    1.7235    1.2355   -0.8296 C   0  0  0  0  0  3  0  0  0  0  0  0
   -0.6292    2.7228    2.4749 H   0  0  0  0  0  0  0  0  0  0  0  0
   -4.0213    0.9717    0.6887 H   0  0  0  0  0  0  0  0  0  0  0  0
   -6.1326   -0.1022   -0.1257 H   0  0  0  0  0  0  0  0  0  0  0  0
   -6.1650   -2.5507   -0.6700 H   0  0  0  0  0  0  0  0  0  0  0  0
   -4.0777   -3.9152   -0.3996 H   0  0  0  0  0  0  0  0  0  0  0  0
   -1.9683   -2.8361    0.3993 H   0  0  0  0  0  0  0  0  0  0  0  0
   -1.1690   -2.7393    2.6876 H   0  0  0  0  0  0  0  0  0  0  0  0
   -0.8259   -1.6215    4.0541 H   0  0  0  0  0  0  0  0  0  0  0  0
   -2.4786   -1.6583    3.3034 H   0  0  0  0  0  0  0  0  0  0  0  0
    2.4710    2.3652    2.6967 H   0  0  0  0  0  0  0  0  0  0  0  0
    1.4083    3.4836    3.7081 H   0  0  0  0  0  0  0  0  0  0  0  0
    1.7363    3.5261    0.5719 H   0  0  0  0  0  0  0  0  0  0  0  0
    0.6545    4.6681    1.5408 H   0  0  0  0  0  0  0  0  0  0  0  0
   -1.0766    3.5584    0.0812 H   0  0  0  0  0  0  0  0  0  0  0  0
   -1.8031    4.7275   -1.9892 H   0  0  0  0  0  0  0  0  0  0  0  0
   -2.5463    3.4095   -3.9935 H   0  0  0  0  0  0  0  0  0  0  0  0
   -2.5435    0.8965   -3.8887 H   0  0  0  0  0  0  0  0  0  0  0  0
   -1.7951   -0.2688   -1.8293 H   0  0  0  0  0  0  0  0  0  0  0  0
    2.6433   -0.1623    2.1777 H   0  0  0  0  0  0  0  0  0  0  0  0
    4.7587   -0.5737    0.8937 H   0  0  0  0  0  0  0  0  0  0  0  0
    4.9333    0.1488   -1.5280 H   0  0  0  0  0  0  0  0  0  0  0  0
    2.9774    1.3033   -2.6235 H   0  0  0  0  0  0  0  0  0  0  0  0
    0.8665    1.6919   -1.3389 H   0  0  0  0  0  0  0  0  0  0  0  0
  2 10  1  0  0  0  0
  2  4  1  0  0  0  0
  3  2  1  0  0  0  0
  4 37  1  0  0  0  0
  4 36  1  0  0  0  0
  5 29  1  0  0  0  0
  5  6  1  0  0  0  0
  6 39  1  0  0  0  0
  7 41  1  0  0  0  0
  7  5  1  0  0  0  0
  7  6  1  0  0  0  0
  8  3  2  0  0  0  0
  8  9  1  0  0  0  0
  9 23  1  6  0  0  0
  9  5  1  0  0  0  0
  9 10  1  0  0  0  0
 10  1  2  0  0  0  0
 11  3  1  0  0  0  0
 12 11  1  0  0  0  0
 12 30  1  0  0  0  0
 13 12  2  0  0  0  0
 14 15  2  0  0  0  0
 14 13  1  0  0  0  0
 15 16  1  0  0  0  0
 16 34  1  0  0  0  0
 16 11  2  0  0  0  0
 17  8  1  0  0  0  0
 18 17  1  0  0  0  0
 18 42  1  0  0  0  0
 19 18  2  0  0  0  0
 20 21  2  0  0  0  0
 20 19  1  0  0  0  0
 21 22  1  0  0  0  0
 22 46  1  0  0  0  0
 22 17  2  0  0  0  0
 23 24  1  0  0  0  0
 24 47  1  0  0  0  0
 25 48  1  0  0  0  0
 25 24  1  0  0  0  0
 26 25  1  0  0  0  0
 27 26  1  0  0  0  0
 27 28  1  0  0  0  0
 28 23  1  0  0  0  0
 31 13  1  0  0  0  0
 32 14  1  0  0  0  0
 33 15  1  0  0  0  0
 35  4  1  0  0  0  0
 38  6  1  0  0  0  0
 40  7  1  0  0  0  0
 43 19  1  0  0  0  0
 44 20  1  0  0  0  0
 45 21  1  0  0  0  0
 49 26  1  0  0  0  0
 50 27  1  0  0  0  0
 51 28  1  0  0  0  0
M  END
