2,6,9
 OpenBabel05122313063D

 17 17  0  0  1  0  0  0  0  0999 V2000
    0.6604    2.5468   -0.4757 O   0  0  0  0  0  0  0  0  0  0  0  0
   -0.0928    1.6605   -0.1436 C   0  0  0  0  0  3  0  0  0  0  0  0
   -1.5627    1.9748    0.2283 C   0  0  0  0  0  0  0  0  0  0  0  0
   -2.4851    0.8786   -0.3249 C   0  0  0  0  0  0  0  0  0  0  0  0
   -1.7762   -0.4349   -0.1532 C   0  0  2  0  0  3  0  0  0  0  0  0
   -1.3482   -0.9861    1.1006 C   0  0  0  0  0  3  0  0  0  0  0  0
   -0.4702   -2.1006    0.8276 C   0  0  0  0  0  0  0  0  0  0  0  0
   -0.3393   -2.2215   -0.5805 C   0  0  0  0  0  0  0  0  0  0  0  0
   -1.1394   -1.1853   -1.1939 C   0  0  0  0  0  3  0  0  0  0  0  0
   -1.6466   -0.6320    2.0949 H   0  0  0  0  0  0  0  0  0  0  0  0
    0.0215   -2.7299    1.5788 H   0  0  0  0  0  0  0  0  0  0  0  0
    0.2740   -2.9590   -1.1115 H   0  0  0  0  0  0  0  0  0  0  0  0
   -1.2481   -1.0016   -2.2695 H   0  0  0  0  0  0  0  0  0  0  0  0
   -1.8223    2.9976   -0.1168 H   0  0  0  0  0  0  0  0  0  0  0  0
   -1.5974    1.9795    1.3400 H   0  0  0  0  0  0  0  0  0  0  0  0
   -2.6818    1.0510   -1.4017 H   0  0  0  0  0  0  0  0  0  0  0  0
   -3.4651    0.8784    0.1942 H   0  0  0  0  0  0  0  0  0  0  0  0
  1  2  2  0  0  0  0
  2  3  1  0  0  0  0
  3 15  1  0  0  0  0
  4 17  1  0  0  0  0
  4  3  1  0  0  0  0
  5  4  1  1  0  0  0
  5  6  1  0  0  0  0
  6 10  1  0  0  0  0
  7  6  1  0  0  0  0
  7 11  1  0  0  0  0
  8  7  2  0  0  0  0
  9  8  1  0  0  0  0
  9  5  1  0  0  0  0
 12  8  1  0  0  0  0
 13  9  1  0  0  0  0
 14  3  1  0  0  0  0
 16  4  1  0  0  0  0
M  END
