1,2,3,4,7,8
 OpenBabel05122313063D

 44 45  0  0  0  0  0  0  0  0999 V2000
    0.7545   -1.0806    1.4086 S   0  0  0  0  0  0  0  0  0  0  0  0
   -0.7545   -1.0806   -1.4086 S   0  0  0  0  0  0  0  0  0  0  0  0
   -0.1731    1.8222   -1.3846 O   0  0  0  0  0  1  0  0  0  0  0  0
    0.1731    1.8222    1.3846 O   0  0  0  0  0  1  0  0  0  0  0  0
    1.0217    2.2494   -1.8042 N   0  0  0  0  0  0  0  0  0  0  0  0
    2.1115    1.6511   -1.4138 N   0  0  0  0  0  2  0  0  0  0  0  0
    1.8102    0.7041   -0.5587 N   0  0  0  0  0  2  0  0  0  0  0  0
   -1.8102    0.7041    0.5587 N   0  0  0  0  0  2  0  0  0  0  0  0
   -2.1115    1.6511    1.4137 N   0  0  0  0  0  2  0  0  0  0  0  0
   -1.0217    2.2494    1.8042 N   0  0  0  0  0  0  0  0  0  0  0  0
    1.0408    3.2230   -2.8807 C   0  0  0  0  0  0  0  0  0  0  0  0
    2.8362   -0.1560   -0.1338 C   0  0  0  0  0  0  0  0  0  0  0  0
    4.1709   -0.1046   -0.5839 C   0  0  0  0  0  0  0  0  0  0  0  0
    5.1038   -1.0173   -0.0762 C   0  0  0  0  0  0  0  0  0  0  0  0
    4.7274   -1.9805    0.8773 C   0  0  0  0  0  0  0  0  0  0  0  0
    3.4012   -2.0323    1.3380 C   0  0  0  0  0  0  0  0  0  0  0  0
    2.4611   -1.1336    0.8197 C   0  0  0  0  0  0  0  0  0  0  0  0
    0.0418   -2.6549    0.7541 C   0  0  0  0  0  0  0  0  0  0  0  0
   -0.0419   -2.6549   -0.7541 C   0  0  0  0  0  0  0  0  0  0  0  0
   -2.4611   -1.1336   -0.8197 C   0  0  0  0  0  0  0  0  0  0  0  0
   -3.4012   -2.0323   -1.3380 C   0  0  0  0  0  0  0  0  0  0  0  0
   -4.7274   -1.9805   -0.8772 C   0  0  0  0  0  0  0  0  0  0  0  0
   -5.1038   -1.0173    0.0762 C   0  0  0  0  0  0  0  0  0  0  0  0
   -4.1709   -0.1046    0.5840 C   0  0  0  0  0  0  0  0  0  0  0  0
   -2.8362   -0.1559    0.1338 C   0  0  0  0  0  0  0  0  0  0  0  0
   -1.0407    3.2229    2.8808 C   0  0  0  0  0  0  0  0  0  0  0  0
    2.0941    3.4600   -3.1065 H   0  0  0  0  0  0  0  0  0  0  0  0
    0.5406    2.7947   -3.7726 H   0  0  0  0  0  0  0  0  0  0  0  0
    0.4993    4.1331   -2.5602 H   0  0  0  0  0  0  0  0  0  0  0  0
    4.4543    0.6505   -1.3295 H   0  0  0  0  0  0  0  0  0  0  0  0
    6.1451   -0.9756   -0.4281 H   0  0  0  0  0  0  0  0  0  0  0  0
    5.4709   -2.6864    1.2746 H   0  0  0  0  0  0  0  0  0  0  0  0
    3.1034   -2.7653    2.1029 H   0  0  0  0  0  0  0  0  0  0  0  0
   -0.9606   -2.7067    1.2266 H   0  0  0  0  0  0  0  0  0  0  0  0
    0.6501   -3.4971    1.1410 H   0  0  0  0  0  0  0  0  0  0  0  0
    0.9605   -2.7067   -1.2266 H   0  0  0  0  0  0  0  0  0  0  0  0
   -0.6501   -3.4971   -1.1410 H   0  0  0  0  0  0  0  0  0  0  0  0
   -3.1034   -2.7653   -2.1028 H   0  0  0  0  0  0  0  0  0  0  0  0
   -5.4709   -2.6864   -1.2746 H   0  0  0  0  0  0  0  0  0  0  0  0
   -6.1451   -0.9755    0.4282 H   0  0  0  0  0  0  0  0  0  0  0  0
   -4.4543    0.6505    1.3296 H   0  0  0  0  0  0  0  0  0  0  0  0
   -2.0940    3.4601    3.1064 H   0  0  0  0  0  0  0  0  0  0  0  0
   -0.5408    2.7946    3.7727 H   0  0  0  0  0  0  0  0  0  0  0  0
   -0.4990    4.1329    2.5604 H   0  0  0  0  0  0  0  0  0  0  0  0
  2 20  1  0  0  0  0
  2 19  1  0  0  0  0
  4 10  1  0  0  0  0
  5  6  1  0  0  0  0
  5  3  1  0  0  0  0
  6  7  1  0  0  0  0
  7 12  1  0  0  0  0
  8  9  1  0  0  0  0
  9 10  1  0  0  0  0
 10 26  1  0  0  0  0
 11 29  1  0  0  0  0
 11  5  1  0  0  0  0
 12 17  1  0  0  0  0
 13 12  2  0  0  0  0
 13 14  1  0  0  0  0
 14 15  2  0  0  0  0
 15 32  1  0  0  0  0
 15 16  1  0  0  0  0
 16 33  1  0  0  0  0
 17 16  2  0  0  0  0
 17  1  1  0  0  0  0
 18 35  1  0  0  0  0
 18 34  1  0  0  0  0
 18  1  1  0  0  0  0
 19 18  1  0  0  0  0
 20 25  1  0  0  0  0
 21 22  1  0  0  0  0
 21 20  2  0  0  0  0
 22 23  2  0  0  0  0
 23 40  1  0  0  0  0
 23 24  1  0  0  0  0
 24 41  1  0  0  0  0
 25  8  1  0  0  0  0
 25 24  2  0  0  0  0
 26 42  1  0  0  0  0
 26 43  1  0  0  0  0
 27 11  1  0  0  0  0
 28 11  1  0  0  0  0
 30 13  1  0  0  0  0
 31 14  1  0  0  0  0
 36 19  1  0  0  0  0
 37 19  1  0  0  0  0
 38 21  1  0  0  0  0
 39 22  1  0  0  0  0
 44 26  1  0  0  0  0
M  END
