1,2,3,5,7
 OpenBabel05122313063D

 54 56  0  0  0  0  0  0  0  0999 V2000
   -0.5350   -1.3572    1.0221 S   0  0  0  0  0  0  0  0  0  0  0  0
    1.3789   -0.6531   -1.4357 S   0  0  0  0  0  0  0  0  0  0  0  0
    0.3024    2.0212   -1.3160 O   0  5  0  0  0  0  0  0  0  0  0  0
    1.5734    3.8587   -1.5160 O   0  0  0  0  0  0  0  0  0  0  0  0
   -1.3756    0.0056   -1.4791 O   0  5  0  0  0  0  0  0  0  0  0  0
   -3.3428    0.6887   -2.3093 O   0  0  0  0  0  0  0  0  0  0  0  0
    1.3069    1.2959    1.0193 N   0  0  0  0  0  0  0  0  0  0  0  0
   -1.5175    1.5576    0.6542 N   0  0  0  0  0  0  0  0  0  0  0  0
    0.2878   -2.7020    0.0795 C   0  0  0  0  0  0  0  0  0  0  0  0
    0.5348   -2.2948   -1.3573 C   0  0  0  0  0  0  0  0  0  0  0  0
    2.8690   -0.9894   -0.4719 C   0  0  0  0  0  0  0  0  0  0  0  0
    3.8436   -1.7420   -1.1593 C   0  0  0  0  0  0  0  0  0  0  0  0
    5.0657   -2.0544   -0.5539 C   0  0  0  0  0  0  0  0  0  0  0  0
    5.3339   -1.5777    0.7373 C   0  0  0  0  0  0  0  0  0  0  0  0
    4.3816   -0.7973    1.4030 C   0  0  0  0  0  0  0  0  0  0  0  0
    3.1274   -0.4897    0.8308 C   0  0  0  0  0  0  0  0  0  0  0  0
    2.1715    0.3015    1.7043 C   0  0  0  0  0  0  0  0  0  0  0  0
    0.4625    2.0192    2.0221 C   0  0  0  0  0  0  0  0  0  0  0  0
   -0.7677    2.6344    1.3609 C   0  0  0  0  0  0  0  0  0  0  0  0
   -2.3785    0.8102    1.6399 C   0  0  0  0  0  0  0  0  0  0  0  0
   -3.0547   -0.4116    1.0782 C   0  0  0  0  0  0  0  0  0  0  0  0
   -4.4430   -0.4532    0.8734 C   0  0  0  0  0  0  0  0  0  0  0  0
   -5.0553   -1.5865    0.3193 C   0  0  0  0  0  0  0  0  0  0  0  0
   -4.2760   -2.6929   -0.0421 C   0  0  0  0  0  0  0  0  0  0  0  0
   -2.8853   -2.6774    0.1519 C   0  0  0  0  0  0  0  0  0  0  0  0
   -2.2878   -1.5420    0.7096 C   0  0  0  0  0  0  0  0  0  0  0  0
    2.1146    2.2560    0.2119 C   0  0  0  0  0  0  0  0  0  0  0  0
    1.2995    2.8104   -0.9628 C   0  0  0  0  0  0  0  0  0  0  0  0
   -2.3459    1.9814   -0.5109 C   0  0  0  0  0  0  0  0  0  0  0  0
   -2.4206    0.8221   -1.5308 C   0  0  0  0  0  0  0  0  0  0  0  0
    1.2356   -2.8771    0.6271 H   0  0  0  0  0  0  0  0  0  0  0  0
   -0.3204   -3.6226    0.1722 H   0  0  0  0  0  0  0  0  0  0  0  0
   -0.4043   -2.1124   -1.9186 H   0  0  0  0  0  0  0  0  0  0  0  0
    1.1587   -3.0344   -1.8983 H   0  0  0  0  0  0  0  0  0  0  0  0
    3.6408   -2.0737   -2.1895 H   0  0  0  0  0  0  0  0  0  0  0  0
    5.8132   -2.6473   -1.1008 H   0  0  0  0  0  0  0  0  0  0  0  0
    6.2965   -1.7960    1.2223 H   0  0  0  0  0  0  0  0  0  0  0  0
    4.6120   -0.4084    2.4072 H   0  0  0  0  0  0  0  0  0  0  0  0
    1.4991   -0.3899    2.2575 H   0  0  0  0  0  0  0  0  0  0  0  0
    2.7759    0.8276    2.4759 H   0  0  0  0  0  0  0  0  0  0  0  0
    1.0624    2.7986    2.5400 H   0  0  0  0  0  0  0  0  0  0  0  0
    0.1584    1.2806    2.7906 H   0  0  0  0  0  0  0  0  0  0  0  0
   -0.4906    3.4119    0.6261 H   0  0  0  0  0  0  0  0  0  0  0  0
   -1.4061    3.1247    2.1273 H   0  0  0  0  0  0  0  0  0  0  0  0
   -1.7366    0.5331    2.5017 H   0  0  0  0  0  0  0  0  0  0  0  0
   -3.1454    1.5195    2.0166 H   0  0  0  0  0  0  0  0  0  0  0  0
   -5.0518    0.4227    1.1454 H   0  0  0  0  0  0  0  0  0  0  0  0
   -6.1424   -1.5989    0.1575 H   0  0  0  0  0  0  0  0  0  0  0  0
   -4.7472   -3.5815   -0.4866 H   0  0  0  0  0  0  0  0  0  0  0  0
   -2.2928   -3.5530   -0.1455 H   0  0  0  0  0  0  0  0  0  0  0  0
    2.9853    1.7180   -0.2138 H   0  0  0  0  0  0  0  0  0  0  0  0
    2.5109    3.0787    0.8417 H   0  0  0  0  0  0  0  0  0  0  0  0
   -1.8430    2.8274   -1.0146 H   0  0  0  0  0  0  0  0  0  0  0  0
   -3.3638    2.2886   -0.1991 H   0  0  0  0  0  0  0  0  0  0  0  0
  2 10  1  0  0  0  0
  2 11  1  0  0  0  0
  3 28  1  0  0  0  0
  4 28  2  0  0  0  0
  6 30  2  0  0  0  0
  7 17  1  0  0  0  0
  7 18  1  0  0  0  0
  8 19  1  0  0  0  0
  8 20  1  0  0  0  0
  9 32  1  0  0  0  0
  9 31  1  0  0  0  0
  9  1  1  0  0  0  0
 10  9  1  0  0  0  0
 11 16  1  0  0  0  0
 12 13  1  0  0  0  0
 12 11  2  0  0  0  0
 13 14  2  0  0  0  0
 14 37  1  0  0  0  0
 14 15  1  0  0  0  0
 15 38  1  0  0  0  0
 16 15  2  0  0  0  0
 16 17  1  0  0  0  0
 17 39  1  0  0  0  0
 17 40  1  0  0  0  0
 18 41  1  0  0  0  0
 18 42  1  0  0  0  0
 19 18  1  0  0  0  0
 19 44  1  0  0  0  0
 20 46  1  0  0  0  0
 20 45  1  0  0  0  0
 21 20  1  0  0  0  0
 22 21  1  0  0  0  0
 22 47  1  0  0  0  0
 23 22  2  0  0  0  0
 24 25  2  0  0  0  0
 24 23  1  0  0  0  0
 25 26  1  0  0  0  0
 26  1  1  0  0  0  0
 26 21  2  0  0  0  0
 27 52  1  0  0  0  0
 27  7  1  0  0  0  0
 28 27  1  0  0  0  0
 29 54  1  0  0  0  0
 29  8  1  0  0  0  0
 30  5  1  0  0  0  0
 30 29  1  0  0  0  0
 33 10  1  0  0  0  0
 34 10  1  0  0  0  0
 35 12  1  0  0  0  0
 36 13  1  0  0  0  0
 43 19  1  0  0  0  0
 48 23  1  0  0  0  0
 49 24  1  0  0  0  0
 50 25  1  0  0  0  0
 51 27  1  0  0  0  0
 53 29  1  0  0  0  0
M  CHG  2   3  -1   5  -1
M  END
