1,2,3
 OpenBabel05122313063D

 81 84  0  0  0  0  0  0  0  0999 V2000
   -2.4370   -0.7103   -0.2428 P   0  0  0  0  0  0  0  0  0  0  0  0
    1.6459   -1.8224    0.3128 P   0  0  0  0  0  0  0  0  0  0  0  0
    0.1528    0.5054   -0.7929 Si  0  0  0  0  0  3  0  0  0  0  0  0
   -1.0340    1.5772    0.1042 N   0  0  0  0  0  0  0  0  0  0  0  0
    1.8734    0.8297   -0.2974 N   0  0  0  0  0  0  0  0  0  0  0  0
    0.1045    1.0554   -2.6007 C   0  0  0  0  0  0  0  0  0  0  0  0
    0.7432    0.3837   -3.2094 H   0  0  0  0  0  0  0  0  0  0  0  0
    0.4887    2.0887   -2.7146 H   0  0  0  0  0  0  0  0  0  0  0  0
   -0.9240    1.0202   -3.0033 H   0  0  0  0  0  0  0  0  0  0  0  0
   -2.3592    1.1066   -0.0493 C   0  0  0  0  0  0  0  0  0  0  0  0
   -3.2717    2.1492    0.1262 C   0  0  0  0  0  0  0  0  0  0  0  0
   -2.4831    3.3178    0.4348 C   0  0  0  0  0  0  0  0  0  0  0  0
   -1.1039    2.9242    0.4261 C   0  0  0  0  0  0  0  0  0  0  0  0
   -0.0839    3.8310    0.7759 C   0  0  0  0  0  0  0  0  0  0  0  0
    0.9651    3.5133    0.8327 H   0  0  0  0  0  0  0  0  0  0  0  0
   -0.4543    5.1433    1.0858 C   0  0  0  0  0  0  0  0  0  0  0  0
    0.3263    5.8672    1.3653 H   0  0  0  0  0  0  0  0  0  0  0  0
   -1.8110    5.5548    1.0656 C   0  0  0  0  0  0  0  0  0  0  0  0
   -2.0624    6.5960    1.3183 H   0  0  0  0  0  0  0  0  0  0  0  0
   -2.8291    4.6514    0.7526 C   0  0  0  0  0  0  0  0  0  0  0  0
   -3.8839    4.9669    0.7635 H   0  0  0  0  0  0  0  0  0  0  0  0
   -4.7667    2.1493    0.0366 C   0  0  0  0  0  0  0  0  0  0  0  0
   -5.1781    1.1661   -0.2540 H   0  0  0  0  0  0  0  0  0  0  0  0
   -5.1140    2.8919   -0.7131 H   0  0  0  0  0  0  0  0  0  0  0  0
   -5.2352    2.4355    1.0026 H   0  0  0  0  0  0  0  0  0  0  0  0
    2.5960   -0.2660    0.2069 C   0  0  0  0  0  0  0  0  0  0  0  0
    3.9391    0.0632    0.3773 C   0  0  0  0  0  0  0  0  0  0  0  0
    4.0715    1.4279   -0.0699 C   0  0  0  0  0  0  0  0  0  0  0  0
    2.7762    1.8661   -0.5069 C   0  0  0  0  0  0  0  0  0  0  0  0
    2.5945    3.1495   -1.0627 C   0  0  0  0  0  0  0  0  0  0  0  0
    1.6123    3.4904   -1.4163 H   0  0  0  0  0  0  0  0  0  0  0  0
    3.7083    3.9911   -1.1516 C   0  0  0  0  0  0  0  0  0  0  0  0
    3.5862    4.9956   -1.5841 H   0  0  0  0  0  0  0  0  0  0  0  0
    4.9864    3.5780   -0.7003 C   0  0  0  0  0  0  0  0  0  0  0  0
    5.8375    4.2705   -0.7836 H   0  0  0  0  0  0  0  0  0  0  0  0
    5.1775    2.3029   -0.1633 C   0  0  0  0  0  0  0  0  0  0  0  0
    6.1738    1.9786    0.1747 H   0  0  0  0  0  0  0  0  0  0  0  0
    5.0569   -0.7825    0.9040 C   0  0  0  0  0  0  0  0  0  0  0  0
    4.7055   -1.7651    1.2709 H   0  0  0  0  0  0  0  0  0  0  0  0
    5.5721   -0.2806    1.7504 H   0  0  0  0  0  0  0  0  0  0  0  0
    5.8307   -0.9698    0.1286 H   0  0  0  0  0  0  0  0  0  0  0  0
   -3.7327   -1.0631   -1.5459 C   0  0  0  0  0  0  0  0  0  0  0  0
   -4.6432   -0.5187   -1.2143 H   0  0  0  0  0  0  0  0  0  0  0  0
   -3.2813   -0.4879   -2.8912 C   0  0  0  0  0  0  0  0  0  0  0  0
   -3.1041    0.6046   -2.8328 H   0  0  0  0  0  0  0  0  0  0  0  0
   -2.3460   -0.9772   -3.2331 H   0  0  0  0  0  0  0  0  0  0  0  0
   -4.0587   -0.6670   -3.6622 H   0  0  0  0  0  0  0  0  0  0  0  0
   -4.0425   -2.5613   -1.6367 C   0  0  0  0  0  0  0  0  0  0  0  0
   -4.4496   -2.9664   -0.6897 H   0  0  0  0  0  0  0  0  0  0  0  0
   -4.7971   -2.7358   -2.4316 H   0  0  0  0  0  0  0  0  0  0  0  0
   -3.1301   -3.1440   -1.8705 H   0  0  0  0  0  0  0  0  0  0  0  0
   -3.1171   -1.3587    1.3842 C   0  0  0  0  0  0  0  0  0  0  0  0
   -2.9890   -2.4557    1.2479 H   0  0  0  0  0  0  0  0  0  0  0  0
   -2.1876   -0.8928    2.5089 C   0  0  0  0  0  0  0  0  0  0  0  0
   -1.1343   -1.1433    2.2727 H   0  0  0  0  0  0  0  0  0  0  0  0
   -2.2481    0.2057    2.6522 H   0  0  0  0  0  0  0  0  0  0  0  0
   -2.4588   -1.3845    3.4658 H   0  0  0  0  0  0  0  0  0  0  0  0
   -4.5784   -1.0183    1.6707 C   0  0  0  0  0  0  0  0  0  0  0  0
   -5.2659   -1.3518    0.8685 H   0  0  0  0  0  0  0  0  0  0  0  0
   -4.8983   -1.5217    2.6073 H   0  0  0  0  0  0  0  0  0  0  0  0
   -4.7154    0.0706    1.8196 H   0  0  0  0  0  0  0  0  0  0  0  0
    2.6627   -2.9563   -0.7930 C   0  0  0  0  0  0  0  0  0  0  0  0
    3.7206   -2.7057   -0.5634 H   0  0  0  0  0  0  0  0  0  0  0  0
    2.3574   -2.5582   -2.2423 C   0  0  0  0  0  0  0  0  0  0  0  0
    2.5373   -1.4781   -2.4196 H   0  0  0  0  0  0  0  0  0  0  0  0
    3.0003   -3.1291   -2.9440 H   0  0  0  0  0  0  0  0  0  0  0  0
    1.2972   -2.7799   -2.4843 H   0  0  0  0  0  0  0  0  0  0  0  0
    2.4216   -4.4466   -0.5419 C   0  0  0  0  0  0  0  0  0  0  0  0
    2.7396   -4.7572    0.4728 H   0  0  0  0  0  0  0  0  0  0  0  0
    1.3493   -4.6982   -0.6668 H   0  0  0  0  0  0  0  0  0  0  0  0
    3.0112   -5.0426   -1.2697 H   0  0  0  0  0  0  0  0  0  0  0  0
    1.9029   -2.3972    2.0926 C   0  0  0  0  0  0  0  0  0  0  0  0
    2.9401   -2.8027    2.0981 H   0  0  0  0  0  0  0  0  0  0  0  0
    0.9311   -3.5070    2.5065 C   0  0  0  0  0  0  0  0  0  0  0  0
    0.9414   -4.3719    1.8198 H   0  0  0  0  0  0  0  0  0  0  0  0
    1.1898   -3.8594    3.5268 H   0  0  0  0  0  0  0  0  0  0  0  0
   -0.1118   -3.1370    2.5193 H   0  0  0  0  0  0  0  0  0  0  0  0
    1.8290   -1.2036    3.0530 C   0  0  0  0  0  0  0  0  0  0  0  0
    2.6004   -0.4402    2.8381 H   0  0  0  0  0  0  0  0  0  0  0  0
    0.8392   -0.7060    2.9955 H   0  0  0  0  0  0  0  0  0  0  0  0
    1.9645   -1.5551    4.0967 H   0  0  0  0  0  0  0  0  0  0  0  0
  1 10  1  0  0  0  0
  1 52  1  0  0  0  0
  2 72  1  0  0  0  0
  3  5  1  0  0  0  0
  3  4  1  0  0  0  0
  4 13  1  0  0  0  0
  5 26  1  0  0  0  0
  6  3  1  0  0  0  0
  7  6  1  0  0  0  0
  8  6  1  0  0  0  0
  9  6  1  0  0  0  0
 10  4  1  0  0  0  0
 10 11  2  0  0  0  0
 11 12  1  0  0  0  0
 12 20  1  0  0  0  0
 13 12  2  0  0  0  0
 13 14  1  0  0  0  0
 14 15  1  0  0  0  0
 14 16  2  0  0  0  0
 16 17  1  0  0  0  0
 18 16  1  0  0  0  0
 18 19  1  0  0  0  0
 20 21  1  0  0  0  0
 20 18  2  0  0  0  0
 22 11  1  0  0  0  0
 22 25  1  0  0  0  0
 23 22  1  0  0  0  0
 24 22  1  0  0  0  0
 26  2  1  0  0  0  0
 26 27  2  0  0  0  0
 27 38  1  0  0  0  0
 28 27  1  0  0  0  0
 29  5  1  0  0  0  0
 29 28  2  0  0  0  0
 30 29  1  0  0  0  0
 31 30  1  0  0  0  0
 32 30  2  0  0  0  0
 32 34  1  0  0  0  0
 33 32  1  0  0  0  0
 34 36  2  0  0  0  0
 35 34  1  0  0  0  0
 36 28  1  0  0  0  0
 36 37  1  0  0  0  0
 38 39  1  0  0  0  0
 38 40  1  0  0  0  0
 41 38  1  0  0  0  0
 42 43  1  0  0  0  0
 42  1  1  0  0  0  0
 44 45  1  0  0  0  0
 44 42  1  0  0  0  0
 46 44  1  0  0  0  0
 47 44  1  0  0  0  0
 48 42  1  0  0  0  0
 48 49  1  0  0  0  0
 50 48  1  0  0  0  0
 51 48  1  0  0  0  0
 52 58  1  0  0  0  0
 52 54  1  0  0  0  0
 53 52  1  0  0  0  0
 54 56  1  0  0  0  0
 54 57  1  0  0  0  0
 55 54  1  0  0  0  0
 58 61  1  0  0  0  0
 58 60  1  0  0  0  0
 59 58  1  0  0  0  0
 62 63  1  0  0  0  0
 62 68  1  0  0  0  0
 62  2  1  0  0  0  0
 64 62  1  0  0  0  0
 65 64  1  0  0  0  0
 66 64  1  0  0  0  0
 67 64  1  0  0  0  0
 68 69  1  0  0  0  0
 70 68  1  0  0  0  0
 71 68  1  0  0  0  0
 72 73  1  0  0  0  0
 72 74  1  0  0  0  0
 72 78  1  0  0  0  0
 74 77  1  0  0  0  0
 74 76  1  0  0  0  0
 75 74  1  0  0  0  0
 78 81  1  0  0  0  0
 79 78  1  0  0  0  0
 80 78  1  0  0  0  0
M  END
