1,2,3
 OpenBabel05122313063D

 78 84  0  0  0  0  0  0  0  0999 V2000
   -2.0658    0.8046   -0.0103 P   0  0  0  0  0  0  0  0  0  0  0  0
    2.4019    0.1080   -0.0614 P   0  0  0  0  0  0  0  0  0  0  0  0
   -0.1475   -1.1861    1.0832 Si  0  0  0  0  0  3  0  0  0  0  0  0
    2.6732   -1.1943    1.2194 C   0  0  0  0  0  0  0  0  0  0  0  0
    3.9599   -1.6575    1.5607 C   0  0  0  0  0  0  0  0  0  0  0  0
    4.8459   -1.2591    1.0416 H   0  0  0  0  0  0  0  0  0  0  0  0
    4.1037   -2.6332    2.5569 C   0  0  0  0  0  0  0  0  0  0  0  0
    5.1066   -2.9950    2.8304 H   0  0  0  0  0  0  0  0  0  0  0  0
    2.9663   -3.1580    3.1960 C   0  0  0  0  0  0  0  0  0  0  0  0
    3.0811   -3.9313    3.9713 H   0  0  0  0  0  0  0  0  0  0  0  0
    1.6855   -2.7197    2.8283 C   0  0  0  0  0  0  0  0  0  0  0  0
    0.8039   -3.1788    3.3039 H   0  0  0  0  0  0  0  0  0  0  0  0
    1.5167   -1.7296    1.8364 C   0  0  0  0  0  0  0  0  0  0  0  0
   -2.4206    0.2998    1.7352 C   0  0  0  0  0  0  0  0  0  0  0  0
   -3.5186    0.7766    2.4719 C   0  0  0  0  0  0  0  0  0  0  0  0
   -4.2262    1.4860    2.0154 H   0  0  0  0  0  0  0  0  0  0  0  0
   -3.6893    0.3670    3.8047 C   0  0  0  0  0  0  0  0  0  0  0  0
   -4.5387    0.7501    4.3905 H   0  0  0  0  0  0  0  0  0  0  0  0
   -2.7677   -0.5137    4.3932 C   0  0  0  0  0  0  0  0  0  0  0  0
   -2.8954   -0.8203    5.4429 H   0  0  0  0  0  0  0  0  0  0  0  0
   -1.6761   -0.9959    3.6500 C   0  0  0  0  0  0  0  0  0  0  0  0
   -0.9554   -1.6768    4.1307 H   0  0  0  0  0  0  0  0  0  0  0  0
   -1.4833   -0.5975    2.3133 C   0  0  0  0  0  0  0  0  0  0  0  0
   -0.9230   -2.7017    0.2252 C   0  0  0  0  0  0  0  0  0  0  0  0
   -1.6213   -3.6858    0.9592 C   0  0  0  0  0  0  0  0  0  0  0  0
   -1.7023   -3.6001    2.0559 H   0  0  0  0  0  0  0  0  0  0  0  0
   -2.2436   -4.7647    0.3117 C   0  0  0  0  0  0  0  0  0  0  0  0
   -2.7854   -5.5214    0.9007 H   0  0  0  0  0  0  0  0  0  0  0  0
   -2.1868   -4.8713   -1.0876 C   0  0  0  0  0  0  0  0  0  0  0  0
   -2.6852   -5.7102   -1.5976 H   0  0  0  0  0  0  0  0  0  0  0  0
   -1.5041   -3.8979   -1.8342 C   0  0  0  0  0  0  0  0  0  0  0  0
   -1.4731   -3.9643   -2.9326 H   0  0  0  0  0  0  0  0  0  0  0  0
   -0.8781   -2.8255   -1.1815 C   0  0  0  0  0  0  0  0  0  0  0  0
   -0.3763   -2.0424   -1.7754 H   0  0  0  0  0  0  0  0  0  0  0  0
    3.1563    1.6436    0.6107 C   0  0  0  0  0  0  0  0  0  0  0  0
    3.0060    2.8233   -0.1531 C   0  0  0  0  0  0  0  0  0  0  0  0
    2.4307    2.7925   -1.0957 H   0  0  0  0  0  0  0  0  0  0  0  0
    3.5500    4.0275    0.3143 C   0  0  0  0  0  0  0  0  0  0  0  0
    3.4322    4.9426   -0.2860 H   0  0  0  0  0  0  0  0  0  0  0  0
    4.2254    4.0725    1.5459 C   0  0  0  0  0  0  0  0  0  0  0  0
    4.6441    5.0224    1.9122 H   0  0  0  0  0  0  0  0  0  0  0  0
    4.3538    2.9057    2.3146 C   0  0  0  0  0  0  0  0  0  0  0  0
    4.8700    2.9372    3.2863 H   0  0  0  0  0  0  0  0  0  0  0  0
    3.8224    1.6912    1.8513 C   0  0  0  0  0  0  0  0  0  0  0  0
    3.9216    0.7824    2.4621 H   0  0  0  0  0  0  0  0  0  0  0  0
    3.4958   -0.4127   -1.4403 C   0  0  0  0  0  0  0  0  0  0  0  0
    3.0695   -1.5108   -2.2165 C   0  0  0  0  0  0  0  0  0  0  0  0
    2.1082   -1.9984   -1.9889 H   0  0  0  0  0  0  0  0  0  0  0  0
    3.8642   -1.9745   -3.2722 C   0  0  0  0  0  0  0  0  0  0  0  0
    3.5265   -2.8314   -3.8745 H   0  0  0  0  0  0  0  0  0  0  0  0
    5.0827   -1.3395   -3.5682 C   0  0  0  0  0  0  0  0  0  0  0  0
    5.7024   -1.6992   -4.4036 H   0  0  0  0  0  0  0  0  0  0  0  0
    5.5040   -0.2414   -2.8032 C   0  0  0  0  0  0  0  0  0  0  0  0
    6.4548    0.2618   -3.0363 H   0  0  0  0  0  0  0  0  0  0  0  0
    4.7148    0.2242   -1.7390 C   0  0  0  0  0  0  0  0  0  0  0  0
    5.0435    1.0889   -1.1432 H   0  0  0  0  0  0  0  0  0  0  0  0
   -2.7154    2.5088   -0.1680 C   0  0  0  0  0  0  0  0  0  0  0  0
   -4.0714    2.7548   -0.4637 C   0  0  0  0  0  0  0  0  0  0  0  0
   -4.7531    1.9119   -0.6562 H   0  0  0  0  0  0  0  0  0  0  0  0
   -4.5433    4.0747   -0.5289 C   0  0  0  0  0  0  0  0  0  0  0  0
   -5.6017    4.2657   -0.7634 H   0  0  0  0  0  0  0  0  0  0  0  0
   -3.6655    5.1475   -0.3043 C   0  0  0  0  0  0  0  0  0  0  0  0
   -4.0368    6.1822   -0.3616 H   0  0  0  0  0  0  0  0  0  0  0  0
   -2.3117    4.9020   -0.0229 C   0  0  0  0  0  0  0  0  0  0  0  0
   -1.6186    5.7423    0.1336 H   0  0  0  0  0  0  0  0  0  0  0  0
   -1.8316    3.5864    0.0401 C   0  0  0  0  0  0  0  0  0  0  0  0
   -0.7649    3.3854    0.2211 H   0  0  0  0  0  0  0  0  0  0  0  0
   -3.1405   -0.2290   -1.0731 C   0  0  0  0  0  0  0  0  0  0  0  0
   -3.9881   -1.2279   -0.5594 C   0  0  0  0  0  0  0  0  0  0  0  0
   -4.0803   -1.3663    0.5279 H   0  0  0  0  0  0  0  0  0  0  0  0
   -4.6906   -2.0657   -1.4395 C   0  0  0  0  0  0  0  0  0  0  0  0
   -5.3395   -2.8571   -1.0352 H   0  0  0  0  0  0  0  0  0  0  0  0
   -4.5547   -1.9043   -2.8265 C   0  0  0  0  0  0  0  0  0  0  0  0
   -5.1038   -2.5663   -3.5136 H   0  0  0  0  0  0  0  0  0  0  0  0
   -3.7068   -0.9067   -3.3390 C   0  0  0  0  0  0  0  0  0  0  0  0
   -3.5899   -0.7856   -4.4267 H   0  0  0  0  0  0  0  0  0  0  0  0
   -2.9904   -0.0745   -2.4691 C   0  0  0  0  0  0  0  0  0  0  0  0
   -2.2879    0.6807   -2.8608 H   0  0  0  0  0  0  0  0  0  0  0  0
  1 14  1  0  0  0  0
  2 35  1  0  0  0  0
  2  4  1  0  0  0  0
  3 13  1  0  0  0  0
  3 23  1  0  0  0  0
  4  5  2  0  0  0  0
  4 13  1  0  0  0  0
  5  7  1  0  0  0  0
  6  5  1  0  0  0  0
  7  8  1  0  0  0  0
  7  9  2  0  0  0  0
  9 10  1  0  0  0  0
 11  9  1  0  0  0  0
 11 12  1  0  0  0  0
 13 11  2  0  0  0  0
 14 23  2  0  0  0  0
 14 15  1  0  0  0  0
 15 17  2  0  0  0  0
 16 15  1  0  0  0  0
 17 18  1  0  0  0  0
 17 19  1  0  0  0  0
 19 20  1  0  0  0  0
 21 22  1  0  0  0  0
 21 19  2  0  0  0  0
 23 21  1  0  0  0  0
 24 25  1  0  0  0  0
 24  3  1  0  0  0  0
 25 26  1  0  0  0  0
 27 28  1  0  0  0  0
 27 25  2  0  0  0  0
 29 27  1  0  0  0  0
 30 29  1  0  0  0  0
 31 33  1  0  0  0  0
 31 29  2  0  0  0  0
 32 31  1  0  0  0  0
 33 24  2  0  0  0  0
 34 33  1  0  0  0  0
 35 44  1  0  0  0  0
 36 38  1  0  0  0  0
 36 35  2  0  0  0  0
 37 36  1  0  0  0  0
 38 40  2  0  0  0  0
 39 38  1  0  0  0  0
 40 41  1  0  0  0  0
 40 42  1  0  0  0  0
 42 43  1  0  0  0  0
 44 42  2  0  0  0  0
 44 45  1  0  0  0  0
 46  2  1  0  0  0  0
 47 48  1  0  0  0  0
 47 46  2  0  0  0  0
 49 47  1  0  0  0  0
 50 49  1  0  0  0  0
 51 49  2  0  0  0  0
 51 53  1  0  0  0  0
 52 51  1  0  0  0  0
 53 55  2  0  0  0  0
 54 53  1  0  0  0  0
 55 46  1  0  0  0  0
 55 56  1  0  0  0  0
 57  1  1  0  0  0  0
 57 66  1  0  0  0  0
 58 57  2  0  0  0  0
 59 58  1  0  0  0  0
 60 58  1  0  0  0  0
 60 62  2  0  0  0  0
 61 60  1  0  0  0  0
 62 64  1  0  0  0  0
 63 62  1  0  0  0  0
 64 66  2  0  0  0  0
 64 65  1  0  0  0  0
 66 67  1  0  0  0  0
 68 69  1  0  0  0  0
 68  1  1  0  0  0  0
 69 70  1  0  0  0  0
 71 72  1  0  0  0  0
 71 69  2  0  0  0  0
 73 71  1  0  0  0  0
 74 73  1  0  0  0  0
 75 73  2  0  0  0  0
 75 77  1  0  0  0  0
 76 75  1  0  0  0  0
 77 68  2  0  0  0  0
 78 77  1  0  0  0  0
M  END
