1,12,23,35,47
 OpenBabel05122313063D

 53 56  0  0  0  0  0  0  0  0999 V2000
   -1.2799   -1.6002    1.1269 O   0  5  0  0  0  0  0  0  0  0  0  0
   -2.1753   -1.8164    0.2300 C   0  0  0  0  0  0  0  0  0  0  0  0
   -3.2750   -2.6967    0.5358 C   0  0  0  0  0  0  0  0  0  0  0  0
   -4.2863   -2.9662   -0.3755 C   0  0  0  0  0  0  0  0  0  0  0  0
   -5.1121   -3.6333   -0.0948 H   0  0  0  0  0  0  0  0  0  0  0  0
   -4.2532   -2.3749   -1.6641 C   0  0  0  0  0  0  0  0  0  0  0  0
   -3.2132   -1.5330   -2.0212 C   0  0  0  0  0  0  0  0  0  0  0  0
   -3.1928   -1.0798   -3.0224 H   0  0  0  0  0  0  0  0  0  0  0  0
   -2.1663   -1.2438   -1.0976 C   0  0  0  0  0  0  0  0  0  0  0  0
   -1.1142   -0.3874   -1.5291 C   0  0  0  0  0  3  0  0  0  0  0  0
   -1.1768   -0.0327   -2.5733 H   0  0  0  0  0  0  0  0  0  0  0  0
   -0.0969    0.0355   -0.8068 N   0  0  0  0  0  2  0  0  0  0  0  0
    0.9114    0.8698   -1.3288 C   0  0  0  0  0  0  0  0  0  0  0  0
    1.1321    1.1354   -2.6975 C   0  0  0  0  0  0  0  0  0  0  0  0
    0.5219    0.6421   -3.4662 H   0  0  0  0  0  0  0  0  0  0  0  0
    2.1507    2.0137   -3.0806 C   0  0  0  0  0  0  0  0  0  0  0  0
    2.3187    2.2106   -4.1497 H   0  0  0  0  0  0  0  0  0  0  0  0
    2.9654    2.6322   -2.1167 C   0  0  0  0  0  0  0  0  0  0  0  0
    3.7680    3.3173   -2.4253 H   0  0  0  0  0  0  0  0  0  0  0  0
    2.7653    2.3559   -0.7576 C   0  0  0  0  0  0  0  0  0  0  0  0
    3.4113    2.8209    0.0008 H   0  0  0  0  0  0  0  0  0  0  0  0
    1.7518    1.4720   -0.3722 C   0  0  0  0  0  0  0  0  0  0  0  0
    1.4987    1.1138    1.0264 N   0  0  0  0  0  0  0  0  0  0  0  0
    1.0266    2.3144    1.8081 C   0  0  0  0  0  0  0  0  0  0  0  0
    0.7814    1.9349    2.8214 H   0  0  0  0  0  0  0  0  0  0  0  0
    1.8700    3.0309    1.9024 H   0  0  0  0  0  0  0  0  0  0  0  0
   -0.1541    2.9718    1.1577 C   0  0  0  0  0  0  0  0  0  0  0  0
   -0.1087    4.2875    0.6768 C   0  0  0  0  0  0  0  0  0  0  0  0
    0.8071    4.8883    0.7738 H   0  0  0  0  0  0  0  0  0  0  0  0
   -1.2429    4.8399    0.0622 C   0  0  0  0  0  0  0  0  0  0  0  0
   -2.4154    4.0824   -0.0957 C   0  0  0  0  0  0  0  0  0  0  0  0
   -3.2960    4.5107   -0.5921 H   0  0  0  0  0  0  0  0  0  0  0  0
   -2.4442    2.7603    0.3656 C   0  0  0  0  0  0  0  0  0  0  0  0
   -1.3234    2.1703    1.0192 C   0  0  0  0  0  0  0  0  0  0  0  0
   -1.3621    0.9303    1.4677 O   0  5  0  0  0  0  0  0  0  0  0  0
    2.7309    0.5317    1.6697 C   0  0  0  0  0  0  0  0  0  0  0  0
    2.3942    0.1293    2.6466 H   0  0  0  0  0  0  0  0  0  0  0  0
    3.4543    1.3507    1.8696 H   0  0  0  0  0  0  0  0  0  0  0  0
    3.3606   -0.5188    0.8043 C   0  0  0  0  0  0  0  0  0  0  0  0
    4.6939   -0.4181    0.3828 C   0  0  0  0  0  0  0  0  0  0  0  0
    5.3122    0.4384    0.6891 H   0  0  0  0  0  0  0  0  0  0  0  0
    5.2456   -1.4151   -0.4346 C   0  0  0  0  0  0  0  0  0  0  0  0
    4.4662   -2.5060   -0.8536 C   0  0  0  0  0  0  0  0  0  0  0  0
    4.8912   -3.2814   -1.5043 H   0  0  0  0  0  0  0  0  0  0  0  0
    3.1283   -2.5875   -0.4522 C   0  0  0  0  0  0  0  0  0  0  0  0
    2.5302   -1.6069    0.4002 C   0  0  0  0  0  0  0  0  0  0  0  0
    1.2882   -1.7379    0.8011 O   0  5  0  0  0  0  0  0  0  0  0  0
   -3.3215   -3.4146    2.1211 Cl  0  0  0  0  0  0  0  0  0  0  0  0
   -5.5410   -2.7260   -2.7891 Cl  0  0  0  0  0  0  0  0  0  0  0  0
   -1.1927    6.4826   -0.5312 Cl  0  0  0  0  0  0  0  0  0  0  0  0
   -3.8681    1.7873    0.1325 Cl  0  0  0  0  0  0  0  0  0  0  0  0
    6.9114   -1.2921   -0.9518 Cl  0  0  0  0  0  0  0  0  0  0  0  0
    2.1421   -3.9161   -0.9898 Cl  0  0  0  0  0  0  0  0  0  0  0  0
  2  3  1  0  0  0  0
  2  1  1  0  0  0  0
  3 48  1  0  0  0  0
  4  5  1  0  0  0  0
  4  3  2  0  0  0  0
  6  4  1  0  0  0  0
  7  6  2  0  0  0  0
  7  9  1  0  0  0  0
  8  7  1  0  0  0  0
  9  2  2  0  0  0  0
 10  9  1  0  0  0  0
 10 12  1  0  0  0  0
 11 10  1  0  0  0  0
 13 12  1  0  0  0  0
 13 22  1  0  0  0  0
 14 13  2  0  0  0  0
 15 14  1  0  0  0  0
 16 14  1  0  0  0  0
 16 18  2  0  0  0  0
 17 16  1  0  0  0  0
 18 20  1  0  0  0  0
 19 18  1  0  0  0  0
 20 22  2  0  0  0  0
 20 21  1  0  0  0  0
 22 23  1  0  0  0  0
 23 36  1  0  0  0  0
 23 24  1  0  0  0  0
 24 26  1  0  0  0  0
 24 25  1  0  0  0  0
 27 24  1  0  0  0  0
 28 29  1  0  0  0  0
 28 27  2  0  0  0  0
 30 28  1  0  0  0  0
 31 30  2  0  0  0  0
 31 33  1  0  0  0  0
 32 31  1  0  0  0  0
 33 34  2  0  0  0  0
 34 27  1  0  0  0  0
 34 35  1  0  0  0  0
 36 38  1  0  0  0  0
 36 37  1  0  0  0  0
 39 36  1  0  0  0  0
 40 41  1  0  0  0  0
 40 39  2  0  0  0  0
 42 40  1  0  0  0  0
 43 45  1  0  0  0  0
 43 42  2  0  0  0  0
 44 43  1  0  0  0  0
 45 46  2  0  0  0  0
 46 47  1  0  0  0  0
 46 39  1  0  0  0  0
 49  6  1  0  0  0  0
 50 30  1  0  0  0  0
 51 33  1  0  0  0  0
 52 42  1  0  0  0  0
 53 45  1  0  0  0  0
M  CHG  3   1  -1  35  -1  47  -1
M  END
