1,4,7,11,19
 OpenBabel05122313063D

 60 61  0  0  1  0  0  0  0  0999 V2000
    0.8261   -2.1355    1.3581 N   0  0  0  0  0  0  0  0  0  0  0  0
    0.0757   -3.3263    0.9393 C   0  0  0  0  0  0  0  0  0  0  0  0
   -0.1463   -3.3750   -0.5727 C   0  0  0  0  0  0  0  0  0  0  0  0
   -0.8708   -2.1988   -1.0972 N   0  0  0  0  0  0  0  0  0  0  0  0
    2.2625   -2.1858    1.1301 C   0  0  0  0  0  0  0  0  0  0  0  0
    2.7969   -0.7671    0.8782 C   0  0  2  0  0  3  0  0  0  0  0  0
    2.0225    0.2126    0.7995 O   0  0  0  0  0  1  0  0  0  0  0  0
    4.1209   -0.6744    0.6512 N   0  0  0  0  0  0  0  0  0  0  0  0
    0.4332   -1.6552    2.6891 C   0  0  0  0  0  0  0  0  0  0  0  0
   -0.9393   -0.9418    2.6647 C   0  0  0  0  0  0  0  0  0  0  0  0
   -1.1995   -0.3331    1.5310 O   0  5  0  0  0  0  0  0  0  0  0  0
   -1.6598   -0.9405    3.6554 O   0  0  0  0  0  0  0  0  0  0  0  0
   -2.3215   -2.2979   -0.8620 C   0  0  0  0  0  0  0  0  0  0  0  0
   -3.0036   -0.9284   -0.9035 C   0  0  0  0  0  0  0  0  0  0  0  0
   -2.7197   -0.0797   -1.7623 O   0  0  0  0  0  0  0  0  0  0  0  0
   -3.9251   -0.7062    0.0697 N   0  0  0  0  0  0  0  0  0  0  0  0
   -0.5184   -1.9728   -2.5159 C   0  0  0  0  0  0  0  0  0  0  0  0
    0.9025   -1.3864   -2.6873 C   0  0  0  0  0  0  0  0  0  0  0  0
    1.3601   -0.7717   -1.6213 O   0  5  0  0  0  0  0  0  0  0  0  0
    1.4799   -1.4917   -3.7612 O   0  0  0  0  0  0  0  0  0  0  0  0
    4.8137    0.4895    0.2607 C   0  0  0  0  0  0  0  0  0  0  0  0
    6.0534    0.7086    0.9720 C   0  0  0  0  0  0  0  0  0  0  0  0
    6.4916   -0.0448    1.8478 O   0  0  0  0  0  0  0  0  0  0  0  0
    6.7700    1.8534    0.5680 N   0  0  0  0  0  0  0  0  0  0  0  0
    6.4208    2.7440   -0.4331 C   0  0  0  0  0  0  0  0  0  0  0  0
    7.0644    3.7362   -0.7387 O   0  0  0  0  0  0  0  0  0  0  0  0
    5.2353    2.3925   -1.0929 N   0  0  0  0  0  0  0  0  0  0  0  0
    4.4418    1.2808   -0.8365 C   0  0  0  0  0  0  0  0  0  0  0  0
    3.4029    1.0650   -1.6582 N   0  0  0  0  0  0  0  0  0  0  0  0
   -4.6928    0.4803    0.1400 C   0  0  0  0  0  0  0  0  0  0  0  0
   -6.0230    0.4645   -0.4500 C   0  0  0  0  0  0  0  0  0  0  0  0
   -6.5551   -0.5019   -0.9872 O   0  0  0  0  0  0  0  0  0  0  0  0
   -6.7065    1.7021   -0.3417 N   0  0  0  0  0  0  0  0  0  0  0  0
   -6.2484    2.8799    0.2206 C   0  0  0  0  0  0  0  0  0  0  0  0
   -6.8742    3.9264    0.2662 O   0  0  0  0  0  0  0  0  0  0  0  0
   -4.9528    2.7649    0.7567 N   0  0  0  0  0  0  0  0  0  0  0  0
   -4.1725    1.6259    0.7331 C   0  0  0  0  0  0  0  0  0  0  0  0
   -2.9119    1.7117    1.2599 N   0  0  0  0  0  0  0  0  0  0  0  0
   -0.9010   -3.2977    1.4639 H   0  0  0  0  0  0  0  0  0  0  0  0
    0.5712   -4.2700    1.2686 H   0  0  0  0  0  0  0  0  0  0  0  0
    0.8342   -3.4098   -1.0887 H   0  0  0  0  0  0  0  0  0  0  0  0
   -0.6707   -4.3223   -0.8408 H   0  0  0  0  0  0  0  0  0  0  0  0
    2.4648   -2.7735    0.2120 H   0  0  0  0  0  0  0  0  0  0  0  0
    2.8246   -2.6750    1.9634 H   0  0  0  0  0  0  0  0  0  0  0  0
    4.7334   -1.4301    0.9843 H   0  0  0  0  0  0  0  0  0  0  0  0
    1.1732   -0.9001    3.0237 H   0  0  0  0  0  0  0  0  0  0  0  0
    0.4102   -2.4662    3.4505 H   0  0  0  0  0  0  0  0  0  0  0  0
   -2.4897   -2.7591    0.1300 H   0  0  0  0  0  0  0  0  0  0  0  0
   -2.8110   -2.9569   -1.6198 H   0  0  0  0  0  0  0  0  0  0  0  0
   -4.1272   -1.4623    0.7298 H   0  0  0  0  0  0  0  0  0  0  0  0
   -1.2361   -1.2398   -2.9324 H   0  0  0  0  0  0  0  0  0  0  0  0
   -0.5984   -2.9067   -3.1170 H   0  0  0  0  0  0  0  0  0  0  0  0
    7.6463    2.0448    1.0600 H   0  0  0  0  0  0  0  0  0  0  0  0
    4.9859    3.0328   -1.8489 H   0  0  0  0  0  0  0  0  0  0  0  0
    2.7197    0.2678   -1.5914 H   0  0  0  0  0  0  0  0  0  0  0  0
    3.2585    1.6871   -2.4522 H   0  0  0  0  0  0  0  0  0  0  0  0
   -7.6462    1.7344   -0.7466 H   0  0  0  0  0  0  0  0  0  0  0  0
   -4.5866    3.6372    1.1427 H   0  0  0  0  0  0  0  0  0  0  0  0
   -2.3984    0.8059    1.4779 H   0  0  0  0  0  0  0  0  0  0  0  0
   -2.7716    2.4311    1.9743 H   0  0  0  0  0  0  0  0  0  0  0  0
  1  9  1  0  0  0  0
  2 40  1  0  0  0  0
  2  1  1  0  0  0  0
  2 39  1  0  0  0  0
  3  2  1  0  0  0  0
  4 13  1  0  0  0  0
  4  3  1  0  0  0  0
  5  1  1  0  0  0  0
  5 44  1  0  0  0  0
  6  7  1  6  0  0  0
  6  5  1  0  0  0  0
  8  6  1  0  0  0  0
  8 45  1  0  0  0  0
  9 46  1  0  0  0  0
  9 47  1  0  0  0  0
 10  9  1  0  0  0  0
 10 12  2  0  0  0  0
 11 10  1  0  0  0  0
 13 48  1  0  0  0  0
 14 13  1  0  0  0  0
 14 16  1  0  0  0  0
 15 14  2  0  0  0  0
 16 30  1  0  0  0  0
 16 50  1  0  0  0  0
 17  4  1  0  0  0  0
 18 17  1  0  0  0  0
 18 19  1  0  0  0  0
 20 18  2  0  0  0  0
 21  8  1  0  0  0  0
 21 22  1  0  0  0  0
 22 23  2  0  0  0  0
 24 22  1  0  0  0  0
 24 53  1  0  0  0  0
 25 24  1  0  0  0  0
 26 25  2  0  0  0  0
 27 28  1  0  0  0  0
 27 25  1  0  0  0  0
 28 21  2  0  0  0  0
 29 55  1  0  0  0  0
 29 28  1  0  0  0  0
 30 37  2  0  0  0  0
 31 33  1  0  0  0  0
 31 30  1  0  0  0  0
 32 31  2  0  0  0  0
 33 34  1  0  0  0  0
 34 35  2  0  0  0  0
 34 36  1  0  0  0  0
 36 58  1  0  0  0  0
 37 36  1  0  0  0  0
 37 38  1  0  0  0  0
 38 59  1  0  0  0  0
 38 60  1  0  0  0  0
 41  3  1  0  0  0  0
 42  3  1  0  0  0  0
 43  5  1  0  0  0  0
 49 13  1  0  0  0  0
 51 17  1  0  0  0  0
 52 17  1  0  0  0  0
 54 27  1  0  0  0  0
 56 29  1  0  0  0  0
 57 33  1  0  0  0  0
M  CHG  2  11  -1  19  -1
M  END
