1,4,15,18,28,31
 OpenBabel05122313063D

 65 67  0  0  0  0  0  0  0  0999 V2000
    1.8954   -2.5133    0.1929 O   0  5  0  0  0  0  0  0  0  0  0  0
    0.8269   -3.2220   -0.2062 C   0  0  0  0  0  0  0  0  0  0  0  0
   -0.1272   -2.4339   -0.9176 C   0  0  0  0  0  0  0  0  0  0  0  0
    0.2677   -1.1760   -1.1276 O   0  5  0  0  0  0  0  0  0  0  0  0
   -1.3785   -2.9815   -1.2854 C   0  0  0  0  0  0  0  0  0  0  0  0
   -1.6015   -4.3578   -1.0277 C   0  0  0  0  0  0  0  0  0  0  0  0
   -0.6317   -5.1415   -0.3946 C   0  0  0  0  0  0  0  0  0  0  0  0
    0.5912   -4.5795    0.0354 C   0  0  0  0  0  0  0  0  0  0  0  0
   -2.4941   -2.1694   -1.8447 C   0  0  0  0  0  0  0  0  0  0  0  0
   -3.6079   -2.6512   -2.1087 O   0  0  0  0  0  0  0  0  0  0  0  0
   -2.2567   -0.8113   -1.9722 N   0  0  0  0  0  0  0  0  0  0  0  0
   -3.2910    0.0572   -2.4912 C   0  0  0  0  0  0  0  0  0  0  0  0
   -4.4792    0.1023   -1.5240 C   0  0  0  0  0  0  0  0  0  0  0  0
   -4.0492    0.5915   -0.1634 N   0  3  0  0  0  0  0  0  0  0  0  0
    2.4004    0.4551    1.8062 O   0  5  0  0  0  0  0  0  0  0  0  0
    1.4506    0.7949    2.6943 C   0  0  0  0  0  0  0  0  0  0  0  0
    0.2034    0.1373    2.4648 C   0  0  0  0  0  0  0  0  0  0  0  0
    0.2400   -0.7585    1.4784 O   0  5  0  0  0  0  0  0  0  0  0  0
   -0.9409    0.4855    3.2205 C   0  0  0  0  0  0  0  0  0  0  0  0
   -0.7816    1.4154    4.2790 C   0  0  0  0  0  0  0  0  0  0  0  0
    0.4591    2.0019    4.5448 C   0  0  0  0  0  0  0  0  0  0  0  0
    1.5876    1.7059    3.7473 C   0  0  0  0  0  0  0  0  0  0  0  0
   -2.3105   -0.0086    2.9055 C   0  0  0  0  0  0  0  0  0  0  0  0
   -3.3139    0.3487    3.5449 O   0  0  0  0  0  0  0  0  0  0  0  0
   -2.4267   -0.8212    1.7912 N   0  0  0  0  0  0  0  0  0  0  0  0
   -3.7208   -1.3401    1.4028 C   0  0  0  0  0  0  0  0  0  0  0  0
   -4.6482   -0.1968    0.9756 C   0  0  0  0  0  0  0  0  0  0  0  0
    2.5491    0.3847   -1.5588 O   0  5  0  0  0  0  0  0  0  0  0  0
    1.7972    1.3177   -2.1750 C   0  0  0  0  0  0  0  0  0  0  0  0
    0.6824    1.7410   -1.3921 C   0  0  0  0  0  0  0  0  0  0  0  0
    0.6485    1.2149   -0.1687 O   0  5  0  0  0  0  0  0  0  0  0  0
   -0.2859    2.6136   -1.9439 C   0  0  0  0  0  0  0  0  0  0  0  0
   -0.0548    3.1261   -3.2452 C   0  0  0  0  0  0  0  0  0  0  0  0
    1.0776    2.7595   -3.9785 C   0  0  0  0  0  0  0  0  0  0  0  0
    2.0138    1.8394   -3.4540 C   0  0  0  0  0  0  0  0  0  0  0  0
   -1.5623    2.9601   -1.2571 C   0  0  0  0  0  0  0  0  0  0  0  0
   -2.4375    3.6631   -1.7881 O   0  0  0  0  0  0  0  0  0  0  0  0
   -1.7629    2.3902   -0.0129 N   0  0  0  0  0  0  0  0  0  0  0  0
   -2.9746    2.6764    0.7249 C   0  0  0  0  0  0  0  0  0  0  0  0
   -4.1897    2.0841    0.0031 C   0  0  0  0  0  0  0  0  0  0  0  0
   -2.5727   -4.7749   -1.3308 H   0  0  0  0  0  0  0  0  0  0  0  0
   -0.8307   -6.2070   -0.2054 H   0  0  0  0  0  0  0  0  0  0  0  0
    1.3438   -5.1746    0.5726 H   0  0  0  0  0  0  0  0  0  0  0  0
   -1.2808   -0.4916   -1.8363 H   0  0  0  0  0  0  0  0  0  0  0  0
   -3.6862   -0.3232   -3.4585 H   0  0  0  0  0  0  0  0  0  0  0  0
   -2.8673    1.0655   -2.6698 H   0  0  0  0  0  0  0  0  0  0  0  0
   -4.8511   -0.9333   -1.4158 H   0  0  0  0  0  0  0  0  0  0  0  0
   -5.2958    0.7564   -1.8842 H   0  0  0  0  0  0  0  0  0  0  0  0
   -3.0120    0.4015   -0.1146 H   0  0  0  0  0  0  0  0  0  0  0  0
   -1.6763    1.6654    4.8672 H   0  0  0  0  0  0  0  0  0  0  0  0
    0.5568    2.7212    5.3716 H   0  0  0  0  0  0  0  0  0  0  0  0
    2.5583    2.1924    3.9245 H   0  0  0  0  0  0  0  0  0  0  0  0
   -1.5454   -1.1713    1.3737 H   0  0  0  0  0  0  0  0  0  0  0  0
   -4.2219   -1.8492    2.2552 H   0  0  0  0  0  0  0  0  0  0  0  0
   -3.5865   -2.0853    0.5938 H   0  0  0  0  0  0  0  0  0  0  0  0
   -5.6455   -0.5569    0.6598 H   0  0  0  0  0  0  0  0  0  0  0  0
   -4.7523    0.4809    1.8430 H   0  0  0  0  0  0  0  0  0  0  0  0
   -0.8108    3.8110   -3.6557 H   0  0  0  0  0  0  0  0  0  0  0  0
    1.2320    3.1707   -4.9873 H   0  0  0  0  0  0  0  0  0  0  0  0
    2.8848    1.5061   -4.0374 H   0  0  0  0  0  0  0  0  0  0  0  0
   -0.9612    1.8910    0.4124 H   0  0  0  0  0  0  0  0  0  0  0  0
   -3.1510    3.7722    0.7893 H   0  0  0  0  0  0  0  0  0  0  0  0
   -2.8777    2.2859    1.7570 H   0  0  0  0  0  0  0  0  0  0  0  0
   -5.1385    2.2837    0.5365 H   0  0  0  0  0  0  0  0  0  0  0  0
   -4.2262    2.5394   -1.0038 H   0  0  0  0  0  0  0  0  0  0  0  0
  2  8  1  0  0  0  0
  2  1  1  0  0  0  0
  3  2  2  0  0  0  0
  4  3  1  0  0  0  0
  5  6  2  0  0  0  0
  5  3  1  0  0  0  0
  6  7  1  0  0  0  0
  7 42  1  0  0  0  0
  7  8  2  0  0  0  0
  8 43  1  0  0  0  0
  9  5  1  0  0  0  0
 10  9  2  0  0  0  0
 11  9  1  0  0  0  0
 11 44  1  0  0  0  0
 12 11  1  0  0  0  0
 12 13  1  0  0  0  0
 13 47  1  0  0  0  0
 13 14  1  0  0  0  0
 14 49  1  0  0  0  0
 14 40  1  0  0  0  0
 14 27  1  0  0  0  0
 15 16  1  0  0  0  0
 16 22  1  0  0  0  0
 17 16  2  0  0  0  0
 17 19  1  0  0  0  0
 18 17  1  0  0  0  0
 19 20  2  0  0  0  0
 20 21  1  0  0  0  0
 20 50  1  0  0  0  0
 21 51  1  0  0  0  0
 22 52  1  0  0  0  0
 22 21  2  0  0  0  0
 23 19  1  0  0  0  0
 23 24  2  0  0  0  0
 25 23  1  0  0  0  0
 26 25  1  0  0  0  0
 26 54  1  0  0  0  0
 27 26  1  0  0  0  0
 27 57  1  0  0  0  0
 29 28  1  0  0  0  0
 29 30  1  0  0  0  0
 30 31  1  0  0  0  0
 32 30  2  0  0  0  0
 32 36  1  0  0  0  0
 33 32  1  0  0  0  0
 34 35  1  0  0  0  0
 34 33  2  0  0  0  0
 35 29  2  0  0  0  0
 36 38  1  0  0  0  0
 37 36  2  0  0  0  0
 38 61  1  0  0  0  0
 38 39  1  0  0  0  0
 39 62  1  0  0  0  0
 39 63  1  0  0  0  0
 40 64  1  0  0  0  0
 40 39  1  0  0  0  0
 41  6  1  0  0  0  0
 45 12  1  0  0  0  0
 46 12  1  0  0  0  0
 48 13  1  0  0  0  0
 53 25  1  0  0  0  0
 55 26  1  0  0  0  0
 56 27  1  0  0  0  0
 58 33  1  0  0  0  0
 59 34  1  0  0  0  0
 60 35  1  0  0  0  0
 65 40  1  0  0  0  0
M  CHG  7   1  -1   4  -1  14   1  15  -1  18  -1  28  -1  31  -1
M  END
