1,2,3,4
 OpenBabel05122313063D

 42 43  0  0  0  0  0  0  0  0999 V2000
    0.8256   -0.6420    1.5224 S   0  0  0  0  0  0  0  0  0  0  0  0
   -0.8265   -0.6406   -1.5236 S   0  0  0  0  0  0  0  0  0  0  0  0
    1.6840    1.0141   -0.7047 O   0  5  0  0  0  0  0  0  0  0  0  0
   -1.6842    1.0147    0.7042 O   0  5  0  0  0  0  0  0  0  0  0  0
   -0.0040   -2.0994    0.7567 C   0  0  0  0  0  0  0  0  0  0  0  0
   -1.0378   -2.0792    1.1593 H   0  0  0  0  0  0  0  0  0  0  0  0
    0.4975   -3.0107    1.1436 H   0  0  0  0  0  0  0  0  0  0  0  0
    0.0034   -2.0986   -0.7594 C   0  0  0  0  0  0  0  0  0  0  0  0
   -0.4978   -3.0096   -1.1472 H   0  0  0  0  0  0  0  0  0  0  0  0
    1.0373   -2.0777   -1.1619 H   0  0  0  0  0  0  0  0  0  0  0  0
    2.6385    0.1640   -0.3376 C   0  0  0  0  0  0  0  0  0  0  0  0
    2.4289   -0.7267    0.7454 C   0  0  0  0  0  0  0  0  0  0  0  0
    3.4321   -1.6157    1.1669 C   0  0  0  0  0  0  0  0  0  0  0  0
    3.2436   -2.2794    2.0251 H   0  0  0  0  0  0  0  0  0  0  0  0
    4.6681   -1.6516    0.5002 C   0  0  0  0  0  0  0  0  0  0  0  0
    4.8628   -0.7653   -0.5856 C   0  0  0  0  0  0  0  0  0  0  0  0
    5.8301   -0.7806   -1.1149 H   0  0  0  0  0  0  0  0  0  0  0  0
    3.8874    0.1420   -1.0215 C   0  0  0  0  0  0  0  0  0  0  0  0
    4.1002    1.0915   -2.1665 C   0  0  0  0  0  0  0  0  0  0  0  0
    3.3058    0.9750   -2.9323 H   0  0  0  0  0  0  0  0  0  0  0  0
    4.0342    2.1445   -1.8216 H   0  0  0  0  0  0  0  0  0  0  0  0
    5.0854    0.9370   -2.6455 H   0  0  0  0  0  0  0  0  0  0  0  0
    5.7681   -2.5893    0.9316 C   0  0  0  0  0  0  0  0  0  0  0  0
    5.4399   -3.2518    1.7557 H   0  0  0  0  0  0  0  0  0  0  0  0
    6.6600   -2.0304    1.2855 H   0  0  0  0  0  0  0  0  0  0  0  0
    6.1063   -3.2328    0.0927 H   0  0  0  0  0  0  0  0  0  0  0  0
   -2.6387    0.1646    0.3375 C   0  0  0  0  0  0  0  0  0  0  0  0
   -2.4295   -0.7259   -0.7459 C   0  0  0  0  0  0  0  0  0  0  0  0
   -3.4327   -1.6149   -1.1670 C   0  0  0  0  0  0  0  0  0  0  0  0
   -3.2445   -2.2784   -2.0255 H   0  0  0  0  0  0  0  0  0  0  0  0
   -4.6684   -1.6512   -0.4998 C   0  0  0  0  0  0  0  0  0  0  0  0
   -4.8628   -0.7651    0.5863 C   0  0  0  0  0  0  0  0  0  0  0  0
   -5.8298   -0.7807    1.1161 H   0  0  0  0  0  0  0  0  0  0  0  0
   -3.8873    0.1423    1.0219 C   0  0  0  0  0  0  0  0  0  0  0  0
   -4.0997    1.0914    2.1672 C   0  0  0  0  0  0  0  0  0  0  0  0
   -5.0847    0.9368    2.6466 H   0  0  0  0  0  0  0  0  0  0  0  0
   -3.3050    0.9748    2.9327 H   0  0  0  0  0  0  0  0  0  0  0  0
   -4.0339    2.1445    1.8226 H   0  0  0  0  0  0  0  0  0  0  0  0
   -5.7684   -2.5891   -0.9308 C   0  0  0  0  0  0  0  0  0  0  0  0
   -5.4407   -3.2508   -1.7557 H   0  0  0  0  0  0  0  0  0  0  0  0
   -6.6609   -2.0303   -1.2834 H   0  0  0  0  0  0  0  0  0  0  0  0
   -6.1055   -3.2334   -0.0921 H   0  0  0  0  0  0  0  0  0  0  0  0
  2  8  1  0  0  0  0
  2 28  1  0  0  0  0
  3 11  1  0  0  0  0
  5  7  1  0  0  0  0
  5  6  1  0  0  0  0
  5  1  1  0  0  0  0
  8  5  1  0  0  0  0
  9  8  1  0  0  0  0
 10  8  1  0  0  0  0
 11 12  1  0  0  0  0
 12 13  2  0  0  0  0
 12  1  1  0  0  0  0
 13 14  1  0  0  0  0
 15 23  1  0  0  0  0
 15 13  1  0  0  0  0
 16 15  2  0  0  0  0
 17 16  1  0  0  0  0
 18 16  1  0  0  0  0
 18 11  2  0  0  0  0
 19 21  1  0  0  0  0
 19 18  1  0  0  0  0
 20 19  1  0  0  0  0
 22 19  1  0  0  0  0
 23 25  1  0  0  0  0
 23 24  1  0  0  0  0
 26 23  1  0  0  0  0
 27  4  1  0  0  0  0
 27 34  1  0  0  0  0
 28 27  2  0  0  0  0
 29 28  1  0  0  0  0
 29 31  2  0  0  0  0
 30 29  1  0  0  0  0
 31 32  1  0  0  0  0
 32 34  2  0  0  0  0
 32 33  1  0  0  0  0
 34 35  1  0  0  0  0
 35 36  1  0  0  0  0
 35 37  1  0  0  0  0
 38 35  1  0  0  0  0
 39 31  1  0  0  0  0
 39 42  1  0  0  0  0
 40 39  1  0  0  0  0
 41 39  1  0  0  0  0
M  CHG  2   3  -1   4  -1
M  END
