2,3,8
 OpenBabel05122313063D

 38 38  0  0  1  0  0  0  0  0999 V2000
   -2.3017   -0.3486   -0.1859 N   0  0  0  0  0  0  0  0  0  0  0  0
   -0.6432    1.2421   -0.0640 N   0  0  0  0  0  2  0  0  0  0  0  0
   -1.1578   -1.3284   -0.1236 B   0  0  0  0  0  0  0  0  0  0  0  0
   -0.3900   -1.7331   -1.3713 C   0  0  0  0  0  0  0  0  0  0  0  0
   -0.6976   -1.4213   -2.3816 H   0  0  0  0  0  0  0  0  0  0  0  0
    0.8173   -2.4495   -1.2561 C   0  0  0  0  0  0  0  0  0  0  0  0
    1.4101   -2.6981   -2.1508 H   0  0  0  0  0  0  0  0  0  0  0  0
    1.3632   -2.7769    0.0124 C   0  0  0  0  0  3  0  0  0  0  0  0
    2.3457   -3.2639    0.0658 H   0  0  0  0  0  0  0  0  0  0  0  0
    0.6719   -2.4724    1.2131 C   0  0  0  0  0  0  0  0  0  0  0  0
    1.1562   -2.7363    2.1668 H   0  0  0  0  0  0  0  0  0  0  0  0
   -0.5418   -1.7558    1.1989 C   0  0  0  0  0  0  0  0  0  0  0  0
   -0.9588   -1.4569    2.1732 H   0  0  0  0  0  0  0  0  0  0  0  0
   -3.6947   -0.8243   -0.1289 C   0  0  0  0  0  0  0  0  0  0  0  0
   -4.3460   -0.0219   -0.5288 H   0  0  0  0  0  0  0  0  0  0  0  0
   -3.8719   -2.0508   -1.0296 C   0  0  0  0  0  0  0  0  0  0  0  0
   -3.5879   -1.8242   -2.0758 H   0  0  0  0  0  0  0  0  0  0  0  0
   -4.9278   -2.3846   -1.0169 H   0  0  0  0  0  0  0  0  0  0  0  0
   -3.2445   -2.8968   -0.6809 H   0  0  0  0  0  0  0  0  0  0  0  0
   -4.1202   -1.1166    1.3180 C   0  0  0  0  0  0  0  0  0  0  0  0
   -3.5180   -1.9457    1.7418 H   0  0  0  0  0  0  0  0  0  0  0  0
   -5.1876   -1.4129    1.3612 H   0  0  0  0  0  0  0  0  0  0  0  0
   -3.9807   -0.2296    1.9678 H   0  0  0  0  0  0  0  0  0  0  0  0
   -1.9406    0.9579   -0.1321 C   0  0  1  0  0  3  0  0  0  0  0  0
   -3.0433    1.9910   -0.1629 C   0  0  0  0  0  0  0  0  0  0  0  0
   -3.6352    1.8934   -1.0949 H   0  0  0  0  0  0  0  0  0  0  0  0
   -2.6543    3.0158   -0.1137 H   0  0  0  0  0  0  0  0  0  0  0  0
   -3.7357    1.8461    0.6897 H   0  0  0  0  0  0  0  0  0  0  0  0
   -0.1005    2.6219   -0.0369 C   0  0  0  0  0  0  0  0  0  0  0  0
    1.0073    2.4701    0.0088 H   0  0  0  0  0  0  0  0  0  0  0  0
   -0.4387    3.4082    1.2389 C   0  0  0  0  0  0  0  0  0  0  0  0
   -1.4958    3.7360    1.2782 H   0  0  0  0  0  0  0  0  0  0  0  0
    0.1906    4.3195    1.2846 H   0  0  0  0  0  0  0  0  0  0  0  0
   -0.2217    2.7953    2.1336 H   0  0  0  0  0  0  0  0  0  0  0  0
   -0.3329    3.4126   -1.3329 C   0  0  0  0  0  0  0  0  0  0  0  0
   -0.0367    2.8049   -2.2083 H   0  0  0  0  0  0  0  0  0  0  0  0
    0.2913    4.3284   -1.3222 H   0  0  0  0  0  0  0  0  0  0  0  0
   -1.3858    3.7320   -1.4591 H   0  0  0  0  0  0  0  0  0  0  0  0
  1 24  1  0  0  0  0
  1 14  1  0  0  0  0
  1  3  1  0  0  0  0
  2 29  1  0  0  0  0
  3 12  1  0  0  0  0
  4  6  2  0  0  0  0
  4  3  1  0  0  0  0
  5  4  1  0  0  0  0
  6  8  1  0  0  0  0
  7  6  1  0  0  0  0
  8  9  1  0  0  0  0
  8 10  1  0  0  0  0
 10 11  1  0  0  0  0
 12 10  2  0  0  0  0
 12 13  1  0  0  0  0
 14 20  1  0  0  0  0
 15 14  1  0  0  0  0
 16 18  1  0  0  0  0
 16 19  1  0  0  0  0
 16 14  1  0  0  0  0
 17 16  1  0  0  0  0
 20 22  1  0  0  0  0
 20 21  1  0  0  0  0
 20 23  1  0  0  0  0
 24  2  1  6  0  0  0
 25 24  1  0  0  0  0
 25 27  1  0  0  0  0
 25 28  1  0  0  0  0
 26 25  1  0  0  0  0
 29 30  1  0  0  0  0
 29 31  1  0  0  0  0
 31 32  1  0  0  0  0
 31 33  1  0  0  0  0
 31 34  1  0  0  0  0
 35 37  1  0  0  0  0
 35 29  1  0  0  0  0
 36 35  1  0  0  0  0
 38 35  1  0  0  0  0
M  END
