3,4,6,67
 OpenBabel05122313063D

 69 69  0  0  1  0  0  0  0  0999 V2000
    2.2802    0.1442    2.0698 Si  0  0  0  0  0  0  0  0  0  0  0  0
   -2.1623   -2.1983   -0.1841 Si  0  0  0  0  0  0  0  0  0  0  0  0
    0.1986    1.5880   -0.5195 N   0  0  0  0  0  2  0  0  0  0  0  0
    2.0056   -0.5931    0.3844 N   0  0  0  0  0  0  0  0  0  0  0  0
    2.1166   -1.6121    0.4760 H   0  0  0  0  0  0  0  0  0  0  0  0
   -2.0929   -0.4153   -0.0969 N   0  0  0  0  0  2  0  0  0  0  0  0
    1.4278    2.0700   -0.8911 C   0  0  2  0  0  3  0  0  0  0  0  0
    1.6595    3.4448   -1.0608 C   0  0  0  0  0  0  0  0  0  0  0  0
    2.6596    3.7902   -1.3572 H   0  0  0  0  0  0  0  0  0  0  0  0
    0.6041    4.3516   -0.8370 C   0  0  0  0  0  0  0  0  0  0  0  0
    0.7679    5.4354   -0.9366 H   0  0  0  0  0  0  0  0  0  0  0  0
   -0.6483    3.8551   -0.5204 C   0  0  0  0  0  0  0  0  0  0  0  0
   -1.5051    4.5303   -0.3826 H   0  0  0  0  0  0  0  0  0  0  0  0
   -0.8734    2.4435   -0.3923 C   0  0  0  0  0  0  0  0  0  0  0  0
    2.5208    1.1457   -1.2197 C   0  0  0  0  0  0  0  0  0  0  0  0
    3.2094    1.5254   -1.9851 H   0  0  0  0  0  0  0  0  0  0  0  0
    2.7362   -0.1126   -0.7484 C   0  0  0  0  0  0  0  0  0  0  0  0
    3.7024   -1.1165   -1.3902 C   0  0  0  0  0  0  0  0  0  0  0  0
    4.4920   -0.4911   -2.5508 C   0  0  0  0  0  0  0  0  0  0  0  0
    3.8208   -0.1250   -3.3521 H   0  0  0  0  0  0  0  0  0  0  0  0
    5.1643   -1.2513   -2.9963 H   0  0  0  0  0  0  0  0  0  0  0  0
    5.1215    0.3544   -2.2078 H   0  0  0  0  0  0  0  0  0  0  0  0
    4.7076   -1.6714   -0.3567 C   0  0  0  0  0  0  0  0  0  0  0  0
    5.3746   -0.8720    0.0208 H   0  0  0  0  0  0  0  0  0  0  0  0
    5.3390   -2.4533   -0.8247 H   0  0  0  0  0  0  0  0  0  0  0  0
    4.2059   -2.1378    0.5157 H   0  0  0  0  0  0  0  0  0  0  0  0
    2.8483   -2.2828   -1.9520 C   0  0  0  0  0  0  0  0  0  0  0  0
    2.2850   -2.8171   -1.1599 H   0  0  0  0  0  0  0  0  0  0  0  0
    3.5033   -3.0263   -2.4501 H   0  0  0  0  0  0  0  0  0  0  0  0
    2.1084   -1.9104   -2.6876 H   0  0  0  0  0  0  0  0  0  0  0  0
    1.1122    1.5473    2.5104 C   0  0  0  0  0  0  0  0  0  0  0  0
    1.2667    2.4334    1.8647 H   0  0  0  0  0  0  0  0  0  0  0  0
    1.3260    1.8436    3.5600 H   0  0  0  0  0  0  0  0  0  0  0  0
    0.0500    1.2435    2.4322 H   0  0  0  0  0  0  0  0  0  0  0  0
    4.0502    0.7952    2.1396 C   0  0  0  0  0  0  0  0  0  0  0  0
    4.8034   -0.0146    2.0887 H   0  0  0  0  0  0  0  0  0  0  0  0
    4.1993    1.3439    3.0924 H   0  0  0  0  0  0  0  0  0  0  0  0
    4.2394    1.5038    1.3080 H   0  0  0  0  0  0  0  0  0  0  0  0
    2.0480   -1.3235    3.2262 C   0  0  0  0  0  0  0  0  0  0  0  0
    1.0132   -1.7139    3.1616 H   0  0  0  0  0  0  0  0  0  0  0  0
    2.2353   -1.0088    4.2732 H   0  0  0  0  0  0  0  0  0  0  0  0
    2.7491   -2.1515    2.9938 H   0  0  0  0  0  0  0  0  0  0  0  0
   -2.2165    2.0095   -0.1753 C   0  0  0  0  0  0  0  0  0  0  0  0
   -2.9141    2.8503   -0.1177 H   0  0  0  0  0  0  0  0  0  0  0  0
   -2.7920    0.7269   -0.1137 C   0  0  0  0  0  0  0  0  0  0  0  0
   -4.3463    0.6377   -0.0074 C   0  0  0  0  0  0  0  0  0  0  0  0
   -5.0571    1.9917   -0.1963 C   0  0  0  0  0  0  0  0  0  0  0  0
   -4.8223    2.4502   -1.1774 H   0  0  0  0  0  0  0  0  0  0  0  0
   -4.7985    2.7169    0.6001 H   0  0  0  0  0  0  0  0  0  0  0  0
   -6.1541    1.8342   -0.1502 H   0  0  0  0  0  0  0  0  0  0  0  0
   -4.8867   -0.3073   -1.0999 C   0  0  0  0  0  0  0  0  0  0  0  0
   -5.9927   -0.3694   -1.0395 H   0  0  0  0  0  0  0  0  0  0  0  0
   -4.4973   -1.3356   -1.0034 H   0  0  0  0  0  0  0  0  0  0  0  0
   -4.6161    0.0635   -2.1092 H   0  0  0  0  0  0  0  0  0  0  0  0
   -4.7051    0.1145    1.4007 C   0  0  0  0  0  0  0  0  0  0  0  0
   -4.3611    0.8299    2.1750 H   0  0  0  0  0  0  0  0  0  0  0  0
   -4.2318   -0.8605    1.6087 H   0  0  0  0  0  0  0  0  0  0  0  0
   -5.8039   -0.0046    1.5048 H   0  0  0  0  0  0  0  0  0  0  0  0
   -3.5062   -3.1462    0.7731 C   0  0  0  0  0  0  0  0  0  0  0  0
   -3.4746   -2.9099    1.8562 H   0  0  0  0  0  0  0  0  0  0  0  0
   -3.2560   -4.2239    0.6652 H   0  0  0  0  0  0  0  0  0  0  0  0
   -4.5452   -3.0051    0.4152 H   0  0  0  0  0  0  0  0  0  0  0  0
   -2.2082   -2.7432   -1.9983 C   0  0  0  0  0  0  0  0  0  0  0  0
   -3.1579   -2.4767   -2.5033 H   0  0  0  0  0  0  0  0  0  0  0  0
   -2.0784   -3.8434   -2.0715 H   0  0  0  0  0  0  0  0  0  0  0  0
   -1.3779   -2.2560   -2.5482 H   0  0  0  0  0  0  0  0  0  0  0  0
   -0.4534   -2.3956    0.5322 C   0  0  0  0  0  3  0  0  0  0  0  0
   -0.4217   -2.5543    1.6312 H   0  0  0  0  0  0  0  0  0  0  0  0
    0.2207   -3.1194    0.0261 H   0  0  0  0  0  0  0  0  0  0  0  0
  1 35  1  0  0  0  0
  1 31  1  0  0  0  0
  1 39  1  0  0  0  0
  2  6  1  0  0  0  0
  2 67  1  0  0  0  0
  2 59  1  0  0  0  0
  3 14  1  0  0  0  0
  4  5  1  0  0  0  0
  4  1  1  0  0  0  0
  7 15  1  6  0  0  0
  7  3  1  0  0  0  0
  8  7  1  0  0  0  0
  8 10  2  0  0  0  0
  9  8  1  0  0  0  0
 10 12  1  0  0  0  0
 11 10  1  0  0  0  0
 12 14  2  0  0  0  0
 12 13  1  0  0  0  0
 14 43  1  0  0  0  0
 15 17  2  0  0  0  0
 16 15  1  0  0  0  0
 17  4  1  0  0  0  0
 18 17  1  0  0  0  0
 18 23  1  0  0  0  0
 19 22  1  0  0  0  0
 19 18  1  0  0  0  0
 20 19  1  0  0  0  0
 21 19  1  0  0  0  0
 23 24  1  0  0  0  0
 23 26  1  0  0  0  0
 25 23  1  0  0  0  0
 27 18  1  0  0  0  0
 27 28  1  0  0  0  0
 29 27  1  0  0  0  0
 30 27  1  0  0  0  0
 31 33  1  0  0  0  0
 32 31  1  0  0  0  0
 34 31  1  0  0  0  0
 35 37  1  0  0  0  0
 36 35  1  0  0  0  0
 38 35  1  0  0  0  0
 39 41  1  0  0  0  0
 40 39  1  0  0  0  0
 42 39  1  0  0  0  0
 43 44  1  0  0  0  0
 43 45  2  0  0  0  0
 45  6  1  0  0  0  0
 45 46  1  0  0  0  0
 46 55  1  0  0  0  0
 47 50  1  0  0  0  0
 47 46  1  0  0  0  0
 47 49  1  0  0  0  0
 48 47  1  0  0  0  0
 51 52  1  0  0  0  0
 51 53  1  0  0  0  0
 51 46  1  0  0  0  0
 54 51  1  0  0  0  0
 55 58  1  0  0  0  0
 55 57  1  0  0  0  0
 55 56  1  0  0  0  0
 59 60  1  0  0  0  0
 61 59  1  0  0  0  0
 62 59  1  0  0  0  0
 63  2  1  0  0  0  0
 64 63  1  0  0  0  0
 65 63  1  0  0  0  0
 66 63  1  0  0  0  0
 67 68  1  0  0  0  0
 69 67  1  0  0  0  0
M  END
