1,2,3,21
 OpenBabel05122313063D

 60 63  0  0  1  0  0  0  0  0999 V2000
   -0.1495   -0.7076   -1.3795 N   0  0  0  0  0  0  0  0  0  0  0  0
   -1.1454    1.8199   -0.5481 N   0  0  0  0  0  2  0  0  0  0  0  0
   -2.4208   -1.3625    0.1094 N   0  0  0  0  0  2  0  0  0  0  0  0
   -1.7438    3.2343    1.3617 C   0  0  0  0  0  0  0  0  0  0  0  0
   -1.3174    3.0761   -0.0677 C   0  0  2  0  0  3  0  0  0  0  0  0
   -1.1140    4.1970   -0.8982 C   0  0  0  0  0  0  0  0  0  0  0  0
   -0.7359    4.0145   -2.2301 C   0  0  0  0  0  0  0  0  0  0  0  0
   -0.5925    2.7070   -2.7217 C   0  0  0  0  0  0  0  0  0  0  0  0
   -0.8166    1.6327   -1.8559 C   0  0  0  0  0  0  0  0  0  0  0  0
   -0.7989    0.1952   -2.3392 C   0  0  0  0  0  0  0  0  0  0  0  0
   -3.9834   -0.4457    1.7370 C   0  0  0  0  0  0  0  0  0  0  0  0
   -3.6486   -1.4578    0.6807 C   0  0  1  0  0  3  0  0  0  0  0  0
   -4.5593   -2.4470    0.2692 C   0  0  0  0  0  0  0  0  0  0  0  0
   -4.2027   -3.3268   -0.7599 C   0  0  0  0  0  0  0  0  0  0  0  0
   -2.9414   -3.2001   -1.3570 C   0  0  0  0  0  0  0  0  0  0  0  0
   -2.0673   -2.2094   -0.8886 C   0  0  0  0  0  0  0  0  0  0  0  0
   -0.6602   -2.0768   -1.4480 C   0  0  0  0  0  0  0  0  0  0  0  0
    1.3159   -0.5996   -1.4192 C   0  0  0  0  0  0  0  0  0  0  0  0
    1.9993   -1.0475   -0.1089 C   0  0  2  0  0  0  0  0  0  0  0  0
    1.4614   -0.2385    1.0665 C   0  0  0  0  0  0  0  0  0  0  0  0
    0.3716   -0.7508    1.8335 C   0  0  0  0  0  3  0  0  0  0  0  0
   -0.1872    0.0398    2.8754 C   0  0  0  0  0  3  0  0  0  0  0  0
    0.3733    1.2920    3.1922 C   0  0  0  0  0  0  0  0  0  0  0  0
    1.4737    1.7703    2.4650 C   0  0  0  0  0  0  0  0  0  0  0  0
    1.9970    1.0208    1.3984 C   0  0  0  0  0  0  0  0  0  0  0  0
    3.5198   -1.0154   -0.1966 C   0  0  0  0  0  0  0  0  0  0  0  0
    4.2618   -1.8540    0.6608 C   0  0  0  0  0  0  0  0  0  0  0  0
    5.6623   -1.8339    0.6540 C   0  0  0  0  0  0  0  0  0  0  0  0
    6.3494   -0.9710   -0.2157 C   0  0  0  0  0  0  0  0  0  0  0  0
    5.6244   -0.1337   -1.0749 C   0  0  0  0  0  0  0  0  0  0  0  0
    4.2196   -0.1549   -1.0655 C   0  0  0  0  0  0  0  0  0  0  0  0
   -2.5754    3.9613    1.4492 H   0  0  0  0  0  0  0  0  0  0  0  0
   -2.0599    2.2596    1.7787 H   0  0  0  0  0  0  0  0  0  0  0  0
   -0.9078    3.6108    1.9850 H   0  0  0  0  0  0  0  0  0  0  0  0
   -1.2559    5.2063   -0.4856 H   0  0  0  0  0  0  0  0  0  0  0  0
   -0.5623    4.8801   -2.8864 H   0  0  0  0  0  0  0  0  0  0  0  0
   -0.3188    2.5193   -3.7700 H   0  0  0  0  0  0  0  0  0  0  0  0
   -0.3392    0.1350   -3.3531 H   0  0  0  0  0  0  0  0  0  0  0  0
   -1.8558   -0.1314   -2.4512 H   0  0  0  0  0  0  0  0  0  0  0  0
   -4.9237   -0.6911    2.2635 H   0  0  0  0  0  0  0  0  0  0  0  0
   -4.0959    0.5601    1.2791 H   0  0  0  0  0  0  0  0  0  0  0  0
   -3.1632   -0.3729    2.4789 H   0  0  0  0  0  0  0  0  0  0  0  0
   -5.5447   -2.5131    0.7518 H   0  0  0  0  0  0  0  0  0  0  0  0
   -4.9060   -4.1009   -1.1008 H   0  0  0  0  0  0  0  0  0  0  0  0
   -2.6311   -3.8639   -2.1772 H   0  0  0  0  0  0  0  0  0  0  0  0
   -0.6284   -2.4938   -2.4828 H   0  0  0  0  0  0  0  0  0  0  0  0
    0.0103   -2.7212   -0.8404 H   0  0  0  0  0  0  0  0  0  0  0  0
    1.5486    0.4709   -1.5901 H   0  0  0  0  0  0  0  0  0  0  0  0
    1.7419   -1.1667   -2.2809 H   0  0  0  0  0  0  0  0  0  0  0  0
    1.7177   -2.1071    0.0752 H   0  0  0  0  0  0  0  0  0  0  0  0
    0.0847   -1.8106    1.7363 H   0  0  0  0  0  0  0  0  0  0  0  0
   -0.9873   -0.3792    3.5048 H   0  0  0  0  0  0  0  0  0  0  0  0
   -0.0383    1.8781    4.0272 H   0  0  0  0  0  0  0  0  0  0  0  0
    1.9309    2.7356    2.7287 H   0  0  0  0  0  0  0  0  0  0  0  0
    2.8592    1.4014    0.8302 H   0  0  0  0  0  0  0  0  0  0  0  0
    3.7291   -2.5315    1.3473 H   0  0  0  0  0  0  0  0  0  0  0  0
    6.2221   -2.4980    1.3293 H   0  0  0  0  0  0  0  0  0  0  0  0
    7.4493   -0.9549   -0.2249 H   0  0  0  0  0  0  0  0  0  0  0  0
    6.1539    0.5425   -1.7627 H   0  0  0  0  0  0  0  0  0  0  0  0
    3.6780    0.5131   -1.7517 H   0  0  0  0  0  0  0  0  0  0  0  0
  2  5  1  0  0  0  0
  3 12  1  0  0  0  0
  4 32  1  0  0  0  0
  4 33  1  0  0  0  0
  4 34  1  0  0  0  0
  5  4  1  6  0  0  0
  6 35  1  0  0  0  0
  6  5  1  0  0  0  0
  7  6  2  0  0  0  0
  8  7  1  0  0  0  0
  8  9  2  0  0  0  0
  9  2  1  0  0  0  0
 10  9  1  0  0  0  0
 10  1  1  0  0  0  0
 11 40  1  0  0  0  0
 11 42  1  0  0  0  0
 12 11  1  6  0  0  0
 13 12  1  0  0  0  0
 13 43  1  0  0  0  0
 14 13  2  0  0  0  0
 15 16  2  0  0  0  0
 15 14  1  0  0  0  0
 16  3  1  0  0  0  0
 17  1  1  0  0  0  0
 17 16  1  0  0  0  0
 17 47  1  0  0  0  0
 18  1  1  0  0  0  0
 18 19  1  0  0  0  0
 19 50  1  1  0  0  0
 19 20  1  0  0  0  0
 20 25  2  0  0  0  0
 20 21  1  0  0  0  0
 21 22  1  0  0  0  0
 22 23  1  0  0  0  0
 22 52  1  0  0  0  0
 23 53  1  0  0  0  0
 24 54  1  0  0  0  0
 24 23  2  0  0  0  0
 25 24  1  0  0  0  0
 26 19  1  0  0  0  0
 26 27  1  0  0  0  0
 27 56  1  0  0  0  0
 28 27  2  0  0  0  0
 28 57  1  0  0  0  0
 29 28  1  0  0  0  0
 30 31  1  0  0  0  0
 30 29  2  0  0  0  0
 31 26  2  0  0  0  0
 36  7  1  0  0  0  0
 37  8  1  0  0  0  0
 38 10  1  0  0  0  0
 39 10  1  0  0  0  0
 41 11  1  0  0  0  0
 44 14  1  0  0  0  0
 45 15  1  0  0  0  0
 46 17  1  0  0  0  0
 48 18  1  0  0  0  0
 49 18  1  0  0  0  0
 51 21  1  0  0  0  0
 55 25  1  0  0  0  0
 58 29  1  0  0  0  0
 59 30  1  0  0  0  0
 60 31  1  0  0  0  0
M  END
