1,3,4,6
 OpenBabel05122313063D

 42 43  0  0  0  0  0  0  0  0999 V2000
   -0.0380    1.9609    0.1355 N   0  0  0  0  0  0  0  0  0  0  0  0
    0.0574    2.0620    1.1602 H   0  0  0  0  0  0  0  0  0  0  0  0
   -1.6441   -0.0001   -0.0453 C   0  0  0  0  0  3  0  0  0  0  0  0
    2.2839   -0.0001    0.1567 N   0  0  0  0  0  0  0  0  0  0  0  0
   -2.3398   -1.2208   -0.0047 C   0  0  0  0  0  0  0  0  0  0  0  0
   -0.0373   -1.9607    0.1365 N   0  0  0  0  0  0  0  0  0  0  0  0
    0.0614   -2.0626    1.1609 H   0  0  0  0  0  0  0  0  0  0  0  0
   -3.7393   -1.2246    0.1104 C   0  0  0  0  0  0  0  0  0  0  0  0
   -4.2984   -2.1727    0.1450 H   0  0  0  0  0  0  0  0  0  0  0  0
   -4.4286    0.0002    0.1774 C   0  0  0  0  0  0  0  0  0  0  0  0
   -5.5239    0.0002    0.2769 H   0  0  0  0  0  0  0  0  0  0  0  0
   -3.7393    1.2248    0.1075 C   0  0  0  0  0  0  0  0  0  0  0  0
   -4.2984    2.1730    0.1400 H   0  0  0  0  0  0  0  0  0  0  0  0
   -2.3399    1.2208   -0.0076 C   0  0  0  0  0  0  0  0  0  0  0  0
   -1.4408    2.4025   -0.1946 C   0  0  0  0  0  0  0  0  0  0  0  0
   -1.7127    3.2971    0.4070 H   0  0  0  0  0  0  0  0  0  0  0  0
   -1.4366    2.7194   -1.2594 H   0  0  0  0  0  0  0  0  0  0  0  0
    0.9626    2.8505   -0.4984 C   0  0  0  0  0  0  0  0  0  0  0  0
    0.7072    3.9093   -0.2707 H   0  0  0  0  0  0  0  0  0  0  0  0
    0.8669    2.7235   -1.5967 H   0  0  0  0  0  0  0  0  0  0  0  0
    2.3846    2.5532   -0.0521 C   0  0  0  0  0  0  0  0  0  0  0  0
    3.0478    3.3166   -0.5071 H   0  0  0  0  0  0  0  0  0  0  0  0
    2.4885    2.7030    1.0443 H   0  0  0  0  0  0  0  0  0  0  0  0
    2.9151    1.1919   -0.4832 C   0  0  0  0  0  0  0  0  0  0  0  0
    2.7757    1.0789   -1.5781 H   0  0  0  0  0  0  0  0  0  0  0  0
    4.0132    1.1479   -0.2934 H   0  0  0  0  0  0  0  0  0  0  0  0
    2.5659   -0.0021    1.6093 C   0  0  0  0  0  0  0  0  0  0  0  0
    2.1260    0.8884    2.0927 H   0  0  0  0  0  0  0  0  0  0  0  0
    2.1253   -0.8933    2.0906 H   0  0  0  0  0  0  0  0  0  0  0  0
    3.6631   -0.0028    1.8058 H   0  0  0  0  0  0  0  0  0  0  0  0
    2.9145   -1.1907   -0.4866 C   0  0  0  0  0  0  0  0  0  0  0  0
    4.0128   -1.1470   -0.2981 H   0  0  0  0  0  0  0  0  0  0  0  0
    2.7736   -1.0754   -1.5811 H   0  0  0  0  0  0  0  0  0  0  0  0
    2.3848   -2.5530   -0.0576 C   0  0  0  0  0  0  0  0  0  0  0  0
    2.4913   -2.7055    1.0382 H   0  0  0  0  0  0  0  0  0  0  0  0
    3.0469   -3.3154   -0.5160 H   0  0  0  0  0  0  0  0  0  0  0  0
    0.9617   -2.8494   -0.5012 C   0  0  0  0  0  0  0  0  0  0  0  0
    0.8635   -2.7205   -1.5990 H   0  0  0  0  0  0  0  0  0  0  0  0
    0.7069   -3.9086   -0.2747 H   0  0  0  0  0  0  0  0  0  0  0  0
   -1.4410   -2.4031   -0.1897 C   0  0  0  0  0  0  0  0  0  0  0  0
   -1.4388   -2.7233   -1.2534 H   0  0  0  0  0  0  0  0  0  0  0  0
   -1.7118   -3.2958    0.4152 H   0  0  0  0  0  0  0  0  0  0  0  0
  1  2  1  0  0  0  0
  3 14  2  0  0  0  0
  3  5  1  0  0  0  0
  4 27  1  0  0  0  0
  5  8  2  0  0  0  0
  6  7  1  0  0  0  0
  8  9  1  0  0  0  0
  8 10  1  0  0  0  0
 10 11  1  0  0  0  0
 12 13  1  0  0  0  0
 12 10  2  0  0  0  0
 14 12  1  0  0  0  0
 15 14  1  0  0  0  0
 15  1  1  0  0  0  0
 15 16  1  0  0  0  0
 17 15  1  0  0  0  0
 18 19  1  0  0  0  0
 18 21  1  0  0  0  0
 18  1  1  0  0  0  0
 20 18  1  0  0  0  0
 21 23  1  0  0  0  0
 22 21  1  0  0  0  0
 24 26  1  0  0  0  0
 24 21  1  0  0  0  0
 24  4  1  0  0  0  0
 25 24  1  0  0  0  0
 27 30  1  0  0  0  0
 27 29  1  0  0  0  0
 27 28  1  0  0  0  0
 31 32  1  0  0  0  0
 31 34  1  0  0  0  0
 31  4  1  0  0  0  0
 33 31  1  0  0  0  0
 34 35  1  0  0  0  0
 36 34  1  0  0  0  0
 37 39  1  0  0  0  0
 37 34  1  0  0  0  0
 37  6  1  0  0  0  0
 38 37  1  0  0  0  0
 40  5  1  0  0  0  0
 40  6  1  0  0  0  0
 40 42  1  0  0  0  0
 41 40  1  0  0  0  0
M  END
