1,2,3,4
 OpenBabel05122313063D

 69 74  0  0  0  0  0  0  0  0999 V2000
    1.6024   -1.0459    0.0324 C   0  0  0  0  0  2  0  0  0  0  0  0
   -1.1674   -1.6210   -0.1813 N   0  0  0  0  0  2  0  0  0  0  0  0
   -1.7381    1.2403   -0.1280 N   0  0  0  0  0  0  0  0  0  0  0  0
    1.1018    1.7526    0.0848 N   0  0  0  0  0  2  0  0  0  0  0  0
    2.9131   -0.5798    0.1400 N   0  0  0  0  0  0  0  0  0  0  0  0
    3.8398   -1.6639    0.1725 C   0  0  0  0  0  0  0  0  0  0  0  0
    5.2330   -1.6517    0.2692 C   0  0  0  0  0  0  0  0  0  0  0  0
    5.8098   -0.7182    0.3366 H   0  0  0  0  0  0  0  0  0  0  0  0
    5.8899   -2.8963    0.2775 C   0  0  0  0  0  0  0  0  0  0  0  0
    6.9870   -2.9250    0.3526 H   0  0  0  0  0  0  0  0  0  0  0  0
    3.0915   -2.8596    0.0841 C   0  0  0  0  0  0  0  0  0  0  0  0
    3.7618   -4.0931    0.0938 C   0  0  0  0  0  3  0  0  0  0  0  0
    3.2019   -5.0380    0.0262 H   0  0  0  0  0  0  0  0  0  0  0  0
    5.1633   -4.1000    0.1912 C   0  0  0  0  0  0  0  0  0  0  0  0
    5.7032   -5.0587    0.1999 H   0  0  0  0  0  0  0  0  0  0  0  0
    1.6860   -2.4673   -0.0030 C   0  0  0  0  0  0  0  0  0  0  0  0
    0.5964   -3.3394   -0.1037 C   0  0  0  0  0  0  0  0  0  0  0  0
    0.7916   -4.4220   -0.1200 H   0  0  0  0  0  0  0  0  0  0  0  0
   -0.7364   -2.9347   -0.1860 C   0  0  0  0  0  0  0  0  0  0  0  0
   -1.8739   -3.8366   -0.2907 C   0  0  0  0  0  0  0  0  0  0  0  0
   -1.7816   -5.3296   -0.3093 C   0  0  0  0  0  0  0  0  0  0  0  0
   -1.3703   -5.7281    0.6425 H   0  0  0  0  0  0  0  0  0  0  0  0
   -1.1175   -5.6917   -1.1222 H   0  0  0  0  0  0  0  0  0  0  0  0
   -2.7753   -5.7939   -0.4591 H   0  0  0  0  0  0  0  0  0  0  0  0
   -3.0025   -3.0412   -0.3584 C   0  0  0  0  0  0  0  0  0  0  0  0
   -4.4404   -3.4676   -0.4196 C   0  0  0  0  0  0  0  0  0  0  0  0
   -4.4984   -4.4916   -0.8446 H   0  0  0  0  0  0  0  0  0  0  0  0
   -4.9950   -2.8194   -1.1323 H   0  0  0  0  0  0  0  0  0  0  0  0
   -5.1439   -3.4440    0.9484 C   0  0  0  0  0  0  0  0  0  0  0  0
   -6.2026   -3.7636    0.8634 H   0  0  0  0  0  0  0  0  0  0  0  0
   -5.1274   -2.4270    1.3905 H   0  0  0  0  0  0  0  0  0  0  0  0
   -4.6362   -4.1204    1.6651 H   0  0  0  0  0  0  0  0  0  0  0  0
   -2.5409   -1.6589   -0.2859 C   0  0  0  0  0  0  0  0  0  0  0  0
   -3.3981   -0.5500   -0.3227 C   0  0  0  0  0  0  0  0  0  0  0  0
   -4.4705   -0.7651   -0.4253 H   0  0  0  0  0  0  0  0  0  0  0  0
   -3.0310    0.7922   -0.2398 C   0  0  0  0  0  0  0  0  0  0  0  0
   -3.9585    1.9244   -0.2628 C   0  0  0  0  0  0  0  0  0  0  0  0
   -5.4532    1.8098   -0.3178 C   0  0  0  0  0  0  0  0  0  0  0  0
   -5.7410    1.0344   -1.0605 H   0  0  0  0  0  0  0  0  0  0  0  0
   -5.8798    2.7612   -0.6990 H   0  0  0  0  0  0  0  0  0  0  0  0
   -6.0883    1.4749    1.0431 C   0  0  0  0  0  0  0  0  0  0  0  0
   -7.1916    1.3944    0.9633 H   0  0  0  0  0  0  0  0  0  0  0  0
   -5.8529    2.2575    1.7921 H   0  0  0  0  0  0  0  0  0  0  0  0
   -5.7024    0.5140    1.4402 H   0  0  0  0  0  0  0  0  0  0  0  0
   -3.1853    3.0635   -0.1578 C   0  0  0  0  0  0  0  0  0  0  0  0
   -3.6217    4.4932   -0.1192 C   0  0  0  0  0  0  0  0  0  0  0  0
   -4.7170    4.5863   -0.2502 H   0  0  0  0  0  0  0  0  0  0  0  0
   -3.1365    5.0934   -0.9178 H   0  0  0  0  0  0  0  0  0  0  0  0
   -3.3610    4.9761    0.8468 H   0  0  0  0  0  0  0  0  0  0  0  0
   -1.7958    2.6134   -0.0800 C   0  0  0  0  0  3  0  0  0  0  0  0
   -0.6874    3.4550    0.0251 C   0  0  0  0  0  0  0  0  0  0  0  0
   -0.8807    4.5362    0.0504 H   0  0  0  0  0  0  0  0  0  0  0  0
    0.6523    3.0514    0.0995 C   0  0  0  0  0  0  0  0  0  0  0  0
    1.7838    3.9708    0.2041 C   0  0  0  0  0  0  0  0  0  0  0  0
    1.6644    5.4611    0.2350 C   0  0  0  0  0  0  0  0  0  0  0  0
    2.6508    5.9442    0.3717 H   0  0  0  0  0  0  0  0  0  0  0  0
    1.0055    5.8030    1.0608 H   0  0  0  0  0  0  0  0  0  0  0  0
    1.2284    5.8564   -0.7071 H   0  0  0  0  0  0  0  0  0  0  0  0
    2.9263    3.1985    0.2589 C   0  0  0  0  0  0  0  0  0  0  0  0
    4.3578    3.6457    0.3145 C   0  0  0  0  0  0  0  0  0  0  0  0
    4.9287    2.9933    1.0105 H   0  0  0  0  0  0  0  0  0  0  0  0
    4.4037    4.6617    0.7591 H   0  0  0  0  0  0  0  0  0  0  0  0
    5.0477    3.6595   -1.0607 C   0  0  0  0  0  0  0  0  0  0  0  0
    6.1033    3.9891   -0.9781 H   0  0  0  0  0  0  0  0  0  0  0  0
    4.5258    4.3463   -1.7568 H   0  0  0  0  0  0  0  0  0  0  0  0
    5.0376    2.6530   -1.5259 H   0  0  0  0  0  0  0  0  0  0  0  0
    2.4805    1.8106    0.1803 C   0  0  0  0  0  0  0  0  0  0  0  0
    3.3231    0.7167    0.2088 C   0  0  0  0  0  0  0  0  0  0  0  0
    4.4046    0.8715    0.2955 H   0  0  0  0  0  0  0  0  0  0  0  0
  1  5  1  0  0  0  0
  3 50  1  0  0  0  0
  4 53  1  0  0  0  0
  4 67  1  0  0  0  0
  5  6  1  0  0  0  0
  5 68  1  0  0  0  0
  6  7  2  0  0  0  0
  7  9  1  0  0  0  0
  7  8  1  0  0  0  0
  9 10  1  0  0  0  0
 11 12  1  0  0  0  0
 11  6  1  0  0  0  0
 12 14  1  0  0  0  0
 13 12  1  0  0  0  0
 14 15  1  0  0  0  0
 14  9  2  0  0  0  0
 16  1  1  0  0  0  0
 16 11  2  0  0  0  0
 17 16  1  0  0  0  0
 18 17  1  0  0  0  0
 19  2  1  0  0  0  0
 19 17  2  0  0  0  0
 20 19  1  0  0  0  0
 21 20  1  0  0  0  0
 21 22  1  0  0  0  0
 23 21  1  0  0  0  0
 24 21  1  0  0  0  0
 25 20  2  0  0  0  0
 25 33  1  0  0  0  0
 26 25  1  0  0  0  0
 26 29  1  0  0  0  0
 27 26  1  0  0  0  0
 28 26  1  0  0  0  0
 29 31  1  0  0  0  0
 29 32  1  0  0  0  0
 30 29  1  0  0  0  0
 33  2  1  0  0  0  0
 34 33  2  0  0  0  0
 34 36  1  0  0  0  0
 35 34  1  0  0  0  0
 36  3  2  0  0  0  0
 37 36  1  0  0  0  0
 37 45  2  0  0  0  0
 38 37  1  0  0  0  0
 38 41  1  0  0  0  0
 39 38  1  0  0  0  0
 40 38  1  0  0  0  0
 41 44  1  0  0  0  0
 41 43  1  0  0  0  0
 42 41  1  0  0  0  0
 45 46  1  0  0  0  0
 45 50  1  0  0  0  0
 46 49  1  0  0  0  0
 47 46  1  0  0  0  0
 48 46  1  0  0  0  0
 50 51  1  0  0  0  0
 51 52  1  0  0  0  0
 51 53  2  0  0  0  0
 53 54  1  0  0  0  0
 54 55  1  0  0  0  0
 54 59  2  0  0  0  0
 55 56  1  0  0  0  0
 55 57  1  0  0  0  0
 58 55  1  0  0  0  0
 59 60  1  0  0  0  0
 60 62  1  0  0  0  0
 60 61  1  0  0  0  0
 63 64  1  0  0  0  0
 63 60  1  0  0  0  0
 65 63  1  0  0  0  0
 66 63  1  0  0  0  0
 67 68  2  0  0  0  0
 67 59  1  0  0  0  0
 68 69  1  0  0  0  0
M  END
