1,2,4,5,11
 OpenBabel05122313063D

 49 51  0  0  1  0  0  0  0  0999 V2000
    1.2250    1.1560    0.0000 O   0  5  0  0  0  0  0  0  0  0  0  0
   -0.0964   -2.5780   -0.0000 N   0  0  0  0  0  2  0  0  0  0  0  0
   -1.3004   -3.2616   -0.0000 C   0  0  0  0  0  0  0  0  0  0  0  0
   -1.2414    1.1207    0.0000 O   0  5  0  0  0  0  0  0  0  0  0  0
    2.0268   -1.1888   -0.0001 N   0  0  0  0  0  2  0  0  0  0  0  0
   -1.3314   -4.6926    0.0002 C   0  0  0  0  0  0  0  0  0  0  0  0
   -2.3060   -5.1979    0.0004 H   0  0  0  0  0  0  0  0  0  0  0  0
    3.0166   -0.2854   -0.0001 N   0  0  0  0  0  0  0  0  0  0  0  0
   -0.1475   -5.4008    0.0002 C   0  0  0  0  0  0  0  0  0  0  0  0
   -0.1519   -6.5003    0.0003 H   0  0  0  0  0  0  0  0  0  0  0  0
   -2.0706   -1.1061   -0.0001 N   0  0  0  0  0  2  0  0  0  0  0  0
    1.0858   -4.6939    0.0001 C   0  0  0  0  0  0  0  0  0  0  0  0
    2.0438   -5.2284    0.0000 H   0  0  0  0  0  0  0  0  0  0  0  0
   -3.0798   -0.1982   -0.0001 N   0  0  0  0  0  0  0  0  0  0  0  0
    1.0801   -3.3005    0.0000 C   0  0  0  0  0  0  0  0  0  0  0  0
    2.2819   -2.4802   -0.0000 C   0  0  1  0  0  3  0  0  0  0  0  0
    3.6597   -3.0496   -0.0000 C   0  0  0  0  0  0  0  0  0  0  0  0
    4.3989   -2.2304    0.0012 H   0  0  0  0  0  0  0  0  0  0  0  0
    3.8192   -3.6867   -0.8948 H   0  0  0  0  0  0  0  0  0  0  0  0
    3.8184   -3.6887    0.8935 H   0  0  0  0  0  0  0  0  0  0  0  0
    2.5019    0.9465   -0.0001 C   0  0  0  0  0  0  0  0  0  0  0  0
    3.4090    2.1118    0.0000 C   0  0  0  0  0  0  0  0  0  0  0  0
    4.8109    1.9402   -0.0008 C   0  0  0  0  0  0  0  0  0  0  0  0
    5.2190    0.9201   -0.0016 H   0  0  0  0  0  0  0  0  0  0  0  0
    5.6519    3.0588   -0.0008 C   0  0  0  0  0  0  0  0  0  0  0  0
    6.7439    2.9227   -0.0015 H   0  0  0  0  0  0  0  0  0  0  0  0
    5.1043    4.3536    0.0002 C   0  0  0  0  0  0  0  0  0  0  0  0
    5.7686    5.2313    0.0003 H   0  0  0  0  0  0  0  0  0  0  0  0
    3.7100    4.5280    0.0011 C   0  0  0  0  0  0  0  0  0  0  0  0
    3.2818    5.5417    0.0019 H   0  0  0  0  0  0  0  0  0  0  0  0
    2.8632    3.4133    0.0010 C   0  0  0  0  0  0  0  0  0  0  0  0
    1.7695    3.5230    0.0017 H   0  0  0  0  0  0  0  0  0  0  0  0
   -2.4292   -2.4215   -0.0002 C   0  0  0  0  0  0  0  0  0  0  0  0
   -3.8455   -2.8953   -0.0000 C   0  0  0  0  0  0  0  0  0  0  0  0
   -4.5286   -2.0292   -0.0052 H   0  0  0  0  0  0  0  0  0  0  0  0
   -4.0610   -3.5127    0.8974 H   0  0  0  0  0  0  0  0  0  0  0  0
   -4.0581   -3.5217   -0.8918 H   0  0  0  0  0  0  0  0  0  0  0  0
   -2.5620    1.0082   -0.0000 C   0  0  0  0  0  0  0  0  0  0  0  0
   -3.3732    2.2312   -0.0001 C   0  0  0  0  0  0  0  0  0  0  0  0
   -4.7846    2.1598    0.0003 C   0  0  0  0  0  0  0  0  0  0  0  0
   -5.2672    1.1723    0.0006 H   0  0  0  0  0  0  0  0  0  0  0  0
   -5.5424    3.3352    0.0002 C   0  0  0  0  0  0  0  0  0  0  0  0
   -6.6413    3.2771    0.0005 H   0  0  0  0  0  0  0  0  0  0  0  0
   -4.9041    4.5886   -0.0002 C   0  0  0  0  0  0  0  0  0  0  0  0
   -5.5043    5.5112   -0.0002 H   0  0  0  0  0  0  0  0  0  0  0  0
   -3.5015    4.6627   -0.0005 C   0  0  0  0  0  0  0  0  0  0  0  0
   -3.0014    5.6429   -0.0008 H   0  0  0  0  0  0  0  0  0  0  0  0
   -2.7349    3.4909   -0.0005 C   0  0  0  0  0  0  0  0  0  0  0  0
   -1.6362    3.5261   -0.0007 H   0  0  0  0  0  0  0  0  0  0  0  0
  2 15  1  0  0  0  0
  3  2  1  0  0  0  0
  3  6  1  0  0  0  0
  6  9  2  0  0  0  0
  6  7  1  0  0  0  0
  8  5  1  0  0  0  0
  8 21  2  0  0  0  0
  9 10  1  0  0  0  0
 12  9  1  0  0  0  0
 13 12  1  0  0  0  0
 14 11  1  0  0  0  0
 14 38  2  0  0  0  0
 15 12  2  0  0  0  0
 16  5  1  6  0  0  0
 16 17  1  0  0  0  0
 16 15  1  0  0  0  0
 17 18  1  0  0  0  0
 17 20  1  0  0  0  0
 19 17  1  0  0  0  0
 21  1  1  0  0  0  0
 21 22  1  0  0  0  0
 22 31  1  0  0  0  0
 23 25  1  0  0  0  0
 23 22  2  0  0  0  0
 24 23  1  0  0  0  0
 25 27  2  0  0  0  0
 26 25  1  0  0  0  0
 27 28  1  0  0  0  0
 27 29  1  0  0  0  0
 29 30  1  0  0  0  0
 31 29  2  0  0  0  0
 31 32  1  0  0  0  0
 33 11  1  0  0  0  0
 33 34  1  0  0  0  0
 33  3  2  0  0  0  0
 34 36  1  0  0  0  0
 35 34  1  0  0  0  0
 37 34  1  0  0  0  0
 38  4  1  0  0  0  0
 39 38  1  0  0  0  0
 39 40  1  0  0  0  0
 40 41  1  0  0  0  0
 42 40  2  0  0  0  0
 42 43  1  0  0  0  0
 44 42  1  0  0  0  0
 45 44  1  0  0  0  0
 46 48  1  0  0  0  0
 46 44  2  0  0  0  0
 47 46  1  0  0  0  0
 48 39  2  0  0  0  0
 49 48  1  0  0  0  0
M  CHG  2   1  -1   4  -1
M  END
