1,2,3,4,6
 OpenBabel05122313063D

 51 53  0  0  1  0  0  0  0  0999 V2000
    2.1881   -1.3042    0.7998 O   0  0  0  0  0  1  0  0  0  0  0  0
   -2.2953   -1.0451   -1.0479 O   0  0  0  0  0  1  0  0  0  0  0  0
    0.0804    2.6947   -0.0120 N   0  0  0  0  0  2  0  0  0  0  0  0
    2.3816    1.2771    0.1663 N   0  0  0  0  0  2  0  0  0  0  0  0
    3.4687    0.4878    0.1981 N   0  0  0  0  0  0  0  0  0  0  0  0
   -2.3455    1.5015   -0.3202 N   0  0  0  0  0  2  0  0  0  0  0  0
   -3.4561    0.7467   -0.2444 N   0  0  0  0  0  0  0  0  0  0  0  0
    1.2598    3.3293   -0.1899 C   0  0  1  0  0  3  0  0  0  0  0  0
    1.3436    4.7386   -0.2401 C   0  0  0  0  0  0  0  0  0  0  0  0
    0.1772    5.4941   -0.0857 C   0  0  0  0  0  0  0  0  0  0  0  0
   -1.0384    4.8328    0.1004 C   0  0  0  0  0  0  0  0  0  0  0  0
   -1.0490    3.4196    0.1168 C   0  0  0  0  0  0  0  0  0  0  0  0
    2.4888    2.4993   -0.2754 C   0  0  2  0  0  3  0  0  0  0  0  0
    3.7749    3.0341   -0.8423 C   0  0  0  0  0  0  0  0  0  0  0  0
    3.3065   -0.8478    0.5338 C   0  0  2  0  0  3  0  0  0  0  0  0
    4.5316   -1.6852    0.5216 C   0  0  0  0  0  0  0  0  0  0  0  0
    5.8228   -1.1633    0.7521 C   0  0  0  0  0  0  0  0  0  0  0  0
    6.9357   -2.0138    0.7249 C   0  0  0  0  0  0  0  0  0  0  0  0
    6.7655   -3.3837    0.4648 C   0  0  0  0  0  0  0  0  0  0  0  0
    5.4804   -3.9067    0.2412 C   0  0  0  0  0  0  0  0  0  0  0  0
    4.3634   -3.0646    0.2758 C   0  0  0  0  0  0  0  0  0  0  0  0
   -2.3306    2.6769    0.2382 C   0  0  2  0  0  3  0  0  0  0  0  0
   -3.4789    3.2210    1.0399 C   0  0  0  0  0  0  0  0  0  0  0  0
   -3.3658   -0.5841   -0.6330 C   0  0  2  0  0  3  0  0  0  0  0  0
   -4.5911   -1.4042   -0.4763 C   0  0  0  0  0  0  0  0  0  0  0  0
   -4.4216   -2.7844   -0.2283 C   0  0  0  0  0  0  0  0  0  0  0  0
   -5.5477   -3.5982   -0.0570 C   0  0  0  0  0  0  0  0  0  0  0  0
   -6.8387   -3.0503   -0.1437 C   0  0  0  0  0  0  0  0  0  0  0  0
   -7.0096   -1.6800   -0.4024 C   0  0  0  0  0  0  0  0  0  0  0  0
   -5.8891   -0.8555   -0.5654 C   0  0  0  0  0  0  0  0  0  0  0  0
    3.3468   -3.4455    0.0976 H   0  0  0  0  0  0  0  0  0  0  0  0
    5.3489   -4.9797    0.0372 H   0  0  0  0  0  0  0  0  0  0  0  0
    7.6417   -4.0493    0.4411 H   0  0  0  0  0  0  0  0  0  0  0  0
    7.9400   -1.6085    0.9183 H   0  0  0  0  0  0  0  0  0  0  0  0
    5.9602   -0.0979    0.9952 H   0  0  0  0  0  0  0  0  0  0  0  0
    4.3522    0.7920   -0.2283 H   0  0  0  0  0  0  0  0  0  0  0  0
    4.5803    3.0825   -0.0779 H   0  0  0  0  0  0  0  0  0  0  0  0
    4.1028    2.3654   -1.6679 H   0  0  0  0  0  0  0  0  0  0  0  0
    3.6595    4.0378   -1.2827 H   0  0  0  0  0  0  0  0  0  0  0  0
    2.3113    5.2397   -0.3699 H   0  0  0  0  0  0  0  0  0  0  0  0
    0.2177    6.5929   -0.1135 H   0  0  0  0  0  0  0  0  0  0  0  0
   -1.9733    5.4002    0.2006 H   0  0  0  0  0  0  0  0  0  0  0  0
   -4.4411    3.1793    0.4871 H   0  0  0  0  0  0  0  0  0  0  0  0
   -3.3151    4.2618    1.3658 H   0  0  0  0  0  0  0  0  0  0  0  0
   -3.5643    2.6033    1.9625 H   0  0  0  0  0  0  0  0  0  0  0  0
   -4.2487    1.0354    0.3422 H   0  0  0  0  0  0  0  0  0  0  0  0
   -6.0271    0.2109   -0.8037 H   0  0  0  0  0  0  0  0  0  0  0  0
   -8.0208   -1.2548   -0.4874 H   0  0  0  0  0  0  0  0  0  0  0  0
   -7.7201   -3.6964   -0.0125 H   0  0  0  0  0  0  0  0  0  0  0  0
   -5.4146   -4.6706    0.1483 H   0  0  0  0  0  0  0  0  0  0  0  0
   -3.4061   -3.2011   -0.1500 H   0  0  0  0  0  0  0  0  0  0  0  0
  3 12  1  0  0  0  0
  4  5  1  0  0  0  0
  5 15  1  0  0  0  0
  6  7  1  0  0  0  0
  7 46  1  0  0  0  0
  8 13  1  1  0  0  0
  8  3  1  0  0  0  0
  9  8  1  0  0  0  0
  9 10  2  0  0  0  0
 10 11  1  0  0  0  0
 11 12  2  0  0  0  0
 11 42  1  0  0  0  0
 12 22  1  0  0  0  0
 13  4  1  6  0  0  0
 14 13  1  0  0  0  0
 14 37  1  0  0  0  0
 15  1  1  6  0  0  0
 16 15  1  0  0  0  0
 16 17  1  0  0  0  0
 17 35  1  0  0  0  0
 18 17  2  0  0  0  0
 18 34  1  0  0  0  0
 19 18  1  0  0  0  0
 20 21  1  0  0  0  0
 20 19  2  0  0  0  0
 21 16  2  0  0  0  0
 22  6  1  1  0  0  0
 22 23  1  0  0  0  0
 23 44  1  0  0  0  0
 23 45  1  0  0  0  0
 24  2  1  1  0  0  0
 24 25  1  0  0  0  0
 24  7  1  0  0  0  0
 25 26  1  0  0  0  0
 26 51  1  0  0  0  0
 26 27  2  0  0  0  0
 27 50  1  0  0  0  0
 28 27  1  0  0  0  0
 28 49  1  0  0  0  0
 29 28  2  0  0  0  0
 30 25  2  0  0  0  0
 30 29  1  0  0  0  0
 31 21  1  0  0  0  0
 32 20  1  0  0  0  0
 33 19  1  0  0  0  0
 36  5  1  0  0  0  0
 38 14  1  0  0  0  0
 39 14  1  0  0  0  0
 40  9  1  0  0  0  0
 41 10  1  0  0  0  0
 43 23  1  0  0  0  0
 47 30  1  0  0  0  0
 48 29  1  0  0  0  0
M  END
