1,2,3,4,6
 OpenBabel05122313063D

 37 37  0  0  1  0  0  0  0  0999 V2000
   -0.0903    1.1776   -0.0339 N   0  0  0  0  0  2  0  0  0  0  0  0
   -1.6003   -0.5759   -1.1223 N   0  0  0  0  0  0  0  0  0  0  0  0
    1.6755   -0.2495    1.1289 N   0  0  0  0  0  0  0  0  0  0  0  0
   -1.0387   -0.8088    1.5333 O   0  5  0  0  0  0  0  0  0  0  0  0
   -3.1853   -1.0833    2.1405 O   0  0  0  0  0  0  0  0  0  0  0  0
    1.1917   -0.7641   -1.4913 O   0  5  0  0  0  0  0  0  0  0  0  0
    3.3671   -0.7444   -2.0662 O   0  0  0  0  0  0  0  0  0  0  0  0
    0.5574    1.8913    0.9127 C   0  0  1  0  0  3  0  0  0  0  0  0
    0.4553    3.2863    0.9107 C   0  0  0  0  0  0  0  0  0  0  0  0
   -0.3406    3.8998   -0.0731 C   0  0  0  0  0  0  0  0  0  0  0  0
   -1.0118    3.1235   -1.0343 C   0  0  0  0  0  0  0  0  0  0  0  0
   -0.8605    1.7332   -0.9946 C   0  0  0  0  0  0  0  0  0  0  0  0
   -1.4290    0.6870   -1.9100 C   0  0  0  0  0  0  0  0  0  0  0  0
    1.2901    0.9943    1.8702 C   0  0  0  0  0  0  0  0  0  0  0  0
   -1.7452   -1.7313   -2.0362 C   0  0  0  0  0  0  0  0  0  0  0  0
    2.0180   -1.3296    2.0770 C   0  0  0  0  0  0  0  0  0  0  0  0
   -2.7369   -0.4806   -0.1490 C   0  0  0  0  0  0  0  0  0  0  0  0
   -2.3432   -0.8429    1.3001 C   0  0  0  0  0  0  0  0  0  0  0  0
    2.7779    0.0082    0.1473 C   0  0  0  0  0  0  0  0  0  0  0  0
    2.4801   -0.5605   -1.2577 C   0  0  0  0  0  0  0  0  0  0  0  0
    0.9846    3.8822    1.6674 H   0  0  0  0  0  0  0  0  0  0  0  0
   -0.4403    4.9950   -0.0895 H   0  0  0  0  0  0  0  0  0  0  0  0
   -1.6420    3.5906   -1.8041 H   0  0  0  0  0  0  0  0  0  0  0  0
   -0.6891    0.4769   -2.7104 H   0  0  0  0  0  0  0  0  0  0  0  0
   -2.3843    0.9971   -2.3836 H   0  0  0  0  0  0  0  0  0  0  0  0
    0.5900    0.6945    2.6777 H   0  0  0  0  0  0  0  0  0  0  0  0
    2.1779    1.4798    2.3278 H   0  0  0  0  0  0  0  0  0  0  0  0
   -2.6199   -1.5826   -2.7041 H   0  0  0  0  0  0  0  0  0  0  0  0
   -0.8237   -1.8291   -2.6390 H   0  0  0  0  0  0  0  0  0  0  0  0
   -1.8911   -2.6489   -1.4413 H   0  0  0  0  0  0  0  0  0  0  0  0
    2.8493   -1.0167    2.7441 H   0  0  0  0  0  0  0  0  0  0  0  0
    1.1273   -1.5703    2.6877 H   0  0  0  0  0  0  0  0  0  0  0  0
    2.3479   -2.2221    1.5145 H   0  0  0  0  0  0  0  0  0  0  0  0
   -3.1182    0.5605   -0.1218 H   0  0  0  0  0  0  0  0  0  0  0  0
   -3.5796   -1.1226   -0.4702 H   0  0  0  0  0  0  0  0  0  0  0  0
    2.9105    1.1020    0.0214 H   0  0  0  0  0  0  0  0  0  0  0  0
    3.7410   -0.3924    0.5193 H   0  0  0  0  0  0  0  0  0  0  0  0
  1  8  1  0  0  0  0
  2 17  1  0  0  0  0
  3 14  1  0  0  0  0
  3 16  1  0  0  0  0
  6 20  1  0  0  0  0
  7 20  2  0  0  0  0
  8 14  1  1  0  0  0
  9  8  1  0  0  0  0
  9 21  1  0  0  0  0
 10  9  2  0  0  0  0
 11 12  2  0  0  0  0
 11 10  1  0  0  0  0
 12  1  1  0  0  0  0
 13  2  1  0  0  0  0
 13 12  1  0  0  0  0
 14 27  1  0  0  0  0
 14 26  1  0  0  0  0
 15 30  1  0  0  0  0
 15  2  1  0  0  0  0
 16 32  1  0  0  0  0
 16 31  1  0  0  0  0
 17 34  1  0  0  0  0
 17 18  1  0  0  0  0
 18  4  1  0  0  0  0
 18  5  2  0  0  0  0
 19 37  1  0  0  0  0
 19  3  1  0  0  0  0
 20 19  1  0  0  0  0
 22 10  1  0  0  0  0
 23 11  1  0  0  0  0
 24 13  1  0  0  0  0
 25 13  1  0  0  0  0
 28 15  1  0  0  0  0
 29 15  1  0  0  0  0
 33 16  1  0  0  0  0
 35 17  1  0  0  0  0
 36 19  1  0  0  0  0
M  CHG  2   4  -1   6  -1
M  END
