1,8,9,12
 OpenBabel05122313063D

 49 50  0  0  1  0  0  0  0  0999 V2000
    1.7706    0.0016   -0.0007 N   0  0  0  0  0  2  0  0  0  0  0  0
   -2.4756    1.0667   -0.8086 O   0  0  0  0  0  0  0  0  0  0  0  0
    2.4610   -0.9179    0.7520 C   0  0  1  0  0  3  0  0  0  0  0  0
    0.2666   -1.9556    0.7558 N   0  0  0  0  0  0  0  0  0  0  0  0
   -2.4685   -1.0684    0.8043 O   0  0  0  0  0  0  0  0  0  0  0  0
    3.8543   -0.9457    0.7522 C   0  0  0  0  0  0  0  0  0  0  0  0
    4.3778   -1.7051    1.3517 H   0  0  0  0  0  0  0  0  0  0  0  0
    0.2613    1.9559   -0.7556 N   0  0  0  0  0  0  0  0  0  0  0  0
   -0.3205   -0.8732   -1.7035 O   0  5  0  0  0  0  0  0  0  0  0  0
    4.5707    0.0053   -0.0015 C   0  0  0  0  0  0  0  0  0  0  0  0
    5.6693    0.0067   -0.0019 H   0  0  0  0  0  0  0  0  0  0  0  0
   -0.3209    0.8703    1.7042 O   0  5  0  0  0  0  0  0  0  0  0  0
    3.8513    0.9544   -0.7547 C   0  0  0  0  0  0  0  0  0  0  0  0
    4.3724    1.7152   -1.3545 H   0  0  0  0  0  0  0  0  0  0  0  0
   -0.6308   -2.9181   -2.6209 O   0  0  0  0  0  0  0  0  0  0  0  0
    2.4581    0.9229   -0.7537 C   0  0  0  0  0  0  0  0  0  0  0  0
   -0.6341    2.9140    2.6231 O   0  0  0  0  0  0  0  0  0  0  0  0
    1.5197    1.7962   -1.5377 C   0  0  0  0  0  0  0  0  0  0  0  0
    1.9770    2.7781   -1.7984 H   0  0  0  0  0  0  0  0  0  0  0  0
    1.2422    1.2753   -2.4788 H   0  0  0  0  0  0  0  0  0  0  0  0
   -0.8127    2.4968   -1.6146 C   0  0  0  0  0  0  0  0  0  0  0  0
   -0.8516    1.8707   -2.5282 H   0  0  0  0  0  0  0  0  0  0  0  0
   -0.5792    3.5474   -1.9072 H   0  0  0  0  0  0  0  0  0  0  0  0
   -2.1744    2.4336   -0.9475 C   0  0  0  0  0  0  0  0  0  0  0  0
   -2.1788    2.9539    0.0411 H   0  0  0  0  0  0  0  0  0  0  0  0
   -2.9217    2.9535   -1.5963 H   0  0  0  0  0  0  0  0  0  0  0  0
   -3.6382    0.7515   -0.0751 C   0  0  0  0  0  0  0  0  0  0  0  0
   -4.5622    1.0862   -0.6064 H   0  0  0  0  0  0  0  0  0  0  0  0
   -3.6143    1.2327    0.9317 H   0  0  0  0  0  0  0  0  0  0  0  0
   -3.6357   -0.7561    0.0767 C   0  0  0  0  0  0  0  0  0  0  0  0
   -4.5558   -1.0934    0.6131 H   0  0  0  0  0  0  0  0  0  0  0  0
   -3.6159   -1.2376   -0.9300 H   0  0  0  0  0  0  0  0  0  0  0  0
   -2.1682   -2.4350    0.9484 C   0  0  0  0  0  0  0  0  0  0  0  0
   -2.1731   -2.9590   -0.0382 H   0  0  0  0  0  0  0  0  0  0  0  0
   -2.9160   -2.9517    1.5993 H   0  0  0  0  0  0  0  0  0  0  0  0
   -0.8066   -2.4966    1.6157 C   0  0  0  0  0  0  0  0  0  0  0  0
   -0.8458   -1.8696    2.5286 H   0  0  0  0  0  0  0  0  0  0  0  0
   -0.5724   -3.5468    1.9093 H   0  0  0  0  0  0  0  0  0  0  0  0
    0.4610    2.7736    0.4763 C   0  0  0  0  0  0  0  0  0  0  0  0
    0.1454    3.8264    0.3225 H   0  0  0  0  0  0  0  0  0  0  0  0
    1.5445    2.7871    0.7144 H   0  0  0  0  0  0  0  0  0  0  0  0
    1.5254   -1.7933    1.5370 C   0  0  0  0  0  0  0  0  0  0  0  0
    1.9849   -2.7743    1.7973 H   0  0  0  0  0  0  0  0  0  0  0  0
    1.2475   -1.2730    2.4783 H   0  0  0  0  0  0  0  0  0  0  0  0
    0.4668   -2.7741   -0.4755 C   0  0  0  0  0  0  0  0  0  0  0  0
    0.1537   -3.8274   -0.3204 H   0  0  0  0  0  0  0  0  0  0  0  0
    1.5501   -2.7853   -0.7147 H   0  0  0  0  0  0  0  0  0  0  0  0
   -0.2448   -2.1799   -1.7216 C   0  0  0  0  0  0  0  0  0  0  0  0
   -0.2478    2.1771    1.7228 C   0  0  0  0  0  0  0  0  0  0  0  0
  2 27  1  0  0  0  0
  3  1  1  1  0  0  0
  3  6  1  0  0  0  0
  3 42  1  0  0  0  0
  4 42  1  0  0  0  0
  4 36  1  0  0  0  0
  5 33  1  0  0  0  0
  6  7  1  0  0  0  0
  8 39  1  0  0  0  0
 10  6  2  0  0  0  0
 11 10  1  0  0  0  0
 12 49  1  0  0  0  0
 13 16  2  0  0  0  0
 13 10  1  0  0  0  0
 14 13  1  0  0  0  0
 15 48  2  0  0  0  0
 16  1  1  0  0  0  0
 18  8  1  0  0  0  0
 18 16  1  0  0  0  0
 19 18  1  0  0  0  0
 20 18  1  0  0  0  0
 21 24  1  0  0  0  0
 21  8  1  0  0  0  0
 22 21  1  0  0  0  0
 23 21  1  0  0  0  0
 24  2  1  0  0  0  0
 24 25  1  0  0  0  0
 26 24  1  0  0  0  0
 27 30  1  0  0  0  0
 27 29  1  0  0  0  0
 28 27  1  0  0  0  0
 30 31  1  0  0  0  0
 30  5  1  0  0  0  0
 32 30  1  0  0  0  0
 33 35  1  0  0  0  0
 33 36  1  0  0  0  0
 34 33  1  0  0  0  0
 36 38  1  0  0  0  0
 36 37  1  0  0  0  0
 39 41  1  0  0  0  0
 39 49  1  0  0  0  0
 40 39  1  0  0  0  0
 42 43  1  0  0  0  0
 42 44  1  0  0  0  0
 45 46  1  0  0  0  0
 45  4  1  0  0  0  0
 47 45  1  0  0  0  0
 48  9  1  0  0  0  0
 48 45  1  0  0  0  0
 49 17  2  0  0  0  0
M  CHG  2   9  -1  12  -1
M  END
