1,6,10,14,19
 OpenBabel05122313063D

 55 54  0  0  0  0  0  0  0  0999 V2000
   -0.3451   -0.0666    1.5498 O   0  5  0  0  0  0  0  0  0  0  0  0
   -2.5889   -0.0102    2.2685 C   0  0  0  0  0  0  0  0  0  0  0  0
   -1.4945   -0.6369    1.4538 C   0  0  0  0  0  0  0  0  0  0  0  0
   -1.6737   -1.7967    0.6443 C   0  0  0  0  0  0  0  0  0  0  0  0
   -0.5101   -2.4649    0.1547 C   0  0  0  0  0  3  0  0  0  0  0  0
    0.7297   -2.0210    0.0909 N   0  0  0  0  0  2  0  0  0  0  0  0
    1.7547   -2.9862   -0.2711 C   0  0  0  0  0  0  0  0  0  0  0  0
    2.6887   -2.4563   -1.3508 C   0  0  0  0  0  0  0  0  0  0  0  0
    3.5354   -1.2970   -0.8515 C   0  0  0  0  0  0  0  0  0  0  0  0
    2.8171   -0.0038   -0.6970 N   0  0  0  0  0  0  0  0  0  0  0  0
    3.6989    0.8513    0.1646 C   0  0  0  0  0  0  0  0  0  0  0  0
    3.2753    2.3039    0.3357 C   0  0  0  0  0  0  0  0  0  0  0  0
    1.9146    2.4468    1.0140 C   0  0  0  0  0  0  0  0  0  0  0  0
    0.8921    1.7372    0.2680 N   0  0  0  0  0  2  0  0  0  0  0  0
   -0.2269    2.3643   -0.0537 C   0  0  0  0  0  3  0  0  0  0  0  0
   -1.3854    1.9020   -0.7395 C   0  0  0  0  0  0  0  0  0  0  0  0
   -1.3459    0.6756   -1.5332 C   0  0  0  0  0  0  0  0  0  0  0  0
   -2.5771    0.1595   -2.2460 C   0  0  0  0  0  0  0  0  0  0  0  0
   -0.2798    0.0221   -1.6700 O   0  5  0  0  0  0  0  0  0  0  0  0
   -3.0137   -2.3601    0.3817 C   0  0  0  0  0  0  0  0  0  0  0  0
   -3.1173   -3.6123   -0.4900 C   0  0  0  0  0  0  0  0  0  0  0  0
   -4.0509   -1.8371    0.8013 O   0  0  0  0  0  0  0  0  0  0  0  0
    2.6061    0.5979   -2.0332 C   0  0  0  0  0  0  0  0  0  0  0  0
   -2.6081    2.7228   -0.6466 C   0  0  0  0  0  0  0  0  0  0  0  0
   -2.5539    4.0664    0.0966 C   0  0  0  0  0  0  0  0  0  0  0  0
   -3.6987    2.3729   -1.1154 O   0  0  0  0  0  0  0  0  0  0  0  0
   -3.1977   -0.7599    2.8057 H   0  0  0  0  0  0  0  0  0  0  0  0
   -3.2933    0.5009    1.5797 H   0  0  0  0  0  0  0  0  0  0  0  0
   -2.1399    0.7305    2.9565 H   0  0  0  0  0  0  0  0  0  0  0  0
   -0.6573   -3.5094   -0.1812 H   0  0  0  0  0  0  0  0  0  0  0  0
    2.3583   -3.2388    0.6326 H   0  0  0  0  0  0  0  0  0  0  0  0
    1.2774   -3.9334   -0.6069 H   0  0  0  0  0  0  0  0  0  0  0  0
    3.3767   -3.2710   -1.6577 H   0  0  0  0  0  0  0  0  0  0  0  0
    2.1044   -2.1749   -2.2510 H   0  0  0  0  0  0  0  0  0  0  0  0
    4.4048   -1.1243   -1.5281 H   0  0  0  0  0  0  0  0  0  0  0  0
    3.9522   -1.5608    0.1425 H   0  0  0  0  0  0  0  0  0  0  0  0
    3.7209    0.3626    1.1603 H   0  0  0  0  0  0  0  0  0  0  0  0
    4.7269    0.8195   -0.2691 H   0  0  0  0  0  0  0  0  0  0  0  0
    4.0495    2.7917    0.9640 H   0  0  0  0  0  0  0  0  0  0  0  0
    3.2789    2.8391   -0.6370 H   0  0  0  0  0  0  0  0  0  0  0  0
    1.6467    3.5232    1.1107 H   0  0  0  0  0  0  0  0  0  0  0  0
    1.9832    2.0203    2.0391 H   0  0  0  0  0  0  0  0  0  0  0  0
   -0.2686    3.4121    0.3033 H   0  0  0  0  0  0  0  0  0  0  0  0
   -3.0202    0.9269   -2.9089 H   0  0  0  0  0  0  0  0  0  0  0  0
   -3.3795   -0.0832   -1.5215 H   0  0  0  0  0  0  0  0  0  0  0  0
   -2.2820   -0.7407   -2.8184 H   0  0  0  0  0  0  0  0  0  0  0  0
   -2.6736   -3.4433   -1.4928 H   0  0  0  0  0  0  0  0  0  0  0  0
   -4.1888   -3.8549   -0.6032 H   0  0  0  0  0  0  0  0  0  0  0  0
   -2.5984   -4.4826   -0.0366 H   0  0  0  0  0  0  0  0  0  0  0  0
    2.0378    1.5364   -1.9364 H   0  0  0  0  0  0  0  0  0  0  0  0
    1.9868   -0.0789   -2.6458 H   0  0  0  0  0  0  0  0  0  0  0  0
    3.5856    0.7852   -2.5300 H   0  0  0  0  0  0  0  0  0  0  0  0
   -2.3244    3.9322    1.1739 H   0  0  0  0  0  0  0  0  0  0  0  0
   -3.5514    4.5313    0.0013 H   0  0  0  0  0  0  0  0  0  0  0  0
   -1.7928    4.7564   -0.3231 H   0  0  0  0  0  0  0  0  0  0  0  0
  2 27  1  0  0  0  0
  2 29  1  0  0  0  0
  3  1  1  0  0  0  0
  3  2  1  0  0  0  0
  4  3  2  0  0  0  0
  5  4  1  0  0  0  0
  6  5  1  0  0  0  0
  7  6  1  0  0  0  0
  7 31  1  0  0  0  0
  8  9  1  0  0  0  0
  8  7  1  0  0  0  0
  9 10  1  0  0  0  0
  9 36  1  0  0  0  0
 10 11  1  0  0  0  0
 11 12  1  0  0  0  0
 11 37  1  0  0  0  0
 12 39  1  0  0  0  0
 12 13  1  0  0  0  0
 13 41  1  0  0  0  0
 13 42  1  0  0  0  0
 14 13  1  0  0  0  0
 15 14  1  0  0  0  0
 15 43  1  0  0  0  0
 16 24  1  0  0  0  0
 16 15  1  0  0  0  0
 17 16  2  0  0  0  0
 18 17  1  0  0  0  0
 18 45  1  0  0  0  0
 19 17  1  0  0  0  0
 20  4  1  0  0  0  0
 20 22  2  0  0  0  0
 21 49  1  0  0  0  0
 21 20  1  0  0  0  0
 23 50  1  0  0  0  0
 23 10  1  0  0  0  0
 24 25  1  0  0  0  0
 25 53  1  0  0  0  0
 26 24  2  0  0  0  0
 28  2  1  0  0  0  0
 30  5  1  0  0  0  0
 32  7  1  0  0  0  0
 33  8  1  0  0  0  0
 34  8  1  0  0  0  0
 35  9  1  0  0  0  0
 38 11  1  0  0  0  0
 40 12  1  0  0  0  0
 44 18  1  0  0  0  0
 46 18  1  0  0  0  0
 47 21  1  0  0  0  0
 48 21  1  0  0  0  0
 51 23  1  0  0  0  0
 52 23  1  0  0  0  0
 54 25  1  0  0  0  0
 55 25  1  0  0  0  0
M  CHG  2   1  -1  19  -1
M  END
