59,60,61,62,63
 OpenBabel05122313063D

 64 66  0  0  1  0  0  0  0  0999 V2000
   -0.8993   -2.0127   -0.6520 S   0  0  0  0  0  0  0  0  0  0  0  0
   -2.6594   -1.9348   -0.3075 C   0  0  0  0  0  0  0  0  0  0  0  0
   -3.3984   -3.1205   -0.3027 C   0  0  0  0  0  0  0  0  0  0  0  0
   -2.9154   -4.0410   -0.6617 H   0  0  0  0  0  0  0  0  0  0  0  0
   -4.7162   -3.1140    0.1800 C   0  0  0  0  0  0  0  0  0  0  0  0
   -5.3034   -4.0438    0.1883 H   0  0  0  0  0  0  0  0  0  0  0  0
   -5.2612   -1.9248    0.6886 C   0  0  0  0  0  0  0  0  0  0  0  0
   -6.2742   -1.9228    1.1180 H   0  0  0  0  0  0  0  0  0  0  0  0
   -4.5268   -0.7305    0.6633 C   0  0  0  0  0  0  0  0  0  0  0  0
   -4.9529    0.1811    1.1003 H   0  0  0  0  0  0  0  0  0  0  0  0
   -3.2204   -0.7016    0.1264 C   0  0  0  0  0  0  0  0  0  0  0  0
   -2.8767    1.6624   -0.2924 C   0  0  0  0  0  0  0  0  0  0  0  0
   -4.2880    2.0192   -0.6486 C   0  0  0  0  0  0  0  0  0  0  0  0
   -4.8600    2.3800    0.2329 H   0  0  0  0  0  0  0  0  0  0  0  0
   -4.8320    1.1511   -1.0664 H   0  0  0  0  0  0  0  0  0  0  0  0
   -4.2957    2.8329   -1.3991 H   0  0  0  0  0  0  0  0  0  0  0  0
   -1.8155    2.6516   -0.3840 C   0  0  0  0  0  0  0  0  0  0  0  0
   -1.9113    4.0417   -0.5956 C   0  0  0  0  0  0  0  0  0  0  0  0
   -2.8960    4.5162   -0.7045 H   0  0  0  0  0  0  0  0  0  0  0  0
   -0.7354    4.8095   -0.6270 C   0  0  0  0  0  0  0  0  0  0  0  0
   -0.7960    5.8965   -0.7799 H   0  0  0  0  0  0  0  0  0  0  0  0
    0.5162    4.1970   -0.4419 C   0  0  0  0  0  0  0  0  0  0  0  0
    1.4420    4.7884   -0.4398 H   0  0  0  0  0  0  0  0  0  0  0  0
    0.5713    2.8051   -0.2444 C   0  0  0  0  0  0  0  0  0  0  0  0
    1.7295    1.9421   -0.0776 C   0  0  2  0  0  3  0  0  0  0  0  0
    3.1250    2.4793   -0.0931 C   0  0  0  0  0  0  0  0  0  0  0  0
    3.8673    1.6620   -0.0601 H   0  0  0  0  0  0  0  0  0  0  0  0
    3.2830    3.1309    0.7929 H   0  0  0  0  0  0  0  0  0  0  0  0
    3.3107    3.1008   -0.9928 H   0  0  0  0  0  0  0  0  0  0  0  0
    2.3988   -0.3684    0.0168 C   0  0  0  0  0  0  0  0  0  0  0  0
    2.9294   -0.8892    1.2246 C   0  0  0  0  0  0  0  0  0  0  0  0
    3.8716   -1.9300    1.1388 C   0  0  0  0  0  0  0  0  0  0  0  0
    4.2928   -2.3442    2.0677 H   0  0  0  0  0  0  0  0  0  0  0  0
    4.2768   -2.4443   -0.0974 C   0  0  0  0  0  0  0  0  0  0  0  0
    5.0105   -3.2634   -0.1433 H   0  0  0  0  0  0  0  0  0  0  0  0
    3.7446   -1.9122   -1.2768 C   0  0  0  0  0  0  0  0  0  0  0  0
    4.0664   -2.3167   -2.2482 H   0  0  0  0  0  0  0  0  0  0  0  0
    2.7999   -0.8690   -1.2537 C   0  0  0  0  0  0  0  0  0  0  0  0
    2.5260   -0.3390    2.5834 C   0  0  0  0  0  0  0  0  0  0  0  0
    1.7800    0.4633    2.4212 H   0  0  0  0  0  0  0  0  0  0  0  0
    3.7283    0.2777    3.3180 C   0  0  0  0  0  0  0  0  0  0  0  0
    4.2130    1.0718    2.7129 H   0  0  0  0  0  0  0  0  0  0  0  0
    4.5041   -0.4813    3.5528 H   0  0  0  0  0  0  0  0  0  0  0  0
    3.4038    0.7307    4.2773 H   0  0  0  0  0  0  0  0  0  0  0  0
    1.8229   -1.4099    3.4328 C   0  0  0  0  0  0  0  0  0  0  0  0
    2.5050   -2.2511    3.6797 H   0  0  0  0  0  0  0  0  0  0  0  0
    0.9443   -1.8129    2.8944 H   0  0  0  0  0  0  0  0  0  0  0  0
    1.4657   -0.9673    4.3847 H   0  0  0  0  0  0  0  0  0  0  0  0
    2.2778   -0.3036   -2.5713 C   0  0  0  0  0  0  0  0  0  0  0  0
    1.4033    0.3329   -2.3376 H   0  0  0  0  0  0  0  0  0  0  0  0
    3.3442    0.5694   -3.2588 C   0  0  0  0  0  0  0  0  0  0  0  0
    2.9450    1.0097   -4.1960 H   0  0  0  0  0  0  0  0  0  0  0  0
    4.2387   -0.0321   -3.5240 H   0  0  0  0  0  0  0  0  0  0  0  0
    3.6861    1.3994   -2.6103 H   0  0  0  0  0  0  0  0  0  0  0  0
    1.7880   -1.4079   -3.5225 C   0  0  0  0  0  0  0  0  0  0  0  0
    2.6273   -2.0314   -3.8947 H   0  0  0  0  0  0  0  0  0  0  0  0
    1.2960   -0.9572   -4.4086 H   0  0  0  0  0  0  0  0  0  0  0  0
    1.0574   -2.0695   -3.0221 H   0  0  0  0  0  0  0  0  0  0  0  0
   -2.4247    0.4514    0.0316 N   0  0  0  0  0  2  0  0  0  0  0  0
   -0.5847    2.0714   -0.2454 N   0  0  0  0  0  2  0  0  0  0  0  0
    1.4042    0.6639    0.0722 N   0  0  0  0  0  2  0  0  0  0  0  0
   -0.3017   -1.6720    0.7203 O   0  0  0  0  0  1  0  0  0  0  0  0
   -0.5643   -0.7609   -1.4974 O   0  0  0  0  0  1  0  0  0  0  0  0
   -0.5754   -3.3120   -1.2546 O   0  0  0  0  0  1  0  0  0  0  0  0
  1  2  1  0  0  0  0
  1 62  1  0  0  0  0
  2  3  2  0  0  0  0
  2 11  1  0  0  0  0
  3  5  1  0  0  0  0
  4  3  1  0  0  0  0
  5  6  1  0  0  0  0
  5  7  2  0  0  0  0
  7  8  1  0  0  0  0
  9  7  1  0  0  0  0
  9 10  1  0  0  0  0
 11  9  2  0  0  0  0
 12 59  1  0  0  0  0
 13 12  1  0  0  0  0
 13 14  1  0  0  0  0
 15 13  1  0  0  0  0
 16 13  1  0  0  0  0
 17 12  2  0  0  0  0
 17 60  1  0  0  0  0
 18 17  1  0  0  0  0
 19 18  1  0  0  0  0
 20 18  2  0  0  0  0
 20 22  1  0  0  0  0
 21 20  1  0  0  0  0
 22 23  1  0  0  0  0
 22 24  2  0  0  0  0
 24 25  1  0  0  0  0
 25 61  1  6  0  0  0
 26 25  1  0  0  0  0
 26 27  1  0  0  0  0
 26 28  1  0  0  0  0
 29 26  1  0  0  0  0
 30 61  1  0  0  0  0
 30 31  1  0  0  0  0
 31 39  1  0  0  0  0
 32 31  2  0  0  0  0
 32 33  1  0  0  0  0
 34 32  1  0  0  0  0
 35 34  1  0  0  0  0
 36 38  1  0  0  0  0
 36 34  2  0  0  0  0
 37 36  1  0  0  0  0
 38 30  2  0  0  0  0
 39 41  1  0  0  0  0
 39 45  1  0  0  0  0
 40 39  1  0  0  0  0
 41 43  1  0  0  0  0
 41 44  1  0  0  0  0
 42 41  1  0  0  0  0
 45 46  1  0  0  0  0
 45 48  1  0  0  0  0
 47 45  1  0  0  0  0
 49 50  1  0  0  0  0
 49 38  1  0  0  0  0
 51 54  1  0  0  0  0
 51 49  1  0  0  0  0
 52 51  1  0  0  0  0
 53 51  1  0  0  0  0
 55 58  1  0  0  0  0
 55 49  1  0  0  0  0
 56 55  1  0  0  0  0
 57 55  1  0  0  0  0
 59 11  1  0  0  0  0
 60 24  1  0  0  0  0
 63  1  1  0  0  0  0
 64  1  1  0  0  0  0
M  END
