4,5,6,27,28
 OpenBabel05122313063D

 49 49  0  0  1  0  0  0  0  0999 V2000
    4.9948    0.4535    1.8017 F   0  0  0  0  0  0  0  0  0  0  0  0
    3.7817   -1.2517    2.4275 F   0  0  0  0  0  0  0  0  0  0  0  0
    4.4886   -1.1183    0.3686 F   0  0  0  0  0  0  0  0  0  0  0  0
    1.7896   -0.4860    0.6723 O   0  5  0  0  0  0  0  0  0  0  0  0
   -0.4139   -1.9058    0.1545 N   0  0  0  0  0  2  0  0  0  0  0  0
   -0.0000    0.0000   -1.6997 N   0  0  0  0  0  2  0  0  0  0  0  0
    2.7295    0.3363    1.0026 C   0  0  0  0  0  0  0  0  0  0  0  0
    4.0098   -0.3875    1.4133 C   0  0  0  0  0  0  0  0  0  0  0  0
   -1.5452   -2.4792    0.5603 C   0  0  2  0  0  3  0  0  0  0  0  0
   -1.7059   -3.9862    0.5676 C   0  0  0  0  0  0  0  0  0  0  0  0
    2.6767    1.7208    1.0016 C   0  0  0  0  0  0  0  0  0  0  0  0
    0.6102   -2.7519   -0.4630 C   0  0  0  0  0  0  0  0  0  0  0  0
    1.3777   -2.0521   -1.6072 C   0  0  0  0  0  0  0  0  0  0  0  0
    0.6143   -1.0189   -2.3922 C   0  0  2  0  0  3  0  0  0  0  0  0
    0.6004   -1.0396   -3.7930 C   0  0  0  0  0  0  0  0  0  0  0  0
   -0.0000    0.0000   -4.5142 C   0  0  0  0  0  0  0  0  0  0  0  0
   -0.8589   -4.4890    1.0763 H   0  0  0  0  0  0  0  0  0  0  0  0
   -2.6391   -4.2708    1.0860 H   0  0  0  0  0  0  0  0  0  0  0  0
   -1.7585   -4.3991   -0.4627 H   0  0  0  0  0  0  0  0  0  0  0  0
    3.5677    2.2696    1.3277 H   0  0  0  0  0  0  0  0  0  0  0  0
    0.1510   -3.6748   -0.8680 H   0  0  0  0  0  0  0  0  0  0  0  0
    1.3503   -3.0585    0.3079 H   0  0  0  0  0  0  0  0  0  0  0  0
    1.7463   -2.8254   -2.3092 H   0  0  0  0  0  0  0  0  0  0  0  0
    2.2702   -1.5543   -1.1816 H   0  0  0  0  0  0  0  0  0  0  0  0
    1.0921   -1.8766   -4.3095 H   0  0  0  0  0  0  0  0  0  0  0  0
   -0.0000    0.0000   -5.6137 H   0  0  0  0  0  0  0  0  0  0  0  0
   -1.7896    0.4860    0.6723 O   0  5  0  0  0  0  0  0  0  0  0  0
    0.4139    1.9058    0.1545 N   0  0  0  0  0  2  0  0  0  0  0  0
   -0.6143    1.0189   -2.3922 C   0  0  0  0  0  0  0  0  0  0  0  0
   -2.6767   -1.7208    1.0016 C   0  0  0  0  0  0  0  0  0  0  0  0
    1.5452    2.4792    0.5603 C   0  0  2  0  0  3  0  0  0  0  0  0
   -0.6005    1.0397   -3.7930 C   0  0  0  0  0  0  0  0  0  0  0  0
   -2.7295   -0.3363    1.0026 C   0  0  0  0  0  0  0  0  0  0  0  0
   -0.6103    2.7519   -0.4630 C   0  0  0  0  0  0  0  0  0  0  0  0
   -1.3777    2.0521   -1.6072 C   0  0  0  0  0  0  0  0  0  0  0  0
   -3.5677   -2.2696    1.3277 H   0  0  0  0  0  0  0  0  0  0  0  0
    1.7060    3.9862    0.5676 C   0  0  0  0  0  0  0  0  0  0  0  0
   -1.0921    1.8767   -4.3095 H   0  0  0  0  0  0  0  0  0  0  0  0
   -4.0098    0.3875    1.4133 C   0  0  0  0  0  0  0  0  0  0  0  0
   -0.1510    3.6748   -0.8680 H   0  0  0  0  0  0  0  0  0  0  0  0
   -1.3503    3.0584    0.3079 H   0  0  0  0  0  0  0  0  0  0  0  0
   -1.7463    2.8254   -2.3091 H   0  0  0  0  0  0  0  0  0  0  0  0
   -2.2702    1.5543   -1.1816 H   0  0  0  0  0  0  0  0  0  0  0  0
    0.8589    4.4890    1.0763 H   0  0  0  0  0  0  0  0  0  0  0  0
    2.6391    4.2708    1.0860 H   0  0  0  0  0  0  0  0  0  0  0  0
    1.7585    4.3991   -0.4628 H   0  0  0  0  0  0  0  0  0  0  0  0
   -4.9947   -0.4535    1.8017 F   0  0  0  0  0  0  0  0  0  0  0  0
   -3.7817    1.2517    2.4275 F   0  0  0  0  0  0  0  0  0  0  0  0
   -4.4886    1.1183    0.3686 F   0  0  0  0  0  0  0  0  0  0  0  0
  3  8  1  0  0  0  0
  4  7  1  0  0  0  0
  7  8  1  0  0  0  0
  8  1  1  0  0  0  0
  8  2  1  0  0  0  0
  9  5  1  6  0  0  0
  9 10  1  0  0  0  0
  9 30  1  0  0  0  0
 10 17  1  0  0  0  0
 10 18  1  0  0  0  0
 11  7  2  0  0  0  0
 11 20  1  0  0  0  0
 12  5  1  0  0  0  0
 12 22  1  0  0  0  0
 13 24  1  0  0  0  0
 13 12  1  0  0  0  0
 14  6  1  0  0  0  0
 14 13  1  6  0  0  0
 15 14  1  0  0  0  0
 16 15  2  0  0  0  0
 16 32  1  0  0  0  0
 19 10  1  0  0  0  0
 21 12  1  0  0  0  0
 23 13  1  0  0  0  0
 25 15  1  0  0  0  0
 26 16  1  0  0  0  0
 27 33  1  0  0  0  0
 29  6  1  0  0  0  0
 29 35  1  0  0  0  0
 30 33  2  0  0  0  0
 30 36  1  0  0  0  0
 31 28  1  6  0  0  0
 31 37  1  0  0  0  0
 31 11  1  0  0  0  0
 32 29  2  0  0  0  0
 33 39  1  0  0  0  0
 34 28  1  0  0  0  0
 34 41  1  0  0  0  0
 35 43  1  0  0  0  0
 35 34  1  0  0  0  0
 37 44  1  0  0  0  0
 37 45  1  0  0  0  0
 38 32  1  0  0  0  0
 39 47  1  0  0  0  0
 39 48  1  0  0  0  0
 40 34  1  0  0  0  0
 42 35  1  0  0  0  0
 46 37  1  0  0  0  0
 49 39  1  0  0  0  0
M  CHG  2   4  -1  27  -1
M  END
