1,10,11,15,19
 OpenBabel05122313063D

 71 71  0  0  1  0  0  0  0  0999 V2000
    1.3200    0.6668   -0.7126 O   0  5  0  0  0  0  0  0  0  0  0  0
    3.1962   -0.7470   -0.6233 N   0  0  0  0  0  0  0  0  0  0  0  0
    8.5626    6.3185    0.4190 C   0  0  0  0  0  0  0  0  0  0  0  0
    9.6455    6.1733    0.6079 H   0  0  0  0  0  0  0  0  0  0  0  0
    8.1922    7.0639    1.1538 H   0  0  0  0  0  0  0  0  0  0  0  0
    8.4571    6.7723   -0.5889 H   0  0  0  0  0  0  0  0  0  0  0  0
    7.7854    5.0056    0.5206 C   0  0  0  0  0  0  0  0  0  0  0  0
    8.2014    4.2669   -0.2006 H   0  0  0  0  0  0  0  0  0  0  0  0
    7.9387    4.5561    1.5272 H   0  0  0  0  0  0  0  0  0  0  0  0
    2.3331   -1.7569   -0.4849 N   0  0  0  0  0  2  0  0  0  0  0  0
   -1.7921    0.0817    0.8135 O   0  5  0  0  0  0  0  0  0  0  0  0
    6.2832    5.1617    0.2660 C   0  0  0  0  0  0  0  0  0  0  0  0
    6.1264    5.6102   -0.7417 H   0  0  0  0  0  0  0  0  0  0  0  0
    5.8630    5.9000    0.9868 H   0  0  0  0  0  0  0  0  0  0  0  0
    0.4372   -3.6118   -0.1705 N   0  0  0  0  0  2  0  0  0  0  0  0
    5.4959    3.8527    0.3643 C   0  0  0  0  0  0  0  0  0  0  0  0
    5.9245    3.1182   -0.3532 H   0  0  0  0  0  0  0  0  0  0  0  0
    5.6470    3.4057    1.3734 H   0  0  0  0  0  0  0  0  0  0  0  0
   -1.9494   -2.5076    0.3057 N   0  0  0  0  0  2  0  0  0  0  0  0
    3.9941    4.0165    0.1082 C   0  0  0  0  0  0  0  0  0  0  0  0
    3.8411    4.4400   -0.9110 H   0  0  0  0  0  0  0  0  0  0  0  0
    3.5924    4.7788    0.8119 H   0  0  0  0  0  0  0  0  0  0  0  0
   -3.0954   -1.8599    0.5571 N   0  0  0  0  0  0  0  0  0  0  0  0
    3.1703    2.7320    0.2501 C   0  0  0  0  0  0  0  0  0  0  0  0
    3.3062    2.3112    1.2713 H   0  0  0  0  0  0  0  0  0  0  0  0
    2.0896    2.9642    0.1560 H   0  0  0  0  0  0  0  0  0  0  0  0
    3.5095    1.6488   -0.7850 C   0  0  0  0  0  0  0  0  0  0  0  0
    4.5488    1.2803   -0.6876 H   0  0  0  0  0  0  0  0  0  0  0  0
    3.4069    2.0839   -1.8057 H   0  0  0  0  0  0  0  0  0  0  0  0
    2.5801    0.4587   -0.6986 C   0  0  0  0  0  0  0  0  0  0  0  0
    2.7351   -3.0051   -0.5726 C   0  0  0  0  0  0  0  0  0  0  0  0
    4.1597   -3.3842   -0.8508 C   0  0  0  0  0  0  0  0  0  0  0  0
    4.7661   -2.4610   -0.8899 H   0  0  0  0  0  0  0  0  0  0  0  0
    4.2560   -3.9194   -1.8192 H   0  0  0  0  0  0  0  0  0  0  0  0
    4.5624   -4.0559   -0.0642 H   0  0  0  0  0  0  0  0  0  0  0  0
    1.6911   -4.0399   -0.4030 C   0  0  0  0  0  0  0  0  0  0  0  0
    1.9535   -5.4298   -0.4897 C   0  0  0  0  0  0  0  0  0  0  0  0
    2.9709   -5.7987   -0.6753 H   0  0  0  0  0  0  0  0  0  0  0  0
    0.8828   -6.3210   -0.3364 C   0  0  0  0  0  0  0  0  0  0  0  0
    1.0612   -7.4051   -0.4027 H   0  0  0  0  0  0  0  0  0  0  0  0
   -0.4145   -5.8428   -0.1014 C   0  0  0  0  0  0  0  0  0  0  0  0
   -1.2576   -6.5363    0.0161 H   0  0  0  0  0  0  0  0  0  0  0  0
   -0.6085   -4.4426   -0.0196 C   0  0  0  0  0  0  0  0  0  0  0  0
   -1.9267   -3.8201    0.2460 C   0  0  1  0  0  3  0  0  0  0  0  0
   -3.1479   -4.6663    0.4540 C   0  0  0  0  0  0  0  0  0  0  0  0
   -4.0170   -3.9992    0.5988 H   0  0  0  0  0  0  0  0  0  0  0  0
   -3.0416   -5.3208    1.3449 H   0  0  0  0  0  0  0  0  0  0  0  0
   -3.3332   -5.3291   -0.4169 H   0  0  0  0  0  0  0  0  0  0  0  0
   -2.9094   -0.5377    0.7864 C   0  0  0  0  0  0  0  0  0  0  0  0
   -4.1768    0.2471    1.0530 C   0  0  0  0  0  0  0  0  0  0  0  0
   -4.1729    0.5299    2.1306 H   0  0  0  0  0  0  0  0  0  0  0  0
   -5.0450   -0.4232    0.8966 H   0  0  0  0  0  0  0  0  0  0  0  0
   -4.2811    1.5227    0.2085 C   0  0  0  0  0  0  0  0  0  0  0  0
   -4.3159    1.2450   -0.8685 H   0  0  0  0  0  0  0  0  0  0  0  0
   -3.3476    2.1097    0.3440 H   0  0  0  0  0  0  0  0  0  0  0  0
   -5.4976    2.3846    0.5502 C   0  0  0  0  0  0  0  0  0  0  0  0
   -6.4261    1.7801    0.4370 H   0  0  0  0  0  0  0  0  0  0  0  0
   -5.4565    2.6672    1.6269 H   0  0  0  0  0  0  0  0  0  0  0  0
   -5.6099    3.6508   -0.3028 C   0  0  0  0  0  0  0  0  0  0  0  0
   -5.6536    3.3657   -1.3786 H   0  0  0  0  0  0  0  0  0  0  0  0
   -4.6780    4.2503   -0.1925 H   0  0  0  0  0  0  0  0  0  0  0  0
   -6.8192    4.5250    0.0380 C   0  0  0  0  0  0  0  0  0  0  0  0
   -7.7506    3.9235   -0.0701 H   0  0  0  0  0  0  0  0  0  0  0  0
   -6.7748    4.8117    1.1135 H   0  0  0  0  0  0  0  0  0  0  0  0
   -6.9328    5.7904   -0.8177 C   0  0  0  0  0  0  0  0  0  0  0  0
   -6.0003    6.3880   -0.7083 H   0  0  0  0  0  0  0  0  0  0  0  0
   -6.9754    5.5005   -1.8914 H   0  0  0  0  0  0  0  0  0  0  0  0
   -8.1437    6.6567   -0.4696 C   0  0  0  0  0  0  0  0  0  0  0  0
   -8.1987    7.5637   -1.1050 H   0  0  0  0  0  0  0  0  0  0  0  0
   -8.1089    6.9915    0.5884 H   0  0  0  0  0  0  0  0  0  0  0  0
   -9.0925    6.0961   -0.6045 H   0  0  0  0  0  0  0  0  0  0  0  0
  1 30  1  0  0  0  0
  2 10  1  0  0  0  0
  3  7  1  0  0  0  0
  3  4  1  0  0  0  0
  3  5  1  0  0  0  0
  6  3  1  0  0  0  0
  7  9  1  0  0  0  0
  8  7  1  0  0  0  0
 12 16  1  0  0  0  0
 12  7  1  0  0  0  0
 12 14  1  0  0  0  0
 13 12  1  0  0  0  0
 15 43  1  0  0  0  0
 16 18  1  0  0  0  0
 17 16  1  0  0  0  0
 19 23  1  0  0  0  0
 20 24  1  0  0  0  0
 20 16  1  0  0  0  0
 20 22  1  0  0  0  0
 21 20  1  0  0  0  0
 23 49  2  0  0  0  0
 24 25  1  0  0  0  0
 26 24  1  0  0  0  0
 27 30  1  0  0  0  0
 27 28  1  0  0  0  0
 27 24  1  0  0  0  0
 29 27  1  0  0  0  0
 30  2  2  0  0  0  0
 31 10  1  0  0  0  0
 31 36  2  0  0  0  0
 32 31  1  0  0  0  0
 32 35  1  0  0  0  0
 33 32  1  0  0  0  0
 34 32  1  0  0  0  0
 36 15  1  0  0  0  0
 37 36  1  0  0  0  0
 37 39  2  0  0  0  0
 38 37  1  0  0  0  0
 39 41  1  0  0  0  0
 40 39  1  0  0  0  0
 41 43  2  0  0  0  0
 41 42  1  0  0  0  0
 43 44  1  0  0  0  0
 44 19  1  1  0  0  0
 44 45  1  0  0  0  0
 45 46  1  0  0  0  0
 45 47  1  0  0  0  0
 48 45  1  0  0  0  0
 49 11  1  0  0  0  0
 49 50  1  0  0  0  0
 50 51  1  0  0  0  0
 52 50  1  0  0  0  0
 53 55  1  0  0  0  0
 53 56  1  0  0  0  0
 53 50  1  0  0  0  0
 54 53  1  0  0  0  0
 56 58  1  0  0  0  0
 57 56  1  0  0  0  0
 59 61  1  0  0  0  0
 59 62  1  0  0  0  0
 59 56  1  0  0  0  0
 60 59  1  0  0  0  0
 62 64  1  0  0  0  0
 63 62  1  0  0  0  0
 65 66  1  0  0  0  0
 65 68  1  0  0  0  0
 65 62  1  0  0  0  0
 67 65  1  0  0  0  0
 68 70  1  0  0  0  0
 69 68  1  0  0  0  0
 71 68  1  0  0  0  0
M  CHG  2   1  -1  11  -1
M  END
