1,2
 OpenBabel05122313053D

 16 16  0  0  0  0  0  0  0  0999 V2000
    2.1550    0.0639    0.1720 C   0  0  0  0  0  3  0  0  0  0  0  0
    1.2311   -2.3525   -0.2187 N   0  0  0  0  0  0  0  0  0  0  0  0
    1.4331   -2.6970    0.7331 H   0  0  0  0  0  0  0  0  0  0  0  0
    0.6791   -3.0847   -0.6887 H   0  0  0  0  0  0  0  0  0  0  0  0
    2.5253   -2.1107   -0.9389 C   0  0  0  0  0  0  0  0  0  0  0  0
    3.2009   -2.9876   -0.8535 H   0  0  0  0  0  0  0  0  0  0  0  0
    2.2787   -1.9769   -2.0130 H   0  0  0  0  0  0  0  0  0  0  0  0
    3.1039   -0.8611   -0.3386 C   0  0  0  0  0  0  0  0  0  0  0  0
    3.9966    1.4318    1.0023 C   0  0  0  0  0  0  0  0  0  0  0  0
    4.3448    2.3168    1.5565 H   0  0  0  0  0  0  0  0  0  0  0  0
    2.6155    1.1874    0.8814 C   0  0  0  0  0  0  0  0  0  0  0  0
    1.9110    1.8771    1.3711 H   0  0  0  0  0  0  0  0  0  0  0  0
    4.4808   -0.6133   -0.2156 C   0  0  0  0  0  0  0  0  0  0  0  0
    5.2095   -1.3349   -0.6174 H   0  0  0  0  0  0  0  0  0  0  0  0
    4.9267    0.5462    0.4380 C   0  0  0  0  0  0  0  0  0  0  0  0
    6.0046    0.7422    0.5341 H   0  0  0  0  0  0  0  0  0  0  0  0
  1 11  1  0  0  0  0
  2  3  1  0  0  0  0
  4  2  1  0  0  0  0
  5  6  1  0  0  0  0
  5  8  1  0  0  0  0
  5  2  1  0  0  0  0
  7  5  1  0  0  0  0
  8 13  1  0  0  0  0
  8  1  2  0  0  0  0
  9 10  1  0  0  0  0
 11  9  2  0  0  0  0
 11 12  1  0  0  0  0
 13 15  2  0  0  0  0
 14 13  1  0  0  0  0
 15 16  1  0  0  0  0
 15  9  1  0  0  0  0
M  END
