3,20
 OpenBabel05122313053D

 33 34  0  0  0  0  0  0  0  0999 V2000
   -2.5819   -0.9266   -0.3900 O   0  0  0  0  0  0  0  0  0  0  0  0
   -2.6129   -0.8808   -1.3671 H   0  0  0  0  0  0  0  0  0  0  0  0
   -0.5382    0.8326   -0.0300 N   0  0  0  0  0  2  0  0  0  0  0  0
   -1.7796    1.3676   -0.0558 C   0  0  0  0  0  0  0  0  0  0  0  0
   -1.9511    2.7541   -0.1631 C   0  0  0  0  0  0  0  0  0  0  0  0
   -2.9571    3.1924   -0.1889 H   0  0  0  0  0  0  0  0  0  0  0  0
   -0.8086    3.5659   -0.2277 C   0  0  0  0  0  0  0  0  0  0  0  0
   -0.9125    4.6574   -0.3172 H   0  0  0  0  0  0  0  0  0  0  0  0
    0.4668    2.9938   -0.1731 C   0  0  0  0  0  0  0  0  0  0  0  0
    1.3483    3.6372   -0.2191 H   0  0  0  0  0  0  0  0  0  0  0  0
    0.6107    1.5924   -0.0707 C   0  0  0  0  0  0  0  0  0  0  0  0
    1.8309    0.7781    0.0012 C   0  0  0  0  0  0  0  0  0  0  0  0
    3.1743    1.2670    0.0531 C   0  0  0  0  0  3  0  0  0  0  0  0
    4.2187    0.3295    0.1414 C   0  0  0  0  0  0  0  0  0  0  0  0
    5.2545    0.7004    0.1847 H   0  0  0  0  0  0  0  0  0  0  0  0
    3.9746   -1.0511    0.1776 C   0  0  0  0  0  0  0  0  0  0  0  0
    4.8203   -1.7534    0.2475 H   0  0  0  0  0  0  0  0  0  0  0  0
    2.6640   -1.5443    0.1257 C   0  0  0  0  0  0  0  0  0  0  0  0
    2.4548   -2.6224    0.1469 H   0  0  0  0  0  0  0  0  0  0  0  0
    1.5942   -0.6421    0.0389 C   0  0  0  0  0  3  0  0  0  0  0  0
   -2.9388    0.3768    0.1480 C   0  0  0  0  0  0  0  0  0  0  0  0
   -3.1178    0.1428    1.6539 C   0  0  0  0  0  0  0  0  0  0  0  0
   -3.9200   -0.6017    1.8224 H   0  0  0  0  0  0  0  0  0  0  0  0
   -3.3800    1.0887    2.1649 H   0  0  0  0  0  0  0  0  0  0  0  0
   -2.1764   -0.2493    2.0876 H   0  0  0  0  0  0  0  0  0  0  0  0
   -4.2389    0.8359   -0.5144 C   0  0  0  0  0  0  0  0  0  0  0  0
   -4.0912    1.0436   -1.5943 H   0  0  0  0  0  0  0  0  0  0  0  0
   -4.6371    1.7544   -0.0424 H   0  0  0  0  0  0  0  0  0  0  0  0
   -5.0006    0.0404   -0.4033 H   0  0  0  0  0  0  0  0  0  0  0  0
    3.5477    2.7295    0.0265 C   0  0  0  0  0  0  0  0  0  0  0  0
    4.6451    2.8440    0.1094 H   0  0  0  0  0  0  0  0  0  0  0  0
    3.0928    3.2964    0.8654 H   0  0  0  0  0  0  0  0  0  0  0  0
    3.2376    3.2265   -0.9168 H   0  0  0  0  0  0  0  0  0  0  0  0
  1 21  1  0  0  0  0
  2  1  1  0  0  0  0
  4  3  1  0  0  0  0
  4 21  1  0  0  0  0
  5  4  2  0  0  0  0
  6  5  1  0  0  0  0
  7  9  2  0  0  0  0
  7  5  1  0  0  0  0
  8  7  1  0  0  0  0
  9 11  1  0  0  0  0
 10  9  1  0  0  0  0
 11  3  1  0  0  0  0
 11 12  2  0  0  0  0
 12 20  1  0  0  0  0
 12 13  1  0  0  0  0
 13 14  1  0  0  0  0
 14 16  2  0  0  0  0
 14 15  1  0  0  0  0
 16 17  1  0  0  0  0
 18 19  1  0  0  0  0
 18 16  1  0  0  0  0
 20 18  2  0  0  0  0
 21 22  1  0  0  0  0
 22 23  1  0  0  0  0
 22 25  1  0  0  0  0
 22 24  1  0  0  0  0
 26 29  1  0  0  0  0
 26 28  1  0  0  0  0
 26 21  1  0  0  0  0
 27 26  1  0  0  0  0
 30 13  1  0  0  0  0
 30 31  1  0  0  0  0
 30 32  1  0  0  0  0
 33 30  1  0  0  0  0
M  END
