2,3
 OpenBabel05122313053D

 23 25  0  0  1  0  0  0  0  0999 V2000
   -6.0241    0.0771    1.1190 O   0  0  0  0  0  0  0  0  0  0  0  0
   -1.9903    0.1825    0.4894 N   0  0  0  0  0  2  0  0  0  0  0  0
   -0.6189   -1.1562   -1.2867 C   0  0  0  0  0  3  0  0  0  0  0  0
    0.1726   -1.9083   -2.1820 C   0  0  0  0  0  0  0  0  0  0  0  0
    1.2665   -1.7868   -2.1713 H   0  0  0  0  0  0  0  0  0  0  0  0
   -0.4093   -2.8064   -3.0863 C   0  0  0  0  0  0  0  0  0  0  0  0
    0.2311   -3.3791   -3.7762 H   0  0  0  0  0  0  0  0  0  0  0  0
   -1.8064   -2.9859   -3.1195 C   0  0  0  0  0  0  0  0  0  0  0  0
   -2.2597   -3.6909   -3.8320 H   0  0  0  0  0  0  0  0  0  0  0  0
   -2.6157   -2.2687   -2.2349 C   0  0  0  0  0  0  0  0  0  0  0  0
   -3.7014   -2.4245   -2.2630 H   0  0  0  0  0  0  0  0  0  0  0  0
   -2.0404   -1.3614   -1.3144 C   0  0  0  0  0  0  0  0  0  0  0  0
   -2.7846   -0.6020   -0.3167 C   0  0  1  0  0  3  0  0  0  0  0  0
   -2.4894    0.9180    1.5166 C   0  0  0  0  0  0  0  0  0  0  0  0
   -1.7366    1.4787    2.0887 H   0  0  0  0  0  0  0  0  0  0  0  0
   -3.8447    0.9613    1.8345 C   0  0  0  0  0  0  0  0  0  0  0  0
   -4.2269    1.5614    2.6695 H   0  0  0  0  0  0  0  0  0  0  0  0
   -4.6712    0.1893    1.0127 C   0  0  0  0  0  0  0  0  0  0  0  0
   -4.1848   -0.5986   -0.0614 C   0  0  0  0  0  0  0  0  0  0  0  0
   -5.3625   -1.2207   -0.6274 C   0  0  0  0  0  0  0  0  0  0  0  0
   -5.4335   -1.9039   -1.4770 H   0  0  0  0  0  0  0  0  0  0  0  0
   -6.4212   -0.7772    0.1195 C   0  0  0  0  0  0  0  0  0  0  0  0
   -7.4975   -0.9713    0.0690 H   0  0  0  0  0  0  0  0  0  0  0  0
  2 14  1  0  0  0  0
  4  5  1  0  0  0  0
  4  3  2  0  0  0  0
  6  4  1  0  0  0  0
  7  6  1  0  0  0  0
  8  6  2  0  0  0  0
  8 10  1  0  0  0  0
  9  8  1  0  0  0  0
 10 12  2  0  0  0  0
 11 10  1  0  0  0  0
 12  3  1  0  0  0  0
 13 12  1  1  0  0  0
 13 19  1  0  0  0  0
 13  2  1  0  0  0  0
 14 16  2  0  0  0  0
 14 15  1  0  0  0  0
 16 17  1  0  0  0  0
 18  1  1  0  0  0  0
 18 16  1  0  0  0  0
 19 18  2  0  0  0  0
 20 19  1  0  0  0  0
 20 22  2  0  0  0  0
 21 20  1  0  0  0  0
 22  1  1  0  0  0  0
 23 22  1  0  0  0  0
M  END
