13,14
 OpenBabel05122313053D

 17 17  0  0  1  0  0  0  0  0999 V2000
   -0.5608    2.8535   -0.1919 C   0  0  2  0  0  3  0  0  0  0  0  0
   -2.0421    2.9934   -0.0081 C   0  0  0  0  0  0  0  0  0  0  0  0
   -2.5049    2.0183    0.2084 H   0  0  0  0  0  0  0  0  0  0  0  0
   -2.4920    3.3541   -0.9580 H   0  0  0  0  0  0  0  0  0  0  0  0
   -2.2956    3.7242    0.7830 H   0  0  0  0  0  0  0  0  0  0  0  0
    0.2724    3.9731   -0.0571 C   0  0  0  0  0  0  0  0  0  0  0  0
   -0.1537    4.9198    0.3019 H   0  0  0  0  0  0  0  0  0  0  0  0
    1.6273    3.8771   -0.4174 C   0  0  0  0  0  0  0  0  0  0  0  0
    2.2984    4.7411   -0.3014 H   0  0  0  0  0  0  0  0  0  0  0  0
    2.1044    2.6888   -0.9563 C   0  0  0  0  0  0  0  0  0  0  0  0
    3.1447    2.5724   -1.2876 H   0  0  0  0  0  0  0  0  0  0  0  0
    1.2158    1.5937   -1.0627 C   0  0  0  0  0  0  0  0  0  0  0  0
    0.6844   -0.6632   -1.8032 C   0  0  0  0  0  3  0  0  0  0  0  0
   -0.0675    1.6507   -0.5986 N   0  0  0  0  0  2  0  0  0  0  0  0
    1.5790    0.4281   -1.6676 N   0  0  0  0  0  0  0  0  0  0  0  0
    2.5297    0.3142   -2.0340 H   0  0  0  0  0  0  0  0  0  0  0  0
    1.0253   -1.6024   -2.5053 O   0  0  0  0  0  0  0  0  0  0  0  0
  1  6  1  0  0  0  0
  1  2  1  6  0  0  0
  2  3  1  0  0  0  0
  2  5  1  0  0  0  0
  4  2  1  0  0  0  0
  6  7  1  0  0  0  0
  8  9  1  0  0  0  0
  8  6  2  0  0  0  0
 10  8  1  0  0  0  0
 11 10  1  0  0  0  0
 12 10  2  0  0  0  0
 12 14  1  0  0  0  0
 13 15  1  0  0  0  0
 14  1  1  0  0  0  0
 15 12  1  0  0  0  0
 16 15  1  0  0  0  0
 17 13  2  0  0  0  0
M  END
