1,3
 OpenBabel05122313053D

 11 10  0  0  0  0  0  0  0  0999 V2000
    2.3653   -1.0759    0.3729 N   0  0  0  0  0  2  0  0  0  0  0  0
    2.3604   -1.8602    1.0343 H   0  0  0  0  0  0  0  0  0  0  0  0
    2.1389    0.7734   -1.3422 C   0  0  0  0  0  2  0  0  0  0  0  0
    1.9477    1.5309   -2.1280 H   0  0  0  0  0  0  0  0  0  0  0  0
    3.3631    0.1180   -1.3426 C   0  0  0  0  0  0  0  0  0  0  0  0
    4.1880    0.3216   -2.0430 H   0  0  0  0  0  0  0  0  0  0  0  0
    3.4554   -0.9304   -0.3676 C   0  0  0  0  0  0  0  0  0  0  0  0
    4.6456   -1.8314   -0.2210 C   0  0  0  0  0  0  0  0  0  0  0  0
    4.5055   -2.5730    0.5901 H   0  0  0  0  0  0  0  0  0  0  0  0
    5.5582   -1.2402    0.0008 H   0  0  0  0  0  0  0  0  0  0  0  0
    4.8413   -2.3796   -1.1665 H   0  0  0  0  0  0  0  0  0  0  0  0
  1  2  1  0  0  0  0
  4  3  1  0  0  0  0
  5  3  1  0  0  0  0
  5  7  2  0  0  0  0
  6  5  1  0  0  0  0
  7  8  1  0  0  0  0
  7  1  1  0  0  0  0
  8 10  1  0  0  0  0
  8  9  1  0  0  0  0
 11  8  1  0  0  0  0
M  END
