1,16
 OpenBabel05122313053D

 27 28  0  0  0  0  0  0  0  0999 V2000
    1.7036    0.8044   -0.9759 N   0  0  0  0  0  2  0  0  0  0  0  0
   -3.3744   -3.5360    0.3107 O   0  0  0  0  0  0  0  0  0  0  0  0
   -2.3561   -3.5304    0.4105 H   0  0  0  0  0  0  0  0  0  0  0  0
   -0.9323   -2.9539    0.1044 O   0  0  0  0  0  0  0  0  0  0  0  0
    2.6660    1.7258   -0.7599 C   0  0  0  0  0  3  0  0  0  0  0  0
    2.4722    2.4266    0.0653 H   0  0  0  0  0  0  0  0  0  0  0  0
    3.8403    1.7552   -1.5146 C   0  0  0  0  0  0  0  0  0  0  0  0
    4.6085    2.5081   -1.2934 H   0  0  0  0  0  0  0  0  0  0  0  0
    4.0143    0.8018   -2.5335 C   0  0  0  0  0  0  0  0  0  0  0  0
    4.9326    0.7960   -3.1392 H   0  0  0  0  0  0  0  0  0  0  0  0
    3.0179   -0.1509   -2.7578 C   0  0  0  0  0  0  0  0  0  0  0  0
    3.1305   -0.9247   -3.5298 H   0  0  0  0  0  0  0  0  0  0  0  0
    1.8584   -0.1551   -1.9567 C   0  0  0  0  0  0  0  0  0  0  0  0
    0.8039   -1.1424   -1.9882 C   0  0  0  0  0  0  0  0  0  0  0  0
    0.8460   -1.9710   -2.7111 H   0  0  0  0  0  0  0  0  0  0  0  0
   -0.1466   -1.0244   -1.0088 C   0  0  0  0  0  3  0  0  0  0  0  0
   -1.2038   -2.0096   -0.6855 C   0  0  0  0  0  0  0  0  0  0  0  0
   -2.5751   -1.7964   -1.1594 C   0  0  0  0  0  0  0  0  0  0  0  0
   -2.8879   -0.7922   -2.1077 C   0  0  0  0  0  0  0  0  0  0  0  0
   -2.0696   -0.1741   -2.5060 H   0  0  0  0  0  0  0  0  0  0  0  0
   -4.2085   -0.5613   -2.4915 C   0  0  0  0  0  0  0  0  0  0  0  0
   -4.4444    0.2180   -3.2311 H   0  0  0  0  0  0  0  0  0  0  0  0
   -5.2418   -1.3381   -1.9197 C   0  0  0  0  0  0  0  0  0  0  0  0
   -6.2869   -1.1584   -2.2176 H   0  0  0  0  0  0  0  0  0  0  0  0
   -4.9642   -2.3344   -0.9829 C   0  0  0  0  0  0  0  0  0  0  0  0
   -5.7606   -2.9445   -0.5328 H   0  0  0  0  0  0  0  0  0  0  0  0
   -3.6280   -2.5877   -0.5897 C   0  0  0  0  0  0  0  0  0  0  0  0
  1  5  1  0  0  0  0
  2  3  1  0  0  0  0
  5  6  1  0  0  0  0
  7  8  1  0  0  0  0
  7  5  1  0  0  0  0
  9  7  2  0  0  0  0
 10  9  1  0  0  0  0
 11  9  1  0  0  0  0
 11 13  2  0  0  0  0
 12 11  1  0  0  0  0
 13  1  1  0  0  0  0
 14 13  1  0  0  0  0
 14 16  2  0  0  0  0
 15 14  1  0  0  0  0
 16 17  1  0  0  0  0
 17  4  2  0  0  0  0
 18 17  1  0  0  0  0
 18 27  1  0  0  0  0
 19 18  2  0  0  0  0
 20 19  1  0  0  0  0
 21 19  1  0  0  0  0
 21 23  2  0  0  0  0
 22 21  1  0  0  0  0
 23 25  1  0  0  0  0
 24 23  1  0  0  0  0
 25 27  2  0  0  0  0
 25 26  1  0  0  0  0
 27  2  1  0  0  0  0
M  END
