1,4
 OpenBabel05122313053D

 25 25  0  0  0  0  0  0  0  0999 V2000
   -2.8443   -1.4677   -1.0113 N   0  0  0  0  0  0  0  0  0  0  0  0
   -3.2167   -0.9040   -1.7874 H   0  0  0  0  0  0  0  0  0  0  0  0
   -2.6848   -2.4275   -1.3573 H   0  0  0  0  0  0  0  0  0  0  0  0
   -1.8246    1.0059   -0.3945 C   0  0  0  0  0  3  0  0  0  0  0  0
   -2.9968    0.9909    0.4072 C   0  0  0  0  0  0  0  0  0  0  0  0
   -3.7953    2.1494    0.4935 C   0  0  0  0  0  0  0  0  0  0  0  0
   -4.6952    2.1371    1.1310 H   0  0  0  0  0  0  0  0  0  0  0  0
   -3.4555    3.3129   -0.2155 C   0  0  0  0  0  0  0  0  0  0  0  0
   -4.0852    4.2121   -0.1337 H   0  0  0  0  0  0  0  0  0  0  0  0
   -2.3139    3.3179   -1.0311 C   0  0  0  0  0  0  0  0  0  0  0  0
   -2.0418    4.2215   -1.5989 H   0  0  0  0  0  0  0  0  0  0  0  0
   -1.5049    2.1713   -1.1171 C   0  0  0  0  0  0  0  0  0  0  0  0
   -0.6015    2.1993   -1.7459 H   0  0  0  0  0  0  0  0  0  0  0  0
   -3.3702   -0.2879    1.1191 C   0  0  0  0  0  0  0  0  0  0  0  0
   -4.1999   -0.1188    1.8359 H   0  0  0  0  0  0  0  0  0  0  0  0
   -2.4934   -0.6441    1.7019 H   0  0  0  0  0  0  0  0  0  0  0  0
   -3.7857   -1.4449    0.1571 C   0  0  0  0  0  0  0  0  0  0  0  0
   -3.6478   -2.7855    0.8869 C   0  0  0  0  0  0  0  0  0  0  0  0
   -4.0260   -3.6236    0.2657 H   0  0  0  0  0  0  0  0  0  0  0  0
   -4.2261   -2.7705    1.8313 H   0  0  0  0  0  0  0  0  0  0  0  0
   -2.5831   -2.9830    1.1250 H   0  0  0  0  0  0  0  0  0  0  0  0
   -5.2169   -1.2276   -0.3536 C   0  0  0  0  0  0  0  0  0  0  0  0
   -5.3165   -0.2290   -0.8282 H   0  0  0  0  0  0  0  0  0  0  0  0
   -5.9434   -1.2783    0.4816 H   0  0  0  0  0  0  0  0  0  0  0  0
   -5.4971   -2.0029   -1.0960 H   0  0  0  0  0  0  0  0  0  0  0  0
  1 17  1  0  0  0  0
  2  1  1  0  0  0  0
  3  1  1  0  0  0  0
  4  5  1  0  0  0  0
  5  6  2  0  0  0  0
  5 14  1  0  0  0  0
  6  7  1  0  0  0  0
  8  9  1  0  0  0  0
  8  6  1  0  0  0  0
 10  8  2  0  0  0  0
 11 10  1  0  0  0  0
 12 10  1  0  0  0  0
 12  4  2  0  0  0  0
 13 12  1  0  0  0  0
 14 16  1  0  0  0  0
 14 15  1  0  0  0  0
 17 18  1  0  0  0  0
 17 14  1  0  0  0  0
 18 21  1  0  0  0  0
 18 20  1  0  0  0  0
 19 18  1  0  0  0  0
 22 17  1  0  0  0  0
 22 24  1  0  0  0  0
 23 22  1  0  0  0  0
 25 22  1  0  0  0  0
M  END
