1,28
 OpenBabel05122313053D

 41 42  0  0  0  0  0  0  0  0999 V2000
   -1.6243    0.7862    0.1008 N   0  0  0  0  0  2  0  0  0  0  0  0
   -3.2705   -0.8532    0.0219 N   0  0  0  0  0  0  0  0  0  0  0  0
   -2.3782   -2.9865   -0.2936 N   0  0  0  0  0  0  0  0  0  0  0  0
   -1.4931   -3.4938   -0.4496 H   0  0  0  0  0  0  0  0  0  0  0  0
   -1.1348    2.1088    0.1431 C   0  0  0  0  0  0  0  0  0  0  0  0
   -0.2571    2.4918    1.1821 C   0  0  0  0  0  0  0  0  0  0  0  0
    0.0038    1.7467    1.9478 H   0  0  0  0  0  0  0  0  0  0  0  0
    0.2520    3.7968    1.2322 C   0  0  0  0  0  0  0  0  0  0  0  0
    0.9193    4.0886    2.0579 H   0  0  0  0  0  0  0  0  0  0  0  0
   -0.0869    4.7304    0.2367 C   0  0  0  0  0  0  0  0  0  0  0  0
    0.3151    5.7539    0.2766 H   0  0  0  0  0  0  0  0  0  0  0  0
   -0.9384    4.3454   -0.8119 C   0  0  0  0  0  0  0  0  0  0  0  0
   -1.2021    5.0666   -1.6005 H   0  0  0  0  0  0  0  0  0  0  0  0
   -1.4576    3.0439   -0.8644 C   0  0  0  0  0  0  0  0  0  0  0  0
   -2.1262    2.7349   -1.6809 H   0  0  0  0  0  0  0  0  0  0  0  0
   -2.9215    0.4385    0.1732 C   0  0  0  0  0  0  0  0  0  0  0  0
   -4.0214    1.4085    0.4364 C   0  0  0  0  0  0  0  0  0  0  0  0
   -5.2748    1.1804   -0.1747 C   0  0  0  0  0  0  0  0  0  0  0  0
   -5.3873    0.3019   -0.8253 H   0  0  0  0  0  0  0  0  0  0  0  0
   -6.3458    2.0555    0.0452 C   0  0  0  0  0  0  0  0  0  0  0  0
   -7.3119    1.8710   -0.4487 H   0  0  0  0  0  0  0  0  0  0  0  0
   -6.1905    3.1590    0.9000 C   0  0  0  0  0  0  0  0  0  0  0  0
   -7.0335    3.8438    1.0788 H   0  0  0  0  0  0  0  0  0  0  0  0
   -4.9575    3.3779    1.5344 C   0  0  0  0  0  0  0  0  0  0  0  0
   -4.8332    4.2290    2.2209 H   0  0  0  0  0  0  0  0  0  0  0  0
   -3.8782    2.5148    1.3026 C   0  0  0  0  0  0  0  0  0  0  0  0
   -2.9237    2.6932    1.8149 H   0  0  0  0  0  0  0  0  0  0  0  0
   -2.2153   -1.6679   -0.1738 C   0  0  0  0  0  2  0  0  0  0  0  0
   -3.6344   -3.7782   -0.2538 C   0  0  0  0  0  0  0  0  0  0  0  0
   -4.5559   -3.3503   -1.4105 C   0  0  0  0  0  0  0  0  0  0  0  0
   -4.8271   -2.2833   -1.3051 H   0  0  0  0  0  0  0  0  0  0  0  0
   -5.4822   -3.9593   -1.4038 H   0  0  0  0  0  0  0  0  0  0  0  0
   -4.0499   -3.4928   -2.3864 H   0  0  0  0  0  0  0  0  0  0  0  0
   -4.3355   -3.5794    1.1022 C   0  0  0  0  0  0  0  0  0  0  0  0
   -3.6709   -3.8901    1.9332 H   0  0  0  0  0  0  0  0  0  0  0  0
   -5.2581   -4.1928    1.1443 H   0  0  0  0  0  0  0  0  0  0  0  0
   -4.6016   -2.5149    1.2413 H   0  0  0  0  0  0  0  0  0  0  0  0
   -3.2160   -5.2462   -0.4254 C   0  0  0  0  0  0  0  0  0  0  0  0
   -2.6930   -5.4021   -1.3913 H   0  0  0  0  0  0  0  0  0  0  0  0
   -4.1086   -5.9011   -0.4092 H   0  0  0  0  0  0  0  0  0  0  0  0
   -2.5403   -5.5662    0.3941 H   0  0  0  0  0  0  0  0  0  0  0  0
  1  5  1  0  0  0  0
  1 16  1  0  0  0  0
  2 16  2  0  0  0  0
  3 29  1  0  0  0  0
  3 28  1  0  0  0  0
  4  3  1  0  0  0  0
  5  6  1  0  0  0  0
  6  8  2  0  0  0  0
  6  7  1  0  0  0  0
  8  9  1  0  0  0  0
 10 11  1  0  0  0  0
 10  8  1  0  0  0  0
 12 10  2  0  0  0  0
 13 12  1  0  0  0  0
 14 12  1  0  0  0  0
 14  5  2  0  0  0  0
 15 14  1  0  0  0  0
 16 17  1  0  0  0  0
 17 26  1  0  0  0  0
 18 20  1  0  0  0  0
 18 17  2  0  0  0  0
 19 18  1  0  0  0  0
 20 22  2  0  0  0  0
 21 20  1  0  0  0  0
 22 23  1  0  0  0  0
 22 24  1  0  0  0  0
 24 25  1  0  0  0  0
 26 24  2  0  0  0  0
 26 27  1  0  0  0  0
 28  2  1  0  0  0  0
 29 34  1  0  0  0  0
 30 32  1  0  0  0  0
 30 31  1  0  0  0  0
 30 29  1  0  0  0  0
 33 30  1  0  0  0  0
 34 36  1  0  0  0  0
 34 37  1  0  0  0  0
 34 35  1  0  0  0  0
 38 40  1  0  0  0  0
 38 29  1  0  0  0  0
 38 41  1  0  0  0  0
 39 38  1  0  0  0  0
M  END
