1,2
 OpenBabel05122313053D

 16 16  0  0  1  0  0  0  0  0999 V2000
   -2.4321   -0.5433   -0.4012 N   0  0  0  0  0  2  0  0  0  0  0  0
   -0.3998   -2.1890   -1.0707 C   0  0  0  0  0  3  0  0  0  0  0  0
   -0.4567   -2.0858   -2.1766 H   0  0  0  0  0  0  0  0  0  0  0  0
    0.4564   -2.8582   -0.8606 H   0  0  0  0  0  0  0  0  0  0  0  0
   -1.6965   -2.8401   -0.5626 C   0  0  0  0  0  0  0  0  0  0  0  0
   -1.9898   -3.7447   -1.1376 H   0  0  0  0  0  0  0  0  0  0  0  0
   -1.5585   -3.1812    0.4892 H   0  0  0  0  0  0  0  0  0  0  0  0
   -2.8149   -1.8407   -0.5747 C   0  0  2  0  0  3  0  0  0  0  0  0
   -4.1712   -2.1601   -0.7512 C   0  0  0  0  0  0  0  0  0  0  0  0
   -4.4584   -3.2108   -0.8993 H   0  0  0  0  0  0  0  0  0  0  0  0
   -5.1330   -1.1429   -0.7450 C   0  0  0  0  0  0  0  0  0  0  0  0
   -6.1978   -1.3820   -0.8845 H   0  0  0  0  0  0  0  0  0  0  0  0
   -4.7161    0.1851   -0.5698 C   0  0  0  0  0  0  0  0  0  0  0  0
   -5.4327    1.0181   -0.5673 H   0  0  0  0  0  0  0  0  0  0  0  0
   -3.3537    0.4446   -0.4058 C   0  0  0  0  0  0  0  0  0  0  0  0
   -2.9743    1.4676   -0.2790 H   0  0  0  0  0  0  0  0  0  0  0  0
  2  4  1  0  0  0  0
  2  5  1  0  0  0  0
  3  2  1  0  0  0  0
  5  7  1  0  0  0  0
  6  5  1  0  0  0  0
  8  5  1  6  0  0  0
  8  1  1  0  0  0  0
  9 11  2  0  0  0  0
  9  8  1  0  0  0  0
 10  9  1  0  0  0  0
 11 13  1  0  0  0  0
 12 11  1  0  0  0  0
 13 14  1  0  0  0  0
 13 15  2  0  0  0  0
 15  1  1  0  0  0  0
 15 16  1  0  0  0  0
M  END
