1,11
 OpenBabel05122313053D

 23 24  0  0  0  0  0  0  0  0999 V2000
   -2.0152    0.6118    0.1457 N   0  0  0  0  0  2  0  0  0  0  0  0
   -2.5043    1.7583    0.6707 C   0  0  0  0  0  3  0  0  0  0  0  0
   -1.7640    2.5397    0.8897 H   0  0  0  0  0  0  0  0  0  0  0  0
   -3.8584    1.9528    0.9257 C   0  0  0  0  0  0  0  0  0  0  0  0
   -4.1937    2.9085    1.3539 H   0  0  0  0  0  0  0  0  0  0  0  0
   -4.7770    0.9231    0.6259 C   0  0  0  0  0  0  0  0  0  0  0  0
   -4.2610   -0.2620    0.0847 C   0  0  0  0  0  0  0  0  0  0  0  0
   -4.9324   -1.0915   -0.1632 H   0  0  0  0  0  0  0  0  0  0  0  0
   -2.8791   -0.4204   -0.1545 C   0  0  0  0  0  0  0  0  0  0  0  0
   -2.2129   -1.6003   -0.6942 C   0  0  0  0  0  0  0  0  0  0  0  0
   -0.7869   -1.4967   -0.8260 C   0  0  0  0  0  3  0  0  0  0  0  0
   -0.0615   -2.5991   -1.3148 C   0  0  0  0  0  0  0  0  0  0  0  0
    1.0311   -2.5729   -1.4256 H   0  0  0  0  0  0  0  0  0  0  0  0
   -0.7372   -3.7681   -1.6765 C   0  0  0  0  0  0  0  0  0  0  0  0
   -2.1292   -3.8995   -1.5695 C   0  0  0  0  0  0  0  0  0  0  0  0
   -2.6444   -4.8236   -1.8593 H   0  0  0  0  0  0  0  0  0  0  0  0
   -2.8409   -2.8067   -1.0768 C   0  0  0  0  0  0  0  0  0  0  0  0
   -6.2502    1.1004    0.8719 C   0  0  0  0  0  0  0  0  0  0  0  0
   -6.4477    1.3875    1.9252 H   0  0  0  0  0  0  0  0  0  0  0  0
   -6.8164    0.1760    0.6514 H   0  0  0  0  0  0  0  0  0  0  0  0
   -6.6599    1.9136    0.2366 H   0  0  0  0  0  0  0  0  0  0  0  0
   -4.1845   -2.9449   -0.9737 F   0  0  0  0  0  0  0  0  0  0  0  0
   -0.0343   -4.8162   -2.1449 F   0  0  0  0  0  0  0  0  0  0  0  0
  1  2  1  0  0  0  0
  2  3  1  0  0  0  0
  2  4  1  0  0  0  0
  4  5  1  0  0  0  0
  6 18  1  0  0  0  0
  6  4  2  0  0  0  0
  7  6  1  0  0  0  0
  8  7  1  0  0  0  0
  9  7  2  0  0  0  0
  9  1  1  0  0  0  0
 10  9  1  0  0  0  0
 11 10  1  0  0  0  0
 12 11  2  0  0  0  0
 13 12  1  0  0  0  0
 14 15  2  0  0  0  0
 14 12  1  0  0  0  0
 15 17  1  0  0  0  0
 16 15  1  0  0  0  0
 17 22  1  0  0  0  0
 17 10  2  0  0  0  0
 18 19  1  0  0  0  0
 20 18  1  0  0  0  0
 21 18  1  0  0  0  0
 23 14  1  0  0  0  0
M  END
