2
 OpenBabel05122313053D

 38 39  0  0  1  0  0  0  0  0999 V2000
   -1.2943    1.7953    0.4872 Si  0  0  0  0  0  0  0  0  0  0  0  0
   -1.4869    0.1896   -0.2486 N   0  0  0  0  0  2  0  0  0  0  0  0
    0.4347    1.4013    1.1349 C   0  0  1  0  0  3  0  0  0  0  0  0
    0.6105    0.4752    2.2193 C   0  0  0  0  0  0  0  0  0  0  0  0
   -0.1421    0.2683    2.9933 H   0  0  0  0  0  0  0  0  0  0  0  0
    1.8238   -0.2465    2.0683 C   0  0  0  0  0  0  0  0  0  0  0  0
    2.2030   -1.0280    2.7385 H   0  0  0  0  0  0  0  0  0  0  0  0
    2.5040    0.2819    0.9143 C   0  0  0  0  0  0  0  0  0  0  0  0
    3.7590   -0.0277    0.3152 C   0  0  0  0  0  0  0  0  0  0  0  0
    4.4099   -0.7940    0.7615 H   0  0  0  0  0  0  0  0  0  0  0  0
    4.1355    0.6543   -0.8310 C   0  0  0  0  0  0  0  0  0  0  0  0
    5.1024    0.4301   -1.3056 H   0  0  0  0  0  0  0  0  0  0  0  0
    3.2900    1.6442   -1.4145 C   0  0  0  0  0  0  0  0  0  0  0  0
    3.6251    2.1622   -2.3254 H   0  0  0  0  0  0  0  0  0  0  0  0
    2.0603    1.9654   -0.8598 C   0  0  0  0  0  0  0  0  0  0  0  0
    1.4236    2.7371   -1.3136 H   0  0  0  0  0  0  0  0  0  0  0  0
    1.6432    1.3026    0.3332 C   0  0  0  0  0  0  0  0  0  0  0  0
   -2.4830    2.1527    1.9079 C   0  0  0  0  0  0  0  0  0  0  0  0
   -3.5145    2.3166    1.5349 H   0  0  0  0  0  0  0  0  0  0  0  0
   -2.1679    3.0714    2.4451 H   0  0  0  0  0  0  0  0  0  0  0  0
   -2.5143    1.3166    2.6345 H   0  0  0  0  0  0  0  0  0  0  0  0
   -1.3065    3.2411   -0.7285 C   0  0  0  0  0  0  0  0  0  0  0  0
   -2.3403    3.5673   -0.9584 H   0  0  0  0  0  0  0  0  0  0  0  0
   -0.8155    2.9730   -1.6844 H   0  0  0  0  0  0  0  0  0  0  0  0
   -0.7683    4.1057   -0.2873 H   0  0  0  0  0  0  0  0  0  0  0  0
   -2.6844   -0.3719   -0.9234 C   0  0  0  0  0  0  0  0  0  0  0  0
   -3.3404    0.6924   -1.8208 C   0  0  0  0  0  0  0  0  0  0  0  0
   -3.7127    1.5494   -1.2224 H   0  0  0  0  0  0  0  0  0  0  0  0
   -4.2084    0.2648   -2.3623 H   0  0  0  0  0  0  0  0  0  0  0  0
   -2.6189    1.0762   -2.5691 H   0  0  0  0  0  0  0  0  0  0  0  0
   -3.6885   -0.8458    0.1473 C   0  0  0  0  0  0  0  0  0  0  0  0
   -4.0158   -0.0017    0.7859 H   0  0  0  0  0  0  0  0  0  0  0  0
   -3.2233   -1.6123    0.7988 H   0  0  0  0  0  0  0  0  0  0  0  0
   -4.5898   -1.2879   -0.3247 H   0  0  0  0  0  0  0  0  0  0  0  0
   -2.2673   -1.5728   -1.7935 C   0  0  0  0  0  0  0  0  0  0  0  0
   -1.5539   -1.2677   -2.5836 H   0  0  0  0  0  0  0  0  0  0  0  0
   -3.1520   -2.0323   -2.2780 H   0  0  0  0  0  0  0  0  0  0  0  0
   -1.7932   -2.3692   -1.1794 H   0  0  0  0  0  0  0  0  0  0  0  0
  1 18  1  0  0  0  0
  2  1  1  0  0  0  0
  3  1  1  6  0  0  0
  3  4  1  0  0  0  0
  4  5  1  0  0  0  0
  6  4  2  0  0  0  0
  6  7  1  0  0  0  0
  8  6  1  0  0  0  0
  9 10  1  0  0  0  0
  9  8  2  0  0  0  0
 11  9  1  0  0  0  0
 12 11  1  0  0  0  0
 13 15  1  0  0  0  0
 13 11  2  0  0  0  0
 14 13  1  0  0  0  0
 15 17  2  0  0  0  0
 16 15  1  0  0  0  0
 17  8  1  0  0  0  0
 17  3  1  0  0  0  0
 18 20  1  0  0  0  0
 18 21  1  0  0  0  0
 19 18  1  0  0  0  0
 22 25  1  0  0  0  0
 22  1  1  0  0  0  0
 23 22  1  0  0  0  0
 24 22  1  0  0  0  0
 26  2  1  0  0  0  0
 26 31  1  0  0  0  0
 27 28  1  0  0  0  0
 27 26  1  0  0  0  0
 29 27  1  0  0  0  0
 30 27  1  0  0  0  0
 31 32  1  0  0  0  0
 31 33  1  0  0  0  0
 34 31  1  0  0  0  0
 35 38  1  0  0  0  0
 35 26  1  0  0  0  0
 36 35  1  0  0  0  0
 37 35  1  0  0  0  0
M  END
