1,2
 OpenBabel05122313053D

 29 30  0  0  0  0  0  0  0  0999 V2000
    0.3754    2.7298    0.7217 N   0  0  0  0  0  0  0  0  0  0  0  0
    1.0549    0.0357    1.4470 C   0  0  0  0  0  3  0  0  0  0  0  0
    0.8686   -0.9228    2.4611 C   0  0  0  0  0  0  0  0  0  0  0  0
   -0.1191   -1.3867    2.5927 H   0  0  0  0  0  0  0  0  0  0  0  0
    1.9144   -1.3162    3.3150 C   0  0  0  0  0  0  0  0  0  0  0  0
    1.7270   -2.0659    4.1003 H   0  0  0  0  0  0  0  0  0  0  0  0
    3.1905   -0.7587    3.1597 C   0  0  0  0  0  0  0  0  0  0  0  0
    4.0187   -1.0580    3.8198 H   0  0  0  0  0  0  0  0  0  0  0  0
    3.3975    0.2100    2.1675 C   0  0  0  0  0  0  0  0  0  0  0  0
    4.3860    0.6861    2.0732 H   0  0  0  0  0  0  0  0  0  0  0  0
    2.3494    0.6254    1.3151 C   0  0  0  0  0  0  0  0  0  0  0  0
    2.6125    1.6994    0.3188 C   0  0  0  0  0  0  0  0  0  0  0  0
    3.8428    1.7313   -0.3684 C   0  0  0  0  0  0  0  0  0  0  0  0
    4.5754    0.9411   -0.1542 H   0  0  0  0  0  0  0  0  0  0  0  0
    4.1308    2.6950   -1.3440 C   0  0  0  0  0  0  0  0  0  0  0  0
    5.0952    2.6724   -1.8733 H   0  0  0  0  0  0  0  0  0  0  0  0
    3.1714    3.6661   -1.6504 C   0  0  0  0  0  0  0  0  0  0  0  0
    3.3671    4.4248   -2.4229 H   0  0  0  0  0  0  0  0  0  0  0  0
    1.9462    3.6778   -0.9663 C   0  0  0  0  0  0  0  0  0  0  0  0
    1.2091    4.4499   -1.2143 H   0  0  0  0  0  0  0  0  0  0  0  0
    1.6540    2.7135    0.0147 C   0  0  0  0  0  0  0  0  0  0  0  0
   -0.5754    3.7565    0.2484 C   0  0  0  0  0  0  0  0  0  0  0  0
   -1.5212    3.6236    0.8038 H   0  0  0  0  0  0  0  0  0  0  0  0
   -0.7988    3.6060   -0.8217 H   0  0  0  0  0  0  0  0  0  0  0  0
   -0.1803    4.7782    0.4454 H   0  0  0  0  0  0  0  0  0  0  0  0
    0.5404    2.9315    2.1874 C   0  0  0  0  0  0  0  0  0  0  0  0
    1.2652    2.2196    2.6110 H   0  0  0  0  0  0  0  0  0  0  0  0
   -0.4382    2.7706    2.6764 H   0  0  0  0  0  0  0  0  0  0  0  0
    0.8857    3.9705    2.3835 H   0  0  0  0  0  0  0  0  0  0  0  0
  1 26  1  0  0  0  0
  2  3  1  0  0  0  0
  3  4  1  0  0  0  0
  3  5  2  0  0  0  0
  5  6  1  0  0  0  0
  7  5  1  0  0  0  0
  7  8  1  0  0  0  0
  9  7  2  0  0  0  0
 10  9  1  0  0  0  0
 11  2  2  0  0  0  0
 11  9  1  0  0  0  0
 12 11  1  0  0  0  0
 13 14  1  0  0  0  0
 13 12  2  0  0  0  0
 15 13  1  0  0  0  0
 16 15  1  0  0  0  0
 17 15  2  0  0  0  0
 17 19  1  0  0  0  0
 18 17  1  0  0  0  0
 19 21  2  0  0  0  0
 20 19  1  0  0  0  0
 21 12  1  0  0  0  0
 21  1  1  0  0  0  0
 22 25  1  0  0  0  0
 22  1  1  0  0  0  0
 22 23  1  0  0  0  0
 24 22  1  0  0  0  0
 26 29  1  0  0  0  0
 26 27  1  0  0  0  0
 26 28  1  0  0  0  0
M  END
