1,4
 OpenBabel05122313053D

 27 29  0  0  1  0  0  0  0  0999 V2000
   -1.1660    1.4277    0.2882 N   0  0  0  0  0  2  0  0  0  0  0  0
   -0.2292    3.5181   -0.3979 N   0  0  0  0  0  0  0  0  0  0  0  0
    1.0363    1.6140   -0.5632 N   0  0  0  0  0  0  0  0  0  0  0  0
    0.8074   -0.7194    0.1815 C   0  0  0  0  0  3  0  0  0  0  0  0
    1.4363   -1.9030    0.6526 C   0  0  0  0  0  0  0  0  0  0  0  0
    2.8155   -2.0011    0.7166 C   0  0  0  0  0  3  0  0  0  0  0  0
    3.6460   -0.9153    0.3209 C   0  0  0  0  0  0  0  0  0  0  0  0
    5.0674   -1.0093    0.3613 C   0  0  0  0  0  0  0  0  0  0  0  0
    5.8694    0.0618    0.0000 C   0  0  0  0  0  0  0  0  0  0  0  0
    5.2717    1.2810   -0.4083 C   0  0  0  0  0  0  0  0  0  0  0  0
    3.8895    1.4048   -0.4580 C   0  0  0  0  0  3  0  0  0  0  0  0
    3.0353    0.3154   -0.1150 C   0  0  0  0  0  0  0  0  0  0  0  0
    1.5909    0.3830   -0.1676 C   0  0  0  0  0  0  0  0  0  0  0  0
   -0.1442    2.1813   -0.2140 C   0  0  2  0  0  3  0  0  0  0  0  0
   -1.3138    4.1370    0.0560 C   0  0  0  0  0  0  0  0  0  0  0  0
   -2.3502    3.4589    0.7301 C   0  0  0  0  0  0  0  0  0  0  0  0
   -2.2512    2.0737    0.7895 C   0  0  0  0  0  0  0  0  0  0  0  0
    1.6753    2.3054   -0.9608 H   0  0  0  0  0  0  0  0  0  0  0  0
    0.8094   -2.7620    0.9267 H   0  0  0  0  0  0  0  0  0  0  0  0
    3.2862   -2.9326    1.0665 H   0  0  0  0  0  0  0  0  0  0  0  0
    5.5173   -1.9585    0.6911 H   0  0  0  0  0  0  0  0  0  0  0  0
    6.9654   -0.0273    0.0355 H   0  0  0  0  0  0  0  0  0  0  0  0
    5.9046    2.1381   -0.6825 H   0  0  0  0  0  0  0  0  0  0  0  0
    3.4779    2.3800   -0.7619 H   0  0  0  0  0  0  0  0  0  0  0  0
   -1.3679    5.2258   -0.1212 H   0  0  0  0  0  0  0  0  0  0  0  0
   -3.2271    3.9786    1.1364 H   0  0  0  0  0  0  0  0  0  0  0  0
   -3.0553    1.4214    1.1638 H   0  0  0  0  0  0  0  0  0  0  0  0
  1 17  1  0  0  0  0
  2 14  1  0  0  0  0
  2 15  2  0  0  0  0
  3 13  1  0  0  0  0
  4  5  2  0  0  0  0
  5  6  1  0  0  0  0
  5 19  1  0  0  0  0
  6 20  1  0  0  0  0
  7  8  2  0  0  0  0
  7  6  1  0  0  0  0
  8 21  1  0  0  0  0
  9 22  1  0  0  0  0
  9  8  1  0  0  0  0
 10  9  2  0  0  0  0
 11 10  1  0  0  0  0
 11 12  1  0  0  0  0
 12  7  1  0  0  0  0
 13 12  2  0  0  0  0
 13  4  1  0  0  0  0
 14  3  1  6  0  0  0
 14  1  1  0  0  0  0
 15 16  1  0  0  0  0
 16 17  2  0  0  0  0
 16 26  1  0  0  0  0
 17 27  1  0  0  0  0
 18  3  1  0  0  0  0
 23 10  1  0  0  0  0
 24 11  1  0  0  0  0
 25 15  1  0  0  0  0
M  END
