3,8
 OpenBabel05122313053D

 34 37  0  0  1  0  0  0  0  0999 V2000
    1.1161   -2.7098   -3.0883 S   0  0  0  0  0  0  0  0  0  0  0  0
    1.1934   -1.4538   -1.8763 C   0  0  0  0  0  0  0  0  0  0  0  0
   -0.0667   -1.1440   -1.3431 C   0  0  0  0  0  3  0  0  0  0  0  0
   -1.0920   -1.9528   -1.9214 C   0  0  0  0  0  0  0  0  0  0  0  0
   -2.1560   -1.8963   -1.6529 H   0  0  0  0  0  0  0  0  0  0  0  0
   -0.6022   -2.8325   -2.8749 C   0  0  0  0  0  0  0  0  0  0  0  0
   -1.1621   -3.5589   -3.4779 H   0  0  0  0  0  0  0  0  0  0  0  0
    1.9988    0.1899   -0.4284 N   0  0  0  0  0  2  0  0  0  0  0  0
    2.3436   -0.7475   -1.3763 C   0  0  1  0  0  3  0  0  0  0  0  0
    3.6973   -0.9269   -1.7304 C   0  0  0  0  0  0  0  0  0  0  0  0
    3.9563   -1.6850   -2.4852 H   0  0  0  0  0  0  0  0  0  0  0  0
    4.6890   -0.1587   -1.1163 C   0  0  0  0  0  0  0  0  0  0  0  0
    4.3050    0.8076   -0.1462 C   0  0  0  0  0  0  0  0  0  0  0  0
    2.9504    0.9417    0.1631 C   0  0  0  0  0  0  0  0  0  0  0  0
    2.5884    1.6731    0.9032 H   0  0  0  0  0  0  0  0  0  0  0  0
    5.4050    1.6208    0.4805 C   0  0  2  0  0  0  0  0  0  0  0  0
    6.3472    2.0860   -0.6706 C   0  0  0  0  0  0  0  0  0  0  0  0
    6.9975    0.6789   -0.5732 C   0  0  2  0  0  0  0  0  0  0  0  0
    6.1700   -0.3148   -1.4038 C   0  0  0  0  0  0  0  0  0  0  0  0
    6.3586   -0.1538   -2.4878 H   0  0  0  0  0  0  0  0  0  0  0  0
    6.4795   -1.3622   -1.1945 H   0  0  0  0  0  0  0  0  0  0  0  0
    8.0808    0.5811   -0.7928 H   0  0  0  0  0  0  0  0  0  0  0  0
    6.5714    0.6568    0.9430 C   0  0  0  0  0  0  0  0  0  0  0  0
    5.0217    2.3643    1.2076 H   0  0  0  0  0  0  0  0  0  0  0  0
    7.5882    1.3778    1.8358 C   0  0  0  0  0  0  0  0  0  0  0  0
    7.9039    2.3588    1.4322 H   0  0  0  0  0  0  0  0  0  0  0  0
    8.5002    0.7573    1.9588 H   0  0  0  0  0  0  0  0  0  0  0  0
    7.1627    1.5516    2.8457 H   0  0  0  0  0  0  0  0  0  0  0  0
    6.2024   -0.6767    1.5908 C   0  0  0  0  0  0  0  0  0  0  0  0
    5.4430   -1.2468    1.0229 H   0  0  0  0  0  0  0  0  0  0  0  0
    5.7939   -0.5091    2.6091 H   0  0  0  0  0  0  0  0  0  0  0  0
    7.1023   -1.3181    1.6957 H   0  0  0  0  0  0  0  0  0  0  0  0
    7.0299    2.8988   -0.3642 H   0  0  0  0  0  0  0  0  0  0  0  0
    5.8628    2.3626   -1.6287 H   0  0  0  0  0  0  0  0  0  0  0  0
  1  6  1  0  0  0  0
  1  2  1  0  0  0  0
  2  3  2  0  0  0  0
  4  5  1  0  0  0  0
  4  3  1  0  0  0  0
  6  4  2  0  0  0  0
  7  6  1  0  0  0  0
  8 14  1  0  0  0  0
  9  2  1  1  0  0  0
  9  8  1  0  0  0  0
 10  9  1  0  0  0  0
 10 12  2  0  0  0  0
 11 10  1  0  0  0  0
 12 13  1  0  0  0  0
 13 14  2  0  0  0  0
 13 16  1  0  0  0  0
 14 15  1  0  0  0  0
 16 23  1  0  0  0  0
 16 24  1  1  0  0  0
 17 18  1  0  0  0  0
 17 33  1  0  0  0  0
 17 16  1  0  0  0  0
 18 22  1  6  0  0  0
 18 23  1  0  0  0  0
 19 21  1  0  0  0  0
 19 12  1  0  0  0  0
 19 18  1  0  0  0  0
 20 19  1  0  0  0  0
 23 29  1  0  0  0  0
 23 25  1  0  0  0  0
 25 27  1  0  0  0  0
 25 28  1  0  0  0  0
 26 25  1  0  0  0  0
 29 32  1  0  0  0  0
 29 31  1  0  0  0  0
 30 29  1  0  0  0  0
 34 17  1  0  0  0  0
M  END
