2,4
 OpenBabel05122313053D

 35 35  0  0  1  0  0  0  0  0999 V2000
   -0.5144    1.9024    0.4139 Si  0  0  0  0  0  0  0  0  0  0  0  0
   -0.4021    0.8449   -1.0634 N   0  0  0  0  0  0  0  0  0  0  0  0
   -1.0612   -0.4650   -0.7263 B   0  0  0  0  0  0  0  0  0  0  0  0
   -0.8122   -0.7081    0.7859 C   0  0  1  0  0  3  0  0  0  0  0  0
   -0.1277    0.3917    1.4409 C   0  0  2  0  0  3  0  0  0  0  0  0
   -2.2730    2.5790    0.5764 C   0  0  0  0  0  0  0  0  0  0  0  0
   -2.3929    3.1411    1.5260 H   0  0  0  0  0  0  0  0  0  0  0  0
   -3.0116    1.7530    0.5677 H   0  0  0  0  0  0  0  0  0  0  0  0
   -2.5185    3.2762   -0.2521 H   0  0  0  0  0  0  0  0  0  0  0  0
    0.6666    3.3671    0.3924 C   0  0  0  0  0  0  0  0  0  0  0  0
    1.7328    3.0940    0.3011 H   0  0  0  0  0  0  0  0  0  0  0  0
    0.5356    3.9407    1.3338 H   0  0  0  0  0  0  0  0  0  0  0  0
    0.4064    4.0551   -0.4387 H   0  0  0  0  0  0  0  0  0  0  0  0
   -0.3134    1.3671   -2.4218 C   0  0  0  0  0  0  0  0  0  0  0  0
    0.4980    2.1175   -2.5078 H   0  0  0  0  0  0  0  0  0  0  0  0
   -1.2685    1.8534   -2.7181 H   0  0  0  0  0  0  0  0  0  0  0  0
   -0.1064    0.5563   -3.1477 H   0  0  0  0  0  0  0  0  0  0  0  0
   -1.9384   -1.3018   -1.7474 C   0  0  0  0  0  0  0  0  0  0  0  0
   -1.9851   -2.3623   -1.4198 H   0  0  0  0  0  0  0  0  0  0  0  0
   -1.4810   -1.3257   -2.7599 H   0  0  0  0  0  0  0  0  0  0  0  0
   -3.3650   -0.7283   -1.8459 C   0  0  0  0  0  0  0  0  0  0  0  0
   -4.0033   -1.3009   -2.5503 H   0  0  0  0  0  0  0  0  0  0  0  0
   -3.3597    0.3266   -2.1935 H   0  0  0  0  0  0  0  0  0  0  0  0
   -3.8737   -0.7354   -0.8592 H   0  0  0  0  0  0  0  0  0  0  0  0
   -1.2664   -1.9476    1.5237 C   0  0  0  0  0  0  0  0  0  0  0  0
   -0.5421   -2.2372    2.3142 H   0  0  0  0  0  0  0  0  0  0  0  0
   -1.3107   -2.8040    0.8193 H   0  0  0  0  0  0  0  0  0  0  0  0
   -2.6487   -1.7324    2.1579 C   0  0  0  0  0  0  0  0  0  0  0  0
   -2.9941   -2.6405    2.6924 H   0  0  0  0  0  0  0  0  0  0  0  0
   -3.4056   -1.4823    1.3867 H   0  0  0  0  0  0  0  0  0  0  0  0
   -2.6314   -0.8964    2.8871 H   0  0  0  0  0  0  0  0  0  0  0  0
    0.2927    0.3829    2.8886 C   0  0  0  0  0  0  0  0  0  0  0  0
    1.0874    1.1303    3.0850 H   0  0  0  0  0  0  0  0  0  0  0  0
    0.6765   -0.6030    3.2215 H   0  0  0  0  0  0  0  0  0  0  0  0
   -0.5642    0.6379    3.5516 H   0  0  0  0  0  0  0  0  0  0  0  0
  1  6  1  0  0  0  0
  1  5  1  0  0  0  0
  2  3  1  0  0  0  0
  2  1  1  0  0  0  0
  3  4  1  0  0  0  0
  4  5  1  0  0  0  0
  4 25  1  1  0  0  0
  5 32  1  1  0  0  0
  6  7  1  0  0  0  0
  8  6  1  0  0  0  0
  9  6  1  0  0  0  0
 10  1  1  0  0  0  0
 10 12  1  0  0  0  0
 11 10  1  0  0  0  0
 13 10  1  0  0  0  0
 14  2  1  0  0  0  0
 15 14  1  0  0  0  0
 16 14  1  0  0  0  0
 17 14  1  0  0  0  0
 18 19  1  0  0  0  0
 18  3  1  0  0  0  0
 20 18  1  0  0  0  0
 21 18  1  0  0  0  0
 21 24  1  0  0  0  0
 22 21  1  0  0  0  0
 23 21  1  0  0  0  0
 25 28  1  0  0  0  0
 25 26  1  0  0  0  0
 27 25  1  0  0  0  0
 28 29  1  0  0  0  0
 28 31  1  0  0  0  0
 30 28  1  0  0  0  0
 32 33  1  0  0  0  0
 32 34  1  0  0  0  0
 32 35  1  0  0  0  0
M  END
