1,5
 OpenBabel05122313053D

 23 24  0  0  0  0  0  0  0  0999 V2000
   -0.7963   -0.8319   -1.3717 N   0  0  0  0  0  2  0  0  0  0  0  0
   -0.6491   -1.6991   -1.8957 H   0  0  0  0  0  0  0  0  0  0  0  0
   -1.5674    1.5441   -0.1186 N   0  0  0  0  0  0  0  0  0  0  0  0
    0.2364    2.7528   -0.2071 N   0  0  0  0  0  0  0  0  0  0  0  0
   -0.1962    1.4462   -0.2298 C   0  0  0  0  0  2  0  0  0  0  0  0
   -0.8289    3.6361   -0.0867 C   0  0  0  0  0  0  0  0  0  0  0  0
   -0.6914    4.7211   -0.0640 H   0  0  0  0  0  0  0  0  0  0  0  0
   -1.9660    2.8776   -0.0332 C   0  0  0  0  0  0  0  0  0  0  0  0
   -3.0167    3.1706    0.0206 H   0  0  0  0  0  0  0  0  0  0  0  0
    1.6151    3.1714   -0.3753 C   0  0  0  0  0  0  0  0  0  0  0  0
    2.2644    2.2998   -0.1904 H   0  0  0  0  0  0  0  0  0  0  0  0
    1.8583    3.9793    0.3418 H   0  0  0  0  0  0  0  0  0  0  0  0
    1.7979    3.5297   -1.4089 H   0  0  0  0  0  0  0  0  0  0  0  0
   -2.4663    0.4383   -0.1602 C   0  0  0  0  0  0  0  0  0  0  0  0
   -3.7328    0.5326    0.4302 C   0  0  0  0  0  0  0  0  0  0  0  0
   -3.9893    1.4298    1.0138 H   0  0  0  0  0  0  0  0  0  0  0  0
   -4.6716   -0.5016    0.2950 C   0  0  0  0  0  0  0  0  0  0  0  0
   -5.6597   -0.4214    0.7691 H   0  0  0  0  0  0  0  0  0  0  0  0
   -4.3173   -1.6350   -0.4625 C   0  0  0  0  0  0  0  0  0  0  0  0
   -5.0424   -2.4529   -0.5984 H   0  0  0  0  0  0  0  0  0  0  0  0
   -3.0482   -1.7508   -1.0314 C   0  0  0  0  0  0  0  0  0  0  0  0
   -2.7826   -2.6484   -1.6127 H   0  0  0  0  0  0  0  0  0  0  0  0
   -2.0478   -0.7350   -0.8791 C   0  0  0  0  0  0  0  0  0  0  0  0
  1 23  1  0  0  0  0
  2  1  1  0  0  0  0
  3  8  1  0  0  0  0
  4  6  1  0  0  0  0
  5  4  1  0  0  0  0
  5  3  1  0  0  0  0
  6  7  1  0  0  0  0
  6  8  2  0  0  0  0
  8  9  1  0  0  0  0
 10  4  1  0  0  0  0
 10 11  1  0  0  0  0
 10 12  1  0  0  0  0
 13 10  1  0  0  0  0
 14  3  1  0  0  0  0
 14 15  1  0  0  0  0
 15 16  1  0  0  0  0
 17 15  2  0  0  0  0
 17 18  1  0  0  0  0
 19 17  1  0  0  0  0
 20 19  1  0  0  0  0
 21 23  1  0  0  0  0
 21 19  2  0  0  0  0
 22 21  1  0  0  0  0
 23 14  2  0  0  0  0
M  END
