1,4
 OpenBabel05122313053D

 37 40  0  0  1  0  0  0  0  0999 V2000
   -2.2729    1.1830    0.2386 N   0  0  0  0  0  2  0  0  0  0  0  0
    1.3949    0.2418   -0.7611 N   0  0  0  0  0  0  0  0  0  0  0  0
   -0.0614    1.7398   -0.0611 N   0  0  0  0  0  0  0  0  0  0  0  0
    0.1027    0.3954   -0.4126 C   0  0  0  0  0  2  0  0  0  0  0  0
   -1.3436    2.1762    0.2877 C   0  0  1  0  0  3  0  0  0  0  0  0
    2.0876    1.4562   -0.6201 C   0  0  0  0  0  0  0  0  0  0  0  0
    2.0663   -0.9895   -1.2141 C   0  0  0  0  0  0  0  0  0  0  0  0
    2.6217   -0.7314   -2.1370 H   0  0  0  0  0  0  0  0  0  0  0  0
    1.2632   -1.7094   -1.4660 H   0  0  0  0  0  0  0  0  0  0  0  0
    3.8380    3.0798   -0.6281 C   0  0  0  0  0  0  0  0  0  0  0  0
    4.8885    3.3587   -0.7925 H   0  0  0  0  0  0  0  0  0  0  0  0
    1.1619    2.4299   -0.1777 C   0  0  0  0  0  0  0  0  0  0  0  0
    3.4358    1.7568   -0.8501 C   0  0  0  0  0  0  0  0  0  0  0  0
    4.1478    0.9860   -1.1699 H   0  0  0  0  0  0  0  0  0  0  0  0
   -3.5613    1.4557    0.5394 C   0  0  0  0  0  0  0  0  0  0  0  0
   -4.2580    0.6087    0.4796 H   0  0  0  0  0  0  0  0  0  0  0  0
    2.9946   -1.5593   -0.1633 C   0  0  0  0  0  0  0  0  0  0  0  0
    2.4919   -1.9300    1.0997 C   0  0  0  0  0  0  0  0  0  0  0  0
    1.4187   -1.8126    1.3160 H   0  0  0  0  0  0  0  0  0  0  0  0
    4.3590   -1.7559   -0.4466 C   0  0  0  0  0  0  0  0  0  0  0  0
    4.7563   -1.4881   -1.4394 H   0  0  0  0  0  0  0  0  0  0  0  0
   -1.6902    3.4860    0.6500 C   0  0  0  0  0  0  0  0  0  0  0  0
   -0.9362    4.2768    0.6899 H   0  0  0  0  0  0  0  0  0  0  0  0
    2.9206    4.0574   -0.1907 C   0  0  0  0  0  0  0  0  0  0  0  0
    3.2679    5.0870   -0.0230 H   0  0  0  0  0  0  0  0  0  0  0  0
   -3.9806    2.7359    0.9047 C   0  0  0  0  0  0  0  0  0  0  0  0
   -5.0378    2.9177    1.1406 H   0  0  0  0  0  0  0  0  0  0  0  0
   -3.0265    3.7626    0.9608 C   0  0  0  0  0  0  0  0  0  0  0  0
   -3.3180    4.7837    1.2465 H   0  0  0  0  0  0  0  0  0  0  0  0
    1.5711    3.7542    0.0433 C   0  0  0  0  0  0  0  0  0  0  0  0
    0.8947    4.5439    0.3871 H   0  0  0  0  0  0  0  0  0  0  0  0
    3.3480   -2.4734    2.0672 C   0  0  0  0  0  0  0  0  0  0  0  0
    2.9474   -2.7632    3.0501 H   0  0  0  0  0  0  0  0  0  0  0  0
    4.7104   -2.6614    1.7805 C   0  0  0  0  0  0  0  0  0  0  0  0
    5.3797   -3.0910    2.5408 H   0  0  0  0  0  0  0  0  0  0  0  0
    5.2141   -2.3077    0.5200 C   0  0  0  0  0  0  0  0  0  0  0  0
    6.2781   -2.4613    0.2860 H   0  0  0  0  0  0  0  0  0  0  0  0
  1  5  1  0  0  0  0
  1 15  1  0  0  0  0
  2  6  1  0  0  0  0
  2  4  1  0  0  0  0
  4  3  1  0  0  0  0
  5  3  1  6  0  0  0
  5 22  1  0  0  0  0
  6 12  1  0  0  0  0
  7  2  1  0  0  0  0
  7 17  1  0  0  0  0
  8  7  1  0  0  0  0
  9  7  1  0  0  0  0
 10 24  2  0  0  0  0
 11 10  1  0  0  0  0
 12  3  1  0  0  0  0
 12 30  2  0  0  0  0
 13 10  1  0  0  0  0
 13  6  2  0  0  0  0
 14 13  1  0  0  0  0
 15 26  2  0  0  0  0
 16 15  1  0  0  0  0
 17 18  1  0  0  0  0
 18 19  1  0  0  0  0
 18 32  2  0  0  0  0
 20 17  2  0  0  0  0
 20 36  1  0  0  0  0
 21 20  1  0  0  0  0
 22 23  1  0  0  0  0
 22 28  2  0  0  0  0
 24 25  1  0  0  0  0
 24 30  1  0  0  0  0
 26 28  1  0  0  0  0
 26 27  1  0  0  0  0
 28 29  1  0  0  0  0
 30 31  1  0  0  0  0
 32 33  1  0  0  0  0
 34 32  1  0  0  0  0
 34 35  1  0  0  0  0
 36 34  2  0  0  0  0
 37 36  1  0  0  0  0
M  END
