1,13
 OpenBabel05122313053D

 28 29  0  0  0  0  0  0  0  0999 V2000
   -0.8824    1.6469   -0.0000 N   0  0  0  0  0  2  0  0  0  0  0  0
    1.4453    1.4552   -0.0001 N   0  0  0  0  0  0  0  0  0  0  0  0
    4.7704   -1.0701   -0.0000 N   0  0  0  0  0  0  0  0  0  0  0  0
   -2.0371    2.3535    0.0000 C   0  0  0  0  0  3  0  0  0  0  0  0
   -2.0497    3.7507    0.0001 C   0  0  0  0  0  0  0  0  0  0  0  0
   -0.8281    4.4363    0.0001 C   0  0  0  0  0  0  0  0  0  0  0  0
    0.3676    3.7079    0.0001 C   0  0  0  0  0  0  0  0  0  0  0  0
    0.3005    2.3066    0.0000 C   0  0  0  0  0  0  0  0  0  0  0  0
    2.7193    1.9731   -0.0002 C   0  0  0  0  0  0  0  0  0  0  0  0
    3.8347    1.1783   -0.0002 C   0  0  0  0  0  0  0  0  0  0  0  0
    3.6924   -0.2506   -0.0001 C   0  0  0  0  0  0  0  0  0  0  0  0
    2.3569   -0.7505   -0.0000 C   0  0  0  0  0  0  0  0  0  0  0  0
    1.2319    0.0665   -0.0000 C   0  0  0  0  0  2  0  0  0  0  0  0
    6.1231   -0.5181   -0.0000 C   0  0  0  0  0  0  0  0  0  0  0  0
    4.5883   -2.5194    0.0002 C   0  0  0  0  0  0  0  0  0  0  0  0
   -2.9608    1.7469    0.0000 H   0  0  0  0  0  0  0  0  0  0  0  0
   -3.0100    4.2842    0.0001 H   0  0  0  0  0  0  0  0  0  0  0  0
   -0.7963    5.5356    0.0002 H   0  0  0  0  0  0  0  0  0  0  0  0
    1.3246    4.2427    0.0002 H   0  0  0  0  0  0  0  0  0  0  0  0
    2.8137    3.0644   -0.0004 H   0  0  0  0  0  0  0  0  0  0  0  0
    4.8149    1.6675   -0.0004 H   0  0  0  0  0  0  0  0  0  0  0  0
    2.1799   -1.8308    0.0000 H   0  0  0  0  0  0  0  0  0  0  0  0
    6.3093    0.1020   -0.9018 H   0  0  0  0  0  0  0  0  0  0  0  0
    6.8522   -1.3458   -0.0000 H   0  0  0  0  0  0  0  0  0  0  0  0
    6.3093    0.1020    0.9016 H   0  0  0  0  0  0  0  0  0  0  0  0
    5.5764   -3.0095    0.0003 H   0  0  0  0  0  0  0  0  0  0  0  0
    4.0333   -2.8566    0.9004 H   0  0  0  0  0  0  0  0  0  0  0  0
    4.0333   -2.8569   -0.9000 H   0  0  0  0  0  0  0  0  0  0  0  0
  1  8  1  0  0  0  0
  1  4  1  0  0  0  0
  2 13  1  0  0  0  0
  2  8  1  0  0  0  0
  3 15  1  0  0  0  0
  4  5  1  0  0  0  0
  5 17  1  0  0  0  0
  5  6  2  0  0  0  0
  6 18  1  0  0  0  0
  7  6  1  0  0  0  0
  7 19  1  0  0  0  0
  8  7  2  0  0  0  0
  9 10  2  0  0  0  0
  9  2  1  0  0  0  0
 10 11  1  0  0  0  0
 11  3  1  0  0  0  0
 11 12  2  0  0  0  0
 12 13  1  0  0  0  0
 12 22  1  0  0  0  0
 14  3  1  0  0  0  0
 14 24  1  0  0  0  0
 14 25  1  0  0  0  0
 15 26  1  0  0  0  0
 15 27  1  0  0  0  0
 16  4  1  0  0  0  0
 20  9  1  0  0  0  0
 21 10  1  0  0  0  0
 23 14  1  0  0  0  0
 28 15  1  0  0  0  0
M  END
