1,12
 OpenBabel05122313053D

 20 21  0  0  0  0  0  0  0  0999 V2000
    0.5643    1.4070    0.0000 N   0  0  0  0  0  2  0  0  0  0  0  0
    2.2904   -0.1747    0.0001 N   0  0  0  0  0  0  0  0  0  0  0  0
    0.0824    2.6691   -0.0000 C   0  0  0  0  0  3  0  0  0  0  0  0
    0.9184    3.7880   -0.0001 C   0  0  0  0  0  0  0  0  0  0  0  0
    2.3054    3.5866   -0.0001 C   0  0  0  0  0  0  0  0  0  0  0  0
    2.8098    2.2796   -0.0001 C   0  0  0  0  0  0  0  0  0  0  0  0
    1.9020    1.2113   -0.0000 C   0  0  0  0  0  0  0  0  0  0  0  0
    3.6212   -0.5223    0.0003 C   0  0  0  0  0  0  0  0  0  0  0  0
    4.0140   -1.8437    0.0003 C   0  0  0  0  0  0  0  0  0  0  0  0
    3.0210   -2.8476    0.0000 C   0  0  0  0  0  0  0  0  0  0  0  0
    1.6791   -2.4800   -0.0001 C   0  0  0  0  0  0  0  0  0  0  0  0
    1.2632   -1.1277   -0.0001 C   0  0  0  0  0  2  0  0  0  0  0  0
   -1.0148    2.7613    0.0000 H   0  0  0  0  0  0  0  0  0  0  0  0
    0.4839    4.7973   -0.0001 H   0  0  0  0  0  0  0  0  0  0  0  0
    2.9997    4.4392   -0.0001 H   0  0  0  0  0  0  0  0  0  0  0  0
    3.8951    2.1240   -0.0001 H   0  0  0  0  0  0  0  0  0  0  0  0
    4.3517    0.2934    0.0005 H   0  0  0  0  0  0  0  0  0  0  0  0
    5.0852   -2.0857    0.0005 H   0  0  0  0  0  0  0  0  0  0  0  0
    3.3075   -3.9101   -0.0000 H   0  0  0  0  0  0  0  0  0  0  0  0
    0.8973   -3.2506   -0.0003 H   0  0  0  0  0  0  0  0  0  0  0  0
  2  8  1  0  0  0  0
  3  1  1  0  0  0  0
  3 13  1  0  0  0  0
  4  3  1  0  0  0  0
  5  6  1  0  0  0  0
  5  4  2  0  0  0  0
  6  7  2  0  0  0  0
  7  1  1  0  0  0  0
  7  2  1  0  0  0  0
  8 17  1  0  0  0  0
  9  8  2  0  0  0  0
  9 18  1  0  0  0  0
 10  9  1  0  0  0  0
 11 12  1  0  0  0  0
 11 10  2  0  0  0  0
 12  2  1  0  0  0  0
 14  4  1  0  0  0  0
 15  5  1  0  0  0  0
 16  6  1  0  0  0  0
 19 10  1  0  0  0  0
 20 11  1  0  0  0  0
M  END
