3,12
 OpenBabel05122313053D

 40 42  0  0  0  0  0  0  0  0999 V2000
    2.0174   -0.9394    0.8812 Se  0  0  0  0  0  0  0  0  0  0  0  0
    1.5317    3.2944   -0.1203 N   0  0  0  0  0  0  0  0  0  0  0  0
    1.8031    2.0867    0.2020 N   0  0  0  0  0  2  0  0  0  0  0  0
   -3.9701    4.1895   -1.2550 C   0  0  0  0  0  0  0  0  0  0  0  0
   -4.3346    3.4451   -1.9930 H   0  0  0  0  0  0  0  0  0  0  0  0
   -4.1656    5.2032   -1.6515 H   0  0  0  0  0  0  0  0  0  0  0  0
   -4.5874    4.0532   -0.3413 H   0  0  0  0  0  0  0  0  0  0  0  0
    7.2593    0.4468    1.0327 C   0  0  0  0  0  0  0  0  0  0  0  0
    7.7149    0.9925    1.8850 H   0  0  0  0  0  0  0  0  0  0  0  0
    7.8787    0.6779    0.1413 H   0  0  0  0  0  0  0  0  0  0  0  0
    7.3399   -0.6372    1.2363 H   0  0  0  0  0  0  0  0  0  0  0  0
   -0.7432    2.4105   -0.2452 C   0  0  0  0  0  2  0  0  0  0  0  0
    0.1939    3.5040   -0.3575 C   0  0  0  0  0  0  0  0  0  0  0  0
   -0.2326    4.7969   -0.7441 C   0  0  0  0  0  0  0  0  0  0  0  0
    0.5157    5.5990   -0.8168 H   0  0  0  0  0  0  0  0  0  0  0  0
   -1.5785    5.0232   -1.0329 C   0  0  0  0  0  0  0  0  0  0  0  0
   -1.9143    6.0257   -1.3371 H   0  0  0  0  0  0  0  0  0  0  0  0
   -2.5162    3.9710   -0.9471 C   0  0  0  0  0  0  0  0  0  0  0  0
   -2.0744    2.6771   -0.5529 C   0  0  0  0  0  0  0  0  0  0  0  0
   -2.8300    1.8794   -0.5072 H   0  0  0  0  0  0  0  0  0  0  0  0
    3.1467    1.7207    0.4203 C   0  0  0  0  0  0  0  0  0  0  0  0
    3.4463    0.3691    0.7084 C   0  0  0  0  0  0  0  0  0  0  0  0
    4.7700   -0.0434    0.9086 C   0  0  0  0  0  0  0  0  0  0  0  0
    4.9805   -1.0997    1.1358 H   0  0  0  0  0  0  0  0  0  0  0  0
    5.8345    0.8763    0.8216 C   0  0  0  0  0  0  0  0  0  0  0  0
    5.5211    2.2286    0.5357 C   0  0  0  0  0  0  0  0  0  0  0  0
    6.3366    2.9654    0.4696 H   0  0  0  0  0  0  0  0  0  0  0  0
    4.2090    2.6509    0.3373 C   0  0  0  0  0  0  0  0  0  0  0  0
    3.9668    3.6982    0.1110 H   0  0  0  0  0  0  0  0  0  0  0  0
    2.0626   -1.7203   -0.9025 C   0  0  0  0  0  0  0  0  0  0  0  0
    2.3470   -0.9419   -2.0383 C   0  0  0  0  0  0  0  0  0  0  0  0
    2.6232    0.1180   -1.9398 H   0  0  0  0  0  0  0  0  0  0  0  0
    2.2758   -1.5397   -3.3057 C   0  0  0  0  0  0  0  0  0  0  0  0
    2.5038   -0.9402   -4.1997 H   0  0  0  0  0  0  0  0  0  0  0  0
    1.9132   -2.8918   -3.4340 C   0  0  0  0  0  0  0  0  0  0  0  0
    1.8555   -3.3529   -4.4310 H   0  0  0  0  0  0  0  0  0  0  0  0
    1.6359   -3.6555   -2.2901 C   0  0  0  0  0  0  0  0  0  0  0  0
    1.3591   -4.7163   -2.3838 H   0  0  0  0  0  0  0  0  0  0  0  0
    1.7167   -3.0760   -1.0131 C   0  0  0  0  0  0  0  0  0  0  0  0
    1.5024   -3.6766   -0.1168 H   0  0  0  0  0  0  0  0  0  0  0  0
  2  3  1  0  0  0  0
  3 21  1  0  0  0  0
  4 18  1  0  0  0  0
  4  7  1  0  0  0  0
  5  4  1  0  0  0  0
  6  4  1  0  0  0  0
  8 11  1  0  0  0  0
  8  9  1  0  0  0  0
 10  8  1  0  0  0  0
 13 12  1  0  0  0  0
 13  2  2  0  0  0  0
 14 13  1  0  0  0  0
 15 14  1  0  0  0  0
 16 18  1  0  0  0  0
 16 14  2  0  0  0  0
 17 16  1  0  0  0  0
 18 19  2  0  0  0  0
 19 20  1  0  0  0  0
 19 12  1  0  0  0  0
 21 22  1  0  0  0  0
 22  1  1  0  0  0  0
 22 23  2  0  0  0  0
 23 24  1  0  0  0  0
 25 23  1  0  0  0  0
 25  8  1  0  0  0  0
 26 25  2  0  0  0  0
 27 26  1  0  0  0  0
 28 21  2  0  0  0  0
 28 26  1  0  0  0  0
 29 28  1  0  0  0  0
 30  1  1  0  0  0  0
 31 32  1  0  0  0  0
 31 30  2  0  0  0  0
 33 31  1  0  0  0  0
 34 33  1  0  0  0  0
 35 33  2  0  0  0  0
 35 37  1  0  0  0  0
 36 35  1  0  0  0  0
 37 39  2  0  0  0  0
 38 37  1  0  0  0  0
 39 30  1  0  0  0  0
 39 40  1  0  0  0  0
M  END
