3,4
 OpenBabel05122313053D

 23 25  0  0  1  0  0  0  0  0999 V2000
   -1.5845   -1.7673   -0.3021 N   0  0  0  0  0  0  0  0  0  0  0  0
   -1.8367    0.4723   -0.1486 N   0  0  0  0  0  0  0  0  0  0  0  0
    0.0583    1.7577   -0.2610 N   0  0  0  0  0  2  0  0  0  0  0  0
   -0.9462   -0.6315   -0.3059 C   0  0  0  0  0  3  0  0  0  0  0  0
   -2.9426   -1.4669   -0.1506 C   0  0  0  0  0  0  0  0  0  0  0  0
   -4.0382   -2.3416   -0.0919 C   0  0  0  0  0  0  0  0  0  0  0  0
   -5.3146   -1.7851    0.0677 C   0  0  0  0  0  0  0  0  0  0  0  0
   -5.4964   -0.3891    0.1660 C   0  0  0  0  0  0  0  0  0  0  0  0
   -4.4131    0.5037    0.1083 C   0  0  0  0  0  0  0  0  0  0  0  0
   -3.1378   -0.0548   -0.0505 C   0  0  0  0  0  0  0  0  0  0  0  0
   -1.3055    1.7410   -0.1338 C   0  0  1  0  0  3  0  0  0  0  0  0
   -2.0334    2.9420   -0.0085 C   0  0  0  0  0  0  0  0  0  0  0  0
   -1.3406    4.1529   -0.0288 C   0  0  0  0  0  0  0  0  0  0  0  0
    0.0592    4.1608   -0.1771 C   0  0  0  0  0  0  0  0  0  0  0  0
    0.7180    2.9387   -0.2919 C   0  0  0  0  0  0  0  0  0  0  0  0
   -3.8828   -3.4264   -0.1736 H   0  0  0  0  0  0  0  0  0  0  0  0
   -6.1928   -2.4454    0.1157 H   0  0  0  0  0  0  0  0  0  0  0  0
   -6.5113    0.0157    0.2899 H   0  0  0  0  0  0  0  0  0  0  0  0
   -4.5933    1.5834    0.1870 H   0  0  0  0  0  0  0  0  0  0  0  0
   -3.1232    2.9160    0.0956 H   0  0  0  0  0  0  0  0  0  0  0  0
   -1.8952    5.0981    0.0647 H   0  0  0  0  0  0  0  0  0  0  0  0
    0.6313    5.0975   -0.2103 H   0  0  0  0  0  0  0  0  0  0  0  0
    1.8077    2.8735   -0.4233 H   0  0  0  0  0  0  0  0  0  0  0  0
  1  5  1  0  0  0  0
  2 10  1  0  0  0  0
  3 11  1  0  0  0  0
  4  1  2  0  0  0  0
  4  2  1  0  0  0  0
  5  6  2  0  0  0  0
  5 10  1  0  0  0  0
  6  7  1  0  0  0  0
  7 17  1  0  0  0  0
  7  8  2  0  0  0  0
  8 18  1  0  0  0  0
  9  8  1  0  0  0  0
  9 19  1  0  0  0  0
 10  9  2  0  0  0  0
 11  2  1  6  0  0  0
 11 12  1  0  0  0  0
 12 20  1  0  0  0  0
 13 12  2  0  0  0  0
 13 21  1  0  0  0  0
 14 13  1  0  0  0  0
 15  3  1  0  0  0  0
 15 14  2  0  0  0  0
 16  6  1  0  0  0  0
 22 14  1  0  0  0  0
 23 15  1  0  0  0  0
M  END
