1,26
 OpenBabel05122313053D

 34 36  0  0  1  0  0  0  0  0999 V2000
   -1.0449   -1.2652    0.4162 N   0  0  0  0  0  2  0  0  0  0  0  0
    0.1837    0.9058    1.9291 N   0  0  0  0  0  0  0  0  0  0  0  0
    2.3017    0.4447    1.8716 N   0  0  0  0  0  0  0  0  0  0  0  0
   -0.5091    2.8125   -0.0846 C   0  0  0  0  0  0  0  0  0  0  0  0
    0.4373    2.9086    0.4659 H   0  0  0  0  0  0  0  0  0  0  0  0
   -0.7553    3.6436   -1.1860 C   0  0  0  0  0  0  0  0  0  0  0  0
   -0.0014    4.3886   -1.4809 H   0  0  0  0  0  0  0  0  0  0  0  0
   -1.9421    3.5109   -1.9221 C   0  0  0  0  0  0  0  0  0  0  0  0
   -2.1264    4.1539   -2.7956 H   0  0  0  0  0  0  0  0  0  0  0  0
   -2.8857    2.5431   -1.5469 C   0  0  0  0  0  0  0  0  0  0  0  0
   -3.8145    2.4224   -2.1242 H   0  0  0  0  0  0  0  0  0  0  0  0
   -2.6414    1.7111   -0.4454 C   0  0  0  0  0  0  0  0  0  0  0  0
   -3.3793    0.9415   -0.1727 H   0  0  0  0  0  0  0  0  0  0  0  0
   -1.4490    1.8366    0.2907 C   0  0  0  0  0  0  0  0  0  0  0  0
   -1.2175    0.9400    1.5130 C   0  0  1  0  0  0  0  0  0  0  0  0
   -1.7806    1.3584    2.3727 H   0  0  0  0  0  0  0  0  0  0  0  0
   -1.7220   -0.4794    1.2992 C   0  0  1  0  0  3  0  0  0  0  0  0
   -2.8624   -0.9496    1.9626 C   0  0  0  0  0  0  0  0  0  0  0  0
   -3.3820   -0.2858    2.6689 H   0  0  0  0  0  0  0  0  0  0  0  0
   -3.3325   -2.2459    1.7089 C   0  0  0  0  0  0  0  0  0  0  0  0
   -4.2286   -2.6267    2.2206 H   0  0  0  0  0  0  0  0  0  0  0  0
   -2.6348   -3.0373    0.7875 C   0  0  0  0  0  0  0  0  0  0  0  0
   -2.9601   -4.0586    0.5445 H   0  0  0  0  0  0  0  0  0  0  0  0
   -1.4971   -2.5209    0.1616 C   0  0  0  0  0  0  0  0  0  0  0  0
   -0.9261   -3.0696   -0.6026 H   0  0  0  0  0  0  0  0  0  0  0  0
    1.1424    0.2945    1.1582 C   0  0  0  0  0  2  0  0  0  0  0  0
    2.0632    1.1374    3.0544 C   0  0  0  0  0  0  0  0  0  0  0  0
    2.8651    1.3652    3.7627 H   0  0  0  0  0  0  0  0  0  0  0  0
    0.7251    1.4299    3.0949 C   0  0  0  0  0  0  0  0  0  0  0  0
    0.1272    1.9741    3.8317 H   0  0  0  0  0  0  0  0  0  0  0  0
    3.5887   -0.1423    1.5156 C   0  0  0  0  0  0  0  0  0  0  0  0
    3.6247   -0.2518    0.4140 H   0  0  0  0  0  0  0  0  0  0  0  0
    3.7074   -1.1307    2.0036 H   0  0  0  0  0  0  0  0  0  0  0  0
    4.3991    0.5331    1.8482 H   0  0  0  0  0  0  0  0  0  0  0  0
  1 17  1  0  0  0  0
  2 29  1  0  0  0  0
  3 27  1  0  0  0  0
  4 14  1  0  0  0  0
  4  5  1  0  0  0  0
  6  4  2  0  0  0  0
  7  6  1  0  0  0  0
  8 10  2  0  0  0  0
  8  6  1  0  0  0  0
  9  8  1  0  0  0  0
 10 12  1  0  0  0  0
 11 10  1  0  0  0  0
 12 13  1  0  0  0  0
 12 14  2  0  0  0  0
 14 15  1  0  0  0  0
 15  2  1  0  0  0  0
 15 16  1  1  0  0  0
 17 15  1  6  0  0  0
 17 18  1  0  0  0  0
 18 19  1  0  0  0  0
 20 18  2  0  0  0  0
 20 21  1  0  0  0  0
 22 20  1  0  0  0  0
 23 22  1  0  0  0  0
 24  1  1  0  0  0  0
 24 22  2  0  0  0  0
 25 24  1  0  0  0  0
 26  3  1  0  0  0  0
 26  2  1  0  0  0  0
 27 29  2  0  0  0  0
 27 28  1  0  0  0  0
 29 30  1  0  0  0  0
 31 34  1  0  0  0  0
 31  3  1  0  0  0  0
 31 33  1  0  0  0  0
 32 31  1  0  0  0  0
M  END
