6,7
 OpenBabel05122313053D

 28 29  0  0  0  0  0  0  0  0999 V2000
   -8.0119    1.7344   -0.1285 Cl  0  0  0  0  0  0  0  0  0  0  0  0
    4.7729    4.9471    0.0140 Cl  0  0  0  0  0  0  0  0  0  0  0  0
   -2.4270   -1.6996    0.2663 O   0  0  0  0  0  0  0  0  0  0  0  0
   -1.5853    2.8269   -0.1427 O   0  0  0  0  0  0  0  0  0  0  0  0
   -2.1465    0.5720    0.0487 N   0  0  0  0  0  0  0  0  0  0  0  0
    0.0865    1.2384    0.1649 N   0  0  0  0  0  2  0  0  0  0  0  0
   -1.6674   -0.7344    0.1813 C   0  0  0  0  0  3  0  0  0  0  0  0
   -1.2005    1.6696    0.0015 C   0  0  0  0  0  0  0  0  0  0  0  0
   -3.5461    0.8534    0.0026 C   0  0  0  0  0  0  0  0  0  0  0  0
   -4.3920    0.1141   -0.8455 C   0  0  0  0  0  0  0  0  0  0  0  0
   -3.9717   -0.6792   -1.4764 H   0  0  0  0  0  0  0  0  0  0  0  0
   -5.7663    0.3776   -0.8843 C   0  0  0  0  0  0  0  0  0  0  0  0
   -6.4302   -0.1993   -1.5431 H   0  0  0  0  0  0  0  0  0  0  0  0
   -6.2971    1.3973   -0.0787 C   0  0  0  0  0  0  0  0  0  0  0  0
   -5.4645    2.1481    0.7655 C   0  0  0  0  0  0  0  0  0  0  0  0
   -5.8941    2.9440    1.3896 H   0  0  0  0  0  0  0  0  0  0  0  0
   -4.0930    1.8699    0.8093 C   0  0  0  0  0  0  0  0  0  0  0  0
   -3.4359    2.4567    1.4630 H   0  0  0  0  0  0  0  0  0  0  0  0
    1.1320    2.1757    0.1451 C   0  0  0  0  0  0  0  0  0  0  0  0
    1.2455    3.1782   -0.8485 C   0  0  0  0  0  0  0  0  0  0  0  0
    0.4495    3.2804   -1.5974 H   0  0  0  0  0  0  0  0  0  0  0  0
    2.3571    4.0287   -0.8869 C   0  0  0  0  0  0  0  0  0  0  0  0
    2.4473    4.7945   -1.6706 H   0  0  0  0  0  0  0  0  0  0  0  0
    3.3729    3.8996    0.0759 C   0  0  0  0  0  0  0  0  0  0  0  0
    3.2642    2.9398    1.0951 C   0  0  0  0  0  0  0  0  0  0  0  0
    4.0471    2.8705    1.8642 H   0  0  0  0  0  0  0  0  0  0  0  0
    2.1462    2.0959    1.1264 C   0  0  0  0  0  0  0  0  0  0  0  0
    2.0344    1.3502    1.9277 H   0  0  0  0  0  0  0  0  0  0  0  0
  1 14  1  0  0  0  0
  2 24  1  0  0  0  0
  4  8  2  0  0  0  0
  5  7  1  0  0  0  0
  7  3  2  0  0  0  0
  8  5  1  0  0  0  0
  8  6  1  0  0  0  0
  9  5  1  0  0  0  0
  9 17  1  0  0  0  0
 10  9  2  0  0  0  0
 11 10  1  0  0  0  0
 12 10  1  0  0  0  0
 12 14  2  0  0  0  0
 13 12  1  0  0  0  0
 14 15  1  0  0  0  0
 15 17  2  0  0  0  0
 15 16  1  0  0  0  0
 17 18  1  0  0  0  0
 19  6  1  0  0  0  0
 19 27  1  0  0  0  0
 20 19  2  0  0  0  0
 21 20  1  0  0  0  0
 22 20  1  0  0  0  0
 22 24  2  0  0  0  0
 23 22  1  0  0  0  0
 24 25  1  0  0  0  0
 25 27  2  0  0  0  0
 25 26  1  0  0  0  0
 27 28  1  0  0  0  0
M  END
