4,5
 OpenBabel05122313053D

 34 35  0  0  0  0  0  0  0  0999 V2000
   -2.3906    0.7566    1.6547 O   0  0  0  0  0  0  0  0  0  0  0  0
   -1.3291   -3.4813    0.2539 O   0  0  0  0  0  0  0  0  0  0  0  0
   -1.9389   -1.3771    1.0032 N   0  0  0  0  0  0  0  0  0  0  0  0
    0.1077   -1.6709   -0.0485 N   0  0  0  0  0  2  0  0  0  0  0  0
   -1.6376   -0.0341    1.0792 C   0  0  0  0  0  3  0  0  0  0  0  0
   -1.0307   -2.2846    0.3680 C   0  0  0  0  0  0  0  0  0  0  0  0
   -3.2539   -1.8647    1.4260 C   0  0  0  0  0  0  0  0  0  0  0  0
   -3.5090   -1.3831    2.3888 H   0  0  0  0  0  0  0  0  0  0  0  0
   -3.1399   -2.9566    1.5632 H   0  0  0  0  0  0  0  0  0  0  0  0
   -4.3057   -1.5617    0.3771 C   0  0  0  0  0  0  0  0  0  0  0  0
   -4.3576   -2.3315   -0.8039 C   0  0  0  0  0  0  0  0  0  0  0  0
   -3.6510   -3.1686   -0.9196 H   0  0  0  0  0  0  0  0  0  0  0  0
   -5.2803   -2.0212   -1.8133 C   0  0  0  0  0  0  0  0  0  0  0  0
   -5.3145   -2.6307   -2.7297 H   0  0  0  0  0  0  0  0  0  0  0  0
   -6.1615   -0.9376   -1.6569 C   0  0  0  0  0  0  0  0  0  0  0  0
   -6.8868   -0.6958   -2.4492 H   0  0  0  0  0  0  0  0  0  0  0  0
   -6.1134   -0.1656   -0.4853 C   0  0  0  0  0  0  0  0  0  0  0  0
   -6.8001    0.6857   -0.3574 H   0  0  0  0  0  0  0  0  0  0  0  0
   -5.1885   -0.4750    0.5248 C   0  0  0  0  0  0  0  0  0  0  0  0
   -5.1303    0.1400    1.4355 H   0  0  0  0  0  0  0  0  0  0  0  0
    1.0713   -2.5069   -0.7261 C   0  0  0  0  0  0  0  0  0  0  0  0
    1.1782   -2.2118   -1.7966 H   0  0  0  0  0  0  0  0  0  0  0  0
    0.6619   -3.5442   -0.7358 H   0  0  0  0  0  0  0  0  0  0  0  0
    2.4442   -2.5352   -0.0868 C   0  0  0  0  0  0  0  0  0  0  0  0
    2.6027   -2.3331    1.2981 C   0  0  0  0  0  0  0  0  0  0  0  0
    1.7071   -2.1142    1.8991 H   0  0  0  0  0  0  0  0  0  0  0  0
    3.8721   -2.3972    1.8924 C   0  0  0  0  0  0  0  0  0  0  0  0
    3.9759   -2.2379    2.9770 H   0  0  0  0  0  0  0  0  0  0  0  0
    5.0098   -2.6558    1.1098 C   0  0  0  0  0  0  0  0  0  0  0  0
    6.0064   -2.6994    1.5749 H   0  0  0  0  0  0  0  0  0  0  0  0
    4.8645   -2.8610   -0.2728 C   0  0  0  0  0  0  0  0  0  0  0  0
    5.7485   -3.0669   -0.8961 H   0  0  0  0  0  0  0  0  0  0  0  0
    3.5919   -2.8013   -0.8621 C   0  0  0  0  0  0  0  0  0  0  0  0
    3.4835   -2.9674   -1.9469 H   0  0  0  0  0  0  0  0  0  0  0  0
  2  6  2  0  0  0  0
  3  5  1  0  0  0  0
  3  7  1  0  0  0  0
  4  6  1  0  0  0  0
  5  1  2  0  0  0  0
  6  3  1  0  0  0  0
  7  9  1  0  0  0  0
  7  8  1  0  0  0  0
 10 19  1  0  0  0  0
 10  7  1  0  0  0  0
 11 10  2  0  0  0  0
 12 11  1  0  0  0  0
 13 15  2  0  0  0  0
 13 11  1  0  0  0  0
 14 13  1  0  0  0  0
 15 17  1  0  0  0  0
 16 15  1  0  0  0  0
 17 18  1  0  0  0  0
 17 19  2  0  0  0  0
 19 20  1  0  0  0  0
 21 24  1  0  0  0  0
 21  4  1  0  0  0  0
 22 21  1  0  0  0  0
 23 21  1  0  0  0  0
 24 25  1  0  0  0  0
 25 27  2  0  0  0  0
 25 26  1  0  0  0  0
 27 28  1  0  0  0  0
 29 30  1  0  0  0  0
 29 27  1  0  0  0  0
 31 29  2  0  0  0  0
 32 31  1  0  0  0  0
 33 31  1  0  0  0  0
 33 24  2  0  0  0  0
 34 33  1  0  0  0  0
M  END
