1,20
 OpenBabel05122313053D

 20 21  0  0  0  0  0  0  0  0999 V2000
   -0.3655    1.8219   -0.0535 N   0  0  0  0  0  2  0  0  0  0  0  0
    0.3587    2.9547   -0.1824 C   0  0  0  0  0  3  0  0  0  0  0  0
    1.4359    2.8156   -0.3476 H   0  0  0  0  0  0  0  0  0  0  0  0
   -0.2180    4.2232   -0.1192 C   0  0  0  0  0  0  0  0  0  0  0  0
    0.4152    5.1151   -0.2219 H   0  0  0  0  0  0  0  0  0  0  0  0
   -1.6102    4.3201    0.0619 C   0  0  0  0  0  0  0  0  0  0  0  0
   -2.1015    5.3031    0.1137 H   0  0  0  0  0  0  0  0  0  0  0  0
   -2.3638    3.1501    0.1572 C   0  0  0  0  0  0  0  0  0  0  0  0
   -3.4552    3.1953    0.2732 H   0  0  0  0  0  0  0  0  0  0  0  0
   -1.7298    1.8907    0.0927 C   0  0  0  0  0  0  0  0  0  0  0  0
   -2.3786    0.5902    0.1324 C   0  0  0  0  0  0  0  0  0  0  0  0
   -3.7718    0.3965    0.2613 C   0  0  0  0  0  0  0  0  0  0  0  0
   -4.4457    1.2572    0.3924 H   0  0  0  0  0  0  0  0  0  0  0  0
   -4.3152   -0.8885    0.2141 C   0  0  0  0  0  0  0  0  0  0  0  0
   -5.3938   -1.0726    0.3116 H   0  0  0  0  0  0  0  0  0  0  0  0
   -3.9590   -3.2121   -0.0641 F   0  0  0  0  0  0  0  0  0  0  0  0
   -3.4400   -1.9696    0.0111 C   0  0  0  0  0  0  0  0  0  0  0  0
   -2.0582   -1.8053   -0.1195 C   0  0  0  0  0  0  0  0  0  0  0  0
   -1.4436   -2.6955   -0.3139 H   0  0  0  0  0  0  0  0  0  0  0  0
   -1.4908   -0.5196   -0.0297 C   0  0  0  0  0  3  0  0  0  0  0  0
  1 10  1  0  0  0  0
  2  4  1  0  0  0  0
  2  1  1  0  0  0  0
  3  2  1  0  0  0  0
  4  6  2  0  0  0  0
  5  4  1  0  0  0  0
  6  7  1  0  0  0  0
  6  8  1  0  0  0  0
  8  9  1  0  0  0  0
 10 11  1  0  0  0  0
 10  8  2  0  0  0  0
 11 12  1  0  0  0  0
 12 13  1  0  0  0  0
 14 12  2  0  0  0  0
 14 15  1  0  0  0  0
 16 17  1  0  0  0  0
 17 14  1  0  0  0  0
 18 20  1  0  0  0  0
 18 17  2  0  0  0  0
 19 18  1  0  0  0  0
 20 11  2  0  0  0  0
M  END
