3,4
 OpenBabel05122313053D

 31 33  0  0  1  0  0  0  0  0999 V2000
   -0.6709    1.9894   -0.7323 N   0  0  0  0  0  0  0  0  0  0  0  0
    1.3568    1.5475   -0.1210 N   0  0  0  0  0  0  0  0  0  0  0  0
   -2.1788   -0.2344    0.3246 N   0  0  0  0  0  2  0  0  0  0  0  0
    0.1502    0.9561   -0.3837 C   0  0  0  0  0  2  0  0  0  0  0  0
   -0.0034    3.2077   -0.6975 C   0  0  0  0  0  0  0  0  0  0  0  0
   -0.4872    4.1579   -0.9432 H   0  0  0  0  0  0  0  0  0  0  0  0
    1.2818    2.9277   -0.3145 C   0  0  0  0  0  0  0  0  0  0  0  0
    2.1397    3.5822   -0.1352 H   0  0  0  0  0  0  0  0  0  0  0  0
    2.5296    0.8677    0.3517 C   0  0  0  0  0  0  0  0  0  0  0  0
    2.5108    0.2639    1.6195 C   0  0  0  0  0  0  0  0  0  0  0  0
    1.5991    0.3157    2.2317 H   0  0  0  0  0  0  0  0  0  0  0  0
    3.6595   -0.3953    2.0802 C   0  0  0  0  0  0  0  0  0  0  0  0
    3.6554   -0.8668    3.0741 H   0  0  0  0  0  0  0  0  0  0  0  0
    4.8149   -0.4426    1.2820 C   0  0  0  0  0  0  0  0  0  0  0  0
    5.7149   -0.9578    1.6486 H   0  0  0  0  0  0  0  0  0  0  0  0
    4.8256    0.1737    0.0205 C   0  0  0  0  0  0  0  0  0  0  0  0
    5.7305    0.1400   -0.6039 H   0  0  0  0  0  0  0  0  0  0  0  0
    3.6805    0.8332   -0.4516 C   0  0  0  0  0  0  0  0  0  0  0  0
    3.6727    1.3138   -1.4413 H   0  0  0  0  0  0  0  0  0  0  0  0
   -2.0573    1.7435   -1.1130 C   0  0  0  0  0  0  0  0  0  0  0  0
   -2.0698    1.1918   -2.0798 H   0  0  0  0  0  0  0  0  0  0  0  0
   -2.5642    2.7134   -1.2628 H   0  0  0  0  0  0  0  0  0  0  0  0
   -2.7742    0.9289   -0.0623 C   0  0  1  0  0  3  0  0  0  0  0  0
   -4.0028    1.3366    0.4742 C   0  0  0  0  0  0  0  0  0  0  0  0
   -4.4492    2.2841    0.1395 H   0  0  0  0  0  0  0  0  0  0  0  0
   -4.6500    0.5327    1.4216 C   0  0  0  0  0  0  0  0  0  0  0  0
   -5.6169    0.8367    1.8482 H   0  0  0  0  0  0  0  0  0  0  0  0
   -4.0300   -0.6611    1.8169 C   0  0  0  0  0  0  0  0  0  0  0  0
   -4.4871   -1.3269    2.5623 H   0  0  0  0  0  0  0  0  0  0  0  0
   -2.7992   -1.0050    1.2557 C   0  0  0  0  0  0  0  0  0  0  0  0
   -2.2740   -1.9228    1.5521 H   0  0  0  0  0  0  0  0  0  0  0  0
  1  5  1  0  0  0  0
  1  4  1  0  0  0  0
  2  9  1  0  0  0  0
  3 30  1  0  0  0  0
  4  2  1  0  0  0  0
  5  7  2  0  0  0  0
  6  5  1  0  0  0  0
  7  8  1  0  0  0  0
  7  2  1  0  0  0  0
  9 10  1  0  0  0  0
 10 12  2  0  0  0  0
 10 11  1  0  0  0  0
 12 13  1  0  0  0  0
 14 15  1  0  0  0  0
 14 12  1  0  0  0  0
 16 14  2  0  0  0  0
 17 16  1  0  0  0  0
 18 16  1  0  0  0  0
 18  9  2  0  0  0  0
 19 18  1  0  0  0  0
 20  1  1  0  0  0  0
 21 20  1  0  0  0  0
 22 20  1  0  0  0  0
 23 20  1  6  0  0  0
 23  3  1  0  0  0  0
 23 24  1  0  0  0  0
 24 26  2  0  0  0  0
 25 24  1  0  0  0  0
 26 28  1  0  0  0  0
 26 27  1  0  0  0  0
 28 29  1  0  0  0  0
 30 31  1  0  0  0  0
 30 28  2  0  0  0  0
M  END
