3,4
 OpenBabel05122313053D

 28 30  0  0  1  0  0  0  0  0999 V2000
   -0.5248    2.4650    0.2778 N   0  0  0  0  0  0  0  0  0  0  0  0
    1.5914    1.9799    0.2240 N   0  0  0  0  0  0  0  0  0  0  0  0
   -2.1233    0.8828   -0.1437 N   0  0  0  0  0  2  0  0  0  0  0  0
    0.3582    1.3995    0.1611 C   0  0  0  0  0  2  0  0  0  0  0  0
    0.1500    3.6743    0.4419 C   0  0  0  0  0  0  0  0  0  0  0  0
   -0.3547    4.6375    0.5516 H   0  0  0  0  0  0  0  0  0  0  0  0
    1.4786    3.3651    0.4113 C   0  0  0  0  0  0  0  0  0  0  0  0
    2.3625    4.0063    0.4729 H   0  0  0  0  0  0  0  0  0  0  0  0
   -1.8801    2.2019    0.0733 C   0  0  2  0  0  3  0  0  0  0  0  0
   -3.3786    0.4988   -0.4713 C   0  0  0  0  0  0  0  0  0  0  0  0
   -3.5092   -0.5664   -0.7004 H   0  0  0  0  0  0  0  0  0  0  0  0
   -4.4387    1.4042   -0.5251 C   0  0  0  0  0  0  0  0  0  0  0  0
   -5.4436    1.0472   -0.7884 H   0  0  0  0  0  0  0  0  0  0  0  0
   -4.1915    2.7603   -0.2518 C   0  0  0  0  0  0  0  0  0  0  0  0
   -5.0072    3.4967   -0.2861 H   0  0  0  0  0  0  0  0  0  0  0  0
   -2.8882    3.1738    0.0424 C   0  0  0  0  0  0  0  0  0  0  0  0
   -2.6537    4.2303    0.2274 H   0  0  0  0  0  0  0  0  0  0  0  0
    2.8468    1.3273   -0.0126 C   0  0  0  0  0  0  0  0  0  0  0  0
    3.9048    1.5259    0.8903 C   0  0  0  0  0  0  0  0  0  0  0  0
    3.7558    2.1388    1.7917 H   0  0  0  0  0  0  0  0  0  0  0  0
    5.1409    0.9145    0.6379 C   0  0  0  0  0  0  0  0  0  0  0  0
    5.9738    1.0598    1.3412 H   0  0  0  0  0  0  0  0  0  0  0  0
    5.3116    0.1166   -0.5058 C   0  0  0  0  0  0  0  0  0  0  0  0
    6.2839   -0.3586   -0.7028 H   0  0  0  0  0  0  0  0  0  0  0  0
    4.2465   -0.0628   -1.4039 C   0  0  0  0  0  0  0  0  0  0  0  0
    4.3853   -0.6716   -2.3097 H   0  0  0  0  0  0  0  0  0  0  0  0
    3.0039    0.5444   -1.1675 C   0  0  0  0  0  0  0  0  0  0  0  0
    2.1589    0.4216   -1.8641 H   0  0  0  0  0  0  0  0  0  0  0  0
  1  5  1  0  0  0  0
  2  7  1  0  0  0  0
  3  9  1  0  0  0  0
  4  2  1  0  0  0  0
  4  1  1  0  0  0  0
  5  6  1  0  0  0  0
  7  5  2  0  0  0  0
  7  8  1  0  0  0  0
  9  1  1  6  0  0  0
 10  3  1  0  0  0  0
 11 10  1  0  0  0  0
 12 10  2  0  0  0  0
 12 14  1  0  0  0  0
 13 12  1  0  0  0  0
 14 16  2  0  0  0  0
 15 14  1  0  0  0  0
 16  9  1  0  0  0  0
 16 17  1  0  0  0  0
 18  2  1  0  0  0  0
 18 19  1  0  0  0  0
 19 20  1  0  0  0  0
 21 19  2  0  0  0  0
 21 22  1  0  0  0  0
 23 21  1  0  0  0  0
 24 23  1  0  0  0  0
 25 27  1  0  0  0  0
 25 23  2  0  0  0  0
 26 25  1  0  0  0  0
 27 18  2  0  0  0  0
 28 27  1  0  0  0  0
M  END
