1,28
 OpenBabel05122313053D

 30 31  0  0  1  0  0  0  0  0999 V2000
    2.0573   -1.0683   -0.0290 N   0  0  0  0  0  2  0  0  0  0  0  0
    2.8476   -1.9711    0.5897 C   0  0  0  0  0  3  0  0  0  0  0  0
    2.3146   -2.8138    1.0559 H   0  0  0  0  0  0  0  0  0  0  0  0
    4.2396   -1.8409    0.6043 C   0  0  0  0  0  0  0  0  0  0  0  0
    4.8482   -2.5921    1.1261 H   0  0  0  0  0  0  0  0  0  0  0  0
    4.8263   -0.7546   -0.0681 C   0  0  0  0  0  0  0  0  0  0  0  0
    5.9199   -0.6330   -0.0832 H   0  0  0  0  0  0  0  0  0  0  0  0
    4.0094    0.1580   -0.7421 C   0  0  0  0  0  0  0  0  0  0  0  0
    4.4386    0.9893   -1.3165 H   0  0  0  0  0  0  0  0  0  0  0  0
    2.6065   -0.0032   -0.7150 C   0  0  0  0  0  0  0  0  0  0  0  0
    1.6116    0.8479   -1.3270 C   0  0  0  0  0  0  0  0  0  0  0  0
    1.5134    2.2289   -1.4297 C   0  0  1  0  0  3  0  0  0  0  0  0
    0.1554    2.5567   -1.8573 C   0  0  0  0  0  0  0  0  0  0  0  0
   -0.5891    1.3901   -1.9912 C   0  0  0  0  0  0  0  0  0  0  0  0
    0.2902    0.2551   -1.6700 C   0  0  0  0  0  0  0  0  0  0  0  0
    2.5345    3.2566   -1.0550 C   0  0  0  0  0  0  0  0  0  0  0  0
    3.3584    2.8261   -0.4541 H   0  0  0  0  0  0  0  0  0  0  0  0
    2.0793    4.0771   -0.4626 H   0  0  0  0  0  0  0  0  0  0  0  0
    2.9886    3.7327   -1.9520 H   0  0  0  0  0  0  0  0  0  0  0  0
   -0.3113    3.9620   -2.0823 C   0  0  0  0  0  0  0  0  0  0  0  0
   -1.3555    3.9991   -2.4472 H   0  0  0  0  0  0  0  0  0  0  0  0
    0.3262    4.4974   -2.8181 H   0  0  0  0  0  0  0  0  0  0  0  0
   -0.2708    4.5604   -1.1451 H   0  0  0  0  0  0  0  0  0  0  0  0
   -2.0009    1.2645   -2.4641 C   0  0  0  0  0  0  0  0  0  0  0  0
   -2.3266    2.1539   -3.0383 H   0  0  0  0  0  0  0  0  0  0  0  0
   -2.7108    1.1424   -1.6178 H   0  0  0  0  0  0  0  0  0  0  0  0
   -2.1335    0.3748   -3.1128 H   0  0  0  0  0  0  0  0  0  0  0  0
    0.1373   -1.1196   -2.1220 C   0  0  0  0  0  3  0  0  0  0  0  0
    1.0292   -1.6664   -2.4697 H   0  0  0  0  0  0  0  0  0  0  0  0
   -0.7886   -1.3865   -2.6600 H   0  0  0  0  0  0  0  0  0  0  0  0
  1  2  1  0  0  0  0
  2  4  1  0  0  0  0
  2  3  1  0  0  0  0
  4  5  1  0  0  0  0
  6  4  2  0  0  0  0
  7  6  1  0  0  0  0
  8 10  2  0  0  0  0
  8  6  1  0  0  0  0
  9  8  1  0  0  0  0
 10  1  1  0  0  0  0
 11 10  1  0  0  0  0
 12 11  1  0  0  0  0
 12 16  1  1  0  0  0
 13 12  1  0  0  0  0
 14 13  2  0  0  0  0
 14 15  1  0  0  0  0
 15 11  2  0  0  0  0
 16 18  1  0  0  0  0
 16 17  1  0  0  0  0
 19 16  1  0  0  0  0
 20 13  1  0  0  0  0
 20 23  1  0  0  0  0
 21 20  1  0  0  0  0
 22 20  1  0  0  0  0
 24 14  1  0  0  0  0
 24 26  1  0  0  0  0
 25 24  1  0  0  0  0
 27 24  1  0  0  0  0
 28 15  1  0  0  0  0
 29 28  1  0  0  0  0
 30 28  1  0  0  0  0
M  END
