1,37
 OpenBabel05122313053D

 43 44  0  0  1  0  0  0  0  0999 V2000
    1.5935    0.4941   -0.1011 N   0  0  0  0  0  2  0  0  0  0  0  0
    2.3013   -0.6639    0.0923 N   0  0  0  0  0  0  0  0  0  0  0  0
   -1.6799   -0.6873    1.5878 C   0  0  0  0  0  0  0  0  0  0  0  0
   -0.3681   -1.2585    1.5169 C   0  0  0  0  0  0  0  0  0  0  0  0
   -2.0619   -1.1408   -0.8432 C   0  0  0  0  0  0  0  0  0  0  0  0
    1.6129   -1.9532    0.0714 C   0  0  0  0  0  0  0  0  0  0  0  0
    2.0079   -2.5851    0.8919 H   0  0  0  0  0  0  0  0  0  0  0  0
    1.8433   -2.4725   -0.8785 H   0  0  0  0  0  0  0  0  0  0  0  0
   -2.8976   -1.0414   -2.0921 C   0  0  0  0  0  0  0  0  0  0  0  0
   -3.9564   -0.8295   -1.8668 H   0  0  0  0  0  0  0  0  0  0  0  0
   -2.8553   -1.9839   -2.6696 H   0  0  0  0  0  0  0  0  0  0  0  0
   -2.4997   -0.2252   -2.7349 H   0  0  0  0  0  0  0  0  0  0  0  0
    4.6465   -1.5218    0.2753 C   0  0  0  0  0  0  0  0  0  0  0  0
    4.5085   -2.0687    1.2321 H   0  0  0  0  0  0  0  0  0  0  0  0
    5.6694   -1.1033    0.2710 H   0  0  0  0  0  0  0  0  0  0  0  0
    4.5834   -2.2701   -0.5431 H   0  0  0  0  0  0  0  0  0  0  0  0
   -3.7511    0.2887    0.4787 C   0  0  0  0  0  0  0  0  0  0  0  0
   -4.1271    0.5674   -0.5196 H   0  0  0  0  0  0  0  0  0  0  0  0
   -3.5299    1.2355    1.0090 H   0  0  0  0  0  0  0  0  0  0  0  0
   -4.5622   -0.2420    1.0216 H   0  0  0  0  0  0  0  0  0  0  0  0
    0.5172   -1.2448    2.7401 C   0  0  0  0  0  0  0  0  0  0  0  0
    1.5806   -1.4148    2.4976 H   0  0  0  0  0  0  0  0  0  0  0  0
    0.2084   -2.0300    3.4631 H   0  0  0  0  0  0  0  0  0  0  0  0
    0.4622   -0.2681    3.2555 H   0  0  0  0  0  0  0  0  0  0  0  0
    3.7988    0.9479   -0.0740 C   0  0  0  0  0  0  0  0  0  0  0  0
    4.7426    1.5015   -0.1106 H   0  0  0  0  0  0  0  0  0  0  0  0
   -0.2867   -2.2203   -2.3074 C   0  0  0  0  0  0  0  0  0  0  0  0
    0.7358   -2.6364   -2.3023 H   0  0  0  0  0  0  0  0  0  0  0  0
   -0.2992   -1.3716   -3.0226 H   0  0  0  0  0  0  0  0  0  0  0  0
   -0.9602   -3.0114   -2.6955 H   0  0  0  0  0  0  0  0  0  0  0  0
   -2.1711   -0.0973    2.8825 C   0  0  0  0  0  0  0  0  0  0  0  0
   -1.9104    0.9853    2.9054 H   0  0  0  0  0  0  0  0  0  0  0  0
   -1.7185   -0.5905    3.7608 H   0  0  0  0  0  0  0  0  0  0  0  0
   -3.2696   -0.1844    2.9681 H   0  0  0  0  0  0  0  0  0  0  0  0
   -2.4951   -0.5407    0.3904 C   0  0  0  0  0  0  0  0  0  0  0  0
   -0.7405   -1.7475   -0.9504 C   0  0  1  0  0  3  0  0  0  0  0  0
    0.1179   -1.7236    0.2190 C   0  0  2  0  0  3  0  0  0  0  0  0
    2.1076    2.9092   -0.4562 C   0  0  0  0  0  0  0  0  0  0  0  0
    1.4672    2.9653   -1.3595 H   0  0  0  0  0  0  0  0  0  0  0  0
    3.0098    3.5344   -0.5881 H   0  0  0  0  0  0  0  0  0  0  0  0
    1.4887    3.2979    0.3761 H   0  0  0  0  0  0  0  0  0  0  0  0
    2.4948    1.4922   -0.2081 C   0  0  1  0  0  3  0  0  0  0  0  0
    3.6472   -0.4264    0.1084 C   0  0  0  0  0  0  0  0  0  0  0  0
  1  2  1  0  0  0  0
  2 43  1  0  0  0  0
  3 31  1  0  0  0  0
  4  3  2  0  0  0  0
  4 21  1  0  0  0  0
  5 35  2  0  0  0  0
  6  2  1  0  0  0  0
  6  7  1  0  0  0  0
  8  6  1  0  0  0  0
  9 10  1  0  0  0  0
  9  5  1  0  0  0  0
 11  9  1  0  0  0  0
 12  9  1  0  0  0  0
 13 14  1  0  0  0  0
 15 13  1  0  0  0  0
 16 13  1  0  0  0  0
 17 19  1  0  0  0  0
 17 20  1  0  0  0  0
 18 17  1  0  0  0  0
 21 24  1  0  0  0  0
 21 23  1  0  0  0  0
 22 21  1  0  0  0  0
 25 43  2  0  0  0  0
 26 25  1  0  0  0  0
 27 28  1  0  0  0  0
 29 27  1  0  0  0  0
 30 27  1  0  0  0  0
 31 32  1  0  0  0  0
 31 34  1  0  0  0  0
 31 33  1  0  0  0  0
 35 17  1  0  0  0  0
 35  3  1  0  0  0  0
 36 27  1  6  0  0  0
 36  5  1  0  0  0  0
 36 37  1  0  0  0  0
 37  6  1  6  0  0  0
 37  4  1  0  0  0  0
 38 41  1  0  0  0  0
 39 38  1  0  0  0  0
 40 38  1  0  0  0  0
 42 38  1  6  0  0  0
 42  1  1  0  0  0  0
 42 25  1  0  0  0  0
 43 13  1  0  0  0  0
M  END
