1,6
 OpenBabel05122313053D

 33 34  0  0  1  0  0  0  0  0999 V2000
    1.6625    1.7982   -0.2248 N   0  0  0  0  0  2  0  0  0  0  0  0
   -3.9643    0.0890   -5.0427 C   0  0  0  0  0  0  0  0  0  0  0  0
   -4.8171    0.7989   -5.0396 H   0  0  0  0  0  0  0  0  0  0  0  0
   -4.2392   -0.7591   -5.7002 H   0  0  0  0  0  0  0  0  0  0  0  0
   -3.1011    0.6082   -5.5075 H   0  0  0  0  0  0  0  0  0  0  0  0
   -1.0870    1.2906    0.1170 C   0  0  0  0  0  2  0  0  0  0  0  0
   -3.6276   -0.3849   -3.6291 C   0  0  0  0  0  0  0  0  0  0  0  0
   -2.7907   -1.1169   -3.6676 H   0  0  0  0  0  0  0  0  0  0  0  0
   -4.4959   -0.9314   -3.1976 H   0  0  0  0  0  0  0  0  0  0  0  0
   -3.2236    0.7591   -2.6949 C   0  0  0  0  0  0  0  0  0  0  0  0
   -4.0277    1.5271   -2.6672 H   0  0  0  0  0  0  0  0  0  0  0  0
   -2.3097    1.2537   -3.0850 H   0  0  0  0  0  0  0  0  0  0  0  0
   -2.9207    0.2539   -1.2841 C   0  0  0  0  0  0  0  0  0  0  0  0
   -3.8357   -0.1435   -0.7953 H   0  0  0  0  0  0  0  0  0  0  0  0
   -2.1741   -0.5572   -1.3379 H   0  0  0  0  0  0  0  0  0  0  0  0
   -2.3489    1.2877   -0.4165 N   0  0  0  0  0  0  0  0  0  0  0  0
   -3.0232    2.4556   -0.0817 C   0  0  0  0  0  0  0  0  0  0  0  0
   -4.0514    2.6462   -0.4018 H   0  0  0  0  0  0  0  0  0  0  0  0
   -0.9883    2.4912    0.7713 N   0  0  0  0  0  0  0  0  0  0  0  0
   -2.1642    3.2197    0.6624 C   0  0  0  0  0  0  0  0  0  0  0  0
   -2.2924    4.2032    1.1237 H   0  0  0  0  0  0  0  0  0  0  0  0
    0.2380    2.9472    1.4212 C   0  0  0  0  0  0  0  0  0  0  0  0
    0.4566    2.2675    2.2730 H   0  0  0  0  0  0  0  0  0  0  0  0
    0.0664    3.9688    1.8026 H   0  0  0  0  0  0  0  0  0  0  0  0
    1.4160    2.9379    0.4742 C   0  0  1  0  0  3  0  0  0  0  0  0
    2.2304    4.0706    0.3258 C   0  0  0  0  0  0  0  0  0  0  0  0
    2.0043    4.9766    0.9062 H   0  0  0  0  0  0  0  0  0  0  0  0
    3.3129    4.0389   -0.5627 C   0  0  0  0  0  0  0  0  0  0  0  0
    3.9610    4.9192   -0.6853 H   0  0  0  0  0  0  0  0  0  0  0  0
    3.5336    2.8731   -1.3065 C   0  0  0  0  0  0  0  0  0  0  0  0
    4.3501    2.8024   -2.0386 H   0  0  0  0  0  0  0  0  0  0  0  0
    2.6820    1.7819   -1.1163 C   0  0  0  0  0  0  0  0  0  0  0  0
    2.7866    0.8591   -1.7036 H   0  0  0  0  0  0  0  0  0  0  0  0
  1 25  1  0  0  0  0
  2  3  1  0  0  0  0
  2  7  1  0  0  0  0
  4  2  1  0  0  0  0
  5  2  1  0  0  0  0
  6 19  1  0  0  0  0
  7  9  1  0  0  0  0
  7 10  1  0  0  0  0
  8  7  1  0  0  0  0
 10 11  1  0  0  0  0
 10 13  1  0  0  0  0
 12 10  1  0  0  0  0
 13 14  1  0  0  0  0
 13 16  1  0  0  0  0
 15 13  1  0  0  0  0
 16 17  1  0  0  0  0
 16  6  1  0  0  0  0
 17 20  2  0  0  0  0
 18 17  1  0  0  0  0
 19 22  1  0  0  0  0
 20 19  1  0  0  0  0
 20 21  1  0  0  0  0
 22 24  1  0  0  0  0
 22 23  1  0  0  0  0
 25 22  1  1  0  0  0
 26 25  1  0  0  0  0
 26 27  1  0  0  0  0
 28 26  2  0  0  0  0
 29 28  1  0  0  0  0
 30 32  2  0  0  0  0
 30 28  1  0  0  0  0
 31 30  1  0  0  0  0
 32  1  1  0  0  0  0
 33 32  1  0  0  0  0
M  END
