1,14
 OpenBabel05122313053D

 44 44  0  0  1  0  0  0  0  0999 V2000
    1.7975   -0.7516    0.2785 N   0  0  0  0  0  2  0  0  0  0  0  0
    0.7976    2.0881    0.0690 N   0  0  0  0  0  0  0  0  0  0  0  0
   -2.5960   -0.2011   -2.1453 O   0  0  0  0  0  0  0  0  0  0  0  0
   -2.6715    1.8162   -1.1187 O   0  0  0  0  0  0  0  0  0  0  0  0
    0.3286    2.1548   -2.1992 O   0  0  0  0  0  0  0  0  0  0  0  0
   -2.9062   -0.1297    1.3199 O   0  0  0  0  0  0  0  0  0  0  0  0
   -1.3925    0.3350    2.9510 O   0  0  0  0  0  0  0  0  0  0  0  0
   -0.7653    0.5308   -0.6983 C   0  0  1  0  0  3  0  0  0  0  0  0
   -2.0990    0.6238   -1.4030 C   0  0  0  0  0  0  0  0  0  0  0  0
   -3.9589    2.0273   -1.7091 C   0  0  0  0  0  0  0  0  0  0  0  0
    3.0169   -1.5097   -0.0953 C   0  0  0  0  0  0  0  0  0  0  0  0
    4.0199   -1.6592    1.0501 C   0  0  0  0  0  0  0  0  0  0  0  0
    0.1730    1.6442   -1.0971 C   0  0  0  0  0  0  0  0  0  0  0  0
   -0.6180    0.3235    0.7331 C   0  0  2  0  0  3  0  0  0  0  0  0
   -1.7645    0.1542    1.6486 C   0  0  0  0  0  0  0  0  0  0  0  0
   -2.4371    0.1402    3.9095 C   0  0  0  0  0  0  0  0  0  0  0  0
    1.8565    0.2591    1.0768 C   0  0  0  0  0  3  0  0  0  0  0  0
    0.6276    1.1275    1.1648 C   0  0  1  0  0  0  0  0  0  0  0  0
    3.6378   -0.8715   -1.3439 C   0  0  0  0  0  0  0  0  0  0  0  0
    3.0982    2.9268   -0.4779 C   0  0  0  0  0  0  0  0  0  0  0  0
    1.6919    3.2483    0.0471 C   0  0  0  0  0  0  0  0  0  0  0  0
    1.7106    3.9544    1.4024 C   0  0  0  0  0  0  0  0  0  0  0  0
   -3.9061    1.9403   -2.8127 H   0  0  0  0  0  0  0  0  0  0  0  0
   -4.2680    3.0460   -1.4144 H   0  0  0  0  0  0  0  0  0  0  0  0
   -4.6822    1.2776   -1.3295 H   0  0  0  0  0  0  0  0  0  0  0  0
    2.6519   -2.5197   -0.3669 H   0  0  0  0  0  0  0  0  0  0  0  0
    3.5323   -2.0696    1.9567 H   0  0  0  0  0  0  0  0  0  0  0  0
    4.8216   -2.3595    0.7449 H   0  0  0  0  0  0  0  0  0  0  0  0
    4.5108   -0.6998    1.3123 H   0  0  0  0  0  0  0  0  0  0  0  0
   -2.8481   -0.8874    3.8411 H   0  0  0  0  0  0  0  0  0  0  0  0
   -1.9803    0.3075    4.9014 H   0  0  0  0  0  0  0  0  0  0  0  0
   -3.2688    0.8539    3.7413 H   0  0  0  0  0  0  0  0  0  0  0  0
    2.8049    0.5697    1.5540 H   0  0  0  0  0  0  0  0  0  0  0  0
    0.5068    1.6181    2.1482 H   0  0  0  0  0  0  0  0  0  0  0  0
    4.4668   -1.5040   -1.7177 H   0  0  0  0  0  0  0  0  0  0  0  0
    2.8951   -0.7614   -2.1565 H   0  0  0  0  0  0  0  0  0  0  0  0
    4.0443    0.1324   -1.1094 H   0  0  0  0  0  0  0  0  0  0  0  0
    3.0292    2.4070   -1.4525 H   0  0  0  0  0  0  0  0  0  0  0  0
    3.6753    3.8618   -0.6271 H   0  0  0  0  0  0  0  0  0  0  0  0
    3.6686    2.2914    0.2309 H   0  0  0  0  0  0  0  0  0  0  0  0
    1.2195    3.9180   -0.7036 H   0  0  0  0  0  0  0  0  0  0  0  0
    0.6843    4.1842    1.7510 H   0  0  0  0  0  0  0  0  0  0  0  0
    2.2148    3.3444    2.1813 H   0  0  0  0  0  0  0  0  0  0  0  0
    2.2685    4.9079    1.3237 H   0  0  0  0  0  0  0  0  0  0  0  0
  1 17  1  0  0  0  0
  2 18  1  0  0  0  0
  3  9  2  0  0  0  0
  5 13  2  0  0  0  0
  6 15  2  0  0  0  0
  7 16  1  0  0  0  0
  8  9  1  1  0  0  0
  8 14  1  0  0  0  0
  9  4  1  0  0  0  0
 10 24  1  0  0  0  0
 10 25  1  0  0  0  0
 10  4  1  0  0  0  0
 11  1  1  0  0  0  0
 11 12  1  0  0  0  0
 12 29  1  0  0  0  0
 12 27  1  0  0  0  0
 13  8  1  0  0  0  0
 13  2  1  0  0  0  0
 14 18  1  0  0  0  0
 14 15  1  1  0  0  0
 15  7  1  0  0  0  0
 16 31  1  0  0  0  0
 17 18  1  0  0  0  0
 17 33  1  0  0  0  0
 18 34  1  1  0  0  0
 19 37  1  0  0  0  0
 19 11  1  0  0  0  0
 20 21  1  0  0  0  0
 20 40  1  0  0  0  0
 21  2  1  0  0  0  0
 21 22  1  0  0  0  0
 22 42  1  0  0  0  0
 22 43  1  0  0  0  0
 23 10  1  0  0  0  0
 26 11  1  0  0  0  0
 28 12  1  0  0  0  0
 30 16  1  0  0  0  0
 32 16  1  0  0  0  0
 35 19  1  0  0  0  0
 36 19  1  0  0  0  0
 38 20  1  0  0  0  0
 39 20  1  0  0  0  0
 41 21  1  0  0  0  0
 44 22  1  0  0  0  0
M  END
