3,14
 OpenBabel05122313053D

 18 18  0  0  1  0  0  0  0  0999 V2000
    2.4088   -1.9272    0.1446 S   0  0  0  0  0  0  0  0  0  0  0  0
    3.3616    1.8360   -0.2057 O   0  0  0  0  0  0  0  0  0  0  0  0
   -0.2090   -1.1416   -0.0453 N   0  0  0  0  0  2  0  0  0  0  0  0
   -0.4028   -2.1487    0.0158 H   0  0  0  0  0  0  0  0  0  0  0  0
    1.4627    0.5086   -0.1616 N   0  0  0  0  0  0  0  0  0  0  0  0
    1.0373   -0.8103   -0.0358 C   0  0  1  0  0  3  0  0  0  0  0  0
    2.8419    0.7410   -0.1085 C   0  0  0  0  0  0  0  0  0  0  0  0
    3.6153   -0.5613    0.0767 C   0  0  0  0  0  0  0  0  0  0  0  0
    4.2064   -0.5075    1.0127 H   0  0  0  0  0  0  0  0  0  0  0  0
    4.3185   -0.6888   -0.7704 H   0  0  0  0  0  0  0  0  0  0  0  0
    0.5448    1.6315   -0.4233 C   0  0  0  0  0  0  0  0  0  0  0  0
    0.1828    1.5650   -1.4722 H   0  0  0  0  0  0  0  0  0  0  0  0
    1.1985    2.5279   -0.3519 H   0  0  0  0  0  0  0  0  0  0  0  0
   -0.6135    1.6958    0.5399 C   0  0  0  0  0  3  0  0  0  0  0  0
   -0.3374    1.6601    1.6102 H   0  0  0  0  0  0  0  0  0  0  0  0
   -1.8990    2.1289    0.1893 C   0  0  0  0  0  3  0  0  0  0  0  0
   -2.1399    2.4366   -0.8426 H   0  0  0  0  0  0  0  0  0  0  0  0
   -2.6120    2.4448    0.9655 H   0  0  0  0  0  0  0  0  0  0  0  0
  2  7  2  0  0  0  0
  3  4  1  0  0  0  0
  5  7  1  0  0  0  0
  5  6  1  0  0  0  0
  6  3  1  1  0  0  0
  6  1  1  0  0  0  0
  7  8  1  0  0  0  0
  8  1  1  0  0  0  0
  8  9  1  0  0  0  0
 10  8  1  0  0  0  0
 11 13  1  0  0  0  0
 11  5  1  0  0  0  0
 11 14  1  0  0  0  0
 12 11  1  0  0  0  0
 14 15  1  0  0  0  0
 16 14  1  0  0  0  0
 16 18  1  0  0  0  0
 17 16  1  0  0  0  0
M  END
