19,20
 OpenBabel05122313053D

 20 21  0  0  0  0  0  0  0  0999 V2000
    3.7748    3.4533   -0.1837 F   0  0  0  0  0  0  0  0  0  0  0  0
    4.3599   -0.8938   -1.8724 F   0  0  0  0  0  0  0  0  0  0  0  0
   -1.4356    3.3312    0.4282 C   0  0  0  0  0  0  0  0  0  0  0  0
   -2.4195    2.8372    0.4135 H   0  0  0  0  0  0  0  0  0  0  0  0
   -1.2533    4.6783    0.7406 C   0  0  0  0  0  0  0  0  0  0  0  0
   -2.1260    5.3037    0.9736 H   0  0  0  0  0  0  0  0  0  0  0  0
    0.0532    5.1943    0.7538 C   0  0  0  0  0  0  0  0  0  0  0  0
    0.2364    6.2500    1.0041 H   0  0  0  0  0  0  0  0  0  0  0  0
    1.1267    4.3559    0.4459 C   0  0  0  0  0  0  0  0  0  0  0  0
    2.1550    4.7314    0.4468 H   0  0  0  0  0  0  0  0  0  0  0  0
    0.8943    3.0008    0.1217 C   0  0  0  0  0  0  0  0  0  0  0  0
    1.8693    1.9978   -0.2792 C   0  0  0  0  0  0  0  0  0  0  0  0
    3.2460    2.2425   -0.4821 C   0  0  0  0  0  3  0  0  0  0  0  0
    4.1144    1.2830   -0.9985 C   0  0  0  0  0  0  0  0  0  0  0  0
    5.1794    1.5012   -1.1447 H   0  0  0  0  0  0  0  0  0  0  0  0
    3.5557    0.0453   -1.3397 C   0  0  0  0  0  0  0  0  0  0  0  0
    2.2048   -0.2555   -1.1459 C   0  0  0  0  0  0  0  0  0  0  0  0
    1.8671   -1.2495   -1.4560 H   0  0  0  0  0  0  0  0  0  0  0  0
    1.3348    0.6897   -0.5715 C   0  0  0  0  0  3  0  0  0  0  0  0
   -0.3958    2.5199    0.1322 N   0  0  0  0  0  2  0  0  0  0  0  0
  2 16  1  0  0  0  0
  3  5  2  0  0  0  0
  4  3  1  0  0  0  0
  5  7  1  0  0  0  0
  5  6  1  0  0  0  0
  7  8  1  0  0  0  0
  9 10  1  0  0  0  0
  9  7  2  0  0  0  0
 11 20  1  0  0  0  0
 11  9  1  0  0  0  0
 12 11  2  0  0  0  0
 13 12  1  0  0  0  0
 13  1  1  0  0  0  0
 14 13  1  0  0  0  0
 15 14  1  0  0  0  0
 16 17  1  0  0  0  0
 16 14  2  0  0  0  0
 17 19  2  0  0  0  0
 18 17  1  0  0  0  0
 19 12  1  0  0  0  0
 20  3  1  0  0  0  0
M  END
