3,41
 OpenBabel05122313053D

 41 43  0  0  0  0  0  0  0  0999 V2000
    5.7580    4.0977   -0.1185 Br  0  0  0  0  0  0  0  0  0  0  0  0
   -5.9131    4.0522    1.0156 Br  0  0  0  0  0  0  0  0  0  0  0  0
    0.9553    0.2518   -0.7975 C   0  0  0  0  0  2  0  0  0  0  0  0
    2.0808    1.1790   -0.6400 C   0  0  0  0  0  0  0  0  0  0  0  0
    2.5047    1.5877    0.6471 C   0  0  0  0  0  0  0  0  0  0  0  0
    1.9473    1.2172    1.5206 H   0  0  0  0  0  0  0  0  0  0  0  0
    3.5826    2.4657    0.8059 C   0  0  0  0  0  0  0  0  0  0  0  0
    3.8957    2.7900    1.8087 H   0  0  0  0  0  0  0  0  0  0  0  0
    4.2671    2.9319   -0.3305 C   0  0  0  0  0  0  0  0  0  0  0  0
    3.8648    2.5492   -1.6198 C   0  0  0  0  0  0  0  0  0  0  0  0
    4.4068    2.9228   -2.5002 H   0  0  0  0  0  0  0  0  0  0  0  0
    2.7704    1.6862   -1.7670 C   0  0  0  0  0  0  0  0  0  0  0  0
    2.4544    1.3754   -2.7746 H   0  0  0  0  0  0  0  0  0  0  0  0
   -0.1178    0.5454   -1.6155 C   0  0  0  0  0  0  0  0  0  0  0  0
   -0.2136    1.4928   -2.1705 H   0  0  0  0  0  0  0  0  0  0  0  0
   -1.1949   -0.3975   -1.5902 C   0  0  0  0  0  0  0  0  0  0  0  0
   -2.5290   -0.0816   -2.2155 C   0  0  0  0  0  0  0  0  0  0  0  0
   -3.1358   -1.0044   -2.3146 H   0  0  0  0  0  0  0  0  0  0  0  0
   -2.3631    0.3047   -3.2425 H   0  0  0  0  0  0  0  0  0  0  0  0
   -3.3177    0.9484   -1.4163 C   0  0  0  0  0  0  0  0  0  0  0  0
   -3.1047    1.1349   -0.0363 C   0  0  0  0  0  0  0  0  0  0  0  0
   -2.3163    0.5751    0.4938 H   0  0  0  0  0  0  0  0  0  0  0  0
   -3.8728    2.0562    0.6910 C   0  0  0  0  0  0  0  0  0  0  0  0
   -3.6908    2.1963    1.7658 H   0  0  0  0  0  0  0  0  0  0  0  0
   -4.8650    2.7986    0.0347 C   0  0  0  0  0  0  0  0  0  0  0  0
   -5.0922    2.6347   -1.3411 C   0  0  0  0  0  0  0  0  0  0  0  0
   -5.8670    3.2268   -1.8481 H   0  0  0  0  0  0  0  0  0  0  0  0
   -4.3144    1.7128   -2.0546 C   0  0  0  0  0  0  0  0  0  0  0  0
   -4.4912    1.5867   -3.1349 H   0  0  0  0  0  0  0  0  0  0  0  0
   -1.9065   -2.5183   -0.6735 C   0  0  0  0  0  0  0  0  0  0  0  0
   -2.4285   -2.7778    0.6118 C   0  0  0  0  0  0  0  0  0  0  0  0
   -2.1101   -2.1292    1.4427 H   0  0  0  0  0  0  0  0  0  0  0  0
   -3.3223   -3.8400    0.7967 C   0  0  0  0  0  0  0  0  0  0  0  0
   -3.7336   -4.0306    1.7999 H   0  0  0  0  0  0  0  0  0  0  0  0
   -3.6986   -4.6580   -0.2836 C   0  0  0  0  0  0  0  0  0  0  0  0
   -4.3998   -5.4917   -0.1296 H   0  0  0  0  0  0  0  0  0  0  0  0
   -3.1711   -4.4071   -1.5595 C   0  0  0  0  0  0  0  0  0  0  0  0
   -3.4521   -5.0468   -2.4100 H   0  0  0  0  0  0  0  0  0  0  0  0
   -2.2742   -3.3454   -1.7577 C   0  0  0  0  0  0  0  0  0  0  0  0
   -1.8395   -3.1526   -2.7503 H   0  0  0  0  0  0  0  0  0  0  0  0
   -0.9699   -1.4747   -0.8501 N   0  0  0  0  0  2  0  0  0  0  0  0
  3  4  1  0  0  0  0
  4  5  1  0  0  0  0
  5  7  2  0  0  0  0
  5  6  1  0  0  0  0
  7  8  1  0  0  0  0
  9  1  1  0  0  0  0
  9  7  1  0  0  0  0
 10  9  2  0  0  0  0
 11 10  1  0  0  0  0
 12 10  1  0  0  0  0
 12  4  2  0  0  0  0
 13 12  1  0  0  0  0
 14 16  2  0  0  0  0
 14  3  1  0  0  0  0
 15 14  1  0  0  0  0
 16 41  1  0  0  0  0
 17 16  1  0  0  0  0
 17 20  1  0  0  0  0
 18 17  1  0  0  0  0
 19 17  1  0  0  0  0
 20 21  1  0  0  0  0
 21 22  1  0  0  0  0
 21 23  2  0  0  0  0
 23 24  1  0  0  0  0
 25 23  1  0  0  0  0
 25  2  1  0  0  0  0
 26 25  2  0  0  0  0
 27 26  1  0  0  0  0
 28 20  2  0  0  0  0
 28 26  1  0  0  0  0
 29 28  1  0  0  0  0
 30 31  1  0  0  0  0
 31 33  2  0  0  0  0
 31 32  1  0  0  0  0
 33 34  1  0  0  0  0
 35 36  1  0  0  0  0
 35 33  1  0  0  0  0
 37 35  2  0  0  0  0
 38 37  1  0  0  0  0
 39 37  1  0  0  0  0
 39 30  2  0  0  0  0
 40 39  1  0  0  0  0
 41 30  1  0  0  0  0
M  END
