1,5
 OpenBabel05122313053D

 29 30  0  0  0  0  0  0  0  0999 V2000
   -1.4001    0.4697   -0.8858 N   0  0  0  0  0  2  0  0  0  0  0  0
   -2.5879   -0.5680   -2.6389 O   0  0  0  0  0  0  0  0  0  0  0  0
    0.2701   -3.5336   -0.8268 O   0  0  0  0  0  0  0  0  0  0  0  0
   -1.6580   -0.4877   -1.8367 C   0  0  0  0  0  0  0  0  0  0  0  0
   -0.4949   -1.4550   -1.6658 C   0  0  0  0  0  3  0  0  0  0  0  0
    0.0439   -1.7186   -2.5961 H   0  0  0  0  0  0  0  0  0  0  0  0
   -0.5640   -2.6127   -0.7377 C   0  0  0  0  0  0  0  0  0  0  0  0
   -2.2340    1.5159   -0.4959 C   0  0  0  0  0  0  0  0  0  0  0  0
   -2.1607    1.9903    0.8384 C   0  0  0  0  0  0  0  0  0  0  0  0
   -1.4727    1.4836    1.5330 H   0  0  0  0  0  0  0  0  0  0  0  0
   -2.9744    3.0460    1.2694 C   0  0  0  0  0  0  0  0  0  0  0  0
   -2.9044    3.3957    2.3114 H   0  0  0  0  0  0  0  0  0  0  0  0
   -3.8931    3.6387    0.3867 C   0  0  0  0  0  0  0  0  0  0  0  0
   -4.5373    4.4640    0.7255 H   0  0  0  0  0  0  0  0  0  0  0  0
   -3.9944    3.1511   -0.9279 C   0  0  0  0  0  0  0  0  0  0  0  0
   -4.7237    3.5969   -1.6223 H   0  0  0  0  0  0  0  0  0  0  0  0
   -3.1795    2.1035   -1.3759 C   0  0  0  0  0  0  0  0  0  0  0  0
   -3.2678    1.7027   -2.3936 H   0  0  0  0  0  0  0  0  0  0  0  0
   -1.5613   -2.6544    0.3929 C   0  0  0  0  0  0  0  0  0  0  0  0
   -2.8816   -2.1646    0.3008 C   0  0  0  0  0  0  0  0  0  0  0  0
   -3.2518   -1.7354   -0.6401 H   0  0  0  0  0  0  0  0  0  0  0  0
   -3.7456   -2.2599    1.4019 C   0  0  0  0  0  0  0  0  0  0  0  0
   -4.7751   -1.8803    1.3160 H   0  0  0  0  0  0  0  0  0  0  0  0
   -3.3051   -2.8352    2.6039 C   0  0  0  0  0  0  0  0  0  0  0  0
   -3.9845   -2.8970    3.4680 H   0  0  0  0  0  0  0  0  0  0  0  0
   -1.9976   -3.3427    2.6965 C   0  0  0  0  0  0  0  0  0  0  0  0
   -1.6498   -3.8054    3.6330 H   0  0  0  0  0  0  0  0  0  0  0  0
   -1.1391   -3.2647    1.5938 C   0  0  0  0  0  0  0  0  0  0  0  0
   -0.1190   -3.6746    1.6334 H   0  0  0  0  0  0  0  0  0  0  0  0
  1  8  1  0  0  0  0
  2  4  2  0  0  0  0
  3  7  2  0  0  0  0
  4  5  1  0  0  0  0
  4  1  1  0  0  0  0
  5  7  1  0  0  0  0
  6  5  1  0  0  0  0
  7 19  1  0  0  0  0
  8  9  1  0  0  0  0
  9 11  2  0  0  0  0
  9 10  1  0  0  0  0
 11 12  1  0  0  0  0
 13 14  1  0  0  0  0
 13 11  1  0  0  0  0
 15 13  2  0  0  0  0
 16 15  1  0  0  0  0
 17 15  1  0  0  0  0
 17  8  2  0  0  0  0
 18 17  1  0  0  0  0
 19 28  1  0  0  0  0
 20 19  2  0  0  0  0
 20 22  1  0  0  0  0
 21 20  1  0  0  0  0
 22 24  2  0  0  0  0
 23 22  1  0  0  0  0
 24 26  1  0  0  0  0
 24 25  1  0  0  0  0
 26 27  1  0  0  0  0
 28 29  1  0  0  0  0
 28 26  2  0  0  0  0
M  END
