3,10
 OpenBabel05122313053D

 32 33  0  0  1  0  0  0  0  0999 V2000
    1.6515    2.2037    1.0405 F   0  0  0  0  0  0  0  0  0  0  0  0
   -3.7014    2.2561    2.1776 F   0  0  0  0  0  0  0  0  0  0  0  0
   -2.0410   -0.2871   -0.8546 N   0  0  0  0  0  2  0  0  0  0  0  0
   -2.7442    0.4608    0.0595 C   0  0  2  0  0  3  0  0  0  0  0  0
   -1.9040    1.3565    0.8564 C   0  0  0  0  0  0  0  0  0  0  0  0
   -2.3679    2.2168    1.8776 C   0  0  0  0  0  0  0  0  0  0  0  0
   -1.5274    3.0517    2.6225 C   0  0  0  0  0  0  0  0  0  0  0  0
   -0.1407    3.0286    2.3208 C   0  0  0  0  0  0  0  0  0  0  0  0
    0.3091    2.1742    1.2984 C   0  0  0  0  0  0  0  0  0  0  0  0
   -0.5066    1.3186    0.5439 C   0  0  0  0  0  3  0  0  0  0  0  0
   -4.1429    0.3052    0.1522 C   0  0  0  0  0  0  0  0  0  0  0  0
   -4.6899    0.9051    0.8873 H   0  0  0  0  0  0  0  0  0  0  0  0
   -4.8385   -0.5965   -0.6628 C   0  0  0  0  0  0  0  0  0  0  0  0
   -4.0926   -1.3550   -1.6022 C   0  0  0  0  0  0  0  0  0  0  0  0
   -2.7098   -1.1509   -1.6463 C   0  0  0  0  0  0  0  0  0  0  0  0
   -2.0887   -1.7228   -2.3509 H   0  0  0  0  0  0  0  0  0  0  0  0
   -4.7475   -2.3532   -2.5173 C   0  0  0  0  0  0  0  0  0  0  0  0
   -5.2666   -3.1522   -1.9458 H   0  0  0  0  0  0  0  0  0  0  0  0
   -4.0060   -2.8408   -3.1795 H   0  0  0  0  0  0  0  0  0  0  0  0
   -5.5185   -1.8788   -3.1616 H   0  0  0  0  0  0  0  0  0  0  0  0
   -6.3291   -0.7608   -0.5436 C   0  0  0  0  0  0  0  0  0  0  0  0
   -6.7492   -0.0930    0.2321 H   0  0  0  0  0  0  0  0  0  0  0  0
   -6.6018   -1.8053   -0.2806 H   0  0  0  0  0  0  0  0  0  0  0  0
   -6.8427   -0.5390   -1.5035 H   0  0  0  0  0  0  0  0  0  0  0  0
   -2.0756    3.9399    3.7077 C   0  0  0  0  0  0  0  0  0  0  0  0
   -1.8535    5.0104    3.5105 H   0  0  0  0  0  0  0  0  0  0  0  0
   -1.6233    3.7026    4.6942 H   0  0  0  0  0  0  0  0  0  0  0  0
   -3.1708    3.8298    3.7999 H   0  0  0  0  0  0  0  0  0  0  0  0
    0.8229    3.8981    3.0833 C   0  0  0  0  0  0  0  0  0  0  0  0
    0.5625    4.9740    2.9882 H   0  0  0  0  0  0  0  0  0  0  0  0
    1.8562    3.7574    2.7207 H   0  0  0  0  0  0  0  0  0  0  0  0
    0.8019    3.6666    4.1696 H   0  0  0  0  0  0  0  0  0  0  0  0
  1  9  1  0  0  0  0
  3  4  1  0  0  0  0
  4 11  1  0  0  0  0
  4  5  1  1  0  0  0
  5  6  1  0  0  0  0
  6  2  1  0  0  0  0
  6  7  2  0  0  0  0
  7 25  1  0  0  0  0
  8  7  1  0  0  0  0
  8 29  1  0  0  0  0
  9  8  2  0  0  0  0
 10  5  2  0  0  0  0
 10  9  1  0  0  0  0
 11 12  1  0  0  0  0
 13 21  1  0  0  0  0
 13 11  2  0  0  0  0
 14 13  1  0  0  0  0
 15 14  2  0  0  0  0
 15  3  1  0  0  0  0
 16 15  1  0  0  0  0
 17 18  1  0  0  0  0
 17 14  1  0  0  0  0
 19 17  1  0  0  0  0
 20 17  1  0  0  0  0
 21 23  1  0  0  0  0
 21 22  1  0  0  0  0
 24 21  1  0  0  0  0
 25 28  1  0  0  0  0
 25 27  1  0  0  0  0
 26 25  1  0  0  0  0
 29 32  1  0  0  0  0
 30 29  1  0  0  0  0
 31 29  1  0  0  0  0
M  END
