2,5
 OpenBabel05122313053D

 27 26  0  0  0  0  0  0  0  0999 V2000
   -1.1235   -1.0282    2.1848 O   0  0  0  0  0  0  0  0  0  0  0  0
   -0.5594    1.5215    0.2323 N   0  0  0  0  0  0  0  0  0  0  0  0
   -1.9776    1.0342    0.2686 C   0  0  0  0  0  0  0  0  0  0  0  0
   -2.2236   -0.2600   -0.5382 C   0  0  0  0  0  0  0  0  0  0  0  0
   -1.0910   -1.2410   -0.2415 C   0  0  0  0  0  3  0  0  0  0  0  0
   -0.5891   -1.5485    1.0397 C   0  0  0  0  0  3  0  0  0  0  0  0
   -0.2031    2.1818    1.5105 C   0  0  0  0  0  0  0  0  0  0  0  0
   -0.3416    2.4834   -0.8776 C   0  0  0  0  0  0  0  0  0  0  0  0
   -2.2698   -0.0225   -2.0604 C   0  0  0  0  0  0  0  0  0  0  0  0
   -3.5721   -0.8598   -0.0790 C   0  0  0  0  0  0  0  0  0  0  0  0
   -0.5566   -1.2971    2.9325 H   0  0  0  0  0  0  0  0  0  0  0  0
   -2.2154    0.8298    1.3271 H   0  0  0  0  0  0  0  0  0  0  0  0
   -2.6534    1.8478   -0.0765 H   0  0  0  0  0  0  0  0  0  0  0  0
   -0.8859   -2.0051   -1.0103 H   0  0  0  0  0  0  0  0  0  0  0  0
    0.0607   -2.4330    1.1571 H   0  0  0  0  0  0  0  0  0  0  0  0
   -0.3413    1.4632    2.3387 H   0  0  0  0  0  0  0  0  0  0  0  0
   -0.8494    3.0724    1.6798 H   0  0  0  0  0  0  0  0  0  0  0  0
    0.8602    2.4816    1.4577 H   0  0  0  0  0  0  0  0  0  0  0  0
   -0.6136    2.0222   -1.8410 H   0  0  0  0  0  0  0  0  0  0  0  0
    0.7310    2.7502   -0.9013 H   0  0  0  0  0  0  0  0  0  0  0  0
   -0.9701    3.3876   -0.7158 H   0  0  0  0  0  0  0  0  0  0  0  0
   -2.9884    0.7811   -2.3199 H   0  0  0  0  0  0  0  0  0  0  0  0
   -2.5927   -0.9481   -2.5781 H   0  0  0  0  0  0  0  0  0  0  0  0
   -1.2744    0.2411   -2.4675 H   0  0  0  0  0  0  0  0  0  0  0  0
   -3.7765   -1.8059   -0.6183 H   0  0  0  0  0  0  0  0  0  0  0  0
   -4.4080   -0.1623   -0.2942 H   0  0  0  0  0  0  0  0  0  0  0  0
   -3.5667   -1.0751    1.0077 H   0  0  0  0  0  0  0  0  0  0  0  0
  1 11  1  0  0  0  0
  2  3  1  0  0  0  0
  2  7  1  0  0  0  0
  3 12  1  0  0  0  0
  4  5  1  0  0  0  0
  4 10  1  0  0  0  0
  4  3  1  0  0  0  0
  5  6  1  0  0  0  0
  6 15  1  0  0  0  0
  6  1  1  0  0  0  0
  7 17  1  0  0  0  0
  7 16  1  0  0  0  0
  8 21  1  0  0  0  0
  8  2  1  0  0  0  0
  9  4  1  0  0  0  0
 10 27  1  0  0  0  0
 13  3  1  0  0  0  0
 14  5  1  0  0  0  0
 18  7  1  0  0  0  0
 19  8  1  0  0  0  0
 20  8  1  0  0  0  0
 22  9  1  0  0  0  0
 23  9  1  0  0  0  0
 24  9  1  0  0  0  0
 25 10  1  0  0  0  0
 26 10  1  0  0  0  0
M  END
