1,29
 OpenBabel05122313053D

 29 31  0  0  1  0  0  0  0  0999 V2000
   -1.1574   -2.2603   -0.5492 C   0  0  0  0  0  2  0  0  0  0  0  0
   -0.7162   -3.3560   -1.2960 C   0  0  0  0  0  0  0  0  0  0  0  0
    0.3393   -3.4040   -1.6051 H   0  0  0  0  0  0  0  0  0  0  0  0
   -1.6310   -4.3703   -1.6393 C   0  0  0  0  0  0  0  0  0  0  0  0
   -1.2835   -5.2354   -2.2259 H   0  0  0  0  0  0  0  0  0  0  0  0
   -2.9820   -4.2989   -1.2476 C   0  0  0  0  0  0  0  0  0  0  0  0
   -3.6780   -5.1036   -1.5269 H   0  0  0  0  0  0  0  0  0  0  0  0
   -3.4423   -3.2029   -0.5071 C   0  0  0  0  0  0  0  0  0  0  0  0
   -4.4953   -3.1234   -0.1978 H   0  0  0  0  0  0  0  0  0  0  0  0
   -2.5265   -2.1893   -0.1639 C   0  0  0  0  0  0  0  0  0  0  0  0
   -2.8419   -0.9775    0.5726 C   0  0  0  0  0  0  0  0  0  0  0  0
   -4.0542   -0.6248    0.9970 O   0  0  0  0  0  0  0  0  0  0  0  0
   -3.8918    0.6383    1.7199 C   0  0  0  0  0  0  0  0  0  0  0  0
   -4.0931    0.4342    2.7901 H   0  0  0  0  0  0  0  0  0  0  0  0
   -4.6393    1.3509    1.3247 H   0  0  0  0  0  0  0  0  0  0  0  0
   -2.4156    1.0875    1.4534 C   0  0  2  0  0  0  0  0  0  0  0  0
   -1.8813    1.2817    2.4053 H   0  0  0  0  0  0  0  0  0  0  0  0
   -2.2868    2.3151    0.5690 C   0  0  0  0  0  0  0  0  0  0  0  0
   -2.1408    3.5820    1.1629 C   0  0  0  0  0  0  0  0  0  0  0  0
   -2.0697    3.6649    2.2589 H   0  0  0  0  0  0  0  0  0  0  0  0
   -2.0578    4.7345    0.3679 C   0  0  0  0  0  0  0  0  0  0  0  0
   -1.9332    5.7189    0.8434 H   0  0  0  0  0  0  0  0  0  0  0  0
   -2.1098    4.6284   -1.0311 C   0  0  0  0  0  0  0  0  0  0  0  0
   -2.0284    5.5298   -1.6568 H   0  0  0  0  0  0  0  0  0  0  0  0
   -2.2485    3.3661   -1.6290 C   0  0  0  0  0  0  0  0  0  0  0  0
   -2.2716    3.2739   -2.7251 H   0  0  0  0  0  0  0  0  0  0  0  0
   -2.3421    2.2150   -0.8334 C   0  0  0  0  0  0  0  0  0  0  0  0
   -2.4298    1.2278   -1.3124 H   0  0  0  0  0  0  0  0  0  0  0  0
   -1.8795   -0.1235    0.8324 N   0  0  0  0  0  2  0  0  0  0  0  0
  1 10  1  0  0  0  0
  2  1  1  0  0  0  0
  3  2  1  0  0  0  0
  4  2  2  0  0  0  0
  4  6  1  0  0  0  0
  5  4  1  0  0  0  0
  6  8  2  0  0  0  0
  7  6  1  0  0  0  0
  8  9  1  0  0  0  0
  8 10  1  0  0  0  0
 10 11  2  0  0  0  0
 11 29  1  0  0  0  0
 11 12  1  0  0  0  0
 12 13  1  0  0  0  0
 13 14  1  0  0  0  0
 15 13  1  0  0  0  0
 16 13  1  0  0  0  0
 16 17  1  1  0  0  0
 18 19  1  0  0  0  0
 18 16  1  0  0  0  0
 19 20  1  0  0  0  0
 21 22  1  0  0  0  0
 21 19  2  0  0  0  0
 23 21  1  0  0  0  0
 24 23  1  0  0  0  0
 25 23  2  0  0  0  0
 25 27  1  0  0  0  0
 26 25  1  0  0  0  0
 27 18  2  0  0  0  0
 28 27  1  0  0  0  0
 29 16  1  0  0  0  0
M  END
