2,3
 OpenBabel05122313053D

 26 26  0  0  0  0  0  0  0  0999 V2000
    4.7337   -1.0499    0.2934 O   0  0  0  0  0  0  0  0  0  0  0  0
   -0.6596    2.2019    0.0419 N   0  0  0  0  0  0  0  0  0  0  0  0
    1.4184    0.3678   -0.1269 C   0  0  0  0  0  3  0  0  0  0  0  0
    1.6982    1.7143   -0.4734 C   0  0  0  0  0  0  0  0  0  0  0  0
    3.0340    2.1322   -0.5520 C   0  0  0  0  0  0  0  0  0  0  0  0
    4.0866    1.2345   -0.3091 C   0  0  0  0  0  0  0  0  0  0  0  0
    3.7978   -0.1032    0.0327 C   0  0  0  0  0  0  0  0  0  0  0  0
    2.4501   -0.5300    0.1319 C   0  0  0  0  0  0  0  0  0  0  0  0
    0.5272    2.6076   -0.7793 C   0  0  0  0  0  0  0  0  0  0  0  0
   -1.9137    2.7440   -0.5259 C   0  0  0  0  0  0  0  0  0  0  0  0
   -0.5076    2.6251    1.4570 C   0  0  0  0  0  0  0  0  0  0  0  0
    6.1013   -0.6938    0.2097 C   0  0  0  0  0  0  0  0  0  0  0  0
    3.2696    3.1772   -0.8106 H   0  0  0  0  0  0  0  0  0  0  0  0
    5.1229    1.5891   -0.3801 H   0  0  0  0  0  0  0  0  0  0  0  0
    2.2703   -1.5732    0.4305 H   0  0  0  0  0  0  0  0  0  0  0  0
    0.7468    3.6835   -0.5988 H   0  0  0  0  0  0  0  0  0  0  0  0
    0.2197    2.5067   -1.8423 H   0  0  0  0  0  0  0  0  0  0  0  0
   -2.7605    2.4754    0.1315 H   0  0  0  0  0  0  0  0  0  0  0  0
   -2.0908    2.3241   -1.5334 H   0  0  0  0  0  0  0  0  0  0  0  0
   -1.8482    3.8519   -0.5903 H   0  0  0  0  0  0  0  0  0  0  0  0
   -1.3479    2.2213    2.0540 H   0  0  0  0  0  0  0  0  0  0  0  0
   -0.5158    3.7353    1.5160 H   0  0  0  0  0  0  0  0  0  0  0  0
    0.4514    2.2437    1.8521 H   0  0  0  0  0  0  0  0  0  0  0  0
    6.6766   -1.6066    0.4503 H   0  0  0  0  0  0  0  0  0  0  0  0
    6.3670    0.1040    0.9392 H   0  0  0  0  0  0  0  0  0  0  0  0
    6.3775   -0.3506   -0.8125 H   0  0  0  0  0  0  0  0  0  0  0  0
  2 11  1  0  0  0  0
  3  8  1  0  0  0  0
  4  3  2  0  0  0  0
  5  4  1  0  0  0  0
  5  6  2  0  0  0  0
  6  7  1  0  0  0  0
  7  8  2  0  0  0  0
  7  1  1  0  0  0  0
  8 15  1  0  0  0  0
  9 16  1  0  0  0  0
  9  4  1  0  0  0  0
  9  2  1  0  0  0  0
 10  2  1  0  0  0  0
 10 18  1  0  0  0  0
 11 22  1  0  0  0  0
 11 23  1  0  0  0  0
 11 21  1  0  0  0  0
 12  1  1  0  0  0  0
 12 24  1  0  0  0  0
 12 25  1  0  0  0  0
 13  5  1  0  0  0  0
 14  6  1  0  0  0  0
 17  9  1  0  0  0  0
 19 10  1  0  0  0  0
 20 10  1  0  0  0  0
 26 12  1  0  0  0  0
M  END
