4,18
 OpenBabel05122313053D

 35 36  0  0  0  0  0  0  0  0999 V2000
    1.3227   -2.3694   -0.7389 O   0  0  0  0  0  0  0  0  0  0  0  0
    3.9538   -1.5587   -0.5466 O   0  0  0  0  0  0  0  0  0  0  0  0
    4.5535    1.0591    0.0165 O   0  0  0  0  0  0  0  0  0  0  0  0
   -1.5225    1.4267   -0.1736 N   0  0  0  0  0  2  0  0  0  0  0  0
   -2.7017    2.0555   -0.3229 C   0  0  0  0  0  0  0  0  0  0  0  0
   -3.5756    1.3878   -0.4272 H   0  0  0  0  0  0  0  0  0  0  0  0
   -2.7736    3.4464   -0.2937 C   0  0  0  0  0  0  0  0  0  0  0  0
   -3.7413    3.9496   -0.4235 H   0  0  0  0  0  0  0  0  0  0  0  0
   -1.5918    4.1596   -0.0705 C   0  0  0  0  0  0  0  0  0  0  0  0
   -1.6183    5.2590   -0.0125 H   0  0  0  0  0  0  0  0  0  0  0  0
   -0.3532    3.5133    0.0887 C   0  0  0  0  0  0  0  0  0  0  0  0
   -0.3264    2.0865    0.0032 C   0  0  0  0  0  0  0  0  0  0  0  0
    0.8572    4.3742    0.3431 C   0  0  0  0  0  0  0  0  0  0  0  0
    1.5836    4.3292   -0.4941 H   0  0  0  0  0  0  0  0  0  0  0  0
    1.3921    4.0775    1.2673 H   0  0  0  0  0  0  0  0  0  0  0  0
    0.5502    5.4307    0.4575 H   0  0  0  0  0  0  0  0  0  0  0  0
    0.8352    1.1872    0.0254 C   0  0  0  0  0  0  0  0  0  0  0  0
    0.5597   -0.2002   -0.1372 C   0  0  0  0  0  2  0  0  0  0  0  0
    1.6149   -1.1110   -0.3583 C   0  0  0  0  0  0  0  0  0  0  0  0
    2.9657   -0.6650   -0.2690 C   0  0  0  0  0  0  0  0  0  0  0  0
    3.2354    0.7066   -0.0147 C   0  0  0  0  0  0  0  0  0  0  0  0
    2.1823    1.6199    0.1097 C   0  0  0  0  0  0  0  0  0  0  0  0
    2.4215    2.6744    0.2390 H   0  0  0  0  0  0  0  0  0  0  0  0
    1.9603   -3.4920   -0.1374 C   0  0  0  0  0  0  0  0  0  0  0  0
    1.1950   -4.2923   -0.1090 H   0  0  0  0  0  0  0  0  0  0  0  0
    2.2700   -3.2719    0.9062 H   0  0  0  0  0  0  0  0  0  0  0  0
    2.8419   -3.8194   -0.7239 H   0  0  0  0  0  0  0  0  0  0  0  0
    4.9577   -1.7877    0.4443 C   0  0  0  0  0  0  0  0  0  0  0  0
    5.5993   -2.5981    0.0506 H   0  0  0  0  0  0  0  0  0  0  0  0
    4.4986   -2.1229    1.4010 H   0  0  0  0  0  0  0  0  0  0  0  0
    5.5700   -0.8834    0.6288 H   0  0  0  0  0  0  0  0  0  0  0  0
    4.8816    2.4232    0.1929 C   0  0  0  0  0  0  0  0  0  0  0  0
    5.9855    2.4825    0.1894 H   0  0  0  0  0  0  0  0  0  0  0  0
    4.5012    2.8214    1.1607 H   0  0  0  0  0  0  0  0  0  0  0  0
    4.4844    3.0539   -0.6341 H   0  0  0  0  0  0  0  0  0  0  0  0
  1 19  1  0  0  0  0
  1 24  1  0  0  0  0
  2 20  1  0  0  0  0
  2 28  1  0  0  0  0
  3 32  1  0  0  0  0
  4 12  1  0  0  0  0
  5  7  2  0  0  0  0
  5  4  1  0  0  0  0
  6  5  1  0  0  0  0
  7  9  1  0  0  0  0
  8  7  1  0  0  0  0
  9 10  1  0  0  0  0
  9 11  2  0  0  0  0
 11 13  1  0  0  0  0
 12 17  2  0  0  0  0
 12 11  1  0  0  0  0
 13 16  1  0  0  0  0
 13 15  1  0  0  0  0
 14 13  1  0  0  0  0
 17 22  1  0  0  0  0
 18 17  1  0  0  0  0
 19 20  2  0  0  0  0
 19 18  1  0  0  0  0
 20 21  1  0  0  0  0
 21  3  1  0  0  0  0
 21 22  2  0  0  0  0
 22 23  1  0  0  0  0
 24 25  1  0  0  0  0
 24 26  1  0  0  0  0
 27 24  1  0  0  0  0
 28 31  1  0  0  0  0
 28 30  1  0  0  0  0
 29 28  1  0  0  0  0
 32 34  1  0  0  0  0
 33 32  1  0  0  0  0
 35 32  1  0  0  0  0
M  END
