1,2
 OpenBabel05122313053D

 64 67  0  0  1  0  0  0  0  0999 V2000
   -2.5881   -1.7989   -0.0952 N   0  0  0  0  0  2  0  0  0  0  0  0
   -0.2006   -0.3278   -0.2838 C   0  0  0  0  0  2  0  0  0  0  0  0
    0.6836    0.4789    0.3413 N   0  0  0  0  0  0  0  0  0  0  0  0
    0.2969   -1.5876   -0.2855 N   0  0  0  0  0  0  0  0  0  0  0  0
    0.4610    1.8359    0.7531 C   0  0  0  0  0  0  0  0  0  0  0  0
   -1.7700   -2.8817   -0.1423 C   0  0  2  0  0  3  0  0  0  0  0  0
   -4.2157   -3.0793    1.1281 C   0  0  0  0  0  0  0  0  0  0  0  0
   -5.1987   -3.1086    1.6191 H   0  0  0  0  0  0  0  0  0  0  0  0
   -0.4991    2.1100    1.7600 C   0  0  0  0  0  0  0  0  0  0  0  0
    2.6844   -1.8402   -0.9541 C   0  0  0  0  0  0  0  0  0  0  0  0
    2.4218   -2.7730   -1.4968 H   0  0  0  0  0  0  0  0  0  0  0  0
    2.5443   -1.0014   -1.6665 H   0  0  0  0  0  0  0  0  0  0  0  0
    1.7897   -0.3016    0.9318 C   0  0  0  0  0  0  0  0  0  0  0  0
    1.6294   -0.3916    2.0286 H   0  0  0  0  0  0  0  0  0  0  0  0
    2.7673    0.1914    0.7702 H   0  0  0  0  0  0  0  0  0  0  0  0
    1.6804   -1.6596    0.2101 C   0  0  1  0  0  0  0  0  0  0  0  0
    1.7919   -2.5021    0.9247 H   0  0  0  0  0  0  0  0  0  0  0  0
    1.2546    2.8562    0.1723 C   0  0  0  0  0  0  0  0  0  0  0  0
    1.0620    4.1748    0.6185 C   0  0  0  0  0  0  0  0  0  0  0  0
    1.6580    4.9863    0.1741 H   0  0  0  0  0  0  0  0  0  0  0  0
   -0.4462   -2.6988   -0.8545 C   0  0  0  0  0  0  0  0  0  0  0  0
    0.1617   -3.6181   -0.7608 H   0  0  0  0  0  0  0  0  0  0  0  0
   -0.6398   -2.5184   -1.9364 H   0  0  0  0  0  0  0  0  0  0  0  0
    0.1082    4.4738    1.5984 C   0  0  0  0  0  0  0  0  0  0  0  0
   -0.0384    5.5145    1.9249 H   0  0  0  0  0  0  0  0  0  0  0  0
    4.1150   -1.9028   -0.4769 C   0  0  0  0  0  0  0  0  0  0  0  0
   -1.3254    1.0253    2.4423 C   0  0  0  0  0  0  0  0  0  0  0  0
   -1.1079    0.0604    1.9415 H   0  0  0  0  0  0  0  0  0  0  0  0
    5.9216   -3.1034    0.6543 C   0  0  0  0  0  0  0  0  0  0  0  0
    6.2935   -4.0182    1.1405 H   0  0  0  0  0  0  0  0  0  0  0  0
   -0.6619    3.4501    2.1594 C   0  0  0  0  0  0  0  0  0  0  0  0
   -1.4094    3.6933    2.9298 H   0  0  0  0  0  0  0  0  0  0  0  0
    2.0157    3.3707   -2.1927 C   0  0  0  0  0  0  0  0  0  0  0  0
    0.9931    3.1666   -2.5638 H   0  0  0  0  0  0  0  0  0  0  0  0
    2.7429    3.0918   -2.9830 H   0  0  0  0  0  0  0  0  0  0  0  0
    2.1175    4.4616   -2.0173 H   0  0  0  0  0  0  0  0  0  0  0  0
    4.6116   -3.0616    0.1560 C   0  0  0  0  0  0  0  0  0  0  0  0
    3.9639   -3.9485    0.2522 H   0  0  0  0  0  0  0  0  0  0  0  0
   -3.7892   -1.8926    0.5219 C   0  0  0  0  0  0  0  0  0  0  0  0
   -4.4136   -0.9871    0.4587 H   0  0  0  0  0  0  0  0  0  0  0  0
   -3.3834   -4.2051    1.0879 C   0  0  0  0  0  0  0  0  0  0  0  0
   -3.6922   -5.1534    1.5524 H   0  0  0  0  0  0  0  0  0  0  0  0
   -2.1445   -4.1008    0.4397 C   0  0  0  0  0  0  0  0  0  0  0  0
   -1.4628   -4.9615    0.3778 H   0  0  0  0  0  0  0  0  0  0  0  0
    2.2850    2.5652   -0.9114 C   0  0  0  0  0  0  0  0  0  0  0  0
    2.1822    1.4938   -1.1819 H   0  0  0  0  0  0  0  0  0  0  0  0
    6.7596   -1.9833    0.5283 C   0  0  0  0  0  0  0  0  0  0  0  0
    7.7882   -2.0158    0.9180 H   0  0  0  0  0  0  0  0  0  0  0  0
    4.9682   -0.7880   -0.6013 C   0  0  0  0  0  0  0  0  0  0  0  0
    4.6010    0.1204   -1.1030 H   0  0  0  0  0  0  0  0  0  0  0  0
    6.2799   -0.8260   -0.1033 C   0  0  0  0  0  0  0  0  0  0  0  0
    6.9304    0.0549   -0.2132 H   0  0  0  0  0  0  0  0  0  0  0  0
   -0.9213    0.8764    3.9204 C   0  0  0  0  0  0  0  0  0  0  0  0
    0.1622    0.6635    4.0284 H   0  0  0  0  0  0  0  0  0  0  0  0
   -1.4853    0.0499    4.4002 H   0  0  0  0  0  0  0  0  0  0  0  0
   -1.1342    1.8034    4.4918 H   0  0  0  0  0  0  0  0  0  0  0  0
   -2.8359    1.2726    2.2916 C   0  0  0  0  0  0  0  0  0  0  0  0
   -3.1271    1.3562    1.2242 H   0  0  0  0  0  0  0  0  0  0  0  0
   -3.1495    2.2040    2.8061 H   0  0  0  0  0  0  0  0  0  0  0  0
   -3.4092    0.4359    2.7422 H   0  0  0  0  0  0  0  0  0  0  0  0
    3.7144    2.8037   -0.3915 C   0  0  0  0  0  0  0  0  0  0  0  0
    3.9409    2.1950    0.5080 H   0  0  0  0  0  0  0  0  0  0  0  0
    3.8627    3.8676   -0.1135 H   0  0  0  0  0  0  0  0  0  0  0  0
    4.4649    2.5594   -1.1722 H   0  0  0  0  0  0  0  0  0  0  0  0
  1 39  1  0  0  0  0
  2  3  1  0  0  0  0
  3  5  1  0  0  0  0
  3 13  1  0  0  0  0
  4  2  1  0  0  0  0
  4 16  1  0  0  0  0
  5  9  1  0  0  0  0
  6 21  1  6  0  0  0
  6  1  1  0  0  0  0
  6 43  1  0  0  0  0
  7  8  1  0  0  0  0
  9 31  2  0  0  0  0
  9 27  1  0  0  0  0
 10 26  1  0  0  0  0
 10 16  1  0  0  0  0
 11 10  1  0  0  0  0
 12 10  1  0  0  0  0
 13 14  1  0  0  0  0
 15 13  1  0  0  0  0
 16 17  1  1  0  0  0
 16 13  1  0  0  0  0
 18 19  1  0  0  0  0
 18  5  2  0  0  0  0
 19 24  2  0  0  0  0
 20 19  1  0  0  0  0
 21 22  1  0  0  0  0
 21  4  1  0  0  0  0
 23 21  1  0  0  0  0
 24 25  1  0  0  0  0
 24 31  1  0  0  0  0
 26 37  1  0  0  0  0
 27 53  1  0  0  0  0
 28 27  1  0  0  0  0
 29 30  1  0  0  0  0
 31 32  1  0  0  0  0
 33 36  1  0  0  0  0
 33 45  1  0  0  0  0
 34 33  1  0  0  0  0
 35 33  1  0  0  0  0
 37 38  1  0  0  0  0
 37 29  2  0  0  0  0
 39  7  2  0  0  0  0
 40 39  1  0  0  0  0
 41  7  1  0  0  0  0
 41 42  1  0  0  0  0
 43 41  2  0  0  0  0
 44 43  1  0  0  0  0
 45 61  1  0  0  0  0
 45 18  1  0  0  0  0
 46 45  1  0  0  0  0
 47 29  1  0  0  0  0
 47 48  1  0  0  0  0
 49 26  2  0  0  0  0
 49 51  1  0  0  0  0
 50 49  1  0  0  0  0
 51 47  2  0  0  0  0
 52 51  1  0  0  0  0
 53 54  1  0  0  0  0
 53 55  1  0  0  0  0
 53 56  1  0  0  0  0
 57 27  1  0  0  0  0
 57 60  1  0  0  0  0
 57 59  1  0  0  0  0
 58 57  1  0  0  0  0
 61 63  1  0  0  0  0
 61 62  1  0  0  0  0
 64 61  1  0  0  0  0
M  END
