3,5
 OpenBabel05122313053D

 23 25  0  0  1  0  0  0  0  0999 V2000
   -2.1229   -3.3730   -3.5719 F   0  0  0  0  0  0  0  0  0  0  0  0
    3.9534   -0.6174   -2.0496 S   0  0  0  0  0  0  0  0  0  0  0  0
    2.0040    0.0495   -0.4620 N   0  0  0  0  0  2  0  0  0  0  0  0
    1.1804   -1.3426   -2.2116 C   0  0  0  0  0  0  0  0  0  0  0  0
   -0.0590   -1.1904   -1.4970 C   0  0  0  0  0  3  0  0  0  0  0  0
   -1.1725   -1.9058   -1.9803 C   0  0  0  0  0  0  0  0  0  0  0  0
   -2.1535   -1.8504   -1.4869 H   0  0  0  0  0  0  0  0  0  0  0  0
   -1.0444   -2.7022   -3.1231 C   0  0  0  0  0  0  0  0  0  0  0  0
    0.1640   -2.8372   -3.8333 C   0  0  0  0  0  0  0  0  0  0  0  0
    0.1991   -3.4773   -4.7253 H   0  0  0  0  0  0  0  0  0  0  0  0
    1.2842   -2.1496   -3.3659 C   0  0  0  0  0  0  0  0  0  0  0  0
    2.2456   -2.2418   -3.8961 H   0  0  0  0  0  0  0  0  0  0  0  0
    2.2663   -0.6367   -1.5856 C   0  0  2  0  0  3  0  0  0  0  0  0
    4.3266    0.3424   -0.6242 C   0  0  0  0  0  0  0  0  0  0  0  0
    5.5749    0.8152   -0.1944 C   0  0  0  0  0  0  0  0  0  0  0  0
    6.4854    0.6214   -0.7794 H   0  0  0  0  0  0  0  0  0  0  0  0
    5.6282    1.5318    1.0091 C   0  0  0  0  0  0  0  0  0  0  0  0
    6.5967    1.9096    1.3687 H   0  0  0  0  0  0  0  0  0  0  0  0
    4.4600    1.7598    1.7689 C   0  0  0  0  0  0  0  0  0  0  0  0
    4.5325    2.3077    2.7202 H   0  0  0  0  0  0  0  0  0  0  0  0
    3.2120    1.2964    1.3408 C   0  0  0  0  0  0  0  0  0  0  0  0
    2.2931    1.4468    1.9234 H   0  0  0  0  0  0  0  0  0  0  0  0
    3.1399    0.5919    0.1228 C   0  0  0  0  0  0  0  0  0  0  0  0
  1  8  1  0  0  0  0
  2 13  1  0  0  0  0
  2 14  1  0  0  0  0
  3 23  1  0  0  0  0
  4  5  1  0  0  0  0
  6  5  2  0  0  0  0
  6  7  1  0  0  0  0
  8  6  1  0  0  0  0
  9 11  1  0  0  0  0
  9  8  2  0  0  0  0
 10  9  1  0  0  0  0
 11  4  2  0  0  0  0
 12 11  1  0  0  0  0
 13  4  1  1  0  0  0
 13  3  1  0  0  0  0
 14 15  2  0  0  0  0
 14 23  1  0  0  0  0
 15 17  1  0  0  0  0
 16 15  1  0  0  0  0
 17 18  1  0  0  0  0
 17 19  2  0  0  0  0
 19 20  1  0  0  0  0
 21 19  1  0  0  0  0
 21 22  1  0  0  0  0
 23 21  2  0  0  0  0
M  END
