4,10
 OpenBabel05122313053D

 17 17  0  0  0  0  0  0  0  0999 V2000
    4.7445   -0.9908    0.0730 Br  0  0  0  0  0  0  0  0  0  0  0  0
   -2.3096    2.6507    0.0279 O   0  0  0  0  0  1  0  0  0  0  0  0
   -0.0889    2.6941   -0.0268 N   0  0  0  0  0  0  0  0  0  0  0  0
   -1.2610    2.0083   -0.0396 N   0  0  0  0  0  2  0  0  0  0  0  0
    1.9490   -0.3540   -0.0293 C   0  0  0  0  0  0  0  0  0  0  0  0
    1.8230   -1.4423   -0.1110 H   0  0  0  0  0  0  0  0  0  0  0  0
    3.4629    1.5747    0.0844 C   0  0  0  0  0  0  0  0  0  0  0  0
    4.4841    1.9759    0.1312 H   0  0  0  0  0  0  0  0  0  0  0  0
    1.0640    1.8941    0.0016 C   0  0  0  0  0  0  0  0  0  0  0  0
    0.8344    0.4946   -0.0197 C   0  0  0  0  0  3  0  0  0  0  0  0
    3.2446    0.1883    0.0409 C   0  0  0  0  0  0  0  0  0  0  0  0
    2.3594    2.4390    0.0544 C   0  0  0  0  0  0  0  0  0  0  0  0
    2.5230    3.5259    0.0665 H   0  0  0  0  0  0  0  0  0  0  0  0
   -0.0834    4.1413    0.0028 C   0  0  0  0  0  0  0  0  0  0  0  0
    0.4971    4.5335   -0.8554 H   0  0  0  0  0  0  0  0  0  0  0  0
    0.3652    4.5104    0.9476 H   0  0  0  0  0  0  0  0  0  0  0  0
   -1.1336    4.4752   -0.0655 H   0  0  0  0  0  0  0  0  0  0  0  0
  3  9  1  0  0  0  0
  3 14  1  0  0  0  0
  4  3  1  0  0  0  0
  4  2  1  0  0  0  0
  5 10  2  0  0  0  0
  5 11  1  0  0  0  0
  6  5  1  0  0  0  0
  7  8  1  0  0  0  0
  9 12  2  0  0  0  0
 10  9  1  0  0  0  0
 11  1  1  0  0  0  0
 11  7  2  0  0  0  0
 12 13  1  0  0  0  0
 12  7  1  0  0  0  0
 14 16  1  0  0  0  0
 15 14  1  0  0  0  0
 17 14  1  0  0  0  0
M  END
