4,20
 OpenBabel05122313053D

 24 25  0  0  0  0  0  0  0  0999 V2000
   -3.6205   -3.3314   -1.8707 F   0  0  0  0  0  0  0  0  0  0  0  0
    0.8391   -4.4922   -2.8088 F   0  0  0  0  0  0  0  0  0  0  0  0
   -6.2086    0.0335    0.2071 O   0  0  0  0  0  0  0  0  0  0  0  0
   -2.0692    0.2562   -0.0469 N   0  0  0  0  0  2  0  0  0  0  0  0
   -2.7532    1.2522    0.5506 C   0  0  0  0  0  3  0  0  0  0  0  0
   -2.1435    2.0793    0.9407 H   0  0  0  0  0  0  0  0  0  0  0  0
   -4.1421    1.2585    0.6825 C   0  0  0  0  0  0  0  0  0  0  0  0
   -4.6259    2.1053    1.1834 H   0  0  0  0  0  0  0  0  0  0  0  0
   -4.8649    0.1657    0.1561 C   0  0  0  0  0  0  0  0  0  0  0  0
   -4.1563   -0.8749   -0.4721 C   0  0  0  0  0  0  0  0  0  0  0  0
   -4.7095   -1.7252   -0.8830 H   0  0  0  0  0  0  0  0  0  0  0  0
   -2.7580   -0.8243   -0.5704 C   0  0  0  0  0  0  0  0  0  0  0  0
   -1.8848   -1.8226   -1.1817 C   0  0  0  0  0  0  0  0  0  0  0  0
   -2.3039   -3.0221   -1.7981 C   0  0  0  0  0  0  0  0  0  0  0  0
   -1.4065   -3.9333   -2.3541 C   0  0  0  0  0  0  0  0  0  0  0  0
   -1.7610   -4.8575   -2.8269 H   0  0  0  0  0  0  0  0  0  0  0  0
   -0.0412   -3.6205   -2.2802 C   0  0  0  0  0  0  0  0  0  0  0  0
    0.4317   -2.4488   -1.6827 C   0  0  0  0  0  0  0  0  0  0  0  0
    1.5163   -2.2747   -1.6562 H   0  0  0  0  0  0  0  0  0  0  0  0
   -0.4793   -1.5287   -1.1278 C   0  0  0  0  0  3  0  0  0  0  0  0
   -6.9672    1.0593    0.8285 C   0  0  0  0  0  0  0  0  0  0  0  0
   -6.6963    1.1786    1.9007 H   0  0  0  0  0  0  0  0  0  0  0  0
   -8.0257    0.7498    0.7562 H   0  0  0  0  0  0  0  0  0  0  0  0
   -6.8383    2.0359    0.3119 H   0  0  0  0  0  0  0  0  0  0  0  0
  1 14  1  0  0  0  0
  2 17  1  0  0  0  0
  3 21  1  0  0  0  0
  4  5  1  0  0  0  0
  5  7  1  0  0  0  0
  5  6  1  0  0  0  0
  7  8  1  0  0  0  0
  9  3  1  0  0  0  0
  9  7  2  0  0  0  0
 10  9  1  0  0  0  0
 11 10  1  0  0  0  0
 12 10  2  0  0  0  0
 12  4  1  0  0  0  0
 13 20  1  0  0  0  0
 13 12  1  0  0  0  0
 14 13  2  0  0  0  0
 15 17  2  0  0  0  0
 15 14  1  0  0  0  0
 16 15  1  0  0  0  0
 17 18  1  0  0  0  0
 18 19  1  0  0  0  0
 18 20  2  0  0  0  0
 21 22  1  0  0  0  0
 23 21  1  0  0  0  0
 24 21  1  0  0  0  0
M  END
