4,19
 OpenBabel05122313053D

 21 22  0  0  0  0  0  0  0  0999 V2000
   -3.2810   -3.9170    0.5768 F   0  0  0  0  0  0  0  0  0  0  0  0
   -2.0373   -5.6317    0.0424 F   0  0  0  0  0  0  0  0  0  0  0  0
   -1.5455   -4.4362    1.7977 F   0  0  0  0  0  0  0  0  0  0  0  0
    0.9507    0.5386   -1.8417 N   0  0  0  0  0  2  0  0  0  0  0  0
   -1.1541   -3.7128   -1.6505 N   0  0  0  0  0  0  0  0  0  0  0  0
   -0.6068   -2.4047    0.2964 N   0  0  0  0  0  0  0  0  0  0  0  0
    1.5647    1.6195   -2.3654 C   0  0  0  0  0  3  0  0  0  0  0  0
    1.7967    2.4193   -1.6465 H   0  0  0  0  0  0  0  0  0  0  0  0
    1.8842    1.6945   -3.7230 C   0  0  0  0  0  0  0  0  0  0  0  0
    2.3846    2.5917   -4.1121 H   0  0  0  0  0  0  0  0  0  0  0  0
    1.5665    0.6104   -4.5571 C   0  0  0  0  0  0  0  0  0  0  0  0
    1.8121    0.6382   -5.6289 H   0  0  0  0  0  0  0  0  0  0  0  0
    0.9468   -0.5156   -4.0057 C   0  0  0  0  0  0  0  0  0  0  0  0
    0.7045   -1.3878   -4.6283 H   0  0  0  0  0  0  0  0  0  0  0  0
    0.6478   -0.5425   -2.6327 C   0  0  0  0  0  0  0  0  0  0  0  0
    0.0392   -1.6440   -1.8917 C   0  0  0  0  0  0  0  0  0  0  0  0
   -0.5348   -2.8066   -2.4231 C   0  0  0  0  0  0  0  0  0  0  0  0
   -0.5252   -3.0121   -3.5097 H   0  0  0  0  0  0  0  0  0  0  0  0
   -0.0146   -1.4684   -0.4670 C   0  0  0  0  0  3  0  0  0  0  0  0
   -1.1575   -3.4439   -0.3377 C   0  0  0  0  0  0  0  0  0  0  0  0
   -1.9972   -4.3805    0.5315 C   0  0  0  0  0  0  0  0  0  0  0  0
  2 21  1  0  0  0  0
  5 20  1  0  0  0  0
  7  4  1  0  0  0  0
  7  8  1  0  0  0  0
  9  7  1  0  0  0  0
 10  9  1  0  0  0  0
 11 13  1  0  0  0  0
 11  9  2  0  0  0  0
 12 11  1  0  0  0  0
 13 15  2  0  0  0  0
 14 13  1  0  0  0  0
 15 16  1  0  0  0  0
 15  4  1  0  0  0  0
 16 19  2  0  0  0  0
 17 16  1  0  0  0  0
 17  5  2  0  0  0  0
 18 17  1  0  0  0  0
 19  6  1  0  0  0  0
 20  6  2  0  0  0  0
 20 21  1  0  0  0  0
 21  1  1  0  0  0  0
 21  3  1  0  0  0  0
M  END
