1,24
 OpenBabel05122313053D

 24 25  0  0  1  0  0  0  0  0999 V2000
    2.3353   -1.1143    0.3178 C   0  0  0  0  0  2  0  0  0  0  0  0
    3.3340   -0.9092   -0.5906 N   0  0  0  0  0  0  0  0  0  0  0  0
    2.7913   -2.1277    1.1074 N   0  0  0  0  0  0  0  0  0  0  0  0
    4.3986   -1.7765   -0.3862 C   0  0  0  0  0  0  0  0  0  0  0  0
    5.2956   -1.7794   -1.0127 H   0  0  0  0  0  0  0  0  0  0  0  0
    4.0473   -2.5563    0.6873 C   0  0  0  0  0  0  0  0  0  0  0  0
    4.5835   -3.3707    1.1834 H   0  0  0  0  0  0  0  0  0  0  0  0
    2.0958   -2.6359    2.2846 C   0  0  0  0  0  0  0  0  0  0  0  0
    2.7337   -2.5029    3.1804 H   0  0  0  0  0  0  0  0  0  0  0  0
    1.8281   -3.6994    2.1488 H   0  0  0  0  0  0  0  0  0  0  0  0
    1.1601   -2.0618    2.4016 H   0  0  0  0  0  0  0  0  0  0  0  0
    3.2515    0.2143   -1.5223 C   0  0  0  0  0  0  0  0  0  0  0  0
    4.1334    0.1922   -2.1882 H   0  0  0  0  0  0  0  0  0  0  0  0
    2.3332    0.0884   -2.1340 H   0  0  0  0  0  0  0  0  0  0  0  0
    3.1868    1.5288   -0.7654 C   0  0  2  0  0  3  0  0  0  0  0  0
    4.1751    2.5099   -0.9209 C   0  0  0  0  0  0  0  0  0  0  0  0
    4.9971    2.3457   -1.6331 H   0  0  0  0  0  0  0  0  0  0  0  0
    4.1041    3.6866   -0.1598 C   0  0  0  0  0  0  0  0  0  0  0  0
    4.8705    4.4686   -0.2686 H   0  0  0  0  0  0  0  0  0  0  0  0
    3.0446    3.8360    0.7415 C   0  0  0  0  0  0  0  0  0  0  0  0
    2.9425    4.7343    1.3669 H   0  0  0  0  0  0  0  0  0  0  0  0
    2.0832    2.8199    0.8395 C   0  0  0  0  0  0  0  0  0  0  0  0
    1.1988    2.9182    1.4900 H   0  0  0  0  0  0  0  0  0  0  0  0
    2.1468    1.6957    0.0945 N   0  0  0  0  0  2  0  0  0  0  0  0
  1  3  1  0  0  0  0
  2  4  1  0  0  0  0
  2  1  1  0  0  0  0
  3  8  1  0  0  0  0
  4  6  2  0  0  0  0
  5  4  1  0  0  0  0
  6  3  1  0  0  0  0
  6  7  1  0  0  0  0
  8 11  1  0  0  0  0
  8  9  1  0  0  0  0
 10  8  1  0  0  0  0
 12  2  1  0  0  0  0
 13 12  1  0  0  0  0
 14 12  1  0  0  0  0
 15 12  1  1  0  0  0
 15 24  1  0  0  0  0
 16 15  1  0  0  0  0
 16 18  2  0  0  0  0
 17 16  1  0  0  0  0
 18 20  1  0  0  0  0
 19 18  1  0  0  0  0
 20 22  2  0  0  0  0
 20 21  1  0  0  0  0
 22 23  1  0  0  0  0
 24 22  1  0  0  0  0
M  END
