11,19
 OpenBabel05122313053D

 20 21  0  0  0  0  0  0  0  0999 V2000
   -1.8281    2.2469    0.0001 C   0  0  0  0  0  0  0  0  0  0  0  0
   -2.8212    1.7706    0.0001 H   0  0  0  0  0  0  0  0  0  0  0  0
   -1.6556    3.6336    0.0001 C   0  0  0  0  0  0  0  0  0  0  0  0
   -2.5368    4.2889    0.0001 H   0  0  0  0  0  0  0  0  0  0  0  0
   -0.3479    4.1506    0.0001 C   0  0  0  0  0  0  0  0  0  0  0  0
   -0.1804    5.2381    0.0001 H   0  0  0  0  0  0  0  0  0  0  0  0
    0.7423    3.2784   -0.0000 C   0  0  0  0  0  0  0  0  0  0  0  0
    1.7752    3.6544   -0.0001 H   0  0  0  0  0  0  0  0  0  0  0  0
    0.5196    1.8850   -0.0000 C   0  0  0  0  0  0  0  0  0  0  0  0
    1.5197    0.8476   -0.0001 C   0  0  0  0  0  0  0  0  0  0  0  0
    1.1498   -0.5009   -0.0000 C   0  0  0  0  0  2  0  0  0  0  0  0
    2.2684   -1.3721    0.0000 C   0  0  0  0  0  0  0  0  0  0  0  0
    2.1951   -2.4683    0.0001 H   0  0  0  0  0  0  0  0  0  0  0  0
    3.4864   -0.6963    0.0001 C   0  0  0  0  0  0  0  0  0  0  0  0
    4.8653   -1.2757    0.0001 C   0  0  0  0  0  0  0  0  0  0  0  0
    5.4450   -0.9636    0.8936 H   0  0  0  0  0  0  0  0  0  0  0  0
    5.4447   -0.9645   -0.8939 H   0  0  0  0  0  0  0  0  0  0  0  0
    4.8049   -2.3804    0.0006 H   0  0  0  0  0  0  0  0  0  0  0  0
   -0.7732    1.4073    0.0000 N   0  0  0  0  0  2  0  0  0  0  0  0
    3.2552    1.0377   -0.0001 S   0  0  0  0  0  0  0  0  0  0  0  0
  1  3  2  0  0  0  0
  2  1  1  0  0  0  0
  3  4  1  0  0  0  0
  5  6  1  0  0  0  0
  5  3  1  0  0  0  0
  7  5  2  0  0  0  0
  8  7  1  0  0  0  0
  9  7  1  0  0  0  0
  9 19  1  0  0  0  0
 10  9  2  0  0  0  0
 10 11  1  0  0  0  0
 11 12  1  0  0  0  0
 12 14  2  0  0  0  0
 12 13  1  0  0  0  0
 14 15  1  0  0  0  0
 15 18  1  0  0  0  0
 15 16  1  0  0  0  0
 17 15  1  0  0  0  0
 19  1  1  0  0  0  0
 20 10  1  0  0  0  0
 20 14  1  0  0  0  0
M  END
