2,5
 OpenBabel05122313053D

 36 38  0  0  1  0  0  0  0  0999 V2000
    3.0583   -3.3197    2.9723 Cl  0  0  0  0  0  0  0  0  0  0  0  0
    1.7335   -1.1752   -0.6460 N   0  0  0  0  0  2  0  0  0  0  0  0
    2.1283   -1.7990    0.4233 C   0  0  0  0  0  0  0  0  0  0  0  0
    1.2499   -1.7843    1.5697 C   0  0  0  0  0  0  0  0  0  0  0  0
    0.0244   -1.0461    1.4158 C   0  0  0  0  0  2  0  0  0  0  0  0
   -0.8128   -0.9626    2.5409 C   0  0  0  0  0  0  0  0  0  0  0  0
   -0.4791   -1.5927    3.7547 C   0  0  0  0  0  0  0  0  0  0  0  0
    0.7051   -2.3286    3.8962 C   0  0  0  0  0  0  0  0  0  0  0  0
    1.5672   -2.4145    2.7964 C   0  0  0  0  0  0  0  0  0  0  0  0
    2.5933   -1.1495   -1.8536 C   0  0  2  0  0  0  0  0  0  0  0  0
    2.3710   -2.4361   -2.6507 C   0  0  0  0  0  0  0  0  0  0  0  0
    4.0308   -0.8224   -1.4811 C   0  0  0  0  0  0  0  0  0  0  0  0
    5.0535   -1.7597   -1.5834 C   0  0  0  0  0  0  0  0  0  0  0  0
    6.3815   -1.4567   -1.1792 C   0  0  0  0  0  0  0  0  0  0  0  0
    6.6845   -0.2102   -0.6604 C   0  0  0  0  0  0  0  0  0  0  0  0
    5.6742    0.7898   -0.5390 C   0  0  0  0  0  0  0  0  0  0  0  0
    5.9668    2.0804   -0.0074 C   0  0  0  0  0  0  0  0  0  0  0  0
    4.9801    3.0482    0.1025 C   0  0  0  0  0  0  0  0  0  0  0  0
    3.6584    2.7616   -0.3281 C   0  0  0  0  0  0  0  0  0  0  0  0
    3.3379    1.5154   -0.8490 C   0  0  0  0  0  0  0  0  0  0  0  0
    4.3267    0.4909   -0.9633 C   0  0  0  0  0  0  0  0  0  0  0  0
    1.2955   -2.5221   -2.8999 H   0  0  0  0  0  0  0  0  0  0  0  0
    2.6658   -3.3385   -2.0772 H   0  0  0  0  0  0  0  0  0  0  0  0
    2.9460   -2.4109   -3.5968 H   0  0  0  0  0  0  0  0  0  0  0  0
    7.7088    0.0295   -0.3349 H   0  0  0  0  0  0  0  0  0  0  0  0
    5.2205    4.0396    0.5159 H   0  0  0  0  0  0  0  0  0  0  0  0
    2.3089    1.3270   -1.1903 H   0  0  0  0  0  0  0  0  0  0  0  0
    3.1151   -2.2968    0.4627 H   0  0  0  0  0  0  0  0  0  0  0  0
   -1.7576   -0.4090    2.4964 H   0  0  0  0  0  0  0  0  0  0  0  0
   -1.1647   -1.5078    4.6126 H   0  0  0  0  0  0  0  0  0  0  0  0
    0.9682   -2.8255    4.8397 H   0  0  0  0  0  0  0  0  0  0  0  0
    2.1848   -0.3209   -2.4685 H   0  0  0  0  0  0  0  0  0  0  0  0
    4.8377   -2.7606   -1.9840 H   0  0  0  0  0  0  0  0  0  0  0  0
    7.1649   -2.2235   -1.2759 H   0  0  0  0  0  0  0  0  0  0  0  0
    6.9980    2.2939    0.3152 H   0  0  0  0  0  0  0  0  0  0  0  0
    2.8785    3.5357   -0.2572 H   0  0  0  0  0  0  0  0  0  0  0  0
  2  3  1  0  0  0  0
  3 28  1  0  0  0  0
  3  4  2  0  0  0  0
  4  9  1  0  0  0  0
  5  4  1  0  0  0  0
  5  6  1  0  0  0  0
  6  7  2  0  0  0  0
  7  8  1  0  0  0  0
  7 30  1  0  0  0  0
  8 31  1  0  0  0  0
  9  1  1  0  0  0  0
  9  8  2  0  0  0  0
 10 32  1  6  0  0  0
 10 12  1  0  0  0  0
 10  2  1  0  0  0  0
 11 23  1  0  0  0  0
 11 10  1  0  0  0  0
 12 21  1  0  0  0  0
 13 12  2  0  0  0  0
 13 14  1  0  0  0  0
 14 15  2  0  0  0  0
 15 16  1  0  0  0  0
 15 25  1  0  0  0  0
 16 17  1  0  0  0  0
 17 18  2  0  0  0  0
 17 35  1  0  0  0  0
 18 26  1  0  0  0  0
 19 36  1  0  0  0  0
 19 18  1  0  0  0  0
 20 19  2  0  0  0  0
 21 20  1  0  0  0  0
 21 16  2  0  0  0  0
 22 11  1  0  0  0  0
 24 11  1  0  0  0  0
 27 20  1  0  0  0  0
 29  6  1  0  0  0  0
 33 13  1  0  0  0  0
 34 14  1  0  0  0  0
M  END
