6,7
 OpenBabel05122313053D

 43 44  0  0  0  0  0  0  0  0999 V2000
    0.4878   -2.5660    0.0544 N   0  0  0  0  0  0  0  0  0  0  0  0
    1.5052   -2.6252    0.0683 H   0  0  0  0  0  0  0  0  0  0  0  0
   -1.3280   -1.1157   -0.0069 N   0  0  0  0  0  0  0  0  0  0  0  0
   -2.9812    0.5704   -0.1091 N   0  0  0  0  0  0  0  0  0  0  0  0
   -3.1054    1.5871   -0.1516 H   0  0  0  0  0  0  0  0  0  0  0  0
   -0.7064    1.1464   -0.0164 N   0  0  0  0  0  2  0  0  0  0  0  0
   -0.0100   -1.3157    0.0197 C   0  0  0  0  0  2  0  0  0  0  0  0
   -0.2432   -3.8614    0.0732 C   0  0  0  0  0  0  0  0  0  0  0  0
    0.8365   -4.9542    0.1074 C   0  0  0  0  0  0  0  0  0  0  0  0
    1.4885   -4.9004   -0.7891 H   0  0  0  0  0  0  0  0  0  0  0  0
    0.3650   -5.9556    0.1237 H   0  0  0  0  0  0  0  0  0  0  0  0
    1.4703   -4.8624    1.0138 H   0  0  0  0  0  0  0  0  0  0  0  0
   -1.0913   -4.0055   -1.2033 C   0  0  0  0  0  0  0  0  0  0  0  0
   -1.8325   -3.1885   -1.2748 H   0  0  0  0  0  0  0  0  0  0  0  0
   -1.6263   -4.9763   -1.1968 H   0  0  0  0  0  0  0  0  0  0  0  0
   -0.4470   -3.9681   -2.1044 H   0  0  0  0  0  0  0  0  0  0  0  0
   -1.1175   -3.9518    1.3369 C   0  0  0  0  0  0  0  0  0  0  0  0
   -0.4921   -3.8791    2.2490 H   0  0  0  0  0  0  0  0  0  0  0  0
   -1.6562   -4.9204    1.3590 H   0  0  0  0  0  0  0  0  0  0  0  0
   -1.8572   -3.1305    1.3596 H   0  0  0  0  0  0  0  0  0  0  0  0
   -1.6644    0.1969   -0.0321 C   0  0  0  0  0  0  0  0  0  0  0  0
   -4.1780   -0.1616   -0.1162 C   0  0  0  0  0  0  0  0  0  0  0  0
   -4.2558   -1.5692   -0.0305 C   0  0  0  0  0  0  0  0  0  0  0  0
   -3.3261   -2.1434    0.0417 H   0  0  0  0  0  0  0  0  0  0  0  0
   -5.5084   -2.1979   -0.0416 C   0  0  0  0  0  0  0  0  0  0  0  0
   -5.5500   -3.2961    0.0258 H   0  0  0  0  0  0  0  0  0  0  0  0
   -6.6962   -1.4565   -0.1368 C   0  0  0  0  0  0  0  0  0  0  0  0
   -7.6727   -1.9626   -0.1454 H   0  0  0  0  0  0  0  0  0  0  0  0
   -6.6189   -0.0567   -0.2215 C   0  0  0  0  0  0  0  0  0  0  0  0
   -7.5366    0.5463   -0.2968 H   0  0  0  0  0  0  0  0  0  0  0  0
   -5.3765    0.5857   -0.2113 C   0  0  0  0  0  0  0  0  0  0  0  0
   -5.3236    1.6846   -0.2777 H   0  0  0  0  0  0  0  0  0  0  0  0
   -1.0066    2.5261    0.0511 C   0  0  0  0  0  0  0  0  0  0  0  0
   -1.7473    3.0588    1.1335 C   0  0  0  0  0  0  0  0  0  0  0  0
   -2.0710    2.3884    1.9443 H   0  0  0  0  0  0  0  0  0  0  0  0
   -2.0422    4.4291    1.1851 C   0  0  0  0  0  0  0  0  0  0  0  0
   -2.6176    4.8290    2.0343 H   0  0  0  0  0  0  0  0  0  0  0  0
   -1.5861    5.2890    0.1737 C   0  0  0  0  0  0  0  0  0  0  0  0
   -1.8105    6.3652    0.2193 H   0  0  0  0  0  0  0  0  0  0  0  0
   -0.8278    4.7685   -0.8882 C   0  0  0  0  0  0  0  0  0  0  0  0
   -0.4520    5.4386   -1.6764 H   0  0  0  0  0  0  0  0  0  0  0  0
   -0.5374    3.4000   -0.9535 C   0  0  0  0  0  0  0  0  0  0  0  0
    0.0703    2.9862   -1.7692 H   0  0  0  0  0  0  0  0  0  0  0  0
  1  2  1  0  0  0  0
  1  8  1  0  0  0  0
  3  7  1  0  0  0  0
  4 21  1  0  0  0  0
  5  4  1  0  0  0  0
  6 33  1  0  0  0  0
  7  1  1  0  0  0  0
  8  9  1  0  0  0  0
  8 17  1  0  0  0  0
  9 11  1  0  0  0  0
  9 12  1  0  0  0  0
 10  9  1  0  0  0  0
 13 15  1  0  0  0  0
 13  8  1  0  0  0  0
 14 13  1  0  0  0  0
 16 13  1  0  0  0  0
 17 19  1  0  0  0  0
 17 20  1  0  0  0  0
 17 18  1  0  0  0  0
 21  6  1  0  0  0  0
 21  3  2  0  0  0  0
 22  4  1  0  0  0  0
 22 23  1  0  0  0  0
 23 24  1  0  0  0  0
 25 23  2  0  0  0  0
 25 26  1  0  0  0  0
 27 25  1  0  0  0  0
 28 27  1  0  0  0  0
 29 31  1  0  0  0  0
 29 27  2  0  0  0  0
 30 29  1  0  0  0  0
 31 22  2  0  0  0  0
 32 31  1  0  0  0  0
 33 34  1  0  0  0  0
 34 36  2  0  0  0  0
 34 35  1  0  0  0  0
 36 37  1  0  0  0  0
 38 39  1  0  0  0  0
 38 36  1  0  0  0  0
 40 38  2  0  0  0  0
 41 40  1  0  0  0  0
 42 40  1  0  0  0  0
 42 33  2  0  0  0  0
 43 42  1  0  0  0  0
M  END
