1,2
 OpenBabel05122313053D

 25 27  0  0  1  0  0  0  0  0999 V2000
    1.1499   -1.9385    0.9860 N   0  0  0  0  0  2  0  0  0  0  0  0
    0.7809    0.5900    1.5127 C   0  0  0  0  0  3  0  0  0  0  0  0
    0.1513    2.7554    0.7565 O   0  0  0  0  0  0  0  0  0  0  0  0
    1.3099   -1.6408    2.3201 C   0  0  2  0  0  3  0  0  0  0  0  0
    1.2549   -3.2148    0.5532 C   0  0  0  0  0  0  0  0  0  0  0  0
    1.0928   -3.3577   -0.5251 H   0  0  0  0  0  0  0  0  0  0  0  0
    0.2439    3.8736    3.2898 C   0  0  0  0  0  0  0  0  0  0  0  0
    0.2860    4.3003    4.3052 H   0  0  0  0  0  0  0  0  0  0  0  0
   -0.1613    4.1158    0.8710 C   0  0  0  0  0  0  0  0  0  0  0  0
    1.6081   -2.6728    3.2326 C   0  0  0  0  0  0  0  0  0  0  0  0
    1.7405   -2.4296    4.2953 H   0  0  0  0  0  0  0  0  0  0  0  0
    1.1043   -0.2303    2.6375 C   0  0  0  0  0  0  0  0  0  0  0  0
    1.5424   -4.2701    1.4202 C   0  0  0  0  0  0  0  0  0  0  0  0
    1.6195   -5.2923    1.0249 H   0  0  0  0  0  0  0  0  0  0  0  0
    0.5548    2.4782    3.1182 C   0  0  0  0  0  0  0  0  0  0  0  0
    1.1769    0.2847    3.9582 C   0  0  0  0  0  0  0  0  0  0  0  0
    1.4395   -0.3743    4.7988 H   0  0  0  0  0  0  0  0  0  0  0  0
    0.9091    1.6247    4.1965 C   0  0  0  0  0  0  0  0  0  0  0  0
    0.9586    2.0406    5.2138 H   0  0  0  0  0  0  0  0  0  0  0  0
   -0.0990    4.6574    2.2244 C   0  0  0  0  0  0  0  0  0  0  0  0
   -0.3426    5.7236    2.3274 H   0  0  0  0  0  0  0  0  0  0  0  0
    1.7278   -3.9909    2.7858 C   0  0  0  0  0  0  0  0  0  0  0  0
    1.9599   -4.7981    3.4963 H   0  0  0  0  0  0  0  0  0  0  0  0
    0.4954    1.9467    1.8027 C   0  0  0  0  0  0  0  0  0  0  0  0
   -0.4488    4.7173   -0.1459 O   0  0  0  0  0  0  0  0  0  0  0  0
  1  4  1  0  0  0  0
  2 24  2  0  0  0  0
  2 12  1  0  0  0  0
  3  9  1  0  0  0  0
  3 24  1  0  0  0  0
  4 12  1  1  0  0  0
  4 10  1  0  0  0  0
  5  1  1  0  0  0  0
  5 13  2  0  0  0  0
  6  5  1  0  0  0  0
  7  8  1  0  0  0  0
  9 20  1  0  0  0  0
 10 11  1  0  0  0  0
 12 16  2  0  0  0  0
 13 22  1  0  0  0  0
 14 13  1  0  0  0  0
 15  7  1  0  0  0  0
 15 18  2  0  0  0  0
 16 18  1  0  0  0  0
 16 17  1  0  0  0  0
 18 19  1  0  0  0  0
 20 21  1  0  0  0  0
 20  7  2  0  0  0  0
 22 10  2  0  0  0  0
 22 23  1  0  0  0  0
 24 15  1  0  0  0  0
 25  9  2  0  0  0  0
M  END
