4,9
 OpenBabel05122313053D

 28 29  0  0  0  0  0  0  0  0999 V2000
   -0.8479    2.1882   -1.9530 N   0  0  0  0  0  0  0  0  0  0  0  0
   -0.7910    3.4963   -2.0528 N   0  0  0  0  0  0  0  0  0  0  0  0
    3.0276    0.1486    0.7868 N   0  0  0  0  0  0  0  0  0  0  0  0
   -0.2475    1.8459   -0.7894 N   0  0  0  0  0  2  0  0  0  0  0  0
    1.9693    2.0103    1.1085 N   0  0  0  0  0  0  0  0  0  0  0  0
    3.9498    1.0563    1.2900 C   0  0  0  0  0  0  0  0  0  0  0  0
    4.9977    0.7914    1.4571 H   0  0  0  0  0  0  0  0  0  0  0  0
   -0.1530    4.0373   -0.9853 N   0  0  0  0  0  0  0  0  0  0  0  0
    1.7921    0.7211    0.6801 C   0  0  0  0  0  2  0  0  0  0  0  0
    0.1739    2.9977   -0.2161 C   0  0  0  0  0  0  0  0  0  0  0  0
    3.3996   -1.1841    0.3008 C   0  0  0  0  0  0  0  0  0  0  0  0
    2.4599   -1.7146    0.0816 H   0  0  0  0  0  0  0  0  0  0  0  0
    3.8890   -1.7301    1.1312 H   0  0  0  0  0  0  0  0  0  0  0  0
    3.2812    2.2355    1.4927 C   0  0  0  0  0  0  0  0  0  0  0  0
    3.6237    3.2009    1.8765 H   0  0  0  0  0  0  0  0  0  0  0  0
    0.9015    3.0191    1.0887 C   0  0  0  0  0  0  0  0  0  0  0  0
    1.3522    4.0171    1.2353 H   0  0  0  0  0  0  0  0  0  0  0  0
    0.2093    2.8208    1.9353 H   0  0  0  0  0  0  0  0  0  0  0  0
    4.2992   -1.1209   -0.9384 C   0  0  0  0  0  0  0  0  0  0  0  0
    4.5476   -2.1707   -1.2073 H   0  0  0  0  0  0  0  0  0  0  0  0
    5.2659   -0.6398   -0.6736 H   0  0  0  0  0  0  0  0  0  0  0  0
    3.6831   -0.4058   -2.1493 C   0  0  0  0  0  0  0  0  0  0  0  0
    3.4767    0.6554   -1.8866 H   0  0  0  0  0  0  0  0  0  0  0  0
    4.4500   -0.3690   -2.9519 H   0  0  0  0  0  0  0  0  0  0  0  0
    2.4034   -1.0507   -2.6866 C   0  0  0  0  0  0  0  0  0  0  0  0
    2.0767   -0.5638   -3.6265 H   0  0  0  0  0  0  0  0  0  0  0  0
    1.5612   -0.9435   -1.9666 H   0  0  0  0  0  0  0  0  0  0  0  0
    2.5495   -2.1318   -2.8957 H   0  0  0  0  0  0  0  0  0  0  0  0
  1  4  1  0  0  0  0
  2  1  2  0  0  0  0
  2  8  1  0  0  0  0
  3  6  1  0  0  0  0
  4 10  1  0  0  0  0
  5 14  1  0  0  0  0
  6  7  1  0  0  0  0
  6 14  2  0  0  0  0
  8 10  2  0  0  0  0
  9  3  1  0  0  0  0
  9  5  1  0  0  0  0
 10 16  1  0  0  0  0
 11  3  1  0  0  0  0
 11 13  1  0  0  0  0
 12 11  1  0  0  0  0
 14 15  1  0  0  0  0
 16  5  1  0  0  0  0
 16 17  1  0  0  0  0
 16 18  1  0  0  0  0
 19 21  1  0  0  0  0
 19 11  1  0  0  0  0
 20 19  1  0  0  0  0
 22 23  1  0  0  0  0
 22 19  1  0  0  0  0
 24 22  1  0  0  0  0
 25 22  1  0  0  0  0
 25 27  1  0  0  0  0
 26 25  1  0  0  0  0
 28 25  1  0  0  0  0
M  END
