1,2
 OpenBabel05122313053D

 31 32  0  0  1  0  0  0  0  0999 V2000
    1.0942   -1.9425   -0.2888 N   0  0  0  0  0  0  0  0  0  0  0  0
   -0.7392   -0.0137    0.0159 C   0  0  0  0  0  3  0  0  0  0  0  0
   -1.6690    0.9807   -0.2449 C   0  0  0  0  0  0  0  0  0  0  0  0
   -3.0699    0.6944   -0.2320 C   0  0  0  0  0  0  0  0  0  0  0  0
   -4.0465    1.6994   -0.4926 C   0  0  0  0  0  0  0  0  0  0  0  0
   -5.3996    1.3943   -0.4753 C   0  0  0  0  0  0  0  0  0  0  0  0
   -5.8342    0.0701   -0.1981 C   0  0  0  0  0  0  0  0  0  0  0  0
   -4.9089   -0.9314    0.0567 C   0  0  0  0  0  0  0  0  0  0  0  0
   -3.5119   -0.6504    0.0475 C   0  0  0  0  0  0  0  0  0  0  0  0
   -2.5325   -1.6562    0.2944 C   0  0  0  0  0  0  0  0  0  0  0  0
   -1.1796   -1.3531    0.2820 C   0  0  0  0  0  0  0  0  0  0  0  0
   -0.0916   -2.3531    0.5757 C   0  0  2  0  0  0  0  0  0  0  0  0
    0.2453   -2.3731    2.0689 C   0  0  0  0  0  0  0  0  0  0  0  0
    2.3308   -2.6672    0.0836 C   0  0  0  0  0  0  0  0  0  0  0  0
    0.7873   -2.2325   -1.7181 C   0  0  0  0  0  0  0  0  0  0  0  0
   -1.3592    2.0100   -0.4767 H   0  0  0  0  0  0  0  0  0  0  0  0
   -3.7093    2.7249   -0.7101 H   0  0  0  0  0  0  0  0  0  0  0  0
   -6.1433    2.1793   -0.6782 H   0  0  0  0  0  0  0  0  0  0  0  0
   -6.9102   -0.1585   -0.1874 H   0  0  0  0  0  0  0  0  0  0  0  0
   -5.2431   -1.9585    0.2702 H   0  0  0  0  0  0  0  0  0  0  0  0
   -2.8689   -2.6870    0.4924 H   0  0  0  0  0  0  0  0  0  0  0  0
   -0.3885   -3.3785    0.2568 H   0  0  0  0  0  0  0  0  0  0  0  0
    0.9712   -3.1632    2.3408 H   0  0  0  0  0  0  0  0  0  0  0  0
   -0.6869   -2.5674    2.6321 H   0  0  0  0  0  0  0  0  0  0  0  0
    0.6319   -1.3854    2.3955 H   0  0  0  0  0  0  0  0  0  0  0  0
    2.1478   -3.7637    0.0653 H   0  0  0  0  0  0  0  0  0  0  0  0
    2.6712   -2.3699    1.0898 H   0  0  0  0  0  0  0  0  0  0  0  0
    3.1227   -2.4285   -0.6481 H   0  0  0  0  0  0  0  0  0  0  0  0
    0.7207   -3.3314   -1.8738 H   0  0  0  0  0  0  0  0  0  0  0  0
    1.5908   -1.8239   -2.3579 H   0  0  0  0  0  0  0  0  0  0  0  0
   -0.1737   -1.7658   -1.9958 H   0  0  0  0  0  0  0  0  0  0  0  0
  1 14  1  0  0  0  0
  1 12  1  0  0  0  0
  2 11  1  0  0  0  0
  3  4  1  0  0  0  0
  3  2  2  0  0  0  0
  4  9  1  0  0  0  0
  5  6  1  0  0  0  0
  5  4  2  0  0  0  0
  6  7  2  0  0  0  0
  7 19  1  0  0  0  0
  7  8  1  0  0  0  0
  8 20  1  0  0  0  0
  9  8  2  0  0  0  0
  9 10  1  0  0  0  0
 10 21  1  0  0  0  0
 11 10  2  0  0  0  0
 11 12  1  0  0  0  0
 12 22  1  6  0  0  0
 12 13  1  0  0  0  0
 13 23  1  0  0  0  0
 13 25  1  0  0  0  0
 13 24  1  0  0  0  0
 14 27  1  0  0  0  0
 15  1  1  0  0  0  0
 16  3  1  0  0  0  0
 17  5  1  0  0  0  0
 18  6  1  0  0  0  0
 26 14  1  0  0  0  0
 28 14  1  0  0  0  0
 29 15  1  0  0  0  0
 30 15  1  0  0  0  0
 31 15  1  0  0  0  0
M  END
