4,5
 OpenBabel05122313053D

 32 34  0  0  1  0  0  0  0  0999 V2000
   -1.8685    2.3626    2.7083 F   0  0  0  0  0  0  0  0  0  0  0  0
   -1.1138    3.7451   -1.7361 F   0  0  0  0  0  0  0  0  0  0  0  0
   -2.6838    5.1571    0.2222 O   0  0  0  0  0  0  0  0  0  0  0  0
    2.1016    0.9148   -1.8299 N   0  0  0  0  0  2  0  0  0  0  0  0
    0.7034    1.3087    0.3500 C   0  0  0  0  0  3  0  0  0  0  0  0
   -0.0527    1.4227    1.5315 C   0  0  0  0  0  0  0  0  0  0  0  0
   -1.1494    2.2823    1.5717 C   0  0  0  0  0  0  0  0  0  0  0  0
   -1.5506    3.0773    0.4766 C   0  0  0  0  0  0  0  0  0  0  0  0
   -0.7466    3.0000   -0.6731 C   0  0  0  0  0  0  0  0  0  0  0  0
    0.3603    2.1328   -0.7753 C   0  0  0  0  0  0  0  0  0  0  0  0
    1.1751    1.9269   -1.9705 C   0  0  2  0  0  3  0  0  0  0  0  0
    1.0976    2.6263   -3.1943 C   0  0  0  0  0  0  0  0  0  0  0  0
    1.9480    2.2853   -4.2494 C   0  0  0  0  0  0  0  0  0  0  0  0
    2.8748    1.2433   -4.0820 C   0  0  0  0  0  0  0  0  0  0  0  0
    2.9186    0.5834   -2.8534 C   0  0  0  0  0  0  0  0  0  0  0  0
   -2.7641    3.9695    0.5183 C   0  0  0  0  0  0  0  0  0  0  0  0
   -4.0752    3.3417    0.8929 C   0  0  0  0  0  0  0  0  0  0  0  0
   -4.2697    1.9444    0.9321 C   0  0  0  0  0  0  0  0  0  0  0  0
   -5.5277    1.4142    1.2505 C   0  0  0  0  0  0  0  0  0  0  0  0
   -6.6010    2.2753    1.5330 C   0  0  0  0  0  0  0  0  0  0  0  0
   -6.4171    3.6689    1.4878 C   0  0  0  0  0  0  0  0  0  0  0  0
   -5.1633    4.1982    1.1640 C   0  0  0  0  0  0  0  0  0  0  0  0
    0.1785    0.8315    2.4282 H   0  0  0  0  0  0  0  0  0  0  0  0
    0.3654    3.4337   -3.2987 H   0  0  0  0  0  0  0  0  0  0  0  0
    1.8857    2.8317   -5.2023 H   0  0  0  0  0  0  0  0  0  0  0  0
    3.5572    0.9396   -4.8876 H   0  0  0  0  0  0  0  0  0  0  0  0
    3.6089   -0.2480   -2.6516 H   0  0  0  0  0  0  0  0  0  0  0  0
   -3.4341    1.2673    0.6978 H   0  0  0  0  0  0  0  0  0  0  0  0
   -5.6714    0.3235    1.2765 H   0  0  0  0  0  0  0  0  0  0  0  0
   -7.5872    1.8578    1.7880 H   0  0  0  0  0  0  0  0  0  0  0  0
   -7.2594    4.3427    1.7068 H   0  0  0  0  0  0  0  0  0  0  0  0
   -4.9884    5.2831    1.1101 H   0  0  0  0  0  0  0  0  0  0  0  0
  2  9  1  0  0  0  0
  3 16  2  0  0  0  0
  5  6  1  0  0  0  0
  6  7  2  0  0  0  0
  6 23  1  0  0  0  0
  7  1  1  0  0  0  0
  8 16  1  0  0  0  0
  8  7  1  0  0  0  0
  9  8  2  0  0  0  0
 10  9  1  0  0  0  0
 10  5  2  0  0  0  0
 11  4  1  0  0  0  0
 11 10  1  6  0  0  0
 12 11  1  0  0  0  0
 13 14  1  0  0  0  0
 13 12  2  0  0  0  0
 14 15  2  0  0  0  0
 15 27  1  0  0  0  0
 15  4  1  0  0  0  0
 16 17  1  0  0  0  0
 17 18  2  0  0  0  0
 17 22  1  0  0  0  0
 18 19  1  0  0  0  0
 19 29  1  0  0  0  0
 19 20  2  0  0  0  0
 20 30  1  0  0  0  0
 21 20  1  0  0  0  0
 21 31  1  0  0  0  0
 22 21  2  0  0  0  0
 24 12  1  0  0  0  0
 25 13  1  0  0  0  0
 26 14  1  0  0  0  0
 28 18  1  0  0  0  0
 32 22  1  0  0  0  0
M  END
