1,24
 OpenBabel05122313053D

 24 26  0  0  1  0  0  0  0  0999 V2000
    1.0641    0.4088   -0.2129 N   0  0  0  0  0  2  0  0  0  0  0  0
    2.4290    2.1315    0.1743 N   0  0  0  0  0  0  0  0  0  0  0  0
    2.7311    3.0789    0.3937 H   0  0  0  0  0  0  0  0  0  0  0  0
    2.3543   -0.0095   -0.4908 C   0  0  0  0  0  0  0  0  0  0  0  0
    2.8579   -1.2298   -0.9727 C   0  0  0  0  0  0  0  0  0  0  0  0
    2.1702   -2.0471   -1.2247 H   0  0  0  0  0  0  0  0  0  0  0  0
    4.2426   -1.3407   -1.1520 C   0  0  0  0  0  0  0  0  0  0  0  0
    4.6626   -2.2830   -1.5338 H   0  0  0  0  0  0  0  0  0  0  0  0
    5.1141   -0.2631   -0.8684 C   0  0  0  0  0  0  0  0  0  0  0  0
    6.1959   -0.3886   -1.0232 H   0  0  0  0  0  0  0  0  0  0  0  0
    4.6271    0.9698   -0.4096 C   0  0  0  0  0  0  0  0  0  0  0  0
    5.3038    1.8130   -0.2079 H   0  0  0  0  0  0  0  0  0  0  0  0
    3.2416    1.0812   -0.2326 C   0  0  0  0  0  0  0  0  0  0  0  0
    1.1262    1.7000    0.1584 C   0  0  1  0  0  3  0  0  0  0  0  0
   -0.1138    2.3833    0.4098 C   0  0  0  0  0  0  0  0  0  0  0  0
   -0.2470    3.7307    0.8073 C   0  0  0  0  0  0  0  0  0  0  0  0
    0.6440    4.3518    0.9989 H   0  0  0  0  0  0  0  0  0  0  0  0
   -1.5237    4.2805    0.9491 C   0  0  0  0  0  0  0  0  0  0  0  0
   -1.6466    5.3283    1.2604 H   0  0  0  0  0  0  0  0  0  0  0  0
   -2.6510    3.4824    0.6702 C   0  0  0  0  0  0  0  0  0  0  0  0
   -3.6590    3.9182    0.7597 H   0  0  0  0  0  0  0  0  0  0  0  0
   -2.5116    2.1437    0.2702 C   0  0  0  0  0  0  0  0  0  0  0  0
   -3.4172    1.5660    0.0316 H   0  0  0  0  0  0  0  0  0  0  0  0
   -1.2424    1.5385    0.1511 C   0  0  0  0  0  3  0  0  0  0  0  0
  1 14  1  0  0  0  0
  2  3  1  0  0  0  0
  4 13  1  0  0  0  0
  4  1  1  0  0  0  0
  5  4  2  0  0  0  0
  6  5  1  0  0  0  0
  7  5  1  0  0  0  0
  7  9  2  0  0  0  0
  8  7  1  0  0  0  0
  9 11  1  0  0  0  0
 10  9  1  0  0  0  0
 11 13  2  0  0  0  0
 11 12  1  0  0  0  0
 13  2  1  0  0  0  0
 14  2  1  0  0  0  0
 14 15  1  6  0  0  0
 15 16  1  0  0  0  0
 16 18  2  0  0  0  0
 16 17  1  0  0  0  0
 18 19  1  0  0  0  0
 20 21  1  0  0  0  0
 20 18  1  0  0  0  0
 22 20  2  0  0  0  0
 23 22  1  0  0  0  0
 24 22  1  0  0  0  0
 24 15  2  0  0  0  0
M  END
