3,6
 OpenBabel05122313053D

 27 28  0  0  0  0  0  0  0  0999 V2000
   -0.8609    2.7975   -0.4255 N   0  0  0  0  0  0  0  0  0  0  0  0
   -2.1922    1.0926   -0.2639 N   0  0  0  0  0  0  0  0  0  0  0  0
   -0.0157   -1.0048   -1.8612 N   0  0  0  0  0  0  0  0  0  0  0  0
    0.5725   -0.7731   -2.6734 H   0  0  0  0  0  0  0  0  0  0  0  0
    0.1918   -1.9900   -1.6410 H   0  0  0  0  0  0  0  0  0  0  0  0
   -0.8496    1.4248   -0.3573 C   0  0  0  0  0  2  0  0  0  0  0  0
   -2.1556    3.3011   -0.3639 C   0  0  0  0  0  0  0  0  0  0  0  0
   -2.3673    4.3735   -0.4130 H   0  0  0  0  0  0  0  0  0  0  0  0
   -2.9990    2.2319   -0.2609 C   0  0  0  0  0  0  0  0  0  0  0  0
   -4.0903    2.1728   -0.2233 H   0  0  0  0  0  0  0  0  0  0  0  0
    0.3187    3.6472   -0.5008 C   0  0  0  0  0  0  0  0  0  0  0  0
    1.1725    3.0214   -0.8150 H   0  0  0  0  0  0  0  0  0  0  0  0
    0.5373    4.1033    0.4858 H   0  0  0  0  0  0  0  0  0  0  0  0
    0.1523    4.4526   -1.2409 H   0  0  0  0  0  0  0  0  0  0  0  0
   -2.7065   -0.2341   -0.1463 C   0  0  0  0  0  0  0  0  0  0  0  0
   -3.5994   -0.5272    0.8981 C   0  0  0  0  0  0  0  0  0  0  0  0
   -3.8614    0.2585    1.6215 H   0  0  0  0  0  0  0  0  0  0  0  0
   -4.1291   -1.8182    1.0258 C   0  0  0  0  0  0  0  0  0  0  0  0
   -4.8238   -2.0437    1.8481 H   0  0  0  0  0  0  0  0  0  0  0  0
   -3.7688   -2.8174    0.1086 C   0  0  0  0  0  0  0  0  0  0  0  0
   -4.1822   -3.8319    0.2037 H   0  0  0  0  0  0  0  0  0  0  0  0
   -2.8958   -2.5117   -0.9451 C   0  0  0  0  0  0  0  0  0  0  0  0
   -2.6420   -3.2867   -1.6858 H   0  0  0  0  0  0  0  0  0  0  0  0
   -2.3600   -1.2190   -1.0996 C   0  0  0  0  0  0  0  0  0  0  0  0
   -1.4498   -0.9009   -2.2544 C   0  0  0  0  0  0  0  0  0  0  0  0
   -1.6619   -1.5914   -3.0975 H   0  0  0  0  0  0  0  0  0  0  0  0
   -1.6154    0.1331   -2.6135 H   0  0  0  0  0  0  0  0  0  0  0  0
  1  7  1  0  0  0  0
  1  6  1  0  0  0  0
  2  9  1  0  0  0  0
  2 15  1  0  0  0  0
  3  5  1  0  0  0  0
  4  3  1  0  0  0  0
  6  2  1  0  0  0  0
  7  9  2  0  0  0  0
  8  7  1  0  0  0  0
  9 10  1  0  0  0  0
 11  1  1  0  0  0  0
 11 13  1  0  0  0  0
 12 11  1  0  0  0  0
 14 11  1  0  0  0  0
 15 16  1  0  0  0  0
 16 18  2  0  0  0  0
 16 17  1  0  0  0  0
 18 19  1  0  0  0  0
 20 21  1  0  0  0  0
 20 18  1  0  0  0  0
 22 20  2  0  0  0  0
 23 22  1  0  0  0  0
 24 22  1  0  0  0  0
 24 15  2  0  0  0  0
 25  3  1  0  0  0  0
 25 24  1  0  0  0  0
 26 25  1  0  0  0  0
 27 25  1  0  0  0  0
M  END
