18,59
 OpenBabel05122313053D

 69 72  0  0  1  0  0  0  0  0999 V2000
   -6.3476   -1.4812   -1.3890 C   0  0  0  0  0  0  0  0  0  0  0  0
   -7.2346   -1.5302   -0.7268 H   0  0  0  0  0  0  0  0  0  0  0  0
   -6.3866   -2.3405   -2.0872 H   0  0  0  0  0  0  0  0  0  0  0  0
   -6.4486   -0.5581   -2.0006 H   0  0  0  0  0  0  0  0  0  0  0  0
   -5.0629   -1.4589   -0.6005 C   0  0  0  0  0  0  0  0  0  0  0  0
   -5.0091   -0.8643    0.6759 C   0  0  0  0  0  0  0  0  0  0  0  0
   -5.9265   -0.4404    1.1144 H   0  0  0  0  0  0  0  0  0  0  0  0
   -3.8063   -0.7848    1.3907 C   0  0  0  0  0  0  0  0  0  0  0  0
   -3.7479   -0.2986    2.3745 H   0  0  0  0  0  0  0  0  0  0  0  0
   -2.6411   -1.3071    0.8184 C   0  0  0  0  0  0  0  0  0  0  0  0
   -2.6608   -1.9129   -0.4473 C   0  0  0  0  0  0  0  0  0  0  0  0
   -1.7261   -2.2676   -0.9061 H   0  0  0  0  0  0  0  0  0  0  0  0
   -3.8714   -1.9870   -1.1439 C   0  0  0  0  0  0  0  0  0  0  0  0
   -3.8903   -2.4470   -2.1447 H   0  0  0  0  0  0  0  0  0  0  0  0
   -1.2961   -0.2515    2.8530 O   0  0  0  0  0  0  0  0  0  0  0  0
   -0.6689   -2.5778    2.0058 O   0  0  0  0  0  0  0  0  0  0  0  0
   -1.0793   -1.1792    1.7085 S   0  0  0  0  0  0  0  0  0  0  0  0
   -0.0287   -0.4883    0.6159 N   0  0  0  0  0  2  0  0  0  0  0  0
   -0.1128    0.9872    0.6373 C   0  0  2  0  0  0  0  0  0  0  0  0
    0.1148    1.3397    1.6676 H   0  0  0  0  0  0  0  0  0  0  0  0
   -1.4834    1.5659    0.2864 C   0  0  0  0  0  0  0  0  0  0  0  0
   -2.1610    2.3722    1.2176 C   0  0  0  0  0  0  0  0  0  0  0  0
   -1.6971    2.5650    2.1967 H   0  0  0  0  0  0  0  0  0  0  0  0
   -3.4276    2.8977    0.9213 C   0  0  0  0  0  0  0  0  0  0  0  0
   -3.9482    3.5232    1.6628 H   0  0  0  0  0  0  0  0  0  0  0  0
   -4.0334    2.6142   -0.3121 C   0  0  0  0  0  0  0  0  0  0  0  0
   -5.0321    3.0161   -0.5433 H   0  0  0  0  0  0  0  0  0  0  0  0
   -3.3633    1.8060   -1.2455 C   0  0  0  0  0  0  0  0  0  0  0  0
   -3.8370    1.5681   -2.2105 H   0  0  0  0  0  0  0  0  0  0  0  0
   -2.0957    1.2863   -0.9510 C   0  0  0  0  0  0  0  0  0  0  0  0
   -1.5801    0.6301   -1.6704 H   0  0  0  0  0  0  0  0  0  0  0  0
    0.9285    1.5320   -0.3434 C   0  0  1  0  0  0  0  0  0  0  0  0
    0.5640    1.2976   -1.3608 H   0  0  0  0  0  0  0  0  0  0  0  0
    1.1161    3.0369   -0.2481 C   0  0  0  0  0  0  0  0  0  0  0  0
    1.2341    3.7233    0.9794 C   0  0  0  0  0  0  0  0  0  0  0  0
    1.1751    3.1691    1.9273 H   0  0  0  0  0  0  0  0  0  0  0  0
    1.3985    5.1158    1.0123 C   0  0  0  0  0  0  0  0  0  0  0  0
    1.4835    5.6315    1.9809 H   0  0  0  0  0  0  0  0  0  0  0  0
    1.4409    5.8513   -0.1824 C   0  0  0  0  0  0  0  0  0  0  0  0
    1.5648    6.9446   -0.1552 H   0  0  0  0  0  0  0  0  0  0  0  0
    1.3074    5.1853   -1.4102 C   0  0  0  0  0  0  0  0  0  0  0  0
    1.3203    5.7540   -2.3524 H   0  0  0  0  0  0  0  0  0  0  0  0
    1.1440    3.7928   -1.4382 C   0  0  0  0  0  0  0  0  0  0  0  0
    1.0184    3.2736   -2.4013 H   0  0  0  0  0  0  0  0  0  0  0  0
    2.2080    0.7118   -0.2545 N   0  0  0  0  0  0  0  0  0  0  0  0
    3.0732    1.0736   -1.4009 C   0  0  0  0  0  0  0  0  0  0  0  0
    3.3413    2.1507   -1.3655 H   0  0  0  0  0  0  0  0  0  0  0  0
    2.5208    0.8464   -2.3318 H   0  0  0  0  0  0  0  0  0  0  0  0
    3.9993    0.4756   -1.3856 H   0  0  0  0  0  0  0  0  0  0  0  0
    2.9062    0.9482    1.0439 C   0  0  0  0  0  0  0  0  0  0  0  0
    2.1651    0.7644    1.8466 H   0  0  0  0  0  0  0  0  0  0  0  0
    3.1782    2.0251    1.0790 H   0  0  0  0  0  0  0  0  0  0  0  0
    4.1711    0.1326    1.3273 C   0  0  0  0  0  0  0  0  0  0  0  0
    4.6978    0.6525    2.1541 H   0  0  0  0  0  0  0  0  0  0  0  0
    4.8719    0.1890    0.4685 H   0  0  0  0  0  0  0  0  0  0  0  0
    3.9436   -1.3261    1.7552 C   0  0  0  0  0  0  0  0  0  0  0  0
    4.9284   -1.8037    1.9527 H   0  0  0  0  0  0  0  0  0  0  0  0
    3.3860   -1.3445    2.7138 H   0  0  0  0  0  0  0  0  0  0  0  0
    3.1818   -2.1460    0.7485 C   0  0  2  0  0  3  0  0  0  0  0  0
    3.5626   -2.1418   -0.6476 C   0  0  0  0  0  0  0  0  0  0  0  0
    4.4411   -1.5642   -0.9700 H   0  0  0  0  0  0  0  0  0  0  0  0
    2.7567   -2.7634   -1.6352 C   0  0  0  0  0  0  0  0  0  0  0  0
    2.9957   -2.6363   -2.6996 H   0  0  0  0  0  0  0  0  0  0  0  0
    1.5410   -3.4232   -1.2432 C   0  0  0  0  0  0  0  0  0  0  0  0
    0.8498   -3.7867   -2.0163 H   0  0  0  0  0  0  0  0  0  0  0  0
    1.1759   -3.4902    0.1232 C   0  0  0  0  0  0  0  0  0  0  0  0
    0.2081   -3.9032    0.4330 H   0  0  0  0  0  0  0  0  0  0  0  0
    1.9943   -2.8428    1.1186 C   0  0  0  0  0  3  0  0  0  0  0  0
    1.6192   -2.7987    2.1493 H   0  0  0  0  0  0  0  0  0  0  0  0
  1  2  1  0  0  0  0
  1  5  1  0  0  0  0
  3  1  1  0  0  0  0
  4  1  1  0  0  0  0
  5  6  1  0  0  0  0
  6  7  1  0  0  0  0
  6  8  2  0  0  0  0
  8  9  1  0  0  0  0
 10  8  1  0  0  0  0
 10 17  1  0  0  0  0
 11 10  2  0  0  0  0
 12 11  1  0  0  0  0
 13  5  2  0  0  0  0
 13 11  1  0  0  0  0
 14 13  1  0  0  0  0
 17 16  2  0  0  0  0
 17 15  2  0  0  0  0
 18 19  1  0  0  0  0
 18 17  1  0  0  0  0
 19 20  1  1  0  0  0
 21 19  1  0  0  0  0
 21 22  1  0  0  0  0
 22 23  1  0  0  0  0
 24 22  2  0  0  0  0
 24 25  1  0  0  0  0
 26 24  1  0  0  0  0
 27 26  1  0  0  0  0
 28 30  1  0  0  0  0
 28 26  2  0  0  0  0
 29 28  1  0  0  0  0
 30 21  2  0  0  0  0
 31 30  1  0  0  0  0
 32 33  1  6  0  0  0
 32 45  1  0  0  0  0
 32 34  1  0  0  0  0
 32 19  1  0  0  0  0
 34 35  1  0  0  0  0
 35 37  2  0  0  0  0
 35 36  1  0  0  0  0
 37 38  1  0  0  0  0
 39 40  1  0  0  0  0
 39 37  1  0  0  0  0
 41 39  2  0  0  0  0
 42 41  1  0  0  0  0
 43 41  1  0  0  0  0
 43 34  2  0  0  0  0
 44 43  1  0  0  0  0
 45 50  1  0  0  0  0
 46 49  1  0  0  0  0
 46 47  1  0  0  0  0
 46 45  1  0  0  0  0
 48 46  1  0  0  0  0
 50 52  1  0  0  0  0
 50 53  1  0  0  0  0
 50 51  1  0  0  0  0
 53 56  1  0  0  0  0
 53 54  1  0  0  0  0
 55 53  1  0  0  0  0
 56 57  1  0  0  0  0
 56 58  1  0  0  0  0
 59 68  1  0  0  0  0
 59 56  1  6  0  0  0
 60 59  1  0  0  0  0
 61 60  1  0  0  0  0
 62 64  1  0  0  0  0
 62 60  2  0  0  0  0
 63 62  1  0  0  0  0
 64 66  2  0  0  0  0
 65 64  1  0  0  0  0
 66 67  1  0  0  0  0
 66 68  1  0  0  0  0
 68 69  1  0  0  0  0
M  END
