22,23
 OpenBabel05122313053D

 23 25  0  0  1  0  0  0  0  0999 V2000
   -3.7119   -1.5450   -1.1309 O   0  0  0  0  0  0  0  0  0  0  0  0
   -3.2120    0.3315    0.0434 C   0  0  0  0  0  0  0  0  0  0  0  0
   -3.4973    1.5112    0.7505 C   0  0  0  0  0  0  0  0  0  0  0  0
   -2.6978    2.1261    1.1821 H   0  0  0  0  0  0  0  0  0  0  0  0
   -4.8492    1.8615    0.8827 C   0  0  0  0  0  0  0  0  0  0  0  0
   -5.1136    2.7774    1.4310 H   0  0  0  0  0  0  0  0  0  0  0  0
   -5.8841    1.0701    0.3340 C   0  0  0  0  0  0  0  0  0  0  0  0
   -6.9295    1.3852    0.4648 H   0  0  0  0  0  0  0  0  0  0  0  0
   -5.6114   -0.1132   -0.3738 C   0  0  0  0  0  0  0  0  0  0  0  0
   -6.4046   -0.7397   -0.8035 H   0  0  0  0  0  0  0  0  0  0  0  0
   -4.2653   -0.4461   -0.4960 C   0  0  0  0  0  0  0  0  0  0  0  0
   -2.3759   -1.4189   -0.9678 C   0  0  1  0  0  3  0  0  0  0  0  0
    1.0391   -2.6507   -1.5082 C   0  0  0  0  0  0  0  0  0  0  0  0
    2.0694   -2.3653   -1.2487 H   0  0  0  0  0  0  0  0  0  0  0  0
    0.8250   -3.8124   -2.2750 C   0  0  0  0  0  0  0  0  0  0  0  0
    1.6912   -4.4098   -2.5998 H   0  0  0  0  0  0  0  0  0  0  0  0
   -0.4734   -4.2282   -2.6264 C   0  0  0  0  0  0  0  0  0  0  0  0
   -0.6189   -5.1421   -3.2202 H   0  0  0  0  0  0  0  0  0  0  0  0
   -1.5771   -3.4744   -2.2149 C   0  0  0  0  0  0  0  0  0  0  0  0
   -2.6023   -3.7755   -2.4782 H   0  0  0  0  0  0  0  0  0  0  0  0
   -1.3573   -2.3100   -1.4498 C   0  0  0  0  0  0  0  0  0  0  0  0
   -0.0471   -1.8714   -1.0723 C   0  0  0  0  0  3  0  0  0  0  0  0
   -2.0291   -0.3275   -0.2839 N   0  0  0  0  0  2  0  0  0  0  0  0
  1 12  1  0  0  0  0
  1 11  1  0  0  0  0
  2  3  1  0  0  0  0
  3  5  2  0  0  0  0
  3  4  1  0  0  0  0
  5  6  1  0  0  0  0
  7  8  1  0  0  0  0
  7  5  1  0  0  0  0
  9  7  2  0  0  0  0
 10  9  1  0  0  0  0
 11  9  1  0  0  0  0
 11  2  2  0  0  0  0
 12 21  1  6  0  0  0
 12 23  1  0  0  0  0
 13 14  1  0  0  0  0
 13 22  1  0  0  0  0
 15 13  2  0  0  0  0
 16 15  1  0  0  0  0
 17 15  1  0  0  0  0
 17 19  2  0  0  0  0
 18 17  1  0  0  0  0
 19 21  1  0  0  0  0
 20 19  1  0  0  0  0
 21 22  2  0  0  0  0
 23  2  1  0  0  0  0
M  END
