1,2
 OpenBabel05122313053D

 33 35  0  0  1  0  0  0  0  0999 V2000
   -1.0427   -0.6469   -0.5396 N   0  0  0  0  0  2  0  0  0  0  0  0
    1.4124   -1.6270   -0.6278 C   0  0  1  0  0  3  0  0  0  0  0  0
    2.1432   -0.3916   -0.7710 C   0  0  0  0  0  0  0  0  0  0  0  0
    2.2903    0.5133   -1.8620 C   0  0  0  0  0  0  0  0  0  0  0  0
    1.8073    0.3010   -2.8274 H   0  0  0  0  0  0  0  0  0  0  0  0
    3.0773    1.6436   -1.6938 C   0  0  0  0  0  0  0  0  0  0  0  0
    3.2169    2.3384   -2.5357 H   0  0  0  0  0  0  0  0  0  0  0  0
    3.7198    1.9245   -0.4493 C   0  0  0  0  0  0  0  0  0  0  0  0
    4.3460    2.8251   -0.3619 H   0  0  0  0  0  0  0  0  0  0  0  0
    3.5577    1.0905    0.6460 C   0  0  0  0  0  0  0  0  0  0  0  0
    4.0387    1.3196    1.6087 H   0  0  0  0  0  0  0  0  0  0  0  0
    2.7504   -0.0749    0.5105 C   0  0  0  0  0  0  0  0  0  0  0  0
    2.3486   -1.1004    1.4355 C   0  0  0  0  0  0  0  0  0  0  0  0
    2.6210   -1.1551    2.4963 H   0  0  0  0  0  0  0  0  0  0  0  0
    1.5927   -2.0654    0.7151 C   0  0  0  0  0  0  0  0  0  0  0  0
    1.1339   -2.9610    1.1535 H   0  0  0  0  0  0  0  0  0  0  0  0
    0.4564   -2.2087   -1.6327 C   0  0  0  0  0  0  0  0  0  0  0  0
    0.6443   -3.2892   -1.8022 H   0  0  0  0  0  0  0  0  0  0  0  0
    0.5913   -1.6980   -2.6068 H   0  0  0  0  0  0  0  0  0  0  0  0
   -0.9786   -1.9847   -1.1252 C   0  0  0  0  0  0  0  0  0  0  0  0
   -1.7241   -2.0931   -1.9462 H   0  0  0  0  0  0  0  0  0  0  0  0
   -1.2302   -2.7707   -0.3711 H   0  0  0  0  0  0  0  0  0  0  0  0
   -2.2947   -0.0280   -0.4247 C   0  0  0  0  0  0  0  0  0  0  0  0
   -3.4956   -0.7626   -0.2346 C   0  0  0  0  0  0  0  0  0  0  0  0
   -3.4625   -1.8604   -0.1897 H   0  0  0  0  0  0  0  0  0  0  0  0
   -4.7183   -0.0985   -0.0764 C   0  0  0  0  0  0  0  0  0  0  0  0
   -5.6362   -0.6885    0.0725 H   0  0  0  0  0  0  0  0  0  0  0  0
   -4.7829    1.3053   -0.0934 C   0  0  0  0  0  0  0  0  0  0  0  0
   -5.7467    1.8195    0.0362 H   0  0  0  0  0  0  0  0  0  0  0  0
   -3.6045    2.0417   -0.2954 C   0  0  0  0  0  0  0  0  0  0  0  0
   -3.6405    3.1413   -0.3384 H   0  0  0  0  0  0  0  0  0  0  0  0
   -2.3799    1.3871   -0.4794 C   0  0  0  0  0  0  0  0  0  0  0  0
   -1.4669    1.9590   -0.6991 H   0  0  0  0  0  0  0  0  0  0  0  0
  1 23  1  0  0  0  0
  2 17  1  1  0  0  0
  2 15  1  0  0  0  0
  3  2  1  0  0  0  0
  3 12  1  0  0  0  0
  4  6  1  0  0  0  0
  4  3  2  0  0  0  0
  5  4  1  0  0  0  0
  6  8  2  0  0  0  0
  7  6  1  0  0  0  0
  8  9  1  0  0  0  0
  8 10  1  0  0  0  0
 10 11  1  0  0  0  0
 12 10  2  0  0  0  0
 12 13  1  0  0  0  0
 13 14  1  0  0  0  0
 15 16  1  0  0  0  0
 15 13  2  0  0  0  0
 17 20  1  0  0  0  0
 18 17  1  0  0  0  0
 19 17  1  0  0  0  0
 20  1  1  0  0  0  0
 20 22  1  0  0  0  0
 21 20  1  0  0  0  0
 23 24  1  0  0  0  0
 24 25  1  0  0  0  0
 24 26  2  0  0  0  0
 26 27  1  0  0  0  0
 28 26  1  0  0  0  0
 28 29  1  0  0  0  0
 30 28  2  0  0  0  0
 31 30  1  0  0  0  0
 32 23  2  0  0  0  0
 32 30  1  0  0  0  0
 33 32  1  0  0  0  0
M  END
