1,4
 OpenBabel05122313053D

 49 50  0  0  1  0  0  0  0  0999 V2000
    0.7444    0.3775   -0.3292 N   0  0  0  0  0  2  0  0  0  0  0  0
   -1.7977   -0.1615   -0.0523 N   0  0  0  0  0  0  0  0  0  0  0  0
   -0.4252   -0.4825   -0.3063 B   0  0  0  0  0  0  0  0  0  0  0  0
    0.2236   -1.9443   -0.3835 C   0  0  1  0  0  3  0  0  0  0  0  0
    1.2037   -2.3016   -1.3746 C   0  0  0  0  0  0  0  0  0  0  0  0
    1.2261   -1.9216   -2.4043 H   0  0  0  0  0  0  0  0  0  0  0  0
    2.2228   -3.0822   -0.7640 C   0  0  0  0  0  0  0  0  0  0  0  0
    3.1279   -3.4648   -1.2516 H   0  0  0  0  0  0  0  0  0  0  0  0
    1.8897   -3.2265    0.6174 C   0  0  0  0  0  0  0  0  0  0  0  0
    2.4988   -3.7298    1.3786 H   0  0  0  0  0  0  0  0  0  0  0  0
    0.6488   -2.5659    0.8385 C   0  0  0  0  0  0  0  0  0  0  0  0
    0.1733   -2.4215    1.8175 H   0  0  0  0  0  0  0  0  0  0  0  0
    1.8768    2.5152    0.0890 C   0  0  0  0  0  0  0  0  0  0  0  0
    2.5451    2.0221    0.8103 H   0  0  0  0  0  0  0  0  0  0  0  0
    1.9991    3.8858   -0.1701 C   0  0  0  0  0  0  0  0  0  0  0  0
    2.7867    4.4624    0.3386 H   0  0  0  0  0  0  0  0  0  0  0  0
    1.1247    4.5257   -1.0641 C   0  0  0  0  0  0  0  0  0  0  0  0
    1.2248    5.6029   -1.2639 H   0  0  0  0  0  0  0  0  0  0  0  0
    0.1239    3.7761   -1.7048 C   0  0  0  0  0  0  0  0  0  0  0  0
   -0.5627    4.2644   -2.4136 H   0  0  0  0  0  0  0  0  0  0  0  0
   -0.0061    2.4046   -1.4543 C   0  0  0  0  0  0  0  0  0  0  0  0
   -0.7841    1.8128   -1.9575 H   0  0  0  0  0  0  0  0  0  0  0  0
    0.8673    1.7542   -0.5485 C   0  0  0  0  0  0  0  0  0  0  0  0
   -2.2979    1.0541    1.1815 Si  0  0  0  0  0  0  0  0  0  0  0  0
   -0.8355    1.6003    2.2396 C   0  0  0  0  0  0  0  0  0  0  0  0
   -0.2224    2.3765    1.7446 H   0  0  0  0  0  0  0  0  0  0  0  0
   -0.1612    0.7638    2.5128 H   0  0  0  0  0  0  0  0  0  0  0  0
   -1.2373    2.0341    3.1791 H   0  0  0  0  0  0  0  0  0  0  0  0
   -3.1195    2.5658    0.4034 C   0  0  0  0  0  0  0  0  0  0  0  0
   -4.0000    2.2979   -0.2124 H   0  0  0  0  0  0  0  0  0  0  0  0
   -2.3983    3.1149   -0.2337 H   0  0  0  0  0  0  0  0  0  0  0  0
   -3.4601    3.2563    1.2030 H   0  0  0  0  0  0  0  0  0  0  0  0
   -3.5159    0.2025    2.3607 C   0  0  0  0  0  0  0  0  0  0  0  0
   -4.4325   -0.1783    1.8701 H   0  0  0  0  0  0  0  0  0  0  0  0
   -3.8321    0.9288    3.1382 H   0  0  0  0  0  0  0  0  0  0  0  0
   -3.0248   -0.6481    2.8764 H   0  0  0  0  0  0  0  0  0  0  0  0
   -2.9904   -1.2843   -0.8025 Si  0  0  0  0  0  0  0  0  0  0  0  0
   -2.3669   -1.8016   -2.5120 C   0  0  0  0  0  0  0  0  0  0  0  0
   -2.0814   -0.9156   -3.1157 H   0  0  0  0  0  0  0  0  0  0  0  0
   -3.1757   -2.3333   -3.0553 H   0  0  0  0  0  0  0  0  0  0  0  0
   -1.4940   -2.4800   -2.4565 H   0  0  0  0  0  0  0  0  0  0  0  0
   -4.6283   -0.3807   -1.0880 C   0  0  0  0  0  0  0  0  0  0  0  0
   -4.4870    0.4821   -1.7700 H   0  0  0  0  0  0  0  0  0  0  0  0
   -5.1106   -0.0122   -0.1625 H   0  0  0  0  0  0  0  0  0  0  0  0
   -5.3358   -1.0823   -1.5768 H   0  0  0  0  0  0  0  0  0  0  0  0
   -3.2575   -2.8178    0.2677 C   0  0  0  0  0  0  0  0  0  0  0  0
   -3.6538   -2.5551    1.2684 H   0  0  0  0  0  0  0  0  0  0  0  0
   -2.3006   -3.3601    0.4071 H   0  0  0  0  0  0  0  0  0  0  0  0
   -3.9766   -3.5116   -0.2155 H   0  0  0  0  0  0  0  0  0  0  0  0
  1  3  1  0  0  0  0
  2 24  1  0  0  0  0
  3  2  1  0  0  0  0
  4  3  1  1  0  0  0
  4 11  1  0  0  0  0
  5  7  2  0  0  0  0
  5  4  1  0  0  0  0
  6  5  1  0  0  0  0
  7  9  1  0  0  0  0
  8  7  1  0  0  0  0
  9 11  2  0  0  0  0
  9 10  1  0  0  0  0
 11 12  1  0  0  0  0
 13 14  1  0  0  0  0
 15 13  1  0  0  0  0
 15 16  1  0  0  0  0
 17 15  2  0  0  0  0
 18 17  1  0  0  0  0
 19 21  2  0  0  0  0
 19 17  1  0  0  0  0
 20 19  1  0  0  0  0
 21 23  1  0  0  0  0
 22 21  1  0  0  0  0
 23  1  1  0  0  0  0
 23 13  2  0  0  0  0
 24 25  1  0  0  0  0
 24 33  1  0  0  0  0
 25 27  1  0  0  0  0
 25 28  1  0  0  0  0
 26 25  1  0  0  0  0
 29 24  1  0  0  0  0
 29 32  1  0  0  0  0
 30 29  1  0  0  0  0
 31 29  1  0  0  0  0
 33 36  1  0  0  0  0
 33 35  1  0  0  0  0
 34 33  1  0  0  0  0
 37  2  1  0  0  0  0
 37 46  1  0  0  0  0
 38 41  1  0  0  0  0
 38 37  1  0  0  0  0
 39 38  1  0  0  0  0
 40 38  1  0  0  0  0
 42 37  1  0  0  0  0
 42 44  1  0  0  0  0
 43 42  1  0  0  0  0
 45 42  1  0  0  0  0
 46 48  1  0  0  0  0
 46 47  1  0  0  0  0
 49 46  1  0  0  0  0
M  END
