2,3
 OpenBabel05122313053D

 40 42  0  0  0  0  0  0  0  0999 V2000
   -3.5950    0.9789   -1.1690 Br  0  0  0  0  0  0  0  0  0  0  0  0
   -0.2032    0.4713   -1.5691 N   0  0  0  0  0  2  0  0  0  0  0  0
   -0.3867    0.5965    1.1943 C   0  0  0  0  0  2  0  0  0  0  0  0
   -1.2648   -0.1304    2.0194 C   0  0  0  0  0  0  0  0  0  0  0  0
   -1.2143   -1.2315    2.0156 H   0  0  0  0  0  0  0  0  0  0  0  0
   -2.2283    0.4973    2.8357 C   0  0  0  0  0  0  0  0  0  0  0  0
   -2.2848    1.9038    2.8337 C   0  0  0  0  0  0  0  0  0  0  0  0
   -3.0294    2.4219    3.4585 H   0  0  0  0  0  0  0  0  0  0  0  0
   -1.4073    2.6485    2.0357 C   0  0  0  0  0  0  0  0  0  0  0  0
   -1.4728    3.7481    2.0337 H   0  0  0  0  0  0  0  0  0  0  0  0
   -0.4624    2.0145    1.1977 C   0  0  0  0  0  0  0  0  0  0  0  0
    0.4327    2.8665    0.3659 C   0  0  0  0  0  0  0  0  0  0  0  0
    1.1595    3.9050    0.9874 C   0  0  0  0  0  0  0  0  0  0  0  0
    1.0989    3.9967    2.0822 H   0  0  0  0  0  0  0  0  0  0  0  0
    1.9530    4.7975    0.2537 C   0  0  0  0  0  0  0  0  0  0  0  0
    2.5188    5.5831    0.7773 H   0  0  0  0  0  0  0  0  0  0  0  0
    2.0148    4.6963   -1.1447 C   0  0  0  0  0  0  0  0  0  0  0  0
    2.6246    5.3990   -1.7315 H   0  0  0  0  0  0  0  0  0  0  0  0
    1.2832    3.6928   -1.7894 C   0  0  0  0  0  0  0  0  0  0  0  0
    1.3128    3.6109   -2.8872 H   0  0  0  0  0  0  0  0  0  0  0  0
    0.5236    2.7558   -1.0541 C   0  0  0  0  0  0  0  0  0  0  0  0
   -0.1989    1.7383   -1.8312 C   0  0  0  0  0  0  0  0  0  0  0  0
   -0.7428    2.0792   -2.7361 H   0  0  0  0  0  0  0  0  0  0  0  0
   -3.1670   -0.3322    3.6755 C   0  0  0  0  0  0  0  0  0  0  0  0
   -3.9112    0.2951    4.2038 H   0  0  0  0  0  0  0  0  0  0  0  0
   -2.6141   -0.9186    4.4396 H   0  0  0  0  0  0  0  0  0  0  0  0
   -3.7175   -1.0663    3.0500 H   0  0  0  0  0  0  0  0  0  0  0  0
   -0.9848   -0.4524   -2.4035 C   0  0  0  0  0  0  0  0  0  0  0  0
   -0.2471   -1.0934   -2.9296 H   0  0  0  0  0  0  0  0  0  0  0  0
   -1.5785    0.1243   -3.1442 H   0  0  0  0  0  0  0  0  0  0  0  0
   -1.8754   -1.3189   -1.5416 C   0  0  0  0  0  0  0  0  0  0  0  0
   -3.0380   -0.8282   -0.9119 C   0  0  0  0  0  0  0  0  0  0  0  0
   -3.4324   -2.9676    0.1552 C   0  0  0  0  0  0  0  0  0  0  0  0
   -4.0424   -3.6020    0.8161 H   0  0  0  0  0  0  0  0  0  0  0  0
   -2.2796   -3.4812   -0.4600 C   0  0  0  0  0  0  0  0  0  0  0  0
   -1.9741   -4.5233   -0.2850 H   0  0  0  0  0  0  0  0  0  0  0  0
   -1.5108   -2.6585   -1.2933 C   0  0  0  0  0  0  0  0  0  0  0  0
   -0.5830   -3.0349   -1.7523 H   0  0  0  0  0  0  0  0  0  0  0  0
   -3.8153   -1.6379   -0.0686 C   0  0  0  0  0  0  0  0  0  0  0  0
   -4.7124   -1.2201    0.4091 H   0  0  0  0  0  0  0  0  0  0  0  0
  1 32  1  0  0  0  0
  3 11  1  0  0  0  0
  3  4  1  0  0  0  0
  4  6  2  0  0  0  0
  5  4  1  0  0  0  0
  6 24  1  0  0  0  0
  7  6  1  0  0  0  0
  7  8  1  0  0  0  0
  9  7  2  0  0  0  0
 10  9  1  0  0  0  0
 11  9  1  0  0  0  0
 12 13  1  0  0  0  0
 12 11  2  0  0  0  0
 13 14  1  0  0  0  0
 15 16  1  0  0  0  0
 15 13  2  0  0  0  0
 17 15  1  0  0  0  0
 18 17  1  0  0  0  0
 19 17  2  0  0  0  0
 19 21  1  0  0  0  0
 20 19  1  0  0  0  0
 21 12  1  0  0  0  0
 22  2  1  0  0  0  0
 22 21  2  0  0  0  0
 23 22  1  0  0  0  0
 24 25  1  0  0  0  0
 24 26  1  0  0  0  0
 27 24  1  0  0  0  0
 28  2  1  0  0  0  0
 28 31  1  0  0  0  0
 29 28  1  0  0  0  0
 30 28  1  0  0  0  0
 31 37  2  0  0  0  0
 31 32  1  0  0  0  0
 32 39  2  0  0  0  0
 33 34  1  0  0  0  0
 35 36  1  0  0  0  0
 35 33  2  0  0  0  0
 37 35  1  0  0  0  0
 38 37  1  0  0  0  0
 39 33  1  0  0  0  0
 39 40  1  0  0  0  0
M  END
