23,26
 OpenBabel05122313053D

 26 28  0  0  0  0  0  0  0  0999 V2000
    2.1457    0.4717   -2.1071 C   0  0  0  0  0  3  0  0  0  0  0  0
    1.2765    0.7757   -2.7089 H   0  0  0  0  0  0  0  0  0  0  0  0
    3.4289    0.4175   -2.6030 C   0  0  0  0  0  0  0  0  0  0  0  0
    3.6311    0.7143   -3.6419 H   0  0  0  0  0  0  0  0  0  0  0  0
    4.4773   -0.0831   -1.7816 C   0  0  0  0  0  0  0  0  0  0  0  0
    4.1646   -0.4861   -0.4306 C   0  0  0  0  0  0  0  0  0  0  0  0
    2.8270   -0.2518    0.0604 C   0  0  0  0  0  0  0  0  0  0  0  0
    5.1859   -1.1522    0.3105 C   0  0  0  0  0  0  0  0  0  0  0  0
    4.9524   -1.5885    1.2870 H   0  0  0  0  0  0  0  0  0  0  0  0
    6.4616   -1.3212   -0.2115 C   0  0  0  0  0  0  0  0  0  0  0  0
    7.2223   -1.8525    0.3799 H   0  0  0  0  0  0  0  0  0  0  0  0
    6.7847   -0.8383   -1.5045 C   0  0  0  0  0  0  0  0  0  0  0  0
    7.8029   -0.9662   -1.9015 H   0  0  0  0  0  0  0  0  0  0  0  0
    5.8007   -0.2456   -2.2805 C   0  0  0  0  0  0  0  0  0  0  0  0
    6.0186    0.0876   -3.3068 H   0  0  0  0  0  0  0  0  0  0  0  0
    2.3089   -0.4556    1.4194 C   0  0  0  0  0  0  0  0  0  0  0  0
    3.1012   -0.6057    2.5862 C   0  0  0  0  0  0  0  0  0  0  0  0
    4.1915   -0.5045    2.5826 H   0  0  0  0  0  0  0  0  0  0  0  0
    2.4739   -0.8264    3.8100 C   0  0  0  0  0  0  0  0  0  0  0  0
    1.0787   -0.9031    3.9222 C   0  0  0  0  0  0  0  0  0  0  0  0
    0.5960   -1.0969    4.8897 H   0  0  0  0  0  0  0  0  0  0  0  0
    0.3175   -0.6962    2.7679 C   0  0  0  0  0  0  0  0  0  0  0  0
    0.8739   -0.4228    1.5033 C   0  0  0  0  0  3  0  0  0  0  0  0
    3.2258   -0.9618    4.9226 F   0  0  0  0  0  0  0  0  0  0  0  0
   -1.0275   -0.7344    2.9084 F   0  0  0  0  0  0  0  0  0  0  0  0
    1.8629    0.1553   -0.8097 N   0  0  0  0  0  2  0  0  0  0  0  0
  1 26  1  0  0  0  0
  2  1  1  0  0  0  0
  3  1  1  0  0  0  0
  3  5  2  0  0  0  0
  4  3  1  0  0  0  0
  5  6  1  0  0  0  0
  6  7  2  0  0  0  0
  6  8  1  0  0  0  0
  7 16  1  0  0  0  0
  8  9  1  0  0  0  0
 10  8  2  0  0  0  0
 10 11  1  0  0  0  0
 12 10  1  0  0  0  0
 13 12  1  0  0  0  0
 14  5  1  0  0  0  0
 14 12  2  0  0  0  0
 15 14  1  0  0  0  0
 16 23  2  0  0  0  0
 16 17  1  0  0  0  0
 17 19  2  0  0  0  0
 18 17  1  0  0  0  0
 19 20  1  0  0  0  0
 19 24  1  0  0  0  0
 20 21  1  0  0  0  0
 22 25  1  0  0  0  0
 22 20  2  0  0  0  0
 23 22  1  0  0  0  0
 26  7  1  0  0  0  0
M  END
