1,3
 OpenBabel05122313053D

 39 41  0  0  1  0  0  0  0  0999 V2000
    0.6082   -0.4835    0.1856 N   0  0  0  0  0  2  0  0  0  0  0  0
   -1.1769    0.1776    1.9131 C   0  0  1  0  0  3  0  0  0  0  0  0
   -1.3109    1.5845    1.7420 C   0  0  0  0  0  3  0  0  0  0  0  0
   -0.5963    2.3295    2.1141 H   0  0  0  0  0  0  0  0  0  0  0  0
   -2.4035    1.8561    0.8717 C   0  0  0  0  0  3  0  0  0  0  0  0
   -2.7130    2.8445    0.5125 H   0  0  0  0  0  0  0  0  0  0  0  0
   -3.0512    0.6052    0.5764 C   0  0  0  0  0  0  0  0  0  0  0  0
   -4.1991    0.2756   -0.1993 C   0  0  0  0  0  0  0  0  0  0  0  0
   -4.7862    1.0707   -0.6813 H   0  0  0  0  0  0  0  0  0  0  0  0
   -4.5465   -1.0578   -0.3376 C   0  0  0  0  0  0  0  0  0  0  0  0
   -5.4308   -1.3312   -0.9323 H   0  0  0  0  0  0  0  0  0  0  0  0
   -3.7741   -2.0944    0.2698 C   0  0  0  0  0  0  0  0  0  0  0  0
   -4.0830   -3.1411    0.1290 H   0  0  0  0  0  0  0  0  0  0  0  0
   -2.6512   -1.8087    1.0304 C   0  0  0  0  0  0  0  0  0  0  0  0
   -2.0716   -2.6139    1.5049 H   0  0  0  0  0  0  0  0  0  0  0  0
   -2.2776   -0.4457    1.2133 C   0  0  0  0  0  0  0  0  0  0  0  0
   -0.0021   -0.5289    2.5267 C   0  0  0  0  0  0  0  0  0  0  0  0
   -0.3144   -1.2351    3.3245 H   0  0  0  0  0  0  0  0  0  0  0  0
    0.6633    0.2240    2.9937 H   0  0  0  0  0  0  0  0  0  0  0  0
    0.7491   -1.2657    1.4063 C   0  0  0  0  0  0  0  0  0  0  0  0
    1.8229   -1.4072    1.6645 H   0  0  0  0  0  0  0  0  0  0  0  0
    0.3275   -2.2879    1.2558 H   0  0  0  0  0  0  0  0  0  0  0  0
    1.5815   -0.7616   -0.8903 C   0  0  2  0  0  0  0  0  0  0  0  0
    1.3543   -0.0313   -1.7026 H   0  0  0  0  0  0  0  0  0  0  0  0
    1.3894   -2.1635   -1.4775 C   0  0  0  0  0  0  0  0  0  0  0  0
    1.6152   -2.9567   -0.7370 H   0  0  0  0  0  0  0  0  0  0  0  0
    2.0476   -2.3173   -2.3549 H   0  0  0  0  0  0  0  0  0  0  0  0
    0.3395   -2.2756   -1.8097 H   0  0  0  0  0  0  0  0  0  0  0  0
    2.9995   -0.4447   -0.4033 C   0  0  0  0  0  0  0  0  0  0  0  0
    3.2643    0.8368    0.1273 C   0  0  0  0  0  0  0  0  0  0  0  0
    2.4537    1.5806    0.1538 H   0  0  0  0  0  0  0  0  0  0  0  0
    4.5403    1.1642    0.6033 C   0  0  0  0  0  0  0  0  0  0  0  0
    4.7293    2.1708    1.0072 H   0  0  0  0  0  0  0  0  0  0  0  0
    5.5777    0.2169    0.5606 C   0  0  0  0  0  0  0  0  0  0  0  0
    6.5803    0.4741    0.9347 H   0  0  0  0  0  0  0  0  0  0  0  0
    5.3256   -1.0573    0.0341 C   0  0  0  0  0  0  0  0  0  0  0  0
    6.1300   -1.8078   -0.0060 H   0  0  0  0  0  0  0  0  0  0  0  0
    4.0452   -1.3854   -0.4443 C   0  0  0  0  0  0  0  0  0  0  0  0
    3.8687   -2.3902   -0.8536 H   0  0  0  0  0  0  0  0  0  0  0  0
  1 20  1  0  0  0  0
  2 17  1  6  0  0  0
  3  2  1  0  0  0  0
  3  4  1  0  0  0  0
  5  3  1  0  0  0  0
  6  5  1  0  0  0  0
  7  5  1  0  0  0  0
  7 16  1  0  0  0  0
  8  7  2  0  0  0  0
  9  8  1  0  0  0  0
 10  8  1  0  0  0  0
 10 12  2  0  0  0  0
 11 10  1  0  0  0  0
 12 14  1  0  0  0  0
 13 12  1  0  0  0  0
 14 16  2  0  0  0  0
 14 15  1  0  0  0  0
 16  2  1  0  0  0  0
 17 19  1  0  0  0  0
 17 18  1  0  0  0  0
 20 21  1  0  0  0  0
 20 17  1  0  0  0  0
 22 20  1  0  0  0  0
 23 24  1  6  0  0  0
 23 29  1  0  0  0  0
 23  1  1  0  0  0  0
 25 23  1  0  0  0  0
 25 26  1  0  0  0  0
 27 25  1  0  0  0  0
 28 25  1  0  0  0  0
 29 30  1  0  0  0  0
 30 31  1  0  0  0  0
 30 32  2  0  0  0  0
 32 33  1  0  0  0  0
 34 32  1  0  0  0  0
 34 35  1  0  0  0  0
 36 34  2  0  0  0  0
 37 36  1  0  0  0  0
 38 29  2  0  0  0  0
 38 36  1  0  0  0  0
 39 38  1  0  0  0  0
M  END
