1,23
 OpenBabel05122313053D

 39 41  0  0  1  0  0  0  0  0999 V2000
    0.5321   -1.2829    1.0733 C   0  0  0  0  0  2  0  0  0  0  0  0
    0.3746   -1.7494    2.3452 N   0  0  0  0  0  0  0  0  0  0  0  0
    1.4485   -2.5469    2.7250 C   0  0  0  0  0  0  0  0  0  0  0  0
    1.5076   -3.0147    3.7121 H   0  0  0  0  0  0  0  0  0  0  0  0
    2.3200   -2.5745    1.6719 C   0  0  0  0  0  0  0  0  0  0  0  0
    3.2974   -3.0496    1.5538 H   0  0  0  0  0  0  0  0  0  0  0  0
    1.7517   -1.7812    0.6701 N   0  0  0  0  0  0  0  0  0  0  0  0
   -0.7875   -1.4822    3.1826 C   0  0  0  0  0  0  0  0  0  0  0  0
   -0.4622   -1.3811    4.2355 H   0  0  0  0  0  0  0  0  0  0  0  0
   -1.5318   -2.2956    3.0792 H   0  0  0  0  0  0  0  0  0  0  0  0
   -1.2608   -0.5462    2.8358 H   0  0  0  0  0  0  0  0  0  0  0  0
    2.3553   -1.5982   -0.6120 C   0  0  0  0  0  0  0  0  0  0  0  0
    2.6327   -0.3136   -1.1460 C   0  0  0  0  0  0  0  0  0  0  0  0
    3.3483   -0.2258   -2.3594 C   0  0  0  0  0  3  0  0  0  0  0  0
    3.5746    0.7727   -2.7586 H   0  0  0  0  0  0  0  0  0  0  0  0
    3.7499   -1.3749   -3.0486 C   0  0  0  0  0  0  0  0  0  0  0  0
    4.2927   -1.2808   -4.0003 H   0  0  0  0  0  0  0  0  0  0  0  0
    3.4483   -2.6405   -2.5250 C   0  0  0  0  0  0  0  0  0  0  0  0
    3.7448   -3.5520   -3.0645 H   0  0  0  0  0  0  0  0  0  0  0  0
    2.7588   -2.7481   -1.3107 C   0  0  0  0  0  0  0  0  0  0  0  0
    2.5115   -3.7341   -0.8921 H   0  0  0  0  0  0  0  0  0  0  0  0
    2.2200    0.9493   -0.5079 C   0  0  0  0  0  0  0  0  0  0  0  0
    1.0589    1.2250   -0.0002 N   0  0  0  0  0  2  0  0  0  0  0  0
    1.0718    2.6067    0.5123 C   0  0  2  0  0  0  0  0  0  0  0  0
    0.2161    3.1296    0.0331 H   0  0  0  0  0  0  0  0  0  0  0  0
    2.4291    3.1353   -0.0091 C   0  0  0  0  0  0  0  0  0  0  0  0
    2.3209    3.8524   -0.8471 H   0  0  0  0  0  0  0  0  0  0  0  0
    3.0727    3.5835    0.7729 H   0  0  0  0  0  0  0  0  0  0  0  0
    3.1176    1.9570   -0.5256 O   0  0  0  0  0  0  0  0  0  0  0  0
    0.8603    2.6340    2.0422 C   0  0  0  0  0  0  0  0  0  0  0  0
   -0.1207    2.1296    2.1922 H   0  0  0  0  0  0  0  0  0  0  0  0
    1.9259    1.8464    2.8104 C   0  0  0  0  0  0  0  0  0  0  0  0
    2.9369    2.2921    2.6944 H   0  0  0  0  0  0  0  0  0  0  0  0
    1.9767    0.7920    2.4719 H   0  0  0  0  0  0  0  0  0  0  0  0
    1.6991    1.8396    3.8956 H   0  0  0  0  0  0  0  0  0  0  0  0
    0.7353    4.0791    2.5351 C   0  0  0  0  0  0  0  0  0  0  0  0
    0.4974    4.1072    3.6172 H   0  0  0  0  0  0  0  0  0  0  0  0
   -0.0681    4.6209    1.9964 H   0  0  0  0  0  0  0  0  0  0  0  0
    1.6819    4.6442    2.3952 H   0  0  0  0  0  0  0  0  0  0  0  0
  1  2  1  0  0  0  0
  2  3  1  0  0  0  0
  2  8  1  0  0  0  0
  3  4  1  0  0  0  0
  5  3  2  0  0  0  0
  6  5  1  0  0  0  0
  7  1  1  0  0  0  0
  7  5  1  0  0  0  0
  8  9  1  0  0  0  0
 10  8  1  0  0  0  0
 11  8  1  0  0  0  0
 12  7  1  0  0  0  0
 13 12  1  0  0  0  0
 13 22  2  0  0  0  0
 14 13  1  0  0  0  0
 15 14  1  0  0  0  0
 16 18  2  0  0  0  0
 16 14  1  0  0  0  0
 17 16  1  0  0  0  0
 18 20  1  0  0  0  0
 19 18  1  0  0  0  0
 20 21  1  0  0  0  0
 20 12  2  0  0  0  0
 22 23  1  0  0  0  0
 23 24  1  0  0  0  0
 24 25  1  6  0  0  0
 24 30  1  0  0  0  0
 26 24  1  0  0  0  0
 26 28  1  0  0  0  0
 27 26  1  0  0  0  0
 29 22  1  0  0  0  0
 29 26  1  0  0  0  0
 30 31  1  0  0  0  0
 30 36  1  0  0  0  0
 30 32  1  0  0  0  0
 32 35  1  0  0  0  0
 33 32  1  0  0  0  0
 34 32  1  0  0  0  0
 36 37  1  0  0  0  0
 38 36  1  0  0  0  0
 39 36  1  0  0  0  0
M  END
