27,49
 OpenBabel05122313053D

 51 54  0  0  1  0  0  0  0  0999 V2000
   -1.9541   -0.2738   -0.2848 B   0  0  2  0  0  0  0  0  0  0  0  0
   -4.6166    3.5831    0.0400 C   0  0  0  0  0  0  0  0  0  0  0  0
   -4.4508    4.0621   -0.9453 H   0  0  0  0  0  0  0  0  0  0  0  0
   -5.1854    4.2858    0.6845 H   0  0  0  0  0  0  0  0  0  0  0  0
   -5.2316    2.6754   -0.1229 H   0  0  0  0  0  0  0  0  0  0  0  0
   -2.4082    4.4556    0.9073 C   0  0  0  0  0  0  0  0  0  0  0  0
   -1.4265    4.1765    1.3411 H   0  0  0  0  0  0  0  0  0  0  0  0
   -2.9058    5.1686    1.5974 H   0  0  0  0  0  0  0  0  0  0  0  0
   -2.2221    4.9735   -0.0546 H   0  0  0  0  0  0  0  0  0  0  0  0
   -3.4612    2.3735    1.9838 C   0  0  0  0  0  0  0  0  0  0  0  0
   -2.8389    2.7480    2.8269 H   0  0  0  0  0  0  0  0  0  0  0  0
   -4.5171    2.3218    2.3217 H   0  0  0  0  0  0  0  0  0  0  0  0
   -2.5067    1.1158    0.3529 C   0  0  0  0  0  0  0  0  0  0  0  0
    0.0710   -2.2206    2.3636 C   0  0  0  0  0  0  0  0  0  0  0  0
    0.5033   -3.6004    1.8422 C   0  0  0  0  0  0  0  0  0  0  0  0
   -0.2543   -4.0047    1.1412 H   0  0  0  0  0  0  0  0  0  0  0  0
    0.6276   -4.3168    2.6797 H   0  0  0  0  0  0  0  0  0  0  0  0
    1.4599   -3.5154    1.2950 H   0  0  0  0  0  0  0  0  0  0  0  0
    1.0550   -1.6834    3.4041 C   0  0  0  0  0  0  0  0  0  0  0  0
    2.0849   -1.6472    3.0029 H   0  0  0  0  0  0  0  0  0  0  0  0
    1.0640   -2.3438    4.2953 H   0  0  0  0  0  0  0  0  0  0  0  0
    0.7735   -0.6627    3.7257 H   0  0  0  0  0  0  0  0  0  0  0  0
   -1.3768   -2.2522    2.9084 C   0  0  0  0  0  0  0  0  0  0  0  0
   -1.7217   -3.2608    3.2070 H   0  0  0  0  0  0  0  0  0  0  0  0
   -1.5249   -1.5459    3.7539 H   0  0  0  0  0  0  0  0  0  0  0  0
   -1.3766   -1.1652    0.9356 C   0  0  1  0  0  3  0  0  0  0  0  0
   -0.6657   -0.0219   -1.2450 C   0  0  1  0  0  3  0  0  0  0  0  0
    0.0454    1.1899   -1.5202 C   0  0  0  0  0  0  0  0  0  0  0  0
   -0.2743    2.1762   -1.1575 H   0  0  0  0  0  0  0  0  0  0  0  0
    1.1699    0.8907   -2.3434 C   0  0  0  0  0  0  0  0  0  0  0  0
    1.8897    1.6150   -2.7455 H   0  0  0  0  0  0  0  0  0  0  0  0
    1.1600   -0.5115   -2.6138 C   0  0  0  0  0  0  0  0  0  0  0  0
    1.8842   -1.0528   -3.2366 H   0  0  0  0  0  0  0  0  0  0  0  0
    0.0404   -1.0646   -1.9386 C   0  0  0  0  0  0  0  0  0  0  0  0
   -0.2571   -2.1222   -1.9351 H   0  0  0  0  0  0  0  0  0  0  0  0
   -3.2703    3.2078    0.6789 C   0  0  0  0  0  0  0  0  0  0  0  0
   -3.1439   -1.0083   -1.1252 C   0  0  0  0  0  0  0  0  0  0  0  0
   -3.3953   -2.3969   -1.0671 C   0  0  0  0  0  0  0  0  0  0  0  0
   -2.8256   -3.0244   -0.3624 H   0  0  0  0  0  0  0  0  0  0  0  0
   -4.3719   -3.0056   -1.8743 C   0  0  0  0  0  0  0  0  0  0  0  0
   -4.5449   -4.0916   -1.8022 H   0  0  0  0  0  0  0  0  0  0  0  0
   -5.1300   -2.2324   -2.7665 C   0  0  0  0  0  0  0  0  0  0  0  0
   -5.8982   -2.7047   -3.3988 H   0  0  0  0  0  0  0  0  0  0  0  0
   -4.8993   -0.8483   -2.8414 C   0  0  0  0  0  0  0  0  0  0  0  0
   -5.4889   -0.2296   -3.5371 H   0  0  0  0  0  0  0  0  0  0  0  0
   -3.9205   -0.2511   -2.0329 C   0  0  0  0  0  0  0  0  0  0  0  0
   -3.7449    0.8356   -2.0967 H   0  0  0  0  0  0  0  0  0  0  0  0
   -2.5674    2.2700   -0.2222 N   0  0  0  0  0  0  0  0  0  0  0  0
   -0.0904   -1.2999    1.1963 N   0  0  0  0  0  2  0  0  0  0  0  0
   -3.0192    1.0491    1.6375 O   0  0  0  0  0  0  0  0  0  0  0  0
   -2.1861   -1.7936    1.8060 O   0  0  0  0  0  0  0  0  0  0  0  0
  1 37  1  6  0  0  0
  1 13  1  0  0  0  0
  2 36  1  0  0  0  0
  2  4  1  0  0  0  0
  3  2  1  0  0  0  0
  5  2  1  0  0  0  0
  6  7  1  0  0  0  0
  6  8  1  0  0  0  0
  9  6  1  0  0  0  0
 10 12  1  0  0  0  0
 10 11  1  0  0  0  0
 13 50  1  0  0  0  0
 14 23  1  0  0  0  0
 14 19  1  0  0  0  0
 15 14  1  0  0  0  0
 15 17  1  0  0  0  0
 16 15  1  0  0  0  0
 18 15  1  0  0  0  0
 19 22  1  0  0  0  0
 19 21  1  0  0  0  0
 20 19  1  0  0  0  0
 23 24  1  0  0  0  0
 23 25  1  0  0  0  0
 26  1  1  1  0  0  0
 26 49  1  0  0  0  0
 26 51  1  0  0  0  0
 27  1  1  1  0  0  0
 28 27  1  0  0  0  0
 28 29  1  0  0  0  0
 30 28  2  0  0  0  0
 31 30  1  0  0  0  0
 32 30  1  0  0  0  0
 32 34  2  0  0  0  0
 33 32  1  0  0  0  0
 34 35  1  0  0  0  0
 34 27  1  0  0  0  0
 36  6  1  0  0  0  0
 36 10  1  0  0  0  0
 37 38  1  0  0  0  0
 38 39  1  0  0  0  0
 40 41  1  0  0  0  0
 40 38  2  0  0  0  0
 42 40  1  0  0  0  0
 43 42  1  0  0  0  0
 44 42  2  0  0  0  0
 44 46  1  0  0  0  0
 45 44  1  0  0  0  0
 46 37  2  0  0  0  0
 47 46  1  0  0  0  0
 48 13  2  0  0  0  0
 48 36  1  0  0  0  0
 49 14  1  0  0  0  0
 50 10  1  0  0  0  0
 51 23  1  0  0  0  0
M  END
