3,5
 OpenBabel05122313053D

 27 28  0  0  0  0  0  0  0  0999 V2000
   -1.5610    2.8669    0.5147 C   0  0  0  0  0  0  0  0  0  0  0  0
   -2.5905    3.1814    0.7010 H   0  0  0  0  0  0  0  0  0  0  0  0
    0.1536    1.4236    0.0989 C   0  0  0  0  0  2  0  0  0  0  0  0
   -1.2137    1.5357    0.2409 N   0  0  0  0  0  0  0  0  0  0  0  0
   -0.5106   -1.2802    0.7428 N   0  0  0  0  0  0  0  0  0  0  0  0
   -3.3631    0.8259   -0.6267 C   0  0  0  0  0  0  0  0  0  0  0  0
   -3.5971    1.8860   -0.7933 H   0  0  0  0  0  0  0  0  0  0  0  0
   -0.3908    3.5808    0.5350 C   0  0  0  0  0  0  0  0  0  0  0  0
   -0.2121    4.6436    0.7222 H   0  0  0  0  0  0  0  0  0  0  0  0
    0.6246    2.6791    0.2818 N   0  0  0  0  0  0  0  0  0  0  0  0
   -2.1180    0.4846   -0.0689 C   0  0  0  0  0  0  0  0  0  0  0  0
   -0.5122   -0.8814    2.1836 C   0  0  0  0  0  0  0  0  0  0  0  0
   -1.3131   -1.4336    2.7230 H   0  0  0  0  0  0  0  0  0  0  0  0
   -0.6797    0.2034    2.2920 H   0  0  0  0  0  0  0  0  0  0  0  0
    0.4729   -1.1329    2.6162 H   0  0  0  0  0  0  0  0  0  0  0  0
   -1.7624   -0.8841    0.1028 C   0  0  0  0  0  0  0  0  0  0  0  0
   -2.6894   -1.8538   -0.3274 C   0  0  0  0  0  0  0  0  0  0  0  0
   -2.4459   -2.9161   -0.2225 H   0  0  0  0  0  0  0  0  0  0  0  0
   -3.9277   -1.5047   -0.8828 C   0  0  0  0  0  0  0  0  0  0  0  0
   -4.6171   -2.2983   -1.2056 H   0  0  0  0  0  0  0  0  0  0  0  0
   -4.2756   -0.1575   -1.0226 C   0  0  0  0  0  0  0  0  0  0  0  0
   -5.2396    0.1349   -1.4630 H   0  0  0  0  0  0  0  0  0  0  0  0
   -0.2610   -2.7401    0.6834 C   0  0  0  0  0  0  0  0  0  0  0  0
   -1.0300   -3.2897    1.2686 H   0  0  0  0  0  0  0  0  0  0  0  0
    0.7502   -2.9272    1.0832 H   0  0  0  0  0  0  0  0  0  0  0  0
   -0.2496   -3.0781   -0.3667 H   0  0  0  0  0  0  0  0  0  0  0  0
    1.6431    2.8149    0.1245 H   0  0  0  0  0  0  0  0  0  0  0  0
  1  8  2  0  0  0  0
  1  2  1  0  0  0  0
  3  4  1  0  0  0  0
  3 10  1  0  0  0  0
  4  1  1  0  0  0  0
  5 12  1  0  0  0  0
  6 11  1  0  0  0  0
  7  6  1  0  0  0  0
  8  9  1  0  0  0  0
 10  8  1  0  0  0  0
 11 16  2  0  0  0  0
 11  4  1  0  0  0  0
 12 14  1  0  0  0  0
 12 15  1  0  0  0  0
 12 13  1  0  0  0  0
 16  5  1  0  0  0  0
 17 18  1  0  0  0  0
 17 16  1  0  0  0  0
 19 17  2  0  0  0  0
 20 19  1  0  0  0  0
 21 19  1  0  0  0  0
 21  6  2  0  0  0  0
 22 21  1  0  0  0  0
 23  5  1  0  0  0  0
 23 25  1  0  0  0  0
 23 24  1  0  0  0  0
 26 23  1  0  0  0  0
 27 10  1  0  0  0  0
M  END
