4
 OpenBabel05122313053D

 66 67  0  0  1  0  0  0  0  0999 V2000
   -4.7402   -0.6919   -1.2174 S   0  0  0  0  0  0  0  0  0  0  0  0
   -1.4359    5.1576    0.0117 S   0  0  0  0  0  0  0  0  0  0  0  0
    3.1608   -0.0115    0.9519 Si  0  0  0  0  0  0  0  0  0  0  0  0
    2.6144   -0.7532   -0.5698 N   0  0  0  0  0  2  0  0  0  0  0  0
   -2.0375    1.2487    1.2569 N   0  0  0  0  0  0  0  0  0  0  0  0
   -1.7183   -1.9577    1.9495 C   0  0  0  0  0  0  0  0  0  0  0  0
   -2.7954   -1.7749    1.8682 H   0  0  0  0  0  0  0  0  0  0  0  0
    0.6441   -1.2010    1.8996 C   0  0  0  0  0  0  0  0  0  0  0  0
    1.4149   -0.0023    1.6453 C   0  0  2  0  0  3  0  0  0  0  0  0
   -0.7750   -0.9125    1.7467 C   0  0  0  0  0  0  0  0  0  0  0  0
   -0.8941    0.5019    1.4081 C   0  0  0  0  0  0  0  0  0  0  0  0
    3.4213   -1.3277   -1.6728 C   0  0  0  0  0  0  0  0  0  0  0  0
    0.4419    1.0095    1.3149 C   0  0  0  0  0  0  0  0  0  0  0  0
    0.6952    2.0347    1.0246 H   0  0  0  0  0  0  0  0  0  0  0  0
    0.1198   -3.5288    2.3511 C   0  0  0  0  0  0  0  0  0  0  0  0
    0.4404   -4.5565    2.5774 H   0  0  0  0  0  0  0  0  0  0  0  0
    1.0676   -2.5331    2.1807 C   0  0  0  0  0  0  0  0  0  0  0  0
    2.1388   -2.7542    2.2784 H   0  0  0  0  0  0  0  0  0  0  0  0
   -3.2897    0.6563    0.7841 C   0  0  0  0  0  0  0  0  0  0  0  0
   -3.6301   -0.1360    1.4807 H   0  0  0  0  0  0  0  0  0  0  0  0
   -4.0675    1.4433    0.8291 H   0  0  0  0  0  0  0  0  0  0  0  0
   -1.2688   -3.2382    2.2403 C   0  0  0  0  0  0  0  0  0  0  0  0
   -2.0017   -4.0456    2.3865 H   0  0  0  0  0  0  0  0  0  0  0  0
    2.6607   -1.2485   -3.0090 C   0  0  0  0  0  0  0  0  0  0  0  0
    1.7101   -1.8153   -2.9594 H   0  0  0  0  0  0  0  0  0  0  0  0
    2.4229   -0.1985   -3.2657 H   0  0  0  0  0  0  0  0  0  0  0  0
    3.2759   -1.6829   -3.8226 H   0  0  0  0  0  0  0  0  0  0  0  0
   -3.2025    0.1037   -0.6467 C   0  0  0  0  0  0  0  0  0  0  0  0
   -2.3734   -0.6274   -0.7463 H   0  0  0  0  0  0  0  0  0  0  0  0
   -2.9832    0.9184   -1.3646 H   0  0  0  0  0  0  0  0  0  0  0  0
    4.7419   -0.5459   -1.8067 C   0  0  0  0  0  0  0  0  0  0  0  0
    4.5441    0.5209   -2.0315 H   0  0  0  0  0  0  0  0  0  0  0  0
    5.3468   -0.6054   -0.8783 H   0  0  0  0  0  0  0  0  0  0  0  0
    5.3568   -0.9628   -2.6295 H   0  0  0  0  0  0  0  0  0  0  0  0
   -1.9495    2.7071    1.2696 C   0  0  0  0  0  0  0  0  0  0  0  0
   -2.8585    3.1042    1.7690 H   0  0  0  0  0  0  0  0  0  0  0  0
   -1.0956    2.9885    1.9169 H   0  0  0  0  0  0  0  0  0  0  0  0
   -4.5284   -2.3753   -0.5103 C   0  0  0  0  0  0  0  0  0  0  0  0
   -3.4876   -2.7031   -0.7151 H   0  0  0  0  0  0  0  0  0  0  0  0
   -4.6646   -2.3419    0.5920 H   0  0  0  0  0  0  0  0  0  0  0  0
    3.7064   -2.8037   -1.3283 C   0  0  0  0  0  0  0  0  0  0  0  0
    4.2818   -2.8871   -0.3845 H   0  0  0  0  0  0  0  0  0  0  0  0
    2.7516   -3.3521   -1.2048 H   0  0  0  0  0  0  0  0  0  0  0  0
    4.2927   -3.2907   -2.1344 H   0  0  0  0  0  0  0  0  0  0  0  0
    0.3615    5.1117    0.3816 C   0  0  0  0  0  0  0  0  0  0  0  0
    0.5911    6.1533    0.6877 H   0  0  0  0  0  0  0  0  0  0  0  0
    0.5330    4.4837    1.2829 H   0  0  0  0  0  0  0  0  0  0  0  0
   -1.7993    3.3711   -0.1084 C   0  0  0  0  0  0  0  0  0  0  0  0
   -2.7429    3.3012   -0.6872 H   0  0  0  0  0  0  0  0  0  0  0  0
   -1.0227    2.8610   -0.7134 H   0  0  0  0  0  0  0  0  0  0  0  0
    3.7774    1.7582    0.7413 C   0  0  0  0  0  0  0  0  0  0  0  0
    3.0998    2.3273    0.0743 H   0  0  0  0  0  0  0  0  0  0  0  0
    3.8210    2.2727    1.7237 H   0  0  0  0  0  0  0  0  0  0  0  0
    4.7922    1.7829    0.2972 H   0  0  0  0  0  0  0  0  0  0  0  0
    4.4091   -1.0140    1.9534 C   0  0  0  0  0  0  0  0  0  0  0  0
    4.4392   -0.6276    2.9935 H   0  0  0  0  0  0  0  0  0  0  0  0
    4.1612   -2.0921    1.9916 H   0  0  0  0  0  0  0  0  0  0  0  0
    5.4273   -0.9145    1.5255 H   0  0  0  0  0  0  0  0  0  0  0  0
    1.2450    4.6746   -0.7830 C   0  0  0  0  0  0  0  0  0  0  0  0
    2.3169    4.7297   -0.4969 H   0  0  0  0  0  0  0  0  0  0  0  0
    1.0370    3.6315   -1.0983 H   0  0  0  0  0  0  0  0  0  0  0  0
    1.0869    5.3272   -1.6642 H   0  0  0  0  0  0  0  0  0  0  0  0
   -5.5404   -3.3276   -1.1386 C   0  0  0  0  0  0  0  0  0  0  0  0
   -5.4260   -4.3468   -0.7170 H   0  0  0  0  0  0  0  0  0  0  0  0
   -6.5816   -2.9970   -0.9471 H   0  0  0  0  0  0  0  0  0  0  0  0
   -5.3993   -3.3891   -2.2362 H   0  0  0  0  0  0  0  0  0  0  0  0
  1 28  1  0  0  0  0
  1 38  1  0  0  0  0
  2 45  1  0  0  0  0
  3 55  1  0  0  0  0
  4  3  1  0  0  0  0
  5 35  1  0  0  0  0
  5 11  1  0  0  0  0
  6 22  1  0  0  0  0
  7  6  1  0  0  0  0
  8 17  2  0  0  0  0
  9  3  1  6  0  0  0
  9  8  1  0  0  0  0
 10  8  1  0  0  0  0
 10  6  2  0  0  0  0
 11 10  1  0  0  0  0
 12 41  1  0  0  0  0
 12  4  1  0  0  0  0
 13 11  2  0  0  0  0
 13  9  1  0  0  0  0
 14 13  1  0  0  0  0
 15 16  1  0  0  0  0
 17 18  1  0  0  0  0
 17 15  1  0  0  0  0
 19 21  1  0  0  0  0
 19  5  1  0  0  0  0
 19 20  1  0  0  0  0
 22 15  2  0  0  0  0
 22 23  1  0  0  0  0
 24 25  1  0  0  0  0
 24 12  1  0  0  0  0
 26 24  1  0  0  0  0
 27 24  1  0  0  0  0
 28 19  1  0  0  0  0
 29 28  1  0  0  0  0
 30 28  1  0  0  0  0
 31 12  1  0  0  0  0
 31 33  1  0  0  0  0
 32 31  1  0  0  0  0
 34 31  1  0  0  0  0
 35 36  1  0  0  0  0
 35 37  1  0  0  0  0
 38 40  1  0  0  0  0
 39 38  1  0  0  0  0
 41 43  1  0  0  0  0
 41 42  1  0  0  0  0
 44 41  1  0  0  0  0
 45 46  1  0  0  0  0
 45 47  1  0  0  0  0
 48  2  1  0  0  0  0
 48 35  1  0  0  0  0
 49 48  1  0  0  0  0
 50 48  1  0  0  0  0
 51  3  1  0  0  0  0
 51 53  1  0  0  0  0
 52 51  1  0  0  0  0
 54 51  1  0  0  0  0
 55 57  1  0  0  0  0
 55 56  1  0  0  0  0
 58 55  1  0  0  0  0
 59 60  1  0  0  0  0
 59 45  1  0  0  0  0
 61 59  1  0  0  0  0
 62 59  1  0  0  0  0
 63 65  1  0  0  0  0
 63 64  1  0  0  0  0
 63 38  1  0  0  0  0
 66 63  1  0  0  0  0
M  END
