1,6
 OpenBabel05122313053D

 25 25  0  0  1  0  0  0  0  0999 V2000
   -1.5573   -1.5512   -0.0351 N   0  0  0  0  0  0  0  0  0  0  0  0
   -1.8689   -1.6263   -1.0215 H   0  0  0  0  0  0  0  0  0  0  0  0
   -1.2766   -2.4974    0.2742 H   0  0  0  0  0  0  0  0  0  0  0  0
   -4.7852    0.0588    0.3463 O   0  0  0  0  0  0  0  0  0  0  0  0
   -3.7036   -0.7899   -1.4566 O   0  0  0  0  0  0  0  0  0  0  0  0
   -0.6609    1.1695   -0.0780 C   0  0  0  0  0  3  0  0  0  0  0  0
   -1.7802    1.3513    0.7739 C   0  0  0  0  0  0  0  0  0  0  0  0
   -2.4803    2.5750    0.7636 C   0  0  0  0  0  0  0  0  0  0  0  0
   -3.3466    2.7045    1.4332 H   0  0  0  0  0  0  0  0  0  0  0  0
   -2.0863    3.6228   -0.0831 C   0  0  0  0  0  0  0  0  0  0  0  0
   -2.6400    4.5741   -0.0792 H   0  0  0  0  0  0  0  0  0  0  0  0
   -0.9851    3.4448   -0.9343 C   0  0  0  0  0  0  0  0  0  0  0  0
   -0.6738    4.2550   -1.6128 H   0  0  0  0  0  0  0  0  0  0  0  0
   -0.2777    2.2298   -0.9266 C   0  0  0  0  0  0  0  0  0  0  0  0
    0.5847    2.1080   -1.6009 H   0  0  0  0  0  0  0  0  0  0  0  0
   -2.2614    0.1982    1.6280 C   0  0  0  0  0  0  0  0  0  0  0  0
   -3.1270    0.4972    2.2500 H   0  0  0  0  0  0  0  0  0  0  0  0
   -1.4576   -0.1588    2.3060 H   0  0  0  0  0  0  0  0  0  0  0  0
   -2.6846   -0.9920    0.7401 C   0  0  1  0  0  0  0  0  0  0  0  0
   -3.1188   -1.7859    1.3865 H   0  0  0  0  0  0  0  0  0  0  0  0
   -3.7675   -0.5733   -0.2592 C   0  0  0  0  0  0  0  0  0  0  0  0
   -5.8070    0.5660   -0.5273 C   0  0  0  0  0  0  0  0  0  0  0  0
   -5.3909    1.3634   -1.1748 H   0  0  0  0  0  0  0  0  0  0  0  0
   -6.5940    0.9749    0.1301 H   0  0  0  0  0  0  0  0  0  0  0  0
   -6.2114   -0.2407   -1.1697 H   0  0  0  0  0  0  0  0  0  0  0  0
  1  3  1  0  0  0  0
  1 19  1  0  0  0  0
  2  1  1  0  0  0  0
  5 21  2  0  0  0  0
  6  7  1  0  0  0  0
  7 16  1  0  0  0  0
  8  7  2  0  0  0  0
  8  9  1  0  0  0  0
 10 11  1  0  0  0  0
 10  8  1  0  0  0  0
 12 14  1  0  0  0  0
 12 10  2  0  0  0  0
 13 12  1  0  0  0  0
 14  6  2  0  0  0  0
 15 14  1  0  0  0  0
 16 17  1  0  0  0  0
 16 18  1  0  0  0  0
 19 20  1  1  0  0  0
 19 16  1  0  0  0  0
 21  4  1  0  0  0  0
 21 19  1  0  0  0  0
 22 24  1  0  0  0  0
 22  4  1  0  0  0  0
 23 22  1  0  0  0  0
 25 22  1  0  0  0  0
M  END
