1,28
 OpenBabel05122313053D

 29 32  0  0  0  0  0  0  0  0999 V2000
    0.8651   -1.2219   -0.9954 C   0  0  0  0  0  3  0  0  0  0  0  0
    0.2873   -2.2422   -1.8394 C   0  0  0  0  0  0  0  0  0  0  0  0
   -1.0589   -2.4216   -2.2464 C   0  0  0  0  0  0  0  0  0  0  0  0
   -1.8199   -1.7092   -1.9060 H   0  0  0  0  0  0  0  0  0  0  0  0
   -1.4051   -3.4922   -3.0708 C   0  0  0  0  0  0  0  0  0  0  0  0
   -2.4526   -3.6208   -3.3817 H   0  0  0  0  0  0  0  0  0  0  0  0
   -0.4259   -4.4112   -3.5139 C   0  0  0  0  0  0  0  0  0  0  0  0
   -0.7163   -5.2483   -4.1668 H   0  0  0  0  0  0  0  0  0  0  0  0
    0.9122   -4.2702   -3.1312 C   0  0  0  0  0  0  0  0  0  0  0  0
    1.6759   -4.9845   -3.4726 H   0  0  0  0  0  0  0  0  0  0  0  0
    1.2567   -3.1929   -2.2970 C   0  0  0  0  0  0  0  0  0  0  0  0
    2.2488   -1.4223   -0.8276 C   0  0  0  0  0  0  0  0  0  0  0  0
    2.9875   -0.5580    0.0650 C   0  0  0  0  0  0  0  0  0  0  0  0
    4.4112   -0.5523    0.3278 C   0  0  0  0  0  0  0  0  0  0  0  0
    5.3473   -1.3543   -0.3834 C   0  0  0  0  0  3  0  0  0  0  0  0
    5.0080   -1.9920   -1.2100 H   0  0  0  0  0  0  0  0  0  0  0  0
    6.7021   -1.3217   -0.0761 C   0  0  0  0  0  0  0  0  0  0  0  0
    7.4038   -1.9486   -0.6460 H   0  0  0  0  0  0  0  0  0  0  0  0
    7.1844   -0.4804    0.9569 C   0  0  0  0  0  0  0  0  0  0  0  0
    8.2587   -0.4648    1.1953 H   0  0  0  0  0  0  0  0  0  0  0  0
    6.3042    0.3347    1.6536 C   0  0  0  0  0  0  0  0  0  0  0  0
    6.6690    1.0084    2.4440 H   0  0  0  0  0  0  0  0  0  0  0  0
    4.9126    0.3290    1.3541 C   0  0  0  0  0  0  0  0  0  0  0  0
    3.9956    1.1865    2.0272 C   0  0  0  0  0  0  0  0  0  0  0  0
    4.3478    1.8704    2.8123 H   0  0  0  0  0  0  0  0  0  0  0  0
    2.6644    1.1651    1.6640 C   0  0  0  0  0  0  0  0  0  0  0  0
    1.9271    1.8318    2.1352 H   0  0  0  0  0  0  0  0  0  0  0  0
    2.1733    0.3216    0.7183 N   0  0  0  0  0  2  0  0  0  0  0  0
    2.8587   -2.8427   -1.6905 S   0  0  0  0  0  0  0  0  0  0  0  0
  1 12  2  0  0  0  0
  2  1  1  0  0  0  0
  3  4  1  0  0  0  0
  3  2  1  0  0  0  0
  5  3  2  0  0  0  0
  6  5  1  0  0  0  0
  7  9  2  0  0  0  0
  7  5  1  0  0  0  0
  8  7  1  0  0  0  0
  9 11  1  0  0  0  0
 10  9  1  0  0  0  0
 11  2  2  0  0  0  0
 11 29  1  0  0  0  0
 12 13  1  0  0  0  0
 13 14  2  0  0  0  0
 13 28  1  0  0  0  0
 14 23  1  0  0  0  0
 15 17  1  0  0  0  0
 15 14  1  0  0  0  0
 16 15  1  0  0  0  0
 17 19  2  0  0  0  0
 18 17  1  0  0  0  0
 19 20  1  0  0  0  0
 19 21  1  0  0  0  0
 21 22  1  0  0  0  0
 23 21  2  0  0  0  0
 23 24  1  0  0  0  0
 24 25  1  0  0  0  0
 26 24  2  0  0  0  0
 26 27  1  0  0  0  0
 28 26  1  0  0  0  0
 29 12  1  0  0  0  0
M  END
