2,5
 OpenBabel05122313053D

 40 41  0  0  1  0  0  0  0  0999 V2000
   -0.8181    2.0792   -0.1535 Si  0  0  0  0  0  0  0  0  0  0  0  0
   -1.1356    0.3144   -0.1364 N   0  0  0  0  0  2  0  0  0  0  0  0
   -3.4412    0.6854   -0.0529 N   0  0  0  0  0  0  0  0  0  0  0  0
   -3.9230   -2.0885   -0.1025 N   0  0  0  0  0  0  0  0  0  0  0  0
    1.0343    1.7562   -0.3896 C   0  0  2  0  0  3  0  0  0  0  0  0
    1.4697    1.0288   -1.5686 C   0  0  0  0  0  0  0  0  0  0  0  0
    2.6064    0.2476   -1.2181 C   0  0  0  0  0  0  0  0  0  0  0  0
    2.9189    0.5162    0.1638 C   0  0  0  0  0  0  0  0  0  0  0  0
    1.9775    1.4674    0.6614 C   0  0  0  0  0  0  0  0  0  0  0  0
    0.8380    1.1077   -2.9316 C   0  0  0  0  0  0  0  0  0  0  0  0
    1.4068    0.5186   -3.6762 H   0  0  0  0  0  0  0  0  0  0  0  0
    0.8149    2.1571   -3.2899 H   0  0  0  0  0  0  0  0  0  0  0  0
   -0.2088    0.7399   -2.9421 H   0  0  0  0  0  0  0  0  0  0  0  0
    3.4508   -0.6114   -2.1114 C   0  0  0  0  0  0  0  0  0  0  0  0
    2.9696   -0.7975   -3.0894 H   0  0  0  0  0  0  0  0  0  0  0  0
    3.6566   -1.5989   -1.6512 H   0  0  0  0  0  0  0  0  0  0  0  0
    4.4342   -0.1322   -2.3091 H   0  0  0  0  0  0  0  0  0  0  0  0
    4.1521    0.0110    0.8542 C   0  0  0  0  0  0  0  0  0  0  0  0
    5.0542    0.5387    0.4731 H   0  0  0  0  0  0  0  0  0  0  0  0
    4.3230   -1.0698    0.6720 H   0  0  0  0  0  0  0  0  0  0  0  0
    4.1152    0.1646    1.9487 H   0  0  0  0  0  0  0  0  0  0  0  0
    1.9923    2.0623    2.0440 C   0  0  0  0  0  0  0  0  0  0  0  0
    1.3957    1.4765    2.7728 H   0  0  0  0  0  0  0  0  0  0  0  0
    1.5844    3.0902    2.0344 H   0  0  0  0  0  0  0  0  0  0  0  0
    3.0262    2.1175    2.4384 H   0  0  0  0  0  0  0  0  0  0  0  0
   -1.6349    3.0384   -1.5569 C   0  0  0  0  0  0  0  0  0  0  0  0
   -1.6207    2.4894   -2.5166 H   0  0  0  0  0  0  0  0  0  0  0  0
   -1.1160    4.0088   -1.7041 H   0  0  0  0  0  0  0  0  0  0  0  0
   -2.6921    3.2323   -1.2905 H   0  0  0  0  0  0  0  0  0  0  0  0
   -1.2665    2.9014    1.4828 C   0  0  0  0  0  0  0  0  0  0  0  0
   -2.3718    2.9208    1.5629 H   0  0  0  0  0  0  0  0  0  0  0  0
   -0.8928    3.9452    1.5272 H   0  0  0  0  0  0  0  0  0  0  0  0
   -0.8674    2.3482    2.3536 H   0  0  0  0  0  0  0  0  0  0  0  0
   -2.4084   -0.1965   -0.1078 C   0  0  0  0  0  0  0  0  0  0  0  0
   -4.6828    0.1821   -0.0276 C   0  0  0  0  0  0  0  0  0  0  0  0
   -5.5161    0.9071    0.0187 H   0  0  0  0  0  0  0  0  0  0  0  0
   -4.9338   -1.1972   -0.0567 C   0  0  0  0  0  0  0  0  0  0  0  0
   -5.9645   -1.5912   -0.0390 H   0  0  0  0  0  0  0  0  0  0  0  0
   -2.6842   -1.6009   -0.1225 C   0  0  0  0  0  0  0  0  0  0  0  0
   -1.8402   -2.3096   -0.1567 H   0  0  0  0  0  0  0  0  0  0  0  0
  1  2  1  0  0  0  0
  1 30  1  0  0  0  0
  2 34  1  0  0  0  0
  3 35  1  0  0  0  0
  4 37  1  0  0  0  0
  5  1  1  1  0  0  0
  5  9  1  0  0  0  0
  6  7  2  0  0  0  0
  6  5  1  0  0  0  0
  7  8  1  0  0  0  0
  8  9  2  0  0  0  0
  8 18  1  0  0  0  0
  9 22  1  0  0  0  0
 10  6  1  0  0  0  0
 11 10  1  0  0  0  0
 12 10  1  0  0  0  0
 13 10  1  0  0  0  0
 14 16  1  0  0  0  0
 14  7  1  0  0  0  0
 15 14  1  0  0  0  0
 17 14  1  0  0  0  0
 18 21  1  0  0  0  0
 19 18  1  0  0  0  0
 20 18  1  0  0  0  0
 22 25  1  0  0  0  0
 22 23  1  0  0  0  0
 24 22  1  0  0  0  0
 26 29  1  0  0  0  0
 26  1  1  0  0  0  0
 27 26  1  0  0  0  0
 28 26  1  0  0  0  0
 30 32  1  0  0  0  0
 30 31  1  0  0  0  0
 30 33  1  0  0  0  0
 34  3  2  0  0  0  0
 35 36  1  0  0  0  0
 37 38  1  0  0  0  0
 37 35  2  0  0  0  0
 39 34  1  0  0  0  0
 39  4  2  0  0  0  0
 40 39  1  0  0  0  0
M  END
