1,47
 OpenBabel05122313053D

 47 49  0  0  0  0  0  0  0  0999 V2000
    1.0932   -2.2969   -0.2323 N   0  0  0  0  0  2  0  0  0  0  0  0
    0.9666   -3.2252    0.7399 C   0  0  0  0  0  3  0  0  0  0  0  0
    0.1989   -3.0353    1.5030 H   0  0  0  0  0  0  0  0  0  0  0  0
    1.7718   -4.3680    0.7627 C   0  0  0  0  0  0  0  0  0  0  0  0
    1.6408   -5.1056    1.5666 H   0  0  0  0  0  0  0  0  0  0  0  0
    2.1139   -1.3107   -2.2108 C   0  0  0  0  0  0  0  0  0  0  0  0
    2.8467   -1.5605   -2.9972 H   0  0  0  0  0  0  0  0  0  0  0  0
    1.1302   -1.1721   -2.7086 H   0  0  0  0  0  0  0  0  0  0  0  0
    2.5152   -0.0386   -1.5877 N   0  0  0  0  0  0  0  0  0  0  0  0
    3.8944    0.4121   -1.7546 C   0  0  0  0  0  0  0  0  0  0  0  0
    3.9138    1.5101   -1.9346 H   0  0  0  0  0  0  0  0  0  0  0  0
    4.2890   -0.0325   -2.6901 H   0  0  0  0  0  0  0  0  0  0  0  0
    4.7969    0.0348   -0.5784 C   0  0  0  0  0  0  0  0  0  0  0  0
    4.3093   -0.8594    0.2952 N   0  0  0  0  0  0  0  0  0  0  0  0
    5.0910   -1.2368    1.3221 C   0  0  0  0  0  0  0  0  0  0  0  0
    4.6562   -1.9708    2.0223 H   0  0  0  0  0  0  0  0  0  0  0  0
    6.3873   -0.7410    1.5239 C   0  0  0  0  0  0  0  0  0  0  0  0
    6.9866   -1.0803    2.3810 H   0  0  0  0  0  0  0  0  0  0  0  0
    6.8895    0.1979    0.6102 C   0  0  0  0  0  0  0  0  0  0  0  0
    7.8993    0.6173    0.7329 H   0  0  0  0  0  0  0  0  0  0  0  0
    6.0808    0.5983   -0.4620 C   0  0  0  0  0  0  0  0  0  0  0  0
    6.4429    1.3335   -1.1975 H   0  0  0  0  0  0  0  0  0  0  0  0
    2.0241   -2.4389   -1.2058 C   0  0  0  0  0  0  0  0  0  0  0  0
    2.8479   -3.5703   -1.2478 C   0  0  0  0  0  0  0  0  0  0  0  0
    3.5889   -3.6735   -2.0531 H   0  0  0  0  0  0  0  0  0  0  0  0
    2.7196   -4.5498   -0.2539 C   0  0  0  0  0  0  0  0  0  0  0  0
    3.3587   -5.4451   -0.2702 H   0  0  0  0  0  0  0  0  0  0  0  0
    1.3219    4.2515   -0.7286 C   0  0  0  0  0  0  0  0  0  0  0  0
    1.0821    3.5816   -1.5787 H   0  0  0  0  0  0  0  0  0  0  0  0
    2.4131    4.4632   -0.7747 H   0  0  0  0  0  0  0  0  0  0  0  0
    0.8013    5.2114   -0.9024 H   0  0  0  0  0  0  0  0  0  0  0  0
    0.9222    3.6548    0.5971 C   0  0  0  0  0  0  0  0  0  0  0  0
    0.1492    4.3770    1.5202 C   0  0  0  0  0  0  0  0  0  0  0  0
   -0.1802    5.3949    1.2616 H   0  0  0  0  0  0  0  0  0  0  0  0
   -0.2171    3.8101    2.7506 C   0  0  0  0  0  0  0  0  0  0  0  0
   -0.8351    4.3847    3.4559 H   0  0  0  0  0  0  0  0  0  0  0  0
    0.2043    2.5193    3.0838 C   0  0  0  0  0  0  0  0  0  0  0  0
   -0.0752    2.0842    4.0550 H   0  0  0  0  0  0  0  0  0  0  0  0
    0.9832    1.7505    2.1945 C   0  0  0  0  0  0  0  0  0  0  0  0
    1.3037    2.3348    0.9486 C   0  0  0  0  0  0  0  0  0  0  0  0
    1.4178    0.3614    2.5901 C   0  0  0  0  0  0  0  0  0  0  0  0
    1.7394    0.3475    3.6499 H   0  0  0  0  0  0  0  0  0  0  0  0
    2.2488   -0.0235    1.9693 H   0  0  0  0  0  0  0  0  0  0  0  0
    0.5687   -0.3516    2.5129 H   0  0  0  0  0  0  0  0  0  0  0  0
    2.0764    1.6047   -0.0204 N   0  0  0  0  0  0  0  0  0  0  0  0
    2.9824    2.0273   -0.2591 H   0  0  0  0  0  0  0  0  0  0  0  0
    1.6916    0.5106   -0.6761 C   0  0  0  0  0  2  0  0  0  0  0  0
  1  2  1  0  0  0  0
  2  4  1  0  0  0  0
  2  3  1  0  0  0  0
  4  5  1  0  0  0  0
  6  9  1  0  0  0  0
  6 23  1  0  0  0  0
  7  6  1  0  0  0  0
  8  6  1  0  0  0  0
  9 47  1  0  0  0  0
 10  9  1  0  0  0  0
 10 13  1  0  0  0  0
 11 10  1  0  0  0  0
 12 10  1  0  0  0  0
 13 21  2  0  0  0  0
 13 14  1  0  0  0  0
 14 15  2  0  0  0  0
 15 17  1  0  0  0  0
 15 16  1  0  0  0  0
 17 18  1  0  0  0  0
 19 20  1  0  0  0  0
 19 17  2  0  0  0  0
 21 19  1  0  0  0  0
 22 21  1  0  0  0  0
 23  1  1  0  0  0  0
 24 23  2  0  0  0  0
 24 26  1  0  0  0  0
 25 24  1  0  0  0  0
 26  4  2  0  0  0  0
 27 26  1  0  0  0  0
 28 32  1  0  0  0  0
 29 28  1  0  0  0  0
 30 28  1  0  0  0  0
 31 28  1  0  0  0  0
 32 40  2  0  0  0  0
 32 33  1  0  0  0  0
 33 35  2  0  0  0  0
 34 33  1  0  0  0  0
 35 37  1  0  0  0  0
 35 36  1  0  0  0  0
 37 38  1  0  0  0  0
 39 41  1  0  0  0  0
 39 37  2  0  0  0  0
 40 39  1  0  0  0  0
 41 42  1  0  0  0  0
 43 41  1  0  0  0  0
 44 41  1  0  0  0  0
 45 40  1  0  0  0  0
 46 45  1  0  0  0  0
 47 45  1  0  0  0  0
M  END
