1,21
 OpenBabel05122313053D

 29 29  0  0  0  0  0  0  0  0999 V2000
    1.6829    0.7458   -0.0652 C   0  0  0  0  0  2  0  0  0  0  0  0
    2.6422    1.8070    0.0371 C   0  0  0  0  0  0  0  0  0  0  0  0
    4.0300    1.5162    0.1138 C   0  0  0  0  0  0  0  0  0  0  0  0
    4.7462    2.3455    0.1907 H   0  0  0  0  0  0  0  0  0  0  0  0
    4.4859    0.1953    0.0735 C   0  0  0  0  0  0  0  0  0  0  0  0
    3.5252   -0.8640   -0.0572 C   0  0  0  0  0  0  0  0  0  0  0  0
    2.1440   -0.5719   -0.1203 C   0  0  0  0  0  0  0  0  0  0  0  0
    1.4402   -1.4058   -0.2244 H   0  0  0  0  0  0  0  0  0  0  0  0
    5.7758   -0.1980    0.1368 O   0  0  0  0  0  0  0  0  0  0  0  0
    6.7765    0.8003    0.2550 C   0  0  0  0  0  0  0  0  0  0  0  0
    6.7747    1.4881   -0.6197 H   0  0  0  0  0  0  0  0  0  0  0  0
    7.7438    0.2679    0.2935 H   0  0  0  0  0  0  0  0  0  0  0  0
    6.6523    1.3972    1.1860 H   0  0  0  0  0  0  0  0  0  0  0  0
    4.0342   -2.1057   -0.1061 O   0  0  0  0  0  0  0  0  0  0  0  0
    3.1463   -3.2070   -0.2597 C   0  0  0  0  0  0  0  0  0  0  0  0
    2.4404   -3.2816    0.5962 H   0  0  0  0  0  0  0  0  0  0  0  0
    3.7811   -4.1103   -0.2889 H   0  0  0  0  0  0  0  0  0  0  0  0
    2.5630   -3.1340   -1.2034 H   0  0  0  0  0  0  0  0  0  0  0  0
    2.1104    3.1465    0.0001 C   0  0  0  0  0  0  0  0  0  0  0  0
    2.7590    4.0431    0.0615 H   0  0  0  0  0  0  0  0  0  0  0  0
    0.8147    3.2544   -0.1331 N   0  0  0  0  0  2  0  0  0  0  0  0
    0.0211    4.4606   -0.2545 C   0  0  0  0  0  0  0  0  0  0  0  0
    0.4783    5.3273    0.2719 H   0  0  0  0  0  0  0  0  0  0  0  0
   -0.0692    4.7273   -1.3318 H   0  0  0  0  0  0  0  0  0  0  0  0
   -1.3773    4.1855    0.3022 C   0  0  0  0  0  0  0  0  0  0  0  0
   -1.3326    4.0480    1.4051 H   0  0  0  0  0  0  0  0  0  0  0  0
   -2.0556    5.0338    0.0712 H   0  0  0  0  0  0  0  0  0  0  0  0
   -1.8558    2.9795   -0.3360 O   0  0  0  0  0  0  0  0  0  0  0  0
   -2.7344    2.7127    0.0115 H   0  0  0  0  0  0  0  0  0  0  0  0
  1  2  1  0  0  0  0
  2  3  1  0  0  0  0
  3  4  1  0  0  0  0
  5  3  2  0  0  0  0
  5  9  1  0  0  0  0
  6  5  1  0  0  0  0
  7  1  1  0  0  0  0
  7  6  2  0  0  0  0
  8  7  1  0  0  0  0
  9 10  1  0  0  0  0
 10 12  1  0  0  0  0
 10 13  1  0  0  0  0
 11 10  1  0  0  0  0
 14  6  1  0  0  0  0
 15 14  1  0  0  0  0
 15 16  1  0  0  0  0
 17 15  1  0  0  0  0
 18 15  1  0  0  0  0
 19  2  2  0  0  0  0
 19 20  1  0  0  0  0
 21 19  1  0  0  0  0
 22 21  1  0  0  0  0
 22 23  1  0  0  0  0
 22 25  1  0  0  0  0
 24 22  1  0  0  0  0
 25 26  1  0  0  0  0
 27 25  1  0  0  0  0
 28 29  1  0  0  0  0
 28 25  1  0  0  0  0
M  END
