7,18
 OpenBabel05122313053D

 25 26  0  0  0  0  0  0  0  0999 V2000
    5.5665   -0.6406    0.0003 S   0  0  0  0  0  0  0  0  0  0  0  0
    5.7736    0.5069    1.1607 F   0  0  0  0  0  0  0  0  0  0  0  0
    5.7737    0.5067   -1.1603 F   0  0  0  0  0  0  0  0  0  0  0  0
    5.4925   -1.7994   -1.1607 F   0  0  0  0  0  0  0  0  0  0  0  0
    5.4923   -1.7993    1.1613 F   0  0  0  0  0  0  0  0  0  0  0  0
    7.1919   -0.8367    0.0004 F   0  0  0  0  0  0  0  0  0  0  0  0
   -0.2166    2.2175   -0.0003 N   0  0  0  0  0  2  0  0  0  0  0  0
    1.1576    2.3250   -0.0003 C   0  0  0  0  0  0  0  0  0  0  0  0
    1.7560    3.5975   -0.0004 C   0  0  0  0  0  0  0  0  0  0  0  0
    2.8519    3.6743   -0.0003 H   0  0  0  0  0  0  0  0  0  0  0  0
    0.9587    4.7457   -0.0005 C   0  0  0  0  0  0  0  0  0  0  0  0
    1.4236    5.7426   -0.0006 H   0  0  0  0  0  0  0  0  0  0  0  0
   -0.4401    4.6080   -0.0006 C   0  0  0  0  0  0  0  0  0  0  0  0
   -1.1049    5.4828   -0.0007 H   0  0  0  0  0  0  0  0  0  0  0  0
   -0.9921    3.3261   -0.0005 C   0  0  0  0  0  0  0  0  0  0  0  0
   -2.0764    3.1373   -0.0006 H   0  0  0  0  0  0  0  0  0  0  0  0
    1.8384    1.0322   -0.0001 C   0  0  0  0  0  0  0  0  0  0  0  0
    0.9620   -0.0987   -0.0000 C   0  0  0  0  0  2  0  0  0  0  0  0
    1.5369   -1.3854    0.0001 C   0  0  0  0  0  0  0  0  0  0  0  0
    0.8796   -2.2679    0.0002 H   0  0  0  0  0  0  0  0  0  0  0  0
    2.9271   -1.5560    0.0002 C   0  0  0  0  0  0  0  0  0  0  0  0
    3.3664   -2.5620    0.0004 H   0  0  0  0  0  0  0  0  0  0  0  0
    3.7587   -0.4220    0.0001 C   0  0  0  0  0  0  0  0  0  0  0  0
    3.2361    0.8724   -0.0000 C   0  0  0  0  0  0  0  0  0  0  0  0
    3.9106    1.7384   -0.0001 H   0  0  0  0  0  0  0  0  0  0  0  0
  1  6  1  0  0  0  0
  1  2  1  0  0  0  0
  1  5  1  0  0  0  0
  3  1  1  0  0  0  0
  4  1  1  0  0  0  0
  7  8  1  0  0  0  0
  8 17  2  0  0  0  0
  9 10  1  0  0  0  0
  9  8  1  0  0  0  0
 11  9  2  0  0  0  0
 12 11  1  0  0  0  0
 13 11  1  0  0  0  0
 13 15  2  0  0  0  0
 14 13  1  0  0  0  0
 15  7  1  0  0  0  0
 16 15  1  0  0  0  0
 17 18  1  0  0  0  0
 17 24  1  0  0  0  0
 18 19  1  0  0  0  0
 19 20  1  0  0  0  0
 19 21  2  0  0  0  0
 21 22  1  0  0  0  0
 23 21  1  0  0  0  0
 23  1  1  0  0  0  0
 24 23  2  0  0  0  0
 25 24  1  0  0  0  0
M  END
