1,3
 OpenBabel05122313053D

 25 25  0  0  1  0  0  0  0  0999 V2000
   -0.2714    1.7988    0.3956 N   0  0  0  0  0  0  0  0  0  0  0  0
   -2.5543    2.8718   -0.0414 C   0  0  0  0  0  0  0  0  0  0  0  0
   -1.2646   -0.7658   -0.1383 C   0  0  0  0  0  3  0  0  0  0  0  0
   -1.8012   -2.0811   -0.1013 C   0  0  0  0  0  0  0  0  0  0  0  0
   -3.1817   -2.2970   -0.0269 C   0  0  0  0  0  0  0  0  0  0  0  0
   -4.0569   -1.2000    0.0035 C   0  0  0  0  0  0  0  0  0  0  0  0
   -3.5493    0.1078   -0.0593 C   0  0  0  0  0  0  0  0  0  0  0  0
   -2.1658    0.3370   -0.1391 C   0  0  0  0  0  0  0  0  0  0  0  0
   -1.5831    1.7231   -0.3291 C   0  0  2  0  0  0  0  0  0  0  0  0
    0.5301    2.9380   -0.0955 C   0  0  0  0  0  0  0  0  0  0  0  0
   -0.4712    1.9457    1.8527 C   0  0  0  0  0  0  0  0  0  0  0  0
   -1.1202   -2.9447   -0.1180 H   0  0  0  0  0  0  0  0  0  0  0  0
   -3.5759   -3.3238    0.0096 H   0  0  0  0  0  0  0  0  0  0  0  0
   -5.1438   -1.3602    0.0702 H   0  0  0  0  0  0  0  0  0  0  0  0
   -4.2514    0.9532   -0.0538 H   0  0  0  0  0  0  0  0  0  0  0  0
   -1.2973    1.7806   -1.4047 H   0  0  0  0  0  0  0  0  0  0  0  0
   -3.3786    2.8603   -0.7797 H   0  0  0  0  0  0  0  0  0  0  0  0
   -2.0576    3.8560   -0.1369 H   0  0  0  0  0  0  0  0  0  0  0  0
   -3.0042    2.8029    0.9684 H   0  0  0  0  0  0  0  0  0  0  0  0
    1.5046    2.9450    0.4236 H   0  0  0  0  0  0  0  0  0  0  0  0
    0.0187    3.9077    0.0924 H   0  0  0  0  0  0  0  0  0  0  0  0
    0.7145    2.8236   -1.1795 H   0  0  0  0  0  0  0  0  0  0  0  0
   -1.1369    1.1458    2.2260 H   0  0  0  0  0  0  0  0  0  0  0  0
   -0.9112    2.9361    2.1027 H   0  0  0  0  0  0  0  0  0  0  0  0
    0.5040    1.8534    2.3644 H   0  0  0  0  0  0  0  0  0  0  0  0
  1 11  1  0  0  0  0
  2 19  1  0  0  0  0
  3  4  1  0  0  0  0
  4  5  2  0  0  0  0
  5  6  1  0  0  0  0
  5 13  1  0  0  0  0
  6 14  1  0  0  0  0
  7 15  1  0  0  0  0
  7  6  2  0  0  0  0
  8  3  2  0  0  0  0
  8  7  1  0  0  0  0
  9 16  1  6  0  0  0
  9  8  1  0  0  0  0
  9  2  1  0  0  0  0
  9  1  1  0  0  0  0
 10 21  1  0  0  0  0
 10  1  1  0  0  0  0
 10 20  1  0  0  0  0
 11 24  1  0  0  0  0
 11 23  1  0  0  0  0
 11 25  1  0  0  0  0
 12  4  1  0  0  0  0
 17  2  1  0  0  0  0
 18  2  1  0  0  0  0
 22 10  1  0  0  0  0
M  END
