3,4
 OpenBabel05122313053D

 67 69  0  0  0  0  0  0  0  0999 V2000
   10.2550   -0.6038   -0.5536 F   0  0  0  0  0  0  0  0  0  0  0  0
   -3.5833   -2.4897    0.5458 O   0  0  0  0  0  0  0  0  0  0  0  0
    4.0985   -0.9153   -0.0320 N   0  0  0  0  0  2  0  0  0  0  0  0
    6.6329   -0.3665   -0.2157 C   0  0  0  0  0  2  0  0  0  0  0  0
    2.8595   -3.3968   -0.1041 C   0  0  0  0  0  0  0  0  0  0  0  0
    2.3761   -4.3831   -0.1609 H   0  0  0  0  0  0  0  0  0  0  0  0
   -0.0627   -3.3867    0.7427 C   0  0  0  0  0  0  0  0  0  0  0  0
    0.5299   -4.2248    1.1391 H   0  0  0  0  0  0  0  0  0  0  0  0
    7.9828    0.0145   -0.3073 C   0  0  0  0  0  0  0  0  0  0  0  0
    8.2739    1.0738   -0.2560 H   0  0  0  0  0  0  0  0  0  0  0  0
    2.7582   -1.0050    0.0824 C   0  0  0  0  0  0  0  0  0  0  0  0
    2.2443   -0.0423    0.2243 H   0  0  0  0  0  0  0  0  0  0  0  0
    4.8784   -2.0430   -0.1807 C   0  0  0  0  0  0  0  0  0  0  0  0
   -6.8842   -0.7638   -0.0200 C   0  0  0  0  0  0  0  0  0  0  0  0
   -6.6481    0.1994    0.4865 H   0  0  0  0  0  0  0  0  0  0  0  0
   -6.7733   -0.5636   -1.1099 H   0  0  0  0  0  0  0  0  0  0  0  0
   -2.2416   -2.3566    0.3923 C   0  0  0  0  0  0  0  0  0  0  0  0
    4.2458   -3.3003   -0.2129 C   0  0  0  0  0  0  0  0  0  0  0  0
    4.8577   -4.2041   -0.3383 H   0  0  0  0  0  0  0  0  0  0  0  0
   -1.4508   -3.4315    0.8572 C   0  0  0  0  0  0  0  0  0  0  0  0
   -1.9595   -4.2904    1.3182 H   0  0  0  0  0  0  0  0  0  0  0  0
    0.5960   -2.2739    0.1632 C   0  0  0  0  0  0  0  0  0  0  0  0
   -4.4373   -1.4347    0.1107 C   0  0  0  0  0  0  0  0  0  0  0  0
   -4.1718   -0.4869    0.6360 H   0  0  0  0  0  0  0  0  0  0  0  0
   -4.2981   -1.2559   -0.9817 H   0  0  0  0  0  0  0  0  0  0  0  0
    8.9613   -0.9727   -0.4658 C   0  0  0  0  0  0  0  0  0  0  0  0
    7.3133   -2.7302   -0.4473 C   0  0  0  0  0  0  0  0  0  0  0  0
    7.0590   -3.8001   -0.5024 H   0  0  0  0  0  0  0  0  0  0  0  0
    2.0687   -2.2308    0.0462 C   0  0  0  0  0  0  0  0  0  0  0  0
   -9.3537   -0.0844   -0.1517 C   0  0  0  0  0  0  0  0  0  0  0  0
   -9.1146    0.8793    0.3528 H   0  0  0  0  0  0  0  0  0  0  0  0
   -9.2409    0.1150   -1.2416 H   0  0  0  0  0  0  0  0  0  0  0  0
    8.6531   -2.3428   -0.5381 C   0  0  0  0  0  0  0  0  0  0  0  0
    9.4642   -3.0733   -0.6631 H   0  0  0  0  0  0  0  0  0  0  0  0
   -1.6058   -1.2388   -0.1890 C   0  0  0  0  0  0  0  0  0  0  0  0
   -2.1904   -0.3922   -0.5722 H   0  0  0  0  0  0  0  0  0  0  0  0
    6.3021   -1.7591   -0.2873 C   0  0  0  0  0  0  0  0  0  0  0  0
   -0.2091   -1.2094   -0.2965 C   0  0  0  0  0  0  0  0  0  0  0  0
    0.2627   -0.3399   -0.7784 H   0  0  0  0  0  0  0  0  0  0  0  0
   -5.8743   -1.8300    0.4104 C   0  0  0  0  0  0  0  0  0  0  0  0
   -5.9672   -2.0295    1.4996 H   0  0  0  0  0  0  0  0  0  0  0  0
   -6.0910   -2.7927   -0.1008 H   0  0  0  0  0  0  0  0  0  0  0  0
   -8.3370   -1.1454    0.2764 C   0  0  0  0  0  0  0  0  0  0  0  0
   -8.5737   -2.1089   -0.2289 H   0  0  0  0  0  0  0  0  0  0  0  0
   -8.4487   -1.3456    1.3659 H   0  0  0  0  0  0  0  0  0  0  0  0
  -11.8246    0.5963   -0.2829 C   0  0  0  0  0  0  0  0  0  0  0  0
  -11.5852    1.5606    0.2204 H   0  0  0  0  0  0  0  0  0  0  0  0
  -11.7123    0.7949   -1.3730 H   0  0  0  0  0  0  0  0  0  0  0  0
  -14.2959    1.2770   -0.4134 C   0  0  0  0  0  0  0  0  0  0  0  0
  -14.0562    2.2416    0.0891 H   0  0  0  0  0  0  0  0  0  0  0  0
  -14.1837    1.4749   -1.5037 H   0  0  0  0  0  0  0  0  0  0  0  0
  -10.8067   -0.4638    0.1454 C   0  0  0  0  0  0  0  0  0  0  0  0
  -11.0453   -1.4280   -0.3584 H   0  0  0  0  0  0  0  0  0  0  0  0
  -10.9191   -0.6630    1.2353 H   0  0  0  0  0  0  0  0  0  0  0  0
  -16.7685    1.9585   -0.5439 C   0  0  0  0  0  0  0  0  0  0  0  0
  -16.5252    2.9214   -0.0416 H   0  0  0  0  0  0  0  0  0  0  0  0
  -16.6527    2.1544   -1.6334 H   0  0  0  0  0  0  0  0  0  0  0  0
  -13.2776    0.2174    0.0151 C   0  0  0  0  0  0  0  0  0  0  0  0
  -13.5165   -0.7472   -0.4877 H   0  0  0  0  0  0  0  0  0  0  0  0
  -13.3896    0.0190    1.1053 H   0  0  0  0  0  0  0  0  0  0  0  0
  -15.7489    0.8989   -0.1151 C   0  0  0  0  0  0  0  0  0  0  0  0
  -15.9887   -0.0661   -0.6174 H   0  0  0  0  0  0  0  0  0  0  0  0
  -15.8613    0.7010    0.9754 H   0  0  0  0  0  0  0  0  0  0  0  0
  -18.2163    1.5710   -0.2413 C   0  0  0  0  0  0  0  0  0  0  0  0
  -18.9295    2.3566   -0.5628 H   0  0  0  0  0  0  0  0  0  0  0  0
  -18.4987    0.6307   -0.7598 H   0  0  0  0  0  0  0  0  0  0  0  0
  -18.3702    1.4044    0.8456 H   0  0  0  0  0  0  0  0  0  0  0  0
  1 26  1  0  0  0  0
  3 11  1  0  0  0  0
  5 29  1  0  0  0  0
  6  5  1  0  0  0  0
  7 20  1  0  0  0  0
  7  8  1  0  0  0  0
  9 10  1  0  0  0  0
  9  4  1  0  0  0  0
 11 12  1  0  0  0  0
 13  3  1  0  0  0  0
 14 43  1  0  0  0  0
 14 40  1  0  0  0  0
 14 15  1  0  0  0  0
 16 14  1  0  0  0  0
 17  2  1  0  0  0  0
 17 20  2  0  0  0  0
 18 13  1  0  0  0  0
 18  5  2  0  0  0  0
 19 18  1  0  0  0  0
 20 21  1  0  0  0  0
 22  7  2  0  0  0  0
 23 40  1  0  0  0  0
 23  2  1  0  0  0  0
 23 24  1  0  0  0  0
 25 23  1  0  0  0  0
 26  9  2  0  0  0  0
 27 37  1  0  0  0  0
 28 27  1  0  0  0  0
 29 11  2  0  0  0  0
 29 22  1  0  0  0  0
 30 52  1  0  0  0  0
 30 43  1  0  0  0  0
 30 31  1  0  0  0  0
 32 30  1  0  0  0  0
 33 26  1  0  0  0  0
 33 27  2  0  0  0  0
 34 33  1  0  0  0  0
 35 17  1  0  0  0  0
 36 35  1  0  0  0  0
 37  4  1  0  0  0  0
 37 13  2  0  0  0  0
 38 35  2  0  0  0  0
 38 22  1  0  0  0  0
 39 38  1  0  0  0  0
 40 41  1  0  0  0  0
 42 40  1  0  0  0  0
 43 45  1  0  0  0  0
 44 43  1  0  0  0  0
 46 58  1  0  0  0  0
 46 52  1  0  0  0  0
 46 47  1  0  0  0  0
 48 46  1  0  0  0  0
 49 61  1  0  0  0  0
 49 58  1  0  0  0  0
 49 50  1  0  0  0  0
 51 49  1  0  0  0  0
 52 54  1  0  0  0  0
 53 52  1  0  0  0  0
 55 64  1  0  0  0  0
 55 61  1  0  0  0  0
 55 56  1  0  0  0  0
 57 55  1  0  0  0  0
 58 60  1  0  0  0  0
 59 58  1  0  0  0  0
 61 63  1  0  0  0  0
 62 61  1  0  0  0  0
 64 67  1  0  0  0  0
 65 64  1  0  0  0  0
 66 64  1  0  0  0  0
M  END
