1,7
 OpenBabel05122313053D

 44 46  0  0  1  0  0  0  0  0999 V2000
    1.4708    0.7370    0.0029 C   0  0  0  0  0  2  0  0  0  0  0  0
    2.5029    1.6316    0.1266 N   0  0  0  0  0  0  0  0  0  0  0  0
    2.0144    2.9391    0.2123 C   0  0  0  0  0  0  0  0  0  0  0  0
    0.6546    2.8987    0.1519 C   0  0  0  0  0  0  0  0  0  0  0  0
    0.3303    1.5512    0.0154 N   0  0  0  0  0  0  0  0  0  0  0  0
   -0.9374    0.9627    0.0351 C   0  0  1  0  0  3  0  0  0  0  0  0
   -0.9244   -0.3437    0.0910 N   0  0  0  0  0  2  0  0  0  0  0  0
   -2.1320    1.8392    0.0184 C   0  0  0  0  0  0  0  0  0  0  0  0
   -2.2995    2.7934   -1.0094 C   0  0  0  0  0  0  0  0  0  0  0  0
   -3.4420    3.6052   -1.0358 C   0  0  0  0  0  0  0  0  0  0  0  0
   -4.4190    3.4784   -0.0359 C   0  0  0  0  0  0  0  0  0  0  0  0
   -4.2540    2.5330    0.9899 C   0  0  0  0  0  0  0  0  0  0  0  0
   -3.1205    1.7121    1.0180 C   0  0  0  0  0  0  0  0  0  0  0  0
    3.9818    1.3181    0.1845 C   0  0  0  0  0  0  0  0  0  0  0  0
    4.7680    2.6117    0.4538 C   0  0  0  0  0  0  0  0  0  0  0  0
    4.4042    0.7515   -1.1788 C   0  0  0  0  0  0  0  0  0  0  0  0
    4.2269    0.3443    1.3466 C   0  0  0  0  0  0  0  0  0  0  0  0
   -2.1484   -1.0739    0.0540 C   0  0  0  0  0  0  0  0  0  0  0  0
   -3.0121   -0.9582   -1.0498 C   0  0  0  0  0  0  0  0  0  0  0  0
   -4.2231   -1.6627   -1.0599 C   0  0  0  0  0  0  0  0  0  0  0  0
   -4.5733   -2.4790    0.0271 C   0  0  0  0  0  0  0  0  0  0  0  0
   -3.6973   -2.6050    1.1177 C   0  0  0  0  0  0  0  0  0  0  0  0
   -2.4753   -1.9207    1.1294 C   0  0  0  0  0  0  0  0  0  0  0  0
    2.6685    3.8047    0.3163 H   0  0  0  0  0  0  0  0  0  0  0  0
   -0.0960    3.6897    0.2099 H   0  0  0  0  0  0  0  0  0  0  0  0
   -1.5435    2.8797   -1.8045 H   0  0  0  0  0  0  0  0  0  0  0  0
   -3.5724    4.3364   -1.8475 H   0  0  0  0  0  0  0  0  0  0  0  0
   -5.3152    4.1164   -0.0580 H   0  0  0  0  0  0  0  0  0  0  0  0
   -5.0181    2.4304    1.7746 H   0  0  0  0  0  0  0  0  0  0  0  0
   -2.9974    0.9618    1.8116 H   0  0  0  0  0  0  0  0  0  0  0  0
    5.8396    2.3442    0.5144 H   0  0  0  0  0  0  0  0  0  0  0  0
    4.6644    3.3537   -0.3634 H   0  0  0  0  0  0  0  0  0  0  0  0
    4.4916    3.0841    1.4180 H   0  0  0  0  0  0  0  0  0  0  0  0
    5.4920    0.5417   -1.1666 H   0  0  0  0  0  0  0  0  0  0  0  0
    4.2009    1.4876   -1.9830 H   0  0  0  0  0  0  0  0  0  0  0  0
    3.8781   -0.1996   -1.3887 H   0  0  0  0  0  0  0  0  0  0  0  0
    5.3136    0.1459    1.4290 H   0  0  0  0  0  0  0  0  0  0  0  0
    3.8805    0.7878    2.3019 H   0  0  0  0  0  0  0  0  0  0  0  0
    3.7211   -0.6236    1.1725 H   0  0  0  0  0  0  0  0  0  0  0  0
   -2.7223   -0.3241   -1.8998 H   0  0  0  0  0  0  0  0  0  0  0  0
   -4.8946   -1.5756   -1.9272 H   0  0  0  0  0  0  0  0  0  0  0  0
   -5.5250   -3.0312    0.0176 H   0  0  0  0  0  0  0  0  0  0  0  0
   -3.9573   -3.2606    1.9621 H   0  0  0  0  0  0  0  0  0  0  0  0
   -1.7642   -2.0319    1.9581 H   0  0  0  0  0  0  0  0  0  0  0  0
  1  5  1  0  0  0  0
  1  2  1  0  0  0  0
  2 14  1  0  0  0  0
  2  3  1  0  0  0  0
  3 24  1  0  0  0  0
  4 25  1  0  0  0  0
  4  3  2  0  0  0  0
  5  6  1  0  0  0  0
  5  4  1  0  0  0  0
  6  7  1  1  0  0  0
  8  6  1  0  0  0  0
  8 13  1  0  0  0  0
  9  8  2  0  0  0  0
 10  9  1  0  0  0  0
 10 11  2  0  0  0  0
 11 12  1  0  0  0  0
 12 13  2  0  0  0  0
 12 29  1  0  0  0  0
 13 30  1  0  0  0  0
 14 15  1  0  0  0  0
 14 17  1  0  0  0  0
 15 31  1  0  0  0  0
 15 33  1  0  0  0  0
 16 34  1  0  0  0  0
 16 14  1  0  0  0  0
 17 37  1  0  0  0  0
 17 38  1  0  0  0  0
 18  7  1  0  0  0  0
 18 23  1  0  0  0  0
 19 18  2  0  0  0  0
 20 19  1  0  0  0  0
 20 21  2  0  0  0  0
 21 22  1  0  0  0  0
 22 23  2  0  0  0  0
 22 43  1  0  0  0  0
 23 44  1  0  0  0  0
 26  9  1  0  0  0  0
 27 10  1  0  0  0  0
 28 11  1  0  0  0  0
 32 15  1  0  0  0  0
 35 16  1  0  0  0  0
 36 16  1  0  0  0  0
 39 17  1  0  0  0  0
 40 19  1  0  0  0  0
 41 20  1  0  0  0  0
 42 21  1  0  0  0  0
M  END
