13,19
 OpenBabel05122313053D

 50 50  0  0  1  0  0  0  0  0999 V2000
    3.6538   -1.6623   -0.0721 S   0  0  0  0  0  0  0  0  0  0  0  0
   -5.2204   -0.3854   -0.5058 S   0  0  0  0  0  0  0  0  0  0  0  0
    4.4459    0.8363   -0.6999 F   0  0  0  0  0  0  0  0  0  0  0  0
    3.5686   -0.2734   -2.3627 F   0  0  0  0  0  0  0  0  0  0  0  0
    5.5909   -0.7435   -1.6769 F   0  0  0  0  0  0  0  0  0  0  0  0
   -5.2981    1.5319    1.3447 F   0  0  0  0  0  0  0  0  0  0  0  0
   -3.7143    0.0591    1.6560 F   0  0  0  0  0  0  0  0  0  0  0  0
   -3.5074    1.5718    0.0911 F   0  0  0  0  0  0  0  0  0  0  0  0
    3.8346   -2.9356   -0.7983 O   0  0  0  0  0  0  0  0  0  0  0  0
    4.3073   -1.3821    1.2177 O   0  0  0  0  0  0  0  0  0  0  0  0
   -6.0640   -1.2794    0.2956 O   0  0  0  0  0  0  0  0  0  0  0  0
   -5.7087    0.4840   -1.5832 O   0  0  0  0  0  0  0  0  0  0  0  0
    2.0614   -1.2382   -0.0060 N   0  0  0  0  0  2  0  0  0  0  0  0
    1.0003    2.6620   -0.9102 N   0  0  0  0  0  0  0  0  0  0  0  0
   -3.9156   -1.2807   -1.1000 N   0  0  0  0  0  0  0  0  0  0  0  0
    4.3733   -0.3788   -1.2759 C   0  0  0  0  0  0  0  0  0  0  0  0
    1.1837   -1.8807   -0.8734 C   0  0  0  0  0  0  0  0  0  0  0  0
   -0.1436   -1.6309   -0.7162 C   0  0  0  0  0  0  0  0  0  0  0  0
   -0.5302   -0.6038    0.2743 C   0  0  0  0  0  3  0  0  0  0  0  0
   -0.2622    0.8102    0.0893 C   0  0  0  0  0  0  0  0  0  0  0  0
    0.7772    1.3487   -0.6991 C   0  0  0  0  0  0  0  0  0  0  0  0
    0.1412    3.6890   -0.3179 C   0  0  0  0  0  0  0  0  0  0  0  0
   -1.1517    3.9124   -1.1050 C   0  0  0  0  0  0  0  0  0  0  0  0
    2.1517    3.1053   -1.7030 C   0  0  0  0  0  0  0  0  0  0  0  0
    3.2518    3.7733   -0.8773 C   0  0  0  0  0  0  0  0  0  0  0  0
   -4.3804    0.7789    0.7413 C   0  0  0  0  0  0  0  0  0  0  0  0
   -3.4785   -2.4388   -0.4120 C   0  0  0  0  0  0  0  0  0  0  0  0
   -2.2615   -2.9681   -0.6524 C   0  0  0  0  0  0  0  0  0  0  0  0
   -1.2357   -2.3007   -1.5453 C   0  0  1  0  0  0  0  0  0  0  0  0
   -1.9179   -1.2791   -2.4339 C   0  0  0  0  0  0  0  0  0  0  0  0
   -3.1370   -0.7693   -2.1659 C   0  0  0  0  0  0  0  0  0  0  0  0
    1.5998   -2.5796   -1.6174 H   0  0  0  0  0  0  0  0  0  0  0  0
   -1.4761   -0.7984    0.8073 H   0  0  0  0  0  0  0  0  0  0  0  0
   -0.9588    1.5114    0.5707 H   0  0  0  0  0  0  0  0  0  0  0  0
    1.4140    0.6670   -1.2818 H   0  0  0  0  0  0  0  0  0  0  0  0
   -0.0755    3.4102    0.7356 H   0  0  0  0  0  0  0  0  0  0  0  0
    0.7272    4.6273   -0.2674 H   0  0  0  0  0  0  0  0  0  0  0  0
   -0.9333    4.2308   -2.1440 H   0  0  0  0  0  0  0  0  0  0  0  0
   -1.7649    2.9918   -1.1509 H   0  0  0  0  0  0  0  0  0  0  0  0
   -1.7614    4.7040   -0.6261 H   0  0  0  0  0  0  0  0  0  0  0  0
    2.5559    2.2145   -2.2215 H   0  0  0  0  0  0  0  0  0  0  0  0
    1.7849    3.7994   -2.4915 H   0  0  0  0  0  0  0  0  0  0  0  0
    3.6277    3.0968   -0.0875 H   0  0  0  0  0  0  0  0  0  0  0  0
    4.1016    4.0399   -1.5363 H   0  0  0  0  0  0  0  0  0  0  0  0
    2.9020    4.7093   -0.3970 H   0  0  0  0  0  0  0  0  0  0  0  0
   -4.2221   -2.8756    0.2678 H   0  0  0  0  0  0  0  0  0  0  0  0
   -1.9827   -3.8986   -0.1369 H   0  0  0  0  0  0  0  0  0  0  0  0
   -0.7348   -3.0691   -2.1743 H   0  0  0  0  0  0  0  0  0  0  0  0
   -1.3697   -0.8963   -3.3073 H   0  0  0  0  0  0  0  0  0  0  0  0
   -3.6315    0.0092   -2.7619 H   0  0  0  0  0  0  0  0  0  0  0  0
  1 13  1  0  0  0  0
  1 10  2  0  0  0  0
  2 11  2  0  0  0  0
  2 26  1  0  0  0  0
  4 16  1  0  0  0  0
  5 16  1  0  0  0  0
  8 26  1  0  0  0  0
  9  1  2  0  0  0  0
 12  2  2  0  0  0  0
 14 21  1  0  0  0  0
 14 22  1  0  0  0  0
 15  2  1  0  0  0  0
 15 27  1  0  0  0  0
 16  3  1  0  0  0  0
 16  1  1  0  0  0  0
 17 18  2  0  0  0  0
 17 13  1  0  0  0  0
 18 19  1  0  0  0  0
 19 33  1  0  0  0  0
 20 19  1  0  0  0  0
 20 34  1  0  0  0  0
 21 20  2  0  0  0  0
 22 37  1  0  0  0  0
 22 36  1  0  0  0  0
 23 40  1  0  0  0  0
 23 22  1  0  0  0  0
 24 14  1  0  0  0  0
 24 25  1  0  0  0  0
 25 45  1  0  0  0  0
 25 43  1  0  0  0  0
 26  6  1  0  0  0  0
 26  7  1  0  0  0  0
 27 46  1  0  0  0  0
 28 27  2  0  0  0  0
 28 47  1  0  0  0  0
 29 48  1  6  0  0  0
 29 18  1  0  0  0  0
 29 28  1  0  0  0  0
 30 31  2  0  0  0  0
 30 29  1  0  0  0  0
 31 15  1  0  0  0  0
 32 17  1  0  0  0  0
 35 21  1  0  0  0  0
 38 23  1  0  0  0  0
 39 23  1  0  0  0  0
 41 24  1  0  0  0  0
 42 24  1  0  0  0  0
 44 25  1  0  0  0  0
 49 30  1  0  0  0  0
 50 31  1  0  0  0  0
M  END
