1,16
 OpenBabel05122313053D

 32 34  0  0  1  0  0  0  0  0999 V2000
    1.0731   -0.1924   -1.7652 N   0  0  0  0  0  2  0  0  0  0  0  0
    3.1385    0.1085   -0.6129 N   0  0  0  0  0  0  0  0  0  0  0  0
   -0.1442    2.9929    1.5343 F   0  0  0  0  0  0  0  0  0  0  0  0
    4.4451    3.9542    1.9315 F   0  0  0  0  0  0  0  0  0  0  0  0
    5.5169   -3.2914    1.8027 F   0  0  0  0  0  0  0  0  0  0  0  0
    7.9290   -0.4155   -1.0522 F   0  0  0  0  0  0  0  0  0  0  0  0
    2.4285   -0.3640   -1.7025 C   0  0  1  0  0  3  0  0  0  0  0  0
    3.0916   -1.0346   -2.7669 C   0  0  0  0  0  0  0  0  0  0  0  0
    4.1661   -1.2338   -2.6828 H   0  0  0  0  0  0  0  0  0  0  0  0
    2.3910   -1.3914   -3.9128 C   0  0  0  0  0  0  0  0  0  0  0  0
    2.9159   -1.8944   -4.7384 H   0  0  0  0  0  0  0  0  0  0  0  0
    1.0237   -1.0709   -4.0162 C   0  0  0  0  0  0  0  0  0  0  0  0
    0.4377   -1.2921   -4.9180 H   0  0  0  0  0  0  0  0  0  0  0  0
    0.4142   -0.4766   -2.9201 C   0  0  0  0  0  0  0  0  0  0  0  0
   -0.6544   -0.2248   -2.9190 H   0  0  0  0  0  0  0  0  0  0  0  0
    1.3832    1.4891    0.4844 C   0  0  0  0  0  3  0  0  0  0  0  0
    1.1363    2.6584    1.2315 C   0  0  0  0  0  0  0  0  0  0  0  0
    2.1267    3.5087    1.7363 C   0  0  0  0  0  0  0  0  0  0  0  0
    1.8664    4.3956    2.3282 H   0  0  0  0  0  0  0  0  0  0  0  0
    3.4529    3.1716    1.4603 C   0  0  0  0  0  0  0  0  0  0  0  0
    3.7823    2.0515    0.6973 C   0  0  0  0  0  0  0  0  0  0  0  0
    4.8398    1.8460    0.4961 H   0  0  0  0  0  0  0  0  0  0  0  0
    2.7481    1.2266    0.1999 C   0  0  0  0  0  0  0  0  0  0  0  0
    4.3766   -0.5541   -0.2878 C   0  0  0  0  0  0  0  0  0  0  0  0
    4.3289   -1.6267    0.6175 C   0  0  0  0  0  0  0  0  0  0  0  0
    3.3670   -1.9513    1.0454 H   0  0  0  0  0  0  0  0  0  0  0  0
    5.5325   -2.2657    0.9398 C   0  0  0  0  0  0  0  0  0  0  0  0
    6.7620   -1.8754    0.3921 C   0  0  0  0  0  0  0  0  0  0  0  0
    7.6930   -2.3919    0.6601 H   0  0  0  0  0  0  0  0  0  0  0  0
    6.7629   -0.8057   -0.5101 C   0  0  0  0  0  0  0  0  0  0  0  0
    5.5888   -0.1307   -0.8654 C   0  0  0  0  0  0  0  0  0  0  0  0
    5.6255    0.7051   -1.5767 H   0  0  0  0  0  0  0  0  0  0  0  0
  1  7  1  0  0  0  0
  2 24  1  0  0  0  0
  2 23  1  0  0  0  0
  6 30  1  0  0  0  0
  7  2  1  1  0  0  0
  8  9  1  0  0  0  0
  8  7  1  0  0  0  0
 10  8  2  0  0  0  0
 11 10  1  0  0  0  0
 12 10  1  0  0  0  0
 12 14  2  0  0  0  0
 13 12  1  0  0  0  0
 14 15  1  0  0  0  0
 14  1  1  0  0  0  0
 16 17  1  0  0  0  0
 17  3  1  0  0  0  0
 17 18  2  0  0  0  0
 18 19  1  0  0  0  0
 20 18  1  0  0  0  0
 20  4  1  0  0  0  0
 21 20  2  0  0  0  0
 22 21  1  0  0  0  0
 23 16  2  0  0  0  0
 23 21  1  0  0  0  0
 24 25  1  0  0  0  0
 25 27  2  0  0  0  0
 25 26  1  0  0  0  0
 27  5  1  0  0  0  0
 28 29  1  0  0  0  0
 28 27  1  0  0  0  0
 30 28  2  0  0  0  0
 31 30  1  0  0  0  0
 31 24  2  0  0  0  0
 32 31  1  0  0  0  0
M  END
