18,23
 OpenBabel05122313053D

 30 31  0  0  0  0  0  0  0  0999 V2000
   -3.7138   -1.0166   -0.8644 C   0  0  0  0  0  0  0  0  0  0  0  0
   -5.0372   -0.5023   -1.0509 C   0  0  0  0  0  0  0  0  0  0  0  0
   -6.1316   -0.1113   -1.2279 N   0  0  0  0  0  0  0  0  0  0  0  0
   -3.4564   -2.3055   -1.4368 C   0  0  0  0  0  0  0  0  0  0  0  0
   -3.2373   -3.3482   -1.9337 N   0  0  0  0  0  0  0  0  0  0  0  0
   -2.7074   -0.3356   -0.1790 C   0  0  0  0  0  0  0  0  0  0  0  0
   -2.9649    0.9857    0.4395 C   0  0  0  0  0  0  0  0  0  0  0  0
   -3.6180    2.0251   -0.2590 C   0  0  0  0  0  0  0  0  0  0  0  0
   -3.9119    1.8786   -1.3082 H   0  0  0  0  0  0  0  0  0  0  0  0
   -3.8945    3.2417    0.3781 C   0  0  0  0  0  0  0  0  0  0  0  0
   -4.4051    4.0420   -0.1785 H   0  0  0  0  0  0  0  0  0  0  0  0
   -3.5268    3.4384    1.7188 C   0  0  0  0  0  0  0  0  0  0  0  0
   -3.7465    4.3946    2.2169 H   0  0  0  0  0  0  0  0  0  0  0  0
   -2.8786    2.4113    2.4221 C   0  0  0  0  0  0  0  0  0  0  0  0
   -2.5947    2.5544    3.4752 H   0  0  0  0  0  0  0  0  0  0  0  0
   -2.5959    1.1964    1.7868 C   0  0  0  0  0  0  0  0  0  0  0  0
   -2.1363    0.3724    2.3502 H   0  0  0  0  0  0  0  0  0  0  0  0
   -1.3855   -0.9639   -0.0781 C   0  0  0  0  0  2  0  0  0  0  0  0
   -1.1491   -2.0306    0.8137 C   0  0  0  0  0  0  0  0  0  0  0  0
   -2.0010   -2.4533    1.8696 C   0  0  0  0  0  0  0  0  0  0  0  0
   -2.6746   -2.7703    2.7825 N   0  0  0  0  0  0  0  0  0  0  0  0
    0.1127   -2.6525    0.5394 C   0  0  0  0  0  0  0  0  0  0  0  0
    0.8132   -2.1651   -0.5099 N   0  0  0  0  0  2  0  0  0  0  0  0
    1.9596   -2.8746   -0.6186 N   0  0  0  0  0  0  0  0  0  0  0  0
    1.9946   -3.7867    0.3014 N   0  0  0  0  0  0  0  0  0  0  0  0
    0.8561   -3.6657    1.0434 N   0  0  0  0  0  0  0  0  0  0  0  0
    0.5799   -4.5473    2.1603 C   0  0  0  0  0  0  0  0  0  0  0  0
    0.3733   -3.9488    3.0669 H   0  0  0  0  0  0  0  0  0  0  0  0
    1.4782   -5.1703    2.3142 H   0  0  0  0  0  0  0  0  0  0  0  0
   -0.2946   -5.1896    1.9395 H   0  0  0  0  0  0  0  0  0  0  0  0
  1  6  2  0  0  0  0
  2  1  1  0  0  0  0
  3  2  3  0  0  0  0
  4  1  1  0  0  0  0
  5  4  3  0  0  0  0
  6 18  1  0  0  0  0
  6  7  1  0  0  0  0
  7 16  1  0  0  0  0
  8 10  1  0  0  0  0
  8  7  2  0  0  0  0
  9  8  1  0  0  0  0
 10 12  2  0  0  0  0
 11 10  1  0  0  0  0
 12 13  1  0  0  0  0
 12 14  1  0  0  0  0
 14 15  1  0  0  0  0
 16 17  1  0  0  0  0
 16 14  2  0  0  0  0
 18 19  1  0  0  0  0
 19 20  1  0  0  0  0
 20 21  3  0  0  0  0
 22 19  2  0  0  0  0
 22 26  1  0  0  0  0
 23 22  1  0  0  0  0
 24 23  1  0  0  0  0
 24 25  2  0  0  0  0
 25 26  1  0  0  0  0
 26 27  1  0  0  0  0
 27 29  1  0  0  0  0
 27 28  1  0  0  0  0
 30 27  1  0  0  0  0
M  END
