1,3
 OpenBabel05122313053D

 32 36  0  0  0  0  0  0  0  0999 V2000
   -1.7048    1.9061   -0.0001 N   0  0  0  0  0  2  0  0  0  0  0  0
    2.6194    0.8647    0.0008 N   0  0  0  0  0  0  0  0  0  0  0  0
    0.4298    0.4179    0.0002 C   0  0  0  0  0  2  0  0  0  0  0  0
    1.7109   -0.1826    0.0007 C   0  0  0  0  0  0  0  0  0  0  0  0
    2.5329   -1.3716    0.0002 C   0  0  0  0  0  0  0  0  0  0  0  0
    2.2181   -2.7450   -0.0000 C   0  0  0  0  0  0  0  0  0  0  0  0
    1.1628   -3.0491    0.0001 H   0  0  0  0  0  0  0  0  0  0  0  0
    3.2638   -3.6732   -0.0004 C   0  0  0  0  0  0  0  0  0  0  0  0
    3.0308   -4.7494   -0.0006 H   0  0  0  0  0  0  0  0  0  0  0  0
    4.6191   -3.2620   -0.0006 C   0  0  0  0  0  0  0  0  0  0  0  0
    5.4161   -4.0206   -0.0009 H   0  0  0  0  0  0  0  0  0  0  0  0
    4.9555   -1.9042   -0.0004 C   0  0  0  0  0  0  0  0  0  0  0  0
    6.0094   -1.5869   -0.0005 H   0  0  0  0  0  0  0  0  0  0  0  0
    3.9214   -0.9499    0.0000 C   0  0  0  0  0  0  0  0  0  0  0  0
    3.9466    0.5058    0.0003 C   0  0  0  0  0  0  0  0  0  0  0  0
    4.8589    1.5654   -0.0001 C   0  0  0  0  0  0  0  0  0  0  0  0
    5.9403    1.3747   -0.0004 H   0  0  0  0  0  0  0  0  0  0  0  0
    4.3527    2.8896   -0.0001 C   0  0  0  0  0  0  0  0  0  0  0  0
    5.0678    3.7255   -0.0004 H   0  0  0  0  0  0  0  0  0  0  0  0
    2.9735    3.1848    0.0000 C   0  0  0  0  0  0  0  0  0  0  0  0
    2.6329    4.2287   -0.0003 H   0  0  0  0  0  0  0  0  0  0  0  0
    2.0451    2.1257    0.0004 C   0  0  0  0  0  0  0  0  0  0  0  0
    0.6356    1.8479    0.0001 C   0  0  0  0  0  0  0  0  0  0  0  0
   -0.5458    2.6597   -0.0000 C   0  0  0  0  0  0  0  0  0  0  0  0
   -0.6393    4.0707   -0.0000 C   0  0  0  0  0  0  0  0  0  0  0  0
    0.2821    4.6683    0.0001 H   0  0  0  0  0  0  0  0  0  0  0  0
   -1.8931    4.6833   -0.0002 C   0  0  0  0  0  0  0  0  0  0  0  0
   -1.9689    5.7813   -0.0002 H   0  0  0  0  0  0  0  0  0  0  0  0
   -3.0558    3.8897   -0.0003 C   0  0  0  0  0  0  0  0  0  0  0  0
   -4.0596    4.3357   -0.0005 H   0  0  0  0  0  0  0  0  0  0  0  0
   -2.9133    2.4991   -0.0003 C   0  0  0  0  0  0  0  0  0  0  0  0
   -3.7706    1.8074   -0.0004 H   0  0  0  0  0  0  0  0  0  0  0  0
  1 24  1  0  0  0  0
  3  4  1  0  0  0  0
  4  2  1  0  0  0  0
  5  4  2  0  0  0  0
  6  7  1  0  0  0  0
  6  5  1  0  0  0  0
  8  6  2  0  0  0  0
  9  8  1  0  0  0  0
 10  8  1  0  0  0  0
 10 12  2  0  0  0  0
 11 10  1  0  0  0  0
 12 14  1  0  0  0  0
 13 12  1  0  0  0  0
 14  5  1  0  0  0  0
 14 15  2  0  0  0  0
 15  2  1  0  0  0  0
 16 15  1  0  0  0  0
 17 16  1  0  0  0  0
 18 16  2  0  0  0  0
 18 20  1  0  0  0  0
 19 18  1  0  0  0  0
 20 22  2  0  0  0  0
 21 20  1  0  0  0  0
 22  2  1  0  0  0  0
 23  3  1  0  0  0  0
 23 22  1  0  0  0  0
 24 23  2  0  0  0  0
 25 24  1  0  0  0  0
 25 26  1  0  0  0  0
 27 25  2  0  0  0  0
 28 27  1  0  0  0  0
 29 31  2  0  0  0  0
 29 27  1  0  0  0  0
 30 29  1  0  0  0  0
 31  1  1  0  0  0  0
 32 31  1  0  0  0  0
M  END
