5,6
 OpenBabel05122313053D

 24 25  0  0  1  0  0  0  0  0999 V2000
    4.3014   -2.4312   -0.6073 Cl  0  0  0  0  0  0  0  0  0  0  0  0
    4.5642    0.8047    0.7322 Cl  0  0  0  0  0  0  0  0  0  0  0  0
    1.8569    0.3828    0.5116 N   0  0  0  0  0  0  0  0  0  0  0  0
    1.6908   -1.6215   -0.3090 N   0  0  0  0  0  0  0  0  0  0  0  0
   -0.5702    1.8844   -0.2596 N   0  0  0  0  0  2  0  0  0  0  0  0
    0.9321   -0.5574    0.1203 C   0  0  0  0  0  2  0  0  0  0  0  0
    3.1565   -0.0793    0.3348 C   0  0  0  0  0  0  0  0  0  0  0  0
    3.0509   -1.3468   -0.1854 C   0  0  0  0  0  0  0  0  0  0  0  0
    1.1590   -2.8321   -0.9140 C   0  0  0  0  0  0  0  0  0  0  0  0
    0.5747   -3.4044   -0.1699 H   0  0  0  0  0  0  0  0  0  0  0  0
    2.0035   -3.4500   -1.2654 H   0  0  0  0  0  0  0  0  0  0  0  0
    0.5171   -2.5367   -1.7669 H   0  0  0  0  0  0  0  0  0  0  0  0
    1.5196    1.6957    1.0435 C   0  0  0  0  0  0  0  0  0  0  0  0
    2.4612    2.2564    1.1744 H   0  0  0  0  0  0  0  0  0  0  0  0
    1.0237    1.5356    2.0293 H   0  0  0  0  0  0  0  0  0  0  0  0
    0.5705    2.4785    0.1785 C   0  0  2  0  0  3  0  0  0  0  0  0
    0.8543    3.8247   -0.1096 C   0  0  0  0  0  0  0  0  0  0  0  0
    1.7928    4.2624    0.2606 H   0  0  0  0  0  0  0  0  0  0  0  0
   -0.0454    4.5861   -0.8620 C   0  0  0  0  0  0  0  0  0  0  0  0
    0.1654    5.6410   -1.0920 H   0  0  0  0  0  0  0  0  0  0  0  0
   -1.2113    3.9625   -1.3229 C   0  0  0  0  0  0  0  0  0  0  0  0
   -1.9547    4.4998   -1.9282 H   0  0  0  0  0  0  0  0  0  0  0  0
   -1.4252    2.6191   -1.0071 C   0  0  0  0  0  0  0  0  0  0  0  0
   -2.3194    2.0945   -1.3631 H   0  0  0  0  0  0  0  0  0  0  0  0
  1  8  1  0  0  0  0
  3 13  1  0  0  0  0
  4  8  1  0  0  0  0
  4  6  1  0  0  0  0
  5 16  1  0  0  0  0
  6  3  1  0  0  0  0
  7  3  1  0  0  0  0
  7  2  1  0  0  0  0
  8  7  2  0  0  0  0
  9  4  1  0  0  0  0
  9 10  1  0  0  0  0
 11  9  1  0  0  0  0
 12  9  1  0  0  0  0
 13 14  1  0  0  0  0
 13 15  1  0  0  0  0
 16 13  1  1  0  0  0
 17 16  1  0  0  0  0
 17 18  1  0  0  0  0
 19 17  2  0  0  0  0
 20 19  1  0  0  0  0
 21 23  2  0  0  0  0
 21 19  1  0  0  0  0
 22 21  1  0  0  0  0
 23  5  1  0  0  0  0
 24 23  1  0  0  0  0
M  END
