1,9
 OpenBabel05122313053D

 25 25  0  0  0  0  0  0  0  0999 V2000
   -1.2852   -1.0784    0.0002 C   0  0  0  0  0  2  0  0  0  0  0  0
   -1.5722   -2.4573    0.0002 C   0  0  0  0  0  0  0  0  0  0  0  0
   -2.8968   -2.9245    0.0001 C   0  0  0  0  0  0  0  0  0  0  0  0
   -3.9791   -2.0251   -0.0002 C   0  0  0  0  0  0  0  0  0  0  0  0
   -3.7272   -0.6507   -0.0003 C   0  0  0  0  0  0  0  0  0  0  0  0
   -2.3947   -0.1748   -0.0001 C   0  0  0  0  0  0  0  0  0  0  0  0
   -2.0623    1.2421   -0.0000 C   0  0  0  0  0  0  0  0  0  0  0  0
   -3.1110    2.3110   -0.0003 C   0  0  0  0  0  0  0  0  0  0  0  0
   -0.7660    1.4973    0.0002 N   0  0  0  0  0  2  0  0  0  0  0  0
   -0.3727    2.8557    0.0002 N   0  0  0  0  0  0  0  0  0  0  0  0
    0.3413    3.1822   -1.2273 C   0  0  0  0  0  0  0  0  0  0  0  0
    0.3418    3.1820    1.2274 C   0  0  0  0  0  0  0  0  0  0  0  0
   -0.7559   -3.1981    0.0004 H   0  0  0  0  0  0  0  0  0  0  0  0
   -3.0875   -4.0094    0.0001 H   0  0  0  0  0  0  0  0  0  0  0  0
   -5.0135   -2.3994   -0.0004 H   0  0  0  0  0  0  0  0  0  0  0  0
   -4.5685    0.0590   -0.0005 H   0  0  0  0  0  0  0  0  0  0  0  0
   -2.6392    3.3084    0.0004 H   0  0  0  0  0  0  0  0  0  0  0  0
   -3.7651    2.2048    0.8891 H   0  0  0  0  0  0  0  0  0  0  0  0
   -3.7638    2.2055   -0.8907 H   0  0  0  0  0  0  0  0  0  0  0  0
    1.2632    2.5695   -1.3803 H   0  0  0  0  0  0  0  0  0  0  0  0
    0.6141    4.2555   -1.2030 H   0  0  0  0  0  0  0  0  0  0  0  0
   -0.3229    3.0110   -2.0968 H   0  0  0  0  0  0  0  0  0  0  0  0
    1.2639    2.5695    1.3799 H   0  0  0  0  0  0  0  0  0  0  0  0
   -0.3220    3.0104    2.0972 H   0  0  0  0  0  0  0  0  0  0  0  0
    0.6143    4.2554    1.2034 H   0  0  0  0  0  0  0  0  0  0  0  0
  1  2  1  0  0  0  0
  2 13  1  0  0  0  0
  3 14  1  0  0  0  0
  3  2  2  0  0  0  0
  4  3  1  0  0  0  0
  5  4  2  0  0  0  0
  5  6  1  0  0  0  0
  6  7  2  0  0  0  0
  6  1  1  0  0  0  0
  7  9  1  0  0  0  0
  8  7  1  0  0  0  0
  8 17  1  0  0  0  0
  8 18  1  0  0  0  0
  9 10  1  0  0  0  0
 10 12  1  0  0  0  0
 11 21  1  0  0  0  0
 11 10  1  0  0  0  0
 12 23  1  0  0  0  0
 12 24  1  0  0  0  0
 15  4  1  0  0  0  0
 16  5  1  0  0  0  0
 19  8  1  0  0  0  0
 20 11  1  0  0  0  0
 22 11  1  0  0  0  0
 25 12  1  0  0  0  0
M  END
