2,8
 OpenBabel05122313053D

 23 27  0  0  0  0  0  0  0  0999 V2000
    2.9807    0.7886    0.2653 P   0  0  0  0  0  0  0  0  0  0  0  0
    1.2551    0.1210    0.4488 N   0  0  0  0  0  2  0  0  0  0  0  0
    3.7875   -0.8549    0.2537 C   0  0  0  0  0  0  0  0  0  0  0  0
    5.1847   -1.0795    0.3040 C   0  0  0  0  0  0  0  0  0  0  0  0
    5.7237   -2.3800    0.2595 C   0  0  0  0  0  0  0  0  0  0  0  0
    4.8987   -3.5392    0.1438 C   0  0  0  0  0  0  0  0  0  0  0  0
    3.5887   -3.1320    0.1213 C   0  0  0  0  0  3  0  0  0  0  0  0
    2.9803   -2.0069    0.1553 C   0  0  0  0  0  3  0  0  0  0  0  0
    2.3921    1.5420    1.8204 C   0  0  0  0  0  0  0  0  0  0  0  0
    2.6073    2.4053    2.8746 C   0  0  0  0  0  3  0  0  0  0  0  0
    1.5396    2.5021    3.6211 C   0  0  0  0  0  3  0  0  0  0  0  0
    0.3475    1.9210    3.5724 C   0  0  0  0  0  3  0  0  0  0  0  0
    0.1355    1.1135    2.5733 C   0  0  0  0  0  3  0  0  0  0  0  0
    1.0915    0.8374    1.6030 C   0  0  0  0  0  0  0  0  0  0  0  0
    4.4319    1.9159   -0.3580 C   0  0  0  0  0  0  0  0  0  0  0  0
    3.1821    1.8339   -1.1477 C   0  0  0  0  0  0  0  0  0  0  0  0
    2.8685    2.5791   -2.2880 C   0  0  0  0  0  3  0  0  0  0  0  0
    3.9191    3.3365   -2.5308 C   0  0  0  0  0  3  0  0  0  0  0  0
    5.1084    3.5747   -2.0001 C   0  0  0  0  0  3  0  0  0  0  0  0
    5.2586    2.8218   -0.9310 C   0  0  0  0  0  3  0  0  0  0  0  0
    5.8582   -0.2115    0.3680 H   0  0  0  0  0  0  0  0  0  0  0  0
    6.8152   -2.5239    0.3105 H   0  0  0  0  0  0  0  0  0  0  0  0
    5.3013   -4.5596    0.0910 H   0  0  0  0  0  0  0  0  0  0  0  0
  1  2  1  0  0  0  0
  1  9  1  0  0  0  0
  2 14  1  0  0  0  0
  3  1  1  0  0  0  0
  3  4  1  0  0  0  0
  4 21  1  0  0  0  0
  5  4  2  0  0  0  0
  5 22  1  0  0  0  0
  6  5  1  0  0  0  0
  7  6  2  0  0  0  0
  7  8  1  0  0  0  0
  8  3  2  0  0  0  0
  9 10  1  0  0  0  0
 10 11  2  0  0  0  0
 12 11  1  0  0  0  0
 13 12  2  0  0  0  0
 14  9  2  0  0  0  0
 14 13  1  0  0  0  0
 15  1  1  0  0  0  0
 16 15  2  0  0  0  0
 16  1  1  0  0  0  0
 17 16  1  0  0  0  0
 18 17  2  0  0  0  0
 18 19  1  0  0  0  0
 19 20  2  0  0  0  0
 20 15  1  0  0  0  0
 23  6  1  0  0  0  0
M  END
