5,10
 OpenBabel05122313053D

 21 20  0  0  1  0  0  0  0  0999 V2000
   -5.3231   -0.0889   -0.8457 C   0  0  0  0  0  0  0  0  0  0  0  0
   -5.9375   -0.4688   -0.0087 H   0  0  0  0  0  0  0  0  0  0  0  0
   -5.2160   -0.8955   -1.6005 H   0  0  0  0  0  0  0  0  0  0  0  0
   -5.8937    0.7218   -1.3450 H   0  0  0  0  0  0  0  0  0  0  0  0
   -1.4476    0.8891    1.5434 N   0  0  0  0  0  2  0  0  0  0  0  0
   -0.8505    1.2788    2.2856 H   0  0  0  0  0  0  0  0  0  0  0  0
   -3.9686    0.3944   -0.3777 C   0  0  0  0  0  0  0  0  0  0  0  0
   -3.8060    0.4916    0.9913 C   0  0  0  0  0  0  0  0  0  0  0  0
   -4.7078    0.2545    1.5797 H   0  0  0  0  0  0  0  0  0  0  0  0
   -1.6605    0.7279   -1.3675 C   0  0  0  0  0  3  0  0  0  0  0  0
   -1.1501    1.0491   -2.2997 H   0  0  0  0  0  0  0  0  0  0  0  0
   -3.6554    1.2335   -2.7546 C   0  0  0  0  0  0  0  0  0  0  0  0
   -4.1810    0.4053   -3.2753 H   0  0  0  0  0  0  0  0  0  0  0  0
   -2.8771    1.6139   -3.4428 H   0  0  0  0  0  0  0  0  0  0  0  0
   -4.4023    2.0424   -2.6103 H   0  0  0  0  0  0  0  0  0  0  0  0
   -3.1291    1.5413    3.1639 C   0  0  0  0  0  0  0  0  0  0  0  0
   -2.2527    1.7907    3.7933 H   0  0  0  0  0  0  0  0  0  0  0  0
   -3.7659    0.8222    3.7185 H   0  0  0  0  0  0  0  0  0  0  0  0
   -3.7369    2.4588    3.0225 H   0  0  0  0  0  0  0  0  0  0  0  0
   -3.0305    0.7917   -1.4388 C   0  0  0  0  0  0  0  0  0  0  0  0
   -2.7276    0.9665    1.8270 C   0  0  1  0  0  3  0  0  0  0  0  0
  1  7  1  0  0  0  0
  1  2  1  0  0  0  0
  3  1  1  0  0  0  0
  4  1  1  0  0  0  0
  5 21  1  0  0  0  0
  5  6  1  0  0  0  0
  7  8  2  0  0  0  0
  8  9  1  0  0  0  0
 11 10  1  0  0  0  0
 12 15  1  0  0  0  0
 12 20  1  0  0  0  0
 13 12  1  0  0  0  0
 14 12  1  0  0  0  0
 16 18  1  0  0  0  0
 16 17  1  0  0  0  0
 19 16  1  0  0  0  0
 20 10  2  0  0  0  0
 20  7  1  0  0  0  0
 21  8  1  1  0  0  0
 21 16  1  0  0  0  0
M  END
