1,4
 OpenBabel05122313053D

 35 36  0  0  0  0  0  0  0  0999 V2000
   -0.1090   -0.6445   -0.3096 N   0  0  0  0  0  2  0  0  0  0  0  0
   -0.6928   -1.6230    0.4291 C   0  0  0  0  0  3  0  0  0  0  0  0
   -0.1293   -2.2583    1.1398 H   0  0  0  0  0  0  0  0  0  0  0  0
   -2.1091   -1.7262    0.2739 C   0  0  0  0  0  3  0  0  0  0  0  0
   -2.6815   -2.3987    0.9289 H   0  0  0  0  0  0  0  0  0  0  0  0
   -2.7163   -0.8600   -0.6953 C   0  0  0  0  0  3  0  0  0  0  0  0
   -2.0907   -0.6290   -1.5732 H   0  0  0  0  0  0  0  0  0  0  0  0
   -4.1676   -0.7060   -0.8885 C   0  0  0  0  0  0  0  0  0  0  0  0
   -5.1292   -1.2064    0.0206 C   0  0  0  0  0  0  0  0  0  0  0  0
   -4.8084   -1.7362    0.9298 H   0  0  0  0  0  0  0  0  0  0  0  0
   -6.4983   -1.0318   -0.2161 C   0  0  0  0  0  0  0  0  0  0  0  0
   -7.2294   -1.4304    0.5034 H   0  0  0  0  0  0  0  0  0  0  0  0
   -6.9394   -0.3490   -1.3617 C   0  0  0  0  0  0  0  0  0  0  0  0
   -8.0158   -0.2104   -1.5430 H   0  0  0  0  0  0  0  0  0  0  0  0
   -5.9973    0.1568   -2.2720 C   0  0  0  0  0  0  0  0  0  0  0  0
   -6.3322    0.6938   -3.1723 H   0  0  0  0  0  0  0  0  0  0  0  0
   -4.6288   -0.0210   -2.0375 C   0  0  0  0  0  0  0  0  0  0  0  0
   -3.8914    0.3785   -2.7514 H   0  0  0  0  0  0  0  0  0  0  0  0
    1.2619   -0.4214   -0.2795 C   0  0  0  0  0  0  0  0  0  0  0  0
    1.7654    0.8997   -0.3362 C   0  0  0  0  0  0  0  0  0  0  0  0
    1.0621    1.7430   -0.3425 H   0  0  0  0  0  0  0  0  0  0  0  0
    3.1439    1.1321   -0.3720 C   0  0  0  0  0  0  0  0  0  0  0  0
    4.0592    0.0657   -0.3479 C   0  0  0  0  0  0  0  0  0  0  0  0
    5.1403    0.2545   -0.3712 H   0  0  0  0  0  0  0  0  0  0  0  0
    3.5632   -1.2451   -0.2966 C   0  0  0  0  0  0  0  0  0  0  0  0
    2.1841   -1.4953   -0.2667 C   0  0  0  0  0  0  0  0  0  0  0  0
    1.8221   -2.5330   -0.2664 H   0  0  0  0  0  0  0  0  0  0  0  0
    3.6609    2.5485   -0.4923 C   0  0  0  0  0  0  0  0  0  0  0  0
    3.9067    2.8710   -1.7865 F   0  0  0  0  0  0  0  0  0  0  0  0
    2.7732    3.4530   -0.0166 F   0  0  0  0  0  0  0  0  0  0  0  0
    4.8213    2.7145    0.1851 F   0  0  0  0  0  0  0  0  0  0  0  0
    4.5273   -2.4071   -0.2093 C   0  0  0  0  0  0  0  0  0  0  0  0
    4.0119   -3.5304   -0.7656 F   0  0  0  0  0  0  0  0  0  0  0  0
    4.8214   -2.7037    1.0817 F   0  0  0  0  0  0  0  0  0  0  0  0
    5.6971   -2.1387   -0.8328 F   0  0  0  0  0  0  0  0  0  0  0  0
  1 19  1  0  0  0  0
  1  2  1  0  0  0  0
  2  3  1  0  0  0  0
  4  2  1  0  0  0  0
  4  5  1  0  0  0  0
  6  4  1  0  0  0  0
  7  6  1  0  0  0  0
  8  6  1  0  0  0  0
  8  9  1  0  0  0  0
  9 10  1  0  0  0  0
 11  9  2  0  0  0  0
 11 12  1  0  0  0  0
 13 11  1  0  0  0  0
 14 13  1  0  0  0  0
 15 17  1  0  0  0  0
 15 13  2  0  0  0  0
 16 15  1  0  0  0  0
 17  8  2  0  0  0  0
 18 17  1  0  0  0  0
 19 26  1  0  0  0  0
 20 19  2  0  0  0  0
 21 20  1  0  0  0  0
 22 23  2  0  0  0  0
 22 20  1  0  0  0  0
 23 25  1  0  0  0  0
 24 23  1  0  0  0  0
 25 26  2  0  0  0  0
 25 32  1  0  0  0  0
 26 27  1  0  0  0  0
 28 22  1  0  0  0  0
 28 30  1  0  0  0  0
 28 31  1  0  0  0  0
 29 28  1  0  0  0  0
 32 34  1  0  0  0  0
 33 32  1  0  0  0  0
 35 32  1  0  0  0  0
M  END
