3,12
 OpenBabel05122313053D

 25 26  0  0  1  0  0  0  0  0999 V2000
   -0.4799    1.8891    1.9865 N   0  0  0  0  0  0  0  0  0  0  0  0
   -2.3608    1.0076    1.3626 N   0  0  0  0  0  0  0  0  0  0  0  0
   -2.5470   -0.6719   -0.2068 N   0  0  0  0  0  2  0  0  0  0  0  0
    1.0862    0.2510    3.8111 C   0  0  0  0  0  0  0  0  0  0  0  0
    0.0258   -0.0232    3.6902 H   0  0  0  0  0  0  0  0  0  0  0  0
    1.6789   -0.3511    4.5157 H   0  0  0  0  0  0  0  0  0  0  0  0
    1.6402    1.2754    3.1436 C   0  0  0  0  0  0  0  0  0  0  0  0
    2.7065    1.5199    3.2905 H   0  0  0  0  0  0  0  0  0  0  0  0
    0.9378    2.1955    2.1820 C   0  0  0  0  0  0  0  0  0  0  0  0
    0.9952    3.2404    2.5532 H   0  0  0  0  0  0  0  0  0  0  0  0
    1.4415    2.2180    1.1956 H   0  0  0  0  0  0  0  0  0  0  0  0
   -0.9910    0.9403    1.1562 C   0  0  0  0  0  2  0  0  0  0  0  0
   -1.4951    2.5188    2.7078 C   0  0  0  0  0  0  0  0  0  0  0  0
   -1.2831    3.3062    3.4374 H   0  0  0  0  0  0  0  0  0  0  0  0
   -2.6838    1.9717    2.3141 C   0  0  0  0  0  0  0  0  0  0  0  0
   -3.7069    2.1929    2.6279 H   0  0  0  0  0  0  0  0  0  0  0  0
   -3.2125    0.1548    0.6328 C   0  0  1  0  0  3  0  0  0  0  0  0
   -4.6068    0.1501    0.7526 C   0  0  0  0  0  0  0  0  0  0  0  0
   -5.1209    0.8323    1.4420 H   0  0  0  0  0  0  0  0  0  0  0  0
   -5.3266   -0.7562   -0.0384 C   0  0  0  0  0  0  0  0  0  0  0  0
   -6.4239   -0.7883    0.0295 H   0  0  0  0  0  0  0  0  0  0  0  0
   -4.6388   -1.6140   -0.9093 C   0  0  0  0  0  0  0  0  0  0  0  0
   -5.1727   -2.3361   -1.5420 H   0  0  0  0  0  0  0  0  0  0  0  0
   -3.2425   -1.5427   -0.9659 C   0  0  0  0  0  0  0  0  0  0  0  0
   -2.6290   -2.1836   -1.6216 H   0  0  0  0  0  0  0  0  0  0  0  0
  1  9  1  0  0  0  0
  1 13  1  0  0  0  0
  2 15  1  0  0  0  0
  3 17  1  0  0  0  0
  4  6  1  0  0  0  0
  5  4  1  0  0  0  0
  7  8  1  0  0  0  0
  7  4  2  0  0  0  0
  9 10  1  0  0  0  0
  9  7  1  0  0  0  0
 11  9  1  0  0  0  0
 12  2  1  0  0  0  0
 12  1  1  0  0  0  0
 13 14  1  0  0  0  0
 15 16  1  0  0  0  0
 15 13  2  0  0  0  0
 17 18  1  0  0  0  0
 17  2  1  1  0  0  0
 18 19  1  0  0  0  0
 20 21  1  0  0  0  0
 20 18  2  0  0  0  0
 22 20  1  0  0  0  0
 23 22  1  0  0  0  0
 24 22  2  0  0  0  0
 24  3  1  0  0  0  0
 25 24  1  0  0  0  0
M  END
