1,2
 OpenBabel05122313053D

 23 23  0  0  0  0  0  0  0  0999 V2000
   -0.0941    1.8270    0.5328 N   0  0  0  0  0  2  0  0  0  0  0  0
    1.9215    0.2862   -0.0115 C   0  0  0  0  0  3  0  0  0  0  0  0
    3.0060   -0.5423   -0.3652 C   0  0  0  0  0  0  0  0  0  0  0  0
    2.8220   -1.5688   -0.7165 H   0  0  0  0  0  0  0  0  0  0  0  0
    4.3263   -0.0696   -0.3049 C   0  0  0  0  0  0  0  0  0  0  0  0
    5.1540   -0.7438   -0.5776 H   0  0  0  0  0  0  0  0  0  0  0  0
    4.6113    1.2564    0.0836 C   0  0  0  0  0  0  0  0  0  0  0  0
    5.6520    1.6111    0.1205 H   0  0  0  0  0  0  0  0  0  0  0  0
    3.5580    2.1178    0.3975 C   0  0  0  0  0  0  0  0  0  0  0  0
    3.7526    3.1668    0.6735 H   0  0  0  0  0  0  0  0  0  0  0  0
    2.2294    1.6378    0.3482 C   0  0  0  0  0  0  0  0  0  0  0  0
    1.0639    2.4335    0.6135 C   0  0  0  0  0  3  0  0  0  0  0  0
    1.1145    3.5080    0.8734 H   0  0  0  0  0  0  0  0  0  0  0  0
   -1.3302    2.5592    0.7587 C   0  0  0  0  0  0  0  0  0  0  0  0
   -1.0930    3.5692    1.1644 H   0  0  0  0  0  0  0  0  0  0  0  0
   -1.9055    2.0256    1.5480 H   0  0  0  0  0  0  0  0  0  0  0  0
   -2.1943    2.6870   -0.4996 C   0  0  0  0  0  0  0  0  0  0  0  0
   -2.3545    1.6735   -0.9210 H   0  0  0  0  0  0  0  0  0  0  0  0
   -1.6154    3.2306   -1.2745 H   0  0  0  0  0  0  0  0  0  0  0  0
   -3.5244    3.3828   -0.2175 C   0  0  0  0  0  0  0  0  0  0  0  0
   -4.1293    2.8202    0.5249 H   0  0  0  0  0  0  0  0  0  0  0  0
   -4.1319    3.4730   -1.1396 H   0  0  0  0  0  0  0  0  0  0  0  0
   -3.3782    4.4073    0.1851 H   0  0  0  0  0  0  0  0  0  0  0  0
  1 12  1  0  0  0  0
  1 14  1  0  0  0  0
  2 11  1  0  0  0  0
  3  5  1  0  0  0  0
  3  2  2  0  0  0  0
  4  3  1  0  0  0  0
  5  7  2  0  0  0  0
  6  5  1  0  0  0  0
  7  8  1  0  0  0  0
  7  9  1  0  0  0  0
  9 10  1  0  0  0  0
 11  9  2  0  0  0  0
 11 12  1  0  0  0  0
 12 13  1  0  0  0  0
 14 15  1  0  0  0  0
 14 16  1  0  0  0  0
 17 20  1  0  0  0  0
 17 14  1  0  0  0  0
 18 17  1  0  0  0  0
 19 17  1  0  0  0  0
 20 23  1  0  0  0  0
 20 21  1  0  0  0  0
 22 20  1  0  0  0  0
M  END
