6,8
 OpenBabel05122313053D

 43 44  0  0  1  0  0  0  0  0999 V2000
   -1.6584   -2.2233   -2.5471 C   0  0  0  0  0  0  0  0  0  0  0  0
   -2.5484   -1.6712   -2.8961 H   0  0  0  0  0  0  0  0  0  0  0  0
   -1.7771   -3.2857   -2.8468 H   0  0  0  0  0  0  0  0  0  0  0  0
   -0.7726   -1.8295   -3.0862 H   0  0  0  0  0  0  0  0  0  0  0  0
   -1.8388   -1.8242    1.2469 C   0  0  2  0  0  3  0  0  0  0  0  0
   -1.1231    1.2100    0.3777 N   0  0  0  0  0  2  0  0  0  0  0  0
   -0.5003    1.8105    0.9447 H   0  0  0  0  0  0  0  0  0  0  0  0
   -2.3401   -1.4921   -0.0921 C   0  0  1  0  0  3  0  0  0  0  0  0
   -3.2669    0.9068   -0.8035 C   0  0  1  0  0  0  0  0  0  0  0  0
   -3.5155   -0.5899   -0.3651 C   0  0  0  0  0  0  0  0  0  0  0  0
   -4.1523   -0.5615    0.5406 H   0  0  0  0  0  0  0  0  0  0  0  0
   -4.1408   -1.0427   -1.1634 H   0  0  0  0  0  0  0  0  0  0  0  0
   -2.3171    1.6899    0.1157 C   0  0  0  0  0  0  0  0  0  0  0  0
   -1.4837   -2.1387   -1.0628 C   0  0  1  0  0  3  0  0  0  0  0  0
    0.6646   -3.6298   -0.9954 C   0  0  0  0  0  0  0  0  0  0  0  0
    1.4457   -3.9314   -0.2735 H   0  0  0  0  0  0  0  0  0  0  0  0
    1.1557   -3.0277   -1.7872 H   0  0  0  0  0  0  0  0  0  0  0  0
    0.2524   -4.5497   -1.4619 H   0  0  0  0  0  0  0  0  0  0  0  0
   -1.6750    3.7918    1.4170 C   0  0  0  0  0  0  0  0  0  0  0  0
   -1.3433    3.2436    2.3252 H   0  0  0  0  0  0  0  0  0  0  0  0
   -2.0926    4.7623    1.7425 H   0  0  0  0  0  0  0  0  0  0  0  0
   -0.7599    3.9979    0.8207 H   0  0  0  0  0  0  0  0  0  0  0  0
   -0.6517   -2.6540    1.0744 C   0  0  0  0  0  0  0  0  0  0  0  0
   -2.6868    3.0077    0.6265 C   0  0  0  0  0  0  0  0  0  0  0  0
   -2.6446    1.0160   -2.2281 C   0  0  0  0  0  0  0  0  0  0  0  0
   -2.5963    2.0807   -2.5271 H   0  0  0  0  0  0  0  0  0  0  0  0
   -3.2686    0.4783   -2.9694 H   0  0  0  0  0  0  0  0  0  0  0  0
   -1.6119    0.6157   -2.2425 H   0  0  0  0  0  0  0  0  0  0  0  0
   -4.6375    1.5360   -0.8961 C   0  0  0  0  0  0  0  0  0  0  0  0
   -5.3874    0.9718   -1.4738 H   0  0  0  0  0  0  0  0  0  0  0  0
   -2.4743   -1.4562    2.5515 C   0  0  0  0  0  0  0  0  0  0  0  0
   -3.2620   -2.1876    2.8350 H   0  0  0  0  0  0  0  0  0  0  0  0
   -2.9458   -0.4550    2.5109 H   0  0  0  0  0  0  0  0  0  0  0  0
   -1.7259   -1.4386    3.3663 H   0  0  0  0  0  0  0  0  0  0  0  0
   -3.9519    3.4897    0.3862 C   0  0  0  0  0  3  0  0  0  0  0  0
   -4.2268    4.4790    0.7843 H   0  0  0  0  0  0  0  0  0  0  0  0
   -4.9412    2.7427   -0.3597 C   0  0  0  0  0  0  0  0  0  0  0  0
   -5.9457    3.1728   -0.4891 H   0  0  0  0  0  0  0  0  0  0  0  0
    0.1693   -3.2169    2.1887 C   0  0  0  0  0  0  0  0  0  0  0  0
    1.1498   -3.5734    1.8239 H   0  0  0  0  0  0  0  0  0  0  0  0
   -0.3592   -4.0700    2.6635 H   0  0  0  0  0  0  0  0  0  0  0  0
    0.3713   -2.4535    2.9655 H   0  0  0  0  0  0  0  0  0  0  0  0
   -0.4145   -2.8333   -0.3358 C   0  0  0  0  0  0  0  0  0  0  0  0
  2  1  1  0  0  0  0
  3  1  1  0  0  0  0
  4  1  1  0  0  0  0
  5 31  1  1  0  0  0
  6  7  1  0  0  0  0
  8 10  1  6  0  0  0
  8  5  1  0  0  0  0
  9 25  1  6  0  0  0
  9 10  1  0  0  0  0
  9 13  1  0  0  0  0
 10 11  1  0  0  0  0
 12 10  1  0  0  0  0
 13  6  1  0  0  0  0
 13 24  2  0  0  0  0
 14  1  1  1  0  0  0
 14 43  1  0  0  0  0
 14  8  1  0  0  0  0
 15 43  1  0  0  0  0
 15 16  1  0  0  0  0
 17 15  1  0  0  0  0
 18 15  1  0  0  0  0
 19 21  1  0  0  0  0
 19 20  1  0  0  0  0
 22 19  1  0  0  0  0
 23  5  1  0  0  0  0
 23 39  1  0  0  0  0
 24 19  1  0  0  0  0
 26 25  1  0  0  0  0
 27 25  1  0  0  0  0
 28 25  1  0  0  0  0
 29  9  1  0  0  0  0
 29 37  2  0  0  0  0
 30 29  1  0  0  0  0
 31 32  1  0  0  0  0
 31 34  1  0  0  0  0
 33 31  1  0  0  0  0
 35 24  1  0  0  0  0
 35 36  1  0  0  0  0
 37 35  1  0  0  0  0
 38 37  1  0  0  0  0
 39 41  1  0  0  0  0
 39 42  1  0  0  0  0
 40 39  1  0  0  0  0
 43 23  2  0  0  0  0
M  END
