2,9
 OpenBabel05122313053D

 27 29  0  0  1  0  0  0  0  0999 V2000
   -6.0031   -0.3321   -0.1676 Br  0  0  0  0  0  0  0  0  0  0  0  0
    3.3970   -0.0397   -0.1597 N   0  0  0  0  0  2  0  0  0  0  0  0
    1.9504    1.7393    0.0033 N   0  0  0  0  0  0  0  0  0  0  0  0
    4.2610    2.2003   -0.1495 N   0  0  0  0  0  0  0  0  0  0  0  0
   -0.2056    1.5970    0.1025 N   0  0  0  0  0  0  0  0  0  0  0  0
    3.2784    1.3051   -0.1065 C   0  0  2  0  0  3  0  0  0  0  0  0
    5.7482    0.3090   -0.3168 C   0  0  0  0  0  0  0  0  0  0  0  0
    6.7685   -0.0890   -0.4016 H   0  0  0  0  0  0  0  0  0  0  0  0
    0.9133    0.8037    0.0604 C   0  0  0  0  0  2  0  0  0  0  0  0
    4.6383   -0.5456   -0.2593 C   0  0  0  0  0  0  0  0  0  0  0  0
    4.6797   -1.6507   -0.2785 H   0  0  0  0  0  0  0  0  0  0  0  0
   -2.4723    1.5413    1.0324 C   0  0  0  0  0  0  0  0  0  0  0  0
   -2.1391    2.1835    1.8608 H   0  0  0  0  0  0  0  0  0  0  0  0
   -1.5551    1.1303    0.0516 C   0  0  0  0  0  0  0  0  0  0  0  0
   -4.2016    0.2628   -0.0801 C   0  0  0  0  0  0  0  0  0  0  0  0
    5.5013    1.6903   -0.2584 C   0  0  0  0  0  0  0  0  0  0  0  0
    6.3286    2.4193   -0.2974 H   0  0  0  0  0  0  0  0  0  0  0  0
   -1.9609    0.2922   -0.9993 C   0  0  0  0  0  0  0  0  0  0  0  0
   -1.2256   -0.0223   -1.7528 H   0  0  0  0  0  0  0  0  0  0  0  0
   -3.2867   -0.1502   -1.0633 C   0  0  0  0  0  0  0  0  0  0  0  0
   -3.6114   -0.8141   -1.8763 H   0  0  0  0  0  0  0  0  0  0  0  0
   -3.8037    1.1097    0.9675 C   0  0  0  0  0  0  0  0  0  0  0  0
   -4.5275    1.4183    1.7343 H   0  0  0  0  0  0  0  0  0  0  0  0
    0.1278    2.9614    0.1030 C   0  0  0  0  0  0  0  0  0  0  0  0
   -0.6427    3.7376    0.1157 H   0  0  0  0  0  0  0  0  0  0  0  0
    1.4875    3.0518    0.0380 C   0  0  0  0  0  0  0  0  0  0  0  0
    2.1745    3.9012    0.0003 H   0  0  0  0  0  0  0  0  0  0  0  0
  1 15  1  0  0  0  0
  2  6  1  0  0  0  0
  3 26  1  0  0  0  0
  3  9  1  0  0  0  0
  4  6  1  0  0  0  0
  5 24  1  0  0  0  0
  6  3  1  6  0  0  0
  7 10  2  0  0  0  0
  7 16  1  0  0  0  0
  8  7  1  0  0  0  0
  9  5  1  0  0  0  0
 10  2  1  0  0  0  0
 11 10  1  0  0  0  0
 12 13  1  0  0  0  0
 14  5  1  0  0  0  0
 14 12  2  0  0  0  0
 15 22  2  0  0  0  0
 16  4  2  0  0  0  0
 17 16  1  0  0  0  0
 18 14  1  0  0  0  0
 19 18  1  0  0  0  0
 20 18  2  0  0  0  0
 20 15  1  0  0  0  0
 21 20  1  0  0  0  0
 22 12  1  0  0  0  0
 22 23  1  0  0  0  0
 24 25  1  0  0  0  0
 26 24  2  0  0  0  0
 27 26  1  0  0  0  0
M  END
