3,4
 OpenBabel05122313053D

 27 29  0  0  1  0  0  0  0  0999 V2000
    6.0548    0.3758    0.9451 O   0  0  0  0  0  0  0  0  0  0  0  0
   -0.6245   -3.0781   -3.8913 O   0  0  0  0  0  0  0  0  0  0  0  0
    2.0069    0.5494    0.4221 N   0  0  0  0  0  2  0  0  0  0  0  0
    0.5629   -0.7866   -1.3062 C   0  0  0  0  0  3  0  0  0  0  0  0
    1.9845   -1.0138   -1.3632 C   0  0  0  0  0  0  0  0  0  0  0  0
    2.5095   -1.9349   -2.2946 C   0  0  0  0  0  0  0  0  0  0  0  0
    3.5901   -2.1164   -2.3549 H   0  0  0  0  0  0  0  0  0  0  0  0
    1.6749   -2.6443   -3.1627 C   0  0  0  0  0  0  0  0  0  0  0  0
    2.1136   -3.3542   -3.8753 H   0  0  0  0  0  0  0  0  0  0  0  0
    0.2764   -2.4340   -3.0979 C   0  0  0  0  0  0  0  0  0  0  0  0
   -0.2622   -1.5153   -2.1745 C   0  0  0  0  0  0  0  0  0  0  0  0
   -1.3549   -1.3915   -2.1628 H   0  0  0  0  0  0  0  0  0  0  0  0
    2.7647   -0.2617   -0.3950 C   0  0  2  0  0  3  0  0  0  0  0  0
    4.1720   -0.2803   -0.1753 C   0  0  0  0  0  0  0  0  0  0  0  0
    5.3215   -0.9346   -0.7620 C   0  0  0  0  0  0  0  0  0  0  0  0
    5.3559   -1.6329   -1.6017 H   0  0  0  0  0  0  0  0  0  0  0  0
    6.4088   -0.5015   -0.0507 C   0  0  0  0  0  0  0  0  0  0  0  0
    7.4794   -0.7180   -0.1261 H   0  0  0  0  0  0  0  0  0  0  0  0
    4.7013    0.5132    0.8727 C   0  0  0  0  0  0  0  0  0  0  0  0
    3.9118    1.3134    1.7052 C   0  0  0  0  0  0  0  0  0  0  0  0
    4.3270    1.9175    2.5211 H   0  0  0  0  0  0  0  0  0  0  0  0
    2.5480    1.2894    1.4242 C   0  0  0  0  0  0  0  0  0  0  0  0
    1.8215    1.8699    2.0101 H   0  0  0  0  0  0  0  0  0  0  0  0
   -0.1484   -4.0171   -4.8344 C   0  0  0  0  0  0  0  0  0  0  0  0
    0.5315   -3.5499   -5.5822 H   0  0  0  0  0  0  0  0  0  0  0  0
   -1.0377   -4.4141   -5.3589 H   0  0  0  0  0  0  0  0  0  0  0  0
    0.3891   -4.8619   -4.3473 H   0  0  0  0  0  0  0  0  0  0  0  0
  2 10  1  0  0  0  0
  3 22  1  0  0  0  0
  5  4  1  0  0  0  0
  6  5  2  0  0  0  0
  7  6  1  0  0  0  0
  8 10  2  0  0  0  0
  8  6  1  0  0  0  0
  9  8  1  0  0  0  0
 10 11  1  0  0  0  0
 11 12  1  0  0  0  0
 11  4  2  0  0  0  0
 13  5  1  1  0  0  0
 13 14  1  0  0  0  0
 13  3  1  0  0  0  0
 14 19  2  0  0  0  0
 15 14  1  0  0  0  0
 15 17  2  0  0  0  0
 16 15  1  0  0  0  0
 17  1  1  0  0  0  0
 18 17  1  0  0  0  0
 19  1  1  0  0  0  0
 19 20  1  0  0  0  0
 20 21  1  0  0  0  0
 22 20  2  0  0  0  0
 22 23  1  0  0  0  0
 24 27  1  0  0  0  0
 24  2  1  0  0  0  0
 25 24  1  0  0  0  0
 26 24  1  0  0  0  0
M  END
