2,3
 OpenBabel05122313053D

 60 63  0  0  0  0  0  0  0  0999 V2000
   -3.4360    0.3757    0.0504 B   0  0  0  0  0  0  0  0  0  0  0  0
    2.1586   -2.3036   -0.6890 N   0  0  0  0  0  2  0  0  0  0  0  0
    1.0044   -0.0479   -0.0849 C   0  0  0  0  0  2  0  0  0  0  0  0
    0.3810    1.2129    0.0560 C   0  0  0  0  0  0  0  0  0  0  0  0
    0.9884    2.1280    0.1173 H   0  0  0  0  0  0  0  0  0  0  0  0
   -1.0131    1.3476    0.0820 C   0  0  0  0  0  0  0  0  0  0  0  0
   -1.4570    2.3510    0.1916 H   0  0  0  0  0  0  0  0  0  0  0  0
   -1.8827    0.2303   -0.0217 C   0  0  0  0  0  0  0  0  0  0  0  0
   -1.2724   -1.0296   -0.2142 C   0  0  0  0  0  0  0  0  0  0  0  0
   -1.9233   -1.9115   -0.3328 H   0  0  0  0  0  0  0  0  0  0  0  0
    0.1224   -1.1700   -0.2791 C   0  0  0  0  0  0  0  0  0  0  0  0
    0.7940   -2.4263   -0.6030 C   0  0  0  0  0  0  0  0  0  0  0  0
    0.1955   -3.6748   -0.8548 C   0  0  0  0  0  0  0  0  0  0  0  0
   -0.8961   -3.7725   -0.7796 H   0  0  0  0  0  0  0  0  0  0  0  0
    0.9924   -4.7712   -1.1969 C   0  0  0  0  0  0  0  0  0  0  0  0
    0.5291   -5.7496   -1.3939 H   0  0  0  0  0  0  0  0  0  0  0  0
    2.3861   -4.6116   -1.2875 C   0  0  0  0  0  0  0  0  0  0  0  0
    3.0461   -5.4474   -1.5570 H   0  0  0  0  0  0  0  0  0  0  0  0
    2.9388   -3.3569   -1.0227 C   0  0  0  0  0  0  0  0  0  0  0  0
    4.0194   -3.1451   -1.0576 H   0  0  0  0  0  0  0  0  0  0  0  0
   -4.2952   -0.8772    0.4873 C   0  0  0  0  0  0  0  0  0  0  0  0
   -4.0142   -1.5719    1.7003 C   0  0  0  0  0  0  0  0  0  0  0  0
   -4.7924   -2.6868    2.0682 C   0  0  0  0  0  0  0  0  0  0  0  0
   -4.5760   -3.1960    3.0223 H   0  0  0  0  0  0  0  0  0  0  0  0
   -5.8373   -3.1658    1.2625 C   0  0  0  0  0  0  0  0  0  0  0  0
   -6.1087   -2.4759    0.0659 C   0  0  0  0  0  0  0  0  0  0  0  0
   -6.9285   -2.8276   -0.5827 H   0  0  0  0  0  0  0  0  0  0  0  0
   -5.3759   -1.3426   -0.3237 C   0  0  0  0  0  0  0  0  0  0  0  0
   -2.9181   -1.1352    2.6507 C   0  0  0  0  0  0  0  0  0  0  0  0
   -3.1552   -1.4386    3.6896 H   0  0  0  0  0  0  0  0  0  0  0  0
   -2.7545   -0.0406    2.6417 H   0  0  0  0  0  0  0  0  0  0  0  0
   -1.9420   -1.5930    2.3865 H   0  0  0  0  0  0  0  0  0  0  0  0
   -6.6505   -4.3721    1.6584 C   0  0  0  0  0  0  0  0  0  0  0  0
   -6.3549   -4.7573    2.6535 H   0  0  0  0  0  0  0  0  0  0  0  0
   -6.5284   -5.1978    0.9257 H   0  0  0  0  0  0  0  0  0  0  0  0
   -7.7346   -4.1358    1.6915 H   0  0  0  0  0  0  0  0  0  0  0  0
   -5.7559   -0.6453   -1.6107 C   0  0  0  0  0  0  0  0  0  0  0  0
   -6.5386   -1.2096   -2.1536 H   0  0  0  0  0  0  0  0  0  0  0  0
   -4.8905   -0.5285   -2.2942 H   0  0  0  0  0  0  0  0  0  0  0  0
   -6.1385    0.3775   -1.4188 H   0  0  0  0  0  0  0  0  0  0  0  0
   -4.1046    1.7588   -0.3152 C   0  0  0  0  0  0  0  0  0  0  0  0
   -5.0065    2.3960    0.5907 C   0  0  0  0  0  0  0  0  0  0  0  0
   -5.5828    3.6324    0.2546 C   0  0  0  0  0  0  0  0  0  0  0  0
   -6.2652    4.1145    0.9746 H   0  0  0  0  0  0  0  0  0  0  0  0
   -5.3263    4.2653   -0.9759 C   0  0  0  0  0  0  0  0  0  0  0  0
   -4.4600    3.6201   -1.8730 C   0  0  0  0  0  0  0  0  0  0  0  0
   -4.2628    4.0840   -2.8540 H   0  0  0  0  0  0  0  0  0  0  0  0
   -3.8383    2.3953   -1.5632 C   0  0  0  0  0  0  0  0  0  0  0  0
   -5.3612    1.7720    1.9218 C   0  0  0  0  0  0  0  0  0  0  0  0
   -5.9736    2.4612    2.5349 H   0  0  0  0  0  0  0  0  0  0  0  0
   -4.4607    1.5071    2.5122 H   0  0  0  0  0  0  0  0  0  0  0  0
   -5.9320    0.8307    1.7881 H   0  0  0  0  0  0  0  0  0  0  0  0
   -5.9559    5.5946   -1.3071 C   0  0  0  0  0  0  0  0  0  0  0  0
   -7.0377    5.6049   -1.0622 H   0  0  0  0  0  0  0  0  0  0  0  0
   -5.8428    5.8459   -2.3797 H   0  0  0  0  0  0  0  0  0  0  0  0
   -5.4885    6.4152   -0.7214 H   0  0  0  0  0  0  0  0  0  0  0  0
   -2.9285    1.7811   -2.6070 C   0  0  0  0  0  0  0  0  0  0  0  0
   -3.1821    2.1540   -3.6188 H   0  0  0  0  0  0  0  0  0  0  0  0
   -2.9843    0.6756   -2.6254 H   0  0  0  0  0  0  0  0  0  0  0  0
   -1.8636    2.0301   -2.4182 H   0  0  0  0  0  0  0  0  0  0  0  0
  1 21  1  0  0  0  0
  2 12  1  0  0  0  0
  3  4  1  0  0  0  0
  4  6  2  0  0  0  0
  4  5  1  0  0  0  0
  6  7  1  0  0  0  0
  8  1  1  0  0  0  0
  8  6  1  0  0  0  0
  9  8  2  0  0  0  0
 10  9  1  0  0  0  0
 11  9  1  0  0  0  0
 11  3  1  0  0  0  0
 12 11  2  0  0  0  0
 13 14  1  0  0  0  0
 13 12  1  0  0  0  0
 15 13  2  0  0  0  0
 16 15  1  0  0  0  0
 17 15  1  0  0  0  0
 17 19  2  0  0  0  0
 18 17  1  0  0  0  0
 19  2  1  0  0  0  0
 20 19  1  0  0  0  0
 21 22  1  0  0  0  0
 22 23  2  0  0  0  0
 22 29  1  0  0  0  0
 23 24  1  0  0  0  0
 25 33  1  0  0  0  0
 25 23  1  0  0  0  0
 26 25  2  0  0  0  0
 27 26  1  0  0  0  0
 28 26  1  0  0  0  0
 28 21  2  0  0  0  0
 29 30  1  0  0  0  0
 31 29  1  0  0  0  0
 32 29  1  0  0  0  0
 33 36  1  0  0  0  0
 33 34  1  0  0  0  0
 35 33  1  0  0  0  0
 37 40  1  0  0  0  0
 37 28  1  0  0  0  0
 38 37  1  0  0  0  0
 39 37  1  0  0  0  0
 41  1  1  0  0  0  0
 41 42  1  0  0  0  0
 42 49  1  0  0  0  0
 43 42  2  0  0  0  0
 43 44  1  0  0  0  0
 45 43  1  0  0  0  0
 46 48  1  0  0  0  0
 46 45  2  0  0  0  0
 47 46  1  0  0  0  0
 48 41  2  0  0  0  0
 49 51  1  0  0  0  0
 49 50  1  0  0  0  0
 52 49  1  0  0  0  0
 53 54  1  0  0  0  0
 53 45  1  0  0  0  0
 53 56  1  0  0  0  0
 55 53  1  0  0  0  0
 57 60  1  0  0  0  0
 57 48  1  0  0  0  0
 58 57  1  0  0  0  0
 59 57  1  0  0  0  0
M  END
