1,13
 OpenBabel05122313053D

 29 31  0  0  0  0  0  0  0  0999 V2000
    0.2305   -1.9420   -0.0753 N   0  0  0  0  0  2  0  0  0  0  0  0
   -3.1689   -0.7194   -0.0230 N   0  0  0  0  0  0  0  0  0  0  0  0
    0.9769   -3.0646   -0.1403 C   0  0  0  0  0  3  0  0  0  0  0  0
    2.0655   -2.9221   -0.1287 H   0  0  0  0  0  0  0  0  0  0  0  0
    0.4010   -4.3346   -0.2239 C   0  0  0  0  0  0  0  0  0  0  0  0
    1.0512   -5.2190   -0.2748 H   0  0  0  0  0  0  0  0  0  0  0  0
   -1.0001   -4.4477   -0.2450 C   0  0  0  0  0  0  0  0  0  0  0  0
   -1.4806   -5.4353   -0.3119 H   0  0  0  0  0  0  0  0  0  0  0  0
   -1.7717   -3.2853   -0.1843 C   0  0  0  0  0  0  0  0  0  0  0  0
   -2.8702   -3.2900   -0.2025 H   0  0  0  0  0  0  0  0  0  0  0  0
   -1.1355   -2.0362   -0.1010 C   0  0  0  0  0  0  0  0  0  0  0  0
   -1.8283   -0.7468   -0.0333 C   0  0  0  0  0  0  0  0  0  0  0  0
   -0.9721    0.3904    0.0329 C   0  0  0  0  0  3  0  0  0  0  0  0
   -1.6367    1.6266    0.1609 C   0  0  0  0  0  0  0  0  0  0  0  0
   -1.0699    2.5635    0.2696 H   0  0  0  0  0  0  0  0  0  0  0  0
   -3.0349    1.6693    0.1724 C   0  0  0  0  0  0  0  0  0  0  0  0
   -3.5464    2.6351    0.2941 H   0  0  0  0  0  0  0  0  0  0  0  0
   -3.7889    0.4725    0.0618 C   0  0  0  0  0  0  0  0  0  0  0  0
   -5.2771    0.4671    0.0594 C   0  0  0  0  0  0  0  0  0  0  0  0
   -5.9717   -0.7479    0.2579 C   0  0  0  0  0  0  0  0  0  0  0  0
   -5.3766   -1.6595    0.4079 H   0  0  0  0  0  0  0  0  0  0  0  0
   -7.3708   -0.7850    0.2660 C   0  0  0  0  0  0  0  0  0  0  0  0
   -7.8901   -1.7423    0.4282 H   0  0  0  0  0  0  0  0  0  0  0  0
   -8.1128    0.3921    0.0710 C   0  0  0  0  0  0  0  0  0  0  0  0
   -9.2132    0.3639    0.0768 H   0  0  0  0  0  0  0  0  0  0  0  0
   -7.4370    1.6049   -0.1356 C   0  0  0  0  0  0  0  0  0  0  0  0
   -8.0064    2.5327   -0.3003 H   0  0  0  0  0  0  0  0  0  0  0  0
   -6.0358    1.6421   -0.1420 C   0  0  0  0  0  0  0  0  0  0  0  0
   -5.5295    2.6007   -0.3270 H   0  0  0  0  0  0  0  0  0  0  0  0
  2 18  1  0  0  0  0
  3  4  1  0  0  0  0
  3  1  1  0  0  0  0
  5  3  1  0  0  0  0
  6  5  1  0  0  0  0
  7  5  2  0  0  0  0
  7  9  1  0  0  0  0
  8  7  1  0  0  0  0
  9 11  2  0  0  0  0
 10  9  1  0  0  0  0
 11  1  1  0  0  0  0
 11 12  1  0  0  0  0
 12  2  2  0  0  0  0
 12 13  1  0  0  0  0
 13 14  2  0  0  0  0
 14 16  1  0  0  0  0
 14 15  1  0  0  0  0
 16 17  1  0  0  0  0
 18 16  2  0  0  0  0
 19 18  1  0  0  0  0
 19 20  1  0  0  0  0
 20 22  2  0  0  0  0
 20 21  1  0  0  0  0
 22 23  1  0  0  0  0
 24 25  1  0  0  0  0
 24 22  1  0  0  0  0
 26 24  2  0  0  0  0
 27 26  1  0  0  0  0
 28 26  1  0  0  0  0
 28 19  2  0  0  0  0
 29 28  1  0  0  0  0
M  END
