1,2
 OpenBabel05122313053D

 28 29  0  0  0  0  0  0  0  0999 V2000
    0.8471   -1.4583   -0.0387 N   0  0  0  0  0  2  0  0  0  0  0  0
   -1.6010   -0.5674   -0.0506 C   0  0  0  0  0  3  0  0  0  0  0  0
   -2.9041   -0.0828   -0.1760 C   0  0  0  0  0  0  0  0  0  0  0  0
   -3.1143    0.9789   -0.3701 H   0  0  0  0  0  0  0  0  0  0  0  0
   -4.0155   -0.9530   -0.0836 C   0  0  0  0  0  0  0  0  0  0  0  0
   -5.2337   -0.3604   -0.1992 O   0  0  0  0  0  0  0  0  0  0  0  0
   -3.8330   -2.3453    0.1126 C   0  0  0  0  0  0  0  0  0  0  0  0
   -4.6904   -3.0269    0.1805 H   0  0  0  0  0  0  0  0  0  0  0  0
   -2.5340   -2.8512    0.1939 C   0  0  0  0  0  0  0  0  0  0  0  0
   -2.3770   -3.9356    0.3109 H   0  0  0  0  0  0  0  0  0  0  0  0
   -1.4231   -1.9841    0.1114 C   0  0  0  0  0  0  0  0  0  0  0  0
   -0.0548   -2.4048    0.0930 C   0  0  0  0  0  3  0  0  0  0  0  0
    0.2516   -3.4673    0.1292 H   0  0  0  0  0  0  0  0  0  0  0  0
    2.2288   -1.7384   -0.1038 C   0  0  0  0  0  0  0  0  0  0  0  0
    2.8668   -2.4959    0.9012 C   0  0  0  0  0  0  0  0  0  0  0  0
    2.2742   -2.8783    1.7461 H   0  0  0  0  0  0  0  0  0  0  0  0
    4.2496   -2.7282    0.8286 C   0  0  0  0  0  0  0  0  0  0  0  0
    4.7449   -3.3109    1.6203 H   0  0  0  0  0  0  0  0  0  0  0  0
    4.9984   -2.2129   -0.2405 C   0  0  0  0  0  0  0  0  0  0  0  0
    6.0824   -2.3943   -0.2932 H   0  0  0  0  0  0  0  0  0  0  0  0
    4.3571   -1.4597   -1.2411 C   0  0  0  0  0  0  0  0  0  0  0  0
    4.9393   -1.0588   -2.0851 H   0  0  0  0  0  0  0  0  0  0  0  0
    2.9813   -1.2118   -1.1761 C   0  0  0  0  0  0  0  0  0  0  0  0
    2.4484   -0.6263   -1.9424 H   0  0  0  0  0  0  0  0  0  0  0  0
   -6.3948   -1.1681   -0.1456 C   0  0  0  0  0  0  0  0  0  0  0  0
   -7.2561   -0.4859   -0.2710 H   0  0  0  0  0  0  0  0  0  0  0  0
   -6.4905   -1.6945    0.8306 H   0  0  0  0  0  0  0  0  0  0  0  0
   -6.4115   -1.9247   -0.9615 H   0  0  0  0  0  0  0  0  0  0  0  0
  1 12  1  0  0  0  0
  2 11  1  0  0  0  0
  3  5  1  0  0  0  0
  3  2  2  0  0  0  0
  4  3  1  0  0  0  0
  5  7  2  0  0  0  0
  6 25  1  0  0  0  0
  6  5  1  0  0  0  0
  7  8  1  0  0  0  0
  7  9  1  0  0  0  0
  9 10  1  0  0  0  0
 11  9  2  0  0  0  0
 12 11  1  0  0  0  0
 12 13  1  0  0  0  0
 14  1  1  0  0  0  0
 14 15  1  0  0  0  0
 15 16  1  0  0  0  0
 17 15  2  0  0  0  0
 17 18  1  0  0  0  0
 19 17  1  0  0  0  0
 20 19  1  0  0  0  0
 21 23  1  0  0  0  0
 21 19  2  0  0  0  0
 22 21  1  0  0  0  0
 23 14  2  0  0  0  0
 24 23  1  0  0  0  0
 25 27  1  0  0  0  0
 26 25  1  0  0  0  0
 28 25  1  0  0  0  0
M  END
