4,13
 OpenBabel05122313053D

 34 35  0  0  1  0  0  0  0  0999 V2000
    2.6335   -0.1487    0.2073 O   0  0  0  0  0  0  0  0  0  0  0  0
   -2.7781    1.7484   -0.9060 N   0  0  0  0  0  0  0  0  0  0  0  0
   -1.0200    2.5499    0.0894 N   0  0  0  0  0  0  0  0  0  0  0  0
    0.8487    1.2483    0.3416 N   0  0  0  0  0  2  0  0  0  0  0  0
   -3.6646    0.8740   -1.6601 C   0  0  0  0  0  0  0  0  0  0  0  0
   -3.1430   -0.0842   -1.8219 H   0  0  0  0  0  0  0  0  0  0  0  0
   -3.8798    1.3304   -2.6447 H   0  0  0  0  0  0  0  0  0  0  0  0
   -4.6173    0.7091   -1.1199 H   0  0  0  0  0  0  0  0  0  0  0  0
   -2.9550    3.1301   -0.7872 C   0  0  0  0  0  0  0  0  0  0  0  0
   -3.8505    3.6332   -1.1649 H   0  0  0  0  0  0  0  0  0  0  0  0
   -1.8500    3.6410   -0.1662 C   0  0  0  0  0  0  0  0  0  0  0  0
   -1.5919    4.6704    0.0953 H   0  0  0  0  0  0  0  0  0  0  0  0
   -1.5973    1.3696   -0.3484 C   0  0  0  0  0  2  0  0  0  0  0  0
    0.3306    2.4999    0.4630 C   0  0  1  0  0  3  0  0  0  0  0  0
    1.0779    3.6162    0.8396 C   0  0  0  0  0  0  0  0  0  0  0  0
    0.6149    4.6063    0.9315 H   0  0  0  0  0  0  0  0  0  0  0  0
    2.4445    3.4153    1.0822 C   0  0  0  0  0  0  0  0  0  0  0  0
    3.0745    4.2555    1.4082 H   0  0  0  0  0  0  0  0  0  0  0  0
    3.0087    2.1529    0.8922 C   0  0  0  0  0  0  0  0  0  0  0  0
    4.0765    1.9802    1.0661 H   0  0  0  0  0  0  0  0  0  0  0  0
    2.1950    1.0755    0.4709 C   0  0  0  0  0  0  0  0  0  0  0  0
    3.8320   -0.4049   -0.6742 C   0  0  0  0  0  0  0  0  0  0  0  0
    3.5183   -1.7754   -1.2690 C   0  0  0  0  0  0  0  0  0  0  0  0
    4.3277   -2.0740   -1.9628 H   0  0  0  0  0  0  0  0  0  0  0  0
    2.5629   -1.7338   -1.8256 H   0  0  0  0  0  0  0  0  0  0  0  0
    3.4504   -2.5442   -0.4753 H   0  0  0  0  0  0  0  0  0  0  0  0
    3.8947    0.6465   -1.7806 C   0  0  0  0  0  0  0  0  0  0  0  0
    4.6874    0.3602   -2.4987 H   0  0  0  0  0  0  0  0  0  0  0  0
    4.1420    1.6568   -1.4029 H   0  0  0  0  0  0  0  0  0  0  0  0
    2.9293    0.6860   -2.3234 H   0  0  0  0  0  0  0  0  0  0  0  0
    5.0879   -0.4547    0.1951 C   0  0  0  0  0  0  0  0  0  0  0  0
    5.9359   -0.8361   -0.4070 H   0  0  0  0  0  0  0  0  0  0  0  0
    4.9434   -1.1402    1.0529 H   0  0  0  0  0  0  0  0  0  0  0  0
    5.3861    0.5391    0.5806 H   0  0  0  0  0  0  0  0  0  0  0  0
  1 21  1  0  0  0  0
  2  9  1  0  0  0  0
  2 13  1  0  0  0  0
  4 14  1  0  0  0  0
  4 21  1  0  0  0  0
  5  8  1  0  0  0  0
  5  2  1  0  0  0  0
  6  5  1  0  0  0  0
  7  5  1  0  0  0  0
  9 11  2  0  0  0  0
 10  9  1  0  0  0  0
 11  3  1  0  0  0  0
 11 12  1  0  0  0  0
 13  3  1  0  0  0  0
 14  3  1  6  0  0  0
 14 15  1  0  0  0  0
 15 16  1  0  0  0  0
 15 17  2  0  0  0  0
 17 18  1  0  0  0  0
 19 20  1  0  0  0  0
 19 17  1  0  0  0  0
 21 19  2  0  0  0  0
 22 31  1  0  0  0  0
 22  1  1  0  0  0  0
 23 22  1  0  0  0  0
 23 26  1  0  0  0  0
 24 23  1  0  0  0  0
 25 23  1  0  0  0  0
 27 29  1  0  0  0  0
 27 22  1  0  0  0  0
 28 27  1  0  0  0  0
 30 27  1  0  0  0  0
 31 34  1  0  0  0  0
 31 33  1  0  0  0  0
 32 31  1  0  0  0  0
M  END
