6,21
 OpenBabel05122313053D

 23 24  0  0  0  0  0  0  0  0999 V2000
    5.1196   -0.4611    0.0931 C   0  0  0  0  0  0  0  0  0  0  0  0
   -3.1534   -3.1020   -0.4074 O   0  0  0  0  0  0  0  0  0  0  0  0
   -1.8584   -3.6288   -0.6424 N   0  0  0  0  0  2  0  0  0  0  0  0
    3.2323   -1.5196   -1.0562 C   0  0  0  0  0  0  0  0  0  0  0  0
    2.8554   -2.1465   -1.8787 H   0  0  0  0  0  0  0  0  0  0  0  0
   -1.7423   -1.4164   -0.1976 N   0  0  0  0  0  0  0  0  0  0  0  0
    4.6046   -1.2754   -0.9386 C   0  0  0  0  0  0  0  0  0  0  0  0
    5.2974   -1.7226   -1.6698 H   0  0  0  0  0  0  0  0  0  0  0  0
   -4.0465   -1.0561    0.1816 O   0  0  0  0  0  0  0  0  0  0  0  0
    6.6022   -0.2266    0.2307 C   0  0  0  0  0  0  0  0  0  0  0  0
    6.8201    0.6688    0.8449 H   0  0  0  0  0  0  0  0  0  0  0  0
    7.0893   -0.0959   -0.7567 H   0  0  0  0  0  0  0  0  0  0  0  0
    7.0992   -1.0914    0.7217 H   0  0  0  0  0  0  0  0  0  0  0  0
    4.1983    0.1052    0.9977 C   0  0  0  0  0  0  0  0  0  0  0  0
    4.5681    0.7468    1.8137 H   0  0  0  0  0  0  0  0  0  0  0  0
    2.8211   -0.1196    0.8777 C   0  0  0  0  0  0  0  0  0  0  0  0
    2.1293    0.3477    1.5950 H   0  0  0  0  0  0  0  0  0  0  0  0
    2.3049   -0.9468   -0.1486 C   0  0  0  0  0  0  0  0  0  0  0  0
    0.3710   -2.4668   -0.5378 C   0  0  0  0  0  0  0  0  0  0  0  0
    0.9990   -3.3610   -0.6774 H   0  0  0  0  0  0  0  0  0  0  0  0
    0.8654   -1.2184   -0.2633 C   0  0  0  0  0  3  0  0  0  0  0  0
   -1.0703   -2.5793   -0.5051 C   0  0  0  0  0  0  0  0  0  0  0  0
   -3.0680   -1.7381   -0.1157 C   0  0  0  0  0  0  0  0  0  0  0  0
  1 10  1  0  0  0  0
  1 14  1  0  0  0  0
  2 23  1  0  0  0  0
  3 22  1  0  0  0  0
  3  2  1  0  0  0  0
  4  7  1  0  0  0  0
  4 18  2  0  0  0  0
  5  4  1  0  0  0  0
  6 23  1  0  0  0  0
  7  1  2  0  0  0  0
  8  7  1  0  0  0  0
 10 13  1  0  0  0  0
 10 11  1  0  0  0  0
 12 10  1  0  0  0  0
 14 15  1  0  0  0  0
 16 14  2  0  0  0  0
 16 17  1  0  0  0  0
 18 16  1  0  0  0  0
 19 22  1  0  0  0  0
 19 21  2  0  0  0  0
 20 19  1  0  0  0  0
 21 18  1  0  0  0  0
 22  6  2  0  0  0  0
 23  9  2  0  0  0  0
M  END
