4,5
 OpenBabel05122313053D

 28 29  0  0  0  0  0  0  0  0999 V2000
    3.2898    1.9422    0.1908 O   0  0  0  0  0  0  0  0  0  0  0  0
    1.7771   -2.3864   -0.3444 O   0  0  0  0  0  0  0  0  0  0  0  0
    2.6827   -0.3087    0.0294 N   0  0  0  0  0  0  0  0  0  0  0  0
    1.0603    1.3355   -0.0993 N   0  0  0  0  0  2  0  0  0  0  0  0
    1.6170   -1.1795   -0.1934 C   0  0  0  0  0  3  0  0  0  0  0  0
    2.3994    1.1078    0.0644 C   0  0  0  0  0  0  0  0  0  0  0  0
    4.0286   -0.7788    0.1487 C   0  0  0  0  0  0  0  0  0  0  0  0
    5.0626   -0.1659   -0.5842 C   0  0  0  0  0  0  0  0  0  0  0  0
    6.3788   -0.6304   -0.4521 C   0  0  0  0  0  0  0  0  0  0  0  0
    6.6728   -1.7106    0.3942 C   0  0  0  0  0  0  0  0  0  0  0  0
    5.6377   -2.3235    1.1182 C   0  0  0  0  0  0  0  0  0  0  0  0
    4.3211   -1.8580    1.0042 C   0  0  0  0  0  0  0  0  0  0  0  0
    0.5816    2.6442   -0.2750 C   0  0  0  0  0  0  0  0  0  0  0  0
   -0.3330    2.9033   -1.3244 C   0  0  0  0  0  0  0  0  0  0  0  0
   -0.8979    4.1749   -1.4871 C   0  0  0  0  0  0  0  0  0  0  0  0
   -0.5477    5.2217   -0.6177 C   0  0  0  0  0  0  0  0  0  0  0  0
    0.3833    4.9807    0.4077 C   0  0  0  0  0  0  0  0  0  0  0  0
    0.9468    3.7090    0.5836 C   0  0  0  0  0  0  0  0  0  0  0  0
    4.8310    0.6820   -1.2404 H   0  0  0  0  0  0  0  0  0  0  0  0
    7.1826   -0.1423   -1.0242 H   0  0  0  0  0  0  0  0  0  0  0  0
    7.7070   -2.0746    0.4899 H   0  0  0  0  0  0  0  0  0  0  0  0
    5.8565   -3.1704    1.7865 H   0  0  0  0  0  0  0  0  0  0  0  0
    3.5112   -2.3341    1.5724 H   0  0  0  0  0  0  0  0  0  0  0  0
   -0.5968    2.0752   -2.0001 H   0  0  0  0  0  0  0  0  0  0  0  0
   -1.6117    4.3519   -2.3067 H   0  0  0  0  0  0  0  0  0  0  0  0
   -0.9872    6.2225   -0.7454 H   0  0  0  0  0  0  0  0  0  0  0  0
    0.6741    5.7969    1.0874 H   0  0  0  0  0  0  0  0  0  0  0  0
    1.6771    3.5215    1.3813 H   0  0  0  0  0  0  0  0  0  0  0  0
  2  5  2  0  0  0  0
  3  6  1  0  0  0  0
  3  7  1  0  0  0  0
  4  6  1  0  0  0  0
  5  3  1  0  0  0  0
  6  1  2  0  0  0  0
  7 12  1  0  0  0  0
  8  9  1  0  0  0  0
  8  7  2  0  0  0  0
  9 10  2  0  0  0  0
 10 21  1  0  0  0  0
 10 11  1  0  0  0  0
 11 22  1  0  0  0  0
 12 11  2  0  0  0  0
 12 23  1  0  0  0  0
 13  4  1  0  0  0  0
 13 18  1  0  0  0  0
 14 13  2  0  0  0  0
 15 14  1  0  0  0  0
 15 16  2  0  0  0  0
 16 17  1  0  0  0  0
 17 18  2  0  0  0  0
 17 27  1  0  0  0  0
 18 28  1  0  0  0  0
 19  8  1  0  0  0  0
 20  9  1  0  0  0  0
 24 14  1  0  0  0  0
 25 15  1  0  0  0  0
 26 16  1  0  0  0  0
M  END
