1,4
 OpenBabel05122313053D

 60 62  0  0  0  0  0  0  0  0999 V2000
    1.0075    0.7135    0.2144 N   0  0  0  0  0  2  0  0  0  0  0  0
   -1.2213    0.0443    0.0753 C   0  0  0  0  0  0  0  0  0  0  0  0
   -3.0262   -1.3795   -0.1964 C   0  0  0  0  0  0  0  0  0  0  0  0
   -0.7107   -1.2893   -0.1998 C   0  0  0  0  0  2  0  0  0  0  0  0
    3.4451    3.3697   -0.7294 C   0  0  0  0  0  0  0  0  0  0  0  0
    3.6686    4.0454   -1.5693 H   0  0  0  0  0  0  0  0  0  0  0  0
   -1.8302   -2.1331   -0.3568 C   0  0  0  0  0  0  0  0  0  0  0  0
   -1.8124   -3.2097   -0.5707 H   0  0  0  0  0  0  0  0  0  0  0  0
    2.0615    1.6549    0.2891 C   0  0  0  0  0  0  0  0  0  0  0  0
    2.9034    1.6366    1.4374 C   0  0  0  0  0  0  0  0  0  0  0  0
   -4.9103    1.1471    0.3179 C   0  0  0  0  0  0  0  0  0  0  0  0
   -5.3201    2.1495    0.5186 H   0  0  0  0  0  0  0  0  0  0  0  0
   -0.2607    1.0721    0.2749 C   0  0  0  0  0  0  0  0  0  0  0  0
   -0.5296    2.1276    0.4697 H   0  0  0  0  0  0  0  0  0  0  0  0
    4.0110    2.5014    1.4639 C   0  0  0  0  0  0  0  0  0  0  0  0
    4.6724    2.5033    2.3425 H   0  0  0  0  0  0  0  0  0  0  0  0
    4.2815    3.3659    0.3934 C   0  0  0  0  0  0  0  0  0  0  0  0
    5.1513    4.0391    0.4349 H   0  0  0  0  0  0  0  0  0  0  0  0
    2.5427    0.7469    2.6187 C   0  0  0  0  0  0  0  0  0  0  0  0
    2.0415   -0.1519    2.1935 H   0  0  0  0  0  0  0  0  0  0  0  0
   -5.8732    0.1283    0.1225 C   0  0  0  0  0  0  0  0  0  0  0  0
   -5.5696   -1.2246   -0.1468 C   0  0  0  0  0  0  0  0  0  0  0  0
   -6.4336   -1.8910   -0.2719 H   0  0  0  0  0  0  0  0  0  0  0  0
   -8.3537   -0.5816    0.0003 C   0  0  0  0  0  0  0  0  0  0  0  0
   -8.2519   -1.0370   -1.0052 H   0  0  0  0  0  0  0  0  0  0  0  0
   -9.3884   -0.1930    0.0835 H   0  0  0  0  0  0  0  0  0  0  0  0
   -8.2394   -1.3817    0.7588 H   0  0  0  0  0  0  0  0  0  0  0  0
    2.3299    2.5130   -0.8147 C   0  0  0  0  0  0  0  0  0  0  0  0
   -4.3337   -1.8790   -0.2854 C   0  0  0  0  0  0  0  0  0  0  0  0
   -4.4000   -2.9601   -0.4985 H   0  0  0  0  0  0  0  0  0  0  0  0
   -2.6420    0.0290    0.0822 C   0  0  0  0  0  0  0  0  0  0  0  0
    1.4549    2.5060   -2.0642 C   0  0  0  0  0  0  0  0  0  0  0  0
    0.8292    1.5915   -2.0226 H   0  0  0  0  0  0  0  0  0  0  0  0
   -3.5076    1.1077    0.3019 C   0  0  0  0  0  0  0  0  0  0  0  0
   -3.0149    2.0770    0.4913 H   0  0  0  0  0  0  0  0  0  0  0  0
    2.2744    2.4292   -3.3626 C   0  0  0  0  0  0  0  0  0  0  0  0
    2.8933    3.3366   -3.5204 H   0  0  0  0  0  0  0  0  0  0  0  0
    1.5995    2.3371   -4.2378 H   0  0  0  0  0  0  0  0  0  0  0  0
    2.9512    1.5519   -3.3640 H   0  0  0  0  0  0  0  0  0  0  0  0
   -7.3580    0.5720    0.2189 C   0  0  0  0  0  0  0  0  0  0  0  0
    3.7539    0.2699    3.4265 C   0  0  0  0  0  0  0  0  0  0  0  0
    4.5022   -0.2178    2.7704 H   0  0  0  0  0  0  0  0  0  0  0  0
    3.4354   -0.4667    4.1916 H   0  0  0  0  0  0  0  0  0  0  0  0
    4.2520    1.1021    3.9668 H   0  0  0  0  0  0  0  0  0  0  0  0
   -7.6246    1.1610    1.6244 C   0  0  0  0  0  0  0  0  0  0  0  0
   -7.4310    0.4051    2.4121 H   0  0  0  0  0  0  0  0  0  0  0  0
   -8.6825    1.4849    1.7101 H   0  0  0  0  0  0  0  0  0  0  0  0
   -6.9870    2.0410    1.8382 H   0  0  0  0  0  0  0  0  0  0  0  0
    0.5120    3.7228   -2.0861 C   0  0  0  0  0  0  0  0  0  0  0  0
   -0.1307    3.7584   -1.1840 H   0  0  0  0  0  0  0  0  0  0  0  0
   -0.1492    3.6954   -2.9766 H   0  0  0  0  0  0  0  0  0  0  0  0
    1.0889    4.6707   -2.1183 H   0  0  0  0  0  0  0  0  0  0  0  0
    1.5135    1.4531    3.5217 C   0  0  0  0  0  0  0  0  0  0  0  0
    1.9435    2.3768    3.9626 H   0  0  0  0  0  0  0  0  0  0  0  0
    1.1990    0.7885    4.3525 H   0  0  0  0  0  0  0  0  0  0  0  0
    0.6050    1.7395    2.9559 H   0  0  0  0  0  0  0  0  0  0  0  0
   -7.6398    1.6455   -0.8591 C   0  0  0  0  0  0  0  0  0  0  0  0
   -7.0021    2.5423   -0.7339 H   0  0  0  0  0  0  0  0  0  0  0  0
   -8.6976    1.9758   -0.8043 H   0  0  0  0  0  0  0  0  0  0  0  0
   -7.4573    1.2413   -1.8753 H   0  0  0  0  0  0  0  0  0  0  0  0
  1 13  1  0  0  0  0
  1  9  1  0  0  0  0
  2 31  1  0  0  0  0
  2 13  2  0  0  0  0
  3 31  1  0  0  0  0
  4  2  1  0  0  0  0
  5 17  1  0  0  0  0
  6  5  1  0  0  0  0
  7  4  1  0  0  0  0
  7  3  2  0  0  0  0
  8  7  1  0  0  0  0
  9 10  2  0  0  0  0
 10 15  1  0  0  0  0
 10 19  1  0  0  0  0
 11 12  1  0  0  0  0
 13 14  1  0  0  0  0
 15 16  1  0  0  0  0
 17 18  1  0  0  0  0
 17 15  2  0  0  0  0
 19 41  1  0  0  0  0
 19 53  1  0  0  0  0
 20 19  1  0  0  0  0
 21 40  1  0  0  0  0
 21 11  2  0  0  0  0
 22 21  1  0  0  0  0
 23 22  1  0  0  0  0
 24 26  1  0  0  0  0
 24 40  1  0  0  0  0
 24 27  1  0  0  0  0
 25 24  1  0  0  0  0
 28  5  2  0  0  0  0
 28  9  1  0  0  0  0
 29  3  1  0  0  0  0
 29 22  2  0  0  0  0
 30 29  1  0  0  0  0
 31 34  2  0  0  0  0
 32 33  1  0  0  0  0
 32 28  1  0  0  0  0
 34 11  1  0  0  0  0
 34 35  1  0  0  0  0
 36 32  1  0  0  0  0
 37 36  1  0  0  0  0
 38 36  1  0  0  0  0
 39 36  1  0  0  0  0
 40 45  1  0  0  0  0
 41 44  1  0  0  0  0
 41 43  1  0  0  0  0
 42 41  1  0  0  0  0
 45 47  1  0  0  0  0
 45 48  1  0  0  0  0
 45 46  1  0  0  0  0
 49 32  1  0  0  0  0
 49 50  1  0  0  0  0
 51 49  1  0  0  0  0
 52 49  1  0  0  0  0
 53 54  1  0  0  0  0
 53 55  1  0  0  0  0
 56 53  1  0  0  0  0
 57 59  1  0  0  0  0
 57 58  1  0  0  0  0
 57 40  1  0  0  0  0
 60 57  1  0  0  0  0
M  END
