2,11
 OpenBabel05122313053D

 21 21  0  0  1  0  0  0  0  0999 V2000
   -0.1853    2.9188    0.3033 O   0  0  0  0  0  0  0  0  0  0  0  0
   -0.7865    1.6702    0.1539 N   0  0  0  0  0  2  0  0  0  0  0  0
   -2.6185    0.2793    0.1565 C   0  0  0  0  0  0  0  0  0  0  0  0
   -2.0702   -2.0344   -0.3222 C   0  0  0  0  0  0  0  0  0  0  0  0
   -1.3441   -2.8185   -0.5847 H   0  0  0  0  0  0  0  0  0  0  0  0
   -2.1002    1.6317    0.2709 C   0  0  2  0  0  3  0  0  0  0  0  0
   -2.9499    2.8430    0.4811 C   0  0  0  0  0  0  0  0  0  0  0  0
   -2.3413    3.7626    0.4577 H   0  0  0  0  0  0  0  0  0  0  0  0
   -3.4686    2.7839    1.4605 H   0  0  0  0  0  0  0  0  0  0  0  0
   -3.7369    2.8974   -0.2979 H   0  0  0  0  0  0  0  0  0  0  0  0
   -1.6229   -0.7194   -0.0862 C   0  0  0  0  0  3  0  0  0  0  0  0
   -3.9915   -0.0474    0.2238 C   0  0  0  0  0  0  0  0  0  0  0  0
   -4.7397    0.7376    0.4151 H   0  0  0  0  0  0  0  0  0  0  0  0
   -3.4341   -2.3586   -0.2502 C   0  0  0  0  0  0  0  0  0  0  0  0
   -3.7548   -3.3974   -0.4285 H   0  0  0  0  0  0  0  0  0  0  0  0
   -4.3984   -1.3715    0.0340 C   0  0  0  0  0  0  0  0  0  0  0  0
   -5.4648   -1.6364    0.0869 H   0  0  0  0  0  0  0  0  0  0  0  0
    0.5576    3.2669   -0.8705 C   0  0  0  0  0  0  0  0  0  0  0  0
   -0.1183    3.4222   -1.7378 H   0  0  0  0  0  0  0  0  0  0  0  0
    1.2814    2.4677   -1.1333 H   0  0  0  0  0  0  0  0  0  0  0  0
    1.0835    4.2046   -0.6112 H   0  0  0  0  0  0  0  0  0  0  0  0
  2  1  1  0  0  0  0
  3 12  1  0  0  0  0
  3  6  1  0  0  0  0
  4 14  2  0  0  0  0
  4 11  1  0  0  0  0
  5  4  1  0  0  0  0
  6  2  1  6  0  0  0
  6  7  1  0  0  0  0
  7  9  1  0  0  0  0
  8  7  1  0  0  0  0
 10  7  1  0  0  0  0
 11  3  2  0  0  0  0
 12 13  1  0  0  0  0
 14 16  1  0  0  0  0
 15 14  1  0  0  0  0
 16 17  1  0  0  0  0
 16 12  2  0  0  0  0
 18 21  1  0  0  0  0
 18  1  1  0  0  0  0
 19 18  1  0  0  0  0
 20 18  1  0  0  0  0
M  END
