2,3
 OpenBabel05122313053D

 52 54  0  0  1  0  0  0  0  0999 V2000
    2.7315   -0.1407   -1.4942 Si  0  0  0  0  0  0  0  0  0  0  0  0
    2.6659   -0.1069    0.2841 N   0  0  0  0  0  2  0  0  0  0  0  0
    0.8587   -0.0837   -1.6665 C   0  0  2  0  0  3  0  0  0  0  0  0
    0.0549    1.0705   -1.3991 C   0  0  0  0  0  0  0  0  0  0  0  0
    0.3674    2.1142   -1.5296 H   0  0  0  0  0  0  0  0  0  0  0  0
   -1.1884    0.6708   -0.8203 C   0  0  0  0  0  0  0  0  0  0  0  0
   -1.1827   -0.7724   -0.7345 C   0  0  0  0  0  0  0  0  0  0  0  0
    0.0813   -1.2079   -1.2344 C   0  0  0  0  0  0  0  0  0  0  0  0
    0.4035   -2.2568   -1.2776 H   0  0  0  0  0  0  0  0  0  0  0  0
    3.5668    1.3544   -2.2871 C   0  0  0  0  0  0  0  0  0  0  0  0
    3.1751    2.2998   -1.8615 H   0  0  0  0  0  0  0  0  0  0  0  0
    3.3772    1.3578   -3.3806 H   0  0  0  0  0  0  0  0  0  0  0  0
    4.6651    1.3394   -2.1354 H   0  0  0  0  0  0  0  0  0  0  0  0
    3.4008   -1.7438   -2.2361 C   0  0  0  0  0  0  0  0  0  0  0  0
    4.5049   -1.8082   -2.1739 H   0  0  0  0  0  0  0  0  0  0  0  0
    3.1133   -1.8018   -3.3066 H   0  0  0  0  0  0  0  0  0  0  0  0
    2.9785   -2.6274   -1.7169 H   0  0  0  0  0  0  0  0  0  0  0  0
    3.8124   -0.0197    1.2162 C   0  0  0  0  0  0  0  0  0  0  0  0
    3.3759   -0.4479    2.6292 C   0  0  0  0  0  0  0  0  0  0  0  0
    2.5888    0.2238    3.0263 H   0  0  0  0  0  0  0  0  0  0  0  0
    4.2325   -0.4064    3.3318 H   0  0  0  0  0  0  0  0  0  0  0  0
    2.9785   -1.4819    2.6229 H   0  0  0  0  0  0  0  0  0  0  0  0
    4.3315    1.4329    1.2659 C   0  0  0  0  0  0  0  0  0  0  0  0
    4.6861    1.7620    0.2697 H   0  0  0  0  0  0  0  0  0  0  0  0
    5.1774    1.5265    1.9778 H   0  0  0  0  0  0  0  0  0  0  0  0
    3.5259    2.1216    1.5862 H   0  0  0  0  0  0  0  0  0  0  0  0
    4.9472   -0.9527    0.7501 C   0  0  0  0  0  0  0  0  0  0  0  0
    4.5869   -1.9970    0.6624 H   0  0  0  0  0  0  0  0  0  0  0  0
    5.7914   -0.9334    1.4690 H   0  0  0  0  0  0  0  0  0  0  0  0
    5.3450   -0.6384   -0.2368 H   0  0  0  0  0  0  0  0  0  0  0  0
   -2.2366    1.6029   -0.3621 C   0  0  0  0  0  0  0  0  0  0  0  0
   -2.5353    2.7598   -1.1152 C   0  0  0  0  0  0  0  0  0  0  0  0
   -2.0078    2.9318   -2.0655 H   0  0  0  0  0  0  0  0  0  0  0  0
   -3.5057    3.6722   -0.6759 C   0  0  0  0  0  0  0  0  0  0  0  0
   -3.7281    4.5649   -1.2801 H   0  0  0  0  0  0  0  0  0  0  0  0
   -4.1935    3.4466    0.5263 C   0  0  0  0  0  0  0  0  0  0  0  0
   -4.9550    4.1621    0.8717 H   0  0  0  0  0  0  0  0  0  0  0  0
   -3.9011    2.3024    1.2881 C   0  0  0  0  0  0  0  0  0  0  0  0
   -4.4285    2.1219    2.2372 H   0  0  0  0  0  0  0  0  0  0  0  0
   -2.9330    1.3906    0.8509 C   0  0  0  0  0  0  0  0  0  0  0  0
   -2.6975    0.5046    1.4584 H   0  0  0  0  0  0  0  0  0  0  0  0
   -2.2982   -1.6726   -0.3768 C   0  0  0  0  0  0  0  0  0  0  0  0
   -2.0512   -2.9331    0.2142 C   0  0  0  0  0  0  0  0  0  0  0  0
   -1.0197   -3.2172    0.4653 H   0  0  0  0  0  0  0  0  0  0  0  0
   -3.1027   -3.8141    0.4998 C   0  0  0  0  0  0  0  0  0  0  0  0
   -2.8855   -4.7870    0.9666 H   0  0  0  0  0  0  0  0  0  0  0  0
   -4.4267   -3.4567    0.1995 C   0  0  0  0  0  0  0  0  0  0  0  0
   -5.2532   -4.1467    0.4273 H   0  0  0  0  0  0  0  0  0  0  0  0
   -4.6860   -2.2141   -0.4003 C   0  0  0  0  0  0  0  0  0  0  0  0
   -5.7182   -1.9284   -0.6545 H   0  0  0  0  0  0  0  0  0  0  0  0
   -3.6353   -1.3329   -0.6883 C   0  0  0  0  0  0  0  0  0  0  0  0
   -3.8490   -0.3717   -1.1760 H   0  0  0  0  0  0  0  0  0  0  0  0
  1  2  1  0  0  0  0
  2 18  1  0  0  0  0
  3  1  1  1  0  0  0
  3  4  1  0  0  0  0
  3  8  1  0  0  0  0
  4  6  2  0  0  0  0
  5  4  1  0  0  0  0
  6  7  1  0  0  0  0
  6 31  1  0  0  0  0
  7 42  1  0  0  0  0
  8  7  2  0  0  0  0
  9  8  1  0  0  0  0
 10 13  1  0  0  0  0
 10 11  1  0  0  0  0
 10  1  1  0  0  0  0
 12 10  1  0  0  0  0
 14 15  1  0  0  0  0
 14 17  1  0  0  0  0
 14  1  1  0  0  0  0
 16 14  1  0  0  0  0
 18 23  1  0  0  0  0
 18 19  1  0  0  0  0
 19 20  1  0  0  0  0
 19 21  1  0  0  0  0
 22 19  1  0  0  0  0
 23 26  1  0  0  0  0
 23 25  1  0  0  0  0
 24 23  1  0  0  0  0
 27 18  1  0  0  0  0
 27 29  1  0  0  0  0
 28 27  1  0  0  0  0
 30 27  1  0  0  0  0
 31 40  1  0  0  0  0
 32 34  1  0  0  0  0
 32 31  2  0  0  0  0
 33 32  1  0  0  0  0
 34 36  2  0  0  0  0
 35 34  1  0  0  0  0
 36 37  1  0  0  0  0
 36 38  1  0  0  0  0
 38 39  1  0  0  0  0
 40 38  2  0  0  0  0
 40 41  1  0  0  0  0
 42 43  1  0  0  0  0
 43 44  1  0  0  0  0
 43 45  2  0  0  0  0
 45 46  1  0  0  0  0
 47 48  1  0  0  0  0
 47 45  1  0  0  0  0
 49 47  2  0  0  0  0
 50 49  1  0  0  0  0
 51 49  1  0  0  0  0
 51 42  2  0  0  0  0
 52 51  1  0  0  0  0
M  END
