18,26
 OpenBabel05122313053D

 27 27  0  0  1  0  0  0  0  0999 V2000
   -5.5913   -1.6840    0.3402 C   0  0  0  0  0  0  0  0  0  0  0  0
   -5.2487   -1.6581    1.3958 H   0  0  0  0  0  0  0  0  0  0  0  0
   -6.1708   -2.6197    0.2157 H   0  0  0  0  0  0  0  0  0  0  0  0
   -6.2958   -0.8382    0.1971 H   0  0  0  0  0  0  0  0  0  0  0  0
   -4.4321   -1.6158   -0.6571 C   0  0  0  0  0  0  0  0  0  0  0  0
   -4.8239   -1.7497   -1.6867 H   0  0  0  0  0  0  0  0  0  0  0  0
   -3.7399   -2.4713   -0.4931 H   0  0  0  0  0  0  0  0  0  0  0  0
   -3.6324   -0.3067   -0.6303 C   0  0  0  0  0  0  0  0  0  0  0  0
   -4.3130    0.5504   -0.8302 H   0  0  0  0  0  0  0  0  0  0  0  0
   -2.8676   -0.3020   -1.4357 H   0  0  0  0  0  0  0  0  0  0  0  0
   -2.9076   -0.0709    0.6995 C   0  0  0  0  0  0  0  0  0  0  0  0
   -3.6107   -0.0052    1.5536 H   0  0  0  0  0  0  0  0  0  0  0  0
   -2.2009   -0.8941    0.9032 H   0  0  0  0  0  0  0  0  0  0  0  0
   -2.6747    2.4410    0.7392 C   0  0  0  0  0  0  0  0  0  0  0  0
   -3.7304    2.5956    0.9831 H   0  0  0  0  0  0  0  0  0  0  0  0
   -1.6906    3.3481    0.4660 C   0  0  0  0  0  0  0  0  0  0  0  0
   -1.7129    4.4402    0.4220 H   0  0  0  0  0  0  0  0  0  0  0  0
   -0.7945    1.2276    0.3777 C   0  0  0  0  0  2  0  0  0  0  0  0
    0.7211    2.9444   -0.2340 C   0  0  1  0  0  3  0  0  0  0  0  0
    1.0517    4.3719   -0.4960 C   0  0  0  0  0  0  0  0  0  0  0  0
    2.0983    4.4768   -0.8334 H   0  0  0  0  0  0  0  0  0  0  0  0
    0.9098    4.9857    0.4171 H   0  0  0  0  0  0  0  0  0  0  0  0
    0.3876    4.7828   -1.2848 H   0  0  0  0  0  0  0  0  0  0  0  0
   -2.1148    1.1606    0.6767 N   0  0  0  0  0  0  0  0  0  0  0  0
   -0.5384    2.5926    0.2384 N   0  0  0  0  0  0  0  0  0  0  0  0
    1.4876    1.9069   -0.4149 N   0  0  0  0  0  2  0  0  0  0  0  0
    2.4199    2.0909   -0.8013 H   0  0  0  0  0  0  0  0  0  0  0  0
  1  2  1  0  0  0  0
  3  1  1  0  0  0  0
  4  1  1  0  0  0  0
  5  8  1  0  0  0  0
  5  7  1  0  0  0  0
  5  1  1  0  0  0  0
  6  5  1  0  0  0  0
  8 11  1  0  0  0  0
  9  8  1  0  0  0  0
 10  8  1  0  0  0  0
 11 13  1  0  0  0  0
 11 12  1  0  0  0  0
 14 15  1  0  0  0  0
 16 14  2  0  0  0  0
 17 16  1  0  0  0  0
 18 24  1  0  0  0  0
 19 26  1  6  0  0  0
 19 25  1  0  0  0  0
 20 19  1  0  0  0  0
 20 22  1  0  0  0  0
 21 20  1  0  0  0  0
 23 20  1  0  0  0  0
 24 11  1  0  0  0  0
 24 14  1  0  0  0  0
 25 18  1  0  0  0  0
 25 16  1  0  0  0  0
 27 26  1  0  0  0  0
M  END
