2,20
 OpenBabel05122313053D

 29 30  0  0  1  0  0  0  0  0999 V2000
   -2.1362    0.8403   -0.8357 N   0  0  0  0  0  0  0  0  0  0  0  0
   -0.8996    0.6891   -0.3161 C   0  0  0  0  0  2  0  0  0  0  0  0
   -0.4301    1.9967   -0.2799 N   0  0  0  0  0  0  0  0  0  0  0  0
   -1.4102    2.8345   -0.7849 C   0  0  0  0  0  0  0  0  0  0  0  0
   -1.3180    3.9204   -0.8889 H   0  0  0  0  0  0  0  0  0  0  0  0
   -2.4671    2.1419   -1.1253 N   0  0  0  0  0  0  0  0  0  0  0  0
   -3.1144   -0.2270   -1.0511 C   0  0  0  0  0  0  0  0  0  0  0  0
   -2.5977   -1.0474   -1.5850 H   0  0  0  0  0  0  0  0  0  0  0  0
   -3.8756    0.2012   -1.7293 H   0  0  0  0  0  0  0  0  0  0  0  0
   -3.7290   -0.7340    0.2583 C   0  0  0  0  0  0  0  0  0  0  0  0
   -2.9411   -1.2559    0.8395 H   0  0  0  0  0  0  0  0  0  0  0  0
   -4.4754   -1.5100   -0.0177 H   0  0  0  0  0  0  0  0  0  0  0  0
   -4.3820    0.3441    1.1325 C   0  0  0  0  0  0  0  0  0  0  0  0
   -4.7653   -0.1495    2.0505 H   0  0  0  0  0  0  0  0  0  0  0  0
   -3.5975    1.0490    1.4879 H   0  0  0  0  0  0  0  0  0  0  0  0
   -5.5080    1.1268    0.4534 C   0  0  0  0  0  0  0  0  0  0  0  0
   -5.1299    1.7434   -0.3874 H   0  0  0  0  0  0  0  0  0  0  0  0
   -6.0029    1.8159    1.1667 H   0  0  0  0  0  0  0  0  0  0  0  0
   -6.2891    0.4466    0.0525 H   0  0  0  0  0  0  0  0  0  0  0  0
    1.5195    1.1391    0.6110 N   0  0  0  0  0  2  0  0  0  0  0  0
    0.8677    2.2526    0.1900 C   0  0  2  0  0  3  0  0  0  0  0  0
    1.4330    3.5340    0.2274 C   0  0  0  0  0  0  0  0  0  0  0  0
    0.8691    4.4064   -0.1283 H   0  0  0  0  0  0  0  0  0  0  0  0
    2.7352    3.6657    0.7204 C   0  0  0  0  0  0  0  0  0  0  0  0
    3.2117    4.6559    0.7596 H   0  0  0  0  0  0  0  0  0  0  0  0
    3.4195    2.5200    1.1565 C   0  0  0  0  0  0  0  0  0  0  0  0
    4.4447    2.5786    1.5467 H   0  0  0  0  0  0  0  0  0  0  0  0
    2.7789    1.2814    1.0836 C   0  0  0  0  0  0  0  0  0  0  0  0
    3.2761    0.3554    1.4041 H   0  0  0  0  0  0  0  0  0  0  0  0
  1  2  1  0  0  0  0
  2  3  1  0  0  0  0
  4  3  1  0  0  0  0
  5  4  1  0  0  0  0
  6  1  1  0  0  0  0
  6  4  2  0  0  0  0
  7  1  1  0  0  0  0
  7 10  1  0  0  0  0
  8  7  1  0  0  0  0
  9  7  1  0  0  0  0
 10 11  1  0  0  0  0
 10 13  1  0  0  0  0
 12 10  1  0  0  0  0
 13 15  1  0  0  0  0
 13 14  1  0  0  0  0
 16 13  1  0  0  0  0
 16 18  1  0  0  0  0
 17 16  1  0  0  0  0
 19 16  1  0  0  0  0
 20 28  1  0  0  0  0
 21  3  1  1  0  0  0
 21 22  1  0  0  0  0
 21 20  1  0  0  0  0
 22 24  2  0  0  0  0
 23 22  1  0  0  0  0
 24 25  1  0  0  0  0
 24 26  1  0  0  0  0
 26 27  1  0  0  0  0
 28 26  2  0  0  0  0
 28 29  1  0  0  0  0
M  END
