2,20
 OpenBabel05122313053D

 29 30  0  0  1  0  0  0  0  0999 V2000
   -1.7334    1.4601   -1.0986 N   0  0  0  0  0  0  0  0  0  0  0  0
   -0.5916    0.9343   -0.5641 C   0  0  0  0  0  2  0  0  0  0  0  0
    0.1878    2.0521   -0.4057 N   0  0  0  0  0  0  0  0  0  0  0  0
   -0.3897    3.2228   -0.8104 N   0  0  0  0  0  0  0  0  0  0  0  0
   -1.5694    2.8286   -1.2272 C   0  0  0  0  0  0  0  0  0  0  0  0
   -2.3398    3.4945   -1.6330 H   0  0  0  0  0  0  0  0  0  0  0  0
   -2.9507    0.6952   -1.3939 C   0  0  0  0  0  0  0  0  0  0  0  0
   -2.6665   -0.1420   -2.0606 H   0  0  0  0  0  0  0  0  0  0  0  0
   -3.6209    1.3714   -1.9622 H   0  0  0  0  0  0  0  0  0  0  0  0
   -3.6304    0.1709   -0.1266 C   0  0  0  0  0  0  0  0  0  0  0  0
   -2.9521   -0.5610    0.3573 H   0  0  0  0  0  0  0  0  0  0  0  0
   -4.5242   -0.4069   -0.4449 H   0  0  0  0  0  0  0  0  0  0  0  0
   -4.0243    1.2486    0.8862 C   0  0  0  0  0  0  0  0  0  0  0  0
   -4.7604    1.9460    0.4259 H   0  0  0  0  0  0  0  0  0  0  0  0
   -3.1311    1.8648    1.1325 H   0  0  0  0  0  0  0  0  0  0  0  0
   -4.5874    0.6564    2.1790 C   0  0  0  0  0  0  0  0  0  0  0  0
   -5.4835    0.0321    1.9819 H   0  0  0  0  0  0  0  0  0  0  0  0
   -4.8810    1.4486    2.8961 H   0  0  0  0  0  0  0  0  0  0  0  0
   -3.8314    0.0134    2.6748 H   0  0  0  0  0  0  0  0  0  0  0  0
    1.7991    0.6938    0.5186 N   0  0  0  0  0  2  0  0  0  0  0  0
    1.4755    1.9533    0.1386 C   0  0  2  0  0  3  0  0  0  0  0  0
    2.3242    3.0569    0.2812 C   0  0  0  0  0  0  0  0  0  0  0  0
    1.9803    4.0434   -0.0552 H   0  0  0  0  0  0  0  0  0  0  0  0
    3.5836    2.8339    0.8464 C   0  0  0  0  0  0  0  0  0  0  0  0
    4.2864    3.6701    0.9739 H   0  0  0  0  0  0  0  0  0  0  0  0
    3.9379    1.5328    1.2427 C   0  0  0  0  0  0  0  0  0  0  0  0
    4.9191    1.3173    1.6872 H   0  0  0  0  0  0  0  0  0  0  0  0
    3.0211    0.4943    1.0603 C   0  0  0  0  0  0  0  0  0  0  0  0
    3.2548   -0.5409    1.3459 H   0  0  0  0  0  0  0  0  0  0  0  0
  1  2  1  0  0  0  0
  2  3  1  0  0  0  0
  4  3  1  0  0  0  0
  5  1  1  0  0  0  0
  5  4  2  0  0  0  0
  6  5  1  0  0  0  0
  7  1  1  0  0  0  0
  7 10  1  0  0  0  0
  8  7  1  0  0  0  0
  9  7  1  0  0  0  0
 10 11  1  0  0  0  0
 10 13  1  0  0  0  0
 12 10  1  0  0  0  0
 13 15  1  0  0  0  0
 13 16  1  0  0  0  0
 14 13  1  0  0  0  0
 16 19  1  0  0  0  0
 16 18  1  0  0  0  0
 17 16  1  0  0  0  0
 20 28  1  0  0  0  0
 21  3  1  1  0  0  0
 21 22  1  0  0  0  0
 21 20  1  0  0  0  0
 22 24  2  0  0  0  0
 23 22  1  0  0  0  0
 24 25  1  0  0  0  0
 24 26  1  0  0  0  0
 26 27  1  0  0  0  0
 28 26  2  0  0  0  0
 28 29  1  0  0  0  0
M  END
