1,28
 OpenBabel05122313053D

 41 42  0  0  1  0  0  0  0  0999 V2000
    1.0077   -0.0649   -0.2875 N   0  0  0  0  0  2  0  0  0  0  0  0
    0.4716    1.2178   -0.7286 C   0  0  2  0  0  0  0  0  0  0  0  0
    0.6497    1.3368   -1.8318 H   0  0  0  0  0  0  0  0  0  0  0  0
    1.1160    2.4362   -0.0563 C   0  0  0  0  0  0  0  0  0  0  0  0
    1.6180    2.3646    1.2550 C   0  0  0  0  0  0  0  0  0  0  0  0
    1.6056    1.3952    1.7719 H   0  0  0  0  0  0  0  0  0  0  0  0
    2.1441    3.5031    1.8827 C   0  0  0  0  0  0  0  0  0  0  0  0
    2.5401    3.4281    2.9073 H   0  0  0  0  0  0  0  0  0  0  0  0
    2.1726    4.7336    1.2069 C   0  0  0  0  0  0  0  0  0  0  0  0
    2.5879    5.6268    1.6980 H   0  0  0  0  0  0  0  0  0  0  0  0
    1.6767    4.8144   -0.1041 C   0  0  0  0  0  0  0  0  0  0  0  0
    1.7030    5.7722   -0.6463 H   0  0  0  0  0  0  0  0  0  0  0  0
    1.1560    3.6715   -0.7300 C   0  0  0  0  0  0  0  0  0  0  0  0
    0.7781    3.7359   -1.7640 H   0  0  0  0  0  0  0  0  0  0  0  0
    2.3265   -0.3523   -0.5879 C   0  0  0  0  0  0  0  0  0  0  0  0
    2.9281   -1.5380   -0.0703 C   0  0  0  0  0  0  0  0  0  0  0  0
    2.3375   -2.1849    0.5931 H   0  0  0  0  0  0  0  0  0  0  0  0
    4.2467   -1.8900   -0.3756 C   0  0  0  0  0  0  0  0  0  0  0  0
    4.6668   -2.8165    0.0466 H   0  0  0  0  0  0  0  0  0  0  0  0
    5.0367   -1.0678   -1.1965 C   0  0  0  0  0  0  0  0  0  0  0  0
    6.0767   -1.3387   -1.4300 H   0  0  0  0  0  0  0  0  0  0  0  0
    4.4724    0.1164   -1.6982 C   0  0  0  0  0  0  0  0  0  0  0  0
    5.0755    0.7840   -2.3337 H   0  0  0  0  0  0  0  0  0  0  0  0
    3.1514    0.4764   -1.4059 C   0  0  0  0  0  0  0  0  0  0  0  0
    2.7596    1.4190   -1.8081 H   0  0  0  0  0  0  0  0  0  0  0  0
   -1.0264    1.2716   -0.5232 C   0  0  0  0  0  0  0  0  0  0  0  0
   -1.4880    2.2452   -0.7793 H   0  0  0  0  0  0  0  0  0  0  0  0
   -1.7520    0.2302   -0.0617 C   0  0  0  0  0  3  0  0  0  0  0  0
   -3.2449    0.2943    0.1498 C   0  0  0  0  0  0  0  0  0  0  0  0
   -3.4437    0.4645    1.2334 H   0  0  0  0  0  0  0  0  0  0  0  0
   -3.6942   -0.7044   -0.0561 H   0  0  0  0  0  0  0  0  0  0  0  0
   -4.0104    1.3534   -0.6547 C   0  0  0  0  0  0  0  0  0  0  0  0
   -3.6387    2.3672   -0.3896 H   0  0  0  0  0  0  0  0  0  0  0  0
   -3.7841    1.2254   -1.7372 H   0  0  0  0  0  0  0  0  0  0  0  0
   -5.5251    1.3027   -0.4344 C   0  0  0  0  0  0  0  0  0  0  0  0
   -5.8981    0.2872   -0.6970 H   0  0  0  0  0  0  0  0  0  0  0  0
   -5.7402    1.4263    0.6507 H   0  0  0  0  0  0  0  0  0  0  0  0
   -6.2924    2.3557   -1.2346 C   0  0  0  0  0  0  0  0  0  0  0  0
   -7.3850    2.2941   -1.0563 H   0  0  0  0  0  0  0  0  0  0  0  0
   -6.1239    2.2341   -2.3252 H   0  0  0  0  0  0  0  0  0  0  0  0
   -5.9668    3.3823   -0.9653 H   0  0  0  0  0  0  0  0  0  0  0  0
  2  3  1  6  0  0  0
  2 26  1  0  0  0  0
  2  1  1  0  0  0  0
  2  4  1  0  0  0  0
  4  5  1  0  0  0  0
  5  6  1  0  0  0  0
  5  7  2  0  0  0  0
  7  8  1  0  0  0  0
  9 10  1  0  0  0  0
  9  7  1  0  0  0  0
 11  9  2  0  0  0  0
 12 11  1  0  0  0  0
 13 11  1  0  0  0  0
 13  4  2  0  0  0  0
 14 13  1  0  0  0  0
 15  1  1  0  0  0  0
 15 16  1  0  0  0  0
 16 17  1  0  0  0  0
 18 16  2  0  0  0  0
 18 19  1  0  0  0  0
 20 18  1  0  0  0  0
 21 20  1  0  0  0  0
 22 24  1  0  0  0  0
 22 20  2  0  0  0  0
 23 22  1  0  0  0  0
 24 15  2  0  0  0  0
 25 24  1  0  0  0  0
 26 28  2  0  0  0  0
 27 26  1  0  0  0  0
 28 29  1  0  0  0  0
 29 30  1  0  0  0  0
 31 29  1  0  0  0  0
 32 35  1  0  0  0  0
 32 33  1  0  0  0  0
 32 29  1  0  0  0  0
 34 32  1  0  0  0  0
 35 37  1  0  0  0  0
 36 35  1  0  0  0  0
 38 39  1  0  0  0  0
 38 41  1  0  0  0  0
 38 35  1  0  0  0  0
 40 38  1  0  0  0  0
M  END
