1,28
 OpenBabel05122313053D

 42 44  0  0  1  0  0  0  0  0999 V2000
    1.4290   -0.1068   -0.2648 N   0  0  0  0  0  2  0  0  0  0  0  0
    2.7742   -0.4273   -0.2871 C   0  0  0  0  0  0  0  0  0  0  0  0
    3.2527   -1.5353    0.4738 C   0  0  0  0  0  0  0  0  0  0  0  0
    2.5417   -2.0988    1.0930 H   0  0  0  0  0  0  0  0  0  0  0  0
    4.5984   -1.9160    0.4569 C   0  0  0  0  0  0  0  0  0  0  0  0
    4.9194   -2.7796    1.0605 H   0  0  0  0  0  0  0  0  0  0  0  0
    5.5367   -1.2014   -0.3063 C   0  0  0  0  0  0  0  0  0  0  0  0
    6.5967   -1.4945   -0.3135 H   0  0  0  0  0  0  0  0  0  0  0  0
    5.0917   -0.0950   -1.0479 C   0  0  0  0  0  0  0  0  0  0  0  0
    5.8095    0.4881   -1.6461 H   0  0  0  0  0  0  0  0  0  0  0  0
    3.7463    0.2926   -1.0443 C   0  0  0  0  0  0  0  0  0  0  0  0
    3.4501    1.1729   -1.6280 H   0  0  0  0  0  0  0  0  0  0  0  0
    1.0094    1.1077   -0.9523 C   0  0  2  0  0  0  0  0  0  0  0  0
    1.3663    1.0860   -2.0181 H   0  0  0  0  0  0  0  0  0  0  0  0
    1.5646    2.3998   -0.3368 C   0  0  0  0  0  0  0  0  0  0  0  0
    1.8148    2.4941    1.0435 C   0  0  0  0  0  0  0  0  0  0  0  0
    1.6739    1.6002    1.6668 H   0  0  0  0  0  0  0  0  0  0  0  0
    2.2571    3.6991    1.6083 C   0  0  0  0  0  0  0  0  0  0  0  0
    2.4561    3.7551    2.6897 H   0  0  0  0  0  0  0  0  0  0  0  0
    2.4519    4.8298    0.7986 C   0  0  0  0  0  0  0  0  0  0  0  0
    2.8019    5.7749    1.2409 H   0  0  0  0  0  0  0  0  0  0  0  0
    2.2063    4.7440   -0.5810 C   0  0  0  0  0  0  0  0  0  0  0  0
    2.3644    5.6224   -1.2257 H   0  0  0  0  0  0  0  0  0  0  0  0
    1.7680    3.5352   -1.1430 C   0  0  0  0  0  0  0  0  0  0  0  0
    1.5855    3.4681   -2.2284 H   0  0  0  0  0  0  0  0  0  0  0  0
   -0.4972    1.2144   -0.9870 C   0  0  0  0  0  0  0  0  0  0  0  0
   -0.8842    2.1695   -1.3949 H   0  0  0  0  0  0  0  0  0  0  0  0
   -1.3401    0.2534   -0.5350 C   0  0  0  0  0  3  0  0  0  0  0  0
   -2.7920    0.5040   -0.4537 C   0  0  0  0  0  0  0  0  0  0  0  0
   -3.2712    1.7764   -0.0466 C   0  0  0  0  0  0  0  0  0  0  0  0
   -2.5411    2.5596    0.2090 H   0  0  0  0  0  0  0  0  0  0  0  0
   -4.6398    2.0441    0.0645 C   0  0  0  0  0  0  0  0  0  0  0  0
   -4.9682    3.0440    0.3923 H   0  0  0  0  0  0  0  0  0  0  0  0
   -5.6073    1.0577   -0.2200 C   0  0  0  0  0  0  0  0  0  0  0  0
   -5.1386   -0.2129   -0.6080 C   0  0  0  0  0  0  0  0  0  0  0  0
   -5.8663   -1.0110   -0.8273 H   0  0  0  0  0  0  0  0  0  0  0  0
   -3.7686   -0.4869   -0.7148 C   0  0  0  0  0  0  0  0  0  0  0  0
   -3.4518   -1.4967   -1.0067 H   0  0  0  0  0  0  0  0  0  0  0  0
   -7.0809    1.3599   -0.1203 C   0  0  0  0  0  0  0  0  0  0  0  0
   -7.3172    1.9444    0.7922 H   0  0  0  0  0  0  0  0  0  0  0  0
   -7.6887    0.4343   -0.1024 H   0  0  0  0  0  0  0  0  0  0  0  0
   -7.4255    1.9653   -0.9864 H   0  0  0  0  0  0  0  0  0  0  0  0
  2  1  1  0  0  0  0
  2  3  1  0  0  0  0
  3  4  1  0  0  0  0
  5  3  2  0  0  0  0
  5  6  1  0  0  0  0
  7  5  1  0  0  0  0
  8  7  1  0  0  0  0
  9 11  1  0  0  0  0
  9  7  2  0  0  0  0
 10  9  1  0  0  0  0
 11  2  2  0  0  0  0
 12 11  1  0  0  0  0
 13 14  1  6  0  0  0
 13 15  1  0  0  0  0
 13  1  1  0  0  0  0
 15 16  1  0  0  0  0
 16 18  2  0  0  0  0
 16 17  1  0  0  0  0
 18 19  1  0  0  0  0
 20 21  1  0  0  0  0
 20 18  1  0  0  0  0
 22 20  2  0  0  0  0
 23 22  1  0  0  0  0
 24 22  1  0  0  0  0
 24 15  2  0  0  0  0
 25 24  1  0  0  0  0
 26 13  1  0  0  0  0
 26 28  2  0  0  0  0
 27 26  1  0  0  0  0
 28 29  1  0  0  0  0
 29 30  1  0  0  0  0
 30 32  2  0  0  0  0
 30 31  1  0  0  0  0
 32 33  1  0  0  0  0
 34 39  1  0  0  0  0
 34 32  1  0  0  0  0
 35 34  2  0  0  0  0
 36 35  1  0  0  0  0
 37 35  1  0  0  0  0
 37 29  2  0  0  0  0
 38 37  1  0  0  0  0
 39 41  1  0  0  0  0
 39 40  1  0  0  0  0
 42 39  1  0  0  0  0
M  END
