1,19
 OpenBabel05122313053D

 55 58  0  0  1  0  0  0  0  0999 V2000
   -2.3066   -1.0813    0.2754 N   0  0  0  0  0  2  0  0  0  0  0  0
   -0.9705   -0.9806    0.3962 N   0  0  0  0  0  0  0  0  0  0  0  0
   -0.4691   -0.0393    0.2935 H   0  0  0  0  0  0  0  0  0  0  0  0
    1.7954   -1.1702    0.0309 N   0  0  0  0  0  0  0  0  0  0  0  0
    5.6761    0.1342   -0.6458 N   0  0  0  0  0  0  0  0  0  0  0  0
    0.4129    1.4626    0.0900 N   0  0  0  0  0  0  0  0  0  0  0  0
   -1.4099   -3.1585    0.3127 C   0  0  0  0  0  0  0  0  0  0  0  0
   -1.3034   -4.2479    0.2942 H   0  0  0  0  0  0  0  0  0  0  0  0
   -2.6040   -2.4035    0.2437 C   0  0  2  0  0  3  0  0  0  0  0  0
   -0.3831   -2.2121    0.4050 C   0  0  0  0  0  0  0  0  0  0  0  0
   -4.0581   -2.7717    0.1168 C   0  0  0  0  0  0  0  0  0  0  0  0
   -4.4238   -3.2419    1.0542 H   0  0  0  0  0  0  0  0  0  0  0  0
   -4.1985   -3.5219   -0.6890 H   0  0  0  0  0  0  0  0  0  0  0  0
   -4.8382   -1.5077   -0.1736 C   0  0  0  0  0  0  0  0  0  0  0  0
   -5.4414   -0.6665    0.8135 C   0  0  0  0  0  0  0  0  0  0  0  0
   -5.5724   -0.9142    1.8734 H   0  0  0  0  0  0  0  0  0  0  0  0
   -5.7958    0.5754    0.1717 C   0  0  0  0  0  3  0  0  0  0  0  0
   -6.2805    1.4332    0.6524 H   0  0  0  0  0  0  0  0  0  0  0  0
   -5.4352    0.4786   -1.2097 C   0  0  0  0  0  3  0  0  0  0  0  0
   -5.5968    1.2512   -1.9708 H   0  0  0  0  0  0  0  0  0  0  0  0
   -4.8560   -0.8213   -1.4351 C   0  0  0  0  0  3  0  0  0  0  0  0
   -4.4677   -1.2085   -2.3841 H   0  0  0  0  0  0  0  0  0  0  0  0
    1.1110   -2.3642    0.4847 C   0  0  0  0  0  0  0  0  0  0  0  0
    1.4133   -2.5362    1.5423 H   0  0  0  0  0  0  0  0  0  0  0  0
    1.3935   -3.3003   -0.0684 H   0  0  0  0  0  0  0  0  0  0  0  0
    3.1377   -0.9551    0.5253 C   0  0  0  0  0  0  0  0  0  0  0  0
    3.1473   -1.1550    1.6175 H   0  0  0  0  0  0  0  0  0  0  0  0
    3.3913    0.1189    0.4034 H   0  0  0  0  0  0  0  0  0  0  0  0
    4.2663   -1.7722   -0.1683 C   0  0  0  0  0  0  0  0  0  0  0  0
    4.3210   -2.8055    0.2285 H   0  0  0  0  0  0  0  0  0  0  0  0
    4.0260   -1.8450   -1.2502 H   0  0  0  0  0  0  0  0  0  0  0  0
    5.5957   -1.0758   -0.0474 C   0  0  0  0  0  0  0  0  0  0  0  0
    6.6775   -1.6214    0.6730 C   0  0  0  0  0  0  0  0  0  0  0  0
    6.5765   -2.6064    1.1535 H   0  0  0  0  0  0  0  0  0  0  0  0
    7.8745   -0.8979    0.7609 C   0  0  0  0  0  0  0  0  0  0  0  0
    8.7340   -1.3062    1.3146 H   0  0  0  0  0  0  0  0  0  0  0  0
    7.9561    0.3527    0.1325 C   0  0  0  0  0  0  0  0  0  0  0  0
    8.8743    0.9571    0.1726 H   0  0  0  0  0  0  0  0  0  0  0  0
    6.8240    0.8195   -0.5553 C   0  0  0  0  0  0  0  0  0  0  0  0
    6.8482    1.8014   -1.0616 H   0  0  0  0  0  0  0  0  0  0  0  0
    1.5632   -0.7957   -1.3547 C   0  0  0  0  0  0  0  0  0  0  0  0
    0.4839   -0.9203   -1.5673 H   0  0  0  0  0  0  0  0  0  0  0  0
    2.0914   -1.4681   -2.0822 H   0  0  0  0  0  0  0  0  0  0  0  0
    1.9760    0.6492   -1.6550 C   0  0  0  0  0  0  0  0  0  0  0  0
    3.0792    0.7271   -1.7562 H   0  0  0  0  0  0  0  0  0  0  0  0
    1.5570    0.9192   -2.6493 H   0  0  0  0  0  0  0  0  0  0  0  0
    1.5214    1.6859   -0.6497 C   0  0  0  0  0  0  0  0  0  0  0  0
    2.2606    2.8792   -0.5115 C   0  0  0  0  0  0  0  0  0  0  0  0
    3.1722    3.0200   -1.1114 H   0  0  0  0  0  0  0  0  0  0  0  0
    1.8307    3.8626    0.3859 C   0  0  0  0  0  0  0  0  0  0  0  0
    2.3953    4.8009    0.4990 H   0  0  0  0  0  0  0  0  0  0  0  0
    0.6739    3.6240    1.1402 C   0  0  0  0  0  0  0  0  0  0  0  0
    0.2911    4.3596    1.8621 H   0  0  0  0  0  0  0  0  0  0  0  0
    0.0053    2.4070    0.9592 C   0  0  0  0  0  0  0  0  0  0  0  0
   -0.9024    2.1821    1.5409 H   0  0  0  0  0  0  0  0  0  0  0  0
  1  2  1  0  0  0  0
  2 10  1  0  0  0  0
  3  2  1  0  0  0  0
  4 23  1  0  0  0  0
  4 26  1  0  0  0  0
  5 39  2  0  0  0  0
  5 32  1  0  0  0  0
  6 54  1  0  0  0  0
  7 10  2  0  0  0  0
  8  7  1  0  0  0  0
  9 11  1  6  0  0  0
  9  1  1  0  0  0  0
  9  7  1  0  0  0  0
 10 23  1  0  0  0  0
 11 12  1  0  0  0  0
 13 11  1  0  0  0  0
 14 11  1  0  0  0  0
 14 15  2  0  0  0  0
 15 16  1  0  0  0  0
 17 18  1  0  0  0  0
 17 15  1  0  0  0  0
 19 17  1  0  0  0  0
 20 19  1  0  0  0  0
 21 19  1  0  0  0  0
 21 14  1  0  0  0  0
 22 21  1  0  0  0  0
 23 24  1  0  0  0  0
 25 23  1  0  0  0  0
 26 27  1  0  0  0  0
 28 26  1  0  0  0  0
 29 32  1  0  0  0  0
 29 30  1  0  0  0  0
 29 26  1  0  0  0  0
 31 29  1  0  0  0  0
 32 33  2  0  0  0  0
 33 35  1  0  0  0  0
 33 34  1  0  0  0  0
 35 36  1  0  0  0  0
 37 38  1  0  0  0  0
 37 35  2  0  0  0  0
 39 37  1  0  0  0  0
 40 39  1  0  0  0  0
 41  4  1  0  0  0  0
 42 41  1  0  0  0  0
 43 41  1  0  0  0  0
 44 41  1  0  0  0  0
 44 47  1  0  0  0  0
 45 44  1  0  0  0  0
 46 44  1  0  0  0  0
 47 48  1  0  0  0  0
 47  6  2  0  0  0  0
 48 50  2  0  0  0  0
 49 48  1  0  0  0  0
 50 51  1  0  0  0  0
 50 52  1  0  0  0  0
 52 53  1  0  0  0  0
 54 52  2  0  0  0  0
 54 55  1  0  0  0  0
M  END
