2,3
 OpenBabel05122313053D

 48 49  0  0  1  0  0  0  0  0999 V2000
    0.7587    2.0672   -0.5244 Si  0  0  0  0  0  0  0  0  0  0  0  0
    0.7873    0.7838    0.6972 N   0  0  0  0  0  2  0  0  0  0  0  0
   -0.7946    1.4128   -1.3877 C   0  0  1  0  0  3  0  0  0  0  0  0
   -0.7543    0.1889   -2.1642 C   0  0  0  0  0  0  0  0  0  0  0  0
   -2.0207   -0.4589   -2.0494 C   0  0  0  0  0  0  0  0  0  0  0  0
   -2.8725    0.3693   -1.2311 C   0  0  0  0  0  0  0  0  0  0  0  0
   -2.1329    1.5306   -0.8524 C   0  0  0  0  0  0  0  0  0  0  0  0
    0.4222   -0.3159   -2.9571 C   0  0  0  0  0  0  0  0  0  0  0  0
   -2.4951   -1.6963   -2.7554 C   0  0  0  0  0  0  0  0  0  0  0  0
   -4.3245    0.0880   -0.9733 C   0  0  0  0  0  0  0  0  0  0  0  0
   -2.6659    2.6677   -0.0250 C   0  0  0  0  0  0  0  0  0  0  0  0
    2.2847    2.1525   -1.6417 C   0  0  0  0  0  0  0  0  0  0  0  0
    0.5860    3.7910    0.2438 C   0  0  0  0  0  0  0  0  0  0  0  0
    1.9415    0.5406    1.5670 C   0  0  2  0  0  0  0  0  0  0  0  0
    3.1188   -0.0362    0.7797 C   0  0  0  0  0  0  0  0  0  0  0  0
    4.3794    0.5857    0.7823 C   0  0  0  0  0  0  0  0  0  0  0  0
    5.4431    0.0622    0.0279 C   0  0  0  0  0  0  0  0  0  0  0  0
    5.2575   -1.0984   -0.7378 C   0  0  0  0  0  0  0  0  0  0  0  0
    4.0041   -1.7359   -0.7370 C   0  0  0  0  0  0  0  0  0  0  0  0
    2.9462   -1.2084    0.0156 C   0  0  0  0  0  0  0  0  0  0  0  0
    1.5891   -0.3733    2.7509 C   0  0  0  0  0  0  0  0  0  0  0  0
    0.7993    0.4693   -3.6423 H   0  0  0  0  0  0  0  0  0  0  0  0
    1.2797   -0.6223   -2.3215 H   0  0  0  0  0  0  0  0  0  0  0  0
    0.1424   -1.1885   -3.5779 H   0  0  0  0  0  0  0  0  0  0  0  0
   -3.2380   -1.4408   -3.5419 H   0  0  0  0  0  0  0  0  0  0  0  0
   -1.6683   -2.2421   -3.2463 H   0  0  0  0  0  0  0  0  0  0  0  0
   -2.9903   -2.4062   -2.0619 H   0  0  0  0  0  0  0  0  0  0  0  0
   -4.9411    0.3301   -1.8668 H   0  0  0  0  0  0  0  0  0  0  0  0
   -4.5064   -0.9813   -0.7433 H   0  0  0  0  0  0  0  0  0  0  0  0
   -4.7210    0.6815   -0.1278 H   0  0  0  0  0  0  0  0  0  0  0  0
   -2.6801    3.6089   -0.6132 H   0  0  0  0  0  0  0  0  0  0  0  0
   -3.6992    2.4681    0.3164 H   0  0  0  0  0  0  0  0  0  0  0  0
   -2.0573    2.8645    0.8786 H   0  0  0  0  0  0  0  0  0  0  0  0
    3.1194    2.6389   -1.0970 H   0  0  0  0  0  0  0  0  0  0  0  0
    2.6417    1.1594   -1.9707 H   0  0  0  0  0  0  0  0  0  0  0  0
    2.0610    2.7666   -2.5393 H   0  0  0  0  0  0  0  0  0  0  0  0
    1.5508    4.0841    0.7082 H   0  0  0  0  0  0  0  0  0  0  0  0
    0.3470    4.5486   -0.5314 H   0  0  0  0  0  0  0  0  0  0  0  0
   -0.1941    3.8394    1.0269 H   0  0  0  0  0  0  0  0  0  0  0  0
    2.2901    1.5118    1.9957 H   0  0  0  0  0  0  0  0  0  0  0  0
    4.5256    1.5038    1.3750 H   0  0  0  0  0  0  0  0  0  0  0  0
    6.4207    0.5688    0.0339 H   0  0  0  0  0  0  0  0  0  0  0  0
    6.0874   -1.5074   -1.3341 H   0  0  0  0  0  0  0  0  0  0  0  0
    3.8497   -2.6510   -1.3300 H   0  0  0  0  0  0  0  0  0  0  0  0
    1.9585   -1.6961    0.0118 H   0  0  0  0  0  0  0  0  0  0  0  0
    0.7735    0.0659    3.3577 H   0  0  0  0  0  0  0  0  0  0  0  0
    1.2540   -1.3658    2.3869 H   0  0  0  0  0  0  0  0  0  0  0  0
    2.4708   -0.5342    3.4026 H   0  0  0  0  0  0  0  0  0  0  0  0
  1 13  1  0  0  0  0
  1  2  1  0  0  0  0
  2 14  1  0  0  0  0
  3  7  1  0  0  0  0
  3  1  1  1  0  0  0
  4  5  2  0  0  0  0
  4  3  1  0  0  0  0
  5  6  1  0  0  0  0
  6 10  1  0  0  0  0
  6  7  2  0  0  0  0
  7 11  1  0  0  0  0
  8 23  1  0  0  0  0
  8  4  1  0  0  0  0
  9 27  1  0  0  0  0
  9  5  1  0  0  0  0
 10 29  1  0  0  0  0
 10 30  1  0  0  0  0
 11 32  1  0  0  0  0
 11 33  1  0  0  0  0
 12 34  1  0  0  0  0
 12  1  1  0  0  0  0
 13 37  1  0  0  0  0
 13 39  1  0  0  0  0
 14 40  1  1  0  0  0
 14 21  1  0  0  0  0
 15 16  1  0  0  0  0
 15 14  1  0  0  0  0
 16 41  1  0  0  0  0
 17 42  1  0  0  0  0
 17 16  2  0  0  0  0
 18 19  2  0  0  0  0
 18 17  1  0  0  0  0
 19 20  1  0  0  0  0
 20 15  2  0  0  0  0
 21 46  1  0  0  0  0
 21 48  1  0  0  0  0
 22  8  1  0  0  0  0
 24  8  1  0  0  0  0
 25  9  1  0  0  0  0
 26  9  1  0  0  0  0
 28 10  1  0  0  0  0
 31 11  1  0  0  0  0
 35 12  1  0  0  0  0
 36 12  1  0  0  0  0
 38 13  1  0  0  0  0
 43 18  1  0  0  0  0
 44 19  1  0  0  0  0
 45 20  1  0  0  0  0
 47 21  1  0  0  0  0
M  END
