1,13
 OpenBabel05122313053D

 27 28  0  0  0  0  0  0  0  0999 V2000
    1.8867   -0.9066   -0.5952 C   0  0  0  0  0  3  0  0  0  0  0  0
    3.2552   -0.7628   -0.9036 C   0  0  0  0  0  0  0  0  0  0  0  0
    3.6672    0.2323   -1.1304 H   0  0  0  0  0  0  0  0  0  0  0  0
    4.1089   -1.8777   -0.9481 C   0  0  0  0  0  0  0  0  0  0  0  0
    5.1766   -1.7314   -1.1777 H   0  0  0  0  0  0  0  0  0  0  0  0
    3.6229   -3.1813   -0.7148 C   0  0  0  0  0  0  0  0  0  0  0  0
    4.3058   -4.0427   -0.7580 H   0  0  0  0  0  0  0  0  0  0  0  0
    2.2649   -3.3671   -0.4489 C   0  0  0  0  0  0  0  0  0  0  0  0
    1.8559   -4.3781   -0.2912 H   0  0  0  0  0  0  0  0  0  0  0  0
    1.4080   -2.2435   -0.3908 C   0  0  0  0  0  0  0  0  0  0  0  0
   -0.0070   -2.3104   -0.1700 C   0  0  0  0  0  3  0  0  0  0  0  0
   -0.5648   -3.2574   -0.0522 H   0  0  0  0  0  0  0  0  0  0  0  0
   -0.6422   -1.1592   -0.1522 N   0  0  0  0  0  2  0  0  0  0  0  0
   -2.0397   -1.0890    0.0732 C   0  0  0  0  0  0  0  0  0  0  0  0
   -2.6270   -1.7122    1.1902 C   0  0  0  0  0  0  0  0  0  0  0  0
   -1.9904   -2.2595    1.9018 H   0  0  0  0  0  0  0  0  0  0  0  0
   -4.0094   -1.6020    1.4076 C   0  0  0  0  0  0  0  0  0  0  0  0
   -4.4558   -2.0834    2.2921 H   0  0  0  0  0  0  0  0  0  0  0  0
   -4.8335   -0.8786    0.5253 C   0  0  0  0  0  0  0  0  0  0  0  0
   -4.2238   -0.2620   -0.5921 C   0  0  0  0  0  0  0  0  0  0  0  0
   -4.8484    0.3012   -1.3041 H   0  0  0  0  0  0  0  0  0  0  0  0
   -2.8484   -0.3531   -0.8194 C   0  0  0  0  0  0  0  0  0  0  0  0
   -2.3648    0.1123   -1.6926 H   0  0  0  0  0  0  0  0  0  0  0  0
   -6.3189   -0.7586    0.7534 C   0  0  0  0  0  0  0  0  0  0  0  0
   -6.6332    0.3036    0.8275 H   0  0  0  0  0  0  0  0  0  0  0  0
   -6.6336   -1.2711    1.6829 H   0  0  0  0  0  0  0  0  0  0  0  0
   -6.8917   -1.2018   -0.0882 H   0  0  0  0  0  0  0  0  0  0  0  0
  1 10  1  0  0  0  0
  2  1  2  0  0  0  0
  3  2  1  0  0  0  0
  4  2  1  0  0  0  0
  4  6  2  0  0  0  0
  5  4  1  0  0  0  0
  6  8  1  0  0  0  0
  7  6  1  0  0  0  0
  8 10  2  0  0  0  0
  8  9  1  0  0  0  0
 10 11  1  0  0  0  0
 11 13  1  0  0  0  0
 11 12  1  0  0  0  0
 13 14  1  0  0  0  0
 14 15  1  0  0  0  0
 15 17  2  0  0  0  0
 15 16  1  0  0  0  0
 17 18  1  0  0  0  0
 19 24  1  0  0  0  0
 19 17  1  0  0  0  0
 20 19  2  0  0  0  0
 21 20  1  0  0  0  0
 22 20  1  0  0  0  0
 22 14  2  0  0  0  0
 23 22  1  0  0  0  0
 24 25  1  0  0  0  0
 24 26  1  0  0  0  0
 27 24  1  0  0  0  0
M  END
