1,17
 OpenBabel05122313053D

 23 24  0  0  1  0  0  0  0  0999 V2000
   -0.1303    1.8804   -0.8393 C   0  0  0  0  0  3  0  0  0  0  0  0
   -1.2888    2.6712   -0.9416 C   0  0  0  0  0  0  0  0  0  0  0  0
   -2.2692    2.3171   -0.5947 H   0  0  0  0  0  0  0  0  0  0  0  0
   -1.2081    3.9489   -1.5039 C   0  0  0  0  0  0  0  0  0  0  0  0
   -0.0040    4.4936   -1.9762 C   0  0  0  0  0  0  0  0  0  0  0  0
    0.0392    5.4974   -2.4165 H   0  0  0  0  0  0  0  0  0  0  0  0
    1.1417    3.7099   -1.8650 C   0  0  0  0  0  0  0  0  0  0  0  0
    1.1213    2.4113   -1.3036 C   0  0  0  0  0  0  0  0  0  0  0  0
    2.2720    1.5406   -1.1311 C   0  0  1  0  0  3  0  0  0  0  0  0
    3.6124    1.8143   -1.4913 C   0  0  0  0  0  0  0  0  0  0  0  0
    3.8442    2.7690   -1.9742 H   0  0  0  0  0  0  0  0  0  0  0  0
    4.6154    0.8831   -1.2367 C   0  0  0  0  0  0  0  0  0  0  0  0
    5.6566    1.0924   -1.5216 H   0  0  0  0  0  0  0  0  0  0  0  0
    4.2779   -0.3346   -0.6152 C   0  0  0  0  0  0  0  0  0  0  0  0
    2.9422   -0.5684   -0.2880 C   0  0  0  0  0  0  0  0  0  0  0  0
    2.6343   -1.5096    0.1846 H   0  0  0  0  0  0  0  0  0  0  0  0
    1.9670    0.3306   -0.5358 N   0  0  0  0  0  2  0  0  0  0  0  0
   -2.3209    4.6952   -1.5985 F   0  0  0  0  0  0  0  0  0  0  0  0
    2.3002    4.2405   -2.3178 F   0  0  0  0  0  0  0  0  0  0  0  0
    5.3385   -1.3505   -0.2754 C   0  0  0  0  0  0  0  0  0  0  0  0
    4.8024   -2.5492    0.0547 F   0  0  0  0  0  0  0  0  0  0  0  0
    6.0912   -0.9412    0.7762 F   0  0  0  0  0  0  0  0  0  0  0  0
    6.1836   -1.5441   -1.3139 F   0  0  0  0  0  0  0  0  0  0  0  0
  2  1  1  0  0  0  0
  2  3  1  0  0  0  0
  4  2  2  0  0  0  0
  5  7  2  0  0  0  0
  5  4  1  0  0  0  0
  6  5  1  0  0  0  0
  7  8  1  0  0  0  0
  8  1  2  0  0  0  0
  9  8  1  1  0  0  0
  9 17  1  0  0  0  0
 10 12  2  0  0  0  0
 10  9  1  0  0  0  0
 11 10  1  0  0  0  0
 12 14  1  0  0  0  0
 13 12  1  0  0  0  0
 14 15  2  0  0  0  0
 14 20  1  0  0  0  0
 15 16  1  0  0  0  0
 17 15  1  0  0  0  0
 18  4  1  0  0  0  0
 19  7  1  0  0  0  0
 20 21  1  0  0  0  0
 20 22  1  0  0  0  0
 23 20  1  0  0  0  0
M  END
