2
 OpenBabel05122313053D

 48 50  0  0  1  0  0  0  0  0999 V2000
   -0.8088    1.7285    1.8825 Si  0  0  0  0  0  0  0  0  0  0  0  0
   -0.6890    1.6839    0.1141 N   0  0  0  0  0  2  0  0  0  0  0  0
   -0.3668   -0.0988    2.0637 C   0  0  1  0  0  3  0  0  0  0  0  0
   -1.2809   -1.1687    1.7023 C   0  0  0  0  0  0  0  0  0  0  0  0
   -0.5431   -2.2701    1.1659 C   0  0  0  0  0  0  0  0  0  0  0  0
    2.0607   -2.6572    0.8883 C   0  0  0  0  0  0  0  0  0  0  0  0
    3.2766   -2.0167    1.0956 C   0  0  0  0  0  0  0  0  0  0  0  0
    4.2019   -2.5571    0.8381 H   0  0  0  0  0  0  0  0  0  0  0  0
    3.3985   -0.6926    1.6221 C   0  0  0  0  0  0  0  0  0  0  0  0
    2.2465    0.0070    1.9582 C   0  0  0  0  0  0  0  0  0  0  0  0
    2.3219    1.0163    2.3834 H   0  0  0  0  0  0  0  0  0  0  0  0
    0.9710   -0.6058    1.8041 C   0  0  0  0  0  0  0  0  0  0  0  0
    0.8659   -1.9370    1.2384 C   0  0  0  0  0  0  0  0  0  0  0  0
    0.4166    2.9226    2.6933 C   0  0  0  0  0  0  0  0  0  0  0  0
    1.4075    2.9000    2.2005 H   0  0  0  0  0  0  0  0  0  0  0  0
    0.0288    3.9604    2.6280 H   0  0  0  0  0  0  0  0  0  0  0  0
    0.5511    2.6814    3.7682 H   0  0  0  0  0  0  0  0  0  0  0  0
   -2.5325    2.1461    2.5500 C   0  0  0  0  0  0  0  0  0  0  0  0
   -3.3372    1.7965    1.8753 H   0  0  0  0  0  0  0  0  0  0  0  0
   -2.6461    3.2413    2.6827 H   0  0  0  0  0  0  0  0  0  0  0  0
   -2.6830    1.6703    3.5412 H   0  0  0  0  0  0  0  0  0  0  0  0
   -0.9048    2.7650   -0.8050 C   0  0  0  0  0  0  0  0  0  0  0  0
   -1.0951    2.3600   -1.8296 H   0  0  0  0  0  0  0  0  0  0  0  0
   -1.9764    3.8670   -0.5400 C   0  0  0  0  0  0  0  0  0  0  0  0
   -2.9971    3.7133   -0.9464 H   0  0  0  0  0  0  0  0  0  0  0  0
   -2.0614    4.0748    0.5460 H   0  0  0  0  0  0  0  0  0  0  0  0
   -1.0322    4.8839   -1.2268 C   0  0  0  0  0  0  0  0  0  0  0  0
   -1.2460    4.9781   -2.3105 H   0  0  0  0  0  0  0  0  0  0  0  0
   -0.9705    5.9014   -0.7940 H   0  0  0  0  0  0  0  0  0  0  0  0
    0.1446    3.9131   -0.9563 C   0  0  0  0  0  0  0  0  0  0  0  0
    0.6304    4.1197    0.0182 H   0  0  0  0  0  0  0  0  0  0  0  0
    0.9304    3.7981   -1.7298 H   0  0  0  0  0  0  0  0  0  0  0  0
   -2.7718   -1.1287    1.8760 C   0  0  0  0  0  0  0  0  0  0  0  0
   -3.0289   -1.0116    2.9488 H   0  0  0  0  0  0  0  0  0  0  0  0
   -3.2570   -2.0482    1.5033 H   0  0  0  0  0  0  0  0  0  0  0  0
   -3.2383   -0.2871    1.3297 H   0  0  0  0  0  0  0  0  0  0  0  0
   -1.1363   -3.5920    0.7738 C   0  0  0  0  0  0  0  0  0  0  0  0
   -1.0275   -4.3314    1.5966 H   0  0  0  0  0  0  0  0  0  0  0  0
   -0.6529   -4.0278   -0.1190 H   0  0  0  0  0  0  0  0  0  0  0  0
   -2.2160   -3.4984    0.5544 H   0  0  0  0  0  0  0  0  0  0  0  0
    2.0300   -4.0578    0.3333 C   0  0  0  0  0  0  0  0  0  0  0  0
    3.0570   -4.4462    0.1936 H   0  0  0  0  0  0  0  0  0  0  0  0
    1.5207   -4.1009   -0.6526 H   0  0  0  0  0  0  0  0  0  0  0  0
    1.4885   -4.7592    0.9997 H   0  0  0  0  0  0  0  0  0  0  0  0
    4.7670   -0.0927    1.7961 C   0  0  0  0  0  0  0  0  0  0  0  0
    4.7196    0.8984    2.2868 H   0  0  0  0  0  0  0  0  0  0  0  0
    5.2605    0.0397    0.8105 H   0  0  0  0  0  0  0  0  0  0  0  0
    5.4217   -0.7510    2.4048 H   0  0  0  0  0  0  0  0  0  0  0  0
  1 18  1  0  0  0  0
  1 14  1  0  0  0  0
  2  1  1  0  0  0  0
  3  1  1  6  0  0  0
  4 33  1  0  0  0  0
  4  3  1  0  0  0  0
  5 13  1  0  0  0  0
  5  4  2  0  0  0  0
  6  7  2  0  0  0  0
  6 13  1  0  0  0  0
  7  9  1  0  0  0  0
  8  7  1  0  0  0  0
  9 45  1  0  0  0  0
  9 10  2  0  0  0  0
 10 11  1  0  0  0  0
 12 10  1  0  0  0  0
 12  3  1  0  0  0  0
 13 12  2  0  0  0  0
 14 17  1  0  0  0  0
 15 14  1  0  0  0  0
 16 14  1  0  0  0  0
 18 20  1  0  0  0  0
 18 21  1  0  0  0  0
 19 18  1  0  0  0  0
 22 24  1  0  0  0  0
 22  2  1  0  0  0  0
 23 22  1  0  0  0  0
 24 26  1  0  0  0  0
 25 24  1  0  0  0  0
 27 30  1  0  0  0  0
 27 29  1  0  0  0  0
 27 24  1  0  0  0  0
 28 27  1  0  0  0  0
 30 22  1  0  0  0  0
 30 31  1  0  0  0  0
 32 30  1  0  0  0  0
 33 34  1  0  0  0  0
 35 33  1  0  0  0  0
 36 33  1  0  0  0  0
 37  5  1  0  0  0  0
 37 38  1  0  0  0  0
 39 37  1  0  0  0  0
 40 37  1  0  0  0  0
 41  6  1  0  0  0  0
 41 44  1  0  0  0  0
 42 41  1  0  0  0  0
 43 41  1  0  0  0  0
 45 46  1  0  0  0  0
 45 48  1  0  0  0  0
 47 45  1  0  0  0  0
M  END
