2,13
 OpenBabel05122313053D

 14 14  0  0  0  0  0  0  0  0999 V2000
   -3.5788   -2.4169    0.0448 Cl  0  0  0  0  0  0  0  0  0  0  0  0
   -1.4161    0.9234    0.0933 N   0  0  0  0  0  2  0  0  0  0  0  0
   -1.5218    2.2680    0.1042 C   0  0  0  0  0  3  0  0  0  0  0  0
   -0.5733    2.8219    0.0607 H   0  0  0  0  0  0  0  0  0  0  0  0
   -2.7547    2.9192    0.1649 C   0  0  0  0  0  0  0  0  0  0  0  0
   -2.7896    4.0169    0.1900 H   0  0  0  0  0  0  0  0  0  0  0  0
   -3.9290    2.1406    0.1824 C   0  0  0  0  0  0  0  0  0  0  0  0
   -4.9172    2.6231    0.2228 H   0  0  0  0  0  0  0  0  0  0  0  0
   -3.8275    0.7509    0.1314 C   0  0  0  0  0  0  0  0  0  0  0  0
   -4.7112    0.0986    0.1159 H   0  0  0  0  0  0  0  0  0  0  0  0
   -2.5524    0.1482    0.0838 C   0  0  0  0  0  0  0  0  0  0  0  0
   -2.2555   -1.2636   -0.0022 C   0  0  0  0  0  0  0  0  0  0  0  0
   -0.9372   -1.6016   -0.1333 C   0  0  0  0  0  3  0  0  0  0  0  0
   -0.6511   -2.6636   -0.2266 H   0  0  0  0  0  0  0  0  0  0  0  0
  2  3  1  0  0  0  0
  3  5  1  0  0  0  0
  4  3  1  0  0  0  0
  5  7  2  0  0  0  0
  5  6  1  0  0  0  0
  7  8  1  0  0  0  0
  9  7  1  0  0  0  0
 10  9  1  0  0  0  0
 11  2  1  0  0  0  0
 11  9  2  0  0  0  0
 12  1  1  0  0  0  0
 12 11  1  0  0  0  0
 13 12  2  0  0  0  0
 14 13  1  0  0  0  0
M  END
