2,3
 OpenBabel05122313053D

 22 22  0  0  1  0  0  0  0  0999 V2000
    2.8045    1.6309    0.1391 Si  0  0  0  0  0  0  0  0  0  0  0  0
    2.9310   -1.0891    0.2946 N   0  0  0  0  0  2  0  0  0  0  0  0
    1.2915    1.1354    1.1225 C   0  0  0  0  0  3  0  0  0  0  0  0
    2.4057    1.9890   -1.6742 C   0  0  0  0  0  0  0  0  0  0  0  0
    3.8678    3.0322    0.8499 C   0  0  0  0  0  0  0  0  0  0  0  0
    3.7724   -0.0149    0.2325 C   0  0  2  0  0  3  0  0  0  0  0  0
    5.1639   -0.2137    0.2485 C   0  0  0  0  0  0  0  0  0  0  0  0
    5.6858   -1.5124    0.3355 C   0  0  0  0  0  0  0  0  0  0  0  0
    4.7970   -2.5952    0.3915 C   0  0  0  0  0  0  0  0  0  0  0  0
    3.4197   -2.3452    0.3595 C   0  0  0  0  0  0  0  0  0  0  0  0
    1.5543    0.9215    2.1824 H   0  0  0  0  0  0  0  0  0  0  0  0
    0.4888    1.9009    1.1205 H   0  0  0  0  0  0  0  0  0  0  0  0
    1.9587    1.0923   -2.1473 H   0  0  0  0  0  0  0  0  0  0  0  0
    3.3109    2.2810   -2.2442 H   0  0  0  0  0  0  0  0  0  0  0  0
    1.6626    2.8097   -1.7519 H   0  0  0  0  0  0  0  0  0  0  0  0
    3.3068    3.9895    0.8309 H   0  0  0  0  0  0  0  0  0  0  0  0
    4.1557    2.8287    1.9012 H   0  0  0  0  0  0  0  0  0  0  0  0
    4.7952    3.1811    0.2574 H   0  0  0  0  0  0  0  0  0  0  0  0
    5.8337    0.6582    0.1940 H   0  0  0  0  0  0  0  0  0  0  0  0
    6.7740   -1.6799    0.3556 H   0  0  0  0  0  0  0  0  0  0  0  0
    5.1583   -3.6318    0.4540 H   0  0  0  0  0  0  0  0  0  0  0  0
    2.6624   -3.1457    0.3467 H   0  0  0  0  0  0  0  0  0  0  0  0
  1  5  1  0  0  0  0
  1  3  1  0  0  0  0
  2 10  1  0  0  0  0
  3 11  1  0  0  0  0
  4  1  1  0  0  0  0
  5 17  1  0  0  0  0
  6  1  1  1  0  0  0
  6  7  1  0  0  0  0
  6  2  1  0  0  0  0
  7  8  2  0  0  0  0
  8 20  1  0  0  0  0
  8  9  1  0  0  0  0
  9 21  1  0  0  0  0
 10  9  2  0  0  0  0
 12  3  1  0  0  0  0
 13  4  1  0  0  0  0
 14  4  1  0  0  0  0
 15  4  1  0  0  0  0
 16  5  1  0  0  0  0
 18  5  1  0  0  0  0
 19  7  1  0  0  0  0
 22 10  1  0  0  0  0
M  END
