1,17
 OpenBabel05122313053D

 33 35  0  0  0  0  0  0  0  0999 V2000
    2.5610    0.5744   -0.0021 N   0  0  0  0  0  2  0  0  0  0  0  0
    0.1430    2.2180    0.4765 N   0  0  0  0  0  0  0  0  0  0  0  0
   -1.4616    1.5334   -0.7325 N   0  0  0  0  0  0  0  0  0  0  0  0
   -0.6056    3.3394    0.2436 N   0  0  0  0  0  0  0  0  0  0  0  0
    3.6749    0.1623   -0.6616 C   0  0  0  0  0  3  0  0  0  0  0  0
    3.6295   -0.8533   -1.0798 H   0  0  0  0  0  0  0  0  0  0  0  0
    4.8172    0.9504   -0.8090 C   0  0  0  0  0  0  0  0  0  0  0  0
    5.6832    0.5472   -1.3526 H   0  0  0  0  0  0  0  0  0  0  0  0
    4.8303    2.2400   -0.2573 C   0  0  0  0  0  0  0  0  0  0  0  0
    5.7112    2.8916   -0.3536 H   0  0  0  0  0  0  0  0  0  0  0  0
    3.6860    2.6769    0.4192 C   0  0  0  0  0  0  0  0  0  0  0  0
    3.6415    3.6809    0.8656 H   0  0  0  0  0  0  0  0  0  0  0  0
    2.5743    1.8270    0.5347 C   0  0  0  0  0  0  0  0  0  0  0  0
    1.3458    2.2756    1.2896 C   0  0  0  0  0  0  0  0  0  0  0  0
    1.1993    1.6126    2.1710 H   0  0  0  0  0  0  0  0  0  0  0  0
    1.4510    3.3190    1.6336 H   0  0  0  0  0  0  0  0  0  0  0  0
   -0.3270    1.0749   -0.0960 C   0  0  0  0  0  2  0  0  0  0  0  0
   -1.5926    2.8850   -0.4933 C   0  0  0  0  0  0  0  0  0  0  0  0
   -2.4239    3.4927   -0.8686 H   0  0  0  0  0  0  0  0  0  0  0  0
   -2.4285    0.7001   -1.4466 C   0  0  0  0  0  0  0  0  0  0  0  0
   -1.9134   -0.2623   -1.6373 H   0  0  0  0  0  0  0  0  0  0  0  0
   -2.6470    1.1683   -2.4267 H   0  0  0  0  0  0  0  0  0  0  0  0
   -3.7021    0.4877   -0.6551 C   0  0  0  0  0  0  0  0  0  0  0  0
   -3.6414    0.0470    0.6824 C   0  0  0  0  0  0  0  0  0  0  0  0
   -2.6619   -0.1346    1.1513 H   0  0  0  0  0  0  0  0  0  0  0  0
   -4.8202   -0.1678    1.4082 C   0  0  0  0  0  0  0  0  0  0  0  0
   -4.7615   -0.5170    2.4500 H   0  0  0  0  0  0  0  0  0  0  0  0
   -6.0715    0.0510    0.8075 C   0  0  0  0  0  0  0  0  0  0  0  0
   -6.9959   -0.1211    1.3793 H   0  0  0  0  0  0  0  0  0  0  0  0
   -6.1385    0.4886   -0.5235 C   0  0  0  0  0  0  0  0  0  0  0  0
   -7.1149    0.6636   -1.0003 H   0  0  0  0  0  0  0  0  0  0  0  0
   -4.9574    0.7091   -1.2497 C   0  0  0  0  0  0  0  0  0  0  0  0
   -5.0115    1.0543   -2.2948 H   0  0  0  0  0  0  0  0  0  0  0  0
  1 13  1  0  0  0  0
  2 14  1  0  0  0  0
  3 18  1  0  0  0  0
  3 17  1  0  0  0  0
  4  2  1  0  0  0  0
  5  1  1  0  0  0  0
  6  5  1  0  0  0  0
  7  5  1  0  0  0  0
  7  9  2  0  0  0  0
  8  7  1  0  0  0  0
  9 11  1  0  0  0  0
 10  9  1  0  0  0  0
 11 13  2  0  0  0  0
 11 12  1  0  0  0  0
 13 14  1  0  0  0  0
 14 16  1  0  0  0  0
 14 15  1  0  0  0  0
 17  2  1  0  0  0  0
 18  4  2  0  0  0  0
 19 18  1  0  0  0  0
 20  3  1  0  0  0  0
 20 23  1  0  0  0  0
 21 20  1  0  0  0  0
 22 20  1  0  0  0  0
 23 24  1  0  0  0  0
 24 25  1  0  0  0  0
 24 26  2  0  0  0  0
 26 27  1  0  0  0  0
 28 29  1  0  0  0  0
 28 26  1  0  0  0  0
 30 28  2  0  0  0  0
 31 30  1  0  0  0  0
 32 23  2  0  0  0  0
 32 30  1  0  0  0  0
 33 32  1  0  0  0  0
M  END
