1,3
 OpenBabel05122313053D

 33 33  0  0  0  0  0  0  0  0999 V2000
    0.1074    0.3287    2.0918 N   0  0  0  0  0  0  0  0  0  0  0  0
   -0.3983   -2.4517    1.0943 N   0  0  0  0  0  0  0  0  0  0  0  0
    0.3304    1.9595   -0.1641 C   0  0  0  0  0  3  0  0  0  0  0  0
    0.0444    3.0035   -1.0731 C   0  0  0  0  0  0  0  0  0  0  0  0
    0.3597    4.3491   -0.8183 C   0  0  0  0  0  0  0  0  0  0  0  0
    0.9955    4.7097    0.3790 C   0  0  0  0  0  0  0  0  0  0  0  0
    1.2804    3.7119    1.3215 C   0  0  0  0  0  0  0  0  0  0  0  0
    0.9460    2.3701    1.0562 C   0  0  0  0  0  0  0  0  0  0  0  0
    1.2187    1.3098    2.0936 C   0  0  0  0  0  0  0  0  0  0  0  0
   -1.1051    0.9711    2.6251 C   0  0  0  0  0  0  0  0  0  0  0  0
    0.4379   -0.8905    2.8492 C   0  0  0  0  0  0  0  0  0  0  0  0
   -0.5186   -2.0224    2.5057 C   0  0  0  0  0  0  0  0  0  0  0  0
    0.7640   -3.3403    0.9345 C   0  0  0  0  0  0  0  0  0  0  0  0
   -1.6169   -3.1748    0.6936 C   0  0  0  0  0  0  0  0  0  0  0  0
   -0.4391    2.7677   -2.0333 H   0  0  0  0  0  0  0  0  0  0  0  0
    0.1090    5.1220   -1.5628 H   0  0  0  0  0  0  0  0  0  0  0  0
    1.2522    5.7604    0.5855 H   0  0  0  0  0  0  0  0  0  0  0  0
    1.7547    3.9796    2.2809 H   0  0  0  0  0  0  0  0  0  0  0  0
    1.3551    1.7466    3.1120 H   0  0  0  0  0  0  0  0  0  0  0  0
    2.1399    0.7480    1.8441 H   0  0  0  0  0  0  0  0  0  0  0  0
   -1.9673    0.2873    2.5598 H   0  0  0  0  0  0  0  0  0  0  0  0
   -1.3334    1.8665    2.0205 H   0  0  0  0  0  0  0  0  0  0  0  0
   -0.9516    1.2752    3.6873 H   0  0  0  0  0  0  0  0  0  0  0  0
    1.4772   -1.1755    2.5920 H   0  0  0  0  0  0  0  0  0  0  0  0
    0.4151   -0.6984    3.9492 H   0  0  0  0  0  0  0  0  0  0  0  0
   -0.3506   -2.8868    3.1927 H   0  0  0  0  0  0  0  0  0  0  0  0
   -1.5625   -1.6904    2.6694 H   0  0  0  0  0  0  0  0  0  0  0  0
    0.8785   -3.6042   -0.1318 H   0  0  0  0  0  0  0  0  0  0  0  0
    0.6355   -4.2723    1.5345 H   0  0  0  0  0  0  0  0  0  0  0  0
    1.6861   -2.8247    1.2531 H   0  0  0  0  0  0  0  0  0  0  0  0
   -1.8023   -4.0507    1.3596 H   0  0  0  0  0  0  0  0  0  0  0  0
   -1.5093   -3.5293   -0.3466 H   0  0  0  0  0  0  0  0  0  0  0  0
   -2.4807   -2.4873    0.7362 H   0  0  0  0  0  0  0  0  0  0  0  0
  1  9  1  0  0  0  0
  1 10  1  0  0  0  0
  1 11  1  0  0  0  0
  2 12  1  0  0  0  0
  3  8  1  0  0  0  0
  4  5  1  0  0  0  0
  4  3  2  0  0  0  0
  5  6  2  0  0  0  0
  6 17  1  0  0  0  0
  6  7  1  0  0  0  0
  7 18  1  0  0  0  0
  8  7  2  0  0  0  0
  8  9  1  0  0  0  0
  9 19  1  0  0  0  0
 10 23  1  0  0  0  0
 11 25  1  0  0  0  0
 12 27  1  0  0  0  0
 12 11  1  0  0  0  0
 12 26  1  0  0  0  0
 13  2  1  0  0  0  0
 13 30  1  0  0  0  0
 13 29  1  0  0  0  0
 14 33  1  0  0  0  0
 14  2  1  0  0  0  0
 14 31  1  0  0  0  0
 15  4  1  0  0  0  0
 16  5  1  0  0  0  0
 20  9  1  0  0  0  0
 21 10  1  0  0  0  0
 22 10  1  0  0  0  0
 24 11  1  0  0  0  0
 28 13  1  0  0  0  0
 32 14  1  0  0  0  0
M  END
