1,10
 OpenBabel05122313053D

 25 26  0  0  0  0  0  0  0  0999 V2000
    0.4117    1.0478    0.2296 N   0  0  0  0  0  2  0  0  0  0  0  0
   -0.1819    2.2233    0.3641 C   0  0  0  0  0  3  0  0  0  0  0  0
    0.4235    3.1391    0.4892 H   0  0  0  0  0  0  0  0  0  0  0  0
   -1.6020    2.2063    0.3666 C   0  0  0  0  0  0  0  0  0  0  0  0
   -2.7158    3.5400    0.5859 S   0  0  0  0  0  0  0  0  0  0  0  0
   -4.0498    2.4470    0.4683 C   0  0  0  0  0  0  0  0  0  0  0  0
   -5.0709    2.8430    0.5504 H   0  0  0  0  0  0  0  0  0  0  0  0
   -3.6604    1.1247    0.2727 C   0  0  0  0  0  0  0  0  0  0  0  0
   -4.3903    0.3086    0.1781 H   0  0  0  0  0  0  0  0  0  0  0  0
   -2.2472    0.9605    0.2106 C   0  0  0  0  0  3  0  0  0  0  0  0
    1.8232    0.9640    0.1455 C   0  0  0  0  0  0  0  0  0  0  0  0
    2.5316    0.0662    0.9665 C   0  0  0  0  0  0  0  0  0  0  0  0
    1.9732   -0.5513    1.6840 H   0  0  0  0  0  0  0  0  0  0  0  0
    3.9291   -0.0277    0.8985 C   0  0  0  0  0  0  0  0  0  0  0  0
    4.4536   -0.7157    1.5754 H   0  0  0  0  0  0  0  0  0  0  0  0
    4.6477    0.7801   -0.0126 C   0  0  0  0  0  0  0  0  0  0  0  0
    3.9391    1.6771   -0.8438 C   0  0  0  0  0  0  0  0  0  0  0  0
    4.5118    2.2936   -1.5514 H   0  0  0  0  0  0  0  0  0  0  0  0
    2.5496    1.7673   -0.7642 C   0  0  0  0  0  0  0  0  0  0  0  0
    2.0057    2.4557   -1.4285 H   0  0  0  0  0  0  0  0  0  0  0  0
    5.9940    0.7650   -0.1622 O   0  0  0  0  0  0  0  0  0  0  0  0
    6.7634   -0.0944    0.6617 C   0  0  0  0  0  0  0  0  0  0  0  0
    6.6370    0.1458    1.7406 H   0  0  0  0  0  0  0  0  0  0  0  0
    7.8196    0.0647    0.3787 H   0  0  0  0  0  0  0  0  0  0  0  0
    6.5036   -1.1649    0.4988 H   0  0  0  0  0  0  0  0  0  0  0  0
  1  2  1  0  0  0  0
  2  4  1  0  0  0  0
  2  3  1  0  0  0  0
  4  5  1  0  0  0  0
  6  7  1  0  0  0  0
  6  5  1  0  0  0  0
  8  6  2  0  0  0  0
  9  8  1  0  0  0  0
 10  8  1  0  0  0  0
 10  4  2  0  0  0  0
 11  1  1  0  0  0  0
 11 12  1  0  0  0  0
 12 13  1  0  0  0  0
 14 12  2  0  0  0  0
 14 15  1  0  0  0  0
 16 14  1  0  0  0  0
 17 19  1  0  0  0  0
 17 16  2  0  0  0  0
 18 17  1  0  0  0  0
 19 11  2  0  0  0  0
 20 19  1  0  0  0  0
 21 16  1  0  0  0  0
 21 22  1  0  0  0  0
 22 23  1  0  0  0  0
 24 22  1  0  0  0  0
 25 22  1  0  0  0  0
M  END
