1,15
 OpenBabel05122313053D

 45 46  0  0  1  0  0  0  0  0999 V2000
    2.1484    0.0609   -1.7889 N   0  0  0  0  0  0  0  0  0  0  0  0
    1.7270    0.8511   -2.2988 H   0  0  0  0  0  0  0  0  0  0  0  0
    2.4911   -0.6222   -2.4876 H   0  0  0  0  0  0  0  0  0  0  0  0
    0.8417    0.5728    1.7779 C   0  0  0  0  0  0  0  0  0  0  0  0
    2.2302    0.6132    1.4691 C   0  0  0  0  0  0  0  0  0  0  0  0
    3.1308    0.0405    2.3934 C   0  0  0  0  0  0  0  0  0  0  0  0
    4.2105    0.0956    2.1881 H   0  0  0  0  0  0  0  0  0  0  0  0
    2.6951   -0.5714    3.5750 C   0  0  0  0  0  0  0  0  0  0  0  0
    3.4279   -1.0144    4.2662 H   0  0  0  0  0  0  0  0  0  0  0  0
    1.3259   -0.5921    3.8816 C   0  0  0  0  0  0  0  0  0  0  0  0
    0.9691   -1.0567    4.8134 H   0  0  0  0  0  0  0  0  0  0  0  0
    0.4168   -0.0084    2.9933 C   0  0  0  0  0  0  0  0  0  0  0  0
   -0.6596   -0.0131    3.2237 H   0  0  0  0  0  0  0  0  0  0  0  0
   -0.1883    1.1337    0.8607 C   0  0  1  0  0  3  0  0  0  0  0  0
   -0.3715    0.6355   -0.3967 C   0  0  0  0  0  2  0  0  0  0  0  0
    3.3021    0.5483   -0.9645 C   0  0  0  0  0  0  0  0  0  0  0  0
    2.7821    1.3532    0.2658 C   0  0  0  0  0  0  0  0  0  0  0  0
    3.6478    1.9511    0.6196 H   0  0  0  0  0  0  0  0  0  0  0  0
    2.0292    2.0830   -0.0954 H   0  0  0  0  0  0  0  0  0  0  0  0
    4.1458   -0.6656   -0.5651 C   0  0  0  0  0  0  0  0  0  0  0  0
    3.5548   -1.3941    0.0206 H   0  0  0  0  0  0  0  0  0  0  0  0
    5.0214   -0.3424    0.0306 H   0  0  0  0  0  0  0  0  0  0  0  0
    4.5185   -1.1924   -1.4663 H   0  0  0  0  0  0  0  0  0  0  0  0
    4.1328    1.5007   -1.8447 C   0  0  0  0  0  0  0  0  0  0  0  0
    4.4593    0.9926   -2.7750 H   0  0  0  0  0  0  0  0  0  0  0  0
    5.0400    1.8432   -1.3089 H   0  0  0  0  0  0  0  0  0  0  0  0
    3.5464    2.4009   -2.1255 H   0  0  0  0  0  0  0  0  0  0  0  0
   -1.0972    2.1697    1.4514 C   0  0  0  0  0  0  0  0  0  0  0  0
   -2.3141    2.0910    1.5260 O   0  0  0  0  0  0  0  0  0  0  0  0
   -0.3944    3.2164    1.9650 O   0  0  0  0  0  0  0  0  0  0  0  0
   -1.1805    4.2145    2.6258 C   0  0  0  0  0  0  0  0  0  0  0  0
   -1.9052    4.6760    1.9244 H   0  0  0  0  0  0  0  0  0  0  0  0
   -0.4673    4.9715    2.9980 H   0  0  0  0  0  0  0  0  0  0  0  0
   -1.7514    3.7734    3.4679 H   0  0  0  0  0  0  0  0  0  0  0  0
   -1.2330    1.2626   -1.4131 C   0  0  0  0  0  0  0  0  0  0  0  0
   -2.0081    0.4923   -2.3165 C   0  0  0  0  0  0  0  0  0  0  0  0
   -1.9617   -0.6050   -2.2540 H   0  0  0  0  0  0  0  0  0  0  0  0
   -2.8179    1.1075   -3.2793 C   0  0  0  0  0  0  0  0  0  0  0  0
   -3.4195    0.4861   -3.9604 H   0  0  0  0  0  0  0  0  0  0  0  0
   -2.8539    2.5079   -3.3882 C   0  0  0  0  0  0  0  0  0  0  0  0
   -3.4813    2.9892   -4.1537 H   0  0  0  0  0  0  0  0  0  0  0  0
   -2.0665    3.2872   -2.5254 C   0  0  0  0  0  0  0  0  0  0  0  0
   -2.0716    4.3846   -2.6144 H   0  0  0  0  0  0  0  0  0  0  0  0
   -1.2650    2.6745   -1.5539 C   0  0  0  0  0  0  0  0  0  0  0  0
   -0.6359    3.2910   -0.8933 H   0  0  0  0  0  0  0  0  0  0  0  0
  1 16  1  0  0  0  0
  2  1  1  0  0  0  0
  3  1  1  0  0  0  0
  4 12  1  0  0  0  0
  5  4  2  0  0  0  0
  5  6  1  0  0  0  0
  6  8  2  0  0  0  0
  7  6  1  0  0  0  0
  8 10  1  0  0  0  0
  8  9  1  0  0  0  0
 10 11  1  0  0  0  0
 12 13  1  0  0  0  0
 12 10  2  0  0  0  0
 14 15  1  1  0  0  0
 14 28  1  0  0  0  0
 14  4  1  0  0  0  0
 16 20  1  0  0  0  0
 16 17  1  0  0  0  0
 17 18  1  0  0  0  0
 17  5  1  0  0  0  0
 19 17  1  0  0  0  0
 20 21  1  0  0  0  0
 20 22  1  0  0  0  0
 23 20  1  0  0  0  0
 24 26  1  0  0  0  0
 24 16  1  0  0  0  0
 25 24  1  0  0  0  0
 27 24  1  0  0  0  0
 28 29  2  0  0  0  0
 28 30  1  0  0  0  0
 30 31  1  0  0  0  0
 31 33  1  0  0  0  0
 31 34  1  0  0  0  0
 32 31  1  0  0  0  0
 35 15  1  0  0  0  0
 36 37  1  0  0  0  0
 36 35  2  0  0  0  0
 38 36  1  0  0  0  0
 39 38  1  0  0  0  0
 40 38  2  0  0  0  0
 40 42  1  0  0  0  0
 41 40  1  0  0  0  0
 42 44  2  0  0  0  0
 43 42  1  0  0  0  0
 44 35  1  0  0  0  0
 44 45  1  0  0  0  0
M  END
