2,7
 OpenBabel05122313053D

 45 46  0  0  1  0  0  0  0  0999 V2000
    2.2299    1.9566   -1.4073 Si  0  0  0  0  0  0  0  0  0  0  0  0
    1.2718    1.3424   -0.0582 N   0  0  0  0  0  2  0  0  0  0  0  0
    0.4653    0.1131   -2.7971 C   0  0  2  0  0  3  0  0  0  0  0  0
   -0.9574    0.2621   -2.7932 C   0  0  0  0  0  0  0  0  0  0  0  0
   -1.5437   -1.0299   -2.5614 C   0  0  0  0  0  0  0  0  0  0  0  0
   -0.4806   -1.9762   -2.4089 C   0  0  2  0  0  3  0  0  0  0  0  0
    0.7650   -1.2669   -2.5481 C   0  0  1  0  0  3  0  0  0  0  0  0
    1.4635    1.2197   -3.0053 C   0  0  0  0  0  0  0  0  0  0  0  0
    0.9876    2.0532   -3.5628 H   0  0  0  0  0  0  0  0  0  0  0  0
    2.2988    0.8691   -3.6491 H   0  0  0  0  0  0  0  0  0  0  0  0
   -1.7178    1.5067   -3.1527 C   0  0  0  0  0  0  0  0  0  0  0  0
   -1.8525    1.5883   -4.2544 H   0  0  0  0  0  0  0  0  0  0  0  0
   -1.1996    2.4295   -2.8243 H   0  0  0  0  0  0  0  0  0  0  0  0
   -2.7300    1.5214   -2.7026 H   0  0  0  0  0  0  0  0  0  0  0  0
   -3.0146   -1.3287   -2.6514 C   0  0  0  0  0  0  0  0  0  0  0  0
   -3.6295   -0.7134   -1.9607 H   0  0  0  0  0  0  0  0  0  0  0  0
   -3.2333   -2.3905   -2.4280 H   0  0  0  0  0  0  0  0  0  0  0  0
   -3.3966   -1.1291   -3.6764 H   0  0  0  0  0  0  0  0  0  0  0  0
   -0.6321   -3.4643   -2.2602 C   0  0  0  0  0  0  0  0  0  0  0  0
   -0.7867   -3.9590   -3.2446 H   0  0  0  0  0  0  0  0  0  0  0  0
   -1.4945   -3.7404   -1.6205 H   0  0  0  0  0  0  0  0  0  0  0  0
    0.2697   -3.9266   -1.8115 H   0  0  0  0  0  0  0  0  0  0  0  0
    2.1362   -1.8811   -2.5890 C   0  0  0  0  0  0  0  0  0  0  0  0
    2.1875   -2.8310   -2.0210 H   0  0  0  0  0  0  0  0  0  0  0  0
    2.9092   -1.2068   -2.1707 H   0  0  0  0  0  0  0  0  0  0  0  0
    2.4435   -2.1117   -3.6334 H   0  0  0  0  0  0  0  0  0  0  0  0
    2.1436    3.8524   -1.4846 C   0  0  0  0  0  0  0  0  0  0  0  0
    1.0980    4.1881   -1.6471 H   0  0  0  0  0  0  0  0  0  0  0  0
    2.7605    4.2531   -2.3157 H   0  0  0  0  0  0  0  0  0  0  0  0
    2.5015    4.3114   -0.5406 H   0  0  0  0  0  0  0  0  0  0  0  0
    4.0758    1.4660   -1.4149 C   0  0  0  0  0  0  0  0  0  0  0  0
    4.6731    1.9607   -0.6234 H   0  0  0  0  0  0  0  0  0  0  0  0
    4.5187    1.7552   -2.3916 H   0  0  0  0  0  0  0  0  0  0  0  0
    4.2116    0.3703   -1.3046 H   0  0  0  0  0  0  0  0  0  0  0  0
    1.5052    1.6992    1.2676 C   0  0  0  0  0  0  0  0  0  0  0  0
    0.5046    1.4525    2.2601 C   0  0  0  0  0  0  0  0  0  0  0  0
   -0.4918    1.0875    1.9588 H   0  0  0  0  0  0  0  0  0  0  0  0
    0.7207    1.7021    3.6212 C   0  0  0  0  0  0  0  0  0  0  0  0
   -0.0859    1.4810    4.3383 H   0  0  0  0  0  0  0  0  0  0  0  0
    1.9365    2.2447    4.0672 C   0  0  0  0  0  0  0  0  0  0  0  0
    2.1050    2.4493    5.1345 H   0  0  0  0  0  0  0  0  0  0  0  0
    2.9266    2.5343    3.1129 C   0  0  0  0  0  0  0  0  0  0  0  0
    3.8855    2.9723    3.4335 H   0  0  0  0  0  0  0  0  0  0  0  0
    2.7224    2.2696    1.7529 C   0  0  0  0  0  0  0  0  0  0  0  0
    3.5289    2.4949    1.0412 H   0  0  0  0  0  0  0  0  0  0  0  0
  1  2  1  0  0  0  0
  2 35  1  0  0  0  0
  3  8  1  1  0  0  0
  3  4  1  0  0  0  0
  3  7  1  0  0  0  0
  4  5  2  0  0  0  0
  5  6  1  0  0  0  0
  6 19  1  6  0  0  0
  7 23  1  6  0  0  0
  7  6  1  0  0  0  0
  8  1  1  0  0  0  0
  9  8  1  0  0  0  0
 10  8  1  0  0  0  0
 11 13  1  0  0  0  0
 11  4  1  0  0  0  0
 11 14  1  0  0  0  0
 12 11  1  0  0  0  0
 15  5  1  0  0  0  0
 15 17  1  0  0  0  0
 15 16  1  0  0  0  0
 18 15  1  0  0  0  0
 19 22  1  0  0  0  0
 19 21  1  0  0  0  0
 20 19  1  0  0  0  0
 23 25  1  0  0  0  0
 23 24  1  0  0  0  0
 26 23  1  0  0  0  0
 27  1  1  0  0  0  0
 27 30  1  0  0  0  0
 28 27  1  0  0  0  0
 29 27  1  0  0  0  0
 31  1  1  0  0  0  0
 31 34  1  0  0  0  0
 31 32  1  0  0  0  0
 33 31  1  0  0  0  0
 35 44  2  0  0  0  0
 35 36  1  0  0  0  0
 36 38  2  0  0  0  0
 37 36  1  0  0  0  0
 38 40  1  0  0  0  0
 38 39  1  0  0  0  0
 40 41  1  0  0  0  0
 42 43  1  0  0  0  0
 42 40  2  0  0  0  0
 44 42  1  0  0  0  0
 45 44  1  0  0  0  0
M  END
