4,46
 OpenBabel05122313053D

 46 48  0  0  1  0  0  0  0  0999 V2000
   -3.4438   -2.1312   -0.1211 O   0  0  0  0  0  0  0  0  0  0  0  0
    3.0853    0.9771    0.1485 N   0  0  0  0  0  0  0  0  0  0  0  0
    0.7014    0.5272   -0.0041 N   0  0  0  0  0  0  0  0  0  0  0  0
   -0.8827   -1.2137   -0.3344 N   0  0  0  0  0  2  0  0  0  0  0  0
    4.3917    0.4534    0.1596 C   0  0  0  0  0  0  0  0  0  0  0  0
    4.9598   -0.0486    1.3522 C   0  0  0  0  0  0  0  0  0  0  0  0
    4.3552   -0.0466    2.2712 H   0  0  0  0  0  0  0  0  0  0  0  0
    6.2776   -0.5276    1.3598 C   0  0  0  0  0  0  0  0  0  0  0  0
    6.7053   -0.9170    2.2965 H   0  0  0  0  0  0  0  0  0  0  0  0
    7.0502   -0.5097    0.1875 C   0  0  0  0  0  0  0  0  0  0  0  0
    8.0841   -0.8850    0.1977 H   0  0  0  0  0  0  0  0  0  0  0  0
    6.4936    0.0038   -0.9955 C   0  0  0  0  0  0  0  0  0  0  0  0
    7.0917    0.0315   -1.9193 H   0  0  0  0  0  0  0  0  0  0  0  0
    5.1790    0.4898   -1.0131 C   0  0  0  0  0  0  0  0  0  0  0  0
    4.7411    0.9040   -1.9332 H   0  0  0  0  0  0  0  0  0  0  0  0
    2.0775    0.2113    0.0322 C   0  0  0  0  0  0  0  0  0  0  0  0
    1.7722   -1.3010   -0.1790 C   0  0  0  0  0  0  0  0  0  0  0  0
    2.2873   -1.8500   -1.5139 C   0  0  0  0  0  0  0  0  0  0  0  0
    1.8790   -2.8629   -1.7066 H   0  0  0  0  0  0  0  0  0  0  0  0
    3.3926   -1.9240   -1.4873 H   0  0  0  0  0  0  0  0  0  0  0  0
    2.0048   -1.1930   -2.3599 H   0  0  0  0  0  0  0  0  0  0  0  0
    2.1221   -2.2035    1.0091 C   0  0  0  0  0  0  0  0  0  0  0  0
    1.6892   -3.2161    0.8746 H   0  0  0  0  0  0  0  0  0  0  0  0
    1.7431   -1.7859    1.9626 H   0  0  0  0  0  0  0  0  0  0  0  0
    3.2215   -2.3118    1.0884 H   0  0  0  0  0  0  0  0  0  0  0  0
    0.3230   -0.7833   -0.2005 C   0  0  1  0  0  3  0  0  0  0  0  0
   -1.1743   -2.6164   -0.6198 C   0  0  0  0  0  0  0  0  0  0  0  0
   -0.3172   -3.2769   -0.3706 H   0  0  0  0  0  0  0  0  0  0  0  0
   -1.3845   -2.7222   -1.7064 H   0  0  0  0  0  0  0  0  0  0  0  0
   -2.4003   -3.0547    0.1667 C   0  0  0  0  0  0  0  0  0  0  0  0
   -2.7026   -4.0842   -0.1345 H   0  0  0  0  0  0  0  0  0  0  0  0
   -2.1842   -3.0591    1.2619 H   0  0  0  0  0  0  0  0  0  0  0  0
   -4.6756   -2.4144    0.5463 C   0  0  0  0  0  0  0  0  0  0  0  0
   -5.1187   -3.3501    0.1403 H   0  0  0  0  0  0  0  0  0  0  0  0
   -5.3320   -1.5436    0.3631 H   0  0  0  0  0  0  0  0  0  0  0  0
   -4.5144   -2.5215    1.6419 H   0  0  0  0  0  0  0  0  0  0  0  0
   -0.0665    1.7126    0.0103 C   0  0  0  0  0  0  0  0  0  0  0  0
    0.6432    2.9340    0.0740 C   0  0  0  0  0  0  0  0  0  0  0  0
    1.7396    2.9025    0.1432 H   0  0  0  0  0  0  0  0  0  0  0  0
   -0.0545    4.1427    0.0379 C   0  0  0  0  0  0  0  0  0  0  0  0
    0.4973    5.0934    0.0860 H   0  0  0  0  0  0  0  0  0  0  0  0
   -1.4537    4.1274   -0.0668 C   0  0  0  0  0  0  0  0  0  0  0  0
   -2.0181    5.0720   -0.1065 H   0  0  0  0  0  0  0  0  0  0  0  0
   -2.1521    2.9120   -0.1155 C   0  0  0  0  0  3  0  0  0  0  0  0
   -3.2477    2.9188   -0.1782 H   0  0  0  0  0  0  0  0  0  0  0  0
   -1.4891    1.6637   -0.0674 C   0  0  0  0  0  2  0  0  0  0  0  0
  1 30  1  0  0  0  0
  1 33  1  0  0  0  0
  2  5  1  0  0  0  0
  3 37  1  0  0  0  0
  3 16  1  0  0  0  0
  5  6  1  0  0  0  0
  6  8  2  0  0  0  0
  6  7  1  0  0  0  0
  8  9  1  0  0  0  0
 10 11  1  0  0  0  0
 10  8  1  0  0  0  0
 12 10  2  0  0  0  0
 13 12  1  0  0  0  0
 14 12  1  0  0  0  0
 14  5  2  0  0  0  0
 15 14  1  0  0  0  0
 16  2  2  0  0  0  0
 17 16  1  0  0  0  0
 17 22  1  0  0  0  0
 18 20  1  0  0  0  0
 18 17  1  0  0  0  0
 19 18  1  0  0  0  0
 21 18  1  0  0  0  0
 22 25  1  0  0  0  0
 22 24  1  0  0  0  0
 23 22  1  0  0  0  0
 26  4  1  6  0  0  0
 26 17  1  0  0  0  0
 26  3  1  0  0  0  0
 27 28  1  0  0  0  0
 27  4  1  0  0  0  0
 27 30  1  0  0  0  0
 29 27  1  0  0  0  0
 30 32  1  0  0  0  0
 31 30  1  0  0  0  0
 33 36  1  0  0  0  0
 34 33  1  0  0  0  0
 35 33  1  0  0  0  0
 37 38  2  0  0  0  0
 38 39  1  0  0  0  0
 40 38  1  0  0  0  0
 40 41  1  0  0  0  0
 42 40  2  0  0  0  0
 43 42  1  0  0  0  0
 44 46  1  0  0  0  0
 44 42  1  0  0  0  0
 45 44  1  0  0  0  0
 46 37  1  0  0  0  0
M  END
