2,3
 OpenBabel05122313053D

 39 40  0  0  0  0  0  0  0  0999 V2000
   -0.4346    0.6642   -1.5693 P   0  0  0  0  0  2  0  0  0  0  0  0
    0.4553    0.1931   -0.0825 N   0  0  0  0  0  2  0  0  0  0  0  0
   -2.0245    0.4025   -1.0235 C   0  0  0  0  0  2  0  0  0  0  0  0
    1.8172    0.1618   -0.1115 N   0  0  0  0  0  0  0  0  0  0  0  0
   -3.2687    0.7279   -1.8356 C   0  0  0  0  0  0  0  0  0  0  0  0
   -3.0765    0.3604   -3.3245 C   0  0  0  0  0  0  0  0  0  0  0  0
   -2.2322    0.9271   -3.7686 H   0  0  0  0  0  0  0  0  0  0  0  0
   -3.9893    0.5939   -3.9121 H   0  0  0  0  0  0  0  0  0  0  0  0
   -2.8559   -0.7202   -3.4397 H   0  0  0  0  0  0  0  0  0  0  0  0
   -4.4922   -0.0390   -1.2893 C   0  0  0  0  0  0  0  0  0  0  0  0
   -4.3712   -1.1336   -1.4080 H   0  0  0  0  0  0  0  0  0  0  0  0
   -5.4115    0.2582   -1.8354 H   0  0  0  0  0  0  0  0  0  0  0  0
   -4.6457    0.1676   -0.2121 H   0  0  0  0  0  0  0  0  0  0  0  0
   -3.5505    2.2485   -1.7386 C   0  0  0  0  0  0  0  0  0  0  0  0
   -3.6987    2.5694   -0.6893 H   0  0  0  0  0  0  0  0  0  0  0  0
   -4.4672    2.5113   -2.3080 H   0  0  0  0  0  0  0  0  0  0  0  0
   -2.7010    2.8274   -2.1525 H   0  0  0  0  0  0  0  0  0  0  0  0
    2.4306   -1.1069   -0.3705 C   0  0  0  0  0  0  0  0  0  0  0  0
    3.0427   -1.8187    0.6774 C   0  0  0  0  0  0  0  0  0  0  0  0
    3.0778   -1.3639    1.6786 H   0  0  0  0  0  0  0  0  0  0  0  0
    3.5931   -3.0864    0.4352 C   0  0  0  0  0  0  0  0  0  0  0  0
    4.0672   -3.6432    1.2578 H   0  0  0  0  0  0  0  0  0  0  0  0
    3.5316   -3.6483   -0.8505 C   0  0  0  0  0  0  0  0  0  0  0  0
    3.9577   -4.6454   -1.0371 H   0  0  0  0  0  0  0  0  0  0  0  0
    2.9284   -2.9330   -1.8991 C   0  0  0  0  0  0  0  0  0  0  0  0
    2.8869   -3.3666   -2.9099 H   0  0  0  0  0  0  0  0  0  0  0  0
    2.3843   -1.6623   -1.6636 C   0  0  0  0  0  0  0  0  0  0  0  0
    1.9081   -1.0890   -2.4735 H   0  0  0  0  0  0  0  0  0  0  0  0
    2.5733    1.3409   -0.0520 C   0  0  0  0  0  0  0  0  0  0  0  0
    3.9890    1.2997   -0.1378 C   0  0  0  0  0  0  0  0  0  0  0  0
    4.5015    0.3363   -0.2631 H   0  0  0  0  0  0  0  0  0  0  0  0
    4.7339    2.4824   -0.0680 C   0  0  0  0  0  0  0  0  0  0  0  0
    5.8315    2.4236   -0.1341 H   0  0  0  0  0  0  0  0  0  0  0  0
    4.1049    3.7304    0.0769 C   0  0  0  0  0  0  0  0  0  0  0  0
    4.6985    4.6546    0.1300 H   0  0  0  0  0  0  0  0  0  0  0  0
    2.7033    3.7739    0.1417 C   0  0  0  0  0  0  0  0  0  0  0  0
    2.1856    4.7406    0.2419 H   0  0  0  0  0  0  0  0  0  0  0  0
    1.9397    2.6019    0.0762 C   0  0  0  0  0  0  0  0  0  0  0  0
    0.8453    2.6487    0.1114 H   0  0  0  0  0  0  0  0  0  0  0  0
  1  3  1  0  0  0  0
  1  2  1  0  0  0  0
  4  2  1  0  0  0  0
  4 29  1  0  0  0  0
  5 14  1  0  0  0  0
  5 10  1  0  0  0  0
  5  3  1  0  0  0  0
  6  5  1  0  0  0  0
  7  6  1  0  0  0  0
  8  6  1  0  0  0  0
  9  6  1  0  0  0  0
 10 13  1  0  0  0  0
 11 10  1  0  0  0  0
 12 10  1  0  0  0  0
 14 15  1  0  0  0  0
 16 14  1  0  0  0  0
 17 14  1  0  0  0  0
 18  4  1  0  0  0  0
 18 19  1  0  0  0  0
 19 20  1  0  0  0  0
 21 19  2  0  0  0  0
 21 22  1  0  0  0  0
 23 21  1  0  0  0  0
 24 23  1  0  0  0  0
 25 27  1  0  0  0  0
 25 23  2  0  0  0  0
 26 25  1  0  0  0  0
 27 18  2  0  0  0  0
 28 27  1  0  0  0  0
 29 38  1  0  0  0  0
 30 32  1  0  0  0  0
 30 29  2  0  0  0  0
 31 30  1  0  0  0  0
 32 34  2  0  0  0  0
 33 32  1  0  0  0  0
 34 35  1  0  0  0  0
 34 36  1  0  0  0  0
 36 37  1  0  0  0  0
 38 39  1  0  0  0  0
 38 36  2  0  0  0  0
M  END
