4,6
 OpenBabel05122313053D

 52 54  0  0  0  0  0  0  0  0999 V2000
    1.7022    5.6707    0.0003 O   0  0  0  0  0  0  0  0  0  0  0  0
    2.3034    2.9757    0.0002 C   0  0  0  0  0  0  0  0  0  0  0  0
    3.1159    3.7141    0.0002 H   0  0  0  0  0  0  0  0  0  0  0  0
    0.4478   -1.4614    0.0001 N   0  0  0  0  0  2  0  0  0  0  0  0
    0.6014    4.8660    0.0003 C   0  0  0  0  0  0  0  0  0  0  0  0
    0.1503    1.1054    0.0002 C   0  0  0  0  0  2  0  0  0  0  0  0
    3.8238    0.0288   -3.2818 C   0  0  0  0  0  0  0  0  0  0  0  0
    3.2958    0.7653   -2.6444 H   0  0  0  0  0  0  0  0  0  0  0  0
    3.2471   -0.0856   -4.2220 H   0  0  0  0  0  0  0  0  0  0  0  0
    4.8160    0.4523   -3.5426 H   0  0  0  0  0  0  0  0  0  0  0  0
    4.7012   -1.1737   -1.2446 C   0  0  0  0  0  0  0  0  0  0  0  0
    2.6480   -1.6665    0.0000 N   0  0  0  0  0  0  0  0  0  0  0  0
    3.9674   -1.3288   -2.5704 C   0  0  0  0  0  0  0  0  0  0  0  0
    2.9445   -1.6946   -2.3486 H   0  0  0  0  0  0  0  0  0  0  0  0
   -0.0986    2.4868    0.0002 C   0  0  0  0  0  0  0  0  0  0  0  0
   -1.1312    2.8644    0.0003 H   0  0  0  0  0  0  0  0  0  0  0  0
    2.1094   -2.9494   -0.0002 C   0  0  0  0  0  0  0  0  0  0  0  0
    2.7549   -3.8319   -0.0003 H   0  0  0  0  0  0  0  0  0  0  0  0
   -0.5361    5.3082    0.0002 O   0  0  0  0  0  0  0  0  0  0  0  0
    4.0473   -1.3414   -0.0002 C   0  0  0  0  0  0  0  0  0  0  0  0
    0.9604    3.4178    0.0002 C   0  0  0  0  0  0  0  0  0  0  0  0
    2.5860    1.6061    0.0002 C   0  0  0  0  0  0  0  0  0  0  0  0
    3.6305    1.2628    0.0002 H   0  0  0  0  0  0  0  0  0  0  0  0
    4.6405   -2.3752   -3.4737 C   0  0  0  0  0  0  0  0  0  0  0  0
    5.6621   -2.0624   -3.7733 H   0  0  0  0  0  0  0  0  0  0  0  0
    4.0525   -2.5184   -4.4027 H   0  0  0  0  0  0  0  0  0  0  0  0
    4.7241   -3.3567   -2.9652 H   0  0  0  0  0  0  0  0  0  0  0  0
    6.7379   -0.6445   -0.0005 C   0  0  0  0  0  0  0  0  0  0  0  0
    7.8023   -0.3645   -0.0007 H   0  0  0  0  0  0  0  0  0  0  0  0
    4.7018   -1.1748    1.2441 C   0  0  0  0  0  0  0  0  0  0  0  0
    6.0641   -0.8215    1.2145 C   0  0  0  0  0  0  0  0  0  0  0  0
    6.6040   -0.6780    2.1627 H   0  0  0  0  0  0  0  0  0  0  0  0
    1.5226    0.6765    0.0002 C   0  0  0  0  0  0  0  0  0  0  0  0
    1.4251    7.0718    0.0003 C   0  0  0  0  0  0  0  0  0  0  0  0
    0.8389    7.3616   -0.8957 H   0  0  0  0  0  0  0  0  0  0  0  0
    2.4059    7.5807   -0.0004 H   0  0  0  0  0  0  0  0  0  0  0  0
    0.8401    7.3619    0.8971 H   0  0  0  0  0  0  0  0  0  0  0  0
    1.6125   -0.7697    0.0001 C   0  0  0  0  0  0  0  0  0  0  0  0
    3.9685   -1.3308    2.5701 C   0  0  0  0  0  0  0  0  0  0  0  0
    2.9460   -1.6979    2.3485 H   0  0  0  0  0  0  0  0  0  0  0  0
    6.0635   -0.8205   -1.2155 C   0  0  0  0  0  0  0  0  0  0  0  0
    6.6030   -0.6762   -2.1638 H   0  0  0  0  0  0  0  0  0  0  0  0
    0.7330   -2.8053   -0.0000 C   0  0  0  0  0  0  0  0  0  0  0  0
   -0.0622   -3.5573   -0.0001 H   0  0  0  0  0  0  0  0  0  0  0  0
    4.6431   -2.3761    3.4734 C   0  0  0  0  0  0  0  0  0  0  0  0
    5.6642   -2.0618    3.7732 H   0  0  0  0  0  0  0  0  0  0  0  0
    4.7282   -3.3576    2.9650 H   0  0  0  0  0  0  0  0  0  0  0  0
    4.0553   -2.5201    4.4024 H   0  0  0  0  0  0  0  0  0  0  0  0
    3.8233    0.0267    3.2812 C   0  0  0  0  0  0  0  0  0  0  0  0
    3.2472   -0.0882    4.2217 H   0  0  0  0  0  0  0  0  0  0  0  0
    3.2942    0.7624    2.6439 H   0  0  0  0  0  0  0  0  0  0  0  0
    4.8151    0.4516    3.5416 H   0  0  0  0  0  0  0  0  0  0  0  0
  2  3  1  0  0  0  0
  2 21  1  0  0  0  0
  4 38  1  0  0  0  0
  5  1  1  0  0  0  0
  6 15  1  0  0  0  0
  7  8  1  0  0  0  0
  7 13  1  0  0  0  0
  9  7  1  0  0  0  0
 10  7  1  0  0  0  0
 11 41  2  0  0  0  0
 11 20  1  0  0  0  0
 12 38  1  0  0  0  0
 13 14  1  0  0  0  0
 13 11  1  0  0  0  0
 15 21  2  0  0  0  0
 15 16  1  0  0  0  0
 17 43  2  0  0  0  0
 17 12  1  0  0  0  0
 18 17  1  0  0  0  0
 19  5  2  0  0  0  0
 20 12  1  0  0  0  0
 20 30  2  0  0  0  0
 21  5  1  0  0  0  0
 22  2  2  0  0  0  0
 23 22  1  0  0  0  0
 24 27  1  0  0  0  0
 24 13  1  0  0  0  0
 25 24  1  0  0  0  0
 26 24  1  0  0  0  0
 28 31  2  0  0  0  0
 29 28  1  0  0  0  0
 30 39  1  0  0  0  0
 31 30  1  0  0  0  0
 31 32  1  0  0  0  0
 33 22  1  0  0  0  0
 33  6  1  0  0  0  0
 34  1  1  0  0  0  0
 34 37  1  0  0  0  0
 35 34  1  0  0  0  0
 36 34  1  0  0  0  0
 38 33  2  0  0  0  0
 39 49  1  0  0  0  0
 39 45  1  0  0  0  0
 40 39  1  0  0  0  0
 41 28  1  0  0  0  0
 42 41  1  0  0  0  0
 43  4  1  0  0  0  0
 44 43  1  0  0  0  0
 45 46  1  0  0  0  0
 45 48  1  0  0  0  0
 47 45  1  0  0  0  0
 49 52  1  0  0  0  0
 49 50  1  0  0  0  0
 51 49  1  0  0  0  0
M  END
