1,19
 OpenBabel05122313053D

 34 37  0  0  1  0  0  0  0  0999 V2000
   -0.1252   -1.7658    0.1717 N   0  0  0  0  0  2  0  0  0  0  0  0
   -1.3473   -1.8391    0.7666 C   0  0  0  0  0  0  0  0  0  0  0  0
   -1.8337   -0.6310    1.4619 C   0  0  1  0  0  0  0  0  0  0  0  0
   -3.2895   -0.5787    1.8864 C   0  0  1  0  0  0  0  0  0  0  0  0
   -4.1966   -1.7104    1.4389 C   0  0  0  0  0  0  0  0  0  0  0  0
   -2.2194   -0.6524    2.9567 C   0  0  0  0  0  0  0  0  0  0  0  0
   -1.9620   -1.8717    3.8258 C   0  0  0  0  0  0  0  0  0  0  0  0
   -1.9354    0.6568    3.6786 C   0  0  0  0  0  0  0  0  0  0  0  0
   -1.3269    0.2912    1.1532 H   0  0  0  0  0  0  0  0  0  0  0  0
   -3.7615    0.4148    1.7897 H   0  0  0  0  0  0  0  0  0  0  0  0
   -5.0757   -1.7932    2.1120 H   0  0  0  0  0  0  0  0  0  0  0  0
   -4.5974   -1.4243    0.4414 H   0  0  0  0  0  0  0  0  0  0  0  0
   -1.0586   -1.6989    4.4456 H   0  0  0  0  0  0  0  0  0  0  0  0
   -1.7754   -2.7934    3.2467 H   0  0  0  0  0  0  0  0  0  0  0  0
   -2.8095   -2.0582    4.5186 H   0  0  0  0  0  0  0  0  0  0  0  0
   -0.8733    0.7071    3.9958 H   0  0  0  0  0  0  0  0  0  0  0  0
   -2.5692    0.7509    4.5859 H   0  0  0  0  0  0  0  0  0  0  0  0
   -2.1343    1.5345    3.0311 H   0  0  0  0  0  0  0  0  0  0  0  0
    2.4807   -1.4656   -0.4026 C   0  0  0  0  0  2  0  0  0  0  0  0
    1.8627   -2.7097   -0.6341 C   0  0  0  0  0  0  0  0  0  0  0  0
    2.9530   -3.9128   -1.2845 S   0  0  0  0  0  0  0  0  0  0  0  0
    4.2493   -2.7624   -1.2718 C   0  0  0  0  0  0  0  0  0  0  0  0
    3.8595   -1.5231   -0.7929 C   0  0  0  0  0  0  0  0  0  0  0  0
    4.5535   -0.6741   -0.7507 H   0  0  0  0  0  0  0  0  0  0  0  0
    5.2407   -3.0683   -1.6300 H   0  0  0  0  0  0  0  0  0  0  0  0
    0.4761   -2.9050   -0.3018 C   0  0  0  0  0  0  0  0  0  0  0  0
   -2.1241   -3.0244    0.7163 C   0  0  0  0  0  0  0  0  0  0  0  0
   -1.5531   -4.1541    0.0971 C   0  0  0  0  0  0  0  0  0  0  0  0
   -0.2436   -4.1167   -0.3778 C   0  0  0  0  0  0  0  0  0  0  0  0
    0.2379   -5.0091   -0.8022 H   0  0  0  0  0  0  0  0  0  0  0  0
   -2.1409   -5.0829    0.0204 H   0  0  0  0  0  0  0  0  0  0  0  0
   -3.5097   -3.0799    1.3212 C   0  0  0  0  0  0  0  0  0  0  0  0
   -4.1406   -3.7638    0.7155 H   0  0  0  0  0  0  0  0  0  0  0  0
   -3.4556   -3.5525    2.3256 H   0  0  0  0  0  0  0  0  0  0  0  0
  1  2  1  0  0  0  0
  2  3  1  0  0  0  0
  3  9  1  6  0  0  0
  3  4  1  0  0  0  0
  3  6  1  0  0  0  0
  4 10  1  6  0  0  0
  4  6  1  0  0  0  0
  5  4  1  0  0  0  0
  5 11  1  0  0  0  0
  6  8  1  0  0  0  0
  6  7  1  0  0  0  0
  7 13  1  0  0  0  0
  7 15  1  0  0  0  0
  8 16  1  0  0  0  0
  8 17  1  0  0  0  0
 12  5  1  0  0  0  0
 14  7  1  0  0  0  0
 18  8  1  0  0  0  0
 20 19  1  0  0  0  0
 20 26  2  0  0  0  0
 21 22  1  0  0  0  0
 21 20  1  0  0  0  0
 22 23  2  0  0  0  0
 23 24  1  0  0  0  0
 23 19  1  0  0  0  0
 25 22  1  0  0  0  0
 26  1  1  0  0  0  0
 27  2  2  0  0  0  0
 27 32  1  0  0  0  0
 28 27  1  0  0  0  0
 29 26  1  0  0  0  0
 29 28  2  0  0  0  0
 30 29  1  0  0  0  0
 31 28  1  0  0  0  0
 32  5  1  0  0  0  0
 32 34  1  0  0  0  0
 33 32  1  0  0  0  0
M  END
