2,4
 OpenBabel05122313053D

 35 38  0  0  0  0  0  0  0  0999 V2000
   -2.3839    0.0243    0.4228 N   0  0  0  0  0  0  0  0  0  0  0  0
   -1.2492    0.6303    0.4295 N   0  0  0  0  0  2  0  0  0  0  0  0
   -2.2640   -1.3342    0.2853 C   0  0  0  0  0  0  0  0  0  0  0  0
   -0.9559   -1.8734    0.1566 C   0  0  0  0  0  3  0  0  0  0  0  0
   -0.7835   -3.2661    0.0165 C   0  0  0  0  0  0  0  0  0  0  0  0
    0.2320   -3.6780   -0.0849 H   0  0  0  0  0  0  0  0  0  0  0  0
   -1.8995   -4.1018    0.0123 C   0  0  0  0  0  0  0  0  0  0  0  0
   -1.7657   -5.1909   -0.0907 H   0  0  0  0  0  0  0  0  0  0  0  0
   -4.3659   -4.4544    0.1289 C   0  0  0  0  0  3  0  0  0  0  0  0
   -4.2075   -5.5388    0.0215 H   0  0  0  0  0  0  0  0  0  0  0  0
   -5.6481   -3.9374    0.2511 C   0  0  0  0  0  0  0  0  0  0  0  0
   -6.5183   -4.6107    0.2417 H   0  0  0  0  0  0  0  0  0  0  0  0
   -5.8406   -2.5380    0.3899 C   0  0  0  0  0  0  0  0  0  0  0  0
   -6.8607   -2.1367    0.4889 H   0  0  0  0  0  0  0  0  0  0  0  0
   -4.7544   -1.6703    0.4048 C   0  0  0  0  0  0  0  0  0  0  0  0
   -4.8937   -0.5857    0.5169 H   0  0  0  0  0  0  0  0  0  0  0  0
   -3.4332   -2.1755    0.2798 C   0  0  0  0  0  0  0  0  0  0  0  0
   -3.2292   -3.5951    0.1390 C   0  0  0  0  0  0  0  0  0  0  0  0
   -1.2393    2.0438    0.5231 C   0  0  0  0  0  0  0  0  0  0  0  0
   -0.2609    2.6145    1.3404 C   0  0  0  0  0  0  0  0  0  0  0  0
    0.4358    1.9541    1.8708 H   0  0  0  0  0  0  0  0  0  0  0  0
   -0.1731    4.0140    1.5001 C   0  0  0  0  0  0  0  0  0  0  0  0
    0.6036    4.4323    2.1566 H   0  0  0  0  0  0  0  0  0  0  0  0
   -1.0539    4.8454    0.8255 C   0  0  0  0  0  0  0  0  0  0  0  0
   -0.9903    5.9385    0.9390 H   0  0  0  0  0  0  0  0  0  0  0  0
   -2.9378    5.1664   -0.7536 C   0  0  0  0  0  0  0  0  0  0  0  0
   -2.8426    6.2534   -0.6071 H   0  0  0  0  0  0  0  0  0  0  0  0
   -3.8883    4.6524   -1.6205 C   0  0  0  0  0  0  0  0  0  0  0  0
   -4.5634    5.3275   -2.1675 H   0  0  0  0  0  0  0  0  0  0  0  0
   -3.9813    3.2499   -1.8099 C   0  0  0  0  0  0  0  0  0  0  0  0
   -4.7247    2.8415   -2.5111 H   0  0  0  0  0  0  0  0  0  0  0  0
   -3.1461    2.3822   -1.1188 C   0  0  0  0  0  0  0  0  0  0  0  0
   -3.2464    1.3004   -1.2662 H   0  0  0  0  0  0  0  0  0  0  0  0
   -2.1654    2.8760   -0.2107 C   0  0  0  0  0  0  0  0  0  0  0  0
   -2.0518    4.3075   -0.0384 C   0  0  0  0  0  0  0  0  0  0  0  0
  1  2  1  0  0  0  0
  2 19  1  0  0  0  0
  3  1  2  0  0  0  0
  4  3  1  0  0  0  0
  5  4  2  0  0  0  0
  6  5  1  0  0  0  0
  7  5  1  0  0  0  0
  7 18  2  0  0  0  0
  8  7  1  0  0  0  0
  9 18  1  0  0  0  0
  9 11  1  0  0  0  0
 10  9  1  0  0  0  0
 11 13  2  0  0  0  0
 12 11  1  0  0  0  0
 13 15  1  0  0  0  0
 13 14  1  0  0  0  0
 15 16  1  0  0  0  0
 17  3  1  0  0  0  0
 17 15  2  0  0  0  0
 18 17  1  0  0  0  0
 19 20  1  0  0  0  0
 20 22  2  0  0  0  0
 20 21  1  0  0  0  0
 22 23  1  0  0  0  0
 24 25  1  0  0  0  0
 24 22  1  0  0  0  0
 26 27  1  0  0  0  0
 26 35  1  0  0  0  0
 28 26  2  0  0  0  0
 29 28  1  0  0  0  0
 30 28  1  0  0  0  0
 30 32  2  0  0  0  0
 31 30  1  0  0  0  0
 32 34  1  0  0  0  0
 33 32  1  0  0  0  0
 34 35  1  0  0  0  0
 34 19  2  0  0  0  0
 35 24  2  0  0  0  0
M  END
