3,4
 OpenBabel05122313053D

 59 61  0  0  1  0  0  0  0  0999 V2000
    0.1059    1.9134   -0.0001 N   0  0  0  0  0  0  0  0  0  0  0  0
    2.1999    1.2988   -0.0001 N   0  0  0  0  0  0  0  0  0  0  0  0
   -1.6346    0.4682    0.0000 N   0  0  0  0  0  2  0  0  0  0  0  0
    0.9427    0.7921   -0.0000 C   0  0  0  0  0  2  0  0  0  0  0  0
    0.8744    3.0849   -0.0003 C   0  0  0  0  0  0  0  0  0  0  0  0
    0.4589    4.0909   -0.0004 H   0  0  0  0  0  0  0  0  0  0  0  0
    2.1804    2.6946   -0.0003 C   0  0  0  0  0  0  0  0  0  0  0  0
    3.1043    3.2804   -0.0004 H   0  0  0  0  0  0  0  0  0  0  0  0
   -1.3130    1.7232   -0.0001 C   0  0  1  0  0  3  0  0  0  0  0  0
   -2.2161    2.9678   -0.0001 C   0  0  0  0  0  0  0  0  0  0  0  0
   -2.9213   -0.1325    0.0001 C   0  0  0  0  0  0  0  0  0  0  0  0
   -3.4944   -0.5070   -1.2399 C   0  0  0  0  0  0  0  0  0  0  0  0
   -4.7166   -1.2038   -1.2140 C   0  0  0  0  0  0  0  0  0  0  0  0
   -5.1879   -1.4832   -2.1690 H   0  0  0  0  0  0  0  0  0  0  0  0
   -5.3336   -1.5404    0.0002 C   0  0  0  0  0  0  0  0  0  0  0  0
   -6.2969   -2.0720    0.0003 H   0  0  0  0  0  0  0  0  0  0  0  0
   -4.7164   -1.2038    1.2144 C   0  0  0  0  0  0  0  0  0  0  0  0
   -5.1877   -1.4831    2.1694 H   0  0  0  0  0  0  0  0  0  0  0  0
   -3.4942   -0.5070    1.2401 C   0  0  0  0  0  0  0  0  0  0  0  0
   -2.8001   -0.1684   -2.5312 C   0  0  0  0  0  0  0  0  0  0  0  0
   -2.7559    0.9284   -2.7040 H   0  0  0  0  0  0  0  0  0  0  0  0
   -3.3178   -0.6202   -3.3973 H   0  0  0  0  0  0  0  0  0  0  0  0
   -1.7477   -0.5265   -2.5226 H   0  0  0  0  0  0  0  0  0  0  0  0
   -2.7998   -0.1683    2.5313 C   0  0  0  0  0  0  0  0  0  0  0  0
   -1.7476   -0.5267    2.5227 H   0  0  0  0  0  0  0  0  0  0  0  0
   -3.3176   -0.6199    3.3976 H   0  0  0  0  0  0  0  0  0  0  0  0
   -2.7554    0.9285    2.7040 H   0  0  0  0  0  0  0  0  0  0  0  0
    3.4286    0.5421   -0.0001 C   0  0  0  0  0  0  0  0  0  0  0  0
    4.0048    0.1968    1.2398 C   0  0  0  0  0  0  0  0  0  0  0  0
    5.2066   -0.5310    1.2098 C   0  0  0  0  0  0  0  0  0  0  0  0
    5.6729   -0.8193    2.1651 H   0  0  0  0  0  0  0  0  0  0  0  0
    5.8251   -0.9022    0.0001 C   0  0  0  0  0  0  0  0  0  0  0  0
    5.2066   -0.5313   -1.2098 C   0  0  0  0  0  0  0  0  0  0  0  0
    5.6729   -0.8197   -2.1650 H   0  0  0  0  0  0  0  0  0  0  0  0
    4.0048    0.1966   -1.2399 C   0  0  0  0  0  0  0  0  0  0  0  0
    3.3321    0.5588    2.5381 C   0  0  0  0  0  0  0  0  0  0  0  0
    2.3455    0.0558    2.6303 H   0  0  0  0  0  0  0  0  0  0  0  0
    3.1435    1.6494    2.6189 H   0  0  0  0  0  0  0  0  0  0  0  0
    3.9499    0.2570    3.4037 H   0  0  0  0  0  0  0  0  0  0  0  0
    7.1311   -1.6525    0.0001 C   0  0  0  0  0  0  0  0  0  0  0  0
    7.2360   -2.2915    0.8982 H   0  0  0  0  0  0  0  0  0  0  0  0
    7.9881   -0.9452    0.0005 H   0  0  0  0  0  0  0  0  0  0  0  0
    7.2364   -2.2910   -0.8982 H   0  0  0  0  0  0  0  0  0  0  0  0
    3.3321    0.5584   -2.5383 C   0  0  0  0  0  0  0  0  0  0  0  0
    3.9498    0.2562   -3.4038 H   0  0  0  0  0  0  0  0  0  0  0  0
    3.1436    1.6489   -2.6193 H   0  0  0  0  0  0  0  0  0  0  0  0
    2.3455    0.0554   -2.6302 H   0  0  0  0  0  0  0  0  0  0  0  0
   -3.7208    2.6282    0.0001 C   0  0  0  0  0  0  0  0  0  0  0  0
   -4.0320    2.0607   -0.8944 H   0  0  0  0  0  0  0  0  0  0  0  0
   -4.2791    3.5846    0.0001 H   0  0  0  0  0  0  0  0  0  0  0  0
   -4.0319    2.0608    0.8947 H   0  0  0  0  0  0  0  0  0  0  0  0
   -1.9530    3.7917   -1.2895 C   0  0  0  0  0  0  0  0  0  0  0  0
   -0.9130    4.1402   -1.4150 H   0  0  0  0  0  0  0  0  0  0  0  0
   -2.6061    4.6860   -1.2792 H   0  0  0  0  0  0  0  0  0  0  0  0
   -2.2142    3.1973   -2.1875 H   0  0  0  0  0  0  0  0  0  0  0  0
   -1.9527    3.7918    1.2892 C   0  0  0  0  0  0  0  0  0  0  0  0
   -2.2138    3.1975    2.1873 H   0  0  0  0  0  0  0  0  0  0  0  0
   -2.6059    4.6862    1.2789 H   0  0  0  0  0  0  0  0  0  0  0  0
   -0.9128    4.1403    1.4145 H   0  0  0  0  0  0  0  0  0  0  0  0
  1  9  1  0  0  0  0
  1  4  1  0  0  0  0
  2 28  1  0  0  0  0
  2  4  1  0  0  0  0
  3 11  1  0  0  0  0
  5  7  2  0  0  0  0
  5  1  1  0  0  0  0
  6  5  1  0  0  0  0
  7  2  1  0  0  0  0
  8  7  1  0  0  0  0
  9  3  1  1  0  0  0
 10  9  1  0  0  0  0
 10 48  1  0  0  0  0
 10 56  1  0  0  0  0
 11 19  1  0  0  0  0
 12 13  1  0  0  0  0
 12 11  2  0  0  0  0
 13 15  2  0  0  0  0
 14 13  1  0  0  0  0
 15 16  1  0  0  0  0
 15 17  1  0  0  0  0
 17 19  2  0  0  0  0
 17 18  1  0  0  0  0
 19 24  1  0  0  0  0
 20 23  1  0  0  0  0
 20 12  1  0  0  0  0
 21 20  1  0  0  0  0
 22 20  1  0  0  0  0
 24 27  1  0  0  0  0
 24 26  1  0  0  0  0
 25 24  1  0  0  0  0
 28 29  1  0  0  0  0
 29 36  1  0  0  0  0
 30 29  2  0  0  0  0
 30 31  1  0  0  0  0
 32 40  1  0  0  0  0
 32 30  1  0  0  0  0
 33 32  2  0  0  0  0
 34 33  1  0  0  0  0
 35 33  1  0  0  0  0
 35 28  2  0  0  0  0
 36 38  1  0  0  0  0
 36 37  1  0  0  0  0
 36 39  1  0  0  0  0
 40 42  1  0  0  0  0
 40 41  1  0  0  0  0
 43 40  1  0  0  0  0
 44 35  1  0  0  0  0
 45 44  1  0  0  0  0
 46 44  1  0  0  0  0
 47 44  1  0  0  0  0
 48 50  1  0  0  0  0
 48 51  1  0  0  0  0
 49 48  1  0  0  0  0
 52 54  1  0  0  0  0
 52 10  1  0  0  0  0
 53 52  1  0  0  0  0
 55 52  1  0  0  0  0
 56 59  1  0  0  0  0
 56 57  1  0  0  0  0
 58 56  1  0  0  0  0
M  END
