1,9
 OpenBabel05122313053D

 10  9  0  0  0  0  0  0  0  0999 V2000
    0.3531    2.2350   -0.8339 N   0  0  0  0  0  0  0  0  0  0  0  0
    1.1901    2.4080   -1.4083 H   0  0  0  0  0  0  0  0  0  0  0  0
   -0.4298    2.3295   -1.4941 H   0  0  0  0  0  0  0  0  0  0  0  0
    0.2635    3.2109    0.2949 C   0  0  0  0  0  0  0  0  0  0  0  0
    0.7748    4.1652    0.0372 H   0  0  0  0  0  0  0  0  0  0  0  0
   -0.8156    3.4707    0.4162 H   0  0  0  0  0  0  0  0  0  0  0  0
    0.7973    2.5700    1.5477 C   0  0  0  0  0  0  0  0  0  0  0  0
    1.0557    3.2328    2.3930 H   0  0  0  0  0  0  0  0  0  0  0  0
    0.8121    1.2051    1.6323 C   0  0  0  0  0  3  0  0  0  0  0  0
    1.1342    0.7699    2.5999 H   0  0  0  0  0  0  0  0  0  0  0  0
  1  4  1  0  0  0  0
  2  1  1  0  0  0  0
  3  1  1  0  0  0  0
  4  6  1  0  0  0  0
  4  7  1  0  0  0  0
  5  4  1  0  0  0  0
  7  9  2  0  0  0  0
  7  8  1  0  0  0  0
  9 10  1  0  0  0  0
M  END
