1,2
 OpenBabel05122313053D

 36 37  0  0  1  0  0  0  0  0999 V2000
    1.2087   -0.5960    1.4420 N   0  0  0  0  0  2  0  0  0  0  0  0
   -0.4879    1.3559    0.3696 C   0  0  0  0  0  3  0  0  0  0  0  0
    0.4574    2.3215    0.1597 C   0  0  0  0  0  0  0  0  0  0  0  0
    1.7947    2.0025   -0.3958 C   0  0  0  0  0  0  0  0  0  0  0  0
    2.3111    2.8070   -1.4416 C   0  0  0  0  0  0  0  0  0  0  0  0
    1.6827    3.6187   -1.8360 H   0  0  0  0  0  0  0  0  0  0  0  0
    3.5833    2.6006   -1.9889 C   0  0  0  0  0  0  0  0  0  0  0  0
    3.9370    3.2418   -2.8107 H   0  0  0  0  0  0  0  0  0  0  0  0
    4.4011    1.5795   -1.4831 C   0  0  0  0  0  0  0  0  0  0  0  0
    5.4034    1.4012   -1.8998 H   0  0  0  0  0  0  0  0  0  0  0  0
    3.9266    0.7907   -0.4283 C   0  0  0  0  0  0  0  0  0  0  0  0
    4.5672   -0.0031   -0.0136 H   0  0  0  0  0  0  0  0  0  0  0  0
    2.6380    0.9784    0.1233 C   0  0  0  0  0  0  0  0  0  0  0  0
    2.3273    0.1798    1.3414 C   0  0  2  0  0  3  0  0  0  0  0  0
   -1.8139    1.7765    0.9199 C   0  0  0  0  0  0  0  0  0  0  0  0
   -2.0030    2.2660    2.0217 O   0  0  0  0  0  0  0  0  0  0  0  0
   -2.8238    1.5574    0.0246 O   0  0  0  0  0  0  0  0  0  0  0  0
   -4.1591    1.7774    0.5202 C   0  0  0  0  0  0  0  0  0  0  0  0
   -4.2022    1.4285    1.5716 H   0  0  0  0  0  0  0  0  0  0  0  0
   -4.8018    1.1210   -0.1006 H   0  0  0  0  0  0  0  0  0  0  0  0
   -4.5760    3.2352    0.4048 C   0  0  0  0  0  0  0  0  0  0  0  0
   -5.6351    3.3565    0.7114 H   0  0  0  0  0  0  0  0  0  0  0  0
   -4.4754    3.5972   -0.6385 H   0  0  0  0  0  0  0  0  0  0  0  0
   -3.9506    3.8675    1.0638 H   0  0  0  0  0  0  0  0  0  0  0  0
    0.1812    3.8022    0.3686 C   0  0  0  0  0  0  0  0  0  0  0  0
   -0.6308    3.9516    1.1018 H   0  0  0  0  0  0  0  0  0  0  0  0
   -0.1164    4.3078   -0.5767 H   0  0  0  0  0  0  0  0  0  0  0  0
    1.0836    4.3268    0.7431 H   0  0  0  0  0  0  0  0  0  0  0  0
    3.2766    0.1910    2.3874 C   0  0  0  0  0  0  0  0  0  0  0  0
    4.1456    0.8560    2.2936 H   0  0  0  0  0  0  0  0  0  0  0  0
    3.1057   -0.6108    3.5186 C   0  0  0  0  0  0  0  0  0  0  0  0
    3.8454   -0.5953    4.3331 H   0  0  0  0  0  0  0  0  0  0  0  0
    1.9701   -1.4259    3.5845 C   0  0  0  0  0  0  0  0  0  0  0  0
    1.7760   -2.0847    4.4427 H   0  0  0  0  0  0  0  0  0  0  0  0
    1.0476   -1.3817    2.5380 C   0  0  0  0  0  0  0  0  0  0  0  0
    0.1055   -1.9493    2.5672 H   0  0  0  0  0  0  0  0  0  0  0  0
  1 35  1  0  0  0  0
  2 15  1  0  0  0  0
  3 25  1  0  0  0  0
  3  2  2  0  0  0  0
  4 13  1  0  0  0  0
  4  3  1  0  0  0  0
  5  4  2  0  0  0  0
  6  5  1  0  0  0  0
  7  9  2  0  0  0  0
  7  5  1  0  0  0  0
  8  7  1  0  0  0  0
  9 11  1  0  0  0  0
 10  9  1  0  0  0  0
 11 12  1  0  0  0  0
 11 13  2  0  0  0  0
 14 13  1  6  0  0  0
 14  1  1  0  0  0  0
 14 29  1  0  0  0  0
 15 16  2  0  0  0  0
 17 18  1  0  0  0  0
 17 15  1  0  0  0  0
 18 19  1  0  0  0  0
 20 18  1  0  0  0  0
 21 18  1  0  0  0  0
 21 22  1  0  0  0  0
 21 24  1  0  0  0  0
 23 21  1  0  0  0  0
 25 28  1  0  0  0  0
 25 26  1  0  0  0  0
 27 25  1  0  0  0  0
 29 31  2  0  0  0  0
 30 29  1  0  0  0  0
 31 33  1  0  0  0  0
 31 32  1  0  0  0  0
 33 34  1  0  0  0  0
 35 36  1  0  0  0  0
 35 33  2  0  0  0  0
M  END
