1,16
 OpenBabel05122313053D

 18 18  0  0  0  0  0  0  0  0999 V2000
    0.6137    1.6836    0.0010 N   0  0  0  0  0  2  0  0  0  0  0  0
    2.0269    1.7716    0.0010 O   0  0  0  0  0  0  0  0  0  0  0  0
   -1.1824    3.0788    0.0002 O   0  0  0  0  0  0  0  0  0  0  0  0
    0.9815    4.1467   -0.0003 C   0  0  0  0  0  0  0  0  0  0  0  0
    0.3648    5.0623   -0.0007 H   0  0  0  0  0  0  0  0  0  0  0  0
    1.6442    4.1299   -0.8878 H   0  0  0  0  0  0  0  0  0  0  0  0
    1.6442    4.1307    0.8873 H   0  0  0  0  0  0  0  0  0  0  0  0
    3.7686   -1.9735   -0.0002 C   0  0  0  0  0  0  0  0  0  0  0  0
    4.2396   -2.9686   -0.0005 H   0  0  0  0  0  0  0  0  0  0  0  0
    3.9892    0.4511    0.0007 C   0  0  0  0  0  0  0  0  0  0  0  0
    4.5918    1.3711    0.0010 H   0  0  0  0  0  0  0  0  0  0  0  0
    4.5766   -0.8147    0.0002 C   0  0  0  0  0  0  0  0  0  0  0  0
    5.6735   -0.9057    0.0002 H   0  0  0  0  0  0  0  0  0  0  0  0
    2.3738   -1.8616   -0.0002 C   0  0  0  0  0  0  0  0  0  0  0  0
    1.7723   -2.7811   -0.0005 H   0  0  0  0  0  0  0  0  0  0  0  0
    1.7254   -0.6016    0.0003 C   0  0  0  0  0  3  0  0  0  0  0  0
    2.5812    0.5357    0.0007 C   0  0  0  0  0  0  0  0  0  0  0  0
    0.0452    2.9529    0.0003 C   0  0  0  0  0  0  0  0  0  0  0  0
  2  1  1  0  0  0  0
  3 18  2  0  0  0  0
  4 18  1  0  0  0  0
  4  7  1  0  0  0  0
  5  4  1  0  0  0  0
  6  4  1  0  0  0  0
  8 14  2  0  0  0  0
  8 12  1  0  0  0  0
  9  8  1  0  0  0  0
 10 11  1  0  0  0  0
 12 10  2  0  0  0  0
 13 12  1  0  0  0  0
 14 16  1  0  0  0  0
 15 14  1  0  0  0  0
 16 17  2  0  0  0  0
 17 10  1  0  0  0  0
 17  2  1  0  0  0  0
 18  1  1  0  0  0  0
M  END
