3,4
 OpenBabel05122313053D

 15 15  0  0  0  0  0  0  0  0999 V2000
    0.2381   -3.0905   -0.0250 O   0  0  0  0  0  0  0  0  0  0  0  0
   -0.3424   -3.8792   -0.1199 H   0  0  0  0  0  0  0  0  0  0  0  0
   -0.5824   -1.9900    0.0157 N   0  0  0  0  0  2  0  0  0  0  0  0
   -1.7664    0.2776    0.0425 C   0  0  0  0  0  3  0  0  0  0  0  0
   -2.4058    1.5319    0.0112 C   0  0  0  0  0  0  0  0  0  0  0  0
   -1.8080    2.4477   -0.1143 H   0  0  0  0  0  0  0  0  0  0  0  0
   -3.8028    1.6366    0.1109 C   0  0  0  0  0  0  0  0  0  0  0  0
   -4.2736    2.6325    0.0947 H   0  0  0  0  0  0  0  0  0  0  0  0
   -4.6117    0.4873    0.2171 C   0  0  0  0  0  0  0  0  0  0  0  0
   -5.7052    0.5841    0.2885 H   0  0  0  0  0  0  0  0  0  0  0  0
   -4.0153   -0.7767    0.2094 C   0  0  0  0  0  0  0  0  0  0  0  0
   -4.6324   -1.6881    0.2621 H   0  0  0  0  0  0  0  0  0  0  0  0
   -2.6091   -0.8798    0.1211 C   0  0  0  0  0  0  0  0  0  0  0  0
   -1.8854   -2.1237    0.0801 C   0  0  0  0  0  3  0  0  0  0  0  0
   -2.3577   -3.1233    0.0995 H   0  0  0  0  0  0  0  0  0  0  0  0
  1  3  1  0  0  0  0
  2  1  1  0  0  0  0
  3 14  1  0  0  0  0
  4 13  1  0  0  0  0
  5  4  2  0  0  0  0
  5  7  1  0  0  0  0
  6  5  1  0  0  0  0
  7  9  2  0  0  0  0
  8  7  1  0  0  0  0
  9 10  1  0  0  0  0
 11  9  1  0  0  0  0
 11 12  1  0  0  0  0
 13 11  2  0  0  0  0
 14 15  1  0  0  0  0
 14 13  1  0  0  0  0
M  END
