6,7
 OpenBabel05122313053D

 53 56  0  0  1  0  0  0  0  0999 V2000
    5.4735   -2.4618    0.0145 S   0  0  0  0  0  0  0  0  0  0  0  0
    4.6927    3.1255   -0.1120 S   0  0  0  0  0  0  0  0  0  0  0  0
   -1.6855    3.2217   -1.2601 O   0  0  0  0  0  0  0  0  0  0  0  0
    0.5398   -1.3887   -0.0683 N   0  0  0  0  0  0  0  0  0  0  0  0
    0.2760    0.7257    0.3140 N   0  0  0  0  0  0  0  0  0  0  0  0
   -2.4347    1.2162   -0.7243 N   0  0  0  0  0  2  0  0  0  0  0  0
   -0.4183   -0.4465    0.1665 C   0  0  0  0  0  2  0  0  0  0  0  0
    1.8266   -0.8225   -0.0611 C   0  0  0  0  0  0  0  0  0  0  0  0
    1.6610    0.5338    0.1756 C   0  0  0  0  0  0  0  0  0  0  0  0
    0.2976   -2.8077   -0.2880 C   0  0  0  0  0  0  0  0  0  0  0  0
    1.0276   -3.3976    0.2976 H   0  0  0  0  0  0  0  0  0  0  0  0
    0.3969   -3.0580   -1.3600 H   0  0  0  0  0  0  0  0  0  0  0  0
   -0.7362   -3.0365    0.0130 H   0  0  0  0  0  0  0  0  0  0  0  0
    5.1896   -3.9363   -2.3837 C   0  0  0  0  0  0  0  0  0  0  0  0
    5.4666   -4.9095   -1.9278 H   0  0  0  0  0  0  0  0  0  0  0  0
    6.1104   -3.5122   -2.8345 H   0  0  0  0  0  0  0  0  0  0  0  0
    4.4722   -4.1371   -3.2022 H   0  0  0  0  0  0  0  0  0  0  0  0
    4.5755   -3.0063   -1.3848 C   0  0  0  0  0  0  0  0  0  0  0  0
    3.3118   -2.4529   -1.3774 C   0  0  0  0  0  0  0  0  0  0  0  0
    2.5869   -2.6368   -2.1821 H   0  0  0  0  0  0  0  0  0  0  0  0
    3.0594   -1.5886   -0.2512 C   0  0  0  0  0  0  0  0  0  0  0  0
    4.1544   -1.4951    0.6107 C   0  0  0  0  0  0  0  0  0  0  0  0
    4.3076   -0.7011    1.8689 C   0  0  0  0  0  0  0  0  0  0  0  0
    4.9243   -1.2367    2.6174 H   0  0  0  0  0  0  0  0  0  0  0  0
    3.3162   -0.4949    2.3163 H   0  0  0  0  0  0  0  0  0  0  0  0
    4.7869    0.2828    1.6781 H   0  0  0  0  0  0  0  0  0  0  0  0
    3.9757    1.0703   -1.8925 C   0  0  0  0  0  0  0  0  0  0  0  0
    4.3937    1.7385   -2.6707 H   0  0  0  0  0  0  0  0  0  0  0  0
    3.0565    0.5993   -2.2906 H   0  0  0  0  0  0  0  0  0  0  0  0
    4.7075    0.2529   -1.7185 H   0  0  0  0  0  0  0  0  0  0  0  0
    3.6731    1.8135   -0.6311 C   0  0  0  0  0  0  0  0  0  0  0  0
    2.6452    1.6082    0.2917 C   0  0  0  0  0  0  0  0  0  0  0  0
    2.7021    2.5310    1.3999 C   0  0  0  0  0  0  0  0  0  0  0  0
    2.0038    2.5101    2.2493 H   0  0  0  0  0  0  0  0  0  0  0  0
    3.7538    3.4227    1.3329 C   0  0  0  0  0  0  0  0  0  0  0  0
    4.1346    4.5042    2.2946 C   0  0  0  0  0  0  0  0  0  0  0  0
    3.4299    4.5170    3.1481 H   0  0  0  0  0  0  0  0  0  0  0  0
    4.1133    5.5073    1.8203 H   0  0  0  0  0  0  0  0  0  0  0  0
    5.1566    4.3568    2.7004 H   0  0  0  0  0  0  0  0  0  0  0  0
   -0.3731    2.0233    0.4500 C   0  0  0  0  0  0  0  0  0  0  0  0
    0.3675    2.8153    0.2332 H   0  0  0  0  0  0  0  0  0  0  0  0
   -0.7267    2.1677    1.4950 H   0  0  0  0  0  0  0  0  0  0  0  0
   -1.5133    2.1301   -0.5016 C   0  0  1  0  0  3  0  0  0  0  0  0
   -3.2947    1.7380   -1.7065 C   0  0  0  0  0  0  0  0  0  0  0  0
   -2.8153    2.9900   -2.0280 C   0  0  0  0  0  0  0  0  0  0  0  0
   -3.2347    4.0536   -2.9701 C   0  0  0  0  0  0  0  0  0  0  0  0
   -4.1206    3.7235   -3.5422 H   0  0  0  0  0  0  0  0  0  0  0  0
   -2.4259    4.2940   -3.6901 H   0  0  0  0  0  0  0  0  0  0  0  0
   -3.4972    4.9899   -2.4356 H   0  0  0  0  0  0  0  0  0  0  0  0
   -4.4783    1.0098   -2.2387 C   0  0  0  0  0  0  0  0  0  0  0  0
   -5.3026    0.9790   -1.4973 H   0  0  0  0  0  0  0  0  0  0  0  0
   -4.1939   -0.0335   -2.4817 H   0  0  0  0  0  0  0  0  0  0  0  0
   -4.8633    1.5052   -3.1487 H   0  0  0  0  0  0  0  0  0  0  0  0
  1 22  1  0  0  0  0
  2 35  1  0  0  0  0
  3 43  1  0  0  0  0
  4  8  1  0  0  0  0
  4  7  1  0  0  0  0
  5 40  1  0  0  0  0
  6 43  1  0  0  0  0
  7  5  1  0  0  0  0
  8  9  2  0  0  0  0
  9 32  1  0  0  0  0
  9  5  1  0  0  0  0
 10  4  1  0  0  0  0
 10 13  1  0  0  0  0
 10 11  1  0  0  0  0
 12 10  1  0  0  0  0
 14 15  1  0  0  0  0
 14 18  1  0  0  0  0
 16 14  1  0  0  0  0
 17 14  1  0  0  0  0
 18 19  2  0  0  0  0
 18  1  1  0  0  0  0
 19 21  1  0  0  0  0
 20 19  1  0  0  0  0
 21  8  1  0  0  0  0
 21 22  2  0  0  0  0
 22 23  1  0  0  0  0
 23 25  1  0  0  0  0
 23 24  1  0  0  0  0
 26 23  1  0  0  0  0
 27 30  1  0  0  0  0
 27 31  1  0  0  0  0
 28 27  1  0  0  0  0
 29 27  1  0  0  0  0
 31  2  1  0  0  0  0
 31 32  2  0  0  0  0
 32 33  1  0  0  0  0
 33 34  1  0  0  0  0
 35 33  2  0  0  0  0
 35 36  1  0  0  0  0
 36 39  1  0  0  0  0
 36 37  1  0  0  0  0
 38 36  1  0  0  0  0
 40 42  1  0  0  0  0
 41 40  1  0  0  0  0
 43 40  1  6  0  0  0
 44  6  1  0  0  0  0
 45 44  2  0  0  0  0
 45  3  1  0  0  0  0
 46 49  1  0  0  0  0
 46 45  1  0  0  0  0
 47 46  1  0  0  0  0
 48 46  1  0  0  0  0
 50 44  1  0  0  0  0
 50 51  1  0  0  0  0
 52 50  1  0  0  0  0
 53 50  1  0  0  0  0
M  END
