3,14
 OpenBabel05122313053D

 28 30  0  0  0  0  0  0  0  0999 V2000
   -4.8517    0.8462    0.0001 O   0  0  0  0  0  0  0  0  0  0  0  0
   -7.0009    0.1995    0.0002 O   0  0  0  0  0  0  0  0  0  0  0  0
    1.0587    1.9582   -0.0001 N   0  0  0  0  0  2  0  0  0  0  0  0
    2.1158    2.8019   -0.0001 C   0  0  0  0  0  0  0  0  0  0  0  0
    3.1014    2.3115   -0.0001 H   0  0  0  0  0  0  0  0  0  0  0  0
    1.9493    4.1879   -0.0001 C   0  0  0  0  0  0  0  0  0  0  0  0
    2.8344    4.8389   -0.0002 H   0  0  0  0  0  0  0  0  0  0  0  0
    0.6466    4.7162   -0.0001 C   0  0  0  0  0  0  0  0  0  0  0  0
    0.4833    5.8040   -0.0001 H   0  0  0  0  0  0  0  0  0  0  0  0
   -0.4430    3.8408   -0.0001 C   0  0  0  0  0  0  0  0  0  0  0  0
   -1.4726    4.2238   -0.0000 H   0  0  0  0  0  0  0  0  0  0  0  0
   -0.2304    2.4501   -0.0001 C   0  0  0  0  0  0  0  0  0  0  0  0
   -1.2505    1.4064   -0.0000 C   0  0  0  0  0  0  0  0  0  0  0  0
   -0.7276    0.0713   -0.0000 C   0  0  0  0  0  2  0  0  0  0  0  0
   -1.6333   -0.9959    0.0000 C   0  0  0  0  0  0  0  0  0  0  0  0
   -1.2370   -2.0215   -0.0000 H   0  0  0  0  0  0  0  0  0  0  0  0
   -3.0332   -0.7805    0.0000 C   0  0  0  0  0  0  0  0  0  0  0  0
   -3.5185    0.5588    0.0001 C   0  0  0  0  0  0  0  0  0  0  0  0
   -2.6356    1.6452    0.0000 C   0  0  0  0  0  0  0  0  0  0  0  0
   -3.0637    2.6578    0.0000 H   0  0  0  0  0  0  0  0  0  0  0  0
   -4.0153   -1.8553    0.0001 C   0  0  0  0  0  0  0  0  0  0  0  0
   -5.3462   -1.5247    0.0001 C   0  0  0  0  0  0  0  0  0  0  0  0
   -6.1287   -2.2971    0.0002 H   0  0  0  0  0  0  0  0  0  0  0  0
   -5.8397   -0.1520    0.0001 C   0  0  0  0  0  0  0  0  0  0  0  0
   -3.5615   -3.2864    0.0001 C   0  0  0  0  0  0  0  0  0  0  0  0
   -4.4213   -3.9816    0.0001 H   0  0  0  0  0  0  0  0  0  0  0  0
   -2.9334   -3.5030    0.8890 H   0  0  0  0  0  0  0  0  0  0  0  0
   -2.9334   -3.5030   -0.8888 H   0  0  0  0  0  0  0  0  0  0  0  0
  1 24  1  0  0  0  0
  3 12  1  0  0  0  0
  4  3  1  0  0  0  0
  5  4  1  0  0  0  0
  6  4  2  0  0  0  0
  6  8  1  0  0  0  0
  7  6  1  0  0  0  0
  8 10  2  0  0  0  0
  9  8  1  0  0  0  0
 10 12  1  0  0  0  0
 10 11  1  0  0  0  0
 12 13  2  0  0  0  0
 13 19  1  0  0  0  0
 14 13  1  0  0  0  0
 14 15  1  0  0  0  0
 15 17  2  0  0  0  0
 16 15  1  0  0  0  0
 17 18  1  0  0  0  0
 17 21  1  0  0  0  0
 18  1  1  0  0  0  0
 19 20  1  0  0  0  0
 19 18  2  0  0  0  0
 21 22  2  0  0  0  0
 22 24  1  0  0  0  0
 22 23  1  0  0  0  0
 24  2  2  0  0  0  0
 25 21  1  0  0  0  0
 25 27  1  0  0  0  0
 26 25  1  0  0  0  0
 28 25  1  0  0  0  0
M  END
