2,3
 OpenBabel05122313053D

 21 22  0  0  0  0  0  0  0  0999 V2000
    3.6757    1.6332   -0.2269 S   0  0  0  0  0  0  0  0  0  0  0  0
   -0.6583    1.7183    0.1554 N   0  0  0  0  0  2  0  0  0  0  0  0
    1.9600    1.5154   -0.0556 C   0  0  0  0  0  3  0  0  0  0  0  0
    3.6570    3.3839   -0.2858 C   0  0  0  0  0  0  0  0  0  0  0  0
    4.5964    3.9404   -0.3907 H   0  0  0  0  0  0  0  0  0  0  0  0
    2.3764    3.8765   -0.1823 C   0  0  0  0  0  0  0  0  0  0  0  0
    2.1324    4.9481   -0.1980 H   0  0  0  0  0  0  0  0  0  0  0  0
    1.4094    2.8220   -0.0585 C   0  0  0  0  0  0  0  0  0  0  0  0
   -0.0114    2.8651    0.0884 C   0  0  0  0  0  3  0  0  0  0  0  0
   -0.5637    3.8180    0.1961 H   0  0  0  0  0  0  0  0  0  0  0  0
   -2.0551    1.7136    0.3740 C   0  0  0  0  0  0  0  0  0  0  0  0
   -2.9197    2.5448   -0.3694 C   0  0  0  0  0  0  0  0  0  0  0  0
   -2.5042    3.1886   -1.1591 H   0  0  0  0  0  0  0  0  0  0  0  0
   -4.3009    2.5146   -0.1297 C   0  0  0  0  0  0  0  0  0  0  0  0
   -4.9687    3.1580   -0.7228 H   0  0  0  0  0  0  0  0  0  0  0  0
   -4.8323    1.6581    0.8468 C   0  0  0  0  0  0  0  0  0  0  0  0
   -5.9175    1.6280    1.0250 H   0  0  0  0  0  0  0  0  0  0  0  0
   -3.9720    0.8281    1.5853 C   0  0  0  0  0  0  0  0  0  0  0  0
   -4.3809    0.1467    2.3461 H   0  0  0  0  0  0  0  0  0  0  0  0
   -2.5933    0.8488    1.3496 C   0  0  0  0  0  0  0  0  0  0  0  0
   -1.9087    0.1992    1.9138 H   0  0  0  0  0  0  0  0  0  0  0  0
  1  3  1  0  0  0  0
  2 11  1  0  0  0  0
  4  1  1  0  0  0  0
  4  6  2  0  0  0  0
  5  4  1  0  0  0  0
  6  8  1  0  0  0  0
  7  6  1  0  0  0  0
  8  3  2  0  0  0  0
  8  9  1  0  0  0  0
  9  2  1  0  0  0  0
  9 10  1  0  0  0  0
 11 20  1  0  0  0  0
 12 14  1  0  0  0  0
 12 11  2  0  0  0  0
 13 12  1  0  0  0  0
 14 16  2  0  0  0  0
 15 14  1  0  0  0  0
 16 17  1  0  0  0  0
 16 18  1  0  0  0  0
 18 19  1  0  0  0  0
 20 18  2  0  0  0  0
 20 21  1  0  0  0  0
M  END
