2,3
 OpenBabel05122313053D

 21 22  0  0  0  0  0  0  0  0999 V2000
    3.6757   -1.6332    0.2271 S   0  0  0  0  0  0  0  0  0  0  0  0
   -0.6583   -1.7183   -0.1554 N   0  0  0  0  0  2  0  0  0  0  0  0
    1.9600   -1.5154    0.0555 C   0  0  0  0  0  2  0  0  0  0  0  0
    3.6570   -3.3839    0.2854 C   0  0  0  0  0  0  0  0  0  0  0  0
    4.5965   -3.9404    0.3901 H   0  0  0  0  0  0  0  0  0  0  0  0
    2.3765   -3.8765    0.1821 C   0  0  0  0  0  0  0  0  0  0  0  0
    2.1325   -4.9481    0.1976 H   0  0  0  0  0  0  0  0  0  0  0  0
    1.4094   -2.8220    0.0583 C   0  0  0  0  0  0  0  0  0  0  0  0
   -0.0114   -2.8651   -0.0885 C   0  0  0  0  0  0  0  0  0  0  0  0
   -0.5636   -3.8180   -0.1963 H   0  0  0  0  0  0  0  0  0  0  0  0
   -2.0551   -1.7136   -0.3740 C   0  0  0  0  0  0  0  0  0  0  0  0
   -2.9197   -2.5450    0.3693 C   0  0  0  0  0  0  0  0  0  0  0  0
   -2.5042   -3.1889    1.1589 H   0  0  0  0  0  0  0  0  0  0  0  0
   -4.3009   -2.5148    0.1295 C   0  0  0  0  0  0  0  0  0  0  0  0
   -4.9687   -3.1582    0.7225 H   0  0  0  0  0  0  0  0  0  0  0  0
   -4.8323   -1.6581   -0.8468 C   0  0  0  0  0  0  0  0  0  0  0  0
   -5.9175   -1.6280   -1.0251 H   0  0  0  0  0  0  0  0  0  0  0  0
   -3.9720   -0.8280   -1.5852 C   0  0  0  0  0  0  0  0  0  0  0  0
   -4.3809   -0.1465   -2.3459 H   0  0  0  0  0  0  0  0  0  0  0  0
   -2.5933   -0.8487   -1.3494 C   0  0  0  0  0  0  0  0  0  0  0  0
   -1.9086   -0.1990   -1.9135 H   0  0  0  0  0  0  0  0  0  0  0  0
  1  4  1  0  0  0  0
  2  9  1  0  0  0  0
  3  8  1  0  0  0  0
  3  1  1  0  0  0  0
  4  5  1  0  0  0  0
  6  7  1  0  0  0  0
  6  4  2  0  0  0  0
  8  6  1  0  0  0  0
  9  8  2  0  0  0  0
 10  9  1  0  0  0  0
 11  2  1  0  0  0  0
 11 12  1  0  0  0  0
 12 13  1  0  0  0  0
 14 12  2  0  0  0  0
 14 15  1  0  0  0  0
 16 14  1  0  0  0  0
 17 16  1  0  0  0  0
 18 20  1  0  0  0  0
 18 16  2  0  0  0  0
 19 18  1  0  0  0  0
 20 11  2  0  0  0  0
 21 20  1  0  0  0  0
M  END
