1,61
 OpenBabel05122313053D

 81 84  0  0  1  0  0  0  0  0999 V2000
    0.3432   -1.4828    0.3904 C   0  0  2  0  0  3  0  0  0  0  0  0
    0.4165   -3.3780    0.7453 Si  0  0  0  0  0  0  0  0  0  0  0  0
    0.6470   -4.4803   -0.7710 C   0  0  0  0  0  0  0  0  0  0  0  0
    0.6929   -5.5378   -0.4352 H   0  0  0  0  0  0  0  0  0  0  0  0
    1.5760   -4.2490   -1.3266 H   0  0  0  0  0  0  0  0  0  0  0  0
   -0.1950   -4.3800   -1.4834 H   0  0  0  0  0  0  0  0  0  0  0  0
    1.8842   -3.6538    1.9216 C   0  0  0  0  0  0  0  0  0  0  0  0
    1.8012   -3.0202    2.8292 H   0  0  0  0  0  0  0  0  0  0  0  0
    2.8620   -3.4301    1.4539 H   0  0  0  0  0  0  0  0  0  0  0  0
    1.8936   -4.7145    2.2478 H   0  0  0  0  0  0  0  0  0  0  0  0
   -1.0941   -4.0480    1.6906 C   0  0  0  0  0  0  0  0  0  0  0  0
   -1.9686   -4.2300    1.0381 H   0  0  0  0  0  0  0  0  0  0  0  0
   -1.4188   -3.3966    2.5263 H   0  0  0  0  0  0  0  0  0  0  0  0
   -0.7889   -5.0227    2.1270 H   0  0  0  0  0  0  0  0  0  0  0  0
    1.6563   -0.8078    0.6337 C   0  0  0  0  0  0  0  0  0  0  0  0
    1.8753    0.2740    1.5290 C   0  0  0  0  0  0  0  0  0  0  0  0
    1.0424    0.6472    2.1362 H   0  0  0  0  0  0  0  0  0  0  0  0
    3.1247    0.8787    1.6541 C   0  0  0  0  0  0  0  0  0  0  0  0
    3.2242    1.7245    2.3514 H   0  0  0  0  0  0  0  0  0  0  0  0
    4.2461    0.4498    0.9072 C   0  0  0  0  0  0  0  0  0  0  0  0
    4.0531   -0.6501    0.0533 C   0  0  0  0  0  0  0  0  0  0  0  0
    4.8860   -1.0391   -0.5471 H   0  0  0  0  0  0  0  0  0  0  0  0
    2.7983   -1.2590   -0.0909 C   0  0  0  0  0  0  0  0  0  0  0  0
    2.6915   -2.1036   -0.7873 H   0  0  0  0  0  0  0  0  0  0  0  0
    5.5832    1.1936    1.0325 C   0  0  0  0  0  0  0  0  0  0  0  0
    5.3725    2.6626    0.5965 C   0  0  0  0  0  0  0  0  0  0  0  0
    6.3268    3.2251    0.6634 H   0  0  0  0  0  0  0  0  0  0  0  0
    4.6302    3.1784    1.2377 H   0  0  0  0  0  0  0  0  0  0  0  0
    5.0035    2.7142   -0.4469 H   0  0  0  0  0  0  0  0  0  0  0  0
    6.0606    1.1489    2.5016 C   0  0  0  0  0  0  0  0  0  0  0  0
    6.2210    0.1037    2.8358 H   0  0  0  0  0  0  0  0  0  0  0  0
    5.3272    1.6155    3.1890 H   0  0  0  0  0  0  0  0  0  0  0  0
    7.0189    1.6971    2.6120 H   0  0  0  0  0  0  0  0  0  0  0  0
    6.6740    0.5731    0.1433 C   0  0  0  0  0  0  0  0  0  0  0  0
    6.8798   -0.4817    0.4166 H   0  0  0  0  0  0  0  0  0  0  0  0
    7.6201    1.1386    0.2611 H   0  0  0  0  0  0  0  0  0  0  0  0
    6.3967    0.6067   -0.9293 H   0  0  0  0  0  0  0  0  0  0  0  0
   -1.1428   -0.6179    0.7544 P   0  0  0  0  0  4  0  0  0  0  0  0
   -2.5283   -1.6958    0.2468 C   0  0  0  0  0  0  0  0  0  0  0  0
   -3.6722   -1.8797    1.0454 C   0  0  0  0  0  0  0  0  0  0  0  0
   -3.7371   -1.4049    2.0349 H   0  0  0  0  0  0  0  0  0  0  0  0
   -4.7270   -2.6819    0.5831 C   0  0  0  0  0  0  0  0  0  0  0  0
   -5.6197   -2.8232    1.2107 H   0  0  0  0  0  0  0  0  0  0  0  0
   -4.6409   -3.3064   -0.6709 C   0  0  0  0  0  0  0  0  0  0  0  0
   -5.4688   -3.9360   -1.0304 H   0  0  0  0  0  0  0  0  0  0  0  0
   -3.4958   -3.1296   -1.4665 C   0  0  0  0  0  0  0  0  0  0  0  0
   -3.4207   -3.6184   -2.4493 H   0  0  0  0  0  0  0  0  0  0  0  0
   -2.4438   -2.3242   -1.0136 C   0  0  0  0  0  0  0  0  0  0  0  0
   -1.5490   -2.1967   -1.6447 H   0  0  0  0  0  0  0  0  0  0  0  0
   -1.5120   -0.1133    2.4767 C   0  0  0  0  0  0  0  0  0  0  0  0
   -2.5068    0.8459    2.7699 C   0  0  0  0  0  0  0  0  0  0  0  0
   -3.0931    1.3068    1.9617 H   0  0  0  0  0  0  0  0  0  0  0  0
   -2.7379    1.2211    4.1019 C   0  0  0  0  0  0  0  0  0  0  0  0
   -3.5069    1.9753    4.3269 H   0  0  0  0  0  0  0  0  0  0  0  0
   -1.9931    0.6407    5.1416 C   0  0  0  0  0  0  0  0  0  0  0  0
   -2.1793    0.9399    6.1843 H   0  0  0  0  0  0  0  0  0  0  0  0
   -1.0105   -0.3200    4.8525 C   0  0  0  0  0  0  0  0  0  0  0  0
   -0.4254   -0.7764    5.6650 H   0  0  0  0  0  0  0  0  0  0  0  0
   -0.7672   -0.6949    3.5233 C   0  0  0  0  0  0  0  0  0  0  0  0
    0.0144   -1.4339    3.2880 H   0  0  0  0  0  0  0  0  0  0  0  0
   -1.0082    0.7215   -0.2483 N   0  0  0  0  0  2  0  0  0  0  0  0
   -1.8340    1.8939   -0.2127 C   0  0  0  0  0  0  0  0  0  0  0  0
   -1.3403    3.0622    0.4353 C   0  0  0  0  0  0  0  0  0  0  0  0
   -2.1476    4.2117    0.4855 C   0  0  0  0  0  0  0  0  0  0  0  0
   -1.7532    5.1059    0.9954 H   0  0  0  0  0  0  0  0  0  0  0  0
   -3.4279    4.2560   -0.0906 C   0  0  0  0  0  0  0  0  0  0  0  0
   -3.8841    3.0983   -0.7409 C   0  0  0  0  0  0  0  0  0  0  0  0
   -4.8771    3.1079   -1.2198 H   0  0  0  0  0  0  0  0  0  0  0  0
   -3.1191    1.9194   -0.8252 C   0  0  0  0  0  0  0  0  0  0  0  0
    0.0119    3.0860    1.0939 C   0  0  0  0  0  0  0  0  0  0  0  0
    0.0262    2.4410    1.9969 H   0  0  0  0  0  0  0  0  0  0  0  0
    0.2708    4.1126    1.4155 H   0  0  0  0  0  0  0  0  0  0  0  0
    0.8129    2.7227    0.4201 H   0  0  0  0  0  0  0  0  0  0  0  0
   -4.2579    5.5144   -0.0569 C   0  0  0  0  0  0  0  0  0  0  0  0
   -4.0282    6.1655   -0.9280 H   0  0  0  0  0  0  0  0  0  0  0  0
   -4.0589    6.1118    0.8550 H   0  0  0  0  0  0  0  0  0  0  0  0
   -5.3425    5.2910   -0.0955 H   0  0  0  0  0  0  0  0  0  0  0  0
   -3.7036    0.7398   -1.5576 C   0  0  0  0  0  0  0  0  0  0  0  0
   -4.2376    0.0497   -0.8727 H   0  0  0  0  0  0  0  0  0  0  0  0
   -2.9250    0.1574   -2.0803 H   0  0  0  0  0  0  0  0  0  0  0  0
   -4.4355    1.0845   -2.3132 H   0  0  0  0  0  0  0  0  0  0  0  0
  1 15  1  0  0  0  0
  1  2  1  1  0  0  0
  1 38  1  0  0  0  0
  2 11  1  0  0  0  0
  2  7  1  0  0  0  0
  3  4  1  0  0  0  0
  3  2  1  0  0  0  0
  5  3  1  0  0  0  0
  6  3  1  0  0  0  0
  7 10  1  0  0  0  0
  7  8  1  0  0  0  0
  9  7  1  0  0  0  0
 11 14  1  0  0  0  0
 11 13  1  0  0  0  0
 12 11  1  0  0  0  0
 15 16  1  0  0  0  0
 16 18  2  0  0  0  0
 16 17  1  0  0  0  0
 18 19  1  0  0  0  0
 20 25  1  0  0  0  0
 20 18  1  0  0  0  0
 21 20  2  0  0  0  0
 22 21  1  0  0  0  0
 23 21  1  0  0  0  0
 23 15  2  0  0  0  0
 24 23  1  0  0  0  0
 25 30  1  0  0  0  0
 26 27  1  0  0  0  0
 26 25  1  0  0  0  0
 26 28  1  0  0  0  0
 29 26  1  0  0  0  0
 30 33  1  0  0  0  0
 30 31  1  0  0  0  0
 30 32  1  0  0  0  0
 34 36  1  0  0  0  0
 34 35  1  0  0  0  0
 34 25  1  0  0  0  0
 37 34  1  0  0  0  0
 38 50  1  0  0  0  0
 39 38  1  0  0  0  0
 39 40  1  0  0  0  0
 40 41  1  0  0  0  0
 42 40  2  0  0  0  0
 42 43  1  0  0  0  0
 44 42  1  0  0  0  0
 45 44  1  0  0  0  0
 46 48  1  0  0  0  0
 46 44  2  0  0  0  0
 47 46  1  0  0  0  0
 48 39  2  0  0  0  0
 49 48  1  0  0  0  0
 50 51  2  0  0  0  0
 50 59  1  0  0  0  0
 51 53  1  0  0  0  0
 52 51  1  0  0  0  0
 53 54  1  0  0  0  0
 53 55  2  0  0  0  0
 55 56  1  0  0  0  0
 57 55  1  0  0  0  0
 57 58  1  0  0  0  0
 59 57  2  0  0  0  0
 60 59  1  0  0  0  0
 61 62  1  0  0  0  0
 61 38  1  0  0  0  0
 62 63  1  0  0  0  0
 63 64  2  0  0  0  0
 63 70  1  0  0  0  0
 64 65  1  0  0  0  0
 66 74  1  0  0  0  0
 66 64  1  0  0  0  0
 67 66  2  0  0  0  0
 68 67  1  0  0  0  0
 69 67  1  0  0  0  0
 69 62  2  0  0  0  0
 70 72  1  0  0  0  0
 70 71  1  0  0  0  0
 73 70  1  0  0  0  0
 74 76  1  0  0  0  0
 75 74  1  0  0  0  0
 77 74  1  0  0  0  0
 78 79  1  0  0  0  0
 78 69  1  0  0  0  0
 80 78  1  0  0  0  0
 81 78  1  0  0  0  0
M  END
