1,12
 OpenBabel05122313053D

 37 40  0  0  1  0  0  0  0  0999 V2000
   -1.0445   -0.7462    0.0585 N   0  0  0  0  0  2  0  0  0  0  0  0
   -0.8467    1.4880   -0.7681 C   0  0  0  0  0  0  0  0  0  0  0  0
   -1.3682    2.7589   -1.0293 C   0  0  0  0  0  0  0  0  0  0  0  0
   -2.6904    3.0633   -0.6523 C   0  0  0  0  0  0  0  0  0  0  0  0
   -3.4653    2.0977    0.0066 C   0  0  0  0  0  0  0  0  0  0  0  0
   -2.9714    0.8081    0.2798 C   0  0  0  0  0  0  0  0  0  0  0  0
   -3.7679   -0.2226    1.0479 C   0  0  0  0  0  0  0  0  0  0  0  0
   -2.8452   -1.2861    1.6544 C   0  0  0  0  0  0  0  0  0  0  0  0
   -1.8765   -1.8382    0.5903 C   0  0  1  0  0  0  0  0  0  0  0  0
   -1.6533    0.4934   -0.1426 C   0  0  0  0  0  0  0  0  0  0  0  0
    0.5414    1.0410   -1.0311 C   0  0  2  0  0  3  0  0  0  0  0  0
    0.9744    0.2157   -2.1123 C   0  0  0  0  0  3  0  0  0  0  0  0
    2.2874   -0.2622   -1.8542 C   0  0  0  0  0  3  0  0  0  0  0  0
    2.7395    0.3406   -0.6275 C   0  0  0  0  0  0  0  0  0  0  0  0
    3.9638    0.2625    0.0960 C   0  0  0  0  0  0  0  0  0  0  0  0
    4.0798    0.9567    1.2921 C   0  0  0  0  0  0  0  0  0  0  0  0
    2.9944    1.7233    1.8149 C   0  0  0  0  0  0  0  0  0  0  0  0
    1.7868    1.8186    1.1379 C   0  0  0  0  0  0  0  0  0  0  0  0
    1.6471    1.1477   -0.1090 C   0  0  0  0  0  0  0  0  0  0  0  0
   -2.5984   -2.5833   -0.5426 C   0  0  0  0  0  0  0  0  0  0  0  0
   -0.7339    3.5148   -1.5164 H   0  0  0  0  0  0  0  0  0  0  0  0
   -3.1055    4.0622   -0.8517 H   0  0  0  0  0  0  0  0  0  0  0  0
   -4.4860    2.3508    0.3372 H   0  0  0  0  0  0  0  0  0  0  0  0
   -4.5145   -0.7073    0.3790 H   0  0  0  0  0  0  0  0  0  0  0  0
   -4.3605    0.2763    1.8427 H   0  0  0  0  0  0  0  0  0  0  0  0
   -2.2445   -0.8383    2.4741 H   0  0  0  0  0  0  0  0  0  0  0  0
   -3.4330   -2.1177    2.0936 H   0  0  0  0  0  0  0  0  0  0  0  0
   -1.1915   -2.5581    1.0945 H   0  0  0  0  0  0  0  0  0  0  0  0
    0.3367   -0.0863   -2.9532 H   0  0  0  0  0  0  0  0  0  0  0  0
    2.8707   -0.9315   -2.4971 H   0  0  0  0  0  0  0  0  0  0  0  0
    4.8025   -0.3301   -0.2993 H   0  0  0  0  0  0  0  0  0  0  0  0
    5.0244    0.9158    1.8553 H   0  0  0  0  0  0  0  0  0  0  0  0
    3.1248    2.2488    2.7729 H   0  0  0  0  0  0  0  0  0  0  0  0
    0.9499    2.4136    1.5330 H   0  0  0  0  0  0  0  0  0  0  0  0
   -3.2389   -3.3940   -0.1384 H   0  0  0  0  0  0  0  0  0  0  0  0
   -1.8651   -3.0318   -1.2398 H   0  0  0  0  0  0  0  0  0  0  0  0
   -3.2383   -1.8941   -1.1286 H   0  0  0  0  0  0  0  0  0  0  0  0
  1  9  1  0  0  0  0
  2 10  1  0  0  0  0
  3  2  2  0  0  0  0
  3  4  1  0  0  0  0
  4  5  2  0  0  0  0
  5  6  1  0  0  0  0
  5 23  1  0  0  0  0
  6  7  1  0  0  0  0
  7  8  1  0  0  0  0
  7 25  1  0  0  0  0
  8 27  1  0  0  0  0
  8 26  1  0  0  0  0
  9 28  1  1  0  0  0
  9  8  1  0  0  0  0
 10  1  1  0  0  0  0
 10  6  2  0  0  0  0
 11  2  1  1  0  0  0
 11 19  1  0  0  0  0
 12 13  1  0  0  0  0
 12 11  1  0  0  0  0
 13 14  1  0  0  0  0
 14 19  2  0  0  0  0
 14 15  1  0  0  0  0
 15 16  2  0  0  0  0
 16 17  1  0  0  0  0
 16 32  1  0  0  0  0
 17 33  1  0  0  0  0
 18 34  1  0  0  0  0
 18 17  2  0  0  0  0
 19 18  1  0  0  0  0
 20 35  1  0  0  0  0
 20  9  1  0  0  0  0
 21  3  1  0  0  0  0
 22  4  1  0  0  0  0
 24  7  1  0  0  0  0
 29 12  1  0  0  0  0
 30 13  1  0  0  0  0
 31 15  1  0  0  0  0
 36 20  1  0  0  0  0
 37 20  1  0  0  0  0
M  END
