1,2
 OpenBabel05122313053D

 40 42  0  0  1  0  0  0  0  0999 V2000
   -0.9441    0.9861   -0.1625 N   0  0  0  0  0  2  0  0  0  0  0  0
    0.3347   -1.2963    0.0341 C   0  0  2  0  0  3  0  0  0  0  0  0
    1.1104   -1.0513    1.2154 C   0  0  0  0  0  0  0  0  0  0  0  0
    2.4427   -0.7348    0.8008 C   0  0  0  0  0  0  0  0  0  0  0  0
    2.4911   -0.8024   -0.6399 C   0  0  0  0  0  0  0  0  0  0  0  0
    1.1881   -1.1592   -1.1105 C   0  0  0  0  0  0  0  0  0  0  0  0
    0.5765   -1.1012    2.6137 C   0  0  0  0  0  0  0  0  0  0  0  0
    3.6134   -0.4687    1.6982 C   0  0  0  0  0  0  0  0  0  0  0  0
    3.7206   -0.6230   -1.4780 C   0  0  0  0  0  0  0  0  0  0  0  0
    0.7459   -1.3332   -2.5305 C   0  0  0  0  0  0  0  0  0  0  0  0
   -1.1446   -1.3886   -0.0042 C   0  0  0  0  0  0  0  0  0  0  0  0
   -1.9030   -2.5626    0.0585 C   0  0  0  0  0  0  0  0  0  0  0  0
   -3.3086   -2.4897    0.0485 C   0  0  0  0  0  0  0  0  0  0  0  0
   -3.9402   -1.2376   -0.0096 C   0  0  0  0  0  0  0  0  0  0  0  0
   -3.2069   -0.0393   -0.0808 C   0  0  0  0  0  0  0  0  0  0  0  0
   -1.7892   -0.1218   -0.0941 C   0  0  0  0  0  0  0  0  0  0  0  0
   -1.5700    2.2940   -0.3645 C   0  0  0  0  0  0  0  0  0  0  0  0
   -2.9027    2.4089    0.3832 C   0  0  0  0  0  0  0  0  0  0  0  0
   -3.8666    1.3227   -0.1087 C   0  0  0  0  0  0  0  0  0  0  0  0
   -5.0410   -1.1810    0.0092 H   0  0  0  0  0  0  0  0  0  0  0  0
   -2.7158    2.2871    1.4719 H   0  0  0  0  0  0  0  0  0  0  0  0
   -0.8670    3.0872   -0.0311 H   0  0  0  0  0  0  0  0  0  0  0  0
   -3.9104   -3.4090    0.1009 H   0  0  0  0  0  0  0  0  0  0  0  0
    4.3992    0.1451   -1.0573 H   0  0  0  0  0  0  0  0  0  0  0  0
   -4.1911    1.5644   -1.1467 H   0  0  0  0  0  0  0  0  0  0  0  0
   -1.3910   -3.5348    0.1225 H   0  0  0  0  0  0  0  0  0  0  0  0
   -1.7453    2.4691   -1.4535 H   0  0  0  0  0  0  0  0  0  0  0  0
    3.4715   -0.3177   -2.5121 H   0  0  0  0  0  0  0  0  0  0  0  0
   -4.7928    1.3073    0.5029 H   0  0  0  0  0  0  0  0  0  0  0  0
   -3.3331    3.4198    0.2327 H   0  0  0  0  0  0  0  0  0  0  0  0
    3.2950   -0.0717    2.6809 H   0  0  0  0  0  0  0  0  0  0  0  0
    4.2989   -1.5705   -1.5400 H   0  0  0  0  0  0  0  0  0  0  0  0
   -0.2993   -0.9900   -2.6641 H   0  0  0  0  0  0  0  0  0  0  0  0
    1.1814   -0.4902    3.3103 H   0  0  0  0  0  0  0  0  0  0  0  0
    1.3905   -0.7759   -3.2365 H   0  0  0  0  0  0  0  0  0  0  0  0
    4.3162    0.2637    1.2540 H   0  0  0  0  0  0  0  0  0  0  0  0
    0.7763   -2.4042   -2.8250 H   0  0  0  0  0  0  0  0  0  0  0  0
    4.1894   -1.4011    1.8852 H   0  0  0  0  0  0  0  0  0  0  0  0
   -0.4712   -0.7420    2.6516 H   0  0  0  0  0  0  0  0  0  0  0  0
    0.5757   -2.1438    2.9979 H   0  0  0  0  0  0  0  0  0  0  0  0
  1 16  1  0  0  0  0
  2 11  1  6  0  0  0
  2  3  1  0  0  0  0
  3  7  1  0  0  0  0
  4  3  2  0  0  0  0
  4  8  1  0  0  0  0
  5  4  1  0  0  0  0
  6  5  2  0  0  0  0
  6  2  1  0  0  0  0
  7 39  1  0  0  0  0
  7 40  1  0  0  0  0
  7 34  1  0  0  0  0
  8 38  1  0  0  0  0
  8 31  1  0  0  0  0
  9 24  1  0  0  0  0
  9  5  1  0  0  0  0
 10  6  1  0  0  0  0
 11 12  1  0  0  0  0
 12 26  1  0  0  0  0
 13 12  2  0  0  0  0
 13 23  1  0  0  0  0
 14 20  1  0  0  0  0
 14 13  1  0  0  0  0
 15 14  2  0  0  0  0
 16 15  1  0  0  0  0
 16 11  2  0  0  0  0
 17  1  1  0  0  0  0
 17 22  1  0  0  0  0
 17 18  1  0  0  0  0
 18 21  1  0  0  0  0
 19 15  1  0  0  0  0
 19 18  1  0  0  0  0
 19 29  1  0  0  0  0
 25 19  1  0  0  0  0
 27 17  1  0  0  0  0
 28  9  1  0  0  0  0
 30 18  1  0  0  0  0
 32  9  1  0  0  0  0
 33 10  1  0  0  0  0
 35 10  1  0  0  0  0
 36  8  1  0  0  0  0
 37 10  1  0  0  0  0
M  END
