2,15
 OpenBabel05122313053D

 16 17  0  0  0  0  0  0  0  0999 V2000
    1.0801   -1.2663   -1.9804 N   0  0  0  0  0  2  0  0  0  0  0  0
    1.0016    1.6343   -1.6168 N   0  0  0  0  0  2  0  0  0  0  0  0
    2.0609   -0.5893   -1.2559 C   0  0  0  0  0  0  0  0  0  0  0  0
    3.1744   -1.3157   -0.7163 C   0  0  0  0  0  0  0  0  0  0  0  0
    3.2114   -2.3971   -0.9158 H   0  0  0  0  0  0  0  0  0  0  0  0
    4.1887   -0.6717   -0.0272 C   0  0  0  0  0  0  0  0  0  0  0  0
    5.0347   -1.2543    0.3690 H   0  0  0  0  0  0  0  0  0  0  0  0
    4.1607    0.7410    0.1504 C   0  0  0  0  0  0  0  0  0  0  0  0
    4.9784    1.2440    0.6874 H   0  0  0  0  0  0  0  0  0  0  0  0
    3.1148    1.4846   -0.3765 C   0  0  0  0  0  0  0  0  0  0  0  0
    3.0968    2.5808   -0.2952 H   0  0  0  0  0  0  0  0  0  0  0  0
    2.0486    0.8629   -1.0933 C   0  0  0  0  0  0  0  0  0  0  0  0
    0.1391    0.9788   -2.4584 C   0  0  0  0  0  3  0  0  0  0  0  0
   -0.6140    1.5859   -2.9839 H   0  0  0  0  0  0  0  0  0  0  0  0
    0.1466   -0.4566   -2.5761 C   0  0  0  0  0  3  0  0  0  0  0  0
   -0.5875   -0.9538   -3.2320 H   0  0  0  0  0  0  0  0  0  0  0  0
  1  3  1  0  0  0  0
  2 12  1  0  0  0  0
  3 12  2  0  0  0  0
  3  4  1  0  0  0  0
  4  6  2  0  0  0  0
  5  4  1  0  0  0  0
  6  8  1  0  0  0  0
  6  7  1  0  0  0  0
  8  9  1  0  0  0  0
 10 11  1  0  0  0  0
 10  8  2  0  0  0  0
 12 10  1  0  0  0  0
 13  2  1  0  0  0  0
 14 13  1  0  0  0  0
 15 13  1  0  0  0  0
 15  1  1  0  0  0  0
 16 15  1  0  0  0  0
M  END
