3,15
 OpenBabel05122313053D

 30 31  0  0  1  0  0  0  0  0999 V2000
   -2.4938    1.3688   -2.8496 C   0  0  0  0  0  0  0  0  0  0  0  0
   -4.0963   -1.0291   -1.7065 C   0  0  0  0  0  0  0  0  0  0  0  0
   -1.0631   -1.3794   -2.2409 C   0  0  2  0  0  3  0  0  0  0  0  0
   -0.9677   -2.6959   -1.6788 C   0  0  0  0  0  0  0  0  0  0  0  0
    0.4090   -3.0644   -1.5937 C   0  0  0  0  0  0  0  0  0  0  0  0
    1.1824   -1.9840   -2.1117 C   0  0  0  0  0  0  0  0  0  0  0  0
    0.2828   -0.9573   -2.5106 C   0  0  0  0  0  0  0  0  0  0  0  0
   -2.1645    1.1563    0.7300 C   0  0  0  0  0  0  0  0  0  0  0  0
   -3.5457    1.3071    1.0221 C   0  0  0  0  0  0  0  0  0  0  0  0
   -3.9909    2.2663    1.9426 C   0  0  0  0  0  0  0  0  0  0  0  0
   -3.0786    3.1054    2.6029 C   0  0  0  0  0  0  0  0  0  0  0  0
   -1.7082    2.9745    2.3212 C   0  0  0  0  0  0  0  0  0  0  0  0
   -1.2576    2.0206    1.3999 C   0  0  0  0  0  0  0  0  0  0  0  0
   -2.4180   -0.1611   -1.7556 Si  0  0  0  0  0  0  0  0  0  0  0  0
   -1.6895    0.2032   -0.1807 N   0  0  0  0  0  2  0  0  0  0  0  0
   -1.4826    1.7921   -3.0122 H   0  0  0  0  0  0  0  0  0  0  0  0
   -2.9401    1.1377   -3.8383 H   0  0  0  0  0  0  0  0  0  0  0  0
   -3.1148    2.1491   -2.3634 H   0  0  0  0  0  0  0  0  0  0  0  0
   -4.1082   -1.8423   -0.9530 H   0  0  0  0  0  0  0  0  0  0  0  0
   -4.3185   -1.4733   -2.6993 H   0  0  0  0  0  0  0  0  0  0  0  0
   -4.9168   -0.3243   -1.4628 H   0  0  0  0  0  0  0  0  0  0  0  0
   -1.8144   -3.3030   -1.3300 H   0  0  0  0  0  0  0  0  0  0  0  0
    0.8040   -4.0184   -1.2216 H   0  0  0  0  0  0  0  0  0  0  0  0
    2.2767   -1.9447   -2.1853 H   0  0  0  0  0  0  0  0  0  0  0  0
    0.5795    0.0229   -2.9040 H   0  0  0  0  0  0  0  0  0  0  0  0
   -4.2715    0.6427    0.5305 H   0  0  0  0  0  0  0  0  0  0  0  0
   -5.0688    2.3536    2.1514 H   0  0  0  0  0  0  0  0  0  0  0  0
   -3.4320    3.8556    3.3257 H   0  0  0  0  0  0  0  0  0  0  0  0
   -0.9770    3.6309    2.8190 H   0  0  0  0  0  0  0  0  0  0  0  0
   -0.1859    1.9298    1.1669 H   0  0  0  0  0  0  0  0  0  0  0  0
  1 18  1  0  0  0  0
  1 14  1  0  0  0  0
  2 21  1  0  0  0  0
  2 19  1  0  0  0  0
  3 14  1  1  0  0  0
  3  4  1  0  0  0  0
  4  5  2  0  0  0  0
  4 22  1  0  0  0  0
  5 23  1  0  0  0  0
  6  5  1  0  0  0  0
  7  3  1  0  0  0  0
  7  6  2  0  0  0  0
  8  9  2  0  0  0  0
  8 13  1  0  0  0  0
  9 10  1  0  0  0  0
 10 27  1  0  0  0  0
 10 11  2  0  0  0  0
 11 28  1  0  0  0  0
 12 11  1  0  0  0  0
 12 29  1  0  0  0  0
 13 12  2  0  0  0  0
 14  2  1  0  0  0  0
 14 15  1  0  0  0  0
 15  8  1  0  0  0  0
 16  1  1  0  0  0  0
 17  1  1  0  0  0  0
 20  2  1  0  0  0  0
 24  6  1  0  0  0  0
 25  7  1  0  0  0  0
 26  9  1  0  0  0  0
 30 13  1  0  0  0  0
M  END
