5,6
 OpenBabel05122313053D

 42 44  0  0  0  0  0  0  0  0999 V2000
    1.8811   -1.3433   -3.2473 O   0  0  0  0  0  0  0  0  0  0  0  0
    1.1699    2.1642    0.1975 O   0  0  0  0  0  0  0  0  0  0  0  0
   -2.3917    0.7463   -0.7151 N   0  0  0  0  0  0  0  0  0  0  0  0
   -1.4172   -0.6338   -2.0616 N   0  0  0  0  0  0  0  0  0  0  0  0
    1.2473   -0.0486   -1.3850 N   0  0  0  0  0  2  0  0  0  0  0  0
   -1.2999   -0.0714   -0.8274 C   0  0  0  0  0  2  0  0  0  0  0  0
   -3.1676    0.6999   -1.8701 C   0  0  0  0  0  0  0  0  0  0  0  0
   -4.0808    1.2899   -1.9822 H   0  0  0  0  0  0  0  0  0  0  0  0
   -2.5495   -0.1778   -2.7223 C   0  0  0  0  0  0  0  0  0  0  0  0
   -2.8235   -0.5196   -3.7243 H   0  0  0  0  0  0  0  0  0  0  0  0
   -2.6117    1.6719    0.3800 C   0  0  0  0  0  0  0  0  0  0  0  0
   -1.9679    1.3171    1.2116 H   0  0  0  0  0  0  0  0  0  0  0  0
   -3.6657    1.5879    0.7183 H   0  0  0  0  0  0  0  0  0  0  0  0
   -2.2748    3.1093    0.0293 C   0  0  0  0  0  0  0  0  0  0  0  0
   -2.8325    4.1558    0.7890 C   0  0  0  0  0  0  0  0  0  0  0  0
   -3.5475    3.9232    1.5951 H   0  0  0  0  0  0  0  0  0  0  0  0
   -2.4831    5.4894    0.5303 C   0  0  0  0  0  0  0  0  0  0  0  0
   -2.9251    6.2979    1.1323 H   0  0  0  0  0  0  0  0  0  0  0  0
   -1.5774    5.7906   -0.4999 C   0  0  0  0  0  0  0  0  0  0  0  0
   -1.3035    6.8363   -0.7063 H   0  0  0  0  0  0  0  0  0  0  0  0
   -1.0256    4.7518   -1.2657 C   0  0  0  0  0  0  0  0  0  0  0  0
   -0.3091    4.9772   -2.0699 H   0  0  0  0  0  0  0  0  0  0  0  0
   -1.3695    3.4171   -1.0039 C   0  0  0  0  0  0  0  0  0  0  0  0
   -0.9035    2.6087   -1.5843 H   0  0  0  0  0  0  0  0  0  0  0  0
   -0.3680   -1.4971   -2.5698 C   0  0  0  0  0  0  0  0  0  0  0  0
   -0.5137   -1.6458   -3.6548 H   0  0  0  0  0  0  0  0  0  0  0  0
   -0.4313   -2.4924   -2.0831 H   0  0  0  0  0  0  0  0  0  0  0  0
    1.0672   -0.9274   -2.4063 C   0  0  0  0  0  0  0  0  0  0  0  0
    2.3971    0.7612   -1.3021 C   0  0  0  0  0  0  0  0  0  0  0  0
    3.5979    0.5130   -2.0056 C   0  0  0  0  0  0  0  0  0  0  0  0
    3.6326   -0.3742   -2.6456 H   0  0  0  0  0  0  0  0  0  0  0  0
    4.7122    1.3532   -1.8744 C   0  0  0  0  0  0  0  0  0  0  0  0
    5.6326    1.1148   -2.4287 H   0  0  0  0  0  0  0  0  0  0  0  0
    4.6640    2.4624   -1.0250 C   0  0  0  0  0  0  0  0  0  0  0  0
    5.5392    3.1174   -0.8982 H   0  0  0  0  0  0  0  0  0  0  0  0
    3.4835    2.7387   -0.3154 C   0  0  0  0  0  0  0  0  0  0  0  0
    3.4509    3.6071    0.3545 H   0  0  0  0  0  0  0  0  0  0  0  0
    2.3556    1.9146   -0.4563 C   0  0  0  0  0  0  0  0  0  0  0  0
    1.1491    3.2345    1.1242 C   0  0  0  0  0  0  0  0  0  0  0  0
    1.8638    3.0576    1.9583 H   0  0  0  0  0  0  0  0  0  0  0  0
    0.1160    3.2911    1.5161 H   0  0  0  0  0  0  0  0  0  0  0  0
    1.3782    4.2089    0.6388 H   0  0  0  0  0  0  0  0  0  0  0  0
  1 28  2  0  0  0  0
  2 39  1  0  0  0  0
  3 11  1  0  0  0  0
  4  6  1  0  0  0  0
  5 29  1  0  0  0  0
  6  3  1  0  0  0  0
  7  3  1  0  0  0  0
  8  7  1  0  0  0  0
  9  4  1  0  0  0  0
  9  7  2  0  0  0  0
 10  9  1  0  0  0  0
 11 13  1  0  0  0  0
 11 12  1  0  0  0  0
 14 11  1  0  0  0  0
 14 15  1  0  0  0  0
 15 16  1  0  0  0  0
 17 15  2  0  0  0  0
 17 18  1  0  0  0  0
 19 17  1  0  0  0  0
 20 19  1  0  0  0  0
 21 23  1  0  0  0  0
 21 19  2  0  0  0  0
 22 21  1  0  0  0  0
 23 14  2  0  0  0  0
 24 23  1  0  0  0  0
 25 28  1  0  0  0  0
 25 27  1  0  0  0  0
 25  4  1  0  0  0  0
 26 25  1  0  0  0  0
 28  5  1  0  0  0  0
 29 38  1  0  0  0  0
 30 32  1  0  0  0  0
 30 29  2  0  0  0  0
 31 30  1  0  0  0  0
 32 34  2  0  0  0  0
 33 32  1  0  0  0  0
 34 35  1  0  0  0  0
 34 36  1  0  0  0  0
 36 37  1  0  0  0  0
 38 36  2  0  0  0  0
 38  2  1  0  0  0  0
 39 41  1  0  0  0  0
 39 40  1  0  0  0  0
 42 39  1  0  0  0  0
M  END
