1,11
 OpenBabel05122313053D

 32 33  0  0  0  0  0  0  0  0999 V2000
    0.2142    2.0581   -0.3694 N   0  0  0  0  0  2  0  0  0  0  0  0
    1.0485    3.0464   -0.7734 C   0  0  0  0  0  3  0  0  0  0  0  0
    0.6413    4.3769   -0.8780 C   0  0  0  0  0  0  0  0  0  0  0  0
   -0.6788    4.7118   -0.5326 C   0  0  0  0  0  0  0  0  0  0  0  0
   -1.5464    3.7045   -0.0956 C   0  0  0  0  0  0  0  0  0  0  0  0
   -1.0747    2.3804   -0.0427 C   0  0  0  0  0  0  0  0  0  0  0  0
   -1.7997    1.2908    0.4409 N   0  0  0  0  0  0  0  0  0  0  0  0
   -3.1843    1.4750    0.8850 C   0  0  0  0  0  0  0  0  0  0  0  0
   -3.4772    1.2830    2.0459 O   0  0  0  0  0  0  0  0  0  0  0  0
   -4.1702    1.8056   -0.2049 C   0  0  0  0  0  0  0  0  0  0  0  0
   -1.0944    0.0775    0.5373 C   0  0  0  0  0  2  0  0  0  0  0  0
   -1.8548   -1.0537    1.1861 C   0  0  0  0  0  0  0  0  0  0  0  0
   -3.1090   -1.4454    0.4205 C   0  0  0  0  0  0  0  0  0  0  0  0
   -4.3086   -1.7349    1.1013 C   0  0  0  0  0  0  0  0  0  0  0  0
   -5.4679   -2.0859    0.3936 C   0  0  0  0  0  0  0  0  0  0  0  0
   -5.4455   -2.1503   -1.0096 C   0  0  0  0  0  0  0  0  0  0  0  0
   -4.2554   -1.8604   -1.6965 C   0  0  0  0  0  0  0  0  0  0  0  0
   -3.0938   -1.5086   -0.9910 C   0  0  0  0  0  0  0  0  0  0  0  0
    2.0715    2.7260   -1.0147 H   0  0  0  0  0  0  0  0  0  0  0  0
    1.3571    5.1382   -1.2172 H   0  0  0  0  0  0  0  0  0  0  0  0
   -1.0300    5.7523   -0.5882 H   0  0  0  0  0  0  0  0  0  0  0  0
   -2.5703    3.9463    0.2175 H   0  0  0  0  0  0  0  0  0  0  0  0
   -3.7032    2.2586   -1.0976 H   0  0  0  0  0  0  0  0  0  0  0  0
   -4.9844    2.4375    0.1960 H   0  0  0  0  0  0  0  0  0  0  0  0
   -4.6155    0.8368   -0.5208 H   0  0  0  0  0  0  0  0  0  0  0  0
   -2.1313   -0.7663    2.2224 H   0  0  0  0  0  0  0  0  0  0  0  0
   -1.1688   -1.9193    1.2597 H   0  0  0  0  0  0  0  0  0  0  0  0
   -4.3367   -1.6618    2.1995 H   0  0  0  0  0  0  0  0  0  0  0  0
   -6.3973   -2.3037    0.9419 H   0  0  0  0  0  0  0  0  0  0  0  0
   -6.3561   -2.4214   -1.5656 H   0  0  0  0  0  0  0  0  0  0  0  0
   -4.2273   -1.8988   -2.7963 H   0  0  0  0  0  0  0  0  0  0  0  0
   -2.1769   -1.2403   -1.5467 H   0  0  0  0  0  0  0  0  0  0  0  0
  1  6  1  0  0  0  0
  2  1  1  0  0  0  0
  3  2  1  0  0  0  0
  3  4  2  0  0  0  0
  4  5  1  0  0  0  0
  5  6  2  0  0  0  0
  5 22  1  0  0  0  0
  6  7  1  0  0  0  0
  7 11  1  0  0  0  0
  7  8  1  0  0  0  0
  8  9  2  0  0  0  0
 10 24  1  0  0  0  0
 10  8  1  0  0  0  0
 11 12  1  0  0  0  0
 12 27  1  0  0  0  0
 12 26  1  0  0  0  0
 13 14  1  0  0  0  0
 13 12  1  0  0  0  0
 14 28  1  0  0  0  0
 15 29  1  0  0  0  0
 15 14  2  0  0  0  0
 16 15  1  0  0  0  0
 17 16  2  0  0  0  0
 17 18  1  0  0  0  0
 18 13  2  0  0  0  0
 19  2  1  0  0  0  0
 20  3  1  0  0  0  0
 21  4  1  0  0  0  0
 23 10  1  0  0  0  0
 25 10  1  0  0  0  0
 30 16  1  0  0  0  0
 31 17  1  0  0  0  0
 32 18  1  0  0  0  0
M  END
