2
 OpenBabel05122313053D

 44 45  0  0  1  0  0  0  0  0999 V2000
   -1.4995    0.8364    1.4743 Si  0  0  0  0  0  0  0  0  0  0  0  0
   -1.8229   -0.0592   -0.0183 N   0  0  0  0  0  2  0  0  0  0  0  0
    1.2917    1.2905    0.4853 C   0  0  0  0  0  0  0  0  0  0  0  0
    0.3736    0.6082    1.3799 C   0  0  2  0  0  3  0  0  0  0  0  0
    0.9519   -0.6913    1.5979 C   0  0  0  0  0  0  0  0  0  0  0  0
    2.1279   -0.8770    0.8230 C   0  0  0  0  0  0  0  0  0  0  0  0
    2.3707    0.3759    0.1431 C   0  0  0  0  0  0  0  0  0  0  0  0
    3.4153    0.7909   -0.7301 C   0  0  0  0  0  0  0  0  0  0  0  0
    3.3765    2.0733   -1.2623 C   0  0  0  0  0  0  0  0  0  0  0  0
    2.3050    2.9623   -0.9579 C   0  0  0  0  0  0  0  0  0  0  0  0
    1.2694    2.5850   -0.1120 C   0  0  0  0  0  0  0  0  0  0  0  0
    3.0509   -2.0629    0.8417 C   0  0  0  0  0  0  0  0  0  0  0  0
    4.2223   -1.8839    1.8205 C   0  0  0  0  0  0  0  0  0  0  0  0
   -2.1988    0.0310    3.0354 C   0  0  0  0  0  0  0  0  0  0  0  0
   -2.0140    2.6571    1.4407 C   0  0  0  0  0  0  0  0  0  0  0  0
   -3.1115   -0.4269   -0.6344 C   0  0  0  0  0  0  0  0  0  0  0  0
   -4.1234    0.7292   -0.5299 C   0  0  0  0  0  0  0  0  0  0  0  0
   -2.8749   -0.7493   -2.1241 C   0  0  0  0  0  0  0  0  0  0  0  0
   -3.6813   -1.6772    0.0692 C   0  0  0  0  0  0  0  0  0  0  0  0
    0.4899   -1.4843    2.2048 H   0  0  0  0  0  0  0  0  0  0  0  0
    4.2433    0.1060   -0.9688 H   0  0  0  0  0  0  0  0  0  0  0  0
    4.1822    2.4125   -1.9307 H   0  0  0  0  0  0  0  0  0  0  0  0
    2.3031    3.9697   -1.4009 H   0  0  0  0  0  0  0  0  0  0  0  0
    0.4566    3.2859    0.1249 H   0  0  0  0  0  0  0  0  0  0  0  0
    2.4725   -2.9722    1.1060 H   0  0  0  0  0  0  0  0  0  0  0  0
    3.4474   -2.2422   -0.1811 H   0  0  0  0  0  0  0  0  0  0  0  0
    4.8942   -2.7661    1.8088 H   0  0  0  0  0  0  0  0  0  0  0  0
    4.8271   -0.9906    1.5636 H   0  0  0  0  0  0  0  0  0  0  0  0
    3.8546   -1.7463    2.8573 H   0  0  0  0  0  0  0  0  0  0  0  0
   -1.9253   -1.0413    3.0964 H   0  0  0  0  0  0  0  0  0  0  0  0
   -1.8111    0.5421    3.9410 H   0  0  0  0  0  0  0  0  0  0  0  0
   -3.3061    0.0993    3.0564 H   0  0  0  0  0  0  0  0  0  0  0  0
   -3.0975    2.7746    1.6433 H   0  0  0  0  0  0  0  0  0  0  0  0
   -1.4600    3.2217    2.2192 H   0  0  0  0  0  0  0  0  0  0  0  0
   -1.8021    3.1189    0.4563 H   0  0  0  0  0  0  0  0  0  0  0  0
   -4.3659    0.9506    0.5297 H   0  0  0  0  0  0  0  0  0  0  0  0
   -5.0731    0.4733   -1.0427 H   0  0  0  0  0  0  0  0  0  0  0  0
   -3.7148    1.6506   -0.9906 H   0  0  0  0  0  0  0  0  0  0  0  0
   -2.5151    0.1440   -2.6712 H   0  0  0  0  0  0  0  0  0  0  0  0
   -3.8024   -1.1082   -2.6141 H   0  0  0  0  0  0  0  0  0  0  0  0
   -2.1230   -1.5615   -2.2413 H   0  0  0  0  0  0  0  0  0  0  0  0
   -2.9684   -2.5224   -0.0138 H   0  0  0  0  0  0  0  0  0  0  0  0
   -4.6489   -1.9875   -0.3772 H   0  0  0  0  0  0  0  0  0  0  0  0
   -3.8479   -1.4783    1.1464 H   0  0  0  0  0  0  0  0  0  0  0  0
  1 14  1  0  0  0  0
  2  1  1  0  0  0  0
  3  4  1  0  0  0  0
  4  1  1  6  0  0  0
  4  5  1  0  0  0  0
  5 20  1  0  0  0  0
  6 12  1  0  0  0  0
  6  5  2  0  0  0  0
  7  3  1  0  0  0  0
  7  6  1  0  0  0  0
  8  7  2  0  0  0  0
  9 10  2  0  0  0  0
  9  8  1  0  0  0  0
 10 11  1  0  0  0  0
 11 24  1  0  0  0  0
 11  3  2  0  0  0  0
 12 25  1  0  0  0  0
 12 13  1  0  0  0  0
 13 29  1  0  0  0  0
 14 32  1  0  0  0  0
 14 30  1  0  0  0  0
 14 31  1  0  0  0  0
 15  1  1  0  0  0  0
 15 33  1  0  0  0  0
 15 34  1  0  0  0  0
 16 17  1  0  0  0  0
 16  2  1  0  0  0  0
 16 19  1  0  0  0  0
 17 36  1  0  0  0  0
 18 16  1  0  0  0  0
 19 44  1  0  0  0  0
 21  8  1  0  0  0  0
 22  9  1  0  0  0  0
 23 10  1  0  0  0  0
 26 12  1  0  0  0  0
 27 13  1  0  0  0  0
 28 13  1  0  0  0  0
 35 15  1  0  0  0  0
 37 17  1  0  0  0  0
 38 17  1  0  0  0  0
 39 18  1  0  0  0  0
 40 18  1  0  0  0  0
 41 18  1  0  0  0  0
 42 19  1  0  0  0  0
 43 19  1  0  0  0  0
M  END
