3,7
 OpenBabel05122313053D

 46 48  0  0  1  0  0  0  0  0999 V2000
    1.3556    1.2901   -0.0002 N   0  0  0  0  0  0  0  0  0  0  0  0
   -0.6609    2.0836   -0.0005 N   0  0  0  0  0  0  0  0  0  0  0  0
   -2.5880    0.8231   -0.0002 N   0  0  0  0  0  2  0  0  0  0  0  0
    4.1471   -0.8496    1.2160 C   0  0  0  0  0  0  0  0  0  0  0  0
    4.5853   -1.1978    2.1627 H   0  0  0  0  0  0  0  0  0  0  0  0
    3.0483    0.0281   -1.2451 C   0  0  0  0  0  0  0  0  0  0  0  0
    0.0487    0.8770   -0.0003 C   0  0  0  0  0  2  0  0  0  0  0  0
   -2.0675    2.0679   -0.0004 C   0  0  1  0  0  3  0  0  0  0  0  0
    2.4377    0.4761   -2.5676 C   0  0  0  0  0  0  0  0  0  0  0  0
    1.8212    1.3762   -2.3623 H   0  0  0  0  0  0  0  0  0  0  0  0
    2.5084    0.4273    0.0001 C   0  0  0  0  0  0  0  0  0  0  0  0
   -4.7959    1.7659   -0.0000 C   0  0  0  0  0  0  0  0  0  0  0  0
   -5.8825    1.6022    0.0001 H   0  0  0  0  0  0  0  0  0  0  0  0
   -4.2523    3.0604   -0.0002 C   0  0  0  0  0  0  0  0  0  0  0  0
   -4.9071    3.9445   -0.0001 H   0  0  0  0  0  0  0  0  0  0  0  0
    1.4594    2.6837   -0.0004 C   0  0  0  0  0  0  0  0  0  0  0  0
    2.4323    3.1835   -0.0004 H   0  0  0  0  0  0  0  0  0  0  0  0
    4.6850   -1.2910    0.0008 C   0  0  0  0  0  0  0  0  0  0  0  0
    5.5391   -1.9852    0.0010 H   0  0  0  0  0  0  0  0  0  0  0  0
   -3.9253    0.6693   -0.0001 C   0  0  0  0  0  0  0  0  0  0  0  0
   -4.2605   -0.3842   -0.0000 H   0  0  0  0  0  0  0  0  0  0  0  0
    4.1478   -0.8497   -1.2148 C   0  0  0  0  0  0  0  0  0  0  0  0
    4.5865   -1.1981   -2.1612 H   0  0  0  0  0  0  0  0  0  0  0  0
    2.4365    0.4765    2.5678 C   0  0  0  0  0  0  0  0  0  0  0  0
    1.8195    1.3761    2.3620 H   0  0  0  0  0  0  0  0  0  0  0  0
    0.1903    3.1868   -0.0005 C   0  0  0  0  0  0  0  0  0  0  0  0
   -0.1641    4.2203   -0.0007 H   0  0  0  0  0  0  0  0  0  0  0  0
    3.0477    0.0282    1.2457 C   0  0  0  0  0  0  0  0  0  0  0  0
   -2.8611    3.2253   -0.0003 C   0  0  0  0  0  0  0  0  0  0  0  0
   -2.4104    4.2266   -0.0004 H   0  0  0  0  0  0  0  0  0  0  0  0
    1.4924   -0.6039    3.1277 C   0  0  0  0  0  0  0  0  0  0  0  0
    0.6680   -0.8255    2.4214 H   0  0  0  0  0  0  0  0  0  0  0  0
    1.0486   -0.2702    4.0880 H   0  0  0  0  0  0  0  0  0  0  0  0
    2.0429   -1.5491    3.3141 H   0  0  0  0  0  0  0  0  0  0  0  0
    1.4929   -0.6039   -3.1271 C   0  0  0  0  0  0  0  0  0  0  0  0
    1.0495   -0.2704   -4.0877 H   0  0  0  0  0  0  0  0  0  0  0  0
    0.6682   -0.8247   -2.4208 H   0  0  0  0  0  0  0  0  0  0  0  0
    2.0429   -1.5496   -3.3130 H   0  0  0  0  0  0  0  0  0  0  0  0
    3.5006    0.8830    3.5988 C   0  0  0  0  0  0  0  0  0  0  0  0
    4.1998    1.6415    3.1922 H   0  0  0  0  0  0  0  0  0  0  0  0
    4.1023    0.0140    3.9354 H   0  0  0  0  0  0  0  0  0  0  0  0
    3.0158    1.3083    4.5006 H   0  0  0  0  0  0  0  0  0  0  0  0
    3.5022    0.8814   -3.5987 C   0  0  0  0  0  0  0  0  0  0  0  0
    3.0178    1.3066   -4.5007 H   0  0  0  0  0  0  0  0  0  0  0  0
    4.1033    0.0117   -3.9349 H   0  0  0  0  0  0  0  0  0  0  0  0
    4.2019    1.6395   -3.1924 H   0  0  0  0  0  0  0  0  0  0  0  0
  1 11  1  0  0  0  0
  2  7  1  0  0  0  0
  3 20  1  0  0  0  0
  4 28  1  0  0  0  0
  4  5  1  0  0  0  0
  6 22  2  0  0  0  0
  6 11  1  0  0  0  0
  7  1  1  0  0  0  0
  8  2  1  1  0  0  0
  8 29  1  0  0  0  0
  8  3  1  0  0  0  0
  9 10  1  0  0  0  0
  9  6  1  0  0  0  0
 11 28  2  0  0  0  0
 12 13  1  0  0  0  0
 14 15  1  0  0  0  0
 14 12  1  0  0  0  0
 16  1  1  0  0  0  0
 17 16  1  0  0  0  0
 18 19  1  0  0  0  0
 18  4  2  0  0  0  0
 20 12  2  0  0  0  0
 20 21  1  0  0  0  0
 22 18  1  0  0  0  0
 23 22  1  0  0  0  0
 24 31  1  0  0  0  0
 24 39  1  0  0  0  0
 25 24  1  0  0  0  0
 26  2  1  0  0  0  0
 26 16  2  0  0  0  0
 27 26  1  0  0  0  0
 28 24  1  0  0  0  0
 29 14  2  0  0  0  0
 30 29  1  0  0  0  0
 31 34  1  0  0  0  0
 31 33  1  0  0  0  0
 32 31  1  0  0  0  0
 35  9  1  0  0  0  0
 35 37  1  0  0  0  0
 36 35  1  0  0  0  0
 38 35  1  0  0  0  0
 39 41  1  0  0  0  0
 39 42  1  0  0  0  0
 40 39  1  0  0  0  0
 43 46  1  0  0  0  0
 43  9  1  0  0  0  0
 44 43  1  0  0  0  0
 45 43  1  0  0  0  0
M  END
