6,20
 OpenBabel05122313053D

 29 29  0  0  0  0  0  0  0  0999 V2000
    1.8873    2.6373    0.1604 Cl  0  0  0  0  0  0  0  0  0  0  0  0
   -1.6148   -1.6763    3.1755 O   0  0  0  0  0  0  0  0  0  0  0  0
   -2.1146    0.1918    1.8099 C   0  0  0  0  0  3  0  0  0  0  0  0
   -2.7955    0.6580    2.5371 H   0  0  0  0  0  0  0  0  0  0  0  0
   -1.2843   -0.9746    2.2221 C   0  0  0  0  0  0  0  0  0  0  0  0
   -0.1142   -1.2024    1.3470 C   0  0  0  0  0  3  0  0  0  0  0  0
    0.3699   -2.1792    1.5028 H   0  0  0  0  0  0  0  0  0  0  0  0
    0.6475   -0.0547    0.9107 C   0  0  0  0  0  3  0  0  0  0  0  0
    0.2926    0.9362    1.2364 H   0  0  0  0  0  0  0  0  0  0  0  0
    2.0928   -0.0693    0.6198 C   0  0  0  0  0  0  0  0  0  0  0  0
    2.7718    1.1262    0.2643 C   0  0  0  0  0  0  0  0  0  0  0  0
    4.1439    1.1506   -0.0204 C   0  0  0  0  0  0  0  0  0  0  0  0
    4.6170    2.1045   -0.2922 H   0  0  0  0  0  0  0  0  0  0  0  0
    4.8871   -0.0363    0.0433 C   0  0  0  0  0  0  0  0  0  0  0  0
    5.9638   -0.0184   -0.1815 H   0  0  0  0  0  0  0  0  0  0  0  0
    4.2494   -1.2358    0.3967 C   0  0  0  0  0  0  0  0  0  0  0  0
    4.8232   -2.1725    0.4557 H   0  0  0  0  0  0  0  0  0  0  0  0
    2.8797   -1.2441    0.6808 C   0  0  0  0  0  0  0  0  0  0  0  0
    2.3964   -2.1898    0.9652 H   0  0  0  0  0  0  0  0  0  0  0  0
   -2.0827    0.4980    0.5347 N   0  0  0  0  0  2  0  0  0  0  0  0
   -2.8030    1.5257    0.0348 N   0  0  0  0  0  0  0  0  0  0  0  0
   -3.5925    2.3257    0.9495 C   0  0  0  0  0  0  0  0  0  0  0  0
   -2.9565    2.7066    1.7738 H   0  0  0  0  0  0  0  0  0  0  0  0
   -3.9978    3.1879    0.3897 H   0  0  0  0  0  0  0  0  0  0  0  0
   -4.4461    1.7587    1.3933 H   0  0  0  0  0  0  0  0  0  0  0  0
   -3.3254    1.4085   -1.3186 C   0  0  0  0  0  0  0  0  0  0  0  0
   -2.6679    0.7491   -1.9072 H   0  0  0  0  0  0  0  0  0  0  0  0
   -4.3521    0.9737   -1.3173 H   0  0  0  0  0  0  0  0  0  0  0  0
   -3.3568    2.4085   -1.7931 H   0  0  0  0  0  0  0  0  0  0  0  0
  1 11  1  0  0  0  0
  3  5  1  0  0  0  0
  3  4  1  0  0  0  0
  5  2  2  0  0  0  0
  6  7  1  0  0  0  0
  6  5  1  0  0  0  0
  8  9  1  0  0  0  0
  8  6  1  0  0  0  0
 10 18  1  0  0  0  0
 10  8  1  0  0  0  0
 11 10  2  0  0  0  0
 12 14  2  0  0  0  0
 12 11  1  0  0  0  0
 13 12  1  0  0  0  0
 14 16  1  0  0  0  0
 15 14  1  0  0  0  0
 16 17  1  0  0  0  0
 16 18  2  0  0  0  0
 18 19  1  0  0  0  0
 20  3  1  0  0  0  0
 21 20  1  0  0  0  0
 21 22  1  0  0  0  0
 22 25  1  0  0  0  0
 22 23  1  0  0  0  0
 24 22  1  0  0  0  0
 26 28  1  0  0  0  0
 26 21  1  0  0  0  0
 27 26  1  0  0  0  0
 29 26  1  0  0  0  0
M  END
