1,2
 OpenBabel05122313053D

 23 24  0  0  0  0  0  0  0  0999 V2000
   -0.9818    0.5030   -0.0056 N   0  0  0  0  0  2  0  0  0  0  0  0
    1.2369    1.8505    0.0018 C   0  0  0  0  0  2  0  0  0  0  0  0
   -1.1879    1.8687   -0.0062 C   0  0  0  0  0  0  0  0  0  0  0  0
   -2.0243   -0.3549   -0.0088 C   0  0  0  0  0  0  0  0  0  0  0  0
   -1.7594   -1.4230   -0.0102 H   0  0  0  0  0  0  0  0  0  0  0  0
    0.0439    2.6427   -0.0016 C   0  0  0  0  0  0  0  0  0  0  0  0
   -2.5078    2.3645   -0.0132 C   0  0  0  0  0  0  0  0  0  0  0  0
   -2.6707    3.4506   -0.0170 H   0  0  0  0  0  0  0  0  0  0  0  0
    0.1099    4.0539   -0.0001 C   0  0  0  0  0  0  0  0  0  0  0  0
   -0.8115    4.6572   -0.0027 H   0  0  0  0  0  0  0  0  0  0  0  0
    2.4789    2.5148    0.0064 C   0  0  0  0  0  0  0  0  0  0  0  0
    3.4034    1.9177    0.0089 H   0  0  0  0  0  0  0  0  0  0  0  0
   -3.3444    0.0979   -0.0141 C   0  0  0  0  0  0  0  0  0  0  0  0
   -3.5895    1.4868   -0.0177 C   0  0  0  0  0  0  0  0  0  0  0  0
   -4.6211    1.8679   -0.0278 H   0  0  0  0  0  0  0  0  0  0  0  0
    2.5343    3.9165    0.0079 C   0  0  0  0  0  0  0  0  0  0  0  0
    3.5130    4.4223    0.0117 H   0  0  0  0  0  0  0  0  0  0  0  0
   -4.0781   -2.1547   -0.1537 F   0  0  0  0  0  0  0  0  0  0  0  0
   -4.4927   -0.8786    0.0059 C   0  0  0  0  0  0  0  0  0  0  0  0
    1.3545    4.6894    0.0047 C   0  0  0  0  0  0  0  0  0  0  0  0
    1.4127    5.7878    0.0059 H   0  0  0  0  0  0  0  0  0  0  0  0
   -5.3832   -0.6053   -0.9795 F   0  0  0  0  0  0  0  0  0  0  0  0
   -5.1730   -0.8125    1.1773 F   0  0  0  0  0  0  0  0  0  0  0  0
  2 11  1  0  0  0  0
  3  1  1  0  0  0  0
  3  6  2  0  0  0  0
  4  1  1  0  0  0  0
  5  4  1  0  0  0  0
  6  9  1  0  0  0  0
  6  2  1  0  0  0  0
  7  3  1  0  0  0  0
  8  7  1  0  0  0  0
  9 20  2  0  0  0  0
 10  9  1  0  0  0  0
 11 16  2  0  0  0  0
 11 12  1  0  0  0  0
 13  4  2  0  0  0  0
 13 19  1  0  0  0  0
 14 13  1  0  0  0  0
 14  7  2  0  0  0  0
 15 14  1  0  0  0  0
 16 17  1  0  0  0  0
 18 19  1  0  0  0  0
 19 23  1  0  0  0  0
 20 21  1  0  0  0  0
 20 16  1  0  0  0  0
 22 19  1  0  0  0  0
M  END
