1,2
 OpenBabel05122313053D

 42 43  0  0  0  0  0  0  0  0999 V2000
   -1.1029    0.8360   -0.1031 N   0  0  0  0  0  2  0  0  0  0  0  0
    1.3092    1.8729   -0.1406 C   0  0  0  0  0  2  0  0  0  0  0  0
   -1.0882    2.1455   -0.1702 C   0  0  0  0  0  0  0  0  0  0  0  0
   -2.0438    2.7014   -0.1863 H   0  0  0  0  0  0  0  0  0  0  0  0
    0.2003    2.7862   -0.2029 C   0  0  0  0  0  0  0  0  0  0  0  0
    2.5993    2.4401   -0.1538 C   0  0  0  0  0  0  0  0  0  0  0  0
    3.4868    1.7899   -0.1061 H   0  0  0  0  0  0  0  0  0  0  0  0
    0.3813    4.1847   -0.2769 C   0  0  0  0  0  0  0  0  0  0  0  0
   -0.4962    4.8494   -0.3233 H   0  0  0  0  0  0  0  0  0  0  0  0
    2.7762    3.8332   -0.2275 C   0  0  0  0  0  0  0  0  0  0  0  0
    3.7979    4.2458   -0.2365 H   0  0  0  0  0  0  0  0  0  0  0  0
    1.6763    4.7114   -0.2898 C   0  0  0  0  0  0  0  0  0  0  0  0
    1.8361    5.7981   -0.3471 H   0  0  0  0  0  0  0  0  0  0  0  0
   -2.8826   -0.1516    1.2617 C   0  0  0  0  0  0  0  0  0  0  0  0
   -2.1385    0.2149    2.5394 C   0  0  0  0  0  0  0  0  0  0  0  0
   -1.2127    0.7494    2.2450 H   0  0  0  0  0  0  0  0  0  0  0  0
   -4.1125   -0.8327    1.3157 C   0  0  0  0  0  0  0  0  0  0  0  0
   -4.5654   -1.0470    2.2960 H   0  0  0  0  0  0  0  0  0  0  0  0
   -2.3372    0.1138   -0.0172 C   0  0  0  0  0  0  0  0  0  0  0  0
   -4.7582   -1.2543    0.1467 C   0  0  0  0  0  0  0  0  0  0  0  0
   -5.7220   -1.7820    0.2106 H   0  0  0  0  0  0  0  0  0  0  0  0
   -4.1656   -1.0281   -1.1021 C   0  0  0  0  0  0  0  0  0  0  0  0
   -4.6615   -1.3925   -2.0149 H   0  0  0  0  0  0  0  0  0  0  0  0
   -2.0577   -1.5078   -3.2781 C   0  0  0  0  0  0  0  0  0  0  0  0
   -3.0249   -1.9820   -3.5456 H   0  0  0  0  0  0  0  0  0  0  0  0
   -1.4940   -2.2059   -2.6278 H   0  0  0  0  0  0  0  0  0  0  0  0
   -1.4881   -1.3619   -4.2191 H   0  0  0  0  0  0  0  0  0  0  0  0
   -2.9355   -0.3551   -1.2102 C   0  0  0  0  0  0  0  0  0  0  0  0
   -2.2596   -0.1634   -2.5610 C   0  0  0  0  0  0  0  0  0  0  0  0
   -1.2478    0.2481   -2.3650 H   0  0  0  0  0  0  0  0  0  0  0  0
   -1.6969   -1.0592    3.2821 C   0  0  0  0  0  0  0  0  0  0  0  0
   -2.5714   -1.6357    3.6498 H   0  0  0  0  0  0  0  0  0  0  0  0
   -1.0704   -0.8002    4.1610 H   0  0  0  0  0  0  0  0  0  0  0  0
   -1.1126   -1.7167    2.6073 H   0  0  0  0  0  0  0  0  0  0  0  0
   -2.9532    1.1567    3.4391 C   0  0  0  0  0  0  0  0  0  0  0  0
   -3.2297    2.0894    2.9065 H   0  0  0  0  0  0  0  0  0  0  0  0
   -2.3721    1.4361    4.3418 H   0  0  0  0  0  0  0  0  0  0  0  0
   -3.8935    0.6784    3.7842 H   0  0  0  0  0  0  0  0  0  0  0  0
   -3.0181    0.8524   -3.4309 C   0  0  0  0  0  0  0  0  0  0  0  0
   -2.4987    1.0099   -4.3986 H   0  0  0  0  0  0  0  0  0  0  0  0
   -3.1048    1.8357   -2.9245 H   0  0  0  0  0  0  0  0  0  0  0  0
   -4.0476    0.5014   -3.6530 H   0  0  0  0  0  0  0  0  0  0  0  0
  1 19  1  0  0  0  0
  3  1  1  0  0  0  0
  4  3  1  0  0  0  0
  5  3  2  0  0  0  0
  5  2  1  0  0  0  0
  6  2  1  0  0  0  0
  6  7  1  0  0  0  0
  8  5  1  0  0  0  0
  9  8  1  0  0  0  0
 10  6  2  0  0  0  0
 11 10  1  0  0  0  0
 12  8  2  0  0  0  0
 12 10  1  0  0  0  0
 13 12  1  0  0  0  0
 14 17  1  0  0  0  0
 14 15  1  0  0  0  0
 15 31  1  0  0  0  0
 15 35  1  0  0  0  0
 16 15  1  0  0  0  0
 17 18  1  0  0  0  0
 19 14  2  0  0  0  0
 20 21  1  0  0  0  0
 20 17  2  0  0  0  0
 22 20  1  0  0  0  0
 23 22  1  0  0  0  0
 24 26  1  0  0  0  0
 24 29  1  0  0  0  0
 25 24  1  0  0  0  0
 27 24  1  0  0  0  0
 28 22  2  0  0  0  0
 28 19  1  0  0  0  0
 29 30  1  0  0  0  0
 29 28  1  0  0  0  0
 31 32  1  0  0  0  0
 31 33  1  0  0  0  0
 34 31  1  0  0  0  0
 35 38  1  0  0  0  0
 35 37  1  0  0  0  0
 36 35  1  0  0  0  0
 39 41  1  0  0  0  0
 39 29  1  0  0  0  0
 40 39  1  0  0  0  0
 42 39  1  0  0  0  0
M  END
