1,6
 OpenBabel05122313053D

 28 30  0  0  1  0  0  0  0  0999 V2000
    1.1880   -0.1001    0.0550 N   0  0  0  0  0  2  0  0  0  0  0  0
    2.2529   -0.8847    0.1991 C   0  0  0  0  0  0  0  0  0  0  0  0
    2.0705   -1.9701    0.2351 H   0  0  0  0  0  0  0  0  0  0  0  0
    2.5840    1.8605    0.0298 N   0  0  0  0  0  0  0  0  0  0  0  0
    1.3979    1.2832   -0.0737 C   0  0  0  0  0  0  0  0  0  0  0  0
   -0.9860    1.1968   -0.5164 C   0  0  0  0  0  3  0  0  0  0  0  0
    3.5632   -0.3549    0.3098 C   0  0  0  0  0  0  0  0  0  0  0  0
    0.1770    2.0049   -0.3757 C   0  0  0  0  0  0  0  0  0  0  0  0
   -2.1721    1.8424   -0.9202 C   0  0  0  0  0  0  0  0  0  0  0  0
   -3.0827    1.2502   -1.1023 H   0  0  0  0  0  0  0  0  0  0  0  0
   -2.2308    3.2348   -1.1307 C   0  0  0  0  0  0  0  0  0  0  0  0
    5.9665   -0.5519    0.6140 C   0  0  0  0  0  0  0  0  0  0  0  0
    6.8681   -1.1663    0.7552 H   0  0  0  0  0  0  0  0  0  0  0  0
    3.6768    1.0797    0.2376 C   0  0  1  0  0  3  0  0  0  0  0  0
    4.7236   -1.1567    0.4935 C   0  0  0  0  0  0  0  0  0  0  0  0
    4.6194   -2.2521    0.5389 H   0  0  0  0  0  0  0  0  0  0  0  0
    0.1390    3.4013   -0.5785 C   0  0  0  0  0  0  0  0  0  0  0  0
    1.0680    3.9778   -0.4533 H   0  0  0  0  0  0  0  0  0  0  0  0
    4.9670    1.6694    0.3690 C   0  0  0  0  0  0  0  0  0  0  0  0
    5.0373    2.7650    0.3119 H   0  0  0  0  0  0  0  0  0  0  0  0
    6.0834    0.8656    0.5537 C   0  0  0  0  0  0  0  0  0  0  0  0
    7.0777    1.3276    0.6511 H   0  0  0  0  0  0  0  0  0  0  0  0
   -3.5107    3.8961   -1.5745 C   0  0  0  0  0  0  0  0  0  0  0  0
   -3.4115    4.3023   -2.6037 H   0  0  0  0  0  0  0  0  0  0  0  0
   -3.7729    4.7528   -0.9192 H   0  0  0  0  0  0  0  0  0  0  0  0
   -4.3615    3.1875   -1.5740 H   0  0  0  0  0  0  0  0  0  0  0  0
   -1.0601    4.0115   -0.9401 C   0  0  0  0  0  0  0  0  0  0  0  0
   -1.1000    5.1007   -1.0984 H   0  0  0  0  0  0  0  0  0  0  0  0
  1  2  1  0  0  0  0
  2  3  1  0  0  0  0
  2  7  2  0  0  0  0
  5  4  2  0  0  0  0
  5  1  1  0  0  0  0
  6  8  1  0  0  0  0
  7 15  1  0  0  0  0
  8  5  1  0  0  0  0
  9  6  2  0  0  0  0
 10  9  1  0  0  0  0
 11 27  2  0  0  0  0
 11  9  1  0  0  0  0
 12 13  1  0  0  0  0
 14  4  1  6  0  0  0
 14  7  1  0  0  0  0
 14 19  1  0  0  0  0
 15 16  1  0  0  0  0
 15 12  2  0  0  0  0
 17 18  1  0  0  0  0
 17  8  2  0  0  0  0
 19 21  2  0  0  0  0
 20 19  1  0  0  0  0
 21 12  1  0  0  0  0
 21 22  1  0  0  0  0
 23 26  1  0  0  0  0
 23 11  1  0  0  0  0
 23 25  1  0  0  0  0
 24 23  1  0  0  0  0
 27 17  1  0  0  0  0
 28 27  1  0  0  0  0
M  END
