1,3
 OpenBabel05122313053D

 44 46  0  0  1  0  0  0  0  0999 V2000
    0.1061    1.0632   -0.0512 N   0  0  0  0  0  2  0  0  0  0  0  0
   -1.9828    1.8752    0.2968 N   0  0  0  0  0  0  0  0  0  0  0  0
   -0.3778   -1.4547    0.0557 C   0  0  0  0  0  3  0  0  0  0  0  0
   -1.5288   -0.6381   -0.0664 C   0  0  0  0  0  0  0  0  0  0  0  0
   -1.1829    0.7772    0.0460 C   0  0  0  0  0  0  0  0  0  0  0  0
    0.3384    2.4976    0.1126 C   0  0  2  0  0  0  0  0  0  0  0  0
   -1.1051    3.0649    0.2657 C   0  0  0  0  0  0  0  0  0  0  0  0
   -3.0481    1.8085    1.3226 C   0  0  0  0  0  0  0  0  0  0  0  0
   -4.0778    2.9144    1.0934 C   0  0  0  0  0  0  0  0  0  0  0  0
   -2.4766    1.8091    2.7481 C   0  0  0  0  0  0  0  0  0  0  0  0
    1.1555    3.0948   -1.0573 C   0  0  0  0  0  0  0  0  0  0  0  0
    0.5197    2.8168   -2.4217 C   0  0  0  0  0  0  0  0  0  0  0  0
    1.4131    4.5874   -0.8262 C   0  0  0  0  0  0  0  0  0  0  0  0
   -2.8174   -1.2089   -0.3526 C   0  0  0  0  0  0  0  0  0  0  0  0
   -3.9559   -0.4548   -0.7688 C   0  0  0  0  0  0  0  0  0  0  0  0
   -5.1737   -1.0733   -1.0244 C   0  0  0  0  0  0  0  0  0  0  0  0
   -5.3151   -2.4775   -0.8811 C   0  0  0  0  0  0  0  0  0  0  0  0
   -4.2127   -3.2456   -0.5340 C   0  0  0  0  0  3  0  0  0  0  0  0
   -2.9432   -2.6469   -0.2894 C   0  0  0  0  0  0  0  0  0  0  0  0
   -1.7831   -3.4392   -0.0323 C   0  0  0  0  0  0  0  0  0  0  0  0
   -0.5263   -2.8655    0.0955 C   0  0  0  0  0  0  0  0  0  0  0  0
    0.9351    2.6549    1.0402 H   0  0  0  0  0  0  0  0  0  0  0  0
   -1.2189    3.6635    1.1901 H   0  0  0  0  0  0  0  0  0  0  0  0
   -1.3816    3.7177   -0.5893 H   0  0  0  0  0  0  0  0  0  0  0  0
   -3.5525    0.8349    1.1706 H   0  0  0  0  0  0  0  0  0  0  0  0
   -4.4976    2.8602    0.0692 H   0  0  0  0  0  0  0  0  0  0  0  0
   -3.6327    3.9219    1.2282 H   0  0  0  0  0  0  0  0  0  0  0  0
   -4.9116    2.8197    1.8165 H   0  0  0  0  0  0  0  0  0  0  0  0
   -1.7414    0.9894    2.8768 H   0  0  0  0  0  0  0  0  0  0  0  0
   -3.2896    1.6569    3.4859 H   0  0  0  0  0  0  0  0  0  0  0  0
   -1.9788    2.7683    3.0003 H   0  0  0  0  0  0  0  0  0  0  0  0
    2.1280    2.5606   -1.0145 H   0  0  0  0  0  0  0  0  0  0  0  0
    0.3642    1.7299   -2.5718 H   0  0  0  0  0  0  0  0  0  0  0  0
    1.1733    3.1852   -3.2378 H   0  0  0  0  0  0  0  0  0  0  0  0
   -0.4626    3.3230   -2.5381 H   0  0  0  0  0  0  0  0  0  0  0  0
    2.0807    4.9991   -1.6096 H   0  0  0  0  0  0  0  0  0  0  0  0
    1.8948    4.7710    0.1568 H   0  0  0  0  0  0  0  0  0  0  0  0
    0.4726    5.1789   -0.8573 H   0  0  0  0  0  0  0  0  0  0  0  0
   -3.8453    0.6258   -0.9366 H   0  0  0  0  0  0  0  0  0  0  0  0
   -6.0316   -0.4689   -1.3572 H   0  0  0  0  0  0  0  0  0  0  0  0
   -6.2871   -2.9557   -1.0743 H   0  0  0  0  0  0  0  0  0  0  0  0
   -4.2964   -4.3416   -0.4630 H   0  0  0  0  0  0  0  0  0  0  0  0
   -1.9015   -4.5341    0.0188 H   0  0  0  0  0  0  0  0  0  0  0  0
    0.3722   -3.4879    0.2237 H   0  0  0  0  0  0  0  0  0  0  0  0
  1  5  1  0  0  0  0
  1  6  1  0  0  0  0
  2  8  1  0  0  0  0
  3 21  2  0  0  0  0
  4  5  2  0  0  0  0
  4  3  1  0  0  0  0
  5  2  1  0  0  0  0
  6  7  1  0  0  0  0
  6 22  1  1  0  0  0
  7  2  1  0  0  0  0
  7 23  1  0  0  0  0
  8 10  1  0  0  0  0
  9 27  1  0  0  0  0
  9  8  1  0  0  0  0
  9 28  1  0  0  0  0
 10 29  1  0  0  0  0
 10 31  1  0  0  0  0
 10 30  1  0  0  0  0
 11 32  1  0  0  0  0
 11 13  1  0  0  0  0
 11  6  1  0  0  0  0
 12 11  1  0  0  0  0
 13 37  1  0  0  0  0
 14 19  1  0  0  0  0
 14  4  1  0  0  0  0
 15 14  2  0  0  0  0
 16 17  2  0  0  0  0
 16 15  1  0  0  0  0
 17 18  1  0  0  0  0
 18 42  1  0  0  0  0
 18 19  1  0  0  0  0
 19 20  2  0  0  0  0
 20 43  1  0  0  0  0
 20 21  1  0  0  0  0
 21 44  1  0  0  0  0
 24  7  1  0  0  0  0
 25  8  1  0  0  0  0
 26  9  1  0  0  0  0
 33 12  1  0  0  0  0
 34 12  1  0  0  0  0
 35 12  1  0  0  0  0
 36 13  1  0  0  0  0
 38 13  1  0  0  0  0
 39 15  1  0  0  0  0
 40 16  1  0  0  0  0
 41 17  1  0  0  0  0
M  END
