2,3
 OpenBabel05122313053D

 36 37  0  0  1  0  0  0  0  0999 V2000
   -0.2964    1.7558   -0.1983 Si  0  0  0  0  0  0  0  0  0  0  0  0
   -0.0731    0.1293    0.4790 N   0  0  0  0  0  2  0  0  0  0  0  0
    1.4840    1.6976   -0.8282 C   0  0  2  0  0  3  0  0  0  0  0  0
    1.8472    0.8620   -1.9370 C   0  0  0  0  0  0  0  0  0  0  0  0
    3.1439    0.3200   -1.7078 C   0  0  0  0  0  0  0  0  0  0  0  0
    3.6100    0.8186   -0.4567 C   0  0  0  0  0  0  0  0  0  0  0  0
    2.5959    1.6614    0.0802 C   0  0  0  0  0  0  0  0  0  0  0  0
   -0.9901   -0.7392    1.2350 C   0  0  1  0  0  0  0  0  0  0  0  0
   -0.9927   -0.3607    2.7187 C   0  0  0  0  0  0  0  0  0  0  0  0
   -2.3525   -0.7143    0.5481 C   0  0  0  0  0  0  0  0  0  0  0  0
   -3.4399    0.0251    1.0493 C   0  0  0  0  0  0  0  0  0  0  0  0
   -4.6448    0.1026    0.3298 C   0  0  0  0  0  0  0  0  0  0  0  0
   -4.7774   -0.5628   -0.8978 C   0  0  0  0  0  0  0  0  0  0  0  0
   -3.6996   -1.3123   -1.4008 C   0  0  0  0  0  0  0  0  0  0  0  0
   -2.4981   -1.3858   -0.6848 C   0  0  0  0  0  0  0  0  0  0  0  0
   -0.6005    3.0736    1.1094 C   0  0  0  0  0  0  0  0  0  0  0  0
   -1.5423    1.8613   -1.5997 C   0  0  0  0  0  0  0  0  0  0  0  0
    1.1928    0.5961   -2.7773 H   0  0  0  0  0  0  0  0  0  0  0  0
    3.6715   -0.3883   -2.3583 H   0  0  0  0  0  0  0  0  0  0  0  0
    4.5605    0.5630    0.0271 H   0  0  0  0  0  0  0  0  0  0  0  0
    2.6225    2.1243    1.0754 H   0  0  0  0  0  0  0  0  0  0  0  0
   -0.6043   -1.7818    1.1564 H   0  0  0  0  0  0  0  0  0  0  0  0
   -1.6677   -1.0248    3.2947 H   0  0  0  0  0  0  0  0  0  0  0  0
    0.0337   -0.4632    3.1203 H   0  0  0  0  0  0  0  0  0  0  0  0
   -1.3161    0.6881    2.8725 H   0  0  0  0  0  0  0  0  0  0  0  0
   -3.3521    0.5497    2.0120 H   0  0  0  0  0  0  0  0  0  0  0  0
   -5.4866    0.6845    0.7357 H   0  0  0  0  0  0  0  0  0  0  0  0
   -5.7215   -0.5036   -1.4604 H   0  0  0  0  0  0  0  0  0  0  0  0
   -3.7980   -1.8430   -2.3602 H   0  0  0  0  0  0  0  0  0  0  0  0
   -1.6443   -1.9555   -1.0849 H   0  0  0  0  0  0  0  0  0  0  0  0
   -0.5180    4.0885    0.6685 H   0  0  0  0  0  0  0  0  0  0  0  0
    0.1261    2.9910    1.9418 H   0  0  0  0  0  0  0  0  0  0  0  0
   -1.6210    2.9686    1.5312 H   0  0  0  0  0  0  0  0  0  0  0  0
   -1.3609    1.0674   -2.3504 H   0  0  0  0  0  0  0  0  0  0  0  0
   -1.4698    2.8486   -2.1012 H   0  0  0  0  0  0  0  0  0  0  0  0
   -2.5766    1.7333   -1.2223 H   0  0  0  0  0  0  0  0  0  0  0  0
  1  2  1  0  0  0  0
  1 16  1  0  0  0  0
  2  8  1  0  0  0  0
  3  1  1  1  0  0  0
  3  7  1  0  0  0  0
  4  5  2  0  0  0  0
  4  3  1  0  0  0  0
  5  6  1  0  0  0  0
  6 20  1  0  0  0  0
  6  7  2  0  0  0  0
  7 21  1  0  0  0  0
  8 22  1  6  0  0  0
  8  9  1  0  0  0  0
  9 25  1  0  0  0  0
  9 24  1  0  0  0  0
  9 23  1  0  0  0  0
 10 11  1  0  0  0  0
 10  8  1  0  0  0  0
 11 26  1  0  0  0  0
 12 27  1  0  0  0  0
 12 11  2  0  0  0  0
 13 12  1  0  0  0  0
 14 13  2  0  0  0  0
 14 15  1  0  0  0  0
 15 10  2  0  0  0  0
 16 33  1  0  0  0  0
 16 32  1  0  0  0  0
 17 36  1  0  0  0  0
 17  1  1  0  0  0  0
 18  4  1  0  0  0  0
 19  5  1  0  0  0  0
 28 13  1  0  0  0  0
 29 14  1  0  0  0  0
 30 15  1  0  0  0  0
 31 16  1  0  0  0  0
 34 17  1  0  0  0  0
 35 17  1  0  0  0  0
M  END
