4,5
 OpenBabel05122313053D

 40 41  0  0  0  0  0  0  0  0999 V2000
   -0.9116   -2.3972    0.6006 S   0  0  0  0  0  0  0  0  0  0  0  0
    0.2135   -2.6095    1.5525 O   0  0  0  0  0  0  0  0  0  0  0  0
   -1.7493   -3.5475    0.1725 O   0  0  0  0  0  0  0  0  0  0  0  0
   -0.2686   -1.6765   -0.7605 N   0  0  0  0  0  2  0  0  0  0  0  0
   -0.9455    0.9620   -0.7659 C   0  0  0  0  0  3  0  0  0  0  0  0
   -1.3886    1.9681    0.1163 C   0  0  0  0  0  0  0  0  0  0  0  0
   -0.8030    2.2030    1.0195 H   0  0  0  0  0  0  0  0  0  0  0  0
   -2.5940    2.6552   -0.1085 C   0  0  0  0  0  0  0  0  0  0  0  0
   -2.9259    3.4313    0.5994 H   0  0  0  0  0  0  0  0  0  0  0  0
   -3.3712    2.3327   -1.2278 C   0  0  0  0  0  0  0  0  0  0  0  0
   -4.3162    2.8627   -1.4228 H   0  0  0  0  0  0  0  0  0  0  0  0
   -2.9491    1.3149   -2.0983 C   0  0  0  0  0  0  0  0  0  0  0  0
   -3.5783    1.0710   -2.9661 H   0  0  0  0  0  0  0  0  0  0  0  0
   -1.7483    0.6070   -1.8820 C   0  0  0  0  0  0  0  0  0  0  0  0
   -1.2894   -0.5171   -2.8185 C   0  0  0  0  0  0  0  0  0  0  0  0
    0.0004   -0.0856   -3.5538 C   0  0  0  0  0  0  0  0  0  0  0  0
    0.8174    0.1285   -2.8312 H   0  0  0  0  0  0  0  0  0  0  0  0
   -0.1777    0.8334   -4.1486 H   0  0  0  0  0  0  0  0  0  0  0  0
    0.3438   -0.8879   -4.2397 H   0  0  0  0  0  0  0  0  0  0  0  0
   -2.3387   -0.8788   -3.8826 C   0  0  0  0  0  0  0  0  0  0  0  0
   -2.5098   -0.0432   -4.5907 H   0  0  0  0  0  0  0  0  0  0  0  0
   -3.3107   -1.1540   -3.4263 H   0  0  0  0  0  0  0  0  0  0  0  0
   -1.9886   -1.7479   -4.4760 H   0  0  0  0  0  0  0  0  0  0  0  0
   -1.0414   -1.8183   -1.9940 C   0  0  0  0  0  0  0  0  0  0  0  0
   -2.0203   -2.2925   -1.7734 H   0  0  0  0  0  0  0  0  0  0  0  0
   -0.5096   -2.5296   -2.6689 H   0  0  0  0  0  0  0  0  0  0  0  0
   -2.0218   -1.2254    1.4107 C   0  0  0  0  0  0  0  0  0  0  0  0
   -1.5817   -0.5170    2.5361 C   0  0  0  0  0  0  0  0  0  0  0  0
   -0.5814   -0.7284    2.9400 H   0  0  0  0  0  0  0  0  0  0  0  0
   -2.4277    0.4355    3.1216 C   0  0  0  0  0  0  0  0  0  0  0  0
   -2.0863    0.9908    4.0102 H   0  0  0  0  0  0  0  0  0  0  0  0
   -3.7054    0.7012    2.5915 C   0  0  0  0  0  0  0  0  0  0  0  0
   -4.1275   -0.0383    1.4656 C   0  0  0  0  0  0  0  0  0  0  0  0
   -5.1249    0.1501    1.0379 H   0  0  0  0  0  0  0  0  0  0  0  0
   -3.3024   -1.0029    0.8794 C   0  0  0  0  0  0  0  0  0  0  0  0
   -3.6464   -1.5871    0.0146 H   0  0  0  0  0  0  0  0  0  0  0  0
   -4.5940    1.7656    3.1815 C   0  0  0  0  0  0  0  0  0  0  0  0
   -4.6585    2.6428    2.5016 H   0  0  0  0  0  0  0  0  0  0  0  0
   -4.2139    2.1248    4.1576 H   0  0  0  0  0  0  0  0  0  0  0  0
   -5.6304    1.3988    3.3285 H   0  0  0  0  0  0  0  0  0  0  0  0
  1 27  1  0  0  0  0
  1  2  2  0  0  0  0
  3  1  2  0  0  0  0
  4  1  1  0  0  0  0
  5  6  1  0  0  0  0
  6  7  1  0  0  0  0
  8  6  2  0  0  0  0
  8  9  1  0  0  0  0
 10  8  1  0  0  0  0
 11 10  1  0  0  0  0
 12 14  1  0  0  0  0
 12 10  2  0  0  0  0
 13 12  1  0  0  0  0
 14  5  2  0  0  0  0
 15 24  1  0  0  0  0
 15 14  1  0  0  0  0
 16 17  1  0  0  0  0
 16 15  1  0  0  0  0
 18 16  1  0  0  0  0
 19 16  1  0  0  0  0
 20 22  1  0  0  0  0
 20 15  1  0  0  0  0
 21 20  1  0  0  0  0
 23 20  1  0  0  0  0
 24 25  1  0  0  0  0
 24  4  1  0  0  0  0
 26 24  1  0  0  0  0
 27 28  1  0  0  0  0
 28 29  1  0  0  0  0
 28 30  2  0  0  0  0
 30 31  1  0  0  0  0
 32 30  1  0  0  0  0
 32 37  1  0  0  0  0
 33 32  2  0  0  0  0
 34 33  1  0  0  0  0
 35 27  2  0  0  0  0
 35 33  1  0  0  0  0
 36 35  1  0  0  0  0
 37 40  1  0  0  0  0
 37 39  1  0  0  0  0
 38 37  1  0  0  0  0
M  END
