1,25
 OpenBabel05122313053D

 25 27  0  0  0  0  0  0  0  0999 V2000
    0.3026   -0.8029    1.5029 N   0  0  0  0  0  2  0  0  0  0  0  0
   -0.5637   -0.9891    2.5154 C   0  0  0  0  0  3  0  0  0  0  0  0
   -1.5319   -1.4364    2.2464 H   0  0  0  0  0  0  0  0  0  0  0  0
   -0.2701   -0.6370    3.8352 C   0  0  0  0  0  0  0  0  0  0  0  0
   -1.0115   -0.8114    4.6267 H   0  0  0  0  0  0  0  0  0  0  0  0
    0.9827   -0.0583    4.1052 C   0  0  0  0  0  0  0  0  0  0  0  0
    1.2516    0.2388    5.1301 H   0  0  0  0  0  0  0  0  0  0  0  0
    1.8855    0.1389    3.0606 C   0  0  0  0  0  0  0  0  0  0  0  0
    2.8662    0.5910    3.2488 H   0  0  0  0  0  0  0  0  0  0  0  0
    1.5407   -0.2413    1.7411 C   0  0  0  0  0  0  0  0  0  0  0  0
    2.3529   -0.1019    0.5561 C   0  0  0  0  0  0  0  0  0  0  0  0
    3.7060    0.4351    0.3297 C   0  0  0  0  0  0  0  0  0  0  0  0
    4.6810    0.9907    1.1795 C   0  0  0  0  0  0  0  0  0  0  0  0
    4.5122    1.0926    2.2608 H   0  0  0  0  0  0  0  0  0  0  0  0
    5.9026    1.4252    0.6351 C   0  0  0  0  0  0  0  0  0  0  0  0
    6.6651    1.8597    1.2997 H   0  0  0  0  0  0  0  0  0  0  0  0
    6.1626    1.3122   -0.7404 C   0  0  0  0  0  0  0  0  0  0  0  0
    7.1248    1.6577   -1.1477 H   0  0  0  0  0  0  0  0  0  0  0  0
    5.1937    0.7566   -1.5990 C   0  0  0  0  0  0  0  0  0  0  0  0
    5.3937    0.6655   -2.6783 H   0  0  0  0  0  0  0  0  0  0  0  0
    3.9787    0.3240   -1.0658 C   0  0  0  0  0  0  0  0  0  0  0  0
    2.7851   -0.2980   -1.7544 C   0  0  0  0  0  0  0  0  0  0  0  0
    3.0379   -1.2486   -2.2758 H   0  0  0  0  0  0  0  0  0  0  0  0
    2.3558    0.3593   -2.5439 H   0  0  0  0  0  0  0  0  0  0  0  0
    1.7925   -0.5345   -0.6457 C   0  0  0  0  0  3  0  0  0  0  0  0
  1 10  1  0  0  0  0
  1  2  1  0  0  0  0
  2  4  1  0  0  0  0
  3  2  1  0  0  0  0
  4  6  2  0  0  0  0
  4  5  1  0  0  0  0
  6  7  1  0  0  0  0
  8  9  1  0  0  0  0
  8  6  1  0  0  0  0
 10  8  2  0  0  0  0
 11 10  1  0  0  0  0
 12 11  1  0  0  0  0
 12 13  1  0  0  0  0
 13 14  1  0  0  0  0
 15 13  2  0  0  0  0
 15 16  1  0  0  0  0
 17 15  1  0  0  0  0
 18 17  1  0  0  0  0
 19 21  1  0  0  0  0
 19 17  2  0  0  0  0
 20 19  1  0  0  0  0
 21 12  2  0  0  0  0
 22 21  1  0  0  0  0
 22 25  1  0  0  0  0
 23 22  1  0  0  0  0
 24 22  1  0  0  0  0
 25 11  2  0  0  0  0
M  END
