1,19
 OpenBabel05122313053D

 19 19  0  0  0  0  0  0  0  0999 V2000
    1.2989   -0.2195   -0.3996 C   0  0  0  0  0  3  0  0  0  0  0  0
    2.0297    0.3183   -1.4738 C   0  0  0  0  0  0  0  0  0  0  0  0
    1.5282    0.9332   -2.2375 H   0  0  0  0  0  0  0  0  0  0  0  0
    3.4129    0.0844   -1.5808 C   0  0  0  0  0  0  0  0  0  0  0  0
    3.9715    0.5058   -2.4305 H   0  0  0  0  0  0  0  0  0  0  0  0
    4.0827   -0.6750   -0.6088 C   0  0  0  0  0  0  0  0  0  0  0  0
    5.1647   -0.8531   -0.6939 H   0  0  0  0  0  0  0  0  0  0  0  0
    3.3698   -1.1951    0.4820 C   0  0  0  0  0  0  0  0  0  0  0  0
    3.8933   -1.7776    1.2568 H   0  0  0  0  0  0  0  0  0  0  0  0
    1.9863   -0.9694    0.5853 C   0  0  0  0  0  0  0  0  0  0  0  0
    1.1393   -1.4856    1.7122 C   0  0  0  0  0  0  0  0  0  0  0  0
    0.7024   -2.4811    1.4771 H   0  0  0  0  0  0  0  0  0  0  0  0
    1.6971   -1.5888    2.6686 H   0  0  0  0  0  0  0  0  0  0  0  0
   -0.9887   -0.9937    2.8789 C   0  0  0  0  0  0  0  0  0  0  0  0
   -1.4348   -1.9517    2.5537 H   0  0  0  0  0  0  0  0  0  0  0  0
   -1.7900   -0.2400    2.9847 H   0  0  0  0  0  0  0  0  0  0  0  0
   -0.5020   -1.1533    3.8643 H   0  0  0  0  0  0  0  0  0  0  0  0
    0.3952    0.3513    2.2025 H   0  0  0  0  0  0  0  0  0  0  0  0
   -0.0060   -0.5410    1.8744 N   0  0  0  0  0  0  0  0  0  0  0  0
  1 10  1  0  0  0  0
  2  1  2  0  0  0  0
  3  2  1  0  0  0  0
  4  2  1  0  0  0  0
  4  6  2  0  0  0  0
  5  4  1  0  0  0  0
  6  8  1  0  0  0  0
  7  6  1  0  0  0  0
  8 10  2  0  0  0  0
  8  9  1  0  0  0  0
 10 11  1  0  0  0  0
 11 19  1  0  0  0  0
 11 13  1  0  0  0  0
 12 11  1  0  0  0  0
 14 16  1  0  0  0  0
 14 17  1  0  0  0  0
 15 14  1  0  0  0  0
 19 18  1  0  0  0  0
 19 14  1  0  0  0  0
M  END
