2,31
 OpenBabel05122313053D

 66 69  0  0  1  0  0  0  0  0999 V2000
    2.2638   -1.0331   -1.4772 Si  0  0  0  0  0  0  0  0  0  0  0  0
    1.0776    0.4370   -1.4803 C   0  0  1  0  0  3  0  0  0  0  0  0
   -0.3297    0.3314   -1.1151 C   0  0  0  0  0  0  0  0  0  0  0  0
    1.4382    1.8235   -1.2085 C   0  0  0  0  0  0  0  0  0  0  0  0
   -3.3998   -1.9257   -0.5961 C   0  0  0  0  0  0  0  0  0  0  0  0
   -2.5248   -0.6588   -0.5916 C   0  0  0  0  0  0  0  0  0  0  0  0
   -3.0035    0.6138   -0.1172 C   0  0  0  0  0  0  0  0  0  0  0  0
   -0.7931    1.5793   -0.5508 C   0  0  0  0  0  0  0  0  0  0  0  0
   -2.1213    1.7008   -0.0920 C   0  0  0  0  0  0  0  0  0  0  0  0
   -2.4617    2.6717    0.2977 H   0  0  0  0  0  0  0  0  0  0  0  0
    2.6679    2.5302   -1.3478 C   0  0  0  0  0  0  0  0  0  0  0  0
    3.5377    2.0373   -1.8015 H   0  0  0  0  0  0  0  0  0  0  0  0
    0.3145    2.5159   -0.6014 C   0  0  0  0  0  0  0  0  0  0  0  0
   -4.4339    0.8186    0.4131 C   0  0  0  0  0  0  0  0  0  0  0  0
    0.4247    3.8672   -0.1917 C   0  0  0  0  0  0  0  0  0  0  0  0
   -0.4408    4.3827    0.2520 H   0  0  0  0  0  0  0  0  0  0  0  0
    1.6367    4.5297   -0.3638 C   0  0  0  0  0  0  0  0  0  0  0  0
    1.7379    5.5807   -0.0548 H   0  0  0  0  0  0  0  0  0  0  0  0
   -1.2194   -0.7722   -1.0847 C   0  0  0  0  0  0  0  0  0  0  0  0
   -0.8758   -1.7373   -1.4767 H   0  0  0  0  0  0  0  0  0  0  0  0
    2.7493    3.8582   -0.9390 C   0  0  0  0  0  0  0  0  0  0  0  0
    3.6972    4.4029   -1.0657 H   0  0  0  0  0  0  0  0  0  0  0  0
   -5.0610    2.1019   -0.1699 C   0  0  0  0  0  0  0  0  0  0  0  0
   -4.5454    3.0203    0.1737 H   0  0  0  0  0  0  0  0  0  0  0  0
   -6.1205    2.1824    0.1499 H   0  0  0  0  0  0  0  0  0  0  0  0
   -5.0356    2.0901   -1.2781 H   0  0  0  0  0  0  0  0  0  0  0  0
   -4.3874    0.9435    1.9542 C   0  0  0  0  0  0  0  0  0  0  0  0
   -3.7462    1.7934    2.2621 H   0  0  0  0  0  0  0  0  0  0  0  0
   -3.9713    0.0335    2.4294 H   0  0  0  0  0  0  0  0  0  0  0  0
   -5.4056    1.1150    2.3620 H   0  0  0  0  0  0  0  0  0  0  0  0
    2.2949   -1.1946    0.2881 N   0  0  0  0  0  2  0  0  0  0  0  0
    2.9011   -2.2404    1.1324 C   0  0  0  0  0  0  0  0  0  0  0  0
    3.9446   -0.6099   -2.2421 C   0  0  0  0  0  0  0  0  0  0  0  0
    4.5567   -1.5255   -2.3706 H   0  0  0  0  0  0  0  0  0  0  0  0
    4.5185    0.0909   -1.6049 H   0  0  0  0  0  0  0  0  0  0  0  0
    3.8117   -0.1491   -3.2429 H   0  0  0  0  0  0  0  0  0  0  0  0
    2.0078   -3.4988    1.1252 C   0  0  0  0  0  0  0  0  0  0  0  0
    0.9864   -3.2483    1.4758 H   0  0  0  0  0  0  0  0  0  0  0  0
    2.4214   -4.2906    1.7836 H   0  0  0  0  0  0  0  0  0  0  0  0
    1.9229   -3.9145    0.1019 H   0  0  0  0  0  0  0  0  0  0  0  0
    1.6042   -2.5507   -2.4012 C   0  0  0  0  0  0  0  0  0  0  0  0
    2.3831   -3.3400   -2.4424 H   0  0  0  0  0  0  0  0  0  0  0  0
    1.3450   -2.2784   -3.4455 H   0  0  0  0  0  0  0  0  0  0  0  0
    0.7072   -2.9894   -1.9232 H   0  0  0  0  0  0  0  0  0  0  0  0
    3.0130   -1.7042    2.5748 C   0  0  0  0  0  0  0  0  0  0  0  0
    2.0153   -1.4046    2.9656 H   0  0  0  0  0  0  0  0  0  0  0  0
    3.6863   -0.8253    2.6176 H   0  0  0  0  0  0  0  0  0  0  0  0
    3.4063   -2.4768    3.2660 H   0  0  0  0  0  0  0  0  0  0  0  0
   -2.6246   -3.1249   -0.0087 C   0  0  0  0  0  0  0  0  0  0  0  0
   -2.2302   -2.8849    0.9993 H   0  0  0  0  0  0  0  0  0  0  0  0
   -1.7704   -3.4317   -0.6440 H   0  0  0  0  0  0  0  0  0  0  0  0
   -3.2987   -4.0016    0.0815 H   0  0  0  0  0  0  0  0  0  0  0  0
    4.3086   -2.6038    0.6237 C   0  0  0  0  0  0  0  0  0  0  0  0
    4.9542   -1.7039    0.5826 H   0  0  0  0  0  0  0  0  0  0  0  0
    4.2622   -3.0425   -0.3943 H   0  0  0  0  0  0  0  0  0  0  0  0
    4.7908   -3.3506    1.2872 H   0  0  0  0  0  0  0  0  0  0  0  0
   -3.8043   -2.2521   -2.0523 C   0  0  0  0  0  0  0  0  0  0  0  0
   -4.3947   -1.4324   -2.5076 H   0  0  0  0  0  0  0  0  0  0  0  0
   -4.4137   -3.1792   -2.0874 H   0  0  0  0  0  0  0  0  0  0  0  0
   -2.9091   -2.4046   -2.6875 H   0  0  0  0  0  0  0  0  0  0  0  0
   -5.3294   -0.3717    0.0074 C   0  0  0  0  0  0  0  0  0  0  0  0
   -6.2923   -0.2981    0.5555 H   0  0  0  0  0  0  0  0  0  0  0  0
   -5.5826   -0.2815   -1.0712 H   0  0  0  0  0  0  0  0  0  0  0  0
   -4.6629   -1.7143    0.2668 C   0  0  0  0  0  0  0  0  0  0  0  0
   -5.3699   -2.5488    0.0748 H   0  0  0  0  0  0  0  0  0  0  0  0
   -4.3834   -1.7904    1.3395 H   0  0  0  0  0  0  0  0  0  0  0  0
  1 31  1  0  0  0  0
  2  1  1  1  0  0  0
  2  4  1  0  0  0  0
  2  3  1  0  0  0  0
  3 19  2  0  0  0  0
  3  8  1  0  0  0  0
  4 13  1  0  0  0  0
  5  6  1  0  0  0  0
  5 49  1  0  0  0  0
  5 64  1  0  0  0  0
  6  7  2  0  0  0  0
  7  9  1  0  0  0  0
  7 14  1  0  0  0  0
  8  9  2  0  0  0  0
  9 10  1  0  0  0  0
 11  4  2  0  0  0  0
 11 21  1  0  0  0  0
 12 11  1  0  0  0  0
 13  8  1  0  0  0  0
 13 15  2  0  0  0  0
 14 27  1  0  0  0  0
 15 16  1  0  0  0  0
 17 15  1  0  0  0  0
 17 18  1  0  0  0  0
 19  6  1  0  0  0  0
 20 19  1  0  0  0  0
 21 17  2  0  0  0  0
 22 21  1  0  0  0  0
 23 25  1  0  0  0  0
 23 24  1  0  0  0  0
 23 14  1  0  0  0  0
 26 23  1  0  0  0  0
 27 28  1  0  0  0  0
 27 30  1  0  0  0  0
 27 29  1  0  0  0  0
 31 32  1  0  0  0  0
 32 45  1  0  0  0  0
 33 35  1  0  0  0  0
 33  1  1  0  0  0  0
 34 33  1  0  0  0  0
 36 33  1  0  0  0  0
 37 32  1  0  0  0  0
 37 38  1  0  0  0  0
 37 39  1  0  0  0  0
 40 37  1  0  0  0  0
 41 44  1  0  0  0  0
 41  1  1  0  0  0  0
 42 41  1  0  0  0  0
 43 41  1  0  0  0  0
 45 47  1  0  0  0  0
 45 46  1  0  0  0  0
 45 48  1  0  0  0  0
 49 52  1  0  0  0  0
 49 50  1  0  0  0  0
 51 49  1  0  0  0  0
 53 32  1  0  0  0  0
 53 56  1  0  0  0  0
 54 53  1  0  0  0  0
 55 53  1  0  0  0  0
 57  5  1  0  0  0  0
 58 57  1  0  0  0  0
 59 57  1  0  0  0  0
 60 57  1  0  0  0  0
 61 64  1  0  0  0  0
 61 14  1  0  0  0  0
 61 62  1  0  0  0  0
 63 61  1  0  0  0  0
 64 66  1  0  0  0  0
 65 64  1  0  0  0  0
M  END
