1,4
 OpenBabel05122313053D

 20 20  0  0  0  0  0  0  0  0999 V2000
    1.1776    0.7729    0.1135 C   0  0  0  0  0  2  0  0  0  0  0  0
    1.3446    2.1078    0.1726 N   0  0  0  0  0  0  0  0  0  0  0  0
    2.2994    2.4867    0.2045 H   0  0  0  0  0  0  0  0  0  0  0  0
   -1.4877    1.7946   -1.1064 N   0  0  0  0  0  0  0  0  0  0  0  0
   -1.7967    1.5386   -2.0518 H   0  0  0  0  0  0  0  0  0  0  0  0
   -2.3442    2.0425   -0.5939 H   0  0  0  0  0  0  0  0  0  0  0  0
    3.6133    0.8072    0.1284 O   0  0  0  0  0  0  0  0  0  0  0  0
    2.4373    0.0570    0.0991 C   0  0  0  0  0  0  0  0  0  0  0  0
    2.7842   -1.2889    0.0480 C   0  0  0  0  0  0  0  0  0  0  0  0
    2.0810   -2.1258    0.0342 H   0  0  0  0  0  0  0  0  0  0  0  0
    4.2076   -1.3594    0.0435 C   0  0  0  0  0  0  0  0  0  0  0  0
    4.8269   -2.2620    0.0110 H   0  0  0  0  0  0  0  0  0  0  0  0
    4.6568   -0.0563    0.0951 C   0  0  0  0  0  0  0  0  0  0  0  0
    5.6557    0.3933    0.1152 H   0  0  0  0  0  0  0  0  0  0  0  0
    0.2644    3.0750    0.1129 C   0  0  0  0  0  0  0  0  0  0  0  0
    0.7097    4.0879    0.1603 H   0  0  0  0  0  0  0  0  0  0  0  0
   -0.3959    2.9607    1.0022 H   0  0  0  0  0  0  0  0  0  0  0  0
   -0.5758    2.9541   -1.1622 C   0  0  0  0  0  0  0  0  0  0  0  0
   -1.1352    3.9021   -1.3225 H   0  0  0  0  0  0  0  0  0  0  0  0
    0.1068    2.8181   -2.0252 H   0  0  0  0  0  0  0  0  0  0  0  0
  1  2  1  0  0  0  0
  2  3  1  0  0  0  0
  4  6  1  0  0  0  0
  5  4  1  0  0  0  0
  8  1  1  0  0  0  0
  8  7  1  0  0  0  0
  9  8  2  0  0  0  0
 10  9  1  0  0  0  0
 11  9  1  0  0  0  0
 11 13  2  0  0  0  0
 12 11  1  0  0  0  0
 13 14  1  0  0  0  0
 13  7  1  0  0  0  0
 15 16  1  0  0  0  0
 15  2  1  0  0  0  0
 15 17  1  0  0  0  0
 18  4  1  0  0  0  0
 18 15  1  0  0  0  0
 19 18  1  0  0  0  0
 20 18  1  0  0  0  0
M  END
