2,18
 OpenBabel05122313053D

 18 19  0  0  0  0  0  0  0  0999 V2000
    2.0231    4.3663    0.8410 F   0  0  0  0  0  0  0  0  0  0  0  0
    1.2217   -1.6140   -0.4061 N   0  0  0  0  0  2  0  0  0  0  0  0
    2.4223   -0.9823   -0.4046 N   0  0  0  0  0  0  0  0  0  0  0  0
    1.4416   -2.8798   -0.8075 C   0  0  0  0  0  3  0  0  0  0  0  0
    0.6000   -3.5713   -0.9146 H   0  0  0  0  0  0  0  0  0  0  0  0
    2.8188   -3.0680   -1.0566 C   0  0  0  0  0  0  0  0  0  0  0  0
    3.3174   -3.9817   -1.3935 H   0  0  0  0  0  0  0  0  0  0  0  0
    3.4145   -1.8340   -0.7915 C   0  0  0  0  0  0  0  0  0  0  0  0
    4.4547   -1.5023   -0.8584 H   0  0  0  0  0  0  0  0  0  0  0  0
    2.3906    0.3890   -0.0650 C   0  0  0  0  0  0  0  0  0  0  0  0
    3.5486    1.1768   -0.0037 C   0  0  0  0  0  0  0  0  0  0  0  0
    4.5414    0.7481   -0.2051 H   0  0  0  0  0  0  0  0  0  0  0  0
    3.4293    2.5364    0.3132 C   0  0  0  0  0  0  0  0  0  0  0  0
    4.3054    3.1963    0.3722 H   0  0  0  0  0  0  0  0  0  0  0  0
    2.1482    3.0551    0.5458 C   0  0  0  0  0  0  0  0  0  0  0  0
    0.9938    2.2637    0.4804 C   0  0  0  0  0  0  0  0  0  0  0  0
    0.0249    2.7551    0.6456 H   0  0  0  0  0  0  0  0  0  0  0  0
    1.0857    0.8912    0.1834 C   0  0  0  0  0  3  0  0  0  0  0  0
  2  3  1  0  0  0  0
  3 10  1  0  0  0  0
  4  2  1  0  0  0  0
  5  4  1  0  0  0  0
  6  4  1  0  0  0  0
  6  8  2  0  0  0  0
  7  6  1  0  0  0  0
  8  3  1  0  0  0  0
  9  8  1  0  0  0  0
 10 11  2  0  0  0  0
 10 18  1  0  0  0  0
 11 13  1  0  0  0  0
 12 11  1  0  0  0  0
 13 14  1  0  0  0  0
 13 15  2  0  0  0  0
 15  1  1  0  0  0  0
 16 15  1  0  0  0  0
 16 17  1  0  0  0  0
 18 16  2  0  0  0  0
M  END
