3,24
 OpenBabel05122313053D

 40 43  0  0  0  0  0  0  0  0999 V2000
   -5.9068   -4.6419    1.8270 F   0  0  0  0  0  0  0  0  0  0  0  0
   -4.2051   -3.0547   -2.2775 F   0  0  0  0  0  0  0  0  0  0  0  0
    0.0561    2.1814   -0.8602 N   0  0  0  0  0  2  0  0  0  0  0  0
   -1.9938    2.0949    0.1750 N   0  0  0  0  0  0  0  0  0  0  0  0
   -2.5709    0.2981    1.3131 N   0  0  0  0  0  0  0  0  0  0  0  0
    1.0033    2.8150   -1.5898 C   0  0  0  0  0  3  0  0  0  0  0  0
    1.9296    2.2480   -1.7578 H   0  0  0  0  0  0  0  0  0  0  0  0
    0.8185    4.0892   -2.1186 C   0  0  0  0  0  0  0  0  0  0  0  0
    1.6244    4.5508   -2.7068 H   0  0  0  0  0  0  0  0  0  0  0  0
   -0.4089    4.7586   -1.9220 C   0  0  0  0  0  0  0  0  0  0  0  0
   -1.3833    4.1075   -1.1484 C   0  0  0  0  0  0  0  0  0  0  0  0
   -2.3563    4.5812   -0.9845 H   0  0  0  0  0  0  0  0  0  0  0  0
   -1.1197    2.8371   -0.6206 C   0  0  0  0  0  0  0  0  0  0  0  0
   -3.2535    2.3839    0.7275 C   0  0  0  0  0  0  0  0  0  0  0  0
   -4.1067    3.4959    0.7065 C   0  0  0  0  0  0  0  0  0  0  0  0
   -3.8566    4.4228    0.1787 H   0  0  0  0  0  0  0  0  0  0  0  0
   -5.3280    3.3942    1.3960 C   0  0  0  0  0  0  0  0  0  0  0  0
   -6.0153    4.2525    1.3857 H   0  0  0  0  0  0  0  0  0  0  0  0
   -5.6919    2.2225    2.0860 C   0  0  0  0  0  0  0  0  0  0  0  0
   -6.6620    2.1752    2.6017 H   0  0  0  0  0  0  0  0  0  0  0  0
   -4.8383    1.1081    2.1207 C   0  0  0  0  0  0  0  0  0  0  0  0
   -5.1204    0.1821    2.6398 H   0  0  0  0  0  0  0  0  0  0  0  0
   -3.6198    1.2143    1.4426 C   0  0  0  0  0  0  0  0  0  0  0  0
   -1.5745    0.7965    0.5252 C   0  0  0  0  0  2  0  0  0  0  0  0
   -0.6829    6.0935   -2.5556 C   0  0  0  0  0  0  0  0  0  0  0  0
    0.2244    6.7285   -2.5749 H   0  0  0  0  0  0  0  0  0  0  0  0
   -1.4880    6.6426   -2.0308 H   0  0  0  0  0  0  0  0  0  0  0  0
   -1.0074    5.9550   -3.6093 H   0  0  0  0  0  0  0  0  0  0  0  0
   -2.5960   -1.0451    1.8810 C   0  0  0  0  0  0  0  0  0  0  0  0
   -2.9096   -0.9675    2.9415 H   0  0  0  0  0  0  0  0  0  0  0  0
   -1.5538   -1.4184    1.8485 H   0  0  0  0  0  0  0  0  0  0  0  0
   -3.5034   -1.9963    1.1275 C   0  0  0  0  0  0  0  0  0  0  0  0
   -4.3361   -2.8725    1.8455 C   0  0  0  0  0  0  0  0  0  0  0  0
   -4.3825   -2.8579    2.9440 H   0  0  0  0  0  0  0  0  0  0  0  0
   -5.1094   -3.8024    1.1405 C   0  0  0  0  0  0  0  0  0  0  0  0
   -5.0859   -3.8821   -0.2547 C   0  0  0  0  0  0  0  0  0  0  0  0
   -5.6955   -4.6182   -0.7944 H   0  0  0  0  0  0  0  0  0  0  0  0
   -4.2494   -2.9899   -0.9387 C   0  0  0  0  0  0  0  0  0  0  0  0
   -3.4607   -2.0441   -0.2772 C   0  0  0  0  0  0  0  0  0  0  0  0
   -2.7989   -1.3917   -0.8648 H   0  0  0  0  0  0  0  0  0  0  0  0
  2 38  1  0  0  0  0
  3 13  1  0  0  0  0
  4 24  1  0  0  0  0
  4 14  1  0  0  0  0
  5 23  1  0  0  0  0
  5 29  1  0  0  0  0
  6  3  1  0  0  0  0
  7  6  1  0  0  0  0
  8 10  2  0  0  0  0
  8  6  1  0  0  0  0
  9  8  1  0  0  0  0
 10 11  1  0  0  0  0
 11 12  1  0  0  0  0
 11 13  2  0  0  0  0
 13  4  1  0  0  0  0
 14 23  1  0  0  0  0
 15 14  2  0  0  0  0
 15 17  1  0  0  0  0
 16 15  1  0  0  0  0
 17 19  2  0  0  0  0
 18 17  1  0  0  0  0
 19 21  1  0  0  0  0
 19 20  1  0  0  0  0
 21 22  1  0  0  0  0
 23 21  2  0  0  0  0
 24  5  1  0  0  0  0
 25 27  1  0  0  0  0
 25 10  1  0  0  0  0
 26 25  1  0  0  0  0
 28 25  1  0  0  0  0
 29 30  1  0  0  0  0
 31 29  1  0  0  0  0
 32 33  1  0  0  0  0
 32 29  1  0  0  0  0
 33 34  1  0  0  0  0
 35  1  1  0  0  0  0
 35 33  2  0  0  0  0
 36 35  1  0  0  0  0
 37 36  1  0  0  0  0
 38 39  1  0  0  0  0
 38 36  2  0  0  0  0
 39 32  2  0  0  0  0
 40 39  1  0  0  0  0
M  END
