2,11
 OpenBabel05122313053D

 73 77  0  0  1  0  0  0  0  0999 V2000
   -2.1238    0.6205   -1.3811 Si  0  0  0  0  0  0  0  0  0  0  0  0
   -2.1745    0.3678    0.3930 N   0  0  0  0  0  2  0  0  0  0  0  0
    1.0979   -0.7011   -1.0352 C   0  0  0  0  0  0  0  0  0  0  0  0
    2.3241   -1.1950   -0.5748 C   0  0  0  0  0  0  0  0  0  0  0  0
    3.3045   -0.2866   -0.0360 C   0  0  0  0  0  0  0  0  0  0  0  0
    3.0016    1.0792    0.0263 C   0  0  0  0  0  0  0  0  0  0  0  0
    1.6939    4.1484    0.0299 C   0  0  0  0  0  0  0  0  0  0  0  0
    0.9038    5.2886   -0.1050 C   0  0  0  0  0  0  0  0  0  0  0  0
   -0.3838    5.2092   -0.6992 C   0  0  0  0  0  0  0  0  0  0  0  0
   -0.9007    3.9990   -1.1531 C   0  0  0  0  0  0  0  0  0  0  0  0
   -0.4207    1.4187   -1.3446 C   0  0  2  0  0  3  0  0  0  0  0  0
    0.7910    0.6822   -1.0006 C   0  0  0  0  0  0  0  0  0  0  0  0
    1.7648    1.5760   -0.4239 C   0  0  0  0  0  0  0  0  0  0  0  0
    1.1943    2.9095   -0.4315 C   0  0  0  0  0  0  0  0  0  0  0  0
   -0.1226    2.8142   -1.0320 C   0  0  0  0  0  0  0  0  0  0  0  0
    2.5508   -2.7171   -0.5844 C   0  0  0  0  0  0  0  0  0  0  0  0
    4.0610   -3.0279   -0.5226 C   0  0  0  0  0  0  0  0  0  0  0  0
    4.7631   -2.2715    0.5957 C   0  0  0  0  0  0  0  0  0  0  0  0
    4.7062   -0.7391    0.4133 C   0  0  0  0  0  0  0  0  0  0  0  0
    1.8345   -3.3170    0.6490 C   0  0  0  0  0  0  0  0  0  0  0  0
    1.9769   -3.3776   -1.8533 C   0  0  0  0  0  0  0  0  0  0  0  0
    5.0990   -0.0899    1.7566 C   0  0  0  0  0  0  0  0  0  0  0  0
    5.7238   -0.3082   -0.6698 C   0  0  0  0  0  0  0  0  0  0  0  0
   -3.2341   -0.3316    1.1451 C   0  0  0  0  0  0  0  0  0  0  0  0
   -4.5719    0.4051    0.9435 C   0  0  0  0  0  0  0  0  0  0  0  0
   -2.9135   -0.3313    2.6555 C   0  0  0  0  0  0  0  0  0  0  0  0
   -3.2882   -1.7977    0.6693 C   0  0  0  0  0  0  0  0  0  0  0  0
   -2.0885   -2.5401    0.6370 C   0  0  0  0  0  0  0  0  0  0  0  0
   -2.0721   -3.8732    0.2100 C   0  0  0  0  0  0  0  0  0  0  0  0
   -3.2626   -4.4967   -0.2028 C   0  0  0  0  0  0  0  0  0  0  0  0
   -4.4620   -3.7730   -0.1722 C   0  0  0  0  0  0  0  0  0  0  0  0
   -4.4746   -2.4361    0.2641 C   0  0  0  0  0  0  0  0  0  0  0  0
   -2.2371   -0.9575   -2.4108 C   0  0  0  0  0  0  0  0  0  0  0  0
   -3.4573    1.8045   -2.0198 C   0  0  0  0  0  0  0  0  0  0  0  0
    0.3566   -1.3968   -1.4454 H   0  0  0  0  0  0  0  0  0  0  0  0
    3.7394    1.7838    0.4374 H   0  0  0  0  0  0  0  0  0  0  0  0
    2.6941    4.2077    0.4855 H   0  0  0  0  0  0  0  0  0  0  0  0
    1.2792    6.2614    0.2464 H   0  0  0  0  0  0  0  0  0  0  0  0
   -0.9846    6.1256   -0.8026 H   0  0  0  0  0  0  0  0  0  0  0  0
   -1.8971    3.9612   -1.6123 H   0  0  0  0  0  0  0  0  0  0  0  0
    4.1964   -4.1230   -0.3956 H   0  0  0  0  0  0  0  0  0  0  0  0
    4.5208   -2.7719   -1.5018 H   0  0  0  0  0  0  0  0  0  0  0  0
    5.8270   -2.5810    0.6702 H   0  0  0  0  0  0  0  0  0  0  0  0
    4.3015   -2.5373    1.5704 H   0  0  0  0  0  0  0  0  0  0  0  0
    1.9652   -4.4191    0.6806 H   0  0  0  0  0  0  0  0  0  0  0  0
    0.7509   -3.0964    0.6097 H   0  0  0  0  0  0  0  0  0  0  0  0
    2.2157   -2.8950    1.5991 H   0  0  0  0  0  0  0  0  0  0  0  0
    2.3776   -2.9014   -2.7706 H   0  0  0  0  0  0  0  0  0  0  0  0
    0.8707   -3.3278   -1.8954 H   0  0  0  0  0  0  0  0  0  0  0  0
    2.2536   -4.4517   -1.8734 H   0  0  0  0  0  0  0  0  0  0  0  0
    4.3299   -0.2846    2.5311 H   0  0  0  0  0  0  0  0  0  0  0  0
    5.2324    1.0069    1.6763 H   0  0  0  0  0  0  0  0  0  0  0  0
    6.0629   -0.5103    2.1107 H   0  0  0  0  0  0  0  0  0  0  0  0
    6.7545   -0.5906   -0.3692 H   0  0  0  0  0  0  0  0  0  0  0  0
    5.6972    0.7888   -0.8243 H   0  0  0  0  0  0  0  0  0  0  0  0
    5.5056   -0.7829   -1.6470 H   0  0  0  0  0  0  0  0  0  0  0  0
   -4.9091    0.3712   -0.1102 H   0  0  0  0  0  0  0  0  0  0  0  0
   -4.4435    1.4672    1.2284 H   0  0  0  0  0  0  0  0  0  0  0  0
   -5.3728   -0.0276    1.5755 H   0  0  0  0  0  0  0  0  0  0  0  0
   -3.7155   -0.8480    3.2186 H   0  0  0  0  0  0  0  0  0  0  0  0
   -2.8323    0.7084    3.0318 H   0  0  0  0  0  0  0  0  0  0  0  0
   -1.9623   -0.8567    2.8596 H   0  0  0  0  0  0  0  0  0  0  0  0
   -1.1513   -2.0400    0.9282 H   0  0  0  0  0  0  0  0  0  0  0  0
   -1.1223   -4.4301    0.1918 H   0  0  0  0  0  0  0  0  0  0  0  0
   -3.2526   -5.5423   -0.5461 H   0  0  0  0  0  0  0  0  0  0  0  0
   -5.4020   -4.2490   -0.4915 H   0  0  0  0  0  0  0  0  0  0  0  0
   -5.4291   -1.8916    0.2789 H   0  0  0  0  0  0  0  0  0  0  0  0
   -3.2719   -1.3545   -2.3773 H   0  0  0  0  0  0  0  0  0  0  0  0
   -1.5699   -1.7634   -2.0534 H   0  0  0  0  0  0  0  0  0  0  0  0
   -1.9856   -0.7252   -3.4666 H   0  0  0  0  0  0  0  0  0  0  0  0
   -4.4075    1.2625   -2.2018 H   0  0  0  0  0  0  0  0  0  0  0  0
   -3.1379    2.2494   -2.9851 H   0  0  0  0  0  0  0  0  0  0  0  0
   -3.6626    2.6235   -1.3037 H   0  0  0  0  0  0  0  0  0  0  0  0
  1  2  1  0  0  0  0
  2 24  1  0  0  0  0
  3 12  2  0  0  0  0
  3  4  1  0  0  0  0
  4  5  2  0  0  0  0
  5  6  1  0  0  0  0
  5 19  1  0  0  0  0
  6 36  1  0  0  0  0
  7 37  1  0  0  0  0
  8  7  1  0  0  0  0
  8 38  1  0  0  0  0
  9  8  2  0  0  0  0
 10 15  2  0  0  0  0
 10  9  1  0  0  0  0
 11  1  1  1  0  0  0
 11 15  1  0  0  0  0
 11 12  1  0  0  0  0
 12 13  1  0  0  0  0
 13  6  2  0  0  0  0
 14 13  1  0  0  0  0
 14  7  2  0  0  0  0
 15 14  1  0  0  0  0
 16  4  1  0  0  0  0
 16 17  1  0  0  0  0
 16 20  1  0  0  0  0
 17 41  1  0  0  0  0
 17 18  1  0  0  0  0
 18 43  1  0  0  0  0
 18 44  1  0  0  0  0
 19 18  1  0  0  0  0
 19 22  1  0  0  0  0
 20 45  1  0  0  0  0
 20 47  1  0  0  0  0
 21 16  1  0  0  0  0
 22 53  1  0  0  0  0
 22 51  1  0  0  0  0
 23 54  1  0  0  0  0
 23 19  1  0  0  0  0
 24 26  1  0  0  0  0
 25 24  1  0  0  0  0
 25 58  1  0  0  0  0
 25 59  1  0  0  0  0
 26 62  1  0  0  0  0
 26 61  1  0  0  0  0
 26 60  1  0  0  0  0
 27 24  1  0  0  0  0
 28 27  1  0  0  0  0
 28 63  1  0  0  0  0
 29 28  2  0  0  0  0
 30 31  2  0  0  0  0
 30 29  1  0  0  0  0
 31 32  1  0  0  0  0
 32 67  1  0  0  0  0
 32 27  2  0  0  0  0
 33 68  1  0  0  0  0
 33 69  1  0  0  0  0
 33  1  1  0  0  0  0
 34  1  1  0  0  0  0
 34 73  1  0  0  0  0
 35  3  1  0  0  0  0
 39  9  1  0  0  0  0
 40 10  1  0  0  0  0
 42 17  1  0  0  0  0
 46 20  1  0  0  0  0
 48 21  1  0  0  0  0
 49 21  1  0  0  0  0
 50 21  1  0  0  0  0
 52 22  1  0  0  0  0
 55 23  1  0  0  0  0
 56 23  1  0  0  0  0
 57 25  1  0  0  0  0
 64 29  1  0  0  0  0
 65 30  1  0  0  0  0
 66 31  1  0  0  0  0
 70 33  1  0  0  0  0
 71 34  1  0  0  0  0
 72 34  1  0  0  0  0
M  END
