7,18
 OpenBabel05122313053D

 44 45  0  0  1  0  0  0  0  0999 V2000
   -1.7759    2.6385   -1.0245 C   0  0  0  0  0  3  0  0  0  0  0  0
   -3.0425    3.1096   -0.6621 C   0  0  0  0  0  0  0  0  0  0  0  0
   -3.7014    2.5180    0.4257 C   0  0  0  0  0  0  0  0  0  0  0  0
   -3.0954    1.4301    1.0688 C   0  0  0  0  0  0  0  0  0  0  0  0
   -1.8484    0.9775    0.6190 C   0  0  0  0  0  0  0  0  0  0  0  0
   -1.1983   -0.3243    1.0220 C   0  0  2  0  0  0  0  0  0  0  0  0
    0.3315   -0.2434    0.8747 C   0  0  2  0  0  3  0  0  0  0  0  0
    0.6652   -0.8496   -0.3983 C   0  0  2  0  0  3  0  0  0  0  0  0
   -0.5966   -1.4560   -0.9702 C   0  0  0  0  0  0  0  0  0  0  0  0
    1.2193   -0.2848    2.0549 C   0  0  0  0  0  0  0  0  0  0  0  0
    1.3204   -0.0180    4.3956 C   0  0  0  0  0  0  0  0  0  0  0  0
    1.8291   -1.7933   -0.5727 C   0  0  0  0  0  0  0  0  0  0  0  0
    3.8767   -2.2348   -1.6341 C   0  0  0  0  0  0  0  0  0  0  0  0
   -2.9434   -1.8273   -0.1465 C   0  0  2  0  0  0  0  0  0  0  0  0
   -2.8803   -3.3685   -0.1587 C   0  0  0  0  0  0  0  0  0  0  0  0
   -2.0795   -3.9603    1.0006 C   0  0  0  0  0  0  0  0  0  0  0  0
   -3.6982   -1.2607   -1.3555 C   0  0  0  0  0  0  0  0  0  0  0  0
   -1.1804    1.6108   -0.3829 N   0  0  0  0  0  2  0  0  0  0  0  0
   -1.5923   -1.2678   -0.0244 N   0  0  0  0  0  0  0  0  0  0  0  0
    2.4222   -0.4943    2.0371 O   0  0  0  0  0  0  0  0  0  0  0  0
    0.5265   -0.0356    3.2049 O   0  0  0  0  0  0  0  0  0  0  0  0
    1.8744   -2.8727   -0.0124 O   0  0  0  0  0  0  0  0  0  0  0  0
    2.7561   -1.3603   -1.4510 O   0  0  0  0  0  0  0  0  0  0  0  0
   -0.7183   -2.0722   -2.0227 O   0  0  0  0  0  0  0  0  0  0  0  0
   -1.2012    3.1056   -1.8374 H   0  0  0  0  0  0  0  0  0  0  0  0
   -3.4867    3.9477   -1.2168 H   0  0  0  0  0  0  0  0  0  0  0  0
   -4.6802    2.8924    0.7603 H   0  0  0  0  0  0  0  0  0  0  0  0
   -3.5831    0.9151    1.9088 H   0  0  0  0  0  0  0  0  0  0  0  0
   -1.5156   -0.6620    2.0278 H   0  0  0  0  0  0  0  0  0  0  0  0
   -3.4695   -1.5200    0.7849 H   0  0  0  0  0  0  0  0  0  0  0  0
    1.8059   -1.0007    4.5620 H   0  0  0  0  0  0  0  0  0  0  0  0
    2.1161    0.7514    4.3275 H   0  0  0  0  0  0  0  0  0  0  0  0
    0.6278    0.2151    5.2241 H   0  0  0  0  0  0  0  0  0  0  0  0
    4.4241   -2.3643   -0.6791 H   0  0  0  0  0  0  0  0  0  0  0  0
    3.5407   -3.2302   -1.9866 H   0  0  0  0  0  0  0  0  0  0  0  0
    4.5220   -1.7502   -2.3877 H   0  0  0  0  0  0  0  0  0  0  0  0
   -3.9266   -3.7424   -0.1437 H   0  0  0  0  0  0  0  0  0  0  0  0
   -2.4388   -3.6866   -1.1251 H   0  0  0  0  0  0  0  0  0  0  0  0
   -1.0123   -3.6630    0.9464 H   0  0  0  0  0  0  0  0  0  0  0  0
   -2.4761   -3.6309    1.9851 H   0  0  0  0  0  0  0  0  0  0  0  0
   -2.1142   -5.0677    0.9829 H   0  0  0  0  0  0  0  0  0  0  0  0
   -3.1556   -1.5161   -2.2856 H   0  0  0  0  0  0  0  0  0  0  0  0
   -4.7185   -1.6904   -1.4101 H   0  0  0  0  0  0  0  0  0  0  0  0
   -3.7903   -0.1581   -1.2926 H   0  0  0  0  0  0  0  0  0  0  0  0
  1  2  1  0  0  0  0
  1 18  1  0  0  0  0
  2  3  2  0  0  0  0
  3 27  1  0  0  0  0
  3  4  1  0  0  0  0
  4 28  1  0  0  0  0
  5  6  1  0  0  0  0
  5  4  2  0  0  0  0
  6 29  1  1  0  0  0
  7  6  1  0  0  0  0
  7 10  1  1  0  0  0
  8 12  1  1  0  0  0
  8  7  1  0  0  0  0
  9  8  1  0  0  0  0
  9 19  1  0  0  0  0
 10 21  1  0  0  0  0
 11 31  1  0  0  0  0
 11 33  1  0  0  0  0
 12 22  2  0  0  0  0
 13 23  1  0  0  0  0
 13 34  1  0  0  0  0
 14 19  1  0  0  0  0
 14 30  1  1  0  0  0
 15 14  1  0  0  0  0
 15 37  1  0  0  0  0
 15 16  1  0  0  0  0
 16 40  1  0  0  0  0
 17 44  1  0  0  0  0
 17 14  1  0  0  0  0
 18  5  1  0  0  0  0
 19  6  1  0  0  0  0
 20 10  2  0  0  0  0
 21 11  1  0  0  0  0
 23 12  1  0  0  0  0
 24  9  2  0  0  0  0
 25  1  1  0  0  0  0
 26  2  1  0  0  0  0
 32 11  1  0  0  0  0
 35 13  1  0  0  0  0
 36 13  1  0  0  0  0
 38 15  1  0  0  0  0
 39 16  1  0  0  0  0
 41 16  1  0  0  0  0
 42 17  1  0  0  0  0
 43 17  1  0  0  0  0
M  END
