4,5
 OpenBabel05122313053D

 23 23  0  0  1  0  0  0  0  0999 V2000
   -1.9557    0.2078   -2.5269 O   0  0  0  0  0  0  0  0  0  0  0  0
    2.3000   -0.6464    1.5147 O   0  0  0  0  0  0  0  0  0  0  0  0
    0.2318   -1.7788    1.5788 O   0  0  0  0  0  0  0  0  0  0  0  0
    1.1338    0.4997   -0.1652 N   0  0  0  0  0  2  0  0  0  0  0  0
   -1.0719    0.3873   -1.7227 C   0  0  0  0  0  3  0  0  0  0  0  0
   -0.2564    1.6958   -1.7208 C   0  0  0  0  0  0  0  0  0  0  0  0
   -0.1754    2.1026   -2.7487 H   0  0  0  0  0  0  0  0  0  0  0  0
   -0.8780    2.4131   -1.1328 H   0  0  0  0  0  0  0  0  0  0  0  0
    1.0669    1.5347   -1.0496 C   0  0  1  0  0  3  0  0  0  0  0  0
    2.1719    2.3615   -1.2821 C   0  0  0  0  0  0  0  0  0  0  0  0
    2.0934    3.1784   -2.0122 H   0  0  0  0  0  0  0  0  0  0  0  0
    3.3600    2.1278   -0.5720 C   0  0  0  0  0  0  0  0  0  0  0  0
    4.2437    2.7608   -0.7411 H   0  0  0  0  0  0  0  0  0  0  0  0
    3.4035    1.1041    0.3758 C   0  0  0  0  0  0  0  0  0  0  0  0
    4.2884    0.8975    0.9918 H   0  0  0  0  0  0  0  0  0  0  0  0
    2.2517    0.3195    0.5647 C   0  0  0  0  0  0  0  0  0  0  0  0
    1.1015   -0.9185    2.2520 C   0  0  0  0  0  0  0  0  0  0  0  0
    1.4576   -1.3801    3.1965 H   0  0  0  0  0  0  0  0  0  0  0  0
    0.5284    0.0138    2.4268 H   0  0  0  0  0  0  0  0  0  0  0  0
    0.6858   -3.1328    1.4741 C   0  0  0  0  0  0  0  0  0  0  0  0
    1.6022   -3.2054    0.8525 H   0  0  0  0  0  0  0  0  0  0  0  0
   -0.1293   -3.7074    0.9994 H   0  0  0  0  0  0  0  0  0  0  0  0
    0.8877   -3.5428    2.4867 H   0  0  0  0  0  0  0  0  0  0  0  0
  1  5  2  0  0  0  0
  2 17  1  0  0  0  0
  3 17  1  0  0  0  0
  4 16  1  0  0  0  0
  5  6  1  0  0  0  0
  6  8  1  0  0  0  0
  7  6  1  0  0  0  0
  9  6  1  1  0  0  0
  9  4  1  0  0  0  0
 10  9  1  0  0  0  0
 10 12  2  0  0  0  0
 11 10  1  0  0  0  0
 12 14  1  0  0  0  0
 13 12  1  0  0  0  0
 14 16  2  0  0  0  0
 14 15  1  0  0  0  0
 16  2  1  0  0  0  0
 17 19  1  0  0  0  0
 17 18  1  0  0  0  0
 20  3  1  0  0  0  0
 20 23  1  0  0  0  0
 21 20  1  0  0  0  0
 22 20  1  0  0  0  0
M  END
