1,2
 OpenBabel05122313053D

 20 20  0  0  1  0  0  0  0  0999 V2000
   -0.7565    1.7597   -0.0027 N   0  0  0  0  0  2  0  0  0  0  0  0
   -1.4512   -0.7471    0.0338 C   0  0  0  0  0  3  0  0  0  0  0  0
   -2.4810    0.2018   -0.2512 C   0  0  0  0  0  0  0  0  0  0  0  0
   -3.8200   -0.2192   -0.4171 C   0  0  0  0  0  0  0  0  0  0  0  0
   -4.6118    0.5106   -0.6440 H   0  0  0  0  0  0  0  0  0  0  0  0
   -4.1515   -1.5716   -0.2764 C   0  0  0  0  0  0  0  0  0  0  0  0
   -5.1925   -1.9002   -0.4072 H   0  0  0  0  0  0  0  0  0  0  0  0
   -3.1506   -2.5038    0.0472 C   0  0  0  0  0  0  0  0  0  0  0  0
   -3.4120   -3.5660    0.1723 H   0  0  0  0  0  0  0  0  0  0  0  0
   -1.8131   -2.0929    0.2079 C   0  0  0  0  0  0  0  0  0  0  0  0
   -1.0520   -2.8489    0.4598 H   0  0  0  0  0  0  0  0  0  0  0  0
   -2.0339    1.5913   -0.2769 C   0  0  1  0  0  3  0  0  0  0  0  0
   -2.9474    2.7496   -0.5465 C   0  0  0  0  0  0  0  0  0  0  0  0
   -3.0656    3.3839    0.3580 H   0  0  0  0  0  0  0  0  0  0  0  0
   -3.9520    2.4204   -0.8611 H   0  0  0  0  0  0  0  0  0  0  0  0
   -2.5345    3.4035   -1.3411 H   0  0  0  0  0  0  0  0  0  0  0  0
   -0.1853    3.0936    0.0757 C   0  0  0  0  0  0  0  0  0  0  0  0
   -0.0357    3.5292   -0.9369 H   0  0  0  0  0  0  0  0  0  0  0  0
    0.7995    3.0473    0.5727 H   0  0  0  0  0  0  0  0  0  0  0  0
   -0.8346    3.7929    0.6432 H   0  0  0  0  0  0  0  0  0  0  0  0
  1 17  1  0  0  0  0
  2 10  1  0  0  0  0
  3  2  2  0  0  0  0
  4  6  2  0  0  0  0
  4  3  1  0  0  0  0
  5  4  1  0  0  0  0
  6  8  1  0  0  0  0
  7  6  1  0  0  0  0
  8  9  1  0  0  0  0
  8 10  2  0  0  0  0
 10 11  1  0  0  0  0
 12  3  1  0  0  0  0
 12  1  1  1  0  0  0
 13 12  1  0  0  0  0
 13 14  1  0  0  0  0
 15 13  1  0  0  0  0
 16 13  1  0  0  0  0
 17 19  1  0  0  0  0
 17 20  1  0  0  0  0
 18 17  1  0  0  0  0
M  END
