1,7
 OpenBabel05122313053D

 51 53  0  0  0  0  0  0  0  0999 V2000
    0.1852    0.6963    0.0484 C   0  0  0  0  0  2  0  0  0  0  0  0
   -0.9905   -0.0203   -0.0622 N   0  0  0  0  0  0  0  0  0  0  0  0
   -0.2497    1.9580    0.3097 N   0  0  0  0  0  0  0  0  0  0  0  0
   -1.6111    2.0619    0.3235 N   0  0  0  0  0  0  0  0  0  0  0  0
   -3.4999    0.5082    0.0843 C   0  0  0  0  0  0  0  0  0  0  0  0
   -1.0322   -1.4268   -0.2996 C   0  0  0  0  0  0  0  0  0  0  0  0
    1.8585   -1.4715    1.3601 N   0  0  0  0  0  0  0  0  0  0  0  0
   -4.4096    1.4744   -0.4013 C   0  0  0  0  0  0  0  0  0  0  0  0
   -4.0171    2.4309   -0.7752 H   0  0  0  0  0  0  0  0  0  0  0  0
   -2.0698    0.8471    0.1057 C   0  0  0  0  0  0  0  0  0  0  0  0
   -0.1270    3.9074    1.7822 C   0  0  0  0  0  0  0  0  0  0  0  0
   -1.1979    4.1228    1.6146 H   0  0  0  0  0  0  0  0  0  0  0  0
    0.4022    4.8586    1.9844 H   0  0  0  0  0  0  0  0  0  0  0  0
   -0.0336    3.2629    2.6800 H   0  0  0  0  0  0  0  0  0  0  0  0
    0.4427   -1.7625    1.7525 C   0  0  0  0  0  0  0  0  0  0  0  0
    0.4576   -2.5054    2.5828 H   0  0  0  0  0  0  0  0  0  0  0  0
    0.0128   -0.8233    2.1511 H   0  0  0  0  0  0  0  0  0  0  0  0
    0.5112    3.2325    0.5554 C   0  0  0  0  0  0  0  0  0  0  0  0
   -0.3941   -2.2961    0.6153 C   0  0  0  0  0  0  0  0  0  0  0  0
    0.3562    4.1010   -0.7036 C   0  0  0  0  0  0  0  0  0  0  0  0
    0.7978    3.5729   -1.5713 H   0  0  0  0  0  0  0  0  0  0  0  0
    0.8833    5.0643   -0.5579 H   0  0  0  0  0  0  0  0  0  0  0  0
   -0.7131    4.3103   -0.9028 H   0  0  0  0  0  0  0  0  0  0  0  0
   -3.9946   -0.7197    0.5784 C   0  0  0  0  0  0  0  0  0  0  0  0
   -3.3049   -1.4719    0.9853 H   0  0  0  0  0  0  0  0  0  0  0  0
   -1.7474   -1.9172   -1.4023 C   0  0  0  0  0  0  0  0  0  0  0  0
   -2.2089   -1.2064   -2.1016 H   0  0  0  0  0  0  0  0  0  0  0  0
   -5.7842    1.2100   -0.4068 C   0  0  0  0  0  0  0  0  0  0  0  0
   -6.4828    1.9672   -0.7932 H   0  0  0  0  0  0  0  0  0  0  0  0
   -1.8642   -3.2994   -1.5928 C   0  0  0  0  0  0  0  0  0  0  0  0
   -2.4198   -3.6853   -2.4600 H   0  0  0  0  0  0  0  0  0  0  0  0
   -6.2694   -0.0178    0.0729 C   0  0  0  0  0  0  0  0  0  0  0  0
   -7.3499   -0.2264    0.0635 H   0  0  0  0  0  0  0  0  0  0  0  0
    1.9885    2.9480    0.8374 C   0  0  0  0  0  0  0  0  0  0  0  0
    2.1156    2.2522    1.6903 H   0  0  0  0  0  0  0  0  0  0  0  0
    2.4739    3.9069    1.1061 H   0  0  0  0  0  0  0  0  0  0  0  0
    2.5044    2.5286   -0.0459 H   0  0  0  0  0  0  0  0  0  0  0  0
   -5.3720   -0.9766    0.5688 C   0  0  0  0  0  0  0  0  0  0  0  0
   -5.7472   -1.9346    0.9587 H   0  0  0  0  0  0  0  0  0  0  0  0
   -1.2728   -4.1836   -0.6776 C   0  0  0  0  0  0  0  0  0  0  0  0
   -1.3703   -5.2703   -0.8160 H   0  0  0  0  0  0  0  0  0  0  0  0
    2.5401   -2.7384    0.9994 C   0  0  0  0  0  0  0  0  0  0  0  0
    3.5793   -2.5021    0.7082 H   0  0  0  0  0  0  0  0  0  0  0  0
    2.0393   -3.1941    0.1272 H   0  0  0  0  0  0  0  0  0  0  0  0
    2.5072   -3.4416    1.8637 H   0  0  0  0  0  0  0  0  0  0  0  0
   -0.5432   -3.6812    0.4093 C   0  0  0  0  0  0  0  0  0  0  0  0
   -0.0706   -4.3770    1.1193 H   0  0  0  0  0  0  0  0  0  0  0  0
    2.5723   -0.8378    2.4899 C   0  0  0  0  0  0  0  0  0  0  0  0
    2.6005   -1.5198    3.3716 H   0  0  0  0  0  0  0  0  0  0  0  0
    2.0615    0.1022    2.7715 H   0  0  0  0  0  0  0  0  0  0  0  0
    3.6012   -0.6068    2.1557 H   0  0  0  0  0  0  0  0  0  0  0  0
  1  3  1  0  0  0  0
  2  1  1  0  0  0  0
  2 10  1  0  0  0  0
  3  4  1  0  0  0  0
  3 18  1  0  0  0  0
  5 10  1  0  0  0  0
  5 24  1  0  0  0  0
  6  2  1  0  0  0  0
  6 19  1  0  0  0  0
  7 15  1  0  0  0  0
  7 48  1  0  0  0  0
  8  5  2  0  0  0  0
  9  8  1  0  0  0  0
 10  4  2  0  0  0  0
 11 13  1  0  0  0  0
 11 14  1  0  0  0  0
 12 11  1  0  0  0  0
 15 17  1  0  0  0  0
 15 16  1  0  0  0  0
 18 34  1  0  0  0  0
 18 11  1  0  0  0  0
 19 15  1  0  0  0  0
 20 22  1  0  0  0  0
 20 18  1  0  0  0  0
 21 20  1  0  0  0  0
 23 20  1  0  0  0  0
 24 25  1  0  0  0  0
 26  6  2  0  0  0  0
 27 26  1  0  0  0  0
 28  8  1  0  0  0  0
 28 32  2  0  0  0  0
 29 28  1  0  0  0  0
 30 26  1  0  0  0  0
 30 40  2  0  0  0  0
 31 30  1  0  0  0  0
 32 38  1  0  0  0  0
 33 32  1  0  0  0  0
 34 36  1  0  0  0  0
 34 35  1  0  0  0  0
 37 34  1  0  0  0  0
 38 24  2  0  0  0  0
 38 39  1  0  0  0  0
 40 46  1  0  0  0  0
 41 40  1  0  0  0  0
 42  7  1  0  0  0  0
 42 45  1  0  0  0  0
 43 42  1  0  0  0  0
 44 42  1  0  0  0  0
 46 19  2  0  0  0  0
 46 47  1  0  0  0  0
 48 50  1  0  0  0  0
 48 49  1  0  0  0  0
 51 48  1  0  0  0  0
M  END
