1,11
 OpenBabel05122313053D

 46 51  0  0  0  0  0  0  0  0999 V2000
    2.2895   -1.3191    0.0084 N   0  0  0  0  0  2  0  0  0  0  0  0
    1.6642   -3.6748   -0.0239 C   0  0  0  0  0  0  0  0  0  0  0  0
    0.8528   -4.4133   -0.0429 H   0  0  0  0  0  0  0  0  0  0  0  0
   -2.5655   -0.6398   -0.0326 C   0  0  0  0  0  0  0  0  0  0  0  0
    1.3253   -2.2917   -0.0119 C   0  0  0  0  0  0  0  0  0  0  0  0
   -0.0464   -1.8216   -0.0178 C   0  0  0  0  0  0  0  0  0  0  0  0
   -4.6894   -1.4707   -0.0243 C   0  0  0  0  0  0  0  0  0  0  0  0
   -3.9744    1.9628   -0.9738 C   0  0  0  0  0  0  0  0  0  0  0  0
   -3.2532    1.6439   -1.7395 H   0  0  0  0  0  0  0  0  0  0  0  0
   -3.9202   -0.2949   -0.0266 N   0  0  0  0  0  0  0  0  0  0  0  0
   -0.1717   -0.3941   -0.0009 C   0  0  0  0  0  2  0  0  0  0  0  0
   -2.4557   -2.0696   -0.0349 C   0  0  0  0  0  0  0  0  0  0  0  0
    4.6664   -0.7258    0.0488 C   0  0  0  0  0  0  0  0  0  0  0  0
    4.4041    0.3394    0.0542 H   0  0  0  0  0  0  0  0  0  0  0  0
   -1.4424    0.1998   -0.0012 C   0  0  0  0  0  0  0  0  0  0  0  0
   -1.5352    1.2930    0.0245 H   0  0  0  0  0  0  0  0  0  0  0  0
    3.6286   -1.6953    0.0229 C   0  0  0  0  0  0  0  0  0  0  0  0
    2.9797   -4.0731   -0.0122 C   0  0  0  0  0  0  0  0  0  0  0  0
    3.2519   -5.1397   -0.0215 H   0  0  0  0  0  0  0  0  0  0  0  0
   -6.0836   -1.6259   -0.0587 C   0  0  0  0  0  0  0  0  0  0  0  0
   -6.7541   -0.7556   -0.0800 H   0  0  0  0  0  0  0  0  0  0  0  0
    4.0061   -3.0889    0.0131 C   0  0  0  0  0  0  0  0  0  0  0  0
   -4.3478   -3.8953   -0.0467 C   0  0  0  0  0  0  0  0  0  0  0  0
   -3.6829   -4.7724   -0.0509 H   0  0  0  0  0  0  0  0  0  0  0  0
   -1.1854   -2.6555   -0.0282 C   0  0  0  0  0  0  0  0  0  0  0  0
   -1.0922   -3.7519   -0.0272 H   0  0  0  0  0  0  0  0  0  0  0  0
    6.0010   -1.1154    0.0642 C   0  0  0  0  0  0  0  0  0  0  0  0
    6.7812   -0.3388    0.0843 H   0  0  0  0  0  0  0  0  0  0  0  0
   -4.4247    1.0305   -0.0172 C   0  0  0  0  0  0  0  0  0  0  0  0
   -3.8085   -2.5968   -0.0301 C   0  0  0  0  0  0  0  0  0  0  0  0
   -5.3656    1.4246    0.9551 C   0  0  0  0  0  0  0  0  0  0  0  0
   -5.6952    0.6987    1.7122 H   0  0  0  0  0  0  0  0  0  0  0  0
   -4.4534    3.2796   -0.9450 C   0  0  0  0  0  0  0  0  0  0  0  0
   -4.0950    4.0024   -1.6939 H   0  0  0  0  0  0  0  0  0  0  0  0
   -5.3966    3.6721    0.0186 C   0  0  0  0  0  0  0  0  0  0  0  0
   -5.7756    4.7049    0.0336 H   0  0  0  0  0  0  0  0  0  0  0  0
   -5.7403   -4.0565   -0.0639 C   0  0  0  0  0  0  0  0  0  0  0  0
   -6.1733   -5.0677   -0.0751 H   0  0  0  0  0  0  0  0  0  0  0  0
    5.3809   -3.4503    0.0290 C   0  0  0  0  0  0  0  0  0  0  0  0
    5.6366   -4.5212    0.0209 H   0  0  0  0  0  0  0  0  0  0  0  0
    6.3729   -2.4814    0.0544 C   0  0  0  0  0  0  0  0  0  0  0  0
    7.4346   -2.7694    0.0669 H   0  0  0  0  0  0  0  0  0  0  0  0
   -6.5946   -2.9330   -0.0752 C   0  0  0  0  0  0  0  0  0  0  0  0
   -7.6849   -3.0807   -0.1007 H   0  0  0  0  0  0  0  0  0  0  0  0
   -5.8540    2.7387    0.9625 C   0  0  0  0  0  0  0  0  0  0  0  0
   -6.5881    3.0394    1.7254 H   0  0  0  0  0  0  0  0  0  0  0  0
  1 17  1  0  0  0  0
  2 18  2  0  0  0  0
  2  5  1  0  0  0  0
  3  2  1  0  0  0  0
  4 10  1  0  0  0  0
  4 15  2  0  0  0  0
  5  1  1  0  0  0  0
  6  5  2  0  0  0  0
  6 11  1  0  0  0  0
  8 33  2  0  0  0  0
  8 29  1  0  0  0  0
  9  8  1  0  0  0  0
 10  7  1  0  0  0  0
 10 29  1  0  0  0  0
 12  4  1  0  0  0  0
 12 30  1  0  0  0  0
 12 25  2  0  0  0  0
 13 14  1  0  0  0  0
 13 27  1  0  0  0  0
 15 11  1  0  0  0  0
 15 16  1  0  0  0  0
 17 13  2  0  0  0  0
 18 22  1  0  0  0  0
 19 18  1  0  0  0  0
 20  7  2  0  0  0  0
 21 20  1  0  0  0  0
 22 17  1  0  0  0  0
 22 39  2  0  0  0  0
 23 30  2  0  0  0  0
 24 23  1  0  0  0  0
 25 26  1  0  0  0  0
 25  6  1  0  0  0  0
 27 28  1  0  0  0  0
 29 31  2  0  0  0  0
 30  7  1  0  0  0  0
 31 45  1  0  0  0  0
 31 32  1  0  0  0  0
 33 35  1  0  0  0  0
 34 33  1  0  0  0  0
 35 36  1  0  0  0  0
 35 45  2  0  0  0  0
 37 23  1  0  0  0  0
 38 37  1  0  0  0  0
 39 41  1  0  0  0  0
 40 39  1  0  0  0  0
 41 27  2  0  0  0  0
 41 42  1  0  0  0  0
 43 37  2  0  0  0  0
 43 20  1  0  0  0  0
 44 43  1  0  0  0  0
 45 46  1  0  0  0  0
M  END
