7,14
 OpenBabel05122313053D

 29 31  0  0  0  0  0  0  0  0999 V2000
   -2.5394   -0.2337   -0.0217 C   0  0  0  0  0  0  0  0  0  0  0  0
   -2.7942    0.8347   -0.0221 H   0  0  0  0  0  0  0  0  0  0  0  0
    2.4181   -3.8529   -0.0091 C   0  0  0  0  0  0  0  0  0  0  0  0
    2.8272   -4.8748   -0.0113 H   0  0  0  0  0  0  0  0  0  0  0  0
    1.0604   -3.6293   -0.0201 C   0  0  0  0  0  0  0  0  0  0  0  0
    0.3511   -4.4665   -0.0309 H   0  0  0  0  0  0  0  0  0  0  0  0
   -1.1860   -0.6237   -0.0173 C   0  0  0  0  0  2  0  0  0  0  0  0
   -0.8771   -2.0111   -0.0250 C   0  0  0  0  0  0  0  0  0  0  0  0
   -1.9061   -2.9797   -0.0420 C   0  0  0  0  0  0  0  0  0  0  0  0
   -1.6691   -4.0539   -0.0551 H   0  0  0  0  0  0  0  0  0  0  0  0
    3.3050   -2.7432    0.0058 C   0  0  0  0  0  0  0  0  0  0  0  0
   -3.2421   -2.5793   -0.0470 C   0  0  0  0  0  0  0  0  0  0  0  0
   -4.0490   -3.3249   -0.0691 H   0  0  0  0  0  0  0  0  0  0  0  0
    1.3724   -1.2120   -0.0043 N   0  0  0  0  0  2  0  0  0  0  0  0
    4.7161   -2.9212    0.0188 C   0  0  0  0  0  0  0  0  0  0  0  0
    5.1104   -3.9491    0.0169 H   0  0  0  0  0  0  0  0  0  0  0  0
    5.5711   -1.8303    0.0337 C   0  0  0  0  0  0  0  0  0  0  0  0
    6.6614   -1.9761    0.0438 H   0  0  0  0  0  0  0  0  0  0  0  0
   -3.5532   -1.2023   -0.0338 C   0  0  0  0  0  0  0  0  0  0  0  0
    0.5484   -2.3033   -0.0169 C   0  0  0  0  0  0  0  0  0  0  0  0
   -5.1850    0.4837   -0.4349 F   0  0  0  0  0  0  0  0  0  0  0  0
    2.7493   -1.4097    0.0078 C   0  0  0  0  0  0  0  0  0  0  0  0
    3.6505   -0.3119    0.0231 C   0  0  0  0  0  0  0  0  0  0  0  0
    3.2499    0.7097    0.0238 H   0  0  0  0  0  0  0  0  0  0  0  0
    5.0239   -0.5238    0.0356 C   0  0  0  0  0  0  0  0  0  0  0  0
    5.6965    0.3477    0.0473 H   0  0  0  0  0  0  0  0  0  0  0  0
   -5.7959   -1.5971   -0.7090 F   0  0  0  0  0  0  0  0  0  0  0  0
   -5.4755   -0.8087    1.2971 F   0  0  0  0  0  0  0  0  0  0  0  0
   -5.0009   -0.7767    0.0241 C   0  0  0  0  0  0  0  0  0  0  0  0
  1  7  1  0  0  0  0
  2  1  1  0  0  0  0
  3 11  1  0  0  0  0
  4  3  1  0  0  0  0
  5 20  1  0  0  0  0
  5  3  2  0  0  0  0
  6  5  1  0  0  0  0
  8  7  1  0  0  0  0
  8 20  2  0  0  0  0
  9  8  1  0  0  0  0
 10  9  1  0  0  0  0
 11 22  2  0  0  0  0
 11 15  1  0  0  0  0
 12  9  2  0  0  0  0
 12 19  1  0  0  0  0
 13 12  1  0  0  0  0
 14 22  1  0  0  0  0
 15 17  2  0  0  0  0
 16 15  1  0  0  0  0
 17 25  1  0  0  0  0
 17 18  1  0  0  0  0
 19  1  2  0  0  0  0
 19 29  1  0  0  0  0
 20 14  1  0  0  0  0
 21 29  1  0  0  0  0
 22 23  1  0  0  0  0
 23 24  1  0  0  0  0
 23 25  2  0  0  0  0
 25 26  1  0  0  0  0
 27 29  1  0  0  0  0
 29 28  1  0  0  0  0
M  END
