9,11
 OpenBabel05122313053D

 33 34  0  0  0  0  0  0  0  0999 V2000
    6.9767   -0.5109    1.0958 C   0  0  0  0  0  0  0  0  0  0  0  0
    6.3478   -0.6546   -0.1615 O   0  0  0  0  0  0  0  0  0  0  0  0
    4.9854   -0.6263   -0.2073 C   0  0  0  0  0  0  0  0  0  0  0  0
    4.1463   -0.4526    0.9135 C   0  0  0  0  0  0  0  0  0  0  0  0
    2.7548   -0.4411    0.7540 C   0  0  0  0  0  0  0  0  0  0  0  0
    2.1590   -0.5889   -0.5164 C   0  0  0  0  0  0  0  0  0  0  0  0
    3.0134   -0.7677   -1.6346 C   0  0  0  0  0  0  0  0  0  0  0  0
    4.4001   -0.7899   -1.4807 C   0  0  0  0  0  0  0  0  0  0  0  0
    0.7641   -0.6287   -0.6376 N   0  0  0  0  0  2  0  0  0  0  0  0
    0.1430   -0.0904   -1.7120 C   0  0  0  0  0  3  0  0  0  0  0  0
   -1.2859   -0.1606   -1.6861 C   0  0  0  0  0  3  0  0  0  0  0  0
   -1.8728   -0.8735   -0.5868 C   0  0  0  0  0  3  0  0  0  0  0  0
   -3.3171   -0.9398   -0.3069 C   0  0  0  0  0  0  0  0  0  0  0  0
   -3.7819   -1.8790    0.6438 C   0  0  0  0  0  0  0  0  0  0  0  0
   -5.1438   -1.9859    0.9498 C   0  0  0  0  0  0  0  0  0  0  0  0
   -6.0775   -1.1552    0.3091 C   0  0  0  0  0  0  0  0  0  0  0  0
   -5.6330   -0.2174   -0.6374 C   0  0  0  0  0  0  0  0  0  0  0  0
   -4.2701   -0.1079   -0.9405 C   0  0  0  0  0  0  0  0  0  0  0  0
    8.0658   -0.5662    0.9112 H   0  0  0  0  0  0  0  0  0  0  0  0
    6.6891   -1.3233    1.8014 H   0  0  0  0  0  0  0  0  0  0  0  0
    6.7414    0.4688    1.5706 H   0  0  0  0  0  0  0  0  0  0  0  0
    4.5666   -0.3196    1.9193 H   0  0  0  0  0  0  0  0  0  0  0  0
    2.1049   -0.3016    1.6300 H   0  0  0  0  0  0  0  0  0  0  0  0
    2.5804   -0.9285   -2.6333 H   0  0  0  0  0  0  0  0  0  0  0  0
    5.0642   -0.9411   -2.3441 H   0  0  0  0  0  0  0  0  0  0  0  0
    0.6863    0.4262   -2.5279 H   0  0  0  0  0  0  0  0  0  0  0  0
   -1.8732    0.3588   -2.4568 H   0  0  0  0  0  0  0  0  0  0  0  0
   -1.2731   -1.7171   -0.2064 H   0  0  0  0  0  0  0  0  0  0  0  0
   -3.0510   -2.5296    1.1493 H   0  0  0  0  0  0  0  0  0  0  0  0
   -5.4803   -2.7238    1.6940 H   0  0  0  0  0  0  0  0  0  0  0  0
   -7.1486   -1.2364    0.5478 H   0  0  0  0  0  0  0  0  0  0  0  0
   -6.3566    0.4397   -1.1434 H   0  0  0  0  0  0  0  0  0  0  0  0
   -3.9455    0.6415   -1.6775 H   0  0  0  0  0  0  0  0  0  0  0  0
  1 21  1  0  0  0  0
  1 20  1  0  0  0  0
  2  1  1  0  0  0  0
  3  2  1  0  0  0  0
  3  4  1  0  0  0  0
  4 22  1  0  0  0  0
  5  4  2  0  0  0  0
  5 23  1  0  0  0  0
  6  5  1  0  0  0  0
  7  8  1  0  0  0  0
  7  6  2  0  0  0  0
  8  3  2  0  0  0  0
  9  6  1  0  0  0  0
 10 11  1  0  0  0  0
 10  9  1  0  0  0  0
 11 12  1  0  0  0  0
 12 13  1  0  0  0  0
 12 28  1  0  0  0  0
 13 14  1  0  0  0  0
 14 15  2  0  0  0  0
 14 29  1  0  0  0  0
 15 30  1  0  0  0  0
 16 31  1  0  0  0  0
 16 15  1  0  0  0  0
 17 16  2  0  0  0  0
 18 17  1  0  0  0  0
 18 13  2  0  0  0  0
 19  1  1  0  0  0  0
 24  7  1  0  0  0  0
 25  8  1  0  0  0  0
 26 10  1  0  0  0  0
 27 11  1  0  0  0  0
 32 17  1  0  0  0  0
 33 18  1  0  0  0  0
M  END
