1,2
 OpenBabel05122313053D

 35 37  0  0  0  0  0  0  0  0999 V2000
   -0.5812    0.1332   -0.8282 N   0  0  0  0  0  2  0  0  0  0  0  0
    0.0947   -0.4174    1.5432 C   0  0  0  0  0  3  0  0  0  0  0  0
    0.5859   -0.7577    2.8267 C   0  0  0  0  0  0  0  0  0  0  0  0
   -0.2800   -1.0051    3.9010 C   0  0  0  0  0  0  0  0  0  0  0  0
   -1.6726   -0.9227    3.7211 C   0  0  0  0  0  0  0  0  0  0  0  0
   -2.1885   -0.5973    2.4590 C   0  0  0  0  0  0  0  0  0  0  0  0
   -1.3174   -0.3434    1.3872 C   0  0  0  0  0  0  0  0  0  0  0  0
   -1.7976    0.0176   -0.0100 C   0  0  0  0  0  0  0  0  0  0  0  0
   -2.7042   -1.1176   -0.5260 C   0  0  0  0  0  0  0  0  0  0  0  0
   -4.0956   -1.1057   -0.3007 C   0  0  0  0  0  0  0  0  0  0  0  0
   -4.8972   -2.1816   -0.7118 C   0  0  0  0  0  0  0  0  0  0  0  0
   -4.3217   -3.2870   -1.3572 C   0  0  0  0  0  0  0  0  0  0  0  0
   -2.9363   -3.3079   -1.5833 C   0  0  0  0  0  0  0  0  0  0  0  0
   -2.1352   -2.2333   -1.1702 C   0  0  0  0  0  0  0  0  0  0  0  0
   -2.4817    1.3977   -0.0831 C   0  0  0  0  0  0  0  0  0  0  0  0
   -2.2914    2.3658    0.9217 C   0  0  0  0  0  0  0  0  0  0  0  0
   -2.8268    3.6554    0.7829 C   0  0  0  0  0  0  0  0  0  0  0  0
   -3.5587    4.0018   -0.3636 C   0  0  0  0  0  0  0  0  0  0  0  0
   -3.7480    3.0464   -1.3748 C   0  0  0  0  0  0  0  0  0  0  0  0
   -3.2136    1.7572   -1.2351 C   0  0  0  0  0  0  0  0  0  0  0  0
   -0.7994    0.4044   -1.7949 H   0  0  0  0  0  0  0  0  0  0  0  0
    1.6710   -0.8308    2.9940 H   0  0  0  0  0  0  0  0  0  0  0  0
    0.1323   -1.2680    4.8882 H   0  0  0  0  0  0  0  0  0  0  0  0
   -2.3550   -1.1194    4.5620 H   0  0  0  0  0  0  0  0  0  0  0  0
   -3.2777   -0.5422    2.3086 H   0  0  0  0  0  0  0  0  0  0  0  0
   -4.5594   -0.2387    0.1927 H   0  0  0  0  0  0  0  0  0  0  0  0
   -5.9825   -2.1523   -0.5288 H   0  0  0  0  0  0  0  0  0  0  0  0
   -4.9513   -4.1288   -1.6835 H   0  0  0  0  0  0  0  0  0  0  0  0
   -2.4728   -4.1713   -2.0854 H   0  0  0  0  0  0  0  0  0  0  0  0
   -1.0478   -2.2481   -1.3353 H   0  0  0  0  0  0  0  0  0  0  0  0
   -1.7157    2.1010    1.8200 H   0  0  0  0  0  0  0  0  0  0  0  0
   -2.6716    4.3964    1.5824 H   0  0  0  0  0  0  0  0  0  0  0  0
   -3.9827    5.0122   -0.4683 H   0  0  0  0  0  0  0  0  0  0  0  0
   -4.3210    3.3044   -2.2789 H   0  0  0  0  0  0  0  0  0  0  0  0
   -3.3762    1.0118   -2.0289 H   0  0  0  0  0  0  0  0  0  0  0  0
  1  8  1  0  0  0  0
  2  3  1  0  0  0  0
  3 22  1  0  0  0  0
  3  4  2  0  0  0  0
  4 23  1  0  0  0  0
  5  4  1  0  0  0  0
  5 24  1  0  0  0  0
  6  5  2  0  0  0  0
  7  2  2  0  0  0  0
  7  6  1  0  0  0  0
  8  7  1  0  0  0  0
  9 10  1  0  0  0  0
  9  8  1  0  0  0  0
 10 26  1  0  0  0  0
 11 27  1  0  0  0  0
 11 10  2  0  0  0  0
 12 11  1  0  0  0  0
 13 12  2  0  0  0  0
 13 14  1  0  0  0  0
 14  9  2  0  0  0  0
 15  8  1  0  0  0  0
 15 16  1  0  0  0  0
 16 31  1  0  0  0  0
 17 16  2  0  0  0  0
 17 32  1  0  0  0  0
 18 17  1  0  0  0  0
 19 20  1  0  0  0  0
 19 18  2  0  0  0  0
 20 15  2  0  0  0  0
 21  1  1  0  0  0  0
 25  6  1  0  0  0  0
 28 12  1  0  0  0  0
 29 13  1  0  0  0  0
 30 14  1  0  0  0  0
 33 18  1  0  0  0  0
 34 19  1  0  0  0  0
 35 20  1  0  0  0  0
M  END
