1,3
 OpenBabel05122313053D

 39 41  0  0  1  0  0  0  0  0999 V2000
    0.7960    0.0695    0.8434 N   0  0  0  0  0  2  0  0  0  0  0  0
   -1.5221    0.7148    1.7099 C   0  0  1  0  0  3  0  0  0  0  0  0
   -1.7863    1.9543    1.0610 C   0  0  0  0  0  3  0  0  0  0  0  0
   -1.3432    2.9163    1.3481 H   0  0  0  0  0  0  0  0  0  0  0  0
   -2.5600    1.7228   -0.1107 C   0  0  0  0  0  3  0  0  0  0  0  0
   -2.8704    2.4802   -0.8398 H   0  0  0  0  0  0  0  0  0  0  0  0
   -2.8972    0.3240   -0.1443 C   0  0  0  0  0  0  0  0  0  0  0  0
   -3.6723   -0.4578   -1.0472 C   0  0  0  0  0  0  0  0  0  0  0  0
   -4.1746    0.0207   -1.9004 H   0  0  0  0  0  0  0  0  0  0  0  0
   -3.7668   -1.8226   -0.8319 C   0  0  0  0  0  0  0  0  0  0  0  0
   -4.3619   -2.4422   -1.5192 H   0  0  0  0  0  0  0  0  0  0  0  0
   -3.0975   -2.4512    0.2621 C   0  0  0  0  0  0  0  0  0  0  0  0
   -3.1937   -3.5397    0.3911 H   0  0  0  0  0  0  0  0  0  0  0  0
   -2.3348   -1.7202    1.1593 C   0  0  0  0  0  0  0  0  0  0  0  0
   -1.8332   -2.2122    2.0055 H   0  0  0  0  0  0  0  0  0  0  0  0
   -2.2358   -0.3098    0.9824 C   0  0  0  0  0  0  0  0  0  0  0  0
   -0.5294    0.4917    2.8160 C   0  0  0  0  0  0  0  0  0  0  0  0
   -0.9822   -0.0450    3.6759 H   0  0  0  0  0  0  0  0  0  0  0  0
   -0.1849    1.4769    3.1879 H   0  0  0  0  0  0  0  0  0  0  0  0
    0.6608   -0.2992    2.2415 C   0  0  0  0  0  0  0  0  0  0  0  0
    1.5935   -0.0901    2.8136 H   0  0  0  0  0  0  0  0  0  0  0  0
    0.4850   -1.3977    2.3342 H   0  0  0  0  0  0  0  0  0  0  0  0
    2.0574   -0.1971    0.1510 C   0  0  0  0  0  0  0  0  0  0  0  0
    1.8789    0.0569   -0.9231 H   0  0  0  0  0  0  0  0  0  0  0  0
    2.4620   -1.6807    0.1791 C   0  0  0  0  0  0  0  0  0  0  0  0
    2.6355   -1.9923    1.2334 H   0  0  0  0  0  0  0  0  0  0  0  0
    1.6194   -2.2868   -0.2129 H   0  0  0  0  0  0  0  0  0  0  0  0
    3.7387   -1.9122   -0.6393 C   0  0  0  0  0  0  0  0  0  0  0  0
    4.0402   -2.9790   -0.5833 H   0  0  0  0  0  0  0  0  0  0  0  0
    3.5194   -1.7057   -1.7107 H   0  0  0  0  0  0  0  0  0  0  0  0
    4.8822   -1.0022   -0.1705 C   0  0  0  0  0  0  0  0  0  0  0  0
    5.7855   -1.1636   -0.7954 H   0  0  0  0  0  0  0  0  0  0  0  0
    5.1680   -1.2821    0.8691 H   0  0  0  0  0  0  0  0  0  0  0  0
    4.4708    0.4759   -0.1984 C   0  0  0  0  0  0  0  0  0  0  0  0
    4.2857    0.7852   -1.2514 H   0  0  0  0  0  0  0  0  0  0  0  0
    5.2959    1.1186    0.1737 H   0  0  0  0  0  0  0  0  0  0  0  0
    3.1971    0.7256    0.6198 C   0  0  0  0  0  0  0  0  0  0  0  0
    2.8606    1.7783    0.5252 H   0  0  0  0  0  0  0  0  0  0  0  0
    3.4034    0.5373    1.6973 H   0  0  0  0  0  0  0  0  0  0  0  0
  1 20  1  0  0  0  0
  2 17  1  6  0  0  0
  3  4  1  0  0  0  0
  3  2  1  0  0  0  0
  5  3  1  0  0  0  0
  6  5  1  0  0  0  0
  7  5  1  0  0  0  0
  7 16  1  0  0  0  0
  8 10  1  0  0  0  0
  8  7  2  0  0  0  0
  9  8  1  0  0  0  0
 10 12  2  0  0  0  0
 11 10  1  0  0  0  0
 12 13  1  0  0  0  0
 12 14  1  0  0  0  0
 14 15  1  0  0  0  0
 16 14  2  0  0  0  0
 16  2  1  0  0  0  0
 17 19  1  0  0  0  0
 17 18  1  0  0  0  0
 20 22  1  0  0  0  0
 20 21  1  0  0  0  0
 20 17  1  0  0  0  0
 23 25  1  0  0  0  0
 23 37  1  0  0  0  0
 23  1  1  0  0  0  0
 24 23  1  0  0  0  0
 25 26  1  0  0  0  0
 27 25  1  0  0  0  0
 28 29  1  0  0  0  0
 28 31  1  0  0  0  0
 28 25  1  0  0  0  0
 30 28  1  0  0  0  0
 31 33  1  0  0  0  0
 32 31  1  0  0  0  0
 34 31  1  0  0  0  0
 34 36  1  0  0  0  0
 34 37  1  0  0  0  0
 35 34  1  0  0  0  0
 37 39  1  0  0  0  0
 38 37  1  0  0  0  0
M  END
