1,3
 OpenBabel05122313053D

 31 32  0  0  1  0  0  0  0  0999 V2000
   -1.3455    0.9845    0.4695 N   0  0  0  0  0  2  0  0  0  0  0  0
   -3.0178    2.3613    1.0975 O   0  0  0  0  0  0  0  0  0  0  0  0
   -2.8537   -1.1509    0.0554 C   0  0  0  0  0  2  0  0  0  0  0  0
   -3.5220    0.0143    0.5415 C   0  0  0  0  0  0  0  0  0  0  0  0
   -4.9142    0.0568    0.7589 C   0  0  0  0  0  0  0  0  0  0  0  0
   -5.3812    0.9796    1.1356 H   0  0  0  0  0  0  0  0  0  0  0  0
   -5.6737   -1.0837    0.4796 C   0  0  0  0  0  0  0  0  0  0  0  0
   -6.7624   -1.0772    0.6382 H   0  0  0  0  0  0  0  0  0  0  0  0
   -5.0348   -2.2403   -0.0084 C   0  0  0  0  0  0  0  0  0  0  0  0
   -5.6361   -3.1368   -0.2297 H   0  0  0  0  0  0  0  0  0  0  0  0
   -3.6442   -2.2812   -0.2177 C   0  0  0  0  0  0  0  0  0  0  0  0
   -3.1607   -3.1957   -0.5903 H   0  0  0  0  0  0  0  0  0  0  0  0
   -2.6258    1.1311    0.7279 C   0  0  0  0  0  0  0  0  0  0  0  0
   -0.7294    2.3230    0.4511 C   0  0  2  0  0  0  0  0  0  0  0  0
    0.2330    2.3137    1.0047 H   0  0  0  0  0  0  0  0  0  0  0  0
   -1.7949    3.1372    1.2263 C   0  0  0  0  0  0  0  0  0  0  0  0
   -1.5587    3.2207    2.3079 H   0  0  0  0  0  0  0  0  0  0  0  0
   -1.9886    4.1456    0.8180 H   0  0  0  0  0  0  0  0  0  0  0  0
   -0.4365    2.8477   -0.9958 C   0  0  0  0  0  0  0  0  0  0  0  0
    0.5826    1.9267   -1.6879 C   0  0  0  0  0  0  0  0  0  0  0  0
    0.8233    2.3185   -2.6969 H   0  0  0  0  0  0  0  0  0  0  0  0
    0.1815    0.9001   -1.8035 H   0  0  0  0  0  0  0  0  0  0  0  0
    1.5310    1.8661   -1.1151 H   0  0  0  0  0  0  0  0  0  0  0  0
    0.1729    4.2575   -0.8820 C   0  0  0  0  0  0  0  0  0  0  0  0
    0.4484    4.6355   -1.8870 H   0  0  0  0  0  0  0  0  0  0  0  0
    1.0948    4.2500   -0.2633 H   0  0  0  0  0  0  0  0  0  0  0  0
   -0.5299    4.9928   -0.4397 H   0  0  0  0  0  0  0  0  0  0  0  0
   -1.7269    2.8858   -1.8334 C   0  0  0  0  0  0  0  0  0  0  0  0
   -1.5089    3.2697   -2.8503 H   0  0  0  0  0  0  0  0  0  0  0  0
   -2.5017    3.5435   -1.3901 H   0  0  0  0  0  0  0  0  0  0  0  0
   -2.1577    1.8705   -1.9444 H   0  0  0  0  0  0  0  0  0  0  0  0
  1 13  1  0  0  0  0
  2 16  1  0  0  0  0
  3  4  1  0  0  0  0
  4 13  2  0  0  0  0
  4  5  1  0  0  0  0
  5  6  1  0  0  0  0
  7  8  1  0  0  0  0
  7  5  2  0  0  0  0
  9  7  1  0  0  0  0
 10  9  1  0  0  0  0
 11  9  2  0  0  0  0
 11  3  1  0  0  0  0
 12 11  1  0  0  0  0
 13  2  1  0  0  0  0
 14  1  1  0  0  0  0
 14 15  1  1  0  0  0
 14 16  1  0  0  0  0
 16 17  1  0  0  0  0
 18 16  1  0  0  0  0
 19 24  1  0  0  0  0
 19 14  1  0  0  0  0
 20 23  1  0  0  0  0
 20 19  1  0  0  0  0
 21 20  1  0  0  0  0
 22 20  1  0  0  0  0
 24 27  1  0  0  0  0
 24 26  1  0  0  0  0
 25 24  1  0  0  0  0
 28 30  1  0  0  0  0
 28 19  1  0  0  0  0
 29 28  1  0  0  0  0
 31 28  1  0  0  0  0
M  END
