5,6
 OpenBabel05122313053D

 27 28  0  0  0  0  0  0  0  0999 V2000
   -1.9851   -1.8276    2.0661 Cl  0  0  0  0  0  0  0  0  0  0  0  0
   -4.6858   -0.3492    1.7862 Cl  0  0  0  0  0  0  0  0  0  0  0  0
   -5.0958    1.8851   -0.3679 Cl  0  0  0  0  0  0  0  0  0  0  0  0
   -2.7008    2.7085   -2.2265 Cl  0  0  0  0  0  0  0  0  0  0  0  0
    0.9970    0.4636   -1.5162 N   0  0  0  0  0  2  0  0  0  0  0  0
   -1.1443   -0.4709   -0.1771 C   0  0  0  0  0  3  0  0  0  0  0  0
   -2.1814   -0.7061    0.7442 C   0  0  0  0  0  0  0  0  0  0  0  0
   -3.4052    0.0116    0.6844 C   0  0  0  0  0  0  0  0  0  0  0  0
   -3.5929    1.0375   -0.2733 C   0  0  0  0  0  0  0  0  0  0  0  0
   -2.5208    1.3779   -1.1188 C   0  0  0  0  0  0  0  0  0  0  0  0
   -1.3049    0.6584   -1.0502 C   0  0  0  0  0  0  0  0  0  0  0  0
   -0.1094    1.1004   -1.7478 C   0  0  0  0  0  3  0  0  0  0  0  0
    2.2689    0.9200   -2.0638 C   0  0  0  0  0  0  0  0  0  0  0  0
    2.0918    1.5770   -2.9432 H   0  0  0  0  0  0  0  0  0  0  0  0
    2.8343    0.0197   -2.3766 H   0  0  0  0  0  0  0  0  0  0  0  0
    3.0470    1.6731   -0.9960 C   0  0  0  0  0  0  0  0  0  0  0  0
    2.7285    3.0147   -0.7067 C   0  0  0  0  0  0  0  0  0  0  0  0
    3.3882    3.6994    0.3247 C   0  0  0  0  0  0  0  0  0  0  0  0
    3.1328    4.7486    0.5379 H   0  0  0  0  0  0  0  0  0  0  0  0
    4.3757    3.0463    1.0813 C   0  0  0  0  0  0  0  0  0  0  0  0
    4.7020    1.7109    0.7950 C   0  0  0  0  0  0  0  0  0  0  0  0
    4.0413    1.0255   -0.2374 C   0  0  0  0  0  0  0  0  0  0  0  0
   -0.1441    1.9884   -2.4072 H   0  0  0  0  0  0  0  0  0  0  0  0
    1.9515    3.5300   -1.2944 H   0  0  0  0  0  0  0  0  0  0  0  0
    4.8930    3.5814    1.8921 H   0  0  0  0  0  0  0  0  0  0  0  0
    5.4800    1.1965    1.3801 H   0  0  0  0  0  0  0  0  0  0  0  0
    4.2676   -0.0311   -0.4528 H   0  0  0  0  0  0  0  0  0  0  0  0
  3  9  1  0  0  0  0
  4 10  1  0  0  0  0
  6  7  1  0  0  0  0
  7  1  1  0  0  0  0
  8  7  2  0  0  0  0
  8  2  1  0  0  0  0
  9  8  1  0  0  0  0
 10 11  1  0  0  0  0
 10  9  2  0  0  0  0
 11  6  2  0  0  0  0
 12  5  1  0  0  0  0
 12 11  1  0  0  0  0
 13  5  1  0  0  0  0
 13 16  1  0  0  0  0
 14 13  1  0  0  0  0
 15 13  1  0  0  0  0
 16 17  2  0  0  0  0
 16 22  1  0  0  0  0
 17 18  1  0  0  0  0
 18 19  1  0  0  0  0
 18 20  2  0  0  0  0
 20 25  1  0  0  0  0
 21 20  1  0  0  0  0
 21 26  1  0  0  0  0
 22 21  2  0  0  0  0
 23 12  1  0  0  0  0
 24 17  1  0  0  0  0
 27 22  1  0  0  0  0
M  END
