2,11
 OpenBabel05122313053D

 26 27  0  0  1  0  0  0  0  0999 V2000
   -0.7099    0.1885    0.0846 N   0  0  0  0  0  0  0  0  0  0  0  0
    0.3882   -0.5843   -0.1278 N   0  0  0  0  0  2  0  0  0  0  0  0
    1.0455   -2.8020   -0.6511 N   0  0  0  0  0  0  0  0  0  0  0  0
    0.7353   -3.7038   -1.0109 H   0  0  0  0  0  0  0  0  0  0  0  0
   -1.6103   -2.1086   -0.6838 S   0  0  0  0  0  0  0  0  0  0  0  0
   -1.8464   -0.4208   -0.1614 C   0  0  0  0  0  0  0  0  0  0  0  0
    0.1123   -1.8350   -0.4943 C   0  0  1  0  0  3  0  0  0  0  0  0
    2.4879   -2.5859   -0.5124 C   0  0  0  0  0  0  0  0  0  0  0  0
    2.9040   -2.0849   -1.4166 H   0  0  0  0  0  0  0  0  0  0  0  0
    2.9432   -3.5982   -0.4711 H   0  0  0  0  0  0  0  0  0  0  0  0
    2.8801   -1.8149    0.7308 C   0  0  0  0  0  3  0  0  0  0  0  0
    2.4403   -2.1764    1.6784 H   0  0  0  0  0  0  0  0  0  0  0  0
    3.9706   -0.9526    0.7658 C   0  0  0  0  0  3  0  0  0  0  0  0
    4.5905   -0.7798   -0.1299 H   0  0  0  0  0  0  0  0  0  0  0  0
    4.3990   -0.6329    1.7286 H   0  0  0  0  0  0  0  0  0  0  0  0
   -3.1745    0.1750   -0.0420 C   0  0  0  0  0  0  0  0  0  0  0  0
   -4.3417   -0.6161   -0.1387 C   0  0  0  0  0  0  0  0  0  0  0  0
   -4.2625   -1.7031   -0.3010 H   0  0  0  0  0  0  0  0  0  0  0  0
   -5.6059   -0.0285   -0.0170 C   0  0  0  0  0  0  0  0  0  0  0  0
   -6.5076   -0.6534   -0.0929 H   0  0  0  0  0  0  0  0  0  0  0  0
   -5.7202    1.3534    0.2053 C   0  0  0  0  0  0  0  0  0  0  0  0
   -6.7144    1.8145    0.3011 H   0  0  0  0  0  0  0  0  0  0  0  0
   -4.5639    2.1472    0.3020 C   0  0  0  0  0  0  0  0  0  0  0  0
   -4.6527    3.2307    0.4701 H   0  0  0  0  0  0  0  0  0  0  0  0
   -3.2976    1.5681    0.1769 C   0  0  0  0  0  0  0  0  0  0  0  0
   -2.3897    2.1846    0.2363 H   0  0  0  0  0  0  0  0  0  0  0  0
  2  1  1  0  0  0  0
  3  8  1  0  0  0  0
  4  3  1  0  0  0  0
  5  7  1  0  0  0  0
  5  6  1  0  0  0  0
  6 16  1  0  0  0  0
  6  1  2  0  0  0  0
  7  3  1  1  0  0  0
  7  2  1  0  0  0  0
  8 10  1  0  0  0  0
  8 11  1  0  0  0  0
  9  8  1  0  0  0  0
 11 13  1  0  0  0  0
 11 12  1  0  0  0  0
 13 15  1  0  0  0  0
 14 13  1  0  0  0  0
 16 25  1  0  0  0  0
 17 16  2  0  0  0  0
 17 19  1  0  0  0  0
 18 17  1  0  0  0  0
 19 21  2  0  0  0  0
 20 19  1  0  0  0  0
 21 22  1  0  0  0  0
 21 23  1  0  0  0  0
 23 24  1  0  0  0  0
 25 26  1  0  0  0  0
 25 23  2  0  0  0  0
M  END
