1,16
 OpenBabel05122313053D

 36 37  0  0  0  0  0  0  0  0999 V2000
   -0.2093   -0.0531   -1.3620 N   0  0  0  0  0  2  0  0  0  0  0  0
    1.1009    0.0424   -1.5443 N   0  0  0  0  0  0  0  0  0  0  0  0
   -4.1553   -0.8427   -0.5361 C   0  0  0  0  0  0  0  0  0  0  0  0
   -5.2104    0.0996   -0.5481 C   0  0  0  0  0  0  0  0  0  0  0  0
   -5.0302    1.1271   -0.8973 H   0  0  0  0  0  0  0  0  0  0  0  0
   -6.7528   -1.5535    0.3538 C   0  0  0  0  0  0  0  0  0  0  0  0
   -7.7608   -1.8270    0.6999 H   0  0  0  0  0  0  0  0  0  0  0  0
   -6.4933   -0.2538   -0.1113 C   0  0  0  0  0  0  0  0  0  0  0  0
   -7.2992    0.4954   -0.1308 H   0  0  0  0  0  0  0  0  0  0  0  0
   -5.7152   -2.4996    0.3758 C   0  0  0  0  0  0  0  0  0  0  0  0
   -5.9063   -3.5208    0.7391 H   0  0  0  0  0  0  0  0  0  0  0  0
   -4.4339   -2.1474   -0.0652 C   0  0  0  0  0  0  0  0  0  0  0  0
   -3.6212   -2.8904   -0.0446 H   0  0  0  0  0  0  0  0  0  0  0  0
   -2.7874   -0.5323   -0.9868 C   0  0  0  0  0  3  0  0  0  0  0  0
   -2.1374   -1.4070   -1.1514 H   0  0  0  0  0  0  0  0  0  0  0  0
   -2.4188    0.6535   -1.7075 C   0  0  0  0  0  3  0  0  0  0  0  0
   -3.1444    1.4106   -2.0379 H   0  0  0  0  0  0  0  0  0  0  0  0
   -1.0291    0.8678   -1.9407 C   0  0  0  0  0  3  0  0  0  0  0  0
   -0.6285    1.7235   -2.5128 H   0  0  0  0  0  0  0  0  0  0  0  0
    1.9184   -0.1511   -0.5455 C   0  0  0  0  0  0  0  0  0  0  0  0
    1.5128   -0.2788    0.4833 H   0  0  0  0  0  0  0  0  0  0  0  0
    3.3403   -0.1938   -0.7446 C   0  0  0  0  0  0  0  0  0  0  0  0
    3.6814   -0.0692   -1.7853 H   0  0  0  0  0  0  0  0  0  0  0  0
    4.2295   -0.3719    0.2783 C   0  0  0  0  0  0  0  0  0  0  0  0
    3.8168   -0.4862    1.2967 H   0  0  0  0  0  0  0  0  0  0  0  0
    5.6843   -0.4293    0.1857 C   0  0  0  0  0  0  0  0  0  0  0  0
    6.3887   -0.3067   -1.0399 C   0  0  0  0  0  0  0  0  0  0  0  0
    5.8313   -0.1623   -1.9772 H   0  0  0  0  0  0  0  0  0  0  0  0
    7.7847   -0.3674   -1.0747 C   0  0  0  0  0  0  0  0  0  0  0  0
    8.3096   -0.2698   -2.0373 H   0  0  0  0  0  0  0  0  0  0  0  0
    8.5203   -0.5525    0.1103 C   0  0  0  0  0  0  0  0  0  0  0  0
    9.6192   -0.5998    0.0780 H   0  0  0  0  0  0  0  0  0  0  0  0
    7.8416   -0.6764    1.3329 C   0  0  0  0  0  0  0  0  0  0  0  0
    8.4069   -0.8215    2.2660 H   0  0  0  0  0  0  0  0  0  0  0  0
    6.4432   -0.6156    1.3687 C   0  0  0  0  0  0  0  0  0  0  0  0
    5.9140   -0.7128    2.3298 H   0  0  0  0  0  0  0  0  0  0  0  0
  2  1  1  0  0  0  0
  2 20  2  0  0  0  0
  3 12  1  0  0  0  0
  4  3  2  0  0  0  0
  4  8  1  0  0  0  0
  5  4  1  0  0  0  0
  6 10  1  0  0  0  0
  6  7  1  0  0  0  0
  8  6  2  0  0  0  0
  9  8  1  0  0  0  0
 10 11  1  0  0  0  0
 12 13  1  0  0  0  0
 12 10  2  0  0  0  0
 14  3  1  0  0  0  0
 15 14  1  0  0  0  0
 16 14  1  0  0  0  0
 17 16  1  0  0  0  0
 18 16  1  0  0  0  0
 18  1  1  0  0  0  0
 19 18  1  0  0  0  0
 20 21  1  0  0  0  0
 22 20  1  0  0  0  0
 22 24  2  0  0  0  0
 23 22  1  0  0  0  0
 24 25  1  0  0  0  0
 26 24  1  0  0  0  0
 26 35  1  0  0  0  0
 27 26  2  0  0  0  0
 28 27  1  0  0  0  0
 29 27  1  0  0  0  0
 29 31  2  0  0  0  0
 30 29  1  0  0  0  0
 31 33  1  0  0  0  0
 32 31  1  0  0  0  0
 33 35  2  0  0  0  0
 33 34  1  0  0  0  0
 35 36  1  0  0  0  0
M  END
