1,13
 OpenBabel05122313053D

 20 20  0  0  1  0  0  0  0  0999 V2000
    2.2544    0.0163    0.3689 N   0  0  0  0  0  2  0  0  0  0  0  0
    2.8621   -1.1521   -1.5137 N   0  0  0  0  0  0  0  0  0  0  0  0
    3.5318   -1.3688   -2.2531 H   0  0  0  0  0  0  0  0  0  0  0  0
    3.1231   -0.1141   -0.6802 C   0  0  1  0  0  3  0  0  0  0  0  0
    4.1919    0.7963   -0.8717 C   0  0  0  0  0  0  0  0  0  0  0  0
    4.8644    0.6656   -1.7311 H   0  0  0  0  0  0  0  0  0  0  0  0
    4.3590    1.8420    0.0285 C   0  0  0  0  0  0  0  0  0  0  0  0
    5.1817    2.5591   -0.1079 H   0  0  0  0  0  0  0  0  0  0  0  0
    3.4651    1.9735    1.1100 C   0  0  0  0  0  0  0  0  0  0  0  0
    3.5573    2.7857    1.8424 H   0  0  0  0  0  0  0  0  0  0  0  0
    2.4363    1.0463    1.2340 C   0  0  0  0  0  0  0  0  0  0  0  0
    1.7044    1.1199    2.0473 H   0  0  0  0  0  0  0  0  0  0  0  0
    1.8193   -2.0937   -1.2047 C   0  0  0  0  0  3  0  0  0  0  0  0
    2.1955   -3.1272   -1.0856 H   0  0  0  0  0  0  0  0  0  0  0  0
    0.4814   -1.9138   -1.6695 C   0  0  0  0  0  3  0  0  0  0  0  0
    0.2967   -1.0204   -2.2863 H   0  0  0  0  0  0  0  0  0  0  0  0
   -0.4052   -3.0827   -2.0174 C   0  0  0  0  0  0  0  0  0  0  0  0
   -0.3177   -3.3030   -3.1037 H   0  0  0  0  0  0  0  0  0  0  0  0
   -1.4724   -2.8649   -1.8214 H   0  0  0  0  0  0  0  0  0  0  0  0
   -0.1259   -4.0026   -1.4684 H   0  0  0  0  0  0  0  0  0  0  0  0
  1 11  1  0  0  0  0
  2 13  1  0  0  0  0
  3  2  1  0  0  0  0
  4  2  1  6  0  0  0
  4  1  1  0  0  0  0
  5  4  1  0  0  0  0
  5  7  2  0  0  0  0
  6  5  1  0  0  0  0
  7  9  1  0  0  0  0
  8  7  1  0  0  0  0
  9 11  2  0  0  0  0
  9 10  1  0  0  0  0
 11 12  1  0  0  0  0
 13 14  1  0  0  0  0
 15 13  1  0  0  0  0
 16 15  1  0  0  0  0
 17 19  1  0  0  0  0
 17 15  1  0  0  0  0
 17 20  1  0  0  0  0
 18 17  1  0  0  0  0
M  END
