2,40
 OpenBabel05122313053D

 41 41  0  0  1  0  0  0  0  0999 V2000
   -1.4038    1.5547    0.5478 Si  0  0  0  0  0  0  0  0  0  0  0  0
    0.4721    1.5739    0.7274 C   0  0  1  0  0  3  0  0  0  0  0  0
    1.0404    0.7080    1.7246 C   0  0  0  0  0  0  0  0  0  0  0  0
    2.3096    0.2315    1.2847 C   0  0  0  0  0  0  0  0  0  0  0  0
    2.5466    0.7986   -0.0114 C   0  0  0  0  0  0  0  0  0  0  0  0
    1.4252    1.6288   -0.3511 C   0  0  0  0  0  0  0  0  0  0  0  0
    3.2357   -0.6585    2.0529 C   0  0  0  0  0  0  0  0  0  0  0  0
    3.7634   -1.3731    1.3919 H   0  0  0  0  0  0  0  0  0  0  0  0
    2.6815   -1.2478    2.8073 H   0  0  0  0  0  0  0  0  0  0  0  0
    4.0061   -0.0556    2.5797 H   0  0  0  0  0  0  0  0  0  0  0  0
    3.7626    0.6067   -0.8616 C   0  0  0  0  0  0  0  0  0  0  0  0
    4.3844    1.5276   -0.8695 H   0  0  0  0  0  0  0  0  0  0  0  0
    3.4814    0.3803   -1.9094 H   0  0  0  0  0  0  0  0  0  0  0  0
    4.3948   -0.2226   -0.4919 H   0  0  0  0  0  0  0  0  0  0  0  0
    1.3309    2.4190   -1.6217 C   0  0  0  0  0  0  0  0  0  0  0  0
    2.1067    3.2142   -1.6307 H   0  0  0  0  0  0  0  0  0  0  0  0
    0.3488    2.9113   -1.7289 H   0  0  0  0  0  0  0  0  0  0  0  0
    1.4994    1.7766   -2.5091 H   0  0  0  0  0  0  0  0  0  0  0  0
   -2.1029    2.8335   -0.6526 C   0  0  0  0  0  0  0  0  0  0  0  0
   -1.8389    2.5961   -1.7014 H   0  0  0  0  0  0  0  0  0  0  0  0
   -1.7032    3.8396   -0.4083 H   0  0  0  0  0  0  0  0  0  0  0  0
   -3.2076    2.8815   -0.5812 H   0  0  0  0  0  0  0  0  0  0  0  0
   -2.2455    1.7410    2.2263 C   0  0  0  0  0  0  0  0  0  0  0  0
   -3.3443    1.6178    2.1409 H   0  0  0  0  0  0  0  0  0  0  0  0
   -2.0496    2.7543    2.6350 H   0  0  0  0  0  0  0  0  0  0  0  0
   -1.8749    0.9940    2.9556 H   0  0  0  0  0  0  0  0  0  0  0  0
   -2.5170   -1.0094   -0.3438 C   0  0  0  0  0  0  0  0  0  0  0  0
   -3.6878   -0.1856   -0.9125 C   0  0  0  0  0  0  0  0  0  0  0  0
   -4.0397    0.5760   -0.1862 H   0  0  0  0  0  0  0  0  0  0  0  0
   -4.5480   -0.8469   -1.1396 H   0  0  0  0  0  0  0  0  0  0  0  0
   -3.3922    0.3299   -1.8477 H   0  0  0  0  0  0  0  0  0  0  0  0
   -2.9410   -1.6735    0.9822 C   0  0  0  0  0  0  0  0  0  0  0  0
   -2.0910   -2.2374    1.4138 H   0  0  0  0  0  0  0  0  0  0  0  0
   -3.7831   -2.3760    0.8153 H   0  0  0  0  0  0  0  0  0  0  0  0
   -3.2674   -0.9143    1.7204 H   0  0  0  0  0  0  0  0  0  0  0  0
   -2.1341   -2.0949   -1.3660 C   0  0  0  0  0  0  0  0  0  0  0  0
   -1.7983   -1.6405   -2.3178 H   0  0  0  0  0  0  0  0  0  0  0  0
   -3.0067   -2.7473   -1.5710 H   0  0  0  0  0  0  0  0  0  0  0  0
   -1.3160   -2.7358   -0.9820 H   0  0  0  0  0  0  0  0  0  0  0  0
   -1.3637   -0.1119   -0.0711 N   0  0  0  0  0  2  0  0  0  0  0  0
    0.5455    0.3898    2.6522 H   0  0  0  0  0  0  0  0  0  0  0  0
  1 23  1  0  0  0  0
  2  1  1  6  0  0  0
  2  3  1  0  0  0  0
  3 41  1  0  0  0  0
  4  3  2  0  0  0  0
  4  7  1  0  0  0  0
  5  4  1  0  0  0  0
  6  5  2  0  0  0  0
  6  2  1  0  0  0  0
  7 10  1  0  0  0  0
  7  9  1  0  0  0  0
  8  7  1  0  0  0  0
 11 14  1  0  0  0  0
 11  5  1  0  0  0  0
 12 11  1  0  0  0  0
 13 11  1  0  0  0  0
 15  6  1  0  0  0  0
 16 15  1  0  0  0  0
 17 15  1  0  0  0  0
 18 15  1  0  0  0  0
 19 22  1  0  0  0  0
 19 21  1  0  0  0  0
 19  1  1  0  0  0  0
 20 19  1  0  0  0  0
 23 25  1  0  0  0  0
 23 26  1  0  0  0  0
 24 23  1  0  0  0  0
 27 40  1  0  0  0  0
 27 32  1  0  0  0  0
 28 27  1  0  0  0  0
 28 29  1  0  0  0  0
 30 28  1  0  0  0  0
 31 28  1  0  0  0  0
 32 33  1  0  0  0  0
 32 35  1  0  0  0  0
 34 32  1  0  0  0  0
 36 39  1  0  0  0  0
 36 27  1  0  0  0  0
 37 36  1  0  0  0  0
 38 36  1  0  0  0  0
 40  1  1  0  0  0  0
M  END
