8,10
 OpenBabel05122313053D

 24 25  0  0  1  0  0  0  0  0999 V2000
    1.5525   -2.1445    2.1346 F   0  0  0  0  0  0  0  0  0  0  0  0
    2.5411   -0.5349    3.2427 F   0  0  0  0  0  0  0  0  0  0  0  0
    3.6066   -2.3770    2.7970 F   0  0  0  0  0  0  0  0  0  0  0  0
    6.9806   -2.0690   -0.2874 F   0  0  0  0  0  0  0  0  0  0  0  0
    7.2662   -0.1245    0.6535 F   0  0  0  0  0  0  0  0  0  0  0  0
    7.1440   -0.2747   -1.5231 F   0  0  0  0  0  0  0  0  0  0  0  0
    4.5481   -1.0359    0.8155 N   0  0  0  0  0  0  0  0  0  0  0  0
    0.8601    0.7613   -1.8978 N   0  0  0  0  0  2  0  0  0  0  0  0
    2.6996    1.1159   -3.3828 N   0  0  0  0  0  0  0  0  0  0  0  0
    2.3741   -0.2111    0.0595 C   0  0  0  0  0  3  0  0  0  0  0  0
    3.2292   -0.8842    0.9807 C   0  0  0  0  0  0  0  0  0  0  0  0
    3.0423    0.1960   -1.1379 C   0  0  0  0  0  0  0  0  0  0  0  0
    4.4229    0.0344   -1.3263 C   0  0  0  0  0  0  0  0  0  0  0  0
    4.8967    0.3692   -2.2590 H   0  0  0  0  0  0  0  0  0  0  0  0
    5.1376   -0.5719   -0.2911 C   0  0  0  0  0  0  0  0  0  0  0  0
    2.1993    0.7343   -2.2039 C   0  0  2  0  0  3  0  0  0  0  0  0
    6.6431   -0.7644   -0.3609 C   0  0  0  0  0  0  0  0  0  0  0  0
    1.8411    1.5335   -4.3199 C   0  0  0  0  0  0  0  0  0  0  0  0
    2.2744    1.8506   -5.2844 H   0  0  0  0  0  0  0  0  0  0  0  0
    0.4536    1.5685   -4.1040 C   0  0  0  0  0  0  0  0  0  0  0  0
   -0.2499    1.8937   -4.8819 H   0  0  0  0  0  0  0  0  0  0  0  0
   -0.0053    1.1669   -2.8495 C   0  0  0  0  0  0  0  0  0  0  0  0
   -1.0710    1.1478   -2.5851 H   0  0  0  0  0  0  0  0  0  0  0  0
    2.7374   -1.4966    2.2892 C   0  0  0  0  0  0  0  0  0  0  0  0
  1 24  1  0  0  0  0
  6 17  1  0  0  0  0
  7 11  1  0  0  0  0
  9 16  1  0  0  0  0
 10 11  2  0  0  0  0
 11 24  1  0  0  0  0
 12 10  1  0  0  0  0
 13 12  2  0  0  0  0
 13 15  1  0  0  0  0
 14 13  1  0  0  0  0
 15  7  2  0  0  0  0
 16  8  1  0  0  0  0
 16 12  1  6  0  0  0
 17 15  1  0  0  0  0
 17  4  1  0  0  0  0
 17  5  1  0  0  0  0
 18 20  1  0  0  0  0
 18  9  2  0  0  0  0
 19 18  1  0  0  0  0
 20 22  2  0  0  0  0
 21 20  1  0  0  0  0
 22 23  1  0  0  0  0
 22  8  1  0  0  0  0
 24  3  1  0  0  0  0
 24  2  1  0  0  0  0
M  END
