1,7
 OpenBabel05122313053D

 19 18  0  0  1  0  0  0  0  0999 V2000
    0.1410    1.0821   -1.9355 C   0  0  0  0  0  3  0  0  0  0  0  0
    1.2517    0.9975   -1.0327 C   0  0  1  0  0  3  0  0  0  0  0  0
    2.6052   -0.5739    0.2756 C   0  0  0  0  0  0  0  0  0  0  0  0
    2.3733   -1.9077    0.9856 C   0  0  0  0  0  0  0  0  0  0  0  0
    3.8960   -0.6158   -0.5566 C   0  0  0  0  0  0  0  0  0  0  0  0
    1.9916    2.2261   -0.5637 C   0  0  0  0  0  0  0  0  0  0  0  0
    1.4783   -0.2721   -0.6097 N   0  0  0  0  0  2  0  0  0  0  0  0
   -0.2113    2.0774   -2.2436 H   0  0  0  0  0  0  0  0  0  0  0  0
    0.0383    0.2820   -2.6842 H   0  0  0  0  0  0  0  0  0  0  0  0
    2.7177    0.2138    1.0602 H   0  0  0  0  0  0  0  0  0  0  0  0
    3.2358   -2.1589    1.6342 H   0  0  0  0  0  0  0  0  0  0  0  0
    2.2460   -2.7242    0.2453 H   0  0  0  0  0  0  0  0  0  0  0  0
    1.4658   -1.8660    1.6176 H   0  0  0  0  0  0  0  0  0  0  0  0
    3.8202   -1.3970   -1.3403 H   0  0  0  0  0  0  0  0  0  0  0  0
    4.7670   -0.8495    0.0879 H   0  0  0  0  0  0  0  0  0  0  0  0
    4.0942    0.3515   -1.0585 H   0  0  0  0  0  0  0  0  0  0  0  0
    2.3275    2.1463    0.4873 H   0  0  0  0  0  0  0  0  0  0  0  0
    1.3467    3.1195   -0.6603 H   0  0  0  0  0  0  0  0  0  0  0  0
    2.8874    2.3919   -1.1989 H   0  0  0  0  0  0  0  0  0  0  0  0
  2  1  1  1  0  0  0
  2  7  1  0  0  0  0
  2  6  1  0  0  0  0
  3  4  1  0  0  0  0
  3 10  1  0  0  0  0
  4 13  1  0  0  0  0
  4 11  1  0  0  0  0
  5 15  1  0  0  0  0
  5  3  1  0  0  0  0
  6 17  1  0  0  0  0
  7  3  1  0  0  0  0
  8  1  1  0  0  0  0
  9  1  1  0  0  0  0
 12  4  1  0  0  0  0
 14  5  1  0  0  0  0
 16  5  1  0  0  0  0
 18  6  1  0  0  0  0
 19  6  1  0  0  0  0
M  END
