3,22
 OpenBabel05122313053D

 30 31  0  0  1  0  0  0  0  0999 V2000
   -3.7422   -0.8312   -0.1844 Br  0  0  0  0  0  0  0  0  0  0  0  0
    2.3042    1.5481   -0.8234 N   0  0  0  0  0  0  0  0  0  0  0  0
    1.0295    1.1182   -0.6247 C   0  0  0  0  0  2  0  0  0  0  0  0
    0.3037    2.2892   -0.4614 N   0  0  0  0  0  0  0  0  0  0  0  0
    1.1257    3.4153   -0.5367 C   0  0  0  0  0  0  0  0  0  0  0  0
    0.7626    4.4404   -0.4390 H   0  0  0  0  0  0  0  0  0  0  0  0
    2.3854    2.9378   -0.7610 C   0  0  0  0  0  0  0  0  0  0  0  0
    3.3325    3.4700   -0.8905 H   0  0  0  0  0  0  0  0  0  0  0  0
    3.4720    0.6714   -0.9157 C   0  0  0  0  0  0  0  0  0  0  0  0
    4.1961    1.1569   -1.6004 H   0  0  0  0  0  0  0  0  0  0  0  0
    3.1392   -0.2674   -1.3963 H   0  0  0  0  0  0  0  0  0  0  0  0
    4.0849    0.3948    0.4620 C   0  0  0  0  0  0  0  0  0  0  0  0
    4.4426    1.3563    0.8946 H   0  0  0  0  0  0  0  0  0  0  0  0
    3.2737    0.0374    1.1319 H   0  0  0  0  0  0  0  0  0  0  0  0
    5.2300   -0.6240    0.4245 C   0  0  0  0  0  0  0  0  0  0  0  0
    4.8357   -1.5882    0.0386 H   0  0  0  0  0  0  0  0  0  0  0  0
    5.5393   -0.8257    1.4717 H   0  0  0  0  0  0  0  0  0  0  0  0
    6.4511   -0.1887   -0.3901 C   0  0  0  0  0  0  0  0  0  0  0  0
    6.2187   -0.0717   -1.4693 H   0  0  0  0  0  0  0  0  0  0  0  0
    7.2681   -0.9344   -0.3187 H   0  0  0  0  0  0  0  0  0  0  0  0
    6.8549    0.7815   -0.0298 H   0  0  0  0  0  0  0  0  0  0  0  0
   -1.5918    0.9662   -0.1905 N   0  0  0  0  0  2  0  0  0  0  0  0
   -1.0702    2.2269   -0.2104 C   0  0  2  0  0  3  0  0  0  0  0  0
   -1.8369    3.3847   -0.0183 C   0  0  0  0  0  0  0  0  0  0  0  0
   -1.3657    4.3747   -0.0258 H   0  0  0  0  0  0  0  0  0  0  0  0
   -3.2112    3.2428    0.1871 C   0  0  0  0  0  0  0  0  0  0  0  0
   -3.8433    4.1270    0.3533 H   0  0  0  0  0  0  0  0  0  0  0  0
   -3.7776    1.9646    0.1595 C   0  0  0  0  0  0  0  0  0  0  0  0
   -4.8552    1.8039    0.2871 H   0  0  0  0  0  0  0  0  0  0  0  0
   -2.9312    0.8642   -0.0489 C   0  0  0  0  0  0  0  0  0  0  0  0
  1 30  1  0  0  0  0
  2  7  1  0  0  0  0
  2  3  1  0  0  0  0
  3  4  1  0  0  0  0
  5  4  1  0  0  0  0
  5  6  1  0  0  0  0
  7  5  2  0  0  0  0
  8  7  1  0  0  0  0
  9  2  1  0  0  0  0
  9 12  1  0  0  0  0
 10  9  1  0  0  0  0
 11  9  1  0  0  0  0
 12 13  1  0  0  0  0
 12 14  1  0  0  0  0
 15 12  1  0  0  0  0
 15 17  1  0  0  0  0
 16 15  1  0  0  0  0
 18 20  1  0  0  0  0
 18 21  1  0  0  0  0
 18 15  1  0  0  0  0
 19 18  1  0  0  0  0
 22 30  1  0  0  0  0
 23  4  1  6  0  0  0
 23 22  1  0  0  0  0
 23 24  1  0  0  0  0
 24 26  2  0  0  0  0
 25 24  1  0  0  0  0
 26 27  1  0  0  0  0
 28 26  1  0  0  0  0
 28 29  1  0  0  0  0
 30 28  2  0  0  0  0
M  END
