1,2
 OpenBabel05122313053D

 30 32  0  0  1  0  0  0  0  0999 V2000
    0.7185    0.7293    1.2424 N   0  0  0  0  0  2  0  0  0  0  0  0
    0.5816   -0.9447   -0.7456 C   0  0  0  0  0  3  0  0  0  0  0  0
    0.4119   -1.9502   -1.7200 C   0  0  0  0  0  0  0  0  0  0  0  0
   -0.6021   -2.2284   -2.0444 H   0  0  0  0  0  0  0  0  0  0  0  0
    1.5197   -2.5960   -2.2816 C   0  0  0  0  0  0  0  0  0  0  0  0
    1.3733   -3.3844   -3.0369 H   0  0  0  0  0  0  0  0  0  0  0  0
    2.8230   -2.2164   -1.9195 C   0  0  0  0  0  0  0  0  0  0  0  0
    3.6927   -2.6679   -2.4199 H   0  0  0  0  0  0  0  0  0  0  0  0
    3.0424   -1.2168   -0.9534 C   0  0  0  0  0  0  0  0  0  0  0  0
    4.4449   -0.7672   -0.7336 C   0  0  0  0  0  0  0  0  0  0  0  0
    5.4469   -1.6724   -0.3234 C   0  0  0  0  0  0  0  0  0  0  0  0
    5.1707   -2.7187   -0.1219 H   0  0  0  0  0  0  0  0  0  0  0  0
    6.7728   -1.2444   -0.1517 C   0  0  0  0  0  0  0  0  0  0  0  0
    7.5396   -1.9618    0.1789 H   0  0  0  0  0  0  0  0  0  0  0  0
    7.1204    0.0931   -0.3970 C   0  0  0  0  0  0  0  0  0  0  0  0
    8.1600    0.4286   -0.2627 H   0  0  0  0  0  0  0  0  0  0  0  0
    6.1341    1.0000   -0.8214 C   0  0  0  0  0  0  0  0  0  0  0  0
    6.4013    2.0478   -1.0279 H   0  0  0  0  0  0  0  0  0  0  0  0
    4.8099    0.5745   -0.9893 C   0  0  0  0  0  0  0  0  0  0  0  0
    4.0345    1.2818   -1.3216 H   0  0  0  0  0  0  0  0  0  0  0  0
    1.9130   -0.6291   -0.3079 C   0  0  0  0  0  0  0  0  0  0  0  0
    1.9560    0.2420    0.8738 C   0  0  2  0  0  3  0  0  0  0  0  0
    3.0651    0.5243    1.7033 C   0  0  0  0  0  0  0  0  0  0  0  0
    4.0451    0.1062    1.4502 H   0  0  0  0  0  0  0  0  0  0  0  0
    2.9126    1.3120    2.8465 C   0  0  0  0  0  0  0  0  0  0  0  0
    3.7832    1.5228    3.4855 H   0  0  0  0  0  0  0  0  0  0  0  0
    1.6433    1.8175    3.1755 C   0  0  0  0  0  0  0  0  0  0  0  0
    1.4786    2.4407    4.0653 H   0  0  0  0  0  0  0  0  0  0  0  0
    0.5687    1.4903    2.3497 C   0  0  0  0  0  0  0  0  0  0  0  0
   -0.4625    1.8141    2.5546 H   0  0  0  0  0  0  0  0  0  0  0  0
  1 29  1  0  0  0  0
  2 21  1  0  0  0  0
  3  2  2  0  0  0  0
  4  3  1  0  0  0  0
  5  7  2  0  0  0  0
  5  3  1  0  0  0  0
  6  5  1  0  0  0  0
  7  9  1  0  0  0  0
  8  7  1  0  0  0  0
  9 10  1  0  0  0  0
  9 21  2  0  0  0  0
 10 11  1  0  0  0  0
 11 13  2  0  0  0  0
 11 12  1  0  0  0  0
 13 14  1  0  0  0  0
 15 16  1  0  0  0  0
 15 13  1  0  0  0  0
 17 15  2  0  0  0  0
 18 17  1  0  0  0  0
 19 17  1  0  0  0  0
 19 10  2  0  0  0  0
 20 19  1  0  0  0  0
 22 21  1  1  0  0  0
 22  1  1  0  0  0  0
 22 23  1  0  0  0  0
 23 25  2  0  0  0  0
 24 23  1  0  0  0  0
 25 27  1  0  0  0  0
 25 26  1  0  0  0  0
 27 28  1  0  0  0  0
 29 30  1  0  0  0  0
 29 27  2  0  0  0  0
M  END
