2,30
 OpenBabel05122313053D

 30 32  0  0  0  0  0  0  0  0999 V2000
   -0.2878    4.4284   -1.3502 Cl  0  0  0  0  0  0  0  0  0  0  0  0
   -1.7307    0.9448    0.2310 C   0  0  0  0  0  3  0  0  0  0  0  0
    4.3701   -0.4795   -0.6927 C   0  0  0  0  0  0  0  0  0  0  0  0
    1.9024   -0.4119   -0.9655 C   0  0  0  0  0  0  0  0  0  0  0  0
   -0.8913    1.9007   -0.4338 C   0  0  0  0  0  0  0  0  0  0  0  0
   -1.3091    3.2520   -0.5418 C   0  0  0  0  0  0  0  0  0  0  0  0
    3.1065    0.1630   -0.4051 C   0  0  0  0  0  0  0  0  0  0  0  0
    3.1095    1.2976    0.4607 C   0  0  0  0  0  0  0  0  0  0  0  0
    2.1586    1.7827    0.7222 H   0  0  0  0  0  0  0  0  0  0  0  0
    5.5653    0.0717   -0.1414 C   0  0  0  0  0  0  0  0  0  0  0  0
    6.5221   -0.4213   -0.3752 H   0  0  0  0  0  0  0  0  0  0  0  0
   -3.3405    2.7428    0.6598 C   0  0  0  0  0  0  0  0  0  0  0  0
   -4.2978    3.0766    1.0909 H   0  0  0  0  0  0  0  0  0  0  0  0
    1.9769   -1.5978   -1.7025 C   0  0  0  0  0  0  0  0  0  0  0  0
    1.0421   -2.0473   -2.0571 H   0  0  0  0  0  0  0  0  0  0  0  0
    4.4003   -1.6515   -1.5021 C   0  0  0  0  0  0  0  0  0  0  0  0
    5.3722   -2.1206   -1.7190 H   0  0  0  0  0  0  0  0  0  0  0  0
    3.2218   -2.2010   -1.9863 C   0  0  0  0  0  0  0  0  0  0  0  0
    3.2469   -3.1201   -2.5910 H   0  0  0  0  0  0  0  0  0  0  0  0
   -2.5263    3.6804   -0.0033 C   0  0  0  0  0  0  0  0  0  0  0  0
   -2.8254    4.7329   -0.0988 H   0  0  0  0  0  0  0  0  0  0  0  0
   -2.9507    1.3995    0.7760 C   0  0  0  0  0  0  0  0  0  0  0  0
   -3.6128    0.6909    1.2991 H   0  0  0  0  0  0  0  0  0  0  0  0
    5.5334    1.1876    0.6798 C   0  0  0  0  0  0  0  0  0  0  0  0
    6.4661    1.5945    1.0989 H   0  0  0  0  0  0  0  0  0  0  0  0
    4.2908    1.7968    0.9932 C   0  0  0  0  0  0  0  0  0  0  0  0
    4.2611    2.6689    1.6639 H   0  0  0  0  0  0  0  0  0  0  0  0
    0.3808    1.4023   -0.9097 C   0  0  0  0  0  3  0  0  0  0  0  0
    1.1008    2.0793   -1.4075 H   0  0  0  0  0  0  0  0  0  0  0  0
    0.6404    0.1369   -0.7066 N   0  0  0  0  0  2  0  0  0  0  0  0
  1  6  1  0  0  0  0
  2 22  1  0  0  0  0
  3  7  2  0  0  0  0
  3 10  1  0  0  0  0
  4 30  1  0  0  0  0
  4  7  1  0  0  0  0
  5  2  2  0  0  0  0
  6  5  1  0  0  0  0
  6 20  2  0  0  0  0
  7  8  1  0  0  0  0
  8  9  1  0  0  0  0
  8 26  2  0  0  0  0
 10 24  2  0  0  0  0
 11 10  1  0  0  0  0
 12 22  2  0  0  0  0
 12 13  1  0  0  0  0
 14  4  2  0  0  0  0
 15 14  1  0  0  0  0
 16  3  1  0  0  0  0
 17 16  1  0  0  0  0
 18 14  1  0  0  0  0
 18 16  2  0  0  0  0
 19 18  1  0  0  0  0
 20 12  1  0  0  0  0
 21 20  1  0  0  0  0
 22 23  1  0  0  0  0
 24 26  1  0  0  0  0
 24 25  1  0  0  0  0
 26 27  1  0  0  0  0
 28 30  1  0  0  0  0
 28  5  1  0  0  0  0
 29 28  1  0  0  0  0
M  END
