3,4
 OpenBabel05122313053D

 30 30  0  0  1  0  0  0  0  0999 V2000
    0.9215    2.0832   -0.0275 Si  0  0  0  0  0  0  0  0  0  0  0  0
   -4.2422    0.5149   -0.1293 S   0  0  0  0  0  0  0  0  0  0  0  0
   -0.1439    0.7204   -0.3914 N   0  0  0  0  0  2  0  0  0  0  0  0
    2.2750    0.8661    0.4696 C   0  0  1  0  0  3  0  0  0  0  0  0
    2.1366    0.0605    1.6505 C   0  0  0  0  0  0  0  0  0  0  0  0
    1.6047    0.3533    2.5652 H   0  0  0  0  0  0  0  0  0  0  0  0
    2.6832   -1.2301    1.4010 C   0  0  0  0  0  0  0  0  0  0  0  0
    2.6877   -2.0754    2.1000 H   0  0  0  0  0  0  0  0  0  0  0  0
    3.1744   -1.2441    0.0632 C   0  0  0  0  0  0  0  0  0  0  0  0
    3.6224   -2.1025   -0.4520 H   0  0  0  0  0  0  0  0  0  0  0  0
    2.9275    0.0378   -0.5048 C   0  0  0  0  0  0  0  0  0  0  0  0
    3.1164    0.3096   -1.5515 H   0  0  0  0  0  0  0  0  0  0  0  0
    0.3235    3.1582    1.3956 C   0  0  0  0  0  0  0  0  0  0  0  0
    0.0378    2.5399    2.2697 H   0  0  0  0  0  0  0  0  0  0  0  0
    1.1163    3.8675    1.7111 H   0  0  0  0  0  0  0  0  0  0  0  0
   -0.5632    3.7535    1.0956 H   0  0  0  0  0  0  0  0  0  0  0  0
    1.3321    3.1026   -1.5521 C   0  0  0  0  0  0  0  0  0  0  0  0
    0.4337    3.6453   -1.9118 H   0  0  0  0  0  0  0  0  0  0  0  0
    1.6894    2.4554   -2.3776 H   0  0  0  0  0  0  0  0  0  0  0  0
    2.1156    3.8554   -1.3286 H   0  0  0  0  0  0  0  0  0  0  0  0
   -1.5248    0.6205   -0.8354 C   0  0  0  0  0  0  0  0  0  0  0  0
   -1.7115    1.2962   -1.7010 H   0  0  0  0  0  0  0  0  0  0  0  0
   -1.7146   -0.4086   -1.2139 H   0  0  0  0  0  0  0  0  0  0  0  0
   -2.5171    0.9316    0.2959 C   0  0  0  0  0  0  0  0  0  0  0  0
   -2.5110    2.0135    0.5414 H   0  0  0  0  0  0  0  0  0  0  0  0
   -2.2189    0.3783    1.2110 H   0  0  0  0  0  0  0  0  0  0  0  0
   -4.1829   -1.2892    0.1170 C   0  0  0  0  0  0  0  0  0  0  0  0
   -4.0007   -1.5433    1.1802 H   0  0  0  0  0  0  0  0  0  0  0  0
   -5.1710   -1.6846   -0.1869 H   0  0  0  0  0  0  0  0  0  0  0  0
   -3.4019   -1.7692   -0.5061 H   0  0  0  0  0  0  0  0  0  0  0  0
  1 13  1  0  0  0  0
  2 27  1  0  0  0  0
  2 24  1  0  0  0  0
  3  1  1  0  0  0  0
  4  1  1  6  0  0  0
  4  5  1  0  0  0  0
  5  6  1  0  0  0  0
  7  5  2  0  0  0  0
  7  8  1  0  0  0  0
  9  7  1  0  0  0  0
 10  9  1  0  0  0  0
 11  9  2  0  0  0  0
 11  4  1  0  0  0  0
 12 11  1  0  0  0  0
 13 15  1  0  0  0  0
 13 14  1  0  0  0  0
 16 13  1  0  0  0  0
 17 20  1  0  0  0  0
 17  1  1  0  0  0  0
 18 17  1  0  0  0  0
 19 17  1  0  0  0  0
 21  3  1  0  0  0  0
 21 24  1  0  0  0  0
 22 21  1  0  0  0  0
 23 21  1  0  0  0  0
 24 25  1  0  0  0  0
 24 26  1  0  0  0  0
 27 28  1  0  0  0  0
 29 27  1  0  0  0  0
 30 27  1  0  0  0  0
M  END
