2,17
 OpenBabel05122313053D

 25 27  0  0  0  0  0  0  0  0999 V2000
   -1.0160    0.9724   -0.0003 C   0  0  0  0  0  0  0  0  0  0  0  0
   -0.6837   -0.4339   -0.0002 C   0  0  0  0  0  2  0  0  0  0  0  0
   -1.7720   -1.2989   -0.0001 C   0  0  0  0  0  0  0  0  0  0  0  0
   -1.6243   -2.3911   -0.0002 H   0  0  0  0  0  0  0  0  0  0  0  0
   -3.1082   -0.8041    0.0001 C   0  0  0  0  0  0  0  0  0  0  0  0
   -4.2543   -1.6498    0.0003 C   0  0  0  0  0  0  0  0  0  0  0  0
   -4.1070   -2.7415    0.0004 H   0  0  0  0  0  0  0  0  0  0  0  0
   -5.5319   -1.1079    0.0005 C   0  0  0  0  0  0  0  0  0  0  0  0
   -6.4108   -1.7704    0.0006 H   0  0  0  0  0  0  0  0  0  0  0  0
   -5.7163    0.3030    0.0004 C   0  0  0  0  0  0  0  0  0  0  0  0
   -6.7363    0.7167    0.0005 H   0  0  0  0  0  0  0  0  0  0  0  0
   -4.6224    1.1548    0.0002 C   0  0  0  0  0  0  0  0  0  0  0  0
   -4.7344    2.2489    0.0001 H   0  0  0  0  0  0  0  0  0  0  0  0
   -3.2966    0.6280    0.0001 C   0  0  0  0  0  0  0  0  0  0  0  0
   -2.2419    1.4867   -0.0001 N   0  0  0  0  0  0  0  0  0  0  0  0
    0.1179    1.9195   -0.0001 C   0  0  0  0  0  0  0  0  0  0  0  0
    1.3580    1.3547    0.0002 N   0  0  0  0  0  2  0  0  0  0  0  0
    2.4471    2.1521    0.0003 C   0  0  0  0  0  0  0  0  0  0  0  0
    3.4237    1.6456    0.0006 H   0  0  0  0  0  0  0  0  0  0  0  0
    2.3537    3.5472    0.0001 C   0  0  0  0  0  0  0  0  0  0  0  0
    3.2707    4.1530    0.0002 H   0  0  0  0  0  0  0  0  0  0  0  0
    1.0791    4.1397   -0.0002 C   0  0  0  0  0  0  0  0  0  0  0  0
    0.9714    5.2349   -0.0004 H   0  0  0  0  0  0  0  0  0  0  0  0
   -0.0486    3.3154   -0.0003 C   0  0  0  0  0  0  0  0  0  0  0  0
   -1.0794    3.6966   -0.0006 H   0  0  0  0  0  0  0  0  0  0  0  0
  1  2  1  0  0  0  0
  1 16  2  0  0  0  0
  1 15  1  0  0  0  0
  2  3  1  0  0  0  0
  3  5  2  0  0  0  0
  4  3  1  0  0  0  0
  5  6  1  0  0  0  0
  6  7  1  0  0  0  0
  6  8  2  0  0  0  0
  8  9  1  0  0  0  0
 10 11  1  0  0  0  0
 10  8  1  0  0  0  0
 12 10  2  0  0  0  0
 13 12  1  0  0  0  0
 14  5  1  0  0  0  0
 14 12  1  0  0  0  0
 15 14  2  0  0  0  0
 16 17  1  0  0  0  0
 17 18  1  0  0  0  0
 18 19  1  0  0  0  0
 20 21  1  0  0  0  0
 20 18  2  0  0  0  0
 22 20  1  0  0  0  0
 23 22  1  0  0  0  0
 24 22  2  0  0  0  0
 24 16  1  0  0  0  0
 25 24  1  0  0  0  0
M  END
