2,20
 OpenBabel05122313053D

 28 29  0  0  1  0  0  0  0  0999 V2000
   -2.1441    0.8177   -0.8496 N   0  0  0  0  0  0  0  0  0  0  0  0
   -0.9133    0.6693   -0.3195 C   0  0  0  0  0  2  0  0  0  0  0  0
   -0.4631    1.9805   -0.2580 N   0  0  0  0  0  0  0  0  0  0  0  0
   -1.4399    2.8238   -0.7593 C   0  0  0  0  0  0  0  0  0  0  0  0
   -1.3248    3.9100   -0.8329 H   0  0  0  0  0  0  0  0  0  0  0  0
   -2.4848    2.1254   -1.1217 N   0  0  0  0  0  0  0  0  0  0  0  0
   -3.1112   -0.2537   -1.0929 C   0  0  0  0  0  0  0  0  0  0  0  0
   -2.5846   -1.0584   -1.6410 H   0  0  0  0  0  0  0  0  0  0  0  0
   -3.8725    0.1818   -1.7662 H   0  0  0  0  0  0  0  0  0  0  0  0
   -3.7280   -0.7935    0.2025 C   0  0  0  0  0  0  0  0  0  0  0  0
   -2.9397   -1.3245    0.7750 H   0  0  0  0  0  0  0  0  0  0  0  0
   -4.4694   -1.5668   -0.0938 H   0  0  0  0  0  0  0  0  0  0  0  0
   -4.3900    0.2613    1.0982 C   0  0  0  0  0  0  0  0  0  0  0  0
   -4.7747   -0.2550    2.0029 H   0  0  0  0  0  0  0  0  0  0  0  0
   -3.6104    0.9615    1.4732 H   0  0  0  0  0  0  0  0  0  0  0  0
   -5.5164    1.0541    0.4318 C   0  0  0  0  0  0  0  0  0  0  0  0
   -5.1373    1.6917   -0.3927 H   0  0  0  0  0  0  0  0  0  0  0  0
   -6.0173    1.7245    1.1585 H   0  0  0  0  0  0  0  0  0  0  0  0
   -6.2926    0.3798    0.0121 H   0  0  0  0  0  0  0  0  0  0  0  0
    1.4915    1.1478    0.6439 N   0  0  0  0  0  2  0  0  0  0  0  0
    0.8205    2.2549    0.2224 C   0  0  2  0  0  3  0  0  0  0  0  0
    1.2496    3.5096    0.2335 N   0  0  0  0  0  0  0  0  0  0  0  0
    2.4928    3.7065    0.7002 C   0  0  0  0  0  0  0  0  0  0  0  0
    2.8590    4.7468    0.7087 H   0  0  0  0  0  0  0  0  0  0  0  0
    3.2925    2.6452    1.1533 C   0  0  0  0  0  0  0  0  0  0  0  0
    4.3116    2.8079    1.5286 H   0  0  0  0  0  0  0  0  0  0  0  0
    2.7433    1.3612    1.1071 C   0  0  0  0  0  0  0  0  0  0  0  0
    3.2977    0.4704    1.4359 H   0  0  0  0  0  0  0  0  0  0  0  0
  1  2  1  0  0  0  0
  2  3  1  0  0  0  0
  4  3  1  0  0  0  0
  5  4  1  0  0  0  0
  6  1  1  0  0  0  0
  6  4  2  0  0  0  0
  7  1  1  0  0  0  0
  7 10  1  0  0  0  0
  8  7  1  0  0  0  0
  9  7  1  0  0  0  0
 10 11  1  0  0  0  0
 10 13  1  0  0  0  0
 12 10  1  0  0  0  0
 13 15  1  0  0  0  0
 13 14  1  0  0  0  0
 16 13  1  0  0  0  0
 16 18  1  0  0  0  0
 17 16  1  0  0  0  0
 19 16  1  0  0  0  0
 20 27  1  0  0  0  0
 21  3  1  1  0  0  0
 21 22  1  0  0  0  0
 21 20  1  0  0  0  0
 22 23  2  0  0  0  0
 23 24  1  0  0  0  0
 23 25  1  0  0  0  0
 25 26  1  0  0  0  0
 27 25  2  0  0  0  0
 27 28  1  0  0  0  0
M  END
