1,32
 OpenBabel05122313053D

 36 38  0  0  0  0  0  0  0  0999 V2000
    0.4037    0.4664   -0.1207 C   0  0  0  0  0  2  0  0  0  0  0  0
    0.1321    1.8485   -0.0011 C   0  0  0  0  0  0  0  0  0  0  0  0
   -0.9005    2.2045    0.1119 H   0  0  0  0  0  0  0  0  0  0  0  0
    1.1437    2.8176   -0.0336 C   0  0  0  0  0  0  0  0  0  0  0  0
    0.9226    3.8899    0.0567 H   0  0  0  0  0  0  0  0  0  0  0  0
    2.4755    2.4111   -0.1934 C   0  0  0  0  0  0  0  0  0  0  0  0
    2.8164    1.0586   -0.2973 C   0  0  0  0  0  0  0  0  0  0  0  0
    3.8735    0.7945   -0.4163 H   0  0  0  0  0  0  0  0  0  0  0  0
    1.7926    0.1002   -0.2462 C   0  0  0  0  0  0  0  0  0  0  0  0
    2.0111   -1.3459   -0.3449 C   0  0  0  0  0  0  0  0  0  0  0  0
    1.3150   -3.4977   -0.5712 C   0  0  0  0  0  0  0  0  0  0  0  0
    1.0317   -3.7844   -1.6076 H   0  0  0  0  0  0  0  0  0  0  0  0
    0.7634   -4.1738    0.1089 H   0  0  0  0  0  0  0  0  0  0  0  0
    2.8480   -3.4898   -0.3660 C   0  0  0  0  0  0  0  0  0  0  0  0
    3.1441   -3.8520    0.6454 H   0  0  0  0  0  0  0  0  0  0  0  0
    3.3996   -4.0865   -1.1186 H   0  0  0  0  0  0  0  0  0  0  0  0
    4.4772   -1.5707   -0.1265 C   0  0  0  0  0  0  0  0  0  0  0  0
    5.4626   -1.3993   -1.1101 C   0  0  0  0  0  0  0  0  0  0  0  0
    5.2202   -1.6421   -2.1551 H   0  0  0  0  0  0  0  0  0  0  0  0
    6.7281   -0.8934   -0.7781 C   0  0  0  0  0  0  0  0  0  0  0  0
    7.4750   -0.7531   -1.5700 H   0  0  0  0  0  0  0  0  0  0  0  0
    7.0162   -0.5531    0.5612 C   0  0  0  0  0  0  0  0  0  0  0  0
    6.0290   -0.7419    1.5561 C   0  0  0  0  0  0  0  0  0  0  0  0
    6.2750   -0.4672    2.5917 H   0  0  0  0  0  0  0  0  0  0  0  0
    4.7766   -1.2495    1.2154 C   0  0  0  0  0  0  0  0  0  0  0  0
    4.0029   -1.3783    1.9875 H   0  0  0  0  0  0  0  0  0  0  0  0
    9.2031    0.2307    0.0278 C   0  0  0  0  0  0  0  0  0  0  0  0
   10.0564    0.6600    0.5840 H   0  0  0  0  0  0  0  0  0  0  0  0
    8.8570    0.9671   -0.7309 H   0  0  0  0  0  0  0  0  0  0  0  0
    9.5400   -0.6931   -0.4939 H   0  0  0  0  0  0  0  0  0  0  0  0
    3.5480    3.4207   -0.2475 N   0  0  0  0  0  0  0  0  0  0  0  0
    0.9370   -2.1051   -0.3407 N   0  0  0  0  0  2  0  0  0  0  0  0
    3.1815   -2.0507   -0.4859 N   0  0  0  0  0  0  0  0  0  0  0  0
    3.2227    4.6057   -0.1417 O   0  0  0  0  0  0  0  0  0  0  0  0
    4.7063    3.0196   -0.3952 O   0  0  0  0  0  0  0  0  0  0  0  0
    8.1976   -0.0429    0.9878 O   0  0  0  0  0  0  0  0  0  0  0  0
  1  2  1  0  0  0  0
  2  3  1  0  0  0  0
  4  2  2  0  0  0  0
  4  5  1  0  0  0  0
  6  4  1  0  0  0  0
  7  9  1  0  0  0  0
  7  6  2  0  0  0  0
  8  7  1  0  0  0  0
  9  1  1  0  0  0  0
 10 32  1  0  0  0  0
 10  9  2  0  0  0  0
 11 14  1  0  0  0  0
 11 32  1  0  0  0  0
 11 13  1  0  0  0  0
 12 11  1  0  0  0  0
 14 15  1  0  0  0  0
 16 14  1  0  0  0  0
 17 25  1  0  0  0  0
 18 20  1  0  0  0  0
 18 17  2  0  0  0  0
 19 18  1  0  0  0  0
 20 22  2  0  0  0  0
 21 20  1  0  0  0  0
 22 36  1  0  0  0  0
 22 23  1  0  0  0  0
 23 24  1  0  0  0  0
 25 23  2  0  0  0  0
 25 26  1  0  0  0  0
 27 28  1  0  0  0  0
 27 36  1  0  0  0  0
 29 27  1  0  0  0  0
 30 27  1  0  0  0  0
 31  6  1  0  0  0  0
 31 34  2  0  0  0  0
 33 14  1  0  0  0  0
 33 10  1  0  0  0  0
 33 17  1  0  0  0  0
 35 31  2  0  0  0  0
M  END
