1,2
 OpenBabel05122313053D

 30 32  0  0  1  0  0  0  0  0999 V2000
   -1.9423    0.4267   -0.7088 N   0  0  0  0  0  2  0  0  0  0  0  0
    0.1425    1.8417   -1.4187 C   0  0  0  0  0  3  0  0  0  0  0  0
    1.2776    2.6159   -1.7407 C   0  0  0  0  0  0  0  0  0  0  0  0
    2.2045    2.4911   -1.1599 H   0  0  0  0  0  0  0  0  0  0  0  0
    1.2452    3.5434   -2.7921 C   0  0  0  0  0  0  0  0  0  0  0  0
    2.1458    4.1340   -3.0248 H   0  0  0  0  0  0  0  0  0  0  0  0
    0.0742    3.7307   -3.5537 C   0  0  0  0  0  0  0  0  0  0  0  0
    0.0584    4.4592   -4.3780 H   0  0  0  0  0  0  0  0  0  0  0  0
   -1.0701    2.9876   -3.2509 C   0  0  0  0  0  0  0  0  0  0  0  0
   -1.9879    3.1365   -3.8413 H   0  0  0  0  0  0  0  0  0  0  0  0
   -1.0464    2.0536   -2.1914 C   0  0  0  0  0  0  0  0  0  0  0  0
   -2.1958    1.2583   -1.7769 C   0  0  2  0  0  3  0  0  0  0  0  0
   -3.4938    1.2809   -2.3255 C   0  0  0  0  0  0  0  0  0  0  0  0
   -3.7052    1.9438   -3.1755 H   0  0  0  0  0  0  0  0  0  0  0  0
   -4.5037    0.4877   -1.7829 C   0  0  0  0  0  0  0  0  0  0  0  0
   -5.5205    0.5347   -2.2000 H   0  0  0  0  0  0  0  0  0  0  0  0
   -4.2344   -0.3479   -0.6719 C   0  0  0  0  0  0  0  0  0  0  0  0
   -2.9179   -0.3366   -0.1795 C   0  0  0  0  0  0  0  0  0  0  0  0
   -2.6039   -0.9676    0.6648 H   0  0  0  0  0  0  0  0  0  0  0  0
   -5.2668   -1.2024   -0.0429 C   0  0  0  0  0  0  0  0  0  0  0  0
   -6.3078   -1.7699   -0.8130 C   0  0  0  0  0  0  0  0  0  0  0  0
   -6.3372   -1.5942   -1.8989 H   0  0  0  0  0  0  0  0  0  0  0  0
   -7.2822   -2.5822   -0.2179 C   0  0  0  0  0  0  0  0  0  0  0  0
   -8.0788   -3.0203   -0.8384 H   0  0  0  0  0  0  0  0  0  0  0  0
   -7.2374   -2.8471    1.1601 C   0  0  0  0  0  0  0  0  0  0  0  0
   -8.0025   -3.4855    1.6271 H   0  0  0  0  0  0  0  0  0  0  0  0
   -6.2096   -2.2899    1.9380 C   0  0  0  0  0  0  0  0  0  0  0  0
   -6.1709   -2.4824    3.0210 H   0  0  0  0  0  0  0  0  0  0  0  0
   -5.2362   -1.4756    1.3448 C   0  0  0  0  0  0  0  0  0  0  0  0
   -4.4539   -1.0203    1.9708 H   0  0  0  0  0  0  0  0  0  0  0  0
  1 18  1  0  0  0  0
  3  2  1  0  0  0  0
  3  4  1  0  0  0  0
  5  3  2  0  0  0  0
  6  5  1  0  0  0  0
  7  9  2  0  0  0  0
  7  5  1  0  0  0  0
  8  7  1  0  0  0  0
  9 11  1  0  0  0  0
 10  9  1  0  0  0  0
 11  2  2  0  0  0  0
 12 11  1  1  0  0  0
 12  1  1  0  0  0  0
 13 15  2  0  0  0  0
 13 12  1  0  0  0  0
 14 13  1  0  0  0  0
 15 17  1  0  0  0  0
 16 15  1  0  0  0  0
 17 18  2  0  0  0  0
 17 20  1  0  0  0  0
 18 19  1  0  0  0  0
 20 29  1  0  0  0  0
 21 23  1  0  0  0  0
 21 20  2  0  0  0  0
 22 21  1  0  0  0  0
 23 25  2  0  0  0  0
 24 23  1  0  0  0  0
 25 26  1  0  0  0  0
 25 27  1  0  0  0  0
 27 28  1  0  0  0  0
 29 27  2  0  0  0  0
 29 30  1  0  0  0  0
M  END
