3,4
 OpenBabel05122313053D

 45 46  0  0  1  0  0  0  0  0999 V2000
   -0.9303   -0.8167   -1.7068 Si  0  0  0  0  0  0  0  0  0  0  0  0
   -1.1027    2.2936   -0.9721 O   0  0  0  0  0  0  0  0  0  0  0  0
   -1.0387   -1.0513    0.0563 N   0  0  0  0  0  2  0  0  0  0  0  0
    0.4200    0.4762   -1.4923 C   0  0  1  0  0  3  0  0  0  0  0  0
    0.1160    1.7359   -0.8602 C   0  0  0  0  0  0  0  0  0  0  0  0
    1.1980    2.1494   -0.0329 C   0  0  0  0  0  0  0  0  0  0  0  0
    3.6092    1.1874    0.2495 C   0  0  0  0  0  0  0  0  0  0  0  0
    4.4380    0.1443   -0.1411 C   0  0  0  0  0  0  0  0  0  0  0  0
    3.9835   -0.8622   -1.0399 C   0  0  0  0  0  0  0  0  0  0  0  0
    2.6935   -0.8455   -1.5529 C   0  0  0  0  0  0  0  0  0  0  0  0
    1.8139    0.2072   -1.1760 C   0  0  0  0  0  0  0  0  0  0  0  0
    2.2861    1.2336   -0.2638 C   0  0  0  0  0  0  0  0  0  0  0  0
   -0.3140   -2.3449   -2.6292 C   0  0  0  0  0  0  0  0  0  0  0  0
   -2.4816   -0.1465   -2.5376 C   0  0  0  0  0  0  0  0  0  0  0  0
   -2.0592   -1.8444    0.7916 C   0  0  0  0  0  0  0  0  0  0  0  0
   -1.5142   -2.3456    2.1408 C   0  0  0  0  0  0  0  0  0  0  0  0
   -2.4708   -3.0661   -0.0525 C   0  0  0  0  0  0  0  0  0  0  0  0
   -3.2826   -0.9352    1.0299 C   0  0  0  0  0  0  0  0  0  0  0  0
   -1.4081    3.4223   -0.1339 C   0  0  0  0  0  0  0  0  0  0  0  0
   -2.8645    3.7777   -0.3487 C   0  0  0  0  0  0  0  0  0  0  0  0
    1.2360    3.0332    0.6119 H   0  0  0  0  0  0  0  0  0  0  0  0
    3.9614    1.9654    0.9427 H   0  0  0  0  0  0  0  0  0  0  0  0
    5.4661    0.0916    0.2471 H   0  0  0  0  0  0  0  0  0  0  0  0
    4.6724   -1.6684   -1.3329 H   0  0  0  0  0  0  0  0  0  0  0  0
    2.3571   -1.6222   -2.2524 H   0  0  0  0  0  0  0  0  0  0  0  0
   -1.1473   -3.0423   -2.8459 H   0  0  0  0  0  0  0  0  0  0  0  0
    0.4439   -2.8903   -2.0338 H   0  0  0  0  0  0  0  0  0  0  0  0
    0.1406   -2.0486   -3.5974 H   0  0  0  0  0  0  0  0  0  0  0  0
   -2.8489    0.7526   -2.0089 H   0  0  0  0  0  0  0  0  0  0  0  0
   -3.2881   -0.9063   -2.5738 H   0  0  0  0  0  0  0  0  0  0  0  0
   -2.2380    0.1421   -3.5816 H   0  0  0  0  0  0  0  0  0  0  0  0
   -1.2335   -1.5011    2.7996 H   0  0  0  0  0  0  0  0  0  0  0  0
   -0.6179   -2.9779    1.9936 H   0  0  0  0  0  0  0  0  0  0  0  0
   -2.2900   -2.9420    2.6618 H   0  0  0  0  0  0  0  0  0  0  0  0
   -1.5982   -3.7176   -0.2567 H   0  0  0  0  0  0  0  0  0  0  0  0
   -2.9194   -2.7618   -1.0207 H   0  0  0  0  0  0  0  0  0  0  0  0
   -3.2301   -3.6665    0.4876 H   0  0  0  0  0  0  0  0  0  0  0  0
   -2.9831   -0.0445    1.6162 H   0  0  0  0  0  0  0  0  0  0  0  0
   -4.0707   -1.4786    1.5906 H   0  0  0  0  0  0  0  0  0  0  0  0
   -3.7145   -0.5925    0.0685 H   0  0  0  0  0  0  0  0  0  0  0  0
   -0.7351    4.2663   -0.4074 H   0  0  0  0  0  0  0  0  0  0  0  0
   -1.2133    3.1443    0.9247 H   0  0  0  0  0  0  0  0  0  0  0  0
   -3.1326    4.6618    0.2622 H   0  0  0  0  0  0  0  0  0  0  0  0
   -3.5185    2.9361   -0.0453 H   0  0  0  0  0  0  0  0  0  0  0  0
   -3.0655    4.0138   -1.4125 H   0  0  0  0  0  0  0  0  0  0  0  0
  1  3  1  0  0  0  0
  2  5  1  0  0  0  0
  2 19  1  0  0  0  0
  3 15  1  0  0  0  0
  4  1  1  1  0  0  0
  4 11  1  0  0  0  0
  4  5  1  0  0  0  0
  5  6  2  0  0  0  0
  6 21  1  0  0  0  0
  7 22  1  0  0  0  0
  8 23  1  0  0  0  0
  8  7  1  0  0  0  0
  9  8  2  0  0  0  0
 10 11  2  0  0  0  0
 10  9  1  0  0  0  0
 11 12  1  0  0  0  0
 12  6  1  0  0  0  0
 12  7  2  0  0  0  0
 13 27  1  0  0  0  0
 13  1  1  0  0  0  0
 14 29  1  0  0  0  0
 14  1  1  0  0  0  0
 15 18  1  0  0  0  0
 15 16  1  0  0  0  0
 16 34  1  0  0  0  0
 16 32  1  0  0  0  0
 17 37  1  0  0  0  0
 17 15  1  0  0  0  0
 18 39  1  0  0  0  0
 18 38  1  0  0  0  0
 19 42  1  0  0  0  0
 20 19  1  0  0  0  0
 20 44  1  0  0  0  0
 20 43  1  0  0  0  0
 24  9  1  0  0  0  0
 25 10  1  0  0  0  0
 26 13  1  0  0  0  0
 28 13  1  0  0  0  0
 30 14  1  0  0  0  0
 31 14  1  0  0  0  0
 33 16  1  0  0  0  0
 35 17  1  0  0  0  0
 36 17  1  0  0  0  0
 40 18  1  0  0  0  0
 41 19  1  0  0  0  0
 45 20  1  0  0  0  0
M  END
