1,19
 OpenBabel05122313053D

 22 23  0  0  1  0  0  0  0  0999 V2000
   -1.4207   -0.2691   -0.0593 N   0  0  0  0  0  2  0  0  0  0  0  0
   -0.1124    2.1385   -0.0778 C   0  0  0  0  0  0  0  0  0  0  0  0
    0.8526    2.1517    0.9670 C   0  0  0  0  0  0  0  0  0  0  0  0
    0.6357    2.2812    2.0339 H   0  0  0  0  0  0  0  0  0  0  0  0
   -2.2438    0.8154   -0.0387 C   0  0  2  0  0  3  0  0  0  0  0  0
   -4.2028   -0.6155   -0.1123 C   0  0  0  0  0  0  0  0  0  0  0  0
   -5.2948   -0.7460   -0.1425 H   0  0  0  0  0  0  0  0  0  0  0  0
   -1.6067    2.1865    0.0891 C   0  0  0  0  0  0  0  0  0  0  0  0
   -2.0662    2.8780   -0.6481 H   0  0  0  0  0  0  0  0  0  0  0  0
   -1.8580    2.5902    1.0925 H   0  0  0  0  0  0  0  0  0  0  0  0
   -3.3452   -1.7246   -0.0955 C   0  0  0  0  0  0  0  0  0  0  0  0
   -3.7321   -2.7531   -0.1069 H   0  0  0  0  0  0  0  0  0  0  0  0
    0.5653    1.8341   -1.3165 C   0  0  0  0  0  3  0  0  0  0  0  0
    0.0986    1.7987   -2.3084 H   0  0  0  0  0  0  0  0  0  0  0  0
   -3.6401    0.6647   -0.0766 C   0  0  0  0  0  0  0  0  0  0  0  0
   -4.2745    1.5630   -0.0636 H   0  0  0  0  0  0  0  0  0  0  0  0
   -1.9664   -1.5105   -0.0631 C   0  0  0  0  0  0  0  0  0  0  0  0
   -1.2514   -2.3435   -0.0364 H   0  0  0  0  0  0  0  0  0  0  0  0
    1.9577    1.6458   -1.0208 C   0  0  0  0  0  3  0  0  0  0  0  0
    2.7539    1.4552   -1.7493 H   0  0  0  0  0  0  0  0  0  0  0  0
    2.1250    1.8087    0.4029 C   0  0  0  0  0  3  0  0  0  0  0  0
    3.0698    1.7388    0.9547 H   0  0  0  0  0  0  0  0  0  0  0  0
  1  5  1  0  0  0  0
  2  8  1  0  0  0  0
  2  3  2  0  0  0  0
  3  4  1  0  0  0  0
  5  8  1  1  0  0  0
  6 11  1  0  0  0  0
  6 15  2  0  0  0  0
  7  6  1  0  0  0  0
  8 10  1  0  0  0  0
  9  8  1  0  0  0  0
 11 17  2  0  0  0  0
 12 11  1  0  0  0  0
 13 19  1  0  0  0  0
 13  2  1  0  0  0  0
 14 13  1  0  0  0  0
 15 16  1  0  0  0  0
 15  5  1  0  0  0  0
 17  1  1  0  0  0  0
 17 18  1  0  0  0  0
 19 21  1  0  0  0  0
 20 19  1  0  0  0  0
 21 22  1  0  0  0  0
 21  3  1  0  0  0  0
M  END
