1,12
 OpenBabel05122313053D

 33 35  0  0  1  0  0  0  0  0999 V2000
    1.9214    1.4701    0.3103 C   0  0  0  0  0  3  0  0  0  0  0  0
    3.2731    1.1400    0.5355 C   0  0  0  0  0  0  0  0  0  0  0  0
    3.6012    0.1148    0.7440 H   0  0  0  0  0  0  0  0  0  0  0  0
    4.2666    2.1246    0.5019 C   0  0  0  0  0  0  0  0  0  0  0  0
    5.5443    1.7608    0.7336 F   0  0  0  0  0  0  0  0  0  0  0  0
    3.9834    3.4708    0.2347 C   0  0  0  0  0  0  0  0  0  0  0  0
    4.7964    4.2090    0.2093 H   0  0  0  0  0  0  0  0  0  0  0  0
    2.6499    3.8218    0.0113 C   0  0  0  0  0  0  0  0  0  0  0  0
    2.4086    4.8746   -0.1988 H   0  0  0  0  0  0  0  0  0  0  0  0
    1.6217    2.8559    0.0554 C   0  0  0  0  0  0  0  0  0  0  0  0
    0.2080    3.2011   -0.0904 C   0  0  1  0  0  3  0  0  0  0  0  0
   -0.6416    2.1346    0.0356 N   0  0  0  0  0  2  0  0  0  0  0  0
   -0.3145    4.4968   -0.2747 C   0  0  0  0  0  0  0  0  0  0  0  0
    0.3656    5.3463   -0.4207 H   0  0  0  0  0  0  0  0  0  0  0  0
   -1.6974    4.6873   -0.2451 C   0  0  0  0  0  0  0  0  0  0  0  0
   -2.1212    5.6927   -0.3869 H   0  0  0  0  0  0  0  0  0  0  0  0
   -2.5375    3.5993    0.0318 C   0  0  0  0  0  0  0  0  0  0  0  0
   -3.6173    3.7372    0.1700 H   0  0  0  0  0  0  0  0  0  0  0  0
   -1.9818    2.3180    0.1941 C   0  0  0  0  0  0  0  0  0  0  0  0
   -2.7831    1.1699    0.6859 C   0  0  0  0  0  0  0  0  0  0  0  0
   -2.2849    0.4872    1.8184 C   0  0  0  0  0  0  0  0  0  0  0  0
   -1.3411    0.8244    2.2718 H   0  0  0  0  0  0  0  0  0  0  0  0
   -2.9638   -0.6030    2.3716 C   0  0  0  0  0  0  0  0  0  0  0  0
   -2.5835   -1.1386    3.2523 H   0  0  0  0  0  0  0  0  0  0  0  0
   -4.1485   -1.0172    1.7574 C   0  0  0  0  0  0  0  0  0  0  0  0
   -4.7993   -2.0932    2.2437 F   0  0  0  0  0  0  0  0  0  0  0  0
   -4.6702   -0.3542    0.6422 C   0  0  0  0  0  0  0  0  0  0  0  0
   -5.5938   -0.7370    0.1844 H   0  0  0  0  0  0  0  0  0  0  0  0
   -4.0052    0.7560    0.0912 C   0  0  0  0  0  0  0  0  0  0  0  0
   -4.5653    1.4153   -1.1432 C   0  0  0  0  0  0  0  0  0  0  0  0
   -3.7569    1.7064   -1.8417 H   0  0  0  0  0  0  0  0  0  0  0  0
   -5.1491    2.3276   -0.8965 H   0  0  0  0  0  0  0  0  0  0  0  0
   -5.2455    0.7259   -1.6783 H   0  0  0  0  0  0  0  0  0  0  0  0
  1  2  1  0  0  0  0
  2  3  1  0  0  0  0
  4  2  2  0  0  0  0
  4  5  1  0  0  0  0
  6  4  1  0  0  0  0
  7  6  1  0  0  0  0
  8 10  1  0  0  0  0
  8  6  2  0  0  0  0
  9  8  1  0  0  0  0
 10  1  2  0  0  0  0
 11 12  1  0  0  0  0
 11 10  1  1  0  0  0
 12 19  1  0  0  0  0
 13 15  2  0  0  0  0
 13 11  1  0  0  0  0
 14 13  1  0  0  0  0
 15 17  1  0  0  0  0
 16 15  1  0  0  0  0
 17 18  1  0  0  0  0
 17 19  2  0  0  0  0
 19 20  1  0  0  0  0
 20 21  1  0  0  0  0
 21 22  1  0  0  0  0
 21 23  2  0  0  0  0
 23 24  1  0  0  0  0
 25 26  1  0  0  0  0
 25 23  1  0  0  0  0
 27 25  2  0  0  0  0
 28 27  1  0  0  0  0
 29 27  1  0  0  0  0
 29 20  2  0  0  0  0
 30 32  1  0  0  0  0
 30 29  1  0  0  0  0
 31 30  1  0  0  0  0
 33 30  1  0  0  0  0
M  END
