1,14
 OpenBabel05122313053D

 35 36  0  0  1  0  0  0  0  0999 V2000
    1.6656    2.2357   -1.2094 N   0  0  0  0  0  0  0  0  0  0  0  0
    1.8944    2.0970   -2.1996 H   0  0  0  0  0  0  0  0  0  0  0  0
    1.8912    3.6336   -0.7595 C   0  0  0  0  0  0  0  0  0  0  0  0
    0.9182    4.0502   -0.4291 H   0  0  0  0  0  0  0  0  0  0  0  0
    2.2741    4.2608   -1.5891 H   0  0  0  0  0  0  0  0  0  0  0  0
    2.8792    3.5196    0.4172 C   0  0  0  0  0  0  0  0  0  0  0  0
    2.7253    4.3126    1.1756 H   0  0  0  0  0  0  0  0  0  0  0  0
    3.9266    3.6004    0.0576 H   0  0  0  0  0  0  0  0  0  0  0  0
    2.6183    2.1058    0.9516 C   0  0  0  0  0  0  0  0  0  0  0  0
    1.6832    2.0909    1.5529 H   0  0  0  0  0  0  0  0  0  0  0  0
    3.4339    1.6962    1.5778 H   0  0  0  0  0  0  0  0  0  0  0  0
    2.4186    1.2803   -0.3253 C   0  0  1  0  0  0  0  0  0  0  0  0
    3.4174    1.0428   -0.7587 H   0  0  0  0  0  0  0  0  0  0  0  0
    1.5261    0.0416   -0.2036 C   0  0  0  0  0  3  0  0  0  0  0  0
    1.3184   -0.1840    0.8637 H   0  0  0  0  0  0  0  0  0  0  0  0
    2.0856   -1.2477   -0.8759 C   0  0  0  0  0  0  0  0  0  0  0  0
    3.4263   -1.5653   -0.1767 C   0  0  0  0  0  0  0  0  0  0  0  0
    3.4477   -1.8349    1.2111 C   0  0  0  0  0  0  0  0  0  0  0  0
    2.5059   -1.8310    1.7801 H   0  0  0  0  0  0  0  0  0  0  0  0
    4.6435   -2.1045    1.8886 C   0  0  0  0  0  0  0  0  0  0  0  0
    4.6215   -2.3142    2.9692 H   0  0  0  0  0  0  0  0  0  0  0  0
    5.8650   -2.1068    1.1944 C   0  0  0  0  0  0  0  0  0  0  0  0
    6.8070   -2.3158    1.7237 H   0  0  0  0  0  0  0  0  0  0  0  0
    5.8661   -1.8408   -0.1809 C   0  0  0  0  0  0  0  0  0  0  0  0
    6.8132   -1.8402   -0.7424 H   0  0  0  0  0  0  0  0  0  0  0  0
    4.6617   -1.5755   -0.8559 C   0  0  0  0  0  0  0  0  0  0  0  0
    4.6968   -1.3777   -1.9359 H   0  0  0  0  0  0  0  0  0  0  0  0
    2.2664   -1.0460   -2.3900 C   0  0  0  0  0  0  0  0  0  0  0  0
    1.2880   -0.8293   -2.8599 H   0  0  0  0  0  0  0  0  0  0  0  0
    2.6874   -1.9544   -2.8656 H   0  0  0  0  0  0  0  0  0  0  0  0
    2.9461   -0.2023   -2.6298 H   0  0  0  0  0  0  0  0  0  0  0  0
    1.1151   -2.4295   -0.6693 C   0  0  0  0  0  0  0  0  0  0  0  0
    0.1689   -2.2538   -1.2157 H   0  0  0  0  0  0  0  0  0  0  0  0
    0.8542   -2.5734    0.3970 H   0  0  0  0  0  0  0  0  0  0  0  0
    1.5671   -3.3710   -1.0405 H   0  0  0  0  0  0  0  0  0  0  0  0
  1  3  1  0  0  0  0
  1 12  1  0  0  0  0
  2  1  1  0  0  0  0
  3  4  1  0  0  0  0
  3  6  1  0  0  0  0
  5  3  1  0  0  0  0
  6  9  1  0  0  0  0
  6  7  1  0  0  0  0
  8  6  1  0  0  0  0
  9 10  1  0  0  0  0
  9 11  1  0  0  0  0
 12 13  1  6  0  0  0
 12 14  1  0  0  0  0
 12  9  1  0  0  0  0
 14 15  1  0  0  0  0
 16 32  1  0  0  0  0
 16 14  1  0  0  0  0
 16 17  1  0  0  0  0
 17 18  1  0  0  0  0
 18 19  1  0  0  0  0
 18 20  2  0  0  0  0
 20 21  1  0  0  0  0
 22 23  1  0  0  0  0
 22 20  1  0  0  0  0
 24 22  2  0  0  0  0
 25 24  1  0  0  0  0
 26 24  1  0  0  0  0
 26 17  2  0  0  0  0
 27 26  1  0  0  0  0
 28 16  1  0  0  0  0
 29 28  1  0  0  0  0
 30 28  1  0  0  0  0
 31 28  1  0  0  0  0
 32 34  1  0  0  0  0
 33 32  1  0  0  0  0
 35 32  1  0  0  0  0
M  END
