2,3
 OpenBabel05122313053D

 40 41  0  0  1  0  0  0  0  0999 V2000
    1.5721   -1.4429    0.7181 O   0  0  0  0  0  0  0  0  0  0  0  0
    0.2826    0.6391   -0.0379 N   0  0  0  0  0  2  0  0  0  0  0  0
   -1.8905    0.6764   -0.7254 C   0  0  2  0  0  3  0  0  0  0  0  0
   -2.7203    0.0795    0.2759 C   0  0  0  0  0  3  0  0  0  0  0  0
   -2.8998    0.4612    1.2855 H   0  0  0  0  0  0  0  0  0  0  0  0
   -3.2275   -1.1556   -0.2273 C   0  0  0  0  0  0  0  0  0  0  0  0
   -3.8951   -1.8394    0.3108 H   0  0  0  0  0  0  0  0  0  0  0  0
   -2.7258   -1.3326   -1.5449 C   0  0  0  0  0  0  0  0  0  0  0  0
   -2.9316   -2.1805   -2.2083 H   0  0  0  0  0  0  0  0  0  0  0  0
   -1.9016   -0.2128   -1.8490 C   0  0  0  0  0  3  0  0  0  0  0  0
   -1.3056   -0.0780   -2.7620 H   0  0  0  0  0  0  0  0  0  0  0  0
   -0.7034    1.6232   -0.4906 C   0  0  1  0  0  0  0  0  0  0  0  0
   -0.4147    2.0517   -1.4817 H   0  0  0  0  0  0  0  0  0  0  0  0
   -0.9750    2.8504    0.4559 C   0  0  0  0  0  0  0  0  0  0  0  0
    0.1485    3.8961    0.3071 C   0  0  0  0  0  0  0  0  0  0  0  0
   -0.1051    4.8064    0.8884 H   0  0  0  0  0  0  0  0  0  0  0  0
    0.2820    4.2046   -0.7510 H   0  0  0  0  0  0  0  0  0  0  0  0
    1.1177    3.5180    0.6845 H   0  0  0  0  0  0  0  0  0  0  0  0
   -2.2975    3.5073    0.0186 C   0  0  0  0  0  0  0  0  0  0  0  0
   -3.1657    2.8363    0.1656 H   0  0  0  0  0  0  0  0  0  0  0  0
   -2.2684    3.7859   -1.0558 H   0  0  0  0  0  0  0  0  0  0  0  0
   -2.4782    4.4348    0.5997 H   0  0  0  0  0  0  0  0  0  0  0  0
   -1.0314    2.4472    1.9408 C   0  0  0  0  0  0  0  0  0  0  0  0
   -0.1253    1.8777    2.2271 H   0  0  0  0  0  0  0  0  0  0  0  0
   -1.9118    1.8267    2.1895 H   0  0  0  0  0  0  0  0  0  0  0  0
   -1.0848    3.3551    2.5757 H   0  0  0  0  0  0  0  0  0  0  0  0
    1.6470    0.7172   -0.2203 C   0  0  0  0  0  0  0  0  0  0  0  0
    2.3917    1.7530   -0.8357 C   0  0  0  0  0  0  0  0  0  0  0  0
    1.8664    2.6268   -1.2385 H   0  0  0  0  0  0  0  0  0  0  0  0
    3.7902    1.6737   -0.9424 C   0  0  0  0  0  0  0  0  0  0  0  0
    4.3367    2.4994   -1.4230 H   0  0  0  0  0  0  0  0  0  0  0  0
    4.4918    0.5654   -0.4517 C   0  0  0  0  0  0  0  0  0  0  0  0
    5.5868    0.5107   -0.5309 H   0  0  0  0  0  0  0  0  0  0  0  0
    3.7793   -0.5035    0.1309 C   0  0  0  0  0  0  0  0  0  0  0  0
    4.3177   -1.3917    0.4875 H   0  0  0  0  0  0  0  0  0  0  0  0
    2.3921   -0.4200    0.2223 C   0  0  0  0  0  0  0  0  0  0  0  0
    2.1945   -2.6153    1.2474 C   0  0  0  0  0  0  0  0  0  0  0  0
    2.7437   -3.1600    0.4520 H   0  0  0  0  0  0  0  0  0  0  0  0
    1.3835   -3.2484    1.6472 H   0  0  0  0  0  0  0  0  0  0  0  0
    2.8877   -2.3395    2.0678 H   0  0  0  0  0  0  0  0  0  0  0  0
  1 37  1  0  0  0  0
  3 12  1  1  0  0  0
  3  4  1  0  0  0  0
  4  5  1  0  0  0  0
  6  4  1  0  0  0  0
  6  7  1  0  0  0  0
  8  6  2  0  0  0  0
  9  8  1  0  0  0  0
 10  8  1  0  0  0  0
 10  3  1  0  0  0  0
 11 10  1  0  0  0  0
 12 13  1  6  0  0  0
 12  2  1  0  0  0  0
 12 14  1  0  0  0  0
 14 23  1  0  0  0  0
 15 14  1  0  0  0  0
 15 18  1  0  0  0  0
 15 16  1  0  0  0  0
 17 15  1  0  0  0  0
 19 20  1  0  0  0  0
 19 14  1  0  0  0  0
 19 22  1  0  0  0  0
 21 19  1  0  0  0  0
 23 25  1  0  0  0  0
 23 24  1  0  0  0  0
 23 26  1  0  0  0  0
 27  2  1  0  0  0  0
 27 36  1  0  0  0  0
 28 27  2  0  0  0  0
 29 28  1  0  0  0  0
 30 28  1  0  0  0  0
 30 32  2  0  0  0  0
 31 30  1  0  0  0  0
 32 34  1  0  0  0  0
 33 32  1  0  0  0  0
 34 36  2  0  0  0  0
 34 35  1  0  0  0  0
 36  1  1  0  0  0  0
 37 39  1  0  0  0  0
 37 40  1  0  0  0  0
 38 37  1  0  0  0  0
M  END
