2,3
 OpenBabel05122313053D

 31 32  0  0  1  0  0  0  0  0999 V2000
    0.9917   -1.4223    0.3576 O   0  0  0  0  0  0  0  0  0  0  0  0
    0.4269    0.9930   -0.0022 N   0  0  0  0  0  2  0  0  0  0  0  0
   -1.5835    1.8857   -0.3043 C   0  0  2  0  0  3  0  0  0  0  0  0
   -2.3623    1.4171    0.7959 C   0  0  0  0  0  3  0  0  0  0  0  0
   -2.2031    1.6608    1.8524 H   0  0  0  0  0  0  0  0  0  0  0  0
   -3.3075    0.4714    0.2980 C   0  0  0  0  0  0  0  0  0  0  0  0
   -4.0188   -0.1000    0.9043 H   0  0  0  0  0  0  0  0  0  0  0  0
   -3.1154    0.3503   -1.1013 C   0  0  0  0  0  0  0  0  0  0  0  0
   -3.6496   -0.3341   -1.7697 H   0  0  0  0  0  0  0  0  0  0  0  0
   -2.0480    1.2166   -1.4767 C   0  0  0  0  0  3  0  0  0  0  0  0
   -1.5880    1.2809   -2.4705 H   0  0  0  0  0  0  0  0  0  0  0  0
   -0.1357    2.3291   -0.1586 C   0  0  1  0  0  0  0  0  0  0  0  0
    0.2174    2.8019   -1.1060 H   0  0  0  0  0  0  0  0  0  0  0  0
    0.1252    3.2739    1.0152 C   0  0  0  0  0  0  0  0  0  0  0  0
   -0.1919    2.8087    1.9691 H   0  0  0  0  0  0  0  0  0  0  0  0
   -0.4351    4.2201    0.8779 H   0  0  0  0  0  0  0  0  0  0  0  0
    1.2009    3.5153    1.1071 H   0  0  0  0  0  0  0  0  0  0  0  0
    1.7776    0.7170   -0.0469 C   0  0  0  0  0  0  0  0  0  0  0  0
    2.8257    1.6306   -0.2912 C   0  0  0  0  0  0  0  0  0  0  0  0
    2.5996    2.6919   -0.4623 H   0  0  0  0  0  0  0  0  0  0  0  0
    4.1557    1.1787   -0.3313 C   0  0  0  0  0  0  0  0  0  0  0  0
    4.9643    1.8992   -0.5248 H   0  0  0  0  0  0  0  0  0  0  0  0
    4.4578   -0.1760   -0.1356 C   0  0  0  0  0  0  0  0  0  0  0  0
    5.5006   -0.5232   -0.1723 H   0  0  0  0  0  0  0  0  0  0  0  0
    3.4269   -1.1087    0.1000 C   0  0  0  0  0  0  0  0  0  0  0  0
    3.6622   -2.1719    0.2392 H   0  0  0  0  0  0  0  0  0  0  0  0
    2.1086   -0.6529    0.1429 C   0  0  0  0  0  0  0  0  0  0  0  0
    1.1386   -2.8379    0.4886 C   0  0  0  0  0  0  0  0  0  0  0  0
    1.5213   -3.2718   -0.4571 H   0  0  0  0  0  0  0  0  0  0  0  0
    0.1307   -3.2256    0.7116 H   0  0  0  0  0  0  0  0  0  0  0  0
    1.8216   -3.0692    1.3311 H   0  0  0  0  0  0  0  0  0  0  0  0
  1 28  1  0  0  0  0
  3 12  1  1  0  0  0
  3  4  1  0  0  0  0
  4  5  1  0  0  0  0
  6  4  1  0  0  0  0
  6  7  1  0  0  0  0
  8  6  2  0  0  0  0
  9  8  1  0  0  0  0
 10  8  1  0  0  0  0
 10  3  1  0  0  0  0
 11 10  1  0  0  0  0
 12 13  1  6  0  0  0
 12  2  1  0  0  0  0
 12 14  1  0  0  0  0
 14 17  1  0  0  0  0
 14 15  1  0  0  0  0
 16 14  1  0  0  0  0
 18  2  1  0  0  0  0
 18 27  1  0  0  0  0
 19 18  2  0  0  0  0
 20 19  1  0  0  0  0
 21 19  1  0  0  0  0
 21 23  2  0  0  0  0
 22 21  1  0  0  0  0
 23 25  1  0  0  0  0
 24 23  1  0  0  0  0
 25 27  2  0  0  0  0
 25 26  1  0  0  0  0
 27  1  1  0  0  0  0
 28 30  1  0  0  0  0
 28 31  1  0  0  0  0
 29 28  1  0  0  0  0
M  END
