2,3
 OpenBabel05122313053D

 31 32  0  0  1  0  0  0  0  0999 V2000
    1.0149    1.5212    0.3107 O   0  0  0  0  0  0  0  0  0  0  0  0
    0.2233   -0.8639    0.0554 N   0  0  0  0  0  2  0  0  0  0  0  0
   -1.8815   -1.5475   -0.2624 C   0  0  1  0  0  3  0  0  0  0  0  0
   -2.6049   -0.9980    0.8372 C   0  0  0  0  0  0  0  0  0  0  0  0
   -2.4691   -1.2622    1.8925 H   0  0  0  0  0  0  0  0  0  0  0  0
   -3.4564    0.0318    0.3410 C   0  0  0  0  0  0  0  0  0  0  0  0
   -4.1340    0.6515    0.9397 H   0  0  0  0  0  0  0  0  0  0  0  0
   -3.2623    0.1254   -1.0614 C   0  0  0  0  0  0  0  0  0  0  0  0
   -3.7622    0.8315   -1.7340 H   0  0  0  0  0  0  0  0  0  0  0  0
   -2.2835   -0.8384   -1.4348 C   0  0  0  0  0  0  0  0  0  0  0  0
   -1.8426   -0.9623   -2.4323 H   0  0  0  0  0  0  0  0  0  0  0  0
   -0.4802   -2.1296   -0.1155 C   0  0  2  0  0  0  0  0  0  0  0  0
   -0.1768   -2.6309   -1.0668 H   0  0  0  0  0  0  0  0  0  0  0  0
   -0.3190   -3.1122    1.0459 C   0  0  0  0  0  0  0  0  0  0  0  0
    0.7294   -3.4541    1.1410 H   0  0  0  0  0  0  0  0  0  0  0  0
   -0.9642   -4.0007    0.8941 H   0  0  0  0  0  0  0  0  0  0  0  0
   -0.5977   -2.6319    2.0046 H   0  0  0  0  0  0  0  0  0  0  0  0
    1.5839   -0.7119   -0.0422 C   0  0  0  0  0  0  0  0  0  0  0  0
    2.5455   -1.7192   -0.2899 C   0  0  0  0  0  0  0  0  0  0  0  0
    2.2195   -2.7595   -0.4268 H   0  0  0  0  0  0  0  0  0  0  0  0
    3.9103   -1.3936   -0.3674 C   0  0  0  0  0  0  0  0  0  0  0  0
    4.6431   -2.1916   -0.5607 H   0  0  0  0  0  0  0  0  0  0  0  0
    4.3450   -0.0715   -0.2051 C   0  0  0  0  0  0  0  0  0  0  0  0
    5.4142    0.1770   -0.2666 H   0  0  0  0  0  0  0  0  0  0  0  0
    3.4058    0.9552    0.0299 C   0  0  0  0  0  0  0  0  0  0  0  0
    3.7445    1.9937    0.1427 H   0  0  0  0  0  0  0  0  0  0  0  0
    2.0529    0.6256    0.1035 C   0  0  0  0  0  0  0  0  0  0  0  0
    1.3454    2.8960    0.4881 C   0  0  0  0  0  0  0  0  0  0  0  0
    2.0377    3.0183    1.3467 H   0  0  0  0  0  0  0  0  0  0  0  0
    0.4018    3.4248    0.7027 H   0  0  0  0  0  0  0  0  0  0  0  0
    1.8096    3.3096   -0.4314 H   0  0  0  0  0  0  0  0  0  0  0  0
  1 28  1  0  0  0  0
  3 12  1  1  0  0  0
  3  4  1  0  0  0  0
  4  5  1  0  0  0  0
  6  4  2  0  0  0  0
  6  7  1  0  0  0  0
  8  6  1  0  0  0  0
  9  8  1  0  0  0  0
 10  8  2  0  0  0  0
 10  3  1  0  0  0  0
 11 10  1  0  0  0  0
 12 13  1  6  0  0  0
 12  2  1  0  0  0  0
 12 14  1  0  0  0  0
 14 15  1  0  0  0  0
 14 17  1  0  0  0  0
 16 14  1  0  0  0  0
 18  2  1  0  0  0  0
 18 27  1  0  0  0  0
 19 18  2  0  0  0  0
 20 19  1  0  0  0  0
 21 19  1  0  0  0  0
 21 23  2  0  0  0  0
 22 21  1  0  0  0  0
 23 25  1  0  0  0  0
 24 23  1  0  0  0  0
 25 27  2  0  0  0  0
 25 26  1  0  0  0  0
 27  1  1  0  0  0  0
 28 30  1  0  0  0  0
 28 29  1  0  0  0  0
 31 28  1  0  0  0  0
M  END
