2,3
 OpenBabel05122313053D

 31 32  0  0  1  0  0  0  0  0999 V2000
   -5.2230    0.0954   -0.2809 O   0  0  0  0  0  0  0  0  0  0  0  0
    0.3553    0.5635    0.1129 N   0  0  0  0  0  2  0  0  0  0  0  0
    2.4849    1.2837   -0.2129 C   0  0  1  0  0  3  0  0  0  0  0  0
    3.1958    0.7170    0.8916 C   0  0  0  0  0  3  0  0  0  0  0  0
    3.0400    0.9671    1.9481 H   0  0  0  0  0  0  0  0  0  0  0  0
    4.0252   -0.3290    0.4015 C   0  0  0  0  0  0  0  0  0  0  0  0
    4.6811   -0.9680    1.0049 H   0  0  0  0  0  0  0  0  0  0  0  0
    3.8497   -0.4023   -1.0144 C   0  0  0  0  0  0  0  0  0  0  0  0
    4.3422   -1.1121   -1.6902 H   0  0  0  0  0  0  0  0  0  0  0  0
    2.9150    0.5999   -1.3919 C   0  0  0  0  0  3  0  0  0  0  0  0
    2.4931    0.7457   -2.3945 H   0  0  0  0  0  0  0  0  0  0  0  0
    1.0670    1.8333   -0.0810 C   0  0  2  0  0  0  0  0  0  0  0  0
    0.7771    2.3098   -1.0482 H   0  0  0  0  0  0  0  0  0  0  0  0
    0.8609    2.8353    1.0542 C   0  0  0  0  0  0  0  0  0  0  0  0
   -0.2032    3.1331    1.1277 H   0  0  0  0  0  0  0  0  0  0  0  0
    1.4707    3.7455    0.8865 H   0  0  0  0  0  0  0  0  0  0  0  0
    1.1488    2.3885    2.0265 H   0  0  0  0  0  0  0  0  0  0  0  0
   -1.0355    0.4680    0.0421 C   0  0  0  0  0  0  0  0  0  0  0  0
   -1.6856   -0.6842    0.5462 C   0  0  0  0  0  0  0  0  0  0  0  0
   -1.0836   -1.4571    1.0481 H   0  0  0  0  0  0  0  0  0  0  0  0
   -3.0730   -0.8526    0.4482 C   0  0  0  0  0  0  0  0  0  0  0  0
   -3.5273   -1.7657    0.8557 H   0  0  0  0  0  0  0  0  0  0  0  0
   -3.8655    0.1518   -0.1450 C   0  0  0  0  0  0  0  0  0  0  0  0
   -3.2357    1.3160   -0.6326 C   0  0  0  0  0  0  0  0  0  0  0  0
   -3.8649    2.0952   -1.0874 H   0  0  0  0  0  0  0  0  0  0  0  0
   -1.8515    1.4726   -0.5445 C   0  0  0  0  0  0  0  0  0  0  0  0
   -1.3946    2.3861   -0.9502 H   0  0  0  0  0  0  0  0  0  0  0  0
   -5.8915   -1.0545    0.1932 C   0  0  0  0  0  0  0  0  0  0  0  0
   -5.5496   -1.9801   -0.3242 H   0  0  0  0  0  0  0  0  0  0  0  0
   -6.9669   -0.9039   -0.0173 H   0  0  0  0  0  0  0  0  0  0  0  0
   -5.7563   -1.1947    1.2902 H   0  0  0  0  0  0  0  0  0  0  0  0
  1 23  1  0  0  0  0
  1 28  1  0  0  0  0
  3 12  1  1  0  0  0
  3  4  1  0  0  0  0
  4  5  1  0  0  0  0
  6  4  1  0  0  0  0
  6  7  1  0  0  0  0
  8  6  2  0  0  0  0
  9  8  1  0  0  0  0
 10  8  1  0  0  0  0
 10  3  1  0  0  0  0
 11 10  1  0  0  0  0
 12 13  1  6  0  0  0
 12  2  1  0  0  0  0
 12 14  1  0  0  0  0
 14 15  1  0  0  0  0
 14 17  1  0  0  0  0
 16 14  1  0  0  0  0
 18  2  1  0  0  0  0
 18 19  1  0  0  0  0
 19 20  1  0  0  0  0
 21 19  2  0  0  0  0
 21 22  1  0  0  0  0
 23 21  1  0  0  0  0
 24 26  1  0  0  0  0
 24 23  2  0  0  0  0
 25 24  1  0  0  0  0
 26 18  2  0  0  0  0
 27 26  1  0  0  0  0
 28 31  1  0  0  0  0
 29 28  1  0  0  0  0
 30 28  1  0  0  0  0
M  END
