2,17
 OpenBabel05122313053D

 35 38  0  0  0  0  0  0  0  0999 V2000
   -3.6440    0.3570   -0.3790 N   0  0  0  0  0  0  0  0  0  0  0  0
   -1.5550    1.2826    0.0706 N   0  0  0  0  0  2  0  0  0  0  0  0
   -1.2872    3.6881    0.2980 C   0  0  0  0  0  0  0  0  0  0  0  0
   -0.6020    4.5320    0.4524 H   0  0  0  0  0  0  0  0  0  0  0  0
    0.6644    2.0575    0.2868 C   0  0  0  0  0  0  0  0  0  0  0  0
    3.3649    1.2669    0.0573 C   0  0  0  0  0  0  0  0  0  0  0  0
    2.3239    0.3293   -0.0924 C   0  0  0  0  0  0  0  0  0  0  0  0
    2.5834   -0.7119   -0.3270 H   0  0  0  0  0  0  0  0  0  0  0  0
    3.0328    2.6169    0.3550 C   0  0  0  0  0  0  0  0  0  0  0  0
    3.8317    3.3657    0.4554 H   0  0  0  0  0  0  0  0  0  0  0  0
   -4.8845    2.8864   -0.3297 C   0  0  0  0  0  3  0  0  0  0  0  0
   -5.3557    3.8816   -0.3080 H   0  0  0  0  0  0  0  0  0  0  0  0
    7.1386    1.0288    0.5424 C   0  0  0  0  0  0  0  0  0  0  0  0
    7.9168    1.4894    1.1703 H   0  0  0  0  0  0  0  0  0  0  0  0
   -2.6395    3.8968    0.1423 C   0  0  0  0  0  0  0  0  0  0  0  0
   -3.0698    4.9093    0.1800 H   0  0  0  0  0  0  0  0  0  0  0  0
    0.9683    0.6785    0.0630 C   0  0  0  0  0  3  0  0  0  0  0  0
    4.7800    0.8496   -0.0983 C   0  0  0  0  0  0  0  0  0  0  0  0
   -4.9453    0.4976   -0.5993 C   0  0  0  0  0  0  0  0  0  0  0  0
   -5.5089   -0.4329   -0.7969 H   0  0  0  0  0  0  0  0  0  0  0  0
    5.8039    1.4315    0.6847 C   0  0  0  0  0  0  0  0  0  0  0  0
    5.5419    2.1928    1.4349 H   0  0  0  0  0  0  0  0  0  0  0  0
   -5.6256    1.7407   -0.5873 C   0  0  0  0  0  0  0  0  0  0  0  0
   -6.7077    1.7843   -0.7772 H   0  0  0  0  0  0  0  0  0  0  0  0
    5.1436   -0.1480   -1.0333 C   0  0  0  0  0  0  0  0  0  0  0  0
    4.3676   -0.5910   -1.6757 H   0  0  0  0  0  0  0  0  0  0  0  0
   -2.9054    1.4612   -0.1363 C   0  0  0  0  0  0  0  0  0  0  0  0
   -0.7480    2.3686    0.2381 C   0  0  0  0  0  0  0  0  0  0  0  0
    1.7005    3.0084    0.4475 C   0  0  0  0  0  0  0  0  0  0  0  0
    1.4634    4.0686    0.6266 H   0  0  0  0  0  0  0  0  0  0  0  0
   -3.4894    2.7784   -0.1008 C   0  0  0  0  0  0  0  0  0  0  0  0
    6.4783   -0.5486   -1.1774 C   0  0  0  0  0  0  0  0  0  0  0  0
    6.7385   -1.3185   -1.9200 H   0  0  0  0  0  0  0  0  0  0  0  0
    7.4828    0.0366   -0.3894 C   0  0  0  0  0  0  0  0  0  0  0  0
    8.5313   -0.2783   -0.5029 H   0  0  0  0  0  0  0  0  0  0  0  0
  1 27  2  0  0  0  0
  2 28  1  0  0  0  0
  3  4  1  0  0  0  0
  5 29  1  0  0  0  0
  6  9  1  0  0  0  0
  7  6  2  0  0  0  0
  7 17  1  0  0  0  0
  8  7  1  0  0  0  0
  9 29  2  0  0  0  0
  9 10  1  0  0  0  0
 11 12  1  0  0  0  0
 11 31  1  0  0  0  0
 13 21  1  0  0  0  0
 13 14  1  0  0  0  0
 15 16  1  0  0  0  0
 15  3  1  0  0  0  0
 17  5  2  0  0  0  0
 18  6  1  0  0  0  0
 18 21  2  0  0  0  0
 19 23  2  0  0  0  0
 19  1  1  0  0  0  0
 20 19  1  0  0  0  0
 21 22  1  0  0  0  0
 23 11  1  0  0  0  0
 24 23  1  0  0  0  0
 25 18  1  0  0  0  0
 26 25  1  0  0  0  0
 27 31  1  0  0  0  0
 27  2  1  0  0  0  0
 28  5  1  0  0  0  0
 28  3  2  0  0  0  0
 29 30  1  0  0  0  0
 31 15  2  0  0  0  0
 32 25  2  0  0  0  0
 32 34  1  0  0  0  0
 33 32  1  0  0  0  0
 34 13  2  0  0  0  0
 35 34  1  0  0  0  0
M  END
