12,17
 OpenBabel05122313053D

 17 18  0  0  0  0  0  0  0  0999 V2000
    2.1973    3.8190   -1.7342 Se  0  0  0  0  0  0  0  0  0  0  0  0
   -0.9565    1.2139    1.7268 C   0  0  0  0  0  3  0  0  0  0  0  0
   -1.1334    0.2093    2.1348 H   0  0  0  0  0  0  0  0  0  0  0  0
   -1.7639    2.3017    2.0640 C   0  0  0  0  0  0  0  0  0  0  0  0
   -2.6014    2.1569    2.7594 H   0  0  0  0  0  0  0  0  0  0  0  0
   -1.4828    3.5550    1.4871 C   0  0  0  0  0  0  0  0  0  0  0  0
   -2.0996    4.4328    1.7315 H   0  0  0  0  0  0  0  0  0  0  0  0
   -0.4182    3.6741    0.5937 C   0  0  0  0  0  0  0  0  0  0  0  0
   -0.1796    4.6372    0.1198 H   0  0  0  0  0  0  0  0  0  0  0  0
    0.3637    2.5410    0.2729 C   0  0  0  0  0  0  0  0  0  0  0  0
    1.4534    2.4553   -0.6560 C   0  0  0  0  0  0  0  0  0  0  0  0
    2.0557    1.2044   -0.8680 C   0  0  0  0  0  3  0  0  0  0  0  0
    3.0915    1.2445   -1.8593 C   0  0  0  0  0  0  0  0  0  0  0  0
    3.6682    0.3573   -2.1609 H   0  0  0  0  0  0  0  0  0  0  0  0
    3.3223    2.4850   -2.4204 C   0  0  0  0  0  0  0  0  0  0  0  0
    4.0634    2.7429   -3.1886 H   0  0  0  0  0  0  0  0  0  0  0  0
    0.0772    1.3220    0.8653 N   0  0  0  0  0  2  0  0  0  0  0  0
  1 11  1  0  0  0  0
  2  4  1  0  0  0  0
  2  3  1  0  0  0  0
  4  5  1  0  0  0  0
  6  7  1  0  0  0  0
  6  4  2  0  0  0  0
  8  6  1  0  0  0  0
  9  8  1  0  0  0  0
 10  8  2  0  0  0  0
 10 17  1  0  0  0  0
 11 10  1  0  0  0  0
 12 11  2  0  0  0  0
 13 12  1  0  0  0  0
 14 13  1  0  0  0  0
 15 13  2  0  0  0  0
 15  1  1  0  0  0  0
 16 15  1  0  0  0  0
 17  2  1  0  0  0  0
M  END
