1,2
 OpenBabel05122313053D

 31 31  0  0  0  0  0  0  0  0999 V2000
   -0.1267    2.7156    0.5446 N   0  0  0  0  0  2  0  0  0  0  0  0
   -1.9542    0.7544   -0.2035 C   0  0  0  0  0  2  0  0  0  0  0  0
   -2.2833    0.4944   -1.2310 H   0  0  0  0  0  0  0  0  0  0  0  0
   -2.9445    1.5082    0.6203 C   0  0  0  0  0  0  0  0  0  0  0  0
   -2.8901    1.1932    1.6835 H   0  0  0  0  0  0  0  0  0  0  0  0
   -3.9741    1.3232    0.2436 H   0  0  0  0  0  0  0  0  0  0  0  0
   -2.6467    3.0367    0.5447 C   0  0  0  0  0  0  0  0  0  0  0  0
   -1.2817    3.3225    1.2034 C   0  0  0  0  0  0  0  0  0  0  0  0
   -1.1370    4.4248    1.2663 H   0  0  0  0  0  0  0  0  0  0  0  0
   -1.2907    2.9144    2.2384 H   0  0  0  0  0  0  0  0  0  0  0  0
   -2.6385    3.5230   -0.9147 C   0  0  0  0  0  0  0  0  0  0  0  0
   -2.4780    4.6203   -0.9602 H   0  0  0  0  0  0  0  0  0  0  0  0
   -3.6073    3.3029   -1.4084 H   0  0  0  0  0  0  0  0  0  0  0  0
   -1.8344    3.0325   -1.5013 H   0  0  0  0  0  0  0  0  0  0  0  0
   -3.7191    3.7827    1.3542 C   0  0  0  0  0  0  0  0  0  0  0  0
   -3.7298    3.4499    2.4123 H   0  0  0  0  0  0  0  0  0  0  0  0
   -4.7259    3.5978    0.9285 H   0  0  0  0  0  0  0  0  0  0  0  0
   -3.5418    4.8782    1.3397 H   0  0  0  0  0  0  0  0  0  0  0  0
    0.8467    3.5079    0.2105 C   0  0  0  0  0  3  0  0  0  0  0  0
    0.6960    4.6046    0.3024 H   0  0  0  0  0  0  0  0  0  0  0  0
    2.1625    3.0533   -0.2162 C   0  0  0  0  0  0  0  0  0  0  0  0
    2.9672    3.8734   -1.0381 C   0  0  0  0  0  0  0  0  0  0  0  0
    2.5747    4.8423   -1.3840 H   0  0  0  0  0  0  0  0  0  0  0  0
    4.2381    3.4437   -1.4354 C   0  0  0  0  0  0  0  0  0  0  0  0
    4.8499    4.0760   -2.0964 H   0  0  0  0  0  0  0  0  0  0  0  0
    4.7328    2.2084   -0.9828 C   0  0  0  0  0  0  0  0  0  0  0  0
    5.7368    1.8724   -1.2848 H   0  0  0  0  0  0  0  0  0  0  0  0
    3.9565    1.4075   -0.1293 C   0  0  0  0  0  0  0  0  0  0  0  0
    4.3502    0.4592    0.2539 H   0  0  0  0  0  0  0  0  0  0  0  0
    2.6761    1.8207    0.2466 C   0  0  0  0  0  0  0  0  0  0  0  0
    2.0951    1.2244    0.9759 H   0  0  0  0  0  0  0  0  0  0  0  0
  1  8  1  0  0  0  0
  2  4  1  0  0  0  0
  3  2  1  0  0  0  0
  4  5  1  0  0  0  0
  6  4  1  0  0  0  0
  7  4  1  0  0  0  0
  7  8  1  0  0  0  0
  7 15  1  0  0  0  0
  8  9  1  0  0  0  0
  8 10  1  0  0  0  0
 11  7  1  0  0  0  0
 12 11  1  0  0  0  0
 13 11  1  0  0  0  0
 14 11  1  0  0  0  0
 15 16  1  0  0  0  0
 17 15  1  0  0  0  0
 18 15  1  0  0  0  0
 19 20  1  0  0  0  0
 19  1  1  0  0  0  0
 21 19  1  0  0  0  0
 21 30  1  0  0  0  0
 22 21  2  0  0  0  0
 23 22  1  0  0  0  0
 24 22  1  0  0  0  0
 24 26  2  0  0  0  0
 25 24  1  0  0  0  0
 26 28  1  0  0  0  0
 27 26  1  0  0  0  0
 28 30  2  0  0  0  0
 28 29  1  0  0  0  0
 30 31  1  0  0  0  0
M  END
