2,4
 OpenBabel05122313053D

 40 42  0  0  1  0  0  0  0  0999 V2000
   -2.2597    2.3966   -1.2088 Si  0  0  0  0  0  0  0  0  0  0  0  0
    2.1778   -1.3684   -0.1881 N   0  0  0  0  0  2  0  0  0  0  0  0
   -1.1760    0.8968   -1.5924 C   0  0  2  0  0  3  0  0  0  0  0  0
    0.2068    0.9725   -1.9679 C   0  0  0  0  0  3  0  0  0  0  0  0
    0.8088    1.8920   -1.9655 H   0  0  0  0  0  0  0  0  0  0  0  0
   -1.5499   -0.4979   -1.7622 C   0  0  0  0  0  0  0  0  0  0  0  0
   -0.3709   -1.2459   -2.1661 C   0  0  0  0  0  0  0  0  0  0  0  0
   -0.4345   -2.6555   -2.3383 C   0  0  0  0  0  0  0  0  0  0  0  0
    0.4655   -3.2233   -2.6222 H   0  0  0  0  0  0  0  0  0  0  0  0
   -1.6536   -3.3009   -2.1614 C   0  0  0  0  0  0  0  0  0  0  0  0
   -1.7218   -4.3900   -2.3040 H   0  0  0  0  0  0  0  0  0  0  0  0
    2.8194   -1.3832   -1.3823 C   0  0  2  0  0  3  0  0  0  0  0  0
    4.0135   -2.5537    0.8347 C   0  0  0  0  0  0  0  0  0  0  0  0
    4.4482   -3.0009    1.7394 H   0  0  0  0  0  0  0  0  0  0  0  0
   -2.7773   -1.1958   -1.5914 C   0  0  0  0  0  0  0  0  0  0  0  0
   -3.6859   -0.6527   -1.3027 H   0  0  0  0  0  0  0  0  0  0  0  0
    4.0797   -1.9974   -1.5136 C   0  0  0  0  0  0  0  0  0  0  0  0
    4.5764   -2.0004   -2.4950 H   0  0  0  0  0  0  0  0  0  0  0  0
    4.6842   -2.5844   -0.3986 C   0  0  0  0  0  0  0  0  0  0  0  0
    5.6713   -3.0629   -0.4872 H   0  0  0  0  0  0  0  0  0  0  0  0
   -2.8196   -2.5710   -1.7972 C   0  0  0  0  0  0  0  0  0  0  0  0
   -3.7714   -3.1083   -1.6690 H   0  0  0  0  0  0  0  0  0  0  0  0
    2.7620   -1.9369    0.8898 C   0  0  0  0  0  0  0  0  0  0  0  0
    2.1918   -1.8883    1.8310 H   0  0  0  0  0  0  0  0  0  0  0  0
    2.1474   -0.6862   -2.5480 C   0  0  0  0  0  0  0  0  0  0  0  0
    2.2360   -1.3347   -3.4473 H   0  0  0  0  0  0  0  0  0  0  0  0
    2.7381    0.2265   -2.7817 H   0  0  0  0  0  0  0  0  0  0  0  0
   -4.0717    2.0481   -1.6415 C   0  0  0  0  0  0  0  0  0  0  0  0
   -4.6449    2.9983   -1.6196 H   0  0  0  0  0  0  0  0  0  0  0  0
   -4.5468    1.3606   -0.9125 H   0  0  0  0  0  0  0  0  0  0  0  0
   -4.1764    1.6074   -2.6532 H   0  0  0  0  0  0  0  0  0  0  0  0
    0.7212   -0.3148   -2.2716 C   0  0  2  0  0  3  0  0  0  0  0  0
   -1.6341    3.8376   -2.2685 C   0  0  0  0  0  0  0  0  0  0  0  0
   -0.5879    4.1042   -2.0136 H   0  0  0  0  0  0  0  0  0  0  0  0
   -2.2561    4.7415   -2.1028 H   0  0  0  0  0  0  0  0  0  0  0  0
   -1.6701    3.5856   -3.3478 H   0  0  0  0  0  0  0  0  0  0  0  0
   -2.1637    2.9120    0.6129 C   0  0  0  0  0  0  0  0  0  0  0  0
   -1.1357    3.2251    0.8804 H   0  0  0  0  0  0  0  0  0  0  0  0
   -2.4594    2.0900    1.2960 H   0  0  0  0  0  0  0  0  0  0  0  0
   -2.8445    3.7682    0.8022 H   0  0  0  0  0  0  0  0  0  0  0  0
  1 37  1  0  0  0  0
  2 23  1  0  0  0  0
  3  1  1  6  0  0  0
  4  5  1  0  0  0  0
  4  3  1  0  0  0  0
  6  3  1  0  0  0  0
  6 15  1  0  0  0  0
  7  6  2  0  0  0  0
  8  7  1  0  0  0  0
  8 10  2  0  0  0  0
  9  8  1  0  0  0  0
 10 21  1  0  0  0  0
 11 10  1  0  0  0  0
 12 25  1  1  0  0  0
 12  2  1  0  0  0  0
 13 23  2  0  0  0  0
 13 14  1  0  0  0  0
 15 16  1  0  0  0  0
 17 12  1  0  0  0  0
 17 19  2  0  0  0  0
 18 17  1  0  0  0  0
 19 13  1  0  0  0  0
 20 19  1  0  0  0  0
 21 22  1  0  0  0  0
 21 15  2  0  0  0  0
 23 24  1  0  0  0  0
 26 25  1  0  0  0  0
 27 25  1  0  0  0  0
 28 29  1  0  0  0  0
 28  1  1  0  0  0  0
 28 30  1  0  0  0  0
 31 28  1  0  0  0  0
 32 25  1  1  0  0  0
 32  7  1  0  0  0  0
 32  4  1  0  0  0  0
 33 35  1  0  0  0  0
 33 34  1  0  0  0  0
 33  1  1  0  0  0  0
 36 33  1  0  0  0  0
 37 40  1  0  0  0  0
 37 38  1  0  0  0  0
 37 39  1  0  0  0  0
M  END
