23,24
 OpenBabel05122313053D

 41 42  0  0  0  0  0  0  0  0999 V2000
   -1.1089    0.6935    0.2501 N   0  0  0  0  0  0  0  0  0  0  0  0
    1.0930    1.3354    0.4800 N   0  0  0  0  0  0  0  0  0  0  0  0
    2.0738    1.0580    0.4819 H   0  0  0  0  0  0  0  0  0  0  0  0
   -8.2764    0.5463    1.0330 F   0  0  0  0  0  0  0  0  0  0  0  0
   -7.7752    2.3603   -0.0808 F   0  0  0  0  0  0  0  0  0  0  0  0
   -8.1613    0.4969   -1.1436 F   0  0  0  0  0  0  0  0  0  0  0  0
    0.7770    3.4058   -0.8419 C   0  0  0  0  0  0  0  0  0  0  0  0
    0.0550    2.8577   -1.4803 H   0  0  0  0  0  0  0  0  0  0  0  0
    0.3987    4.4474   -0.7458 H   0  0  0  0  0  0  0  0  0  0  0  0
   -4.3572   -0.8623    0.7315 C   0  0  0  0  0  0  0  0  0  0  0  0
   -4.0501   -1.7600    1.2833 H   0  0  0  0  0  0  0  0  0  0  0  0
   -3.3919   -0.0628    0.0835 C   0  0  0  0  0  0  0  0  0  0  0  0
   -1.9339   -0.3739    0.1019 C   0  0  0  0  0  0  0  0  0  0  0  0
   -5.7094   -0.4987    0.7180 C   0  0  0  0  0  0  0  0  0  0  0  0
   -6.4528   -1.1157    1.2422 H   0  0  0  0  0  0  0  0  0  0  0  0
   -6.1190    0.6645    0.0460 C   0  0  0  0  0  0  0  0  0  0  0  0
   -3.8132    1.1234   -0.5580 C   0  0  0  0  0  0  0  0  0  0  0  0
   -3.0512    1.7633   -1.0239 H   0  0  0  0  0  0  0  0  0  0  0  0
   -2.2117   -2.7978   -0.2928 C   0  0  0  0  0  0  0  0  0  0  0  0
   -1.5636   -3.5282   -0.8144 H   0  0  0  0  0  0  0  0  0  0  0  0
   -3.1114   -2.5781   -0.9025 H   0  0  0  0  0  0  0  0  0  0  0  0
   -2.5320   -3.2842    0.6542 H   0  0  0  0  0  0  0  0  0  0  0  0
   -1.4264   -1.6010   -0.0357 N   0  0  0  0  0  2  0  0  0  0  0  0
    0.1867    0.3553    0.2855 C   0  0  0  0  0  2  0  0  0  0  0  0
    3.1941    4.1220   -0.5552 C   0  0  0  0  0  0  0  0  0  0  0  0
    4.2104    4.0870   -1.0023 H   0  0  0  0  0  0  0  0  0  0  0  0
    2.9269    5.1998   -0.4756 H   0  0  0  0  0  0  0  0  0  0  0  0
    1.8054    3.4667    1.4741 C   0  0  0  0  0  0  0  0  0  0  0  0
    1.8245    2.9725    2.4676 H   0  0  0  0  0  0  0  0  0  0  0  0
    1.4512    4.5064    1.6417 H   0  0  0  0  0  0  0  0  0  0  0  0
    2.1772    3.4204   -1.4680 C   0  0  0  0  0  0  0  0  0  0  0  0
    2.1489    3.9084   -2.4640 H   0  0  0  0  0  0  0  0  0  0  0  0
    2.5041    2.3717   -1.6528 H   0  0  0  0  0  0  0  0  0  0  0  0
   -5.1642    1.4785   -0.5897 C   0  0  0  0  0  0  0  0  0  0  0  0
   -5.4846    2.4000   -1.0967 H   0  0  0  0  0  0  0  0  0  0  0  0
    0.7851    2.7654    0.5622 C   0  0  0  0  0  0  0  0  0  0  0  0
   -0.2332    2.8272    0.9933 H   0  0  0  0  0  0  0  0  0  0  0  0
    3.2107    3.5106    0.8533 C   0  0  0  0  0  0  0  0  0  0  0  0
    3.9012    4.0724    1.5163 H   0  0  0  0  0  0  0  0  0  0  0  0
    3.6350    2.4805    0.8004 H   0  0  0  0  0  0  0  0  0  0  0  0
   -7.5846    1.0196   -0.0312 C   0  0  0  0  0  0  0  0  0  0  0  0
  1 24  1  0  0  0  0
  2  3  1  0  0  0  0
  2 36  1  0  0  0  0
  5 41  1  0  0  0  0
  6 41  1  0  0  0  0
  7  9  1  0  0  0  0
  7 36  1  0  0  0  0
  8  7  1  0  0  0  0
 10 11  1  0  0  0  0
 12 13  1  0  0  0  0
 12 10  2  0  0  0  0
 13  1  2  0  0  0  0
 14 10  1  0  0  0  0
 14 15  1  0  0  0  0
 16 14  2  0  0  0  0
 17 12  1  0  0  0  0
 18 17  1  0  0  0  0
 19 23  1  0  0  0  0
 19 22  1  0  0  0  0
 20 19  1  0  0  0  0
 21 19  1  0  0  0  0
 23 13  1  0  0  0  0
 24  2  1  0  0  0  0
 25 27  1  0  0  0  0
 25 38  1  0  0  0  0
 26 25  1  0  0  0  0
 28 30  1  0  0  0  0
 28 29  1  0  0  0  0
 31  7  1  0  0  0  0
 31 25  1  0  0  0  0
 32 31  1  0  0  0  0
 33 31  1  0  0  0  0
 34 17  2  0  0  0  0
 34 16  1  0  0  0  0
 35 34  1  0  0  0  0
 36 37  1  0  0  0  0
 36 28  1  0  0  0  0
 38 28  1  0  0  0  0
 38 39  1  0  0  0  0
 40 38  1  0  0  0  0
 41 16  1  0  0  0  0
 41  4  1  0  0  0  0
M  END
