1,6
 OpenBabel05122313053D

 27 27  0  0  0  0  0  0  0  0999 V2000
   -1.5152   -1.6147    0.1392 N   0  0  0  0  0  2  0  0  0  0  0  0
   -0.8480   -2.7375    0.3226 C   0  0  0  0  0  0  0  0  0  0  0  0
   -1.3804   -3.7048    0.3680 H   0  0  0  0  0  0  0  0  0  0  0  0
    0.5666   -2.6299    0.3936 C   0  0  0  0  0  0  0  0  0  0  0  0
    1.2131   -3.5130    0.5128 H   0  0  0  0  0  0  0  0  0  0  0  0
    1.0461   -1.3460    0.1684 C   0  0  0  0  0  2  0  0  0  0  0  0
    2.4911   -1.0850    0.0624 C   0  0  0  0  0  0  0  0  0  0  0  0
    3.3905   -1.5387    1.0560 C   0  0  0  0  0  0  0  0  0  0  0  0
    2.9943   -2.0891    1.9233 H   0  0  0  0  0  0  0  0  0  0  0  0
    4.7623   -1.2631    0.9597 C   0  0  0  0  0  0  0  0  0  0  0  0
    5.4456   -1.6062    1.7520 H   0  0  0  0  0  0  0  0  0  0  0  0
    5.2642   -0.5495   -0.1407 C   0  0  0  0  0  0  0  0  0  0  0  0
    6.3410   -0.3340   -0.2162 H   0  0  0  0  0  0  0  0  0  0  0  0
    4.3827   -0.1176   -1.1479 C   0  0  0  0  0  0  0  0  0  0  0  0
    4.7715    0.4256   -2.0234 H   0  0  0  0  0  0  0  0  0  0  0  0
    3.0092   -0.3723   -1.0453 C   0  0  0  0  0  0  0  0  0  0  0  0
    2.3069   -0.0505   -1.8291 H   0  0  0  0  0  0  0  0  0  0  0  0
   -2.9670   -1.6245   -0.1137 C   0  0  0  0  0  0  0  0  0  0  0  0
   -3.2446   -0.5594   -0.2318 H   0  0  0  0  0  0  0  0  0  0  0  0
   -3.7411   -2.1872    1.0844 C   0  0  0  0  0  0  0  0  0  0  0  0
   -3.5347   -3.2671    1.2331 H   0  0  0  0  0  0  0  0  0  0  0  0
   -4.8324   -2.0746    0.9252 H   0  0  0  0  0  0  0  0  0  0  0  0
   -3.4675   -1.6578    2.0195 H   0  0  0  0  0  0  0  0  0  0  0  0
   -3.2979   -2.3358   -1.4317 C   0  0  0  0  0  0  0  0  0  0  0  0
   -2.6938   -1.8999   -2.2513 H   0  0  0  0  0  0  0  0  0  0  0  0
   -4.3747   -2.2228   -1.6718 H   0  0  0  0  0  0  0  0  0  0  0  0
   -3.0749   -3.4209   -1.3698 H   0  0  0  0  0  0  0  0  0  0  0  0
  1  2  1  0  0  0  0
  2  3  1  0  0  0  0
  2  4  2  0  0  0  0
  4  5  1  0  0  0  0
  6  4  1  0  0  0  0
  7  6  1  0  0  0  0
  7  8  1  0  0  0  0
  8  9  1  0  0  0  0
 10  8  2  0  0  0  0
 10 11  1  0  0  0  0
 12 10  1  0  0  0  0
 13 12  1  0  0  0  0
 14 16  1  0  0  0  0
 14 12  2  0  0  0  0
 15 14  1  0  0  0  0
 16  7  2  0  0  0  0
 17 16  1  0  0  0  0
 18  1  1  0  0  0  0
 18 20  1  0  0  0  0
 19 18  1  0  0  0  0
 20 21  1  0  0  0  0
 20 23  1  0  0  0  0
 22 20  1  0  0  0  0
 24 27  1  0  0  0  0
 24 18  1  0  0  0  0
 25 24  1  0  0  0  0
 26 24  1  0  0  0  0
M  END
