1,14
 OpenBabel05122313053D

 36 37  0  0  1  0  0  0  0  0999 V2000
    0.9427    1.3243    0.0000 N   0  0  0  0  0  2  0  0  0  0  0  0
   -0.2922   -1.3137   -1.1674 C   0  0  2  0  0  3  0  0  0  0  0  0
    2.1296    0.5990   -0.0000 C   0  0  0  0  0  0  0  0  0  0  0  0
    0.1820   -1.2419   -2.5855 C   0  0  0  0  0  0  0  0  0  0  0  0
   -2.8462   -1.6353    1.5988 C   0  0  0  0  0  0  0  0  0  0  0  0
    3.0729   -1.6628   -0.0001 C   0  0  0  0  0  0  0  0  0  0  0  0
   -0.2921   -1.3140    1.1671 C   0  0  1  0  0  3  0  0  0  0  0  0
   -1.6469   -1.4576   -0.7202 C   0  0  0  0  0  0  0  0  0  0  0  0
    4.5391    0.2770   -0.0000 C   0  0  0  0  0  0  0  0  0  0  0  0
    1.9608   -0.8155   -0.0001 C   0  0  0  0  0  0  0  0  0  0  0  0
   -2.8462   -1.6351   -1.5991 C   0  0  0  0  0  0  0  0  0  0  0  0
   -1.6469   -1.4577    0.7199 C   0  0  0  0  0  0  0  0  0  0  0  0
    3.4340    1.1432    0.0000 C   0  0  0  0  0  0  0  0  0  0  0  0
    0.5385   -1.2214   -0.0001 C   0  0  2  0  0  3  0  0  0  0  0  0
    0.1821   -1.2425    2.5852 C   0  0  0  0  0  0  0  0  0  0  0  0
    4.3706   -1.1169   -0.0001 C   0  0  0  0  0  0  0  0  0  0  0  0
    0.9959    2.7757    0.0001 C   0  0  0  0  0  0  0  0  0  0  0  0
   -3.7631   -1.2285   -1.1305 H   0  0  0  0  0  0  0  0  0  0  0  0
   -0.0322    3.1900    0.0001 H   0  0  0  0  0  0  0  0  0  0  0  0
   -0.4935   -0.6206   -3.2049 H   0  0  0  0  0  0  0  0  0  0  0  0
    1.1991   -0.8083    2.6375 H   0  0  0  0  0  0  0  0  0  0  0  0
   -2.7133   -1.1247    2.5709 H   0  0  0  0  0  0  0  0  0  0  0  0
    5.5539    0.7036    0.0000 H   0  0  0  0  0  0  0  0  0  0  0  0
    5.2479   -1.7803   -0.0001 H   0  0  0  0  0  0  0  0  0  0  0  0
    3.5873    2.2311    0.0001 H   0  0  0  0  0  0  0  0  0  0  0  0
   -3.7629   -1.2281    1.1306 H   0  0  0  0  0  0  0  0  0  0  0  0
   -2.7136   -1.1238   -2.5708 H   0  0  0  0  0  0  0  0  0  0  0  0
    2.9231   -2.7531   -0.0002 H   0  0  0  0  0  0  0  0  0  0  0  0
    1.5135    3.1649   -0.9052 H   0  0  0  0  0  0  0  0  0  0  0  0
    1.1991   -0.8080   -2.6377 H   0  0  0  0  0  0  0  0  0  0  0  0
   -3.0241   -2.7140   -1.7986 H   0  0  0  0  0  0  0  0  0  0  0  0
    1.5134    3.1647    0.9055 H   0  0  0  0  0  0  0  0  0  0  0  0
   -3.0245   -2.7143    1.7977 H   0  0  0  0  0  0  0  0  0  0  0  0
   -0.4935   -0.6214    3.2049 H   0  0  0  0  0  0  0  0  0  0  0  0
    0.2264   -2.2562    3.0375 H   0  0  0  0  0  0  0  0  0  0  0  0
    0.2260   -2.2555   -3.0381 H   0  0  0  0  0  0  0  0  0  0  0  0
  1 17  1  0  0  0  0
  2  4  1  6  0  0  0
  2  8  1  0  0  0  0
  2 14  1  0  0  0  0
  3  1  1  0  0  0  0
  3 13  1  0  0  0  0
  5 33  1  0  0  0  0
  5 22  1  0  0  0  0
  6 10  1  0  0  0  0
  6 16  2  0  0  0  0
  7 15  1  1  0  0  0
  8 12  2  0  0  0  0
  9 13  2  0  0  0  0
  9 23  1  0  0  0  0
 10  3  2  0  0  0  0
 11 18  1  0  0  0  0
 11  8  1  0  0  0  0
 12  7  1  0  0  0  0
 12  5  1  0  0  0  0
 13 25  1  0  0  0  0
 14 10  1  1  0  0  0
 14  7  1  0  0  0  0
 15 21  1  0  0  0  0
 15 35  1  0  0  0  0
 15 34  1  0  0  0  0
 16  9  1  0  0  0  0
 17 32  1  0  0  0  0
 19 17  1  0  0  0  0
 20  4  1  0  0  0  0
 24 16  1  0  0  0  0
 26  5  1  0  0  0  0
 27 11  1  0  0  0  0
 28  6  1  0  0  0  0
 29 17  1  0  0  0  0
 30  4  1  0  0  0  0
 31 11  1  0  0  0  0
 36  4  1  0  0  0  0
M  END
