1,2
 OpenBabel05122313053D

 38 44  0  0  0  0  0  0  0  0999 V2000
    0.8353    2.4336    0.0394 N   0  0  0  0  0  2  0  0  0  0  0  0
   -0.7396    0.3830   -0.2447 C   0  0  0  0  0  3  0  0  0  0  0  0
   -1.3859    1.6688   -0.3288 C   0  0  0  0  0  0  0  0  0  0  0  0
   -2.8422    1.8190   -0.4395 C   0  0  0  0  0  0  0  0  0  0  0  0
   -3.7384    2.8872   -0.0288 C   0  0  0  0  0  3  0  0  0  0  0  0
   -3.3348    3.8625    0.2753 H   0  0  0  0  0  0  0  0  0  0  0  0
   -5.1157    2.6984    0.1471 C   0  0  0  0  0  0  0  0  0  0  0  0
   -5.7056    3.5363    0.5527 H   0  0  0  0  0  0  0  0  0  0  0  0
   -5.7482    1.4147   -0.0497 C   0  0  0  0  0  0  0  0  0  0  0  0
   -6.9976    0.9050    0.4819 C   0  0  0  0  0  0  0  0  0  0  0  0
   -7.7462    1.6134    0.8720 H   0  0  0  0  0  0  0  0  0  0  0  0
   -7.2345   -0.4651    0.6308 C   0  0  0  0  0  0  0  0  0  0  0  0
   -8.1618   -0.7874    1.1313 H   0  0  0  0  0  0  0  0  0  0  0  0
   -6.2421   -1.4579    0.2661 C   0  0  0  0  0  0  0  0  0  0  0  0
   -5.1434   -0.9519   -0.4341 C   0  0  0  0  0  0  0  0  0  0  0  0
   -3.8897   -1.6225   -0.5013 C   0  0  0  0  0  0  0  0  0  0  0  0
   -2.8745   -0.6449   -0.7134 C   0  0  0  0  0  0  0  0  0  0  0  0
   -3.5046    0.6365   -0.7785 C   0  0  0  0  0  0  0  0  0  0  0  0
   -4.9024    0.4429   -0.5930 C   0  0  0  0  0  0  0  0  0  0  0  0
   -1.5485   -0.8307   -0.3061 C   0  0  0  0  0  0  0  0  0  0  0  0
   -1.2643   -2.1621    0.1957 C   0  0  0  0  0  0  0  0  0  0  0  0
   -0.2337   -2.3878    0.4924 H   0  0  0  0  0  0  0  0  0  0  0  0
   -2.2612   -3.1206    0.4037 C   0  0  0  0  0  0  0  0  0  0  0  0
   -1.9775   -4.0764    0.8736 H   0  0  0  0  0  0  0  0  0  0  0  0
   -3.6567   -2.8416    0.1443 C   0  0  0  0  0  0  0  0  0  0  0  0
   -4.8444   -3.4775    0.6809 C   0  0  0  0  0  0  0  0  0  0  0  0
   -4.7576   -4.4717    1.1483 H   0  0  0  0  0  0  0  0  0  0  0  0
   -6.0774   -2.8196    0.7374 C   0  0  0  0  0  0  0  0  0  0  0  0
   -6.9174   -3.3200    1.2458 H   0  0  0  0  0  0  0  0  0  0  0  0
   -0.4696    2.7928   -0.2290 C   0  0  0  0  0  0  0  0  0  0  0  0
    1.8005    3.3683    0.1916 C   0  0  0  0  0  0  0  0  0  0  0  0
    2.8051    2.9712    0.3988 H   0  0  0  0  0  0  0  0  0  0  0  0
    1.5339    4.7314    0.0631 C   0  0  0  0  0  0  0  0  0  0  0  0
    2.3460    5.4582    0.1998 H   0  0  0  0  0  0  0  0  0  0  0  0
    0.2287    5.1298   -0.2737 C   0  0  0  0  0  0  0  0  0  0  0  0
   -0.0107    6.1924   -0.4284 H   0  0  0  0  0  0  0  0  0  0  0  0
   -0.7647    4.1608   -0.4260 C   0  0  0  0  0  0  0  0  0  0  0  0
   -1.7767    4.4494   -0.7309 H   0  0  0  0  0  0  0  0  0  0  0  0
  1 31  1  0  0  0  0
  3  2  1  0  0  0  0
  3 30  2  0  0  0  0
  4  3  1  0  0  0  0
  4  5  1  0  0  0  0
  5  7  1  0  0  0  0
  5  6  1  0  0  0  0
  7  8  1  0  0  0  0
  9  7  2  0  0  0  0
  9 10  1  0  0  0  0
 10 12  2  0  0  0  0
 10 11  1  0  0  0  0
 12 13  1  0  0  0  0
 14 12  1  0  0  0  0
 14 28  2  0  0  0  0
 15 14  1  0  0  0  0
 16 15  1  0  0  0  0
 16 25  1  0  0  0  0
 17 16  2  0  0  0  0
 17 20  1  0  0  0  0
 18 17  1  0  0  0  0
 18 19  1  0  0  0  0
 18  4  2  0  0  0  0
 19 15  2  0  0  0  0
 19  9  1  0  0  0  0
 20  2  2  0  0  0  0
 20 21  1  0  0  0  0
 21 23  2  0  0  0  0
 21 22  1  0  0  0  0
 23 24  1  0  0  0  0
 25 23  1  0  0  0  0
 25 26  2  0  0  0  0
 26 28  1  0  0  0  0
 26 27  1  0  0  0  0
 28 29  1  0  0  0  0
 30  1  1  0  0  0  0
 31 32  1  0  0  0  0
 33 31  2  0  0  0  0
 33 34  1  0  0  0  0
 35 33  1  0  0  0  0
 36 35  1  0  0  0  0
 37 35  2  0  0  0  0
 37 30  1  0  0  0  0
 38 37  1  0  0  0  0
M  END
