1,2
 OpenBabel05122313053D

 27 28  0  0  0  0  0  0  0  0999 V2000
   -1.4325    2.1907    0.9157 C   0  0  0  0  0  3  0  0  0  0  0  0
    1.1338    1.9032    0.8146 N   0  0  0  0  0  2  0  0  0  0  0  0
    2.3956    1.4760    1.2371 C   0  0  0  0  0  0  0  0  0  0  0  0
    0.8012    3.2364    0.6439 C   0  0  0  0  0  0  0  0  0  0  0  0
   -0.6893    3.3819    0.7182 C   0  0  0  0  0  0  0  0  0  0  0  0
    3.6901   -0.2295    2.4381 C   0  0  0  0  0  0  0  0  0  0  0  0
    3.7076   -1.1764    3.0014 H   0  0  0  0  0  0  0  0  0  0  0  0
    4.8205    1.6653    1.4739 C   0  0  0  0  0  0  0  0  0  0  0  0
    5.7472    2.2278    1.2717 H   0  0  0  0  0  0  0  0  0  0  0  0
   -3.3957    3.5960    1.3275 C   0  0  0  0  0  0  0  0  0  0  0  0
   -4.4604    3.6709    1.6015 H   0  0  0  0  0  0  0  0  0  0  0  0
    2.4705    0.2666    1.9774 C   0  0  0  0  0  0  0  0  0  0  0  0
    1.5335   -0.2740    2.1893 H   0  0  0  0  0  0  0  0  0  0  0  0
    1.5820    4.1888    0.5408 O   0  0  0  0  0  0  0  0  0  0  0  0
    4.8990    0.4559    2.1918 C   0  0  0  0  0  0  0  0  0  0  0  0
   -2.6580    4.7576    1.0485 C   0  0  0  0  0  0  0  0  0  0  0  0
   -3.1430    5.7452    1.0903 H   0  0  0  0  0  0  0  0  0  0  0  0
   -1.2905    4.6486    0.7526 C   0  0  0  0  0  0  0  0  0  0  0  0
   -0.6495    5.5286    0.5826 H   0  0  0  0  0  0  0  0  0  0  0  0
    3.6046    2.1782    1.0000 C   0  0  0  0  0  0  0  0  0  0  0  0
    3.5595    3.1299    0.4580 H   0  0  0  0  0  0  0  0  0  0  0  0
   -2.7910    2.3243    1.2555 C   0  0  0  0  0  0  0  0  0  0  0  0
   -3.4191    1.4474    1.4715 H   0  0  0  0  0  0  0  0  0  0  0  0
    6.2144   -0.1026    2.6709 C   0  0  0  0  0  0  0  0  0  0  0  0
    6.4382   -1.0781    2.1856 H   0  0  0  0  0  0  0  0  0  0  0  0
    6.2087   -0.2871    3.7659 H   0  0  0  0  0  0  0  0  0  0  0  0
    7.0550    0.5840    2.4494 H   0  0  0  0  0  0  0  0  0  0  0  0
  1 22  1  0  0  0  0
  2  3  1  0  0  0  0
  3 12  1  0  0  0  0
  4  5  1  0  0  0  0
  4  2  1  0  0  0  0
  5 18  1  0  0  0  0
  5  1  2  0  0  0  0
  6  7  1  0  0  0  0
  8 15  2  0  0  0  0
  9  8  1  0  0  0  0
 10 11  1  0  0  0  0
 12 13  1  0  0  0  0
 12  6  2  0  0  0  0
 14  4  2  0  0  0  0
 15  6  1  0  0  0  0
 15 24  1  0  0  0  0
 16 17  1  0  0  0  0
 16 10  1  0  0  0  0
 18 16  2  0  0  0  0
 19 18  1  0  0  0  0
 20  3  2  0  0  0  0
 20  8  1  0  0  0  0
 21 20  1  0  0  0  0
 22 10  2  0  0  0  0
 22 23  1  0  0  0  0
 24 26  1  0  0  0  0
 25 24  1  0  0  0  0
 27 24  1  0  0  0  0
M  END
