1,12
 OpenBabel05122313053D

 26 28  0  0  0  0  0  0  0  0999 V2000
   -0.6954    2.2180    0.0083 N   0  0  0  0  0  2  0  0  0  0  0  0
    0.6542    2.4523    0.0789 C   0  0  0  0  0  0  0  0  0  0  0  0
    1.1306    3.7755    0.1556 C   0  0  0  0  0  0  0  0  0  0  0  0
    0.2274    4.8418    0.1570 C   0  0  0  0  0  0  0  0  0  0  0  0
   -1.1487    4.5735    0.0799 C   0  0  0  0  0  0  0  0  0  0  0  0
   -1.5729    3.2434    0.0075 C   0  0  0  0  0  0  0  0  0  0  0  0
    1.4712    1.2383    0.0479 C   0  0  0  0  0  0  0  0  0  0  0  0
    2.8645    1.2423    0.0675 C   0  0  0  0  0  0  0  0  0  0  0  0
    3.6033    0.0318   -0.0186 C   0  0  0  0  0  0  0  0  0  0  0  0
    2.8766   -1.2094   -0.1439 C   0  0  0  0  0  3  0  0  0  0  0  0
    1.4479   -1.1834   -0.1543 C   0  0  0  0  0  0  0  0  0  0  0  0
    0.7271   -0.0008   -0.0394 C   0  0  0  0  0  3  0  0  0  0  0  0
    5.0290    0.0040    0.0003 C   0  0  0  0  0  0  0  0  0  0  0  0
    5.7184   -1.1953   -0.1024 C   0  0  0  0  0  0  0  0  0  0  0  0
    5.0044   -2.4180   -0.2302 C   0  0  0  0  0  0  0  0  0  0  0  0
    3.6165   -2.4230   -0.2514 C   0  0  0  0  0  0  0  0  0  0  0  0
    2.2123    3.9574    0.2130 H   0  0  0  0  0  0  0  0  0  0  0  0
    0.5945    5.8775    0.2176 H   0  0  0  0  0  0  0  0  0  0  0  0
   -1.8945    5.3805    0.0769 H   0  0  0  0  0  0  0  0  0  0  0  0
   -2.6323    2.9391   -0.0503 H   0  0  0  0  0  0  0  0  0  0  0  0
    3.4251    2.1880    0.1410 H   0  0  0  0  0  0  0  0  0  0  0  0
    0.9329   -2.1509   -0.2634 H   0  0  0  0  0  0  0  0  0  0  0  0
    5.5752    0.9559    0.0965 H   0  0  0  0  0  0  0  0  0  0  0  0
    6.8187   -1.2040   -0.0869 H   0  0  0  0  0  0  0  0  0  0  0  0
    5.5589   -3.3653   -0.3132 H   0  0  0  0  0  0  0  0  0  0  0  0
    3.0637   -3.3705   -0.3510 H   0  0  0  0  0  0  0  0  0  0  0  0
  1  2  1  0  0  0  0
  2  3  1  0  0  0  0
  3  4  2  0  0  0  0
  3 17  1  0  0  0  0
  4 18  1  0  0  0  0
  5  4  1  0  0  0  0
  6  1  1  0  0  0  0
  6  5  2  0  0  0  0
  7  8  1  0  0  0  0
  7  2  2  0  0  0  0
  8 21  1  0  0  0  0
  9 13  1  0  0  0  0
  9  8  2  0  0  0  0
 10  9  1  0  0  0  0
 11 10  1  0  0  0  0
 11 12  2  0  0  0  0
 12  7  1  0  0  0  0
 13 23  1  0  0  0  0
 14 24  1  0  0  0  0
 14 13  2  0  0  0  0
 15 14  1  0  0  0  0
 16 15  2  0  0  0  0
 16 10  1  0  0  0  0
 19  5  1  0  0  0  0
 20  6  1  0  0  0  0
 22 11  1  0  0  0  0
 25 15  1  0  0  0  0
 26 16  1  0  0  0  0
M  END
