3,8
 OpenBabel05122313053D

 29 30  0  0  0  0  0  0  0  0999 V2000
    2.6487    1.1472   -1.3684 N   0  0  0  0  0  0  0  0  0  0  0  0
    1.7621    0.1399   -1.3606 N   0  0  0  0  0  2  0  0  0  0  0  0
    0.7379    0.5796   -0.6630 N   0  0  0  0  0  2  0  0  0  0  0  0
    0.9386    1.8683   -0.2046 C   0  0  0  0  0  0  0  0  0  0  0  0
    2.1992    2.2343   -0.6672 C   0  0  0  0  0  0  0  0  0  0  0  0
    2.7840    3.1530   -0.5693 H   0  0  0  0  0  0  0  0  0  0  0  0
   -0.1603    2.4142    0.5633 C   0  0  0  0  0  0  0  0  0  0  0  0
   -1.2662    1.5083    0.6660 C   0  0  0  0  0  3  0  0  0  0  0  0
   -2.4024    1.9885    1.3538 C   0  0  0  0  0  0  0  0  0  0  0  0
   -3.3020    1.3578    1.4245 H   0  0  0  0  0  0  0  0  0  0  0  0
   -2.4262    3.2660    1.9359 C   0  0  0  0  0  0  0  0  0  0  0  0
   -3.3298    3.6029    2.4686 H   0  0  0  0  0  0  0  0  0  0  0  0
   -1.3147    4.1244    1.8402 C   0  0  0  0  0  0  0  0  0  0  0  0
   -1.3423    5.1247    2.2976 H   0  0  0  0  0  0  0  0  0  0  0  0
   -0.1790    3.6979    1.1432 C   0  0  0  0  0  0  0  0  0  0  0  0
    0.6931    4.3641    1.0412 H   0  0  0  0  0  0  0  0  0  0  0  0
    3.9651    0.9423   -1.9620 C   0  0  0  0  0  0  0  0  0  0  0  0
    4.2049    1.8315   -2.5790 H   0  0  0  0  0  0  0  0  0  0  0  0
    3.8520    0.0751   -2.6409 H   0  0  0  0  0  0  0  0  0  0  0  0
    5.0532    0.6874   -0.9125 C   0  0  0  0  0  0  0  0  0  0  0  0
    5.1735    1.5956   -0.2811 H   0  0  0  0  0  0  0  0  0  0  0  0
    6.0167    0.5637   -1.4534 H   0  0  0  0  0  0  0  0  0  0  0  0
    4.7846   -0.5293   -0.0231 C   0  0  0  0  0  0  0  0  0  0  0  0
    3.8095   -0.3949    0.4908 H   0  0  0  0  0  0  0  0  0  0  0  0
    4.6613   -1.4298   -0.6640 H   0  0  0  0  0  0  0  0  0  0  0  0
    5.8784   -0.7702    1.0168 C   0  0  0  0  0  0  0  0  0  0  0  0
    5.6473   -1.6513    1.6484 H   0  0  0  0  0  0  0  0  0  0  0  0
    5.9916    0.1032    1.6924 H   0  0  0  0  0  0  0  0  0  0  0  0
    6.8644   -0.9498    0.5398 H   0  0  0  0  0  0  0  0  0  0  0  0
  1  2  1  0  0  0  0
  1  5  1  0  0  0  0
  2  3  1  0  0  0  0
  3  4  1  0  0  0  0
  4  7  1  0  0  0  0
  5  6  1  0  0  0  0
  5  4  2  0  0  0  0
  7  8  2  0  0  0  0
  7 15  1  0  0  0  0
  8  9  1  0  0  0  0
  9 10  1  0  0  0  0
  9 11  2  0  0  0  0
 11 12  1  0  0  0  0
 13 11  1  0  0  0  0
 13 14  1  0  0  0  0
 15 13  2  0  0  0  0
 16 15  1  0  0  0  0
 17  1  1  0  0  0  0
 17 20  1  0  0  0  0
 18 17  1  0  0  0  0
 19 17  1  0  0  0  0
 20 21  1  0  0  0  0
 20 23  1  0  0  0  0
 22 20  1  0  0  0  0
 23 24  1  0  0  0  0
 23 26  1  0  0  0  0
 25 23  1  0  0  0  0
 26 27  1  0  0  0  0
 26 28  1  0  0  0  0
 29 26  1  0  0  0  0
M  END
