1,12
 OpenBabel05122313053D

 46 46  0  0  1  0  0  0  0  0999 V2000
   -1.6636   -1.0928    0.1530 C   0  0  1  0  0  3  0  0  0  0  0  0
   -1.8758   -0.1686    1.2392 C   0  0  0  0  0  0  0  0  0  0  0  0
   -2.2608    1.0992    0.6908 C   0  0  0  0  0  0  0  0  0  0  0  0
   -2.2887    0.9792   -0.7348 C   0  0  0  0  0  0  0  0  0  0  0  0
   -1.9108   -0.3620   -1.0727 C   0  0  0  0  0  0  0  0  0  0  0  0
   -1.8173   -0.4403    2.7157 C   0  0  0  0  0  0  0  0  0  0  0  0
   -2.6801    2.2878    1.4982 C   0  0  0  0  0  0  0  0  0  0  0  0
   -2.7269    2.0383   -1.6999 C   0  0  0  0  0  0  0  0  0  0  0  0
   -1.8406   -0.8981   -2.4767 C   0  0  0  0  0  0  0  0  0  0  0  0
   -0.4499   -2.5408    0.1606 Si  0  0  0  0  0  0  0  0  0  0  0  0
   -0.7768   -3.8886   -1.1258 C   0  0  0  0  0  0  0  0  0  0  0  0
    0.8988   -1.4734   -0.2054 N   0  0  0  0  0  2  0  0  0  0  0  0
    2.2612   -1.8558   -0.5196 C   0  0  0  0  0  0  0  0  0  0  0  0
    3.0540   -0.6020   -0.8835 C   0  0  0  0  0  0  0  0  0  0  0  0
    2.7259    0.4809    0.0721 N   0  0  0  0  0  0  0  0  0  0  0  0
    3.1678    0.1128    1.4335 C   0  0  0  0  0  0  0  0  0  0  0  0
    3.3790    1.7428   -0.3214 C   0  0  0  0  0  0  0  0  0  0  0  0
   -0.2164   -3.4431    1.8099 C   0  0  0  0  0  0  0  0  0  0  0  0
   -1.3946   -1.4341    2.9416 H   0  0  0  0  0  0  0  0  0  0  0  0
   -2.8410   -0.4102    3.1473 H   0  0  0  0  0  0  0  0  0  0  0  0
   -1.2167    0.3256    3.2467 H   0  0  0  0  0  0  0  0  0  0  0  0
   -3.6994    2.1342    1.9146 H   0  0  0  0  0  0  0  0  0  0  0  0
   -2.7016    3.2128    0.8912 H   0  0  0  0  0  0  0  0  0  0  0  0
   -1.9891    2.4615    2.3461 H   0  0  0  0  0  0  0  0  0  0  0  0
   -3.7722    1.8592   -2.0313 H   0  0  0  0  0  0  0  0  0  0  0  0
   -2.0816    2.0606   -2.5996 H   0  0  0  0  0  0  0  0  0  0  0  0
   -2.6898    3.0456   -1.2429 H   0  0  0  0  0  0  0  0  0  0  0  0
   -2.6388   -1.6490   -2.6543 H   0  0  0  0  0  0  0  0  0  0  0  0
   -0.8695   -1.3857   -2.6922 H   0  0  0  0  0  0  0  0  0  0  0  0
   -1.9648   -0.0863   -3.2163 H   0  0  0  0  0  0  0  0  0  0  0  0
   -1.7375   -4.3987   -0.9028 H   0  0  0  0  0  0  0  0  0  0  0  0
    0.0237   -4.6561   -1.0772 H   0  0  0  0  0  0  0  0  0  0  0  0
   -0.8254   -3.5067   -2.1620 H   0  0  0  0  0  0  0  0  0  0  0  0
    2.3059   -2.5625   -1.3817 H   0  0  0  0  0  0  0  0  0  0  0  0
    2.7528   -2.3905    0.3304 H   0  0  0  0  0  0  0  0  0  0  0  0
    4.1533   -0.7981   -0.8952 H   0  0  0  0  0  0  0  0  0  0  0  0
    2.7541   -0.2469   -1.8903 H   0  0  0  0  0  0  0  0  0  0  0  0
    4.2565   -0.1268    1.4390 H   0  0  0  0  0  0  0  0  0  0  0  0
    2.6026   -0.7649    1.7989 H   0  0  0  0  0  0  0  0  0  0  0  0
    2.9694    0.9551    2.1184 H   0  0  0  0  0  0  0  0  0  0  0  0
    4.4884    1.6456   -0.2763 H   0  0  0  0  0  0  0  0  0  0  0  0
    3.0534    2.5442    0.3685 H   0  0  0  0  0  0  0  0  0  0  0  0
    3.0710    2.0137   -1.3472 H   0  0  0  0  0  0  0  0  0  0  0  0
   -1.1673   -3.8766    2.1828 H   0  0  0  0  0  0  0  0  0  0  0  0
    0.1994   -2.7819    2.5951 H   0  0  0  0  0  0  0  0  0  0  0  0
    0.4954   -4.2827    1.6657 H   0  0  0  0  0  0  0  0  0  0  0  0
  1 10  1  6  0  0  0
  1  2  1  0  0  0  0
  2  6  1  0  0  0  0
  3  2  2  0  0  0  0
  3  7  1  0  0  0  0
  4  3  1  0  0  0  0
  5  4  2  0  0  0  0
  5  1  1  0  0  0  0
  6 19  1  0  0  0  0
  6 20  1  0  0  0  0
  6 21  1  0  0  0  0
  7 22  1  0  0  0  0
  7 24  1  0  0  0  0
  8 27  1  0  0  0  0
  8  4  1  0  0  0  0
  9  5  1  0  0  0  0
 10 18  1  0  0  0  0
 11 32  1  0  0  0  0
 11 31  1  0  0  0  0
 11 10  1  0  0  0  0
 12 10  1  0  0  0  0
 13 12  1  0  0  0  0
 13 35  1  0  0  0  0
 14 13  1  0  0  0  0
 14 15  1  0  0  0  0
 15 16  1  0  0  0  0
 16 38  1  0  0  0  0
 16 39  1  0  0  0  0
 16 40  1  0  0  0  0
 17 41  1  0  0  0  0
 17 15  1  0  0  0  0
 17 42  1  0  0  0  0
 18 44  1  0  0  0  0
 18 45  1  0  0  0  0
 23  7  1  0  0  0  0
 25  8  1  0  0  0  0
 26  8  1  0  0  0  0
 28  9  1  0  0  0  0
 29  9  1  0  0  0  0
 30  9  1  0  0  0  0
 33 11  1  0  0  0  0
 34 13  1  0  0  0  0
 36 14  1  0  0  0  0
 37 14  1  0  0  0  0
 43 17  1  0  0  0  0
 46 18  1  0  0  0  0
M  END
