1,10
 OpenBabel05122313053D

 48 50  0  0  0  0  0  0  0  0999 V2000
    2.5776   -0.7146    0.1004 N   0  0  0  0  0  2  0  0  0  0  0  0
   -3.3461   -2.6532   -0.2184 O   0  0  0  0  0  0  0  0  0  0  0  0
   -8.1107   -1.4497    0.3474 C   0  0  0  0  0  0  0  0  0  0  0  0
   -8.3257   -1.9877   -0.6020 H   0  0  0  0  0  0  0  0  0  0  0  0
   -8.2110   -2.2114    1.1538 H   0  0  0  0  0  0  0  0  0  0  0  0
   -6.6631   -0.9482    0.3106 C   0  0  0  0  0  0  0  0  0  0  0  0
   -6.5680   -0.1683   -0.4794 H   0  0  0  0  0  0  0  0  0  0  0  0
   -6.4157   -0.4384    1.2677 H   0  0  0  0  0  0  0  0  0  0  0  0
    0.7874   -2.1957   -0.4071 C   0  0  0  0  0  0  0  0  0  0  0  0
   -0.0053   -1.0181   -0.2676 C   0  0  0  0  0  2  0  0  0  0  0  0
   -1.4026   -1.1689   -0.1595 C   0  0  0  0  0  0  0  0  0  0  0  0
   -2.0308   -0.2986    0.0665 H   0  0  0  0  0  0  0  0  0  0  0  0
    4.5158   -2.8064   -0.0820 C   0  0  0  0  0  0  0  0  0  0  0  0
    3.9057   -0.4467    0.4044 C   0  0  0  0  0  0  0  0  0  0  0  0
    2.2135   -1.9847   -0.2334 C   0  0  0  0  0  0  0  0  0  0  0  0
    4.9076   -1.4846    0.3221 C   0  0  0  0  0  0  0  0  0  0  0  0
   -5.6446   -2.0619    0.0568 C   0  0  0  0  0  0  0  0  0  0  0  0
   -5.7256   -2.8422    0.8438 H   0  0  0  0  0  0  0  0  0  0  0  0
   -5.8611   -2.5704   -0.9075 H   0  0  0  0  0  0  0  0  0  0  0  0
    4.3057    0.8531    0.8167 C   0  0  0  0  0  0  0  0  0  0  0  0
    3.5597    1.6593    0.8637 H   0  0  0  0  0  0  0  0  0  0  0  0
    0.1728   -3.4592   -0.5670 C   0  0  0  0  0  0  0  0  0  0  0  0
    0.7837   -4.3654   -0.6970 H   0  0  0  0  0  0  0  0  0  0  0  0
    3.1756   -3.0240   -0.3390 C   0  0  0  0  0  0  0  0  0  0  0  0
    2.8317   -4.0239   -0.6365 H   0  0  0  0  0  0  0  0  0  0  0  0
    6.2559   -1.1701    0.6486 C   0  0  0  0  0  0  0  0  0  0  0  0
    7.0173   -1.9597    0.5832 H   0  0  0  0  0  0  0  0  0  0  0  0
    5.5195   -3.9172   -0.2104 C   0  0  0  0  0  0  0  0  0  0  0  0
    5.0368   -4.8569   -0.5378 H   0  0  0  0  0  0  0  0  0  0  0  0
    6.0314   -4.1120    0.7550 H   0  0  0  0  0  0  0  0  0  0  0  0
    6.3116   -3.6623   -0.9447 H   0  0  0  0  0  0  0  0  0  0  0  0
   -4.2136   -1.5501    0.0267 C   0  0  0  0  0  0  0  0  0  0  0  0
   -4.0889   -0.7805   -0.7721 H   0  0  0  0  0  0  0  0  0  0  0  0
   -3.9496   -1.0622    0.9942 H   0  0  0  0  0  0  0  0  0  0  0  0
   -2.0078   -2.4374   -0.2995 C   0  0  0  0  0  0  0  0  0  0  0  0
    5.6327    1.1172    1.1327 C   0  0  0  0  0  0  0  0  0  0  0  0
    5.9110    2.1340    1.4490 H   0  0  0  0  0  0  0  0  0  0  0  0
    6.6198    0.1077    1.0500 C   0  0  0  0  0  0  0  0  0  0  0  0
    7.6673    0.3319    1.3013 H   0  0  0  0  0  0  0  0  0  0  0  0
   -1.2127   -3.5844   -0.5356 C   0  0  0  0  0  0  0  0  0  0  0  0
   -1.7115   -4.5562   -0.6537 H   0  0  0  0  0  0  0  0  0  0  0  0
   -9.1644   -0.3523    0.5523 C   0  0  0  0  0  0  0  0  0  0  0  0
   -9.0746    0.3954   -0.2677 H   0  0  0  0  0  0  0  0  0  0  0  0
  -10.1729   -0.8040    0.4351 H   0  0  0  0  0  0  0  0  0  0  0  0
   -9.0881    0.3593    1.9054 C   0  0  0  0  0  0  0  0  0  0  0  0
   -9.1760   -0.3631    2.7442 H   0  0  0  0  0  0  0  0  0  0  0  0
   -9.9036    1.1016    2.0188 H   0  0  0  0  0  0  0  0  0  0  0  0
   -8.1308    0.9039    2.0382 H   0  0  0  0  0  0  0  0  0  0  0  0
  1 14  1  0  0  0  0
  2 32  1  0  0  0  0
  3 42  1  0  0  0  0
  3  5  1  0  0  0  0
  4  3  1  0  0  0  0
  6  3  1  0  0  0  0
  6  8  1  0  0  0  0
  7  6  1  0  0  0  0
  9 10  1  0  0  0  0
  9 15  2  0  0  0  0
 10 11  1  0  0  0  0
 11 12  1  0  0  0  0
 13 16  1  0  0  0  0
 14 20  1  0  0  0  0
 15  1  1  0  0  0  0
 16 14  2  0  0  0  0
 16 26  1  0  0  0  0
 17  6  1  0  0  0  0
 17 18  1  0  0  0  0
 19 17  1  0  0  0  0
 20 21  1  0  0  0  0
 20 36  2  0  0  0  0
 22 40  2  0  0  0  0
 22  9  1  0  0  0  0
 23 22  1  0  0  0  0
 24 15  1  0  0  0  0
 24 13  2  0  0  0  0
 25 24  1  0  0  0  0
 26 38  2  0  0  0  0
 27 26  1  0  0  0  0
 28 13  1  0  0  0  0
 28 30  1  0  0  0  0
 29 28  1  0  0  0  0
 31 28  1  0  0  0  0
 32 17  1  0  0  0  0
 32 34  1  0  0  0  0
 33 32  1  0  0  0  0
 35  2  1  0  0  0  0
 35 11  2  0  0  0  0
 36 37  1  0  0  0  0
 38 36  1  0  0  0  0
 38 39  1  0  0  0  0
 40 35  1  0  0  0  0
 41 40  1  0  0  0  0
 42 45  1  0  0  0  0
 43 42  1  0  0  0  0
 44 42  1  0  0  0  0
 45 47  1  0  0  0  0
 45 48  1  0  0  0  0
 45 46  1  0  0  0  0
M  END
