1,27
 OpenBabel05122313053D

 27 29  0  0  0  0  0  0  0  0999 V2000
   -2.7768   -0.0401   -0.3452 N   0  0  0  0  0  2  0  0  0  0  0  0
   -3.2395    0.9855   -1.0875 N   0  0  0  0  0  0  0  0  0  0  0  0
   -4.5918    1.0156   -1.1635 C   0  0  0  0  0  0  0  0  0  0  0  0
   -5.1080    1.7937   -1.7347 H   0  0  0  0  0  0  0  0  0  0  0  0
   -6.3458   -0.6113   -0.0963 C   0  0  0  0  0  3  0  0  0  0  0  0
   -7.2629   -0.1333   -0.4710 H   0  0  0  0  0  0  0  0  0  0  0  0
   -6.3990   -1.7457    0.7018 C   0  0  0  0  0  0  0  0  0  0  0  0
   -7.3756   -2.1782    0.9666 H   0  0  0  0  0  0  0  0  0  0  0  0
   -5.2103   -2.3734    1.1876 C   0  0  0  0  0  0  0  0  0  0  0  0
   -5.3049   -3.2768    1.8090 H   0  0  0  0  0  0  0  0  0  0  0  0
   -3.9445   -1.8850    0.8927 C   0  0  0  0  0  0  0  0  0  0  0  0
   -3.0183   -2.3736    1.2248 H   0  0  0  0  0  0  0  0  0  0  0  0
   -3.8745   -0.7230    0.0841 C   0  0  0  0  0  0  0  0  0  0  0  0
   -5.0665   -0.0819   -0.4159 C   0  0  0  0  0  0  0  0  0  0  0  0
   -2.2787    1.9507   -1.6349 C   0  0  0  0  0  0  0  0  0  0  0  0
   -2.8577    2.6907   -2.2179 H   0  0  0  0  0  0  0  0  0  0  0  0
   -1.6110    1.3905   -2.3238 H   0  0  0  0  0  0  0  0  0  0  0  0
   -1.5010    2.5910   -0.5064 C   0  0  0  0  0  0  0  0  0  0  0  0
   -1.6029    3.9726   -0.2553 C   0  0  0  0  0  0  0  0  0  0  0  0
   -2.1882    4.6099   -0.9390 H   0  0  0  0  0  0  0  0  0  0  0  0
   -0.9741    4.5366    0.8647 C   0  0  0  0  0  0  0  0  0  0  0  0
   -1.0482    5.6181    1.0541 H   0  0  0  0  0  0  0  0  0  0  0  0
   -0.2754    3.7038    1.7525 C   0  0  0  0  0  0  0  0  0  0  0  0
    0.1993    4.1283    2.6509 H   0  0  0  0  0  0  0  0  0  0  0  0
   -0.1651    2.3275    1.4949 C   0  0  0  0  0  0  0  0  0  0  0  0
    0.4056    1.7005    2.1964 H   0  0  0  0  0  0  0  0  0  0  0  0
   -0.7460    1.7514    0.3472 C   0  0  0  0  0  3  0  0  0  0  0  0
  1 13  1  0  0  0  0
  2  1  1  0  0  0  0
  3  2  1  0  0  0  0
  3 14  2  0  0  0  0
  4  3  1  0  0  0  0
  5  7  1  0  0  0  0
  6  5  1  0  0  0  0
  7  8  1  0  0  0  0
  7  9  2  0  0  0  0
  9 10  1  0  0  0  0
 11  9  1  0  0  0  0
 11 12  1  0  0  0  0
 13 11  2  0  0  0  0
 14  5  1  0  0  0  0
 14 13  1  0  0  0  0
 15  2  1  0  0  0  0
 15 18  1  0  0  0  0
 16 15  1  0  0  0  0
 17 15  1  0  0  0  0
 18 19  2  0  0  0  0
 18 27  1  0  0  0  0
 19 21  1  0  0  0  0
 20 19  1  0  0  0  0
 21 22  1  0  0  0  0
 21 23  2  0  0  0  0
 23 24  1  0  0  0  0
 25 23  1  0  0  0  0
 25 26  1  0  0  0  0
 27 25  2  0  0  0  0
M  END
