1,2
 OpenBabel05122313053D

 49 51  0  0  1  0  0  0  0  0999 V2000
    0.7004    0.3461   -0.8538 N   0  0  0  0  0  2  0  0  0  0  0  0
   -1.9069    0.6050    0.1499 C   0  0  2  0  0  3  0  0  0  0  0  0
   -2.3411   -0.2626   -0.9115 C   0  0  0  0  0  0  0  0  0  0  0  0
   -2.6170   -1.5477   -0.3387 C   0  0  0  0  0  0  0  0  0  0  0  0
   -2.3516   -1.4778    1.0685 C   0  0  0  0  0  0  0  0  0  0  0  0
   -1.9167   -0.1467    1.3758 C   0  0  0  0  0  0  0  0  0  0  0  0
   -2.5623    0.0988   -2.3499 C   0  0  0  0  0  0  0  0  0  0  0  0
   -1.8270   -0.3979   -3.0177 H   0  0  0  0  0  0  0  0  0  0  0  0
   -2.4994    1.1921   -2.5049 H   0  0  0  0  0  0  0  0  0  0  0  0
   -3.5691   -0.2298   -2.6802 H   0  0  0  0  0  0  0  0  0  0  0  0
   -3.2035   -2.7127   -1.0722 C   0  0  0  0  0  0  0  0  0  0  0  0
   -4.3124   -2.6330   -1.0914 H   0  0  0  0  0  0  0  0  0  0  0  0
   -2.9425   -3.6736   -0.5903 H   0  0  0  0  0  0  0  0  0  0  0  0
   -2.8405   -2.7597   -2.1156 H   0  0  0  0  0  0  0  0  0  0  0  0
   -2.5257   -2.5921    2.0531 C   0  0  0  0  0  0  0  0  0  0  0  0
   -1.7987   -2.5129    2.8831 H   0  0  0  0  0  0  0  0  0  0  0  0
   -2.3855   -3.5819    1.5777 H   0  0  0  0  0  0  0  0  0  0  0  0
   -3.5485   -2.5724    2.4879 H   0  0  0  0  0  0  0  0  0  0  0  0
   -1.5615    0.3776    2.7331 C   0  0  0  0  0  0  0  0  0  0  0  0
   -2.4761    0.6541    3.3004 H   0  0  0  0  0  0  0  0  0  0  0  0
   -0.9272    1.2813    2.6595 H   0  0  0  0  0  0  0  0  0  0  0  0
   -1.0099   -0.3800    3.3221 H   0  0  0  0  0  0  0  0  0  0  0  0
   -1.5945    2.0467    0.0430 C   0  0  0  0  0  0  0  0  0  0  0  0
   -2.3549    2.9720    0.7904 C   0  0  0  0  0  0  0  0  0  0  0  0
   -3.1687    2.5969    1.4290 H   0  0  0  0  0  0  0  0  0  0  0  0
   -2.0981    4.3474    0.7159 C   0  0  0  0  0  0  0  0  0  0  0  0
   -2.7050    5.0523    1.3039 H   0  0  0  0  0  0  0  0  0  0  0  0
   -1.0660    4.8181   -0.1100 C   0  0  0  0  0  0  0  0  0  0  0  0
   -0.8513    5.8957   -0.1719 H   0  0  0  0  0  0  0  0  0  0  0  0
   -0.2983    3.9070   -0.8492 C   0  0  0  0  0  0  0  0  0  0  0  0
    0.5242    4.2721   -1.4848 H   0  0  0  0  0  0  0  0  0  0  0  0
   -0.5484    2.5238   -0.7844 C   0  0  0  0  0  0  0  0  0  0  0  0
    0.3001    1.5552   -1.5774 C   0  0  0  0  0  0  0  0  0  0  0  0
   -0.2482    1.2442   -2.4943 H   0  0  0  0  0  0  0  0  0  0  0  0
    1.2079    2.0812   -1.9372 H   0  0  0  0  0  0  0  0  0  0  0  0
    2.0840    0.2604   -0.5267 C   0  0  0  0  0  0  0  0  0  0  0  0
    2.8537   -0.8563   -0.9130 C   0  0  0  0  0  0  0  0  0  0  0  0
    2.3746   -1.6550   -1.4970 H   0  0  0  0  0  0  0  0  0  0  0  0
    4.2053   -0.9431   -0.5498 C   0  0  0  0  0  0  0  0  0  0  0  0
    4.7858   -1.8282   -0.8551 H   0  0  0  0  0  0  0  0  0  0  0  0
    4.8382    0.0773    0.1832 C   0  0  0  0  0  0  0  0  0  0  0  0
    4.0638    1.2035    0.5456 C   0  0  0  0  0  0  0  0  0  0  0  0
    4.5326    2.0185    1.1205 H   0  0  0  0  0  0  0  0  0  0  0  0
    2.7125    1.2968    0.2073 C   0  0  0  0  0  0  0  0  0  0  0  0
    2.1188    2.1684    0.5223 H   0  0  0  0  0  0  0  0  0  0  0  0
    6.2886   -0.0189    0.5826 C   0  0  0  0  0  0  0  0  0  0  0  0
    6.8596    0.8772    0.2620 H   0  0  0  0  0  0  0  0  0  0  0  0
    6.7755   -0.9097    0.1410 H   0  0  0  0  0  0  0  0  0  0  0  0
    6.3973   -0.0891    1.6859 H   0  0  0  0  0  0  0  0  0  0  0  0
  1 36  1  0  0  0  0
  2 23  1  1  0  0  0
  2  6  1  0  0  0  0
  3  4  2  0  0  0  0
  3  2  1  0  0  0  0
  4  5  1  0  0  0  0
  5  6  2  0  0  0  0
  5 15  1  0  0  0  0
  6 19  1  0  0  0  0
  7  3  1  0  0  0  0
  8  7  1  0  0  0  0
  9  7  1  0  0  0  0
 10  7  1  0  0  0  0
 11 13  1  0  0  0  0
 11  4  1  0  0  0  0
 12 11  1  0  0  0  0
 14 11  1  0  0  0  0
 15 18  1  0  0  0  0
 15 16  1  0  0  0  0
 17 15  1  0  0  0  0
 19 20  1  0  0  0  0
 19 22  1  0  0  0  0
 21 19  1  0  0  0  0
 23 24  1  0  0  0  0
 24 25  1  0  0  0  0
 26 24  2  0  0  0  0
 26 27  1  0  0  0  0
 28 26  1  0  0  0  0
 29 28  1  0  0  0  0
 30 32  1  0  0  0  0
 30 28  2  0  0  0  0
 31 30  1  0  0  0  0
 32 23  2  0  0  0  0
 33  1  1  0  0  0  0
 33 32  1  0  0  0  0
 34 33  1  0  0  0  0
 35 33  1  0  0  0  0
 36 44  1  0  0  0  0
 37 39  1  0  0  0  0
 37 36  2  0  0  0  0
 38 37  1  0  0  0  0
 39 41  2  0  0  0  0
 40 39  1  0  0  0  0
 41 42  1  0  0  0  0
 41 46  1  0  0  0  0
 42 43  1  0  0  0  0
 44 45  1  0  0  0  0
 44 42  2  0  0  0  0
 46 49  1  0  0  0  0
 47 46  1  0  0  0  0
 48 46  1  0  0  0  0
M  END
