1,12
 OpenBabel05122313053D

 13 13  0  0  0  0  0  0  0  0999 V2000
    1.7953    0.0005    0.1194 N   0  0  0  0  0  2  0  0  0  0  0  0
    4.6834    0.0009    0.1392 N   0  0  0  0  0  0  0  0  0  0  0  0
    2.5442   -0.0007    1.2619 C   0  0  0  0  0  3  0  0  0  0  0  0
    2.0089   -0.0019    2.2189 H   0  0  0  0  0  0  0  0  0  0  0  0
    3.9356   -0.0005    1.2699 C   0  0  0  0  0  0  0  0  0  0  0  0
    4.4720   -0.0015    2.2347 H   0  0  0  0  0  0  0  0  0  0  0  0
    3.9760    0.0021   -0.9912 C   0  0  0  0  0  0  0  0  0  0  0  0
    4.5375    0.0033   -1.9438 H   0  0  0  0  0  0  0  0  0  0  0  0
    2.5624    0.0019   -1.0512 C   0  0  0  0  0  0  0  0  0  0  0  0
    1.7750    0.0031   -2.2406 C   0  0  0  0  0  0  0  0  0  0  0  0
    2.2535    0.0044   -3.2345 H   0  0  0  0  0  0  0  0  0  0  0  0
    0.4159    0.0026   -2.0213 C   0  0  0  0  0  3  0  0  0  0  0  0
   -0.2439    0.0035   -2.9080 H   0  0  0  0  0  0  0  0  0  0  0  0
  1  3  1  0  0  0  0
  2  5  2  0  0  0  0
  3  5  1  0  0  0  0
  3  4  1  0  0  0  0
  5  6  1  0  0  0  0
  7  2  1  0  0  0  0
  8  7  1  0  0  0  0
  9  7  2  0  0  0  0
  9  1  1  0  0  0  0
 10 12  2  0  0  0  0
 10  9  1  0  0  0  0
 11 10  1  0  0  0  0
 13 12  1  0  0  0  0
M  END
