1,23
 OpenBabel05122313053D

 32 34  0  0  1  0  0  0  0  0999 V2000
    0.1549    1.2589    0.1985 C   0  0  0  0  0  2  0  0  0  0  0  0
   -0.9709    2.0244    0.1189 N   0  0  0  0  0  0  0  0  0  0  0  0
    1.1874    2.1721    0.0334 N   0  0  0  0  0  0  0  0  0  0  0  0
    0.7047    3.4719   -0.1284 C   0  0  0  0  0  0  0  0  0  0  0  0
    1.3483    4.3416   -0.2788 H   0  0  0  0  0  0  0  0  0  0  0  0
   -0.6562    3.3736   -0.0732 C   0  0  0  0  0  0  0  0  0  0  0  0
   -1.4345    4.1346   -0.1783 H   0  0  0  0  0  0  0  0  0  0  0  0
   -2.3091    1.5118    0.1175 C   0  0  0  0  0  0  0  0  0  0  0  0
   -2.6834    0.5777   -0.8578 C   0  0  0  0  0  0  0  0  0  0  0  0
   -1.9368    0.2355   -1.5939 H   0  0  0  0  0  0  0  0  0  0  0  0
   -3.9854    0.0621   -0.8634 C   0  0  0  0  0  0  0  0  0  0  0  0
   -4.2533   -0.6871   -1.6191 H   0  0  0  0  0  0  0  0  0  0  0  0
   -4.9206    0.4957    0.1001 C   0  0  0  0  0  0  0  0  0  0  0  0
   -4.5368    1.4554    1.0653 C   0  0  0  0  0  0  0  0  0  0  0  0
   -5.2797    1.7728    1.8105 H   0  0  0  0  0  0  0  0  0  0  0  0
   -3.2354    1.9569    1.0784 C   0  0  0  0  0  0  0  0  0  0  0  0
   -2.9260    2.6797    1.8480 H   0  0  0  0  0  0  0  0  0  0  0  0
   -6.1999    0.0518    0.1829 O   0  0  0  0  0  0  0  0  0  0  0  0
   -6.6231   -0.9560   -0.7198 C   0  0  0  0  0  0  0  0  0  0  0  0
   -6.5800   -0.6095   -1.7766 H   0  0  0  0  0  0  0  0  0  0  0  0
   -7.6725   -1.1864   -0.4597 H   0  0  0  0  0  0  0  0  0  0  0  0
   -6.0114   -1.8799   -0.6203 H   0  0  0  0  0  0  0  0  0  0  0  0
    2.6253    0.3630    0.1198 N   0  0  0  0  0  2  0  0  0  0  0  0
    2.5076    1.7076   -0.0234 C   0  0  1  0  0  3  0  0  0  0  0  0
    3.6110    2.5520   -0.2190 C   0  0  0  0  0  0  0  0  0  0  0  0
    3.4744    3.6355   -0.3280 H   0  0  0  0  0  0  0  0  0  0  0  0
    4.8839    1.9771   -0.2782 C   0  0  0  0  0  0  0  0  0  0  0  0
    5.7679    2.6123   -0.4339 H   0  0  0  0  0  0  0  0  0  0  0  0
    5.0128    0.5856   -0.1414 C   0  0  0  0  0  0  0  0  0  0  0  0
    5.9929    0.0920   -0.1882 H   0  0  0  0  0  0  0  0  0  0  0  0
    3.8624   -0.1804    0.0547 C   0  0  0  0  0  0  0  0  0  0  0  0
    3.9098   -1.2728    0.1633 H   0  0  0  0  0  0  0  0  0  0  0  0
  2  1  1  0  0  0  0
  3  1  1  0  0  0  0
  4  6  2  0  0  0  0
  4  3  1  0  0  0  0
  5  4  1  0  0  0  0
  6  2  1  0  0  0  0
  7  6  1  0  0  0  0
  8  2  1  0  0  0  0
  8 16  1  0  0  0  0
  9  8  2  0  0  0  0
 10  9  1  0  0  0  0
 11  9  1  0  0  0  0
 11 13  2  0  0  0  0
 12 11  1  0  0  0  0
 13 18  1  0  0  0  0
 13 14  1  0  0  0  0
 14 16  2  0  0  0  0
 14 15  1  0  0  0  0
 16 17  1  0  0  0  0
 19 22  1  0  0  0  0
 19 21  1  0  0  0  0
 19 18  1  0  0  0  0
 20 19  1  0  0  0  0
 24  3  1  6  0  0  0
 24 23  1  0  0  0  0
 25 24  1  0  0  0  0
 26 25  1  0  0  0  0
 27 25  2  0  0  0  0
 27 29  1  0  0  0  0
 28 27  1  0  0  0  0
 29 31  2  0  0  0  0
 30 29  1  0  0  0  0
 31 23  1  0  0  0  0
 31 32  1  0  0  0  0
M  END
