1,3
 OpenBabel05122313053D

 29 28  0  0  0  0  0  0  0  0999 V2000
    1.9891    1.1596    0.0563 N   0  0  0  0  0  2  0  0  0  0  0  0
    2.9909    0.9402    0.1391 H   0  0  0  0  0  0  0  0  0  0  0  0
   -1.5457    0.1165    0.0478 C   0  0  0  0  0  3  0  0  0  0  0  0
   -0.8570    1.2348    0.1854 C   0  0  0  0  0  0  0  0  0  0  0  0
   -0.6031    2.6017    0.3040 C   0  0  0  0  0  0  0  0  0  0  0  0
    0.5909    3.1365   -0.2178 C   0  0  0  0  0  0  0  0  0  0  0  0
    0.6562    4.2289   -0.3461 H   0  0  0  0  0  0  0  0  0  0  0  0
    1.8179    2.4261   -0.3442 C   0  0  0  0  0  0  0  0  0  0  0  0
   -1.5530    3.4891    1.0815 C   0  0  0  0  0  0  0  0  0  0  0  0
   -2.5814    3.4454    0.6657 H   0  0  0  0  0  0  0  0  0  0  0  0
   -1.2149    4.5438    1.0960 H   0  0  0  0  0  0  0  0  0  0  0  0
   -1.6235    3.1431    2.1345 H   0  0  0  0  0  0  0  0  0  0  0  0
    3.0305    3.1859   -0.8390 C   0  0  0  0  0  0  0  0  0  0  0  0
    3.2516    2.9102   -1.8927 H   0  0  0  0  0  0  0  0  0  0  0  0
    3.9307    2.9286   -0.2412 H   0  0  0  0  0  0  0  0  0  0  0  0
    2.8857    4.2821   -0.8027 H   0  0  0  0  0  0  0  0  0  0  0  0
   -3.0113   -0.1462   -0.2688 C   0  0  0  0  0  0  0  0  0  0  0  0
   -3.2735   -1.6163   -0.6427 C   0  0  0  0  0  0  0  0  0  0  0  0
   -4.3628   -1.8142   -0.7193 H   0  0  0  0  0  0  0  0  0  0  0  0
   -2.8504   -2.2965    0.1240 H   0  0  0  0  0  0  0  0  0  0  0  0
   -2.8190   -1.8819   -1.6164 H   0  0  0  0  0  0  0  0  0  0  0  0
   -3.7867    0.1726    1.0334 C   0  0  0  0  0  0  0  0  0  0  0  0
   -3.6401    1.2288    1.3334 H   0  0  0  0  0  0  0  0  0  0  0  0
   -3.4409   -0.4678    1.8700 H   0  0  0  0  0  0  0  0  0  0  0  0
   -4.8737   -0.0057    0.8912 H   0  0  0  0  0  0  0  0  0  0  0  0
   -3.5076    0.7851   -1.3923 C   0  0  0  0  0  0  0  0  0  0  0  0
   -3.3454    1.8482   -1.1246 H   0  0  0  0  0  0  0  0  0  0  0  0
   -4.5911    0.6346   -1.5834 H   0  0  0  0  0  0  0  0  0  0  0  0
   -2.9660    0.5951   -2.3412 H   0  0  0  0  0  0  0  0  0  0  0  0
  1  2  1  0  0  0  0
  3  4  2  0  0  0  0
  4  5  2  0  0  0  0
  5  9  1  0  0  0  0
  6  5  1  0  0  0  0
  7  6  1  0  0  0  0
  8  6  2  0  0  0  0
  8  1  1  0  0  0  0
  9 11  1  0  0  0  0
  9 12  1  0  0  0  0
 10  9  1  0  0  0  0
 13 16  1  0  0  0  0
 13  8  1  0  0  0  0
 13 15  1  0  0  0  0
 14 13  1  0  0  0  0
 17  3  1  0  0  0  0
 17 22  1  0  0  0  0
 18 17  1  0  0  0  0
 18 20  1  0  0  0  0
 19 18  1  0  0  0  0
 21 18  1  0  0  0  0
 22 23  1  0  0  0  0
 22 24  1  0  0  0  0
 25 22  1  0  0  0  0
 26 27  1  0  0  0  0
 26 17  1  0  0  0  0
 28 26  1  0  0  0  0
 29 26  1  0  0  0  0
M  END
