3,8
 OpenBabel05122313053D

 20 22  0  0  1  0  0  0  0  0999 V2000
   -4.1816   -1.8438   -0.6129 S   0  0  0  0  0  0  0  0  0  0  0  0
   -1.4703   -4.2835   -0.9569 S   0  0  0  0  0  0  0  0  0  0  0  0
   -2.0833   -0.3639   -0.1293 N   0  0  0  0  0  2  0  0  0  0  0  0
    0.2563   -4.3697   -0.7950 C   0  0  0  0  0  0  0  0  0  0  0  0
    0.7532   -5.3365   -0.9490 H   0  0  0  0  0  0  0  0  0  0  0  0
    0.8391   -3.1520   -0.4788 C   0  0  0  0  0  0  0  0  0  0  0  0
    1.9231   -3.0307   -0.3460 H   0  0  0  0  0  0  0  0  0  0  0  0
   -0.1117   -2.0924   -0.3572 C   0  0  0  0  0  3  0  0  0  0  0  0
   -1.4162   -2.5765   -0.5910 C   0  0  0  0  0  0  0  0  0  0  0  0
   -2.4557   -1.6214   -0.4589 C   0  0  1  0  0  3  0  0  0  0  0  0
   -3.1700    0.4800    0.0484 C   0  0  0  0  0  0  0  0  0  0  0  0
   -4.4257   -0.1562   -0.1838 C   0  0  0  0  0  0  0  0  0  0  0  0
   -5.6396    0.5317   -0.0573 C   0  0  0  0  0  0  0  0  0  0  0  0
   -6.5966    0.0242   -0.2461 H   0  0  0  0  0  0  0  0  0  0  0  0
   -5.5998    1.8815    0.3195 C   0  0  0  0  0  0  0  0  0  0  0  0
   -6.5399    2.4427    0.4242 H   0  0  0  0  0  0  0  0  0  0  0  0
   -4.3669    2.5193    0.5677 C   0  0  0  0  0  0  0  0  0  0  0  0
   -4.3542    3.5771    0.8696 H   0  0  0  0  0  0  0  0  0  0  0  0
   -3.1536    1.8352    0.4370 C   0  0  0  0  0  0  0  0  0  0  0  0
   -2.1998    2.3336    0.6373 H   0  0  0  0  0  0  0  0  0  0  0  0
  1 10  1  0  0  0  0
  1 12  1  0  0  0  0
  2  4  1  0  0  0  0
  2  9  1  0  0  0  0
  3 11  1  0  0  0  0
  4  6  2  0  0  0  0
  5  4  1  0  0  0  0
  6  8  1  0  0  0  0
  6  7  1  0  0  0  0
  9  8  2  0  0  0  0
 10  9  1  1  0  0  0
 10  3  1  0  0  0  0
 11 19  1  0  0  0  0
 12 13  1  0  0  0  0
 12 11  2  0  0  0  0
 13 15  2  0  0  0  0
 14 13  1  0  0  0  0
 15 16  1  0  0  0  0
 15 17  1  0  0  0  0
 17 18  1  0  0  0  0
 19 17  2  0  0  0  0
 19 20  1  0  0  0  0
M  END
