3
 OpenBabel05122313063D

  6  6  0  0  0  0  0  0  0  0999 V2000
   -0.4711   -3.2466    1.7397 B   0  0  0  0  0  0  0  0  0  0  0  0
   -0.0994   -3.5527    2.8519 H   0  0  0  0  0  0  0  0  0  0  0  0
    0.6678   -2.6551    0.4979 B   0  0  0  0  0  0  0  0  0  0  0  0
   -0.6134   -1.5385    1.2590 B   0  0  0  0  0  0  0  0  0  0  0  0
   -0.4888   -0.6326    2.0513 H   0  0  0  0  0  0  0  0  0  0  0  0
    1.8434   -2.6422    0.7942 H   0  0  0  0  0  0  0  0  0  0  0  0
  1  2  1  0  0  0  0
  3  6  1  0  0  0  0
  3  4  1  0  0  0  0
  3  1  1  0  0  0  0
  4  1  1  0  0  0  0
  4  5  1  0  0  0  0
M  END
