8
 OpenBabel05122313063D

 40 46  0  0  1  0  0  0  0  0999 V2000
    0.4439    1.4307    1.5220 C   0  0  2  0  0  0  0  0  0  0  0  0
    0.5909    1.6804   -0.1442 B   0  0  0  0  0  2  0  0  0  0  0  0
    0.1784    2.6918   -0.6493 H   0  0  0  0  0  0  0  0  0  0  0  0
    1.8678    2.1343    1.0839 B   0  0  1  0  0  0  0  0  0  0  0  0
    2.1188    3.2958    1.2742 H   0  0  0  0  0  0  0  0  0  0  0  0
    1.8167    0.8303    2.2560 B   0  0  2  0  0  0  0  0  0  0  0  0
    1.9923    1.0062    3.4362 H   0  0  0  0  0  0  0  0  0  0  0  0
    0.5150   -0.2612    1.6098 B   0  0  0  0  0  2  0  0  0  0  0  0
   -0.0872   -0.8432    2.4854 H   0  0  0  0  0  0  0  0  0  0  0  0
    1.2382    0.2547   -1.1334 B   0  0  2  0  0  0  0  0  0  0  0  0
    1.2911    0.2585   -2.3403 H   0  0  0  0  0  0  0  0  0  0  0  0
    2.2892    1.4120   -0.4303 C   0  0  2  0  0  0  0  0  0  0  0  0
    3.0844    0.8602    1.0289 B   0  0  1  0  0  0  0  0  0  0  0  0
    4.2361    1.1172    1.2578 H   0  0  0  0  0  0  0  0  0  0  0  0
    2.2458   -0.6798    1.4027 B   0  0  0  0  0  0  0  0  0  0  0  0
    1.1780   -1.0962    0.0548 B   0  0  2  0  0  0  0  0  0  0  0  0
    1.1361   -2.2788   -0.1970 H   0  0  0  0  0  0  0  0  0  0  0  0
    2.6981   -0.2683   -0.2760 B   0  0  2  0  0  0  0  0  0  0  0  0
   -0.5662    2.2270    2.2889 C   0  0  0  0  0  0  0  0  0  0  0  0
   -0.8845    3.5531    1.9179 C   0  0  0  0  0  0  0  0  0  0  0  0
   -0.3492    4.0204    1.0792 H   0  0  0  0  0  0  0  0  0  0  0  0
   -1.2524    1.6653    3.3875 C   0  0  0  0  0  0  0  0  0  0  0  0
   -1.0012    0.6438    3.7054 H   0  0  0  0  0  0  0  0  0  0  0  0
   -1.8702    4.2787    2.6027 C   0  0  0  0  0  0  0  0  0  0  0  0
   -2.0982    5.3097    2.2912 H   0  0  0  0  0  0  0  0  0  0  0  0
   -2.5594    3.7004    3.6811 C   0  0  0  0  0  0  0  0  0  0  0  0
   -3.3309    4.2708    4.2202 H   0  0  0  0  0  0  0  0  0  0  0  0
   -2.2370    2.3908    4.0729 C   0  0  0  0  0  0  0  0  0  0  0  0
   -2.7553    1.9270    4.9264 H   0  0  0  0  0  0  0  0  0  0  0  0
    3.0331    2.3237   -1.3772 C   0  0  0  0  0  0  0  0  0  0  0  0
    2.3749    2.8819   -2.4916 C   0  0  0  0  0  0  0  0  0  0  0  0
    1.3182    2.6409   -2.6699 H   0  0  0  0  0  0  0  0  0  0  0  0
    3.0521    3.7318   -3.3761 C   0  0  0  0  0  0  0  0  0  0  0  0
    2.5165    4.1563   -4.2390 H   0  0  0  0  0  0  0  0  0  0  0  0
    4.4061    4.0357   -3.1669 C   0  0  0  0  0  0  0  0  0  0  0  0
    4.9406    4.7003   -3.8624 H   0  0  0  0  0  0  0  0  0  0  0  0
    5.0718    3.4804   -2.0646 C   0  0  0  0  0  0  0  0  0  0  0  0
    6.1352    3.7037   -1.8901 H   0  0  0  0  0  0  0  0  0  0  0  0
    4.3922    2.6340   -1.1768 C   0  0  0  0  0  0  0  0  0  0  0  0
    4.9251    2.2019   -0.3202 H   0  0  0  0  0  0  0  0  0  0  0  0
  1  2  1  6  0  0  0
  1  6  1  0  0  0  0
  1 19  1  0  0  0  0
  3  2  1  0  0  0  0
  4  5  1  1  0  0  0
  4  1  1  0  0  0  0
  4  6  1  0  0  0  0
  6  7  1  1  0  0  0
  8  9  1  0  0  0  0
 10 11  1  6  0  0  0
 10 12  1  0  0  0  0
 10 18  1  0  0  0  0
 10 16  1  0  0  0  0
 12 30  1  6  0  0  0
 12 18  1  0  0  0  0
 12  4  1  0  0  0  0
 13 14  1  1  0  0  0
 13 15  1  0  0  0  0
 13  6  1  0  0  0  0
 15  8  1  0  0  0  0
 16 17  1  6  0  0  0
 16 15  1  0  0  0  0
 18 16  1  0  0  0  0
 18 13  1  0  0  0  0
 19 22  1  0  0  0  0
 20 19  2  0  0  0  0
 20 24  1  0  0  0  0
 21 20  1  0  0  0  0
 22 23  1  0  0  0  0
 22 28  2  0  0  0  0
 24 26  2  0  0  0  0
 25 24  1  0  0  0  0
 26 28  1  0  0  0  0
 26 27  1  0  0  0  0
 28 29  1  0  0  0  0
 30 39  1  0  0  0  0
 31 30  2  0  0  0  0
 32 31  1  0  0  0  0
 33 35  2  0  0  0  0
 33 31  1  0  0  0  0
 34 33  1  0  0  0  0
 35 37  1  0  0  0  0
 36 35  1  0  0  0  0
 37 38  1  0  0  0  0
 37 39  2  0  0  0  0
 39 40  1  0  0  0  0
M  END
