6
 OpenBabel05122313063D

 33 37  0  0  1  0  0  0  0  0999 V2000
    0.5074   -1.5050    1.4457 C   0  0  2  0  0  0  0  0  0  0  0  0
    2.6936   -1.0782   -0.0665 C   0  0  1  0  0  0  0  0  0  0  0  0
    1.3970   -0.2517    0.7300 B   0  0  0  0  0  0  0  0  0  0  0  0
    2.1849   -1.6851    1.4450 B   0  0  2  0  0  0  0  0  0  0  0  0
    1.1413   -3.0463    1.1080 B   0  0  2  0  0  0  0  0  0  0  0  0
    1.4637   -0.4466   -1.1114 B   0  0  0  0  0  0  0  0  0  0  0  0
    2.6126   -2.8011    0.1494 B   0  0  1  0  0  0  0  0  0  0  0  0
    1.1025   -3.2828   -0.6513 B   0  0  0  0  0  0  0  0  0  0  0  0
    0.3891   -1.8627   -1.4680 B   0  0  0  0  0  0  0  0  0  0  0  0
    2.1492   -2.0548   -1.3850 B   0  0  2  0  0  0  0  0  0  0  0  0
   -0.1085   -1.3650    2.8349 C   0  0  0  0  0  0  0  0  0  0  0  0
    4.0401   -0.3933   -0.1194 C   0  0  0  0  0  0  0  0  0  0  0  0
    4.8033   -0.3979   -1.3044 C   0  0  0  0  0  0  0  0  0  0  0  0
    6.0418    0.2554   -1.3647 C   0  0  0  0  0  0  0  0  0  0  0  0
    6.5440    0.9321   -0.2424 C   0  0  0  0  0  0  0  0  0  0  0  0
    5.7918    0.9461    0.9416 C   0  0  0  0  0  0  0  0  0  0  0  0
    4.5538    0.2898    1.0024 C   0  0  0  0  0  0  0  0  0  0  0  0
    1.7315    0.7307    1.3503 H   0  0  0  0  0  0  0  0  0  0  0  0
    2.8327   -1.5341    2.4490 H   0  0  0  0  0  0  0  0  0  0  0  0
    0.9851   -3.9138    1.9356 H   0  0  0  0  0  0  0  0  0  0  0  0
    1.8947    0.4243   -1.8312 H   0  0  0  0  0  0  0  0  0  0  0  0
    3.6394   -3.4269    0.2519 H   0  0  0  0  0  0  0  0  0  0  0  0
    0.9855   -4.3979   -1.1079 H   0  0  0  0  0  0  0  0  0  0  0  0
   -0.1318   -2.0927   -2.5389 H   0  0  0  0  0  0  0  0  0  0  0  0
    2.8668   -2.2337   -2.3379 H   0  0  0  0  0  0  0  0  0  0  0  0
   -1.0631   -1.9198    2.8868 H   0  0  0  0  0  0  0  0  0  0  0  0
    0.5561   -1.7796    3.6191 H   0  0  0  0  0  0  0  0  0  0  0  0
   -0.3135   -0.3062    3.0817 H   0  0  0  0  0  0  0  0  0  0  0  0
    4.4143   -0.9208   -2.1880 H   0  0  0  0  0  0  0  0  0  0  0  0
    6.6194    0.2346   -2.3015 H   0  0  0  0  0  0  0  0  0  0  0  0
    7.5168    1.4447   -0.2902 H   0  0  0  0  0  0  0  0  0  0  0  0
    6.1716    1.4701    1.8322 H   0  0  0  0  0  0  0  0  0  0  0  0
    3.9782    0.3048    1.9377 H   0  0  0  0  0  0  0  0  0  0  0  0
  1 11  1  1  0  0  0
  2 12  1  6  0  0  0
  2  3  1  0  0  0  0
  2  4  1  0  0  0  0
  3 18  1  0  0  0  0
  3  1  1  0  0  0  0
  4  1  1  0  0  0  0
  4 19  1  1  0  0  0
  5  4  1  0  0  0  0
  5  1  1  0  0  0  0
  5 20  1  1  0  0  0
  7 22  1  1  0  0  0
  7  5  1  0  0  0  0
  8  7  1  0  0  0  0
  9  6  1  0  0  0  0
  9  8  1  0  0  0  0
 10 25  1  6  0  0  0
 10  6  1  0  0  0  0
 10  2  1  0  0  0  0
 10  7  1  0  0  0  0
 11 26  1  0  0  0  0
 11 28  1  0  0  0  0
 11 27  1  0  0  0  0
 12 17  1  0  0  0  0
 13 12  2  0  0  0  0
 14 13  1  0  0  0  0
 14 15  2  0  0  0  0
 15 16  1  0  0  0  0
 16 17  2  0  0  0  0
 16 32  1  0  0  0  0
 17 33  1  0  0  0  0
 21  6  1  0  0  0  0
 23  8  1  0  0  0  0
 24  9  1  0  0  0  0
 29 13  1  0  0  0  0
 30 14  1  0  0  0  0
 31 15  1  0  0  0  0
M  END
