15
 OpenBabel05122313063D

 26 27  0  0  1  0  0  0  0  0999 V2000
   -2.7809   -1.4947    0.3231 B   0  0  1  0  0  0  0  0  0  0  0  0
   -3.1355   -2.3232    1.1423 H   0  0  0  0  0  0  0  0  0  0  0  0
   -3.9804   -0.1707   -0.0589 B   0  0  1  0  0  0  0  0  0  0  0  0
   -5.0451   -0.0824    0.5115 H   0  0  0  0  0  0  0  0  0  0  0  0
   -2.5068    0.1909    0.9018 B   0  0  0  0  0  0  0  0  0  0  0  0
   -2.7891    0.5652    2.0227 H   0  0  0  0  0  0  0  0  0  0  0  0
   -1.9268    1.2524    0.3580 H   0  0  0  0  0  0  0  0  0  0  0  0
   -3.0210    1.2927   -0.4490 B   0  0  1  0  0  0  0  0  0  0  0  0
   -3.4789    2.4117   -0.3432 H   0  0  0  0  0  0  0  0  0  0  0  0
   -3.7944    0.1353   -1.8169 B   0  0  0  0  0  0  0  0  0  0  0  0
   -4.6933    0.5838   -2.4967 H   0  0  0  0  0  0  0  0  0  0  0  0
   -3.4288   -1.0846   -2.3534 H   0  0  0  0  0  0  0  0  0  0  0  0
   -3.6946   -1.5384   -1.1546 B   0  0  0  0  0  0  0  0  0  0  0  0
   -4.6022   -2.3199   -1.3400 H   0  0  0  0  0  0  0  0  0  0  0  0
   -1.8511   -2.1284   -1.0414 B   0  0  0  0  0  0  0  0  0  0  0  0
   -1.7358   -3.3439   -1.0581 H   0  0  0  0  0  0  0  0  0  0  0  0
   -1.3855   -1.6079   -2.0677 H   0  0  0  0  0  0  0  0  0  0  0  0
   -2.4502    0.9210   -1.8565 N   0  3  1  0  0  0  0  0  0  0  0  0
   -1.6655    0.2468   -1.7469 H   0  0  0  0  0  0  0  0  0  0  0  0
   -2.1539    1.9518   -2.8643 C   0  0  0  0  0  0  0  0  0  0  0  0
   -2.0258    1.4534   -3.8491 H   0  0  0  0  0  0  0  0  0  0  0  0
   -3.0508    2.5968   -2.9456 H   0  0  0  0  0  0  0  0  0  0  0  0
   -0.9243    2.7693   -2.4926 C   0  0  0  0  0  0  0  0  0  0  0  0
   -0.0220    2.1312   -2.3974 H   0  0  0  0  0  0  0  0  0  0  0  0
   -1.0638    3.2827   -1.5208 H   0  0  0  0  0  0  0  0  0  0  0  0
   -0.7171    3.5390   -3.2620 H   0  0  0  0  0  0  0  0  0  0  0  0
  1  5  1  0  0  0  0
  1  2  1  1  0  0  0
  3  4  1  1  0  0  0
  5  6  1  0  0  0  0
  7  5  1  0  0  0  0
  8  9  1  1  0  0  0
  8  3  1  0  0  0  0
  8  5  1  0  0  0  0
 10  3  1  0  0  0  0
 11 10  1  0  0  0  0
 12 13  1  0  0  0  0
 13  3  1  0  0  0  0
 13  1  1  0  0  0  0
 14 13  1  0  0  0  0
 15  1  1  0  0  0  0
 16 15  1  0  0  0  0
 17 15  1  0  0  0  0
 18 10  1  0  0  0  0
 18 19  1  1  0  0  0
 18  8  1  0  0  0  0
 20 23  1  0  0  0  0
 20 18  1  0  0  0  0
 21 20  1  0  0  0  0
 22 20  1  0  0  0  0
 23 24  1  0  0  0  0
 23 25  1  0  0  0  0
 26 23  1  0  0  0  0
M  CHG  1  18   1
M  END
