21
 OpenBabel05122313063D

 24 28  0  0  1  0  0  0  0  0999 V2000
   -1.6178    0.0367    0.5486 C   0  0  2  0  0  0  0  0  0  0  0  0
   -1.7802    0.3082    1.9121 O   0  0  0  0  0  0  0  0  0  0  0  0
   -3.1265    0.3578    2.2073 C   0  0  0  0  0  0  0  0  0  0  0  0
   -3.3219    0.5722    3.2695 H   0  0  0  0  0  0  0  0  0  0  0  0
   -3.9969    0.1395    1.1834 C   0  0  0  0  0  0  0  0  0  0  0  0
   -5.4896    0.1464    1.3016 C   0  0  0  0  0  0  0  0  0  0  0  0
   -5.9374    0.9089    0.6296 H   0  0  0  0  0  0  0  0  0  0  0  0
   -5.8370    0.3545    2.3343 H   0  0  0  0  0  0  0  0  0  0  0  0
   -5.9170   -0.8291    0.9868 H   0  0  0  0  0  0  0  0  0  0  0  0
   -1.8333    1.1117   -0.6615 B   0  0  1  0  0  0  0  0  0  0  0  0
   -1.9114    2.2896   -0.3860 H   0  0  0  0  0  0  0  0  0  0  0  0
   -3.1143   -0.1116   -0.0789 B   0  0  1  0  0  0  0  0  0  0  0  0
   -1.7988   -1.4359   -0.1127 B   0  0  1  0  0  0  0  0  0  0  0  0
   -1.8466   -2.3861    0.6406 H   0  0  0  0  0  0  0  0  0  0  0  0
   -1.3640    0.4489   -2.2445 B   0  0  0  0  0  2  0  0  0  0  0  0
   -0.9201    1.1221   -3.1498 H   0  0  0  0  0  0  0  0  0  0  0  0
   -3.1367    0.4618   -1.7663 B   0  0  2  0  0  0  0  0  0  0  0  0
   -4.0439    1.1467   -2.1789 H   0  0  0  0  0  0  0  0  0  0  0  0
   -3.1133   -1.3342   -1.3787 B   0  0  2  0  0  0  0  0  0  0  0  0
   -4.0009   -2.1510   -1.4643 H   0  0  0  0  0  0  0  0  0  0  0  0
   -1.3398   -1.4755   -1.8287 B   0  0  0  0  0  0  0  0  0  0  0  0
   -0.8737   -2.4504   -2.3768 H   0  0  0  0  0  0  0  0  0  0  0  0
   -2.4516   -0.6673   -2.6791 C   0  0  2  0  0  0  0  0  0  0  0  0
   -2.7278   -0.8929   -3.7133 H   0  0  0  0  0  0  0  0  0  0  0  0
  1  2  1  1  0  0  0
  2  3  1  0  0  0  0
  3  4  1  0  0  0  0
  5  6  1  0  0  0  0
  5  3  2  0  0  0  0
  6  8  1  0  0  0  0
  7  6  1  0  0  0  0
  9  6  1  0  0  0  0
 10 11  1  1  0  0  0
 10  1  1  0  0  0  0
 12  1  1  0  0  0  0
 12  5  1  1  0  0  0
 13  1  1  0  0  0  0
 13 14  1  1  0  0  0
 15 10  1  0  0  0  0
 16 15  1  0  0  0  0
 17 18  1  6  0  0  0
 17 10  1  0  0  0  0
 17 12  1  0  0  0  0
 19 20  1  6  0  0  0
 19 13  1  0  0  0  0
 19 12  1  0  0  0  0
 21 13  1  0  0  0  0
 22 21  1  0  0  0  0
 23 24  1  6  0  0  0
 23 21  1  0  0  0  0
 23 17  1  0  0  0  0
 23 19  1  0  0  0  0
M  END
