9
 OpenBabel05122313063D

 22 25  0  0  1  0  0  0  0  0999 V2000
   -1.6616   -0.1462    1.3692 C   0  0  1  0  0  0  0  0  0  0  0  0
   -1.3744   -0.2961    2.4192 H   0  0  0  0  0  0  0  0  0  0  0  0
   -1.4385    1.3328    0.6118 B   0  0  0  0  0  0  0  0  0  0  0  0
   -0.9730    2.2916    1.1885 H   0  0  0  0  0  0  0  0  0  0  0  0
   -3.0674    0.7500    1.0880 B   0  0  2  0  0  0  0  0  0  0  0  0
   -3.6387    1.2765    2.0134 H   0  0  0  0  0  0  0  0  0  0  0  0
   -3.0294   -1.0030    0.8928 B   0  0  1  0  0  0  0  0  0  0  0  0
   -3.5637   -1.7678    1.6598 H   0  0  0  0  0  0  0  0  0  0  0  0
   -1.4016   -1.3922    0.2498 B   0  0  0  0  0  2  0  0  0  0  0  0
   -0.9071   -2.4624    0.5213 H   0  0  0  0  0  0  0  0  0  0  0  0
   -1.3464   -0.6785   -1.3300 C   0  0  2  0  0  0  0  0  0  0  0  0
   -0.8551   -1.2284   -2.1452 H   0  0  0  0  0  0  0  0  0  0  0  0
   -2.8114    1.4944   -0.5215 B   0  0  0  0  0  0  0  0  0  0  0  0
   -3.2718    2.5815   -0.7875 H   0  0  0  0  0  0  0  0  0  0  0  0
   -3.8335    0.0174   -0.3308 B   0  0  2  0  0  0  0  0  0  0  0  0
   -5.0342    0.0129   -0.4695 H   0  0  0  0  0  0  0  0  0  0  0  0
   -2.8115   -1.3606   -0.8509 B   0  0  2  0  0  0  0  0  0  0  0  0
   -3.1829   -2.3890   -1.3645 H   0  0  0  0  0  0  0  0  0  0  0  0
   -1.2551    0.9823   -1.2098 B   0  0  0  0  0  0  0  0  0  0  0  0
   -0.6657    1.6700   -2.0125 H   0  0  0  0  0  0  0  0  0  0  0  0
   -2.7611    0.1760   -1.7266 B   0  0  2  0  0  0  0  0  0  0  0  0
   -3.1095    0.2536   -2.8808 H   0  0  0  0  0  0  0  0  0  0  0  0
  1  2  1  1  0  0  0
  3  4  1  0  0  0  0
  3  1  1  0  0  0  0
  5  1  1  0  0  0  0
  5  6  1  1  0  0  0
  7  5  1  0  0  0  0
  7  1  1  0  0  0  0
  7  8  1  1  0  0  0
  9 10  1  0  0  0  0
 11 12  1  6  0  0  0
 11 19  1  0  0  0  0
 11 17  1  0  0  0  0
 13  3  1  0  0  0  0
 14 13  1  0  0  0  0
 15 16  1  6  0  0  0
 15  7  1  0  0  0  0
 15  5  1  0  0  0  0
 17 18  1  6  0  0  0
 17  9  1  0  0  0  0
 19 13  1  0  0  0  0
 20 19  1  0  0  0  0
 21 22  1  6  0  0  0
 21 11  1  0  0  0  0
 21 17  1  0  0  0  0
 21 15  1  0  0  0  0
M  END
