3
 OpenBabel05122313063D

 21 21  0  0  0  0  0  0  0  0999 V2000
    2.3889   -0.9049    0.4556 O   0  0  0  0  0  0  0  0  0  0  0  0
    2.0947    1.1546   -0.5192 O   0  0  0  0  0  0  0  0  0  0  0  0
    1.4595    0.0182   -0.0311 B   0  0  0  0  0  2  0  0  0  0  0  0
    3.7192   -0.4400    0.0890 C   0  0  0  0  0  0  0  0  0  0  0  0
    3.4832    1.1090   -0.0986 C   0  0  0  0  0  0  0  0  0  0  0  0
    4.6916   -0.8122    1.2039 C   0  0  0  0  0  0  0  0  0  0  0  0
    4.3444   -0.4429    2.1861 H   0  0  0  0  0  0  0  0  0  0  0  0
    5.6990   -0.3947    1.0034 H   0  0  0  0  0  0  0  0  0  0  0  0
    4.7858   -1.9144    1.2679 H   0  0  0  0  0  0  0  0  0  0  0  0
    4.1065   -1.1461   -1.2157 C   0  0  0  0  0  0  0  0  0  0  0  0
    3.4072   -0.8836   -2.0336 H   0  0  0  0  0  0  0  0  0  0  0  0
    4.0587   -2.2421   -1.0626 H   0  0  0  0  0  0  0  0  0  0  0  0
    5.1356   -0.8876   -1.5333 H   0  0  0  0  0  0  0  0  0  0  0  0
    3.5794    1.8937    1.2163 C   0  0  0  0  0  0  0  0  0  0  0  0
    2.9692    1.4184    2.0094 H   0  0  0  0  0  0  0  0  0  0  0  0
    3.1842    2.9148    1.0505 H   0  0  0  0  0  0  0  0  0  0  0  0
    4.6242    1.9763    1.5748 H   0  0  0  0  0  0  0  0  0  0  0  0
    4.3438    1.7665   -1.1731 C   0  0  0  0  0  0  0  0  0  0  0  0
    4.1635    1.3197   -2.1679 H   0  0  0  0  0  0  0  0  0  0  0  0
    5.4212    1.6714   -0.9293 H   0  0  0  0  0  0  0  0  0  0  0  0
    4.1007    2.8453   -1.2365 H   0  0  0  0  0  0  0  0  0  0  0  0
  2  5  1  0  0  0  0
  2  3  1  0  0  0  0
  3  1  1  0  0  0  0
  4  1  1  0  0  0  0
  4  6  1  0  0  0  0
  5  4  1  0  0  0  0
  5 14  1  0  0  0  0
  6  9  1  0  0  0  0
  6  7  1  0  0  0  0
  8  6  1  0  0  0  0
 10 12  1  0  0  0  0
 10  4  1  0  0  0  0
 11 10  1  0  0  0  0
 13 10  1  0  0  0  0
 14 17  1  0  0  0  0
 14 15  1  0  0  0  0
 16 14  1  0  0  0  0
 18 20  1  0  0  0  0
 18  5  1  0  0  0  0
 19 18  1  0  0  0  0
 21 18  1  0  0  0  0
M  END
