8
 OpenBabel05122313063D

 41 46  0  0  1  0  0  0  0  0999 V2000
   -0.7632   -0.0012    1.5175 C   0  0  1  0  0  0  0  0  0  0  0  0
   -1.1074    1.3406    0.5687 B   0  0  0  0  0  2  0  0  0  0  0  0
   -0.6863    2.4185    0.8970 H   0  0  0  0  0  0  0  0  0  0  0  0
   -2.2165    0.6978    1.8659 B   0  0  2  0  0  0  0  0  0  0  0  0
   -2.4159    1.3553    2.8542 H   0  0  0  0  0  0  0  0  0  0  0  0
   -2.0462   -1.0429    1.7335 B   0  0  1  0  0  0  0  0  0  0  0  0
   -2.0652   -1.7801    2.6881 H   0  0  0  0  0  0  0  0  0  0  0  0
   -0.8658   -1.2524    0.3629 B   0  0  0  0  0  2  0  0  0  0  0  0
   -0.1821   -2.2428    0.4927 H   0  0  0  0  0  0  0  0  0  0  0  0
   -1.9092    1.0164   -1.0819 B   0  0  0  0  0  0  0  0  0  0  0  0
   -2.1038    1.8990   -1.8877 H   0  0  0  0  0  0  0  0  0  0  0  0
   -2.8298    1.2397    0.3447 C   0  0  1  0  0  0  0  0  0  0  0  0
   -3.4619   -0.2343    1.0408 B   0  0  2  0  0  0  0  0  0  0  0  0
   -4.5723   -0.2573    1.5077 H   0  0  0  0  0  0  0  0  0  0  0  0
   -2.6244   -1.5076    0.1050 B   0  0  0  0  0  0  0  0  0  0  0  0
   -1.7445   -0.7707   -1.2332 B   0  0  1  0  0  0  0  0  0  0  0  0
   -1.7578   -1.4138   -2.2583 H   0  0  0  0  0  0  0  0  0  0  0  0
   -3.2655   -0.0622   -0.7030 B   0  0  2  0  0  0  0  0  0  0  0  0
   -4.2639    0.0105   -1.3754 H   0  0  0  0  0  0  0  0  0  0  0  0
    0.3486    0.0941    2.5190 C   0  0  0  0  0  0  0  0  0  0  0  0
    1.2382   -0.9806    2.7258 C   0  0  0  0  0  0  0  0  0  0  0  0
    1.0991   -1.9096    2.1580 H   0  0  0  0  0  0  0  0  0  0  0  0
    2.3013   -0.8724    3.6329 C   0  0  0  0  0  0  0  0  0  0  0  0
    2.9799   -1.7279    3.7669 H   0  0  0  0  0  0  0  0  0  0  0  0
    2.5046    0.3135    4.3562 C   0  0  0  0  0  0  0  0  0  0  0  0
    3.3385    0.3964    5.0700 H   0  0  0  0  0  0  0  0  0  0  0  0
    1.6215    1.3889    4.1660 C   0  0  0  0  0  0  0  0  0  0  0  0
    1.7573    2.3232    4.7324 H   0  0  0  0  0  0  0  0  0  0  0  0
    0.5554    1.2792    3.2614 C   0  0  0  0  0  0  0  0  0  0  0  0
   -0.1322    2.1263    3.1286 H   0  0  0  0  0  0  0  0  0  0  0  0
   -3.7052    2.4702    0.3993 C   0  0  0  0  0  0  0  0  0  0  0  0
   -5.0939    2.3642    0.1833 C   0  0  0  0  0  0  0  0  0  0  0  0
   -5.5356    1.3787   -0.0158 H   0  0  0  0  0  0  0  0  0  0  0  0
   -5.9144    3.5007    0.2192 C   0  0  0  0  0  0  0  0  0  0  0  0
   -6.9961    3.3919    0.0472 H   0  0  0  0  0  0  0  0  0  0  0  0
   -5.3649    4.7661    0.4743 C   0  0  0  0  0  0  0  0  0  0  0  0
   -6.0096    5.6575    0.5038 H   0  0  0  0  0  0  0  0  0  0  0  0
   -3.9840    4.8814    0.6945 C   0  0  0  0  0  0  0  0  0  0  0  0
   -3.5373    5.8665    0.8998 H   0  0  0  0  0  0  0  0  0  0  0  0
   -3.1634    3.7451    0.6583 C   0  0  0  0  0  0  0  0  0  0  0  0
   -2.0844    3.8460    0.8359 H   0  0  0  0  0  0  0  0  0  0  0  0
  1  2  1  6  0  0  0
  1  6  1  0  0  0  0
  1  4  1  0  0  0  0
  1 20  1  0  0  0  0
  2  3  1  0  0  0  0
  4  5  1  1  0  0  0
  6  4  1  0  0  0  0
  6  7  1  1  0  0  0
  8  9  1  0  0  0  0
 10 12  1  0  0  0  0
 11 10  1  0  0  0  0
 12 31  1  1  0  0  0
 12  4  1  0  0  0  0
 13 14  1  1  0  0  0
 13  6  1  0  0  0  0
 15  8  1  0  0  0  0
 15 13  1  0  0  0  0
 16 17  1  6  0  0  0
 16 10  1  0  0  0  0
 16 18  1  0  0  0  0
 16 15  1  0  0  0  0
 18 19  1  6  0  0  0
 18 12  1  0  0  0  0
 18 13  1  0  0  0  0
 20 21  2  0  0  0  0
 20 29  1  0  0  0  0
 21 23  1  0  0  0  0
 22 21  1  0  0  0  0
 23 24  1  0  0  0  0
 23 25  2  0  0  0  0
 25 26  1  0  0  0  0
 27 25  1  0  0  0  0
 27 28  1  0  0  0  0
 29 27  2  0  0  0  0
 30 29  1  0  0  0  0
 31 40  1  0  0  0  0
 32 34  1  0  0  0  0
 32 31  2  0  0  0  0
 33 32  1  0  0  0  0
 34 36  2  0  0  0  0
 35 34  1  0  0  0  0
 36 37  1  0  0  0  0
 36 38  1  0  0  0  0
 38 39  1  0  0  0  0
 40 38  2  0  0  0  0
 40 41  1  0  0  0  0
M  END
