4
 OpenBabel05122313063D

 22 22  0  0  0  0  0  0  0  0999 V2000
    0.3322    0.4615    0.9579 H   0  0  0  0  0  0  0  0  0  0  0  0
    1.6979    1.7700   -0.7086 O   0  0  0  0  0  0  0  0  0  0  0  0
    2.7543    0.2571    0.6699 O   0  0  0  0  0  0  0  0  0  0  0  0
    1.5722    0.5785   -0.0062 B   0  0  0  0  0  0  0  0  0  0  0  0
    3.1040    2.1275   -0.7213 C   0  0  0  0  0  0  0  0  0  0  0  0
    3.7011    1.5567   -2.0147 C   0  0  0  0  0  0  0  0  0  0  0  0
    3.1172    1.9388   -2.8745 H   0  0  0  0  0  0  0  0  0  0  0  0
    3.6379    0.4506   -2.0254 H   0  0  0  0  0  0  0  0  0  0  0  0
    4.7597    1.8540   -2.1497 H   0  0  0  0  0  0  0  0  0  0  0  0
    3.2257    3.6484   -0.7041 C   0  0  0  0  0  0  0  0  0  0  0  0
    2.6582    4.0904    0.1350 H   0  0  0  0  0  0  0  0  0  0  0  0
    2.8176    4.0655   -1.6456 H   0  0  0  0  0  0  0  0  0  0  0  0
    4.2869    3.9593   -0.6216 H   0  0  0  0  0  0  0  0  0  0  0  0
    3.6448    1.4022    0.5721 C   0  0  0  0  0  0  0  0  0  0  0  0
    5.0835    0.9034    0.4782 C   0  0  0  0  0  0  0  0  0  0  0  0
    5.7830    1.7472    0.3102 H   0  0  0  0  0  0  0  0  0  0  0  0
    5.2083    0.1726   -0.3419 H   0  0  0  0  0  0  0  0  0  0  0  0
    5.3710    0.4056    1.4255 H   0  0  0  0  0  0  0  0  0  0  0  0
    3.4468    2.2327    1.8462 C   0  0  0  0  0  0  0  0  0  0  0  0
    2.4096    2.6162    1.9108 H   0  0  0  0  0  0  0  0  0  0  0  0
    4.1456    3.0909    1.8932 H   0  0  0  0  0  0  0  0  0  0  0  0
    3.6287    1.5861    2.7270 H   0  0  0  0  0  0  0  0  0  0  0  0
  2  4  1  0  0  0  0
  4  3  1  0  0  0  0
  4  1  1  0  0  0  0
  5  2  1  0  0  0  0
  5 10  1  0  0  0  0
  5 14  1  0  0  0  0
  6  5  1  0  0  0  0
  7  6  1  0  0  0  0
  8  6  1  0  0  0  0
  9  6  1  0  0  0  0
 10 13  1  0  0  0  0
 10 11  1  0  0  0  0
 12 10  1  0  0  0  0
 14  3  1  0  0  0  0
 14 19  1  0  0  0  0
 15 14  1  0  0  0  0
 15 18  1  0  0  0  0
 16 15  1  0  0  0  0
 17 15  1  0  0  0  0
 19 21  1  0  0  0  0
 19 20  1  0  0  0  0
 19 22  1  0  0  0  0
M  END
