7
 OpenBabel05122313063D

 28 31  0  0  1  0  0  0  0  0999 V2000
    1.5239    0.7931    0.8490 C   0  0  2  0  0  0  0  0  0  0  0  0
    1.5367    0.8142   -0.7749 C   0  0  1  0  0  0  0  0  0  0  0  0
    1.2647    2.0582    1.6554 C   0  0  0  0  0  0  0  0  0  0  0  0
    1.3353    2.1172   -1.5374 C   0  0  0  0  0  0  0  0  0  0  0  0
    1.0611   -0.7449   -1.4575 B   0  0  1  0  0  0  0  0  0  0  0  0
    0.7537   -1.8633   -0.0614 B   0  0  0  0  0  2  0  0  0  0  0  0
    1.0022   -0.7806    1.4020 B   0  0  0  0  0  2  0  0  0  0  0  0
    3.0553    0.7370    0.0647 B   0  0  2  0  0  0  0  0  0  0  0  0
    2.7562   -0.2034   -1.3904 B   0  0  2  0  0  0  0  0  0  0  0  0
    2.3273   -1.8656   -0.9123 B   0  0  1  0  0  0  0  0  0  0  0  0
    2.2770   -1.9045    0.8755 B   0  0  0  0  0  0  0  0  0  0  0  0
    2.7109   -0.2687    1.4505 B   0  0  2  0  0  0  0  0  0  0  0  0
    3.5317   -0.9628    0.0315 B   0  0  2  0  0  0  0  0  0  0  0  0
    0.6614    2.7932    1.0899 H   0  0  0  0  0  0  0  0  0  0  0  0
    2.2125    2.5450    1.9562 H   0  0  0  0  0  0  0  0  0  0  0  0
    0.7106    1.8003    2.5769 H   0  0  0  0  0  0  0  0  0  0  0  0
    0.9928    1.8899   -2.5634 H   0  0  0  0  0  0  0  0  0  0  0  0
    2.2862    2.6766   -1.6190 H   0  0  0  0  0  0  0  0  0  0  0  0
    0.5905    2.7805   -1.0587 H   0  0  0  0  0  0  0  0  0  0  0  0
    0.6237   -0.7541   -2.5883 H   0  0  0  0  0  0  0  0  0  0  0  0
    0.0848   -2.8751   -0.0792 H   0  0  0  0  0  0  0  0  0  0  0  0
    0.5129   -0.8529    2.5090 H   0  0  0  0  0  0  0  0  0  0  0  0
    3.7114    1.7489    0.0924 H   0  0  0  0  0  0  0  0  0  0  0  0
    3.2938    0.1406   -2.4167 H   0  0  0  0  0  0  0  0  0  0  0  0
    2.6533   -2.8102   -1.5955 H   0  0  0  0  0  0  0  0  0  0  0  0
    2.5661   -2.8738    1.5406 H   0  0  0  0  0  0  0  0  0  0  0  0
    3.1950    0.0090    2.5223 H   0  0  0  0  0  0  0  0  0  0  0  0
    4.7085   -1.2401    0.0487 H   0  0  0  0  0  0  0  0  0  0  0  0
  1 12  1  0  0  0  0
  1  3  1  1  0  0  0
  2  4  1  6  0  0  0
  2  8  1  0  0  0  0
  2  1  1  0  0  0  0
  3 15  1  0  0  0  0
  3 16  1  0  0  0  0
  4 19  1  0  0  0  0
  5 20  1  6  0  0  0
  5  9  1  0  0  0  0
  5 10  1  0  0  0  0
  5  6  1  0  0  0  0
  7 22  1  0  0  0  0
  8 23  1  1  0  0  0
  8  1  1  0  0  0  0
  8 12  1  0  0  0  0
  9 24  1  6  0  0  0
  9 10  1  0  0  0  0
  9  2  1  0  0  0  0
 10 25  1  6  0  0  0
 10 13  1  0  0  0  0
 11  7  1  0  0  0  0
 11 26  1  0  0  0  0
 12 27  1  1  0  0  0
 13 28  1  1  0  0  0
 13 11  1  0  0  0  0
 13 12  1  0  0  0  0
 14  3  1  0  0  0  0
 17  4  1  0  0  0  0
 18  4  1  0  0  0  0
 21  6  1  0  0  0  0
M  END
