22
 OpenBabel05122313063D

 22 22  0  0  0  0  0  0  0  0999 V2000
   -0.3354    1.4642    1.7444 F   0  0  0  0  0  0  0  0  0  0  0  0
   -2.0648    0.2613    0.4251 C   0  0  0  0  0  0  0  0  0  0  0  0
   -2.5619   -1.0652    0.5047 C   0  0  0  0  0  0  0  0  0  0  0  0
   -3.9040   -1.3383    0.1769 C   0  0  0  0  0  0  0  0  0  0  0  0
   -4.2704   -2.3764    0.2451 H   0  0  0  0  0  0  0  0  0  0  0  0
   -4.7860   -0.3252   -0.2263 C   0  0  0  0  0  0  0  0  0  0  0  0
   -4.2956    0.9951   -0.2638 C   0  0  0  0  0  0  0  0  0  0  0  0
   -4.9769    1.8122   -0.5549 H   0  0  0  0  0  0  0  0  0  0  0  0
   -2.9673    1.3089    0.0651 C   0  0  0  0  0  0  0  0  0  0  0  0
   -1.6960   -2.1926    1.0131 C   0  0  0  0  0  0  0  0  0  0  0  0
   -0.6264   -1.9141    0.9748 H   0  0  0  0  0  0  0  0  0  0  0  0
   -1.8360   -3.1206    0.4230 H   0  0  0  0  0  0  0  0  0  0  0  0
   -1.9421   -2.4319    2.0702 H   0  0  0  0  0  0  0  0  0  0  0  0
   -6.2106   -0.6287   -0.6163 C   0  0  0  0  0  0  0  0  0  0  0  0
   -6.3486   -0.5505   -1.7162 H   0  0  0  0  0  0  0  0  0  0  0  0
   -6.9208    0.0871   -0.1540 H   0  0  0  0  0  0  0  0  0  0  0  0
   -6.5086   -1.6523   -0.3163 H   0  0  0  0  0  0  0  0  0  0  0  0
   -2.5272    2.7557    0.0373 C   0  0  0  0  0  0  0  0  0  0  0  0
   -1.6967    2.9277   -0.6763 H   0  0  0  0  0  0  0  0  0  0  0  0
   -2.1641    3.0836    1.0321 H   0  0  0  0  0  0  0  0  0  0  0  0
   -3.3623    3.4195   -0.2579 H   0  0  0  0  0  0  0  0  0  0  0  0
   -0.5446    0.6063    0.6992 B   0  0  0  0  0  2  0  0  0  0  0  0
  2  3  1  0  0  0  0
  2 22  1  0  0  0  0
  3 10  1  0  0  0  0
  4  5  1  0  0  0  0
  4  3  2  0  0  0  0
  6  4  1  0  0  0  0
  7  6  2  0  0  0  0
  7  9  1  0  0  0  0
  8  7  1  0  0  0  0
  9  2  2  0  0  0  0
 10 13  1  0  0  0  0
 11 10  1  0  0  0  0
 12 10  1  0  0  0  0
 14 17  1  0  0  0  0
 14  6  1  0  0  0  0
 14 16  1  0  0  0  0
 15 14  1  0  0  0  0
 18  9  1  0  0  0  0
 18 20  1  0  0  0  0
 19 18  1  0  0  0  0
 21 18  1  0  0  0  0
 22  1  1  0  0  0  0
M  END
