1
 OpenBabel05122313063D

 32 33  0  0  0  0  0  0  0  0999 V2000
    1.1669    0.4572    1.0579 B   0  0  0  0  0  2  0  0  0  0  0  0
    1.7705    0.3757    2.7751 Cl  0  0  0  0  0  0  0  0  0  0  0  0
   -0.1913    0.4626    0.8726 N   0  0  0  0  0  0  0  0  0  0  0  0
   -1.3077   -0.0570    0.5136 C   0  0  0  0  0  0  0  0  0  0  0  0
   -1.3958   -1.5270    0.2728 C   0  0  0  0  0  0  0  0  0  0  0  0
   -2.2284   -2.0661   -0.7312 C   0  0  0  0  0  0  0  0  0  0  0  0
   -2.2087   -3.4389   -1.0111 C   0  0  0  0  0  0  0  0  0  0  0  0
   -1.3719   -4.3196   -0.2981 C   0  0  0  0  0  0  0  0  0  0  0  0
   -1.3538   -5.7978   -0.5891 C   0  0  0  0  0  0  0  0  0  0  0  0
   -0.5406   -3.7735    0.7051 C   0  0  0  0  0  0  0  0  0  0  0  0
   -0.5459   -2.4053    0.9828 C   0  0  0  0  0  0  0  0  0  0  0  0
   -2.4945    0.8165    0.3014 C   0  0  0  0  0  0  0  0  0  0  0  0
   -2.3025    2.1658   -0.0713 C   0  0  0  0  0  0  0  0  0  0  0  0
   -3.3919    3.0198   -0.2507 C   0  0  0  0  0  0  0  0  0  0  0  0
   -4.7161    2.5678   -0.0500 C   0  0  0  0  0  0  0  0  0  0  0  0
   -5.8841    3.4976   -0.2540 C   0  0  0  0  0  0  0  0  0  0  0  0
   -4.9019    1.2270    0.3390 C   0  0  0  0  0  0  0  0  0  0  0  0
   -3.8133    0.3602    0.5074 C   0  0  0  0  0  0  0  0  0  0  0  0
   -2.8676   -1.3979   -1.3259 H   0  0  0  0  0  0  0  0  0  0  0  0
   -2.8507   -3.8362   -1.8131 H   0  0  0  0  0  0  0  0  0  0  0  0
   -1.7136   -6.3821    0.2842 H   0  0  0  0  0  0  0  0  0  0  0  0
   -1.9947   -6.0541   -1.4545 H   0  0  0  0  0  0  0  0  0  0  0  0
   -0.3248   -6.1518   -0.8065 H   0  0  0  0  0  0  0  0  0  0  0  0
    0.1306   -4.4367    1.2733 H   0  0  0  0  0  0  0  0  0  0  0  0
    0.1171   -1.9974    1.7604 H   0  0  0  0  0  0  0  0  0  0  0  0
   -1.2727    2.5239   -0.2196 H   0  0  0  0  0  0  0  0  0  0  0  0
   -3.2193    4.0651   -0.5534 H   0  0  0  0  0  0  0  0  0  0  0  0
   -6.8403    3.0277    0.0462 H   0  0  0  0  0  0  0  0  0  0  0  0
   -5.7624    4.4330    0.3304 H   0  0  0  0  0  0  0  0  0  0  0  0
   -5.9751    3.7974   -1.3197 H   0  0  0  0  0  0  0  0  0  0  0  0
   -5.9229    0.8548    0.5187 H   0  0  0  0  0  0  0  0  0  0  0  0
   -3.9873   -0.6775    0.8274 H   0  0  0  0  0  0  0  0  0  0  0  0
  1  2  1  0  0  0  0
  3  1  1  0  0  0  0
  4  3  2  0  0  0  0
  5  4  1  0  0  0  0
  5 11  1  0  0  0  0
  6  5  2  0  0  0  0
  7  6  1  0  0  0  0
  7  8  2  0  0  0  0
  8 10  1  0  0  0  0
  9  8  1  0  0  0  0
  9 21  1  0  0  0  0
 10 11  2  0  0  0  0
 10 24  1  0  0  0  0
 11 25  1  0  0  0  0
 12 18  1  0  0  0  0
 12  4  1  0  0  0  0
 13 12  2  0  0  0  0
 14 13  1  0  0  0  0
 14 15  2  0  0  0  0
 15 17  1  0  0  0  0
 16 15  1  0  0  0  0
 16 28  1  0  0  0  0
 16 29  1  0  0  0  0
 17 18  2  0  0  0  0
 17 31  1  0  0  0  0
 18 32  1  0  0  0  0
 19  6  1  0  0  0  0
 20  7  1  0  0  0  0
 22  9  1  0  0  0  0
 23  9  1  0  0  0  0
 26 13  1  0  0  0  0
 27 14  1  0  0  0  0
 30 16  1  0  0  0  0
M  END
