11
 OpenBabel05122313063D

 35 39  0  0  1  0  0  0  0  0999 V2000
   -0.0503    0.0818    1.3338 B   0  0  0  0  0  0  0  0  0  0  0  0
   -0.0510   -0.4998    2.3956 H   0  0  0  0  0  0  0  0  0  0  0  0
   -0.8075    1.6007    1.0586 C   0  0  1  0  0  0  0  0  0  0  0  0
    3.9230   -0.5204    0.6319 C   0  0  1  0  0  3  0  0  0  0  0  0
    1.5257    0.3963    0.7067 C   0  0  2  0  0  0  0  0  0  0  0  0
    4.6000   -1.7391    0.4740 C   0  0  0  0  0  0  0  0  0  0  0  0
    4.1797   -2.6401    0.9412 H   0  0  0  0  0  0  0  0  0  0  0  0
    2.6666   -0.3404    1.4239 C   0  0  0  0  0  0  0  0  0  0  0  0
    2.9232    0.2193    2.3508 H   0  0  0  0  0  0  0  0  0  0  0  0
    2.3169   -1.3373    1.7471 H   0  0  0  0  0  0  0  0  0  0  0  0
    0.4655   -0.5614   -0.2706 B   0  0  0  0  0  0  0  0  0  0  0  0
    0.8844   -1.6936   -0.4081 H   0  0  0  0  0  0  0  0  0  0  0  0
    4.4546    0.5729    0.0216 N   0  0  0  0  0  0  0  0  0  0  0  0
   -1.0094    1.9138   -0.6328 B   0  0  0  0  0  2  0  0  0  0  0  0
   -1.8836    2.6597   -1.0111 H   0  0  0  0  0  0  0  0  0  0  0  0
    0.7824    1.6566    1.5780 B   0  0  1  0  0  0  0  0  0  0  0  0
    1.1469    1.9348    2.6946 H   0  0  0  0  0  0  0  0  0  0  0  0
    1.5319    0.6586   -1.0016 B   0  0  2  0  0  0  0  0  0  0  0  0
    2.4881    0.2766   -1.6405 H   0  0  0  0  0  0  0  0  0  0  0  0
    0.6613    2.1863   -1.2353 B   0  0  0  0  0  0  0  0  0  0  0  0
    0.9458    2.9535   -2.1280 H   0  0  0  0  0  0  0  0  0  0  0  0
   -0.1467    0.6105   -1.5358 B   0  0  1  0  0  0  0  0  0  0  0  0
   -0.3010    0.3078   -2.6996 H   0  0  0  0  0  0  0  0  0  0  0  0
    0.1879    2.7967    0.3668 B   0  0  2  0  0  0  0  0  0  0  0  0
    0.0598    3.9558    0.6809 H   0  0  0  0  0  0  0  0  0  0  0  0
    1.7476    2.0030    0.1449 B   0  0  2  0  0  0  0  0  0  0  0  0
    2.8185    2.5733    0.3199 H   0  0  0  0  0  0  0  0  0  0  0  0
    5.5816    0.5598   -0.7221 C   0  0  0  0  0  0  0  0  0  0  0  0
    5.8779    1.5144   -1.1790 H   0  0  0  0  0  0  0  0  0  0  0  0
    5.7779   -1.7947   -0.2811 C   0  0  0  0  0  0  0  0  0  0  0  0
    6.3024   -2.7533   -0.4090 H   0  0  0  0  0  0  0  0  0  0  0  0
    6.2834   -0.6292   -0.8870 C   0  0  0  0  0  0  0  0  0  0  0  0
    7.2002   -0.6442   -1.4913 H   0  0  0  0  0  0  0  0  0  0  0  0
    3.8703    1.4470    0.0748 H   0  0  0  0  0  0  0  0  0  0  0  0
   -1.5016    2.0035    1.8085 H   0  0  0  0  0  0  0  0  0  0  0  0
  1  2  1  0  0  0  0
  3  1  1  0  0  0  0
  3 16  1  0  0  0  0
  3 35  1  1  0  0  0
  4  8  1  1  0  0  0
  5  1  1  0  0  0  0
  5  8  1  1  0  0  0
  5 16  1  0  0  0  0
  6  4  1  0  0  0  0
  6  7  1  0  0  0  0
  8 10  1  0  0  0  0
  8  9  1  0  0  0  0
 12 11  1  0  0  0  0
 13 34  1  0  0  0  0
 13  4  1  0  0  0  0
 15 14  1  0  0  0  0
 16 17  1  1  0  0  0
 18 19  1  6  0  0  0
 18 11  1  0  0  0  0
 20 18  1  0  0  0  0
 20 24  1  0  0  0  0
 21 20  1  0  0  0  0
 22 23  1  6  0  0  0
 22 18  1  0  0  0  0
 22 14  1  0  0  0  0
 22 11  1  0  0  0  0
 24 25  1  1  0  0  0
 24  3  1  0  0  0  0
 26 27  1  1  0  0  0
 26 24  1  0  0  0  0
 26  5  1  0  0  0  0
 26 16  1  0  0  0  0
 28 13  1  0  0  0  0
 29 28  1  0  0  0  0
 30  6  2  0  0  0  0
 31 30  1  0  0  0  0
 32 28  2  0  0  0  0
 32 30  1  0  0  0  0
 33 32  1  0  0  0  0
M  END
