14
 OpenBabel05122313063D

 50 53  0  0  1  0  0  0  0  0999 V2000
   -0.9460   -0.4090   -0.0440 C   0  0  0  0  0  0  0  0  0  0  0  0
   -1.7362   -0.7634    1.1704 C   0  0  1  0  0  3  0  0  0  0  0  0
   -1.5508   -0.4371    2.5260 C   0  0  0  0  0  0  0  0  0  0  0  0
   -2.4864   -0.8743    3.4766 C   0  0  0  0  0  0  0  0  0  0  0  0
   -3.6064   -1.6396    3.0926 C   0  0  0  0  0  0  0  0  0  0  0  0
   -3.8075   -1.9696    1.7453 C   0  0  0  0  0  0  0  0  0  0  0  0
   -2.8777   -1.5311    0.7864 C   0  0  0  0  0  0  0  0  0  0  0  0
   -2.8567   -1.6897   -0.6655 C   0  0  0  0  0  0  0  0  0  0  0  0
   -3.7633   -2.3270   -1.5302 C   0  0  0  0  0  0  0  0  0  0  0  0
   -3.5326   -2.2854   -2.9118 C   0  0  0  0  0  0  0  0  0  0  0  0
   -2.4090   -1.6037   -3.4223 C   0  0  0  0  0  0  0  0  0  0  0  0
   -1.4968   -0.9699   -2.5646 C   0  0  0  0  0  0  0  0  0  0  0  0
   -1.7062   -1.0151   -1.1750 C   0  0  0  0  0  0  0  0  0  0  0  0
   -0.0152    0.8091   -0.1233 B   0  0  0  0  0  2  0  0  0  0  0  0
   -0.0894    2.2113   -0.1745 N   0  0  0  0  0  0  0  0  0  0  0  0
   -1.4690    2.8741   -0.1171 C   0  0  0  0  0  0  0  0  0  0  0  0
   -1.4819    4.1976   -0.9192 C   0  0  0  0  0  0  0  0  0  0  0  0
   -0.3398    5.1467   -0.6004 C   0  0  0  0  0  0  0  0  0  0  0  0
    0.9593    4.4078   -0.8702 C   0  0  0  0  0  0  0  0  0  0  0  0
    1.1301    3.1118   -0.0436 C   0  0  0  0  0  0  0  0  0  0  0  0
   -2.5511    1.9965   -0.7683 C   0  0  0  0  0  0  0  0  0  0  0  0
   -1.8900    3.1215    1.3466 C   0  0  0  0  0  0  0  0  0  0  0  0
    1.3983    3.4659    1.4357 C   0  0  0  0  0  0  0  0  0  0  0  0
    2.3870    2.4324   -0.6035 C   0  0  0  0  0  0  0  0  0  0  0  0
   -2.4669    4.6766   -0.7434 H   0  0  0  0  0  0  0  0  0  0  0  0
   -1.4432    3.9440   -2.0013 H   0  0  0  0  0  0  0  0  0  0  0  0
   -0.3904    5.4922    0.4542 H   0  0  0  0  0  0  0  0  0  0  0  0
   -0.4069    6.0592   -1.2283 H   0  0  0  0  0  0  0  0  0  0  0  0
    1.0021    4.1403   -1.9487 H   0  0  0  0  0  0  0  0  0  0  0  0
    1.8422    5.0486   -0.6679 H   0  0  0  0  0  0  0  0  0  0  0  0
   -2.8470    1.1382   -0.1422 H   0  0  0  0  0  0  0  0  0  0  0  0
   -2.2346    1.6215   -1.7593 H   0  0  0  0  0  0  0  0  0  0  0  0
   -3.4558    2.6201   -0.9125 H   0  0  0  0  0  0  0  0  0  0  0  0
   -2.9439    3.4645    1.3730 H   0  0  0  0  0  0  0  0  0  0  0  0
   -1.2797    3.8897    1.8547 H   0  0  0  0  0  0  0  0  0  0  0  0
   -1.8265    2.1829    1.9294 H   0  0  0  0  0  0  0  0  0  0  0  0
    0.6206    4.1186    1.8700 H   0  0  0  0  0  0  0  0  0  0  0  0
    2.3622    4.0083    1.5145 H   0  0  0  0  0  0  0  0  0  0  0  0
    1.4686    2.5554    2.0571 H   0  0  0  0  0  0  0  0  0  0  0  0
    2.6611    1.5309   -0.0342 H   0  0  0  0  0  0  0  0  0  0  0  0
    3.2270    3.1530   -0.5512 H   0  0  0  0  0  0  0  0  0  0  0  0
    2.2465    2.1434   -1.6615 H   0  0  0  0  0  0  0  0  0  0  0  0
   -0.6805    0.1474    2.8542 H   0  0  0  0  0  0  0  0  0  0  0  0
   -2.3389   -0.6183    4.5370 H   0  0  0  0  0  0  0  0  0  0  0  0
   -4.3257   -1.9769    3.8543 H   0  0  0  0  0  0  0  0  0  0  0  0
   -4.6852   -2.5601    1.4401 H   0  0  0  0  0  0  0  0  0  0  0  0
   -4.6471   -2.8450   -1.1266 H   0  0  0  0  0  0  0  0  0  0  0  0
   -4.2327   -2.7806   -3.6017 H   0  0  0  0  0  0  0  0  0  0  0  0
   -2.2416   -1.5680   -4.5097 H   0  0  0  0  0  0  0  0  0  0  0  0
   -0.6310   -0.4453   -2.9905 H   0  0  0  0  0  0  0  0  0  0  0  0
  2  1  1  6  0  0  0
  2  3  1  0  0  0  0
  3 43  1  0  0  0  0
  3  4  2  0  0  0  0
  4 44  1  0  0  0  0
  5  4  1  0  0  0  0
  5 45  1  0  0  0  0
  6  5  2  0  0  0  0
  7  2  1  0  0  0  0
  7  6  1  0  0  0  0
  8  7  2  0  0  0  0
  9 47  1  0  0  0  0
  9  8  1  0  0  0  0
 10  9  2  0  0  0  0
 11 10  1  0  0  0  0
 11 12  2  0  0  0  0
 12 13  1  0  0  0  0
 13  8  1  0  0  0  0
 13  1  2  0  0  0  0
 14  1  1  0  0  0  0
 15 14  1  0  0  0  0
 15 16  1  0  0  0  0
 15 20  1  0  0  0  0
 16 22  1  0  0  0  0
 17 25  1  0  0  0  0
 17 18  1  0  0  0  0
 17 16  1  0  0  0  0
 18 27  1  0  0  0  0
 19 30  1  0  0  0  0
 19 18  1  0  0  0  0
 19 20  1  0  0  0  0
 20 23  1  0  0  0  0
 21 31  1  0  0  0  0
 21 16  1  0  0  0  0
 22 34  1  0  0  0  0
 22 35  1  0  0  0  0
 22 36  1  0  0  0  0
 23 38  1  0  0  0  0
 23 37  1  0  0  0  0
 23 39  1  0  0  0  0
 24 41  1  0  0  0  0
 24 20  1  0  0  0  0
 24 40  1  0  0  0  0
 26 17  1  0  0  0  0
 28 18  1  0  0  0  0
 29 19  1  0  0  0  0
 32 21  1  0  0  0  0
 33 21  1  0  0  0  0
 42 24  1  0  0  0  0
 46  6  1  0  0  0  0
 48 10  1  0  0  0  0
 49 11  1  0  0  0  0
 50 12  1  0  0  0  0
M  END
