3
 OpenBabel05122313063D

 21 20  0  0  0  0  0  0  0  0999 V2000
   -3.3210   -0.2890   -1.8987 Cl  0  0  0  0  0  0  0  0  0  0  0  0
   -1.4374    2.3961   -0.0223 N   0  0  0  0  0  0  0  0  0  0  0  0
   -1.2873    0.9824   -0.0772 B   0  0  0  0  0  2  0  0  0  0  0  0
   -2.7087    0.0530   -0.2160 B   0  0  0  0  0  0  0  0  0  0  0  0
   -3.4626   -0.4583    0.8670 N   0  0  0  0  0  0  0  0  0  0  0  0
   -0.3734    3.3803    0.0627 C   0  0  0  0  0  0  0  0  0  0  0  0
    0.6060    2.8806    0.1141 H   0  0  0  0  0  0  0  0  0  0  0  0
   -0.4910    4.0143    0.9701 H   0  0  0  0  0  0  0  0  0  0  0  0
   -0.3785    4.0499   -0.8267 H   0  0  0  0  0  0  0  0  0  0  0  0
   -2.7447    3.0324   -0.0814 C   0  0  0  0  0  0  0  0  0  0  0  0
   -3.5437    2.2703   -0.1433 H   0  0  0  0  0  0  0  0  0  0  0  0
   -2.8292    3.6960   -0.9724 H   0  0  0  0  0  0  0  0  0  0  0  0
   -2.9264    3.6625    0.8199 H   0  0  0  0  0  0  0  0  0  0  0  0
   -3.0848   -0.1447    2.2364 C   0  0  0  0  0  0  0  0  0  0  0  0
   -2.1739    0.4807    2.2537 H   0  0  0  0  0  0  0  0  0  0  0  0
   -2.8853   -1.0707    2.8243 H   0  0  0  0  0  0  0  0  0  0  0  0
   -3.9000    0.4050    2.7591 H   0  0  0  0  0  0  0  0  0  0  0  0
   -4.6542   -1.2839    0.7692 C   0  0  0  0  0  0  0  0  0  0  0  0
   -4.8868   -1.4909   -0.2907 H   0  0  0  0  0  0  0  0  0  0  0  0
   -5.5306   -0.7786    1.2345 H   0  0  0  0  0  0  0  0  0  0  0  0
   -4.5116   -2.2521    1.3014 H   0  0  0  0  0  0  0  0  0  0  0  0
  1  4  1  0  0  0  0
  2  6  1  0  0  0  0
  3  2  1  0  0  0  0
  4  3  1  0  0  0  0
  4  5  1  0  0  0  0
  5 14  1  0  0  0  0
  6  7  1  0  0  0  0
  6  8  1  0  0  0  0
  9  6  1  0  0  0  0
 10  2  1  0  0  0  0
 10 13  1  0  0  0  0
 11 10  1  0  0  0  0
 12 10  1  0  0  0  0
 14 15  1  0  0  0  0
 14 17  1  0  0  0  0
 14 16  1  0  0  0  0
 18  5  1  0  0  0  0
 18 20  1  0  0  0  0
 18 21  1  0  0  0  0
 19 18  1  0  0  0  0
M  END
