1
 OpenBabel05122313063D

  4  3  0  0  0  0  0  0  0  0999 V2000
    1.9996   -1.4040   -1.2914 B   0  0  0  0  0  2  0  0  0  0  0  0
    1.9749   -0.6622   -2.2546 H   0  0  0  0  0  0  0  0  0  0  0  0
    2.1261   -3.1583   -1.3026 B   0  0  0  0  0  2  0  0  0  0  0  0
    2.1345   -3.7508   -2.3594 H   0  0  0  0  0  0  0  0  0  0  0  0
  2  1  1  0  0  0  0
  3  1  1  0  0  0  0
  4  3  1  0  0  0  0
M  END
