11
 OpenBabel05122313063D

 22 25  0  0  1  0  0  0  0  0999 V2000
    1.8686   -0.3382    1.3063 C   0  0  2  0  0  0  0  0  0  0  0  0
    1.4829   -0.6261    2.2921 H   0  0  0  0  0  0  0  0  0  0  0  0
    1.4265    1.1265   -0.9734 B   0  0  1  0  0  0  0  0  0  0  0  0
    0.7287    1.9053   -1.5805 H   0  0  0  0  0  0  0  0  0  0  0  0
    1.9045   -0.5137   -1.4779 B   0  0  0  0  0  0  0  0  0  0  0  0
    1.5946   -0.9998   -2.5448 H   0  0  0  0  0  0  0  0  0  0  0  0
    1.4675    1.1142    0.7287 C   0  0  2  0  0  0  0  0  0  0  0  0
    0.8210    1.7355    1.3641 H   0  0  0  0  0  0  0  0  0  0  0  0
    3.4806   -0.7120    0.9549 B   0  0  2  0  0  0  0  0  0  0  0  0
    4.1027   -1.3848    1.7445 H   0  0  0  0  0  0  0  0  0  0  0  0
    2.1306   -1.4670    0.0364 B   0  0  0  0  0  2  0  0  0  0  0  0
    2.0445   -2.6534    0.2305 H   0  0  0  0  0  0  0  0  0  0  0  0
    3.5478   -0.7913   -0.8255 B   0  0  0  0  0  2  0  0  0  0  0  0
    4.3403   -1.5278   -1.3748 H   0  0  0  0  0  0  0  0  0  0  0  0
    2.7720    1.8694   -0.0564 B   0  0  2  0  0  0  0  0  0  0  0  0
    2.8668    3.0750    0.0084 H   0  0  0  0  0  0  0  0  0  0  0  0
    3.1109    0.8215   -1.4498 B   0  0  1  0  0  0  0  0  0  0  0  0
    3.5649    1.2835   -2.4764 H   0  0  0  0  0  0  0  0  0  0  0  0
    3.0231    0.9319    1.4192 B   0  0  2  0  0  0  0  0  0  0  0  0
    3.2322    1.4146    2.5066 H   0  0  0  0  0  0  0  0  0  0  0  0
    4.0973    0.6790    0.0286 B   0  0  1  0  0  0  0  0  0  0  0  0
    5.2600    1.0158    0.0995 H   0  0  0  0  0  0  0  0  0  0  0  0
  1  2  1  1  0  0  0
  3  4  1  6  0  0  0
  3  7  1  0  0  0  0
  5  3  1  0  0  0  0
  5 13  1  0  0  0  0
  6  5  1  0  0  0  0
  7  1  1  0  0  0  0
  7  8  1  1  0  0  0
  9  1  1  0  0  0  0
  9 19  1  0  0  0  0
  9 10  1  1  0  0  0
 11 12  1  0  0  0  0
 11  1  1  0  0  0  0
 14 13  1  0  0  0  0
 15 16  1  6  0  0  0
 15  7  1  0  0  0  0
 15 19  1  0  0  0  0
 17 18  1  6  0  0  0
 17  3  1  0  0  0  0
 17 15  1  0  0  0  0
 17 21  1  0  0  0  0
 19 20  1  1  0  0  0
 21 22  1  1  0  0  0
 21  9  1  0  0  0  0
 21 19  1  0  0  0  0
M  END
