1
 OpenBabel05122313063D

 65 67  0  0  0  0  0  0  0  0999 V2000
   -0.0000   -0.0350   -0.2267 B   0  0  0  0  0  2  0  0  0  0  0  0
   -1.1451   -0.0268   -1.1303 N   0  0  0  0  0  0  0  0  0  0  0  0
   -0.6838   -0.0214   -2.4510 C   0  0  0  0  0  0  0  0  0  0  0  0
   -2.5513    0.0382   -0.8616 C   0  0  0  0  0  0  0  0  0  0  0  0
   -3.1624    1.3105   -0.6966 C   0  0  0  0  0  0  0  0  0  0  0  0
   -2.3719    2.6014   -0.8651 C   0  0  0  0  0  0  0  0  0  0  0  0
   -2.5100    3.1329   -2.3047 C   0  0  0  0  0  0  0  0  0  0  0  0
   -2.7552    3.6812    0.1565 C   0  0  0  0  0  0  0  0  0  0  0  0
   -4.5416    1.3515   -0.4231 C   0  0  0  0  0  0  0  0  0  0  0  0
   -5.2970    0.1764   -0.3320 C   0  0  0  0  0  0  0  0  0  0  0  0
   -4.6840   -1.0652   -0.5300 C   0  0  0  0  0  0  0  0  0  0  0  0
   -3.3066   -1.1611   -0.8029 C   0  0  0  0  0  0  0  0  0  0  0  0
   -2.6740   -2.5209   -1.0642 C   0  0  0  0  0  0  0  0  0  0  0  0
   -3.0372   -3.0246   -2.4732 C   0  0  0  0  0  0  0  0  0  0  0  0
   -3.0417   -3.5571    0.0088 C   0  0  0  0  0  0  0  0  0  0  0  0
   -1.3789   -0.0197   -3.2970 H   0  0  0  0  0  0  0  0  0  0  0  0
   -1.3028    2.3539   -0.7126 H   0  0  0  0  0  0  0  0  0  0  0  0
   -1.9087    4.0556   -2.4401 H   0  0  0  0  0  0  0  0  0  0  0  0
   -2.1615    2.3885   -3.0470 H   0  0  0  0  0  0  0  0  0  0  0  0
   -3.5681    3.3756   -2.5362 H   0  0  0  0  0  0  0  0  0  0  0  0
   -2.0478    4.5323    0.0989 H   0  0  0  0  0  0  0  0  0  0  0  0
   -2.7307    3.2907    1.1926 H   0  0  0  0  0  0  0  0  0  0  0  0
   -3.7715    4.0850   -0.0315 H   0  0  0  0  0  0  0  0  0  0  0  0
   -5.0340    2.3245   -0.2801 H   0  0  0  0  0  0  0  0  0  0  0  0
   -6.3738    0.2302   -0.1108 H   0  0  0  0  0  0  0  0  0  0  0  0
   -5.2862   -1.9843   -0.4701 H   0  0  0  0  0  0  0  0  0  0  0  0
   -1.5758   -2.3853   -1.0388 H   0  0  0  0  0  0  0  0  0  0  0  0
   -2.5515   -4.0010   -2.6777 H   0  0  0  0  0  0  0  0  0  0  0  0
   -2.7098   -2.3104   -3.2548 H   0  0  0  0  0  0  0  0  0  0  0  0
   -4.1338   -3.1603   -2.5789 H   0  0  0  0  0  0  0  0  0  0  0  0
   -2.4559   -4.4869   -0.1353 H   0  0  0  0  0  0  0  0  0  0  0  0
   -2.8307   -3.1780    1.0280 H   0  0  0  0  0  0  0  0  0  0  0  0
   -4.1161   -3.8313   -0.0337 H   0  0  0  0  0  0  0  0  0  0  0  0
    1.1450   -0.0268   -1.1303 N   0  0  0  0  0  0  0  0  0  0  0  0
    0.6836   -0.0213   -2.4510 C   0  0  0  0  0  0  0  0  0  0  0  0
    2.5512    0.0381   -0.8616 C   0  0  0  0  0  0  0  0  0  0  0  0
    3.1623    1.3104   -0.6965 C   0  0  0  0  0  0  0  0  0  0  0  0
    2.3719    2.6014   -0.8650 C   0  0  0  0  0  0  0  0  0  0  0  0
    2.5101    3.1329   -2.3046 C   0  0  0  0  0  0  0  0  0  0  0  0
    2.7551    3.6812    0.1566 C   0  0  0  0  0  0  0  0  0  0  0  0
    4.5416    1.3514   -0.4228 C   0  0  0  0  0  0  0  0  0  0  0  0
    5.2969    0.1763   -0.3319 C   0  0  0  0  0  0  0  0  0  0  0  0
    4.6839   -1.0653   -0.5301 C   0  0  0  0  0  0  0  0  0  0  0  0
    3.3065   -1.1611   -0.8031 C   0  0  0  0  0  0  0  0  0  0  0  0
    2.6740   -2.5209   -1.0645 C   0  0  0  0  0  0  0  0  0  0  0  0
    3.0370   -3.0244   -2.4736 C   0  0  0  0  0  0  0  0  0  0  0  0
    3.0418   -3.5573    0.0082 C   0  0  0  0  0  0  0  0  0  0  0  0
    1.3788   -0.0196   -3.2970 H   0  0  0  0  0  0  0  0  0  0  0  0
    1.3028    2.3539   -0.7126 H   0  0  0  0  0  0  0  0  0  0  0  0
    1.9088    4.0556   -2.4400 H   0  0  0  0  0  0  0  0  0  0  0  0
    2.1617    2.3885   -3.0470 H   0  0  0  0  0  0  0  0  0  0  0  0
    3.5682    3.3757   -2.5360 H   0  0  0  0  0  0  0  0  0  0  0  0
    2.0478    4.5323    0.0989 H   0  0  0  0  0  0  0  0  0  0  0  0
    2.7305    3.2907    1.1927 H   0  0  0  0  0  0  0  0  0  0  0  0
    3.7715    4.0849   -0.0313 H   0  0  0  0  0  0  0  0  0  0  0  0
    5.0339    2.3245   -0.2797 H   0  0  0  0  0  0  0  0  0  0  0  0
    6.3737    0.2302   -0.1106 H   0  0  0  0  0  0  0  0  0  0  0  0
    5.2861   -1.9843   -0.4703 H   0  0  0  0  0  0  0  0  0  0  0  0
    1.5758   -2.3854   -1.0389 H   0  0  0  0  0  0  0  0  0  0  0  0
    2.5513   -4.0007   -2.6782 H   0  0  0  0  0  0  0  0  0  0  0  0
    2.7095   -2.3099   -3.2550 H   0  0  0  0  0  0  0  0  0  0  0  0
    4.1336   -3.1600   -2.5795 H   0  0  0  0  0  0  0  0  0  0  0  0
    2.4560   -4.4871   -0.1359 H   0  0  0  0  0  0  0  0  0  0  0  0
    2.8310   -3.1784    1.0275 H   0  0  0  0  0  0  0  0  0  0  0  0
    4.1162   -3.8315   -0.0345 H   0  0  0  0  0  0  0  0  0  0  0  0
  2  4  1  0  0  0  0
  2  1  1  0  0  0  0
  3  2  1  0  0  0  0
  4 12  2  0  0  0  0
  4  5  1  0  0  0  0
  5  9  2  0  0  0  0
  6 17  1  0  0  0  0
  6  5  1  0  0  0  0
  6  8  1  0  0  0  0
  7  6  1  0  0  0  0
  8 22  1  0  0  0  0
  9 10  1  0  0  0  0
  9 24  1  0  0  0  0
 10 25  1  0  0  0  0
 11 26  1  0  0  0  0
 11 10  2  0  0  0  0
 12 11  1  0  0  0  0
 13 27  1  0  0  0  0
 13 12  1  0  0  0  0
 13 15  1  0  0  0  0
 14 13  1  0  0  0  0
 15 32  1  0  0  0  0
 16  3  1  0  0  0  0
 18  7  1  0  0  0  0
 19  7  1  0  0  0  0
 20  7  1  0  0  0  0
 21  8  1  0  0  0  0
 23  8  1  0  0  0  0
 28 14  1  0  0  0  0
 29 14  1  0  0  0  0
 30 14  1  0  0  0  0
 31 15  1  0  0  0  0
 33 15  1  0  0  0  0
 34 36  1  0  0  0  0
 34  1  1  0  0  0  0
 35  3  2  0  0  0  0
 35 34  1  0  0  0  0
 36 44  2  0  0  0  0
 36 37  1  0  0  0  0
 37 41  2  0  0  0  0
 38 49  1  0  0  0  0
 38 37  1  0  0  0  0
 38 40  1  0  0  0  0
 39 38  1  0  0  0  0
 40 54  1  0  0  0  0
 41 42  1  0  0  0  0
 41 56  1  0  0  0  0
 42 57  1  0  0  0  0
 43 58  1  0  0  0  0
 43 42  2  0  0  0  0
 44 43  1  0  0  0  0
 45 59  1  0  0  0  0
 45 44  1  0  0  0  0
 45 47  1  0  0  0  0
 46 45  1  0  0  0  0
 47 64  1  0  0  0  0
 48 35  1  0  0  0  0
 50 39  1  0  0  0  0
 51 39  1  0  0  0  0
 52 39  1  0  0  0  0
 53 40  1  0  0  0  0
 55 40  1  0  0  0  0
 60 46  1  0  0  0  0
 61 46  1  0  0  0  0
 62 46  1  0  0  0  0
 63 47  1  0  0  0  0
 65 47  1  0  0  0  0
M  END
