4
 OpenBabel05122313063D

 21 23  0  0  1  0  0  0  0  0999 V2000
    4.1556   -1.8301    0.6757 B   0  0  0  0  0  0  0  0  0  0  0  0
    4.6542   -2.4866   -0.8884 B   0  0  1  0  0  0  0  0  0  0  0  0
    3.4745   -3.3646    0.0760 B   0  0  0  0  0  0  0  0  0  0  0  0
    2.3843   -2.1297    0.7718 B   0  0  0  0  0  0  0  0  0  0  0  0
    3.0368   -0.4714    0.3820 B   0  0  2  0  0  0  0  0  0  0  0  0
    4.4205   -0.7399   -0.7198 B   0  0  2  0  0  0  0  0  0  0  0  0
    2.8734   -0.2019   -1.4334 B   0  0  0  0  0  2  0  0  0  0  0  0
    3.8086   -1.6090   -2.2010 B   0  0  0  0  0  0  0  0  0  0  0  0
    2.6767   -1.0307   -2.4917 H   0  0  0  0  0  0  0  0  0  0  0  0
    3.2227   -3.0630   -1.5803 C   0  0  2  0  0  0  0  0  0  0  0  0
    2.0210   -2.9108   -0.6607 C   0  0  1  0  0  0  0  0  0  0  0  0
    4.8938   -1.8195    1.6349 H   0  0  0  0  0  0  0  0  0  0  0  0
    5.7074   -2.9900   -1.2011 H   0  0  0  0  0  0  0  0  0  0  0  0
    3.6388   -4.4849    0.4952 H   0  0  0  0  0  0  0  0  0  0  0  0
    1.8103   -2.4278    1.8030 H   0  0  0  0  0  0  0  0  0  0  0  0
    3.0860    0.4693    1.1508 H   0  0  0  0  0  0  0  0  0  0  0  0
    3.2573   -3.9531   -2.2236 H   0  0  0  0  0  0  0  0  0  0  0  0
    5.3646    0.0178   -0.7696 H   0  0  0  0  0  0  0  0  0  0  0  0
    1.2948   -3.7379   -0.7100 H   0  0  0  0  0  0  0  0  0  0  0  0
    2.8029    0.8888   -1.9564 H   0  0  0  0  0  0  0  0  0  0  0  0
    4.4147   -1.5839   -3.2507 H   0  0  0  0  0  0  0  0  0  0  0  0
  1 12  1  0  0  0  0
  2 13  1  6  0  0  0
  2  3  1  0  0  0  0
  2  1  1  0  0  0  0
  3 14  1  0  0  0  0
  4 15  1  0  0  0  0
  5  1  1  0  0  0  0
  5  4  1  0  0  0  0
  5 16  1  1  0  0  0
  6 18  1  1  0  0  0
  6  5  1  0  0  0  0
  7  6  1  0  0  0  0
  8 10  1  0  0  0  0
  8  6  1  0  0  0  0
  9  8  1  0  0  0  0
 10 17  1  6  0  0  0
 10  2  1  0  0  0  0
 10 11  1  0  0  0  0
 11 19  1  6  0  0  0
 11  3  1  0  0  0  0
 11  4  1  0  0  0  0
 20  7  1  0  0  0  0
 21  8  1  0  0  0  0
M  END
