8
 OpenBabel05122313063D

 40 44  0  0  1  0  0  0  0  0999 V2000
   -0.5594    2.3762    0.5993 C   0  0  1  0  0  0  0  0  0  0  0  0
   -1.5403    2.2332    1.0735 H   0  0  0  0  0  0  0  0  0  0  0  0
    0.8206    1.6647    1.2708 B   0  0  2  0  0  0  0  0  0  0  0  0
    0.8151    1.0184    2.2936 H   0  0  0  0  0  0  0  0  0  0  0  0
    1.9802    1.5410   -0.1073 B   0  0  2  0  0  0  0  0  0  0  0  0
    1.1952    2.1207   -1.6266 B   0  0  0  0  0  0  0  0  0  0  0  0
    1.5361    1.8167   -2.7499 H   0  0  0  0  0  0  0  0  0  0  0  0
   -0.4813    2.6037   -1.0901 B   0  0  0  0  0  2  0  0  0  0  0  0
   -1.4949    2.6826   -1.7457 H   0  0  0  0  0  0  0  0  0  0  0  0
    0.4697    3.3866    1.5030 B   0  0  1  0  0  0  0  0  0  0  0  0
    0.1277    3.7578    2.6016 H   0  0  0  0  0  0  0  0  0  0  0  0
    2.1176    2.8897    1.0568 B   0  0  1  0  0  0  0  0  0  0  0  0
    3.0451    2.9273    1.8375 H   0  0  0  0  0  0  0  0  0  0  0  0
    2.3275    3.1910   -0.7038 B   0  0  1  0  0  0  0  0  0  0  0  0
    3.4161    3.4618   -1.1662 H   0  0  0  0  0  0  0  0  0  0  0  0
    0.7934    3.8357   -1.3290 B   0  0  0  0  0  0  0  0  0  0  0  0
    0.7433    4.6055   -2.2625 H   0  0  0  0  0  0  0  0  0  0  0  0
   -0.3375    3.9690    0.0410 B   0  0  2  0  0  0  0  0  0  0  0  0
   -1.2538    4.7530    0.1207 H   0  0  0  0  0  0  0  0  0  0  0  0
    1.3914    4.3235    0.2884 B   0  0  0  0  0  0  0  0  0  0  0  0
    1.7795    5.4444    0.5310 H   0  0  0  0  0  0  0  0  0  0  0  0
    3.1932    0.6304   -0.0434 C   0  0  0  0  0  2  0  0  0  0  0  0
    4.1471   -0.0606    0.0198 N   0  0  0  0  0  2  0  0  0  0  0  0
    5.3695   -0.6821    0.1265 C   0  0  0  0  0  0  0  0  0  0  0  0
    6.5172    0.1465    0.2666 C   0  0  0  0  0  0  0  0  0  0  0  0
    7.7586   -0.5010    0.3756 C   0  0  0  0  0  0  0  0  0  0  0  0
    8.6679    0.1092    0.4841 H   0  0  0  0  0  0  0  0  0  0  0  0
    7.8479   -1.9008    0.3492 C   0  0  0  0  0  0  0  0  0  0  0  0
    8.8318   -2.3854    0.4371 H   0  0  0  0  0  0  0  0  0  0  0  0
    6.6954   -2.6887    0.2129 C   0  0  0  0  0  0  0  0  0  0  0  0
    6.7757   -3.7861    0.1945 H   0  0  0  0  0  0  0  0  0  0  0  0
    5.4251   -2.1004    0.0971 C   0  0  0  0  0  0  0  0  0  0  0  0
    6.3771    1.6423    0.2949 C   0  0  0  0  0  0  0  0  0  0  0  0
    7.3609    2.1329    0.4098 H   0  0  0  0  0  0  0  0  0  0  0  0
    5.7227    1.9740    1.1285 H   0  0  0  0  0  0  0  0  0  0  0  0
    5.9030    2.0255   -0.6332 H   0  0  0  0  0  0  0  0  0  0  0  0
    4.1702   -2.9133   -0.0553 C   0  0  0  0  0  0  0  0  0  0  0  0
    4.3940   -3.9956   -0.0302 H   0  0  0  0  0  0  0  0  0  0  0  0
    3.6569   -2.6861   -1.0125 H   0  0  0  0  0  0  0  0  0  0  0  0
    3.4398   -2.6929    0.7509 H   0  0  0  0  0  0  0  0  0  0  0  0
  1  2  1  1  0  0  0
  1  3  1  0  0  0  0
  1 10  1  0  0  0  0
  3 10  1  0  0  0  0
  3  4  1  1  0  0  0
  5 22  1  6  0  0  0
  5 12  1  0  0  0  0
  6 16  1  0  0  0  0
  6  5  1  0  0  0  0
  7  6  1  0  0  0  0
  8 18  1  0  0  0  0
  9  8  1  0  0  0  0
 10 11  1  1  0  0  0
 12  3  1  0  0  0  0
 12 13  1  1  0  0  0
 14 15  1  6  0  0  0
 14  5  1  0  0  0  0
 14 20  1  0  0  0  0
 16 14  1  0  0  0  0
 17 16  1  0  0  0  0
 18 19  1  1  0  0  0
 18  1  1  0  0  0  0
 18 10  1  0  0  0  0
 20 21  1  0  0  0  0
 20 12  1  0  0  0  0
 22 23  1  0  0  0  0
 23 24  1  0  0  0  0
 24 25  1  0  0  0  0
 25 33  1  0  0  0  0
 25 26  2  0  0  0  0
 26 27  1  0  0  0  0
 28 26  1  0  0  0  0
 28 29  1  0  0  0  0
 30 28  2  0  0  0  0
 31 30  1  0  0  0  0
 32 24  2  0  0  0  0
 32 30  1  0  0  0  0
 33 34  1  0  0  0  0
 33 35  1  0  0  0  0
 36 33  1  0  0  0  0
 37 38  1  0  0  0  0
 37 32  1  0  0  0  0
 37 40  1  0  0  0  0
 39 37  1  0  0  0  0
M  END
