5
 OpenBabel05122313063D

 36 39  0  0  1  0  0  0  0  0999 V2000
    1.0025    0.5285   -0.2379 C   0  0  1  0  0  0  0  0  0  0  0  0
   -0.1089    0.9142   -1.4995 B   0  0  0  0  0  0  0  0  0  0  0  0
   -1.6642    1.5193   -0.7786 B   0  0  2  0  0  0  0  0  0  0  0  0
   -1.4727    1.3842    1.0109 B   0  0  2  0  0  0  0  0  0  0  0  0
    0.1893    0.6948    1.3036 B   0  0  0  0  0  2  0  0  0  0  0  0
    1.1870    2.0461   -1.0373 B   0  0  1  0  0  0  0  0  0  0  0  0
   -0.4363    2.6581   -1.3719 B   0  0  1  0  0  0  0  0  0  0  0  0
   -1.2571    2.9472    0.1941 B   0  0  1  0  0  0  0  0  0  0  0  0
   -0.1177    2.4307    1.4863 B   0  0  1  0  0  0  0  0  0  0  0  0
    1.3811    1.8952    0.7173 B   0  0  1  0  0  0  0  0  0  0  0  0
    0.4801    3.2741    0.0293 B   0  0  0  0  0  2  0  0  0  0  0  0
    1.9439   -0.4729   -0.5567 N   0  0  0  0  0  0  0  0  0  0  0  0
    3.2365   -0.8071    0.0886 C   0  0  0  0  0  0  0  0  0  0  0  0
    4.3181    0.2427   -0.2506 C   0  0  0  0  0  0  0  0  0  0  0  0
    3.0973   -0.9694    1.6077 C   0  0  0  0  0  0  0  0  0  0  0  0
    3.6530   -2.1604   -0.5195 C   0  0  0  0  0  0  0  0  0  0  0  0
    0.0233    0.3294   -2.5567 H   0  0  0  0  0  0  0  0  0  0  0  0
   -2.7274    1.4106   -1.3572 H   0  0  0  0  0  0  0  0  0  0  0  0
   -2.3853    1.1803    1.7844 H   0  0  0  0  0  0  0  0  0  0  0  0
    0.4867   -0.0178    2.2332 H   0  0  0  0  0  0  0  0  0  0  0  0
    2.1479    2.1357   -1.7664 H   0  0  0  0  0  0  0  0  0  0  0  0
   -0.6554    3.3050   -2.3724 H   0  0  0  0  0  0  0  0  0  0  0  0
   -2.0654    3.8341    0.3630 H   0  0  0  0  0  0  0  0  0  0  0  0
   -0.0995    2.9267    2.5912 H   0  0  0  0  0  0  0  0  0  0  0  0
    2.4596    1.9487    1.2515 H   0  0  0  0  0  0  0  0  0  0  0  0
    0.9501    4.3884    0.0735 H   0  0  0  0  0  0  0  0  0  0  0  0
    2.0210   -0.5625   -1.5739 H   0  0  0  0  0  0  0  0  0  0  0  0
    5.2951   -0.0503    0.1848 H   0  0  0  0  0  0  0  0  0  0  0  0
    4.0459    1.2392    0.1412 H   0  0  0  0  0  0  0  0  0  0  0  0
    4.4446    0.3304   -1.3487 H   0  0  0  0  0  0  0  0  0  0  0  0
    4.0620   -1.3188    2.0252 H   0  0  0  0  0  0  0  0  0  0  0  0
    2.3215   -1.7195    1.8570 H   0  0  0  0  0  0  0  0  0  0  0  0
    2.8330   -0.0197    2.1042 H   0  0  0  0  0  0  0  0  0  0  0  0
    4.6527   -2.4617   -0.1500 H   0  0  0  0  0  0  0  0  0  0  0  0
    3.7115   -2.1006   -1.6268 H   0  0  0  0  0  0  0  0  0  0  0  0
    2.9320   -2.9594   -0.2512 H   0  0  0  0  0  0  0  0  0  0  0  0
  1 12  1  6  0  0  0
  1 10  1  0  0  0  0
  2  7  1  0  0  0  0
  2  1  1  0  0  0  0
  3 18  1  6  0  0  0
  3  8  1  0  0  0  0
  3  4  1  0  0  0  0
  4  9  1  0  0  0  0
  4 19  1  1  0  0  0
  5  9  1  0  0  0  0
  5 20  1  0  0  0  0
  6 21  1  6  0  0  0
  6  1  1  0  0  0  0
  6 10  1  0  0  0  0
  7 22  1  6  0  0  0
  7  6  1  0  0  0  0
  7  3  1  0  0  0  0
  8 23  1  1  0  0  0
  8  4  1  0  0  0  0
  9 24  1  1  0  0  0
 10 25  1  1  0  0  0
 10  9  1  0  0  0  0
 11 26  1  0  0  0  0
 11  8  1  0  0  0  0
 12 13  1  0  0  0  0
 13 15  1  0  0  0  0
 14 13  1  0  0  0  0
 14 29  1  0  0  0  0
 14 28  1  0  0  0  0
 15 32  1  0  0  0  0
 15 31  1  0  0  0  0
 15 33  1  0  0  0  0
 16 36  1  0  0  0  0
 16 34  1  0  0  0  0
 16 13  1  0  0  0  0
 17  2  1  0  0  0  0
 27 12  1  0  0  0  0
 30 14  1  0  0  0  0
 35 16  1  0  0  0  0
M  END
