6
 OpenBabel05122313063D

 49 52  0  0  1  0  0  0  0  0999 V2000
    2.8215   -1.3664    0.0173 N   0  3  0  0  0  0  0  0  0  0  0  0
    2.1474   -0.4926   -0.9922 C   0  0  2  0  0  0  0  0  0  0  0  0
    0.9265   -1.0479   -2.0908 B   0  0  0  0  0  0  0  0  0  0  0  0
   -0.2660    0.3565   -2.4199 B   0  0  2  0  0  0  0  0  0  0  0  0
    0.2361    1.7205   -1.3575 B   0  0  0  0  0  0  0  0  0  0  0  0
    1.6942    1.1092   -0.4082 B   0  0  0  0  0  2  0  0  0  0  0  0
    2.5545   -0.5039   -2.6364 B   0  0  1  0  0  0  0  0  0  0  0  0
    1.0996   -0.0073   -3.5164 B   0  0  1  0  0  0  0  0  0  0  0  0
    0.7247    1.6906   -3.0668 B   0  0  1  0  0  0  0  0  0  0  0  0
    1.9076    2.1698   -1.8096 B   0  0  0  0  0  0  0  0  0  0  0  0
    3.0406    0.8194   -1.5807 B   0  0  1  0  0  0  0  0  0  0  0  0
    2.4129    1.1712   -3.2007 B   0  0  1  0  0  0  0  0  0  0  0  0
    3.8141   -2.4986   -0.2679 C   0  0  0  0  0  0  0  0  0  0  0  0
    4.0834   -3.0854    1.1304 C   0  0  0  0  0  0  0  0  0  0  0  0
    5.1116   -1.9306   -0.8510 C   0  0  0  0  0  0  0  0  0  0  0  0
    3.1631   -3.5568   -1.1615 C   0  0  0  0  0  0  0  0  0  0  0  0
    1.9915    1.5679    1.1248 C   0  0  0  0  0  0  0  0  0  0  0  0
    3.4520    1.5287    1.4407 C   0  0  0  0  0  0  0  0  0  0  0  0
    5.4475    2.8097    1.7293 C   0  0  0  0  0  0  0  0  0  0  0  0
    6.1620    2.8915    0.3922 C   0  0  0  0  0  0  0  0  0  0  0  0
    4.1015    0.4804    1.5678 O   0  0  0  0  0  0  0  0  0  0  0  0
    4.0090    2.7394    1.5426 O   0  0  0  0  0  0  0  0  0  0  0  0
    2.0317   -1.8007    0.5757 H   0  0  0  0  0  0  0  0  0  0  0  0
    3.3172   -0.7119    0.6990 H   0  0  0  0  0  0  0  0  0  0  0  0
    0.6246   -2.2209   -2.1362 H   0  0  0  0  0  0  0  0  0  0  0  0
   -1.3763    0.0985   -2.8335 H   0  0  0  0  0  0  0  0  0  0  0  0
   -0.4585    2.5956   -0.8862 H   0  0  0  0  0  0  0  0  0  0  0  0
    3.3327   -1.3219   -3.0541 H   0  0  0  0  0  0  0  0  0  0  0  0
    0.8824   -0.4633   -4.6177 H   0  0  0  0  0  0  0  0  0  0  0  0
    0.2604    2.4766   -3.8638 H   0  0  0  0  0  0  0  0  0  0  0  0
    2.2909    3.3073   -1.6362 H   0  0  0  0  0  0  0  0  0  0  0  0
    4.1775    0.9289   -1.1910 H   0  0  0  0  0  0  0  0  0  0  0  0
    3.1519    1.5774   -4.0698 H   0  0  0  0  0  0  0  0  0  0  0  0
    4.5229   -2.3251    1.8070 H   0  0  0  0  0  0  0  0  0  0  0  0
    4.7987   -3.9255    1.0446 H   0  0  0  0  0  0  0  0  0  0  0  0
    3.1510   -3.4719    1.5901 H   0  0  0  0  0  0  0  0  0  0  0  0
    5.5314   -1.1515   -0.1848 H   0  0  0  0  0  0  0  0  0  0  0  0
    4.9598   -1.4933   -1.8527 H   0  0  0  0  0  0  0  0  0  0  0  0
    5.8523   -2.7496   -0.9366 H   0  0  0  0  0  0  0  0  0  0  0  0
    2.9697   -3.1786   -2.1803 H   0  0  0  0  0  0  0  0  0  0  0  0
    2.2045   -3.9024   -0.7262 H   0  0  0  0  0  0  0  0  0  0  0  0
    3.8430   -4.4277   -1.2375 H   0  0  0  0  0  0  0  0  0  0  0  0
    1.5925    2.5899    1.2563 H   0  0  0  0  0  0  0  0  0  0  0  0
    1.4767    0.8830    1.8307 H   0  0  0  0  0  0  0  0  0  0  0  0
    5.7725    1.9265    2.3138 H   0  0  0  0  0  0  0  0  0  0  0  0
    5.6012    3.7256    2.3323 H   0  0  0  0  0  0  0  0  0  0  0  0
    7.2492    3.0337    0.5555 H   0  0  0  0  0  0  0  0  0  0  0  0
    5.7840    3.7419   -0.2084 H   0  0  0  0  0  0  0  0  0  0  0  0
    6.0169    1.9631   -0.1935 H   0  0  0  0  0  0  0  0  0  0  0  0
  1 23  1  0  0  0  0
  1 24  1  0  0  0  0
  2  1  1  1  0  0  0
  3  2  1  0  0  0  0
  4 26  1  6  0  0  0
  4  5  1  0  0  0  0
  5 27  1  0  0  0  0
  6 17  1  0  0  0  0
  7 28  1  6  0  0  0
  7 11  1  0  0  0  0
  7  2  1  0  0  0  0
  8 29  1  6  0  0  0
  8  7  1  0  0  0  0
  8  4  1  0  0  0  0
  8  3  1  0  0  0  0
  9 30  1  6  0  0  0
  9  4  1  0  0  0  0
  9  5  1  0  0  0  0
 10 31  1  0  0  0  0
 10  6  1  0  0  0  0
 11 32  1  1  0  0  0
 11  2  1  0  0  0  0
 12 33  1  6  0  0  0
 12  9  1  0  0  0  0
 12 10  1  0  0  0  0
 12 11  1  0  0  0  0
 13  1  1  0  0  0  0
 13 14  1  0  0  0  0
 14 36  1  0  0  0  0
 14 34  1  0  0  0  0
 15 13  1  0  0  0  0
 15 37  1  0  0  0  0
 16 41  1  0  0  0  0
 16 13  1  0  0  0  0
 17 43  1  0  0  0  0
 17 18  1  0  0  0  0
 17 44  1  0  0  0  0
 18 22  1  0  0  0  0
 18 21  2  0  0  0  0
 19 45  1  0  0  0  0
 19 46  1  0  0  0  0
 20 47  1  0  0  0  0
 20 19  1  0  0  0  0
 22 19  1  0  0  0  0
 25  3  1  0  0  0  0
 35 14  1  0  0  0  0
 38 15  1  0  0  0  0
 39 15  1  0  0  0  0
 40 16  1  0  0  0  0
 42 16  1  0  0  0  0
 48 20  1  0  0  0  0
 49 20  1  0  0  0  0
M  CHG  1   1   1
M  END
