9
 OpenBabel05122313063D

 22 25  0  0  1  0  0  0  0  0999 V2000
   -0.7071    1.4128    0.0000 C   0  0  2  0  0  0  0  0  0  0  0  0
   -0.3025    2.4351    0.0001 H   0  0  0  0  0  0  0  0  0  0  0  0
   -0.6082    0.4840    1.4414 B   0  0  0  0  0  0  0  0  0  0  0  0
   -0.1384    0.9281    2.4645 H   0  0  0  0  0  0  0  0  0  0  0  0
   -2.1447    1.2210    0.8853 B   0  0  1  0  0  0  0  0  0  0  0  0
   -2.6196    2.1393    1.5069 H   0  0  0  0  0  0  0  0  0  0  0  0
   -2.1446    1.2210   -0.8852 B   0  0  2  0  0  0  0  0  0  0  0  0
   -2.6196    2.1394   -1.5068 H   0  0  0  0  0  0  0  0  0  0  0  0
   -0.6082    0.4841   -1.4414 B   0  0  0  0  0  0  0  0  0  0  0  0
   -0.1384    0.9282   -2.4644 H   0  0  0  0  0  0  0  0  0  0  0  0
   -0.6003   -1.2398    0.9059 B   0  0  0  0  0  0  0  0  0  0  0  0
   -0.2241   -2.2050    1.5316 H   0  0  0  0  0  0  0  0  0  0  0  0
   -2.1099   -0.4673    1.4425 B   0  0  0  0  0  0  0  0  0  0  0  0
   -2.6845   -0.8941    2.4132 H   0  0  0  0  0  0  0  0  0  0  0  0
   -3.0558   -0.0119   -0.0000 B   0  0  1  0  0  0  0  0  0  0  0  0
   -4.2545   -0.1384   -0.0000 H   0  0  0  0  0  0  0  0  0  0  0  0
   -2.1098   -0.4672   -1.4425 B   0  0  0  0  0  0  0  0  0  0  0  0
   -2.6844   -0.8940   -2.4133 H   0  0  0  0  0  0  0  0  0  0  0  0
   -0.6003   -1.2397   -0.9059 B   0  0  0  0  0  0  0  0  0  0  0  0
   -0.2241   -2.2049   -1.5318 H   0  0  0  0  0  0  0  0  0  0  0  0
   -2.0404   -1.3787   -0.0000 C   0  0  1  0  0  0  0  0  0  0  0  0
   -2.5379   -2.3572   -0.0001 H   0  0  0  0  0  0  0  0  0  0  0  0
  1  2  1  6  0  0  0
  1  5  1  0  0  0  0
  1  3  1  0  0  0  0
  3 13  1  0  0  0  0
  3  4  1  0  0  0  0
  5  6  1  1  0  0  0
  7  8  1  6  0  0  0
  7 15  1  0  0  0  0
  7  1  1  0  0  0  0
  7  5  1  0  0  0  0
  9 19  1  0  0  0  0
 10  9  1  0  0  0  0
 11 13  1  0  0  0  0
 11 12  1  0  0  0  0
 13 14  1  0  0  0  0
 15 16  1  6  0  0  0
 15  5  1  0  0  0  0
 17  9  1  0  0  0  0
 17 19  1  0  0  0  0
 18 17  1  0  0  0  0
 19 21  1  0  0  0  0
 20 19  1  0  0  0  0
 21 22  1  6  0  0  0
 21 15  1  0  0  0  0
 21 11  1  0  0  0  0
M  END
