35
 OpenBabel05122313063D

 35 35  0  0  0  0  0  0  0  0999 V2000
    0.5190    1.8824    0.0051 O   0  0  0  0  0  0  0  0  0  0  0  0
   -1.2325   -0.0582    0.0232 C   0  0  0  0  0  0  0  0  0  0  0  0
   -1.8739   -0.3809   -1.2085 C   0  0  0  0  0  0  0  0  0  0  0  0
   -3.1562   -0.9542   -1.1966 C   0  0  0  0  0  0  0  0  0  0  0  0
   -3.6437   -1.1899   -2.1577 H   0  0  0  0  0  0  0  0  0  0  0  0
   -3.8329   -1.2436    0.0055 C   0  0  0  0  0  0  0  0  0  0  0  0
   -3.1780   -0.9475    1.2113 C   0  0  0  0  0  0  0  0  0  0  0  0
   -3.6825   -1.1761    2.1654 H   0  0  0  0  0  0  0  0  0  0  0  0
   -1.8964   -0.3613    1.2395 C   0  0  0  0  0  0  0  0  0  0  0  0
   -1.1618   -0.1786   -2.5264 C   0  0  0  0  0  0  0  0  0  0  0  0
   -0.4612   -1.0175   -2.7298 H   0  0  0  0  0  0  0  0  0  0  0  0
   -0.5473    0.7414   -2.5421 H   0  0  0  0  0  0  0  0  0  0  0  0
   -1.8744   -0.1317   -3.3730 H   0  0  0  0  0  0  0  0  0  0  0  0
   -5.2166   -1.8438   -0.0149 C   0  0  0  0  0  0  0  0  0  0  0  0
   -5.9639   -1.1183   -0.4014 H   0  0  0  0  0  0  0  0  0  0  0  0
   -5.5437   -2.1524    0.9971 H   0  0  0  0  0  0  0  0  0  0  0  0
   -5.2651   -2.7333   -0.6765 H   0  0  0  0  0  0  0  0  0  0  0  0
   -1.2619   -0.0596    2.5797 C   0  0  0  0  0  0  0  0  0  0  0  0
   -1.7738    0.7831    3.0898 H   0  0  0  0  0  0  0  0  0  0  0  0
   -0.1937    0.2165    2.4821 H   0  0  0  0  0  0  0  0  0  0  0  0
   -1.3304   -0.9302    3.2648 H   0  0  0  0  0  0  0  0  0  0  0  0
   -0.3008    3.0874    0.0191 C   0  0  0  0  0  0  0  0  0  0  0  0
   -1.1964    3.1122    1.2608 C   0  0  0  0  0  0  0  0  0  0  0  0
   -1.9717    2.3251    1.2099 H   0  0  0  0  0  0  0  0  0  0  0  0
   -1.7062    4.0933    1.3377 H   0  0  0  0  0  0  0  0  0  0  0  0
   -0.5919    2.9644    2.1771 H   0  0  0  0  0  0  0  0  0  0  0  0
   -1.1342    3.1692   -1.2629 C   0  0  0  0  0  0  0  0  0  0  0  0
   -0.4810    3.0983   -2.1551 H   0  0  0  0  0  0  0  0  0  0  0  0
   -1.6692    4.1390   -1.3049 H   0  0  0  0  0  0  0  0  0  0  0  0
   -1.8877    2.3595   -1.3020 H   0  0  0  0  0  0  0  0  0  0  0  0
    0.7279    4.2229    0.0719 C   0  0  0  0  0  0  0  0  0  0  0  0
    1.3570    4.1232    0.9782 H   0  0  0  0  0  0  0  0  0  0  0  0
    0.2280    5.2113    0.0897 H   0  0  0  0  0  0  0  0  0  0  0  0
    1.3926    4.1749   -0.8130 H   0  0  0  0  0  0  0  0  0  0  0  0
    0.2305    0.5468    0.0156 B   0  0  0  0  0  2  0  0  0  0  0  0
  1 35  1  0  0  0  0
  1 22  1  0  0  0  0
  2  9  1  0  0  0  0
  3  4  1  0  0  0  0
  3  2  2  0  0  0  0
  4  6  2  0  0  0  0
  5  4  1  0  0  0  0
  6  7  1  0  0  0  0
  7  9  2  0  0  0  0
  7  8  1  0  0  0  0
  9 18  1  0  0  0  0
 10  3  1  0  0  0  0
 11 10  1  0  0  0  0
 12 10  1  0  0  0  0
 13 10  1  0  0  0  0
 14  6  1  0  0  0  0
 14 16  1  0  0  0  0
 15 14  1  0  0  0  0
 17 14  1  0  0  0  0
 18 19  1  0  0  0  0
 18 21  1  0  0  0  0
 20 18  1  0  0  0  0
 22 31  1  0  0  0  0
 22 23  1  0  0  0  0
 23 25  1  0  0  0  0
 23 26  1  0  0  0  0
 24 23  1  0  0  0  0
 27 22  1  0  0  0  0
 28 27  1  0  0  0  0
 29 27  1  0  0  0  0
 30 27  1  0  0  0  0
 31 33  1  0  0  0  0
 31 32  1  0  0  0  0
 34 31  1  0  0  0  0
 35  2  1  0  0  0  0
M  END
