1
 OpenBabel05122313063D

 38 39  0  0  0  0  0  0  0  0999 V2000
   -1.4204    0.0671    0.8291 B   0  0  0  0  0  2  0  0  0  0  0  0
   -2.8306    0.2084    1.5865 C   0  0  0  0  0  0  0  0  0  0  0  0
   -2.7285   -0.6396    2.8759 C   0  0  0  0  0  0  0  0  0  0  0  0
   -3.6446   -0.5138    3.4929 H   0  0  0  0  0  0  0  0  0  0  0  0
   -1.8576   -0.3407    3.4916 H   0  0  0  0  0  0  0  0  0  0  0  0
   -2.6275   -1.7237    2.6555 H   0  0  0  0  0  0  0  0  0  0  0  0
   -2.9604    1.7003    1.9857 C   0  0  0  0  0  0  0  0  0  0  0  0
   -3.8647    1.8478    2.6157 H   0  0  0  0  0  0  0  0  0  0  0  0
   -3.0655    2.3519    1.0952 H   0  0  0  0  0  0  0  0  0  0  0  0
   -2.0823    2.0436    2.5679 H   0  0  0  0  0  0  0  0  0  0  0  0
   -4.0862   -0.2070    0.8028 C   0  0  0  0  0  0  0  0  0  0  0  0
   -4.9946   -0.0108    1.4122 H   0  0  0  0  0  0  0  0  0  0  0  0
   -4.0952   -1.2890    0.5611 H   0  0  0  0  0  0  0  0  0  0  0  0
   -4.1974    0.3605   -0.1415 H   0  0  0  0  0  0  0  0  0  0  0  0
    0.6981    0.1942    0.4984 C   0  0  0  0  0  3  0  0  0  0  0  0
   -0.2893    0.2460    1.5616 O   0  0  0  0  0  0  0  0  0  0  0  0
    1.2774    1.5934    0.3419 C   0  0  0  0  0  0  0  0  0  0  0  0
    2.6523    1.8345    0.1353 C   0  0  0  0  0  0  0  0  0  0  0  0
    3.3581    0.9943    0.1083 H   0  0  0  0  0  0  0  0  0  0  0  0
    3.1478    3.1388   -0.0171 C   0  0  0  0  0  0  0  0  0  0  0  0
    4.2264    3.2890   -0.1780 H   0  0  0  0  0  0  0  0  0  0  0  0
    2.2852    4.2410    0.0457 C   0  0  0  0  0  0  0  0  0  0  0  0
    2.6736    5.2634   -0.0758 H   0  0  0  0  0  0  0  0  0  0  0  0
    0.9173    4.0206    0.2750 C   0  0  0  0  0  0  0  0  0  0  0  0
    0.2220    4.8714    0.3400 H   0  0  0  0  0  0  0  0  0  0  0  0
    0.4249    2.7190    0.4219 C   0  0  0  0  0  0  0  0  0  0  0  0
   -0.6485    2.5814    0.6048 H   0  0  0  0  0  0  0  0  0  0  0  0
    1.7097   -0.8824    0.7740 C   0  0  0  0  0  0  0  0  0  0  0  0
    1.7263   -1.5431    2.0207 C   0  0  0  0  0  0  0  0  0  0  0  0
    0.9978   -1.2449    2.7870 H   0  0  0  0  0  0  0  0  0  0  0  0
    2.6465   -2.5719    2.2789 C   0  0  0  0  0  0  0  0  0  0  0  0
    2.6348   -3.0758    3.2579 H   0  0  0  0  0  0  0  0  0  0  0  0
    3.5791   -2.9547    1.3039 C   0  0  0  0  0  0  0  0  0  0  0  0
    4.2981   -3.7629    1.5056 H   0  0  0  0  0  0  0  0  0  0  0  0
    3.5842   -2.2920    0.0638 C   0  0  0  0  0  0  0  0  0  0  0  0
    4.3109   -2.5792   -0.7118 H   0  0  0  0  0  0  0  0  0  0  0  0
    2.6622   -1.2713   -0.1982 C   0  0  0  0  0  0  0  0  0  0  0  0
    2.6627   -0.7825   -1.1835 H   0  0  0  0  0  0  0  0  0  0  0  0
  1 16  1  0  0  0  0
  1  2  1  0  0  0  0
  2  7  1  0  0  0  0
  2  3  1  0  0  0  0
  3  5  1  0  0  0  0
  3  4  1  0  0  0  0
  6  3  1  0  0  0  0
  7 10  1  0  0  0  0
  7  8  1  0  0  0  0
  9  7  1  0  0  0  0
 11 12  1  0  0  0  0
 11  2  1  0  0  0  0
 13 11  1  0  0  0  0
 14 11  1  0  0  0  0
 15 28  1  0  0  0  0
 15 16  1  0  0  0  0
 17 26  1  0  0  0  0
 17 15  1  0  0  0  0
 18 17  2  0  0  0  0
 19 18  1  0  0  0  0
 20 22  2  0  0  0  0
 20 18  1  0  0  0  0
 21 20  1  0  0  0  0
 22 24  1  0  0  0  0
 23 22  1  0  0  0  0
 24 25  1  0  0  0  0
 24 26  2  0  0  0  0
 26 27  1  0  0  0  0
 28 29  1  0  0  0  0
 29 31  2  0  0  0  0
 29 30  1  0  0  0  0
 31 32  1  0  0  0  0
 33 34  1  0  0  0  0
 33 31  1  0  0  0  0
 35 33  2  0  0  0  0
 36 35  1  0  0  0  0
 37 35  1  0  0  0  0
 37 28  2  0  0  0  0
 38 37  1  0  0  0  0
M  END
