5
 OpenBabel05122313063D

 19 18  0  0  0  0  0  0  0  0999 V2000
   -3.1389    0.0410   -0.0181 P   0  0  0  0  0  4  0  0  0  0  0  0
   -1.5317   -0.7145    0.7262 B   0  0  0  0  0  0  0  0  0  0  0  0
   -1.4948   -0.3960    1.9131 H   0  0  0  0  0  0  0  0  0  0  0  0
   -1.8232   -1.9939    0.7990 H   0  0  0  0  0  0  0  0  0  0  0  0
   -0.7965   -2.1386   -0.1413 B   0  0  0  0  0  0  0  0  0  0  0  0
   -1.4473   -2.6052   -1.0714 H   0  0  0  0  0  0  0  0  0  0  0  0
   -0.1401   -2.9606    0.4925 H   0  0  0  0  0  0  0  0  0  0  0  0
   -3.4828   -0.4031   -1.7565 C   0  0  0  0  0  0  0  0  0  0  0  0
   -4.3839    0.1204   -2.1307 H   0  0  0  0  0  0  0  0  0  0  0  0
   -3.6235   -1.4990   -1.8181 H   0  0  0  0  0  0  0  0  0  0  0  0
   -2.5953   -0.1366   -2.3611 H   0  0  0  0  0  0  0  0  0  0  0  0
   -4.6800   -0.4009    0.8853 C   0  0  0  0  0  0  0  0  0  0  0  0
   -5.5702    0.1032    0.4592 H   0  0  0  0  0  0  0  0  0  0  0  0
   -4.5670   -0.1134    1.9489 H   0  0  0  0  0  0  0  0  0  0  0  0
   -4.8215   -1.4984    0.8354 H   0  0  0  0  0  0  0  0  0  0  0  0
   -3.0808    1.8685    0.0557 C   0  0  0  0  0  0  0  0  0  0  0  0
   -4.0140    2.3200   -0.3336 H   0  0  0  0  0  0  0  0  0  0  0  0
   -2.2087    2.2055   -0.5361 H   0  0  0  0  0  0  0  0  0  0  0  0
   -2.9284    2.1732    1.1097 H   0  0  0  0  0  0  0  0  0  0  0  0
  1 16  1  0  0  0  0
  1  2  1  0  0  0  0
  1 12  1  0  0  0  0
  2  4  1  0  0  0  0
  2  3  1  0  0  0  0
  5  7  1  0  0  0  0
  5  2  1  0  0  0  0
  6  5  1  0  0  0  0
  8  1  1  0  0  0  0
  9  8  1  0  0  0  0
 10  8  1  0  0  0  0
 11  8  1  0  0  0  0
 12 14  1  0  0  0  0
 13 12  1  0  0  0  0
 15 12  1  0  0  0  0
 16 19  1  0  0  0  0
 17 16  1  0  0  0  0
 18 16  1  0  0  0  0
M  END
