1
 OpenBabel05122313063D

 31 31  0  0  0  0  0  0  0  0999 V2000
    0.3247    0.8580   -0.1639 B   0  0  0  0  0  2  0  0  0  0  0  0
    0.3915    2.4836   -0.2211 C   0  0  0  0  0  0  0  0  0  0  0  0
   -0.2433    2.9751   -1.5429 C   0  0  0  0  0  0  0  0  0  0  0  0
   -0.1515    4.0808   -1.6198 H   0  0  0  0  0  0  0  0  0  0  0  0
   -1.3264    2.7423   -1.6119 H   0  0  0  0  0  0  0  0  0  0  0  0
    0.2642    2.5392   -2.4289 H   0  0  0  0  0  0  0  0  0  0  0  0
   -0.4038    3.0857    0.9629 C   0  0  0  0  0  0  0  0  0  0  0  0
   -0.3435    4.1958    0.9372 H   0  0  0  0  0  0  0  0  0  0  0  0
    0.0088    2.7536    1.9372 H   0  0  0  0  0  0  0  0  0  0  0  0
   -1.4818    2.8229    0.9329 H   0  0  0  0  0  0  0  0  0  0  0  0
    1.8309    3.0210   -0.1520 C   0  0  0  0  0  0  0  0  0  0  0  0
    1.8200    4.1328   -0.1263 H   0  0  0  0  0  0  0  0  0  0  0  0
    2.4295    2.7102   -1.0277 H   0  0  0  0  0  0  0  0  0  0  0  0
    2.3590    2.6709    0.7564 H   0  0  0  0  0  0  0  0  0  0  0  0
   -1.1768    0.3934   -0.1074 N   0  0  0  0  0  0  0  0  0  0  0  0
   -1.8802    0.1807   -1.2496 C   0  0  0  0  0  3  0  0  0  0  0  0
   -1.3432    0.3942   -2.1842 H   0  0  0  0  0  0  0  0  0  0  0  0
   -3.1897   -0.3129   -1.2415 C   0  0  0  0  0  0  0  0  0  0  0  0
   -3.7810   -0.5787    0.0090 C   0  0  0  0  0  0  0  0  0  0  0  0
   -4.8081   -0.9746    0.0546 H   0  0  0  0  0  0  0  0  0  0  0  0
   -3.0675   -0.3466    1.2014 C   0  0  0  0  0  0  0  0  0  0  0  0
   -1.7626    0.1471    1.0949 C   0  0  0  0  0  0  0  0  0  0  0  0
   -1.1399    0.3439    1.9789 H   0  0  0  0  0  0  0  0  0  0  0  0
   -3.9251   -0.5566   -2.5321 C   0  0  0  0  0  0  0  0  0  0  0  0
   -4.9057   -0.0388   -2.5362 H   0  0  0  0  0  0  0  0  0  0  0  0
   -4.1288   -1.6385   -2.6727 H   0  0  0  0  0  0  0  0  0  0  0  0
   -3.3465   -0.2038   -3.4068 H   0  0  0  0  0  0  0  0  0  0  0  0
   -3.6735   -0.6182    2.5521 C   0  0  0  0  0  0  0  0  0  0  0  0
   -2.9970   -0.3128    3.3725 H   0  0  0  0  0  0  0  0  0  0  0  0
   -3.8946   -1.6985    2.6763 H   0  0  0  0  0  0  0  0  0  0  0  0
   -4.6325   -0.0749    2.6751 H   0  0  0  0  0  0  0  0  0  0  0  0
  1 15  1  0  0  0  0
  2  1  1  0  0  0  0
  2 11  1  0  0  0  0
  2  7  1  0  0  0  0
  3  2  1  0  0  0  0
  4  3  1  0  0  0  0
  5  3  1  0  0  0  0
  6  3  1  0  0  0  0
  7  9  1  0  0  0  0
  8  7  1  0  0  0  0
 10  7  1  0  0  0  0
 11 12  1  0  0  0  0
 11 14  1  0  0  0  0
 13 11  1  0  0  0  0
 15 22  1  0  0  0  0
 16 18  1  0  0  0  0
 16 15  1  0  0  0  0
 17 16  1  0  0  0  0
 18 19  2  0  0  0  0
 19 20  1  0  0  0  0
 19 21  1  0  0  0  0
 21 28  1  0  0  0  0
 22 21  2  0  0  0  0
 22 23  1  0  0  0  0
 24 18  1  0  0  0  0
 25 24  1  0  0  0  0
 26 24  1  0  0  0  0
 27 24  1  0  0  0  0
 28 31  1  0  0  0  0
 28 30  1  0  0  0  0
 28 29  1  0  0  0  0
M  END
