2,4,6
 OpenBabel05122313063D

 44 46  0  0  1  0  0  0  0  0999 V2000
    1.8612   -1.0837    1.1953 N   0  0  0  0  0  0  0  0  0  0  0  0
    0.6499   -0.5930    1.5956 N   0  0  0  0  0  2  0  0  0  0  0  0
    2.6883    0.6981   -0.4306 N   0  0  0  0  0  0  0  0  0  0  0  0
    1.6829    1.6126   -0.3235 N   0  0  0  0  0  2  0  0  0  0  0  0
    1.4127   -1.3279   -1.2895 N   0  0  0  0  0  0  0  0  0  0  0  0
    0.1753   -0.7675   -1.4309 N   0  0  0  0  0  2  0  0  0  0  0  0
    2.4172   -0.8147   -0.2284 B   0  0  2  0  0  0  0  0  0  0  0  0
    3.4637   -1.4158   -0.3551 H   0  0  0  0  0  0  0  0  0  0  0  0
    2.4313   -1.8126    2.1970 C   0  0  2  0  0  3  0  0  0  0  0  0
    1.5453   -1.7927    3.2816 C   0  0  0  0  0  0  0  0  0  0  0  0
    1.6863   -2.2769    4.2534 H   0  0  0  0  0  0  0  0  0  0  0  0
    0.4422   -1.0170    2.8672 C   0  0  0  0  0  0  0  0  0  0  0  0
    3.8647    1.3296   -0.7083 C   0  0  1  0  0  3  0  0  0  0  0  0
    3.5946    2.7035   -0.7810 C   0  0  0  0  0  0  0  0  0  0  0  0
    4.3138    3.5027   -0.9879 H   0  0  0  0  0  0  0  0  0  0  0  0
    2.2129    2.8409   -0.5322 C   0  0  0  0  0  0  0  0  0  0  0  0
    1.5881   -2.3315   -2.1976 C   0  0  1  0  0  3  0  0  0  0  0  0
    0.4138   -2.4137   -2.9545 C   0  0  0  0  0  0  0  0  0  0  0  0
    0.2141   -3.1025   -3.7820 H   0  0  0  0  0  0  0  0  0  0  0  0
   -0.4460   -1.4144   -2.4458 C   0  0  0  0  0  0  0  0  0  0  0  0
    3.7651   -2.4788    2.0845 C   0  0  0  0  0  0  0  0  0  0  0  0
    4.5755   -1.7494    1.8821 H   0  0  0  0  0  0  0  0  0  0  0  0
    3.7891   -3.2260    1.2653 H   0  0  0  0  0  0  0  0  0  0  0  0
    4.0029   -2.9996    3.0306 H   0  0  0  0  0  0  0  0  0  0  0  0
   -0.7961   -0.6786    3.6339 C   0  0  0  0  0  0  0  0  0  0  0  0
   -0.7374   -1.0892    4.6587 H   0  0  0  0  0  0  0  0  0  0  0  0
   -1.7037   -1.0951    3.1487 H   0  0  0  0  0  0  0  0  0  0  0  0
   -0.9381    0.4203    3.6874 H   0  0  0  0  0  0  0  0  0  0  0  0
    5.1650    0.6141   -0.8873 C   0  0  0  0  0  0  0  0  0  0  0  0
    5.4581    0.0541    0.0240 H   0  0  0  0  0  0  0  0  0  0  0  0
    5.9651    1.3433   -1.1125 H   0  0  0  0  0  0  0  0  0  0  0  0
    5.1229   -0.1178   -1.7194 H   0  0  0  0  0  0  0  0  0  0  0  0
    1.3686    4.0746   -0.4744 C   0  0  0  0  0  0  0  0  0  0  0  0
    0.5442    4.0344   -1.2165 H   0  0  0  0  0  0  0  0  0  0  0  0
    1.9785    4.9740   -0.6766 H   0  0  0  0  0  0  0  0  0  0  0  0
    0.8945    4.1844    0.5235 H   0  0  0  0  0  0  0  0  0  0  0  0
    2.8397   -3.1419   -2.3080 C   0  0  0  0  0  0  0  0  0  0  0  0
    2.7288   -3.8928   -3.1122 H   0  0  0  0  0  0  0  0  0  0  0  0
    3.0704   -3.6796   -1.3659 H   0  0  0  0  0  0  0  0  0  0  0  0
    3.7211   -2.5122   -2.5461 H   0  0  0  0  0  0  0  0  0  0  0  0
   -1.8285   -1.0703   -2.9033 C   0  0  0  0  0  0  0  0  0  0  0  0
   -1.9417   -1.3020   -3.9798 H   0  0  0  0  0  0  0  0  0  0  0  0
   -2.0447    0.0048   -2.7469 H   0  0  0  0  0  0  0  0  0  0  0  0
   -2.5981   -1.6542   -2.3551 H   0  0  0  0  0  0  0  0  0  0  0  0
  1  2  1  0  0  0  0
  1  9  1  0  0  0  0
  2 12  1  0  0  0  0
  3  4  1  0  0  0  0
  3  7  1  0  0  0  0
  5  7  1  0  0  0  0
  6  5  1  0  0  0  0
  7  8  1  6  0  0  0
  7  1  1  0  0  0  0
  9 21  1  1  0  0  0
  9 10  1  0  0  0  0
 10 11  1  0  0  0  0
 12 10  2  0  0  0  0
 12 25  1  0  0  0  0
 13 29  1  1  0  0  0
 13  3  1  0  0  0  0
 14 13  1  0  0  0  0
 14 16  2  0  0  0  0
 15 14  1  0  0  0  0
 16 33  1  0  0  0  0
 16  4  1  0  0  0  0
 17 37  1  6  0  0  0
 17  5  1  0  0  0  0
 18 20  2  0  0  0  0
 18 17  1  0  0  0  0
 19 18  1  0  0  0  0
 20  6  1  0  0  0  0
 21 24  1  0  0  0  0
 22 21  1  0  0  0  0
 23 21  1  0  0  0  0
 25 28  1  0  0  0  0
 25 26  1  0  0  0  0
 27 25  1  0  0  0  0
 29 30  1  0  0  0  0
 31 29  1  0  0  0  0
 32 29  1  0  0  0  0
 33 36  1  0  0  0  0
 34 33  1  0  0  0  0
 35 33  1  0  0  0  0
 37 39  1  0  0  0  0
 38 37  1  0  0  0  0
 40 37  1  0  0  0  0
 41 43  1  0  0  0  0
 41 20  1  0  0  0  0
 41 44  1  0  0  0  0
 42 41  1  0  0  0  0
M  END
