1,2,3
 OpenBabel05122313063D

 24 24  0  0  0  0  0  0  0  0999 V2000
    0.9228    1.0988    1.8394 N   0  0  0  0  0  0  0  0  0  0  0  0
   -0.9117   -0.3190    1.7722 N   0  0  0  0  0  0  0  0  0  0  0  0
    1.2286   -1.1638    1.3253 N   0  0  0  0  0  0  0  0  0  0  0  0
    1.8431   -0.0340    2.0093 C   0  0  0  0  0  0  0  0  0  0  0  0
   -0.3520    0.8197    2.5016 C   0  0  0  0  0  0  0  0  0  0  0  0
   -0.0556   -1.4997    1.9291 C   0  0  0  0  0  0  0  0  0  0  0  0
    1.4958    2.4010    2.1576 C   0  0  0  0  0  0  0  0  0  0  0  0
   -2.3254   -0.5613    2.0580 C   0  0  0  0  0  0  0  0  0  0  0  0
    2.1167   -2.3022    1.1297 C   0  0  0  0  0  0  0  0  0  0  0  0
    2.0361   -0.2418    3.1006 H   0  0  0  0  0  0  0  0  0  0  0  0
    2.8026    0.2016    1.5085 H   0  0  0  0  0  0  0  0  0  0  0  0
   -1.0225    1.6894    2.3709 H   0  0  0  0  0  0  0  0  0  0  0  0
   -0.2240    0.5999    3.5994 H   0  0  0  0  0  0  0  0  0  0  0  0
    0.0444   -1.7947    3.0129 H   0  0  0  0  0  0  0  0  0  0  0  0
   -0.5185   -2.3365    1.3705 H   0  0  0  0  0  0  0  0  0  0  0  0
    0.7706    3.1894    1.8811 H   0  0  0  0  0  0  0  0  0  0  0  0
    1.7552    2.4987    3.2381 H   0  0  0  0  0  0  0  0  0  0  0  0
    2.4108    2.5508    1.5552 H   0  0  0  0  0  0  0  0  0  0  0  0
   -2.6835   -1.4162    1.4564 H   0  0  0  0  0  0  0  0  0  0  0  0
   -2.4953   -0.7770    3.1391 H   0  0  0  0  0  0  0  0  0  0  0  0
   -2.9055    0.3319    1.7631 H   0  0  0  0  0  0  0  0  0  0  0  0
    1.6124   -3.0494    0.4868 H   0  0  0  0  0  0  0  0  0  0  0  0
    2.4010   -2.7946    2.0915 H   0  0  0  0  0  0  0  0  0  0  0  0
    3.0345   -1.9703    0.6085 H   0  0  0  0  0  0  0  0  0  0  0  0
  1  4  1  0  0  0  0
  1  7  1  0  0  0  0
  1  5  1  0  0  0  0
  2  6  1  0  0  0  0
  2  8  1  0  0  0  0
  2  5  1  0  0  0  0
  3  6  1  0  0  0  0
  3  4  1  0  0  0  0
  4 10  1  0  0  0  0
  5 13  1  0  0  0  0
  6 14  1  0  0  0  0
  7 17  1  0  0  0  0
  8 20  1  0  0  0  0
  9  3  1  0  0  0  0
  9 23  1  0  0  0  0
 11  4  1  0  0  0  0
 12  5  1  0  0  0  0
 15  6  1  0  0  0  0
 16  7  1  0  0  0  0
 18  7  1  0  0  0  0
 19  8  1  0  0  0  0
 21  8  1  0  0  0  0
 22  9  1  0  0  0  0
 24  9  1  0  0  0  0
M  END
