1,3,4
 OpenBabel05122313063D

 28 29  0  0  0  0  0  0  0  0999 V2000
   -1.8891   -0.4086   -0.4039 N   0  0  0  0  0  2  0  0  0  0  0  0
   -1.2346    1.8365   -0.3388 N   0  0  0  0  0  0  0  0  0  0  0  0
   -0.0158    1.3318   -0.4568 N   0  0  0  0  0  2  0  0  0  0  0  0
    2.1209   -0.1714   -0.2721 N   0  0  0  0  0  2  0  0  0  0  0  0
   -2.8004   -1.3884   -0.5079 C   0  0  0  0  0  3  0  0  0  0  0  0
   -2.3758   -2.4082   -0.4917 H   0  0  0  0  0  0  0  0  0  0  0  0
   -4.1706   -1.1227   -0.6127 C   0  0  0  0  0  0  0  0  0  0  0  0
   -4.8934   -1.9462   -0.6930 H   0  0  0  0  0  0  0  0  0  0  0  0
   -4.5827    0.2199   -0.6107 C   0  0  0  0  0  0  0  0  0  0  0  0
   -5.6490    0.4775   -0.6973 H   0  0  0  0  0  0  0  0  0  0  0  0
   -3.6334    1.2433   -0.5127 C   0  0  0  0  0  0  0  0  0  0  0  0
   -3.9465    2.2950   -0.5447 H   0  0  0  0  0  0  0  0  0  0  0  0
   -2.2750    0.8794   -0.4058 C   0  0  0  0  0  0  0  0  0  0  0  0
   -1.4196    3.1742    0.1980 C   0  0  0  0  0  0  0  0  0  0  0  0
   -0.8660    3.2356    1.1605 H   0  0  0  0  0  0  0  0  0  0  0  0
   -2.4869    3.3637    0.3941 H   0  0  0  0  0  0  0  0  0  0  0  0
   -1.0409    3.9447   -0.5046 H   0  0  0  0  0  0  0  0  0  0  0  0
    1.0977    1.9907   -0.3525 C   0  0  0  0  0  0  0  0  0  0  0  0
    1.1815    3.0819   -0.1970 H   0  0  0  0  0  0  0  0  0  0  0  0
    2.3107    1.1676   -0.3887 C   0  0  0  0  0  0  0  0  0  0  0  0
    3.6046    1.7079   -0.5229 C   0  0  0  0  0  0  0  0  0  0  0  0
    3.7397    2.7968   -0.6047 H   0  0  0  0  0  0  0  0  0  0  0  0
    4.6998    0.8356   -0.5630 C   0  0  0  0  0  0  0  0  0  0  0  0
    5.7201    1.2341   -0.6694 H   0  0  0  0  0  0  0  0  0  0  0  0
    4.4816   -0.5482   -0.4719 C   0  0  0  0  0  0  0  0  0  0  0  0
    5.3160   -1.2629   -0.5030 H   0  0  0  0  0  0  0  0  0  0  0  0
    3.1639   -1.0091   -0.3244 C   0  0  0  0  0  0  0  0  0  0  0  0
    2.9023   -2.0789   -0.2371 H   0  0  0  0  0  0  0  0  0  0  0  0
  2 14  1  0  0  0  0
  3 18  1  0  0  0  0
  3  2  1  0  0  0  0
  5  6  1  0  0  0  0
  5  1  1  0  0  0  0
  7  9  2  0  0  0  0
  7  5  1  0  0  0  0
  8  7  1  0  0  0  0
  9 11  1  0  0  0  0
 10  9  1  0  0  0  0
 11 13  2  0  0  0  0
 12 11  1  0  0  0  0
 13  1  1  0  0  0  0
 13  2  1  0  0  0  0
 14 16  1  0  0  0  0
 14 15  1  0  0  0  0
 17 14  1  0  0  0  0
 18 19  1  0  0  0  0
 20 18  2  0  0  0  0
 20  4  1  0  0  0  0
 21 20  1  0  0  0  0
 22 21  1  0  0  0  0
 23 21  2  0  0  0  0
 23 25  1  0  0  0  0
 24 23  1  0  0  0  0
 25 27  2  0  0  0  0
 26 25  1  0  0  0  0
 27  4  1  0  0  0  0
 27 28  1  0  0  0  0
M  END
