51,53,55
 OpenBabel05122313063D

 56 61  0  0  0  0  0  0  0  0999 V2000
   -0.9514   -0.1023    2.9102 C   0  0  0  0  0  0  0  0  0  0  0  0
   -1.2020   -0.1292    3.9857 H   0  0  0  0  0  0  0  0  0  0  0  0
    0.3583    1.9279    3.6602 C   0  0  0  0  0  3  0  0  0  0  0  0
    0.1454    1.7846    4.7259 H   0  0  0  0  0  0  0  0  0  0  0  0
    1.1591    2.8437    2.9972 C   0  0  0  0  0  0  0  0  0  0  0  0
    1.7439    3.6527    3.4458 H   0  0  0  0  0  0  0  0  0  0  0  0
    1.0150    2.5363    1.6085 C   0  0  0  0  0  0  0  0  0  0  0  0
    1.6619    3.1487    0.4365 C   0  0  0  0  0  0  0  0  0  0  0  0
    2.9618    3.6901    0.5404 C   0  0  0  0  0  0  0  0  0  0  0  0
    3.4792    3.6856    1.5117 H   0  0  0  0  0  0  0  0  0  0  0  0
    3.6104    4.2005   -0.5930 C   0  0  0  0  0  0  0  0  0  0  0  0
    4.6253    4.6149   -0.5002 H   0  0  0  0  0  0  0  0  0  0  0  0
    2.9688    4.1813   -1.8430 C   0  0  0  0  0  0  0  0  0  0  0  0
    3.4777    4.5878   -2.7299 H   0  0  0  0  0  0  0  0  0  0  0  0
    1.6678    3.6609   -1.9516 C   0  0  0  0  0  0  0  0  0  0  0  0
    1.1495    3.6644   -2.9224 H   0  0  0  0  0  0  0  0  0  0  0  0
    1.0160    3.1528   -0.8202 C   0  0  0  0  0  0  0  0  0  0  0  0
   -0.0110    2.7661   -0.9026 H   0  0  0  0  0  0  0  0  0  0  0  0
    0.5458   -2.0146    3.6118 C   0  0  0  0  0  3  0  0  0  0  0  0
    0.3056   -1.9308    4.6780 H   0  0  0  0  0  0  0  0  0  0  0  0
    1.4452   -2.8201    2.9323 C   0  0  0  0  0  0  0  0  0  0  0  0
    2.1045   -3.5797    3.3635 H   0  0  0  0  0  0  0  0  0  0  0  0
    1.2887   -2.4808    1.5525 C   0  0  0  0  0  0  0  0  0  0  0  0
    2.0106   -2.9839    0.3721 C   0  0  0  0  0  0  0  0  0  0  0  0
    3.3602   -3.3852    0.4781 C   0  0  0  0  0  0  0  0  0  0  0  0
    3.8640   -3.3534    1.4560 H   0  0  0  0  0  0  0  0  0  0  0  0
    4.0716   -3.7894   -0.6605 C   0  0  0  0  0  0  0  0  0  0  0  0
    5.1243   -4.0947   -0.5658 H   0  0  0  0  0  0  0  0  0  0  0  0
    3.4445   -3.8031   -1.9178 C   0  0  0  0  0  0  0  0  0  0  0  0
    4.0034   -4.1265   -2.8088 H   0  0  0  0  0  0  0  0  0  0  0  0
    2.0962   -3.4225   -2.0292 C   0  0  0  0  0  0  0  0  0  0  0  0
    1.5918   -3.4535   -3.0068 H   0  0  0  0  0  0  0  0  0  0  0  0
    1.3824   -3.0206   -0.8927 C   0  0  0  0  0  0  0  0  0  0  0  0
    0.3207   -2.7435   -0.9766 H   0  0  0  0  0  0  0  0  0  0  0  0
   -3.4590   -0.1659    2.7792 C   0  0  0  0  0  3  0  0  0  0  0  0
   -3.5873   -0.1767    3.8676 H   0  0  0  0  0  0  0  0  0  0  0  0
   -4.3785   -0.1742    1.7464 C   0  0  0  0  0  0  0  0  0  0  0  0
   -5.4680   -0.2112    1.8379 H   0  0  0  0  0  0  0  0  0  0  0  0
   -3.6057   -0.1686    0.5446 C   0  0  0  0  0  0  0  0  0  0  0  0
   -4.0809   -0.1764   -0.8478 C   0  0  0  0  0  0  0  0  0  0  0  0
   -5.3622    0.3302   -1.1584 C   0  0  0  0  0  0  0  0  0  0  0  0
   -5.9966    0.7420   -0.3594 H   0  0  0  0  0  0  0  0  0  0  0  0
   -5.8211    0.3399   -2.4820 C   0  0  0  0  0  0  0  0  0  0  0  0
   -6.8186    0.7437   -2.7098 H   0  0  0  0  0  0  0  0  0  0  0  0
   -5.0092   -0.1558   -3.5147 C   0  0  0  0  0  0  0  0  0  0  0  0
   -5.3713   -0.1471   -4.5535 H   0  0  0  0  0  0  0  0  0  0  0  0
   -3.7363   -0.6689   -3.2161 C   0  0  0  0  0  0  0  0  0  0  0  0
   -3.1005   -1.0718   -4.0185 H   0  0  0  0  0  0  0  0  0  0  0  0
   -3.2777   -0.6845   -1.8934 C   0  0  0  0  0  0  0  0  0  0  0  0
   -2.2909   -1.1189   -1.6619 H   0  0  0  0  0  0  0  0  0  0  0  0
    0.1760    1.4963    1.4525 N   0  0  0  0  0  2  0  0  0  0  0  0
   -0.2262    1.1443    2.6922 N   0  0  0  0  0  0  0  0  0  0  0  0
    0.3495   -1.5272    1.4169 N   0  0  0  0  0  2  0  0  0  0  0  0
   -0.1036   -1.2617    2.6609 N   0  0  0  0  0  0  0  0  0  0  0  0
   -2.2929   -0.1512    0.8465 N   0  0  0  0  0  2  0  0  0  0  0  0
   -2.2124   -0.1559    2.2006 N   0  0  0  0  0  0  0  0  0  0  0  0
  1  2  1  0  0  0  0
  3  4  1  0  0  0  0
  5  6  1  0  0  0  0
  5  3  1  0  0  0  0
  7  5  2  0  0  0  0
  8  9  1  0  0  0  0
  8  7  1  0  0  0  0
  9 10  1  0  0  0  0
 11 12  1  0  0  0  0
 11  9  2  0  0  0  0
 13 11  1  0  0  0  0
 14 13  1  0  0  0  0
 15 13  2  0  0  0  0
 15 17  1  0  0  0  0
 16 15  1  0  0  0  0
 17  8  2  0  0  0  0
 18 17  1  0  0  0  0
 19 20  1  0  0  0  0
 21 22  1  0  0  0  0
 21 19  1  0  0  0  0
 23 21  2  0  0  0  0
 24 25  1  0  0  0  0
 24 23  1  0  0  0  0
 25 26  1  0  0  0  0
 27 28  1  0  0  0  0
 27 25  2  0  0  0  0
 29 27  1  0  0  0  0
 30 29  1  0  0  0  0
 31 29  2  0  0  0  0
 31 33  1  0  0  0  0
 32 31  1  0  0  0  0
 33 24  2  0  0  0  0
 34 33  1  0  0  0  0
 35 36  1  0  0  0  0
 37 38  1  0  0  0  0
 37 35  1  0  0  0  0
 39 55  1  0  0  0  0
 39 37  2  0  0  0  0
 40 39  1  0  0  0  0
 41 40  1  0  0  0  0
 41 42  1  0  0  0  0
 43 41  2  0  0  0  0
 44 43  1  0  0  0  0
 45 47  2  0  0  0  0
 45 43  1  0  0  0  0
 46 45  1  0  0  0  0
 47 49  1  0  0  0  0
 48 47  1  0  0  0  0
 49 50  1  0  0  0  0
 49 40  2  0  0  0  0
 51  7  1  0  0  0  0
 51 52  1  0  0  0  0
 52  1  1  0  0  0  0
 52  3  1  0  0  0  0
 53 23  1  0  0  0  0
 53 54  1  0  0  0  0
 54  1  1  0  0  0  0
 54 19  1  0  0  0  0
 55 56  1  0  0  0  0
 56 35  1  0  0  0  0
 56  1  1  0  0  0  0
M  END
