1,2,30
 OpenBabel05122313063D

 53 56  0  0  1  0  0  0  0  0999 V2000
   -1.1262    0.0000    0.0000 N   0  0  0  0  0  2  0  0  0  0  0  0
   -2.6896   -2.0936   -0.1437 N   0  0  0  0  0  2  0  0  0  0  0  0
    7.4068   -0.0000    0.0000 N   0  0  0  0  0  0  0  0  0  0  0  0
   -1.3645   -2.3625   -0.1375 C   0  0  0  0  0  0  0  0  0  0  0  0
   -0.8981   -3.6882   -0.1928 C   0  0  0  0  0  0  0  0  0  0  0  0
    0.1788   -3.9044   -0.1854 H   0  0  0  0  0  0  0  0  0  0  0  0
   -1.8299   -4.7329   -0.2546 C   0  0  0  0  0  0  0  0  0  0  0  0
   -1.4855   -5.7770   -0.2983 H   0  0  0  0  0  0  0  0  0  0  0  0
   -3.1998   -4.4338   -0.2577 C   0  0  0  0  0  0  0  0  0  0  0  0
   -3.9603   -5.2260   -0.3035 H   0  0  0  0  0  0  0  0  0  0  0  0
   -3.5853   -3.0866   -0.1992 C   0  0  0  0  0  0  0  0  0  0  0  0
   -4.6436   -2.7780   -0.1937 H   0  0  0  0  0  0  0  0  0  0  0  0
   -0.4734   -1.1673   -0.0652 C   0  0  0  0  0  0  0  0  0  0  0  0
    3.8844   -1.0926    0.5041 C   0  0  0  0  0  0  0  0  0  0  0  0
    3.3577   -1.9576    0.9349 H   0  0  0  0  0  0  0  0  0  0  0  0
    0.9288   -1.2069   -0.0714 C   0  0  0  0  0  0  0  0  0  0  0  0
    1.4595   -2.1635   -0.1624 H   0  0  0  0  0  0  0  0  0  0  0  0
    1.6672    0.0000    0.0000 C   0  0  0  0  0  0  0  0  0  0  0  0
    3.1399    0.0000    0.0000 C   0  0  0  0  0  0  0  0  0  0  0  0
    6.0279   -0.0000    0.0000 C   0  0  0  0  0  0  0  0  0  0  0  0
    5.2771   -1.1003    0.5118 C   0  0  0  0  0  0  0  0  0  0  0  0
    5.7905   -1.9791    0.9216 H   0  0  0  0  0  0  0  0  0  0  0  0
    8.1729   -1.0874    0.5998 C   0  0  0  0  0  0  0  0  0  0  0  0
    9.1366   -0.6624    0.9506 H   0  0  0  0  0  0  0  0  0  0  0  0
    7.6560   -1.4374    1.5172 H   0  0  0  0  0  0  0  0  0  0  0  0
    8.4332   -2.2579   -0.3526 C   0  0  0  0  0  0  0  0  0  0  0  0
    9.0328   -3.0454    0.1470 H   0  0  0  0  0  0  0  0  0  0  0  0
    7.4836   -2.7132   -0.6976 H   0  0  0  0  0  0  0  0  0  0  0  0
    8.9910   -1.9233   -1.2507 H   0  0  0  0  0  0  0  0  0  0  0  0
   -2.6896    2.0936    0.1437 N   0  0  0  0  0  2  0  0  0  0  0  0
   -1.3645    2.3625    0.1375 C   0  0  2  0  0  3  0  0  0  0  0  0
   -0.8981    3.6882    0.1928 C   0  0  0  0  0  0  0  0  0  0  0  0
    0.1788    3.9044    0.1854 H   0  0  0  0  0  0  0  0  0  0  0  0
   -1.8299    4.7329    0.2546 C   0  0  0  0  0  0  0  0  0  0  0  0
   -1.4855    5.7770    0.2983 H   0  0  0  0  0  0  0  0  0  0  0  0
   -3.1998    4.4338    0.2578 C   0  0  0  0  0  0  0  0  0  0  0  0
   -3.9602    5.2261    0.3035 H   0  0  0  0  0  0  0  0  0  0  0  0
   -3.5853    3.0867    0.1993 C   0  0  0  0  0  0  0  0  0  0  0  0
   -4.6436    2.7781    0.1937 H   0  0  0  0  0  0  0  0  0  0  0  0
   -0.4734    1.1674    0.0652 C   0  0  0  0  0  0  0  0  0  0  0  0
    3.8844    1.0926   -0.5041 C   0  0  0  0  0  0  0  0  0  0  0  0
    3.3577    1.9576   -0.9349 H   0  0  0  0  0  0  0  0  0  0  0  0
    0.9288    1.2069    0.0714 C   0  0  0  0  0  0  0  0  0  0  0  0
    1.4595    2.1635    0.1624 H   0  0  0  0  0  0  0  0  0  0  0  0
    5.2771    1.1003   -0.5118 C   0  0  0  0  0  0  0  0  0  0  0  0
    5.7905    1.9791   -0.9216 H   0  0  0  0  0  0  0  0  0  0  0  0
    8.1730    1.0874   -0.5998 C   0  0  0  0  0  0  0  0  0  0  0  0
    9.1366    0.6624   -0.9506 H   0  0  0  0  0  0  0  0  0  0  0  0
    7.6560    1.4374   -1.5172 H   0  0  0  0  0  0  0  0  0  0  0  0
    8.4332    2.2578    0.3526 C   0  0  0  0  0  0  0  0  0  0  0  0
    9.0328    3.0453   -0.1470 H   0  0  0  0  0  0  0  0  0  0  0  0
    7.4836    2.7132    0.6976 H   0  0  0  0  0  0  0  0  0  0  0  0
    8.9910    1.9233    1.2507 H   0  0  0  0  0  0  0  0  0  0  0  0
  1 40  1  0  0  0  0
  2  4  1  0  0  0  0
  3 20  1  0  0  0  0
  3 23  1  0  0  0  0
  4 13  2  0  0  0  0
  5  6  1  0  0  0  0
  5  4  1  0  0  0  0
  7  5  2  0  0  0  0
  8  7  1  0  0  0  0
  9  7  1  0  0  0  0
  9 11  2  0  0  0  0
 10  9  1  0  0  0  0
 11 12  1  0  0  0  0
 11  2  1  0  0  0  0
 13  1  1  0  0  0  0
 14 21  1  0  0  0  0
 14 15  1  0  0  0  0
 16 13  1  0  0  0  0
 16 18  2  0  0  0  0
 17 16  1  0  0  0  0
 18 43  1  0  0  0  0
 19 18  1  0  0  0  0
 19 14  2  0  0  0  0
 20 21  2  0  0  0  0
 21 22  1  0  0  0  0
 23 24  1  0  0  0  0
 23 25  1  0  0  0  0
 26 27  1  0  0  0  0
 26 23  1  0  0  0  0
 28 26  1  0  0  0  0
 29 26  1  0  0  0  0
 30 38  1  0  0  0  0
 31 40  1  6  0  0  0
 31 30  1  0  0  0  0
 31 32  1  0  0  0  0
 32 34  2  0  0  0  0
 33 32  1  0  0  0  0
 34 36  1  0  0  0  0
 34 35  1  0  0  0  0
 36 37  1  0  0  0  0
 38 36  2  0  0  0  0
 39 38  1  0  0  0  0
 40 43  2  0  0  0  0
 41 19  1  0  0  0  0
 42 41  1  0  0  0  0
 43 44  1  0  0  0  0
 45 41  2  0  0  0  0
 45 20  1  0  0  0  0
 46 45  1  0  0  0  0
 47  3  1  0  0  0  0
 47 50  1  0  0  0  0
 48 47  1  0  0  0  0
 49 47  1  0  0  0  0
 50 52  1  0  0  0  0
 50 53  1  0  0  0  0
 51 50  1  0  0  0  0
M  END
