1,15,24
 OpenBabel05122313063D

 35 37  0  0  1  0  0  0  0  0999 V2000
   -2.2389    0.0900    0.0455 N   0  0  0  0  0  2  0  0  0  0  0  0
   -3.2860   -0.7588    0.0631 C   0  0  2  0  0  3  0  0  0  0  0  0
   -2.9720   -2.2258    0.0751 C   0  0  0  0  0  0  0  0  0  0  0  0
   -2.3607   -2.4960   -0.8130 H   0  0  0  0  0  0  0  0  0  0  0  0
   -3.8886   -2.8430    0.0976 H   0  0  0  0  0  0  0  0  0  0  0  0
   -2.3316   -2.4761    0.9480 H   0  0  0  0  0  0  0  0  0  0  0  0
   -4.6049   -0.2580    0.0681 C   0  0  0  0  0  0  0  0  0  0  0  0
   -5.4542   -0.9560    0.0827 H   0  0  0  0  0  0  0  0  0  0  0  0
   -4.8086    1.1262    0.0536 C   0  0  0  0  0  0  0  0  0  0  0  0
   -5.8287    1.5389    0.0563 H   0  0  0  0  0  0  0  0  0  0  0  0
   -3.7039    1.9862    0.0354 C   0  0  0  0  0  0  0  0  0  0  0  0
   -3.8535    3.0734    0.0228 H   0  0  0  0  0  0  0  0  0  0  0  0
   -2.4111    1.4267    0.0320 C   0  0  0  0  0  0  0  0  0  0  0  0
   -1.1742    2.2719    0.0137 C   0  0  2  0  0  3  0  0  0  0  0  0
    0.0000    1.6245   -0.0028 N   0  0  0  0  0  2  0  0  0  0  0  0
    1.1743    2.2717   -0.0200 C   0  0  0  0  0  0  0  0  0  0  0  0
    1.2111    3.6823   -0.0220 C   0  0  0  0  0  0  0  0  0  0  0  0
    2.1625    4.2292   -0.0377 H   0  0  0  0  0  0  0  0  0  0  0  0
    0.0001    4.3839   -0.0043 C   0  0  0  0  0  0  0  0  0  0  0  0
    0.0002    5.4839   -0.0049 H   0  0  0  0  0  0  0  0  0  0  0  0
   -1.2109    3.6824    0.0142 C   0  0  0  0  0  0  0  0  0  0  0  0
   -2.1623    4.2294    0.0296 H   0  0  0  0  0  0  0  0  0  0  0  0
    2.4112    1.4264   -0.0368 C   0  0  2  0  0  3  0  0  0  0  0  0
    2.2389    0.0897   -0.0458 N   0  0  0  0  0  2  0  0  0  0  0  0
    3.2859   -0.7591   -0.0611 C   0  0  0  0  0  0  0  0  0  0  0  0
    2.9718   -2.2262   -0.0676 C   0  0  0  0  0  0  0  0  0  0  0  0
    2.3605   -2.4929    0.8215 H   0  0  0  0  0  0  0  0  0  0  0  0
    3.8884   -2.8435   -0.0878 H   0  0  0  0  0  0  0  0  0  0  0  0
    2.3314   -2.4798   -0.9396 H   0  0  0  0  0  0  0  0  0  0  0  0
    4.6049   -0.2585   -0.0687 C   0  0  0  0  0  0  0  0  0  0  0  0
    5.4541   -0.9566   -0.0814 H   0  0  0  0  0  0  0  0  0  0  0  0
    4.8086    1.1258   -0.0592 C   0  0  0  0  0  0  0  0  0  0  0  0
    5.8287    1.5384   -0.0641 H   0  0  0  0  0  0  0  0  0  0  0  0
    3.7040    1.9859   -0.0431 C   0  0  0  0  0  0  0  0  0  0  0  0
    3.8537    3.0731   -0.0345 H   0  0  0  0  0  0  0  0  0  0  0  0
  1  2  1  0  0  0  0
  2  7  1  0  0  0  0
  2  3  1  6  0  0  0
  3  5  1  0  0  0  0
  3  6  1  0  0  0  0
  4  3  1  0  0  0  0
  7  8  1  0  0  0  0
  9 10  1  0  0  0  0
  9  7  2  0  0  0  0
 11  9  1  0  0  0  0
 12 11  1  0  0  0  0
 13 11  2  0  0  0  0
 13  1  1  0  0  0  0
 14 21  1  0  0  0  0
 14 13  1  1  0  0  0
 15 14  1  0  0  0  0
 16 15  1  0  0  0  0
 17 16  2  0  0  0  0
 17 19  1  0  0  0  0
 18 17  1  0  0  0  0
 19 21  2  0  0  0  0
 20 19  1  0  0  0  0
 21 22  1  0  0  0  0
 23 16  1  1  0  0  0
 24 23  1  0  0  0  0
 25 24  1  0  0  0  0
 26 25  1  0  0  0  0
 26 27  1  0  0  0  0
 28 26  1  0  0  0  0
 29 26  1  0  0  0  0
 30 25  2  0  0  0  0
 30 32  1  0  0  0  0
 31 30  1  0  0  0  0
 32 34  2  0  0  0  0
 33 32  1  0  0  0  0
 34 23  1  0  0  0  0
 34 35  1  0  0  0  0
M  END
