1,2,3
 OpenBabel05122313063D

 20 19  0  0  0  0  0  0  0  0999 V2000
   -0.8299    1.5115   -1.2191 N   0  0  0  0  0  0  0  0  0  0  0  0
   -1.1069    0.0002    1.0498 N   0  0  0  0  0  0  0  0  0  0  0  0
   -0.8302   -1.5113   -1.2189 N   0  0  0  0  0  0  0  0  0  0  0  0
   -2.1058    1.6801   -0.4702 C   0  0  0  0  0  0  0  0  0  0  0  0
   -1.8757    1.2725    0.9823 C   0  0  0  0  0  0  0  0  0  0  0  0
   -1.8759   -1.2720    0.9824 C   0  0  0  0  0  0  0  0  0  0  0  0
   -2.1062   -1.6796   -0.4700 C   0  0  0  0  0  0  0  0  0  0  0  0
   -0.2142    2.3373   -1.1096 H   0  0  0  0  0  0  0  0  0  0  0  0
   -1.0183    1.4435   -2.2292 H   0  0  0  0  0  0  0  0  0  0  0  0
   -0.5156    0.0002    1.9032 H   0  0  0  0  0  0  0  0  0  0  0  0
   -1.0186   -1.4434   -2.2291 H   0  0  0  0  0  0  0  0  0  0  0  0
   -0.2147   -2.3372   -1.1093 H   0  0  0  0  0  0  0  0  0  0  0  0
   -2.8704    1.0379   -0.9477 H   0  0  0  0  0  0  0  0  0  0  0  0
   -2.4868    2.7211   -0.5247 H   0  0  0  0  0  0  0  0  0  0  0  0
   -2.8388    1.1883    1.5281 H   0  0  0  0  0  0  0  0  0  0  0  0
   -1.2664    2.0362    1.5048 H   0  0  0  0  0  0  0  0  0  0  0  0
   -2.8389   -1.1877    1.5283 H   0  0  0  0  0  0  0  0  0  0  0  0
   -1.2667   -2.0358    1.5049 H   0  0  0  0  0  0  0  0  0  0  0  0
   -2.8706   -1.0371   -0.9475 H   0  0  0  0  0  0  0  0  0  0  0  0
   -2.4875   -2.7205   -0.5246 H   0  0  0  0  0  0  0  0  0  0  0  0
  1  8  1  0  0  0  0
  1  4  1  0  0  0  0
  2 10  1  0  0  0  0
  3 12  1  0  0  0  0
  3  7  1  0  0  0  0
  4  5  1  0  0  0  0
  5  2  1  0  0  0  0
  5 16  1  0  0  0  0
  5 15  1  0  0  0  0
  6  2  1  0  0  0  0
  6 18  1  0  0  0  0
  6 17  1  0  0  0  0
  7  6  1  0  0  0  0
  9  1  1  0  0  0  0
 11  3  1  0  0  0  0
 13  4  1  0  0  0  0
 14  4  1  0  0  0  0
 19  7  1  0  0  0  0
 20  7  1  0  0  0  0
M  END
