4,9,10
 OpenBabel05122313063D

 34 36  0  0  0  0  0  0  0  0999 V2000
    2.7518   -2.0807    0.2726 C   0  0  0  0  0  0  0  0  0  0  0  0
    2.9705   -1.9787   -0.7990 H   0  0  0  0  0  0  0  0  0  0  0  0
    0.0794    0.0297    2.6177 N   0  0  0  0  0  0  0  0  0  0  0  0
   -2.0323   -0.7354    0.9594 N   0  0  0  0  0  0  0  0  0  0  0  0
    3.4612   -2.7953    1.2422 C   0  0  0  0  0  3  0  0  0  0  0  0
    4.3772   -3.3790    1.0855 H   0  0  0  0  0  0  0  0  0  0  0  0
    2.7676   -2.5994    2.4752 C   0  0  0  0  0  0  0  0  0  0  0  0
    3.0336   -3.0073    3.4585 H   0  0  0  0  0  0  0  0  0  0  0  0
    1.6543   -1.4583    0.8365 N   0  0  0  0  0  0  0  0  0  0  0  0
    0.4672    2.1517    0.8298 N   0  0  0  0  0  0  0  0  0  0  0  0
    1.6686   -1.7856    2.1847 C   0  0  0  0  0  0  0  0  0  0  0  0
    0.5361   -1.3148    3.0483 C   0  0  0  0  0  0  0  0  0  0  0  0
    0.8274   -1.3104    4.1252 H   0  0  0  0  0  0  0  0  0  0  0  0
   -0.3508   -1.9819    2.9610 H   0  0  0  0  0  0  0  0  0  0  0  0
    1.0400    1.0931    3.0006 C   0  0  0  0  0  0  0  0  0  0  0  0
    2.0535    0.6561    2.8522 H   0  0  0  0  0  0  0  0  0  0  0  0
    0.9545    1.3349    4.0865 H   0  0  0  0  0  0  0  0  0  0  0  0
    0.8356    2.3161    2.1571 C   0  0  0  0  0  3  0  0  0  0  0  0
    1.0288    3.6706    2.4439 C   0  0  0  0  0  0  0  0  0  0  0  0
    1.3199    4.0960    3.4126 H   0  0  0  0  0  0  0  0  0  0  0  0
    0.7784    4.3788    1.2293 C   0  0  0  0  0  0  0  0  0  0  0  0
    0.8278    5.4644    1.0758 H   0  0  0  0  0  0  0  0  0  0  0  0
    0.4360    3.4168    0.2749 C   0  0  0  0  0  0  0  0  0  0  0  0
    0.1698    3.5656   -0.7800 H   0  0  0  0  0  0  0  0  0  0  0  0
   -1.2980    0.3296    3.0785 C   0  0  0  0  0  0  0  0  0  0  0  0
   -1.4374    1.4245    2.9324 H   0  0  0  0  0  0  0  0  0  0  0  0
   -1.4030    0.1385    4.1729 H   0  0  0  0  0  0  0  0  0  0  0  0
   -2.2989   -0.4660    2.2931 C   0  0  0  0  0  3  0  0  0  0  0  0
   -3.5572   -0.9620    2.6468 C   0  0  0  0  0  0  0  0  0  0  0  0
   -4.0276   -0.8987    3.6362 H   0  0  0  0  0  0  0  0  0  0  0  0
   -4.1007   -1.5585    1.4686 C   0  0  0  0  0  0  0  0  0  0  0  0
   -5.0728   -2.0583    1.3702 H   0  0  0  0  0  0  0  0  0  0  0  0
   -3.1381   -1.4029    0.4668 C   0  0  0  0  0  0  0  0  0  0  0  0
   -3.1769   -1.7387   -0.5782 H   0  0  0  0  0  0  0  0  0  0  0  0
  1  9  2  0  0  0  0
  1  5  1  0  0  0  0
  2  1  1  0  0  0  0
  3 15  1  0  0  0  0
  3 12  1  0  0  0  0
  3 25  1  0  0  0  0
  4 28  1  0  0  0  0
  5  7  1  0  0  0  0
  6  5  1  0  0  0  0
  7  8  1  0  0  0  0
  9 11  1  0  0  0  0
 10 18  1  0  0  0  0
 11  7  2  0  0  0  0
 11 12  1  0  0  0  0
 12 13  1  0  0  0  0
 14 12  1  0  0  0  0
 15 17  1  0  0  0  0
 16 15  1  0  0  0  0
 18 19  1  0  0  0  0
 18 15  1  0  0  0  0
 19 20  1  0  0  0  0
 21 19  2  0  0  0  0
 22 21  1  0  0  0  0
 23 10  2  0  0  0  0
 23 21  1  0  0  0  0
 24 23  1  0  0  0  0
 25 27  1  0  0  0  0
 26 25  1  0  0  0  0
 28 29  1  0  0  0  0
 28 25  1  0  0  0  0
 29 30  1  0  0  0  0
 31 29  2  0  0  0  0
 32 31  1  0  0  0  0
 33  4  2  0  0  0  0
 33 31  1  0  0  0  0
 34 33  1  0  0  0  0
M  END
