1,4,5
 OpenBabel05122313063D

 37 40  0  0  1  0  0  0  0  0999 V2000
   -0.5424    1.6342    0.0054 N   0  0  0  0  0  2  0  0  0  0  0  0
   -3.2264    2.2272    0.0826 N   0  0  0  0  0  0  0  0  0  0  0  0
   -3.5502   -1.1819   -0.9067 N   0  0  0  0  0  0  0  0  0  0  0  0
    0.4756   -0.7668   -0.0274 N   0  0  0  0  0  2  0  0  0  0  0  0
    3.0361   -0.4458   -0.4724 N   0  0  0  0  0  2  0  0  0  0  0  0
   -1.4362    0.6284    0.1064 C   0  0  2  0  0  3  0  0  0  0  0  0
   -2.8248    0.9419    0.0119 C   0  0  0  0  0  0  0  0  0  0  0  0
   -2.3117    3.1984    0.0885 C   0  0  0  0  0  0  0  0  0  0  0  0
   -2.6690    4.2379    0.1829 H   0  0  0  0  0  0  0  0  0  0  0  0
   -0.9434    2.9044   -0.0544 C   0  0  0  0  0  0  0  0  0  0  0  0
   -0.1504    3.6569   -0.2090 H   0  0  0  0  0  0  0  0  0  0  0  0
   -3.9009   -0.0512   -0.2615 C   0  0  0  0  0  0  0  0  0  0  0  0
   -5.2362    0.2427    0.0907 C   0  0  0  0  0  0  0  0  0  0  0  0
   -5.4598    1.1929    0.5943 H   0  0  0  0  0  0  0  0  0  0  0  0
   -6.2314   -0.6879   -0.2290 C   0  0  0  0  0  0  0  0  0  0  0  0
   -7.2816   -0.4941    0.0375 H   0  0  0  0  0  0  0  0  0  0  0  0
   -5.8678   -1.8674   -0.8960 C   0  0  0  0  0  0  0  0  0  0  0  0
   -6.6173   -2.6245   -1.1705 H   0  0  0  0  0  0  0  0  0  0  0  0
   -4.5119   -2.0606   -1.2136 C   0  0  0  0  0  0  0  0  0  0  0  0
   -4.1884   -2.9723   -1.7470 H   0  0  0  0  0  0  0  0  0  0  0  0
   -0.8101   -0.7046    0.3469 C   0  0  2  0  0  3  0  0  0  0  0  0
   -1.4205   -1.7918    1.0040 C   0  0  0  0  0  0  0  0  0  0  0  0
   -2.4545   -1.7259    1.3624 H   0  0  0  0  0  0  0  0  0  0  0  0
   -0.6627   -2.9491    1.2169 C   0  0  0  0  0  0  0  0  0  0  0  0
   -1.1100   -3.8093    1.7363 H   0  0  0  0  0  0  0  0  0  0  0  0
    0.6731   -3.0049    0.7901 C   0  0  0  0  0  0  0  0  0  0  0  0
    1.2813   -3.9017    0.9717 H   0  0  0  0  0  0  0  0  0  0  0  0
    1.2237   -1.8627    0.1839 C   0  0  0  0  0  0  0  0  0  0  0  0
    2.6476   -1.7165   -0.2284 C   0  0  1  0  0  3  0  0  0  0  0  0
    3.5452   -2.7892   -0.3743 C   0  0  0  0  0  0  0  0  0  0  0  0
    3.2199   -3.8226   -0.1898 H   0  0  0  0  0  0  0  0  0  0  0  0
    4.8592   -2.5175   -0.7810 C   0  0  0  0  0  0  0  0  0  0  0  0
    5.5794   -3.3404   -0.9037 H   0  0  0  0  0  0  0  0  0  0  0  0
    5.2409   -1.1924   -1.0375 C   0  0  0  0  0  0  0  0  0  0  0  0
    6.2611   -0.9437   -1.3629 H   0  0  0  0  0  0  0  0  0  0  0  0
    4.2854   -0.1784   -0.8705 C   0  0  0  0  0  0  0  0  0  0  0  0
    4.4956    0.8894   -1.0579 H   0  0  0  0  0  0  0  0  0  0  0  0
  2  8  1  0  0  0  0
  3 12  1  0  0  0  0
  4 28  1  0  0  0  0
  5 29  1  0  0  0  0
  6  1  1  1  0  0  0
  6 21  1  0  0  0  0
  7  2  2  0  0  0  0
  7  6  1  0  0  0  0
  8  9  1  0  0  0  0
 10  1  1  0  0  0  0
 10  8  2  0  0  0  0
 11 10  1  0  0  0  0
 12  7  1  0  0  0  0
 12 13  2  0  0  0  0
 13 14  1  0  0  0  0
 15 16  1  0  0  0  0
 15 13  1  0  0  0  0
 17 15  2  0  0  0  0
 18 17  1  0  0  0  0
 19  3  2  0  0  0  0
 19 17  1  0  0  0  0
 20 19  1  0  0  0  0
 21  4  1  1  0  0  0
 21 22  1  0  0  0  0
 22 24  2  0  0  0  0
 22 23  1  0  0  0  0
 24 25  1  0  0  0  0
 26 27  1  0  0  0  0
 26 24  1  0  0  0  0
 28 26  2  0  0  0  0
 29 28  1  6  0  0  0
 30 29  1  0  0  0  0
 30 31  1  0  0  0  0
 32 30  2  0  0  0  0
 33 32  1  0  0  0  0
 34 36  2  0  0  0  0
 34 32  1  0  0  0  0
 35 34  1  0  0  0  0
 36  5  1  0  0  0  0
 37 36  1  0  0  0  0
M  END
