1,2,3
 OpenBabel05122313063D

 39 42  0  0  1  0  0  0  0  0999 V2000
    3.3437   -0.3608   -0.3444 N   0  0  0  0  0  2  0  0  0  0  0  0
    0.8517   -1.0359    0.1682 N   0  0  0  0  0  2  0  0  0  0  0  0
   -0.6758    1.1285    0.0354 N   0  0  0  0  0  2  0  0  0  0  0  0
   -3.4248    1.0910    0.1549 N   0  0  0  0  0  0  0  0  0  0  0  0
   -0.2163    4.6195   -0.1698 N   0  0  0  0  0  0  0  0  0  0  0  0
   -4.1466    4.4186    0.6864 N   0  0  0  0  0  0  0  0  0  0  0  0
   -2.8892   -2.2780   -0.9125 N   0  0  0  0  0  0  0  0  0  0  0  0
    4.5336    0.0507   -0.7972 C   0  0  0  0  0  3  0  0  0  0  0  0
    4.5676    1.0967   -1.1469 H   0  0  0  0  0  0  0  0  0  0  0  0
    5.6445   -0.8052   -0.8364 C   0  0  0  0  0  0  0  0  0  0  0  0
    6.6122   -0.4397   -1.2083 H   0  0  0  0  0  0  0  0  0  0  0  0
    5.4834   -2.1275   -0.3969 C   0  0  0  0  0  0  0  0  0  0  0  0
    6.3302   -2.8297   -0.4163 H   0  0  0  0  0  0  0  0  0  0  0  0
    4.2273   -2.5553    0.0554 C   0  0  0  0  0  0  0  0  0  0  0  0
    4.0758   -3.5957    0.3749 H   0  0  0  0  0  0  0  0  0  0  0  0
    3.1647   -1.6335    0.0669 C   0  0  0  0  0  0  0  0  0  0  0  0
    1.7754   -1.9619    0.4908 C   0  0  1  0  0  3  0  0  0  0  0  0
    1.4154   -3.1262    1.1931 C   0  0  0  0  0  0  0  0  0  0  0  0
    2.1705   -3.8740    1.4704 H   0  0  0  0  0  0  0  0  0  0  0  0
    0.0763   -3.2913    1.5744 C   0  0  0  0  0  0  0  0  0  0  0  0
   -0.2272   -4.1740    2.1559 H   0  0  0  0  0  0  0  0  0  0  0  0
   -0.8704   -2.3220    1.2270 C   0  0  0  0  0  0  0  0  0  0  0  0
   -1.9179   -2.4241    1.5356 H   0  0  0  0  0  0  0  0  0  0  0  0
   -0.4393   -1.1947    0.4989 C   0  0  0  0  0  0  0  0  0  0  0  0
   -1.3185   -0.0431    0.1573 C   0  0  1  0  0  3  0  0  0  0  0  0
   -1.3490    2.2849    0.0252 C   0  0  0  0  0  0  0  0  0  0  0  0
   -2.7645    2.2517    0.2270 C   0  0  0  0  0  0  0  0  0  0  0  0
   -2.7468   -0.0594    0.0338 C   0  0  0  0  0  0  0  0  0  0  0  0
   -0.6534    3.5324   -0.1152 C   0  0  0  0  0  0  0  0  0  0  0  0
   -3.5244    3.4465    0.4780 C   0  0  0  0  0  0  0  0  0  0  0  0
   -3.5471   -1.2600   -0.3213 C   0  0  0  0  0  0  0  0  0  0  0  0
   -4.9407   -1.2746   -0.0965 C   0  0  0  0  0  0  0  0  0  0  0  0
   -5.4205   -0.4057    0.3742 H   0  0  0  0  0  0  0  0  0  0  0  0
   -5.6658   -2.4037   -0.4955 C   0  0  0  0  0  0  0  0  0  0  0  0
   -6.7529   -2.4529   -0.3322 H   0  0  0  0  0  0  0  0  0  0  0  0
   -4.9840   -3.4655   -1.1080 C   0  0  0  0  0  0  0  0  0  0  0  0
   -5.5149   -4.3695   -1.4411 H   0  0  0  0  0  0  0  0  0  0  0  0
   -3.5944   -3.3483   -1.2945 C   0  0  0  0  0  0  0  0  0  0  0  0
   -3.0260   -4.1604   -1.7814 H   0  0  0  0  0  0  0  0  0  0  0  0
  1 16  1  0  0  0  0
  2 17  1  0  0  0  0
  2 24  1  0  0  0  0
  3 25  1  0  0  0  0
  4 27  1  0  0  0  0
  5 29  3  0  0  0  0
  7 31  1  0  0  0  0
  8  1  1  0  0  0  0
  9  8  1  0  0  0  0
 10  8  1  0  0  0  0
 10 12  2  0  0  0  0
 11 10  1  0  0  0  0
 12 14  1  0  0  0  0
 13 12  1  0  0  0  0
 14 16  2  0  0  0  0
 14 15  1  0  0  0  0
 17 16  1  1  0  0  0
 17 18  1  0  0  0  0
 18 19  1  0  0  0  0
 18 20  2  0  0  0  0
 20 21  1  0  0  0  0
 22 23  1  0  0  0  0
 22 20  1  0  0  0  0
 24 22  2  0  0  0  0
 25 24  1  1  0  0  0
 26  3  1  0  0  0  0
 26 27  2  0  0  0  0
 27 30  1  0  0  0  0
 28  4  2  0  0  0  0
 28 25  1  0  0  0  0
 29 26  1  0  0  0  0
 30  6  3  0  0  0  0
 31 32  2  0  0  0  0
 31 28  1  0  0  0  0
 32 33  1  0  0  0  0
 34 35  1  0  0  0  0
 34 32  1  0  0  0  0
 36 34  2  0  0  0  0
 37 36  1  0  0  0  0
 38 36  1  0  0  0  0
 38  7  2  0  0  0  0
 39 38  1  0  0  0  0
M  END
