1,2,3
 OpenBabel05122313063D

 27 29  0  0  1  0  0  0  0  0999 V2000
    0.0078    1.4776   -0.3594 N   0  0  0  0  0  0  0  0  0  0  0  0
   -2.0681    0.2311    0.3179 N   0  0  0  0  0  2  0  0  0  0  0  0
    2.0878    0.2354    0.2751 N   0  0  0  0  0  2  0  0  0  0  0  0
    3.1119   -0.4103    0.8630 C   0  0  0  0  0  3  0  0  0  0  0  0
    2.8637   -1.3575    1.3562 H   0  0  0  0  0  0  0  0  0  0  0  0
    4.4200    0.0810    0.8785 C   0  0  0  0  0  0  0  0  0  0  0  0
    5.2094   -0.5006    1.3738 H   0  0  0  0  0  0  0  0  0  0  0  0
    4.6857    1.3159    0.2602 C   0  0  0  0  0  0  0  0  0  0  0  0
    5.7066    1.7258    0.2387 H   0  0  0  0  0  0  0  0  0  0  0  0
    3.6270    2.0302   -0.2962 C   0  0  0  0  0  0  0  0  0  0  0  0
    3.7761    3.0222   -0.7449 H   0  0  0  0  0  0  0  0  0  0  0  0
    2.3183    1.4995   -0.2539 C   0  0  0  0  0  0  0  0  0  0  0  0
    1.1222    2.1982   -0.6406 C   0  0  0  0  0  0  0  0  0  0  0  0
    0.7027    3.4910   -1.0896 C   0  0  0  0  0  0  0  0  0  0  0  0
    1.3510    4.3232   -1.3869 H   0  0  0  0  0  0  0  0  0  0  0  0
   -0.7038    3.5002   -1.0465 C   0  0  0  0  0  0  0  0  0  0  0  0
   -1.3581    4.3401   -1.3069 H   0  0  0  0  0  0  0  0  0  0  0  0
   -1.1122    2.2130   -0.5723 C   0  0  0  0  0  3  0  0  0  0  0  0
   -2.2995    1.5150   -0.1576 C   0  0  2  0  0  3  0  0  0  0  0  0
   -3.6065    2.0516   -0.1590 C   0  0  0  0  0  0  0  0  0  0  0  0
   -3.7564    3.0654   -0.5558 H   0  0  0  0  0  0  0  0  0  0  0  0
   -4.6654    1.3081    0.3573 C   0  0  0  0  0  0  0  0  0  0  0  0
   -5.6847    1.7223    0.3654 H   0  0  0  0  0  0  0  0  0  0  0  0
   -4.4058    0.0294    0.8820 C   0  0  0  0  0  0  0  0  0  0  0  0
   -5.2002   -0.5883    1.3223 H   0  0  0  0  0  0  0  0  0  0  0  0
   -3.0975   -0.4605    0.8394 C   0  0  0  0  0  0  0  0  0  0  0  0
   -2.8576   -1.4516    1.2438 H   0  0  0  0  0  0  0  0  0  0  0  0
  2 26  1  0  0  0  0
  3  4  1  0  0  0  0
  4  6  1  0  0  0  0
  4  5  1  0  0  0  0
  6  7  1  0  0  0  0
  8  6  2  0  0  0  0
  9  8  1  0  0  0  0
 10 12  2  0  0  0  0
 10  8  1  0  0  0  0
 11 10  1  0  0  0  0
 12  3  1  0  0  0  0
 13  1  2  0  0  0  0
 13 12  1  0  0  0  0
 14 16  2  0  0  0  0
 14 13  1  0  0  0  0
 15 14  1  0  0  0  0
 16 18  1  0  0  0  0
 17 16  1  0  0  0  0
 18  1  1  0  0  0  0
 19 18  1  1  0  0  0
 19  2  1  0  0  0  0
 20 19  1  0  0  0  0
 20 22  2  0  0  0  0
 21 20  1  0  0  0  0
 22 23  1  0  0  0  0
 22 24  1  0  0  0  0
 24 25  1  0  0  0  0
 26 24  2  0  0  0  0
 26 27  1  0  0  0  0
M  END
