1,4,5
 OpenBabel05122313063D

 29 28  0  0  0  0  0  0  0  0999 V2000
   -0.1057   -1.8944   -1.3160 N   0  0  0  0  0  0  0  0  0  0  0  0
   -0.6608   -2.6200   -0.8385 H   0  0  0  0  0  0  0  0  0  0  0  0
   -0.5590   -1.8101   -2.2381 H   0  0  0  0  0  0  0  0  0  0  0  0
    1.6248    0.0035    0.7954 N   0  0  0  0  0  0  0  0  0  0  0  0
    0.3097    1.2407   -1.7522 N   0  0  0  0  0  0  0  0  0  0  0  0
    0.8966    0.6889   -2.3977 H   0  0  0  0  0  0  0  0  0  0  0  0
   -0.4888    1.5482   -2.3260 H   0  0  0  0  0  0  0  0  0  0  0  0
    1.2782   -2.4077   -1.4978 C   0  0  0  0  0  0  0  0  0  0  0  0
    1.7610   -1.8171   -2.3050 H   0  0  0  0  0  0  0  0  0  0  0  0
    1.2435   -3.4583   -1.8551 H   0  0  0  0  0  0  0  0  0  0  0  0
    2.1138   -2.3115   -0.2252 C   0  0  0  0  0  0  0  0  0  0  0  0
    3.0169   -2.9374   -0.3745 H   0  0  0  0  0  0  0  0  0  0  0  0
    1.5769   -2.7762    0.6293 H   0  0  0  0  0  0  0  0  0  0  0  0
    2.6001   -0.9013    0.1107 C   0  0  0  0  0  0  0  0  0  0  0  0
    3.5083   -0.9594    0.7520 H   0  0  0  0  0  0  0  0  0  0  0  0
    2.9182   -0.4129   -0.8308 H   0  0  0  0  0  0  0  0  0  0  0  0
    2.1854    1.4001    0.7854 C   0  0  0  0  0  0  0  0  0  0  0  0
    3.1835    1.3618    1.2789 H   0  0  0  0  0  0  0  0  0  0  0  0
    1.5329    2.0112    1.4394 H   0  0  0  0  0  0  0  0  0  0  0  0
    2.3468    2.0903   -0.5696 C   0  0  0  0  0  0  0  0  0  0  0  0
    3.0350    1.5219   -1.2326 H   0  0  0  0  0  0  0  0  0  0  0  0
    2.8838    3.0396   -0.3667 H   0  0  0  0  0  0  0  0  0  0  0  0
    1.0770    2.4478   -1.3316 C   0  0  0  0  0  0  0  0  0  0  0  0
    0.4030    3.0643   -0.7043 H   0  0  0  0  0  0  0  0  0  0  0  0
    1.3454    3.0545   -2.2223 H   0  0  0  0  0  0  0  0  0  0  0  0
    1.5494   -0.4008    2.2297 C   0  0  0  0  0  0  0  0  0  0  0  0
    1.2009   -1.4441    2.3188 H   0  0  0  0  0  0  0  0  0  0  0  0
    0.8380    0.2522    2.7657 H   0  0  0  0  0  0  0  0  0  0  0  0
    2.5516   -0.3146    2.7045 H   0  0  0  0  0  0  0  0  0  0  0  0
  1  2  1  0  0  0  0
  3  1  1  0  0  0  0
  4 26  1  0  0  0  0
  5 23  1  0  0  0  0
  6  5  1  0  0  0  0
  7  5  1  0  0  0  0
  8  1  1  0  0  0  0
  8 11  1  0  0  0  0
  9  8  1  0  0  0  0
 10  8  1  0  0  0  0
 11 14  1  0  0  0  0
 11 13  1  0  0  0  0
 12 11  1  0  0  0  0
 14 15  1  0  0  0  0
 14  4  1  0  0  0  0
 16 14  1  0  0  0  0
 17  4  1  0  0  0  0
 17 18  1  0  0  0  0
 17 19  1  0  0  0  0
 20 22  1  0  0  0  0
 20 17  1  0  0  0  0
 21 20  1  0  0  0  0
 23 24  1  0  0  0  0
 23 20  1  0  0  0  0
 25 23  1  0  0  0  0
 26 27  1  0  0  0  0
 26 29  1  0  0  0  0
 26 28  1  0  0  0  0
M  END
