1,2,3
 OpenBabel05122313063D

 54 53  0  0  0  0  0  0  0  0999 V2000
    0.1257   -1.7317   -0.8682 N   0  0  0  0  0  2  0  0  0  0  0  0
    0.1468    1.7413   -0.8561 N   0  0  0  0  0  2  0  0  0  0  0  0
   -2.1251    0.0177   -0.7284 N   0  0  0  0  0  0  0  0  0  0  0  0
    0.6425   -3.3318   -0.3656 Si  0  0  0  0  0  0  0  0  0  0  0  0
    0.6766    3.3299   -0.3286 Si  0  0  0  0  0  0  0  0  0  0  0  0
   -3.4200    0.0117    0.5657 Si  0  0  0  0  0  0  0  0  0  0  0  0
   -0.7708   -1.6636   -2.0172 C   0  0  0  0  0  0  0  0  0  0  0  0
   -2.1674   -1.2111   -1.5664 C   0  0  0  0  0  0  0  0  0  0  0  0
   -2.1583    1.2615   -1.5441 C   0  0  0  0  0  0  0  0  0  0  0  0
   -0.7598    1.7027   -1.9991 C   0  0  0  0  0  0  0  0  0  0  0  0
    1.6765   -3.2110    1.2134 C   0  0  0  0  0  0  0  0  0  0  0  0
    1.6896   -4.1620   -1.7180 C   0  0  0  0  0  0  0  0  0  0  0  0
   -0.8575   -4.4478   -0.0204 C   0  0  0  0  0  0  0  0  0  0  0  0
    1.7299    4.1680   -1.6714 C   0  0  0  0  0  0  0  0  0  0  0  0
    1.7161    3.1761    1.2436 C   0  0  0  0  0  0  0  0  0  0  0  0
   -0.8127    4.4532    0.0373 C   0  0  0  0  0  0  0  0  0  0  0  0
   -3.2172    1.5452    1.6389 C   0  0  0  0  0  0  0  0  0  0  0  0
   -3.2311   -1.5425    1.6113 C   0  0  0  0  0  0  0  0  0  0  0  0
   -5.1052    0.0269   -0.2953 C   0  0  0  0  0  0  0  0  0  0  0  0
   -0.3868   -0.9687   -2.8018 H   0  0  0  0  0  0  0  0  0  0  0  0
   -0.8887   -2.6410   -2.5473 H   0  0  0  0  0  0  0  0  0  0  0  0
   -2.8453   -1.0603   -2.4402 H   0  0  0  0  0  0  0  0  0  0  0  0
   -2.5939   -2.0337   -0.9570 H   0  0  0  0  0  0  0  0  0  0  0  0
   -2.8457    1.1355   -2.4146 H   0  0  0  0  0  0  0  0  0  0  0  0
   -2.5682    2.0786   -0.9162 H   0  0  0  0  0  0  0  0  0  0  0  0
   -0.8688    2.6896   -2.5133 H   0  0  0  0  0  0  0  0  0  0  0  0
   -0.3916    1.0147   -2.7972 H   0  0  0  0  0  0  0  0  0  0  0  0
    1.7954   -4.2203    1.6585 H   0  0  0  0  0  0  0  0  0  0  0  0
    2.6915   -2.8183    1.0042 H   0  0  0  0  0  0  0  0  0  0  0  0
    1.1924   -2.5585    1.9697 H   0  0  0  0  0  0  0  0  0  0  0  0
    1.9944   -5.1876   -1.4221 H   0  0  0  0  0  0  0  0  0  0  0  0
    1.1313   -4.2427   -2.6738 H   0  0  0  0  0  0  0  0  0  0  0  0
    2.6112   -3.5762   -1.9179 H   0  0  0  0  0  0  0  0  0  0  0  0
   -0.5447   -5.4846    0.2238 H   0  0  0  0  0  0  0  0  0  0  0  0
   -1.5363   -4.5048   -0.8970 H   0  0  0  0  0  0  0  0  0  0  0  0
   -1.4413   -4.0542    0.8368 H   0  0  0  0  0  0  0  0  0  0  0  0
    2.0452    5.1869   -1.3634 H   0  0  0  0  0  0  0  0  0  0  0  0
    1.1725    4.2657   -2.6261 H   0  0  0  0  0  0  0  0  0  0  0  0
    2.6457    3.5753   -1.8777 H   0  0  0  0  0  0  0  0  0  0  0  0
    1.8328    4.1746    1.7128 H   0  0  0  0  0  0  0  0  0  0  0  0
    1.2437    2.5007    1.9872 H   0  0  0  0  0  0  0  0  0  0  0  0
    2.7316    2.7939    1.0176 H   0  0  0  0  0  0  0  0  0  0  0  0
   -0.4891    5.4825    0.2980 H   0  0  0  0  0  0  0  0  0  0  0  0
   -1.4930    4.5314   -0.8364 H   0  0  0  0  0  0  0  0  0  0  0  0
   -1.3981    4.0512    0.8896 H   0  0  0  0  0  0  0  0  0  0  0  0
   -3.9508    1.4923    2.4702 H   0  0  0  0  0  0  0  0  0  0  0  0
   -3.4003    2.4903    1.0910 H   0  0  0  0  0  0  0  0  0  0  0  0
   -2.2029    1.5726    2.0863 H   0  0  0  0  0  0  0  0  0  0  0  0
   -3.9634   -1.4973    2.4441 H   0  0  0  0  0  0  0  0  0  0  0  0
   -3.4235   -2.4758    1.0467 H   0  0  0  0  0  0  0  0  0  0  0  0
   -2.2166   -1.5874    2.0566 H   0  0  0  0  0  0  0  0  0  0  0  0
   -5.9220    0.0222    0.4558 H   0  0  0  0  0  0  0  0  0  0  0  0
   -5.2329    0.9315   -0.9242 H   0  0  0  0  0  0  0  0  0  0  0  0
   -5.2395   -0.8637   -0.9426 H   0  0  0  0  0  0  0  0  0  0  0  0
  1  4  1  0  0  0  0
  2  5  1  0  0  0  0
  3  6  1  0  0  0  0
  4 13  1  0  0  0  0
  4 11  1  0  0  0  0
  5 16  1  0  0  0  0
  5 15  1  0  0  0  0
  6 18  1  0  0  0  0
  6 17  1  0  0  0  0
  7  8  1  0  0  0  0
  7  1  1  0  0  0  0
  8 23  1  0  0  0  0
  8  3  1  0  0  0  0
  9 25  1  0  0  0  0
  9  3  1  0  0  0  0
 10  9  1  0  0  0  0
 10  2  1  0  0  0  0
 11 28  1  0  0  0  0
 11 30  1  0  0  0  0
 12 31  1  0  0  0  0
 12  4  1  0  0  0  0
 13 34  1  0  0  0  0
 13 36  1  0  0  0  0
 14 37  1  0  0  0  0
 14  5  1  0  0  0  0
 15 40  1  0  0  0  0
 15 41  1  0  0  0  0
 16 43  1  0  0  0  0
 16 45  1  0  0  0  0
 17 48  1  0  0  0  0
 17 46  1  0  0  0  0
 18 51  1  0  0  0  0
 18 49  1  0  0  0  0
 19 52  1  0  0  0  0
 19  6  1  0  0  0  0
 20  7  1  0  0  0  0
 21  7  1  0  0  0  0
 22  8  1  0  0  0  0
 24  9  1  0  0  0  0
 26 10  1  0  0  0  0
 27 10  1  0  0  0  0
 29 11  1  0  0  0  0
 32 12  1  0  0  0  0
 33 12  1  0  0  0  0
 35 13  1  0  0  0  0
 38 14  1  0  0  0  0
 39 14  1  0  0  0  0
 42 15  1  0  0  0  0
 44 16  1  0  0  0  0
 47 17  1  0  0  0  0
 50 18  1  0  0  0  0
 53 19  1  0  0  0  0
 54 19  1  0  0  0  0
M  END
