1,2,3
 OpenBabel05122313063D

 71 75  0  0  1  0  0  0  0  0999 V2000
    0.0325    1.8188    0.0665 N   0  0  0  0  0  2  0  0  0  0  0  0
   -2.1899    0.1869   -0.5936 N   0  0  0  0  0  2  0  0  0  0  0  0
   -0.0357   -1.5355    0.1892 N   0  0  0  0  0  2  0  0  0  0  0  0
   -0.6039    2.7745   -0.7163 C   0  0  0  0  0  0  0  0  0  0  0  0
    0.0151    4.0410   -0.8972 C   0  0  0  0  0  0  0  0  0  0  0  0
    1.0108    4.1931   -0.4573 H   0  0  0  0  0  0  0  0  0  0  0  0
   -0.6196    5.0786   -1.5755 C   0  0  0  0  0  0  0  0  0  0  0  0
   -0.1174    6.0531   -1.6737 H   0  0  0  0  0  0  0  0  0  0  0  0
   -1.9101    4.8844   -2.1002 C   0  0  0  0  0  0  0  0  0  0  0  0
   -2.4471    5.7065   -2.5949 H   0  0  0  0  0  0  0  0  0  0  0  0
   -2.5048    3.6288   -1.9881 C   0  0  0  0  0  0  0  0  0  0  0  0
   -3.5146    3.4944   -2.3984 H   0  0  0  0  0  0  0  0  0  0  0  0
   -1.8717    2.5295   -1.3486 C   0  0  0  0  0  0  0  0  0  0  0  0
   -2.5165    1.2002   -1.4464 C   0  0  1  0  0  3  0  0  0  0  0  0
   -3.4923    0.9580   -2.4468 C   0  0  0  0  0  0  0  0  0  0  0  0
   -3.7068    1.7276   -3.1970 H   0  0  0  0  0  0  0  0  0  0  0  0
   -4.1696   -0.2596   -2.4935 C   0  0  0  0  0  0  0  0  0  0  0  0
   -4.9286   -0.4395   -3.2695 H   0  0  0  0  0  0  0  0  0  0  0  0
   -3.8610   -1.2553   -1.5607 C   0  0  0  0  0  0  0  0  0  0  0  0
   -4.3587   -2.2333   -1.5799 H   0  0  0  0  0  0  0  0  0  0  0  0
   -2.8387   -1.0111   -0.6272 C   0  0  0  0  0  0  0  0  0  0  0  0
   -2.4344   -2.0848    0.3159 C   0  0  0  0  0  0  0  0  0  0  0  0
   -3.4389   -2.9249    0.8648 C   0  0  0  0  0  0  0  0  0  0  0  0
   -4.4922   -2.6293    0.7489 H   0  0  0  0  0  0  0  0  0  0  0  0
   -3.1176   -4.0988    1.5410 C   0  0  0  0  0  0  0  0  0  0  0  0
   -3.9145   -4.7231    1.9706 H   0  0  0  0  0  0  0  0  0  0  0  0
   -1.7647   -4.4861    1.6614 C   0  0  0  0  0  0  0  0  0  0  0  0
   -1.5038   -5.4243    2.1743 H   0  0  0  0  0  0  0  0  0  0  0  0
   -0.7548   -3.6666    1.1678 C   0  0  0  0  0  0  0  0  0  0  0  0
    0.3049   -3.9376    1.2816 H   0  0  0  0  0  0  0  0  0  0  0  0
   -1.0551   -2.4289    0.5352 C   0  0  0  0  0  0  0  0  0  0  0  0
    1.4578    1.8442    0.2127 C   0  0  0  0  0  0  0  0  0  0  0  0
    2.0645    2.3923    1.3768 C   0  0  0  0  0  0  0  0  0  0  0  0
    3.4607    2.2711    1.5159 C   0  0  0  0  0  0  0  0  0  0  0  0
    3.9355    2.6727    2.4258 H   0  0  0  0  0  0  0  0  0  0  0  0
    4.2610    1.6601    0.5364 C   0  0  0  0  0  0  0  0  0  0  0  0
    3.6400    1.2035   -0.6437 C   0  0  0  0  0  0  0  0  0  0  0  0
    4.2526    0.7444   -1.4359 H   0  0  0  0  0  0  0  0  0  0  0  0
    2.2552    1.2940   -0.8348 C   0  0  0  0  0  0  0  0  0  0  0  0
    1.2642    3.1040    2.4360 C   0  0  0  0  0  0  0  0  0  0  0  0
    0.2691    3.4167    2.0658 H   0  0  0  0  0  0  0  0  0  0  0  0
    1.8065    4.0030    2.7899 H   0  0  0  0  0  0  0  0  0  0  0  0
    1.0952    2.4448    3.3130 H   0  0  0  0  0  0  0  0  0  0  0  0
    5.7418    1.4720    0.7430 C   0  0  0  0  0  0  0  0  0  0  0  0
    6.1356    2.1394    1.5339 H   0  0  0  0  0  0  0  0  0  0  0  0
    6.3123    1.6593   -0.1888 H   0  0  0  0  0  0  0  0  0  0  0  0
    5.9624    0.4271    1.0515 H   0  0  0  0  0  0  0  0  0  0  0  0
    1.6244    0.8600   -2.1294 C   0  0  0  0  0  0  0  0  0  0  0  0
    1.4374    1.7399   -2.7821 H   0  0  0  0  0  0  0  0  0  0  0  0
    0.6439    0.3772   -1.9623 H   0  0  0  0  0  0  0  0  0  0  0  0
    2.2748    0.1512   -2.6748 H   0  0  0  0  0  0  0  0  0  0  0  0
    1.0916   -2.0176   -0.5409 C   0  0  0  0  0  0  0  0  0  0  0  0
    2.3993   -2.0116    0.0136 C   0  0  0  0  0  0  0  0  0  0  0  0
    3.4767   -2.4400   -0.7855 C   0  0  0  0  0  0  0  0  0  0  0  0
    4.4869   -2.4275   -0.3444 H   0  0  0  0  0  0  0  0  0  0  0  0
    3.3106   -2.8923   -2.1041 C   0  0  0  0  0  0  0  0  0  0  0  0
    2.0037   -2.9067   -2.6247 C   0  0  0  0  0  0  0  0  0  0  0  0
    1.8381   -3.2481   -3.6598 H   0  0  0  0  0  0  0  0  0  0  0  0
    0.8957   -2.4762   -1.8774 C   0  0  0  0  0  0  0  0  0  0  0  0
    2.6619   -1.5721    1.4266 C   0  0  0  0  0  0  0  0  0  0  0  0
    2.5862   -0.4713    1.5405 H   0  0  0  0  0  0  0  0  0  0  0  0
    3.6819   -1.8629    1.7433 H   0  0  0  0  0  0  0  0  0  0  0  0
    1.9338   -2.0023    2.1397 H   0  0  0  0  0  0  0  0  0  0  0  0
    4.4803   -3.3788   -2.9223 C   0  0  0  0  0  0  0  0  0  0  0  0
    4.5547   -4.4876   -2.8966 H   0  0  0  0  0  0  0  0  0  0  0  0
    5.4403   -2.9776   -2.5422 H   0  0  0  0  0  0  0  0  0  0  0  0
    4.3827   -3.0885   -3.9879 H   0  0  0  0  0  0  0  0  0  0  0  0
   -0.4658   -2.4455   -2.5199 C   0  0  0  0  0  0  0  0  0  0  0  0
   -0.4107   -2.7679   -3.5769 H   0  0  0  0  0  0  0  0  0  0  0  0
   -0.8963   -1.4233   -2.4948 H   0  0  0  0  0  0  0  0  0  0  0  0
   -1.1925   -3.1033   -2.0008 H   0  0  0  0  0  0  0  0  0  0  0  0
  1 32  1  0  0  0  0
  3 31  1  0  0  0  0
  4  1  1  0  0  0  0
  5  4  1  0  0  0  0
  5  6  1  0  0  0  0
  7  5  2  0  0  0  0
  8  7  1  0  0  0  0
  9 11  2  0  0  0  0
  9  7  1  0  0  0  0
 10  9  1  0  0  0  0
 11 13  1  0  0  0  0
 12 11  1  0  0  0  0
 13  4  2  0  0  0  0
 14 13  1  6  0  0  0
 14  2  1  0  0  0  0
 15 14  1  0  0  0  0
 16 15  1  0  0  0  0
 17 15  2  0  0  0  0
 17 19  1  0  0  0  0
 18 17  1  0  0  0  0
 19 21  2  0  0  0  0
 20 19  1  0  0  0  0
 21  2  1  0  0  0  0
 21 22  1  0  0  0  0
 22 31  2  0  0  0  0
 22 23  1  0  0  0  0
 23 25  2  0  0  0  0
 24 23  1  0  0  0  0
 25 27  1  0  0  0  0
 25 26  1  0  0  0  0
 27 28  1  0  0  0  0
 29 30  1  0  0  0  0
 29 27  2  0  0  0  0
 31 29  1  0  0  0  0
 32 33  1  0  0  0  0
 33 34  2  0  0  0  0
 33 40  1  0  0  0  0
 34 35  1  0  0  0  0
 36 44  1  0  0  0  0
 36 34  1  0  0  0  0
 37 36  2  0  0  0  0
 38 37  1  0  0  0  0
 39 37  1  0  0  0  0
 39 32  2  0  0  0  0
 40 42  1  0  0  0  0
 40 43  1  0  0  0  0
 41 40  1  0  0  0  0
 44 47  1  0  0  0  0
 44 45  1  0  0  0  0
 46 44  1  0  0  0  0
 48 50  1  0  0  0  0
 48 39  1  0  0  0  0
 49 48  1  0  0  0  0
 51 48  1  0  0  0  0
 52 53  1  0  0  0  0
 52  3  1  0  0  0  0
 53 60  1  0  0  0  0
 54 55  1  0  0  0  0
 54 53  2  0  0  0  0
 56 54  1  0  0  0  0
 57 56  2  0  0  0  0
 57 59  1  0  0  0  0
 58 57  1  0  0  0  0
 59 52  2  0  0  0  0
 60 61  1  0  0  0  0
 60 62  1  0  0  0  0
 60 63  1  0  0  0  0
 64 65  1  0  0  0  0
 64 66  1  0  0  0  0
 64 56  1  0  0  0  0
 67 64  1  0  0  0  0
 68 70  1  0  0  0  0
 68 71  1  0  0  0  0
 68 59  1  0  0  0  0
 69 68  1  0  0  0  0
M  END
