1,5,6
 OpenBabel05122313063D

 37 41  0  0  1  0  0  0  0  0999 V2000
   -0.0159    1.6895   -0.0010 N   0  0  0  0  0  2  0  0  0  0  0  0
   -2.2914    1.4871   -0.0003 C   0  0  0  0  0  0  0  0  0  0  0  0
   -3.6462    1.7227   -0.0005 N   0  0  0  0  0  0  0  0  0  0  0  0
   -4.0932    2.6370   -0.0011 H   0  0  0  0  0  0  0  0  0  0  0  0
   -2.0207    0.1575    0.0002 N   0  0  0  0  0  2  0  0  0  0  0  0
    1.9985    0.0772   -0.0003 N   0  0  0  0  0  2  0  0  0  0  0  0
    3.6363    1.5992   -0.0006 N   0  0  0  0  0  0  0  0  0  0  0  0
    4.0990    2.5069   -0.0008 H   0  0  0  0  0  0  0  0  0  0  0  0
    4.2625    0.3585   -0.0005 C   0  0  0  0  0  0  0  0  0  0  0  0
   -3.2533   -0.4906    0.0002 C   0  0  0  0  0  0  0  0  0  0  0  0
    3.2000   -0.5990   -0.0003 C   0  0  0  0  0  0  0  0  0  0  0  0
    2.2794    1.3876   -0.0005 C   0  0  1  0  0  3  0  0  0  0  0  0
   -5.6525    0.1632   -0.0004 C   0  0  0  0  0  0  0  0  0  0  0  0
   -6.4349    0.9362   -0.0007 H   0  0  0  0  0  0  0  0  0  0  0  0
    5.8667   -1.4076   -0.0003 C   0  0  0  0  0  0  0  0  0  0  0  0
    6.9102   -1.7560   -0.0003 H   0  0  0  0  0  0  0  0  0  0  0  0
   -1.1901    2.4011   -0.0007 C   0  0  0  0  0  0  0  0  0  0  0  0
   -3.5961   -1.8559    0.0005 C   0  0  0  0  0  0  0  0  0  0  0  0
   -2.8367   -2.6478    0.0007 H   0  0  0  0  0  0  0  0  0  0  0  0
   -4.2905    0.4966   -0.0003 C   0  0  0  0  0  0  0  0  0  0  0  0
    1.2551    3.7404   -0.0003 C   0  0  0  0  0  0  0  0  0  0  0  0
    2.2267    4.2560    0.0002 H   0  0  0  0  0  0  0  0  0  0  0  0
    3.4742   -1.9803   -0.0001 C   0  0  0  0  0  0  0  0  0  0  0  0
    2.6380   -2.6934    0.0002 H   0  0  0  0  0  0  0  0  0  0  0  0
    0.0490    4.4833   -0.0003 C   0  0  0  0  0  0  0  0  0  0  0  0
    0.0785    5.5815   -0.0001 H   0  0  0  0  0  0  0  0  0  0  0  0
    1.1845    2.3452   -0.0006 C   0  0  0  0  0  0  0  0  0  0  0  0
   -4.9564   -2.1885    0.0003 C   0  0  0  0  0  0  0  0  0  0  0  0
   -5.2405   -3.2512    0.0005 H   0  0  0  0  0  0  0  0  0  0  0  0
    4.8190   -2.3630   -0.0000 C   0  0  0  0  0  0  0  0  0  0  0  0
    5.0749   -3.4330    0.0002 H   0  0  0  0  0  0  0  0  0  0  0  0
    5.6105   -0.0293   -0.0005 C   0  0  0  0  0  0  0  0  0  0  0  0
    6.4282    0.7060   -0.0007 H   0  0  0  0  0  0  0  0  0  0  0  0
   -5.9690   -1.2015   -0.0001 C   0  0  0  0  0  0  0  0  0  0  0  0
   -7.0255   -1.5086   -0.0002 H   0  0  0  0  0  0  0  0  0  0  0  0
   -1.1785    3.8099   -0.0005 C   0  0  0  0  0  0  0  0  0  0  0  0
   -2.1228    4.3745   -0.0002 H   0  0  0  0  0  0  0  0  0  0  0  0
  1 17  1  0  0  0  0
  1 27  1  0  0  0  0
  2  5  1  0  0  0  0
  3  2  1  0  0  0  0
  3 20  1  0  0  0  0
  4  3  1  0  0  0  0
  6 11  1  0  0  0  0
  7  9  1  0  0  0  0
  7 12  1  0  0  0  0
  8  7  1  0  0  0  0
  9 11  1  0  0  0  0
 10  5  1  0  0  0  0
 10 18  1  0  0  0  0
 11 23  2  0  0  0  0
 12 27  1  6  0  0  0
 12  6  1  0  0  0  0
 13 20  1  0  0  0  0
 13 34  2  0  0  0  0
 14 13  1  0  0  0  0
 15 30  2  0  0  0  0
 16 15  1  0  0  0  0
 17 36  1  0  0  0  0
 17  2  2  0  0  0  0
 18 19  1  0  0  0  0
 20 10  2  0  0  0  0
 21 22  1  0  0  0  0
 23 30  1  0  0  0  0
 23 24  1  0  0  0  0
 25 21  1  0  0  0  0
 25 26  1  0  0  0  0
 27 21  2  0  0  0  0
 28 18  2  0  0  0  0
 28 29  1  0  0  0  0
 30 31  1  0  0  0  0
 32  9  2  0  0  0  0
 32 15  1  0  0  0  0
 33 32  1  0  0  0  0
 34 28  1  0  0  0  0
 35 34  1  0  0  0  0
 36 25  2  0  0  0  0
 36 37  1  0  0  0  0
M  END
