1,17,35
 OpenBabel05122313063D

 45 47  0  0  1  0  0  0  0  0999 V2000
   -0.3203   -1.9595    0.6581 N   0  0  0  0  0  2  0  0  0  0  0  0
    0.7246   -2.7955    0.9671 C   0  0  0  0  0  0  0  0  0  0  0  0
    0.5901   -3.8010    1.9346 C   0  0  0  0  0  0  0  0  0  0  0  0
    1.4459   -4.4539    2.1538 H   0  0  0  0  0  0  0  0  0  0  0  0
   -0.6477   -3.9563    2.5833 C   0  0  0  0  0  0  0  0  0  0  0  0
   -0.7729   -4.7318    3.3521 H   0  0  0  0  0  0  0  0  0  0  0  0
   -1.7355   -3.1438    2.2206 C   0  0  0  0  0  0  0  0  0  0  0  0
   -2.7281   -3.2668    2.6742 H   0  0  0  0  0  0  0  0  0  0  0  0
   -1.5488   -2.1652    1.2334 C   0  0  0  0  0  0  0  0  0  0  0  0
   -2.5223   -1.2817    0.6241 C   0  0  2  0  0  3  0  0  0  0  0  0
   -3.8173   -1.2472    0.9762 O   0  0  0  0  0  0  0  0  0  0  0  0
   -4.4262   -0.2030    0.1553 C   0  0  0  0  0  0  0  0  0  0  0  0
   -4.7430    0.6128    0.8361 H   0  0  0  0  0  0  0  0  0  0  0  0
   -5.3212   -0.6367   -0.3319 H   0  0  0  0  0  0  0  0  0  0  0  0
   -3.3222    0.2355   -0.8454 C   0  0  1  0  0  0  0  0  0  0  0  0
   -3.1273    1.3216   -0.7465 H   0  0  0  0  0  0  0  0  0  0  0  0
   -2.1335   -0.4795   -0.3438 N   0  0  0  0  0  2  0  0  0  0  0  0
   -3.5878   -0.0561   -2.3390 C   0  0  0  0  0  0  0  0  0  0  0  0
   -2.6144    0.1451   -2.8384 H   0  0  0  0  0  0  0  0  0  0  0  0
   -4.6332    0.9278   -2.8774 C   0  0  0  0  0  0  0  0  0  0  0  0
   -4.3287    1.9825   -2.7130 H   0  0  0  0  0  0  0  0  0  0  0  0
   -5.6231    0.7827   -2.3916 H   0  0  0  0  0  0  0  0  0  0  0  0
   -4.7817    0.7837   -3.9661 H   0  0  0  0  0  0  0  0  0  0  0  0
   -3.9650   -1.5135   -2.6114 C   0  0  0  0  0  0  0  0  0  0  0  0
   -4.0860   -1.6749   -3.7014 H   0  0  0  0  0  0  0  0  0  0  0  0
   -4.9286   -1.7949   -2.1334 H   0  0  0  0  0  0  0  0  0  0  0  0
   -3.1641   -2.1993   -2.2703 H   0  0  0  0  0  0  0  0  0  0  0  0
    1.8477   -2.5094    0.0943 C   0  0  0  0  0  0  0  0  0  0  0  0
    2.9374   -3.2886    0.0029 O   0  0  0  0  0  0  0  0  0  0  0  0
    3.6095   -2.8743   -1.2282 C   0  0  0  0  0  0  0  0  0  0  0  0
    3.4801   -3.6925   -1.9644 H   0  0  0  0  0  0  0  0  0  0  0  0
    4.6857   -2.7526   -0.9994 H   0  0  0  0  0  0  0  0  0  0  0  0
    2.9059   -1.5585   -1.6598 C   0  0  1  0  0  0  0  0  0  0  0  0
    2.4877   -1.6411   -2.6844 H   0  0  0  0  0  0  0  0  0  0  0  0
    1.7506   -1.5047   -0.7468 N   0  0  0  0  0  2  0  0  0  0  0  0
    3.7640   -0.2818   -1.5785 C   0  0  0  0  0  0  0  0  0  0  0  0
    3.0425    0.5393   -1.7630 H   0  0  0  0  0  0  0  0  0  0  0  0
    4.3916   -0.0771   -0.1983 C   0  0  0  0  0  0  0  0  0  0  0  0
    4.8511    0.9280   -0.1238 H   0  0  0  0  0  0  0  0  0  0  0  0
    5.1864   -0.8234    0.0145 H   0  0  0  0  0  0  0  0  0  0  0  0
    3.6305   -0.1453    0.6040 H   0  0  0  0  0  0  0  0  0  0  0  0
    4.8076   -0.2538   -2.6983 C   0  0  0  0  0  0  0  0  0  0  0  0
    5.3733    0.6996   -2.6806 H   0  0  0  0  0  0  0  0  0  0  0  0
    4.3318   -0.3480   -3.6955 H   0  0  0  0  0  0  0  0  0  0  0  0
    5.5492   -1.0756   -2.5937 H   0  0  0  0  0  0  0  0  0  0  0  0
  1  2  1  0  0  0  0
  1  9  1  0  0  0  0
  2  3  1  0  0  0  0
  3  4  1  0  0  0  0
  3  5  2  0  0  0  0
  5  6  1  0  0  0  0
  7  5  1  0  0  0  0
  7  8  1  0  0  0  0
  9  7  2  0  0  0  0
 10 11  1  0  0  0  0
 10  9  1  6  0  0  0
 12 13  1  0  0  0  0
 12 11  1  0  0  0  0
 14 12  1  0  0  0  0
 15 16  1  1  0  0  0
 15 17  1  0  0  0  0
 15 12  1  0  0  0  0
 17 10  1  0  0  0  0
 18 15  1  0  0  0  0
 19 18  1  0  0  0  0
 20 21  1  0  0  0  0
 20 22  1  0  0  0  0
 20 18  1  0  0  0  0
 23 20  1  0  0  0  0
 24 18  1  0  0  0  0
 24 27  1  0  0  0  0
 24 26  1  0  0  0  0
 25 24  1  0  0  0  0
 28  2  2  0  0  0  0
 29 28  1  0  0  0  0
 30 32  1  0  0  0  0
 30 29  1  0  0  0  0
 31 30  1  0  0  0  0
 33 34  1  6  0  0  0
 33 36  1  0  0  0  0
 33 30  1  0  0  0  0
 33 35  1  0  0  0  0
 35 28  1  0  0  0  0
 36 38  1  0  0  0  0
 37 36  1  0  0  0  0
 38 39  1  0  0  0  0
 38 40  1  0  0  0  0
 38 41  1  0  0  0  0
 42 43  1  0  0  0  0
 42 45  1  0  0  0  0
 42 36  1  0  0  0  0
 44 42  1  0  0  0  0
M  END
