13,23,30
 OpenBabel05122313063D

 70 75  0  0  1  0  0  0  0  0999 V2000
   -5.7356    2.9949    0.8363 O   0  0  0  0  0  0  0  0  0  0  0  0
   -6.8941   -1.2238   -0.8495 O   0  0  0  0  0  0  0  0  0  0  0  0
   -1.0504    0.6144   -0.0355 C   0  0  0  0  0  0  0  0  0  0  0  0
   -1.2047    1.6867    0.1627 H   0  0  0  0  0  0  0  0  0  0  0  0
   -2.1161   -0.2197   -0.1947 C   0  0  0  0  0  0  0  0  0  0  0  0
   -1.9364   -1.2803   -0.4420 H   0  0  0  0  0  0  0  0  0  0  0  0
   -4.8110    3.9201    1.4031 C   0  0  0  0  0  0  0  0  0  0  0  0
   -4.2540    3.4459    2.2433 H   0  0  0  0  0  0  0  0  0  0  0  0
   -5.4543    4.7123    1.8400 H   0  0  0  0  0  0  0  0  0  0  0  0
   -6.5879   -2.5031   -1.3896 C   0  0  0  0  0  0  0  0  0  0  0  0
   -5.8693   -2.4105   -2.2363 H   0  0  0  0  0  0  0  0  0  0  0  0
   -7.5499   -2.8561   -1.8173 H   0  0  0  0  0  0  0  0  0  0  0  0
    4.8337    1.6492    0.0011 N   0  0  0  0  0  2  0  0  0  0  0  0
    5.8321    2.5332    0.1061 C   0  0  0  0  0  3  0  0  0  0  0  0
    6.8467    2.0986    0.0849 H   0  0  0  0  0  0  0  0  0  0  0  0
    5.5894    3.9113    0.2293 C   0  0  0  0  0  0  0  0  0  0  0  0
    6.4313    4.6132    0.3165 H   0  0  0  0  0  0  0  0  0  0  0  0
    4.2608    4.3639    0.2408 C   0  0  0  0  0  0  0  0  0  0  0  0
    4.0386    5.4372    0.3399 H   0  0  0  0  0  0  0  0  0  0  0  0
    3.2181    3.4342    0.1215 C   0  0  0  0  0  0  0  0  0  0  0  0
    2.1580    3.7239    0.1172 H   0  0  0  0  0  0  0  0  0  0  0  0
    3.5537    2.0765   -0.0004 C   0  0  0  0  0  0  0  0  0  0  0  0
    3.0396   -0.2178   -0.3630 N   0  0  0  0  0  2  0  0  0  0  0  0
    2.5324    1.0025   -0.1433 C   0  0  1  0  0  3  0  0  0  0  0  0
    1.2327    1.2906   -0.0380 N   0  0  0  0  0  0  0  0  0  0  0  0
    0.3581    0.2548   -0.1341 C   0  0  0  0  0  0  0  0  0  0  0  0
    0.8272   -1.0763   -0.3056 C   0  0  0  0  0  0  0  0  0  0  0  0
    0.1254   -1.9200   -0.3294 H   0  0  0  0  0  0  0  0  0  0  0  0
    2.2072   -1.2735   -0.4157 C   0  0  0  0  0  0  0  0  0  0  0  0
    4.2477   -2.5092   -0.5008 N   0  0  0  0  0  2  0  0  0  0  0  0
    4.9942   -3.6096   -0.6374 C   0  0  0  0  0  3  0  0  0  0  0  0
    6.0846   -3.4416   -0.5841 H   0  0  0  0  0  0  0  0  0  0  0  0
    4.4181   -4.8744   -0.8401 C   0  0  0  0  0  0  0  0  0  0  0  0
    5.0568   -5.7633   -0.9449 H   0  0  0  0  0  0  0  0  0  0  0  0
    3.0204   -4.9704   -0.9054 C   0  0  0  0  0  0  0  0  0  0  0  0
    2.5334   -5.9443   -1.0639 H   0  0  0  0  0  0  0  0  0  0  0  0
    2.2452   -3.8094   -0.7721 C   0  0  0  0  0  0  0  0  0  0  0  0
    1.1489   -3.8587   -0.8340 H   0  0  0  0  0  0  0  0  0  0  0  0
    2.9013   -2.5832   -0.5679 C   0  0  0  0  0  0  0  0  0  0  0  0
   -3.5233    0.1618   -0.1008 C   0  0  0  0  0  0  0  0  0  0  0  0
   -4.5063   -0.7685   -0.5103 C   0  0  0  0  0  0  0  0  0  0  0  0
   -4.1920   -1.7651   -0.8442 H   0  0  0  0  0  0  0  0  0  0  0  0
   -5.8676   -0.4070   -0.4697 C   0  0  0  0  0  0  0  0  0  0  0  0
   -6.2466    0.8677   -0.0148 C   0  0  0  0  0  0  0  0  0  0  0  0
   -7.3089    1.1440    0.0184 H   0  0  0  0  0  0  0  0  0  0  0  0
   -5.2665    1.7870    0.4073 C   0  0  0  0  0  0  0  0  0  0  0  0
   -3.9070    1.4375    0.3710 C   0  0  0  0  0  0  0  0  0  0  0  0
   -3.1379    2.1490    0.6867 H   0  0  0  0  0  0  0  0  0  0  0  0
   -3.8399    4.5267    0.4087 C   0  0  0  0  0  0  0  0  0  0  0  0
   -4.2362    4.7770   -0.9183 C   0  0  0  0  0  0  0  0  0  0  0  0
   -5.2561    4.5088   -1.2331 H   0  0  0  0  0  0  0  0  0  0  0  0
   -3.3347    5.3407   -1.8325 C   0  0  0  0  0  0  0  0  0  0  0  0
   -3.6532    5.5258   -2.8697 H   0  0  0  0  0  0  0  0  0  0  0  0
   -2.0283    5.6641   -1.4311 C   0  0  0  0  0  0  0  0  0  0  0  0
   -1.3208    6.1015   -2.1516 H   0  0  0  0  0  0  0  0  0  0  0  0
   -1.6271    5.4197   -0.1084 C   0  0  0  0  0  0  0  0  0  0  0  0
   -0.6031    5.6637    0.2138 H   0  0  0  0  0  0  0  0  0  0  0  0
   -2.5282    4.8507    0.8048 C   0  0  0  0  0  0  0  0  0  0  0  0
   -2.2042    4.6443    1.8380 H   0  0  0  0  0  0  0  0  0  0  0  0
   -6.0785   -3.5057   -0.3723 C   0  0  0  0  0  0  0  0  0  0  0  0
   -5.2517   -4.5692   -0.7810 C   0  0  0  0  0  0  0  0  0  0  0  0
   -4.9503   -4.6498   -1.8384 H   0  0  0  0  0  0  0  0  0  0  0  0
   -4.8072   -5.5236    0.1465 C   0  0  0  0  0  0  0  0  0  0  0  0
   -4.1625   -6.3516   -0.1857 H   0  0  0  0  0  0  0  0  0  0  0  0
   -5.1768   -5.4169    1.4967 C   0  0  0  0  0  0  0  0  0  0  0  0
   -4.8230   -6.1600    2.2271 H   0  0  0  0  0  0  0  0  0  0  0  0
   -5.9957   -4.3542    1.9111 C   0  0  0  0  0  0  0  0  0  0  0  0
   -6.2851   -4.2623    2.9690 H   0  0  0  0  0  0  0  0  0  0  0  0
   -6.4473   -3.4057    0.9820 C   0  0  0  0  0  0  0  0  0  0  0  0
   -7.0847   -2.5686    1.3035 H   0  0  0  0  0  0  0  0  0  0  0  0
  1  7  1  0  0  0  0
  2 43  1  0  0  0  0
  3  4  1  0  0  0  0
  5 40  1  0  0  0  0
  5  3  2  0  0  0  0
  6  5  1  0  0  0  0
  7  9  1  0  0  0  0
  7  8  1  0  0  0  0
 10  2  1  0  0  0  0
 10 60  1  0  0  0  0
 11 10  1  0  0  0  0
 12 10  1  0  0  0  0
 13 14  1  0  0  0  0
 14 16  1  0  0  0  0
 15 14  1  0  0  0  0
 16 18  2  0  0  0  0
 16 17  1  0  0  0  0
 18 19  1  0  0  0  0
 20 18  1  0  0  0  0
 21 20  1  0  0  0  0
 22 13  1  0  0  0  0
 22 20  2  0  0  0  0
 23 24  1  0  0  0  0
 24 25  1  0  0  0  0
 24 22  1  1  0  0  0
 26 25  2  0  0  0  0
 26  3  1  0  0  0  0
 27 26  1  0  0  0  0
 28 27  1  0  0  0  0
 29 23  1  0  0  0  0
 29 27  2  0  0  0  0
 31 32  1  0  0  0  0
 31 30  1  0  0  0  0
 33 31  1  0  0  0  0
 34 33  1  0  0  0  0
 35 33  2  0  0  0  0
 35 37  1  0  0  0  0
 36 35  1  0  0  0  0
 37 39  2  0  0  0  0
 38 37  1  0  0  0  0
 39 30  1  0  0  0  0
 39 29  1  0  0  0  0
 40 47  1  0  0  0  0
 41 43  1  0  0  0  0
 41 40  2  0  0  0  0
 42 41  1  0  0  0  0
 43 44  2  0  0  0  0
 44 45  1  0  0  0  0
 44 46  1  0  0  0  0
 46  1  1  0  0  0  0
 47 46  2  0  0  0  0
 47 48  1  0  0  0  0
 49 58  1  0  0  0  0
 49  7  1  0  0  0  0
 50 49  2  0  0  0  0
 51 50  1  0  0  0  0
 52 54  2  0  0  0  0
 52 50  1  0  0  0  0
 53 52  1  0  0  0  0
 54 56  1  0  0  0  0
 55 54  1  0  0  0  0
 56 57  1  0  0  0  0
 56 58  2  0  0  0  0
 58 59  1  0  0  0  0
 60 69  1  0  0  0  0
 61 60  2  0  0  0  0
 61 63  1  0  0  0  0
 62 61  1  0  0  0  0
 63 65  2  0  0  0  0
 64 63  1  0  0  0  0
 65 67  1  0  0  0  0
 65 66  1  0  0  0  0
 67 68  1  0  0  0  0
 69 70  1  0  0  0  0
 69 67  2  0  0  0  0
M  END
