2,3,4
 OpenBabel05122313063D

 70 72  0  0  1  0  0  0  0  0999 V2000
   -6.8249   -2.1142   -0.5628 O   0  0  0  0  0  0  0  0  0  0  0  0
    1.9998    0.1810    0.1450 N   0  0  0  0  0  2  0  0  0  0  0  0
    0.6643    2.2256    0.1855 N   0  0  0  0  0  2  0  0  0  0  0  0
   -1.5745    1.4376   -0.3878 N   0  0  0  0  0  2  0  0  0  0  0  0
   -4.6473   -0.6119    0.4559 N   0  0  0  0  0  0  0  0  0  0  0  0
    4.2036    1.1836    0.8430 C   0  0  0  0  0  0  0  0  0  0  0  0
    2.7445    1.2420    0.5011 C   0  0  0  0  0  0  0  0  0  0  0  0
    1.9869    2.4602    0.5231 C   0  0  0  0  0  0  0  0  0  0  0  0
    2.4115    3.7542    0.8625 C   0  0  0  0  0  0  0  0  0  0  0  0
    1.4785    4.8062    0.8742 C   0  0  0  0  0  0  0  0  0  0  0  0
    0.1331    4.5524    0.5532 C   0  0  0  0  0  0  0  0  0  0  0  0
   -0.2686    3.2502    0.2114 C   0  0  0  0  0  0  0  0  0  0  0  0
   -1.5739    2.7557   -0.1264 C   0  0  1  0  0  3  0  0  0  0  0  0
   -2.7936    3.6267   -0.2138 C   0  0  0  0  0  0  0  0  0  0  0  0
   -2.8308    0.7648   -0.6749 C   0  0  0  0  0  0  0  0  0  0  0  0
   -3.4759    0.2157    0.6307 C   0  0  0  0  0  0  0  0  0  0  0  0
   -5.8374    0.0534   -0.0519 C   0  0  0  0  0  0  0  0  0  0  0  0
   -7.0420   -0.8788    0.0966 C   0  0  0  0  0  0  0  0  0  0  0  0
   -5.6734   -2.7642   -0.0443 C   0  0  0  0  0  0  0  0  0  0  0  0
   -4.4262   -1.8952   -0.2001 C   0  0  0  0  0  0  0  0  0  0  0  0
    2.5627   -1.1349    0.2087 C   0  0  0  0  0  0  0  0  0  0  0  0
    3.2647   -1.6748   -0.8993 C   0  0  0  0  0  0  0  0  0  0  0  0
    3.7880   -2.9769   -0.7817 C   0  0  0  0  0  0  0  0  0  0  0  0
    3.6240   -3.7242    0.3895 C   0  0  0  0  0  0  0  0  0  0  0  0
    2.9181   -3.1780    1.4689 C   0  0  0  0  0  0  0  0  0  0  0  0
    2.3720   -1.8840    1.4041 C   0  0  0  0  0  0  0  0  0  0  0  0
    3.4611   -0.8941   -2.1924 C   0  0  0  0  0  0  0  0  0  0  0  0
    4.9443   -0.5629   -2.4355 C   0  0  0  0  0  0  0  0  0  0  0  0
    2.8622   -1.6419   -3.3955 C   0  0  0  0  0  0  0  0  0  0  0  0
    1.6294   -1.2943    2.5985 C   0  0  0  0  0  0  0  0  0  0  0  0
    2.6165   -0.7566    3.6506 C   0  0  0  0  0  0  0  0  0  0  0  0
    0.6378   -2.2825    3.2306 C   0  0  0  0  0  0  0  0  0  0  0  0
    4.8184    1.6382    0.0368 H   0  0  0  0  0  0  0  0  0  0  0  0
    4.4187    1.7476    1.7729 H   0  0  0  0  0  0  0  0  0  0  0  0
    4.5437    0.1409    0.9783 H   0  0  0  0  0  0  0  0  0  0  0  0
    3.4644    3.9323    1.1237 H   0  0  0  0  0  0  0  0  0  0  0  0
    1.7969    5.8230    1.1444 H   0  0  0  0  0  0  0  0  0  0  0  0
   -0.6065    5.3654    0.5765 H   0  0  0  0  0  0  0  0  0  0  0  0
   -3.1875    3.6771   -1.2518 H   0  0  0  0  0  0  0  0  0  0  0  0
   -3.6195    3.2594    0.4295 H   0  0  0  0  0  0  0  0  0  0  0  0
   -2.5633    4.6600    0.1026 H   0  0  0  0  0  0  0  0  0  0  0  0
   -2.6237   -0.0785   -1.3605 H   0  0  0  0  0  0  0  0  0  0  0  0
   -3.5443    1.4402   -1.1923 H   0  0  0  0  0  0  0  0  0  0  0  0
   -3.7396    1.0729    1.2885 H   0  0  0  0  0  0  0  0  0  0  0  0
   -2.7007   -0.3681    1.1688 H   0  0  0  0  0  0  0  0  0  0  0  0
   -5.7455    0.3412   -1.1339 H   0  0  0  0  0  0  0  0  0  0  0  0
   -6.0114    0.9855    0.5279 H   0  0  0  0  0  0  0  0  0  0  0  0
   -7.9463   -0.4250   -0.3570 H   0  0  0  0  0  0  0  0  0  0  0  0
   -7.2338   -1.0467    1.1861 H   0  0  0  0  0  0  0  0  0  0  0  0
   -5.5609   -3.7139   -0.6046 H   0  0  0  0  0  0  0  0  0  0  0  0
   -5.8180   -3.0024    1.0389 H   0  0  0  0  0  0  0  0  0  0  0  0
   -3.5467   -2.3945    0.2561 H   0  0  0  0  0  0  0  0  0  0  0  0
   -4.2109   -1.7847   -1.2963 H   0  0  0  0  0  0  0  0  0  0  0  0
    4.3364   -3.4119   -1.6315 H   0  0  0  0  0  0  0  0  0  0  0  0
    4.0429   -4.7395    0.4606 H   0  0  0  0  0  0  0  0  0  0  0  0
    2.7842   -3.7712    2.3860 H   0  0  0  0  0  0  0  0  0  0  0  0
    2.9139    0.0642   -2.0877 H   0  0  0  0  0  0  0  0  0  0  0  0
    5.5450   -1.4866   -2.5700 H   0  0  0  0  0  0  0  0  0  0  0  0
    5.0632    0.0497   -3.3527 H   0  0  0  0  0  0  0  0  0  0  0  0
    5.3848   -0.0014   -1.5882 H   0  0  0  0  0  0  0  0  0  0  0  0
    3.4191   -2.5785   -3.6062 H   0  0  0  0  0  0  0  0  0  0  0  0
    1.8027   -1.9075   -3.2187 H   0  0  0  0  0  0  0  0  0  0  0  0
    2.9045   -1.0114   -4.3065 H   0  0  0  0  0  0  0  0  0  0  0  0
    1.0421   -0.4344    2.2138 H   0  0  0  0  0  0  0  0  0  0  0  0
    3.2417   -1.5765    4.0625 H   0  0  0  0  0  0  0  0  0  0  0  0
    2.0727   -0.2861    4.4957 H   0  0  0  0  0  0  0  0  0  0  0  0
    3.3001    0.0022    3.2227 H   0  0  0  0  0  0  0  0  0  0  0  0
   -0.0590   -2.6917    2.4739 H   0  0  0  0  0  0  0  0  0  0  0  0
    1.1545   -3.1345    3.7194 H   0  0  0  0  0  0  0  0  0  0  0  0
    0.0394   -1.7742    4.0143 H   0  0  0  0  0  0  0  0  0  0  0  0
  1 19  1  0  0  0  0
  1 18  1  0  0  0  0
  2 21  1  0  0  0  0
  2  7  1  0  0  0  0
  3 12  1  0  0  0  0
  3  8  1  0  0  0  0
  5 16  1  0  0  0  0
  6 35  1  0  0  0  0
  6 34  1  0  0  0  0
  7  8  2  0  0  0  0
  7  6  1  0  0  0  0
  8  9  1  0  0  0  0
  9 10  2  0  0  0  0
  9 36  1  0  0  0  0
 10 37  1  0  0  0  0
 11 38  1  0  0  0  0
 11 10  1  0  0  0  0
 12 11  2  0  0  0  0
 13  4  1  6  0  0  0
 13 12  1  0  0  0  0
 14 13  1  0  0  0  0
 14 41  1  0  0  0  0
 14 40  1  0  0  0  0
 15  4  1  0  0  0  0
 15 16  1  0  0  0  0
 16 45  1  0  0  0  0
 16 44  1  0  0  0  0
 17 18  1  0  0  0  0
 17  5  1  0  0  0  0
 17 47  1  0  0  0  0
 18 49  1  0  0  0  0
 19 51  1  0  0  0  0
 20 19  1  0  0  0  0
 20 52  1  0  0  0  0
 20  5  1  0  0  0  0
 21 26  1  0  0  0  0
 22 23  1  0  0  0  0
 22 21  2  0  0  0  0
 23 24  2  0  0  0  0
 24 55  1  0  0  0  0
 24 25  1  0  0  0  0
 25 56  1  0  0  0  0
 26 25  2  0  0  0  0
 26 30  1  0  0  0  0
 27 57  1  0  0  0  0
 27 22  1  0  0  0  0
 28 27  1  0  0  0  0
 28 60  1  0  0  0  0
 29 62  1  0  0  0  0
 29 27  1  0  0  0  0
 30 32  1  0  0  0  0
 30 31  1  0  0  0  0
 31 65  1  0  0  0  0
 31 66  1  0  0  0  0
 32 69  1  0  0  0  0
 32 70  1  0  0  0  0
 33  6  1  0  0  0  0
 39 14  1  0  0  0  0
 42 15  1  0  0  0  0
 43 15  1  0  0  0  0
 46 17  1  0  0  0  0
 48 18  1  0  0  0  0
 50 19  1  0  0  0  0
 53 20  1  0  0  0  0
 54 23  1  0  0  0  0
 58 28  1  0  0  0  0
 59 28  1  0  0  0  0
 61 29  1  0  0  0  0
 63 29  1  0  0  0  0
 64 30  1  0  0  0  0
 67 31  1  0  0  0  0
 68 32  1  0  0  0  0
M  END
