1,2,3
 OpenBabel05122313063D

 67 68  0  0  0  0  0  0  0  0999 V2000
   -0.0093    0.5727    0.0051 N   0  0  0  0  0  2  0  0  0  0  0  0
   -1.9039   -0.9767    0.1816 N   0  0  0  0  0  2  0  0  0  0  0  0
    1.9113   -0.9444   -0.1841 N   0  0  0  0  0  2  0  0  0  0  0  0
   -1.2521    1.2309   -0.0597 C   0  0  0  0  0  0  0  0  0  0  0  0
   -2.3476    0.3375    0.1022 C   0  0  0  0  0  0  0  0  0  0  0  0
   -3.6727    0.8074    0.1149 C   0  0  0  0  0  0  0  0  0  0  0  0
   -4.4905    0.0979    0.2729 H   0  0  0  0  0  0  0  0  0  0  0  0
   -3.9572    2.1706   -0.0996 C   0  0  0  0  0  0  0  0  0  0  0  0
   -2.8689    3.0303   -0.3532 C   0  0  0  0  0  0  0  0  0  0  0  0
   -3.0502    4.0930   -0.5732 H   0  0  0  0  0  0  0  0  0  0  0  0
   -1.5393    2.5800   -0.3403 C   0  0  0  0  0  0  0  0  0  0  0  0
   -0.7410    3.2858   -0.5905 H   0  0  0  0  0  0  0  0  0  0  0  0
   -2.7664   -2.1608    0.3208 C   0  0  0  0  0  0  0  0  0  0  0  0
   -2.0566   -3.0310    0.3162 H   0  0  0  0  0  0  0  0  0  0  0  0
   -3.4703   -2.2117    1.6833 C   0  0  0  0  0  0  0  0  0  0  0  0
   -2.7294   -2.1305    2.5020 H   0  0  0  0  0  0  0  0  0  0  0  0
   -4.0127   -3.1712    1.7966 H   0  0  0  0  0  0  0  0  0  0  0  0
   -4.2019   -1.3885    1.7951 H   0  0  0  0  0  0  0  0  0  0  0  0
   -3.6920   -2.3791   -0.8839 C   0  0  0  0  0  0  0  0  0  0  0  0
   -3.1083   -2.3738   -1.8245 H   0  0  0  0  0  0  0  0  0  0  0  0
   -4.4710   -1.5969   -0.9547 H   0  0  0  0  0  0  0  0  0  0  0  0
   -4.1991   -3.3603   -0.7949 H   0  0  0  0  0  0  0  0  0  0  0  0
   -5.3940    2.7220   -0.0870 C   0  0  0  0  0  0  0  0  0  0  0  0
   -5.7142    3.3509   -1.4621 C   0  0  0  0  0  0  0  0  0  0  0  0
   -5.0190    4.1780   -1.7072 H   0  0  0  0  0  0  0  0  0  0  0  0
   -6.7449    3.7629   -1.4716 H   0  0  0  0  0  0  0  0  0  0  0  0
   -5.6362    2.5954   -2.2698 H   0  0  0  0  0  0  0  0  0  0  0  0
   -6.4348    1.6249    0.1968 C   0  0  0  0  0  0  0  0  0  0  0  0
   -6.4214    0.8320   -0.5785 H   0  0  0  0  0  0  0  0  0  0  0  0
   -7.4527    2.0641    0.2043 H   0  0  0  0  0  0  0  0  0  0  0  0
   -6.2712    1.1469    1.1840 H   0  0  0  0  0  0  0  0  0  0  0  0
   -5.5127    3.8005    1.0138 C   0  0  0  0  0  0  0  0  0  0  0  0
   -4.8076    4.6380    0.8432 H   0  0  0  0  0  0  0  0  0  0  0  0
   -5.2904    3.3721    2.0121 H   0  0  0  0  0  0  0  0  0  0  0  0
   -6.5395    4.2217    1.0385 H   0  0  0  0  0  0  0  0  0  0  0  0
    1.2220    1.2528    0.0724 C   0  0  0  0  0  0  0  0  0  0  0  0
    2.3338    0.3766   -0.0985 C   0  0  0  0  0  0  0  0  0  0  0  0
    3.6454    0.8710   -0.1111 C   0  0  0  0  0  0  0  0  0  0  0  0
    4.4807    0.1800   -0.2742 H   0  0  0  0  0  0  0  0  0  0  0  0
    3.9096    2.2414    0.1116 C   0  0  0  0  0  0  0  0  0  0  0  0
    2.8119    3.0800    0.3717 C   0  0  0  0  0  0  0  0  0  0  0  0
    2.9687    4.1432    0.5965 H   0  0  0  0  0  0  0  0  0  0  0  0
    1.4873    2.6019    0.3595 C   0  0  0  0  0  0  0  0  0  0  0  0
    0.6785    3.2932    0.6162 H   0  0  0  0  0  0  0  0  0  0  0  0
    2.7949   -2.1127   -0.3248 C   0  0  0  0  0  0  0  0  0  0  0  0
    2.1010   -2.9956   -0.3215 H   0  0  0  0  0  0  0  0  0  0  0  0
    3.7242   -2.3159    0.8797 C   0  0  0  0  0  0  0  0  0  0  0  0
    3.1401   -2.3240    1.8200 H   0  0  0  0  0  0  0  0  0  0  0  0
    4.4882   -1.5193    0.9537 H   0  0  0  0  0  0  0  0  0  0  0  0
    4.2499   -3.2871    0.7886 H   0  0  0  0  0  0  0  0  0  0  0  0
    3.4990   -2.1488   -1.6878 C   0  0  0  0  0  0  0  0  0  0  0  0
    2.7560   -2.0820   -2.5059 H   0  0  0  0  0  0  0  0  0  0  0  0
    4.0602   -3.0974   -1.8019 H   0  0  0  0  0  0  0  0  0  0  0  0
    4.2138   -1.3111   -1.8002 H   0  0  0  0  0  0  0  0  0  0  0  0
    5.3652    2.7394    0.0840 C   0  0  0  0  0  0  0  0  0  0  0  0
    6.1845    1.9965    1.1640 C   0  0  0  0  0  0  0  0  0  0  0  0
    5.7659    2.1808    2.1740 H   0  0  0  0  0  0  0  0  0  0  0  0
    7.2397    2.3406    1.1582 H   0  0  0  0  0  0  0  0  0  0  0  0
    6.1897    0.9005    0.9971 H   0  0  0  0  0  0  0  0  0  0  0  0
    5.4640    4.2502    0.3565 C   0  0  0  0  0  0  0  0  0  0  0  0
    5.0686    4.5142    1.3580 H   0  0  0  0  0  0  0  0  0  0  0  0
    4.9098    4.8410   -0.4003 H   0  0  0  0  0  0  0  0  0  0  0  0
    6.5248    4.5708    0.3210 H   0  0  0  0  0  0  0  0  0  0  0  0
    5.9731    2.4552   -1.3086 C   0  0  0  0  0  0  0  0  0  0  0  0
    5.9647    1.3727   -1.5476 H   0  0  0  0  0  0  0  0  0  0  0  0
    7.0269    2.8011   -1.3524 H   0  0  0  0  0  0  0  0  0  0  0  0
    5.4036    2.9789   -2.1027 H   0  0  0  0  0  0  0  0  0  0  0  0
  1 36  1  0  0  0  0
  2 13  1  0  0  0  0
  3 37  1  0  0  0  0
  4  1  1  0  0  0  0
  4  5  1  0  0  0  0
  5  6  2  0  0  0  0
  5  2  1  0  0  0  0
  6  7  1  0  0  0  0
  8 23  1  0  0  0  0
  8  6  1  0  0  0  0
  9 11  1  0  0  0  0
  9  8  2  0  0  0  0
 10  9  1  0  0  0  0
 11  4  2  0  0  0  0
 12 11  1  0  0  0  0
 13 15  1  0  0  0  0
 14 13  1  0  0  0  0
 15 18  1  0  0  0  0
 15 17  1  0  0  0  0
 15 16  1  0  0  0  0
 19 22  1  0  0  0  0
 19 13  1  0  0  0  0
 20 19  1  0  0  0  0
 21 19  1  0  0  0  0
 23 28  1  0  0  0  0
 23 32  1  0  0  0  0
 24 23  1  0  0  0  0
 25 24  1  0  0  0  0
 26 24  1  0  0  0  0
 27 24  1  0  0  0  0
 28 30  1  0  0  0  0
 28 31  1  0  0  0  0
 29 28  1  0  0  0  0
 32 35  1  0  0  0  0
 32 34  1  0  0  0  0
 33 32  1  0  0  0  0
 36 43  1  0  0  0  0
 37 36  2  0  0  0  0
 38 37  1  0  0  0  0
 38 40  2  0  0  0  0
 39 38  1  0  0  0  0
 40 41  1  0  0  0  0
 41 42  1  0  0  0  0
 43 41  2  0  0  0  0
 43 44  1  0  0  0  0
 45 46  1  0  0  0  0
 45  3  1  0  0  0  0
 45 47  1  0  0  0  0
 47 49  1  0  0  0  0
 47 48  1  0  0  0  0
 50 47  1  0  0  0  0
 51 45  1  0  0  0  0
 52 51  1  0  0  0  0
 53 51  1  0  0  0  0
 54 51  1  0  0  0  0
 55 40  1  0  0  0  0
 55 60  1  0  0  0  0
 55 56  1  0  0  0  0
 56 57  1  0  0  0  0
 58 56  1  0  0  0  0
 59 56  1  0  0  0  0
 60 61  1  0  0  0  0
 62 60  1  0  0  0  0
 63 60  1  0  0  0  0
 64 55  1  0  0  0  0
 65 64  1  0  0  0  0
 66 64  1  0  0  0  0
 67 64  1  0  0  0  0
M  END
