1,2,26
 OpenBabel05122313063D

 49 50  0  0  0  0  0  0  0  0999 V2000
   -0.0001    1.0850   -0.0002 N   0  0  0  0  0  2  0  0  0  0  0  0
    1.9105   -0.4463   -0.1564 N   0  0  0  0  0  2  0  0  0  0  0  0
    1.2356    1.7557    0.0871 C   0  0  0  0  0  0  0  0  0  0  0  0
    2.3438    0.8704   -0.0663 C   0  0  0  0  0  0  0  0  0  0  0  0
    3.6610    1.3562   -0.0557 C   0  0  0  0  0  0  0  0  0  0  0  0
    4.5058    0.6709   -0.2022 H   0  0  0  0  0  0  0  0  0  0  0  0
    3.9184    2.7250    0.1732 C   0  0  0  0  0  0  0  0  0  0  0  0
    2.8252    3.5730    0.4207 C   0  0  0  0  0  0  0  0  0  0  0  0
    3.0062    4.6341    0.6525 H   0  0  0  0  0  0  0  0  0  0  0  0
    1.4995    3.1042    0.3854 C   0  0  0  0  0  0  0  0  0  0  0  0
    0.6876    3.7950    0.6339 H   0  0  0  0  0  0  0  0  0  0  0  0
    5.3335    3.2467    0.1548 C   0  0  0  0  0  0  0  0  0  0  0  0
    6.0230    2.5824    0.7152 H   0  0  0  0  0  0  0  0  0  0  0  0
    5.3993    4.2589    0.5993 H   0  0  0  0  0  0  0  0  0  0  0  0
    5.7258    3.3150   -0.8830 H   0  0  0  0  0  0  0  0  0  0  0  0
    2.7819   -1.6250   -0.2854 C   0  0  0  0  0  0  0  0  0  0  0  0
    2.0770   -2.4995   -0.2920 H   0  0  0  0  0  0  0  0  0  0  0  0
    3.6917   -1.8399    0.9316 C   0  0  0  0  0  0  0  0  0  0  0  0
    3.0944   -1.8431    1.8637 H   0  0  0  0  0  0  0  0  0  0  0  0
    4.4625   -1.0513    1.0168 H   0  0  0  0  0  0  0  0  0  0  0  0
    4.2083   -2.8164    0.8465 H   0  0  0  0  0  0  0  0  0  0  0  0
    3.5038   -1.6690   -1.6384 C   0  0  0  0  0  0  0  0  0  0  0  0
    2.7727   -1.5951   -2.4666 H   0  0  0  0  0  0  0  0  0  0  0  0
    4.0571   -2.6231   -1.7448 H   0  0  0  0  0  0  0  0  0  0  0  0
    4.2282   -0.8384   -1.7407 H   0  0  0  0  0  0  0  0  0  0  0  0
   -1.9104   -0.4465    0.1563 N   0  0  0  0  0  2  0  0  0  0  0  0
   -1.2358    1.7556   -0.0875 C   0  0  0  0  0  0  0  0  0  0  0  0
   -2.3438    0.8701    0.0661 C   0  0  0  0  0  0  0  0  0  0  0  0
   -3.6612    1.3559    0.0557 C   0  0  0  0  0  0  0  0  0  0  0  0
   -4.5059    0.6706    0.2024 H   0  0  0  0  0  0  0  0  0  0  0  0
   -3.9187    2.7245   -0.1735 C   0  0  0  0  0  0  0  0  0  0  0  0
   -2.8255    3.5726   -0.4216 C   0  0  0  0  0  0  0  0  0  0  0  0
   -3.0067    4.6335   -0.6539 H   0  0  0  0  0  0  0  0  0  0  0  0
   -1.4998    3.1039   -0.3863 C   0  0  0  0  0  0  0  0  0  0  0  0
   -0.6880    3.7945   -0.6354 H   0  0  0  0  0  0  0  0  0  0  0  0
   -5.3335    3.2469   -0.1534 C   0  0  0  0  0  0  0  0  0  0  0  0
   -6.0277    2.5723   -0.6952 H   0  0  0  0  0  0  0  0  0  0  0  0
   -5.4028    4.2506   -0.6164 H   0  0  0  0  0  0  0  0  0  0  0  0
   -5.7171    3.3354    0.8862 H   0  0  0  0  0  0  0  0  0  0  0  0
   -2.7818   -1.6253    0.2858 C   0  0  0  0  0  0  0  0  0  0  0  0
   -2.0769   -2.4997    0.2924 H   0  0  0  0  0  0  0  0  0  0  0  0
   -3.6919   -1.8403   -0.9309 C   0  0  0  0  0  0  0  0  0  0  0  0
   -3.0948   -1.8443   -1.8631 H   0  0  0  0  0  0  0  0  0  0  0  0
   -4.4624   -1.0515   -1.0164 H   0  0  0  0  0  0  0  0  0  0  0  0
   -4.2089   -2.8166   -0.8452 H   0  0  0  0  0  0  0  0  0  0  0  0
   -3.5034   -1.6688    1.6391 C   0  0  0  0  0  0  0  0  0  0  0  0
   -2.7721   -1.5944    2.4670 H   0  0  0  0  0  0  0  0  0  0  0  0
   -4.0563   -2.6231    1.7459 H   0  0  0  0  0  0  0  0  0  0  0  0
   -4.2280   -0.8385    1.7412 H   0  0  0  0  0  0  0  0  0  0  0  0
  1  3  1  0  0  0  0
  2  4  1  0  0  0  0
  3 10  1  0  0  0  0
  4  5  1  0  0  0  0
  4  3  2  0  0  0  0
  5  7  2  0  0  0  0
  6  5  1  0  0  0  0
  7  8  1  0  0  0  0
  8  9  1  0  0  0  0
 10  8  2  0  0  0  0
 10 11  1  0  0  0  0
 12  7  1  0  0  0  0
 12 14  1  0  0  0  0
 12 13  1  0  0  0  0
 15 12  1  0  0  0  0
 16  2  1  0  0  0  0
 16 18  1  0  0  0  0
 17 16  1  0  0  0  0
 18 20  1  0  0  0  0
 18 19  1  0  0  0  0
 21 18  1  0  0  0  0
 22 16  1  0  0  0  0
 23 22  1  0  0  0  0
 24 22  1  0  0  0  0
 25 22  1  0  0  0  0
 26 40  1  0  0  0  0
 27  1  1  0  0  0  0
 27 28  1  0  0  0  0
 28 26  1  0  0  0  0
 29 28  2  0  0  0  0
 29 30  1  0  0  0  0
 31 36  1  0  0  0  0
 31 29  1  0  0  0  0
 32 34  1  0  0  0  0
 32 31  2  0  0  0  0
 33 32  1  0  0  0  0
 34 27  2  0  0  0  0
 35 34  1  0  0  0  0
 36 39  1  0  0  0  0
 37 36  1  0  0  0  0
 38 36  1  0  0  0  0
 40 41  1  0  0  0  0
 40 46  1  0  0  0  0
 42 45  1  0  0  0  0
 42 40  1  0  0  0  0
 43 42  1  0  0  0  0
 44 42  1  0  0  0  0
 46 49  1  0  0  0  0
 46 48  1  0  0  0  0
 46 47  1  0  0  0  0
M  END
