1,3,4
 OpenBabel05122313063D

 44 46  0  0  1  0  0  0  0  0999 V2000
    1.5309    0.0292    0.3479 N   0  0  0  0  0  0  0  0  0  0  0  0
    1.8592   -0.6244    1.0776 H   0  0  0  0  0  0  0  0  0  0  0  0
   -0.7502    1.6206    0.0669 N   0  0  0  0  0  0  0  0  0  0  0  0
   -2.5033   -0.7304   -0.1113 N   0  0  0  0  0  2  0  0  0  0  0  0
    2.3886   -0.2213   -0.8645 C   0  0  0  0  0  0  0  0  0  0  0  0
    2.0871    0.4926   -1.6555 H   0  0  0  0  0  0  0  0  0  0  0  0
    2.1227   -1.2409   -1.2038 H   0  0  0  0  0  0  0  0  0  0  0  0
    3.8560   -0.1091   -0.5361 C   0  0  0  0  0  0  0  0  0  0  0  0
    4.6030    1.0336   -0.8848 C   0  0  0  0  0  0  0  0  0  0  0  0
    4.1270    1.8443   -1.4605 H   0  0  0  0  0  0  0  0  0  0  0  0
    5.9565    1.1342   -0.5269 C   0  0  0  0  0  0  0  0  0  0  0  0
    6.5347    2.0255   -0.8123 H   0  0  0  0  0  0  0  0  0  0  0  0
    6.5719    0.0944    0.1872 C   0  0  0  0  0  0  0  0  0  0  0  0
    7.6334    0.1717    0.4657 H   0  0  0  0  0  0  0  0  0  0  0  0
    5.8359   -1.0505    0.5359 C   0  0  0  0  0  0  0  0  0  0  0  0
    6.3213   -1.8729    1.0820 H   0  0  0  0  0  0  0  0  0  0  0  0
    4.4858   -1.1535    0.1743 C   0  0  0  0  0  0  0  0  0  0  0  0
    3.9150   -2.0622    0.4289 H   0  0  0  0  0  0  0  0  0  0  0  0
    1.5637    1.4253    0.8746 C   0  0  0  0  0  0  0  0  0  0  0  0
    2.5923    1.8416    0.8214 H   0  0  0  0  0  0  0  0  0  0  0  0
    1.2686    1.3897    1.9422 H   0  0  0  0  0  0  0  0  0  0  0  0
    0.5820    2.2733    0.0781 C   0  0  0  0  0  0  0  0  0  0  0  0
    0.5086    3.3046    0.4874 H   0  0  0  0  0  0  0  0  0  0  0  0
    0.9071    2.3584   -0.9790 H   0  0  0  0  0  0  0  0  0  0  0  0
   -1.7531    2.0244   -0.9644 C   0  0  0  0  0  0  0  0  0  0  0  0
   -1.7066    1.4396   -1.9032 H   0  0  0  0  0  0  0  0  0  0  0  0
   -1.6799    3.1113   -1.1835 H   0  0  0  0  0  0  0  0  0  0  0  0
   -1.7665    1.8994    1.1380 C   0  0  0  0  0  0  0  0  0  0  0  0
   -1.6953    2.9535    1.4832 H   0  0  0  0  0  0  0  0  0  0  0  0
   -1.7388    1.2096    2.0031 H   0  0  0  0  0  0  0  0  0  0  0  0
   -2.8927    1.7378    0.0655 C   0  0  0  0  0  0  0  0  0  0  0  0
   -3.9991    2.7845    0.1254 C   0  0  0  0  0  0  0  0  0  0  0  0
   -4.6281    2.7669   -0.7860 H   0  0  0  0  0  0  0  0  0  0  0  0
   -3.5610    3.7977    0.2068 H   0  0  0  0  0  0  0  0  0  0  0  0
   -4.6563    2.6340    1.0042 H   0  0  0  0  0  0  0  0  0  0  0  0
   -3.4031    0.2997   -0.0520 C   0  0  1  0  0  3  0  0  0  0  0  0
   -4.7785    0.0260   -0.1276 C   0  0  0  0  0  0  0  0  0  0  0  0
   -5.5013    0.8480   -0.0726 H   0  0  0  0  0  0  0  0  0  0  0  0
   -5.2374   -1.2895   -0.2768 C   0  0  0  0  0  0  0  0  0  0  0  0
   -6.3163   -1.4955   -0.3363 H   0  0  0  0  0  0  0  0  0  0  0  0
   -4.3004   -2.3233   -0.3504 C   0  0  0  0  0  0  0  0  0  0  0  0
   -4.5997   -3.3736   -0.4715 H   0  0  0  0  0  0  0  0  0  0  0  0
   -2.9438   -2.0037   -0.2598 C   0  0  0  0  0  0  0  0  0  0  0  0
   -2.1572   -2.7738   -0.2882 H   0  0  0  0  0  0  0  0  0  0  0  0
  1 19  1  0  0  0  0
  1  2  1  0  0  0  0
  3 22  1  0  0  0  0
  3 28  1  0  0  0  0
  4 36  1  0  0  0  0
  5  8  1  0  0  0  0
  5  1  1  0  0  0  0
  6  5  1  0  0  0  0
  7  5  1  0  0  0  0
  8 17  1  0  0  0  0
  9  8  2  0  0  0  0
  9 11  1  0  0  0  0
 10  9  1  0  0  0  0
 11 13  2  0  0  0  0
 12 11  1  0  0  0  0
 13 14  1  0  0  0  0
 13 15  1  0  0  0  0
 15 16  1  0  0  0  0
 17 18  1  0  0  0  0
 17 15  2  0  0  0  0
 19 21  1  0  0  0  0
 20 19  1  0  0  0  0
 22 23  1  0  0  0  0
 22 19  1  0  0  0  0
 24 22  1  0  0  0  0
 25 31  1  0  0  0  0
 25  3  1  0  0  0  0
 26 25  1  0  0  0  0
 27 25  1  0  0  0  0
 28 29  1  0  0  0  0
 28 30  1  0  0  0  0
 31 32  1  0  0  0  0
 31 28  1  0  0  0  0
 32 34  1  0  0  0  0
 32 35  1  0  0  0  0
 33 32  1  0  0  0  0
 36 31  1  6  0  0  0
 37 38  1  0  0  0  0
 37 36  1  0  0  0  0
 39 37  2  0  0  0  0
 40 39  1  0  0  0  0
 41 39  1  0  0  0  0
 41 43  2  0  0  0  0
 42 41  1  0  0  0  0
 43  4  1  0  0  0  0
 44 43  1  0  0  0  0
M  END
