1,6,7
 OpenBabel05122313063D

 56 57  0  0  1  0  0  0  0  0999 V2000
    0.6760   -1.5899   -1.4393 N   0  0  0  0  0  0  0  0  0  0  0  0
    0.0897    1.2947   -1.3244 N   0  0  0  0  0  0  0  0  0  0  0  0
    2.8812    2.4483    0.7232 C   0  0  2  0  0  3  0  0  0  0  0  0
   -2.1427    1.3839   -0.5112 N   0  0  0  0  0  0  0  0  0  0  0  0
    1.7169    1.8461    0.3192 N   0  0  0  0  0  0  0  0  0  0  0  0
    1.4944    0.6825    0.9902 N   0  0  0  0  0  2  0  0  0  0  0  0
   -1.8749    0.3979    0.3874 N   0  0  0  0  0  2  0  0  0  0  0  0
    2.0786   -1.9401   -1.0408 C   0  0  0  0  0  0  0  0  0  0  0  0
    1.9947   -2.4058   -0.0367 H   0  0  0  0  0  0  0  0  0  0  0  0
    2.6256   -0.9861   -0.8953 H   0  0  0  0  0  0  0  0  0  0  0  0
   -1.2970    1.5153   -1.6892 C   0  0  0  0  0  0  0  0  0  0  0  0
   -1.5796    0.7558   -2.4476 H   0  0  0  0  0  0  0  0  0  0  0  0
   -1.4961    2.5179   -2.1317 H   0  0  0  0  0  0  0  0  0  0  0  0
    2.6668   -0.6851    2.7128 C   0  0  0  0  0  0  0  0  0  0  0  0
    1.7756   -1.3388    2.6390 H   0  0  0  0  0  0  0  0  0  0  0  0
    2.7992   -0.3690    3.7668 H   0  0  0  0  0  0  0  0  0  0  0  0
    3.5662   -1.2747    2.4403 H   0  0  0  0  0  0  0  0  0  0  0  0
    0.9526    0.7275   -2.3682 C   0  0  0  0  0  0  0  0  0  0  0  0
    1.9957    0.8217   -2.0057 H   0  0  0  0  0  0  0  0  0  0  0  0
    0.8966    1.3043   -3.3211 H   0  0  0  0  0  0  0  0  0  0  0  0
   -3.8756    3.1341   -1.0529 C   0  0  0  0  0  0  0  0  0  0  0  0
   -3.1638    3.9787   -1.1607 H   0  0  0  0  0  0  0  0  0  0  0  0
   -4.7908    3.5297   -0.5769 H   0  0  0  0  0  0  0  0  0  0  0  0
   -4.1510    2.7916   -2.0721 H   0  0  0  0  0  0  0  0  0  0  0  0
    0.6750    2.3730   -0.5454 C   0  0  0  0  0  0  0  0  0  0  0  0
   -0.1331    2.8294    0.0668 H   0  0  0  0  0  0  0  0  0  0  0  0
    1.1325    3.1744   -1.1687 H   0  0  0  0  0  0  0  0  0  0  0  0
   -0.1495   -2.8260   -1.6060 C   0  0  0  0  0  0  0  0  0  0  0  0
    0.1017   -3.4863   -0.7532 H   0  0  0  0  0  0  0  0  0  0  0  0
    0.1642   -3.3591   -2.5308 H   0  0  0  0  0  0  0  0  0  0  0  0
    3.4302    1.6058    1.6896 C   0  0  0  0  0  0  0  0  0  0  0  0
    4.3702    1.7632    2.2285 H   0  0  0  0  0  0  0  0  0  0  0  0
    2.5399    0.5105    1.8290 C   0  0  0  0  0  0  0  0  0  0  0  0
    3.3604    3.7550    0.1836 C   0  0  0  0  0  0  0  0  0  0  0  0
    3.4683    3.7386   -0.9208 H   0  0  0  0  0  0  0  0  0  0  0  0
    4.3512    3.9912    0.6114 H   0  0  0  0  0  0  0  0  0  0  0  0
    2.6768    4.5894    0.4447 H   0  0  0  0  0  0  0  0  0  0  0  0
   -2.9204   -0.5266    2.4524 C   0  0  0  0  0  0  0  0  0  0  0  0
   -1.9402   -0.5738    2.9662 H   0  0  0  0  0  0  0  0  0  0  0  0
   -3.1600   -1.5617    2.1285 H   0  0  0  0  0  0  0  0  0  0  0  0
   -3.6927   -0.2097    3.1759 H   0  0  0  0  0  0  0  0  0  0  0  0
    0.6288   -0.7414   -2.6481 C   0  0  0  0  0  0  0  0  0  0  0  0
   -0.3871   -0.8241   -3.0806 H   0  0  0  0  0  0  0  0  0  0  0  0
    1.3210   -1.1144   -3.4346 H   0  0  0  0  0  0  0  0  0  0  0  0
   -3.3175    2.0276   -0.2209 C   0  0  1  0  0  3  0  0  0  0  0  0
   -2.8789    0.4118    1.2933 C   0  0  0  0  0  0  0  0  0  0  0  0
    2.8556   -2.8519   -1.9871 C   0  0  0  0  0  0  0  0  0  0  0  0
    3.8787   -2.9927   -1.5869 H   0  0  0  0  0  0  0  0  0  0  0  0
    2.9645   -2.4308   -3.0070 H   0  0  0  0  0  0  0  0  0  0  0  0
    2.4002   -3.8571   -2.0744 H   0  0  0  0  0  0  0  0  0  0  0  0
   -3.8063    1.4219    0.9383 C   0  0  0  0  0  0  0  0  0  0  0  0
   -4.7240    1.6883    1.4727 H   0  0  0  0  0  0  0  0  0  0  0  0
   -1.6521   -2.5816   -1.6275 C   0  0  0  0  0  0  0  0  0  0  0  0
   -2.1777   -3.5546   -1.6708 H   0  0  0  0  0  0  0  0  0  0  0  0
   -1.9871   -1.9936   -2.5064 H   0  0  0  0  0  0  0  0  0  0  0  0
   -1.9994   -2.0676   -0.7091 H   0  0  0  0  0  0  0  0  0  0  0  0
  1  8  1  0  0  0  0
  2 25  1  0  0  0  0
  3 34  1  1  0  0  0
  3 31  1  0  0  0  0
  4 45  1  0  0  0  0
  4  7  1  0  0  0  0
  5  3  1  0  0  0  0
  5  6  1  0  0  0  0
  6 33  1  0  0  0  0
  7 46  1  0  0  0  0
  8 10  1  0  0  0  0
  8  9  1  0  0  0  0
 11  2  1  0  0  0  0
 11  4  1  0  0  0  0
 12 11  1  0  0  0  0
 13 11  1  0  0  0  0
 14 16  1  0  0  0  0
 15 14  1  0  0  0  0
 17 14  1  0  0  0  0
 18 19  1  0  0  0  0
 18  2  1  0  0  0  0
 20 18  1  0  0  0  0
 21 23  1  0  0  0  0
 22 21  1  0  0  0  0
 24 21  1  0  0  0  0
 25 26  1  0  0  0  0
 25  5  1  0  0  0  0
 27 25  1  0  0  0  0
 28  1  1  0  0  0  0
 28 29  1  0  0  0  0
 30 28  1  0  0  0  0
 31 33  2  0  0  0  0
 31 32  1  0  0  0  0
 33 14  1  0  0  0  0
 34 37  1  0  0  0  0
 34 36  1  0  0  0  0
 35 34  1  0  0  0  0
 38 39  1  0  0  0  0
 38 41  1  0  0  0  0
 40 38  1  0  0  0  0
 42 18  1  0  0  0  0
 42  1  1  0  0  0  0
 43 42  1  0  0  0  0
 44 42  1  0  0  0  0
 45 21  1  6  0  0  0
 45 51  1  0  0  0  0
 46 38  1  0  0  0  0
 47 48  1  0  0  0  0
 47  8  1  0  0  0  0
 49 47  1  0  0  0  0
 50 47  1  0  0  0  0
 51 46  2  0  0  0  0
 51 52  1  0  0  0  0
 53 28  1  0  0  0  0
 53 56  1  0  0  0  0
 54 53  1  0  0  0  0
 55 53  1  0  0  0  0
M  END
