1,4,5
 OpenBabel05122313063D

 58 61  0  0  1  0  0  0  0  0999 V2000
    2.3807   -0.1201    0.1035 N   0  0  0  0  0  2  0  0  0  0  0  0
    4.2917    1.0589    0.1587 N   0  0  0  0  0  0  0  0  0  0  0  0
    4.9256    1.8557    0.1474 H   0  0  0  0  0  0  0  0  0  0  0  0
   -1.4012    0.4642   -0.1931 N   0  0  0  0  0  2  0  0  0  0  0  0
    0.7250    1.7015   -0.1649 N   0  0  0  0  0  2  0  0  0  0  0  0
    2.9244    1.1140    0.0437 C   0  0  0  0  0  0  0  0  0  0  0  0
    2.2348    3.5878   -0.2614 C   0  0  0  0  0  0  0  0  0  0  0  0
    3.2585    3.9865   -0.2170 H   0  0  0  0  0  0  0  0  0  0  0  0
   -2.5355   -0.3610    0.1152 C   0  0  0  0  0  0  0  0  0  0  0  0
    3.4276   -1.0143    0.2511 C   0  0  0  0  0  0  0  0  0  0  0  0
   -1.5871    1.7674   -0.4218 C   0  0  2  0  0  3  0  0  0  0  0  0
    2.0057    2.2098   -0.1247 C   0  0  0  0  0  0  0  0  0  0  0  0
   -0.3513    2.5208   -0.4207 C   0  0  0  0  0  0  0  0  0  0  0  0
   -3.1395   -1.1442   -0.8978 C   0  0  0  0  0  0  0  0  0  0  0  0
    4.6515   -0.2771    0.2875 C   0  0  0  0  0  0  0  0  0  0  0  0
   -2.9153    2.4206   -0.6464 C   0  0  0  0  0  0  0  0  0  0  0  0
   -3.7453    1.7264   -0.4248 H   0  0  0  0  0  0  0  0  0  0  0  0
   -3.0026    2.7328   -1.7096 H   0  0  0  0  0  0  0  0  0  0  0  0
   -3.0342    3.3328   -0.0274 H   0  0  0  0  0  0  0  0  0  0  0  0
    3.4318   -2.4168    0.3543 C   0  0  0  0  0  0  0  0  0  0  0  0
    2.4798   -2.9635    0.3405 H   0  0  0  0  0  0  0  0  0  0  0  0
   -0.1580    3.9065   -0.5781 C   0  0  0  0  0  0  0  0  0  0  0  0
   -1.0216    4.5547   -0.7803 H   0  0  0  0  0  0  0  0  0  0  0  0
   -2.5652   -1.1998   -2.3042 C   0  0  0  0  0  0  0  0  0  0  0  0
   -1.8007   -0.4023   -2.3940 H   0  0  0  0  0  0  0  0  0  0  0  0
    5.8815   -2.3085    0.5288 C   0  0  0  0  0  0  0  0  0  0  0  0
    6.8356   -2.8450    0.6395 H   0  0  0  0  0  0  0  0  0  0  0  0
    1.1377    4.4396   -0.4835 C   0  0  0  0  0  0  0  0  0  0  0  0
    1.2978    5.5207   -0.5998 H   0  0  0  0  0  0  0  0  0  0  0  0
   -2.3378    0.4290    2.5646 C   0  0  0  0  0  0  0  0  0  0  0  0
   -1.3595    0.7699    2.1704 H   0  0  0  0  0  0  0  0  0  0  0  0
   -4.2630   -1.9191   -0.5533 C   0  0  0  0  0  0  0  0  0  0  0  0
   -4.7482   -2.5309   -1.3290 H   0  0  0  0  0  0  0  0  0  0  0  0
   -3.0087   -0.3774    1.4564 C   0  0  0  0  0  0  0  0  0  0  0  0
    4.6726   -3.0469    0.4915 C   0  0  0  0  0  0  0  0  0  0  0  0
    4.7140   -4.1429    0.5757 H   0  0  0  0  0  0  0  0  0  0  0  0
    5.8951   -0.9110    0.4282 C   0  0  0  0  0  0  0  0  0  0  0  0
    6.8362   -0.3428    0.4567 H   0  0  0  0  0  0  0  0  0  0  0  0
   -4.7670   -1.9268    0.7520 C   0  0  0  0  0  0  0  0  0  0  0  0
   -5.6488   -2.5368    1.0009 H   0  0  0  0  0  0  0  0  0  0  0  0
   -4.1367   -1.1664    1.7445 C   0  0  0  0  0  0  0  0  0  0  0  0
   -4.5237   -1.1898    2.7745 H   0  0  0  0  0  0  0  0  0  0  0  0
   -1.8245   -2.5341   -2.5061 C   0  0  0  0  0  0  0  0  0  0  0  0
   -1.0646   -2.6796   -1.7136 H   0  0  0  0  0  0  0  0  0  0  0  0
   -1.3011   -2.5455   -3.4834 H   0  0  0  0  0  0  0  0  0  0  0  0
   -2.5287   -3.3922   -2.4725 H   0  0  0  0  0  0  0  0  0  0  0  0
   -3.1680    1.6690    2.9423 C   0  0  0  0  0  0  0  0  0  0  0  0
   -3.3513    2.3292    2.0726 H   0  0  0  0  0  0  0  0  0  0  0  0
   -2.6500    2.2661    3.7210 H   0  0  0  0  0  0  0  0  0  0  0  0
   -4.1582    1.3732    3.3479 H   0  0  0  0  0  0  0  0  0  0  0  0
   -3.6217   -0.9601   -3.3922 C   0  0  0  0  0  0  0  0  0  0  0  0
   -4.1472    0.0055   -3.2430 H   0  0  0  0  0  0  0  0  0  0  0  0
   -4.3908   -1.7604   -3.4136 H   0  0  0  0  0  0  0  0  0  0  0  0
   -3.1440   -0.9380   -4.3930 H   0  0  0  0  0  0  0  0  0  0  0  0
   -2.0435   -0.4279    3.8060 C   0  0  0  0  0  0  0  0  0  0  0  0
   -1.4472   -1.3179    3.5289 H   0  0  0  0  0  0  0  0  0  0  0  0
   -2.9751   -0.7657    4.3058 H   0  0  0  0  0  0  0  0  0  0  0  0
   -1.4674    0.1609    4.5492 H   0  0  0  0  0  0  0  0  0  0  0  0
  1 10  1  0  0  0  0
  2 15  1  0  0  0  0
  3  2  1  0  0  0  0
  4  9  1  0  0  0  0
  5 12  1  0  0  0  0
  6  1  1  0  0  0  0
  6  2  1  0  0  0  0
  7  8  1  0  0  0  0
  7 12  1  0  0  0  0
  9 34  1  0  0  0  0
 10 15  2  0  0  0  0
 10 20  1  0  0  0  0
 11 13  1  0  0  0  0
 11  4  1  1  0  0  0
 12  6  2  0  0  0  0
 13  5  1  0  0  0  0
 14 32  1  0  0  0  0
 14  9  2  0  0  0  0
 15 37  1  0  0  0  0
 16 17  1  0  0  0  0
 16 11  1  0  0  0  0
 16 19  1  0  0  0  0
 18 16  1  0  0  0  0
 20 35  2  0  0  0  0
 21 20  1  0  0  0  0
 22 28  1  0  0  0  0
 22 13  2  0  0  0  0
 23 22  1  0  0  0  0
 24 14  1  0  0  0  0
 25 24  1  0  0  0  0
 26 27  1  0  0  0  0
 28  7  2  0  0  0  0
 29 28  1  0  0  0  0
 30 47  1  0  0  0  0
 30 55  1  0  0  0  0
 31 30  1  0  0  0  0
 32 39  2  0  0  0  0
 33 32  1  0  0  0  0
 34 41  2  0  0  0  0
 34 30  1  0  0  0  0
 35 26  1  0  0  0  0
 35 36  1  0  0  0  0
 37 38  1  0  0  0  0
 37 26  2  0  0  0  0
 39 40  1  0  0  0  0
 39 41  1  0  0  0  0
 41 42  1  0  0  0  0
 43 46  1  0  0  0  0
 43 24  1  0  0  0  0
 43 44  1  0  0  0  0
 45 43  1  0  0  0  0
 47 50  1  0  0  0  0
 47 49  1  0  0  0  0
 48 47  1  0  0  0  0
 51 52  1  0  0  0  0
 51 24  1  0  0  0  0
 53 51  1  0  0  0  0
 54 51  1  0  0  0  0
 55 57  1  0  0  0  0
 55 58  1  0  0  0  0
 56 55  1  0  0  0  0
M  END
