1,2,3
 OpenBabel05122313063D

 69 75  0  0  1  0  0  0  0  0999 V2000
   -2.0726    0.6148   -0.1474 N   0  0  0  0  0  2  0  0  0  0  0  0
   -0.0000    2.1909    0.0003 N   0  0  0  0  0  2  0  0  0  0  0  0
    2.0729    0.6152    0.1470 N   0  0  0  0  0  2  0  0  0  0  0  0
   -3.1531   -0.1830   -0.1280 C   0  0  1  0  0  3  0  0  0  0  0  0
   -4.3331    0.1510   -0.8591 C   0  0  0  0  0  0  0  0  0  0  0  0
   -4.4615    1.3861   -1.4798 C   0  0  0  0  0  0  0  0  0  0  0  0
   -3.4169    2.3058   -1.2920 C   0  0  0  0  0  0  0  0  0  0  0  0
   -2.2480    1.9042   -0.6382 C   0  0  0  0  0  0  0  0  0  0  0  0
   -1.1335    2.8248   -0.3743 C   0  0  1  0  0  3  0  0  0  0  0  0
   -1.1548    4.2299   -0.3893 C   0  0  0  0  0  0  0  0  0  0  0  0
   -0.0001    4.9262    0.0006 C   0  0  0  0  0  0  0  0  0  0  0  0
    1.1546    4.2299    0.3903 C   0  0  0  0  0  0  0  0  0  0  0  0
    1.1334    2.8248    0.3750 C   0  0  0  0  0  0  0  0  0  0  0  0
    2.2480    1.9042    0.6387 C   0  0  2  0  0  3  0  0  0  0  0  0
    3.4165    2.3054    1.2934 C   0  0  0  0  0  0  0  0  0  0  0  0
    4.4609    1.3855    1.4816 C   0  0  0  0  0  0  0  0  0  0  0  0
    4.3327    0.1507    0.8602 C   0  0  0  0  0  0  0  0  0  0  0  0
    3.1533   -0.1827    0.1280 C   0  0  0  0  0  0  0  0  0  0  0  0
   -3.4220   -1.5221    0.5602 C   0  0  2  0  0  0  0  0  0  0  0  0
   -3.3423   -2.5475   -0.6250 C   0  0  0  0  0  0  0  0  0  0  0  0
   -4.5714   -2.1984   -1.5111 C   0  0  0  0  0  0  0  0  0  0  0  0
   -5.2587   -1.0254   -0.7398 C   0  0  1  0  0  0  0  0  0  0  0  0
   -5.0033   -1.4040    0.7495 C   0  0  0  0  0  0  0  0  0  0  0  0
   -5.4218   -0.3116    1.7445 C   0  0  0  0  0  0  0  0  0  0  0  0
   -5.6781   -2.7132    1.1757 C   0  0  0  0  0  0  0  0  0  0  0  0
   -2.6775   -1.8528    1.8399 C   0  0  0  0  0  0  0  0  0  0  0  0
    5.2580   -1.0261    0.7414 C   0  0  1  0  0  0  0  0  0  0  0  0
    4.5693   -2.1991    1.5116 C   0  0  0  0  0  0  0  0  0  0  0  0
    3.3410   -2.5474    0.6242 C   0  0  0  0  0  0  0  0  0  0  0  0
    3.4223   -1.5216   -0.5606 C   0  0  2  0  0  0  0  0  0  0  0  0
    5.0038   -1.4041   -0.7483 C   0  0  0  0  0  0  0  0  0  0  0  0
    5.6784   -2.7134   -1.1744 C   0  0  0  0  0  0  0  0  0  0  0  0
    5.4237   -0.3114   -1.7424 C   0  0  0  0  0  0  0  0  0  0  0  0
    2.6788   -1.8511   -1.8411 C   0  0  0  0  0  0  0  0  0  0  0  0
   -5.3604    1.6537   -2.0548 H   0  0  0  0  0  0  0  0  0  0  0  0
   -3.4871    3.3291   -1.6846 H   0  0  0  0  0  0  0  0  0  0  0  0
   -2.0666    4.7695   -0.6777 H   0  0  0  0  0  0  0  0  0  0  0  0
   -0.0001    6.0257    0.0007 H   0  0  0  0  0  0  0  0  0  0  0  0
    2.0664    4.7695    0.6788 H   0  0  0  0  0  0  0  0  0  0  0  0
    3.4865    3.3285    1.6867 H   0  0  0  0  0  0  0  0  0  0  0  0
    5.3593    1.6527    2.0575 H   0  0  0  0  0  0  0  0  0  0  0  0
   -6.3081   -0.8254   -1.0302 H   0  0  0  0  0  0  0  0  0  0  0  0
    6.3072   -0.8267    1.0329 H   0  0  0  0  0  0  0  0  0  0  0  0
   -2.3695   -2.4594   -1.1419 H   0  0  0  0  0  0  0  0  0  0  0  0
   -3.3973   -3.5764   -0.2178 H   0  0  0  0  0  0  0  0  0  0  0  0
   -4.2853   -1.8886   -2.5348 H   0  0  0  0  0  0  0  0  0  0  0  0
   -5.2731   -3.0499   -1.6103 H   0  0  0  0  0  0  0  0  0  0  0  0
    5.2706   -3.0509    1.6113 H   0  0  0  0  0  0  0  0  0  0  0  0
    4.2823   -1.8895    2.5350 H   0  0  0  0  0  0  0  0  0  0  0  0
    3.3959   -3.5762    0.2166 H   0  0  0  0  0  0  0  0  0  0  0  0
    2.3677   -2.4591    1.1401 H   0  0  0  0  0  0  0  0  0  0  0  0
   -5.1477   -0.6045    2.7773 H   0  0  0  0  0  0  0  0  0  0  0  0
   -4.9478    0.6684    1.5406 H   0  0  0  0  0  0  0  0  0  0  0  0
   -6.5216   -0.1663    1.7196 H   0  0  0  0  0  0  0  0  0  0  0  0
   -5.4205   -3.5781    0.5376 H   0  0  0  0  0  0  0  0  0  0  0  0
   -5.4011   -2.9715    2.2171 H   0  0  0  0  0  0  0  0  0  0  0  0
   -6.7805   -2.5911    1.1490 H   0  0  0  0  0  0  0  0  0  0  0  0
   -1.6011   -2.0133    1.6594 H   0  0  0  0  0  0  0  0  0  0  0  0
   -2.7722   -1.0353    2.5801 H   0  0  0  0  0  0  0  0  0  0  0  0
   -3.0976   -2.7815    2.2770 H   0  0  0  0  0  0  0  0  0  0  0  0
    5.4022   -2.9711   -2.2162 H   0  0  0  0  0  0  0  0  0  0  0  0
    6.7809   -2.5917   -1.1469 H   0  0  0  0  0  0  0  0  0  0  0  0
    5.4200   -3.5783   -0.5369 H   0  0  0  0  0  0  0  0  0  0  0  0
    5.1507   -0.6037   -2.7756 H   0  0  0  0  0  0  0  0  0  0  0  0
    4.9498    0.6687   -1.5386 H   0  0  0  0  0  0  0  0  0  0  0  0
    6.5236   -0.1665   -1.7163 H   0  0  0  0  0  0  0  0  0  0  0  0
    1.6021   -2.0105   -1.6618 H   0  0  0  0  0  0  0  0  0  0  0  0
    2.7754   -1.0335   -2.5810 H   0  0  0  0  0  0  0  0  0  0  0  0
    3.0982   -2.7801   -2.2781 H   0  0  0  0  0  0  0  0  0  0  0  0
  1  4  1  0  0  0  0
  2 13  1  0  0  0  0
  3 14  1  0  0  0  0
  4  5  1  6  0  0  0
  4 19  1  0  0  0  0
  5 22  1  0  0  0  0
  6  7  1  0  0  0  0
  6  5  2  0  0  0  0
  7  8  2  0  0  0  0
  8  1  1  0  0  0  0
  9  8  1  1  0  0  0
  9  2  1  0  0  0  0
 10  9  1  0  0  0  0
 10 11  2  0  0  0  0
 11 38  1  0  0  0  0
 11 12  1  0  0  0  0
 12 39  1  0  0  0  0
 13 12  2  0  0  0  0
 14 13  1  6  0  0  0
 14 15  1  0  0  0  0
 15 16  2  0  0  0  0
 15 40  1  0  0  0  0
 16 41  1  0  0  0  0
 17 16  1  0  0  0  0
 18  3  1  0  0  0  0
 18 17  2  0  0  0  0
 19 23  1  0  0  0  0
 19 26  1  1  0  0  0
 20 45  1  0  0  0  0
 20 19  1  0  0  0  0
 21 22  1  0  0  0  0
 21 20  1  0  0  0  0
 22 42  1  6  0  0  0
 22 23  1  0  0  0  0
 23 25  1  0  0  0  0
 23 24  1  0  0  0  0
 24 52  1  0  0  0  0
 25 56  1  0  0  0  0
 26 60  1  0  0  0  0
 26 59  1  0  0  0  0
 27 17  1  0  0  0  0
 27 43  1  1  0  0  0
 27 28  1  0  0  0  0
 28 48  1  0  0  0  0
 28 49  1  0  0  0  0
 29 51  1  0  0  0  0
 29 28  1  0  0  0  0
 30 34  1  6  0  0  0
 30 18  1  0  0  0  0
 30 29  1  0  0  0  0
 31 30  1  0  0  0  0
 31 27  1  0  0  0  0
 32 62  1  0  0  0  0
 32 31  1  0  0  0  0
 32 63  1  0  0  0  0
 33 66  1  0  0  0  0
 33 65  1  0  0  0  0
 33 31  1  0  0  0  0
 34 67  1  0  0  0  0
 35  6  1  0  0  0  0
 36  7  1  0  0  0  0
 37 10  1  0  0  0  0
 44 20  1  0  0  0  0
 46 21  1  0  0  0  0
 47 21  1  0  0  0  0
 50 29  1  0  0  0  0
 53 24  1  0  0  0  0
 54 24  1  0  0  0  0
 55 25  1  0  0  0  0
 57 25  1  0  0  0  0
 58 26  1  0  0  0  0
 61 32  1  0  0  0  0
 64 33  1  0  0  0  0
 68 34  1  0  0  0  0
 69 34  1  0  0  0  0
M  END
