32,33,35
 OpenBabel05122313063D

 35 38  0  0  1  0  0  0  0  0999 V2000
    2.8130    2.0937    0.0942 C   0  0  0  0  0  0  0  0  0  0  0  0
    2.3526    3.0967    0.1071 H   0  0  0  0  0  0  0  0  0  0  0  0
    4.2210    1.9489    0.1189 C   0  0  0  0  0  0  0  0  0  0  0  0
    4.8656    2.8388    0.1556 H   0  0  0  0  0  0  0  0  0  0  0  0
    4.7598    0.6688    0.0889 C   0  0  0  0  0  0  0  0  0  0  0  0
    5.8494    0.5122    0.0990 H   0  0  0  0  0  0  0  0  0  0  0  0
    3.8930   -0.4554    0.0395 C   0  0  0  0  0  0  0  0  0  0  0  0
    4.3766   -1.8082   -0.0141 C   0  0  0  0  0  0  0  0  0  0  0  0
    5.4638   -1.9780   -0.0080 H   0  0  0  0  0  0  0  0  0  0  0  0
    3.5054   -2.8692   -0.0848 C   0  0  0  0  0  0  0  0  0  0  0  0
    3.8831   -3.9012   -0.1397 H   0  0  0  0  0  0  0  0  0  0  0  0
    2.0863   -2.6532   -0.0899 C   0  0  0  0  0  0  0  0  0  0  0  0
    1.1356   -3.7032   -0.1918 C   0  0  0  0  0  0  0  0  0  0  0  0
    1.4857   -4.7417   -0.2913 H   0  0  0  0  0  0  0  0  0  0  0  0
   -0.2253   -3.4320   -0.1918 C   0  0  0  0  0  0  0  0  0  0  0  0
   -0.9475   -4.2434   -0.3174 H   0  0  0  0  0  0  0  0  0  0  0  0
   -0.6373   -2.0784   -0.0531 C   0  0  0  0  0  0  0  0  0  0  0  0
    1.5651   -1.3246   -0.0099 C   0  0  0  0  0  0  0  0  0  0  0  0
    2.4844   -0.1959    0.0324 C   0  0  0  0  0  0  0  0  0  0  0  0
   -3.1547   -2.4352    0.2167 C   0  0  1  0  0  3  0  0  0  0  0  0
   -3.2196   -3.8919    0.5379 C   0  0  0  0  0  0  0  0  0  0  0  0
   -4.2408   -4.1313    0.8863 H   0  0  0  0  0  0  0  0  0  0  0  0
   -2.5118   -4.1795    1.3406 H   0  0  0  0  0  0  0  0  0  0  0  0
   -3.0191   -4.5323   -0.3461 H   0  0  0  0  0  0  0  0  0  0  0  0
   -4.2081   -1.5340    0.1397 C   0  0  0  0  0  0  0  0  0  0  0  0
   -5.2679   -1.7717    0.2800 H   0  0  0  0  0  0  0  0  0  0  0  0
   -3.6349   -0.2621   -0.1363 C   0  0  0  0  0  0  0  0  0  0  0  0
   -4.3189    1.0508   -0.3235 C   0  0  0  0  0  0  0  0  0  0  0  0
   -3.5771    1.8571   -0.4792 H   0  0  0  0  0  0  0  0  0  0  0  0
   -4.9385    1.3039    0.5603 H   0  0  0  0  0  0  0  0  0  0  0  0
   -4.9969    1.0227   -1.2006 H   0  0  0  0  0  0  0  0  0  0  0  0
    1.9764    1.0603    0.0523 N   0  0  0  0  0  2  0  0  0  0  0  0
    0.2378   -1.0826    0.0282 N   0  0  0  0  0  2  0  0  0  0  0  0
   -2.0025   -1.6917   -0.0196 N   0  0  0  0  0  0  0  0  0  0  0  0
   -2.3046   -0.3743   -0.2238 N   0  0  0  0  0  2  0  0  0  0  0  0
  1  2  1  0  0  0  0
  1  3  2  0  0  0  0
  3  4  1  0  0  0  0
  5  6  1  0  0  0  0
  5  3  1  0  0  0  0
  7  5  2  0  0  0  0
  8  9  1  0  0  0  0
  8  7  1  0  0  0  0
 10  8  2  0  0  0  0
 11 10  1  0  0  0  0
 12 10  1  0  0  0  0
 12 18  1  0  0  0  0
 13 15  1  0  0  0  0
 13 12  2  0  0  0  0
 14 13  1  0  0  0  0
 15 17  2  0  0  0  0
 16 15  1  0  0  0  0
 17 34  1  0  0  0  0
 17 33  1  0  0  0  0
 18 33  1  0  0  0  0
 18 19  2  0  0  0  0
 19  7  1  0  0  0  0
 19 32  1  0  0  0  0
 20 21  1  1  0  0  0
 21 22  1  0  0  0  0
 21 23  1  0  0  0  0
 24 21  1  0  0  0  0
 25 20  1  0  0  0  0
 25 26  1  0  0  0  0
 27 25  2  0  0  0  0
 28 27  1  0  0  0  0
 28 30  1  0  0  0  0
 29 28  1  0  0  0  0
 31 28  1  0  0  0  0
 32  1  1  0  0  0  0
 34 20  1  0  0  0  0
 35 27  1  0  0  0  0
 35 34  1  0  0  0  0
M  END
