1,2,3
 OpenBabel05122313063D

 57 57  0  0  1  0  0  0  0  0999 V2000
   -1.7907   -0.3323   -0.8573 N   0  0  0  0  0  2  0  0  0  0  0  0
   -0.5928    1.7653   -0.1332 N   0  0  0  0  0  2  0  0  0  0  0  0
    1.7438    0.9872    0.4042 N   0  0  0  0  0  2  0  0  0  0  0  0
   -4.7154   -1.7033    0.7974 N   0  0  0  0  0  0  0  0  0  0  0  0
    5.2873   -1.5516    0.4073 N   0  0  0  0  0  0  0  0  0  0  0  0
   -4.0120    0.7224   -1.3077 C   0  0  0  0  0  0  0  0  0  0  0  0
   -4.5486   -0.0731   -0.7404 H   0  0  0  0  0  0  0  0  0  0  0  0
   -4.1197    0.4995   -2.3907 H   0  0  0  0  0  0  0  0  0  0  0  0
   -4.5018    1.6936   -1.1160 H   0  0  0  0  0  0  0  0  0  0  0  0
   -2.5694    0.7482   -0.8983 C   0  0  1  0  0  3  0  0  0  0  0  0
   -1.9056    1.9847   -0.4955 C   0  0  0  0  0  0  0  0  0  0  0  0
   -2.4269    3.2895   -0.4376 C   0  0  0  0  0  0  0  0  0  0  0  0
   -3.4691    3.4784   -0.7287 H   0  0  0  0  0  0  0  0  0  0  0  0
   -1.6026    4.3445   -0.0102 C   0  0  0  0  0  0  0  0  0  0  0  0
   -2.0032    5.3671    0.0391 H   0  0  0  0  0  0  0  0  0  0  0  0
   -0.2666    4.0984    0.3484 C   0  0  0  0  0  0  0  0  0  0  0  0
    0.3816    4.9222    0.6774 H   0  0  0  0  0  0  0  0  0  0  0  0
    0.2382    2.7870    0.2790 C   0  0  0  0  0  0  0  0  0  0  0  0
    1.5773    2.2972    0.5829 C   0  0  0  0  0  0  0  0  0  0  0  0
    2.6654    3.2159    1.0629 C   0  0  0  0  0  0  0  0  0  0  0  0
    2.9706    2.9761    2.1034 H   0  0  0  0  0  0  0  0  0  0  0  0
    2.3368    4.2701    1.0469 H   0  0  0  0  0  0  0  0  0  0  0  0
    3.5732    3.1365    0.4311 H   0  0  0  0  0  0  0  0  0  0  0  0
   -2.3177   -1.6574   -1.1704 C   0  0  0  0  0  0  0  0  0  0  0  0
   -1.5826   -2.1416   -1.8443 H   0  0  0  0  0  0  0  0  0  0  0  0
   -3.2936   -1.5925   -1.6921 H   0  0  0  0  0  0  0  0  0  0  0  0
   -2.4354   -2.5345    0.0884 C   0  0  0  0  0  0  0  0  0  0  0  0
   -2.7751   -3.5410   -0.2355 H   0  0  0  0  0  0  0  0  0  0  0  0
   -1.4154   -2.6726    0.5015 H   0  0  0  0  0  0  0  0  0  0  0  0
   -3.3313   -1.9762    1.1918 C   0  0  0  0  0  0  0  0  0  0  0  0
   -3.2968   -2.6796    2.0677 H   0  0  0  0  0  0  0  0  0  0  0  0
   -2.8936   -1.0199    1.5506 H   0  0  0  0  0  0  0  0  0  0  0  0
   -5.4177   -0.9482    1.8207 C   0  0  0  0  0  0  0  0  0  0  0  0
   -6.4408   -0.6947    1.4746 H   0  0  0  0  0  0  0  0  0  0  0  0
   -4.8790   -0.0009    2.0288 H   0  0  0  0  0  0  0  0  0  0  0  0
   -5.5145   -1.5042    2.7914 H   0  0  0  0  0  0  0  0  0  0  0  0
   -5.4498   -2.8966    0.4140 C   0  0  0  0  0  0  0  0  0  0  0  0
   -4.9538   -3.4075   -0.4342 H   0  0  0  0  0  0  0  0  0  0  0  0
   -6.4731   -2.6208    0.0878 H   0  0  0  0  0  0  0  0  0  0  0  0
   -5.5459   -3.6401    1.2504 H   0  0  0  0  0  0  0  0  0  0  0  0
    3.0396    0.3644    0.6488 C   0  0  0  0  0  0  0  0  0  0  0  0
    2.8564   -0.6330    1.0909 H   0  0  0  0  0  0  0  0  0  0  0  0
    3.6422    0.9484    1.3765 H   0  0  0  0  0  0  0  0  0  0  0  0
    3.8238    0.1806   -0.6590 C   0  0  0  0  0  0  0  0  0  0  0  0
    3.2394   -0.4957   -1.3160 H   0  0  0  0  0  0  0  0  0  0  0  0
    3.9016    1.1504   -1.1955 H   0  0  0  0  0  0  0  0  0  0  0  0
    5.2392   -0.3494   -0.4111 C   0  0  0  0  0  0  0  0  0  0  0  0
    5.7462   -0.4982   -1.4061 H   0  0  0  0  0  0  0  0  0  0  0  0
    5.8279    0.4326    0.1179 H   0  0  0  0  0  0  0  0  0  0  0  0
    6.6244   -1.8270    0.8924 C   0  0  0  0  0  0  0  0  0  0  0  0
    6.6063   -2.6940    1.5842 H   0  0  0  0  0  0  0  0  0  0  0  0
    7.0199   -0.9530    1.4504 H   0  0  0  0  0  0  0  0  0  0  0  0
    7.3584   -2.0664    0.0738 H   0  0  0  0  0  0  0  0  0  0  0  0
    4.6918   -2.7105   -0.2388 C   0  0  0  0  0  0  0  0  0  0  0  0
    5.2277   -3.0047   -1.1824 H   0  0  0  0  0  0  0  0  0  0  0  0
    3.6262   -2.5269   -0.4826 H   0  0  0  0  0  0  0  0  0  0  0  0
    4.7256   -3.5775    0.4515 H   0  0  0  0  0  0  0  0  0  0  0  0
  2 18  1  0  0  0  0
  3 19  1  0  0  0  0
  3 41  1  0  0  0  0
  4 30  1  0  0  0  0
  4 33  1  0  0  0  0
  5 50  1  0  0  0  0
  6  9  1  0  0  0  0
  6 10  1  0  0  0  0
  6  7  1  0  0  0  0
  8  6  1  0  0  0  0
 10  1  1  1  0  0  0
 10 11  1  0  0  0  0
 11 12  2  0  0  0  0
 11  2  1  0  0  0  0
 12 14  1  0  0  0  0
 13 12  1  0  0  0  0
 14 15  1  0  0  0  0
 14 16  2  0  0  0  0
 16 17  1  0  0  0  0
 18 16  1  0  0  0  0
 18 19  2  0  0  0  0
 19 20  1  0  0  0  0
 20 21  1  0  0  0  0
 22 20  1  0  0  0  0
 23 20  1  0  0  0  0
 24  1  1  0  0  0  0
 24 27  1  0  0  0  0
 25 24  1  0  0  0  0
 26 24  1  0  0  0  0
 27 29  1  0  0  0  0
 27 30  1  0  0  0  0
 28 27  1  0  0  0  0
 30 32  1  0  0  0  0
 30 31  1  0  0  0  0
 33 35  1  0  0  0  0
 33 36  1  0  0  0  0
 34 33  1  0  0  0  0
 37  4  1  0  0  0  0
 37 40  1  0  0  0  0
 38 37  1  0  0  0  0
 39 37  1  0  0  0  0
 41 42  1  0  0  0  0
 41 43  1  0  0  0  0
 44 47  1  0  0  0  0
 44 41  1  0  0  0  0
 45 44  1  0  0  0  0
 46 44  1  0  0  0  0
 47 49  1  0  0  0  0
 47  5  1  0  0  0  0
 48 47  1  0  0  0  0
 50 52  1  0  0  0  0
 50 51  1  0  0  0  0
 53 50  1  0  0  0  0
 54  5  1  0  0  0  0
 54 57  1  0  0  0  0
 55 54  1  0  0  0  0
 56 54  1  0  0  0  0
M  END
