1,2,3
 OpenBabel05122313063D

 35 37  0  0  0  0  0  0  0  0999 V2000
    1.4926   -0.6901    0.0001 N   0  0  0  0  0  2  0  0  0  0  0  0
    0.0960    1.4711    0.0001 N   0  0  0  0  0  2  0  0  0  0  0  0
   -2.1556    0.3284    0.0001 N   0  0  0  0  0  2  0  0  0  0  0  0
    1.3384   -3.1332   -0.0001 C   0  0  0  0  0  0  0  0  0  0  0  0
    0.6642   -3.1268   -0.8856 H   0  0  0  0  0  0  0  0  0  0  0  0
    0.6637   -3.1267    0.8850 H   0  0  0  0  0  0  0  0  0  0  0  0
    1.9919   -4.0237    0.0001 H   0  0  0  0  0  0  0  0  0  0  0  0
    2.1312   -1.8756    0.0000 C   0  0  0  0  0  0  0  0  0  0  0  0
    3.5610   -1.9043   -0.0001 C   0  0  0  0  0  0  0  0  0  0  0  0
    4.0505   -2.8883   -0.0002 H   0  0  0  0  0  0  0  0  0  0  0  0
    4.3092   -0.7433   -0.0001 C   0  0  0  0  0  0  0  0  0  0  0  0
    5.4094   -0.7774   -0.0002 H   0  0  0  0  0  0  0  0  0  0  0  0
    3.6408    0.5143   -0.0000 C   0  0  0  0  0  0  0  0  0  0  0  0
    4.2932    1.7811   -0.0001 C   0  0  0  0  0  3  0  0  0  0  0  0
    5.3931    1.8116   -0.0001 H   0  0  0  0  0  0  0  0  0  0  0  0
    3.5522    2.9583   -0.0000 C   0  0  0  0  0  0  0  0  0  0  0  0
    4.0683    3.9297   -0.0001 H   0  0  0  0  0  0  0  0  0  0  0  0
    2.1360    2.9288    0.0000 C   0  0  0  0  0  0  0  0  0  0  0  0
    1.5673    3.8698    0.0001 H   0  0  0  0  0  0  0  0  0  0  0  0
    1.4675    1.7029    0.0001 C   0  0  0  0  0  0  0  0  0  0  0  0
    2.2162    0.4835    0.0001 C   0  0  0  0  0  0  0  0  0  0  0  0
   -0.8996    2.3371    0.0001 C   0  0  0  0  0  0  0  0  0  0  0  0
   -0.7745    3.4339    0.0001 H   0  0  0  0  0  0  0  0  0  0  0  0
   -2.1924    1.7146    0.0001 C   0  0  0  0  0  0  0  0  0  0  0  0
   -3.4131    2.4190   -0.0001 C   0  0  0  0  0  0  0  0  0  0  0  0
   -3.3978    3.5180   -0.0001 H   0  0  0  0  0  0  0  0  0  0  0  0
   -4.6055    1.6979   -0.0002 C   0  0  0  0  0  0  0  0  0  0  0  0
   -5.5754    2.2167   -0.0003 H   0  0  0  0  0  0  0  0  0  0  0  0
   -4.5491    0.2960   -0.0002 C   0  0  0  0  0  0  0  0  0  0  0  0
   -5.4703   -0.3030   -0.0002 H   0  0  0  0  0  0  0  0  0  0  0  0
   -3.3149   -0.3853   -0.0000 C   0  0  0  0  0  0  0  0  0  0  0  0
   -3.2531   -1.8738    0.0001 C   0  0  0  0  0  0  0  0  0  0  0  0
   -2.6726   -2.2104    0.8865 H   0  0  0  0  0  0  0  0  0  0  0  0
   -2.6726   -2.2104   -0.8863 H   0  0  0  0  0  0  0  0  0  0  0  0
   -4.2667   -2.3133    0.0001 H   0  0  0  0  0  0  0  0  0  0  0  0
  2 20  1  0  0  0  0
  2 22  1  0  0  0  0
  4  8  1  0  0  0  0
  4  7  1  0  0  0  0
  4  6  1  0  0  0  0
  5  4  1  0  0  0  0
  8  1  1  0  0  0  0
  9  8  2  0  0  0  0
 10  9  1  0  0  0  0
 11  9  1  0  0  0  0
 11 13  2  0  0  0  0
 12 11  1  0  0  0  0
 13 21  1  0  0  0  0
 14 13  1  0  0  0  0
 14 16  1  0  0  0  0
 15 14  1  0  0  0  0
 16 18  2  0  0  0  0
 17 16  1  0  0  0  0
 18 20  1  0  0  0  0
 18 19  1  0  0  0  0
 21 20  2  0  0  0  0
 21  1  1  0  0  0  0
 22 23  1  0  0  0  0
 24 22  2  0  0  0  0
 24  3  1  0  0  0  0
 25 24  1  0  0  0  0
 26 25  1  0  0  0  0
 27 29  1  0  0  0  0
 27 25  2  0  0  0  0
 28 27  1  0  0  0  0
 29 31  2  0  0  0  0
 30 29  1  0  0  0  0
 31 32  1  0  0  0  0
 31  3  1  0  0  0  0
 32 35  1  0  0  0  0
 32 33  1  0  0  0  0
 34 32  1  0  0  0  0
M  END
