3,5,7
 OpenBabel05122313063D

 29 29  0  0  0  0  0  0  0  0999 V2000
    4.9486   -1.5918   -0.8795 O   0  0  0  0  0  0  0  0  0  0  0  0
    4.9148   -2.1893   -0.1092 H   0  0  0  0  0  0  0  0  0  0  0  0
    1.2600    0.1278    0.1750 N   0  0  0  0  0  2  0  0  0  0  0  0
    1.7454    1.1675    0.8991 N   0  0  0  0  0  0  0  0  0  0  0  0
   -1.1951    1.9602    0.1062 N   0  0  0  0  0  0  0  0  0  0  0  0
   -2.0092    2.0591    0.7273 H   0  0  0  0  0  0  0  0  0  0  0  0
   -0.6637    0.2843   -2.1850 N   0  0  0  0  0  0  0  0  0  0  0  0
    0.1965   -0.0999   -2.6021 H   0  0  0  0  0  0  0  0  0  0  0  0
   -1.4397   -0.1240   -2.7258 H   0  0  0  0  0  0  0  0  0  0  0  0
    2.3351   -0.4950   -0.3575 C   0  0  0  0  0  3  0  0  0  0  0  0
    2.2233   -1.4009   -0.9644 H   0  0  0  0  0  0  0  0  0  0  0  0
    3.5303    0.1507    0.0255 C   0  0  0  0  0  0  0  0  0  0  0  0
    3.1082    1.2119    0.8320 C   0  0  0  0  0  0  0  0  0  0  0  0
    3.6727    1.9842    1.3672 H   0  0  0  0  0  0  0  0  0  0  0  0
    4.9177   -0.2652   -0.4052 C   0  0  0  0  0  0  0  0  0  0  0  0
    5.2401    0.3772   -1.2535 H   0  0  0  0  0  0  0  0  0  0  0  0
    5.6444   -0.0725    0.4187 H   0  0  0  0  0  0  0  0  0  0  0  0
    0.8497    2.0747    1.6022 C   0  0  0  0  0  0  0  0  0  0  0  0
    1.4868    2.8129    2.1244 H   0  0  0  0  0  0  0  0  0  0  0  0
    0.2894    1.5146    2.3794 H   0  0  0  0  0  0  0  0  0  0  0  0
   -0.0971    2.8103    0.6544 C   0  0  0  0  0  0  0  0  0  0  0  0
   -0.5311    3.6848    1.1828 H   0  0  0  0  0  0  0  0  0  0  0  0
    0.4966    3.2100   -0.1915 H   0  0  0  0  0  0  0  0  0  0  0  0
   -1.6102    2.3730   -1.2663 C   0  0  0  0  0  0  0  0  0  0  0  0
   -2.6451    2.0093   -1.4281 H   0  0  0  0  0  0  0  0  0  0  0  0
   -1.6286    3.4800   -1.3659 H   0  0  0  0  0  0  0  0  0  0  0  0
   -0.6702    1.7672   -2.3026 C   0  0  0  0  0  0  0  0  0  0  0  0
   -0.9615    2.1008   -3.3201 H   0  0  0  0  0  0  0  0  0  0  0  0
    0.3668    2.1209   -2.1318 H   0  0  0  0  0  0  0  0  0  0  0  0
  1 15  1  0  0  0  0
  1  2  1  0  0  0  0
  3  4  1  0  0  0  0
  4 18  1  0  0  0  0
  5 21  1  0  0  0  0
  5  6  1  0  0  0  0
  8  7  1  0  0  0  0
  9  7  1  0  0  0  0
 10 12  1  0  0  0  0
 10  3  1  0  0  0  0
 11 10  1  0  0  0  0
 12 13  2  0  0  0  0
 13  4  1  0  0  0  0
 13 14  1  0  0  0  0
 15 12  1  0  0  0  0
 15 17  1  0  0  0  0
 16 15  1  0  0  0  0
 18 19  1  0  0  0  0
 18 20  1  0  0  0  0
 21 22  1  0  0  0  0
 21 18  1  0  0  0  0
 23 21  1  0  0  0  0
 24  5  1  0  0  0  0
 25 24  1  0  0  0  0
 26 24  1  0  0  0  0
 27  7  1  0  0  0  0
 27 29  1  0  0  0  0
 27 24  1  0  0  0  0
 28 27  1  0  0  0  0
M  END
