1,2,3
 OpenBabel05122313063D

 37 38  0  0  0  0  0  0  0  0999 V2000
   -1.1543    0.5803   -0.0568 N   0  0  0  0  0  2  0  0  0  0  0  0
    1.1825    1.7859   -0.2880 N   0  0  0  0  0  2  0  0  0  0  0  0
    2.8025   -0.8500   -0.0290 N   0  0  0  0  0  0  0  0  0  0  0  0
   -2.3588   -0.0676   -0.1752 C   0  0  0  0  0  0  0  0  0  0  0  0
   -2.4399   -1.4042   -0.6579 C   0  0  0  0  0  0  0  0  0  0  0  0
   -1.5182   -1.9206   -0.9476 H   0  0  0  0  0  0  0  0  0  0  0  0
   -3.6722   -2.0311   -0.7597 C   0  0  0  0  0  0  0  0  0  0  0  0
   -3.7211   -3.0597   -1.1463 H   0  0  0  0  0  0  0  0  0  0  0  0
   -4.8703   -1.3684   -0.3789 C   0  0  0  0  0  0  0  0  0  0  0  0
   -5.8330   -1.8947   -0.4548 H   0  0  0  0  0  0  0  0  0  0  0  0
   -4.8283   -0.0545    0.0595 C   0  0  0  0  0  0  0  0  0  0  0  0
   -5.7512    0.4827    0.3238 H   0  0  0  0  0  0  0  0  0  0  0  0
   -3.5881    0.6366    0.1501 C   0  0  0  0  0  0  0  0  0  0  0  0
   -3.5170    2.0059    0.5154 C   0  0  0  0  0  0  0  0  0  0  0  0
   -4.4406    2.5433    0.7779 H   0  0  0  0  0  0  0  0  0  0  0  0
   -2.2970    2.6605    0.4942 C   0  0  0  0  0  0  0  0  0  0  0  0
   -2.2128    3.7347    0.7096 H   0  0  0  0  0  0  0  0  0  0  0  0
   -1.1310    1.9165    0.1913 C   0  0  0  0  0  0  0  0  0  0  0  0
    0.1683    2.5399    0.0329 C   0  0  0  0  0  0  0  0  0  0  0  0
    0.2760    3.6371    0.1196 H   0  0  0  0  0  0  0  0  0  0  0  0
    2.4722    2.3776   -0.6076 C   0  0  0  0  0  0  0  0  0  0  0  0
    2.5046    3.4281   -0.2472 H   0  0  0  0  0  0  0  0  0  0  0  0
    2.5506    2.4079   -1.7179 H   0  0  0  0  0  0  0  0  0  0  0  0
    3.6423    1.5749   -0.0479 C   0  0  0  0  0  0  0  0  0  0  0  0
    3.6162    1.5687    1.0611 H   0  0  0  0  0  0  0  0  0  0  0  0
    4.5735    2.1083   -0.3256 H   0  0  0  0  0  0  0  0  0  0  0  0
    3.7343    0.1623   -0.6140 C   0  0  0  0  0  0  0  0  0  0  0  0
    3.5513    0.1841   -1.7077 H   0  0  0  0  0  0  0  0  0  0  0  0
    4.7642   -0.2316   -0.4683 H   0  0  0  0  0  0  0  0  0  0  0  0
    2.8991   -2.0822   -0.8649 C   0  0  0  0  0  0  0  0  0  0  0  0
    2.5591   -1.8568   -1.8927 H   0  0  0  0  0  0  0  0  0  0  0  0
    2.2553   -2.8657   -0.4314 H   0  0  0  0  0  0  0  0  0  0  0  0
    3.9558   -2.4248   -0.8944 H   0  0  0  0  0  0  0  0  0  0  0  0
    3.2037   -1.1692    1.3700 C   0  0  0  0  0  0  0  0  0  0  0  0
    4.2520   -1.5379    1.3798 H   0  0  0  0  0  0  0  0  0  0  0  0
    2.5224   -1.9422    1.7658 H   0  0  0  0  0  0  0  0  0  0  0  0
    3.1255   -0.2686    2.0047 H   0  0  0  0  0  0  0  0  0  0  0  0
  1 18  1  0  0  0  0
  2 19  1  0  0  0  0
  3 34  1  0  0  0  0
  4  1  1  0  0  0  0
  4 13  1  0  0  0  0
  5  4  2  0  0  0  0
  6  5  1  0  0  0  0
  7  5  1  0  0  0  0
  7  9  2  0  0  0  0
  8  7  1  0  0  0  0
  9 11  1  0  0  0  0
 10  9  1  0  0  0  0
 11 13  2  0  0  0  0
 11 12  1  0  0  0  0
 13 14  1  0  0  0  0
 14 15  1  0  0  0  0
 16 14  2  0  0  0  0
 16 17  1  0  0  0  0
 18 16  1  0  0  0  0
 19 20  1  0  0  0  0
 19 18  2  0  0  0  0
 21  2  1  0  0  0  0
 21 22  1  0  0  0  0
 21 24  1  0  0  0  0
 23 21  1  0  0  0  0
 24 25  1  0  0  0  0
 26 24  1  0  0  0  0
 27 29  1  0  0  0  0
 27 24  1  0  0  0  0
 27  3  1  0  0  0  0
 28 27  1  0  0  0  0
 30 32  1  0  0  0  0
 30  3  1  0  0  0  0
 31 30  1  0  0  0  0
 33 30  1  0  0  0  0
 34 35  1  0  0  0  0
 34 36  1  0  0  0  0
 34 37  1  0  0  0  0
M  END
