1,2,3
 OpenBabel05122313063D

 47 50  0  0  0  0  0  0  0  0999 V2000
   -1.9641   -0.6564    0.0933 N   0  0  0  0  0  0  0  0  0  0  0  0
   -0.0000    1.0402   -0.0000 N   0  0  0  0  0  2  0  0  0  0  0  0
    1.9641   -0.6564   -0.0933 N   0  0  0  0  0  0  0  0  0  0  0  0
   -2.8021   -1.6689   -0.6462 C   0  0  0  0  0  0  0  0  0  0  0  0
   -2.1652   -2.5594   -0.7897 H   0  0  0  0  0  0  0  0  0  0  0  0
   -3.0644   -1.2513   -1.6347 H   0  0  0  0  0  0  0  0  0  0  0  0
   -4.0183   -1.9996    0.2576 C   0  0  0  0  0  0  0  0  0  0  0  0
   -4.0740   -3.0945    0.4166 H   0  0  0  0  0  0  0  0  0  0  0  0
   -4.9800   -1.6926   -0.2002 H   0  0  0  0  0  0  0  0  0  0  0  0
   -3.7601   -1.2602    1.5915 C   0  0  0  0  0  0  0  0  0  0  0  0
   -4.3476   -0.3224    1.6504 H   0  0  0  0  0  0  0  0  0  0  0  0
   -4.0191   -1.8687    2.4794 H   0  0  0  0  0  0  0  0  0  0  0  0
   -2.2634   -0.9477    1.5462 C   0  0  0  0  0  0  0  0  0  0  0  0
   -1.6647   -1.8416    1.8118 H   0  0  0  0  0  0  0  0  0  0  0  0
   -1.9381   -0.0913    2.1652 H   0  0  0  0  0  0  0  0  0  0  0  0
   -2.3149    0.7306   -0.2595 C   0  0  0  0  0  0  0  0  0  0  0  0
   -3.6090    1.1560   -0.5728 C   0  0  0  0  0  0  0  0  0  0  0  0
   -4.4424    0.4409   -0.5869 H   0  0  0  0  0  0  0  0  0  0  0  0
   -3.8501    2.5031   -0.9005 C   0  0  0  0  0  0  0  0  0  0  0  0
   -4.8675    2.8339   -1.1530 H   0  0  0  0  0  0  0  0  0  0  0  0
   -2.7744    3.4026   -0.9248 C   0  0  0  0  0  0  0  0  0  0  0  0
   -2.9435    4.4523   -1.2106 H   0  0  0  0  0  0  0  0  0  0  0  0
   -1.4721    2.9858   -0.6183 C   0  0  0  0  0  0  0  0  0  0  0  0
   -0.6449    3.6980   -0.7119 H   0  0  0  0  0  0  0  0  0  0  0  0
   -1.2143    1.6337   -0.2683 C   0  0  0  0  0  0  0  0  0  0  0  0
    1.2143    1.6337    0.2683 C   0  0  0  0  0  0  0  0  0  0  0  0
    1.4721    2.9858    0.6183 C   0  0  0  0  0  0  0  0  0  0  0  0
    0.6448    3.6980    0.7119 H   0  0  0  0  0  0  0  0  0  0  0  0
    2.7743    3.4026    0.9248 C   0  0  0  0  0  0  0  0  0  0  0  0
    2.9434    4.4523    1.2106 H   0  0  0  0  0  0  0  0  0  0  0  0
    3.8500    2.5031    0.9006 C   0  0  0  0  0  0  0  0  0  0  0  0
    4.8675    2.8340    1.1530 H   0  0  0  0  0  0  0  0  0  0  0  0
    3.6090    1.1560    0.5729 C   0  0  0  0  0  0  0  0  0  0  0  0
    4.4424    0.4410    0.5869 H   0  0  0  0  0  0  0  0  0  0  0  0
    2.3148    0.7307    0.2595 C   0  0  0  0  0  0  0  0  0  0  0  0
    2.2634   -0.9477   -1.5462 C   0  0  0  0  0  0  0  0  0  0  0  0
    1.6648   -1.8416   -1.8118 H   0  0  0  0  0  0  0  0  0  0  0  0
    1.9382   -0.0913   -2.1652 H   0  0  0  0  0  0  0  0  0  0  0  0
    3.7601   -1.2602   -1.5915 C   0  0  0  0  0  0  0  0  0  0  0  0
    4.3477   -0.3224   -1.6504 H   0  0  0  0  0  0  0  0  0  0  0  0
    4.0192   -1.8687   -2.4794 H   0  0  0  0  0  0  0  0  0  0  0  0
    4.0184   -1.9996   -0.2575 C   0  0  0  0  0  0  0  0  0  0  0  0
    4.9800   -1.6925    0.2003 H   0  0  0  0  0  0  0  0  0  0  0  0
    4.0741   -3.0945   -0.4165 H   0  0  0  0  0  0  0  0  0  0  0  0
    2.8020   -1.6689    0.6462 C   0  0  0  0  0  0  0  0  0  0  0  0
    3.0644   -1.2513    1.6347 H   0  0  0  0  0  0  0  0  0  0  0  0
    2.1652   -2.5594    0.7897 H   0  0  0  0  0  0  0  0  0  0  0  0
  1 13  1  0  0  0  0
  2 26  1  0  0  0  0
  3 35  1  0  0  0  0
  3 45  1  0  0  0  0
  4  1  1  0  0  0  0
  4  7  1  0  0  0  0
  5  4  1  0  0  0  0
  6  4  1  0  0  0  0
  7  8  1  0  0  0  0
  7 10  1  0  0  0  0
  9  7  1  0  0  0  0
 10 11  1  0  0  0  0
 10 12  1  0  0  0  0
 13 10  1  0  0  0  0
 13 14  1  0  0  0  0
 13 15  1  0  0  0  0
 16  1  1  0  0  0  0
 17 16  2  0  0  0  0
 18 17  1  0  0  0  0
 19 17  1  0  0  0  0
 20 19  1  0  0  0  0
 21 19  2  0  0  0  0
 21 23  1  0  0  0  0
 22 21  1  0  0  0  0
 23 25  2  0  0  0  0
 24 23  1  0  0  0  0
 25 16  1  0  0  0  0
 25  2  1  0  0  0  0
 26 27  1  0  0  0  0
 27 28  1  0  0  0  0
 27 29  2  0  0  0  0
 29 30  1  0  0  0  0
 31 29  1  0  0  0  0
 31 32  1  0  0  0  0
 33 34  1  0  0  0  0
 33 31  2  0  0  0  0
 35 26  2  0  0  0  0
 35 33  1  0  0  0  0
 36  3  1  0  0  0  0
 37 36  1  0  0  0  0
 38 36  1  0  0  0  0
 39 36  1  0  0  0  0
 39 42  1  0  0  0  0
 40 39  1  0  0  0  0
 41 39  1  0  0  0  0
 42 43  1  0  0  0  0
 42 45  1  0  0  0  0
 44 42  1  0  0  0  0
 45 47  1  0  0  0  0
 45 46  1  0  0  0  0
M  END
