1,2,19
 OpenBabel05122313063D

 34 37  0  0  1  0  0  0  0  0999 V2000
    0.1122    1.5689    0.7105 N   0  0  0  0  0  2  0  0  0  0  0  0
    1.4640    0.0000   -1.1655 N   0  0  0  0  0  0  0  0  0  0  0  0
    1.5426    0.0000   -2.1950 H   0  0  0  0  0  0  0  0  0  0  0  0
   -0.5524    2.2315    1.6542 C   0  0  0  0  0  0  0  0  0  0  0  0
   -1.5786    1.8790    1.8566 H   0  0  0  0  0  0  0  0  0  0  0  0
    0.0064    3.3401    2.3376 C   0  0  0  0  0  0  0  0  0  0  0  0
   -0.5834    3.8467    3.1142 H   0  0  0  0  0  0  0  0  0  0  0  0
    1.2735    3.7800    1.9894 C   0  0  0  0  0  0  0  0  0  0  0  0
    1.7226    4.6578    2.4785 H   0  0  0  0  0  0  0  0  0  0  0  0
    2.0038    3.0998    0.9724 C   0  0  0  0  0  0  0  0  0  0  0  0
    3.2859    3.5148    0.5132 C   0  0  0  0  0  0  0  0  0  0  0  0
    3.7569    4.3971    0.9714 H   0  0  0  0  0  0  0  0  0  0  0  0
    3.9182    2.8284   -0.5127 C   0  0  0  0  0  0  0  0  0  0  0  0
    4.8960    3.1655   -0.8853 H   0  0  0  0  0  0  0  0  0  0  0  0
    3.3184    1.6782   -1.0877 C   0  0  0  0  0  0  0  0  0  0  0  0
    3.8455    1.1425   -1.8903 H   0  0  0  0  0  0  0  0  0  0  0  0
    2.0829    1.2301   -0.6406 C   0  0  0  0  0  0  0  0  0  0  0  0
    1.3829    1.9539    0.3692 C   0  0  2  0  0  3  0  0  0  0  0  0
    0.1122   -1.5689    0.7106 N   0  0  0  0  0  2  0  0  0  0  0  0
   -0.5523   -2.2315    1.6542 C   0  0  0  0  0  0  0  0  0  0  0  0
   -1.5785   -1.8790    1.8566 H   0  0  0  0  0  0  0  0  0  0  0  0
    0.0064   -3.3401    2.3377 C   0  0  0  0  0  0  0  0  0  0  0  0
   -0.5834   -3.8467    3.1142 H   0  0  0  0  0  0  0  0  0  0  0  0
    1.2735   -3.7800    1.9894 C   0  0  0  0  0  0  0  0  0  0  0  0
    1.7226   -4.6578    2.4786 H   0  0  0  0  0  0  0  0  0  0  0  0
    2.0039   -3.0998    0.9724 C   0  0  0  0  0  0  0  0  0  0  0  0
    3.2859   -3.5148    0.5132 C   0  0  0  0  0  0  0  0  0  0  0  0
    3.7569   -4.3971    0.9714 H   0  0  0  0  0  0  0  0  0  0  0  0
    3.9182   -2.8284   -0.5127 C   0  0  0  0  0  0  0  0  0  0  0  0
    4.8960   -3.1655   -0.8854 H   0  0  0  0  0  0  0  0  0  0  0  0
    3.3184   -1.6782   -1.0877 C   0  0  0  0  0  0  0  0  0  0  0  0
    3.8455   -1.1425   -1.8903 H   0  0  0  0  0  0  0  0  0  0  0  0
    2.0829   -1.2301   -0.6406 C   0  0  0  0  0  0  0  0  0  0  0  0
    1.3830   -1.9539    0.3692 C   0  0  1  0  0  3  0  0  0  0  0  0
  1  4  1  0  0  0  0
  2 33  1  0  0  0  0
  2 17  1  0  0  0  0
  3  2  1  0  0  0  0
  4  5  1  0  0  0  0
  4  6  2  0  0  0  0
  6  7  1  0  0  0  0
  8  6  1  0  0  0  0
  8  9  1  0  0  0  0
 10  8  2  0  0  0  0
 11 12  1  0  0  0  0
 11 10  1  0  0  0  0
 13 11  2  0  0  0  0
 14 13  1  0  0  0  0
 15 17  2  0  0  0  0
 15 13  1  0  0  0  0
 16 15  1  0  0  0  0
 18 17  1  6  0  0  0
 18  1  1  0  0  0  0
 18 10  1  0  0  0  0
 19 20  1  0  0  0  0
 20 21  1  0  0  0  0
 20 22  2  0  0  0  0
 22 23  1  0  0  0  0
 24 22  1  0  0  0  0
 24 25  1  0  0  0  0
 26 24  2  0  0  0  0
 27 28  1  0  0  0  0
 27 26  1  0  0  0  0
 29 27  2  0  0  0  0
 30 29  1  0  0  0  0
 31 33  2  0  0  0  0
 31 29  1  0  0  0  0
 32 31  1  0  0  0  0
 34 33  1  6  0  0  0
 34 19  1  0  0  0  0
 34 26  1  0  0  0  0
M  END
