1,2,3
 OpenBabel05122313063D

 79 84  0  0  0  0  0  0  0  0999 V2000
    4.9938   -2.0049   -0.1326 N   0  0  0  0  0  2  0  0  0  0  0  0
    3.3637    0.0000    0.0000 N   0  0  0  0  0  2  0  0  0  0  0  0
    4.9938    2.0049    0.1326 N   0  0  0  0  0  2  0  0  0  0  0  0
    5.9388   -2.9662   -0.1943 C   0  0  0  0  0  3  0  0  0  0  0  0
    5.5980   -4.3207   -0.2812 C   0  0  0  0  0  0  0  0  0  0  0  0
    4.2444   -4.6845   -0.3043 C   0  0  0  0  0  0  0  0  0  0  0  0
    3.2650   -3.6835   -0.2407 C   0  0  0  0  0  0  0  0  0  0  0  0
    3.6519   -2.3397   -0.1548 C   0  0  0  0  0  0  0  0  0  0  0  0
    2.7183   -1.1962   -0.0835 C   0  0  0  0  0  0  0  0  0  0  0  0
    1.3207   -1.2137   -0.0847 C   0  0  0  0  0  0  0  0  0  0  0  0
    0.5881    0.0000    0.0000 C   0  0  0  0  0  0  0  0  0  0  0  0
    1.3207    1.2137    0.0848 C   0  0  0  0  0  0  0  0  0  0  0  0
    2.7183    1.1962    0.0836 C   0  0  0  0  0  0  0  0  0  0  0  0
    3.6519    2.3397    0.1548 C   0  0  0  0  0  0  0  0  0  0  0  0
    3.2650    3.6835    0.2407 C   0  0  0  0  0  0  0  0  0  0  0  0
    4.2444    4.6845    0.3043 C   0  0  0  0  0  0  0  0  0  0  0  0
    5.5980    4.3208    0.2811 C   0  0  0  0  0  0  0  0  0  0  0  0
    5.9388    2.9662    0.1943 C   0  0  0  0  0  0  0  0  0  0  0  0
   -0.8862    0.0000    0.0001 C   0  0  0  0  0  0  0  0  0  0  0  0
   -1.6125   -1.0141   -0.6717 C   0  0  0  0  0  0  0  0  0  0  0  0
   -3.0095   -1.0139   -0.6600 C   0  0  0  0  0  0  0  0  0  0  0  0
   -3.7448    0.0000    0.0001 C   0  0  0  0  0  0  0  0  0  0  0  0
   -3.0095    1.0139    0.6602 C   0  0  0  0  0  0  0  0  0  0  0  0
   -1.6125    1.0141    0.6718 C   0  0  0  0  0  0  0  0  0  0  0  0
   -6.0734   -1.3804    0.0310 C   0  0  0  0  0  0  0  0  0  0  0  0
   -5.7376   -2.3848    0.9879 C   0  0  0  0  0  0  0  0  0  0  0  0
   -6.4251   -3.6114    0.9874 C   0  0  0  0  0  0  0  0  0  0  0  0
   -7.4274   -3.9034    0.0467 C   0  0  0  0  0  0  0  0  0  0  0  0
   -7.7494   -2.9099   -0.8975 C   0  0  0  0  0  0  0  0  0  0  0  0
   -7.1144   -1.6576   -0.9112 C   0  0  0  0  0  0  0  0  0  0  0  0
   -4.6900   -2.1593    2.0585 C   0  0  0  0  0  0  0  0  0  0  0  0
   -8.1477   -5.2262    0.0467 C   0  0  0  0  0  0  0  0  0  0  0  0
   -7.5568   -0.6401   -1.9393 C   0  0  0  0  0  0  0  0  0  0  0  0
   -6.0734    1.3804   -0.0309 C   0  0  0  0  0  0  0  0  0  0  0  0
   -7.1144    1.6576    0.9113 C   0  0  0  0  0  0  0  0  0  0  0  0
   -7.7496    2.9098    0.8973 C   0  0  0  0  0  0  0  0  0  0  0  0
   -7.4276    3.9033   -0.0469 C   0  0  0  0  0  0  0  0  0  0  0  0
   -6.4252    3.6114   -0.9875 C   0  0  0  0  0  0  0  0  0  0  0  0
   -5.7376    2.3848   -0.9878 C   0  0  0  0  0  0  0  0  0  0  0  0
   -7.5569    0.6400    1.9392 C   0  0  0  0  0  0  0  0  0  0  0  0
   -8.1478    5.2261   -0.0468 C   0  0  0  0  0  0  0  0  0  0  0  0
   -4.6899    2.1593   -2.0584 C   0  0  0  0  0  0  0  0  0  0  0  0
   -5.3283    0.0000    0.0001 B   0  0  0  0  0  0  0  0  0  0  0  0
    6.9784   -2.6022   -0.1708 H   0  0  0  0  0  0  0  0  0  0  0  0
    6.3960   -5.0747   -0.3295 H   0  0  0  0  0  0  0  0  0  0  0  0
    3.9491   -5.7416   -0.3715 H   0  0  0  0  0  0  0  0  0  0  0  0
    2.1978   -3.9432   -0.2572 H   0  0  0  0  0  0  0  0  0  0  0  0
    0.7843   -2.1706   -0.1229 H   0  0  0  0  0  0  0  0  0  0  0  0
    0.7843    2.1706    0.1230 H   0  0  0  0  0  0  0  0  0  0  0  0
    2.1978    3.9432    0.2572 H   0  0  0  0  0  0  0  0  0  0  0  0
    3.9492    5.7416    0.3715 H   0  0  0  0  0  0  0  0  0  0  0  0
    6.3960    5.0747    0.3294 H   0  0  0  0  0  0  0  0  0  0  0  0
    6.9784    2.6023    0.1708 H   0  0  0  0  0  0  0  0  0  0  0  0
   -1.0773   -1.7935   -1.2356 H   0  0  0  0  0  0  0  0  0  0  0  0
   -3.5574   -1.8144   -1.1816 H   0  0  0  0  0  0  0  0  0  0  0  0
   -3.5574    1.8145    1.1818 H   0  0  0  0  0  0  0  0  0  0  0  0
   -1.0773    1.7935    1.2357 H   0  0  0  0  0  0  0  0  0  0  0  0
   -6.1758   -4.3643    1.7533 H   0  0  0  0  0  0  0  0  0  0  0  0
   -8.5343   -3.1151   -1.6440 H   0  0  0  0  0  0  0  0  0  0  0  0
   -3.6636   -2.3296    1.6720 H   0  0  0  0  0  0  0  0  0  0  0  0
   -4.8411   -2.8518    2.9092 H   0  0  0  0  0  0  0  0  0  0  0  0
   -4.7065   -1.1268    2.4599 H   0  0  0  0  0  0  0  0  0  0  0  0
   -8.0071   -5.7585   -0.9172 H   0  0  0  0  0  0  0  0  0  0  0  0
   -9.2414   -5.0866    0.1741 H   0  0  0  0  0  0  0  0  0  0  0  0
   -7.7918   -5.8893    0.8582 H   0  0  0  0  0  0  0  0  0  0  0  0
   -8.0883    0.2092   -1.4640 H   0  0  0  0  0  0  0  0  0  0  0  0
   -8.2410   -1.0973   -2.6792 H   0  0  0  0  0  0  0  0  0  0  0  0
   -6.7051   -0.1995   -2.4949 H   0  0  0  0  0  0  0  0  0  0  0  0
   -8.5346    3.1150    1.6438 H   0  0  0  0  0  0  0  0  0  0  0  0
   -6.1760    4.3642   -1.7534 H   0  0  0  0  0  0  0  0  0  0  0  0
   -8.0889   -0.2089    1.4639 H   0  0  0  0  0  0  0  0  0  0  0  0
   -8.2408    1.0974    2.6794 H   0  0  0  0  0  0  0  0  0  0  0  0
   -6.7052    0.1990    2.4945 H   0  0  0  0  0  0  0  0  0  0  0  0
   -9.2418    5.0866   -0.1720 H   0  0  0  0  0  0  0  0  0  0  0  0
   -7.7934    5.8885   -0.8596 H   0  0  0  0  0  0  0  0  0  0  0  0
   -8.0054    5.7594    0.9163 H   0  0  0  0  0  0  0  0  0  0  0  0
   -3.6636    2.3297   -1.6719 H   0  0  0  0  0  0  0  0  0  0  0  0
   -4.8411    2.8517   -2.9092 H   0  0  0  0  0  0  0  0  0  0  0  0
   -4.7064    1.1267   -2.4598 H   0  0  0  0  0  0  0  0  0  0  0  0
  2 13  1  0  0  0  0
  3 14  1  0  0  0  0
  3 18  1  0  0  0  0
  4 44  1  0  0  0  0
  4  1  1  0  0  0  0
  5  4  1  0  0  0  0
  6  5  2  0  0  0  0
  6  7  1  0  0  0  0
  7  8  2  0  0  0  0
  8  1  1  0  0  0  0
  8  9  1  0  0  0  0
  9  2  1  0  0  0  0
 10  9  2  0  0  0  0
 10 11  1  0  0  0  0
 11 19  1  0  0  0  0
 11 12  2  0  0  0  0
 12 49  1  0  0  0  0
 13 12  1  0  0  0  0
 13 14  2  0  0  0  0
 14 15  1  0  0  0  0
 15 50  1  0  0  0  0
 15 16  2  0  0  0  0
 16 51  1  0  0  0  0
 17 16  1  0  0  0  0
 17 52  1  0  0  0  0
 18 17  2  0  0  0  0
 19 24  1  0  0  0  0
 20 21  1  0  0  0  0
 20 19  2  0  0  0  0
 21 22  2  0  0  0  0
 22 43  1  0  0  0  0
 22 23  1  0  0  0  0
 23 24  2  0  0  0  0
 23 56  1  0  0  0  0
 24 57  1  0  0  0  0
 25 26  1  0  0  0  0
 26 31  1  0  0  0  0
 27 26  2  0  0  0  0
 27 58  1  0  0  0  0
 28 27  1  0  0  0  0
 29 28  2  0  0  0  0
 30 29  1  0  0  0  0
 30 25  2  0  0  0  0
 31 62  1  0  0  0  0
 31 61  1  0  0  0  0
 32 28  1  0  0  0  0
 32 64  1  0  0  0  0
 32 65  1  0  0  0  0
 33 66  1  0  0  0  0
 33 30  1  0  0  0  0
 34 43  1  0  0  0  0
 34 35  1  0  0  0  0
 35 40  1  0  0  0  0
 36 35  2  0  0  0  0
 36 69  1  0  0  0  0
 37 41  1  0  0  0  0
 37 36  1  0  0  0  0
 38 37  2  0  0  0  0
 39 38  1  0  0  0  0
 39 34  2  0  0  0  0
 40 73  1  0  0  0  0
 40 72  1  0  0  0  0
 41 76  1  0  0  0  0
 42 77  1  0  0  0  0
 42 39  1  0  0  0  0
 43 25  1  0  0  0  0
 45  5  1  0  0  0  0
 46  6  1  0  0  0  0
 47  7  1  0  0  0  0
 48 10  1  0  0  0  0
 53 18  1  0  0  0  0
 54 20  1  0  0  0  0
 55 21  1  0  0  0  0
 59 29  1  0  0  0  0
 60 31  1  0  0  0  0
 63 32  1  0  0  0  0
 67 33  1  0  0  0  0
 68 33  1  0  0  0  0
 70 38  1  0  0  0  0
 71 40  1  0  0  0  0
 74 41  1  0  0  0  0
 75 41  1  0  0  0  0
 78 42  1  0  0  0  0
 79 42  1  0  0  0  0
M  END
