29,33,34
 OpenBabel05122313063D

 35 37  0  0  1  0  0  0  0  0999 V2000
    1.1351    1.3258    0.0004 C   0  0  0  0  0  0  0  0  0  0  0  0
   -1.1352    1.3258    0.0002 C   0  0  0  0  0  0  0  0  0  0  0  0
    3.6195    0.7205   -0.0006 C   0  0  2  0  0  3  0  0  0  0  0  0
   -0.0001    3.3502    0.0005 C   0  0  0  0  0  0  0  0  0  0  0  0
    3.1825   -1.5041   -0.0009 C   0  0  0  0  0  0  0  0  0  0  0  0
   -3.6195    0.7204   -0.0008 C   0  0  2  0  0  3  0  0  0  0  0  0
   -4.2250   -0.5388   -0.0010 C   0  0  0  0  0  0  0  0  0  0  0  0
   -5.3019   -0.7357   -0.0013 H   0  0  0  0  0  0  0  0  0  0  0  0
    3.2362   -2.9938   -0.0011 C   0  0  0  0  0  0  0  0  0  0  0  0
    2.7002   -3.3943   -0.8857 H   0  0  0  0  0  0  0  0  0  0  0  0
    2.7098   -3.3944    0.8891 H   0  0  0  0  0  0  0  0  0  0  0  0
    4.2796   -3.3563   -0.0066 H   0  0  0  0  0  0  0  0  0  0  0  0
   -3.1824   -1.5042   -0.0005 C   0  0  0  0  0  0  0  0  0  0  0  0
    4.2050    2.0888   -0.0008 C   0  0  0  0  0  0  0  0  0  0  0  0
    3.8685    2.6686   -0.8827 H   0  0  0  0  0  0  0  0  0  0  0  0
    5.3081    2.0204    0.0001 H   0  0  0  0  0  0  0  0  0  0  0  0
    3.8671    2.6695    0.8801 H   0  0  0  0  0  0  0  0  0  0  0  0
    4.2250   -0.5387   -0.0011 C   0  0  0  0  0  0  0  0  0  0  0  0
    5.3019   -0.7355   -0.0016 H   0  0  0  0  0  0  0  0  0  0  0  0
   -3.2362   -2.9939   -0.0004 C   0  0  0  0  0  0  0  0  0  0  0  0
   -2.7028   -3.3945   -0.8865 H   0  0  0  0  0  0  0  0  0  0  0  0
   -4.2795   -3.3565   -0.0026 H   0  0  0  0  0  0  0  0  0  0  0  0
   -2.7068   -3.3942    0.8883 H   0  0  0  0  0  0  0  0  0  0  0  0
   -4.2051    2.0887   -0.0013 C   0  0  0  0  0  0  0  0  0  0  0  0
   -3.8674    2.6688   -0.8826 H   0  0  0  0  0  0  0  0  0  0  0  0
   -3.8684    2.6691    0.8802 H   0  0  0  0  0  0  0  0  0  0  0  0
   -5.3082    2.0203   -0.0020 H   0  0  0  0  0  0  0  0  0  0  0  0
   -0.0001    4.5662    0.0013 O   0  0  0  0  0  0  0  0  0  0  0  0
   -0.0000    0.5770    0.0011 N   0  0  0  0  0  0  0  0  0  0  0  0
    1.2279    2.6165   -0.0000 N   0  0  0  0  0  2  0  0  0  0  0  0
   -1.2280    2.6165   -0.0003 N   0  0  0  0  0  0  0  0  0  0  0  0
   -2.2672    0.4748   -0.0002 N   0  0  0  0  0  0  0  0  0  0  0  0
   -2.0019   -0.8649   -0.0001 N   0  0  0  0  0  2  0  0  0  0  0  0
    2.0019   -0.8648   -0.0003 N   0  0  0  0  0  2  0  0  0  0  0  0
    2.2672    0.4748   -0.0000 N   0  0  0  0  0  0  0  0  0  0  0  0
  1 29  2  0  0  0  0
  2 29  1  0  0  0  0
  3 14  1  6  0  0  0
  3 35  1  0  0  0  0
  4 28  2  0  0  0  0
  5 34  1  0  0  0  0
  6 24  1  6  0  0  0
  6 32  1  0  0  0  0
  7  6  1  0  0  0  0
  7 13  2  0  0  0  0
  8  7  1  0  0  0  0
  9  5  1  0  0  0  0
  9 11  1  0  0  0  0
 10  9  1  0  0  0  0
 12  9  1  0  0  0  0
 13 20  1  0  0  0  0
 13 33  1  0  0  0  0
 14 16  1  0  0  0  0
 14 17  1  0  0  0  0
 15 14  1  0  0  0  0
 18  5  2  0  0  0  0
 18  3  1  0  0  0  0
 19 18  1  0  0  0  0
 20 23  1  0  0  0  0
 21 20  1  0  0  0  0
 22 20  1  0  0  0  0
 24 26  1  0  0  0  0
 25 24  1  0  0  0  0
 27 24  1  0  0  0  0
 30  1  1  0  0  0  0
 30  4  1  0  0  0  0
 31  2  2  0  0  0  0
 31  4  1  0  0  0  0
 32 33  1  0  0  0  0
 32  2  1  0  0  0  0
 34 35  1  0  0  0  0
 35  1  1  0  0  0  0
M  END
