1,2,3
 OpenBabel05122313063D

 35 36  0  0  0  0  0  0  0  0999 V2000
   -2.3905    0.3841   -0.3221 N   0  0  0  0  0  2  0  0  0  0  0  0
   -0.6930   -1.4492   -1.4176 N   0  0  0  0  0  2  0  0  0  0  0  0
    2.0798   -1.0770   -0.6732 N   0  0  0  0  0  0  0  0  0  0  0  0
   -3.1982    1.3338    0.1565 C   0  0  0  0  0  3  0  0  0  0  0  0
   -2.6978    2.1758    0.6659 H   0  0  0  0  0  0  0  0  0  0  0  0
   -4.5970    1.2698    0.0124 C   0  0  0  0  0  0  0  0  0  0  0  0
   -5.2302    2.0696    0.4226 H   0  0  0  0  0  0  0  0  0  0  0  0
   -5.1539    0.1707   -0.6553 C   0  0  0  0  0  0  0  0  0  0  0  0
   -6.2436    0.0846   -0.7810 H   0  0  0  0  0  0  0  0  0  0  0  0
   -4.3008   -0.8194   -1.1651 C   0  0  0  0  0  0  0  0  0  0  0  0
   -4.6973   -1.6942   -1.7022 H   0  0  0  0  0  0  0  0  0  0  0  0
   -2.9138   -0.6707   -0.9820 C   0  0  0  0  0  0  0  0  0  0  0  0
   -1.9525   -1.6600   -1.5134 C   0  0  0  0  0  3  0  0  0  0  0  0
   -2.3715   -2.5763   -1.9880 H   0  0  0  0  0  0  0  0  0  0  0  0
    0.3054   -2.3743   -1.8938 C   0  0  0  0  0  0  0  0  0  0  0  0
    0.6337   -2.0253   -2.8984 H   0  0  0  0  0  0  0  0  0  0  0  0
   -0.0919   -3.4068   -2.0256 H   0  0  0  0  0  0  0  0  0  0  0  0
    1.5047   -2.4034   -0.9353 C   0  0  0  0  0  0  0  0  0  0  0  0
    1.1647   -2.8086    0.0406 H   0  0  0  0  0  0  0  0  0  0  0  0
    2.2758   -3.0981   -1.3521 H   0  0  0  0  0  0  0  0  0  0  0  0
    3.0434   -1.1619    0.4488 C   0  0  0  0  0  0  0  0  0  0  0  0
    3.8583   -1.8826    0.1790 H   0  0  0  0  0  0  0  0  0  0  0  0
    2.4954   -1.5746    1.3208 H   0  0  0  0  0  0  0  0  0  0  0  0
    3.6473    0.1992    0.7843 C   0  0  0  0  0  0  0  0  0  0  0  0
    4.3630    0.0738    1.6225 H   0  0  0  0  0  0  0  0  0  0  0  0
    2.8440    0.8774    1.1471 H   0  0  0  0  0  0  0  0  0  0  0  0
    4.3252    0.8205   -0.4402 C   0  0  0  0  0  0  0  0  0  0  0  0
    4.7016    1.8373   -0.2066 H   0  0  0  0  0  0  0  0  0  0  0  0
    5.2110    0.2077   -0.7250 H   0  0  0  0  0  0  0  0  0  0  0  0
    3.3344    0.8741   -1.6061 C   0  0  0  0  0  0  0  0  0  0  0  0
    3.8267    1.2264   -2.5362 H   0  0  0  0  0  0  0  0  0  0  0  0
    2.5263    1.5994   -1.3692 H   0  0  0  0  0  0  0  0  0  0  0  0
    2.7122   -0.4956   -1.8757 C   0  0  0  0  0  0  0  0  0  0  0  0
    1.9459   -0.4040   -2.6719 H   0  0  0  0  0  0  0  0  0  0  0  0
    3.4949   -1.2050   -2.2541 H   0  0  0  0  0  0  0  0  0  0  0  0
  1  4  1  0  0  0  0
  3 21  1  0  0  0  0
  4  5  1  0  0  0  0
  6  4  1  0  0  0  0
  6  7  1  0  0  0  0
  8  6  2  0  0  0  0
  9  8  1  0  0  0  0
 10 12  2  0  0  0  0
 10  8  1  0  0  0  0
 11 10  1  0  0  0  0
 12  1  1  0  0  0  0
 13  2  1  0  0  0  0
 13 12  1  0  0  0  0
 14 13  1  0  0  0  0
 15  2  1  0  0  0  0
 15 18  1  0  0  0  0
 16 15  1  0  0  0  0
 17 15  1  0  0  0  0
 18  3  1  0  0  0  0
 18 19  1  0  0  0  0
 20 18  1  0  0  0  0
 21 24  1  0  0  0  0
 21 23  1  0  0  0  0
 22 21  1  0  0  0  0
 24 26  1  0  0  0  0
 24 25  1  0  0  0  0
 27 28  1  0  0  0  0
 27 24  1  0  0  0  0
 29 27  1  0  0  0  0
 30 32  1  0  0  0  0
 30 27  1  0  0  0  0
 31 30  1  0  0  0  0
 33 30  1  0  0  0  0
 33  3  1  0  0  0  0
 34 33  1  0  0  0  0
 35 33  1  0  0  0  0
M  END
