2,3,4
 OpenBabel05122313063D

 61 63  0  0  0  0  0  0  0  0999 V2000
    0.3715    4.7182   -0.6383 O   0  0  0  0  0  0  0  0  0  0  0  0
   -1.7584    1.9308   -0.6742 N   0  0  0  0  0  2  0  0  0  0  0  0
    0.6525    2.4180   -0.2511 N   0  0  0  0  0  2  0  0  0  0  0  0
   -1.7442   -0.5017   -0.2637 N   0  0  0  0  0  2  0  0  0  0  0  0
   -0.6233   -2.4419   -2.0696 C   0  0  0  0  0  0  0  0  0  0  0  0
   -0.3596   -1.3632   -2.0566 H   0  0  0  0  0  0  0  0  0  0  0  0
    3.6504    1.3579    1.6218 C   0  0  0  0  0  0  0  0  0  0  0  0
    4.3403    1.2656    0.7682 H   0  0  0  0  0  0  0  0  0  0  0  0
    2.4173    2.0109    1.4414 C   0  0  0  0  0  0  0  0  0  0  0  0
   -1.4955    3.2300   -0.8587 C   0  0  0  0  0  0  0  0  0  0  0  0
   -2.9526   -0.0486   -0.5825 C   0  0  0  0  0  0  0  0  0  0  0  0
   -0.9827   -2.8012   -0.6359 C   0  0  0  0  0  0  0  0  0  0  0  0
   -1.5839   -1.8388    0.2129 C   0  0  0  0  0  0  0  0  0  0  0  0
   -2.9831    1.3858   -0.8679 C   0  0  0  0  0  0  0  0  0  0  0  0
   -4.0521    2.2127   -1.2697 C   0  0  0  0  0  0  0  0  0  0  0  0
   -5.0559    1.7944   -1.4274 H   0  0  0  0  0  0  0  0  0  0  0  0
    2.0532    2.6057    0.0990 C   0  0  0  0  0  0  0  0  0  0  0  0
    2.2501    3.7007    0.0972 H   0  0  0  0  0  0  0  0  0  0  0  0
    2.7040    2.1601   -0.6833 H   0  0  0  0  0  0  0  0  0  0  0  0
   -0.0522    3.5580   -0.5753 C   0  0  0  0  0  0  0  0  0  0  0  0
    1.5294    2.0916    2.5319 C   0  0  0  0  0  0  0  0  0  0  0  0
    0.5599    2.5949    2.3960 H   0  0  0  0  0  0  0  0  0  0  0  0
   -2.5091    4.1109   -1.2582 C   0  0  0  0  0  0  0  0  0  0  0  0
   -2.2654    5.1736   -1.3961 H   0  0  0  0  0  0  0  0  0  0  0  0
   -1.9541   -2.1323    1.5556 C   0  0  0  0  0  0  0  0  0  0  0  0
   -3.7994    3.5830   -1.4616 C   0  0  0  0  0  0  0  0  0  0  0  0
   -4.6200    4.2457   -1.7749 H   0  0  0  0  0  0  0  0  0  0  0  0
   -0.7541   -4.0859   -0.1126 C   0  0  0  0  0  0  0  0  0  0  0  0
   -0.2830   -4.8488   -0.7483 H   0  0  0  0  0  0  0  0  0  0  0  0
    1.8578    1.5152    3.7669 C   0  0  0  0  0  0  0  0  0  0  0  0
    1.1481    1.5797    4.6067 H   0  0  0  0  0  0  0  0  0  0  0  0
   -1.6946   -3.4321    2.0274 C   0  0  0  0  0  0  0  0  0  0  0  0
   -1.9584   -3.6931    3.0617 H   0  0  0  0  0  0  0  0  0  0  0  0
   -4.1988   -0.8752   -0.6400 C   0  0  0  0  0  0  0  0  0  0  0  0
   -3.9869   -1.9426   -0.4509 H   0  0  0  0  0  0  0  0  0  0  0  0
   -4.6794   -0.7736   -1.6355 H   0  0  0  0  0  0  0  0  0  0  0  0
   -4.9400   -0.5243    0.1093 H   0  0  0  0  0  0  0  0  0  0  0  0
   -3.3368   -1.6284    3.6551 C   0  0  0  0  0  0  0  0  0  0  0  0
   -4.1028   -2.3639    3.3366 H   0  0  0  0  0  0  0  0  0  0  0  0
   -3.8503   -0.8098    4.1979 H   0  0  0  0  0  0  0  0  0  0  0  0
   -2.6668   -2.1282    4.3845 H   0  0  0  0  0  0  0  0  0  0  0  0
   -1.4868   -0.0592    2.9384 C   0  0  0  0  0  0  0  0  0  0  0  0
   -0.9425    0.3912    2.0819 H   0  0  0  0  0  0  0  0  0  0  0  0
   -0.7356   -0.5560    3.5855 H   0  0  0  0  0  0  0  0  0  0  0  0
   -1.9477    0.7657    3.5192 H   0  0  0  0  0  0  0  0  0  0  0  0
   -1.1017   -4.3999    1.2059 C   0  0  0  0  0  0  0  0  0  0  0  0
   -0.9076   -5.4086    1.6010 H   0  0  0  0  0  0  0  0  0  0  0  0
   -1.8327   -2.6127   -3.0078 C   0  0  0  0  0  0  0  0  0  0  0  0
   -2.6983   -1.9995   -2.6895 H   0  0  0  0  0  0  0  0  0  0  0  0
   -2.1640   -3.6717   -3.0359 H   0  0  0  0  0  0  0  0  0  0  0  0
   -1.5677   -2.3102   -4.0416 H   0  0  0  0  0  0  0  0  0  0  0  0
   -2.5563   -1.0600    2.4640 C   0  0  0  0  0  0  0  0  0  0  0  0
   -3.2839   -0.4818    1.8562 H   0  0  0  0  0  0  0  0  0  0  0  0
    3.0866    0.8546    3.9334 C   0  0  0  0  0  0  0  0  0  0  0  0
    3.3425    0.3945    4.9002 H   0  0  0  0  0  0  0  0  0  0  0  0
    3.9848    0.7845    2.8568 C   0  0  0  0  0  0  0  0  0  0  0  0
    4.9457    0.2600    2.9727 H   0  0  0  0  0  0  0  0  0  0  0  0
    0.5932   -3.2067   -2.6025 C   0  0  0  0  0  0  0  0  0  0  0  0
    1.4394   -3.1646   -1.8908 H   0  0  0  0  0  0  0  0  0  0  0  0
    0.9361   -2.7563   -3.5552 H   0  0  0  0  0  0  0  0  0  0  0  0
    0.3564   -4.2724   -2.8048 H   0  0  0  0  0  0  0  0  0  0  0  0
  1 20  2  0  0  0  0
  3 17  1  0  0  0  0
  4 13  1  0  0  0  0
  5  6  1  0  0  0  0
  5 12  1  0  0  0  0
  7 56  1  0  0  0  0
  8  7  1  0  0  0  0
  9  7  2  0  0  0  0
  9 21  1  0  0  0  0
 10  2  1  0  0  0  0
 10 20  1  0  0  0  0
 11  4  1  0  0  0  0
 12 28  2  0  0  0  0
 12 13  1  0  0  0  0
 13 25  2  0  0  0  0
 14  2  1  0  0  0  0
 14 11  2  0  0  0  0
 15 14  1  0  0  0  0
 16 15  1  0  0  0  0
 17  9  1  0  0  0  0
 18 17  1  0  0  0  0
 19 17  1  0  0  0  0
 20  3  1  0  0  0  0
 21 30  2  0  0  0  0
 22 21  1  0  0  0  0
 23 10  2  0  0  0  0
 24 23  1  0  0  0  0
 25 32  1  0  0  0  0
 25 52  1  0  0  0  0
 26 15  2  0  0  0  0
 26 23  1  0  0  0  0
 27 26  1  0  0  0  0
 28 46  1  0  0  0  0
 29 28  1  0  0  0  0
 30 54  1  0  0  0  0
 30 31  1  0  0  0  0
 32 33  1  0  0  0  0
 34 11  1  0  0  0  0
 34 35  1  0  0  0  0
 34 37  1  0  0  0  0
 36 34  1  0  0  0  0
 38 40  1  0  0  0  0
 38 41  1  0  0  0  0
 39 38  1  0  0  0  0
 42 45  1  0  0  0  0
 42 44  1  0  0  0  0
 43 42  1  0  0  0  0
 46 47  1  0  0  0  0
 46 32  2  0  0  0  0
 48 49  1  0  0  0  0
 48  5  1  0  0  0  0
 50 48  1  0  0  0  0
 51 48  1  0  0  0  0
 52 42  1  0  0  0  0
 52 38  1  0  0  0  0
 53 52  1  0  0  0  0
 54 55  1  0  0  0  0
 56 57  1  0  0  0  0
 56 54  2  0  0  0  0
 58  5  1  0  0  0  0
 58 59  1  0  0  0  0
 60 58  1  0  0  0  0
 61 58  1  0  0  0  0
M  END
