3,4,5
 OpenBabel05122313063D

 61 67  0  0  1  0  0  0  0  0999 V2000
   -3.4362    2.8249    0.7022 O   0  0  0  0  0  0  0  0  0  0  0  0
    3.5501    2.7649   -0.5154 O   0  0  0  0  0  0  0  0  0  0  0  0
    0.0542    2.6150    0.0831 N   0  0  0  0  0  2  0  0  0  0  0  0
   -1.9696    1.0244    0.4139 N   0  0  0  0  0  2  0  0  0  0  0  0
    2.0300    0.9939   -0.3444 N   0  0  0  0  0  2  0  0  0  0  0  0
   -2.3143    2.3551    0.5027 C   0  0  0  0  0  0  0  0  0  0  0  0
   -1.1053    3.2529    0.3261 C   0  0  2  0  0  3  0  0  0  0  0  0
   -1.1163    4.6519    0.3827 C   0  0  0  0  0  0  0  0  0  0  0  0
   -2.0747    5.1550    0.5758 H   0  0  0  0  0  0  0  0  0  0  0  0
    0.0947    5.3413    0.1901 C   0  0  0  0  0  0  0  0  0  0  0  0
    0.1109    6.4409    0.2326 H   0  0  0  0  0  0  0  0  0  0  0  0
    1.2853    4.6335   -0.0552 C   0  0  0  0  0  0  0  0  0  0  0  0
    2.2589    5.1211   -0.2078 H   0  0  0  0  0  0  0  0  0  0  0  0
    1.2330    3.2352   -0.1065 C   0  0  0  0  0  0  0  0  0  0  0  0
    2.4147    2.3164   -0.3459 C   0  0  0  0  0  0  0  0  0  0  0  0
   -2.9341    0.0036    0.4454 C   0  0  0  0  0  0  0  0  0  0  0  0
   -3.8680   -0.1516   -0.6217 C   0  0  0  0  0  0  0  0  0  0  0  0
   -3.9113    0.7474   -1.7336 C   0  0  0  0  0  0  0  0  0  0  0  0
   -3.1972    1.5800   -1.7689 H   0  0  0  0  0  0  0  0  0  0  0  0
   -4.8320    0.5809   -2.7511 C   0  0  0  0  0  0  0  0  0  0  0  0
   -4.8482    1.2867   -3.5953 H   0  0  0  0  0  0  0  0  0  0  0  0
   -5.7635   -0.4996   -2.7182 C   0  0  0  0  0  0  0  0  0  0  0  0
   -6.4957   -0.6138   -3.5319 H   0  0  0  0  0  0  0  0  0  0  0  0
   -5.7388   -1.4024   -1.6740 C   0  0  0  0  0  0  0  0  0  0  0  0
   -6.4453   -2.2467   -1.6450 H   0  0  0  0  0  0  0  0  0  0  0  0
   -4.7935   -1.2704   -0.6042 C   0  0  0  0  0  0  0  0  0  0  0  0
   -4.7304   -2.2131    0.4396 C   0  0  0  0  0  0  0  0  0  0  0  0
   -5.4234   -3.0694    0.4346 H   0  0  0  0  0  0  0  0  0  0  0  0
   -3.7984   -2.0857    1.4863 C   0  0  0  0  0  0  0  0  0  0  0  0
   -3.7060   -3.0568    2.5386 C   0  0  0  0  0  0  0  0  0  0  0  0
   -4.3911   -3.9190    2.5148 H   0  0  0  0  0  0  0  0  0  0  0  0
   -2.7878   -2.9161    3.5629 C   0  0  0  0  0  0  0  0  0  0  0  0
   -2.7322   -3.6696    4.3635 H   0  0  0  0  0  0  0  0  0  0  0  0
   -1.9221   -1.7801    3.5977 C   0  0  0  0  0  0  0  0  0  0  0  0
   -1.2077   -1.6647    4.4268 H   0  0  0  0  0  0  0  0  0  0  0  0
   -1.9846   -0.8218    2.6023 C   0  0  0  0  0  0  0  0  0  0  0  0
   -1.3212    0.0546    2.6236 H   0  0  0  0  0  0  0  0  0  0  0  0
   -2.9010   -0.9454    1.5096 C   0  0  0  0  0  0  0  0  0  0  0  0
    2.9608   -0.0506   -0.4750 C   0  0  0  0  0  0  0  0  0  0  0  0
    2.8866   -0.8999   -1.6175 C   0  0  0  0  0  0  0  0  0  0  0  0
    1.9476   -0.6680   -2.6720 C   0  0  0  0  0  0  0  0  0  0  0  0
    1.2853    0.2062   -2.5949 H   0  0  0  0  0  0  0  0  0  0  0  0
    1.8708   -1.5179   -3.7604 C   0  0  0  0  0  0  0  0  0  0  0  0
    1.1412   -1.3198   -4.5603 H   0  0  0  0  0  0  0  0  0  0  0  0
    2.7382   -2.6470   -3.8595 C   0  0  0  0  0  0  0  0  0  0  0  0
    2.6687   -3.3137   -4.7326 H   0  0  0  0  0  0  0  0  0  0  0  0
    3.6690   -2.8949   -2.8689 C   0  0  0  0  0  0  0  0  0  0  0  0
    4.3503   -3.7572   -2.9430 H   0  0  0  0  0  0  0  0  0  0  0  0
    3.7781   -2.0393   -1.7237 C   0  0  0  0  0  0  0  0  0  0  0  0
    4.7268   -2.2736   -0.7106 C   0  0  0  0  0  0  0  0  0  0  0  0
    5.4131   -3.1305   -0.8024 H   0  0  0  0  0  0  0  0  0  0  0  0
    4.8165   -1.4390    0.4194 C   0  0  0  0  0  0  0  0  0  0  0  0
    5.7760   -1.6826    1.4566 C   0  0  0  0  0  0  0  0  0  0  0  0
    6.4695   -2.5298    1.3372 H   0  0  0  0  0  0  0  0  0  0  0  0
    5.8303   -0.8815    2.5798 C   0  0  0  0  0  0  0  0  0  0  0  0
    6.5731   -1.0811    3.3671 H   0  0  0  0  0  0  0  0  0  0  0  0
    4.9167    0.2049    2.7278 C   0  0  0  0  0  0  0  0  0  0  0  0
    4.9574    0.8294    3.6332 H   0  0  0  0  0  0  0  0  0  0  0  0
    3.9838    0.4783    1.7452 C   0  0  0  0  0  0  0  0  0  0  0  0
    3.2825    1.3140    1.8682 H   0  0  0  0  0  0  0  0  0  0  0  0
    3.9079   -0.3149    0.5571 C   0  0  0  0  0  0  0  0  0  0  0  0
  2 15  2  0  0  0  0
  3  7  1  0  0  0  0
  4 16  1  0  0  0  0
  4  6  1  0  0  0  0
  6  1  2  0  0  0  0
  7  8  1  0  0  0  0
  7  6  1  6  0  0  0
  8  9  1  0  0  0  0
 10 11  1  0  0  0  0
 10  8  2  0  0  0  0
 12 10  1  0  0  0  0
 13 12  1  0  0  0  0
 14 12  2  0  0  0  0
 14  3  1  0  0  0  0
 15  5  1  0  0  0  0
 15 14  1  0  0  0  0
 16 38  1  0  0  0  0
 17 26  1  0  0  0  0
 17 16  2  0  0  0  0
 18 17  1  0  0  0  0
 19 18  1  0  0  0  0
 20 22  1  0  0  0  0
 20 18  2  0  0  0  0
 21 20  1  0  0  0  0
 22 24  2  0  0  0  0
 23 22  1  0  0  0  0
 24 25  1  0  0  0  0
 24 26  1  0  0  0  0
 26 27  2  0  0  0  0
 27 29  1  0  0  0  0
 28 27  1  0  0  0  0
 29 38  2  0  0  0  0
 29 30  1  0  0  0  0
 30 32  2  0  0  0  0
 31 30  1  0  0  0  0
 32 34  1  0  0  0  0
 32 33  1  0  0  0  0
 34 35  1  0  0  0  0
 36 37  1  0  0  0  0
 36 34  2  0  0  0  0
 38 36  1  0  0  0  0
 39  5  1  0  0  0  0
 39 61  1  0  0  0  0
 40 39  2  0  0  0  0
 41 42  1  0  0  0  0
 41 40  1  0  0  0  0
 43 41  2  0  0  0  0
 44 43  1  0  0  0  0
 45 43  1  0  0  0  0
 45 47  2  0  0  0  0
 46 45  1  0  0  0  0
 47 49  1  0  0  0  0
 48 47  1  0  0  0  0
 49 40  1  0  0  0  0
 49 50  2  0  0  0  0
 50 52  1  0  0  0  0
 51 50  1  0  0  0  0
 52 61  2  0  0  0  0
 52 53  1  0  0  0  0
 53 55  2  0  0  0  0
 54 53  1  0  0  0  0
 55 57  1  0  0  0  0
 55 56  1  0  0  0  0
 57 58  1  0  0  0  0
 59 60  1  0  0  0  0
 59 57  2  0  0  0  0
 61 59  1  0  0  0  0
M  END
