3,4,5
 OpenBabel05122313063D

 43 45  0  0  1  0  0  0  0  0999 V2000
    3.4290    2.6162    0.0139 O   0  0  0  0  0  0  0  0  0  0  0  0
   -3.6426    2.3926    0.0551 O   0  0  0  0  0  0  0  0  0  0  0  0
   -0.1026    2.3125   -0.0992 N   0  0  0  0  0  2  0  0  0  0  0  0
    1.9859    0.7718   -0.1054 N   0  0  0  0  0  2  0  0  0  0  0  0
   -2.0872    0.6377   -0.0605 N   0  0  0  0  0  2  0  0  0  0  0  0
    2.3036    2.1121   -0.0452 C   0  0  0  0  0  0  0  0  0  0  0  0
    1.0649    2.9795   -0.0751 C   0  0  2  0  0  3  0  0  0  0  0  0
    1.0515    4.3798   -0.0473 C   0  0  0  0  0  0  0  0  0  0  0  0
    2.0166    4.9059   -0.0281 H   0  0  0  0  0  0  0  0  0  0  0  0
   -0.1910    5.0386   -0.0342 C   0  0  0  0  0  0  0  0  0  0  0  0
   -0.2268    6.1385   -0.0150 H   0  0  0  0  0  0  0  0  0  0  0  0
   -1.3878    4.3003   -0.0290 C   0  0  0  0  0  0  0  0  0  0  0  0
   -2.3850    4.7618    0.0044 H   0  0  0  0  0  0  0  0  0  0  0  0
   -1.3103    2.9017   -0.0563 C   0  0  0  0  0  0  0  0  0  0  0  0
   -2.4888    1.9562   -0.0095 C   0  0  0  0  0  0  0  0  0  0  0  0
    3.0010   -0.2060   -0.0803 C   0  0  0  0  0  0  0  0  0  0  0  0
    2.9499   -1.2871   -0.9872 C   0  0  0  0  0  0  0  0  0  0  0  0
    2.1445   -1.3078   -1.7365 H   0  0  0  0  0  0  0  0  0  0  0  0
    3.9066   -2.3106   -0.9428 C   0  0  0  0  0  0  0  0  0  0  0  0
    3.8476   -3.1376   -1.6699 H   0  0  0  0  0  0  0  0  0  0  0  0
    4.9600   -2.2886   -0.0062 C   0  0  0  0  0  0  0  0  0  0  0  0
    5.0170   -1.1927    0.8819 C   0  0  0  0  0  0  0  0  0  0  0  0
    5.8331   -1.1417    1.6210 H   0  0  0  0  0  0  0  0  0  0  0  0
    4.0644   -0.1692    0.8521 C   0  0  0  0  0  0  0  0  0  0  0  0
    4.1368    0.6773    1.5475 H   0  0  0  0  0  0  0  0  0  0  0  0
    6.0105   -3.3701    0.0275 C   0  0  0  0  0  0  0  0  0  0  0  0
    6.9818   -3.0001   -0.3657 H   0  0  0  0  0  0  0  0  0  0  0  0
    5.7187   -4.2449   -0.5864 H   0  0  0  0  0  0  0  0  0  0  0  0
    6.2009   -3.7245    1.0616 H   0  0  0  0  0  0  0  0  0  0  0  0
   -3.0353   -0.4053   -0.0438 C   0  0  0  0  0  0  0  0  0  0  0  0
   -2.8520   -1.5237   -0.8862 C   0  0  0  0  0  0  0  0  0  0  0  0
   -1.9908   -1.5325   -1.5705 H   0  0  0  0  0  0  0  0  0  0  0  0
   -3.7513   -2.5971   -0.8650 C   0  0  0  0  0  0  0  0  0  0  0  0
   -3.5853   -3.4541   -1.5383 H   0  0  0  0  0  0  0  0  0  0  0  0
   -4.8739   -2.5961   -0.0139 C   0  0  0  0  0  0  0  0  0  0  0  0
   -5.0586   -1.4689    0.8154 C   0  0  0  0  0  0  0  0  0  0  0  0
   -5.9296   -1.4341    1.4899 H   0  0  0  0  0  0  0  0  0  0  0  0
   -4.1670   -0.3917    0.8070 C   0  0  0  0  0  0  0  0  0  0  0  0
   -4.3433    0.4794    1.4502 H   0  0  0  0  0  0  0  0  0  0  0  0
   -5.8580   -3.7386    0.0003 C   0  0  0  0  0  0  0  0  0  0  0  0
   -5.5030   -4.5922   -0.6097 H   0  0  0  0  0  0  0  0  0  0  0  0
   -6.0407   -4.1081    1.0309 H   0  0  0  0  0  0  0  0  0  0  0  0
   -6.8446   -3.4272   -0.4050 H   0  0  0  0  0  0  0  0  0  0  0  0
  3  7  1  0  0  0  0
  3 14  1  0  0  0  0
  4 16  1  0  0  0  0
  4  6  1  0  0  0  0
  5 30  1  0  0  0  0
  5 15  1  0  0  0  0
  6  1  2  0  0  0  0
  7  8  1  0  0  0  0
  7  6  1  1  0  0  0
  8 10  2  0  0  0  0
  8  9  1  0  0  0  0
 10 12  1  0  0  0  0
 10 11  1  0  0  0  0
 12 13  1  0  0  0  0
 14 12  2  0  0  0  0
 14 15  1  0  0  0  0
 15  2  2  0  0  0  0
 16 24  1  0  0  0  0
 17 19  1  0  0  0  0
 17 16  2  0  0  0  0
 18 17  1  0  0  0  0
 19 21  2  0  0  0  0
 20 19  1  0  0  0  0
 21 26  1  0  0  0  0
 21 22  1  0  0  0  0
 22 23  1  0  0  0  0
 24 22  2  0  0  0  0
 24 25  1  0  0  0  0
 26 29  1  0  0  0  0
 27 26  1  0  0  0  0
 28 26  1  0  0  0  0
 30 38  1  0  0  0  0
 31 33  1  0  0  0  0
 31 30  2  0  0  0  0
 32 31  1  0  0  0  0
 33 35  2  0  0  0  0
 34 33  1  0  0  0  0
 35 40  1  0  0  0  0
 35 36  1  0  0  0  0
 36 37  1  0  0  0  0
 38 36  2  0  0  0  0
 38 39  1  0  0  0  0
 40 42  1  0  0  0  0
 41 40  1  0  0  0  0
 43 40  1  0  0  0  0
M  END
