1,2,3
 OpenBabel05122313063D

 49 51  0  0  1  0  0  0  0  0999 V2000
   -1.4478    1.8637    0.0227 N   0  0  0  0  0  2  0  0  0  0  0  0
    0.4967    0.1104    0.4136 N   0  0  0  0  0  0  0  0  0  0  0  0
   -1.1111   -1.9736    0.2067 N   0  0  0  0  0  2  0  0  0  0  0  0
    1.2856    0.0669   -0.8694 C   0  0  0  0  0  0  0  0  0  0  0  0
    1.0433    0.9967   -1.4184 H   0  0  0  0  0  0  0  0  0  0  0  0
    0.8775   -0.7648   -1.4704 H   0  0  0  0  0  0  0  0  0  0  0  0
   -0.2003   -4.6218    0.3323 C   0  0  0  0  0  0  0  0  0  0  0  0
    0.1568   -5.6616    0.3621 H   0  0  0  0  0  0  0  0  0  0  0  0
    3.4530    0.9483   -0.1400 N   0  0  0  0  0  0  0  0  0  0  0  0
    2.7795   -0.0817   -0.6905 C   0  0  0  0  0  0  0  0  0  0  0  0
    0.8141   -1.0564    1.2838 C   0  0  0  0  0  0  0  0  0  0  0  0
    0.3526   -0.8435    2.2707 H   0  0  0  0  0  0  0  0  0  0  0  0
    1.9073   -1.2071    1.4069 H   0  0  0  0  0  0  0  0  0  0  0  0
   -0.0310    3.7891    0.3799 C   0  0  0  0  0  0  0  0  0  0  0  0
    0.9373    4.1866    0.7162 H   0  0  0  0  0  0  0  0  0  0  0  0
    0.6507    1.4264    1.1036 C   0  0  0  0  0  0  0  0  0  0  0  0
    1.7084    1.7599    1.0867 H   0  0  0  0  0  0  0  0  0  0  0  0
    0.3022    1.2789    2.1469 H   0  0  0  0  0  0  0  0  0  0  0  0
   -0.2781    2.4178    0.4565 C   0  0  1  0  0  3  0  0  0  0  0  0
   -1.9352   -2.9892   -0.1791 C   0  0  1  0  0  3  0  0  0  0  0  0
    0.1214   -2.2666    0.7192 C   0  0  0  0  0  0  0  0  0  0  0  0
   -2.4539    2.6699   -0.4179 C   0  0  0  0  0  0  0  0  0  0  0  0
    3.4246   -1.2692   -1.0929 C   0  0  0  0  0  0  0  0  0  0  0  0
    2.8387   -2.0909   -1.5310 H   0  0  0  0  0  0  0  0  0  0  0  0
    4.7854    0.8539    0.0374 C   0  0  0  0  0  0  0  0  0  0  0  0
    0.6185   -3.5684    0.7759 C   0  0  0  0  0  0  0  0  0  0  0  0
    1.6264   -3.7501    1.1764 H   0  0  0  0  0  0  0  0  0  0  0  0
   -2.2629    4.0605   -0.4968 C   0  0  0  0  0  0  0  0  0  0  0  0
   -3.0888    4.6889   -0.8606 H   0  0  0  0  0  0  0  0  0  0  0  0
   -1.0414    4.6298   -0.1166 C   0  0  0  0  0  0  0  0  0  0  0  0
   -0.8813    5.7153   -0.1920 H   0  0  0  0  0  0  0  0  0  0  0  0
   -1.4888   -4.3217   -0.1268 C   0  0  0  0  0  0  0  0  0  0  0  0
   -2.1715   -5.1210   -0.4497 H   0  0  0  0  0  0  0  0  0  0  0  0
   -3.3136   -2.6017   -0.6157 C   0  0  0  0  0  0  0  0  0  0  0  0
   -3.7820   -1.9762    0.1743 H   0  0  0  0  0  0  0  0  0  0  0  0
   -3.9481   -3.4882   -0.8006 H   0  0  0  0  0  0  0  0  0  0  0  0
   -3.2501   -1.9797   -1.5338 H   0  0  0  0  0  0  0  0  0  0  0  0
   -3.7435    1.9956   -0.7704 C   0  0  0  0  0  0  0  0  0  0  0  0
   -3.5825    1.3155   -1.6337 H   0  0  0  0  0  0  0  0  0  0  0  0
   -4.5358    2.7287   -1.0101 H   0  0  0  0  0  0  0  0  0  0  0  0
   -4.0721    1.3707    0.0876 H   0  0  0  0  0  0  0  0  0  0  0  0
    5.4645    2.0404    0.6701 C   0  0  0  0  0  0  0  0  0  0  0  0
    5.2191    2.9644    0.1091 H   0  0  0  0  0  0  0  0  0  0  0  0
    6.5636    1.9222    0.7066 H   0  0  0  0  0  0  0  0  0  0  0  0
    5.0919    2.1892    1.7049 H   0  0  0  0  0  0  0  0  0  0  0  0
    4.8107   -1.3705   -0.9230 C   0  0  0  0  0  0  0  0  0  0  0  0
    5.3478   -2.2796   -1.2342 H   0  0  0  0  0  0  0  0  0  0  0  0
    5.5044   -0.2959   -0.3509 C   0  0  0  0  0  0  0  0  0  0  0  0
    6.5938   -0.3410   -0.2042 H   0  0  0  0  0  0  0  0  0  0  0  0
  1 19  1  0  0  0  0
  2 16  1  0  0  0  0
  2 11  1  0  0  0  0
  3 21  1  0  0  0  0
  4 10  1  0  0  0  0
  4  2  1  0  0  0  0
  5  4  1  0  0  0  0
  6  4  1  0  0  0  0
  7  8  1  0  0  0  0
  7 26  1  0  0  0  0
  9 25  1  0  0  0  0
 10  9  2  0  0  0  0
 11 13  1  0  0  0  0
 11 12  1  0  0  0  0
 14 19  1  0  0  0  0
 14 15  1  0  0  0  0
 16 18  1  0  0  0  0
 17 16  1  0  0  0  0
 19 16  1  1  0  0  0
 20 34  1  1  0  0  0
 20 32  1  0  0  0  0
 20  3  1  0  0  0  0
 21 26  2  0  0  0  0
 21 11  1  0  0  0  0
 22  1  1  0  0  0  0
 23 46  2  0  0  0  0
 23 10  1  0  0  0  0
 24 23  1  0  0  0  0
 25 42  1  0  0  0  0
 26 27  1  0  0  0  0
 28 22  2  0  0  0  0
 28 30  1  0  0  0  0
 29 28  1  0  0  0  0
 30 14  2  0  0  0  0
 31 30  1  0  0  0  0
 32  7  2  0  0  0  0
 33 32  1  0  0  0  0
 34 35  1  0  0  0  0
 36 34  1  0  0  0  0
 37 34  1  0  0  0  0
 38 22  1  0  0  0  0
 38 41  1  0  0  0  0
 39 38  1  0  0  0  0
 40 38  1  0  0  0  0
 42 44  1  0  0  0  0
 42 45  1  0  0  0  0
 43 42  1  0  0  0  0
 46 48  1  0  0  0  0
 47 46  1  0  0  0  0
 48 49  1  0  0  0  0
 48 25  2  0  0  0  0
M  END
