1,2,3
 OpenBabel05122313063D

 21 20  0  0  0  0  0  0  0  0999 V2000
   -0.8448    2.0270    0.0057 N   0  0  0  0  0  2  0  0  0  0  0  0
    0.0810   -0.9868    1.6786 N   0  0  0  0  0  2  0  0  0  0  0  0
   -1.5788   -0.5270   -0.4894 N   0  0  0  0  0  2  0  0  0  0  0  0
   -0.3038    3.1831    0.0706 C   0  0  0  0  0  3  0  0  0  0  0  0
    0.8471   -1.0691    2.6930 C   0  0  0  0  0  3  0  0  0  0  0  0
   -1.0389   -1.8877    1.4461 C   0  0  0  0  0  0  0  0  0  0  0  0
   -2.1218   -1.0726    0.7413 C   0  0  0  0  0  0  0  0  0  0  0  0
   -2.3953    0.5336   -1.0593 C   0  0  0  0  0  0  0  0  0  0  0  0
   -2.2767    1.8275   -0.2365 C   0  0  0  0  0  0  0  0  0  0  0  0
   -0.8971    4.1124   -0.0615 H   0  0  0  0  0  0  0  0  0  0  0  0
    0.7869    3.2225    0.2594 H   0  0  0  0  0  0  0  0  0  0  0  0
    1.6797   -0.3451    2.7779 H   0  0  0  0  0  0  0  0  0  0  0  0
    0.7176   -1.8395    3.4864 H   0  0  0  0  0  0  0  0  0  0  0  0
   -1.4072   -2.3712    2.3790 H   0  0  0  0  0  0  0  0  0  0  0  0
   -0.6946   -2.6813    0.7457 H   0  0  0  0  0  0  0  0  0  0  0  0
   -2.9843   -1.7356    0.4883 H   0  0  0  0  0  0  0  0  0  0  0  0
   -2.5223   -0.3132    1.4665 H   0  0  0  0  0  0  0  0  0  0  0  0
   -3.4655    0.2235   -1.1173 H   0  0  0  0  0  0  0  0  0  0  0  0
   -2.0532    0.7288   -2.0984 H   0  0  0  0  0  0  0  0  0  0  0  0
   -2.7489    2.7155   -0.7139 H   0  0  0  0  0  0  0  0  0  0  0  0
   -2.7572    1.6843    0.7558 H   0  0  0  0  0  0  0  0  0  0  0  0
  1  4  1  0  0  0  0
  2  5  1  0  0  0  0
  3  7  1  0  0  0  0
  4 11  1  0  0  0  0
  5 12  1  0  0  0  0
  5 13  1  0  0  0  0
  6  2  1  0  0  0  0
  6 14  1  0  0  0  0
  7  6  1  0  0  0  0
  7 17  1  0  0  0  0
  8  3  1  0  0  0  0
  8  9  1  0  0  0  0
  9  1  1  0  0  0  0
  9 21  1  0  0  0  0
 10  4  1  0  0  0  0
 15  6  1  0  0  0  0
 16  7  1  0  0  0  0
 18  8  1  0  0  0  0
 19  8  1  0  0  0  0
 20  9  1  0  0  0  0
M  END
