3,4,6
 OpenBabel05122313063D

 23 24  0  0  1  0  0  0  0  0999 V2000
    1.0390    1.0323   -3.7497 O   0  0  0  0  0  0  0  0  0  0  0  0
   -1.0363   -1.0384   -3.7487 O   0  0  0  0  0  0  0  0  0  0  0  0
    0.0003   -0.0012   -1.9109 N   0  0  0  0  0  2  0  0  0  0  0  0
    1.3594    1.3587   -0.2057 N   0  0  0  0  0  2  0  0  0  0  0  0
    2.5547    2.5520   -1.8826 N   0  0  0  0  0  0  0  0  0  0  0  0
   -1.3594   -1.3588   -0.2044 N   0  0  0  0  0  2  0  0  0  0  0  0
   -2.5541   -2.5543   -1.8801 N   0  0  0  0  0  0  0  0  0  0  0  0
    0.8750    0.8712   -2.5571 C   0  0  0  0  0  0  0  0  0  0  0  0
    1.6546    1.6523   -1.5037 C   0  0  1  0  0  3  0  0  0  0  0  0
    2.0180    2.0185    0.7715 C   0  0  0  0  0  0  0  0  0  0  0  0
    1.7637    1.7654    1.8115 H   0  0  0  0  0  0  0  0  0  0  0  0
    2.9791    2.9793    0.4447 C   0  0  0  0  0  0  0  0  0  0  0  0
    3.5205    3.5217    1.2325 H   0  0  0  0  0  0  0  0  0  0  0  0
    3.2155    3.2142   -0.9212 C   0  0  0  0  0  0  0  0  0  0  0  0
    3.9602    3.9587   -1.2521 H   0  0  0  0  0  0  0  0  0  0  0  0
   -0.8735   -0.8750   -2.5563 C   0  0  0  0  0  0  0  0  0  0  0  0
   -1.6540   -1.6543   -1.5021 C   0  0  2  0  0  3  0  0  0  0  0  0
   -2.0186   -2.0170    0.7735 C   0  0  0  0  0  0  0  0  0  0  0  0
   -1.7646   -1.7624    1.8132 H   0  0  0  0  0  0  0  0  0  0  0  0
   -2.9797   -2.9780    0.4476 C   0  0  0  0  0  0  0  0  0  0  0  0
   -3.5217   -3.5191    1.2360 H   0  0  0  0  0  0  0  0  0  0  0  0
   -3.2156   -3.2148   -0.9180 C   0  0  0  0  0  0  0  0  0  0  0  0
   -3.9604   -3.9596   -1.2482 H   0  0  0  0  0  0  0  0  0  0  0  0
  1  8  2  0  0  0  0
  2 16  2  0  0  0  0
  4 10  1  0  0  0  0
  5  9  1  0  0  0  0
  5 14  2  0  0  0  0
  6 18  1  0  0  0  0
  7 17  1  0  0  0  0
  7 22  2  0  0  0  0
  8  3  1  0  0  0  0
  9  8  1  1  0  0  0
  9  4  1  0  0  0  0
 10 11  1  0  0  0  0
 12 10  2  0  0  0  0
 12 13  1  0  0  0  0
 14 12  1  0  0  0  0
 15 14  1  0  0  0  0
 16  3  1  0  0  0  0
 17 16  1  1  0  0  0
 17  6  1  0  0  0  0
 18 19  1  0  0  0  0
 20 18  2  0  0  0  0
 20 21  1  0  0  0  0
 22 20  1  0  0  0  0
 23 22  1  0  0  0  0
M  END
