1,2,3
 OpenBabel05122313063D

 40 41  0  0  1  0  0  0  0  0999 V2000
   -1.1144    1.2852   -1.0371 N   0  0  0  0  0  0  0  0  0  0  0  0
   -0.6967   -1.6121   -0.0244 N   0  0  0  0  0  2  0  0  0  0  0  0
    1.7874    0.0390   -0.2533 N   0  0  0  0  0  2  0  0  0  0  0  0
   -1.7422    2.5709   -0.5313 C   0  0  0  0  0  0  0  0  0  0  0  0
   -2.2154    3.5621   -1.5893 C   0  0  0  0  0  0  0  0  0  0  0  0
   -2.1864    0.4429   -1.6735 C   0  0  0  0  0  0  0  0  0  0  0  0
   -2.8246   -0.6341   -0.7938 C   0  0  0  0  0  0  0  0  0  0  0  0
   -0.0630    1.5850   -2.0501 C   0  0  0  0  0  0  0  0  0  0  0  0
    0.7470    0.3511   -2.4701 C   0  0  0  0  0  0  0  0  0  0  0  0
   -1.9247   -1.8208   -0.5763 C   0  0  1  0  0  3  0  0  0  0  0  0
   -2.3094   -3.1095   -0.9816 C   0  0  0  0  0  0  0  0  0  0  0  0
   -1.4262   -4.1863   -0.8350 C   0  0  0  0  0  0  0  0  0  0  0  0
   -0.1629   -3.9478   -0.2797 C   0  0  0  0  0  0  0  0  0  0  0  0
    0.1627   -2.6521    0.1248 C   0  0  0  0  0  0  0  0  0  0  0  0
    1.9449    0.0864   -1.6033 C   0  0  1  0  0  3  0  0  0  0  0  0
    3.2178   -0.0475   -2.1833 C   0  0  0  0  0  0  0  0  0  0  0  0
    4.3476   -0.2059   -1.3742 C   0  0  0  0  0  0  0  0  0  0  0  0
    4.1752   -0.1991    0.0148 C   0  0  0  0  0  0  0  0  0  0  0  0
    2.8879   -0.0680    0.5363 C   0  0  0  0  0  0  0  0  0  0  0  0
   -0.9914    3.0422    0.1317 H   0  0  0  0  0  0  0  0  0  0  0  0
   -2.5918    2.2600    0.1093 H   0  0  0  0  0  0  0  0  0  0  0  0
   -1.3788    4.0126   -2.1569 H   0  0  0  0  0  0  0  0  0  0  0  0
   -2.7282    4.3928   -1.0660 H   0  0  0  0  0  0  0  0  0  0  0  0
   -2.9437    3.1420   -2.3127 H   0  0  0  0  0  0  0  0  0  0  0  0
   -1.7705   -0.0509   -2.5713 H   0  0  0  0  0  0  0  0  0  0  0  0
   -2.9776    1.1251   -2.0413 H   0  0  0  0  0  0  0  0  0  0  0  0
   -3.1748   -0.2105    0.1696 H   0  0  0  0  0  0  0  0  0  0  0  0
   -3.7402   -0.9820   -1.3099 H   0  0  0  0  0  0  0  0  0  0  0  0
    0.6003    2.3590   -1.6151 H   0  0  0  0  0  0  0  0  0  0  0  0
   -0.5507    2.0207   -2.9465 H   0  0  0  0  0  0  0  0  0  0  0  0
    0.1011   -0.5525   -2.5040 H   0  0  0  0  0  0  0  0  0  0  0  0
    1.1009    0.4992   -3.5075 H   0  0  0  0  0  0  0  0  0  0  0  0
   -3.3088   -3.2557   -1.4154 H   0  0  0  0  0  0  0  0  0  0  0  0
   -1.7227   -5.1975   -1.1507 H   0  0  0  0  0  0  0  0  0  0  0  0
    0.5689   -4.7554   -0.1394 H   0  0  0  0  0  0  0  0  0  0  0  0
    1.1140   -2.4227    0.6226 H   0  0  0  0  0  0  0  0  0  0  0  0
    3.3088   -0.0098   -3.2781 H   0  0  0  0  0  0  0  0  0  0  0  0
    5.3469   -0.3100   -1.8224 H   0  0  0  0  0  0  0  0  0  0  0  0
    5.0253   -0.2863    0.7054 H   0  0  0  0  0  0  0  0  0  0  0  0
    2.7002   -0.0634    1.6192 H   0  0  0  0  0  0  0  0  0  0  0  0
  1  4  1  0  0  0  0
  2 14  1  0  0  0  0
  3 19  1  0  0  0  0
  4 21  1  0  0  0  0
  4 20  1  0  0  0  0
  5 23  1  0  0  0  0
  5  4  1  0  0  0  0
  6  1  1  0  0  0  0
  6  7  1  0  0  0  0
  7 27  1  0  0  0  0
  8 29  1  0  0  0  0
  8  1  1  0  0  0  0
  9  8  1  0  0  0  0
 10  7  1  6  0  0  0
 10  2  1  0  0  0  0
 11 12  2  0  0  0  0
 11 10  1  0  0  0  0
 12 13  1  0  0  0  0
 13 35  1  0  0  0  0
 13 14  2  0  0  0  0
 14 36  1  0  0  0  0
 15  9  1  1  0  0  0
 15  3  1  0  0  0  0
 16 15  1  0  0  0  0
 16 17  2  0  0  0  0
 17 18  1  0  0  0  0
 18 19  2  0  0  0  0
 18 39  1  0  0  0  0
 19 40  1  0  0  0  0
 22  5  1  0  0  0  0
 24  5  1  0  0  0  0
 25  6  1  0  0  0  0
 26  6  1  0  0  0  0
 28  7  1  0  0  0  0
 30  8  1  0  0  0  0
 31  9  1  0  0  0  0
 32  9  1  0  0  0  0
 33 11  1  0  0  0  0
 34 12  1  0  0  0  0
 37 16  1  0  0  0  0
 38 17  1  0  0  0  0
M  END
