4,5,12
 OpenBabel05122313063D

 43 46  0  0  1  0  0  0  0  0999 V2000
   -2.1954   -3.0772   -0.2613 C   0  0  0  0  0  3  0  0  0  0  0  0
   -3.2604   -2.8055   -0.1763 H   0  0  0  0  0  0  0  0  0  0  0  0
    0.8278   -0.9984   -0.2342 C   0  0  2  0  0  3  0  0  0  0  0  0
   -1.7398    1.9439    0.1917 N   0  0  0  0  0  2  0  0  0  0  0  0
   -1.3472   -2.0313   -0.2098 N   0  0  0  0  0  2  0  0  0  0  0  0
    4.8060    1.6857   -1.0613 C   0  0  0  0  0  0  0  0  0  0  0  0
    4.0987    2.3522   -1.5776 H   0  0  0  0  0  0  0  0  0  0  0  0
    4.6909   -1.3264    1.0039 O   0  0  0  0  0  0  0  0  0  0  0  0
    0.0159   -2.2269   -0.3036 C   0  0  0  0  0  0  0  0  0  0  0  0
    0.5310   -3.5236   -0.4543 C   0  0  0  0  0  0  0  0  0  0  0  0
    1.6171   -3.6703   -0.5293 H   0  0  0  0  0  0  0  0  0  0  0  0
    0.0653    0.1240   -0.0913 N   0  0  0  0  0  2  0  0  0  0  0  0
   -0.3460   -4.6131   -0.5087 C   0  0  0  0  0  0  0  0  0  0  0  0
    0.0474   -5.6333   -0.6274 H   0  0  0  0  0  0  0  0  0  0  0  0
    2.8225    0.4059   -0.2253 C   0  0  0  0  0  0  0  0  0  0  0  0
   -0.4431    2.4160    0.1567 C   0  0  2  0  0  3  0  0  0  0  0  0
    0.5914    1.3792   -0.0078 C   0  0  0  0  0  0  0  0  0  0  0  0
    6.6016   -0.0483    0.1933 C   0  0  0  0  0  0  0  0  0  0  0  0
    7.3172   -0.7186    0.6868 H   0  0  0  0  0  0  0  0  0  0  0  0
    2.2190   -0.8742   -0.2999 C   0  0  0  0  0  0  0  0  0  0  0  0
    2.8468   -1.7648   -0.4143 H   0  0  0  0  0  0  0  0  0  0  0  0
    1.9804    1.5354   -0.0745 C   0  0  0  0  0  0  0  0  0  0  0  0
    2.4242    2.5359    0.0168 H   0  0  0  0  0  0  0  0  0  0  0  0
    4.2885    0.5924   -0.3350 C   0  0  0  0  0  0  0  0  0  0  0  0
   -1.7286   -4.3864   -0.4107 C   0  0  0  0  0  0  0  0  0  0  0  0
   -2.4487   -5.2157   -0.4491 H   0  0  0  0  0  0  0  0  0  0  0  0
   -1.2652    4.6785    0.4276 C   0  0  0  0  0  0  0  0  0  0  0  0
   -1.0796    5.7585    0.5211 H   0  0  0  0  0  0  0  0  0  0  0  0
   -2.5747    4.1719    0.4600 C   0  0  0  0  0  0  0  0  0  0  0  0
   -3.4424    4.8358    0.5785 H   0  0  0  0  0  0  0  0  0  0  0  0
    5.2175   -0.2877    0.2982 C   0  0  0  0  0  0  0  0  0  0  0  0
   -2.7752    2.7938    0.3388 C   0  0  0  0  0  0  0  0  0  0  0  0
   -3.7652    2.3088    0.3536 H   0  0  0  0  0  0  0  0  0  0  0  0
   -0.1929    3.7921    0.2746 C   0  0  0  0  0  0  0  0  0  0  0  0
    0.8416    4.1609    0.2463 H   0  0  0  0  0  0  0  0  0  0  0  0
    7.0786    1.0490   -0.5395 C   0  0  0  0  0  0  0  0  0  0  0  0
    8.1639    1.2150   -0.6150 H   0  0  0  0  0  0  0  0  0  0  0  0
    6.1828    1.9205   -1.1724 C   0  0  0  0  0  0  0  0  0  0  0  0
    6.5515    2.7749   -1.7580 H   0  0  0  0  0  0  0  0  0  0  0  0
    5.5595   -2.1705    1.7391 C   0  0  0  0  0  0  0  0  0  0  0  0
    6.1434   -1.6002    2.4947 H   0  0  0  0  0  0  0  0  0  0  0  0
    4.9132   -2.9010    2.2596 H   0  0  0  0  0  0  0  0  0  0  0  0
    6.2663   -2.7175    1.0762 H   0  0  0  0  0  0  0  0  0  0  0  0
  1  5  1  0  0  0  0
  1  2  1  0  0  0  0
  3  9  1  6  0  0  0
  3 12  1  0  0  0  0
  4 32  1  0  0  0  0
  6 24  1  0  0  0  0
  7  6  1  0  0  0  0
  8 40  1  0  0  0  0
  9  5  1  0  0  0  0
 10  9  2  0  0  0  0
 11 10  1  0  0  0  0
 12 17  1  0  0  0  0
 13 10  1  0  0  0  0
 13 25  2  0  0  0  0
 14 13  1  0  0  0  0
 15 22  1  0  0  0  0
 16 17  1  1  0  0  0
 16  4  1  0  0  0  0
 16 34  1  0  0  0  0
 18 31  1  0  0  0  0
 18 19  1  0  0  0  0
 20  3  1  0  0  0  0
 20 15  2  0  0  0  0
 21 20  1  0  0  0  0
 22 17  2  0  0  0  0
 22 23  1  0  0  0  0
 24 15  1  0  0  0  0
 24 31  2  0  0  0  0
 25  1  1  0  0  0  0
 26 25  1  0  0  0  0
 27 29  1  0  0  0  0
 27 28  1  0  0  0  0
 29 30  1  0  0  0  0
 31  8  1  0  0  0  0
 32 33  1  0  0  0  0
 32 29  2  0  0  0  0
 34 27  2  0  0  0  0
 35 34  1  0  0  0  0
 36 18  2  0  0  0  0
 37 36  1  0  0  0  0
 38  6  2  0  0  0  0
 38 36  1  0  0  0  0
 39 38  1  0  0  0  0
 40 42  1  0  0  0  0
 40 41  1  0  0  0  0
 43 40  1  0  0  0  0
M  END
