1,2,3
 OpenBabel05122313063D

 82 84  0  0  1  0  0  0  0  0999 V2000
   -1.2851    0.3368    0.5115 N   0  0  0  0  0  2  0  0  0  0  0  0
    1.4343   -0.1388    0.5468 N   0  0  0  0  0  2  0  0  0  0  0  0
   -0.3556   -2.1007    0.0645 N   0  0  0  0  0  2  0  0  0  0  0  0
   -2.4661    0.9954    0.0013 C   0  0  0  0  0  0  0  0  0  0  0  0
   -3.6523    0.2201   -0.1500 C   0  0  0  0  0  0  0  0  0  0  0  0
   -4.7965    0.8660   -0.6491 C   0  0  0  0  0  0  0  0  0  0  0  0
   -4.7827    2.2251   -0.9803 C   0  0  0  0  0  0  0  0  0  0  0  0
   -3.6102    2.9674   -0.8103 C   0  0  0  0  0  0  0  0  0  0  0  0
   -2.4307    2.3754   -0.3212 C   0  0  0  0  0  0  0  0  0  0  0  0
   -3.7515   -1.2560    0.2248 C   0  0  0  0  0  0  0  0  0  0  0  0
   -4.1801   -2.1345   -0.9627 C   0  0  0  0  0  0  0  0  0  0  0  0
   -4.7018   -1.4652    1.4189 C   0  0  0  0  0  0  0  0  0  0  0  0
   -1.1888    3.2241   -0.0946 C   0  0  0  0  0  0  0  0  0  0  0  0
   -0.9530    4.2249   -1.2337 C   0  0  0  0  0  0  0  0  0  0  0  0
   -1.2509    3.9324    1.2708 C   0  0  0  0  0  0  0  0  0  0  0  0
   -1.1872    0.0676    1.7941 C   0  0  1  0  0  3  0  0  0  0  0  0
   -2.0829    0.6044    2.8657 C   0  0  0  0  0  0  0  0  0  0  0  0
   -0.1173   -0.9286    2.1819 C   0  0  2  0  0  0  0  0  0  0  0  0
    1.2807   -0.4798    1.7999 C   0  0  1  0  0  3  0  0  0  0  0  0
    2.3655   -0.6361    2.8198 C   0  0  0  0  0  0  0  0  0  0  0  0
    2.7665    0.1817    0.0862 C   0  0  0  0  0  0  0  0  0  0  0  0
    3.2976    1.4779    0.3030 C   0  0  0  0  0  0  0  0  0  0  0  0
    4.6211    1.7230   -0.1072 C   0  0  0  0  0  0  0  0  0  0  0  0
    5.3892    0.7323   -0.7288 C   0  0  0  0  0  0  0  0  0  0  0  0
    4.8366   -0.5337   -0.9503 C   0  0  0  0  0  0  0  0  0  0  0  0
    3.5243   -0.8369   -0.5448 C   0  0  0  0  0  0  0  0  0  0  0  0
    2.4885    2.6006    0.9405 C   0  0  0  0  0  0  0  0  0  0  0  0
    2.4766    3.8469    0.0418 C   0  0  0  0  0  0  0  0  0  0  0  0
    2.9934    2.9496    2.3518 C   0  0  0  0  0  0  0  0  0  0  0  0
    2.9387   -2.2146   -0.8225 C   0  0  0  0  0  0  0  0  0  0  0  0
    3.8717   -3.3589   -0.3996 C   0  0  0  0  0  0  0  0  0  0  0  0
    2.5255   -2.3360   -2.3007 C   0  0  0  0  0  0  0  0  0  0  0  0
   -0.3620   -2.2206    1.4255 C   0  0  2  0  0  3  0  0  0  0  0  0
   -0.5464   -3.4541    2.0653 C   0  0  0  0  0  0  0  0  0  0  0  0
   -0.7255   -4.6098    1.2953 C   0  0  0  0  0  0  0  0  0  0  0  0
   -0.7137   -4.4821   -0.1053 C   0  0  0  0  0  0  0  0  0  0  0  0
   -0.5315   -3.2274   -0.6839 C   0  0  0  0  0  0  0  0  0  0  0  0
   -5.7206    0.2833   -0.7821 H   0  0  0  0  0  0  0  0  0  0  0  0
   -5.6908    2.7079   -1.3722 H   0  0  0  0  0  0  0  0  0  0  0  0
   -3.6042    4.0370   -1.0637 H   0  0  0  0  0  0  0  0  0  0  0  0
   -2.7450   -1.5953    0.5281 H   0  0  0  0  0  0  0  0  0  0  0  0
   -5.2079   -1.8879   -1.3010 H   0  0  0  0  0  0  0  0  0  0  0  0
   -4.1757   -3.2036   -0.6645 H   0  0  0  0  0  0  0  0  0  0  0  0
   -3.4818   -1.9991   -1.8106 H   0  0  0  0  0  0  0  0  0  0  0  0
   -4.4264   -0.8423    2.2921 H   0  0  0  0  0  0  0  0  0  0  0  0
   -4.6955   -2.5280    1.7378 H   0  0  0  0  0  0  0  0  0  0  0  0
   -5.7461   -1.2059    1.1473 H   0  0  0  0  0  0  0  0  0  0  0  0
   -0.3251    2.5305   -0.0933 H   0  0  0  0  0  0  0  0  0  0  0  0
   -0.8938    3.6977   -2.2052 H   0  0  0  0  0  0  0  0  0  0  0  0
    0.0036    4.7598   -1.0804 H   0  0  0  0  0  0  0  0  0  0  0  0
   -1.7516    4.9935   -1.2889 H   0  0  0  0  0  0  0  0  0  0  0  0
   -2.1176    4.6244    1.3241 H   0  0  0  0  0  0  0  0  0  0  0  0
   -0.3308    4.5278    1.4445 H   0  0  0  0  0  0  0  0  0  0  0  0
   -1.3476    3.2120    2.1070 H   0  0  0  0  0  0  0  0  0  0  0  0
   -2.8583    1.2773    2.4584 H   0  0  0  0  0  0  0  0  0  0  0  0
   -1.4815    1.1615    3.6168 H   0  0  0  0  0  0  0  0  0  0  0  0
   -2.5823   -0.2242    3.4116 H   0  0  0  0  0  0  0  0  0  0  0  0
   -0.1650   -1.1242    3.2679 H   0  0  0  0  0  0  0  0  0  0  0  0
    3.3557   -0.3504    2.4237 H   0  0  0  0  0  0  0  0  0  0  0  0
    2.4080   -1.6967    3.1524 H   0  0  0  0  0  0  0  0  0  0  0  0
    2.1459   -0.0300    3.7240 H   0  0  0  0  0  0  0  0  0  0  0  0
    5.0541    2.7216    0.0554 H   0  0  0  0  0  0  0  0  0  0  0  0
    6.4200    0.9500   -1.0469 H   0  0  0  0  0  0  0  0  0  0  0  0
    5.4369   -1.3108   -1.4469 H   0  0  0  0  0  0  0  0  0  0  0  0
    1.4415    2.2467    1.0266 H   0  0  0  0  0  0  0  0  0  0  0  0
    3.4899    4.2865   -0.0608 H   0  0  0  0  0  0  0  0  0  0  0  0
    1.8223    4.6307    0.4746 H   0  0  0  0  0  0  0  0  0  0  0  0
    2.1001    3.5841   -0.9649 H   0  0  0  0  0  0  0  0  0  0  0  0
    2.9804    2.0749    3.0306 H   0  0  0  0  0  0  0  0  0  0  0  0
    2.3640    3.7431    2.8053 H   0  0  0  0  0  0  0  0  0  0  0  0
    4.0365    3.3278    2.3195 H   0  0  0  0  0  0  0  0  0  0  0  0
    2.0195   -2.3089   -0.2149 H   0  0  0  0  0  0  0  0  0  0  0  0
    3.3603   -4.3356   -0.5220 H   0  0  0  0  0  0  0  0  0  0  0  0
    4.1797   -3.2622    0.6615 H   0  0  0  0  0  0  0  0  0  0  0  0
    4.7938   -3.3937   -1.0157 H   0  0  0  0  0  0  0  0  0  0  0  0
    1.8028   -1.5462   -2.5900 H   0  0  0  0  0  0  0  0  0  0  0  0
    2.0589   -3.3231   -2.4985 H   0  0  0  0  0  0  0  0  0  0  0  0
    3.4093   -2.2369   -2.9646 H   0  0  0  0  0  0  0  0  0  0  0  0
   -0.5472   -3.4950    3.1646 H   0  0  0  0  0  0  0  0  0  0  0  0
   -0.8696   -5.5888    1.7752 H   0  0  0  0  0  0  0  0  0  0  0  0
   -0.8535   -5.3540   -0.7599 H   0  0  0  0  0  0  0  0  0  0  0  0
   -0.5564   -3.0603   -1.7703 H   0  0  0  0  0  0  0  0  0  0  0  0
  3 33  1  0  0  0  0
  4  1  1  0  0  0  0
  5  4  1  0  0  0  0
  5 10  1  0  0  0  0
  6  5  2  0  0  0  0
  7  8  2  0  0  0  0
  7  6  1  0  0  0  0
  8  9  1  0  0  0  0
  9 13  1  0  0  0  0
  9  4  2  0  0  0  0
 10 41  1  0  0  0  0
 10 12  1  0  0  0  0
 11 43  1  0  0  0  0
 11 10  1  0  0  0  0
 12 46  1  0  0  0  0
 12 45  1  0  0  0  0
 13 48  1  0  0  0  0
 13 15  1  0  0  0  0
 14 50  1  0  0  0  0
 14 13  1  0  0  0  0
 15 52  1  0  0  0  0
 15 53  1  0  0  0  0
 15 54  1  0  0  0  0
 16  1  1  6  0  0  0
 16 18  1  0  0  0  0
 16 17  1  0  0  0  0
 17 57  1  0  0  0  0
 17 56  1  0  0  0  0
 18 58  1  1  0  0  0
 19  2  1  6  0  0  0
 19 18  1  0  0  0  0
 19 20  1  0  0  0  0
 20 60  1  0  0  0  0
 20 61  1  0  0  0  0
 21 22  1  0  0  0  0
 21  2  1  0  0  0  0
 22 27  1  0  0  0  0
 23 62  1  0  0  0  0
 23 22  2  0  0  0  0
 24 23  1  0  0  0  0
 25 24  2  0  0  0  0
 25 26  1  0  0  0  0
 26 21  2  0  0  0  0
 27 65  1  0  0  0  0
 27 29  1  0  0  0  0
 28 67  1  0  0  0  0
 28 27  1  0  0  0  0
 29 70  1  0  0  0  0
 29 69  1  0  0  0  0
 30 26  1  0  0  0  0
 30 31  1  0  0  0  0
 30 72  1  0  0  0  0
 31 74  1  0  0  0  0
 32 30  1  0  0  0  0
 33 34  1  0  0  0  0
 33 18  1  6  0  0  0
 34 79  1  0  0  0  0
 35 80  1  0  0  0  0
 35 34  2  0  0  0  0
 36 35  1  0  0  0  0
 37 36  2  0  0  0  0
 37  3  1  0  0  0  0
 38  6  1  0  0  0  0
 39  7  1  0  0  0  0
 40  8  1  0  0  0  0
 42 11  1  0  0  0  0
 44 11  1  0  0  0  0
 47 12  1  0  0  0  0
 49 14  1  0  0  0  0
 51 14  1  0  0  0  0
 55 17  1  0  0  0  0
 59 20  1  0  0  0  0
 63 24  1  0  0  0  0
 64 25  1  0  0  0  0
 66 28  1  0  0  0  0
 68 28  1  0  0  0  0
 71 29  1  0  0  0  0
 73 31  1  0  0  0  0
 75 31  1  0  0  0  0
 76 32  1  0  0  0  0
 77 32  1  0  0  0  0
 78 32  1  0  0  0  0
 81 36  1  0  0  0  0
 82 37  1  0  0  0  0
M  END
