13,15,17
 OpenBabel05122313063D

 26 28  0  0  1  0  0  0  0  0999 V2000
    0.2308   -0.0002   -1.2047 B   0  0  1  0  0  0  0  0  0  0  0  0
    0.3185    0.0002   -2.4071 H   0  0  0  0  0  0  0  0  0  0  0  0
   -0.7659    2.4506   -3.3302 Br  0  0  0  0  0  0  0  0  0  0  0  0
   -2.7423    4.6578   -1.1669 Br  0  0  0  0  0  0  0  0  0  0  0  0
   -2.5580    3.1322    2.1547 Br  0  0  0  0  0  0  0  0  0  0  0  0
    3.2211   -0.0022   -2.9383 Br  0  0  0  0  0  0  0  0  0  0  0  0
    5.6678   -0.0062   -0.1700 Br  0  0  0  0  0  0  0  0  0  0  0  0
    3.5641   -0.0061    2.8964 Br  0  0  0  0  0  0  0  0  0  0  0  0
   -0.7724   -2.4471   -3.3318 Br  0  0  0  0  0  0  0  0  0  0  0  0
   -2.7549   -4.6502   -1.1696 Br  0  0  0  0  0  0  0  0  0  0  0  0
   -2.5662   -3.1266    2.1530 Br  0  0  0  0  0  0  0  0  0  0  0  0
   -0.5624    1.2558   -0.7423 N   0  0  0  0  0  0  0  0  0  0  0  0
   -0.9611    1.4189    0.5551 N   0  0  0  0  0  2  0  0  0  0  0  0
    1.6270   -0.0023   -0.5638 N   0  0  0  0  0  0  0  0  0  0  0  0
    1.7037   -0.0032    0.7891 N   0  0  0  0  0  2  0  0  0  0  0  0
   -0.5658   -1.2543   -0.7432 N   0  0  0  0  0  0  0  0  0  0  0  0
   -0.9650   -1.4170    0.5540 N   0  0  0  0  0  2  0  0  0  0  0  0
   -1.0653    2.2692   -1.5027 C   0  0  1  0  0  3  0  0  0  0  0  0
   -1.8170    3.1181   -0.6777 C   0  0  0  0  0  0  0  0  0  0  0  0
   -1.7230    2.5297    0.6048 C   0  0  0  0  0  0  0  0  0  0  0  0
    2.8794   -0.0030   -1.1049 C   0  0  1  0  0  3  0  0  0  0  0  0
    3.8070   -0.0045   -0.0513 C   0  0  0  0  0  0  0  0  0  0  0  0
    2.9993   -0.0045    1.1149 C   0  0  0  0  0  0  0  0  0  0  0  0
   -1.0714   -2.2660   -1.5041 C   0  0  2  0  0  3  0  0  0  0  0  0
   -1.8254   -3.1132   -0.6796 C   0  0  0  0  0  0  0  0  0  0  0  0
   -1.7298   -2.5258    0.6032 C   0  0  0  0  0  0  0  0  0  0  0  0
  1  2  1  6  0  0  0
  1 16  1  0  0  0  0
  1 12  1  0  0  0  0
  1 14  1  0  0  0  0
  4 19  1  0  0  0  0
  7 22  1  0  0  0  0
 10 25  1  0  0  0  0
 12 13  1  0  0  0  0
 13 20  1  0  0  0  0
 14 15  1  0  0  0  0
 15 23  1  0  0  0  0
 16 17  1  0  0  0  0
 17 26  1  0  0  0  0
 18  3  1  1  0  0  0
 18 12  1  0  0  0  0
 18 19  1  0  0  0  0
 19 20  2  0  0  0  0
 20  5  1  0  0  0  0
 21  6  1  6  0  0  0
 21 14  1  0  0  0  0
 21 22  1  0  0  0  0
 22 23  2  0  0  0  0
 23  8  1  0  0  0  0
 24  9  1  1  0  0  0
 24 16  1  0  0  0  0
 24 25  1  0  0  0  0
 25 26  2  0  0  0  0
 26 11  1  0  0  0  0
M  END
