2,3,4
 OpenBabel05122313063D

 26 27  0  0  1  0  0  0  0  0999 V2000
   -0.6179   -3.7745    0.0025 O   0  0  0  0  0  0  0  0  0  0  0  0
    2.0433    0.1955   -0.0011 N   0  0  0  0  0  2  0  0  0  0  0  0
    0.4240   -1.7001    0.0010 N   0  0  0  0  0  2  0  0  0  0  0  0
   -1.6978   -0.3631   -0.0010 N   0  0  0  0  0  2  0  0  0  0  0  0
    2.7643    1.3428   -0.0027 C   0  0  0  0  0  3  0  0  0  0  0  0
    2.1653    2.2656   -0.0045 H   0  0  0  0  0  0  0  0  0  0  0  0
    4.1596    1.3342   -0.0019 C   0  0  0  0  0  0  0  0  0  0  0  0
    4.7056    2.2880   -0.0032 H   0  0  0  0  0  0  0  0  0  0  0  0
    4.8348    0.1028    0.0005 C   0  0  0  0  0  0  0  0  0  0  0  0
    5.9343    0.0654    0.0012 H   0  0  0  0  0  0  0  0  0  0  0  0
    4.0855   -1.0797    0.0020 C   0  0  0  0  0  0  0  0  0  0  0  0
    4.5740   -2.0650    0.0038 H   0  0  0  0  0  0  0  0  0  0  0  0
    2.6855   -1.0105    0.0010 C   0  0  0  0  0  0  0  0  0  0  0  0
    1.7752   -2.2042    0.0021 C   0  0  0  0  0  0  0  0  0  0  0  0
    1.9797   -2.8532   -0.8830 H   0  0  0  0  0  0  0  0  0  0  0  0
    1.9790   -2.8512    0.8889 H   0  0  0  0  0  0  0  0  0  0  0  0
   -0.6411   -2.5376    0.0013 C   0  0  0  0  0  0  0  0  0  0  0  0
   -1.8987   -1.7122    0.0001 C   0  0  1  0  0  3  0  0  0  0  0  0
   -3.1744   -2.2775    0.0002 C   0  0  0  0  0  0  0  0  0  0  0  0
   -3.2414   -3.3754    0.0011 H   0  0  0  0  0  0  0  0  0  0  0  0
   -4.2897   -1.4285   -0.0008 C   0  0  0  0  0  0  0  0  0  0  0  0
   -5.3103   -1.8395   -0.0008 H   0  0  0  0  0  0  0  0  0  0  0  0
   -4.0774   -0.0418   -0.0018 C   0  0  0  0  0  0  0  0  0  0  0  0
   -4.9165    0.6681   -0.0025 H   0  0  0  0  0  0  0  0  0  0  0  0
   -2.7690    0.4607   -0.0019 C   0  0  0  0  0  0  0  0  0  0  0  0
   -2.5742    1.5431   -0.0024 H   0  0  0  0  0  0  0  0  0  0  0  0
  2 13  1  0  0  0  0
  3 17  1  0  0  0  0
  3 14  1  0  0  0  0
  4 18  1  0  0  0  0
  5  7  1  0  0  0  0
  5  2  1  0  0  0  0
  6  5  1  0  0  0  0
  7  9  2  0  0  0  0
  8  7  1  0  0  0  0
  9 10  1  0  0  0  0
  9 11  1  0  0  0  0
 11 12  1  0  0  0  0
 13 11  2  0  0  0  0
 13 14  1  0  0  0  0
 14 16  1  0  0  0  0
 15 14  1  0  0  0  0
 17  1  2  0  0  0  0
 18 19  1  0  0  0  0
 18 17  1  1  0  0  0
 19 20  1  0  0  0  0
 21 22  1  0  0  0  0
 21 19  2  0  0  0  0
 23 21  1  0  0  0  0
 24 23  1  0  0  0  0
 25 23  2  0  0  0  0
 25  4  1  0  0  0  0
 26 25  1  0  0  0  0
M  END
