1,2,3
 OpenBabel05122313063D

 71 74  0  0  0  0  0  0  0  0999 V2000
    1.5408   -0.5220   -0.5031 N   0  0  0  0  0  0  0  0  0  0  0  0
   -0.0963    1.2830    0.6162 N   0  0  0  0  0  0  0  0  0  0  0  0
   -1.2342   -0.8997   -0.4545 N   0  0  0  0  0  0  0  0  0  0  0  0
    1.9139   -1.4589   -1.4105 C   0  0  0  0  0  0  0  0  0  0  0  0
    3.2301   -1.1031   -1.9567 C   0  0  0  0  0  0  0  0  0  0  0  0
    3.5770    0.1202   -1.3959 C   0  0  0  0  0  0  0  0  0  0  0  0
    2.4629    0.5018   -0.5246 C   0  0  0  0  0  3  0  0  0  0  0  0
    2.1866    1.7851   -0.0027 C   0  0  0  0  0  3  0  0  0  0  0  0
    2.9493    2.5631   -0.1521 H   0  0  0  0  0  0  0  0  0  0  0  0
    0.8935    2.1976    0.4035 C   0  0  0  0  0  0  0  0  0  0  0  0
    0.2977    3.5319    0.2912 C   0  0  0  0  0  0  0  0  0  0  0  0
   -1.0821    3.3463    0.3164 C   0  0  0  0  0  0  0  0  0  0  0  0
   -1.2996    1.9022    0.4422 C   0  0  0  0  0  3  0  0  0  0  0  0
   -2.4478    1.1626    0.0657 C   0  0  0  0  0  3  0  0  0  0  0  0
   -3.3924    1.7117   -0.0620 H   0  0  0  0  0  0  0  0  0  0  0  0
   -2.3859   -0.1446   -0.4656 C   0  0  0  0  0  3  0  0  0  0  0  0
   -3.3651   -0.7822   -1.3489 C   0  0  0  0  0  0  0  0  0  0  0  0
   -2.7254   -1.8784   -1.9133 C   0  0  0  0  0  0  0  0  0  0  0  0
   -1.3607   -1.8933   -1.3711 C   0  0  0  0  0  0  0  0  0  0  0  0
   -0.2975   -2.7170   -1.8430 C   0  0  0  0  0  0  0  0  0  0  0  0
   -0.6408   -3.5842   -2.4308 H   0  0  0  0  0  0  0  0  0  0  0  0
    1.0929   -2.5337   -1.8595 C   0  0  0  0  0  0  0  0  0  0  0  0
    1.6369   -3.2861   -2.4536 H   0  0  0  0  0  0  0  0  0  0  0  0
    3.9757   -1.9046   -2.9758 C   0  0  0  0  0  0  0  0  0  0  0  0
    3.3780   -2.0490   -3.9002 H   0  0  0  0  0  0  0  0  0  0  0  0
    4.2278   -2.9169   -2.5945 H   0  0  0  0  0  0  0  0  0  0  0  0
    4.9231   -1.4130   -3.2676 H   0  0  0  0  0  0  0  0  0  0  0  0
    4.8270    0.9242   -1.5910 C   0  0  0  0  0  0  0  0  0  0  0  0
    4.5752    1.9242   -2.0094 H   0  0  0  0  0  0  0  0  0  0  0  0
    5.4596    0.4320   -2.3576 H   0  0  0  0  0  0  0  0  0  0  0  0
    5.6420    1.1265   -0.2904 C   0  0  0  0  0  0  0  0  0  0  0  0
    6.5893    1.6471   -0.5535 H   0  0  0  0  0  0  0  0  0  0  0  0
    5.0906    1.8184    0.3812 H   0  0  0  0  0  0  0  0  0  0  0  0
    5.9541   -0.1579    0.4885 C   0  0  0  0  0  0  0  0  0  0  0  0
    6.4933    0.1239    1.4180 H   0  0  0  0  0  0  0  0  0  0  0  0
    5.0002   -0.6186    0.8269 H   0  0  0  0  0  0  0  0  0  0  0  0
    6.7792   -1.1871   -0.2855 C   0  0  0  0  0  0  0  0  0  0  0  0
    6.2330   -1.5776   -1.1679 H   0  0  0  0  0  0  0  0  0  0  0  0
    7.0325   -2.0590    0.3503 H   0  0  0  0  0  0  0  0  0  0  0  0
    7.7336   -0.7513   -0.6507 H   0  0  0  0  0  0  0  0  0  0  0  0
    1.0600    4.8016    0.0481 C   0  0  0  0  0  0  0  0  0  0  0  0
    1.9923    4.7920    0.6528 H   0  0  0  0  0  0  0  0  0  0  0  0
    0.4636    5.6585    0.4264 H   0  0  0  0  0  0  0  0  0  0  0  0
    1.4147    5.0439   -1.4300 C   0  0  0  0  0  0  0  0  0  0  0  0
    2.0275    4.2149   -1.8382 H   0  0  0  0  0  0  0  0  0  0  0  0
    1.9860    5.9859   -1.5546 H   0  0  0  0  0  0  0  0  0  0  0  0
    0.5009    5.1124   -2.0533 H   0  0  0  0  0  0  0  0  0  0  0  0
   -2.1611    4.3681    0.1064 C   0  0  0  0  0  0  0  0  0  0  0  0
   -1.8013    5.3531    0.4717 H   0  0  0  0  0  0  0  0  0  0  0  0
   -3.0374    4.1127    0.7401 H   0  0  0  0  0  0  0  0  0  0  0  0
   -2.6147    4.5056   -1.3581 C   0  0  0  0  0  0  0  0  0  0  0  0
   -1.7724    4.8136   -2.0092 H   0  0  0  0  0  0  0  0  0  0  0  0
   -3.4193    5.2619   -1.4579 H   0  0  0  0  0  0  0  0  0  0  0  0
   -2.9983    3.5432   -1.7531 H   0  0  0  0  0  0  0  0  0  0  0  0
   -4.7643   -0.2954   -1.5662 C   0  0  0  0  0  0  0  0  0  0  0  0
   -5.1823   -0.7487   -2.4897 H   0  0  0  0  0  0  0  0  0  0  0  0
   -4.7566    0.8027   -1.7493 H   0  0  0  0  0  0  0  0  0  0  0  0
   -5.7036   -0.5967   -0.3821 C   0  0  0  0  0  0  0  0  0  0  0  0
   -5.7242   -1.6952   -0.2104 H   0  0  0  0  0  0  0  0  0  0  0  0
   -5.2738   -0.1610    0.5469 H   0  0  0  0  0  0  0  0  0  0  0  0
   -7.1278   -0.0746   -0.5877 C   0  0  0  0  0  0  0  0  0  0  0  0
   -7.5459   -0.5119   -1.5220 H   0  0  0  0  0  0  0  0  0  0  0  0
   -7.0906    1.0239   -0.7648 H   0  0  0  0  0  0  0  0  0  0  0  0
   -8.0583   -0.3774    0.5871 C   0  0  0  0  0  0  0  0  0  0  0  0
   -8.1424   -1.4702    0.7625 H   0  0  0  0  0  0  0  0  0  0  0  0
   -9.0809    0.0133    0.4124 H   0  0  0  0  0  0  0  0  0  0  0  0
   -7.6813    0.0770    1.5269 H   0  0  0  0  0  0  0  0  0  0  0  0
   -3.2541   -2.8324   -2.9363 C   0  0  0  0  0  0  0  0  0  0  0  0
   -3.1985   -3.8830   -2.5805 H   0  0  0  0  0  0  0  0  0  0  0  0
   -2.6766   -2.7836   -3.8835 H   0  0  0  0  0  0  0  0  0  0  0  0
   -4.3128   -2.6205   -3.1792 H   0  0  0  0  0  0  0  0  0  0  0  0
  4  1  2  0  0  0  0
  5  4  1  0  0  0  0
  5  6  2  0  0  0  0
  6  7  1  0  0  0  0
  7  1  1  0  0  0  0
  7  8  1  0  0  0  0
  8 10  1  0  0  0  0
  9  8  1  0  0  0  0
 10  2  2  0  0  0  0
 11 12  2  0  0  0  0
 11 10  1  0  0  0  0
 12 13  1  0  0  0  0
 13  2  1  0  0  0  0
 14 13  1  0  0  0  0
 15 14  1  0  0  0  0
 16  3  1  0  0  0  0
 16 14  1  0  0  0  0
 17 16  1  0  0  0  0
 18 19  1  0  0  0  0
 18 17  2  0  0  0  0
 19  3  2  0  0  0  0
 20 19  1  0  0  0  0
 21 20  1  0  0  0  0
 22 20  2  0  0  0  0
 22  4  1  0  0  0  0
 23 22  1  0  0  0  0
 24 26  1  0  0  0  0
 24  5  1  0  0  0  0
 25 24  1  0  0  0  0
 27 24  1  0  0  0  0
 28  6  1  0  0  0  0
 28 31  1  0  0  0  0
 29 28  1  0  0  0  0
 30 28  1  0  0  0  0
 31 33  1  0  0  0  0
 31 34  1  0  0  0  0
 32 31  1  0  0  0  0
 34 36  1  0  0  0  0
 34 35  1  0  0  0  0
 37 39  1  0  0  0  0
 37 34  1  0  0  0  0
 38 37  1  0  0  0  0
 40 37  1  0  0  0  0
 41 11  1  0  0  0  0
 41 43  1  0  0  0  0
 41 42  1  0  0  0  0
 44 41  1  0  0  0  0
 45 44  1  0  0  0  0
 46 44  1  0  0  0  0
 47 44  1  0  0  0  0
 48 12  1  0  0  0  0
 48 49  1  0  0  0  0
 48 50  1  0  0  0  0
 51 48  1  0  0  0  0
 52 51  1  0  0  0  0
 53 51  1  0  0  0  0
 54 51  1  0  0  0  0
 55 17  1  0  0  0  0
 55 58  1  0  0  0  0
 56 55  1  0  0  0  0
 57 55  1  0  0  0  0
 58 59  1  0  0  0  0
 58 60  1  0  0  0  0
 61 58  1  0  0  0  0
 61 64  1  0  0  0  0
 62 61  1  0  0  0  0
 63 61  1  0  0  0  0
 64 65  1  0  0  0  0
 64 67  1  0  0  0  0
 66 64  1  0  0  0  0
 68 69  1  0  0  0  0
 68 18  1  0  0  0  0
 70 68  1  0  0  0  0
 71 68  1  0  0  0  0
M  END
