1,2,3
 OpenBabel05122313063D

 43 45  0  0  1  0  0  0  0  0999 V2000
   -1.9220    0.4927    0.2415 N   0  0  0  0  0  2  0  0  0  0  0  0
   -0.0000    2.0019   -0.0001 N   0  0  0  0  0  2  0  0  0  0  0  0
    1.9220    0.4927   -0.2417 N   0  0  0  0  0  2  0  0  0  0  0  0
   -2.3072    1.7652    0.3106 C   0  0  0  0  0  0  0  0  0  0  0  0
   -1.1930    2.6830    0.1789 C   0  0  0  0  0  0  0  0  0  0  0  0
   -1.2018    4.0876    0.1833 C   0  0  0  0  0  0  0  0  0  0  0  0
    0.0000    4.7913   -0.0001 C   0  0  0  0  0  0  0  0  0  0  0  0
    1.2019    4.0876   -0.1835 C   0  0  0  0  0  0  0  0  0  0  0  0
    1.1930    2.6830   -0.1791 C   0  0  0  0  0  0  0  0  0  0  0  0
    2.3071    1.7651   -0.3107 C   0  0  2  0  0  3  0  0  0  0  0  0
   -3.7160    2.2281    0.5050 C   0  0  0  0  0  0  0  0  0  0  0  0
    3.7160    2.2281   -0.5051 C   0  0  0  0  0  0  0  0  0  0  0  0
   -2.8383   -0.5794    0.1815 C   0  0  0  0  0  0  0  0  0  0  0  0
   -3.8031   -0.6579   -0.8492 C   0  0  0  0  0  0  0  0  0  0  0  0
   -4.6492   -1.7632   -0.9691 C   0  0  0  0  0  0  0  0  0  0  0  0
   -4.5470   -2.8216   -0.0559 C   0  0  0  0  0  0  0  0  0  0  0  0
   -3.5835   -2.7473    0.9599 C   0  0  0  0  0  0  0  0  0  0  0  0
   -2.7235   -1.6545    1.0856 C   0  0  0  0  0  0  0  0  0  0  0  0
    2.8383   -0.5794   -0.1815 C   0  0  0  0  0  0  0  0  0  0  0  0
    3.8030   -0.6578    0.8493 C   0  0  0  0  0  0  0  0  0  0  0  0
    4.6492   -1.7631    0.9694 C   0  0  0  0  0  0  0  0  0  0  0  0
    4.5470   -2.8216    0.0562 C   0  0  0  0  0  0  0  0  0  0  0  0
    3.5836   -2.7473   -0.9597 C   0  0  0  0  0  0  0  0  0  0  0  0
    2.7237   -1.6546   -1.0855 C   0  0  0  0  0  0  0  0  0  0  0  0
   -3.9031    0.3487   -1.7382 F   0  0  0  0  0  0  0  0  0  0  0  0
   -3.4816   -3.7625    1.8368 F   0  0  0  0  0  0  0  0  0  0  0  0
    3.9029    0.3489    1.7382 F   0  0  0  0  0  0  0  0  0  0  0  0
    3.4819   -3.7626   -1.8365 F   0  0  0  0  0  0  0  0  0  0  0  0
   -2.1525    4.6211    0.3207 H   0  0  0  0  0  0  0  0  0  0  0  0
    0.0000    5.8903   -0.0001 H   0  0  0  0  0  0  0  0  0  0  0  0
    2.1526    4.6211   -0.3208 H   0  0  0  0  0  0  0  0  0  0  0  0
   -4.3315    1.4323    0.9652 H   0  0  0  0  0  0  0  0  0  0  0  0
   -4.1847    2.4939   -0.4652 H   0  0  0  0  0  0  0  0  0  0  0  0
   -3.7486    3.1211    1.1590 H   0  0  0  0  0  0  0  0  0  0  0  0
    3.7487    3.1210   -1.1593 H   0  0  0  0  0  0  0  0  0  0  0  0
    4.1846    2.4941    0.4651 H   0  0  0  0  0  0  0  0  0  0  0  0
    4.3316    1.4322   -0.9651 H   0  0  0  0  0  0  0  0  0  0  0  0
   -5.3789   -1.7832   -1.7909 H   0  0  0  0  0  0  0  0  0  0  0  0
   -5.1981   -3.7040   -0.1244 H   0  0  0  0  0  0  0  0  0  0  0  0
   -1.9479   -1.6164    1.8647 H   0  0  0  0  0  0  0  0  0  0  0  0
    5.3788   -1.7830    1.7912 H   0  0  0  0  0  0  0  0  0  0  0  0
    5.1982   -3.7040    0.1249 H   0  0  0  0  0  0  0  0  0  0  0  0
    1.9481   -1.6166   -1.8647 H   0  0  0  0  0  0  0  0  0  0  0  0
  1  4  1  0  0  0  0
  2  5  1  0  0  0  0
  3 19  1  0  0  0  0
  4 11  1  0  0  0  0
  5  6  1  0  0  0  0
  5  4  2  0  0  0  0
  6 29  1  0  0  0  0
  7 30  1  0  0  0  0
  7  6  2  0  0  0  0
  8  9  2  0  0  0  0
  8  7  1  0  0  0  0
  9  2  1  0  0  0  0
 10  3  1  6  0  0  0
 10  9  1  0  0  0  0
 11 32  1  0  0  0  0
 11 34  1  0  0  0  0
 12 10  1  0  0  0  0
 12 36  1  0  0  0  0
 13  1  1  0  0  0  0
 13 18  1  0  0  0  0
 14 13  2  0  0  0  0
 15 14  1  0  0  0  0
 15 16  2  0  0  0  0
 16 17  1  0  0  0  0
 17 18  2  0  0  0  0
 17 26  1  0  0  0  0
 18 40  1  0  0  0  0
 19 20  1  0  0  0  0
 20 21  2  0  0  0  0
 20 27  1  0  0  0  0
 21 41  1  0  0  0  0
 22 42  1  0  0  0  0
 22 21  1  0  0  0  0
 23 22  2  0  0  0  0
 24 23  1  0  0  0  0
 24 19  2  0  0  0  0
 25 14  1  0  0  0  0
 28 23  1  0  0  0  0
 31  8  1  0  0  0  0
 33 11  1  0  0  0  0
 35 12  1  0  0  0  0
 37 12  1  0  0  0  0
 38 15  1  0  0  0  0
 39 16  1  0  0  0  0
 43 24  1  0  0  0  0
M  END
