4,6,7
 OpenBabel05122313063D

 43 43  0  0  1  0  0  0  0  0999 V2000
    7.0598   -0.0104   -0.8174 O   0  0  0  0  0  0  0  0  0  0  0  0
    7.8708    0.4674   -0.5342 H   0  0  0  0  0  0  0  0  0  0  0  0
    6.1466    1.4772    0.6269 O   0  0  0  0  0  0  0  0  0  0  0  0
   -1.9924    1.0185   -0.0054 N   0  0  0  0  0  2  0  0  0  0  0  0
   -1.4062    2.1940   -0.3838 N   0  0  0  0  0  0  0  0  0  0  0  0
    1.0124    0.3241    0.6758 N   0  0  0  0  0  0  0  0  0  0  0  0
   -1.1510   -0.9642    2.1863 N   0  0  0  0  0  0  0  0  0  0  0  0
   -2.1106   -0.7155    2.4651 H   0  0  0  0  0  0  0  0  0  0  0  0
   -1.0099   -1.9306    2.5140 H   0  0  0  0  0  0  0  0  0  0  0  0
   -0.1803   -0.0483    2.8410 C   0  0  0  0  0  0  0  0  0  0  0  0
   -0.0239   -0.3091    3.9085 H   0  0  0  0  0  0  0  0  0  0  0  0
   -0.6180    0.9696    2.8201 H   0  0  0  0  0  0  0  0  0  0  0  0
    1.1550   -0.0743    2.1096 C   0  0  0  0  0  0  0  0  0  0  0  0
    1.8790    0.5843    2.6365 H   0  0  0  0  0  0  0  0  0  0  0  0
    1.5761   -1.1005    2.1285 H   0  0  0  0  0  0  0  0  0  0  0  0
    0.8454    1.8063    0.5683 C   0  0  0  0  0  0  0  0  0  0  0  0
    1.8463    2.2820    0.5301 H   0  0  0  0  0  0  0  0  0  0  0  0
    0.3535    2.1855    1.4841 H   0  0  0  0  0  0  0  0  0  0  0  0
    0.0227    2.2622   -0.6354 C   0  0  0  0  0  0  0  0  0  0  0  0
    0.2571    3.3196   -0.8542 H   0  0  0  0  0  0  0  0  0  0  0  0
    0.2775    1.6825   -1.5467 H   0  0  0  0  0  0  0  0  0  0  0  0
   -2.3008    3.2294   -0.3711 C   0  0  2  0  0  3  0  0  0  0  0  0
   -3.5213    2.6821    0.0294 C   0  0  0  0  0  0  0  0  0  0  0  0
   -4.4688    3.2183    0.1428 H   0  0  0  0  0  0  0  0  0  0  0  0
   -3.2969    1.3065    0.2464 C   0  0  0  0  0  0  0  0  0  0  0  0
   -1.9448    4.6323   -0.7341 C   0  0  0  0  0  0  0  0  0  0  0  0
   -1.5610    4.7073   -1.7723 H   0  0  0  0  0  0  0  0  0  0  0  0
   -1.1787    5.0620   -0.0556 H   0  0  0  0  0  0  0  0  0  0  0  0
   -2.8438    5.2707   -0.6646 H   0  0  0  0  0  0  0  0  0  0  0  0
   -4.3137    0.2816    0.6308 C   0  0  0  0  0  0  0  0  0  0  0  0
   -4.6796   -0.2742   -0.2564 H   0  0  0  0  0  0  0  0  0  0  0  0
   -5.1860    0.7715    1.1012 H   0  0  0  0  0  0  0  0  0  0  0  0
   -3.9209   -0.4743    1.3376 H   0  0  0  0  0  0  0  0  0  0  0  0
    2.2167   -0.1107   -0.1215 C   0  0  0  0  0  0  0  0  0  0  0  0
    2.0480    0.2287   -1.1638 H   0  0  0  0  0  0  0  0  0  0  0  0
    2.1994   -1.2166   -0.1566 H   0  0  0  0  0  0  0  0  0  0  0  0
    3.5779    0.3701    0.3801 C   0  0  0  0  0  0  0  0  0  0  0  0
    3.7856   -0.0204    1.3976 H   0  0  0  0  0  0  0  0  0  0  0  0
    3.6327    1.4750    0.4688 H   0  0  0  0  0  0  0  0  0  0  0  0
    4.7030   -0.0748   -0.5536 C   0  0  0  0  0  0  0  0  0  0  0  0
    4.8234   -1.1778   -0.5775 H   0  0  0  0  0  0  0  0  0  0  0  0
    4.4961    0.2203   -1.6065 H   0  0  0  0  0  0  0  0  0  0  0  0
    6.0286    0.5594   -0.1630 C   0  0  0  0  0  0  0  0  0  0  0  0
  1  2  1  0  0  0  0
  1 43  1  0  0  0  0
  4 25  1  0  0  0  0
  5 22  1  0  0  0  0
  5  4  1  0  0  0  0
  6 13  1  0  0  0  0
  7  8  1  0  0  0  0
  7  9  1  0  0  0  0
  7 10  1  0  0  0  0
 10 11  1  0  0  0  0
 12 10  1  0  0  0  0
 13 15  1  0  0  0  0
 13 14  1  0  0  0  0
 13 10  1  0  0  0  0
 16  6  1  0  0  0  0
 16 18  1  0  0  0  0
 17 16  1  0  0  0  0
 19  5  1  0  0  0  0
 19 16  1  0  0  0  0
 20 19  1  0  0  0  0
 21 19  1  0  0  0  0
 22 26  1  6  0  0  0
 22 23  1  0  0  0  0
 23 24  1  0  0  0  0
 23 25  2  0  0  0  0
 25 30  1  0  0  0  0
 26 29  1  0  0  0  0
 26 28  1  0  0  0  0
 27 26  1  0  0  0  0
 30 32  1  0  0  0  0
 30 33  1  0  0  0  0
 31 30  1  0  0  0  0
 34 37  1  0  0  0  0
 34  6  1  0  0  0  0
 35 34  1  0  0  0  0
 36 34  1  0  0  0  0
 37 39  1  0  0  0  0
 37 38  1  0  0  0  0
 40 43  1  0  0  0  0
 40 37  1  0  0  0  0
 41 40  1  0  0  0  0
 42 40  1  0  0  0  0
 43  3  2  0  0  0  0
M  END
