1,2,4
 OpenBabel05122313063D

 32 31  0  0  1  0  0  0  0  0999 V2000
   -0.9722    1.3405    1.2668 N   0  0  0  0  0  0  0  0  0  0  0  0
   -0.2896    1.4197   -1.5467 N   0  0  0  0  0  0  0  0  0  0  0  0
   -0.9988    1.2768   -2.2784 H   0  0  0  0  0  0  0  0  0  0  0  0
    1.7834    0.2580   -0.1238 N   0  0  0  0  0  2  0  0  0  0  0  0
    4.0229    0.3275    0.5826 N   0  0  0  0  0  0  0  0  0  0  0  0
    4.2946    1.0582   -0.0729 H   0  0  0  0  0  0  0  0  0  0  0  0
    4.7609   -0.0736    1.1586 H   0  0  0  0  0  0  0  0  0  0  0  0
   -1.5329    2.3909    0.3654 C   0  0  0  0  0  0  0  0  0  0  0  0
   -1.7287    3.3280    0.9347 H   0  0  0  0  0  0  0  0  0  0  0  0
   -2.5105    2.0222   -0.0049 H   0  0  0  0  0  0  0  0  0  0  0  0
   -0.6076    2.6766   -0.8060 C   0  0  0  0  0  0  0  0  0  0  0  0
   -1.0657    3.4295   -1.4804 H   0  0  0  0  0  0  0  0  0  0  0  0
    0.3438    3.1152   -0.4483 H   0  0  0  0  0  0  0  0  0  0  0  0
    1.0494    1.4223   -2.1859 C   0  0  0  0  0  0  0  0  0  0  0  0
    1.2202    2.3484   -2.7772 H   0  0  0  0  0  0  0  0  0  0  0  0
    1.0777    0.5632   -2.8833 H   0  0  0  0  0  0  0  0  0  0  0  0
    2.1378    1.2714   -1.1256 C   0  0  0  0  0  0  0  0  0  0  0  0
    3.0766    1.0011   -1.6609 H   0  0  0  0  0  0  0  0  0  0  0  0
    2.3364    2.2517   -0.6283 H   0  0  0  0  0  0  0  0  0  0  0  0
   -2.0313    0.9078    2.2188 C   0  0  0  0  0  0  0  0  0  0  0  0
   -1.6356    0.1118    2.8746 H   0  0  0  0  0  0  0  0  0  0  0  0
   -2.8991    0.5082    1.6649 H   0  0  0  0  0  0  0  0  0  0  0  0
   -2.3615    1.7639    2.8470 H   0  0  0  0  0  0  0  0  0  0  0  0
    0.1596    1.8767    2.0597 C   0  0  0  0  0  0  0  0  0  0  0  0
    0.9788    2.2168    1.4037 H   0  0  0  0  0  0  0  0  0  0  0  0
    0.5534    1.0786    2.7150 H   0  0  0  0  0  0  0  0  0  0  0  0
   -0.1747    2.7257    2.6956 H   0  0  0  0  0  0  0  0  0  0  0  0
    2.7658   -0.1727    0.6481 C   0  0  2  0  0  3  0  0  0  0  0  0
    2.5499   -1.2653    1.6553 C   0  0  0  0  0  0  0  0  0  0  0  0
    1.7571   -0.9888    2.3743 H   0  0  0  0  0  0  0  0  0  0  0  0
    3.4717   -1.4861    2.2236 H   0  0  0  0  0  0  0  0  0  0  0  0
    2.2186   -2.1900    1.1456 H   0  0  0  0  0  0  0  0  0  0  0  0
  1 24  1  0  0  0  0
  1 20  1  0  0  0  0
  2 11  1  0  0  0  0
  3  2  1  0  0  0  0
  5 28  1  0  0  0  0
  5  7  1  0  0  0  0
  6  5  1  0  0  0  0
  8  9  1  0  0  0  0
  8  1  1  0  0  0  0
 10  8  1  0  0  0  0
 11 13  1  0  0  0  0
 11  8  1  0  0  0  0
 12 11  1  0  0  0  0
 14  2  1  0  0  0  0
 14 17  1  0  0  0  0
 15 14  1  0  0  0  0
 16 14  1  0  0  0  0
 17 19  1  0  0  0  0
 17  4  1  0  0  0  0
 18 17  1  0  0  0  0
 20 23  1  0  0  0  0
 20 21  1  0  0  0  0
 22 20  1  0  0  0  0
 24 27  1  0  0  0  0
 24 26  1  0  0  0  0
 25 24  1  0  0  0  0
 28  4  1  6  0  0  0
 28 29  1  0  0  0  0
 29 31  1  0  0  0  0
 29 30  1  0  0  0  0
 32 29  1  0  0  0  0
M  END
