3,7,8
 OpenBabel05122313063D

 42 45  0  0  1  0  0  0  0  0999 V2000
    3.9102   -4.5686   -0.4419 Br  0  0  0  0  0  0  0  0  0  0  0  0
    3.3409    4.9552   -0.5782 Br  0  0  0  0  0  0  0  0  0  0  0  0
   -1.4774   -0.0597   -0.3668 N   0  0  0  0  0  0  0  0  0  0  0  0
   -2.0391    2.2975   -0.1714 N   0  0  0  0  0  2  0  0  0  0  0  0
   -1.7202   -2.4277   -0.3722 N   0  0  0  0  0  0  0  0  0  0  0  0
   -2.4241   -3.1645   -0.4279 H   0  0  0  0  0  0  0  0  0  0  0  0
    0.6321   -2.0453   -0.1270 N   0  0  0  0  0  2  0  0  0  0  0  0
    0.3867    2.0934   -0.0921 N   0  0  0  0  0  2  0  0  0  0  0  0
   -2.3480    1.0443   -0.2809 C   0  0  0  0  0  0  0  0  0  0  0  0
   -3.7316    0.5417   -0.3252 C   0  0  0  0  0  0  0  0  0  0  0  0
   -4.9640    1.1887   -0.2974 C   0  0  0  0  0  0  0  0  0  0  0  0
   -5.0034    2.2866   -0.2332 H   0  0  0  0  0  0  0  0  0  0  0  0
   -6.1502    0.4230   -0.3479 C   0  0  0  0  0  0  0  0  0  0  0  0
   -6.0751   -0.9995   -0.4248 C   0  0  0  0  0  0  0  0  0  0  0  0
   -4.8167   -1.6408   -0.4507 C   0  0  0  0  0  0  0  0  0  0  0  0
   -4.7831   -2.7415   -0.5081 H   0  0  0  0  0  0  0  0  0  0  0  0
   -3.6537   -0.8662   -0.4017 C   0  0  0  0  0  3  0  0  0  0  0  0
   -2.2232   -1.1670   -0.4002 C   0  0  0  0  0  0  0  0  0  0  0  0
   -7.4917    1.1069   -0.3186 C   0  0  0  0  0  0  0  0  0  0  0  0
   -8.0910    0.8728   -1.2241 H   0  0  0  0  0  0  0  0  0  0  0  0
   -7.3829    2.2061   -0.2588 H   0  0  0  0  0  0  0  0  0  0  0  0
   -8.1004    0.7773    0.5502 H   0  0  0  0  0  0  0  0  0  0  0  0
   -7.3377   -1.8190   -0.4770 C   0  0  0  0  0  0  0  0  0  0  0  0
   -7.9724   -1.6474    0.4182 H   0  0  0  0  0  0  0  0  0  0  0  0
   -7.1196   -2.9024   -0.5346 H   0  0  0  0  0  0  0  0  0  0  0  0
   -7.9624   -1.5509   -1.3553 H   0  0  0  0  0  0  0  0  0  0  0  0
   -0.4155   -2.8946   -0.3217 C   0  0  2  0  0  3  0  0  0  0  0  0
   -0.2329   -4.2880   -0.4959 C   0  0  0  0  0  0  0  0  0  0  0  0
   -1.1136   -4.9330   -0.6349 H   0  0  0  0  0  0  0  0  0  0  0  0
    1.0462   -4.8274   -0.5196 C   0  0  0  0  0  0  0  0  0  0  0  0
    1.2098   -5.9047   -0.6592 H   0  0  0  0  0  0  0  0  0  0  0  0
    2.1266   -3.9354   -0.3836 C   0  0  0  0  0  0  0  0  0  0  0  0
    1.8879   -2.5748   -0.2007 C   0  0  0  0  0  0  0  0  0  0  0  0
    2.7050   -1.8497   -0.0622 H   0  0  0  0  0  0  0  0  0  0  0  0
    1.5660    2.7551   -0.2500 C   0  0  0  0  0  3  0  0  0  0  0  0
    2.4690    2.1292   -0.2308 H   0  0  0  0  0  0  0  0  0  0  0  0
    1.6422    4.1434   -0.3805 C   0  0  0  0  0  0  0  0  0  0  0  0
    0.4734    4.9260   -0.3558 C   0  0  0  0  0  0  0  0  0  0  0  0
    0.5176    6.0205   -0.4422 H   0  0  0  0  0  0  0  0  0  0  0  0
   -0.7321    4.2476   -0.2433 C   0  0  0  0  0  0  0  0  0  0  0  0
   -1.6982    4.7691   -0.2531 H   0  0  0  0  0  0  0  0  0  0  0  0
   -0.7808    2.8294   -0.1552 C   0  0  0  0  0  0  0  0  0  0  0  0
  1 32  1  0  0  0  0
  2 37  1  0  0  0  0
  3  9  1  0  0  0  0
  4 42  1  0  0  0  0
  6  5  1  0  0  0  0
  9  4  1  0  0  0  0
 10 11  1  0  0  0  0
 10  9  2  0  0  0  0
 11 12  1  0  0  0  0
 13 19  1  0  0  0  0
 13 11  2  0  0  0  0
 14 13  1  0  0  0  0
 15 14  2  0  0  0  0
 15 17  1  0  0  0  0
 16 15  1  0  0  0  0
 17 18  1  0  0  0  0
 17 10  1  0  0  0  0
 18  5  1  0  0  0  0
 18  3  2  0  0  0  0
 19 21  1  0  0  0  0
 19 22  1  0  0  0  0
 20 19  1  0  0  0  0
 23 14  1  0  0  0  0
 23 24  1  0  0  0  0
 25 23  1  0  0  0  0
 26 23  1  0  0  0  0
 27  5  1  6  0  0  0
 27  7  1  0  0  0  0
 28 27  1  0  0  0  0
 29 28  1  0  0  0  0
 30 28  2  0  0  0  0
 30 32  1  0  0  0  0
 31 30  1  0  0  0  0
 32 33  2  0  0  0  0
 33  7  1  0  0  0  0
 33 34  1  0  0  0  0
 35 36  1  0  0  0  0
 35  8  1  0  0  0  0
 37 38  2  0  0  0  0
 37 35  1  0  0  0  0
 38 40  1  0  0  0  0
 39 38  1  0  0  0  0
 40 42  2  0  0  0  0
 41 40  1  0  0  0  0
 42  8  1  0  0  0  0
M  END
