5,6,7
 OpenBabel05122313063D

 43 45  0  0  1  0  0  0  0  0999 V2000
    2.8920   -0.4178   -2.7170 Cl  0  0  0  0  0  0  0  0  0  0  0  0
    2.8644   -0.4764    2.7135 Cl  0  0  0  0  0  0  0  0  0  0  0  0
   -2.8914   -0.4184   -2.7172 Cl  0  0  0  0  0  0  0  0  0  0  0  0
   -2.8650   -0.4758    2.7133 Cl  0  0  0  0  0  0  0  0  0  0  0  0
    1.9747    0.4487    0.0039 N   0  0  0  0  0  2  0  0  0  0  0  0
   -0.0000    1.9826    0.0126 N   0  0  0  0  0  2  0  0  0  0  0  0
   -1.9748    0.4487    0.0037 N   0  0  0  0  0  2  0  0  0  0  0  0
    3.7646    2.1631    0.0134 C   0  0  0  0  0  0  0  0  0  0  0  0
    4.2899    1.7458    0.8970 H   0  0  0  0  0  0  0  0  0  0  0  0
    3.8677    3.2623    0.0331 H   0  0  0  0  0  0  0  0  0  0  0  0
    4.2824    1.7786   -0.8895 H   0  0  0  0  0  0  0  0  0  0  0  0
    2.3306    1.7347    0.0114 C   0  0  1  0  0  3  0  0  0  0  0  0
    1.2084    2.6558    0.0160 C   0  0  0  0  0  0  0  0  0  0  0  0
    1.2182    4.0617    0.0227 C   0  0  0  0  0  0  0  0  0  0  0  0
    2.1739    4.6037    0.0250 H   0  0  0  0  0  0  0  0  0  0  0  0
   -0.0000    4.7620    0.0260 C   0  0  0  0  0  0  0  0  0  0  0  0
   -0.0000    5.8612    0.0311 H   0  0  0  0  0  0  0  0  0  0  0  0
   -1.2182    4.0617    0.0226 C   0  0  0  0  0  0  0  0  0  0  0  0
   -2.1739    4.6037    0.0249 H   0  0  0  0  0  0  0  0  0  0  0  0
   -1.2084    2.6558    0.0158 C   0  0  0  0  0  0  0  0  0  0  0  0
   -2.3307    1.7347    0.0111 C   0  0  0  0  0  0  0  0  0  0  0  0
   -3.7646    2.1631    0.0132 C   0  0  0  0  0  0  0  0  0  0  0  0
   -4.2827    1.7778   -0.8892 H   0  0  0  0  0  0  0  0  0  0  0  0
   -3.8678    3.2623    0.0319 H   0  0  0  0  0  0  0  0  0  0  0  0
   -4.2896    1.7466    0.8974 H   0  0  0  0  0  0  0  0  0  0  0  0
    2.9483   -0.5783   -0.0027 C   0  0  0  0  0  0  0  0  0  0  0  0
    3.4103   -1.1340   -1.2163 C   0  0  0  0  0  0  0  0  0  0  0  0
    4.2768   -2.2351   -1.2313 C   0  0  0  0  0  0  0  0  0  0  0  0
    4.6076   -2.6426   -2.1961 H   0  0  0  0  0  0  0  0  0  0  0  0
    4.6965   -2.7970   -0.0178 C   0  0  0  0  0  0  0  0  0  0  0  0
    5.3697   -3.6667   -0.0238 H   0  0  0  0  0  0  0  0  0  0  0  0
    4.2640   -2.2618    1.2032 C   0  0  0  0  0  0  0  0  0  0  0  0
    4.5849   -2.6902    2.1623 H   0  0  0  0  0  0  0  0  0  0  0  0
    3.3974   -1.1606    1.2034 C   0  0  0  0  0  0  0  0  0  0  0  0
   -2.9483   -0.5783   -0.0029 C   0  0  0  0  0  0  0  0  0  0  0  0
   -3.4100   -1.1343   -1.2165 C   0  0  0  0  0  0  0  0  0  0  0  0
   -4.2765   -2.2355   -1.2314 C   0  0  0  0  0  0  0  0  0  0  0  0
   -4.6071   -2.6432   -2.1962 H   0  0  0  0  0  0  0  0  0  0  0  0
   -4.6964   -2.7971   -0.0179 C   0  0  0  0  0  0  0  0  0  0  0  0
   -5.3696   -3.6668   -0.0238 H   0  0  0  0  0  0  0  0  0  0  0  0
   -4.2642   -2.2616    1.2031 C   0  0  0  0  0  0  0  0  0  0  0  0
   -4.5853   -2.6898    2.1622 H   0  0  0  0  0  0  0  0  0  0  0  0
   -3.3977   -1.1604    1.2032 C   0  0  0  0  0  0  0  0  0  0  0  0
  1 27  1  0  0  0  0
  3 36  1  0  0  0  0
  6 20  1  0  0  0  0
  6 13  1  0  0  0  0
  7 21  1  0  0  0  0
  8 10  1  0  0  0  0
  8  9  1  0  0  0  0
 11  8  1  0  0  0  0
 12  5  1  6  0  0  0
 12  8  1  0  0  0  0
 12 13  1  0  0  0  0
 13 14  2  0  0  0  0
 14 15  1  0  0  0  0
 14 16  1  0  0  0  0
 16 17  1  0  0  0  0
 18 19  1  0  0  0  0
 18 16  2  0  0  0  0
 20 18  1  0  0  0  0
 21 22  1  0  0  0  0
 21 20  2  0  0  0  0
 22 24  1  0  0  0  0
 22 25  1  0  0  0  0
 23 22  1  0  0  0  0
 26  5  1  0  0  0  0
 26 34  1  0  0  0  0
 27 26  2  0  0  0  0
 28 27  1  0  0  0  0
 28 30  2  0  0  0  0
 29 28  1  0  0  0  0
 30 32  1  0  0  0  0
 31 30  1  0  0  0  0
 32 34  2  0  0  0  0
 32 33  1  0  0  0  0
 34  2  1  0  0  0  0
 35  7  1  0  0  0  0
 35 43  1  0  0  0  0
 36 35  2  0  0  0  0
 37 36  1  0  0  0  0
 37 39  2  0  0  0  0
 38 37  1  0  0  0  0
 39 41  1  0  0  0  0
 40 39  1  0  0  0  0
 41 43  2  0  0  0  0
 41 42  1  0  0  0  0
 43  4  1  0  0  0  0
M  END
