2,3,4
 OpenBabel05122313063D

 36 37  0  0  0  0  0  0  0  0999 V2000
   -0.7150   -1.7428    2.0865 O   0  0  0  0  0  1  0  0  0  0  0  0
    0.2140   -1.3481    1.3473 N   0  0  0  0  0  2  0  0  0  0  0  0
    1.9019   -0.1502   -0.1208 N   0  0  0  0  0  2  0  0  0  0  0  0
   -0.0421    1.3838   -1.4940 N   0  0  0  0  0  0  0  0  0  0  0  0
   -0.9866    1.7884   -1.5657 H   0  0  0  0  0  0  0  0  0  0  0  0
    0.1114    0.8195   -2.3460 H   0  0  0  0  0  0  0  0  0  0  0  0
    0.9560    2.4200   -1.3863 C   0  0  0  0  0  0  0  0  0  0  0  0
    0.5970    3.7740   -1.4537 C   0  0  0  0  0  0  0  0  0  0  0  0
   -0.4557    4.0535   -1.6125 H   0  0  0  0  0  0  0  0  0  0  0  0
    1.5808    4.7647   -1.3174 C   0  0  0  0  0  0  0  0  0  0  0  0
    1.2968    5.8257   -1.3766 H   0  0  0  0  0  0  0  0  0  0  0  0
    2.9183    4.3982   -1.1091 C   0  0  0  0  0  0  0  0  0  0  0  0
    3.6935    5.1708   -1.0010 H   0  0  0  0  0  0  0  0  0  0  0  0
    3.2691    3.0403   -1.0411 C   0  0  0  0  0  0  0  0  0  0  0  0
    4.3190    2.7507   -0.8800 H   0  0  0  0  0  0  0  0  0  0  0  0
    2.2993    2.0326   -1.1797 C   0  0  0  0  0  0  0  0  0  0  0  0
    3.8022   -1.6273    0.4369 C   0  0  0  0  0  0  0  0  0  0  0  0
    4.2003   -2.2333   -0.7746 C   0  0  0  0  0  0  0  0  0  0  0  0
    3.4649   -2.3469   -1.5859 H   0  0  0  0  0  0  0  0  0  0  0  0
    5.5114   -2.7072   -0.9208 C   0  0  0  0  0  0  0  0  0  0  0  0
    5.8158   -3.1882   -1.8623 H   0  0  0  0  0  0  0  0  0  0  0  0
    6.4318   -2.5727    0.1316 C   0  0  0  0  0  0  0  0  0  0  0  0
    7.4609   -2.9430    0.0127 H   0  0  0  0  0  0  0  0  0  0  0  0
    6.0383   -1.9712    1.3379 C   0  0  0  0  0  0  0  0  0  0  0  0
    6.7582   -1.8669    2.1632 H   0  0  0  0  0  0  0  0  0  0  0  0
    4.7249   -1.5057    1.4964 C   0  0  0  0  0  0  0  0  0  0  0  0
    4.4142   -1.0381    2.4432 H   0  0  0  0  0  0  0  0  0  0  0  0
    2.6644    0.5672   -1.1344 C   0  0  0  0  0  0  0  0  0  0  0  0
    2.4483    0.0829   -2.1168 H   0  0  0  0  0  0  0  0  0  0  0  0
    3.7524    0.4518   -0.9596 H   0  0  0  0  0  0  0  0  0  0  0  0
    2.3991   -1.1568    0.5789 C   0  0  0  0  0  0  0  0  0  0  0  0
    1.7716   -2.9084    2.4407 C   0  0  0  0  0  0  0  0  0  0  0  0
    1.7428   -2.5349    3.4868 H   0  0  0  0  0  0  0  0  0  0  0  0
    2.7665   -3.3501    2.2541 H   0  0  0  0  0  0  0  0  0  0  0  0
    0.9960   -3.6976    2.3714 H   0  0  0  0  0  0  0  0  0  0  0  0
    1.4741   -1.8208    1.4623 C   0  0  0  0  0  0  0  0  0  0  0  0
  2 36  1  0  0  0  0
  2  1  1  0  0  0  0
  3 31  1  0  0  0  0
  4  7  1  0  0  0  0
  5  4  1  0  0  0  0
  6  4  1  0  0  0  0
  7 16  1  0  0  0  0
  8  7  2  0  0  0  0
  8 10  1  0  0  0  0
  9  8  1  0  0  0  0
 10 12  2  0  0  0  0
 11 10  1  0  0  0  0
 12 14  1  0  0  0  0
 12 13  1  0  0  0  0
 14 15  1  0  0  0  0
 16 28  1  0  0  0  0
 16 14  2  0  0  0  0
 17 31  1  0  0  0  0
 17 26  1  0  0  0  0
 18 17  2  0  0  0  0
 19 18  1  0  0  0  0
 20 18  1  0  0  0  0
 20 22  2  0  0  0  0
 21 20  1  0  0  0  0
 22 24  1  0  0  0  0
 23 22  1  0  0  0  0
 24 26  2  0  0  0  0
 24 25  1  0  0  0  0
 26 27  1  0  0  0  0
 28 30  1  0  0  0  0
 28  3  1  0  0  0  0
 29 28  1  0  0  0  0
 31 36  2  0  0  0  0
 32 33  1  0  0  0  0
 34 32  1  0  0  0  0
 35 32  1  0  0  0  0
 36 32  1  0  0  0  0
M  END
