1,7,24
 OpenBabel05122313063D

 33 35  0  0  1  0  0  0  0  0999 V2000
   -1.3188    1.4006   -1.0407 N   0  0  0  0  0  2  0  0  0  0  0  0
   -2.6551    1.2711   -1.2519 C   0  0  2  0  0  3  0  0  0  0  0  0
   -3.3844    2.2594   -1.9264 C   0  0  0  0  0  0  0  0  0  0  0  0
   -2.7155    3.3770   -2.4449 C   0  0  0  0  0  0  0  0  0  0  0  0
   -1.3249    3.4684   -2.2776 C   0  0  0  0  0  0  0  0  0  0  0  0
   -0.6612    2.4680   -1.5680 C   0  0  0  0  0  0  0  0  0  0  0  0
   -1.9622    0.0000    1.3327 N   0  0  0  0  0  2  0  0  0  0  0  0
   -3.2298   -0.0000    0.8273 C   0  0  1  0  0  3  0  0  0  0  0  0
   -4.3660   -0.0000    1.6455 C   0  0  0  0  0  0  0  0  0  0  0  0
   -4.2082    0.0000    3.0373 C   0  0  0  0  0  0  0  0  0  0  0  0
   -2.9042    0.0000    3.5630 C   0  0  0  0  0  0  0  0  0  0  0  0
   -1.8181    0.0000    2.6910 C   0  0  0  0  0  0  0  0  0  0  0  0
   -4.7105   -0.0001   -1.0194 O   0  0  0  0  0  0  0  0  0  0  0  0
   -3.3394   -0.0000   -0.7000 C   0  0  1  0  0  0  0  0  0  0  0  0
   -4.4736    2.1578   -2.0217 H   0  0  0  0  0  0  0  0  0  0  0  0
   -3.2732    4.1622   -2.9756 H   0  0  0  0  0  0  0  0  0  0  0  0
   -0.7524    4.3127   -2.6865 H   0  0  0  0  0  0  0  0  0  0  0  0
    0.4264    2.4719   -1.4092 H   0  0  0  0  0  0  0  0  0  0  0  0
   -5.3557   -0.0000    1.1721 H   0  0  0  0  0  0  0  0  0  0  0  0
   -5.0853    0.0000    3.7001 H   0  0  0  0  0  0  0  0  0  0  0  0
   -2.7238    0.0001    4.6474 H   0  0  0  0  0  0  0  0  0  0  0  0
   -0.7804    0.0001    3.0558 H   0  0  0  0  0  0  0  0  0  0  0  0
   -4.7906   -0.0001   -1.9926 H   0  0  0  0  0  0  0  0  0  0  0  0
   -1.3188   -1.4007   -1.0406 N   0  0  0  0  0  2  0  0  0  0  0  0
   -2.6551   -1.2712   -1.2518 C   0  0  1  0  0  3  0  0  0  0  0  0
   -0.6612   -2.4681   -1.5679 C   0  0  0  0  0  0  0  0  0  0  0  0
   -3.3844   -2.2596   -1.9263 C   0  0  0  0  0  0  0  0  0  0  0  0
   -1.3248   -3.4686   -2.2774 C   0  0  0  0  0  0  0  0  0  0  0  0
    0.4265   -2.4719   -1.4091 H   0  0  0  0  0  0  0  0  0  0  0  0
   -2.7154   -3.3771   -2.4447 C   0  0  0  0  0  0  0  0  0  0  0  0
   -4.4735   -2.1579   -2.0216 H   0  0  0  0  0  0  0  0  0  0  0  0
   -0.7523   -4.3129   -2.6864 H   0  0  0  0  0  0  0  0  0  0  0  0
   -3.2731   -4.1624   -2.9754 H   0  0  0  0  0  0  0  0  0  0  0  0
  2  1  1  0  0  0  0
  2 14  1  1  0  0  0
  3  2  1  0  0  0  0
  4  5  1  0  0  0  0
  4  3  2  0  0  0  0
  5  6  2  0  0  0  0
  6 18  1  0  0  0  0
  6  1  1  0  0  0  0
  7 12  1  0  0  0  0
  8 14  1  6  0  0  0
  8  7  1  0  0  0  0
  8  9  1  0  0  0  0
  9 10  2  0  0  0  0
 10 11  1  0  0  0  0
 10 20  1  0  0  0  0
 11 21  1  0  0  0  0
 12 22  1  0  0  0  0
 12 11  2  0  0  0  0
 14 13  1  6  0  0  0
 15  3  1  0  0  0  0
 16  4  1  0  0  0  0
 17  5  1  0  0  0  0
 19  9  1  0  0  0  0
 23 13  1  0  0  0  0
 25 24  1  0  0  0  0
 25 14  1  1  0  0  0
 26 29  1  0  0  0  0
 26 24  1  0  0  0  0
 27 25  1  0  0  0  0
 28 26  2  0  0  0  0
 30 28  1  0  0  0  0
 30 27  2  0  0  0  0
 31 27  1  0  0  0  0
 32 28  1  0  0  0  0
 33 30  1  0  0  0  0
M  END
