1,3,5
 OpenBabel05122313063D

 35 38  0  0  0  0  0  0  0  0999 V2000
    0.0340   -2.0671   -0.1772 N   0  0  0  0  0  2  0  0  0  0  0  0
   -2.3936   -2.3822    0.0205 N   0  0  0  0  0  0  0  0  0  0  0  0
   -1.9899   -0.0023   -0.0392 N   0  0  0  0  0  0  0  0  0  0  0  0
   -2.4182    2.3725    0.0246 N   0  0  0  0  0  0  0  0  0  0  0  0
    0.0195    2.0841   -0.0659 N   0  0  0  0  0  2  0  0  0  0  0  0
    1.2240   -2.7188   -0.3529 C   0  0  0  0  0  0  0  0  0  0  0  0
    2.1025   -2.0643   -0.4190 H   0  0  0  0  0  0  0  0  0  0  0  0
    1.3530   -4.0995   -0.4309 C   0  0  0  0  0  0  0  0  0  0  0  0
    2.3545   -4.5290   -0.5714 H   0  0  0  0  0  0  0  0  0  0  0  0
    0.2024   -4.9019   -0.3247 C   0  0  0  0  0  0  0  0  0  0  0  0
    0.2622   -5.9993   -0.3747 H   0  0  0  0  0  0  0  0  0  0  0  0
   -1.0154   -4.2624   -0.1616 C   0  0  0  0  0  0  0  0  0  0  0  0
   -1.9657   -4.8059   -0.0817 H   0  0  0  0  0  0  0  0  0  0  0  0
   -1.1177   -2.8401   -0.1006 C   0  0  0  0  0  0  0  0  0  0  0  0
   -2.7724   -1.1330    0.0351 C   0  0  0  0  0  0  0  0  0  0  0  0
   -4.1873   -0.7189    0.1432 C   0  0  0  0  0  0  0  0  0  0  0  0
   -4.1952    0.6908    0.1378 C   0  0  0  0  0  3  0  0  0  0  0  0
   -2.7845    1.1197    0.0323 C   0  0  0  0  0  0  0  0  0  0  0  0
   -1.1431    2.8442   -0.0388 C   0  0  0  0  0  0  0  0  0  0  0  0
   -1.0536    4.2684   -0.0713 C   0  0  0  0  0  0  0  0  0  0  0  0
   -2.0134    4.8002   -0.0446 H   0  0  0  0  0  0  0  0  0  0  0  0
    0.1650    4.9239   -0.1316 C   0  0  0  0  0  0  0  0  0  0  0  0
    0.2150    6.0227   -0.1567 H   0  0  0  0  0  0  0  0  0  0  0  0
    1.3301    4.1360   -0.1578 C   0  0  0  0  0  0  0  0  0  0  0  0
    2.3345    4.5790   -0.2032 H   0  0  0  0  0  0  0  0  0  0  0  0
    1.2117    2.7526   -0.1242 C   0  0  0  0  0  0  0  0  0  0  0  0
    2.1001    2.1082   -0.1409 H   0  0  0  0  0  0  0  0  0  0  0  0
   -5.3719   -1.4532    0.2388 C   0  0  0  0  0  0  0  0  0  0  0  0
   -5.3477   -2.5526    0.2427 H   0  0  0  0  0  0  0  0  0  0  0  0
   -6.5774   -0.7319    0.3291 C   0  0  0  0  0  0  0  0  0  0  0  0
   -7.5314   -1.2753    0.4059 H   0  0  0  0  0  0  0  0  0  0  0  0
   -6.5854    0.6783    0.3237 C   0  0  0  0  0  0  0  0  0  0  0  0
   -7.5454    1.2116    0.3962 H   0  0  0  0  0  0  0  0  0  0  0  0
   -5.3880    1.4125    0.2282 C   0  0  0  0  0  0  0  0  0  0  0  0
   -5.3762    2.5121    0.2240 H   0  0  0  0  0  0  0  0  0  0  0  0
  1 14  1  0  0  0  0
  2 15  1  0  0  0  0
  3 18  2  0  0  0  0
  3 15  1  0  0  0  0
  4 18  1  0  0  0  0
  5 19  1  0  0  0  0
  6  1  1  0  0  0  0
  7  6  1  0  0  0  0
  8  6  2  0  0  0  0
  8 10  1  0  0  0  0
  9  8  1  0  0  0  0
 10 12  2  0  0  0  0
 11 10  1  0  0  0  0
 12 14  1  0  0  0  0
 12 13  1  0  0  0  0
 14  2  2  0  0  0  0
 15 16  2  0  0  0  0
 16 28  1  0  0  0  0
 17 16  1  0  0  0  0
 17 34  1  0  0  0  0
 18 17  1  0  0  0  0
 19  4  2  0  0  0  0
 20 21  1  0  0  0  0
 20 19  1  0  0  0  0
 22 20  2  0  0  0  0
 23 22  1  0  0  0  0
 24 22  1  0  0  0  0
 24 26  2  0  0  0  0
 25 24  1  0  0  0  0
 26  5  1  0  0  0  0
 27 26  1  0  0  0  0
 28 29  1  0  0  0  0
 28 30  2  0  0  0  0
 30 31  1  0  0  0  0
 32 30  1  0  0  0  0
 32 33  1  0  0  0  0
 34 32  2  0  0  0  0
 35 34  1  0  0  0  0
M  END
