3,4,5
 OpenBabel05122313063D

 73 75  0  0  1  0  0  0  0  0999 V2000
   -2.4054    4.6630   -0.1319 O   0  0  0  0  0  0  0  0  0  0  0  0
   -3.1546   -4.3188   -0.2649 O   0  0  0  0  0  0  0  0  0  0  0  0
    2.4872   -0.2509    0.4772 N   0  0  0  0  0  0  0  0  0  0  0  0
    0.5660    1.7404    0.7105 N   0  0  0  0  0  2  0  0  0  0  0  0
    0.4086   -2.0795    0.2188 N   0  0  0  0  0  2  0  0  0  0  0  0
   -1.4913    2.5407   -0.0813 N   0  0  0  0  0  0  0  0  0  0  0  0
   -1.8682   -2.4231   -0.0170 N   0  0  0  0  0  0  0  0  0  0  0  0
    2.6792    0.7755    1.4879 C   0  0  0  0  0  0  0  0  0  0  0  0
    1.8236    1.9781    1.1924 C   0  0  2  0  0  3  0  0  0  0  0  0
    2.2979    3.2618    1.4642 C   0  0  0  0  0  0  0  0  0  0  0  0
    1.4424    4.3545    1.2699 C   0  0  0  0  0  0  0  0  0  0  0  0
    0.1638    4.1330    0.7744 C   0  0  0  0  0  0  0  0  0  0  0  0
   -0.2515    2.8102    0.4744 C   0  0  0  0  0  0  0  0  0  0  0  0
   -2.4939    3.4668   -0.3909 C   0  0  0  0  0  0  0  0  0  0  0  0
   -3.7625    2.8706   -1.0364 C   0  0  0  0  0  0  0  0  0  0  0  0
   -4.6901    4.0301   -1.4288 C   0  0  0  0  0  0  0  0  0  0  0  0
   -4.4531    2.0037    0.0373 C   0  0  0  0  0  0  0  0  0  0  0  0
   -3.4076    2.0460   -2.2893 C   0  0  0  0  0  0  0  0  0  0  0  0
    2.6887   -1.6162    0.9274 C   0  0  0  0  0  0  0  0  0  0  0  0
    1.6846   -2.5508    0.3041 C   0  0  1  0  0  3  0  0  0  0  0  0
    2.0133   -3.8642   -0.0346 C   0  0  0  0  0  0  0  0  0  0  0  0
    0.9892   -4.7390   -0.4317 C   0  0  0  0  0  0  0  0  0  0  0  0
   -0.3275   -4.2908   -0.4426 C   0  0  0  0  0  0  0  0  0  0  0  0
   -0.5946   -2.9445   -0.0942 C   0  0  0  0  0  0  0  0  0  0  0  0
   -3.0778   -3.1138   -0.0503 C   0  0  0  0  0  0  0  0  0  0  0  0
   -4.3123   -2.2171    0.1663 C   0  0  0  0  0  0  0  0  0  0  0  0
   -5.5475   -3.1183    0.3004 C   0  0  0  0  0  0  0  0  0  0  0  0
   -5.4647   -3.7823    1.1829 H   0  0  0  0  0  0  0  0  0  0  0  0
   -5.6670   -3.7645   -0.5896 H   0  0  0  0  0  0  0  0  0  0  0  0
   -6.4567   -2.4947    0.4141 H   0  0  0  0  0  0  0  0  0  0  0  0
   -4.4451   -1.3341   -1.0943 C   0  0  0  0  0  0  0  0  0  0  0  0
   -5.3301   -0.6733   -1.0090 H   0  0  0  0  0  0  0  0  0  0  0  0
   -4.5742   -1.9652   -1.9965 H   0  0  0  0  0  0  0  0  0  0  0  0
   -3.5529   -0.6992   -1.2566 H   0  0  0  0  0  0  0  0  0  0  0  0
   -4.1464   -1.3715    1.4468 C   0  0  0  0  0  0  0  0  0  0  0  0
   -3.2553   -0.7107    1.4380 H   0  0  0  0  0  0  0  0  0  0  0  0
   -4.0483   -2.0241    2.3373 H   0  0  0  0  0  0  0  0  0  0  0  0
   -5.0365   -0.7271    1.5923 H   0  0  0  0  0  0  0  0  0  0  0  0
    2.9861    0.0551   -0.8765 C   0  0  0  0  0  0  0  0  0  0  0  0
    4.4938    0.0900   -0.9778 C   0  0  0  0  0  0  0  0  0  0  0  0
    5.2065    1.2758   -0.6995 C   0  0  0  0  0  0  0  0  0  0  0  0
    6.6091    1.2924   -0.7155 C   0  0  0  0  0  0  0  0  0  0  0  0
    7.3235    0.1211   -1.0150 C   0  0  0  0  0  0  0  0  0  0  0  0
    6.6276   -1.0621   -1.3099 C   0  0  0  0  0  0  0  0  0  0  0  0
    5.2246   -1.0750   -1.2931 C   0  0  0  0  0  0  0  0  0  0  0  0
   -1.5687    1.5721   -0.4399 H   0  0  0  0  0  0  0  0  0  0  0  0
   -1.8651   -1.4154    0.2042 H   0  0  0  0  0  0  0  0  0  0  0  0
    2.3114    0.3564    2.4502 H   0  0  0  0  0  0  0  0  0  0  0  0
    3.7406    1.0883    1.6272 H   0  0  0  0  0  0  0  0  0  0  0  0
    3.3245    3.3841    1.8371 H   0  0  0  0  0  0  0  0  0  0  0  0
    1.7753    5.3795    1.4909 H   0  0  0  0  0  0  0  0  0  0  0  0
   -0.5507    4.9410    0.5864 H   0  0  0  0  0  0  0  0  0  0  0  0
   -4.2067    4.6960   -2.1697 H   0  0  0  0  0  0  0  0  0  0  0  0
   -5.6216    3.6268   -1.8741 H   0  0  0  0  0  0  0  0  0  0  0  0
   -4.9536    4.6489   -0.5504 H   0  0  0  0  0  0  0  0  0  0  0  0
   -4.6961    2.6091    0.9336 H   0  0  0  0  0  0  0  0  0  0  0  0
   -5.3999    1.5867   -0.3611 H   0  0  0  0  0  0  0  0  0  0  0  0
   -3.8195    1.1583    0.3611 H   0  0  0  0  0  0  0  0  0  0  0  0
   -2.9535    2.6933   -3.0666 H   0  0  0  0  0  0  0  0  0  0  0  0
   -4.3270    1.5962   -2.7160 H   0  0  0  0  0  0  0  0  0  0  0  0
   -2.6903    1.2252   -2.0898 H   0  0  0  0  0  0  0  0  0  0  0  0
    3.7253   -1.9965    0.7784 H   0  0  0  0  0  0  0  0  0  0  0  0
    2.4798   -1.6353    2.0188 H   0  0  0  0  0  0  0  0  0  0  0  0
    3.0610   -4.1894    0.0339 H   0  0  0  0  0  0  0  0  0  0  0  0
    1.2169   -5.7770   -0.7164 H   0  0  0  0  0  0  0  0  0  0  0  0
   -1.1788   -4.9327   -0.6934 H   0  0  0  0  0  0  0  0  0  0  0  0
    2.5429    1.0247   -1.1816 H   0  0  0  0  0  0  0  0  0  0  0  0
    2.5556   -0.7033   -1.5622 H   0  0  0  0  0  0  0  0  0  0  0  0
    4.6476    2.2016   -0.4865 H   0  0  0  0  0  0  0  0  0  0  0  0
    7.1492    2.2276   -0.5023 H   0  0  0  0  0  0  0  0  0  0  0  0
    8.4239    0.1335   -1.0305 H   0  0  0  0  0  0  0  0  0  0  0  0
    7.1817   -1.9786   -1.5642 H   0  0  0  0  0  0  0  0  0  0  0  0
    4.6803   -1.9985   -1.5494 H   0  0  0  0  0  0  0  0  0  0  0  0
  2 25  2  0  0  0  0
  3 19  1  0  0  0  0
  3  8  1  0  0  0  0
  4  9  1  0  0  0  0
  5 20  1  0  0  0  0
  6 13  1  0  0  0  0
  7 47  1  0  0  0  0
  8 49  1  0  0  0  0
  8 48  1  0  0  0  0
  9 10  1  0  0  0  0
  9  8  1  1  0  0  0
 10 50  1  0  0  0  0
 11 10  2  0  0  0  0
 11 51  1  0  0  0  0
 12 11  1  0  0  0  0
 13  4  1  0  0  0  0
 13 12  2  0  0  0  0
 14  1  2  0  0  0  0
 14  6  1  0  0  0  0
 15 14  1  0  0  0  0
 15 17  1  0  0  0  0
 16 15  1  0  0  0  0
 16 55  1  0  0  0  0
 17 58  1  0  0  0  0
 17 56  1  0  0  0  0
 18 61  1  0  0  0  0
 18 15  1  0  0  0  0
 19 63  1  0  0  0  0
 20 19  1  1  0  0  0
 21 64  1  0  0  0  0
 21 20  1  0  0  0  0
 22 21  2  0  0  0  0
 23 22  1  0  0  0  0
 23 24  2  0  0  0  0
 24  7  1  0  0  0  0
 24  5  1  0  0  0  0
 25  7  1  0  0  0  0
 25 26  1  0  0  0  0
 26 27  1  0  0  0  0
 26 35  1  0  0  0  0
 27 30  1  0  0  0  0
 27 28  1  0  0  0  0
 29 27  1  0  0  0  0
 31 32  1  0  0  0  0
 31 26  1  0  0  0  0
 33 31  1  0  0  0  0
 34 31  1  0  0  0  0
 35 38  1  0  0  0  0
 35 37  1  0  0  0  0
 36 35  1  0  0  0  0
 39  3  1  0  0  0  0
 40 39  1  0  0  0  0
 40 41  1  0  0  0  0
 41 69  1  0  0  0  0
 42 41  2  0  0  0  0
 42 70  1  0  0  0  0
 43 42  1  0  0  0  0
 44 45  1  0  0  0  0
 44 43  2  0  0  0  0
 45 40  2  0  0  0  0
 46  6  1  0  0  0  0
 52 12  1  0  0  0  0
 53 16  1  0  0  0  0
 54 16  1  0  0  0  0
 57 17  1  0  0  0  0
 59 18  1  0  0  0  0
 60 18  1  0  0  0  0
 62 19  1  0  0  0  0
 65 22  1  0  0  0  0
 66 23  1  0  0  0  0
 67 39  1  0  0  0  0
 68 39  1  0  0  0  0
 71 43  1  0  0  0  0
 72 44  1  0  0  0  0
 73 45  1  0  0  0  0
M  END
