1,13,16
 OpenBabel05122313063D

 43 45  0  0  1  0  0  0  0  0999 V2000
    2.0433   -0.2133    0.1196 N   0  0  0  0  0  2  0  0  0  0  0  0
    3.0909   -1.1021   -0.4893 C   0  0  0  0  0  0  0  0  0  0  0  0
    4.3017   -0.1379   -0.4818 C   0  0  0  0  0  0  0  0  0  0  0  0
    3.9762    0.8507    0.5325 O   0  0  0  0  0  0  0  0  0  0  0  0
    2.6456    0.7823    0.7007 C   0  0  1  0  0  3  0  0  0  0  0  0
    2.7048   -1.5433   -1.8988 C   0  0  0  0  0  0  0  0  0  0  0  0
    3.3426   -2.2959    0.4444 C   0  0  0  0  0  0  0  0  0  0  0  0
    1.9824    1.8662    1.4902 C   0  0  0  0  0  0  0  0  0  0  0  0
    0.8928    2.4889    0.6654 C   0  0  0  0  0  0  0  0  0  0  0  0
    0.5748    3.8312    0.4207 C   0  0  0  0  0  3  0  0  0  0  0  0
   -0.5744    3.8312   -0.4211 C   0  0  0  0  0  0  0  0  0  0  0  0
   -0.8928    2.4889   -0.6654 C   0  0  0  0  0  0  0  0  0  0  0  0
    0.0001    1.6858   -0.0001 N   0  0  0  0  0  0  0  0  0  0  0  0
   -1.9825    1.8663   -1.4901 C   0  0  0  0  0  0  0  0  0  0  0  0
   -2.6457    0.7824   -0.7004 C   0  0  1  0  0  3  0  0  0  0  0  0
   -2.0433   -0.2132   -0.1194 N   0  0  0  0  0  2  0  0  0  0  0  0
   -3.0908   -1.1020    0.4894 C   0  0  0  0  0  0  0  0  0  0  0  0
   -4.3017   -0.1378    0.4821 C   0  0  0  0  0  0  0  0  0  0  0  0
   -3.9763    0.8508   -0.5322 O   0  0  0  0  0  0  0  0  0  0  0  0
   -2.7047   -1.5435    1.8988 C   0  0  0  0  0  0  0  0  0  0  0  0
   -3.3425   -2.2957   -0.4445 C   0  0  0  0  0  0  0  0  0  0  0  0
    4.4251    0.4025   -1.4451 H   0  0  0  0  0  0  0  0  0  0  0  0
    5.2539   -0.6247   -0.2010 H   0  0  0  0  0  0  0  0  0  0  0  0
    2.7419    2.6163    1.7744 H   0  0  0  0  0  0  0  0  0  0  0  0
    1.5830    1.4137    2.4279 H   0  0  0  0  0  0  0  0  0  0  0  0
    1.1065    4.7029    0.8209 H   0  0  0  0  0  0  0  0  0  0  0  0
   -1.1060    4.7030   -0.8214 H   0  0  0  0  0  0  0  0  0  0  0  0
   -1.5833    1.4138   -2.4278 H   0  0  0  0  0  0  0  0  0  0  0  0
   -2.7420    2.6165   -1.7741 H   0  0  0  0  0  0  0  0  0  0  0  0
   -4.4251    0.4025    1.4454 H   0  0  0  0  0  0  0  0  0  0  0  0
   -5.2539   -0.6246    0.2013 H   0  0  0  0  0  0  0  0  0  0  0  0
    1.8217   -2.2091   -1.8509 H   0  0  0  0  0  0  0  0  0  0  0  0
    2.4591   -0.6679   -2.5321 H   0  0  0  0  0  0  0  0  0  0  0  0
    3.5449   -2.0960   -2.3664 H   0  0  0  0  0  0  0  0  0  0  0  0
    2.4133   -2.8847    0.5571 H   0  0  0  0  0  0  0  0  0  0  0  0
    4.1383   -2.9418    0.0204 H   0  0  0  0  0  0  0  0  0  0  0  0
    3.6704   -1.9467    1.4447 H   0  0  0  0  0  0  0  0  0  0  0  0
   -1.8215   -2.2092    1.8506 H   0  0  0  0  0  0  0  0  0  0  0  0
   -2.4590   -0.6681    2.5322 H   0  0  0  0  0  0  0  0  0  0  0  0
   -3.5447   -2.0964    2.3663 H   0  0  0  0  0  0  0  0  0  0  0  0
   -2.4132   -2.8845   -0.5574 H   0  0  0  0  0  0  0  0  0  0  0  0
   -4.1382   -2.9418   -0.0206 H   0  0  0  0  0  0  0  0  0  0  0  0
   -3.6704   -1.9464   -1.4447 H   0  0  0  0  0  0  0  0  0  0  0  0
  1  5  1  0  0  0  0
  2  3  1  0  0  0  0
  2  1  1  0  0  0  0
  2  7  1  0  0  0  0
  3 23  1  0  0  0  0
  3  4  1  0  0  0  0
  4  5  1  0  0  0  0
  5  8  1  6  0  0  0
  6 32  1  0  0  0  0
  6  2  1  0  0  0  0
  7 35  1  0  0  0  0
  7 37  1  0  0  0  0
  8 24  1  0  0  0  0
  8 25  1  0  0  0  0
  9  8  1  0  0  0  0
 10  9  1  0  0  0  0
 10 26  1  0  0  0  0
 11 10  1  0  0  0  0
 12 11  2  0  0  0  0
 12 13  1  0  0  0  0
 13  9  2  0  0  0  0
 14 12  1  0  0  0  0
 15 14  1  1  0  0  0
 15 19  1  0  0  0  0
 15 16  1  0  0  0  0
 16 17  1  0  0  0  0
 17 20  1  0  0  0  0
 18 17  1  0  0  0  0
 18 30  1  0  0  0  0
 19 18  1  0  0  0  0
 20 40  1  0  0  0  0
 20 39  1  0  0  0  0
 21 42  1  0  0  0  0
 21 17  1  0  0  0  0
 22  3  1  0  0  0  0
 27 11  1  0  0  0  0
 28 14  1  0  0  0  0
 29 14  1  0  0  0  0
 31 18  1  0  0  0  0
 33  6  1  0  0  0  0
 34  6  1  0  0  0  0
 36  7  1  0  0  0  0
 38 20  1  0  0  0  0
 41 21  1  0  0  0  0
 43 21  1  0  0  0  0
M  END
