4,25,46
 OpenBabel05122313063D

 63 66  0  0  0  0  0  0  0  0999 V2000
   -1.0944    0.6243   -0.9936 C   0  0  0  0  0  0  0  0  0  0  0  0
   -0.9744    0.7414   -2.0984 H   0  0  0  0  0  0  0  0  0  0  0  0
   -2.0672    1.0410   -0.6776 H   0  0  0  0  0  0  0  0  0  0  0  0
   -0.0204    1.2810   -0.2238 N   0  0  0  0  0  0  0  0  0  0  0  0
   -0.1498    2.7432   -0.0260 C   0  0  0  0  0  0  0  0  0  0  0  0
    0.6216    3.0352    0.7147 H   0  0  0  0  0  0  0  0  0  0  0  0
   -1.1316    2.9169    0.4574 H   0  0  0  0  0  0  0  0  0  0  0  0
   -0.0189    3.5851   -1.3059 C   0  0  0  0  0  0  0  0  0  0  0  0
    0.9694    3.4065   -1.7802 H   0  0  0  0  0  0  0  0  0  0  0  0
   -0.7948    3.2820   -2.0406 H   0  0  0  0  0  0  0  0  0  0  0  0
   -0.1707    5.0544   -0.9766 C   0  0  0  0  0  0  0  0  0  0  0  0
    0.9512    5.8255   -0.6136 C   0  0  0  0  0  0  0  0  0  0  0  0
    1.9547    5.3694   -0.6235 H   0  0  0  0  0  0  0  0  0  0  0  0
    0.8045    7.1731   -0.2536 C   0  0  0  0  0  0  0  0  0  0  0  0
    1.6900    7.7664    0.0189 H   0  0  0  0  0  0  0  0  0  0  0  0
   -0.4685    7.7646   -0.2480 C   0  0  0  0  0  0  0  0  0  0  0  0
   -0.5839    8.8225    0.0308 H   0  0  0  0  0  0  0  0  0  0  0  0
   -1.5930    7.0044   -0.6058 C   0  0  0  0  0  0  0  0  0  0  0  0
   -2.5921    7.4651   -0.6102 H   0  0  0  0  0  0  0  0  0  0  0  0
   -1.4443    5.6569   -0.9655 C   0  0  0  0  0  0  0  0  0  0  0  0
   -2.3306    5.0679   -1.2530 H   0  0  0  0  0  0  0  0  0  0  0  0
    1.3006    0.8001   -0.6711 C   0  0  0  0  0  0  0  0  0  0  0  0
    1.4519    0.9187   -1.7701 H   0  0  0  0  0  0  0  0  0  0  0  0
    2.0917    1.3430   -0.1222 H   0  0  0  0  0  0  0  0  0  0  0  0
    1.2905   -0.6114   -0.2478 N   0  0  0  0  0  0  0  0  0  0  0  0
    2.6076   -1.2671   -0.0827 C   0  0  0  0  0  0  0  0  0  0  0  0
    2.4183   -2.2491    0.3957 H   0  0  0  0  0  0  0  0  0  0  0  0
    3.1767   -0.6632    0.6518 H   0  0  0  0  0  0  0  0  0  0  0  0
    3.4124   -1.4427   -1.3811 C   0  0  0  0  0  0  0  0  0  0  0  0
    2.8327   -2.0482   -2.1098 H   0  0  0  0  0  0  0  0  0  0  0  0
    3.5964   -0.4528   -1.8503 H   0  0  0  0  0  0  0  0  0  0  0  0
    4.7318   -2.1228   -1.0859 C   0  0  0  0  0  0  0  0  0  0  0  0
    5.8639   -1.3633   -0.7301 C   0  0  0  0  0  0  0  0  0  0  0  0
    5.8033   -0.2627   -0.7205 H   0  0  0  0  0  0  0  0  0  0  0  0
    7.0725   -1.9949   -0.4021 C   0  0  0  0  0  0  0  0  0  0  0  0
    7.9516   -1.3897   -0.1350 H   0  0  0  0  0  0  0  0  0  0  0  0
    7.1615   -3.3957   -0.4219 C   0  0  0  0  0  0  0  0  0  0  0  0
    8.1102   -3.8917   -0.1683 H   0  0  0  0  0  0  0  0  0  0  0  0
    6.0387   -4.1615   -0.7729 C   0  0  0  0  0  0  0  0  0  0  0  0
    6.1051   -5.2595   -0.7973 H   0  0  0  0  0  0  0  0  0  0  0  0
    4.8310   -3.5281   -1.1006 C   0  0  0  0  0  0  0  0  0  0  0  0
    3.9554   -4.1353   -1.3831 H   0  0  0  0  0  0  0  0  0  0  0  0
    0.2851   -1.3547   -1.0217 C   0  0  0  0  0  0  0  0  0  0  0  0
    0.4187   -1.2530   -2.1264 H   0  0  0  0  0  0  0  0  0  0  0  0
    0.3255   -2.4227   -0.7398 H   0  0  0  0  0  0  0  0  0  0  0  0
   -0.9970   -0.7837   -0.5657 N   0  0  0  0  0  0  0  0  0  0  0  0
   -2.1512   -1.6666   -0.8724 C   0  0  0  0  0  0  0  0  0  0  0  0
   -1.9050   -2.6490   -0.4223 H   0  0  0  0  0  0  0  0  0  0  0  0
   -2.2071   -1.8144   -1.9759 H   0  0  0  0  0  0  0  0  0  0  0  0
   -3.5041   -1.1961   -0.3341 C   0  0  0  0  0  0  0  0  0  0  0  0
   -3.8321   -0.2667   -0.8445 H   0  0  0  0  0  0  0  0  0  0  0  0
   -3.4032   -0.9634    0.7446 H   0  0  0  0  0  0  0  0  0  0  0  0
   -4.5419   -2.2802   -0.5385 C   0  0  0  0  0  0  0  0  0  0  0  0
   -5.3848   -2.2765   -1.6662 C   0  0  0  0  0  0  0  0  0  0  0  0
   -5.3230   -1.4492   -2.3917 H   0  0  0  0  0  0  0  0  0  0  0  0
   -6.3135   -3.3096   -1.8658 C   0  0  0  0  0  0  0  0  0  0  0  0
   -6.9727   -3.2903   -2.7466 H   0  0  0  0  0  0  0  0  0  0  0  0
   -6.4060   -4.3602   -0.9401 C   0  0  0  0  0  0  0  0  0  0  0  0
   -7.1373   -5.1677   -1.0935 H   0  0  0  0  0  0  0  0  0  0  0  0
   -5.5686   -4.3735    0.1871 C   0  0  0  0  0  0  0  0  0  0  0  0
   -5.6436   -5.1900    0.9207 H   0  0  0  0  0  0  0  0  0  0  0  0
   -4.6417   -3.3402    0.3855 C   0  0  0  0  0  0  0  0  0  0  0  0
   -3.9925   -3.3491    1.2766 H   0  0  0  0  0  0  0  0  0  0  0  0
  1  3  1  0  0  0  0
  1 46  1  0  0  0  0
  1  4  1  0  0  0  0
  2  1  1  0  0  0  0
  4  5  1  0  0  0  0
  5  7  1  0  0  0  0
  5  6  1  0  0  0  0
  8 11  1  0  0  0  0
  8  5  1  0  0  0  0
  9  8  1  0  0  0  0
 10  8  1  0  0  0  0
 11 20  2  0  0  0  0
 11 12  1  0  0  0  0
 12 14  2  0  0  0  0
 13 12  1  0  0  0  0
 14 16  1  0  0  0  0
 14 15  1  0  0  0  0
 16 17  1  0  0  0  0
 18 16  2  0  0  0  0
 19 18  1  0  0  0  0
 20 18  1  0  0  0  0
 21 20  1  0  0  0  0
 22 25  1  0  0  0  0
 22  4  1  0  0  0  0
 22 24  1  0  0  0  0
 23 22  1  0  0  0  0
 25 26  1  0  0  0  0
 26 27  1  0  0  0  0
 26 28  1  0  0  0  0
 29 32  1  0  0  0  0
 29 26  1  0  0  0  0
 30 29  1  0  0  0  0
 31 29  1  0  0  0  0
 32 33  1  0  0  0  0
 33 34  1  0  0  0  0
 33 35  2  0  0  0  0
 35 36  1  0  0  0  0
 37 35  1  0  0  0  0
 37 38  1  0  0  0  0
 39 37  2  0  0  0  0
 40 39  1  0  0  0  0
 41 32  2  0  0  0  0
 41 39  1  0  0  0  0
 42 41  1  0  0  0  0
 43 45  1  0  0  0  0
 43 46  1  0  0  0  0
 43 25  1  0  0  0  0
 44 43  1  0  0  0  0
 47 46  1  0  0  0  0
 47 48  1  0  0  0  0
 47 50  1  0  0  0  0
 49 47  1  0  0  0  0
 50 52  1  0  0  0  0
 51 50  1  0  0  0  0
 53 50  1  0  0  0  0
 53 62  1  0  0  0  0
 54 53  2  0  0  0  0
 55 54  1  0  0  0  0
 56 54  1  0  0  0  0
 56 58  2  0  0  0  0
 57 56  1  0  0  0  0
 58 60  1  0  0  0  0
 59 58  1  0  0  0  0
 60 62  2  0  0  0  0
 60 61  1  0  0  0  0
 62 63  1  0  0  0  0
M  END
