1,2,3
 OpenBabel05122313063D

 48 51  0  0  1  0  0  0  0  0999 V2000
    0.4435    0.4304   -1.3758 N   0  0  0  0  0  0  0  0  0  0  0  0
    2.4768    1.3071    0.2688 N   0  0  0  0  0  2  0  0  0  0  0  0
    0.0855   -0.5021    1.0753 N   0  0  0  0  0  2  0  0  0  0  0  0
   -6.1136    0.0572   -0.2383 C   0  0  0  0  0  0  0  0  0  0  0  0
    2.1235    3.6421   -0.2469 C   0  0  0  0  0  0  0  0  0  0  0  0
    1.5426    4.4100   -0.7753 H   0  0  0  0  0  0  0  0  0  0  0  0
   -5.4530    1.1604    0.3385 C   0  0  0  0  0  0  0  0  0  0  0  0
   -5.9800    2.1246    0.4137 H   0  0  0  0  0  0  0  0  0  0  0  0
   -4.1059   -1.3166    0.1459 C   0  0  0  0  0  0  0  0  0  0  0  0
   -1.6853   -0.5224    2.4518 C   0  0  0  0  0  0  0  0  0  0  0  0
   -2.3908   -0.5836    3.2858 H   0  0  0  0  0  0  0  0  0  0  0  0
   -2.1214   -0.2933    1.1525 N   0  0  0  0  0  0  0  0  0  0  0  0
    1.7362    2.2883   -0.3333 C   0  0  2  0  0  3  0  0  0  0  0  0
   -3.3842   -2.6377    0.0513 C   0  0  0  0  0  0  0  0  0  0  0  0
   -2.6167   -2.6436   -0.7527 H   0  0  0  0  0  0  0  0  0  0  0  0
   -4.0906   -3.4576   -0.1748 H   0  0  0  0  0  0  0  0  0  0  0  0
   -2.8567   -2.8896    0.9931 H   0  0  0  0  0  0  0  0  0  0  0  0
   -3.4860   -0.1763    0.7056 C   0  0  0  0  0  0  0  0  0  0  0  0
    3.9939    2.9786    1.1232 C   0  0  0  0  0  0  0  0  0  0  0  0
    4.8936    3.2033    1.7125 H   0  0  0  0  0  0  0  0  0  0  0  0
   -4.1380    1.0715    0.8246 C   0  0  0  0  0  0  0  0  0  0  0  0
   -5.4224   -1.1678   -0.3240 C   0  0  0  0  0  0  0  0  0  0  0  0
   -5.9279   -2.0420   -0.7637 H   0  0  0  0  0  0  0  0  0  0  0  0
    0.5183    1.8562   -1.0221 C   0  0  0  0  0  0  0  0  0  0  0  0
   -0.5621    2.6465   -1.2937 C   0  0  0  0  0  0  0  0  0  0  0  0
   -0.5336    3.7144   -1.0341 H   0  0  0  0  0  0  0  0  0  0  0  0
   -1.0231   -0.2853    0.3516 C   0  0  2  0  0  3  0  0  0  0  0  0
   -0.3103   -0.6498    2.3891 C   0  0  0  0  0  0  0  0  0  0  0  0
    0.4078   -0.8445    3.1922 H   0  0  0  0  0  0  0  0  0  0  0  0
   -0.9344   -0.1151   -1.1471 C   0  0  1  0  0  0  0  0  0  0  0  0
   -1.9998    0.7533   -1.7795 C   0  0  0  0  0  0  0  0  0  0  0  0
   -2.9250    0.2852   -2.1430 H   0  0  0  0  0  0  0  0  0  0  0  0
    3.2578    3.9921    0.4878 C   0  0  0  0  0  0  0  0  0  0  0  0
    3.5728    5.0435    0.5564 H   0  0  0  0  0  0  0  0  0  0  0  0
    3.5745    1.6546    0.9818 C   0  0  0  0  0  0  0  0  0  0  0  0
    4.1312    0.8280    1.4459 H   0  0  0  0  0  0  0  0  0  0  0  0
   -1.7762    2.0898   -1.8620 C   0  0  0  0  0  0  0  0  0  0  0  0
   -2.5305    2.7642   -2.2929 H   0  0  0  0  0  0  0  0  0  0  0  0
   -7.5369    0.1731   -0.7153 C   0  0  0  0  0  0  0  0  0  0  0  0
   -7.7442   -0.5129   -1.5592 H   0  0  0  0  0  0  0  0  0  0  0  0
   -7.7815    1.2052   -1.0319 H   0  0  0  0  0  0  0  0  0  0  0  0
   -8.2419   -0.0935    0.1011 H   0  0  0  0  0  0  0  0  0  0  0  0
   -3.4391    2.2596    1.4299 C   0  0  0  0  0  0  0  0  0  0  0  0
   -4.0634    3.1690    1.3545 H   0  0  0  0  0  0  0  0  0  0  0  0
   -2.4708    2.4603    0.9249 H   0  0  0  0  0  0  0  0  0  0  0  0
   -3.2077    2.0982    2.5031 H   0  0  0  0  0  0  0  0  0  0  0  0
   -0.9405   -1.1200   -1.6228 H   0  0  0  0  0  0  0  0  0  0  0  0
    0.6775    0.3271   -2.3778 H   0  0  0  0  0  0  0  0  0  0  0  0
  1 30  1  0  0  0  0
  1 24  1  0  0  0  0
  2 35  1  0  0  0  0
  3 28  1  0  0  0  0
  4  7  1  0  0  0  0
  5 33  2  0  0  0  0
  6  5  1  0  0  0  0
  7  8  1  0  0  0  0
  7 21  2  0  0  0  0
  9 18  2  0  0  0  0
 10 11  1  0  0  0  0
 12 10  1  0  0  0  0
 13 24  1  1  0  0  0
 13  5  1  0  0  0  0
 13  2  1  0  0  0  0
 14  9  1  0  0  0  0
 14 17  1  0  0  0  0
 15 14  1  0  0  0  0
 16 14  1  0  0  0  0
 18 21  1  0  0  0  0
 18 12  1  0  0  0  0
 19 20  1  0  0  0  0
 21 43  1  0  0  0  0
 22  4  2  0  0  0  0
 22  9  1  0  0  0  0
 23 22  1  0  0  0  0
 25 26  1  0  0  0  0
 25 24  2  0  0  0  0
 27  3  1  6  0  0  0
 27 12  1  0  0  0  0
 28 10  2  0  0  0  0
 28 29  1  0  0  0  0
 30 47  1  6  0  0  0
 30 27  1  0  0  0  0
 31 30  1  0  0  0  0
 32 31  1  0  0  0  0
 33 34  1  0  0  0  0
 33 19  1  0  0  0  0
 35 19  2  0  0  0  0
 35 36  1  0  0  0  0
 37 31  2  0  0  0  0
 37 25  1  0  0  0  0
 38 37  1  0  0  0  0
 39  4  1  0  0  0  0
 39 42  1  0  0  0  0
 40 39  1  0  0  0  0
 41 39  1  0  0  0  0
 43 46  1  0  0  0  0
 44 43  1  0  0  0  0
 45 43  1  0  0  0  0
 48  1  1  0  0  0  0
M  END
