4,7,14
 OpenBabel05122313063D

 75 80  0  0  1  0  0  0  0  0999 V2000
   -7.4194   -4.7066    0.2606 O   0  0  0  0  0  0  0  0  0  0  0  0
    2.0297    1.1407   -0.2748 C   0  0  0  0  0  0  0  0  0  0  0  0
    1.5198    2.1131   -0.2773 H   0  0  0  0  0  0  0  0  0  0  0  0
    5.6556    1.9482   -0.2869 N   0  0  0  0  0  2  0  0  0  0  0  0
   -4.4628    0.0614    0.0652 N   0  0  0  0  0  0  0  0  0  0  0  0
    4.3419    2.2508   -0.3612 C   0  0  0  0  0  0  0  0  0  0  0  0
    4.0640   -0.1108   -0.3716 N   0  0  0  0  0  2  0  0  0  0  0  0
   -0.2041   -0.0210   -0.1531 C   0  0  0  0  0  0  0  0  0  0  0  0
   -3.0655    0.0357   -0.0084 C   0  0  0  0  0  0  0  0  0  0  0  0
    3.9107    3.5860   -0.4639 C   0  0  0  0  0  0  0  0  0  0  0  0
    2.8412    3.8290   -0.5326 H   0  0  0  0  0  0  0  0  0  0  0  0
   -5.2169   -1.1473    0.0863 C   0  0  0  0  0  0  0  0  0  0  0  0
   -6.7514   -3.5277    0.1553 C   0  0  0  0  0  0  0  0  0  0  0  0
    5.5693   -2.2302   -0.2213 N   0  0  0  0  0  2  0  0  0  0  0  0
    1.2676   -0.0517   -0.2269 C   0  0  0  0  0  0  0  0  0  0  0  0
    1.9800   -1.2752   -0.2403 C   0  0  0  0  0  0  0  0  0  0  0  0
    1.4348   -2.2239   -0.1494 H   0  0  0  0  0  0  0  0  0  0  0  0
    3.4294    1.0712   -0.3355 C   0  0  0  0  0  0  0  0  0  0  0  0
    4.2447   -2.4804   -0.2986 C   0  0  2  0  0  3  0  0  0  0  0  0
   -0.8934    1.0617    0.4463 C   0  0  0  0  0  0  0  0  0  0  0  0
   -0.3219    1.8794    0.9106 H   0  0  0  0  0  0  0  0  0  0  0  0
    4.8731    4.6049   -0.4882 C   0  0  0  0  0  0  0  0  0  0  0  0
    4.5599    5.6569   -0.5668 H   0  0  0  0  0  0  0  0  0  0  0  0
   -5.1714    1.2966    0.1129 C   0  0  0  0  0  0  0  0  0  0  0  0
   -5.6070   -3.3853    0.9730 C   0  0  0  0  0  0  0  0  0  0  0  0
   -5.3373   -4.2170    1.6398 H   0  0  0  0  0  0  0  0  0  0  0  0
   -7.1245   -2.4641   -0.6937 C   0  0  0  0  0  0  0  0  0  0  0  0
   -8.0079   -2.5399   -1.3410 H   0  0  0  0  0  0  0  0  0  0  0  0
   -2.3846   -1.0504   -0.6174 C   0  0  0  0  0  0  0  0  0  0  0  0
   -2.9660   -1.8705   -1.0606 H   0  0  0  0  0  0  0  0  0  0  0  0
    3.7594   -3.7987   -0.3742 C   0  0  0  0  0  0  0  0  0  0  0  0
    2.6813   -3.9986   -0.4473 H   0  0  0  0  0  0  0  0  0  0  0  0
   -7.3693    4.8618    0.3189 O   0  0  0  0  0  0  0  0  0  0  0  0
   -2.2841    1.0932    0.5259 C   0  0  0  0  0  0  0  0  0  0  0  0
   -2.7851    1.9337    1.0257 H   0  0  0  0  0  0  0  0  0  0  0  0
   -6.2082    1.4887    1.0530 C   0  0  0  0  0  0  0  0  0  0  0  0
   -6.4544    0.6788    1.7550 H   0  0  0  0  0  0  0  0  0  0  0  0
   -6.6066    3.7407    0.2011 C   0  0  0  0  0  0  0  0  0  0  0  0
   -0.9926   -1.0742   -0.6773 C   0  0  0  0  0  0  0  0  0  0  0  0
   -0.5031   -1.9157   -1.1904 H   0  0  0  0  0  0  0  0  0  0  0  0
    3.3811   -1.2645   -0.3100 C   0  0  0  0  0  0  0  0  0  0  0  0
   -6.3545   -1.2924   -0.7285 C   0  0  0  0  0  0  0  0  0  0  0  0
   -6.6447   -0.4681   -1.3962 H   0  0  0  0  0  0  0  0  0  0  0  0
    6.0513   -4.5757   -0.2943 C   0  0  0  0  0  0  0  0  0  0  0  0
    6.8006   -5.3803   -0.2920 H   0  0  0  0  0  0  0  0  0  0  0  0
    4.6789   -4.8567   -0.3667 C   0  0  0  0  0  0  0  0  0  0  0  0
    4.3230   -5.8965   -0.4229 H   0  0  0  0  0  0  0  0  0  0  0  0
   -8.5845   -4.9108   -0.5352 C   0  0  0  0  0  0  0  0  0  0  0  0
   -8.3260   -4.8195   -1.6163 H   0  0  0  0  0  0  0  0  0  0  0  0
   -9.3404   -4.1222   -0.3098 H   0  0  0  0  0  0  0  0  0  0  0  0
   -4.8583   -2.2097    0.9475 C   0  0  0  0  0  0  0  0  0  0  0  0
   -3.9804   -2.1025    1.6012 H   0  0  0  0  0  0  0  0  0  0  0  0
   -5.5679    3.5558   -0.7367 C   0  0  0  0  0  0  0  0  0  0  0  0
   -5.3004    4.3467   -1.4500 H   0  0  0  0  0  0  0  0  0  0  0  0
   -7.0798    6.0048   -0.4872 C   0  0  0  0  0  0  0  0  0  0  0  0
   -8.0086    6.6089   -0.4556 H   0  0  0  0  0  0  0  0  0  0  0  0
   -6.9266    5.7014   -1.5478 H   0  0  0  0  0  0  0  0  0  0  0  0
   -4.8723    2.3392   -0.7840 C   0  0  0  0  0  0  0  0  0  0  0  0
   -4.0749    2.1979   -1.5282 H   0  0  0  0  0  0  0  0  0  0  0  0
    6.4544   -3.2333   -0.2259 C   0  0  0  0  0  0  0  0  0  0  0  0
    7.5121   -2.9185   -0.1803 H   0  0  0  0  0  0  0  0  0  0  0  0
    6.2333    4.2694   -0.4175 C   0  0  0  0  0  0  0  0  0  0  0  0
    7.0150    5.0422   -0.4391 H   0  0  0  0  0  0  0  0  0  0  0  0
    6.5811    2.9134   -0.3191 C   0  0  0  0  0  0  0  0  0  0  0  0
    7.6252    2.5563   -0.2703 H   0  0  0  0  0  0  0  0  0  0  0  0
   -6.9184    2.6881    1.0913 C   0  0  0  0  0  0  0  0  0  0  0  0
   -7.7280    2.8465    1.8182 H   0  0  0  0  0  0  0  0  0  0  0  0
   -9.1296   -6.2909   -0.2220 C   0  0  0  0  0  0  0  0  0  0  0  0
   -8.3789   -7.0713   -0.4553 H   0  0  0  0  0  0  0  0  0  0  0  0
  -10.0391   -6.4891   -0.8223 H   0  0  0  0  0  0  0  0  0  0  0  0
   -9.3929   -6.3742    0.8508 H   0  0  0  0  0  0  0  0  0  0  0  0
   -5.9022    6.8156    0.0392 C   0  0  0  0  0  0  0  0  0  0  0  0
   -6.0841    7.1234    1.0879 H   0  0  0  0  0  0  0  0  0  0  0  0
   -5.7636    7.7301   -0.5722 H   0  0  0  0  0  0  0  0  0  0  0  0
   -4.9571    6.2383    0.0113 H   0  0  0  0  0  0  0  0  0  0  0  0
  2 15  2  0  0  0  0
  3  2  1  0  0  0  0
  5 12  1  0  0  0  0
  5 24  1  0  0  0  0
  6 18  2  0  0  0  0
  6  4  1  0  0  0  0
  7 18  1  0  0  0  0
  7 41  1  0  0  0  0
  8 20  1  0  0  0  0
  9  5  1  0  0  0  0
  9 34  1  0  0  0  0
 10  6  1  0  0  0  0
 11 10  1  0  0  0  0
 12 51  1  0  0  0  0
 13  1  1  0  0  0  0
 13 25  1  0  0  0  0
 15  8  1  0  0  0  0
 16 15  1  0  0  0  0
 16 17  1  0  0  0  0
 18  2  1  0  0  0  0
 19 41  1  6  0  0  0
 19 14  1  0  0  0  0
 20 34  2  0  0  0  0
 20 21  1  0  0  0  0
 22 10  2  0  0  0  0
 22 62  1  0  0  0  0
 23 22  1  0  0  0  0
 24 36  1  0  0  0  0
 25 26  1  0  0  0  0
 27 13  2  0  0  0  0
 28 27  1  0  0  0  0
 29  9  2  0  0  0  0
 30 29  1  0  0  0  0
 31 46  2  0  0  0  0
 31 19  1  0  0  0  0
 32 31  1  0  0  0  0
 34 35  1  0  0  0  0
 36 66  2  0  0  0  0
 36 37  1  0  0  0  0
 38 33  1  0  0  0  0
 38 66  1  0  0  0  0
 39 29  1  0  0  0  0
 39  8  2  0  0  0  0
 40 39  1  0  0  0  0
 41 16  2  0  0  0  0
 42 27  1  0  0  0  0
 42 12  2  0  0  0  0
 43 42  1  0  0  0  0
 44 45  1  0  0  0  0
 44 60  2  0  0  0  0
 46 44  1  0  0  0  0
 47 46  1  0  0  0  0
 48 50  1  0  0  0  0
 48 68  1  0  0  0  0
 48  1  1  0  0  0  0
 49 48  1  0  0  0  0
 51 25  2  0  0  0  0
 51 52  1  0  0  0  0
 53 38  2  0  0  0  0
 54 53  1  0  0  0  0
 55 56  1  0  0  0  0
 55 72  1  0  0  0  0
 55 33  1  0  0  0  0
 57 55  1  0  0  0  0
 58 53  1  0  0  0  0
 58 24  2  0  0  0  0
 59 58  1  0  0  0  0
 60 14  1  0  0  0  0
 60 61  1  0  0  0  0
 62 64  2  0  0  0  0
 63 62  1  0  0  0  0
 64  4  1  0  0  0  0
 64 65  1  0  0  0  0
 66 67  1  0  0  0  0
 68 71  1  0  0  0  0
 69 68  1  0  0  0  0
 70 68  1  0  0  0  0
 72 73  1  0  0  0  0
 74 72  1  0  0  0  0
 75 72  1  0  0  0  0
M  END
