4,5,41
 OpenBabel05122313063D

 71 75  0  0  1  0  0  0  0  0999 V2000
   -6.2116    0.2024   -0.6029 Si  0  0  0  0  0  0  0  0  0  0  0  0
   -5.3001   -0.3080    0.7991 O   0  0  0  0  0  0  0  0  0  0  0  0
   -2.9512   -0.0485    0.5910 N   0  0  0  0  0  0  0  0  0  0  0  0
   -1.8591   -0.8175    0.3577 N   0  0  0  0  0  2  0  0  0  0  0  0
   -0.0001   -2.3659   -0.0003 N   0  0  0  0  0  2  0  0  0  0  0  0
   -4.0888   -0.8512    0.6602 C   0  0  2  0  0  3  0  0  0  0  0  0
   -3.6860   -2.1756    0.5052 C   0  0  0  0  0  0  0  0  0  0  0  0
   -2.2789   -2.1106    0.3249 C   0  0  0  0  0  0  0  0  0  0  0  0
   -1.1888   -3.0456    0.1494 C   0  0  2  0  0  3  0  0  0  0  0  0
   -1.2083   -4.4486    0.1460 C   0  0  0  0  0  0  0  0  0  0  0  0
   -0.0003   -5.1517   -0.0003 C   0  0  0  0  0  0  0  0  0  0  0  0
   -2.8639    1.3551    0.7969 C   0  0  0  0  0  0  0  0  0  0  0  0
   -2.0040    2.1300   -0.0026 C   0  0  0  0  0  0  0  0  0  0  0  0
   -1.9306    3.5126    0.2146 C   0  0  0  0  0  0  0  0  0  0  0  0
   -2.7162    4.1261    1.2033 C   0  0  0  0  0  0  0  0  0  0  0  0
   -3.5774    3.3429    1.9893 C   0  0  0  0  0  0  0  0  0  0  0  0
   -3.6503    1.9564    1.7985 C   0  0  0  0  0  0  0  0  0  0  0  0
   -5.0312    1.0169   -1.8160 C   0  0  0  0  0  0  0  0  0  0  0  0
   -6.9901   -1.3475   -1.3274 C   0  0  0  0  0  0  0  0  0  0  0  0
   -7.4732    1.3863    0.1155 C   0  0  0  0  0  0  0  0  0  0  0  0
   -4.3379   -3.0530    0.5082 H   0  0  0  0  0  0  0  0  0  0  0  0
   -2.1656   -4.9748    0.2648 H   0  0  0  0  0  0  0  0  0  0  0  0
   -0.0004   -6.2510   -0.0003 H   0  0  0  0  0  0  0  0  0  0  0  0
   -1.4265    1.6504   -0.8105 H   0  0  0  0  0  0  0  0  0  0  0  0
   -1.2573    4.1144   -0.4144 H   0  0  0  0  0  0  0  0  0  0  0  0
   -2.6586    5.2133    1.3631 H   0  0  0  0  0  0  0  0  0  0  0  0
   -4.1900    3.8119    2.7741 H   0  0  0  0  0  0  0  0  0  0  0  0
   -4.3096    1.3384    2.4216 H   0  0  0  0  0  0  0  0  0  0  0  0
   -5.5476    1.1991   -2.7813 H   0  0  0  0  0  0  0  0  0  0  0  0
   -4.6661    1.9895   -1.4305 H   0  0  0  0  0  0  0  0  0  0  0  0
   -4.1424    0.3848   -2.0234 H   0  0  0  0  0  0  0  0  0  0  0  0
   -7.6096   -1.1028   -2.2148 H   0  0  0  0  0  0  0  0  0  0  0  0
   -7.6371   -1.8560   -0.5845 H   0  0  0  0  0  0  0  0  0  0  0  0
   -6.2040   -2.0603   -1.6507 H   0  0  0  0  0  0  0  0  0  0  0  0
   -8.1589    1.7592   -0.6724 H   0  0  0  0  0  0  0  0  0  0  0  0
   -6.9640    2.2588    0.5726 H   0  0  0  0  0  0  0  0  0  0  0  0
   -8.0838    0.8906    0.8967 H   0  0  0  0  0  0  0  0  0  0  0  0
    6.2111    0.2024    0.6041 Si  0  0  0  0  0  0  0  0  0  0  0  0
    5.3004   -0.3088   -0.7980 O   0  0  0  0  0  0  0  0  0  0  0  0
    2.9514   -0.0490   -0.5910 N   0  0  0  0  0  0  0  0  0  0  0  0
    1.8591   -0.8177   -0.3582 N   0  0  0  0  0  2  0  0  0  0  0  0
    4.0890   -0.8518   -0.6597 C   0  0  2  0  0  3  0  0  0  0  0  0
    3.6859   -2.1761   -0.5048 C   0  0  0  0  0  0  0  0  0  0  0  0
    2.2787   -2.1109   -0.3252 C   0  0  0  0  0  0  0  0  0  0  0  0
    1.1884   -3.0457   -0.1499 C   0  0  0  0  0  0  0  0  0  0  0  0
    1.2078   -4.4488   -0.1465 C   0  0  0  0  0  0  0  0  0  0  0  0
    2.8644    1.3546   -0.7973 C   0  0  0  0  0  0  0  0  0  0  0  0
    2.0043    2.1298    0.0016 C   0  0  0  0  0  0  0  0  0  0  0  0
    1.9312    3.5124   -0.2160 C   0  0  0  0  0  0  0  0  0  0  0  0
    2.7172    4.1255   -1.2045 C   0  0  0  0  0  0  0  0  0  0  0  0
    3.5787    3.3420   -1.9899 C   0  0  0  0  0  0  0  0  0  0  0  0
    3.6513    1.9556   -1.7987 C   0  0  0  0  0  0  0  0  0  0  0  0
    5.0300    1.0164    1.8168 C   0  0  0  0  0  0  0  0  0  0  0  0
    6.9901   -1.3470    1.3291 C   0  0  0  0  0  0  0  0  0  0  0  0
    7.4723    1.3868   -0.1140 C   0  0  0  0  0  0  0  0  0  0  0  0
    4.3377   -3.0536   -0.5076 H   0  0  0  0  0  0  0  0  0  0  0  0
    2.1650   -4.9752   -0.2653 H   0  0  0  0  0  0  0  0  0  0  0  0
    1.4264    1.6506    0.8094 H   0  0  0  0  0  0  0  0  0  0  0  0
    1.2576    4.1144    0.4126 H   0  0  0  0  0  0  0  0  0  0  0  0
    2.6599    5.2127   -1.3646 H   0  0  0  0  0  0  0  0  0  0  0  0
    4.1917    3.8107   -2.7746 H   0  0  0  0  0  0  0  0  0  0  0  0
    4.3108    1.3374   -2.4213 H   0  0  0  0  0  0  0  0  0  0  0  0
    5.5460    1.1986    2.7823 H   0  0  0  0  0  0  0  0  0  0  0  0
    4.6648    1.9890    1.4313 H   0  0  0  0  0  0  0  0  0  0  0  0
    4.1412    0.3841    2.0238 H   0  0  0  0  0  0  0  0  0  0  0  0
    7.6093   -1.1020    2.2167 H   0  0  0  0  0  0  0  0  0  0  0  0
    7.6375   -1.8554    0.5864 H   0  0  0  0  0  0  0  0  0  0  0  0
    6.2043   -2.0601    1.6522 H   0  0  0  0  0  0  0  0  0  0  0  0
    8.1578    1.7599    0.6740 H   0  0  0  0  0  0  0  0  0  0  0  0
    6.9629    2.2591   -0.5712 H   0  0  0  0  0  0  0  0  0  0  0  0
    8.0833    0.8913   -0.8951 H   0  0  0  0  0  0  0  0  0  0  0  0
  1 20  1  0  0  0  0
  1  2  1  0  0  0  0
  3  6  1  0  0  0  0
  3 12  1  0  0  0  0
  4  3  1  0  0  0  0
  5  9  1  0  0  0  0
  6  2  1  6  0  0  0
  7 21  1  0  0  0  0
  7  6  1  0  0  0  0
  8  4  1  0  0  0  0
  8  7  2  0  0  0  0
  9  8  1  1  0  0  0
 10  9  1  0  0  0  0
 10 22  1  0  0  0  0
 11 10  2  0  0  0  0
 12 17  1  0  0  0  0
 13 14  1  0  0  0  0
 13 12  2  0  0  0  0
 14 15  2  0  0  0  0
 15 26  1  0  0  0  0
 15 16  1  0  0  0  0
 16 27  1  0  0  0  0
 17 16  2  0  0  0  0
 17 28  1  0  0  0  0
 18 30  1  0  0  0  0
 18  1  1  0  0  0  0
 19  1  1  0  0  0  0
 19 33  1  0  0  0  0
 20 36  1  0  0  0  0
 20 37  1  0  0  0  0
 23 11  1  0  0  0  0
 24 13  1  0  0  0  0
 25 14  1  0  0  0  0
 29 18  1  0  0  0  0
 31 18  1  0  0  0  0
 32 19  1  0  0  0  0
 34 19  1  0  0  0  0
 35 20  1  0  0  0  0
 38 54  1  0  0  0  0
 38 53  1  0  0  0  0
 39 38  1  0  0  0  0
 40 41  1  0  0  0  0
 41 44  1  0  0  0  0
 42 39  1  1  0  0  0
 42 40  1  0  0  0  0
 42 43  1  0  0  0  0
 43 44  2  0  0  0  0
 44 45  1  0  0  0  0
 45 46  2  0  0  0  0
 45  5  1  0  0  0  0
 46 11  1  0  0  0  0
 47 40  1  0  0  0  0
 47 48  1  0  0  0  0
 48 58  1  0  0  0  0
 49 48  2  0  0  0  0
 49 59  1  0  0  0  0
 50 49  1  0  0  0  0
 51 52  1  0  0  0  0
 51 50  2  0  0  0  0
 52 47  2  0  0  0  0
 53 65  1  0  0  0  0
 53 63  1  0  0  0  0
 54 68  1  0  0  0  0
 54 66  1  0  0  0  0
 55 38  1  0  0  0  0
 55 69  1  0  0  0  0
 56 43  1  0  0  0  0
 57 46  1  0  0  0  0
 60 50  1  0  0  0  0
 61 51  1  0  0  0  0
 62 52  1  0  0  0  0
 64 53  1  0  0  0  0
 67 54  1  0  0  0  0
 70 55  1  0  0  0  0
 71 55  1  0  0  0  0
M  END
