1,2,3
 OpenBabel05122313063D

 56 60  0  0  0  0  0  0  0  0999 V2000
    2.0927   -1.3704   -0.0815 N   0  0  0  0  0  2  0  0  0  0  0  0
    0.2083    1.3290   -0.6777 N   0  0  0  0  0  2  0  0  0  0  0  0
   -0.3748   -1.3458   -1.3234 N   0  0  0  0  0  0  0  0  0  0  0  0
    3.3698   -1.1017    0.3486 C   0  0  0  0  0  0  0  0  0  0  0  0
    3.5726   -0.1218    1.3574 C   0  0  0  0  0  0  0  0  0  0  0  0
    4.8539    0.1641    1.8046 C   0  0  0  0  0  0  0  0  0  0  0  0
    5.9789   -0.5154    1.2622 C   0  0  0  0  0  0  0  0  0  0  0  0
    5.8085   -1.4773    0.2780 C   0  0  0  0  0  3  0  0  0  0  0  0
    4.5053   -1.7951   -0.2024 C   0  0  0  0  0  0  0  0  0  0  0  0
    4.2595   -2.7659   -1.2119 C   0  0  0  0  0  0  0  0  0  0  0  0
    2.9602   -3.0085   -1.6297 C   0  0  0  0  0  0  0  0  0  0  0  0
    1.8923   -2.2887   -1.0345 C   0  0  0  0  0  0  0  0  0  0  0  0
    0.4494   -2.5572   -1.4198 C   0  0  0  0  0  0  0  0  0  0  0  0
    0.2519    2.6295   -0.2366 C   0  0  0  0  0  0  0  0  0  0  0  0
    0.5708    2.8959    1.1227 C   0  0  0  0  0  0  0  0  0  0  0  0
    0.6280    4.2035    1.5830 C   0  0  0  0  0  0  0  0  0  0  0  0
    0.3672    5.2927    0.7079 C   0  0  0  0  0  0  0  0  0  0  0  0
    0.0466    5.0602   -0.6211 C   0  0  0  0  0  3  0  0  0  0  0  0
   -0.0200    3.7295   -1.1251 C   0  0  0  0  0  0  0  0  0  0  0  0
   -0.3514    3.4209   -2.4734 C   0  0  0  0  0  0  0  0  0  0  0  0
   -0.3997    2.0987   -2.8830 C   0  0  0  0  0  0  0  0  0  0  0  0
   -0.1074    1.0698   -1.9488 C   0  0  0  0  0  0  0  0  0  0  0  0
   -0.0658   -0.3820   -2.3914 C   0  0  0  0  0  0  0  0  0  0  0  0
   -1.8142   -1.6470   -1.2006 C   0  0  0  0  0  0  0  0  0  0  0  0
   -2.6596   -0.4368   -0.7825 C   0  0  0  0  0  0  0  0  0  0  0  0
   -4.0401   -0.8337   -0.3076 C   0  0  0  0  0  0  0  0  0  0  0  0
   -4.1933   -1.5964    0.8707 C   0  0  0  0  0  0  0  0  0  0  0  0
   -5.4649   -1.9692    1.3288 C   0  0  0  0  0  0  0  0  0  0  0  0
   -6.6107   -1.5840    0.6128 C   0  0  0  0  0  0  0  0  0  0  0  0
   -6.4724   -0.8295   -0.5615 C   0  0  0  0  0  0  0  0  0  0  0  0
   -5.1966   -0.4601   -1.0172 C   0  0  0  0  0  0  0  0  0  0  0  0
    2.6867    0.3889    1.7656 H   0  0  0  0  0  0  0  0  0  0  0  0
    5.0043    0.9228    2.5869 H   0  0  0  0  0  0  0  0  0  0  0  0
    6.9876   -0.2750    1.6288 H   0  0  0  0  0  0  0  0  0  0  0  0
    6.6746   -2.0080   -0.1455 H   0  0  0  0  0  0  0  0  0  0  0  0
    5.1058   -3.3104   -1.6579 H   0  0  0  0  0  0  0  0  0  0  0  0
    2.7440   -3.7476   -2.4149 H   0  0  0  0  0  0  0  0  0  0  0  0
    0.0343   -3.3020   -0.7066 H   0  0  0  0  0  0  0  0  0  0  0  0
    0.4046   -3.0318   -2.4290 H   0  0  0  0  0  0  0  0  0  0  0  0
    0.7590    2.0389    1.7866 H   0  0  0  0  0  0  0  0  0  0  0  0
    0.8772    4.4027    2.6361 H   0  0  0  0  0  0  0  0  0  0  0  0
    0.4187    6.3225    1.0906 H   0  0  0  0  0  0  0  0  0  0  0  0
   -0.1608    5.8978   -1.3043 H   0  0  0  0  0  0  0  0  0  0  0  0
   -0.5730    4.2377   -3.1774 H   0  0  0  0  0  0  0  0  0  0  0  0
   -0.6596    1.8340   -3.9184 H   0  0  0  0  0  0  0  0  0  0  0  0
    0.9715   -0.5760   -2.7416 H   0  0  0  0  0  0  0  0  0  0  0  0
   -0.7233   -0.5291   -3.2799 H   0  0  0  0  0  0  0  0  0  0  0  0
   -2.2138   -2.0830   -2.1493 H   0  0  0  0  0  0  0  0  0  0  0  0
   -1.9086   -2.4340   -0.4255 H   0  0  0  0  0  0  0  0  0  0  0  0
   -2.1164    0.0843    0.0347 H   0  0  0  0  0  0  0  0  0  0  0  0
   -2.7462    0.2883   -1.6172 H   0  0  0  0  0  0  0  0  0  0  0  0
   -3.2980   -1.9090    1.4338 H   0  0  0  0  0  0  0  0  0  0  0  0
   -5.5656   -2.5674    2.2475 H   0  0  0  0  0  0  0  0  0  0  0  0
   -7.6098   -1.8751    0.9697 H   0  0  0  0  0  0  0  0  0  0  0  0
   -7.3645   -0.5258   -1.1296 H   0  0  0  0  0  0  0  0  0  0  0  0
   -5.0963    0.1348   -1.9389 H   0  0  0  0  0  0  0  0  0  0  0  0
  1  4  1  0  0  0  0
  2 14  1  0  0  0  0
  3 24  1  0  0  0  0
  4  5  2  0  0  0  0
  5 32  1  0  0  0  0
  5  6  1  0  0  0  0
  6 33  1  0  0  0  0
  7 34  1  0  0  0  0
  7  6  2  0  0  0  0
  8  7  1  0  0  0  0
  9  8  1  0  0  0  0
  9  4  1  0  0  0  0
 10  9  2  0  0  0  0
 11 10  1  0  0  0  0
 11 12  2  0  0  0  0
 12  1  1  0  0  0  0
 13  3  1  0  0  0  0
 13 12  1  0  0  0  0
 13 38  1  0  0  0  0
 14 15  2  0  0  0  0
 15 16  1  0  0  0  0
 15 40  1  0  0  0  0
 16 41  1  0  0  0  0
 17 42  1  0  0  0  0
 17 16  2  0  0  0  0
 18 17  1  0  0  0  0
 19 18  1  0  0  0  0
 19 14  1  0  0  0  0
 20 19  2  0  0  0  0
 21 20  1  0  0  0  0
 21 22  2  0  0  0  0
 22  2  1  0  0  0  0
 23 22  1  0  0  0  0
 23  3  1  0  0  0  0
 24 25  1  0  0  0  0
 24 49  1  0  0  0  0
 25 26  1  0  0  0  0
 25 50  1  0  0  0  0
 26 27  1  0  0  0  0
 27 28  2  0  0  0  0
 27 52  1  0  0  0  0
 28 53  1  0  0  0  0
 29 54  1  0  0  0  0
 29 28  1  0  0  0  0
 30 29  2  0  0  0  0
 31 30  1  0  0  0  0
 31 26  2  0  0  0  0
 35  8  1  0  0  0  0
 36 10  1  0  0  0  0
 37 11  1  0  0  0  0
 39 13  1  0  0  0  0
 43 18  1  0  0  0  0
 44 20  1  0  0  0  0
 45 21  1  0  0  0  0
 46 23  1  0  0  0  0
 47 23  1  0  0  0  0
 48 24  1  0  0  0  0
 51 25  1  0  0  0  0
 55 30  1  0  0  0  0
 56 31  1  0  0  0  0
M  END
