1,2,3
 OpenBabel05122313063D

 53 57  0  0  0  0  0  0  0  0999 V2000
    2.2671   -0.6494    0.0406 N   0  0  0  0  0  2  0  0  0  0  0  0
   -0.7783    0.5976   -0.4378 N   0  0  0  0  0  2  0  0  0  0  0  0
   -0.0575   -2.0815   -0.0661 N   0  0  0  0  0  0  0  0  0  0  0  0
    3.3026    0.2331   -0.1353 C   0  0  0  0  0  0  0  0  0  0  0  0
    3.1352    1.5940    0.2365 C   0  0  0  0  0  0  0  0  0  0  0  0
    4.1794    2.4922    0.0719 C   0  0  0  0  0  0  0  0  0  0  0  0
    5.4231    2.0678   -0.4706 C   0  0  0  0  0  0  0  0  0  0  0  0
    5.6091    0.7465   -0.8487 C   0  0  0  0  0  3  0  0  0  0  0  0
    4.5572   -0.2013   -0.6938 C   0  0  0  0  0  0  0  0  0  0  0  0
    4.6738   -1.5681   -1.0694 C   0  0  0  0  0  0  0  0  0  0  0  0
    3.5995   -2.4271   -0.8982 C   0  0  0  0  0  0  0  0  0  0  0  0
    2.4008   -1.9263   -0.3269 C   0  0  0  0  0  0  0  0  0  0  0  0
    1.2115   -2.8294   -0.0684 C   0  0  0  0  0  0  0  0  0  0  0  0
   -1.3772    1.8304   -0.3600 C   0  0  0  0  0  0  0  0  0  0  0  0
   -0.9934    2.7423    0.6602 C   0  0  0  0  0  0  0  0  0  0  0  0
   -1.5969    3.9886    0.7483 C   0  0  0  0  0  0  0  0  0  0  0  0
   -2.6054    4.3733   -0.1761 C   0  0  0  0  0  0  0  0  0  0  0  0
   -3.0011    3.5016   -1.1794 C   0  0  0  0  0  3  0  0  0  0  0  0
   -2.4016    2.2150   -1.2964 C   0  0  0  0  0  0  0  0  0  0  0  0
   -2.7747    1.2715   -2.2922 C   0  0  0  0  0  0  0  0  0  0  0  0
   -2.1557    0.0338   -2.3367 C   0  0  0  0  0  0  0  0  0  0  0  0
   -1.1541   -0.2718   -1.3813 C   0  0  0  0  0  0  0  0  0  0  0  0
   -0.4047   -1.5877   -1.4190 C   0  0  0  0  0  0  0  0  0  0  0  0
   -1.1518   -2.9058    0.5295 C   0  0  0  0  0  0  0  0  0  0  0  0
   -2.5033   -2.2355    0.4691 C   0  0  0  0  0  0  0  0  0  0  0  0
   -3.4668   -2.6592   -0.4672 C   0  0  0  0  0  0  0  0  0  0  0  0
   -4.7004   -1.9989   -0.5750 C   0  0  0  0  0  0  0  0  0  0  0  0
   -4.9829   -0.9030    0.2540 C   0  0  0  0  0  0  0  0  0  0  0  0
   -4.0374   -0.4843    1.2058 C   0  0  0  0  0  0  0  0  0  0  0  0
   -2.8115   -1.1528    1.3170 C   0  0  0  0  0  0  0  0  0  0  0  0
    2.1634    1.9071    0.6467 H   0  0  0  0  0  0  0  0  0  0  0  0
    4.0459    3.5449    0.3621 H   0  0  0  0  0  0  0  0  0  0  0  0
    6.2390    2.7953   -0.5914 H   0  0  0  0  0  0  0  0  0  0  0  0
    6.5682    0.4124   -1.2724 H   0  0  0  0  0  0  0  0  0  0  0  0
    5.6184   -1.9305   -1.5034 H   0  0  0  0  0  0  0  0  0  0  0  0
    3.6626   -3.4841   -1.1945 H   0  0  0  0  0  0  0  0  0  0  0  0
    1.2003   -3.6693   -0.8027 H   0  0  0  0  0  0  0  0  0  0  0  0
    1.3289   -3.2950    0.9346 H   0  0  0  0  0  0  0  0  0  0  0  0
   -0.2172    2.4312    1.3752 H   0  0  0  0  0  0  0  0  0  0  0  0
   -1.2943    4.6867    1.5429 H   0  0  0  0  0  0  0  0  0  0  0  0
   -3.0721    5.3654   -0.0906 H   0  0  0  0  0  0  0  0  0  0  0  0
   -3.7839    3.7891   -1.8975 H   0  0  0  0  0  0  0  0  0  0  0  0
   -3.5633    1.5319   -3.0147 H   0  0  0  0  0  0  0  0  0  0  0  0
   -2.4388   -0.7185   -3.0859 H   0  0  0  0  0  0  0  0  0  0  0  0
    0.5430   -1.4122   -1.9713 H   0  0  0  0  0  0  0  0  0  0  0  0
   -0.9768   -2.3453   -1.9980 H   0  0  0  0  0  0  0  0  0  0  0  0
   -1.2030   -3.8846   -0.0025 H   0  0  0  0  0  0  0  0  0  0  0  0
   -0.8597   -3.1139    1.5792 H   0  0  0  0  0  0  0  0  0  0  0  0
   -3.2494   -3.5213   -1.1182 H   0  0  0  0  0  0  0  0  0  0  0  0
   -5.4453   -2.3450   -1.3071 H   0  0  0  0  0  0  0  0  0  0  0  0
   -5.9486   -0.3823    0.1711 H   0  0  0  0  0  0  0  0  0  0  0  0
   -4.2615    0.3632    1.8706 H   0  0  0  0  0  0  0  0  0  0  0  0
   -2.0750   -0.8224    2.0656 H   0  0  0  0  0  0  0  0  0  0  0  0
  2 14  1  0  0  0  0
  3 24  1  0  0  0  0
  4  1  1  0  0  0  0
  4  5  2  0  0  0  0
  5 31  1  0  0  0  0
  6  5  1  0  0  0  0
  6 32  1  0  0  0  0
  7  6  2  0  0  0  0
  8  9  1  0  0  0  0
  8  7  1  0  0  0  0
  9  4  1  0  0  0  0
 10 11  1  0  0  0  0
 10  9  2  0  0  0  0
 11 12  2  0  0  0  0
 12 13  1  0  0  0  0
 12  1  1  0  0  0  0
 13  3  1  0  0  0  0
 13 38  1  0  0  0  0
 14 15  2  0  0  0  0
 15 16  1  0  0  0  0
 15 39  1  0  0  0  0
 16 40  1  0  0  0  0
 17 41  1  0  0  0  0
 17 16  2  0  0  0  0
 18 17  1  0  0  0  0
 19 18  1  0  0  0  0
 19 14  1  0  0  0  0
 20 19  2  0  0  0  0
 21 20  1  0  0  0  0
 21 22  2  0  0  0  0
 22  2  1  0  0  0  0
 23 22  1  0  0  0  0
 23  3  1  0  0  0  0
 24 48  1  0  0  0  0
 25 24  1  0  0  0  0
 25 30  1  0  0  0  0
 26 25  2  0  0  0  0
 27 26  1  0  0  0  0
 27 28  2  0  0  0  0
 28 29  1  0  0  0  0
 29 30  2  0  0  0  0
 29 52  1  0  0  0  0
 30 53  1  0  0  0  0
 33  7  1  0  0  0  0
 34  8  1  0  0  0  0
 35 10  1  0  0  0  0
 36 11  1  0  0  0  0
 37 13  1  0  0  0  0
 42 18  1  0  0  0  0
 43 20  1  0  0  0  0
 44 21  1  0  0  0  0
 45 23  1  0  0  0  0
 46 23  1  0  0  0  0
 47 24  1  0  0  0  0
 49 26  1  0  0  0  0
 50 27  1  0  0  0  0
 51 28  1  0  0  0  0
M  END
