1,2,3
 OpenBabel05122313063D

 55 58  0  0  1  0  0  0  0  0999 V2000
   -1.9817   -0.3724    0.2832 N   0  0  0  0  0  2  0  0  0  0  0  0
   -0.4759    1.5919    0.3716 N   0  0  0  0  0  2  0  0  0  0  0  0
    1.6842    0.4664    0.0295 N   0  0  0  0  0  2  0  0  0  0  0  0
   -3.9852    0.6569    0.3794 N   0  0  0  0  0  0  0  0  0  0  0  0
   -2.6193    0.8151    0.4022 C   0  0  2  0  0  3  0  0  0  0  0  0
    0.5610    2.4783    0.3055 C   0  0  0  0  0  0  0  0  0  0  0  0
   -2.9560   -1.3434    0.1516 C   0  0  0  0  0  0  0  0  0  0  0  0
    1.8229    1.7873    0.1554 C   0  0  0  0  0  0  0  0  0  0  0  0
   -1.7806    1.9925    0.4531 C   0  0  0  0  0  0  0  0  0  0  0  0
   -1.0259    4.2914    0.5191 C   0  0  0  0  0  0  0  0  0  0  0  0
   -1.2482    5.3656    0.5900 H   0  0  0  0  0  0  0  0  0  0  0  0
    3.1327    2.5121    0.1345 C   0  0  0  0  0  0  0  0  0  0  0  0
    3.9791    1.8056    0.1990 H   0  0  0  0  0  0  0  0  0  0  0  0
    3.1980    3.2343    0.9732 H   0  0  0  0  0  0  0  0  0  0  0  0
    3.2404    3.0845   -0.8112 H   0  0  0  0  0  0  0  0  0  0  0  0
    2.8388   -0.3729   -0.0046 C   0  0  0  0  0  0  0  0  0  0  0  0
    0.3016    3.8588    0.3829 C   0  0  0  0  0  0  0  0  0  0  0  0
    1.1296    4.5792    0.3304 H   0  0  0  0  0  0  0  0  0  0  0  0
   -2.0834    3.3592    0.5511 C   0  0  0  0  0  0  0  0  0  0  0  0
   -3.1207    3.7027    0.6450 H   0  0  0  0  0  0  0  0  0  0  0  0
   -4.2320   -0.7045    0.2218 C   0  0  0  0  0  0  0  0  0  0  0  0
   -2.8594   -2.7363   -0.0289 C   0  0  0  0  0  0  0  0  0  0  0  0
   -1.8623   -3.1943   -0.0958 H   0  0  0  0  0  0  0  0  0  0  0  0
   -4.9786    1.7073    0.4594 C   0  0  0  0  0  0  0  0  0  0  0  0
   -4.8886    2.4046   -0.3984 H   0  0  0  0  0  0  0  0  0  0  0  0
   -4.8803    2.2773    1.4055 H   0  0  0  0  0  0  0  0  0  0  0  0
   -5.9843    1.2526    0.4333 H   0  0  0  0  0  0  0  0  0  0  0  0
    4.5617   -1.5834   -1.1756 C   0  0  0  0  0  0  0  0  0  0  0  0
    5.0085   -1.9279   -2.1214 H   0  0  0  0  0  0  0  0  0  0  0  0
   -5.4300   -1.4319    0.1330 C   0  0  0  0  0  0  0  0  0  0  0  0
   -6.4148   -0.9459    0.1883 H   0  0  0  0  0  0  0  0  0  0  0  0
    3.3800   -0.7626    1.2504 C   0  0  0  0  0  0  0  0  0  0  0  0
    5.1465   -1.9374    0.0454 C   0  0  0  0  0  0  0  0  0  0  0  0
    6.0626   -2.5472    0.0612 H   0  0  0  0  0  0  0  0  0  0  0  0
   -5.3166   -2.8161   -0.0402 C   0  0  0  0  0  0  0  0  0  0  0  0
   -6.2324   -3.4209   -0.1191 H   0  0  0  0  0  0  0  0  0  0  0  0
    3.3867   -0.8082   -1.2349 C   0  0  0  0  0  0  0  0  0  0  0  0
   -4.0536   -3.4545   -0.1233 C   0  0  0  0  0  0  0  0  0  0  0  0
   -4.0150   -4.5442   -0.2691 H   0  0  0  0  0  0  0  0  0  0  0  0
    2.6518   -0.3747    2.5199 C   0  0  0  0  0  0  0  0  0  0  0  0
    1.5912   -0.6813    2.3775 H   0  0  0  0  0  0  0  0  0  0  0  0
    2.6208    0.7352    2.6051 H   0  0  0  0  0  0  0  0  0  0  0  0
    4.5489   -1.5413    1.2504 C   0  0  0  0  0  0  0  0  0  0  0  0
    4.9909   -1.8565    2.2061 H   0  0  0  0  0  0  0  0  0  0  0  0
    2.7353   -0.5198   -2.5669 C   0  0  0  0  0  0  0  0  0  0  0  0
    3.2149   -1.1798   -3.3187 H   0  0  0  0  0  0  0  0  0  0  0  0
    1.6633   -0.8114   -2.5132 H   0  0  0  0  0  0  0  0  0  0  0  0
    3.1970   -0.9670    3.8160 C   0  0  0  0  0  0  0  0  0  0  0  0
    2.5742   -0.6539    4.6772 H   0  0  0  0  0  0  0  0  0  0  0  0
    4.2368   -0.6394    4.0222 H   0  0  0  0  0  0  0  0  0  0  0  0
    3.1923   -2.0755    3.7869 H   0  0  0  0  0  0  0  0  0  0  0  0
    2.8013    0.9344   -3.0566 C   0  0  0  0  0  0  0  0  0  0  0  0
    2.4757    0.9894   -4.1143 H   0  0  0  0  0  0  0  0  0  0  0  0
    3.8275    1.3526   -2.9898 H   0  0  0  0  0  0  0  0  0  0  0  0
    2.0999    1.5768   -2.4906 H   0  0  0  0  0  0  0  0  0  0  0  0
  1  5  1  0  0  0  0
  2  9  1  0  0  0  0
  3  8  1  0  0  0  0
  4  5  1  0  0  0  0
  4 24  1  0  0  0  0
  5  9  1  6  0  0  0
  6  2  1  0  0  0  0
  6 17  1  0  0  0  0
  7 21  1  0  0  0  0
  7  1  1  0  0  0  0
  8  6  2  0  0  0  0
  9 19  2  0  0  0  0
 10 19  1  0  0  0  0
 10 11  1  0  0  0  0
 12  8  1  0  0  0  0
 12 13  1  0  0  0  0
 12 14  1  0  0  0  0
 15 12  1  0  0  0  0
 16  3  1  0  0  0  0
 16 32  1  0  0  0  0
 17 10  2  0  0  0  0
 18 17  1  0  0  0  0
 19 20  1  0  0  0  0
 21  4  1  0  0  0  0
 22  7  2  0  0  0  0
 23 22  1  0  0  0  0
 24 26  1  0  0  0  0
 25 24  1  0  0  0  0
 27 24  1  0  0  0  0
 28 33  2  0  0  0  0
 29 28  1  0  0  0  0
 30 31  1  0  0  0  0
 30 21  2  0  0  0  0
 32 43  2  0  0  0  0
 32 40  1  0  0  0  0
 33 34  1  0  0  0  0
 33 43  1  0  0  0  0
 35 30  1  0  0  0  0
 36 35  1  0  0  0  0
 37 28  1  0  0  0  0
 37 16  2  0  0  0  0
 38 35  2  0  0  0  0
 38 22  1  0  0  0  0
 39 38  1  0  0  0  0
 40 42  1  0  0  0  0
 40 48  1  0  0  0  0
 41 40  1  0  0  0  0
 43 44  1  0  0  0  0
 45 47  1  0  0  0  0
 45 37  1  0  0  0  0
 46 45  1  0  0  0  0
 48 50  1  0  0  0  0
 48 49  1  0  0  0  0
 51 48  1  0  0  0  0
 52 54  1  0  0  0  0
 52 45  1  0  0  0  0
 52 55  1  0  0  0  0
 53 52  1  0  0  0  0
M  END
