2,3,5
 OpenBabel05122313063D

 51 55  0  0  1  0  0  0  0  0999 V2000
    6.0510   -1.8351    0.0069 Br  0  0  0  0  0  0  0  0  0  0  0  0
   -2.0983    0.6081   -0.1923 N   0  0  0  0  0  2  0  0  0  0  0  0
    0.3010    0.2777   -0.0379 N   0  0  0  0  0  2  0  0  0  0  0  0
   -0.0064    1.5807   -0.1495 C   0  0  1  0  0  3  0  0  0  0  0  0
   -3.0459   -1.7075    0.0996 N   0  0  0  0  0  2  0  0  0  0  0  0
    1.6637   -0.1587   -0.0315 C   0  0  0  0  0  0  0  0  0  0  0  0
   -3.9885   -0.7302   -0.0924 C   0  0  0  0  0  0  0  0  0  0  0  0
   -1.4311    1.8030   -0.2580 C   0  0  0  0  0  0  0  0  0  0  0  0
   -4.2637    1.7141   -0.4569 C   0  0  0  0  0  0  0  0  0  0  0  0
   -3.4586    0.5705   -0.2531 C   0  0  0  0  0  0  0  0  0  0  0  0
    0.9658    2.6982   -0.1495 C   0  0  0  0  0  0  0  0  0  0  0  0
   -2.1781    2.9922   -0.4804 C   0  0  0  0  0  0  0  0  0  0  0  0
   -1.6345    3.9428   -0.5720 H   0  0  0  0  0  0  0  0  0  0  0  0
   -5.3911   -0.9470   -0.1488 C   0  0  0  0  0  0  0  0  0  0  0  0
    3.7178   -0.6402    1.1698 C   0  0  0  0  0  0  0  0  0  0  0  0
    4.3064   -0.6344    2.0983 H   0  0  0  0  0  0  0  0  0  0  0  0
    3.5520   -1.1319   -1.2099 C   0  0  0  0  0  0  0  0  0  0  0  0
    4.0115   -1.5066   -2.1359 H   0  0  0  0  0  0  0  0  0  0  0  0
    4.2740   -1.1428   -0.0129 C   0  0  0  0  0  0  0  0  0  0  0  0
   -3.4794   -2.9675    0.2461 C   0  0  0  0  0  0  0  0  0  0  0  0
   -2.7015   -3.7331    0.3812 H   0  0  0  0  0  0  0  0  0  0  0  0
   -3.5691    2.9573   -0.5845 C   0  0  0  0  0  0  0  0  0  0  0  0
   -4.1333    3.8851   -0.7587 H   0  0  0  0  0  0  0  0  0  0  0  0
    2.2368   -0.6319   -1.2399 C   0  0  0  0  0  0  0  0  0  0  0  0
    2.4060   -0.1342    1.1787 C   0  0  0  0  0  0  0  0  0  0  0  0
    2.9857    3.8129   -0.9482 C   0  0  0  0  0  0  0  0  0  0  0  0
    3.8521    3.8306   -1.6263 H   0  0  0  0  0  0  0  0  0  0  0  0
   -5.6825    1.4828   -0.5063 C   0  0  0  0  0  0  0  0  0  0  0  0
   -6.3517    2.3425   -0.6641 H   0  0  0  0  0  0  0  0  0  0  0  0
   -5.8180   -2.2909    0.0128 C   0  0  0  0  0  0  0  0  0  0  0  0
   -6.8896   -2.5398   -0.0140 H   0  0  0  0  0  0  0  0  0  0  0  0
    2.0858    2.7408   -1.0087 C   0  0  0  0  0  0  0  0  0  0  0  0
    2.2450    1.9366   -1.7368 H   0  0  0  0  0  0  0  0  0  0  0  0
   -6.2196    0.2127   -0.3613 C   0  0  0  0  0  0  0  0  0  0  0  0
   -7.3105    0.0738   -0.4071 H   0  0  0  0  0  0  0  0  0  0  0  0
   -4.8559   -3.2863    0.2062 C   0  0  0  0  0  0  0  0  0  0  0  0
   -5.1568   -4.3360    0.3340 H   0  0  0  0  0  0  0  0  0  0  0  0
    1.5267   -0.5335   -2.5676 C   0  0  0  0  0  0  0  0  0  0  0  0
    2.0054    0.2395   -3.2084 H   0  0  0  0  0  0  0  0  0  0  0  0
    0.4586   -0.2840   -2.4495 H   0  0  0  0  0  0  0  0  0  0  0  0
    1.5821   -1.4943   -3.1140 H   0  0  0  0  0  0  0  0  0  0  0  0
    1.8342    0.4578    2.4376 C   0  0  0  0  0  0  0  0  0  0  0  0
    2.4893    0.2496    3.3045 H   0  0  0  0  0  0  0  0  0  0  0  0
    0.8180    0.0667    2.6466 H   0  0  0  0  0  0  0  0  0  0  0  0
    1.7414    1.5611    2.3421 H   0  0  0  0  0  0  0  0  0  0  0  0
    1.6759    4.8283    0.8254 C   0  0  0  0  0  0  0  0  0  0  0  0
    1.5163    5.6383    1.5531 H   0  0  0  0  0  0  0  0  0  0  0  0
    2.7869    4.8580   -0.0322 C   0  0  0  0  0  0  0  0  0  0  0  0
    3.4992    5.6954    0.0145 H   0  0  0  0  0  0  0  0  0  0  0  0
    0.7720    3.7589    0.7681 C   0  0  0  0  0  0  0  0  0  0  0  0
   -0.0810    3.7209    1.4623 H   0  0  0  0  0  0  0  0  0  0  0  0
  3  6  1  0  0  0  0
  4  3  1  1  0  0  0
  5 20  1  0  0  0  0
  6 25  1  0  0  0  0
  7  5  1  0  0  0  0
  8  2  1  0  0  0  0
  8  4  1  0  0  0  0
  9 10  1  0  0  0  0
 10  2  1  0  0  0  0
 10  7  2  0  0  0  0
 11  4  1  0  0  0  0
 11 50  1  0  0  0  0
 12  8  2  0  0  0  0
 13 12  1  0  0  0  0
 14  7  1  0  0  0  0
 14 30  2  0  0  0  0
 15 25  2  0  0  0  0
 15 16  1  0  0  0  0
 17 19  2  0  0  0  0
 18 17  1  0  0  0  0
 19  1  1  0  0  0  0
 19 15  1  0  0  0  0
 20 21  1  0  0  0  0
 22 12  1  0  0  0  0
 22  9  2  0  0  0  0
 23 22  1  0  0  0  0
 24 17  1  0  0  0  0
 24  6  2  0  0  0  0
 25 42  1  0  0  0  0
 26 48  2  0  0  0  0
 27 26  1  0  0  0  0
 28  9  1  0  0  0  0
 28 34  2  0  0  0  0
 29 28  1  0  0  0  0
 30 36  1  0  0  0  0
 31 30  1  0  0  0  0
 32 26  1  0  0  0  0
 32 11  2  0  0  0  0
 33 32  1  0  0  0  0
 34 14  1  0  0  0  0
 35 34  1  0  0  0  0
 36 20  2  0  0  0  0
 36 37  1  0  0  0  0
 38 40  1  0  0  0  0
 38 24  1  0  0  0  0
 39 38  1  0  0  0  0
 41 38  1  0  0  0  0
 42 44  1  0  0  0  0
 42 43  1  0  0  0  0
 45 42  1  0  0  0  0
 46 47  1  0  0  0  0
 48 49  1  0  0  0  0
 48 46  1  0  0  0  0
 50 46  2  0  0  0  0
 50 51  1  0  0  0  0
M  END
