2,3,4
 OpenBabel05122313063D

 40 43  0  0  0  0  0  0  0  0999 V2000
   -1.5550    3.0321   -2.8705 S   0  0  0  0  0  0  0  0  0  0  0  0
   -1.8457    0.0960   -0.3878 N   0  0  0  0  0  2  0  0  0  0  0  0
   -0.0424    1.4905   -1.3868 N   0  0  0  0  0  2  0  0  0  0  0  0
   -0.6577   -1.3555    1.1575 N   0  0  0  0  0  2  0  0  0  0  0  0
   -2.3462    0.9981   -1.2403 N   0  0  0  0  0  0  0  0  0  0  0  0
   -1.9229   -1.6264    1.0870 N   0  0  0  0  0  0  0  0  0  0  0  0
    2.2387    2.4142   -1.8786 C   0  0  0  0  0  0  0  0  0  0  0  0
    2.9518    3.3726   -2.6066 C   0  0  0  0  0  0  0  0  0  0  0  0
    2.2989    4.2828   -3.4634 C   0  0  0  0  0  0  0  0  0  0  0  0
    0.9044    4.2499   -3.6072 C   0  0  0  0  0  0  0  0  0  0  0  0
    0.1857    3.2931   -2.8794 C   0  0  0  0  0  0  0  0  0  0  0  0
    0.8342    2.3623   -2.0075 C   0  0  0  0  0  0  0  0  0  0  0  0
   -1.3247    1.7191   -1.7282 C   0  0  0  0  0  0  0  0  0  0  0  0
   -2.6303   -0.8032    0.2695 C   0  0  0  0  0  0  0  0  0  0  0  0
   -4.9215   -0.2481   -0.6963 C   0  0  0  0  0  0  0  0  0  0  0  0
   -6.3033   -0.4837   -0.7237 C   0  0  0  0  0  0  0  0  0  0  0  0
   -6.8869   -1.4414    0.1188 C   0  0  0  0  0  0  0  0  0  0  0  0
   -6.0696   -2.1710    0.9997 C   0  0  0  0  0  0  0  0  0  0  0  0
   -4.6912   -1.9456    1.0363 C   0  0  0  0  0  0  0  0  0  0  0  0
   -4.0883   -0.9793    0.1875 C   0  0  0  0  0  0  0  0  0  0  0  0
   -0.2119   -3.6933    1.7435 C   0  0  0  0  0  0  0  0  0  0  0  0
    0.5941   -4.6520    2.3671 C   0  0  0  0  0  0  0  0  0  0  0  0
    1.7404   -4.2620    3.0808 C   0  0  0  0  0  0  0  0  0  0  0  0
    2.0713   -2.9001    3.1739 C   0  0  0  0  0  0  0  0  0  0  0  0
    1.2749   -1.9311    2.5521 C   0  0  0  0  0  0  0  0  0  0  0  0
    0.1307   -2.3242    1.8281 C   0  0  0  0  0  0  0  0  0  0  0  0
    2.7590    1.7194   -1.2099 H   0  0  0  0  0  0  0  0  0  0  0  0
    4.0465    3.4118   -2.5045 H   0  0  0  0  0  0  0  0  0  0  0  0
    2.8841    5.0257   -4.0249 H   0  0  0  0  0  0  0  0  0  0  0  0
    0.3870    4.9558   -4.2729 H   0  0  0  0  0  0  0  0  0  0  0  0
   -4.4690    0.5028   -1.3536 H   0  0  0  0  0  0  0  0  0  0  0  0
   -6.9322    0.0946   -1.4181 H   0  0  0  0  0  0  0  0  0  0  0  0
   -7.9728   -1.6192    0.0917 H   0  0  0  0  0  0  0  0  0  0  0  0
   -6.5132   -2.9247    1.6683 H   0  0  0  0  0  0  0  0  0  0  0  0
   -4.0491   -2.5132    1.7234 H   0  0  0  0  0  0  0  0  0  0  0  0
   -1.1008   -3.9772    1.1644 H   0  0  0  0  0  0  0  0  0  0  0  0
    0.3312   -5.7177    2.2844 H   0  0  0  0  0  0  0  0  0  0  0  0
    2.3777   -5.0196    3.5609 H   0  0  0  0  0  0  0  0  0  0  0  0
    2.9624   -2.5841    3.7364 H   0  0  0  0  0  0  0  0  0  0  0  0
    1.5312   -0.8690    2.6394 H   0  0  0  0  0  0  0  0  0  0  0  0
  1 13  1  0  0  0  0
  2 14  1  0  0  0  0
  4 26  1  0  0  0  0
  5  2  1  0  0  0  0
  6  4  1  0  0  0  0
  7 27  1  0  0  0  0
  8 28  1  0  0  0  0
  8  7  2  0  0  0  0
  9  8  1  0  0  0  0
 10  9  2  0  0  0  0
 10 11  1  0  0  0  0
 11  1  1  0  0  0  0
 11 12  2  0  0  0  0
 12  7  1  0  0  0  0
 12  3  1  0  0  0  0
 13  3  1  0  0  0  0
 13  5  2  0  0  0  0
 14  6  2  0  0  0  0
 15 20  1  0  0  0  0
 16 15  2  0  0  0  0
 16 17  1  0  0  0  0
 17 18  2  0  0  0  0
 18 19  1  0  0  0  0
 18 34  1  0  0  0  0
 19 35  1  0  0  0  0
 20 14  1  0  0  0  0
 20 19  2  0  0  0  0
 21 26  2  0  0  0  0
 21 22  1  0  0  0  0
 22 23  2  0  0  0  0
 23 24  1  0  0  0  0
 23 38  1  0  0  0  0
 24 39  1  0  0  0  0
 25 40  1  0  0  0  0
 25 24  2  0  0  0  0
 26 25  1  0  0  0  0
 29  9  1  0  0  0  0
 30 10  1  0  0  0  0
 31 15  1  0  0  0  0
 32 16  1  0  0  0  0
 33 17  1  0  0  0  0
 36 21  1  0  0  0  0
 37 22  1  0  0  0  0
M  END
