1,3,5
 OpenBabel05122313063D

 39 42  0  0  1  0  0  0  0  0999 V2000
    1.9126   -1.4939   -0.2527 N   0  0  0  0  0  2  0  0  0  0  0  0
    3.4707    0.3326   -0.2971 N   0  0  0  0  0  0  0  0  0  0  0  0
    1.3742    1.4327   -0.4214 N   0  0  0  0  0  2  0  0  0  0  0  0
   -0.6971    2.4541   -0.3828 N   0  0  0  0  0  0  0  0  0  0  0  0
   -1.2068    1.1805   -0.2651 N   0  0  0  0  0  2  0  0  0  0  0  0
    1.7228   -2.8375   -0.3924 C   0  0  0  0  0  3  0  0  0  0  0  0
    0.6683   -3.1474   -0.3316 H   0  0  0  0  0  0  0  0  0  0  0  0
    2.7643   -3.7482   -0.5494 C   0  0  0  0  0  0  0  0  0  0  0  0
    2.5324   -4.8177   -0.6446 H   0  0  0  0  0  0  0  0  0  0  0  0
    4.0844   -3.2707   -0.5849 C   0  0  0  0  0  0  0  0  0  0  0  0
    4.9384   -3.9536   -0.7041 H   0  0  0  0  0  0  0  0  0  0  0  0
    4.2910   -1.8971   -0.4926 C   0  0  0  0  0  0  0  0  0  0  0  0
    5.3041   -1.4714   -0.5535 H   0  0  0  0  0  0  0  0  0  0  0  0
    3.1844   -1.0255   -0.3467 C   0  0  0  0  0  0  0  0  0  0  0  0
    2.7285    1.4908   -0.4173 C   0  0  1  0  0  3  0  0  0  0  0  0
    3.4198    2.7188   -0.5091 C   0  0  0  0  0  0  0  0  0  0  0  0
    4.5194    2.7209   -0.5174 H   0  0  0  0  0  0  0  0  0  0  0  0
    2.6982    3.9099   -0.5796 C   0  0  0  0  0  0  0  0  0  0  0  0
    3.2218    4.8733   -0.6507 H   0  0  0  0  0  0  0  0  0  0  0  0
    1.2977    3.8661   -0.5497 C   0  0  0  0  0  0  0  0  0  0  0  0
    0.6978    4.7833   -0.5810 H   0  0  0  0  0  0  0  0  0  0  0  0
    0.6882    2.6122   -0.4636 C   0  0  0  0  0  0  0  0  0  0  0  0
   -1.7003    3.3903   -0.4268 C   0  0  0  0  0  3  0  0  0  0  0  0
   -1.4852    4.4570   -0.5318 H   0  0  0  0  0  0  0  0  0  0  0  0
   -2.8924    2.6982   -0.3538 C   0  0  0  0  0  0  0  0  0  0  0  0
   -3.9044    3.1105   -0.4005 H   0  0  0  0  0  0  0  0  0  0  0  0
   -2.5524    1.3108   -0.2811 C   0  0  0  0  0  0  0  0  0  0  0  0
   -3.5142    0.1990   -0.3135 C   0  0  0  0  0  0  0  0  0  0  0  0
   -4.6641    0.2499    0.5040 C   0  0  0  0  0  0  0  0  0  0  0  0
   -4.7889    1.0816    1.2153 H   0  0  0  0  0  0  0  0  0  0  0  0
   -5.6304   -0.7623    0.4284 C   0  0  0  0  0  0  0  0  0  0  0  0
   -6.5173   -0.7240    1.0790 H   0  0  0  0  0  0  0  0  0  0  0  0
   -5.4626   -1.8219   -0.4781 C   0  0  0  0  0  0  0  0  0  0  0  0
   -6.2230   -2.6156   -0.5422 H   0  0  0  0  0  0  0  0  0  0  0  0
   -4.3264   -1.8670   -1.3017 C   0  0  0  0  0  0  0  0  0  0  0  0
   -4.1903   -2.6978   -2.0102 H   0  0  0  0  0  0  0  0  0  0  0  0
   -3.3482   -0.8684   -1.2221 C   0  0  0  0  0  0  0  0  0  0  0  0
   -2.4491   -0.8988   -1.8586 H   0  0  0  0  0  0  0  0  0  0  0  0
    4.4737    0.5154   -0.2923 H   0  0  0  0  0  0  0  0  0  0  0  0
  2 39  1  0  0  0  0
  3 15  1  0  0  0  0
  4  5  1  0  0  0  0
  6  7  1  0  0  0  0
  6  1  1  0  0  0  0
  8  6  1  0  0  0  0
  9  8  1  0  0  0  0
 10  8  2  0  0  0  0
 10 12  1  0  0  0  0
 11 10  1  0  0  0  0
 12 14  2  0  0  0  0
 13 12  1  0  0  0  0
 14  2  1  0  0  0  0
 14  1  1  0  0  0  0
 15  2  1  1  0  0  0
 16 15  1  0  0  0  0
 17 16  1  0  0  0  0
 18 20  1  0  0  0  0
 18 16  2  0  0  0  0
 19 18  1  0  0  0  0
 20 22  2  0  0  0  0
 21 20  1  0  0  0  0
 22  3  1  0  0  0  0
 22  4  1  0  0  0  0
 23  4  1  0  0  0  0
 23 25  1  0  0  0  0
 24 23  1  0  0  0  0
 25 27  2  0  0  0  0
 26 25  1  0  0  0  0
 27  5  1  0  0  0  0
 28 27  1  0  0  0  0
 28 29  1  0  0  0  0
 29 30  1  0  0  0  0
 31 29  2  0  0  0  0
 31 32  1  0  0  0  0
 33 31  1  0  0  0  0
 34 33  1  0  0  0  0
 35 37  1  0  0  0  0
 35 33  2  0  0  0  0
 36 35  1  0  0  0  0
 37 28  2  0  0  0  0
 38 37  1  0  0  0  0
M  END
