1,2,4
 OpenBabel05122313063D

 39 40  0  0  1  0  0  0  0  0999 V2000
    1.1740    0.5150   -0.3850 N   0  0  0  0  0  2  0  0  0  0  0  0
    1.2077   -1.2480    1.6487 N   0  0  0  0  0  0  0  0  0  0  0  0
    1.3244   -2.2638    1.7321 H   0  0  0  0  0  0  0  0  0  0  0  0
   -0.9547   -0.1128   -1.9209 N   0  0  0  0  0  0  0  0  0  0  0  0
   -0.5997   -0.8192   -2.5816 H   0  0  0  0  0  0  0  0  0  0  0  0
   -0.9433    0.8937    1.7598 O   0  0  0  0  0  0  0  0  0  0  0  0
   -2.6320    1.8748   -0.4974 O   0  0  0  0  0  0  0  0  0  0  0  0
    0.9326    1.4059   -1.3515 C   0  0  2  0  0  3  0  0  0  0  0  0
    1.8004    2.4950   -1.5522 C   0  0  0  0  0  0  0  0  0  0  0  0
    1.5979    3.2275   -2.3480 H   0  0  0  0  0  0  0  0  0  0  0  0
    2.9230    2.6190   -0.7225 C   0  0  0  0  0  0  0  0  0  0  0  0
    3.6150    3.4650   -0.8519 H   0  0  0  0  0  0  0  0  0  0  0  0
    3.1706    1.6503    0.2641 C   0  0  0  0  0  0  0  0  0  0  0  0
    4.0573    1.7095    0.9127 H   0  0  0  0  0  0  0  0  0  0  0  0
    2.2648    0.5884    0.3928 C   0  0  0  0  0  0  0  0  0  0  0  0
    2.4741   -0.6111    1.3022 C   0  0  0  0  0  0  0  0  0  0  0  0
    3.0399   -1.3475    0.6893 H   0  0  0  0  0  0  0  0  0  0  0  0
    3.0958   -0.3332    2.1852 H   0  0  0  0  0  0  0  0  0  0  0  0
    0.4875   -0.7373    2.8213 C   0  0  0  0  0  0  0  0  0  0  0  0
    1.0951   -0.8466    3.7521 H   0  0  0  0  0  0  0  0  0  0  0  0
   -0.4306   -1.3541    2.9149 H   0  0  0  0  0  0  0  0  0  0  0  0
    0.0756    0.7246    2.7217 C   0  0  0  0  0  0  0  0  0  0  0  0
   -0.2851    1.0506    3.7290 H   0  0  0  0  0  0  0  0  0  0  0  0
    0.9577    1.3710    2.4831 H   0  0  0  0  0  0  0  0  0  0  0  0
   -1.2764    2.2492    1.5322 C   0  0  0  0  0  0  0  0  0  0  0  0
   -0.4807    2.7501    0.9247 H   0  0  0  0  0  0  0  0  0  0  0  0
   -1.3485    2.8052    2.5010 H   0  0  0  0  0  0  0  0  0  0  0  0
   -2.6228    2.3693    0.8268 C   0  0  0  0  0  0  0  0  0  0  0  0
   -3.4058    1.8717    1.4452 H   0  0  0  0  0  0  0  0  0  0  0  0
   -2.8759    3.4509    0.7746 H   0  0  0  0  0  0  0  0  0  0  0  0
   -2.9868    0.4920   -0.6117 C   0  0  0  0  0  0  0  0  0  0  0  0
   -4.0990    0.3853   -0.6257 H   0  0  0  0  0  0  0  0  0  0  0  0
   -2.5959   -0.1004    0.2420 H   0  0  0  0  0  0  0  0  0  0  0  0
   -2.4265   -0.0974   -1.8973 C   0  0  0  0  0  0  0  0  0  0  0  0
   -2.7644   -1.1523   -1.9304 H   0  0  0  0  0  0  0  0  0  0  0  0
   -2.8476    0.4302   -2.7861 H   0  0  0  0  0  0  0  0  0  0  0  0
   -0.3115    1.1786   -2.1898 C   0  0  0  0  0  0  0  0  0  0  0  0
   -1.0360    1.9805   -1.9429 H   0  0  0  0  0  0  0  0  0  0  0  0
   -0.0420    1.2978   -3.2637 H   0  0  0  0  0  0  0  0  0  0  0  0
  1 15  1  0  0  0  0
  2  3  1  0  0  0  0
  2 19  1  0  0  0  0
  4 34  1  0  0  0  0
  5  4  1  0  0  0  0
  6 22  1  0  0  0  0
  7 28  1  0  0  0  0
  8  9  1  1  0  0  0
  8  1  1  0  0  0  0
  9 11  2  0  0  0  0
 10  9  1  0  0  0  0
 11 13  1  0  0  0  0
 12 11  1  0  0  0  0
 13 15  2  0  0  0  0
 13 14  1  0  0  0  0
 15 16  1  0  0  0  0
 16  2  1  0  0  0  0
 16 18  1  0  0  0  0
 17 16  1  0  0  0  0
 19 21  1  0  0  0  0
 19 20  1  0  0  0  0
 22 19  1  0  0  0  0
 22 23  1  0  0  0  0
 24 22  1  0  0  0  0
 25  6  1  0  0  0  0
 25 27  1  0  0  0  0
 26 25  1  0  0  0  0
 28 29  1  0  0  0  0
 28 25  1  0  0  0  0
 30 28  1  0  0  0  0
 31  7  1  0  0  0  0
 31 33  1  0  0  0  0
 32 31  1  0  0  0  0
 34 31  1  0  0  0  0
 35 34  1  0  0  0  0
 36 34  1  0  0  0  0
 37 38  1  0  0  0  0
 37  4  1  0  0  0  0
 37  8  1  0  0  0  0
 39 37  1  0  0  0  0
M  END
