1,2,22
 OpenBabel05122313063D

 31 33  0  0  1  0  0  0  0  0999 V2000
   -1.3988   -0.8462   -0.0912 N   0  0  0  0  0  2  0  0  0  0  0  0
   -0.0342    1.6351   -0.0763 N   0  0  0  0  0  2  0  0  0  0  0  0
   -0.0070    0.0148   -1.8189 N   0  0  0  0  0  0  0  0  0  0  0  0
   -1.1863   -0.7023   -1.4207 C   0  0  1  0  0  3  0  0  0  0  0  0
   -2.0594   -1.2185   -2.3861 C   0  0  0  0  0  0  0  0  0  0  0  0
   -1.8251   -1.0644   -3.4477 H   0  0  0  0  0  0  0  0  0  0  0  0
   -3.4202   -2.0625   -0.5827 C   0  0  0  0  0  0  0  0  0  0  0  0
   -4.2995   -2.5987   -0.1991 H   0  0  0  0  0  0  0  0  0  0  0  0
   -3.1993   -1.9124   -1.9603 C   0  0  0  0  0  0  0  0  0  0  0  0
   -3.9053   -2.3303   -2.6928 H   0  0  0  0  0  0  0  0  0  0  0  0
   -2.5019   -1.5181    0.3184 C   0  0  0  0  0  0  0  0  0  0  0  0
   -2.6440   -1.6171    1.4042 H   0  0  0  0  0  0  0  0  0  0  0  0
    2.0883   -1.1365   -2.4014 C   0  0  0  0  0  0  0  0  0  0  0  0
    1.8392   -0.9939   -3.4613 H   0  0  0  0  0  0  0  0  0  0  0  0
    3.2587   -1.7831   -1.9841 C   0  0  0  0  0  0  0  0  0  0  0  0
    3.9749   -2.1738   -2.7218 H   0  0  0  0  0  0  0  0  0  0  0  0
    3.4971   -1.9213   -0.6082 C   0  0  0  0  0  0  0  0  0  0  0  0
    4.4006   -2.4206   -0.2310 H   0  0  0  0  0  0  0  0  0  0  0  0
    2.5650   -1.4128    0.2998 C   0  0  0  0  0  3  0  0  0  0  0  0
    2.7201   -1.5037    1.3845 H   0  0  0  0  0  0  0  0  0  0  0  0
    1.2032   -0.6540   -1.4295 C   0  0  0  0  0  0  0  0  0  0  0  0
    1.4322   -0.7871   -0.1016 N   0  0  0  0  0  2  0  0  0  0  0  0
   -0.0333    1.3910   -1.4082 C   0  0  2  0  0  3  0  0  0  0  0  0
   -0.0566    2.4138   -2.3643 C   0  0  0  0  0  0  0  0  0  0  0  0
   -0.0543    2.1433   -3.4285 H   0  0  0  0  0  0  0  0  0  0  0  0
   -0.0822    3.7440   -1.9262 C   0  0  0  0  0  0  0  0  0  0  0  0
   -0.1009    4.5710   -2.6511 H   0  0  0  0  0  0  0  0  0  0  0  0
   -0.0835    3.9981   -0.5462 C   0  0  0  0  0  0  0  0  0  0  0  0
   -0.1032    5.0242   -0.1530 H   0  0  0  0  0  0  0  0  0  0  0  0
   -0.0592    2.9226    0.3452 C   0  0  0  0  0  0  0  0  0  0  0  0
   -0.0594    3.0854    1.4325 H   0  0  0  0  0  0  0  0  0  0  0  0
  1 11  1  0  0  0  0
  2 30  1  0  0  0  0
  3 21  1  0  0  0  0
  4  3  1  6  0  0  0
  4  1  1  0  0  0  0
  5  9  2  0  0  0  0
  5  4  1  0  0  0  0
  6  5  1  0  0  0  0
  7  8  1  0  0  0  0
  7 11  2  0  0  0  0
  9  7  1  0  0  0  0
 10  9  1  0  0  0  0
 11 12  1  0  0  0  0
 13 15  1  0  0  0  0
 13 21  2  0  0  0  0
 14 13  1  0  0  0  0
 15 17  2  0  0  0  0
 16 15  1  0  0  0  0
 17 18  1  0  0  0  0
 17 19  1  0  0  0  0
 19 20  1  0  0  0  0
 21 22  1  0  0  0  0
 22 19  1  0  0  0  0
 23  3  1  6  0  0  0
 23  2  1  0  0  0  0
 24 26  2  0  0  0  0
 24 23  1  0  0  0  0
 25 24  1  0  0  0  0
 26 28  1  0  0  0  0
 27 26  1  0  0  0  0
 28 29  1  0  0  0  0
 28 30  2  0  0  0  0
 30 31  1  0  0  0  0
M  END
