1,4,7
 OpenBabel05122313063D

 35 35  0  0  0  0  0  0  0  0999 V2000
    2.0039    0.4823    0.0975 N   0  0  0  0  0  0  0  0  0  0  0  0
    1.7391    1.8260    0.7027 C   0  0  0  0  0  0  0  0  0  0  0  0
    0.6256    2.5456   -0.0493 C   0  0  0  0  0  0  0  0  0  0  0  0
   -0.4025    1.5475   -0.2460 N   0  0  0  0  0  2  0  0  0  0  0  0
   -1.7079    1.7733   -0.1888 C   0  0  0  0  0  0  0  0  0  0  0  0
   -2.4285    0.5467   -0.2706 C   0  0  0  0  0  0  0  0  0  0  0  0
   -1.6728   -0.5822   -0.3210 N   0  0  0  0  0  2  0  0  0  0  0  0
   -2.5148   -1.6593   -0.3287 C   0  0  0  0  0  0  0  0  0  0  0  0
   -3.8167   -1.1857   -0.2942 C   0  0  0  0  0  0  0  0  0  0  0  0
   -3.7558    0.2012   -0.2570 N   0  0  0  0  0  0  0  0  0  0  0  0
   -4.8694    1.1258   -0.1954 C   0  0  0  0  0  0  0  0  0  0  0  0
   -5.8156    0.5559   -0.2141 H   0  0  0  0  0  0  0  0  0  0  0  0
   -4.8568    1.8182   -1.0619 H   0  0  0  0  0  0  0  0  0  0  0  0
   -4.8355    1.7220    0.7398 H   0  0  0  0  0  0  0  0  0  0  0  0
   -4.7755   -1.7135   -0.3045 H   0  0  0  0  0  0  0  0  0  0  0  0
   -2.1217   -2.6796   -0.3713 H   0  0  0  0  0  0  0  0  0  0  0  0
   -2.1552    2.7700   -0.0387 H   0  0  0  0  0  0  0  0  0  0  0  0
    0.9774    2.9214   -1.0373 H   0  0  0  0  0  0  0  0  0  0  0  0
    0.2725    3.4266    0.5320 H   0  0  0  0  0  0  0  0  0  0  0  0
    2.6723    2.4282    0.7485 H   0  0  0  0  0  0  0  0  0  0  0  0
    1.3840    1.6125    1.7314 H   0  0  0  0  0  0  0  0  0  0  0  0
    2.5416    0.5495   -1.2947 C   0  0  0  0  0  0  0  0  0  0  0  0
    3.8996    1.2293   -1.4522 C   0  0  0  0  0  0  0  0  0  0  0  0
    4.1895    1.2075   -2.5216 H   0  0  0  0  0  0  0  0  0  0  0  0
    4.6978    0.7120   -0.8842 H   0  0  0  0  0  0  0  0  0  0  0  0
    3.8888    2.2930   -1.1378 H   0  0  0  0  0  0  0  0  0  0  0  0
    2.5568   -0.4957   -1.6599 H   0  0  0  0  0  0  0  0  0  0  0  0
    1.7776    1.0594   -1.9138 H   0  0  0  0  0  0  0  0  0  0  0  0
    2.9106   -0.2417    1.0541 C   0  0  0  0  0  0  0  0  0  0  0  0
    3.4633   -1.5790    0.5951 C   0  0  0  0  0  0  0  0  0  0  0  0
    4.0388   -2.0176    1.4346 H   0  0  0  0  0  0  0  0  0  0  0  0
    4.1504   -1.4966   -0.2713 H   0  0  0  0  0  0  0  0  0  0  0  0
    2.6409   -2.2667    0.3213 H   0  0  0  0  0  0  0  0  0  0  0  0
    3.7417    0.4573    1.3065 H   0  0  0  0  0  0  0  0  0  0  0  0
    2.2905   -0.3839    1.9636 H   0  0  0  0  0  0  0  0  0  0  0  0
  1  2  1  0  0  0  0
  1 29  1  0  0  0  0
  2 20  1  0  0  0  0
  2 21  1  0  0  0  0
  3 19  1  0  0  0  0
  3  2  1  0  0  0  0
  4  5  1  0  0  0  0
  4  3  1  0  0  0  0
  5 17  1  0  0  0  0
  6 10  1  0  0  0  0
  6  5  2  0  0  0  0
  7  6  1  0  0  0  0
  8  7  1  0  0  0  0
  8  9  2  0  0  0  0
  9 10  1  0  0  0  0
 10 11  1  0  0  0  0
 11 14  1  0  0  0  0
 12 11  1  0  0  0  0
 13 11  1  0  0  0  0
 15  9  1  0  0  0  0
 16  8  1  0  0  0  0
 18  3  1  0  0  0  0
 22  1  1  0  0  0  0
 23 22  1  0  0  0  0
 23 26  1  0  0  0  0
 23 25  1  0  0  0  0
 24 23  1  0  0  0  0
 27 22  1  0  0  0  0
 28 22  1  0  0  0  0
 29 34  1  0  0  0  0
 29 35  1  0  0  0  0
 30 29  1  0  0  0  0
 30 31  1  0  0  0  0
 32 30  1  0  0  0  0
 33 30  1  0  0  0  0
M  END
