1,2,24
 OpenBabel05122313063D

 40 42  0  0  1  0  0  0  0  0999 V2000
   -0.2767    0.1554    1.3795 N   0  0  0  0  0  2  0  0  0  0  0  0
    1.9697    1.3583    0.0000 N   0  0  0  0  0  0  0  0  0  0  0  0
   -2.6710   -1.7355    0.0002 N   0  0  0  0  0  0  0  0  0  0  0  0
   -1.5140   -0.3018    1.6983 C   0  0  1  0  0  3  0  0  0  0  0  0
   -2.4543    0.5322    2.3372 C   0  0  0  0  0  0  0  0  0  0  0  0
   -3.4288    0.1156    2.6286 H   0  0  0  0  0  0  0  0  0  0  0  0
   -2.1442    1.8707    2.5868 C   0  0  0  0  0  0  0  0  0  0  0  0
   -2.8693    2.5363    3.0781 H   0  0  0  0  0  0  0  0  0  0  0  0
   -0.8924    2.3503    2.1835 C   0  0  0  0  0  0  0  0  0  0  0  0
   -0.6120    3.4029    2.3327 H   0  0  0  0  0  0  0  0  0  0  0  0
    0.0185    1.4618    1.5936 C   0  0  0  0  0  0  0  0  0  0  0  0
    1.4053    1.9390    1.2378 C   0  0  0  0  0  0  0  0  0  0  0  0
    1.4245    3.0517    1.1952 H   0  0  0  0  0  0  0  0  0  0  0  0
    2.0860    1.6493    2.0663 H   0  0  0  0  0  0  0  0  0  0  0  0
   -1.9367   -1.6941    1.2572 C   0  0  0  0  0  0  0  0  0  0  0  0
   -1.0467   -2.3380    1.1701 H   0  0  0  0  0  0  0  0  0  0  0  0
   -2.5905   -2.1281    2.0438 H   0  0  0  0  0  0  0  0  0  0  0  0
    3.4337    1.5678    0.0006 C   0  0  0  0  0  0  0  0  0  0  0  0
    3.6804    2.6527    0.0004 H   0  0  0  0  0  0  0  0  0  0  0  0
    3.8824    1.1026   -0.8950 H   0  0  0  0  0  0  0  0  0  0  0  0
   -4.0024   -1.1709   -0.0003 C   0  0  0  0  0  0  0  0  0  0  0  0
   -4.0482   -0.0515   -0.0005 H   0  0  0  0  0  0  0  0  0  0  0  0
   -4.5548   -1.5258   -0.8951 H   0  0  0  0  0  0  0  0  0  0  0  0
   -0.2760    0.1545   -1.3797 N   0  0  0  0  0  2  0  0  0  0  0  0
   -1.5133   -0.3028   -1.6982 C   0  0  2  0  0  3  0  0  0  0  0  0
   -2.4534    0.5309   -2.3378 C   0  0  0  0  0  0  0  0  0  0  0  0
   -3.4279    0.1143   -2.6291 H   0  0  0  0  0  0  0  0  0  0  0  0
   -2.1431    1.8692   -2.5883 C   0  0  0  0  0  0  0  0  0  0  0  0
   -2.8680    2.5346   -3.0802 H   0  0  0  0  0  0  0  0  0  0  0  0
   -0.8912    2.3490   -2.1852 C   0  0  0  0  0  0  0  0  0  0  0  0
   -0.6106    3.4013   -2.3352 H   0  0  0  0  0  0  0  0  0  0  0  0
    0.0195    1.4607   -1.5946 C   0  0  0  0  0  0  0  0  0  0  0  0
    1.4064    1.9377   -1.2389 C   0  0  0  0  0  0  0  0  0  0  0  0
    1.4261    3.0504   -1.1978 H   0  0  0  0  0  0  0  0  0  0  0  0
    2.0873    1.6465   -2.0667 H   0  0  0  0  0  0  0  0  0  0  0  0
   -1.9360   -1.6948   -1.2564 C   0  0  0  0  0  0  0  0  0  0  0  0
   -1.0458   -2.3382   -1.1682 H   0  0  0  0  0  0  0  0  0  0  0  0
   -2.5892   -2.1296   -2.0430 H   0  0  0  0  0  0  0  0  0  0  0  0
    3.8815    1.1030    0.8969 H   0  0  0  0  0  0  0  0  0  0  0  0
   -4.5553   -1.5254    0.8945 H   0  0  0  0  0  0  0  0  0  0  0  0
  1 11  1  0  0  0  0
  2 18  1  0  0  0  0
  2 12  1  0  0  0  0
  3 15  1  0  0  0  0
  4  1  1  6  0  0  0
  4  5  1  0  0  0  0
  5  7  2  0  0  0  0
  5  6  1  0  0  0  0
  7  8  1  0  0  0  0
  9 10  1  0  0  0  0
  9  7  1  0  0  0  0
 11  9  2  0  0  0  0
 12 11  1  0  0  0  0
 12 14  1  0  0  0  0
 13 12  1  0  0  0  0
 15  4  1  0  0  0  0
 15 17  1  0  0  0  0
 16 15  1  0  0  0  0
 18 39  1  0  0  0  0
 19 18  1  0  0  0  0
 20 18  1  0  0  0  0
 21  3  1  0  0  0  0
 21 40  1  0  0  0  0
 22 21  1  0  0  0  0
 23 21  1  0  0  0  0
 25 26  1  1  0  0  0
 25 24  1  0  0  0  0
 25 36  1  0  0  0  0
 27 26  1  0  0  0  0
 28 26  2  0  0  0  0
 28 30  1  0  0  0  0
 29 28  1  0  0  0  0
 30 32  2  0  0  0  0
 31 30  1  0  0  0  0
 32 24  1  0  0  0  0
 32 33  1  0  0  0  0
 33 34  1  0  0  0  0
 33  2  1  0  0  0  0
 35 33  1  0  0  0  0
 36 37  1  0  0  0  0
 36  3  1  0  0  0  0
 38 36  1  0  0  0  0
M  END
