1,2,3
 OpenBabel05122313063D

 22 23  0  0  0  0  0  0  0  0999 V2000
   -0.0002    1.8767   -0.3610 N   0  0  0  0  0  0  0  0  0  0  0  0
   -0.0007    0.0456    1.7518 N   0  0  0  0  0  2  0  0  0  0  0  0
    0.0010   -1.9545    0.1108 N   0  0  0  0  0  0  0  0  0  0  0  0
   -0.0017    1.1046    2.5921 N   0  0  0  0  0  0  0  0  0  0  0  0
    0.0005    2.6332   -1.4872 C   0  0  0  0  0  0  0  0  0  0  0  0
    0.0005    4.0088   -1.1547 C   0  0  0  0  0  0  0  0  0  0  0  0
   -0.0002    4.0829    0.2469 C   0  0  0  0  0  0  0  0  0  0  0  0
   -0.0006    2.7420    0.7253 C   0  0  0  0  0  3  0  0  0  0  0  0
   -0.0015    2.3213    2.0884 C   0  0  0  0  0  0  0  0  0  0  0  0
   -0.0000   -1.1605    2.3230 C   0  0  0  0  0  3  0  0  0  0  0  0
    0.0011   -2.2746    1.4605 C   0  0  0  0  0  3  0  0  0  0  0  0
    0.0030   -3.6880    1.6106 C   0  0  0  0  0  0  0  0  0  0  0  0
    0.0041   -4.2134    0.3067 C   0  0  0  0  0  0  0  0  0  0  0  0
    0.0030   -3.1092   -0.5895 C   0  0  0  0  0  0  0  0  0  0  0  0
    0.0009    2.1475   -2.4701 H   0  0  0  0  0  0  0  0  0  0  0  0
    0.0010    4.8409   -1.8686 H   0  0  0  0  0  0  0  0  0  0  0  0
   -0.0004    4.9803    0.8782 H   0  0  0  0  0  0  0  0  0  0  0  0
   -0.0022    3.1207    2.8495 H   0  0  0  0  0  0  0  0  0  0  0  0
   -0.0003   -1.2183    3.4228 H   0  0  0  0  0  0  0  0  0  0  0  0
    0.0034   -4.2411    2.5571 H   0  0  0  0  0  0  0  0  0  0  0  0
    0.0056   -5.2715    0.0186 H   0  0  0  0  0  0  0  0  0  0  0  0
    0.0032   -3.0975   -1.6875 H   0  0  0  0  0  0  0  0  0  0  0  0
  1  8  1  0  0  0  0
  2 10  1  0  0  0  0
  2  4  1  0  0  0  0
  3 11  1  0  0  0  0
  5  6  1  0  0  0  0
  5  1  2  0  0  0  0
  6  7  2  0  0  0  0
  7  8  1  0  0  0  0
  7 17  1  0  0  0  0
  8  9  1  0  0  0  0
  9  4  2  0  0  0  0
  9 18  1  0  0  0  0
 10 19  1  0  0  0  0
 11 12  1  0  0  0  0
 11 10  1  0  0  0  0
 12 20  1  0  0  0  0
 13 12  2  0  0  0  0
 14  3  2  0  0  0  0
 14 13  1  0  0  0  0
 15  5  1  0  0  0  0
 16  6  1  0  0  0  0
 21 13  1  0  0  0  0
 22 14  1  0  0  0  0
M  END
