1,3,8
 OpenBabel05122313063D

 47 50  0  0  1  0  0  0  0  0999 V2000
   -0.1857    1.8193   -0.0793 N   0  0  0  0  0  2  0  0  0  0  0  0
   -2.9228   -0.9110   -0.1247 C   0  0  0  0  0  0  0  0  0  0  0  0
   -1.9851    0.0961   -0.2064 N   0  0  0  0  0  2  0  0  0  0  0  0
   -4.7386    0.6883   -0.6047 N   0  0  0  0  0  0  0  0  0  0  0  0
   -1.5411    3.7875   -0.1719 C   0  0  0  0  0  0  0  0  0  0  0  0
   -2.5244    4.2603   -0.2996 H   0  0  0  0  0  0  0  0  0  0  0  0
   -1.4133    2.3902   -0.2140 C   0  0  2  0  0  3  0  0  0  0  0  0
    1.7990    0.3947    0.0794 N   0  0  0  0  0  2  0  0  0  0  0  0
   -2.4433    1.3732   -0.3370 C   0  0  0  0  0  0  0  0  0  0  0  0
   -4.3137   -0.5911   -0.3734 C   0  0  0  0  0  0  0  0  0  0  0  0
    3.4157   -1.2315    1.0037 C   0  0  0  0  0  0  0  0  0  0  0  0
    2.1026    1.6832    0.2206 C   0  0  2  0  0  3  0  0  0  0  0  0
   -3.8267    1.6355   -0.5414 C   0  0  0  0  0  0  0  0  0  0  0  0
   -4.1608    2.6796   -0.6755 H   0  0  0  0  0  0  0  0  0  0  0  0
   -0.3916    4.5672    0.0552 C   0  0  0  0  0  0  0  0  0  0  0  0
   -0.4755    5.6622    0.1024 H   0  0  0  0  0  0  0  0  0  0  0  0
    3.3472   -0.7166   -1.4258 C   0  0  0  0  0  0  0  0  0  0  0  0
    0.8589    3.9530    0.2320 C   0  0  0  0  0  0  0  0  0  0  0  0
    1.7583    4.5548    0.4225 H   0  0  0  0  0  0  0  0  0  0  0  0
   -2.5704   -2.2377    0.2389 C   0  0  0  0  0  0  0  0  0  0  0  0
   -1.5255   -2.4479    0.4953 H   0  0  0  0  0  0  0  0  0  0  0  0
    0.9457    2.5524    0.1529 C   0  0  0  0  0  0  0  0  0  0  0  0
    3.5083    2.1788    0.3625 C   0  0  0  0  0  0  0  0  0  0  0  0
    4.0434    1.6162    1.1523 H   0  0  0  0  0  0  0  0  0  0  0  0
    3.5355    3.2555    0.6092 H   0  0  0  0  0  0  0  0  0  0  0  0
    4.0781    2.0182   -0.5763 H   0  0  0  0  0  0  0  0  0  0  0  0
   -4.9028   -2.9302   -0.0343 C   0  0  0  0  0  0  0  0  0  0  0  0
   -5.6560   -3.7320   -0.0046 H   0  0  0  0  0  0  0  0  0  0  0  0
    2.8767   -1.0412    2.3917 C   0  0  0  0  0  0  0  0  0  0  0  0
    1.8019   -1.3189    2.4411 H   0  0  0  0  0  0  0  0  0  0  0  0
    2.9101    0.0230    2.7089 H   0  0  0  0  0  0  0  0  0  0  0  0
    3.4507   -1.6378    3.1254 H   0  0  0  0  0  0  0  0  0  0  0  0
   -3.5495   -3.2208    0.2805 C   0  0  0  0  0  0  0  0  0  0  0  0
   -3.2666   -4.2435    0.5715 H   0  0  0  0  0  0  0  0  0  0  0  0
    2.8625   -0.5422   -0.1023 C   0  0  0  0  0  0  0  0  0  0  0  0
    4.4876   -2.1088    0.7507 C   0  0  0  0  0  0  0  0  0  0  0  0
    4.9307   -2.6548    1.5979 H   0  0  0  0  0  0  0  0  0  0  0  0
    4.9872   -2.2962   -0.5440 C   0  0  0  0  0  0  0  0  0  0  0  0
    5.8224   -2.9920   -0.7159 H   0  0  0  0  0  0  0  0  0  0  0  0
    4.4195   -1.6031   -1.6216 C   0  0  0  0  0  0  0  0  0  0  0  0
    4.8008   -1.7574   -2.6429 H   0  0  0  0  0  0  0  0  0  0  0  0
   -5.2799   -1.6333   -0.3496 C   0  0  0  0  0  3  0  0  0  0  0  0
   -6.3216   -1.3549   -0.5625 H   0  0  0  0  0  0  0  0  0  0  0  0
    2.6993   -0.0008   -2.5799 C   0  0  0  0  0  0  0  0  0  0  0  0
    3.1800   -0.2757   -3.5374 H   0  0  0  0  0  0  0  0  0  0  0  0
    2.7494    1.1043   -2.4786 H   0  0  0  0  0  0  0  0  0  0  0  0
    1.6255   -0.2806   -2.6237 H   0  0  0  0  0  0  0  0  0  0  0  0
  1 22  1  0  0  0  0
  2 20  2  0  0  0  0
  3  2  1  0  0  0  0
  4 13  1  0  0  0  0
  4 10  2  0  0  0  0
  5 15  2  0  0  0  0
  6  5  1  0  0  0  0
  7  9  1  1  0  0  0
  7  5  1  0  0  0  0
  7  1  1  0  0  0  0
  9  3  1  0  0  0  0
 10 42  1  0  0  0  0
 10  2  1  0  0  0  0
 11 29  1  0  0  0  0
 12  8  1  6  0  0  0
 12 23  1  0  0  0  0
 13  9  2  0  0  0  0
 14 13  1  0  0  0  0
 15 16  1  0  0  0  0
 15 18  1  0  0  0  0
 17 35  1  0  0  0  0
 18 19  1  0  0  0  0
 20 33  1  0  0  0  0
 20 21  1  0  0  0  0
 22 12  1  0  0  0  0
 22 18  2  0  0  0  0
 23 25  1  0  0  0  0
 23 24  1  0  0  0  0
 26 23  1  0  0  0  0
 27 28  1  0  0  0  0
 27 33  2  0  0  0  0
 29 30  1  0  0  0  0
 29 31  1  0  0  0  0
 29 32  1  0  0  0  0
 33 34  1  0  0  0  0
 35  8  1  0  0  0  0
 35 11  2  0  0  0  0
 36 11  1  0  0  0  0
 36 37  1  0  0  0  0
 38 36  2  0  0  0  0
 39 38  1  0  0  0  0
 40 17  2  0  0  0  0
 40 38  1  0  0  0  0
 41 40  1  0  0  0  0
 42 27  1  0  0  0  0
 43 42  1  0  0  0  0
 44 46  1  0  0  0  0
 44 17  1  0  0  0  0
 45 44  1  0  0  0  0
 47 44  1  0  0  0  0
M  END
