1,3,4
 OpenBabel05122313063D

 43 43  0  0  1  0  0  0  0  0999 V2000
    1.0539   -0.9372    1.0255 N   0  0  0  0  0  0  0  0  0  0  0  0
    0.5451   -1.7541    1.4035 H   0  0  0  0  0  0  0  0  0  0  0  0
    0.8525    0.9011   -1.0708 N   0  0  0  0  0  2  0  0  0  0  0  0
   -1.3381    1.3830    1.0535 N   0  0  0  0  0  0  0  0  0  0  0  0
    2.2009   -1.4735    0.2106 C   0  0  0  0  0  0  0  0  0  0  0  0
    3.1943   -2.2465    1.0976 C   0  0  0  0  0  0  0  0  0  0  0  0
    3.6746   -1.6051    1.8617 H   0  0  0  0  0  0  0  0  0  0  0  0
    4.0018   -2.6763    0.4740 H   0  0  0  0  0  0  0  0  0  0  0  0
    2.6885   -3.0892    1.6111 H   0  0  0  0  0  0  0  0  0  0  0  0
    2.9313   -0.2963   -0.4579 C   0  0  0  0  0  0  0  0  0  0  0  0
    3.6069    0.2032    0.2744 H   0  0  0  0  0  0  0  0  0  0  0  0
    3.6341   -0.7129   -1.2123 H   0  0  0  0  0  0  0  0  0  0  0  0
   -0.4726    1.7266    2.1979 C   0  0  0  0  0  0  0  0  0  0  0  0
   -1.0596    2.3093    2.9498 H   0  0  0  0  0  0  0  0  0  0  0  0
    0.3261    2.4061    1.8384 H   0  0  0  0  0  0  0  0  0  0  0  0
    0.1936    0.5314    2.8859 C   0  0  0  0  0  0  0  0  0  0  0  0
    0.5486    0.8798    3.8773 H   0  0  0  0  0  0  0  0  0  0  0  0
   -0.5469   -0.2668    3.1079 H   0  0  0  0  0  0  0  0  0  0  0  0
   -1.5720    2.5532    0.1817 C   0  0  0  0  0  0  0  0  0  0  0  0
   -1.9650    3.4066    0.7888 H   0  0  0  0  0  0  0  0  0  0  0  0
   -2.3800    2.2693   -0.5232 H   0  0  0  0  0  0  0  0  0  0  0  0
    0.1712    2.0561   -1.6784 C   0  0  0  0  0  0  0  0  0  0  0  0
   -0.6643    1.6716   -2.2957 H   0  0  0  0  0  0  0  0  0  0  0  0
    0.8518    2.5955   -2.3630 H   0  0  0  0  0  0  0  0  0  0  0  0
    2.1536    0.8106   -1.1260 C   0  0  2  0  0  3  0  0  0  0  0  0
    1.4087   -0.0589    2.1664 C   0  0  0  0  0  0  0  0  0  0  0  0
    2.0488    0.7627    1.7865 H   0  0  0  0  0  0  0  0  0  0  0  0
    2.0204   -0.6328    2.8946 H   0  0  0  0  0  0  0  0  0  0  0  0
    1.6206   -2.4245   -0.8481 C   0  0  0  0  0  0  0  0  0  0  0  0
    1.0290   -3.2324   -0.3720 H   0  0  0  0  0  0  0  0  0  0  0  0
    2.4434   -2.8995   -1.4172 H   0  0  0  0  0  0  0  0  0  0  0  0
    0.9572   -1.8859   -1.5535 H   0  0  0  0  0  0  0  0  0  0  0  0
   -0.3690    3.0363   -0.6280 C   0  0  0  0  0  0  0  0  0  0  0  0
    0.4625    3.3647    0.0322 H   0  0  0  0  0  0  0  0  0  0  0  0
   -0.6922    3.9500   -1.1681 H   0  0  0  0  0  0  0  0  0  0  0  0
   -2.6332    0.8772    1.5268 C   0  0  0  0  0  0  0  0  0  0  0  0
   -3.2482    0.5664    0.6603 H   0  0  0  0  0  0  0  0  0  0  0  0
   -3.1942    1.6556    2.0968 H   0  0  0  0  0  0  0  0  0  0  0  0
   -2.4906   -0.0034    2.1791 H   0  0  0  0  0  0  0  0  0  0  0  0
    3.0193    1.8320   -1.8272 C   0  0  0  0  0  0  0  0  0  0  0  0
    2.8676    2.8529   -1.4219 H   0  0  0  0  0  0  0  0  0  0  0  0
    2.7960    1.8724   -2.9137 H   0  0  0  0  0  0  0  0  0  0  0  0
    4.0893    1.5797   -1.7163 H   0  0  0  0  0  0  0  0  0  0  0  0
  1  2  1  0  0  0  0
  1 26  1  0  0  0  0
  4 36  1  0  0  0  0
  4 13  1  0  0  0  0
  5  1  1  0  0  0  0
  5  6  1  0  0  0  0
  6  9  1  0  0  0  0
  6  7  1  0  0  0  0
  8  6  1  0  0  0  0
 10  5  1  0  0  0  0
 10 11  1  0  0  0  0
 12 10  1  0  0  0  0
 13 16  1  0  0  0  0
 13 14  1  0  0  0  0
 15 13  1  0  0  0  0
 16 18  1  0  0  0  0
 16 17  1  0  0  0  0
 19 20  1  0  0  0  0
 19  4  1  0  0  0  0
 21 19  1  0  0  0  0
 22  3  1  0  0  0  0
 22 33  1  0  0  0  0
 23 22  1  0  0  0  0
 24 22  1  0  0  0  0
 25 40  1  1  0  0  0
 25  3  1  0  0  0  0
 25 10  1  0  0  0  0
 26 16  1  0  0  0  0
 26 28  1  0  0  0  0
 27 26  1  0  0  0  0
 29 30  1  0  0  0  0
 29  5  1  0  0  0  0
 31 29  1  0  0  0  0
 32 29  1  0  0  0  0
 33 34  1  0  0  0  0
 33 19  1  0  0  0  0
 35 33  1  0  0  0  0
 36 38  1  0  0  0  0
 36 39  1  0  0  0  0
 37 36  1  0  0  0  0
 40 43  1  0  0  0  0
 40 41  1  0  0  0  0
 42 40  1  0  0  0  0
M  END
