27,28,29
 OpenBabel05122313063D

 29 31  0  0  1  0  0  0  0  0999 V2000
   -1.3044   -3.0093    0.0000 C   0  0  0  0  0  3  0  0  0  0  0  0
   -2.3572   -2.7048    0.0001 H   0  0  0  0  0  0  0  0  0  0  0  0
   -0.9625   -4.3615   -0.0001 C   0  0  0  0  0  0  0  0  0  0  0  0
   -1.7600   -5.1179   -0.0001 H   0  0  0  0  0  0  0  0  0  0  0  0
    0.3949   -4.7247   -0.0001 C   0  0  0  0  0  0  0  0  0  0  0  0
    0.7019   -5.7802   -0.0002 H   0  0  0  0  0  0  0  0  0  0  0  0
    1.3475   -3.7035   -0.0001 C   0  0  0  0  0  0  0  0  0  0  0  0
    2.4200   -3.9413   -0.0001 H   0  0  0  0  0  0  0  0  0  0  0  0
    0.9424   -2.3581    0.0000 C   0  0  0  0  0  0  0  0  0  0  0  0
    1.8753   -1.2310    0.0001 C   0  0  1  0  0  3  0  0  0  0  0  0
    3.2776   -1.2937    0.0001 C   0  0  0  0  0  0  0  0  0  0  0  0
    3.8073   -2.2542    0.0001 H   0  0  0  0  0  0  0  0  0  0  0  0
    4.0012   -0.0908    0.0001 C   0  0  0  0  0  0  0  0  0  0  0  0
    3.3361    1.1463    0.0000 C   0  0  0  0  0  0  0  0  0  0  0  0
    3.9110    2.0805   -0.0000 H   0  0  0  0  0  0  0  0  0  0  0  0
    1.9331    1.1534    0.0000 C   0  0  0  0  0  0  0  0  0  0  0  0
    1.0564    2.3268   -0.0001 C   0  0  2  0  0  3  0  0  0  0  0  0
    1.5237    3.6513   -0.0001 C   0  0  0  0  0  0  0  0  0  0  0  0
    2.6051    3.8447   -0.0001 H   0  0  0  0  0  0  0  0  0  0  0  0
    0.6098    4.7085   -0.0002 C   0  0  0  0  0  0  0  0  0  0  0  0
    0.9615    5.7505   -0.0002 H   0  0  0  0  0  0  0  0  0  0  0  0
   -0.7603    4.4047   -0.0002 C   0  0  0  0  0  0  0  0  0  0  0  0
   -1.5225    5.1967   -0.0003 H   0  0  0  0  0  0  0  0  0  0  0  0
   -1.1730    3.0687   -0.0001 C   0  0  0  0  0  0  0  0  0  0  0  0
   -2.2379    2.7732   -0.0001 H   0  0  0  0  0  0  0  0  0  0  0  0
    5.7389   -0.1328    0.0001 Cl  0  0  0  0  0  0  0  0  0  0  0  0
   -0.3973   -2.0036    0.0001 N   0  0  0  0  0  2  0  0  0  0  0  0
    1.2421   -0.0229    0.0001 N   0  0  0  0  0  2  0  0  0  0  0  0
   -0.2935    2.0411   -0.0001 N   0  0  0  0  0  2  0  0  0  0  0  0
  1 27  1  0  0  0  0
  1  2  1  0  0  0  0
  3  1  1  0  0  0  0
  4  3  1  0  0  0  0
  5  3  2  0  0  0  0
  5  7  1  0  0  0  0
  6  5  1  0  0  0  0
  7  9  2  0  0  0  0
  8  7  1  0  0  0  0
  9 27  1  0  0  0  0
 10  9  1  6  0  0  0
 10 11  1  0  0  0  0
 11 12  1  0  0  0  0
 13 11  2  0  0  0  0
 13 26  1  0  0  0  0
 14 13  1  0  0  0  0
 15 14  1  0  0  0  0
 16 14  2  0  0  0  0
 16 28  1  0  0  0  0
 17 16  1  1  0  0  0
 18 19  1  0  0  0  0
 18 17  1  0  0  0  0
 20 18  2  0  0  0  0
 21 20  1  0  0  0  0
 22 20  1  0  0  0  0
 22 24  2  0  0  0  0
 23 22  1  0  0  0  0
 24 25  1  0  0  0  0
 24 29  1  0  0  0  0
 28 10  1  0  0  0  0
 29 17  1  0  0  0  0
M  END
