1,2,3
 OpenBabel05122313063D

 53 55  0  0  1  0  0  0  0  0999 V2000
   -1.8984    0.4004    0.2016 N   0  0  0  0  0  2  0  0  0  0  0  0
   -0.1539    2.1227   -0.0950 N   0  0  0  0  0  2  0  0  0  0  0  0
    1.9362    0.8467   -0.0584 N   0  0  0  0  0  2  0  0  0  0  0  0
    6.7431   -4.0103   -0.0843 N   0  0  0  0  0  0  0  0  0  0  0  0
   -2.4218    1.6230    0.1404 C   0  0  0  0  0  0  0  0  0  0  0  0
   -1.4219    2.6611   -0.0181 C   0  0  0  0  0  0  0  0  0  0  0  0
   -1.6030    4.0479   -0.1546 C   0  0  0  0  0  0  0  0  0  0  0  0
   -2.6160    4.4693   -0.0955 H   0  0  0  0  0  0  0  0  0  0  0  0
   -0.4865    4.8749   -0.3654 C   0  0  0  0  0  0  0  0  0  0  0  0
   -0.6190    5.9601   -0.4782 H   0  0  0  0  0  0  0  0  0  0  0  0
    0.8002    4.3141   -0.4207 C   0  0  0  0  0  0  0  0  0  0  0  0
    1.6866    4.9459   -0.5704 H   0  0  0  0  0  0  0  0  0  0  0  0
    0.9555    2.9252   -0.2695 C   0  0  0  0  0  0  0  0  0  0  0  0
    2.1739    2.1375   -0.2630 C   0  0  1  0  0  3  0  0  0  0  0  0
   -3.8848    1.9371    0.1773 C   0  0  0  0  0  0  0  0  0  0  0  0
   -4.4825    1.0232    0.3454 H   0  0  0  0  0  0  0  0  0  0  0  0
   -4.2214    2.4091   -0.7698 H   0  0  0  0  0  0  0  0  0  0  0  0
   -4.0990    2.6583    0.9931 H   0  0  0  0  0  0  0  0  0  0  0  0
    3.5264    2.7496   -0.4573 C   0  0  0  0  0  0  0  0  0  0  0  0
    4.3314    2.0442   -0.1829 H   0  0  0  0  0  0  0  0  0  0  0  0
    3.6286    3.6621    0.1641 H   0  0  0  0  0  0  0  0  0  0  0  0
    3.6823    3.0548   -1.5139 H   0  0  0  0  0  0  0  0  0  0  0  0
   -2.7454   -0.7459    0.0699 C   0  0  0  0  0  0  0  0  0  0  0  0
   -3.2606   -1.0522   -1.2184 C   0  0  0  0  0  0  0  0  0  0  0  0
   -4.0500   -2.2053   -1.3609 C   0  0  0  0  0  0  0  0  0  0  0  0
   -4.4418   -2.4516   -2.3612 H   0  0  0  0  0  0  0  0  0  0  0  0
   -4.3494   -3.0487   -0.2764 C   0  0  0  0  0  0  0  0  0  0  0  0
   -3.8377   -2.7013    0.9858 C   0  0  0  0  0  0  0  0  0  0  0  0
   -4.0736   -3.3345    1.8566 H   0  0  0  0  0  0  0  0  0  0  0  0
   -3.0299   -1.5677    1.1873 C   0  0  0  0  0  0  0  0  0  0  0  0
   -2.9791   -0.1701   -2.4081 C   0  0  0  0  0  0  0  0  0  0  0  0
   -1.9150    0.1342   -2.4282 H   0  0  0  0  0  0  0  0  0  0  0  0
   -3.5997    0.7516   -2.3964 H   0  0  0  0  0  0  0  0  0  0  0  0
   -3.2048   -0.7038   -3.3508 H   0  0  0  0  0  0  0  0  0  0  0  0
   -5.1669   -4.3010   -0.4683 C   0  0  0  0  0  0  0  0  0  0  0  0
   -4.5185   -5.1579   -0.7527 H   0  0  0  0  0  0  0  0  0  0  0  0
   -5.9171   -4.1810   -1.2751 H   0  0  0  0  0  0  0  0  0  0  0  0
   -5.6985   -4.5892    0.4599 H   0  0  0  0  0  0  0  0  0  0  0  0
   -2.5046   -1.2451    2.5589 C   0  0  0  0  0  0  0  0  0  0  0  0
   -1.4150   -1.4392    2.6295 H   0  0  0  0  0  0  0  0  0  0  0  0
   -3.0200   -1.8485    3.3303 H   0  0  0  0  0  0  0  0  0  0  0  0
   -2.6171   -0.1716    2.8088 H   0  0  0  0  0  0  0  0  0  0  0  0
    2.9585   -0.1320   -0.0681 C   0  0  0  0  0  0  0  0  0  0  0  0
    3.6427   -0.4434   -1.2611 C   0  0  0  0  0  0  0  0  0  0  0  0
    3.3805    0.0894   -2.1857 H   0  0  0  0  0  0  0  0  0  0  0  0
    4.6148   -1.4455   -1.2677 C   0  0  0  0  0  0  0  0  0  0  0  0
    5.1473   -1.6963   -2.1960 H   0  0  0  0  0  0  0  0  0  0  0  0
    4.9117   -2.1540   -0.0795 C   0  0  0  0  0  0  0  0  0  0  0  0
    4.2061   -1.8490    1.1098 C   0  0  0  0  0  0  0  0  0  0  0  0
    4.4305   -2.4066    2.0302 H   0  0  0  0  0  0  0  0  0  0  0  0
    3.2298   -0.8518    1.1137 C   0  0  0  0  0  0  0  0  0  0  0  0
    2.6508   -0.6107    2.0175 H   0  0  0  0  0  0  0  0  0  0  0  0
    5.9162   -3.1761   -0.0824 C   0  0  0  0  0  0  0  0  0  0  0  0
  2  6  1  0  0  0  0
  4 53  3  0  0  0  0
  5 15  1  0  0  0  0
  5  1  1  0  0  0  0
  6  5  2  0  0  0  0
  7  8  1  0  0  0  0
  7  6  1  0  0  0  0
  9  7  2  0  0  0  0
 10  9  1  0  0  0  0
 11  9  1  0  0  0  0
 11 13  2  0  0  0  0
 12 11  1  0  0  0  0
 13 14  1  0  0  0  0
 13  2  1  0  0  0  0
 14  3  1  1  0  0  0
 15 16  1  0  0  0  0
 15 18  1  0  0  0  0
 17 15  1  0  0  0  0
 19 14  1  0  0  0  0
 19 20  1  0  0  0  0
 19 21  1  0  0  0  0
 22 19  1  0  0  0  0
 23  1  1  0  0  0  0
 23 30  1  0  0  0  0
 24 23  2  0  0  0  0
 25 24  1  0  0  0  0
 25 27  2  0  0  0  0
 26 25  1  0  0  0  0
 27 28  1  0  0  0  0
 28 30  2  0  0  0  0
 28 29  1  0  0  0  0
 30 39  1  0  0  0  0
 31 33  1  0  0  0  0
 31 24  1  0  0  0  0
 32 31  1  0  0  0  0
 34 31  1  0  0  0  0
 35 27  1  0  0  0  0
 35 38  1  0  0  0  0
 36 35  1  0  0  0  0
 37 35  1  0  0  0  0
 39 40  1  0  0  0  0
 39 42  1  0  0  0  0
 39 41  1  0  0  0  0
 43  3  1  0  0  0  0
 43 51  1  0  0  0  0
 44 43  2  0  0  0  0
 45 44  1  0  0  0  0
 46 44  1  0  0  0  0
 46 48  2  0  0  0  0
 47 46  1  0  0  0  0
 48 49  1  0  0  0  0
 49 51  2  0  0  0  0
 49 50  1  0  0  0  0
 51 52  1  0  0  0  0
 53 48  1  0  0  0  0
M  END
