2,3,4
 OpenBabel05122313063D

 51 53  0  0  1  0  0  0  0  0999 V2000
    1.5765    2.4140    1.8606 N   0  0  0  0  0  0  0  0  0  0  0  0
   -0.3457    0.3678    1.7620 N   0  0  0  0  0  2  0  0  0  0  0  0
    2.2735    0.6209   -0.1292 N   0  0  0  0  0  2  0  0  0  0  0  0
    0.0457    2.5244   -0.5220 N   0  0  0  0  0  2  0  0  0  0  0  0
    3.1064    0.8160    0.9386 C   0  0  1  0  0  3  0  0  0  0  0  0
    0.7843    4.8130   -0.8299 C   0  0  0  0  0  0  0  0  0  0  0  0
    1.4880    5.6021   -0.5236 H   0  0  0  0  0  0  0  0  0  0  0  0
    0.3546    2.5855    2.5840 C   0  0  0  0  0  0  0  0  0  0  0  0
   -0.3051    3.2662    2.0020 H   0  0  0  0  0  0  0  0  0  0  0  0
    0.4835    3.0689    3.5868 H   0  0  0  0  0  0  0  0  0  0  0  0
    2.8518    0.2760   -1.3141 C   0  0  0  0  0  0  0  0  0  0  0  0
   -1.6781   -0.1890    4.2056 C   0  0  0  0  0  0  0  0  0  0  0  0
   -2.1900   -0.3973    5.1568 H   0  0  0  0  0  0  0  0  0  0  0  0
    0.8858    3.5572   -0.2074 C   0  0  1  0  0  3  0  0  0  0  0  0
    4.4901    0.6356    0.8466 C   0  0  0  0  0  0  0  0  0  0  0  0
    5.1000    0.8017    1.7461 H   0  0  0  0  0  0  0  0  0  0  0  0
    4.2357    0.1331   -1.4780 C   0  0  0  0  0  0  0  0  0  0  0  0
    4.6291   -0.1407   -2.4672 H   0  0  0  0  0  0  0  0  0  0  0  0
   -0.3670    1.2776    2.7763 C   0  0  2  0  0  3  0  0  0  0  0  0
    2.4822    1.3480    2.1961 C   0  0  0  0  0  0  0  0  0  0  0  0
    1.9225    0.5167    2.6749 H   0  0  0  0  0  0  0  0  0  0  0  0
    3.2943    1.6406    2.9084 H   0  0  0  0  0  0  0  0  0  0  0  0
   -0.9982   -0.8051    1.9774 C   0  0  0  0  0  0  0  0  0  0  0  0
   -1.0184   -1.5125    1.1453 H   0  0  0  0  0  0  0  0  0  0  0  0
   -0.1947    5.0598   -1.7956 C   0  0  0  0  0  0  0  0  0  0  0  0
   -0.2690    6.0372   -2.2947 H   0  0  0  0  0  0  0  0  0  0  0  0
   -1.0133    1.0234    3.9952 C   0  0  0  0  0  0  0  0  0  0  0  0
   -0.9752    1.7962    4.7773 H   0  0  0  0  0  0  0  0  0  0  0  0
    1.9311    3.3921    0.8837 C   0  0  0  0  0  0  0  0  0  0  0  0
    2.8978    3.1067    0.4185 H   0  0  0  0  0  0  0  0  0  0  0  0
    2.1106    4.4078    1.3211 H   0  0  0  0  0  0  0  0  0  0  0  0
   -1.0964    4.0233   -2.0704 C   0  0  0  0  0  0  0  0  0  0  0  0
   -1.9258    4.1467   -2.7813 H   0  0  0  0  0  0  0  0  0  0  0  0
   -0.9463    2.7997   -1.4194 C   0  0  0  0  0  0  0  0  0  0  0  0
   -1.6600    1.9843   -1.5834 H   0  0  0  0  0  0  0  0  0  0  0  0
    5.0758    0.2840   -0.3750 C   0  0  0  0  0  0  0  0  0  0  0  0
    6.1627    0.1446   -0.4649 H   0  0  0  0  0  0  0  0  0  0  0  0
   -1.6576   -1.1214    3.1656 C   0  0  0  0  0  0  0  0  0  0  0  0
   -2.1563   -2.0974    3.2396 H   0  0  0  0  0  0  0  0  0  0  0  0
    0.6492    0.4480   -2.2140 O   0  0  0  0  0  0  0  0  0  0  0  0
    1.9461   -0.0940   -2.4389 C   0  0  0  0  0  0  0  0  0  0  0  0
    2.3443    0.2693   -3.4134 H   0  0  0  0  0  0  0  0  0  0  0  0
    1.8930   -1.2065   -2.4752 H   0  0  0  0  0  0  0  0  0  0  0  0
   -0.3036   -0.0435   -3.2074 C   0  0  0  0  0  0  0  0  0  0  0  0
    0.0380    0.3405   -4.1944 H   0  0  0  0  0  0  0  0  0  0  0  0
   -1.2686    0.4256   -2.9501 H   0  0  0  0  0  0  0  0  0  0  0  0
   -0.4443   -1.5359   -3.2293 C   0  0  0  0  0  0  0  0  0  0  0  0
   -0.7996   -2.0095   -2.3006 H   0  0  0  0  0  0  0  0  0  0  0  0
   -0.1866   -2.2819   -4.3170 C   0  0  0  0  0  0  0  0  0  0  0  0
    0.1733   -1.8291   -5.2574 H   0  0  0  0  0  0  0  0  0  0  0  0
   -0.3434   -3.3716   -4.3128 H   0  0  0  0  0  0  0  0  0  0  0  0
  1 20  1  0  0  0  0
  1  8  1  0  0  0  0
  2 23  1  0  0  0  0
  2 19  1  0  0  0  0
  3  5  1  0  0  0  0
  4 14  1  0  0  0  0
  5 20  1  6  0  0  0
  6  7  1  0  0  0  0
  6 14  1  0  0  0  0
  8 10  1  0  0  0  0
  9  8  1  0  0  0  0
 11  3  1  0  0  0  0
 12 13  1  0  0  0  0
 14 29  1  1  0  0  0
 15  5  1  0  0  0  0
 15 16  1  0  0  0  0
 17 11  2  0  0  0  0
 17 36  1  0  0  0  0
 18 17  1  0  0  0  0
 19  8  1  1  0  0  0
 19 27  1  0  0  0  0
 20 21  1  0  0  0  0
 20 22  1  0  0  0  0
 23 38  2  0  0  0  0
 24 23  1  0  0  0  0
 25  6  2  0  0  0  0
 26 25  1  0  0  0  0
 27 12  2  0  0  0  0
 27 28  1  0  0  0  0
 29 31  1  0  0  0  0
 29  1  1  0  0  0  0
 30 29  1  0  0  0  0
 32 25  1  0  0  0  0
 32 34  2  0  0  0  0
 33 32  1  0  0  0  0
 34  4  1  0  0  0  0
 35 34  1  0  0  0  0
 36 15  2  0  0  0  0
 37 36  1  0  0  0  0
 38 39  1  0  0  0  0
 38 12  1  0  0  0  0
 41 40  1  0  0  0  0
 41 11  1  0  0  0  0
 42 41  1  0  0  0  0
 43 41  1  0  0  0  0
 44 46  1  0  0  0  0
 44 40  1  0  0  0  0
 45 44  1  0  0  0  0
 47 44  1  0  0  0  0
 47 48  1  0  0  0  0
 49 51  1  0  0  0  0
 49 47  2  0  0  0  0
 50 49  1  0  0  0  0
M  END
