1,12,18
 OpenBabel05122313063D

 42 45  0  0  1  0  0  0  0  0999 V2000
    1.4191   -1.9749   -0.6912 N   0  0  0  0  0  2  0  0  0  0  0  0
    2.4508   -2.8458   -0.6442 C   0  0  0  0  0  3  0  0  0  0  0  0
    2.2658   -4.2284   -0.5626 C   0  0  0  0  0  0  0  0  0  0  0  0
    0.9583   -4.7390   -0.5349 C   0  0  0  0  0  0  0  0  0  0  0  0
   -0.1153   -3.8442   -0.5916 C   0  0  0  0  0  0  0  0  0  0  0  0
    0.1282   -2.4632   -0.6712 C   0  0  0  0  0  0  0  0  0  0  0  0
   -0.9207   -1.4363   -0.7433 C   0  0  2  0  0  3  0  0  0  0  0  0
   -2.3047   -1.6356   -0.7846 C   0  0  0  0  0  0  0  0  0  0  0  0
   -3.1818   -0.5290   -0.8631 C   0  0  0  0  0  0  0  0  0  0  0  0
   -2.6062    0.7570   -0.9849 C   0  0  0  0  0  0  0  0  0  0  0  0
   -1.2167    0.9152   -0.9590 C   0  0  0  0  0  0  0  0  0  0  0  0
   -0.4130   -0.1704   -0.7711 N   0  0  0  0  0  2  0  0  0  0  0  0
   -0.4554    2.1663   -1.0757 C   0  0  1  0  0  3  0  0  0  0  0  0
   -1.0317    3.4327   -1.2642 C   0  0  0  0  0  0  0  0  0  0  0  0
   -0.2156    4.5652   -1.3380 C   0  0  0  0  0  0  0  0  0  0  0  0
    1.1760    4.4047   -1.2241 C   0  0  0  0  0  0  0  0  0  0  0  0
    1.6980    3.1214   -1.0491 C   0  0  0  0  0  0  0  0  0  0  0  0
    0.9140    2.0221   -0.9713 N   0  0  0  0  0  2  0  0  0  0  0  0
   -4.6469   -0.7014   -0.7737 C   0  0  0  0  0  0  0  0  0  0  0  0
   -5.2050   -1.7590   -0.0188 C   0  0  0  0  0  0  0  0  0  0  0  0
   -6.5913   -1.8952    0.1192 C   0  0  0  0  0  0  0  0  0  0  0  0
   -7.4808   -0.9871   -0.4924 C   0  0  0  0  0  0  0  0  0  0  0  0
   -6.9219    0.0669   -1.2476 C   0  0  0  0  0  0  0  0  0  0  0  0
   -5.5381    0.2091   -1.3871 C   0  0  0  0  0  0  0  0  0  0  0  0
   -8.9723   -1.1496   -0.3723 C   0  0  0  0  0  0  0  0  0  0  0  0
    3.4568   -2.4044   -0.6863 H   0  0  0  0  0  0  0  0  0  0  0  0
    3.1413   -4.8918   -0.5315 H   0  0  0  0  0  0  0  0  0  0  0  0
    0.7778   -5.8219   -0.4765 H   0  0  0  0  0  0  0  0  0  0  0  0
   -1.1500   -4.2126   -0.5795 H   0  0  0  0  0  0  0  0  0  0  0  0
   -2.7111   -2.6553   -0.7689 H   0  0  0  0  0  0  0  0  0  0  0  0
   -3.2530    1.6414   -1.0481 H   0  0  0  0  0  0  0  0  0  0  0  0
   -2.1230    3.5230   -1.3498 H   0  0  0  0  0  0  0  0  0  0  0  0
   -0.6567    5.5613   -1.4858 H   0  0  0  0  0  0  0  0  0  0  0  0
    1.8580    5.2647   -1.2791 H   0  0  0  0  0  0  0  0  0  0  0  0
    2.7800    2.9422   -0.9715 H   0  0  0  0  0  0  0  0  0  0  0  0
   -4.5429   -2.4672    0.5023 H   0  0  0  0  0  0  0  0  0  0  0  0
   -6.9956   -2.7210    0.7250 H   0  0  0  0  0  0  0  0  0  0  0  0
   -7.5904    0.7872   -1.7446 H   0  0  0  0  0  0  0  0  0  0  0  0
   -5.1438    1.0289   -2.0059 H   0  0  0  0  0  0  0  0  0  0  0  0
   -9.4860   -0.1707   -0.2998 H   0  0  0  0  0  0  0  0  0  0  0  0
   -9.3831   -1.6627   -1.2684 H   0  0  0  0  0  0  0  0  0  0  0  0
   -9.2505   -1.7578    0.5098 H   0  0  0  0  0  0  0  0  0  0  0  0
  1  6  1  0  0  0  0
  1  2  1  0  0  0  0
  2  3  1  0  0  0  0
  3  4  2  0  0  0  0
  3 27  1  0  0  0  0
  4 28  1  0  0  0  0
  5 29  1  0  0  0  0
  5  4  1  0  0  0  0
  6  5  2  0  0  0  0
  7  6  1  6  0  0  0
  8 30  1  0  0  0  0
  8  7  1  0  0  0  0
  9  8  2  0  0  0  0
  9 19  1  0  0  0  0
 10 11  2  0  0  0  0
 10  9  1  0  0  0  0
 11 12  1  0  0  0  0
 12  7  1  0  0  0  0
 13 18  1  0  0  0  0
 13 11  1  1  0  0  0
 14 13  1  0  0  0  0
 15 14  2  0  0  0  0
 15 16  1  0  0  0  0
 16 17  2  0  0  0  0
 17 35  1  0  0  0  0
 17 18  1  0  0  0  0
 19 20  1  0  0  0  0
 20 21  2  0  0  0  0
 20 36  1  0  0  0  0
 21 37  1  0  0  0  0
 22 25  1  0  0  0  0
 22 21  1  0  0  0  0
 23 22  2  0  0  0  0
 24 23  1  0  0  0  0
 24 19  2  0  0  0  0
 25 40  1  0  0  0  0
 25 42  1  0  0  0  0
 26  2  1  0  0  0  0
 31 10  1  0  0  0  0
 32 14  1  0  0  0  0
 33 15  1  0  0  0  0
 34 16  1  0  0  0  0
 38 23  1  0  0  0  0
 39 24  1  0  0  0  0
 41 25  1  0  0  0  0
M  END
