1,2,3
 OpenBabel05122313063D

 62 64  0  0  1  0  0  0  0  0999 V2000
    1.3114    0.5374    0.3987 N   0  0  0  0  0  2  0  0  0  0  0  0
   -0.8960    1.4880    0.9046 N   0  0  0  0  0  2  0  0  0  0  0  0
   -2.4231   -0.0644   -0.2619 N   0  0  0  0  0  2  0  0  0  0  0  0
   -4.3682    0.9951    0.2506 O   0  0  0  0  0  0  0  0  0  0  0  0
    2.6918    2.2688    1.5897 C   0  0  0  0  0  0  0  0  0  0  0  0
    3.5327    1.5594    1.4907 H   0  0  0  0  0  0  0  0  0  0  0  0
    2.6167    2.5963    2.6461 H   0  0  0  0  0  0  0  0  0  0  0  0
    2.9322    3.1690    0.9834 H   0  0  0  0  0  0  0  0  0  0  0  0
    1.4094    1.6639    1.1099 C   0  0  0  0  0  0  0  0  0  0  0  0
    0.1229    2.2578    1.4090 C   0  0  0  0  0  0  0  0  0  0  0  0
   -0.1749    3.4181    2.1498 C   0  0  0  0  0  0  0  0  0  0  0  0
    0.6443    4.0325    2.5482 H   0  0  0  0  0  0  0  0  0  0  0  0
   -1.5160    3.7832    2.3580 C   0  0  0  0  0  0  0  0  0  0  0  0
   -1.7552    4.6867    2.9366 H   0  0  0  0  0  0  0  0  0  0  0  0
   -2.5512    3.0064    1.8072 C   0  0  0  0  0  0  0  0  0  0  0  0
   -3.6092    3.2776    1.9229 H   0  0  0  0  0  0  0  0  0  0  0  0
   -2.2054    1.8658    1.0701 C   0  0  0  0  0  0  0  0  0  0  0  0
   -3.0347    0.9273    0.3513 C   0  0  2  0  0  3  0  0  0  0  0  0
   -4.7234   -0.0155   -0.7438 C   0  0  0  0  0  0  0  0  0  0  0  0
   -4.9737    0.5184   -1.6833 H   0  0  0  0  0  0  0  0  0  0  0  0
   -5.6192   -0.5492   -0.3745 H   0  0  0  0  0  0  0  0  0  0  0  0
   -3.4629   -0.9124   -0.8762 C   0  0  2  0  0  0  0  0  0  0  0  0
   -3.1940   -1.0707   -1.9406 H   0  0  0  0  0  0  0  0  0  0  0  0
   -3.5808   -2.2948   -0.1873 C   0  0  0  0  0  0  0  0  0  0  0  0
   -2.5893   -2.7705   -0.3378 H   0  0  0  0  0  0  0  0  0  0  0  0
   -4.6368   -3.1547   -0.8895 C   0  0  0  0  0  0  0  0  0  0  0  0
   -5.6634   -2.7465   -0.7668 H   0  0  0  0  0  0  0  0  0  0  0  0
   -4.6453   -4.1797   -0.4680 H   0  0  0  0  0  0  0  0  0  0  0  0
   -4.4344   -3.2414   -1.9769 H   0  0  0  0  0  0  0  0  0  0  0  0
   -3.8240   -2.1834    1.3201 C   0  0  0  0  0  0  0  0  0  0  0  0
   -2.9999   -1.6326    1.8161 H   0  0  0  0  0  0  0  0  0  0  0  0
   -3.8729   -3.1909    1.7794 H   0  0  0  0  0  0  0  0  0  0  0  0
   -4.7784   -1.6670    1.5595 H   0  0  0  0  0  0  0  0  0  0  0  0
    2.4761   -0.2918    0.2561 C   0  0  0  0  0  0  0  0  0  0  0  0
    2.7066   -1.2818    1.2502 C   0  0  0  0  0  0  0  0  0  0  0  0
    3.8519   -2.0864    1.1235 C   0  0  0  0  0  0  0  0  0  0  0  0
    4.0528   -2.8575    1.8823 H   0  0  0  0  0  0  0  0  0  0  0  0
    4.7333   -1.9303    0.0456 C   0  0  0  0  0  0  0  0  0  0  0  0
    5.6229   -2.5731   -0.0365 H   0  0  0  0  0  0  0  0  0  0  0  0
    4.4727   -0.9635   -0.9311 C   0  0  0  0  0  0  0  0  0  0  0  0
    5.1596   -0.8514   -1.7841 H   0  0  0  0  0  0  0  0  0  0  0  0
    3.3428   -0.1269   -0.8495 C   0  0  0  0  0  0  0  0  0  0  0  0
    3.0612    0.8930   -1.9422 C   0  0  0  0  0  0  0  0  0  0  0  0
    2.1778    1.4874   -1.6336 H   0  0  0  0  0  0  0  0  0  0  0  0
    2.6722    0.1825   -3.2496 C   0  0  0  0  0  0  0  0  0  0  0  0
    3.5122   -0.4280   -3.6430 H   0  0  0  0  0  0  0  0  0  0  0  0
    2.3898    0.9237   -4.0247 H   0  0  0  0  0  0  0  0  0  0  0  0
    1.8035   -0.4848   -3.0861 H   0  0  0  0  0  0  0  0  0  0  0  0
    4.2333    1.8657   -2.1469 C   0  0  0  0  0  0  0  0  0  0  0  0
    4.5011    2.3857   -1.2042 H   0  0  0  0  0  0  0  0  0  0  0  0
    3.9691    2.6365   -2.8995 H   0  0  0  0  0  0  0  0  0  0  0  0
    5.1443    1.3466   -2.5115 H   0  0  0  0  0  0  0  0  0  0  0  0
    1.7582   -1.4597    2.4316 C   0  0  0  0  0  0  0  0  0  0  0  0
    0.8091   -0.9535    2.1565 H   0  0  0  0  0  0  0  0  0  0  0  0
    2.3089   -0.7805    3.6984 C   0  0  0  0  0  0  0  0  0  0  0  0
    3.2677   -1.2455    4.0095 H   0  0  0  0  0  0  0  0  0  0  0  0
    1.5943   -0.8798    4.5415 H   0  0  0  0  0  0  0  0  0  0  0  0
    2.5002    0.2986    3.5399 H   0  0  0  0  0  0  0  0  0  0  0  0
    1.4164   -2.9321    2.6993 C   0  0  0  0  0  0  0  0  0  0  0  0
    1.0207   -3.4138    1.7839 H   0  0  0  0  0  0  0  0  0  0  0  0
    0.6465   -3.0082    3.4943 H   0  0  0  0  0  0  0  0  0  0  0  0
    2.3003   -3.5078    3.0440 H   0  0  0  0  0  0  0  0  0  0  0  0
  1  9  1  0  0  0  0
  2 17  1  0  0  0  0
  2 10  1  0  0  0  0
  3 18  1  0  0  0  0
  4 18  1  0  0  0  0
  5  7  1  0  0  0  0
  6  5  1  0  0  0  0
  8  5  1  0  0  0  0
  9 10  2  0  0  0  0
  9  5  1  0  0  0  0
 10 11  1  0  0  0  0
 11 13  2  0  0  0  0
 11 12  1  0  0  0  0
 13 14  1  0  0  0  0
 15 16  1  0  0  0  0
 15 13  1  0  0  0  0
 17 15  2  0  0  0  0
 18 17  1  6  0  0  0
 19 21  1  0  0  0  0
 19  4  1  0  0  0  0
 20 19  1  0  0  0  0
 22 23  1  6  0  0  0
 22 19  1  0  0  0  0
 22  3  1  0  0  0  0
 22 24  1  0  0  0  0
 24 30  1  0  0  0  0
 25 24  1  0  0  0  0
 26 27  1  0  0  0  0
 26 28  1  0  0  0  0
 26 24  1  0  0  0  0
 29 26  1  0  0  0  0
 30 33  1  0  0  0  0
 30 32  1  0  0  0  0
 30 31  1  0  0  0  0
 34  1  1  0  0  0  0
 34 35  1  0  0  0  0
 35 53  1  0  0  0  0
 36 35  2  0  0  0  0
 36 37  1  0  0  0  0
 38 36  1  0  0  0  0
 39 38  1  0  0  0  0
 40 42  1  0  0  0  0
 40 38  2  0  0  0  0
 41 40  1  0  0  0  0
 42 34  2  0  0  0  0
 43 44  1  0  0  0  0
 43 42  1  0  0  0  0
 45 48  1  0  0  0  0
 45 43  1  0  0  0  0
 46 45  1  0  0  0  0
 47 45  1  0  0  0  0
 49 43  1  0  0  0  0
 49 50  1  0  0  0  0
 51 49  1  0  0  0  0
 52 49  1  0  0  0  0
 53 59  1  0  0  0  0
 53 55  1  0  0  0  0
 54 53  1  0  0  0  0
 55 56  1  0  0  0  0
 55 57  1  0  0  0  0
 58 55  1  0  0  0  0
 59 62  1  0  0  0  0
 59 61  1  0  0  0  0
 60 59  1  0  0  0  0
M  END
