2,8,10
 OpenBabel05122313063D

 34 35  0  0  0  0  0  0  0  0999 V2000
    2.7142   -1.7719   -1.1124 N   0  0  0  0  0  0  0  0  0  0  0  0
    0.7965   -0.5848   -0.2871 N   0  0  0  0  0  2  0  0  0  0  0  0
    4.8963   -1.0066   -0.8546 N   0  0  0  0  0  0  0  0  0  0  0  0
    5.5621   -0.3244   -0.4922 H   0  0  0  0  0  0  0  0  0  0  0  0
    5.2239   -1.8479   -1.3303 H   0  0  0  0  0  0  0  0  0  0  0  0
    3.6594    1.3818    0.6257 N   0  0  0  0  0  0  0  0  0  0  0  0
    1.4101    1.5129    0.8967 N   0  0  0  0  0  0  0  0  0  0  0  0
   -1.6774    1.0919   -1.1486 N   0  0  0  0  0  0  0  0  0  0  0  0
   -1.6222    0.6865   -2.0962 H   0  0  0  0  0  0  0  0  0  0  0  0
   -3.2593   -0.6975    0.3171 N   0  0  0  0  0  0  0  0  0  0  0  0
   -3.5515   -1.6872    0.2874 H   0  0  0  0  0  0  0  0  0  0  0  0
   -3.4839   -0.3631    1.2675 H   0  0  0  0  0  0  0  0  0  0  0  0
    1.4141   -1.6312   -0.9119 C   0  0  0  0  0  3  0  0  0  0  0  0
    0.7458   -2.4283   -1.2733 H   0  0  0  0  0  0  0  0  0  0  0  0
    1.6538    0.3535    0.1914 C   0  0  0  0  0  0  0  0  0  0  0  0
    3.0548    0.2944    0.0377 C   0  0  0  0  0  0  0  0  0  0  0  0
    3.5825   -0.8358   -0.6511 C   0  0  0  0  0  0  0  0  0  0  0  0
    2.6641    2.0839    1.1242 C   0  0  0  0  0  0  0  0  0  0  0  0
    2.7568    3.0249    1.6841 H   0  0  0  0  0  0  0  0  0  0  0  0
    0.1200    2.0530    1.3038 C   0  0  0  0  0  0  0  0  0  0  0  0
    0.2777    2.6494    2.2233 H   0  0  0  0  0  0  0  0  0  0  0  0
   -0.5284    1.1920    1.5833 H   0  0  0  0  0  0  0  0  0  0  0  0
   -0.5449    2.9239    0.2278 C   0  0  0  0  0  0  0  0  0  0  0  0
   -1.4974    3.3168    0.6416 H   0  0  0  0  0  0  0  0  0  0  0  0
    0.0858    3.8189    0.0463 H   0  0  0  0  0  0  0  0  0  0  0  0
   -0.7646    2.2701   -1.1376 C   0  0  0  0  0  0  0  0  0  0  0  0
   -1.1617    3.0344   -1.8417 H   0  0  0  0  0  0  0  0  0  0  0  0
    0.2030    1.9235   -1.5526 H   0  0  0  0  0  0  0  0  0  0  0  0
   -3.1067    1.4211   -0.8793 C   0  0  0  0  0  0  0  0  0  0  0  0
   -3.5277    2.0627   -1.6837 H   0  0  0  0  0  0  0  0  0  0  0  0
   -3.1500    2.0046    0.0623 H   0  0  0  0  0  0  0  0  0  0  0  0
   -3.9077    0.1349   -0.7267 C   0  0  0  0  0  0  0  0  0  0  0  0
   -4.9670    0.3600   -0.4821 H   0  0  0  0  0  0  0  0  0  0  0  0
   -3.9020   -0.4436   -1.6730 H   0  0  0  0  0  0  0  0  0  0  0  0
  1 13  1  0  0  0  0
  1 17  2  0  0  0  0
  2 15  1  0  0  0  0
  3 17  1  0  0  0  0
  3  4  1  0  0  0  0
  5  3  1  0  0  0  0
  6 18  2  0  0  0  0
  7 18  1  0  0  0  0
  7 20  1  0  0  0  0
  8 26  1  0  0  0  0
  8 29  1  0  0  0  0
  9  8  1  0  0  0  0
 10 12  1  0  0  0  0
 11 10  1  0  0  0  0
 13  2  1  0  0  0  0
 14 13  1  0  0  0  0
 15  7  1  0  0  0  0
 16 15  2  0  0  0  0
 16  6  1  0  0  0  0
 17 16  1  0  0  0  0
 18 19  1  0  0  0  0
 20 22  1  0  0  0  0
 20 21  1  0  0  0  0
 23 24  1  0  0  0  0
 23 20  1  0  0  0  0
 25 23  1  0  0  0  0
 26 23  1  0  0  0  0
 27 26  1  0  0  0  0
 28 26  1  0  0  0  0
 29 32  1  0  0  0  0
 29 31  1  0  0  0  0
 30 29  1  0  0  0  0
 32 33  1  0  0  0  0
 32 10  1  0  0  0  0
 34 32  1  0  0  0  0
M  END
