1,2,3
 OpenBabel05122313063D

 71 77  0  0  1  0  0  0  0  0999 V2000
   -1.2528    1.5691    0.2031 N   0  0  0  0  0  2  0  0  0  0  0  0
    0.7765    0.1433   -0.7441 N   0  0  0  0  0  0  0  0  0  0  0  0
   -1.3437   -1.5499   -0.0499 N   0  0  0  0  0  2  0  0  0  0  0  0
    8.0049    0.7494   -0.1924 O   0  0  0  0  0  0  0  0  0  0  0  0
   -2.3707   -2.4931    0.1050 C   0  0  1  0  0  3  0  0  0  0  0  0
    7.7701   -1.4028    0.4935 O   0  0  0  0  0  0  0  0  0  0  0  0
   -3.4428   -2.5253   -0.8210 C   0  0  0  0  0  0  0  0  0  0  0  0
   -3.4236   -1.8401   -1.6739 H   0  0  0  0  0  0  0  0  0  0  0  0
   -4.4926   -3.4253   -0.6759 C   0  0  0  0  0  0  0  0  0  0  0  0
   -5.3089   -3.4300   -1.4128 H   0  0  0  0  0  0  0  0  0  0  0  0
   -4.5028   -4.3315    0.4056 C   0  0  0  0  0  0  0  0  0  0  0  0
   -5.3342   -5.0412    0.5261 H   0  0  0  0  0  0  0  0  0  0  0  0
   -3.4465   -4.3385    1.3096 C   0  0  0  0  0  0  0  0  0  0  0  0
   -3.4551   -5.0649    2.1329 H   0  0  0  0  0  0  0  0  0  0  0  0
   -2.3558   -3.4399    1.1819 C   0  0  0  0  0  0  0  0  0  0  0  0
   -1.2195   -3.4601    2.0832 C   0  0  0  0  0  0  0  0  0  0  0  0
   -1.1130   -4.3489    3.1834 C   0  0  0  0  0  0  0  0  0  0  0  0
   -1.9250   -5.0559    3.3976 H   0  0  0  0  0  0  0  0  0  0  0  0
    0.0115   -4.3441    4.0020 C   0  0  0  0  0  0  0  0  0  0  0  0
    0.0729   -5.0434    4.8489 H   0  0  0  0  0  0  0  0  0  0  0  0
    1.0761   -3.4486    3.7498 C   0  0  0  0  0  0  0  0  0  0  0  0
    1.9639   -3.4508    4.3986 H   0  0  0  0  0  0  0  0  0  0  0  0
    0.9987   -2.5644    2.6814 C   0  0  0  0  0  0  0  0  0  0  0  0
    1.8348   -1.8744    2.5067 H   0  0  0  0  0  0  0  0  0  0  0  0
   -0.1458   -2.5480    1.8321 C   0  0  0  0  0  0  0  0  0  0  0  0
   -0.2770   -1.6092    0.7435 C   0  0  0  0  0  0  0  0  0  0  0  0
    0.8209   -0.5960    0.5499 C   0  0  0  0  0  0  0  0  0  0  0  0
    0.7552    0.1308    1.3852 H   0  0  0  0  0  0  0  0  0  0  0  0
    1.8136   -1.0752    0.6584 H   0  0  0  0  0  0  0  0  0  0  0  0
   -2.3273    1.9566    1.0009 C   0  0  2  0  0  3  0  0  0  0  0  0
   -4.5941    1.5317    1.7909 C   0  0  0  0  0  0  0  0  0  0  0  0
   -5.4980    0.9055    1.7932 H   0  0  0  0  0  0  0  0  0  0  0  0
   -4.5395    2.7046    2.5770 C   0  0  0  0  0  0  0  0  0  0  0  0
   -5.4072    3.0007    3.1844 H   0  0  0  0  0  0  0  0  0  0  0  0
   -3.3839    3.4787    2.5983 C   0  0  0  0  0  0  0  0  0  0  0  0
   -3.3524    4.3738    3.2336 H   0  0  0  0  0  0  0  0  0  0  0  0
   -2.2461    3.1244    1.8279 C   0  0  0  0  0  0  0  0  0  0  0  0
   -1.0035    3.8747    1.8552 C   0  0  0  0  0  0  0  0  0  0  0  0
   -0.8309    5.0706    2.5974 C   0  0  0  0  0  0  0  0  0  0  0  0
   -1.6719    5.4878    3.1669 H   0  0  0  0  0  0  0  0  0  0  0  0
    0.3929    5.7324    2.6144 C   0  0  0  0  0  0  0  0  0  0  0  0
    0.5021    6.6600    3.1955 H   0  0  0  0  0  0  0  0  0  0  0  0
    1.4968    5.2235    1.8905 C   0  0  0  0  0  0  0  0  0  0  0  0
    2.4594    5.7548    1.9084 H   0  0  0  0  0  0  0  0  0  0  0  0
    1.3603    4.0554    1.1524 C   0  0  0  0  0  0  0  0  0  0  0  0
    2.2206    3.6785    0.5821 H   0  0  0  0  0  0  0  0  0  0  0  0
    0.1144    3.3659    1.1130 C   0  0  0  0  0  0  0  0  0  0  0  0
   -0.0796    2.1900    0.3100 C   0  0  0  0  0  0  0  0  0  0  0  0
    1.0589    1.5823   -0.4794 C   0  0  0  0  0  0  0  0  0  0  0  0
    1.1830    2.1033   -1.4513 H   0  0  0  0  0  0  0  0  0  0  0  0
    2.0169    1.6919    0.0703 H   0  0  0  0  0  0  0  0  0  0  0  0
    1.7435   -0.4447   -1.7531 C   0  0  0  0  0  0  0  0  0  0  0  0
    1.5849    0.1178   -2.6933 H   0  0  0  0  0  0  0  0  0  0  0  0
    1.4064   -1.4837   -1.9292 H   0  0  0  0  0  0  0  0  0  0  0  0
    3.1963   -0.4195   -1.3413 C   0  0  0  0  0  0  0  0  0  0  0  0
    3.9895    0.7301   -1.5500 C   0  0  0  0  0  0  0  0  0  0  0  0
    3.5652    1.6010   -2.0739 H   0  0  0  0  0  0  0  0  0  0  0  0
    5.3214    0.7649   -1.1255 C   0  0  0  0  0  0  0  0  0  0  0  0
    5.9546    1.6505   -1.2835 H   0  0  0  0  0  0  0  0  0  0  0  0
    5.8932   -0.3558   -0.4925 C   0  0  0  0  0  0  0  0  0  0  0  0
    5.1226   -1.5189   -0.3056 C   0  0  0  0  0  0  0  0  0  0  0  0
    5.5828   -2.3998    0.1627 H   0  0  0  0  0  0  0  0  0  0  0  0
    3.7872   -1.5465   -0.7290 C   0  0  0  0  0  0  0  0  0  0  0  0
    3.1995   -2.4709   -0.6062 H   0  0  0  0  0  0  0  0  0  0  0  0
    7.3263   -0.2533   -0.0600 C   0  0  0  0  0  0  0  0  0  0  0  0
    9.1409   -1.3904    0.9229 C   0  0  0  0  0  0  0  0  0  0  0  0
    9.3388   -2.3920    1.3421 H   0  0  0  0  0  0  0  0  0  0  0  0
    9.3028   -0.6067    1.6895 H   0  0  0  0  0  0  0  0  0  0  0  0
    9.8149   -1.1859    0.0674 H   0  0  0  0  0  0  0  0  0  0  0  0
   -3.5022    1.1639    1.0141 C   0  0  0  0  0  0  0  0  0  0  0  0
   -3.5267    0.2437    0.4168 H   0  0  0  0  0  0  0  0  0  0  0  0
  1 48  1  0  0  0  0
  2 49  1  0  0  0  0
  2 27  1  0  0  0  0
  3  5  1  0  0  0  0
  3 26  1  0  0  0  0
  4 65  2  0  0  0  0
  5  7  1  6  0  0  0
  5 15  1  0  0  0  0
  6 66  1  0  0  0  0
  7  9  2  0  0  0  0
  8  7  1  0  0  0  0
  9 11  1  0  0  0  0
 10  9  1  0  0  0  0
 11 12  1  0  0  0  0
 11 13  2  0  0  0  0
 13 14  1  0  0  0  0
 15 13  1  0  0  0  0
 15 16  2  0  0  0  0
 16 17  1  0  0  0  0
 17 18  1  0  0  0  0
 17 19  2  0  0  0  0
 19 20  1  0  0  0  0
 21 19  1  0  0  0  0
 21 22  1  0  0  0  0
 23 21  2  0  0  0  0
 24 23  1  0  0  0  0
 25 16  1  0  0  0  0
 25 23  1  0  0  0  0
 26 25  2  0  0  0  0
 27 29  1  0  0  0  0
 27 26  1  0  0  0  0
 27 28  1  0  0  0  0
 30  1  1  1  0  0  0
 30 70  1  0  0  0  0
 30 37  1  0  0  0  0
 31 32  1  0  0  0  0
 31 33  1  0  0  0  0
 33 35  2  0  0  0  0
 33 34  1  0  0  0  0
 35 36  1  0  0  0  0
 37 38  2  0  0  0  0
 37 35  1  0  0  0  0
 38 39  1  0  0  0  0
 39 41  2  0  0  0  0
 39 40  1  0  0  0  0
 41 42  1  0  0  0  0
 43 44  1  0  0  0  0
 43 41  1  0  0  0  0
 45 43  2  0  0  0  0
 46 45  1  0  0  0  0
 47 45  1  0  0  0  0
 47 38  1  0  0  0  0
 48 47  2  0  0  0  0
 49 51  1  0  0  0  0
 49 48  1  0  0  0  0
 50 49  1  0  0  0  0
 52 55  1  0  0  0  0
 52  2  1  0  0  0  0
 53 52  1  0  0  0  0
 54 52  1  0  0  0  0
 55 63  1  0  0  0  0
 56 55  2  0  0  0  0
 56 58  1  0  0  0  0
 57 56  1  0  0  0  0
 58 60  2  0  0  0  0
 59 58  1  0  0  0  0
 60 61  1  0  0  0  0
 60 65  1  0  0  0  0
 61 62  1  0  0  0  0
 63 64  1  0  0  0  0
 63 61  2  0  0  0  0
 65  6  1  0  0  0  0
 66 67  1  0  0  0  0
 66 68  1  0  0  0  0
 69 66  1  0  0  0  0
 70 31  2  0  0  0  0
 71 70  1  0  0  0  0
M  END
