1,2,3
 OpenBabel05122313063D

 79 81  0  0  1  0  0  0  0  0999 V2000
   -1.8748    0.5012   -0.3509 N   0  0  0  0  0  2  0  0  0  0  0  0
   -0.0453    2.1532   -0.0585 N   0  0  0  0  0  2  0  0  0  0  0  0
    1.8925    0.5900   -0.0369 N   0  0  0  0  0  2  0  0  0  0  0  0
   -3.7445    2.1470   -0.6834 C   0  0  0  0  0  0  0  0  0  0  0  0
   -4.3482    1.2988   -1.0593 H   0  0  0  0  0  0  0  0  0  0  0  0
   -3.8556    2.9958   -1.3866 H   0  0  0  0  0  0  0  0  0  0  0  0
   -4.1891    2.4664    0.2844 H   0  0  0  0  0  0  0  0  0  0  0  0
   -2.3026    1.7656   -0.5351 C   0  0  1  0  0  3  0  0  0  0  0  0
   -1.2191    2.7085   -0.5588 C   0  0  2  0  0  3  0  0  0  0  0  0
   -1.2186    4.0217   -1.0535 C   0  0  0  0  0  0  0  0  0  0  0  0
   -2.1604    4.4757   -1.3943 H   0  0  0  0  0  0  0  0  0  0  0  0
   -0.0059    4.7281   -1.1573 C   0  0  0  0  0  0  0  0  0  0  0  0
    0.0058    5.7511   -1.5595 H   0  0  0  0  0  0  0  0  0  0  0  0
    1.2012    4.0779   -0.8357 C   0  0  0  0  0  0  0  0  0  0  0  0
    2.1688    4.5723   -1.0057 H   0  0  0  0  0  0  0  0  0  0  0  0
    1.1699    2.7647   -0.3461 C   0  0  0  0  0  0  0  0  0  0  0  0
    2.2787    1.8758   -0.1345 C   0  0  2  0  0  3  0  0  0  0  0  0
    3.7050    2.3382   -0.0710 C   0  0  0  0  0  0  0  0  0  0  0  0
    4.3821    1.5027    0.1853 H   0  0  0  0  0  0  0  0  0  0  0  0
    3.8414    3.1469    0.6759 H   0  0  0  0  0  0  0  0  0  0  0  0
    4.0325    2.7449   -1.0523 H   0  0  0  0  0  0  0  0  0  0  0  0
   -2.7948   -0.5686   -0.1769 C   0  0  0  0  0  0  0  0  0  0  0  0
   -3.5086   -0.7186    1.0430 C   0  0  0  0  0  0  0  0  0  0  0  0
   -4.3667   -1.8270    1.1738 C   0  0  0  0  0  0  0  0  0  0  0  0
   -4.9282   -1.9643    2.1108 H   0  0  0  0  0  0  0  0  0  0  0  0
   -4.5091   -2.7625    0.1423 C   0  0  0  0  0  0  0  0  0  0  0  0
   -5.1892   -3.6189    0.2656 H   0  0  0  0  0  0  0  0  0  0  0  0
   -3.7663   -2.6208   -1.0379 C   0  0  0  0  0  0  0  0  0  0  0  0
   -3.8599   -3.3754   -1.8325 H   0  0  0  0  0  0  0  0  0  0  0  0
   -2.8904   -1.5366   -1.2149 C   0  0  0  0  0  0  0  0  0  0  0  0
   -3.3006    0.2307    2.2184 C   0  0  0  0  0  0  0  0  0  0  0  0
   -2.7216    1.1015    1.8514 H   0  0  0  0  0  0  0  0  0  0  0  0
   -4.6256    0.7552    2.7937 C   0  0  0  0  0  0  0  0  0  0  0  0
   -4.4355    1.5138    3.5801 H   0  0  0  0  0  0  0  0  0  0  0  0
   -5.2210   -0.0572    3.2595 H   0  0  0  0  0  0  0  0  0  0  0  0
   -5.2561    1.2216    2.0100 H   0  0  0  0  0  0  0  0  0  0  0  0
   -2.4455   -0.4390    3.3107 C   0  0  0  0  0  0  0  0  0  0  0  0
   -2.2802    0.2564    4.1596 H   0  0  0  0  0  0  0  0  0  0  0  0
   -1.4543   -0.7358    2.9163 H   0  0  0  0  0  0  0  0  0  0  0  0
   -2.9415   -1.3496    3.7061 H   0  0  0  0  0  0  0  0  0  0  0  0
   -2.0481   -1.3722   -2.4713 C   0  0  0  0  0  0  0  0  0  0  0  0
   -1.1364   -0.8262   -2.1452 H   0  0  0  0  0  0  0  0  0  0  0  0
   -2.7597   -0.4852   -3.5082 C   0  0  0  0  0  0  0  0  0  0  0  0
   -3.0142    0.5071   -3.0863 H   0  0  0  0  0  0  0  0  0  0  0  0
   -3.7018   -0.9602   -3.8540 H   0  0  0  0  0  0  0  0  0  0  0  0
   -2.1134   -0.3198   -4.3949 H   0  0  0  0  0  0  0  0  0  0  0  0
   -1.5990   -2.7032   -3.0841 C   0  0  0  0  0  0  0  0  0  0  0  0
   -1.1041   -3.3463   -2.3290 H   0  0  0  0  0  0  0  0  0  0  0  0
   -0.8750   -2.5206   -3.9038 H   0  0  0  0  0  0  0  0  0  0  0  0
   -2.4467   -3.2729   -3.5194 H   0  0  0  0  0  0  0  0  0  0  0  0
    2.8350   -0.4390    0.2425 C   0  0  0  0  0  0  0  0  0  0  0  0
    3.0426   -0.8512    1.5864 C   0  0  0  0  0  0  0  0  0  0  0  0
    3.9463   -1.9034    1.8246 C   0  0  0  0  0  0  0  0  0  0  0  0
    4.1227   -2.2367    2.8586 H   0  0  0  0  0  0  0  0  0  0  0  0
    4.6228   -2.5299    0.7719 C   0  0  0  0  0  0  0  0  0  0  0  0
    5.3272   -3.3498    0.9788 H   0  0  0  0  0  0  0  0  0  0  0  0
    4.3974   -2.1166   -0.5488 C   0  0  0  0  0  0  0  0  0  0  0  0
    4.9285   -2.6202   -1.3692 H   0  0  0  0  0  0  0  0  0  0  0  0
    3.5004   -1.0746   -0.8425 C   0  0  0  0  0  0  0  0  0  0  0  0
    2.3281   -0.1563    2.7402 C   0  0  0  0  0  0  0  0  0  0  0  0
    1.4743    0.3977    2.2952 H   0  0  0  0  0  0  0  0  0  0  0  0
    1.7472   -1.1419    3.7648 C   0  0  0  0  0  0  0  0  0  0  0  0
    1.1093   -1.9055    3.2784 H   0  0  0  0  0  0  0  0  0  0  0  0
    1.1279   -0.6008    4.5090 H   0  0  0  0  0  0  0  0  0  0  0  0
    2.5428   -1.6736    4.3273 H   0  0  0  0  0  0  0  0  0  0  0  0
    3.2502    0.8708    3.4205 C   0  0  0  0  0  0  0  0  0  0  0  0
    3.6255    1.6226    2.6991 H   0  0  0  0  0  0  0  0  0  0  0  0
    4.1326    0.3716    3.8734 H   0  0  0  0  0  0  0  0  0  0  0  0
    2.7124    1.4104    4.2273 H   0  0  0  0  0  0  0  0  0  0  0  0
    3.1897   -0.6587   -2.2765 C   0  0  0  0  0  0  0  0  0  0  0  0
    3.0545    0.4442   -2.2752 H   0  0  0  0  0  0  0  0  0  0  0  0
    1.8489   -1.2718   -2.7239 C   0  0  0  0  0  0  0  0  0  0  0  0
    1.0330   -0.9644   -2.0399 H   0  0  0  0  0  0  0  0  0  0  0  0
    1.9024   -2.3799   -2.7218 H   0  0  0  0  0  0  0  0  0  0  0  0
    1.5807   -0.9386   -3.7479 H   0  0  0  0  0  0  0  0  0  0  0  0
    4.3059   -0.9834   -3.2752 C   0  0  0  0  0  0  0  0  0  0  0  0
    5.2843   -0.5771   -2.9478 H   0  0  0  0  0  0  0  0  0  0  0  0
    4.0685   -0.5497   -4.2674 H   0  0  0  0  0  0  0  0  0  0  0  0
    4.4240   -2.0771   -3.4214 H   0  0  0  0  0  0  0  0  0  0  0  0
  1 22  1  0  0  0  0
  3 51  1  0  0  0  0
  4  8  1  0  0  0  0
  4  7  1  0  0  0  0
  5  4  1  0  0  0  0
  6  4  1  0  0  0  0
  8  1  1  1  0  0  0
  9  8  1  6  0  0  0
  9  2  1  0  0  0  0
 10  9  1  0  0  0  0
 11 10  1  0  0  0  0
 12 10  2  0  0  0  0
 12 14  1  0  0  0  0
 13 12  1  0  0  0  0
 14 16  2  0  0  0  0
 15 14  1  0  0  0  0
 16 17  1  0  0  0  0
 16  2  1  0  0  0  0
 17 18  1  0  0  0  0
 17  3  1  6  0  0  0
 18 19  1  0  0  0  0
 18 20  1  0  0  0  0
 21 18  1  0  0  0  0
 22 23  1  0  0  0  0
 23 24  2  0  0  0  0
 23 31  1  0  0  0  0
 24 25  1  0  0  0  0
 26 27  1  0  0  0  0
 26 24  1  0  0  0  0
 28 26  2  0  0  0  0
 29 28  1  0  0  0  0
 30 28  1  0  0  0  0
 30 22  2  0  0  0  0
 31 33  1  0  0  0  0
 31 37  1  0  0  0  0
 32 31  1  0  0  0  0
 33 35  1  0  0  0  0
 33 34  1  0  0  0  0
 36 33  1  0  0  0  0
 37 40  1  0  0  0  0
 37 38  1  0  0  0  0
 39 37  1  0  0  0  0
 41 42  1  0  0  0  0
 41 30  1  0  0  0  0
 43 44  1  0  0  0  0
 43 41  1  0  0  0  0
 45 43  1  0  0  0  0
 46 43  1  0  0  0  0
 47 41  1  0  0  0  0
 47 48  1  0  0  0  0
 49 47  1  0  0  0  0
 50 47  1  0  0  0  0
 51 52  1  0  0  0  0
 52 53  2  0  0  0  0
 52 60  1  0  0  0  0
 53 54  1  0  0  0  0
 55 56  1  0  0  0  0
 55 53  1  0  0  0  0
 57 55  2  0  0  0  0
 58 57  1  0  0  0  0
 59 57  1  0  0  0  0
 59 51  2  0  0  0  0
 60 66  1  0  0  0  0
 60 62  1  0  0  0  0
 61 60  1  0  0  0  0
 62 65  1  0  0  0  0
 62 64  1  0  0  0  0
 63 62  1  0  0  0  0
 66 68  1  0  0  0  0
 66 69  1  0  0  0  0
 67 66  1  0  0  0  0
 70 71  1  0  0  0  0
 70 59  1  0  0  0  0
 72 74  1  0  0  0  0
 72 70  1  0  0  0  0
 72 73  1  0  0  0  0
 75 72  1  0  0  0  0
 76 77  1  0  0  0  0
 76 70  1  0  0  0  0
 78 76  1  0  0  0  0
 79 76  1  0  0  0  0
M  END
