1,2,3
 OpenBabel05122313063D

 73 79  0  0  1  0  0  0  0  0999 V2000
    2.1844   -0.7911   -0.0492 N   0  0  0  0  0  0  0  0  0  0  0  0
    0.0003    1.3574   -0.1107 N   0  0  0  0  0  0  0  0  0  0  0  0
   -2.1844   -0.7906   -0.0501 N   0  0  0  0  0  0  0  0  0  0  0  0
   -1.2152   -3.2331   -2.2319 C   0  0  0  0  0  0  0  0  0  0  0  0
   -2.1588   -3.1226   -2.7857 H   0  0  0  0  0  0  0  0  0  0  0  0
    0.0002   -3.1802   -2.9255 C   0  0  0  0  0  0  0  0  0  0  0  0
    0.0005   -3.0590   -4.0196 H   0  0  0  0  0  0  0  0  0  0  0  0
    1.2153   -3.2334   -2.2314 C   0  0  0  0  0  0  0  0  0  0  0  0
    2.1592   -3.1232   -2.7847 H   0  0  0  0  0  0  0  0  0  0  0  0
    1.2329   -3.3809   -0.8310 C   0  0  0  0  0  0  0  0  0  0  0  0
    2.5673   -3.2815   -0.0756 C   0  0  0  0  0  0  0  0  0  0  0  0
    3.0269   -1.8284   -0.1701 C   0  0  0  0  0  0  0  0  0  0  0  0
    4.3812   -1.3681   -0.3687 C   0  0  0  0  0  0  0  0  0  0  0  0
    5.2631   -1.9995   -0.5183 H   0  0  0  0  0  0  0  0  0  0  0  0
    4.3338    0.0116   -0.3530 C   0  0  0  0  0  0  0  0  0  0  0  0
    5.1631    0.7107   -0.5027 H   0  0  0  0  0  0  0  0  0  0  0  0
    2.9452    0.3830   -0.1482 C   0  0  0  0  0  3  0  0  0  0  0  0
    2.4703    1.7075   -0.1157 C   0  0  2  0  0  3  0  0  0  0  0  0
    1.1065    2.1648   -0.0745 C   0  0  0  0  0  3  0  0  0  0  0  0
    0.6919    3.5484    0.0052 C   0  0  0  0  0  0  0  0  0  0  0  0
    1.3561    4.4161    0.0697 H   0  0  0  0  0  0  0  0  0  0  0  0
   -0.6908    3.5486    0.0051 C   0  0  0  0  0  0  0  0  0  0  0  0
   -1.3548    4.4164    0.0696 H   0  0  0  0  0  0  0  0  0  0  0  0
   -1.1058    2.1650   -0.0746 C   0  0  0  0  0  0  0  0  0  0  0  0
   -2.4697    1.7081   -0.1158 C   0  0  2  0  0  3  0  0  0  0  0  0
   -2.9450    0.3837   -0.1486 C   0  0  0  0  0  3  0  0  0  0  0  0
   -4.3337    0.0128   -0.3532 C   0  0  0  0  0  0  0  0  0  0  0  0
   -5.1629    0.7122   -0.5024 H   0  0  0  0  0  0  0  0  0  0  0  0
   -4.3815   -1.3668   -0.3690 C   0  0  0  0  0  0  0  0  0  0  0  0
   -5.2637   -1.9979   -0.5185 H   0  0  0  0  0  0  0  0  0  0  0  0
   -3.0273   -1.8276   -0.1710 C   0  0  0  0  0  0  0  0  0  0  0  0
   -2.5682   -3.2809   -0.0767 C   0  0  0  0  0  0  0  0  0  0  0  0
   -1.2336   -3.3806   -0.8315 C   0  0  0  0  0  0  0  0  0  0  0  0
   -0.0005   -3.4883   -0.1519 C   0  0  0  0  0  0  0  0  0  0  0  0
    2.4452   -3.6471    1.4238 C   0  0  0  0  0  0  0  0  0  0  0  0
    1.7554   -2.9799    1.9787 H   0  0  0  0  0  0  0  0  0  0  0  0
    3.4405   -3.5659    1.9031 H   0  0  0  0  0  0  0  0  0  0  0  0
    2.0966   -4.6945    1.5344 H   0  0  0  0  0  0  0  0  0  0  0  0
    3.6119   -4.2250   -0.7126 C   0  0  0  0  0  0  0  0  0  0  0  0
    3.2287   -5.2641   -0.7028 H   0  0  0  0  0  0  0  0  0  0  0  0
    4.5576   -4.2085   -0.1361 H   0  0  0  0  0  0  0  0  0  0  0  0
    3.8489   -3.9556   -1.7597 H   0  0  0  0  0  0  0  0  0  0  0  0
   -2.4468   -3.6470    1.4226 C   0  0  0  0  0  0  0  0  0  0  0  0
   -1.7571   -2.9802    1.9779 H   0  0  0  0  0  0  0  0  0  0  0  0
   -2.0987   -4.6945    1.5331 H   0  0  0  0  0  0  0  0  0  0  0  0
   -3.4423   -3.5655    1.9015 H   0  0  0  0  0  0  0  0  0  0  0  0
   -3.6129   -4.2238   -0.7145 C   0  0  0  0  0  0  0  0  0  0  0  0
   -4.5588   -4.2073   -0.1383 H   0  0  0  0  0  0  0  0  0  0  0  0
   -3.2301   -5.2631   -0.7050 H   0  0  0  0  0  0  0  0  0  0  0  0
   -3.8496   -3.9539   -1.7615 H   0  0  0  0  0  0  0  0  0  0  0  0
    3.5107    2.7808   -0.1386 C   0  0  0  0  0  0  0  0  0  0  0  0
    4.4233    2.9104    0.9304 C   0  0  0  0  0  0  0  0  0  0  0  0
    4.3507    2.2176    1.7819 H   0  0  0  0  0  0  0  0  0  0  0  0
    5.3983    3.9185    0.9151 C   0  0  0  0  0  0  0  0  0  0  0  0
    6.0966    4.0137    1.7604 H   0  0  0  0  0  0  0  0  0  0  0  0
    5.4818    4.8032   -0.1715 C   0  0  0  0  0  0  0  0  0  0  0  0
    6.2497    5.5915   -0.1846 H   0  0  0  0  0  0  0  0  0  0  0  0
    4.5811    4.6788   -1.2419 C   0  0  0  0  0  0  0  0  0  0  0  0
    4.6460    5.3643   -2.1005 H   0  0  0  0  0  0  0  0  0  0  0  0
    3.5977    3.6798   -1.2236 C   0  0  0  0  0  0  0  0  0  0  0  0
    2.8936    3.5781   -2.0628 H   0  0  0  0  0  0  0  0  0  0  0  0
   -3.5098    2.7817   -0.1385 C   0  0  0  0  0  0  0  0  0  0  0  0
   -3.5969    3.6806   -1.2235 C   0  0  0  0  0  0  0  0  0  0  0  0
   -2.8930    3.5787   -2.0629 H   0  0  0  0  0  0  0  0  0  0  0  0
   -4.5800    4.6799   -1.2415 C   0  0  0  0  0  0  0  0  0  0  0  0
   -4.6449    5.3654   -2.1002 H   0  0  0  0  0  0  0  0  0  0  0  0
   -5.4803    4.8047   -0.1709 C   0  0  0  0  0  0  0  0  0  0  0  0
   -6.2480    5.5932   -0.1838 H   0  0  0  0  0  0  0  0  0  0  0  0
   -5.3967    3.9200    0.9157 C   0  0  0  0  0  0  0  0  0  0  0  0
   -6.0947    4.0155    1.7612 H   0  0  0  0  0  0  0  0  0  0  0  0
   -4.4220    2.9116    0.9308 C   0  0  0  0  0  0  0  0  0  0  0  0
   -4.3493    2.2189    1.7823 H   0  0  0  0  0  0  0  0  0  0  0  0
   -0.0008   -3.6247    0.9371 H   0  0  0  0  0  0  0  0  0  0  0  0
  2 24  2  0  0  0  0
  2 19  1  0  0  0  0
  4 33  1  0  0  0  0
  5  4  1  0  0  0  0
  6  4  2  0  0  0  0
  6  8  1  0  0  0  0
  7  6  1  0  0  0  0
  8 10  2  0  0  0  0
  9  8  1  0  0  0  0
 10 34  1  0  0  0  0
 10 11  1  0  0  0  0
 11 35  1  0  0  0  0
 12 11  1  0  0  0  0
 12  1  2  0  0  0  0
 13 15  2  0  0  0  0
 13 12  1  0  0  0  0
 14 13  1  0  0  0  0
 15 17  1  0  0  0  0
 16 15  1  0  0  0  0
 17 18  1  0  0  0  0
 17  1  1  0  0  0  0
 18 51  1  6  0  0  0
 18 19  1  0  0  0  0
 19 20  1  0  0  0  0
 20 21  1  0  0  0  0
 22 20  2  0  0  0  0
 22 23  1  0  0  0  0
 24 22  1  0  0  0  0
 25 62  1  6  0  0  0
 25 24  1  0  0  0  0
 26 25  1  0  0  0  0
 26  3  1  0  0  0  0
 27 26  1  0  0  0  0
 28 27  1  0  0  0  0
 29 27  2  0  0  0  0
 29 31  1  0  0  0  0
 30 29  1  0  0  0  0
 31 32  1  0  0  0  0
 31  3  2  0  0  0  0
 32 43  1  0  0  0  0
 33 34  2  0  0  0  0
 33 32  1  0  0  0  0
 34 73  1  0  0  0  0
 35 38  1  0  0  0  0
 35 37  1  0  0  0  0
 35 36  1  0  0  0  0
 39 40  1  0  0  0  0
 39 41  1  0  0  0  0
 39 11  1  0  0  0  0
 42 39  1  0  0  0  0
 43 45  1  0  0  0  0
 43 46  1  0  0  0  0
 43 44  1  0  0  0  0
 47 49  1  0  0  0  0
 47 48  1  0  0  0  0
 47 32  1  0  0  0  0
 50 47  1  0  0  0  0
 51 52  1  0  0  0  0
 52 53  1  0  0  0  0
 54 52  2  0  0  0  0
 54 55  1  0  0  0  0
 56 54  1  0  0  0  0
 57 56  1  0  0  0  0
 58 60  1  0  0  0  0
 58 56  2  0  0  0  0
 59 58  1  0  0  0  0
 60 51  2  0  0  0  0
 61 60  1  0  0  0  0
 62 71  1  0  0  0  0
 63 62  2  0  0  0  0
 64 63  1  0  0  0  0
 65 63  1  0  0  0  0
 65 67  2  0  0  0  0
 66 65  1  0  0  0  0
 67 69  1  0  0  0  0
 68 67  1  0  0  0  0
 69 71  2  0  0  0  0
 69 70  1  0  0  0  0
 71 72  1  0  0  0  0
M  END
