2,4,6
 OpenBabel05122313063D

 54 56  0  0  1  0  0  0  0  0999 V2000
    0.3188   -1.2856   -3.2571 O   0  0  0  0  0  0  0  0  0  0  0  0
    1.7212   -0.3936    0.0064 N   0  0  0  0  0  2  0  0  0  0  0  0
    3.7290   -0.9350   -0.7493 N   0  0  0  0  0  0  0  0  0  0  0  0
   -0.9573   -1.4480    0.2342 N   0  0  0  0  0  2  0  0  0  0  0  0
   -2.1787   -3.1993   -0.3528 N   0  0  0  0  0  0  0  0  0  0  0  0
   -0.6425    1.1846   -0.6621 N   0  0  0  0  0  2  0  0  0  0  0  0
   -1.0774    2.6462   -2.2671 N   0  0  0  0  0  0  0  0  0  0  0  0
    0.2125   -0.8236   -1.9207 C   0  0  2  0  0  0  0  0  0  0  0  0
    1.5940   -0.8175   -1.2953 C   0  0  0  0  0  0  0  0  0  0  0  0
    2.8353   -1.1627   -1.7927 C   0  0  0  0  0  0  0  0  0  0  0  0
    3.0105   -0.4680    0.3317 C   0  0  1  0  0  3  0  0  0  0  0  0
    5.1670   -1.1032   -0.8296 C   0  0  0  0  0  0  0  0  0  0  0  0
    3.5503   -0.0074    1.6454 C   0  0  0  0  0  0  0  0  0  0  0  0
    3.9875    1.4663    1.6226 C   0  0  0  0  0  0  0  0  0  0  0  0
   -0.7075   -1.7199   -1.0937 C   0  0  0  0  0  0  0  0  0  0  0  0
   -1.4522   -2.8205   -1.4782 C   0  0  0  0  0  0  0  0  0  0  0  0
   -1.8489   -2.3367    0.6678 C   0  0  2  0  0  3  0  0  0  0  0  0
   -3.1072   -4.3135   -0.2794 C   0  0  0  0  0  0  0  0  0  0  0  0
   -2.4290   -2.3164    2.0472 C   0  0  0  0  0  0  0  0  0  0  0  0
   -3.1298   -0.9831    2.3625 C   0  0  0  0  0  0  0  0  0  0  0  0
   -0.3406    0.5996   -1.8691 C   0  0  0  0  0  0  0  0  0  0  0  0
   -0.5965    1.4988   -2.8904 C   0  0  0  0  0  0  0  0  0  0  0  0
   -1.0913    2.4134   -0.9068 C   0  0  1  0  0  3  0  0  0  0  0  0
   -1.5237    3.8473   -2.9464 C   0  0  0  0  0  0  0  0  0  0  0  0
   -1.6145    3.3280    0.1525 C   0  0  0  0  0  0  0  0  0  0  0  0
   -3.1503    3.3715    0.2067 C   0  0  0  0  0  0  0  0  0  0  0  0
    3.1539   -1.5482   -2.7653 H   0  0  0  0  0  0  0  0  0  0  0  0
    5.4146   -2.0641   -1.3218 H   0  0  0  0  0  0  0  0  0  0  0  0
    5.6402   -0.2775   -1.4011 H   0  0  0  0  0  0  0  0  0  0  0  0
    5.5933   -1.1118    0.1899 H   0  0  0  0  0  0  0  0  0  0  0  0
    2.7137   -0.0934    2.3759 H   0  0  0  0  0  0  0  0  0  0  0  0
    4.3800   -0.6635    1.9853 H   0  0  0  0  0  0  0  0  0  0  0  0
    4.8139    1.6561    0.9056 H   0  0  0  0  0  0  0  0  0  0  0  0
    3.1235    2.0991    1.3390 H   0  0  0  0  0  0  0  0  0  0  0  0
    4.3172    1.7865    2.6304 H   0  0  0  0  0  0  0  0  0  0  0  0
   -1.5154   -3.3718   -2.4210 H   0  0  0  0  0  0  0  0  0  0  0  0
   -2.7698   -5.0702    0.4573 H   0  0  0  0  0  0  0  0  0  0  0  0
   -4.1218   -3.9693    0.0053 H   0  0  0  0  0  0  0  0  0  0  0  0
   -3.1695   -4.7964   -1.2713 H   0  0  0  0  0  0  0  0  0  0  0  0
   -3.1204   -3.1729    2.1829 H   0  0  0  0  0  0  0  0  0  0  0  0
   -1.5952   -2.4621    2.7678 H   0  0  0  0  0  0  0  0  0  0  0  0
   -2.4182   -0.1359    2.2621 H   0  0  0  0  0  0  0  0  0  0  0  0
   -3.9830   -0.8068    1.6757 H   0  0  0  0  0  0  0  0  0  0  0  0
   -3.5127   -0.9808    3.4020 H   0  0  0  0  0  0  0  0  0  0  0  0
   -0.4501    1.4457   -3.9736 H   0  0  0  0  0  0  0  0  0  0  0  0
   -2.5489    3.7287   -3.3557 H   0  0  0  0  0  0  0  0  0  0  0  0
   -1.5265    4.6928   -2.2346 H   0  0  0  0  0  0  0  0  0  0  0  0
   -0.8347    4.0932   -3.7778 H   0  0  0  0  0  0  0  0  0  0  0  0
   -1.2387    2.9217    1.1191 H   0  0  0  0  0  0  0  0  0  0  0  0
   -1.1983    4.3518    0.0301 H   0  0  0  0  0  0  0  0  0  0  0  0
   -3.5512    2.3531    0.3825 H   0  0  0  0  0  0  0  0  0  0  0  0
   -3.4891    4.0143    1.0429 H   0  0  0  0  0  0  0  0  0  0  0  0
   -3.6029    3.7618   -0.7292 H   0  0  0  0  0  0  0  0  0  0  0  0
   -0.5745   -1.1938   -3.6407 H   0  0  0  0  0  0  0  0  0  0  0  0
  2 11  1  0  0  0  0
  3 11  1  0  0  0  0
  4 17  1  0  0  0  0
  5 18  1  0  0  0  0
  5 17  1  0  0  0  0
  7 23  1  0  0  0  0
  8  1  1  6  0  0  0
  8 21  1  0  0  0  0
  8  9  1  0  0  0  0
  8 15  1  0  0  0  0
  9  2  1  0  0  0  0
 10  9  2  0  0  0  0
 10  3  1  0  0  0  0
 11 13  1  6  0  0  0
 12  3  1  0  0  0  0
 12 30  1  0  0  0  0
 13 32  1  0  0  0  0
 13 31  1  0  0  0  0
 14 13  1  0  0  0  0
 14 35  1  0  0  0  0
 15  4  1  0  0  0  0
 16 15  2  0  0  0  0
 16  5  1  0  0  0  0
 17 19  1  6  0  0  0
 18 38  1  0  0  0  0
 18 37  1  0  0  0  0
 19 40  1  0  0  0  0
 19 20  1  0  0  0  0
 19 41  1  0  0  0  0
 20 44  1  0  0  0  0
 21  6  1  0  0  0  0
 22  7  1  0  0  0  0
 22 21  2  0  0  0  0
 23  6  1  0  0  0  0
 23 25  1  6  0  0  0
 24  7  1  0  0  0  0
 24 47  1  0  0  0  0
 25 26  1  0  0  0  0
 25 49  1  0  0  0  0
 26 51  1  0  0  0  0
 26 52  1  0  0  0  0
 27 10  1  0  0  0  0
 28 12  1  0  0  0  0
 29 12  1  0  0  0  0
 33 14  1  0  0  0  0
 34 14  1  0  0  0  0
 36 16  1  0  0  0  0
 39 18  1  0  0  0  0
 42 20  1  0  0  0  0
 43 20  1  0  0  0  0
 45 22  1  0  0  0  0
 46 24  1  0  0  0  0
 48 24  1  0  0  0  0
 50 25  1  0  0  0  0
 53 26  1  0  0  0  0
 54  1  1  0  0  0  0
M  END
