2,4,5
 OpenBabel05122313063D

 49 51  0  0  1  0  0  0  0  0999 V2000
    2.9678   -0.7928    0.0136 N   0  0  0  0  0  0  0  0  0  0  0  0
    1.8572   -0.0433    0.0856 N   0  0  0  0  0  2  0  0  0  0  0  0
   -2.9655   -0.7936    0.0045 N   0  0  0  0  0  0  0  0  0  0  0  0
   -1.8826   -0.0124    0.0587 N   0  0  0  0  0  2  0  0  0  0  0  0
   -0.0163    1.5297    0.0046 N   0  0  0  0  0  2  0  0  0  0  0  0
    4.1106   -0.0367   -0.0932 C   0  0  2  0  0  3  0  0  0  0  0  0
    3.6904    1.2944   -0.0793 C   0  0  0  0  0  0  0  0  0  0  0  0
    2.2740    1.2510    0.0234 C   0  0  0  0  0  0  0  0  0  0  0  0
    1.1785    2.2007    0.0031 C   0  0  1  0  0  3  0  0  0  0  0  0
    1.2124    3.6031   -0.0365 C   0  0  0  0  0  0  0  0  0  0  0  0
   -0.0012    4.3117   -0.0785 C   0  0  0  0  0  0  0  0  0  0  0  0
   -1.2225    3.6160   -0.0776 C   0  0  0  0  0  0  0  0  0  0  0  0
   -1.2098    2.2132   -0.0334 C   0  0  0  0  0  0  0  0  0  0  0  0
   -2.3143    1.2741   -0.0263 C   0  0  1  0  0  3  0  0  0  0  0  0
   -3.7328    1.2812   -0.1301 C   0  0  0  0  0  0  0  0  0  0  0  0
   -4.1241   -0.0608   -0.1125 C   0  0  0  0  0  0  0  0  0  0  0  0
    5.4809   -0.6723   -0.1998 C   0  0  0  0  0  0  0  0  0  0  0  0
    5.7498   -1.5319    1.0568 C   0  0  0  0  0  0  0  0  0  0  0  0
    5.5386   -1.5617   -1.4633 C   0  0  0  0  0  0  0  0  0  0  0  0
    6.5465    0.4315   -0.3025 C   0  0  0  0  0  0  0  0  0  0  0  0
   -5.4817   -0.7254   -0.1994 C   0  0  0  0  0  0  0  0  0  0  0  0
   -5.7280   -1.5623    1.0771 C   0  0  0  0  0  0  0  0  0  0  0  0
   -5.5240   -1.6444   -1.4421 C   0  0  0  0  0  0  0  0  0  0  0  0
   -6.5707    0.3530   -0.3225 C   0  0  0  0  0  0  0  0  0  0  0  0
    2.8728   -1.8063   -0.0482 H   0  0  0  0  0  0  0  0  0  0  0  0
   -2.8145   -1.8044    0.0143 H   0  0  0  0  0  0  0  0  0  0  0  0
    4.3263    2.1808   -0.1468 H   0  0  0  0  0  0  0  0  0  0  0  0
    2.1792    4.1254   -0.0348 H   0  0  0  0  0  0  0  0  0  0  0  0
    0.0049    5.4106   -0.1105 H   0  0  0  0  0  0  0  0  0  0  0  0
   -2.1828    4.1493   -0.1087 H   0  0  0  0  0  0  0  0  0  0  0  0
   -4.3915    2.1493   -0.2145 H   0  0  0  0  0  0  0  0  0  0  0  0
    5.0053   -2.3473    1.1635 H   0  0  0  0  0  0  0  0  0  0  0  0
    5.7074   -0.9152    1.9763 H   0  0  0  0  0  0  0  0  0  0  0  0
    6.7530   -2.0011    0.9961 H   0  0  0  0  0  0  0  0  0  0  0  0
    4.7952   -2.3843   -1.4239 H   0  0  0  0  0  0  0  0  0  0  0  0
    6.5413   -2.0250   -1.5631 H   0  0  0  0  0  0  0  0  0  0  0  0
    5.3344   -0.9684   -2.3764 H   0  0  0  0  0  0  0  0  0  0  0  0
    6.3862    1.0635   -1.1986 H   0  0  0  0  0  0  0  0  0  0  0  0
    7.5557   -0.0200   -0.3800 H   0  0  0  0  0  0  0  0  0  0  0  0
    6.5341    1.0871    0.5909 H   0  0  0  0  0  0  0  0  0  0  0  0
   -4.9653   -2.3583    1.1987 H   0  0  0  0  0  0  0  0  0  0  0  0
   -6.7209   -2.0544    1.0306 H   0  0  0  0  0  0  0  0  0  0  0  0
   -5.6962   -0.9241    1.9824 H   0  0  0  0  0  0  0  0  0  0  0  0
   -4.7558   -2.4426   -1.3889 H   0  0  0  0  0  0  0  0  0  0  0  0
   -5.3428   -1.0659   -2.3695 H   0  0  0  0  0  0  0  0  0  0  0  0
   -6.5142   -2.1375   -1.5240 H   0  0  0  0  0  0  0  0  0  0  0  0
   -6.4265    0.9686   -1.2327 H   0  0  0  0  0  0  0  0  0  0  0  0
   -6.5699    1.0283    0.5565 H   0  0  0  0  0  0  0  0  0  0  0  0
   -7.5703   -0.1214   -0.3869 H   0  0  0  0  0  0  0  0  0  0  0  0
  1  2  1  0  0  0  0
  3 26  1  0  0  0  0
  3  4  1  0  0  0  0
  6 17  1  6  0  0  0
  6  7  1  0  0  0  0
  6  1  1  0  0  0  0
  7  8  2  0  0  0  0
  8  2  1  0  0  0  0
  9  5  1  0  0  0  0
  9  8  1  6  0  0  0
 10 28  1  0  0  0  0
 10  9  1  0  0  0  0
 11 12  1  0  0  0  0
 11 10  2  0  0  0  0
 12 13  2  0  0  0  0
 13  5  1  0  0  0  0
 14 13  1  6  0  0  0
 14  4  1  0  0  0  0
 15 16  2  0  0  0  0
 15 14  1  0  0  0  0
 16  3  1  0  0  0  0
 17 18  1  0  0  0  0
 18 32  1  0  0  0  0
 18 33  1  0  0  0  0
 19 35  1  0  0  0  0
 19 17  1  0  0  0  0
 20 17  1  0  0  0  0
 20 40  1  0  0  0  0
 21 16  1  0  0  0  0
 21 22  1  0  0  0  0
 22 41  1  0  0  0  0
 22 43  1  0  0  0  0
 23 44  1  0  0  0  0
 23 21  1  0  0  0  0
 24 21  1  0  0  0  0
 24 48  1  0  0  0  0
 25  1  1  0  0  0  0
 27  7  1  0  0  0  0
 29 11  1  0  0  0  0
 30 12  1  0  0  0  0
 31 15  1  0  0  0  0
 34 18  1  0  0  0  0
 36 19  1  0  0  0  0
 37 19  1  0  0  0  0
 38 20  1  0  0  0  0
 39 20  1  0  0  0  0
 42 22  1  0  0  0  0
 45 23  1  0  0  0  0
 46 23  1  0  0  0  0
 47 24  1  0  0  0  0
 49 24  1  0  0  0  0
M  END
