19,20,21
 OpenBabel05122313063D

 25 27  0  0  1  0  0  0  0  0999 V2000
   -0.8408   -1.3870    3.8668 C   0  0  0  0  0  3  0  0  0  0  0  0
   -0.4757   -1.7476    4.8339 H   0  0  0  0  0  0  0  0  0  0  0  0
   -2.1289   -1.2588    3.3584 C   0  0  0  0  0  0  0  0  0  0  0  0
   -3.0640   -1.5028    3.8707 H   0  0  0  0  0  0  0  0  0  0  0  0
   -1.9611   -0.7399    2.0462 C   0  0  0  0  0  0  0  0  0  0  0  0
   -2.7971   -0.3451    0.9324 C   0  0  2  0  0  3  0  0  0  0  0  0
   -4.1904   -0.3943    0.7934 C   0  0  0  0  0  0  0  0  0  0  0  0
   -4.8084   -0.7777    1.6173 H   0  0  0  0  0  0  0  0  0  0  0  0
   -4.7748    0.0471   -0.4093 C   0  0  0  0  0  0  0  0  0  0  0  0
   -5.8665    0.0167   -0.5323 H   0  0  0  0  0  0  0  0  0  0  0  0
   -3.9625    0.5134   -1.4585 C   0  0  0  0  0  0  0  0  0  0  0  0
   -4.3997    0.8440   -2.4110 H   0  0  0  0  0  0  0  0  0  0  0  0
   -2.5716    0.5381   -1.2835 C   0  0  0  0  0  0  0  0  0  0  0  0
   -1.5209    0.9044   -2.2056 C   0  0  2  0  0  3  0  0  0  0  0  0
   -1.3938    1.3951   -3.5331 C   0  0  0  0  0  0  0  0  0  0  0  0
   -2.1942    1.6458   -4.2352 H   0  0  0  0  0  0  0  0  0  0  0  0
   -0.0258    1.4883   -3.7613 C   0  0  0  0  0  0  0  0  0  0  0  0
    0.5414    1.8023   -4.6435 H   0  0  0  0  0  0  0  0  0  0  0  0
   -0.6282   -0.5699    1.7864 N   0  0  0  0  0  2  0  0  0  0  0  0
   -2.0090    0.1258   -0.0940 N   0  0  0  0  0  2  0  0  0  0  0  0
   -0.2718    0.7092   -1.6679 N   0  0  0  0  0  2  0  0  0  0  0  0
    0.0228   -0.9567    2.8954 N   0  0  0  0  0  0  0  0  0  0  0  0
    1.0430   -0.9503    2.9073 H   0  0  0  0  0  0  0  0  0  0  0  0
    0.6088    1.0781   -2.6182 N   0  0  0  0  0  0  0  0  0  0  0  0
    1.6089    0.9828   -2.4407 H   0  0  0  0  0  0  0  0  0  0  0  0
  1  2  1  0  0  0  0
  3  1  1  0  0  0  0
  3  4  1  0  0  0  0
  5  3  2  0  0  0  0
  6  5  1  6  0  0  0
  7  6  1  0  0  0  0
  7  8  1  0  0  0  0
  9  7  2  0  0  0  0
 10  9  1  0  0  0  0
 11 13  2  0  0  0  0
 11  9  1  0  0  0  0
 12 11  1  0  0  0  0
 13 20  1  0  0  0  0
 14 21  1  0  0  0  0
 14 13  1  6  0  0  0
 15 14  1  0  0  0  0
 16 15  1  0  0  0  0
 17 15  2  0  0  0  0
 17 24  1  0  0  0  0
 18 17  1  0  0  0  0
 19  5  1  0  0  0  0
 19 22  1  0  0  0  0
 20  6  1  0  0  0  0
 22 23  1  0  0  0  0
 22  1  1  0  0  0  0
 24 25  1  0  0  0  0
 24 21  1  0  0  0  0
M  END
