1,14,27
 OpenBabel05122313063D

 53 54  0  0  0  0  0  0  0  0999 V2000
    0.2956   -2.1072   -0.5230 N   0  0  0  0  0  2  0  0  0  0  0  0
    1.4505   -2.3853   -1.0652 C   0  0  0  0  0  3  0  0  0  0  0  0
    1.5661   -3.4055   -1.4963 H   0  0  0  0  0  0  0  0  0  0  0  0
    2.6392   -1.5731   -1.1699 C   0  0  0  0  0  0  0  0  0  0  0  0
    3.7596   -2.2365   -1.7491 C   0  0  0  0  0  0  0  0  0  0  0  0
    3.6093   -3.2660   -2.1126 H   0  0  0  0  0  0  0  0  0  0  0  0
    5.0125   -1.6476   -1.8508 C   0  0  0  0  0  0  0  0  0  0  0  0
    5.8555   -2.1884   -2.3033 H   0  0  0  0  0  0  0  0  0  0  0  0
    5.1808   -0.3455   -1.3259 C   0  0  0  0  0  0  0  0  0  0  0  0
    6.1742    0.1298   -1.3467 H   0  0  0  0  0  0  0  0  0  0  0  0
    4.1137    0.3472   -0.7686 C   0  0  0  0  0  0  0  0  0  0  0  0
    4.2842    1.3460   -0.3455 H   0  0  0  0  0  0  0  0  0  0  0  0
    2.7912   -0.2042   -0.7041 C   0  0  0  0  0  0  0  0  0  0  0  0
    1.7415    0.4748   -0.1667 N   0  0  0  0  0  2  0  0  0  0  0  0
    1.7979    1.8187    0.1800 C   0  0  0  0  0  0  0  0  0  0  0  0
    2.2776    2.8246   -0.6997 C   0  0  0  0  0  0  0  0  0  0  0  0
    2.6464    2.5208   -1.6897 H   0  0  0  0  0  0  0  0  0  0  0  0
    2.2420    4.1766   -0.3519 C   0  0  0  0  0  0  0  0  0  0  0  0
    2.5896    4.9290   -1.0765 H   0  0  0  0  0  0  0  0  0  0  0  0
    1.7570    4.5833    0.9069 C   0  0  0  0  0  0  0  0  0  0  0  0
    1.7351    5.6478    1.1808 H   0  0  0  0  0  0  0  0  0  0  0  0
    1.3019    3.6135    1.8001 C   0  0  0  0  0  0  0  0  0  0  0  0
    0.9248    3.9115    2.7913 H   0  0  0  0  0  0  0  0  0  0  0  0
    1.2848    2.2398    1.4573 C   0  0  0  0  0  0  0  0  0  0  0  0
    0.8153    1.2976    2.4662 C   0  0  0  0  0  3  0  0  0  0  0  0
    0.9292    1.6275    3.5245 H   0  0  0  0  0  0  0  0  0  0  0  0
    0.2806    0.1401    2.2307 N   0  0  0  0  0  2  0  0  0  0  0  0
   -0.7605   -3.1099   -0.5824 C   0  0  0  0  0  0  0  0  0  0  0  0
   -1.2301   -3.1810    0.4230 H   0  0  0  0  0  0  0  0  0  0  0  0
   -0.3310   -4.1138   -0.8168 H   0  0  0  0  0  0  0  0  0  0  0  0
   -1.8561   -2.7565   -1.6102 C   0  0  0  0  0  0  0  0  0  0  0  0
   -2.1562   -1.7068   -1.3872 H   0  0  0  0  0  0  0  0  0  0  0  0
   -3.0665   -3.6756   -1.4228 C   0  0  0  0  0  0  0  0  0  0  0  0
   -2.7998   -4.7389   -1.6070 H   0  0  0  0  0  0  0  0  0  0  0  0
   -3.8772   -3.4096   -2.1307 H   0  0  0  0  0  0  0  0  0  0  0  0
   -3.4796   -3.6045   -0.3958 H   0  0  0  0  0  0  0  0  0  0  0  0
   -1.3236   -2.8190   -3.0438 C   0  0  0  0  0  0  0  0  0  0  0  0
   -0.4303   -2.1779   -3.1824 H   0  0  0  0  0  0  0  0  0  0  0  0
   -2.0906   -2.4717   -3.7652 H   0  0  0  0  0  0  0  0  0  0  0  0
   -1.0428   -3.8577   -3.3235 H   0  0  0  0  0  0  0  0  0  0  0  0
   -0.0647   -0.7254    3.3437 C   0  0  0  0  0  0  0  0  0  0  0  0
   -1.1732   -0.7494    3.4374 H   0  0  0  0  0  0  0  0  0  0  0  0
    0.3383   -0.3172    4.3016 H   0  0  0  0  0  0  0  0  0  0  0  0
    0.4476   -2.1615    3.1277 C   0  0  0  0  0  0  0  0  0  0  0  0
   -0.0445   -2.5370    2.2021 H   0  0  0  0  0  0  0  0  0  0  0  0
    0.0162   -3.0544    4.2942 C   0  0  0  0  0  0  0  0  0  0  0  0
    0.3291   -4.1045    4.1276 H   0  0  0  0  0  0  0  0  0  0  0  0
   -1.0848   -3.0461    4.4309 H   0  0  0  0  0  0  0  0  0  0  0  0
    0.4775   -2.7170    5.2467 H   0  0  0  0  0  0  0  0  0  0  0  0
    1.9609   -2.1913    2.8958 C   0  0  0  0  0  0  0  0  0  0  0  0
    2.2455   -1.5725    2.0218 H   0  0  0  0  0  0  0  0  0  0  0  0
    2.3144   -3.2254    2.7104 H   0  0  0  0  0  0  0  0  0  0  0  0
    2.5068   -1.8030    3.7824 H   0  0  0  0  0  0  0  0  0  0  0  0
  2  1  1  0  0  0  0
  3  2  1  0  0  0  0
  4  2  1  0  0  0  0
  4 13  1  0  0  0  0
  5  4  2  0  0  0  0
  6  5  1  0  0  0  0
  7  5  1  0  0  0  0
  7  9  2  0  0  0  0
  8  7  1  0  0  0  0
  9 11  1  0  0  0  0
 10  9  1  0  0  0  0
 11 13  2  0  0  0  0
 11 12  1  0  0  0  0
 13 14  1  0  0  0  0
 14 15  1  0  0  0  0
 15 24  1  0  0  0  0
 16 18  1  0  0  0  0
 16 15  2  0  0  0  0
 17 16  1  0  0  0  0
 18 20  2  0  0  0  0
 19 18  1  0  0  0  0
 20 21  1  0  0  0  0
 20 22  1  0  0  0  0
 22 23  1  0  0  0  0
 24 22  2  0  0  0  0
 24 25  1  0  0  0  0
 25 26  1  0  0  0  0
 27 25  1  0  0  0  0
 27 41  1  0  0  0  0
 28  1  1  0  0  0  0
 28 29  1  0  0  0  0
 30 28  1  0  0  0  0
 31 33  1  0  0  0  0
 31 32  1  0  0  0  0
 31 28  1  0  0  0  0
 33 36  1  0  0  0  0
 34 33  1  0  0  0  0
 35 33  1  0  0  0  0
 37 31  1  0  0  0  0
 38 37  1  0  0  0  0
 39 37  1  0  0  0  0
 40 37  1  0  0  0  0
 41 42  1  0  0  0  0
 41 43  1  0  0  0  0
 44 41  1  0  0  0  0
 44 46  1  0  0  0  0
 45 44  1  0  0  0  0
 46 48  1  0  0  0  0
 46 49  1  0  0  0  0
 47 46  1  0  0  0  0
 50 44  1  0  0  0  0
 50 53  1  0  0  0  0
 51 50  1  0  0  0  0
 52 50  1  0  0  0  0
M  END
