1,3,4
 OpenBabel05122313063D

 45 46  0  0  0  0  0  0  0  0999 V2000
    2.0509   -0.7428   -0.0628 N   0  0  0  0  0  0  0  0  0  0  0  0
    2.4221   -1.3916   -0.7746 H   0  0  0  0  0  0  0  0  0  0  0  0
    0.0151    0.8568    0.0555 N   0  0  0  0  0  2  0  0  0  0  0  0
   -1.8164   -0.9486   -0.0149 N   0  0  0  0  0  0  0  0  0  0  0  0
   -2.1046   -1.7189    0.6092 H   0  0  0  0  0  0  0  0  0  0  0  0
    2.2818    0.6437   -0.4848 C   0  0  0  0  0  0  0  0  0  0  0  0
    3.5175    1.1042   -0.9391 C   0  0  0  0  0  0  0  0  0  0  0  0
    4.3631    0.4034   -1.0290 H   0  0  0  0  0  0  0  0  0  0  0  0
    3.6703    2.4572   -1.2945 C   0  0  0  0  0  0  0  0  0  0  0  0
    4.6352    2.8257   -1.6705 H   0  0  0  0  0  0  0  0  0  0  0  0
    2.5699    3.3227   -1.1728 C   0  0  0  0  0  0  0  0  0  0  0  0
    2.6757    4.3801   -1.4609 H   0  0  0  0  0  0  0  0  0  0  0  0
    1.3264    2.8703   -0.7096 C   0  0  0  0  0  0  0  0  0  0  0  0
    0.4757    3.5616   -0.6697 H   0  0  0  0  0  0  0  0  0  0  0  0
    1.1559    1.5066   -0.3524 C   0  0  0  0  0  0  0  0  0  0  0  0
   -1.2017    1.3438    0.4742 C   0  0  0  0  0  0  0  0  0  0  0  0
   -1.5257    2.6489    0.9273 C   0  0  0  0  0  0  0  0  0  0  0  0
   -0.7615    3.4357    0.9384 H   0  0  0  0  0  0  0  0  0  0  0  0
   -2.8051    2.9146    1.4365 C   0  0  0  0  0  0  0  0  0  0  0  0
   -3.0298    3.9277    1.8045 H   0  0  0  0  0  0  0  0  0  0  0  0
   -3.7875    1.9139    1.5155 C   0  0  0  0  0  0  0  0  0  0  0  0
   -4.7774    2.1324    1.9406 H   0  0  0  0  0  0  0  0  0  0  0  0
   -3.4867    0.6184    1.0531 C   0  0  0  0  0  0  0  0  0  0  0  0
   -4.2369   -0.1833    1.1192 H   0  0  0  0  0  0  0  0  0  0  0  0
   -2.2222    0.3485    0.5281 C   0  0  0  0  0  0  0  0  0  0  0  0
    2.7558   -1.0618    1.2438 C   0  0  0  0  0  0  0  0  0  0  0  0
    3.7266   -0.5186    1.1972 H   0  0  0  0  0  0  0  0  0  0  0  0
    3.0378   -2.5546    1.3668 C   0  0  0  0  0  0  0  0  0  0  0  0
    2.0951   -3.1350    1.3809 H   0  0  0  0  0  0  0  0  0  0  0  0
    3.6049   -2.7451    2.2992 H   0  0  0  0  0  0  0  0  0  0  0  0
    3.6500   -2.9236    0.5176 H   0  0  0  0  0  0  0  0  0  0  0  0
    1.9542   -0.5118    2.4192 C   0  0  0  0  0  0  0  0  0  0  0  0
    1.0018   -1.0699    2.5268 H   0  0  0  0  0  0  0  0  0  0  0  0
    1.7167    0.5612    2.2862 H   0  0  0  0  0  0  0  0  0  0  0  0
    2.5360   -0.6244    3.3560 H   0  0  0  0  0  0  0  0  0  0  0  0
   -2.3518   -1.2823   -1.3955 C   0  0  0  0  0  0  0  0  0  0  0  0
   -1.8614   -2.2536   -1.6148 H   0  0  0  0  0  0  0  0  0  0  0  0
   -1.8980   -0.2442   -2.4157 C   0  0  0  0  0  0  0  0  0  0  0  0
   -2.2918    0.7631   -2.1701 H   0  0  0  0  0  0  0  0  0  0  0  0
   -2.2725   -0.5223   -3.4204 H   0  0  0  0  0  0  0  0  0  0  0  0
   -0.7932   -0.1825   -2.4561 H   0  0  0  0  0  0  0  0  0  0  0  0
   -3.8679   -1.4804   -1.4031 C   0  0  0  0  0  0  0  0  0  0  0  0
   -4.1920   -2.2045   -0.6272 H   0  0  0  0  0  0  0  0  0  0  0  0
   -4.1773   -1.8888   -2.3857 H   0  0  0  0  0  0  0  0  0  0  0  0
   -4.4126   -0.5278   -1.2477 H   0  0  0  0  0  0  0  0  0  0  0  0
  1 26  1  0  0  0  0
  2  1  1  0  0  0  0
  3 16  1  0  0  0  0
  4 25  1  0  0  0  0
  4  5  1  0  0  0  0
  6 15  1  0  0  0  0
  6  1  1  0  0  0  0
  7  6  2  0  0  0  0
  8  7  1  0  0  0  0
  9 11  2  0  0  0  0
  9  7  1  0  0  0  0
 10  9  1  0  0  0  0
 11 13  1  0  0  0  0
 12 11  1  0  0  0  0
 13 14  1  0  0  0  0
 13 15  2  0  0  0  0
 15  3  1  0  0  0  0
 16 25  2  0  0  0  0
 16 17  1  0  0  0  0
 17 18  1  0  0  0  0
 17 19  2  0  0  0  0
 19 21  1  0  0  0  0
 19 20  1  0  0  0  0
 21 22  1  0  0  0  0
 23 24  1  0  0  0  0
 23 21  2  0  0  0  0
 25 23  1  0  0  0  0
 26 28  1  0  0  0  0
 26 32  1  0  0  0  0
 27 26  1  0  0  0  0
 28 29  1  0  0  0  0
 28 30  1  0  0  0  0
 31 28  1  0  0  0  0
 32 33  1  0  0  0  0
 32 35  1  0  0  0  0
 34 32  1  0  0  0  0
 36  4  1  0  0  0  0
 37 36  1  0  0  0  0
 38 39  1  0  0  0  0
 38 36  1  0  0  0  0
 40 38  1  0  0  0  0
 41 38  1  0  0  0  0
 42 36  1  0  0  0  0
 42 45  1  0  0  0  0
 42 43  1  0  0  0  0
 44 42  1  0  0  0  0
M  END
