1,8,32
 OpenBabel05122313063D

 53 52  0  0  0  0  0  0  0  0999 V2000
    3.1946    0.1269   -0.1881 N   0  0  0  0  0  0  0  0  0  0  0  0
    3.1912   -0.7410   -1.3997 C   0  0  0  0  0  0  0  0  0  0  0  0
    4.2354   -1.0387   -1.6655 H   0  0  0  0  0  0  0  0  0  0  0  0
    2.7733   -0.1436   -2.2330 H   0  0  0  0  0  0  0  0  0  0  0  0
    2.2774   -1.9290   -1.1448 C   0  0  0  0  0  0  0  0  0  0  0  0
    2.1296   -2.5278   -2.0696 H   0  0  0  0  0  0  0  0  0  0  0  0
    2.7511   -2.6199   -0.3989 H   0  0  0  0  0  0  0  0  0  0  0  0
    1.0156   -1.4079   -0.6710 N   0  0  0  0  0  2  0  0  0  0  0  0
   -0.0915   -2.0465   -1.1429 C   0  0  0  0  0  0  0  0  0  0  0  0
   -0.0576   -3.0241   -1.9361 O   0  0  0  0  0  0  0  0  0  0  0  0
   -1.3175   -1.5229   -0.6931 N   0  0  0  0  0  0  0  0  0  0  0  0
   -1.1934   -0.9031    0.1181 H   0  0  0  0  0  0  0  0  0  0  0  0
   -2.5194   -2.3682   -0.6388 C   0  0  0  0  0  0  0  0  0  0  0  0
   -3.5727   -1.6047    0.1792 C   0  0  0  0  0  0  0  0  0  0  0  0
   -3.8214   -0.6369   -0.3000 H   0  0  0  0  0  0  0  0  0  0  0  0
   -3.1975   -1.3923    1.2024 H   0  0  0  0  0  0  0  0  0  0  0  0
   -4.5039   -2.2010    0.2664 H   0  0  0  0  0  0  0  0  0  0  0  0
   -2.2318   -3.7254    0.0463 C   0  0  0  0  0  0  0  0  0  0  0  0
   -1.4332   -4.2492   -0.5133 H   0  0  0  0  0  0  0  0  0  0  0  0
   -3.1407   -4.3633    0.0783 H   0  0  0  0  0  0  0  0  0  0  0  0
   -1.8842   -3.5638    1.0885 H   0  0  0  0  0  0  0  0  0  0  0  0
   -3.0452   -2.6101   -2.0678 C   0  0  0  0  0  0  0  0  0  0  0  0
   -2.2440   -3.0951   -2.6570 H   0  0  0  0  0  0  0  0  0  0  0  0
   -3.2972   -1.6413   -2.5456 H   0  0  0  0  0  0  0  0  0  0  0  0
   -3.9529   -3.2511   -2.0577 H   0  0  0  0  0  0  0  0  0  0  0  0
    3.5243    1.5398   -0.5105 C   0  0  0  0  0  0  0  0  0  0  0  0
    4.4183    1.5980   -1.1790 H   0  0  0  0  0  0  0  0  0  0  0  0
    3.7765    2.0345    0.4498 H   0  0  0  0  0  0  0  0  0  0  0  0
    2.2967    2.2126   -1.0983 C   0  0  0  0  0  0  0  0  0  0  0  0
    2.4397    3.3160   -1.1442 H   0  0  0  0  0  0  0  0  0  0  0  0
    2.1328    1.9002   -2.1591 H   0  0  0  0  0  0  0  0  0  0  0  0
    1.1741    1.8393   -0.2478 N   0  0  0  0  0  2  0  0  0  0  0  0
    0.0532    2.6355   -0.4585 C   0  0  0  0  0  0  0  0  0  0  0  0
   -0.0065    3.5116   -1.3456 O   0  0  0  0  0  0  0  0  0  0  0  0
   -0.9772    2.4009    0.4366 N   0  0  0  0  0  0  0  0  0  0  0  0
   -0.8325    1.5699    1.0243 H   0  0  0  0  0  0  0  0  0  0  0  0
   -2.3747    2.7466    0.1474 C   0  0  0  0  0  0  0  0  0  0  0  0
   -3.2145    2.1575    1.2924 C   0  0  0  0  0  0  0  0  0  0  0  0
   -3.0786    1.0601    1.3587 H   0  0  0  0  0  0  0  0  0  0  0  0
   -4.2914    2.3702    1.1352 H   0  0  0  0  0  0  0  0  0  0  0  0
   -2.9072    2.5976    2.2637 H   0  0  0  0  0  0  0  0  0  0  0  0
   -2.5440    4.2786    0.1167 C   0  0  0  0  0  0  0  0  0  0  0  0
   -1.8730    4.6993   -0.6557 H   0  0  0  0  0  0  0  0  0  0  0  0
   -2.2649    4.7131    1.0989 H   0  0  0  0  0  0  0  0  0  0  0  0
   -3.5968    4.5536   -0.1065 H   0  0  0  0  0  0  0  0  0  0  0  0
   -2.8119    2.1372   -1.2037 C   0  0  0  0  0  0  0  0  0  0  0  0
   -2.2190    2.5928   -2.0203 H   0  0  0  0  0  0  0  0  0  0  0  0
   -3.8908    2.3148   -1.3985 H   0  0  0  0  0  0  0  0  0  0  0  0
   -2.6150    1.0458   -1.2112 H   0  0  0  0  0  0  0  0  0  0  0  0
    4.1086   -0.4082    0.8316 C   0  0  0  0  0  0  0  0  0  0  0  0
    5.1674   -0.4028    0.4728 H   0  0  0  0  0  0  0  0  0  0  0  0
    3.8068   -1.4389    1.0900 H   0  0  0  0  0  0  0  0  0  0  0  0
    4.0245    0.2043    1.7485 H   0  0  0  0  0  0  0  0  0  0  0  0
  1 50  1  0  0  0  0
  2  5  1  0  0  0  0
  2  1  1  0  0  0  0
  3  2  1  0  0  0  0
  4  2  1  0  0  0  0
  5  8  1  0  0  0  0
  5  7  1  0  0  0  0
  6  5  1  0  0  0  0
  9 11  1  0  0  0  0
  9  8  1  0  0  0  0
 10  9  2  0  0  0  0
 11 13  1  0  0  0  0
 11 12  1  0  0  0  0
 13 18  1  0  0  0  0
 13 14  1  0  0  0  0
 14 17  1  0  0  0  0
 14 16  1  0  0  0  0
 15 14  1  0  0  0  0
 18 20  1  0  0  0  0
 18 21  1  0  0  0  0
 19 18  1  0  0  0  0
 22 25  1  0  0  0  0
 22 13  1  0  0  0  0
 23 22  1  0  0  0  0
 24 22  1  0  0  0  0
 26  1  1  0  0  0  0
 26 28  1  0  0  0  0
 27 26  1  0  0  0  0
 29 26  1  0  0  0  0
 29 32  1  0  0  0  0
 30 29  1  0  0  0  0
 31 29  1  0  0  0  0
 33 32  1  0  0  0  0
 33 35  1  0  0  0  0
 34 33  2  0  0  0  0
 35 36  1  0  0  0  0
 37 35  1  0  0  0  0
 37 38  1  0  0  0  0
 38 39  1  0  0  0  0
 38 41  1  0  0  0  0
 40 38  1  0  0  0  0
 42 37  1  0  0  0  0
 42 44  1  0  0  0  0
 43 42  1  0  0  0  0
 45 42  1  0  0  0  0
 46 37  1  0  0  0  0
 47 46  1  0  0  0  0
 48 46  1  0  0  0  0
 49 46  1  0  0  0  0
 50 52  1  0  0  0  0
 50 53  1  0  0  0  0
 51 50  1  0  0  0  0
M  END
