1,2,3
 OpenBabel05122313063D

 58 60  0  0  1  0  0  0  0  0999 V2000
   -0.0440    0.9031    1.3621 N   0  0  0  0  0  2  0  0  0  0  0  0
   -0.0440    0.9033   -1.3618 N   0  0  0  0  0  2  0  0  0  0  0  0
   -2.5504    0.9020    0.0001 N   0  0  0  0  0  0  0  0  0  0  0  0
    2.9819    0.0758   -0.0000 N   0  0  0  0  0  0  0  0  0  0  0  0
   -2.3365    1.7086    1.2143 C   0  0  0  0  0  0  0  0  0  0  0  0
   -2.7532    1.1480    2.0727 H   0  0  0  0  0  0  0  0  0  0  0  0
   -2.8745    2.6856    1.1719 H   0  0  0  0  0  0  0  0  0  0  0  0
   -0.8706    1.9651    1.5125 C   0  0  2  0  0  3  0  0  0  0  0  0
   -0.3940    3.2205    1.9088 C   0  0  0  0  0  0  0  0  0  0  0  0
   -1.0933    4.0629    2.0192 H   0  0  0  0  0  0  0  0  0  0  0  0
    0.9837    3.3864    2.1294 C   0  0  0  0  0  0  0  0  0  0  0  0
    1.3857    4.3637    2.4361 H   0  0  0  0  0  0  0  0  0  0  0  0
    1.8362    2.2977    1.9167 C   0  0  0  0  0  0  0  0  0  0  0  0
    2.9265    2.3928    2.0235 H   0  0  0  0  0  0  0  0  0  0  0  0
    1.2898    1.0618    1.5277 C   0  0  0  0  0  0  0  0  0  0  0  0
    2.1709   -0.1301    1.2121 C   0  0  0  0  0  0  0  0  0  0  0  0
    2.8496   -0.2856    2.0698 H   0  0  0  0  0  0  0  0  0  0  0  0
    1.5077   -1.0261    1.1345 H   0  0  0  0  0  0  0  0  0  0  0  0
   -2.3365    1.7091   -1.2138 C   0  0  0  0  0  0  0  0  0  0  0  0
   -2.8742    2.6863   -1.1708 H   0  0  0  0  0  0  0  0  0  0  0  0
   -2.7534    1.1490   -2.0724 H   0  0  0  0  0  0  0  0  0  0  0  0
   -0.8706    1.9654   -1.5121 C   0  0  1  0  0  3  0  0  0  0  0  0
   -0.3938    3.2208   -1.9085 C   0  0  0  0  0  0  0  0  0  0  0  0
   -1.0931    4.0633   -2.0188 H   0  0  0  0  0  0  0  0  0  0  0  0
    0.9838    3.3865   -2.1293 C   0  0  0  0  0  0  0  0  0  0  0  0
    1.3859    4.3638   -2.4362 H   0  0  0  0  0  0  0  0  0  0  0  0
    1.8363    2.2978   -1.9168 C   0  0  0  0  0  0  0  0  0  0  0  0
    2.9266    2.3928   -2.0238 H   0  0  0  0  0  0  0  0  0  0  0  0
    1.2898    1.0619   -1.5276 C   0  0  0  0  0  0  0  0  0  0  0  0
    2.1709   -0.1300   -1.2122 C   0  0  0  0  0  0  0  0  0  0  0  0
    1.5077   -1.0260   -1.1346 H   0  0  0  0  0  0  0  0  0  0  0  0
    2.8496   -0.2855   -2.0699 H   0  0  0  0  0  0  0  0  0  0  0  0
   -3.8476    0.1104   -0.0002 C   0  0  0  0  0  0  0  0  0  0  0  0
   -5.0735    1.0439   -0.0002 C   0  0  0  0  0  0  0  0  0  0  0  0
   -5.0986    1.6931    0.8988 H   0  0  0  0  0  0  0  0  0  0  0  0
   -6.0068    0.4466   -0.0003 H   0  0  0  0  0  0  0  0  0  0  0  0
   -5.0984    1.6932   -0.8991 H   0  0  0  0  0  0  0  0  0  0  0  0
   -3.8739   -0.8041    1.2382 C   0  0  0  0  0  0  0  0  0  0  0  0
   -2.9357   -1.3954    1.2931 H   0  0  0  0  0  0  0  0  0  0  0  0
   -4.7211   -1.5112    1.1521 H   0  0  0  0  0  0  0  0  0  0  0  0
   -4.0167   -0.2513    2.1877 H   0  0  0  0  0  0  0  0  0  0  0  0
   -3.8736   -0.8038   -1.2387 C   0  0  0  0  0  0  0  0  0  0  0  0
   -4.0159   -0.2508   -2.1881 H   0  0  0  0  0  0  0  0  0  0  0  0
   -4.7210   -1.5109   -1.1531 H   0  0  0  0  0  0  0  0  0  0  0  0
   -2.9354   -1.3953   -1.2934 H   0  0  0  0  0  0  0  0  0  0  0  0
    4.3009   -0.6330   -0.0000 C   0  0  0  0  0  0  0  0  0  0  0  0
    5.1135   -0.1918    1.2349 C   0  0  0  0  0  0  0  0  0  0  0  0
    5.1473    0.9147    1.2989 H   0  0  0  0  0  0  0  0  0  0  0  0
    6.1518   -0.5682    1.1523 H   0  0  0  0  0  0  0  0  0  0  0  0
    4.7094   -0.5874    2.1866 H   0  0  0  0  0  0  0  0  0  0  0  0
    5.1132   -0.1925   -1.2353 C   0  0  0  0  0  0  0  0  0  0  0  0
    4.7092   -0.5890   -2.1868 H   0  0  0  0  0  0  0  0  0  0  0  0
    6.1516   -0.5685   -1.1526 H   0  0  0  0  0  0  0  0  0  0  0  0
    5.1467    0.9140   -1.3002 H   0  0  0  0  0  0  0  0  0  0  0  0
    4.1348   -2.1681    0.0004 C   0  0  0  0  0  0  0  0  0  0  0  0
    3.5753   -2.5130    0.8929 H   0  0  0  0  0  0  0  0  0  0  0  0
    5.1203   -2.6770    0.0002 H   0  0  0  0  0  0  0  0  0  0  0  0
    3.5748   -2.5134   -0.8917 H   0  0  0  0  0  0  0  0  0  0  0  0
  1 15  1  0  0  0  0
  3  5  1  0  0  0  0
  4 46  1  0  0  0  0
  4 16  1  0  0  0  0
  5  8  1  0  0  0  0
  5  6  1  0  0  0  0
  7  5  1  0  0  0  0
  8  1  1  6  0  0  0
  8  9  1  0  0  0  0
  9 10  1  0  0  0  0
  9 11  2  0  0  0  0
 11 12  1  0  0  0  0
 13 14  1  0  0  0  0
 13 11  1  0  0  0  0
 15 13  2  0  0  0  0
 16 15  1  0  0  0  0
 16 17  1  0  0  0  0
 18 16  1  0  0  0  0
 19 20  1  0  0  0  0
 19  3  1  0  0  0  0
 21 19  1  0  0  0  0
 22 23  1  1  0  0  0
 22  2  1  0  0  0  0
 22 19  1  0  0  0  0
 24 23  1  0  0  0  0
 25 27  1  0  0  0  0
 25 23  2  0  0  0  0
 26 25  1  0  0  0  0
 27 29  2  0  0  0  0
 28 27  1  0  0  0  0
 29  2  1  0  0  0  0
 29 30  1  0  0  0  0
 30 31  1  0  0  0  0
 30  4  1  0  0  0  0
 32 30  1  0  0  0  0
 33  3  1  0  0  0  0
 33 38  1  0  0  0  0
 34 33  1  0  0  0  0
 34 35  1  0  0  0  0
 36 34  1  0  0  0  0
 37 34  1  0  0  0  0
 38 39  1  0  0  0  0
 38 41  1  0  0  0  0
 40 38  1  0  0  0  0
 42 44  1  0  0  0  0
 42 33  1  0  0  0  0
 43 42  1  0  0  0  0
 45 42  1  0  0  0  0
 46 55  1  0  0  0  0
 46 47  1  0  0  0  0
 47 48  1  0  0  0  0
 47 50  1  0  0  0  0
 49 47  1  0  0  0  0
 51 53  1  0  0  0  0
 51 46  1  0  0  0  0
 52 51  1  0  0  0  0
 54 51  1  0  0  0  0
 55 56  1  0  0  0  0
 57 55  1  0  0  0  0
 58 55  1  0  0  0  0
M  END
