1,8,15
 OpenBabel05122313063D

 47 49  0  0  1  0  0  0  0  0999 V2000
    0.0886   -1.3256   -1.2515 N   0  0  0  0  0  2  0  0  0  0  0  0
    1.4270   -1.3797   -0.9143 N   0  0  0  0  0  0  0  0  0  0  0  0
   -0.1567   -2.3890   -2.0385 C   0  0  1  0  0  3  0  0  0  0  0  0
    1.0349   -3.1479   -2.1976 C   0  0  0  0  0  0  0  0  0  0  0  0
    2.0239   -2.4981   -1.4761 C   0  0  0  0  0  0  0  0  0  0  0  0
   -1.5000   -2.6953   -2.6065 C   0  0  0  0  0  0  0  0  0  0  0  0
    3.4521   -2.8994   -1.2939 C   0  0  0  0  0  0  0  0  0  0  0  0
    0.0885    1.7466   -0.5222 N   0  0  0  0  0  2  0  0  0  0  0  0
    1.4269    1.4816   -0.7379 N   0  0  0  0  0  0  0  0  0  0  0  0
   -0.1566    2.9602   -1.0492 C   0  0  1  0  0  3  0  0  0  0  0  0
    1.0349    3.4773   -1.6268 C   0  0  0  0  0  0  0  0  0  0  0  0
    2.0238    2.5275   -1.4253 C   0  0  0  0  0  0  0  0  0  0  0  0
   -1.4998    3.6056   -1.0300 C   0  0  0  0  0  0  0  0  0  0  0  0
    3.4519    2.5702   -1.8643 C   0  0  0  0  0  0  0  0  0  0  0  0
    0.0888   -0.4209    1.7738 N   0  0  0  0  0  2  0  0  0  0  0  0
    1.4272   -0.1017    1.6519 N   0  0  0  0  0  0  0  0  0  0  0  0
   -0.1561   -0.5710    3.0883 C   0  0  1  0  0  3  0  0  0  0  0  0
    1.0356   -0.3294    3.8248 C   0  0  0  0  0  0  0  0  0  0  0  0
    2.0244   -0.0292    2.9012 C   0  0  0  0  0  0  0  0  0  0  0  0
   -1.4992   -0.9101    3.6380 C   0  0  0  0  0  0  0  0  0  0  0  0
    3.4526    0.3293    3.1574 C   0  0  0  0  0  0  0  0  0  0  0  0
    2.0881    0.0000   -0.0002 Si  0  0  1  0  0  0  0  0  0  0  0  0
    3.9458    0.0000   -0.0005 C   0  0  0  0  0  0  0  0  0  0  0  0
    1.1508   -4.0731   -2.7715 H   0  0  0  0  0  0  0  0  0  0  0  0
   -1.4100   -3.4277   -3.4299 H   0  0  0  0  0  0  0  0  0  0  0  0
   -2.1562   -3.1141   -1.8142 H   0  0  0  0  0  0  0  0  0  0  0  0
   -1.9957   -1.7730   -2.9697 H   0  0  0  0  0  0  0  0  0  0  0  0
    3.6034   -3.8975   -1.7441 H   0  0  0  0  0  0  0  0  0  0  0  0
    3.7358   -2.9730   -0.2244 H   0  0  0  0  0  0  0  0  0  0  0  0
    4.1634   -2.2061   -1.7873 H   0  0  0  0  0  0  0  0  0  0  0  0
    1.1509    4.4371   -2.1409 H   0  0  0  0  0  0  0  0  0  0  0  0
   -1.4094    4.6848   -1.2530 H   0  0  0  0  0  0  0  0  0  0  0  0
   -1.9951    3.4595   -0.0494 H   0  0  0  0  0  0  0  0  0  0  0  0
   -2.1565    3.1290   -1.7884 H   0  0  0  0  0  0  0  0  0  0  0  0
    3.6032    3.4594   -2.5031 H   0  0  0  0  0  0  0  0  0  0  0  0
    4.1635    2.6499   -1.0175 H   0  0  0  0  0  0  0  0  0  0  0  0
    3.7350    1.6810   -2.4636 H   0  0  0  0  0  0  0  0  0  0  0  0
    1.1517   -0.3640    4.9130 H   0  0  0  0  0  0  0  0  0  0  0  0
   -1.4087   -1.2568    4.6840 H   0  0  0  0  0  0  0  0  0  0  0  0
   -2.1557   -0.0148    3.6046 H   0  0  0  0  0  0  0  0  0  0  0  0
   -1.9948   -1.6861    3.0211 H   0  0  0  0  0  0  0  0  0  0  0  0
    3.6040    0.4381    4.2469 H   0  0  0  0  0  0  0  0  0  0  0  0
    3.7360    1.2926    2.6867 H   0  0  0  0  0  0  0  0  0  0  0  0
    4.1639   -0.4443    2.8033 H   0  0  0  0  0  0  0  0  0  0  0  0
    4.3350    0.9214    0.4698 H   0  0  0  0  0  0  0  0  0  0  0  0
    4.3351   -0.8680    0.5622 H   0  0  0  0  0  0  0  0  0  0  0  0
    4.3349   -0.0532   -1.0336 H   0  0  0  0  0  0  0  0  0  0  0  0
  1  2  1  0  0  0  0
  2 22  1  0  0  0  0
  3  6  1  1  0  0  0
  3  1  1  0  0  0  0
  4  3  1  0  0  0  0
  4  5  2  0  0  0  0
  5  7  1  0  0  0  0
  5  2  1  0  0  0  0
  6 26  1  0  0  0  0
  7 29  1  0  0  0  0
  9  8  1  0  0  0  0
  9 22  1  0  0  0  0
 10 13  1  6  0  0  0
 10  8  1  0  0  0  0
 11 12  2  0  0  0  0
 11 10  1  0  0  0  0
 12  9  1  0  0  0  0
 13 33  1  0  0  0  0
 14 12  1  0  0  0  0
 14 36  1  0  0  0  0
 15 17  1  0  0  0  0
 16 15  1  0  0  0  0
 16 19  1  0  0  0  0
 17 20  1  1  0  0  0
 17 18  1  0  0  0  0
 18 38  1  0  0  0  0
 19 21  1  0  0  0  0
 19 18  2  0  0  0  0
 20 39  1  0  0  0  0
 21 42  1  0  0  0  0
 22 23  1  6  0  0  0
 22 16  1  0  0  0  0
 23 45  1  0  0  0  0
 23 46  1  0  0  0  0
 24  4  1  0  0  0  0
 25  6  1  0  0  0  0
 27  6  1  0  0  0  0
 28  7  1  0  0  0  0
 30  7  1  0  0  0  0
 31 11  1  0  0  0  0
 32 13  1  0  0  0  0
 34 13  1  0  0  0  0
 35 14  1  0  0  0  0
 37 14  1  0  0  0  0
 40 20  1  0  0  0  0
 41 20  1  0  0  0  0
 43 21  1  0  0  0  0
 44 21  1  0  0  0  0
 47 23  1  0  0  0  0
M  END
