1,2,32
 OpenBabel05122313063D

 59 61  0  0  1  0  0  0  0  0999 V2000
    0.0000   -1.5007    0.0000 N   0  0  0  0  0  2  0  0  0  0  0  0
   -2.1960    0.0418    0.2269 N   0  0  0  0  0  0  0  0  0  0  0  0
    0.0001   -4.2606    0.0000 C   0  0  0  0  0  0  0  0  0  0  0  0
    1.2090   -3.5564    0.0947 C   0  0  0  0  0  0  0  0  0  0  0  0
    1.1693   -2.1528    0.1117 C   0  0  2  0  0  3  0  0  0  0  0  0
   -2.3992   -1.2930   -0.3668 C   0  0  1  0  0  0  0  0  0  0  0  0
   -2.6142   -1.2141   -1.8898 C   0  0  0  0  0  0  0  0  0  0  0  0
   -3.1547    1.0952   -0.1763 C   0  0  2  0  0  0  0  0  0  0  0  0
   -2.8407    2.3986    0.5640 C   0  0  0  0  0  0  0  0  0  0  0  0
   -4.6117    0.6886    0.0129 C   0  0  0  0  0  0  0  0  0  0  0  0
   -5.5556    0.9211   -1.0057 C   0  0  0  0  0  0  0  0  0  0  0  0
   -6.9066    0.5842   -0.8287 C   0  0  0  0  0  0  0  0  0  0  0  0
   -7.3343    0.0024    0.3748 C   0  0  0  0  0  0  0  0  0  0  0  0
   -6.4034   -0.2346    1.3992 C   0  0  0  0  0  0  0  0  0  0  0  0
   -5.0554    0.1085    1.2184 C   0  0  0  0  0  0  0  0  0  0  0  0
    0.0001   -5.3612    0.0000 H   0  0  0  0  0  0  0  0  0  0  0  0
    2.1725   -4.0819    0.1707 H   0  0  0  0  0  0  0  0  0  0  0  0
   -2.5980   -2.2324   -2.3233 H   0  0  0  0  0  0  0  0  0  0  0  0
   -3.5950   -0.7610   -2.1273 H   0  0  0  0  0  0  0  0  0  0  0  0
   -1.8095   -0.6039   -2.3495 H   0  0  0  0  0  0  0  0  0  0  0  0
   -2.9690    1.2841   -1.2532 H   0  0  0  0  0  0  0  0  0  0  0  0
   -2.8940    2.2676    1.6637 H   0  0  0  0  0  0  0  0  0  0  0  0
   -1.8221    2.7492    0.3112 H   0  0  0  0  0  0  0  0  0  0  0  0
   -3.5727    3.1751    0.2693 H   0  0  0  0  0  0  0  0  0  0  0  0
   -5.2209    1.3771   -1.9518 H   0  0  0  0  0  0  0  0  0  0  0  0
   -7.6290    0.7746   -1.6372 H   0  0  0  0  0  0  0  0  0  0  0  0
   -8.3923   -0.2663    0.5153 H   0  0  0  0  0  0  0  0  0  0  0  0
   -6.7309   -0.6866    2.3481 H   0  0  0  0  0  0  0  0  0  0  0  0
   -4.3366   -0.0746    2.0343 H   0  0  0  0  0  0  0  0  0  0  0  0
   -2.1733   -0.0274    1.2556 H   0  0  0  0  0  0  0  0  0  0  0  0
   -3.2801   -1.8084    0.0847 H   0  0  0  0  0  0  0  0  0  0  0  0
    2.1960    0.0419   -0.2270 N   0  0  0  0  0  0  0  0  0  0  0  0
   -1.2089   -3.5565   -0.0947 C   0  0  0  0  0  0  0  0  0  0  0  0
   -1.1692   -2.1529   -0.1117 C   0  0  0  0  0  0  0  0  0  0  0  0
    2.3993   -1.2929    0.3668 C   0  0  1  0  0  0  0  0  0  0  0  0
    2.6143   -1.2138    1.8898 C   0  0  0  0  0  0  0  0  0  0  0  0
    3.1547    1.0953    0.1762 C   0  0  2  0  0  0  0  0  0  0  0  0
    2.8408    2.3987   -0.5643 C   0  0  0  0  0  0  0  0  0  0  0  0
    4.6117    0.6886   -0.0129 C   0  0  0  0  0  0  0  0  0  0  0  0
    5.5555    0.9212    1.0058 C   0  0  0  0  0  0  0  0  0  0  0  0
    6.9064    0.5843    0.8289 C   0  0  0  0  0  0  0  0  0  0  0  0
    7.3343    0.0023   -0.3744 C   0  0  0  0  0  0  0  0  0  0  0  0
    6.4034   -0.2348   -1.3989 C   0  0  0  0  0  0  0  0  0  0  0  0
    5.0554    0.1084   -1.2183 C   0  0  0  0  0  0  0  0  0  0  0  0
   -2.1723   -4.0820   -0.1707 H   0  0  0  0  0  0  0  0  0  0  0  0
    2.5981   -2.2322    2.3233 H   0  0  0  0  0  0  0  0  0  0  0  0
    3.5950   -0.7607    2.1273 H   0  0  0  0  0  0  0  0  0  0  0  0
    1.8095   -0.6037    2.3495 H   0  0  0  0  0  0  0  0  0  0  0  0
    2.9689    1.2844    1.2530 H   0  0  0  0  0  0  0  0  0  0  0  0
    2.8941    2.2675   -1.6640 H   0  0  0  0  0  0  0  0  0  0  0  0
    1.8221    2.7493   -0.3116 H   0  0  0  0  0  0  0  0  0  0  0  0
    3.5727    3.1751   -0.2697 H   0  0  0  0  0  0  0  0  0  0  0  0
    5.2207    1.3774    1.9518 H   0  0  0  0  0  0  0  0  0  0  0  0
    7.6288    0.7748    1.6374 H   0  0  0  0  0  0  0  0  0  0  0  0
    8.3923   -0.2664   -0.5148 H   0  0  0  0  0  0  0  0  0  0  0  0
    6.7309   -0.6869   -2.3477 H   0  0  0  0  0  0  0  0  0  0  0  0
    4.3367   -0.0748   -2.0342 H   0  0  0  0  0  0  0  0  0  0  0  0
    2.1734   -0.0274   -1.2556 H   0  0  0  0  0  0  0  0  0  0  0  0
    3.2802   -1.8082   -0.0847 H   0  0  0  0  0  0  0  0  0  0  0  0
  1  5  1  0  0  0  0
  2 30  1  0  0  0  0
  3 16  1  0  0  0  0
  3  4  2  0  0  0  0
  4  5  1  0  0  0  0
  4 17  1  0  0  0  0
  5 35  1  1  0  0  0
  6 34  1  0  0  0  0
  6 31  1  1  0  0  0
  6  2  1  0  0  0  0
  7  6  1  0  0  0  0
  8 21  1  6  0  0  0
  8 10  1  0  0  0  0
  8  2  1  0  0  0  0
  8  9  1  0  0  0  0
  9 22  1  0  0  0  0
 10 15  1  0  0  0  0
 11 12  1  0  0  0  0
 11 10  2  0  0  0  0
 12 13  2  0  0  0  0
 13 27  1  0  0  0  0
 13 14  1  0  0  0  0
 14 28  1  0  0  0  0
 15 14  2  0  0  0  0
 15 29  1  0  0  0  0
 18  7  1  0  0  0  0
 19  7  1  0  0  0  0
 20  7  1  0  0  0  0
 23  9  1  0  0  0  0
 24  9  1  0  0  0  0
 25 11  1  0  0  0  0
 26 12  1  0  0  0  0
 32 37  1  0  0  0  0
 32 35  1  0  0  0  0
 33  3  1  0  0  0  0
 34 33  2  0  0  0  0
 34  1  1  0  0  0  0
 35 59  1  6  0  0  0
 35 36  1  0  0  0  0
 36 47  1  0  0  0  0
 36 46  1  0  0  0  0
 36 48  1  0  0  0  0
 37 49  1  1  0  0  0
 38 51  1  0  0  0  0
 38 52  1  0  0  0  0
 38 37  1  0  0  0  0
 39 37  1  0  0  0  0
 39 40  1  0  0  0  0
 40 53  1  0  0  0  0
 41 40  2  0  0  0  0
 41 54  1  0  0  0  0
 42 41  1  0  0  0  0
 43 44  1  0  0  0  0
 43 42  2  0  0  0  0
 44 39  2  0  0  0  0
 45 33  1  0  0  0  0
 50 38  1  0  0  0  0
 55 42  1  0  0  0  0
 56 43  1  0  0  0  0
 57 44  1  0  0  0  0
 58 32  1  0  0  0  0
M  END
