3,4,5
 OpenBabel05122313063D

 53 56  0  0  1  0  0  0  0  0999 V2000
    2.3479   -0.0500   -0.4643 O   0  0  0  0  0  0  0  0  0  0  0  0
   -2.2617   -0.5405    0.8201 O   0  0  0  0  0  0  0  0  0  0  0  0
    0.4553   -1.2190    1.1638 N   0  0  0  0  0  2  0  0  0  0  0  0
   -0.0152    1.5827    0.4977 N   0  0  0  0  0  0  0  0  0  0  0  0
   -0.9148    0.6666   -1.8423 N   0  0  0  0  0  0  0  0  0  0  0  0
    4.4291    3.5095    0.2344 C   0  0  0  0  0  0  0  0  0  0  0  0
    3.1754    3.2972    0.8249 C   0  0  0  0  0  0  0  0  0  0  0  0
    2.4720    2.0886    0.6435 C   0  0  0  0  0  0  0  0  0  0  0  0
    3.0612    1.0978   -0.1756 C   0  0  0  0  0  0  0  0  0  0  0  0
    4.3124    1.3049   -0.7779 C   0  0  0  0  0  0  0  0  0  0  0  0
    5.0009    2.5075   -0.5646 C   0  0  0  0  0  0  0  0  0  0  0  0
    2.7047   -1.2790    0.1552 C   0  0  0  0  0  0  0  0  0  0  0  0
    1.7332   -1.6753    1.2494 C   0  0  2  0  0  3  0  0  0  0  0  0
    2.1220   -2.5622    2.2625 C   0  0  0  0  0  0  0  0  0  0  0  0
    1.1677   -3.0215    3.1768 C   0  0  0  0  0  0  0  0  0  0  0  0
   -0.1454   -2.5443    3.0782 C   0  0  0  0  0  0  0  0  0  0  0  0
   -0.4708   -1.6214    2.0757 C   0  0  0  0  0  0  0  0  0  0  0  0
   -1.8312   -0.9520    2.1078 C   0  0  0  0  0  0  0  0  0  0  0  0
   -3.0290    0.5945    0.6995 C   0  0  0  0  0  0  0  0  0  0  0  0
   -3.7192    1.1726    1.7823 C   0  0  0  0  0  0  0  0  0  0  0  0
   -4.4721    2.3429    1.5933 C   0  0  0  0  0  0  0  0  0  0  0  0
   -4.5498    2.9368    0.3272 C   0  0  0  0  0  0  0  0  0  0  0  0
   -3.8673    2.3489   -0.7477 C   0  0  0  0  0  0  0  0  0  0  0  0
   -3.0896    1.1849   -0.5946 C   0  0  0  0  0  0  0  0  0  0  0  0
   -2.4120    0.5795   -1.8000 C   0  0  0  0  0  0  0  0  0  0  0  0
   -0.3104    2.0194   -1.9130 C   0  0  0  0  0  0  0  0  0  0  0  0
   -0.2877    2.6482   -0.5234 C   0  0  0  0  0  0  0  0  0  0  0  0
    1.1679    1.8612    1.3671 C   0  0  0  0  0  0  0  0  0  0  0  0
   -0.8322    1.5773    1.1268 H   0  0  0  0  0  0  0  0  0  0  0  0
   -0.6257    0.1206   -2.6729 H   0  0  0  0  0  0  0  0  0  0  0  0
    4.9593    4.4587    0.3983 H   0  0  0  0  0  0  0  0  0  0  0  0
    2.7321    4.0809    1.4599 H   0  0  0  0  0  0  0  0  0  0  0  0
    4.7287    0.5184   -1.4247 H   0  0  0  0  0  0  0  0  0  0  0  0
    5.9821    2.6658   -1.0361 H   0  0  0  0  0  0  0  0  0  0  0  0
    2.6539   -2.0637   -0.6329 H   0  0  0  0  0  0  0  0  0  0  0  0
    3.7397   -1.2448    0.5543 H   0  0  0  0  0  0  0  0  0  0  0  0
    3.1665   -2.9024    2.3124 H   0  0  0  0  0  0  0  0  0  0  0  0
    1.4434   -3.7406    3.9618 H   0  0  0  0  0  0  0  0  0  0  0  0
   -0.9215   -2.8758    3.7832 H   0  0  0  0  0  0  0  0  0  0  0  0
   -1.7453   -0.0653    2.7810 H   0  0  0  0  0  0  0  0  0  0  0  0
   -2.5728   -1.6362    2.5732 H   0  0  0  0  0  0  0  0  0  0  0  0
   -3.7106    0.6953    2.7716 H   0  0  0  0  0  0  0  0  0  0  0  0
   -5.0160    2.7759    2.4457 H   0  0  0  0  0  0  0  0  0  0  0  0
   -5.1498    3.8445    0.1717 H   0  0  0  0  0  0  0  0  0  0  0  0
   -3.9368    2.8026   -1.7491 H   0  0  0  0  0  0  0  0  0  0  0  0
   -2.8126    1.0715   -2.7123 H   0  0  0  0  0  0  0  0  0  0  0  0
   -2.6352   -0.5051   -1.8698 H   0  0  0  0  0  0  0  0  0  0  0  0
    0.7250    1.8815   -2.2818 H   0  0  0  0  0  0  0  0  0  0  0  0
   -0.8499    2.6664   -2.6401 H   0  0  0  0  0  0  0  0  0  0  0  0
   -1.2551    3.1271   -0.2835 H   0  0  0  0  0  0  0  0  0  0  0  0
    0.4999    3.4258   -0.4766 H   0  0  0  0  0  0  0  0  0  0  0  0
    1.2544    1.0039    2.0646 H   0  0  0  0  0  0  0  0  0  0  0  0
    0.9538    2.7598    1.9853 H   0  0  0  0  0  0  0  0  0  0  0  0
  1  9  1  0  0  0  0
  1 12  1  0  0  0  0
  2 18  1  0  0  0  0
  3 17  1  0  0  0  0
  4 29  1  0  0  0  0
  4 28  1  0  0  0  0
  5 25  1  0  0  0  0
  6 31  1  0  0  0  0
  6  7  1  0  0  0  0
  7 32  1  0  0  0  0
  8  7  2  0  0  0  0
  8 28  1  0  0  0  0
  9  8  1  0  0  0  0
 10 11  1  0  0  0  0
 10  9  2  0  0  0  0
 11  6  2  0  0  0  0
 12 36  1  0  0  0  0
 12 13  1  0  0  0  0
 13  3  1  6  0  0  0
 13 14  1  0  0  0  0
 14 37  1  0  0  0  0
 14 15  2  0  0  0  0
 15 38  1  0  0  0  0
 16 15  1  0  0  0  0
 16 39  1  0  0  0  0
 17 18  1  0  0  0  0
 17 16  2  0  0  0  0
 18 41  1  0  0  0  0
 18 40  1  0  0  0  0
 19  2  1  0  0  0  0
 19 20  1  0  0  0  0
 20 42  1  0  0  0  0
 21 20  2  0  0  0  0
 21 43  1  0  0  0  0
 22 21  1  0  0  0  0
 23 24  1  0  0  0  0
 23 22  2  0  0  0  0
 24 19  2  0  0  0  0
 25 24  1  0  0  0  0
 26  5  1  0  0  0  0
 26 27  1  0  0  0  0
 27 51  1  0  0  0  0
 27 50  1  0  0  0  0
 27  4  1  0  0  0  0
 28 53  1  0  0  0  0
 28 52  1  0  0  0  0
 30  5  1  0  0  0  0
 33 10  1  0  0  0  0
 34 11  1  0  0  0  0
 35 12  1  0  0  0  0
 44 22  1  0  0  0  0
 45 23  1  0  0  0  0
 46 25  1  0  0  0  0
 47 25  1  0  0  0  0
 48 26  1  0  0  0  0
 49 26  1  0  0  0  0
M  END
