1,12,57
 OpenBabel05122313063D

 59 63  0  0  1  0  0  0  0  0999 V2000
    3.7071   -0.0210   -0.2604 N   0  0  0  0  0  2  0  0  0  0  0  0
    4.2253   -1.2202   -0.5832 C   0  0  1  0  0  3  0  0  0  0  0  0
    5.4257   -1.2736   -1.3023 C   0  0  0  0  0  0  0  0  0  0  0  0
    5.8349   -2.2624   -1.5537 H   0  0  0  0  0  0  0  0  0  0  0  0
    6.0452   -0.0639   -1.6649 C   0  0  0  0  0  0  0  0  0  0  0  0
    6.9900   -0.0812   -2.2292 H   0  0  0  0  0  0  0  0  0  0  0  0
    5.4635    1.1679   -1.3140 C   0  0  0  0  0  0  0  0  0  0  0  0
    5.9032    2.1411   -1.5746 H   0  0  0  0  0  0  0  0  0  0  0  0
    4.2612    1.1585   -0.5961 C   0  0  0  0  0  0  0  0  0  0  0  0
    3.8057   -3.5669   -0.3198 O   0  0  0  0  0  0  0  0  0  0  0  0
    3.4224   -2.4087   -0.1027 C   0  0  0  0  0  0  0  0  0  0  0  0
    2.2973   -2.0166    0.5747 N   0  0  0  0  0  2  0  0  0  0  0  0
    1.4811   -3.0516    1.1879 C   0  0  0  0  0  0  0  0  0  0  0  0
    1.3786   -2.8481    2.2761 H   0  0  0  0  0  0  0  0  0  0  0  0
    2.0313   -4.0124    1.0770 H   0  0  0  0  0  0  0  0  0  0  0  0
    0.0992   -3.1878    0.5816 C   0  0  0  0  0  0  0  0  0  0  0  0
   -0.0674   -3.3169   -0.8132 C   0  0  0  0  0  0  0  0  0  0  0  0
    0.8235   -3.3242   -1.4599 H   0  0  0  0  0  0  0  0  0  0  0  0
   -1.3396   -3.4246   -1.3814 C   0  0  0  0  0  0  0  0  0  0  0  0
   -1.4748   -3.5218   -2.4687 H   0  0  0  0  0  0  0  0  0  0  0  0
   -2.4880   -3.3996   -0.5639 C   0  0  0  0  0  0  0  0  0  0  0  0
   -2.3411   -3.2871    0.8304 C   0  0  0  0  0  0  0  0  0  0  0  0
   -3.2194   -3.2781    1.4911 H   0  0  0  0  0  0  0  0  0  0  0  0
   -1.0531   -3.1884    1.3845 C   0  0  0  0  0  0  0  0  0  0  0  0
   -0.9453   -3.0957    2.4777 H   0  0  0  0  0  0  0  0  0  0  0  0
   -3.6981   -3.5056   -1.2073 O   0  0  0  0  0  0  0  0  0  0  0  0
   -4.8407   -2.9370   -0.5858 C   0  0  0  0  0  0  0  0  0  0  0  0
   -5.0267   -3.3662    0.4253 H   0  0  0  0  0  0  0  0  0  0  0  0
   -5.6920   -3.2575   -1.2231 H   0  0  0  0  0  0  0  0  0  0  0  0
   -4.7907   -1.4208   -0.5262 C   0  0  0  0  0  0  0  0  0  0  0  0
   -4.0175   -0.7048   -1.4601 C   0  0  0  0  0  0  0  0  0  0  0  0
   -3.4157   -1.2590   -2.1942 H   0  0  0  0  0  0  0  0  0  0  0  0
   -4.0094    0.6947   -1.4610 C   0  0  0  0  0  0  0  0  0  0  0  0
   -3.4025    1.2404   -2.1968 H   0  0  0  0  0  0  0  0  0  0  0  0
   -4.7727    1.4213   -0.5277 C   0  0  0  0  0  0  0  0  0  0  0  0
   -5.5355    0.7078    0.4166 C   0  0  0  0  0  0  0  0  0  0  0  0
   -6.1299    1.2556    1.1661 H   0  0  0  0  0  0  0  0  0  0  0  0
   -5.5447   -0.6965    0.4175 C   0  0  0  0  0  0  0  0  0  0  0  0
   -6.1458   -1.2362    1.1673 H   0  0  0  0  0  0  0  0  0  0  0  0
   -4.8042    2.9382   -0.5855 C   0  0  0  0  0  0  0  0  0  0  0  0
   -5.6687    3.2705   -1.1988 H   0  0  0  0  0  0  0  0  0  0  0  0
   -4.9594    3.3665    0.4309 H   0  0  0  0  0  0  0  0  0  0  0  0
   -3.6704    3.4923   -1.2368 O   0  0  0  0  0  0  0  0  0  0  0  0
   -2.4492    3.3975   -0.6097 C   0  0  0  0  0  0  0  0  0  0  0  0
   -2.2728    3.4728    0.7841 C   0  0  0  0  0  0  0  0  0  0  0  0
   -3.1347    3.6175    1.4518 H   0  0  0  0  0  0  0  0  0  0  0  0
   -0.9790    3.3779    1.3256 C   0  0  0  0  0  0  0  0  0  0  0  0
   -0.8495    3.4312    2.4191 H   0  0  0  0  0  0  0  0  0  0  0  0
    0.1518    3.2033    0.5094 C   0  0  0  0  0  0  0  0  0  0  0  0
   -0.0431    3.1472   -0.8857 C   0  0  0  0  0  0  0  0  0  0  0  0
    0.8298    3.0085   -1.5418 H   0  0  0  0  0  0  0  0  0  0  0  0
   -1.3220    3.2450   -1.4412 C   0  0  0  0  0  0  0  0  0  0  0  0
   -1.4772    3.1985   -2.5293 H   0  0  0  0  0  0  0  0  0  0  0  0
    1.5407    3.0886    1.1046 C   0  0  0  0  0  0  0  0  0  0  0  0
    2.0935    4.0415    0.9440 H   0  0  0  0  0  0  0  0  0  0  0  0
    1.4505    2.9399    2.2032 H   0  0  0  0  0  0  0  0  0  0  0  0
    2.3439    2.0248    0.5286 N   0  0  0  0  0  2  0  0  0  0  0  0
    3.9146    3.5193   -0.3544 O   0  0  0  0  0  0  0  0  0  0  0  0
    3.4918    2.3761   -0.1338 C   0  0  0  0  0  0  0  0  0  0  0  0
  2  3  1  1  0  0  0
  2  1  1  0  0  0  0
  2 11  1  0  0  0  0
  4  3  1  0  0  0  0
  5  7  1  0  0  0  0
  5  3  2  0  0  0  0
  6  5  1  0  0  0  0
  7  9  2  0  0  0  0
  8  7  1  0  0  0  0
  9  1  1  0  0  0  0
  9 59  1  0  0  0  0
 10 11  2  0  0  0  0
 11 12  1  0  0  0  0
 12 13  1  0  0  0  0
 13 14  1  0  0  0  0
 15 13  1  0  0  0  0
 16 13  1  0  0  0  0
 16 24  1  0  0  0  0
 17 16  2  0  0  0  0
 18 17  1  0  0  0  0
 19 17  1  0  0  0  0
 19 21  2  0  0  0  0
 20 19  1  0  0  0  0
 21 22  1  0  0  0  0
 22 24  2  0  0  0  0
 22 23  1  0  0  0  0
 24 25  1  0  0  0  0
 26 27  1  0  0  0  0
 26 21  1  0  0  0  0
 27 30  1  0  0  0  0
 27 28  1  0  0  0  0
 29 27  1  0  0  0  0
 30 38  1  0  0  0  0
 31 30  2  0  0  0  0
 32 31  1  0  0  0  0
 33 31  1  0  0  0  0
 33 35  2  0  0  0  0
 34 33  1  0  0  0  0
 35 36  1  0  0  0  0
 36 38  2  0  0  0  0
 36 37  1  0  0  0  0
 38 39  1  0  0  0  0
 40 35  1  0  0  0  0
 40 42  1  0  0  0  0
 41 40  1  0  0  0  0
 43 44  1  0  0  0  0
 43 40  1  0  0  0  0
 44 45  1  0  0  0  0
 45 47  2  0  0  0  0
 45 46  1  0  0  0  0
 47 48  1  0  0  0  0
 49 54  1  0  0  0  0
 49 47  1  0  0  0  0
 50 49  2  0  0  0  0
 51 50  1  0  0  0  0
 52 50  1  0  0  0  0
 52 44  2  0  0  0  0
 53 52  1  0  0  0  0
 54 56  1  0  0  0  0
 55 54  1  0  0  0  0
 57 54  1  0  0  0  0
 58 59  2  0  0  0  0
 59 57  1  0  0  0  0
M  END
