1,2,3
 OpenBabel05122313063D

 57 59  0  0  1  0  0  0  0  0999 V2000
    0.0228    2.1199    1.2167 N   0  0  0  0  0  2  0  0  0  0  0  0
   -1.5535    0.4497   -0.4553 N   0  0  0  0  0  2  0  0  0  0  0  0
    1.5529    0.3974   -0.4680 N   0  0  0  0  0  2  0  0  0  0  0  0
    0.0254    2.3531   -1.1858 C   0  0  0  0  0  0  0  0  0  0  0  0
    0.0409    3.4017   -2.3112 C   0  0  0  0  0  0  0  0  0  0  0  0
    0.0199    2.9987    0.1870 C   0  0  2  0  0  3  0  0  0  0  0  0
    0.0163    4.3863    0.4206 C   0  0  0  0  0  0  0  0  0  0  0  0
    0.0178    4.8637    1.7379 C   0  0  0  0  0  0  0  0  0  0  0  0
    0.0237    3.9422    2.7938 C   0  0  0  0  0  0  0  0  0  0  0  0
    0.0258    2.5787    2.4830 C   0  0  0  0  0  0  0  0  0  0  0  0
   -1.2861    1.5329   -1.3796 C   0  0  0  0  0  0  0  0  0  0  0  0
   -2.7690   -0.2113   -0.6253 C   0  0  0  0  0  0  0  0  0  0  0  0
   -3.1171   -1.2853    0.2436 C   0  0  0  0  0  0  0  0  0  0  0  0
   -4.3115   -1.9983    0.1059 C   0  0  0  0  0  0  0  0  0  0  0  0
   -4.6320   -3.1466    1.0325 C   0  0  0  0  0  0  0  0  0  0  0  0
   -5.2170   -1.6312   -0.9152 C   0  0  0  0  0  0  0  0  0  0  0  0
   -4.9188   -0.5726   -1.7863 C   0  0  0  0  0  0  0  0  0  0  0  0
   -5.8794   -0.1737   -2.8816 C   0  0  0  0  0  0  0  0  0  0  0  0
   -3.7025    0.1258   -1.6399 C   0  0  0  0  0  0  0  0  0  0  0  0
    1.3346    1.5228   -1.3551 C   0  0  0  0  0  0  0  0  0  0  0  0
    2.7642   -0.2761   -0.6304 C   0  0  0  0  0  0  0  0  0  0  0  0
    3.7595    0.1311   -1.5574 C   0  0  0  0  0  0  0  0  0  0  0  0
    4.9762   -0.5690   -1.6918 C   0  0  0  0  0  0  0  0  0  0  0  0
    6.0035   -0.0907   -2.6905 C   0  0  0  0  0  0  0  0  0  0  0  0
    5.2128   -1.7021   -0.8993 C   0  0  0  0  0  0  0  0  0  0  0  0
    4.2413   -2.1463    0.0255 C   0  0  0  0  0  0  0  0  0  0  0  0
    4.4922   -3.3782    0.8619 C   0  0  0  0  0  0  0  0  0  0  0  0
    3.0455   -1.4329    0.1527 C   0  0  0  0  0  0  0  0  0  0  0  0
    0.0387    2.8969   -3.2968 H   0  0  0  0  0  0  0  0  0  0  0  0
    0.9465    4.0378   -2.2625 H   0  0  0  0  0  0  0  0  0  0  0  0
   -0.8507    4.0576   -2.2695 H   0  0  0  0  0  0  0  0  0  0  0  0
    0.0131    5.0899   -0.4211 H   0  0  0  0  0  0  0  0  0  0  0  0
    0.0152    5.9463    1.9357 H   0  0  0  0  0  0  0  0  0  0  0  0
    0.0263    4.2681    3.8437 H   0  0  0  0  0  0  0  0  0  0  0  0
    0.0293    1.8045    3.2640 H   0  0  0  0  0  0  0  0  0  0  0  0
   -1.2560    1.1451   -2.4286 H   0  0  0  0  0  0  0  0  0  0  0  0
   -2.1218    2.2751   -1.3564 H   0  0  0  0  0  0  0  0  0  0  0  0
   -2.4080   -1.5822    1.0267 H   0  0  0  0  0  0  0  0  0  0  0  0
   -4.7457   -4.0974    0.4701 H   0  0  0  0  0  0  0  0  0  0  0  0
   -3.8365   -3.2954    1.7887 H   0  0  0  0  0  0  0  0  0  0  0  0
   -5.5886   -2.9792    1.5707 H   0  0  0  0  0  0  0  0  0  0  0  0
   -6.1656   -2.1804   -1.0287 H   0  0  0  0  0  0  0  0  0  0  0  0
   -6.2266    0.8735   -2.7533 H   0  0  0  0  0  0  0  0  0  0  0  0
   -5.3994   -0.2300   -3.8813 H   0  0  0  0  0  0  0  0  0  0  0  0
   -6.7740   -0.8259   -2.8987 H   0  0  0  0  0  0  0  0  0  0  0  0
   -3.4896    0.9392   -2.3466 H   0  0  0  0  0  0  0  0  0  0  0  0
    1.3469    1.1753   -2.4181 H   0  0  0  0  0  0  0  0  0  0  0  0
    2.1744    2.2559   -1.2682 H   0  0  0  0  0  0  0  0  0  0  0  0
    3.5995    1.0067   -2.2006 H   0  0  0  0  0  0  0  0  0  0  0  0
    6.8991   -0.7419   -2.6996 H   0  0  0  0  0  0  0  0  0  0  0  0
    5.5881   -0.0713   -3.7201 H   0  0  0  0  0  0  0  0  0  0  0  0
    6.3390    0.9431   -2.4626 H   0  0  0  0  0  0  0  0  0  0  0  0
    6.1622   -2.2520   -1.0029 H   0  0  0  0  0  0  0  0  0  0  0  0
    3.6362   -3.5996    1.5291 H   0  0  0  0  0  0  0  0  0  0  0  0
    4.6643   -4.2703    0.2236 H   0  0  0  0  0  0  0  0  0  0  0  0
    5.3969   -3.2609    1.4950 H   0  0  0  0  0  0  0  0  0  0  0  0
    2.2776   -1.7968    0.8472 H   0  0  0  0  0  0  0  0  0  0  0  0
  1 10  1  0  0  0  0
  5 31  1  0  0  0  0
  5 30  1  0  0  0  0
  5  4  1  0  0  0  0
  6  4  1  6  0  0  0
  6  7  1  0  0  0  0
  6  1  1  0  0  0  0
  7  8  2  0  0  0  0
  8 33  1  0  0  0  0
  8  9  1  0  0  0  0
  9 34  1  0  0  0  0
 10  9  2  0  0  0  0
 10 35  1  0  0  0  0
 11 37  1  0  0  0  0
 11  4  1  0  0  0  0
 11  2  1  0  0  0  0
 12  2  1  0  0  0  0
 12 13  1  0  0  0  0
 13 38  1  0  0  0  0
 14 13  2  0  0  0  0
 14 15  1  0  0  0  0
 15 41  1  0  0  0  0
 15 40  1  0  0  0  0
 16 14  1  0  0  0  0
 17 19  1  0  0  0  0
 17 16  2  0  0  0  0
 18 43  1  0  0  0  0
 18 17  1  0  0  0  0
 19 12  2  0  0  0  0
 20 48  1  0  0  0  0
 20  4  1  0  0  0  0
 20  3  1  0  0  0  0
 21  3  1  0  0  0  0
 21 28  1  0  0  0  0
 22 21  2  0  0  0  0
 23 22  1  0  0  0  0
 23 25  2  0  0  0  0
 24 52  1  0  0  0  0
 24 23  1  0  0  0  0
 25 26  1  0  0  0  0
 26 28  2  0  0  0  0
 26 27  1  0  0  0  0
 27 56  1  0  0  0  0
 27 54  1  0  0  0  0
 28 57  1  0  0  0  0
 29  5  1  0  0  0  0
 32  7  1  0  0  0  0
 36 11  1  0  0  0  0
 39 15  1  0  0  0  0
 42 16  1  0  0  0  0
 44 18  1  0  0  0  0
 45 18  1  0  0  0  0
 46 19  1  0  0  0  0
 47 20  1  0  0  0  0
 49 22  1  0  0  0  0
 50 24  1  0  0  0  0
 51 24  1  0  0  0  0
 53 25  1  0  0  0  0
 55 27  1  0  0  0  0
M  END
