1,5,8
 OpenBabel05122313063D

 72 75  0  0  1  0  0  0  0  0999 V2000
    3.4839    0.2791    0.1904 N   0  0  0  0  0  2  0  0  0  0  0  0
    4.4861   -0.5943    0.1119 C   0  0  0  0  0  0  0  0  0  0  0  0
   -6.1136   -0.0175   -1.1067 O   0  0  0  0  0  0  0  0  0  0  0  0
   -5.2628    0.1048   -0.0268 B   0  0  0  0  0  0  0  0  0  0  0  0
    2.6599   -2.0304   -0.1075 N   0  0  0  0  0  2  0  0  0  0  0  0
   -5.8400    0.7384    1.0544 O   0  0  0  0  0  0  0  0  0  0  0  0
    4.0365   -1.9629   -0.0469 C   0  0  0  0  0  0  0  0  0  0  0  0
    0.2206   -1.7912   -0.0379 N   0  0  0  0  0  2  0  0  0  0  0  0
    4.8025   -3.1320   -0.1981 C   0  0  0  0  0  0  0  0  0  0  0  0
    5.8985   -3.0703   -0.1517 H   0  0  0  0  0  0  0  0  0  0  0  0
    4.1547   -4.3610   -0.4072 C   0  0  0  0  0  0  0  0  0  0  0  0
    4.7448   -5.2799   -0.5322 H   0  0  0  0  0  0  0  0  0  0  0  0
    2.7511   -4.4161   -0.4451 C   0  0  0  0  0  0  0  0  0  0  0  0
    2.2265   -5.3701   -0.5933 H   0  0  0  0  0  0  0  0  0  0  0  0
    2.0078   -3.2348   -0.2784 C   0  0  0  0  0  0  0  0  0  0  0  0
    0.5680   -3.0556   -0.2510 C   0  0  1  0  0  3  0  0  0  0  0  0
    5.9409   -0.2409    0.1305 C   0  0  0  0  0  0  0  0  0  0  0  0
    6.0842    0.8412    0.3013 H   0  0  0  0  0  0  0  0  0  0  0  0
    6.4366   -0.5157   -0.8244 H   0  0  0  0  0  0  0  0  0  0  0  0
    6.4586   -0.8006    0.9370 H   0  0  0  0  0  0  0  0  0  0  0  0
   -0.3826   -4.1991   -0.4298 C   0  0  0  0  0  0  0  0  0  0  0  0
   -1.4029   -3.9250   -0.1063 H   0  0  0  0  0  0  0  0  0  0  0  0
   -0.0443   -5.0750    0.1596 H   0  0  0  0  0  0  0  0  0  0  0  0
   -0.4361   -4.5193   -1.4920 H   0  0  0  0  0  0  0  0  0  0  0  0
    3.7473    1.6794    0.0610 C   0  0  0  0  0  0  0  0  0  0  0  0
    4.0628    2.1866   -1.2283 C   0  0  0  0  0  0  0  0  0  0  0  0
    4.2715    3.5690   -1.3660 C   0  0  0  0  0  0  0  0  0  0  0  0
    4.5054    3.9662   -2.3672 H   0  0  0  0  0  0  0  0  0  0  0  0
    4.1875    4.4530   -0.2759 C   0  0  0  0  0  0  0  0  0  0  0  0
    3.8918    3.9112    0.9868 C   0  0  0  0  0  0  0  0  0  0  0  0
    3.8386    4.5793    1.8619 H   0  0  0  0  0  0  0  0  0  0  0  0
    3.6594    2.5380    1.1835 C   0  0  0  0  0  0  0  0  0  0  0  0
    4.1756    1.2757   -2.4240 C   0  0  0  0  0  0  0  0  0  0  0  0
    4.1466    1.8601   -3.3632 H   0  0  0  0  0  0  0  0  0  0  0  0
    3.3406    0.5490   -2.4408 H   0  0  0  0  0  0  0  0  0  0  0  0
    5.1285    0.7042   -2.4219 H   0  0  0  0  0  0  0  0  0  0  0  0
    4.3773    5.9373   -0.4622 C   0  0  0  0  0  0  0  0  0  0  0  0
    5.0929    6.1597   -1.2788 H   0  0  0  0  0  0  0  0  0  0  0  0
    4.7459    6.4223    0.4633 H   0  0  0  0  0  0  0  0  0  0  0  0
    3.4172    6.4302   -0.7288 H   0  0  0  0  0  0  0  0  0  0  0  0
    3.3420    2.0105    2.5553 C   0  0  0  0  0  0  0  0  0  0  0  0
    3.5329    2.7796    3.3279 H   0  0  0  0  0  0  0  0  0  0  0  0
    3.9284    1.1027    2.8001 H   0  0  0  0  0  0  0  0  0  0  0  0
    2.2833    1.6889    2.6291 H   0  0  0  0  0  0  0  0  0  0  0  0
   -1.1312   -1.3626   -0.0371 C   0  0  0  0  0  0  0  0  0  0  0  0
   -1.9152   -1.4571   -1.2053 C   0  0  0  0  0  0  0  0  0  0  0  0
   -1.4661   -1.8682   -2.1210 H   0  0  0  0  0  0  0  0  0  0  0  0
   -3.2327   -0.9882   -1.1935 C   0  0  0  0  0  0  0  0  0  0  0  0
   -3.8419   -1.0525   -2.1085 H   0  0  0  0  0  0  0  0  0  0  0  0
   -3.7972   -0.4179   -0.0298 C   0  0  0  0  0  0  0  0  0  0  0  0
   -2.9856   -0.3204    1.1248 C   0  0  0  0  0  0  0  0  0  0  0  0
   -3.4070    0.1276    2.0380 H   0  0  0  0  0  0  0  0  0  0  0  0
   -1.6628   -0.7733    1.1284 C   0  0  0  0  0  0  0  0  0  0  0  0
   -1.0156   -0.6873    2.0137 H   0  0  0  0  0  0  0  0  0  0  0  0
   -7.2888    0.7919   -0.8176 C   0  0  0  0  0  0  0  0  0  0  0  0
   -7.2596    0.8752    0.7631 C   0  0  0  0  0  0  0  0  0  0  0  0
   -7.0678    2.1506   -1.4930 C   0  0  0  0  0  0  0  0  0  0  0  0
   -6.8746    1.9862   -2.5709 H   0  0  0  0  0  0  0  0  0  0  0  0
   -6.1894    2.6722   -1.0652 H   0  0  0  0  0  0  0  0  0  0  0  0
   -7.9529    2.8088   -1.3928 H   0  0  0  0  0  0  0  0  0  0  0  0
   -8.5179    0.1015   -1.4006 C   0  0  0  0  0  0  0  0  0  0  0  0
   -8.4466    0.0825   -2.5058 H   0  0  0  0  0  0  0  0  0  0  0  0
   -9.4424    0.6480   -1.1260 H   0  0  0  0  0  0  0  0  0  0  0  0
   -8.6050   -0.9423   -1.0478 H   0  0  0  0  0  0  0  0  0  0  0  0
   -7.7562    2.1951    1.3448 C   0  0  0  0  0  0  0  0  0  0  0  0
   -7.1494    3.0492    0.9931 H   0  0  0  0  0  0  0  0  0  0  0  0
   -7.6913    2.1641    2.4501 H   0  0  0  0  0  0  0  0  0  0  0  0
   -8.8149    2.3728    1.0681 H   0  0  0  0  0  0  0  0  0  0  0  0
   -7.9665   -0.3061    1.4385 C   0  0  0  0  0  0  0  0  0  0  0  0
   -7.7139   -0.3041    2.5166 H   0  0  0  0  0  0  0  0  0  0  0  0
   -7.6305   -1.2711    1.0111 H   0  0  0  0  0  0  0  0  0  0  0  0
   -9.0673   -0.2394    1.3372 H   0  0  0  0  0  0  0  0  0  0  0  0
  2 17  1  0  0  0  0
  2  1  1  0  0  0  0
  3 55  1  0  0  0  0
  3  4  1  0  0  0  0
  4  6  1  0  0  0  0
  5  7  1  0  0  0  0
  7  2  2  0  0  0  0
  8 45  1  0  0  0  0
  9 10  1  0  0  0  0
  9  7  1  0  0  0  0
 11  9  2  0  0  0  0
 12 11  1  0  0  0  0
 13 11  1  0  0  0  0
 13 15  2  0  0  0  0
 14 13  1  0  0  0  0
 15 16  1  0  0  0  0
 15  5  1  0  0  0  0
 16  8  1  1  0  0  0
 17 18  1  0  0  0  0
 17 20  1  0  0  0  0
 19 17  1  0  0  0  0
 21 16  1  0  0  0  0
 21 22  1  0  0  0  0
 21 23  1  0  0  0  0
 24 21  1  0  0  0  0
 25  1  1  0  0  0  0
 25 32  1  0  0  0  0
 26 25  2  0  0  0  0
 27 26  1  0  0  0  0
 27 29  2  0  0  0  0
 28 27  1  0  0  0  0
 29 30  1  0  0  0  0
 30 32  2  0  0  0  0
 30 31  1  0  0  0  0
 32 41  1  0  0  0  0
 33 36  1  0  0  0  0
 33 26  1  0  0  0  0
 34 33  1  0  0  0  0
 35 33  1  0  0  0  0
 37 29  1  0  0  0  0
 37 39  1  0  0  0  0
 38 37  1  0  0  0  0
 40 37  1  0  0  0  0
 41 44  1  0  0  0  0
 41 43  1  0  0  0  0
 41 42  1  0  0  0  0
 45 53  1  0  0  0  0
 46 48  1  0  0  0  0
 46 45  2  0  0  0  0
 47 46  1  0  0  0  0
 48 50  2  0  0  0  0
 49 48  1  0  0  0  0
 50  4  1  0  0  0  0
 50 51  1  0  0  0  0
 51 53  2  0  0  0  0
 51 52  1  0  0  0  0
 53 54  1  0  0  0  0
 55 56  1  0  0  0  0
 56  6  1  0  0  0  0
 56 65  1  0  0  0  0
 56 69  1  0  0  0  0
 57 60  1  0  0  0  0
 57 59  1  0  0  0  0
 57 55  1  0  0  0  0
 58 57  1  0  0  0  0
 61 63  1  0  0  0  0
 61 64  1  0  0  0  0
 61 55  1  0  0  0  0
 62 61  1  0  0  0  0
 65 67  1  0  0  0  0
 66 65  1  0  0  0  0
 68 65  1  0  0  0  0
 69 70  1  0  0  0  0
 71 69  1  0  0  0  0
 72 69  1  0  0  0  0
M  END
