3,4,5
 OpenBabel05122313063D

 49 51  0  0  1  0  0  0  0  0999 V2000
   -3.2046    0.1318   -2.2717 F   0  0  0  0  0  0  0  0  0  0  0  0
    3.2034    0.1312   -2.2723 F   0  0  0  0  0  0  0  0  0  0  0  0
   -1.9345    0.3151    0.1540 N   0  0  0  0  0  2  0  0  0  0  0  0
   -0.0000    1.8406    0.0064 N   0  0  0  0  0  2  0  0  0  0  0  0
    1.9345    0.3154    0.1538 N   0  0  0  0  0  2  0  0  0  0  0  0
   -2.3168    1.5881    0.0298 C   0  0  0  0  0  0  0  0  0  0  0  0
   -1.2009    2.5107   -0.0290 C   0  0  0  0  0  0  0  0  0  0  0  0
   -1.2167    3.9110   -0.1657 C   0  0  0  0  0  0  0  0  0  0  0  0
   -2.1771    4.4425   -0.2081 H   0  0  0  0  0  0  0  0  0  0  0  0
   -0.0003    4.6087   -0.2414 C   0  0  0  0  0  0  0  0  0  0  0  0
   -0.0003    5.7026   -0.3500 H   0  0  0  0  0  0  0  0  0  0  0  0
    1.2164    3.9112   -0.1661 C   0  0  0  0  0  0  0  0  0  0  0  0
    2.1767    4.4428   -0.2087 H   0  0  0  0  0  0  0  0  0  0  0  0
    1.2007    2.5109   -0.0293 C   0  0  0  0  0  0  0  0  0  0  0  0
    2.3168    1.5884    0.0292 C   0  0  2  0  0  3  0  0  0  0  0  0
   -3.7322    2.0538   -0.1031 C   0  0  0  0  0  0  0  0  0  0  0  0
   -4.4384    1.2858    0.2630 H   0  0  0  0  0  0  0  0  0  0  0  0
   -3.9831    2.2663   -1.1636 H   0  0  0  0  0  0  0  0  0  0  0  0
   -3.8883    2.9849    0.4766 H   0  0  0  0  0  0  0  0  0  0  0  0
    3.7320    2.0541   -0.1043 C   0  0  0  0  0  0  0  0  0  0  0  0
    4.4384    1.2863    0.2619 H   0  0  0  0  0  0  0  0  0  0  0  0
    3.8884    2.9854    0.4750 H   0  0  0  0  0  0  0  0  0  0  0  0
    3.9826    2.2660   -1.1649 H   0  0  0  0  0  0  0  0  0  0  0  0
   -2.8672   -0.7298   -0.0821 C   0  0  0  0  0  0  0  0  0  0  0  0
   -3.4864   -0.8136   -1.3496 C   0  0  0  0  0  0  0  0  0  0  0  0
   -4.3690   -1.8388   -1.6889 C   0  0  0  0  0  0  0  0  0  0  0  0
   -4.8131   -1.8489   -2.6941 H   0  0  0  0  0  0  0  0  0  0  0  0
   -4.6488   -2.8221   -0.7308 C   0  0  0  0  0  0  0  0  0  0  0  0
   -5.3457   -3.6383   -0.9722 H   0  0  0  0  0  0  0  0  0  0  0  0
   -4.0343   -2.7691    0.5280 C   0  0  0  0  0  0  0  0  0  0  0  0
   -4.2497   -3.5488    1.2742 H   0  0  0  0  0  0  0  0  0  0  0  0
   -3.1284   -1.7472    0.8711 C   0  0  0  0  0  0  0  0  0  0  0  0
   -2.4243   -1.7606    2.1960 C   0  0  0  0  0  0  0  0  0  0  0  0
   -2.3435   -0.7556    2.6512 H   0  0  0  0  0  0  0  0  0  0  0  0
   -1.3774   -2.1060    2.0564 H   0  0  0  0  0  0  0  0  0  0  0  0
   -2.9215   -2.4512    2.9033 H   0  0  0  0  0  0  0  0  0  0  0  0
    2.8673   -0.7295   -0.0822 C   0  0  0  0  0  0  0  0  0  0  0  0
    3.4857   -0.8139   -1.3501 C   0  0  0  0  0  0  0  0  0  0  0  0
    4.3681   -1.8393   -1.6895 C   0  0  0  0  0  0  0  0  0  0  0  0
    4.8116   -1.8498   -2.6949 H   0  0  0  0  0  0  0  0  0  0  0  0
    4.6484   -2.8221   -0.7311 C   0  0  0  0  0  0  0  0  0  0  0  0
    5.3451   -3.6385   -0.9726 H   0  0  0  0  0  0  0  0  0  0  0  0
    4.0347   -2.7685    0.5281 C   0  0  0  0  0  0  0  0  0  0  0  0
    4.2507   -3.5479    1.2745 H   0  0  0  0  0  0  0  0  0  0  0  0
    3.1292   -1.7464    0.8713 C   0  0  0  0  0  0  0  0  0  0  0  0
    2.4260   -1.7590    2.1968 C   0  0  0  0  0  0  0  0  0  0  0  0
    2.9244   -2.4487    2.9043 H   0  0  0  0  0  0  0  0  0  0  0  0
    1.3792   -2.1053    2.0585 H   0  0  0  0  0  0  0  0  0  0  0  0
    2.3449   -0.7537    2.6511 H   0  0  0  0  0  0  0  0  0  0  0  0
  1 25  1  0  0  0  0
  2 38  1  0  0  0  0
  6  3  1  0  0  0  0
  7  4  1  0  0  0  0
  7  6  2  0  0  0  0
  8  7  1  0  0  0  0
  9  8  1  0  0  0  0
 10 12  1  0  0  0  0
 10  8  2  0  0  0  0
 11 10  1  0  0  0  0
 12 14  2  0  0  0  0
 13 12  1  0  0  0  0
 14  4  1  0  0  0  0
 14 15  1  0  0  0  0
 15  5  1  6  0  0  0
 16  6  1  0  0  0  0
 16 17  1  0  0  0  0
 16 19  1  0  0  0  0
 18 16  1  0  0  0  0
 20 15  1  0  0  0  0
 20 21  1  0  0  0  0
 20 22  1  0  0  0  0
 23 20  1  0  0  0  0
 24  3  1  0  0  0  0
 24 32  1  0  0  0  0
 25 24  2  0  0  0  0
 26 25  1  0  0  0  0
 26 28  2  0  0  0  0
 27 26  1  0  0  0  0
 28 30  1  0  0  0  0
 29 28  1  0  0  0  0
 30 32  2  0  0  0  0
 30 31  1  0  0  0  0
 32 33  1  0  0  0  0
 33 34  1  0  0  0  0
 33 36  1  0  0  0  0
 35 33  1  0  0  0  0
 37  5  1  0  0  0  0
 37 45  1  0  0  0  0
 38 37  2  0  0  0  0
 39 38  1  0  0  0  0
 39 41  2  0  0  0  0
 40 39  1  0  0  0  0
 41 43  1  0  0  0  0
 42 41  1  0  0  0  0
 43 45  2  0  0  0  0
 43 44  1  0  0  0  0
 45 46  1  0  0  0  0
 46 49  1  0  0  0  0
 46 47  1  0  0  0  0
 48 46  1  0  0  0  0
M  END
