12,14,16
 OpenBabel05122313063D

 23 25  0  0  0  0  0  0  0  0999 V2000
   -3.0635   -0.0000    0.0001 B   0  0  0  0  0  0  0  0  0  0  0  0
   -4.2629    0.0001    0.0005 H   0  0  0  0  0  0  0  0  0  0  0  0
   -3.2319    1.4653    2.1725 C   0  0  0  0  0  0  0  0  0  0  0  0
   -0.7315    1.5812    2.3588 C   0  0  0  0  0  3  0  0  0  0  0  0
    0.3332    1.7272    2.5794 H   0  0  0  0  0  0  0  0  0  0  0  0
   -3.2322   -2.6140    0.1827 C   0  0  0  0  0  0  0  0  0  0  0  0
   -0.7317   -2.8338    0.1900 C   0  0  0  0  0  3  0  0  0  0  0  0
    0.3330   -3.0980    0.2058 H   0  0  0  0  0  0  0  0  0  0  0  0
   -3.2325    1.1490   -2.3547 C   0  0  0  0  0  0  0  0  0  0  0  0
   -0.7321    1.2524   -2.5489 C   0  0  0  0  0  3  0  0  0  0  0  0
    0.3325    1.3714   -2.7857 H   0  0  0  0  0  0  0  0  0  0  0  0
   -1.1312    0.8824    1.3164 N   0  0  0  0  0  2  0  0  0  0  0  0
   -2.4924    0.8085    1.2004 N   0  0  0  0  0  0  0  0  0  0  0  0
   -1.1312   -1.5815    0.1060 N   0  0  0  0  0  2  0  0  0  0  0  0
   -2.4925   -1.4439    0.1001 N   0  0  0  0  0  0  0  0  0  0  0  0
   -1.1314    0.6986   -1.4225 N   0  0  0  0  0  2  0  0  0  0  0  0
   -2.4927    0.6351   -1.3004 N   0  0  0  0  0  0  0  0  0  0  0  0
   -2.0219    2.2212    3.3044 S   0  0  0  0  0  0  0  0  0  0  0  0
   -4.8537    1.5880    2.3450 S   0  0  0  0  0  0  0  0  0  0  0  0
   -2.0223   -3.9725    0.2710 S   0  0  0  0  0  0  0  0  0  0  0  0
   -4.8541   -2.8244    0.2030 S   0  0  0  0  0  0  0  0  0  0  0  0
   -2.0227    1.7524   -3.5751 S   0  0  0  0  0  0  0  0  0  0  0  0
   -4.8543    1.2361   -2.5471 S   0  0  0  0  0  0  0  0  0  0  0  0
  1  2  1  0  0  0  0
  1 15  1  0  0  0  0
  1 13  1  0  0  0  0
  3 19  2  0  0  0  0
  3 18  1  0  0  0  0
  4  5  1  0  0  0  0
  4 18  1  0  0  0  0
  6 21  2  0  0  0  0
  6 20  1  0  0  0  0
  7  8  1  0  0  0  0
  7 20  1  0  0  0  0
  9 17  1  0  0  0  0
 10 16  1  0  0  0  0
 11 10  1  0  0  0  0
 12  4  1  0  0  0  0
 13 12  1  0  0  0  0
 13  3  1  0  0  0  0
 14  7  1  0  0  0  0
 15 14  1  0  0  0  0
 15  6  1  0  0  0  0
 16 17  1  0  0  0  0
 17  1  1  0  0  0  0
 22 10  1  0  0  0  0
 22  9  1  0  0  0  0
 23  9  2  0  0  0  0
M  END
