1,2,4
 OpenBabel05122313063D

 37 39  0  0  1  0  0  0  0  0999 V2000
   -0.2091   -2.0072    0.4145 N   0  0  0  0  0  2  0  0  0  0  0  0
   -2.1272   -0.8782   -0.8244 N   0  0  0  0  0  2  0  0  0  0  0  0
   -3.2522   -0.4888   -1.4617 N   0  0  0  0  0  0  0  0  0  0  0  0
    1.8847   -1.1158   -0.7241 N   0  0  0  0  0  2  0  0  0  0  0  0
    3.0779   -0.8514   -1.2947 N   0  0  0  0  0  0  0  0  0  0  0  0
   -1.4376   -2.4482    0.8334 C   0  0  0  0  0  0  0  0  0  0  0  0
   -1.5425   -3.4100    1.8510 C   0  0  0  0  0  0  0  0  0  0  0  0
   -2.5357   -3.7469    2.1785 H   0  0  0  0  0  0  0  0  0  0  0  0
   -0.3720   -3.9184    2.4341 C   0  0  0  0  0  0  0  0  0  0  0  0
   -0.4356   -4.6622    3.2410 H   0  0  0  0  0  0  0  0  0  0  0  0
    0.8821   -3.4847    1.9742 C   0  0  0  0  0  0  0  0  0  0  0  0
    1.8136   -3.8838    2.3987 H   0  0  0  0  0  0  0  0  0  0  0  0
    0.9417   -2.5375    0.9406 C   0  0  0  0  0  0  0  0  0  0  0  0
   -2.5136   -1.8043    0.1064 C   0  0  0  0  0  0  0  0  0  0  0  0
   -3.9210   -1.9560    0.0759 C   0  0  0  0  0  0  0  0  0  0  0  0
   -4.5391   -2.6143    0.6934 H   0  0  0  0  0  0  0  0  0  0  0  0
   -4.3644   -1.1099   -0.9388 C   0  0  0  0  0  0  0  0  0  0  0  0
   -3.2143    0.3446   -2.6461 C   0  0  0  0  0  0  0  0  0  0  0  0
   -3.6437   -0.2099   -3.5039 H   0  0  0  0  0  0  0  0  0  0  0  0
   -2.1547    0.5865   -2.8685 H   0  0  0  0  0  0  0  0  0  0  0  0
   -3.7904    1.2770   -2.4825 H   0  0  0  0  0  0  0  0  0  0  0  0
   -5.7309   -0.8492   -1.4742 C   0  0  0  0  0  0  0  0  0  0  0  0
   -6.0034    0.2250   -1.4062 H   0  0  0  0  0  0  0  0  0  0  0  0
   -6.4787   -1.4287   -0.9027 H   0  0  0  0  0  0  0  0  0  0  0  0
   -5.8173   -1.1413   -2.5423 H   0  0  0  0  0  0  0  0  0  0  0  0
    2.1214   -2.0261    0.2702 C   0  0  1  0  0  3  0  0  0  0  0  0
    3.5076   -2.3069    0.3372 C   0  0  0  0  0  0  0  0  0  0  0  0
    4.0213   -2.9929    1.0171 H   0  0  0  0  0  0  0  0  0  0  0  0
    4.0913   -1.5475   -0.6771 C   0  0  0  0  0  0  0  0  0  0  0  0
    3.2093    0.0392   -2.4292 C   0  0  0  0  0  0  0  0  0  0  0  0
    2.2248    0.5144   -2.6144 H   0  0  0  0  0  0  0  0  0  0  0  0
    3.5099   -0.5347   -3.3284 H   0  0  0  0  0  0  0  0  0  0  0  0
    3.9618    0.8206   -2.2066 H   0  0  0  0  0  0  0  0  0  0  0  0
    5.5089   -1.4207   -1.1202 C   0  0  0  0  0  0  0  0  0  0  0  0
    5.6382   -1.7308   -2.1784 H   0  0  0  0  0  0  0  0  0  0  0  0
    6.1609   -2.0582   -0.4955 H   0  0  0  0  0  0  0  0  0  0  0  0
    5.8712   -0.3739   -1.0412 H   0  0  0  0  0  0  0  0  0  0  0  0
  1  6  1  0  0  0  0
  1 13  1  0  0  0  0
  2 14  1  0  0  0  0
  3 17  1  0  0  0  0
  3  2  1  0  0  0  0
  4 26  1  0  0  0  0
  5  4  1  0  0  0  0
  5 29  1  0  0  0  0
  6  7  1  0  0  0  0
  7  8  1  0  0  0  0
  7  9  2  0  0  0  0
  9 10  1  0  0  0  0
 11 12  1  0  0  0  0
 11  9  1  0  0  0  0
 13 11  2  0  0  0  0
 14  6  2  0  0  0  0
 15 14  1  0  0  0  0
 15 16  1  0  0  0  0
 17 15  2  0  0  0  0
 18 21  1  0  0  0  0
 18  3  1  0  0  0  0
 19 18  1  0  0  0  0
 20 18  1  0  0  0  0
 22 23  1  0  0  0  0
 22 17  1  0  0  0  0
 22 24  1  0  0  0  0
 25 22  1  0  0  0  0
 26 27  1  0  0  0  0
 26 13  1  6  0  0  0
 27 28  1  0  0  0  0
 29 27  2  0  0  0  0
 30 33  1  0  0  0  0
 30  5  1  0  0  0  0
 31 30  1  0  0  0  0
 32 30  1  0  0  0  0
 34 37  1  0  0  0  0
 34 29  1  0  0  0  0
 34 36  1  0  0  0  0
 35 34  1  0  0  0  0
M  END
