1,18,28
 OpenBabel05122313063D

 42 46  0  0  1  0  0  0  0  0999 V2000
    1.3306    2.0427   -0.3375 N   0  0  0  0  0  2  0  0  0  0  0  0
    2.2670    3.0150   -0.4060 C   0  0  0  0  0  3  0  0  0  0  0  0
    3.3066    2.6722   -0.5084 H   0  0  0  0  0  0  0  0  0  0  0  0
    1.9445    4.3735   -0.3640 C   0  0  0  0  0  0  0  0  0  0  0  0
    2.7452    5.1235   -0.4275 H   0  0  0  0  0  0  0  0  0  0  0  0
    0.5963    4.7498   -0.2507 C   0  0  0  0  0  0  0  0  0  0  0  0
    0.3088    5.8105   -0.2195 H   0  0  0  0  0  0  0  0  0  0  0  0
   -0.3787    3.7494   -0.1831 C   0  0  0  0  0  0  0  0  0  0  0  0
   -1.4413    4.0142   -0.0974 H   0  0  0  0  0  0  0  0  0  0  0  0
    0.0004    2.3978   -0.2290 C   0  0  0  0  0  0  0  0  0  0  0  0
   -0.9357    1.2646   -0.1675 C   0  0  1  0  0  3  0  0  0  0  0  0
   -2.3344    1.3149   -0.0958 C   0  0  0  0  0  0  0  0  0  0  0  0
   -2.8327    2.2934   -0.0675 H   0  0  0  0  0  0  0  0  0  0  0  0
   -3.0796    0.1134   -0.0705 C   0  0  0  0  0  0  0  0  0  0  0  0
   -2.3811   -1.1181   -0.1406 C   0  0  0  0  0  0  0  0  0  0  0  0
   -2.9766   -2.0414   -0.1475 H   0  0  0  0  0  0  0  0  0  0  0  0
   -0.9892   -1.1237   -0.2159 C   0  0  0  0  0  0  0  0  0  0  0  0
   -0.2958    0.0579   -0.1938 N   0  0  0  0  0  2  0  0  0  0  0  0
   -0.1065   -2.2943   -0.3389 C   0  0  1  0  0  3  0  0  0  0  0  0
   -0.5551   -3.6247   -0.3561 C   0  0  0  0  0  0  0  0  0  0  0  0
   -1.6300   -3.8349   -0.2729 H   0  0  0  0  0  0  0  0  0  0  0  0
    0.3697   -4.6664   -0.4841 C   0  0  0  0  0  0  0  0  0  0  0  0
    0.0300   -5.7119   -0.5027 H   0  0  0  0  0  0  0  0  0  0  0  0
    1.7337   -4.3517   -0.5936 C   0  0  0  0  0  0  0  0  0  0  0  0
    2.4955   -5.1362   -0.7031 H   0  0  0  0  0  0  0  0  0  0  0  0
    2.1240   -3.0102   -0.5719 C   0  0  0  0  0  0  0  0  0  0  0  0
    3.1786   -2.7145   -0.6684 H   0  0  0  0  0  0  0  0  0  0  0  0
    1.2369   -1.9988   -0.4449 N   0  0  0  0  0  2  0  0  0  0  0  0
   -4.5345    0.0606    0.0108 C   0  0  0  0  0  0  0  0  0  0  0  0
   -5.2172   -1.0769    0.1054 N   0  0  0  0  0  0  0  0  0  0  0  0
   -6.5442   -0.7122    0.1583 C   0  0  0  0  0  0  0  0  0  0  0  0
   -7.7037   -1.5113    0.2610 C   0  0  0  0  0  0  0  0  0  0  0  0
   -7.6176   -2.6058    0.3131 H   0  0  0  0  0  0  0  0  0  0  0  0
   -8.9402   -0.8643    0.2908 C   0  0  0  0  0  0  0  0  0  0  0  0
   -9.8621   -1.4591    0.3691 H   0  0  0  0  0  0  0  0  0  0  0  0
   -9.0411    0.5504    0.2209 C   0  0  0  0  0  0  0  0  0  0  0  0
  -10.0371    1.0168    0.2468 H   0  0  0  0  0  0  0  0  0  0  0  0
   -7.9097    1.3678    0.1197 C   0  0  0  0  0  0  0  0  0  0  0  0
   -7.9980    2.4626    0.0652 H   0  0  0  0  0  0  0  0  0  0  0  0
   -6.6674    0.7145    0.0911 C   0  0  0  0  0  0  0  0  0  0  0  0
   -5.3657    1.1722    0.0017 N   0  0  0  0  0  0  0  0  0  0  0  0
   -5.0882    2.1476   -0.0969 H   0  0  0  0  0  0  0  0  0  0  0  0
  1 10  1  0  0  0  0
  2  4  1  0  0  0  0
  2  1  1  0  0  0  0
  3  2  1  0  0  0  0
  4  6  2  0  0  0  0
  5  4  1  0  0  0  0
  6  7  1  0  0  0  0
  6  8  1  0  0  0  0
  8  9  1  0  0  0  0
 10  8  2  0  0  0  0
 11 10  1  6  0  0  0
 11 12  1  0  0  0  0
 12 14  2  0  0  0  0
 12 13  1  0  0  0  0
 14 29  1  0  0  0  0
 15 14  1  0  0  0  0
 16 15  1  0  0  0  0
 17 18  1  0  0  0  0
 17 15  2  0  0  0  0
 18 11  1  0  0  0  0
 19 17  1  6  0  0  0
 20 19  1  0  0  0  0
 20 21  1  0  0  0  0
 22 20  2  0  0  0  0
 23 22  1  0  0  0  0
 24 26  2  0  0  0  0
 24 22  1  0  0  0  0
 25 24  1  0  0  0  0
 26 28  1  0  0  0  0
 27 26  1  0  0  0  0
 28 19  1  0  0  0  0
 29 30  2  0  0  0  0
 30 31  1  0  0  0  0
 31 32  1  0  0  0  0
 32 34  2  0  0  0  0
 32 33  1  0  0  0  0
 34 35  1  0  0  0  0
 36 37  1  0  0  0  0
 36 34  1  0  0  0  0
 38 36  2  0  0  0  0
 39 38  1  0  0  0  0
 40 38  1  0  0  0  0
 40 31  2  0  0  0  0
 41 29  1  0  0  0  0
 41 40  1  0  0  0  0
 42 41  1  0  0  0  0
M  END
