2,7,11
 OpenBabel05122313063D

 45 45  0  0  1  0  0  0  0  0999 V2000
   -5.2379   -0.0000    0.0000 Br  0  0  0  0  0  0  0  0  0  0  0  0
    1.0238   -2.1109   -0.0467 N   0  0  0  0  0  0  0  0  0  0  0  0
    2.1594   -2.3191   -2.3374 C   0  0  0  0  0  0  0  0  0  0  0  0
    1.9171   -2.5785   -3.3865 H   0  0  0  0  0  0  0  0  0  0  0  0
    3.0066   -2.9595   -2.0279 H   0  0  0  0  0  0  0  0  0  0  0  0
    2.4997   -1.2661   -2.3024 H   0  0  0  0  0  0  0  0  0  0  0  0
    1.0237    2.1109    0.0467 N   0  0  0  0  0  0  0  0  0  0  0  0
    0.9177   -2.5366   -1.4890 C   0  0  0  0  0  0  0  0  0  0  0  0
    0.0603   -1.9780   -1.9163 H   0  0  0  0  0  0  0  0  0  0  0  0
    0.6319   -3.6138   -1.4874 H   0  0  0  0  0  0  0  0  0  0  0  0
   -0.6221   -0.0000   -0.0000 N   0  0  0  0  0  2  0  0  0  0  0  0
    2.2936   -2.5330    2.1227 C   0  0  0  0  0  0  0  0  0  0  0  0
    3.1265   -3.1452    2.5200 H   0  0  0  0  0  0  0  0  0  0  0  0
    1.4222   -2.7160    2.7830 H   0  0  0  0  0  0  0  0  0  0  0  0
    2.5993   -1.4711    2.1969 H   0  0  0  0  0  0  0  0  0  0  0  0
    2.0605   -2.9226    0.6722 C   0  0  0  0  0  0  0  0  0  0  0  0
    1.7642   -3.9929    0.5832 H   0  0  0  0  0  0  0  0  0  0  0  0
    2.9989   -2.7799    0.1070 H   0  0  0  0  0  0  0  0  0  0  0  0
    2.2936    2.5330   -2.1227 C   0  0  0  0  0  0  0  0  0  0  0  0
    3.1265    3.1452   -2.5201 H   0  0  0  0  0  0  0  0  0  0  0  0
    1.4222    2.7159   -2.7830 H   0  0  0  0  0  0  0  0  0  0  0  0
    2.5993    1.4711   -2.1969 H   0  0  0  0  0  0  0  0  0  0  0  0
    2.0605    2.9225   -0.6722 C   0  0  0  0  0  0  0  0  0  0  0  0
    2.9989    2.7799   -0.1070 H   0  0  0  0  0  0  0  0  0  0  0  0
    1.7642    3.9929   -0.5832 H   0  0  0  0  0  0  0  0  0  0  0  0
    2.1593    2.3192    2.3375 C   0  0  0  0  0  0  0  0  0  0  0  0
    1.9170    2.5786    3.3865 H   0  0  0  0  0  0  0  0  0  0  0  0
    3.0066    2.9596    2.0280 H   0  0  0  0  0  0  0  0  0  0  0  0
    2.4997    1.2662    2.3025 H   0  0  0  0  0  0  0  0  0  0  0  0
    0.9177    2.5366    1.4889 C   0  0  0  0  0  0  0  0  0  0  0  0
    0.6319    3.6138    1.4873 H   0  0  0  0  0  0  0  0  0  0  0  0
    0.0602    1.9780    1.9163 H   0  0  0  0  0  0  0  0  0  0  0  0
   -0.3274   -2.2948    0.5898 C   0  0  0  0  0  0  0  0  0  0  0  0
   -0.7492   -3.2866    0.3192 H   0  0  0  0  0  0  0  0  0  0  0  0
   -0.1858   -2.2879    1.6896 H   0  0  0  0  0  0  0  0  0  0  0  0
   -1.2642   -1.1665    0.2427 C   0  0  1  0  0  3  0  0  0  0  0  0
   -2.6610   -1.2041    0.2324 C   0  0  0  0  0  0  0  0  0  0  0  0
   -3.2027   -2.1423    0.4143 H   0  0  0  0  0  0  0  0  0  0  0  0
   -3.3593   -0.0000   -0.0000 C   0  0  0  0  0  0  0  0  0  0  0  0
   -2.6611    1.2040   -0.2324 C   0  0  0  0  0  0  0  0  0  0  0  0
   -3.2027    2.1422   -0.4143 H   0  0  0  0  0  0  0  0  0  0  0  0
   -1.2642    1.1665   -0.2427 C   0  0  0  0  0  0  0  0  0  0  0  0
   -0.3274    2.2948   -0.5898 C   0  0  0  0  0  0  0  0  0  0  0  0
   -0.1858    2.2879   -1.6896 H   0  0  0  0  0  0  0  0  0  0  0  0
   -0.7492    3.2866   -0.3192 H   0  0  0  0  0  0  0  0  0  0  0  0
  2 33  1  0  0  0  0
  2 16  1  0  0  0  0
  3  6  1  0  0  0  0
  3  5  1  0  0  0  0
  3  8  1  0  0  0  0
  4  3  1  0  0  0  0
  7 30  1  0  0  0  0
  8 10  1  0  0  0  0
  8  2  1  0  0  0  0
  9  8  1  0  0  0  0
 11 36  1  0  0  0  0
 12 15  1  0  0  0  0
 12 13  1  0  0  0  0
 12 14  1  0  0  0  0
 16 12  1  0  0  0  0
 17 16  1  0  0  0  0
 18 16  1  0  0  0  0
 19 23  1  0  0  0  0
 20 19  1  0  0  0  0
 21 19  1  0  0  0  0
 22 19  1  0  0  0  0
 23 25  1  0  0  0  0
 23 24  1  0  0  0  0
 23  7  1  0  0  0  0
 26 27  1  0  0  0  0
 28 26  1  0  0  0  0
 29 26  1  0  0  0  0
 30 32  1  0  0  0  0
 30 26  1  0  0  0  0
 31 30  1  0  0  0  0
 33 35  1  0  0  0  0
 34 33  1  0  0  0  0
 36 33  1  1  0  0  0
 37 36  1  0  0  0  0
 37 38  1  0  0  0  0
 39  1  1  0  0  0  0
 39 37  2  0  0  0  0
 40 39  1  0  0  0  0
 41 40  1  0  0  0  0
 42 40  2  0  0  0  0
 42 11  1  0  0  0  0
 43 45  1  0  0  0  0
 43 42  1  0  0  0  0
 43  7  1  0  0  0  0
 44 43  1  0  0  0  0
M  END
