1,2,4
 OpenBabel05122313063D

 61 64  0  0  1  0  0  0  0  0999 V2000
   -1.5830   -0.5445   -0.5963 N   0  0  0  0  0  2  0  0  0  0  0  0
   -0.2952    1.5723   -0.4066 N   0  0  0  0  0  2  0  0  0  0  0  0
   -3.6826    0.2630   -0.3677 N   0  0  0  0  0  0  0  0  0  0  0  0
    1.9617    0.6628   -0.0848 N   0  0  0  0  0  2  0  0  0  0  0  0
   -3.7715   -1.1313   -0.3677 C   0  0  0  0  0  0  0  0  0  0  0  0
   -2.4392   -1.6253   -0.5116 C   0  0  0  0  0  0  0  0  0  0  0  0
   -2.0630    3.1597   -0.6587 C   0  0  0  0  0  0  0  0  0  0  0  0
   -3.1192    3.3951   -0.8401 H   0  0  0  0  0  0  0  0  0  0  0  0
   -2.3476    0.5670   -0.5160 C   0  0  1  0  0  3  0  0  0  0  0  0
    0.6449    2.5590   -0.3012 C   0  0  0  0  0  0  0  0  0  0  0  0
   -1.6313    1.8311   -0.5225 C   0  0  0  0  0  0  0  0  0  0  0  0
   -2.1775   -3.0082   -0.5467 C   0  0  0  0  0  0  0  0  0  0  0  0
   -1.1378   -3.3515   -0.6359 H   0  0  0  0  0  0  0  0  0  0  0  0
    3.7599   -0.2311    1.3407 C   0  0  0  0  0  0  0  0  0  0  0  0
    1.9646    1.9973   -0.1205 C   0  0  0  0  0  0  0  0  0  0  0  0
    0.2435    3.9062   -0.3801 C   0  0  0  0  0  0  0  0  0  0  0  0
    0.9865    4.7105   -0.2924 H   0  0  0  0  0  0  0  0  0  0  0  0
   -4.6969    1.1854    0.1863 C   0  0  0  0  0  0  0  0  0  0  0  0
   -4.2165    2.1799    0.1684 H   0  0  0  0  0  0  0  0  0  0  0  0
   -1.1113    4.1971   -0.5845 C   0  0  0  0  0  0  0  0  0  0  0  0
   -1.4396    5.2414   -0.6850 H   0  0  0  0  0  0  0  0  0  0  0  0
    3.2043   -0.0239    0.0577 C   0  0  0  0  0  0  0  0  0  0  0  0
   -4.8649   -2.0093   -0.2509 C   0  0  0  0  0  0  0  0  0  0  0  0
   -5.8949   -1.6484   -0.1375 H   0  0  0  0  0  0  0  0  0  0  0  0
   -3.2682   -3.8718   -0.4302 C   0  0  0  0  0  0  0  0  0  0  0  0
   -3.0993   -4.9587   -0.4474 H   0  0  0  0  0  0  0  0  0  0  0  0
    3.2072    2.8176    0.0318 C   0  0  0  0  0  0  0  0  0  0  0  0
    4.0222    2.4162   -0.6026 H   0  0  0  0  0  0  0  0  0  0  0  0
    3.5751    2.7763    1.0786 H   0  0  0  0  0  0  0  0  0  0  0  0
    3.0322    3.8757   -0.2352 H   0  0  0  0  0  0  0  0  0  0  0  0
   -4.5892   -3.3808   -0.2852 C   0  0  0  0  0  0  0  0  0  0  0  0
   -5.4228   -4.0934   -0.1963 H   0  0  0  0  0  0  0  0  0  0  0  0
   -4.9587    0.8427    1.6581 C   0  0  0  0  0  0  0  0  0  0  0  0
   -3.9976    0.7880    2.2081 H   0  0  0  0  0  0  0  0  0  0  0  0
   -5.4748   -0.1307    1.7685 H   0  0  0  0  0  0  0  0  0  0  0  0
   -5.5935    1.6238    2.1212 H   0  0  0  0  0  0  0  0  0  0  0  0
    5.0298   -0.8385    1.4068 C   0  0  0  0  0  0  0  0  0  0  0  0
    5.4850   -1.0040    2.3962 H   0  0  0  0  0  0  0  0  0  0  0  0
    3.8498   -0.4565   -1.1327 C   0  0  0  0  0  0  0  0  0  0  0  0
   -5.9504    1.2571   -0.6878 C   0  0  0  0  0  0  0  0  0  0  0  0
   -5.6916    1.5091   -1.7351 H   0  0  0  0  0  0  0  0  0  0  0  0
   -6.6307    2.0403   -0.2991 H   0  0  0  0  0  0  0  0  0  0  0  0
   -6.5112    0.3029   -0.6946 H   0  0  0  0  0  0  0  0  0  0  0  0
    5.7046   -1.2391    0.2495 C   0  0  0  0  0  0  0  0  0  0  0  0
    6.6968   -1.7097    0.3252 H   0  0  0  0  0  0  0  0  0  0  0  0
    5.1112   -1.0600   -1.0102 C   0  0  0  0  0  0  0  0  0  0  0  0
    5.6379   -1.4033   -1.9117 H   0  0  0  0  0  0  0  0  0  0  0  0
    3.0063    0.0928    2.6106 C   0  0  0  0  0  0  0  0  0  0  0  0
    3.6800    0.6486    3.2994 H   0  0  0  0  0  0  0  0  0  0  0  0
    2.1311    0.7392    2.3991 H   0  0  0  0  0  0  0  0  0  0  0  0
    3.1437   -0.2799   -2.4592 C   0  0  0  0  0  0  0  0  0  0  0  0
    2.1400   -0.7466   -2.3413 H   0  0  0  0  0  0  0  0  0  0  0  0
    2.9395    0.8024   -2.6238 H   0  0  0  0  0  0  0  0  0  0  0  0
    3.8504   -0.8594   -3.6807 C   0  0  0  0  0  0  0  0  0  0  0  0
    3.2407   -0.7020   -4.5922 H   0  0  0  0  0  0  0  0  0  0  0  0
    4.0120   -1.9513   -3.5739 H   0  0  0  0  0  0  0  0  0  0  0  0
    4.8394   -0.3880   -3.8567 H   0  0  0  0  0  0  0  0  0  0  0  0
    2.4866   -1.1798    3.3001 C   0  0  0  0  0  0  0  0  0  0  0  0
    1.9066   -0.9178    4.2066 H   0  0  0  0  0  0  0  0  0  0  0  0
    3.3200   -1.8520    3.5920 H   0  0  0  0  0  0  0  0  0  0  0  0
    1.8106   -1.7293    2.6170 H   0  0  0  0  0  0  0  0  0  0  0  0
  1  9  1  0  0  0  0
  1  6  1  0  0  0  0
  2 10  1  0  0  0  0
  3 18  1  0  0  0  0
  4 22  1  0  0  0  0
  5  3  1  0  0  0  0
  5 23  1  0  0  0  0
  6  5  2  0  0  0  0
  7 20  1  0  0  0  0
  7 11  2  0  0  0  0
  8  7  1  0  0  0  0
  9 11  1  1  0  0  0
  9  3  1  0  0  0  0
 10 15  2  0  0  0  0
 11  2  1  0  0  0  0
 12  6  1  0  0  0  0
 12 25  2  0  0  0  0
 13 12  1  0  0  0  0
 14 37  1  0  0  0  0
 14 48  1  0  0  0  0
 15  4  1  0  0  0  0
 15 27  1  0  0  0  0
 16 10  1  0  0  0  0
 16 17  1  0  0  0  0
 18 33  1  0  0  0  0
 19 18  1  0  0  0  0
 20 16  2  0  0  0  0
 21 20  1  0  0  0  0
 22 14  2  0  0  0  0
 23 24  1  0  0  0  0
 25 31  1  0  0  0  0
 26 25  1  0  0  0  0
 27 29  1  0  0  0  0
 28 27  1  0  0  0  0
 30 27  1  0  0  0  0
 31 23  2  0  0  0  0
 31 32  1  0  0  0  0
 33 35  1  0  0  0  0
 33 36  1  0  0  0  0
 33 34  1  0  0  0  0
 37 38  1  0  0  0  0
 39 46  2  0  0  0  0
 39 22  1  0  0  0  0
 40 42  1  0  0  0  0
 40 18  1  0  0  0  0
 41 40  1  0  0  0  0
 43 40  1  0  0  0  0
 44 45  1  0  0  0  0
 44 37  2  0  0  0  0
 46 44  1  0  0  0  0
 47 46  1  0  0  0  0
 48 49  1  0  0  0  0
 48 58  1  0  0  0  0
 50 48  1  0  0  0  0
 51 52  1  0  0  0  0
 51 39  1  0  0  0  0
 53 51  1  0  0  0  0
 54 56  1  0  0  0  0
 54 51  1  0  0  0  0
 55 54  1  0  0  0  0
 57 54  1  0  0  0  0
 58 60  1  0  0  0  0
 58 59  1  0  0  0  0
 61 58  1  0  0  0  0
M  END
