3,4,5
 OpenBabel05122313063D

 63 67  0  0  1  0  0  0  0  0999 V2000
   -2.7537   -2.8734    0.1156 O   0  0  0  0  0  0  0  0  0  0  0  0
    2.7513    2.8742    0.1181 O   0  0  0  0  0  0  0  0  0  0  0  0
   -1.3898   -1.2260   -0.5322 N   0  0  0  0  0  2  0  0  0  0  0  0
   -0.0010   -0.0008    1.3442 N   0  0  0  0  0  0  0  0  0  0  0  0
    1.3899    1.2249   -0.5303 N   0  0  0  0  0  2  0  0  0  0  0  0
   -2.4824   -1.1754   -1.5313 C   0  0  1  0  0  0  0  0  0  0  0  0
   -2.0107   -1.1866   -2.5319 H   0  0  0  0  0  0  0  0  0  0  0  0
   -3.2347   -2.4821   -1.2071 C   0  0  0  0  0  0  0  0  0  0  0  0
   -4.3340   -2.3798   -1.1589 H   0  0  0  0  0  0  0  0  0  0  0  0
   -2.9738   -3.3002   -1.9089 H   0  0  0  0  0  0  0  0  0  0  0  0
   -1.6560   -2.1310    0.3553 C   0  0  2  0  0  3  0  0  0  0  0  0
   -0.7956   -2.3908    1.5691 C   0  0  0  0  0  0  0  0  0  0  0  0
   -0.4012   -1.0445    2.1522 C   0  0  0  0  0  0  0  0  0  0  0  0
   -0.2581   -0.6651    3.4940 C   0  0  0  0  0  0  0  0  0  0  0  0
   -0.4819   -1.2815    4.3719 H   0  0  0  0  0  0  0  0  0  0  0  0
    0.2534    0.6630    3.4944 C   0  0  0  0  0  0  0  0  0  0  0  0
    0.4762    1.2792    4.3728 H   0  0  0  0  0  0  0  0  0  0  0  0
    0.3982    1.0427    2.1529 C   0  0  0  0  0  3  0  0  0  0  0  0
    0.7932    2.3892    1.5707 C   0  0  0  0  0  0  0  0  0  0  0  0
    1.6545    2.1302    0.3574 C   0  0  2  0  0  3  0  0  0  0  0  0
    3.2333    2.4836   -1.2044 C   0  0  0  0  0  0  0  0  0  0  0  0
    4.3328    2.3825   -1.1557 H   0  0  0  0  0  0  0  0  0  0  0  0
    2.9719    3.3015   -1.9062 H   0  0  0  0  0  0  0  0  0  0  0  0
    2.4827    1.1760   -1.5291 C   0  0  1  0  0  0  0  0  0  0  0  0
    2.0111    1.1869   -2.5297 H   0  0  0  0  0  0  0  0  0  0  0  0
    3.2387   -0.1324   -1.3431 C   0  0  0  0  0  0  0  0  0  0  0  0
    2.7240   -1.2923   -1.9590 C   0  0  0  0  0  0  0  0  0  0  0  0
    1.8169   -1.1953   -2.5764 H   0  0  0  0  0  0  0  0  0  0  0  0
    3.3290   -2.5372   -1.7355 C   0  0  0  0  0  0  0  0  0  0  0  0
    2.9197   -3.4368   -2.2204 H   0  0  0  0  0  0  0  0  0  0  0  0
    4.4481   -2.6407   -0.8928 C   0  0  0  0  0  0  0  0  0  0  0  0
    4.9220   -3.6187   -0.7180 H   0  0  0  0  0  0  0  0  0  0  0  0
    4.9553   -1.4917   -0.2674 C   0  0  0  0  0  0  0  0  0  0  0  0
    5.8241   -1.5657    0.4041 H   0  0  0  0  0  0  0  0  0  0  0  0
    4.3500   -0.2442   -0.4881 C   0  0  0  0  0  0  0  0  0  0  0  0
    4.7455    0.6416    0.0332 H   0  0  0  0  0  0  0  0  0  0  0  0
   -3.2368    0.1338   -1.3449 C   0  0  0  0  0  0  0  0  0  0  0  0
   -4.3476    0.2468   -0.4895 C   0  0  0  0  0  0  0  0  0  0  0  0
   -4.7438   -0.6386    0.0320 H   0  0  0  0  0  0  0  0  0  0  0  0
   -4.9514    1.4949   -0.2684 C   0  0  0  0  0  0  0  0  0  0  0  0
   -5.8199    1.5698    0.4036 H   0  0  0  0  0  0  0  0  0  0  0  0
   -4.4434    2.6434   -0.8940 C   0  0  0  0  0  0  0  0  0  0  0  0
   -4.9161    3.6219   -0.7188 H   0  0  0  0  0  0  0  0  0  0  0  0
   -3.3248    2.5388   -1.7372 C   0  0  0  0  0  0  0  0  0  0  0  0
   -2.9147    3.4380   -2.2222 H   0  0  0  0  0  0  0  0  0  0  0  0
   -2.7212    1.2933   -1.9610 C   0  0  0  0  0  0  0  0  0  0  0  0
   -1.8143    1.1954   -2.5787 H   0  0  0  0  0  0  0  0  0  0  0  0
   -1.5511   -3.2472    2.5963 C   0  0  0  0  0  0  0  0  0  0  0  0
   -1.8687   -4.2090    2.1503 H   0  0  0  0  0  0  0  0  0  0  0  0
   -2.4472   -2.7208    2.9767 H   0  0  0  0  0  0  0  0  0  0  0  0
   -0.8871   -3.4646    3.4541 H   0  0  0  0  0  0  0  0  0  0  0  0
    0.4700   -3.1489    1.0696 C   0  0  0  0  0  0  0  0  0  0  0  0
    0.2025   -4.1139    0.5904 H   0  0  0  0  0  0  0  0  0  0  0  0
    1.1326   -3.3474    1.9343 H   0  0  0  0  0  0  0  0  0  0  0  0
    1.0274   -2.5277    0.3412 H   0  0  0  0  0  0  0  0  0  0  0  0
   -0.4720    3.1477    1.0706 C   0  0  0  0  0  0  0  0  0  0  0  0
   -1.1352    3.3459    1.9349 H   0  0  0  0  0  0  0  0  0  0  0  0
   -1.0289    2.5268    0.3415 H   0  0  0  0  0  0  0  0  0  0  0  0
   -0.2040    4.1128    0.5921 H   0  0  0  0  0  0  0  0  0  0  0  0
    1.5479    3.2451    2.5989 C   0  0  0  0  0  0  0  0  0  0  0  0
    1.8659    4.2071    2.1536 H   0  0  0  0  0  0  0  0  0  0  0  0
    2.4438    2.7184    2.9797 H   0  0  0  0  0  0  0  0  0  0  0  0
    0.8833    3.4621    3.4564 H   0  0  0  0  0  0  0  0  0  0  0  0
  1 11  1  0  0  0  0
  2 20  1  0  0  0  0
  3 11  1  0  0  0  0
  4 13  2  0  0  0  0
  4 18  1  0  0  0  0
  5 20  1  0  0  0  0
  6  7  1  6  0  0  0
  6 37  1  0  0  0  0
  6  8  1  0  0  0  0
  6  3  1  0  0  0  0
  8  9  1  0  0  0  0
  8  1  1  0  0  0  0
 10  8  1  0  0  0  0
 11 12  1  6  0  0  0
 12 13  1  0  0  0  0
 12 48  1  0  0  0  0
 13 14  1  0  0  0  0
 14 16  2  0  0  0  0
 14 15  1  0  0  0  0
 16 17  1  0  0  0  0
 18 16  1  0  0  0  0
 19 18  1  0  0  0  0
 19 60  1  0  0  0  0
 20 19  1  6  0  0  0
 21 22  1  0  0  0  0
 21  2  1  0  0  0  0
 23 21  1  0  0  0  0
 24 25  1  6  0  0  0
 24 26  1  0  0  0  0
 24 21  1  0  0  0  0
 24  5  1  0  0  0  0
 26 35  1  0  0  0  0
 27 29  1  0  0  0  0
 27 26  2  0  0  0  0
 28 27  1  0  0  0  0
 29 31  2  0  0  0  0
 30 29  1  0  0  0  0
 31 32  1  0  0  0  0
 31 33  1  0  0  0  0
 33 34  1  0  0  0  0
 35 33  2  0  0  0  0
 35 36  1  0  0  0  0
 37 38  1  0  0  0  0
 38 40  2  0  0  0  0
 38 39  1  0  0  0  0
 40 41  1  0  0  0  0
 42 43  1  0  0  0  0
 42 40  1  0  0  0  0
 44 42  2  0  0  0  0
 45 44  1  0  0  0  0
 46 44  1  0  0  0  0
 46 37  2  0  0  0  0
 47 46  1  0  0  0  0
 48 50  1  0  0  0  0
 48 51  1  0  0  0  0
 49 48  1  0  0  0  0
 52 12  1  0  0  0  0
 52 54  1  0  0  0  0
 53 52  1  0  0  0  0
 55 52  1  0  0  0  0
 56 19  1  0  0  0  0
 56 57  1  0  0  0  0
 58 56  1  0  0  0  0
 59 56  1  0  0  0  0
 60 62  1  0  0  0  0
 60 63  1  0  0  0  0
 61 60  1  0  0  0  0
M  END
