2,4,6
 OpenBabel05122313063D

 83 88  0  0  0  0  0  0  0  0999 V2000
    2.2048   -0.0270    0.8952 B   0  0  2  0  0  0  0  0  0  0  0  0
    1.3084    0.0165   -1.4644 N   0  0  0  0  0  2  0  0  0  0  0  0
    2.3933   -0.0026   -0.6481 N   0  0  0  0  0  0  0  0  0  0  0  0
    0.1406   -1.4792    0.7626 N   0  0  0  0  0  2  0  0  0  0  0  0
    1.3855   -1.2929    1.2695 N   0  0  0  0  0  0  0  0  0  0  0  0
    0.1414    1.4277    0.8376 N   0  0  0  0  0  2  0  0  0  0  0  0
    1.3942    1.2289    1.3187 N   0  0  0  0  0  0  0  0  0  0  0  0
    1.7530    0.0296   -2.7317 C   0  0  0  0  0  3  0  0  0  0  0  0
    3.1620    0.0179   -2.7423 C   0  0  0  0  0  0  0  0  0  0  0  0
    3.5410   -0.0029   -1.3894 C   0  0  0  0  0  0  0  0  0  0  0  0
    4.8852   -0.0236   -0.7664 C   0  0  0  0  0  0  0  0  0  0  0  0
    5.5271    1.1971   -0.4410 C   0  0  0  0  0  0  0  0  0  0  0  0
    6.8012    1.1530    0.1515 C   0  0  0  0  0  0  0  0  0  0  0  0
    7.4503   -0.0642    0.4292 C   0  0  0  0  0  0  0  0  0  0  0  0
    6.7834   -1.2609    0.1080 C   0  0  0  0  0  0  0  0  0  0  0  0
    5.5090   -1.2648   -0.4853 C   0  0  0  0  0  0  0  0  0  0  0  0
    4.8379    2.5138   -0.6979 C   0  0  0  0  0  0  0  0  0  0  0  0
    8.8340   -0.0854    1.0289 C   0  0  0  0  0  0  0  0  0  0  0  0
    4.8002   -2.5612   -0.7887 C   0  0  0  0  0  0  0  0  0  0  0  0
    1.7058   -2.3295    2.0860 C   0  0  0  0  0  3  0  0  0  0  0  0
    0.6266   -3.2169    2.1086 C   0  0  0  0  0  0  0  0  0  0  0  0
   -0.3458   -2.6397    1.2540 C   0  0  0  0  0  0  0  0  0  0  0  0
   -1.6992   -3.1016    0.8673 C   0  0  0  0  0  0  0  0  0  0  0  0
   -1.9359   -3.5474   -0.4587 C   0  0  0  0  0  0  0  0  0  0  0  0
   -3.2402   -3.9222   -0.8203 C   0  0  0  0  0  0  0  0  0  0  0  0
   -4.3121   -3.8603    0.0876 C   0  0  0  0  0  0  0  0  0  0  0  0
   -4.0459   -3.4313    1.4000 C   0  0  0  0  0  0  0  0  0  0  0  0
   -2.7561   -3.0533    1.8114 C   0  0  0  0  0  0  0  0  0  0  0  0
   -0.8228   -3.5975   -1.4753 C   0  0  0  0  0  0  0  0  0  0  0  0
   -5.7123   -4.2080   -0.3501 C   0  0  0  0  0  0  0  0  0  0  0  0
   -2.5117   -2.6005    3.2306 C   0  0  0  0  0  0  0  0  0  0  0  0
    1.7247    2.2424    2.1602 C   0  0  0  0  0  3  0  0  0  0  0  0
    0.6444    3.1262    2.2240 C   0  0  0  0  0  0  0  0  0  0  0  0
   -0.3430    2.5691    1.3718 C   0  0  0  0  0  0  0  0  0  0  0  0
   -1.7105    3.0335    1.0406 C   0  0  0  0  0  0  0  0  0  0  0  0
   -2.8357    2.2927    1.4842 C   0  0  0  0  0  0  0  0  0  0  0  0
   -4.1203    2.7420    1.1332 C   0  0  0  0  0  0  0  0  0  0  0  0
   -4.3201    3.8903    0.3487 C   0  0  0  0  0  0  0  0  0  0  0  0
   -3.1868    4.6046   -0.0807 C   0  0  0  0  0  0  0  0  0  0  0  0
   -1.8837    4.1974    0.2482 C   0  0  0  0  0  0  0  0  0  0  0  0
   -2.6805    1.0214    2.2811 C   0  0  0  0  0  0  0  0  0  0  0  0
   -5.7073    4.3153   -0.0612 C   0  0  0  0  0  0  0  0  0  0  0  0
   -0.6915    4.9635   -0.2714 C   0  0  0  0  0  0  0  0  0  0  0  0
    1.0335    0.0478   -3.5595 H   0  0  0  0  0  0  0  0  0  0  0  0
    3.8337    0.0238   -3.6060 H   0  0  0  0  0  0  0  0  0  0  0  0
    7.3014    2.1015    0.4071 H   0  0  0  0  0  0  0  0  0  0  0  0
    7.2693   -2.2252    0.3293 H   0  0  0  0  0  0  0  0  0  0  0  0
    5.4991    3.3697   -0.4633 H   0  0  0  0  0  0  0  0  0  0  0  0
    4.5110    2.6029   -1.7537 H   0  0  0  0  0  0  0  0  0  0  0  0
    3.9188    2.6123   -0.0820 H   0  0  0  0  0  0  0  0  0  0  0  0
    9.0171    0.8013    1.6674 H   0  0  0  0  0  0  0  0  0  0  0  0
    9.0011   -0.9940    1.6405 H   0  0  0  0  0  0  0  0  0  0  0  0
    9.6115   -0.0805    0.2344 H   0  0  0  0  0  0  0  0  0  0  0  0
    4.4731   -2.6084   -1.8470 H   0  0  0  0  0  0  0  0  0  0  0  0
    5.4482   -3.4346   -0.5837 H   0  0  0  0  0  0  0  0  0  0  0  0
    3.8791   -2.6671   -0.1770 H   0  0  0  0  0  0  0  0  0  0  0  0
    2.6781   -2.3572    2.5902 H   0  0  0  0  0  0  0  0  0  0  0  0
    0.5463   -4.1605    2.6565 H   0  0  0  0  0  0  0  0  0  0  0  0
   -3.4263   -4.2612   -1.8521 H   0  0  0  0  0  0  0  0  0  0  0  0
   -4.8719   -3.3804    2.1282 H   0  0  0  0  0  0  0  0  0  0  0  0
   -1.0959   -4.2415   -2.3330 H   0  0  0  0  0  0  0  0  0  0  0  0
   -0.6128   -2.5841   -1.8797 H   0  0  0  0  0  0  0  0  0  0  0  0
    0.1229   -3.9735   -1.0363 H   0  0  0  0  0  0  0  0  0  0  0  0
   -6.3679   -4.4384    0.5123 H   0  0  0  0  0  0  0  0  0  0  0  0
   -6.1722   -3.3585   -0.8996 H   0  0  0  0  0  0  0  0  0  0  0  0
   -5.7218   -5.0784   -1.0364 H   0  0  0  0  0  0  0  0  0  0  0  0
   -3.4661   -2.4134    3.7593 H   0  0  0  0  0  0  0  0  0  0  0  0
   -1.9504   -3.3630    3.8107 H   0  0  0  0  0  0  0  0  0  0  0  0
   -1.9069   -1.6727    3.2671 H   0  0  0  0  0  0  0  0  0  0  0  0
    2.7016    2.2547    2.6559 H   0  0  0  0  0  0  0  0  0  0  0  0
    0.5632    4.0422    2.8166 H   0  0  0  0  0  0  0  0  0  0  0  0
   -4.9942    2.1650    1.4765 H   0  0  0  0  0  0  0  0  0  0  0  0
   -3.3206    5.5030   -0.7051 H   0  0  0  0  0  0  0  0  0  0  0  0
   -1.8275    1.0682    2.9865 H   0  0  0  0  0  0  0  0  0  0  0  0
   -3.6005    0.7936    2.8534 H   0  0  0  0  0  0  0  0  0  0  0  0
   -2.5010    0.1572    1.6049 H   0  0  0  0  0  0  0  0  0  0  0  0
   -5.7599    5.4021   -0.2695 H   0  0  0  0  0  0  0  0  0  0  0  0
   -6.0198    3.7871   -0.9879 H   0  0  0  0  0  0  0  0  0  0  0  0
   -6.4569    4.0735    0.7183 H   0  0  0  0  0  0  0  0  0  0  0  0
   -1.0060    5.7734   -0.9570 H   0  0  0  0  0  0  0  0  0  0  0  0
   -0.1005    5.4215    0.5481 H   0  0  0  0  0  0  0  0  0  0  0  0
    0.0026    4.2951   -0.8219 H   0  0  0  0  0  0  0  0  0  0  0  0
    3.2816   -0.0414    1.4602 H   0  0  0  0  0  0  0  0  0  0  0  0
  1  5  1  0  0  0  0
  1  7  1  0  0  0  0
  1 83  1  1  0  0  0
  2  3  1  0  0  0  0
  3  1  1  0  0  0  0
  4 22  1  0  0  0  0
  4  5  1  0  0  0  0
  5 20  1  0  0  0  0
  6  7  1  0  0  0  0
  6 34  1  0  0  0  0
  7 32  1  0  0  0  0
  8  2  1  0  0  0  0
  9  8  1  0  0  0  0
  9 10  2  0  0  0  0
 10 11  1  0  0  0  0
 10  3  1  0  0  0  0
 11 16  2  0  0  0  0
 11 12  1  0  0  0  0
 12 13  2  0  0  0  0
 13 46  1  0  0  0  0
 13 14  1  0  0  0  0
 14 18  1  0  0  0  0
 15 47  1  0  0  0  0
 15 14  2  0  0  0  0
 16 15  1  0  0  0  0
 17 48  1  0  0  0  0
 17 12  1  0  0  0  0
 17 50  1  0  0  0  0
 18 52  1  0  0  0  0
 18 51  1  0  0  0  0
 19 55  1  0  0  0  0
 19 16  1  0  0  0  0
 19 56  1  0  0  0  0
 20 21  1  0  0  0  0
 20 57  1  0  0  0  0
 21 58  1  0  0  0  0
 22 21  2  0  0  0  0
 23 22  1  0  0  0  0
 23 28  1  0  0  0  0
 24 23  2  0  0  0  0
 25 24  1  0  0  0  0
 25 26  2  0  0  0  0
 26 27  1  0  0  0  0
 27 28  2  0  0  0  0
 27 60  1  0  0  0  0
 28 31  1  0  0  0  0
 29 63  1  0  0  0  0
 29 24  1  0  0  0  0
 30 26  1  0  0  0  0
 30 64  1  0  0  0  0
 31 69  1  0  0  0  0
 31 67  1  0  0  0  0
 31 68  1  0  0  0  0
 32 33  1  0  0  0  0
 32 70  1  0  0  0  0
 33 71  1  0  0  0  0
 34 33  2  0  0  0  0
 35 34  1  0  0  0  0
 35 36  1  0  0  0  0
 36 41  1  0  0  0  0
 37 72  1  0  0  0  0
 37 36  2  0  0  0  0
 38 37  1  0  0  0  0
 39 40  1  0  0  0  0
 39 38  2  0  0  0  0
 40 35  2  0  0  0  0
 41 75  1  0  0  0  0
 41 74  1  0  0  0  0
 42 38  1  0  0  0  0
 42 79  1  0  0  0  0
 43 40  1  0  0  0  0
 43 81  1  0  0  0  0
 44  8  1  0  0  0  0
 45  9  1  0  0  0  0
 49 17  1  0  0  0  0
 53 18  1  0  0  0  0
 54 19  1  0  0  0  0
 59 25  1  0  0  0  0
 61 29  1  0  0  0  0
 62 29  1  0  0  0  0
 65 30  1  0  0  0  0
 66 30  1  0  0  0  0
 73 39  1  0  0  0  0
 76 41  1  0  0  0  0
 77 42  1  0  0  0  0
 78 42  1  0  0  0  0
 80 43  1  0  0  0  0
 82 43  1  0  0  0  0
M  END
