1,2,4
 OpenBabel05122313063D

 65 68  0  0  0  0  0  0  0  0999 V2000
   -1.9989   -1.5689   -0.0386 N   0  0  0  0  0  0  0  0  0  0  0  0
    1.9991   -1.5687   -0.0388 N   0  0  0  0  0  0  0  0  0  0  0  0
    3.3226    1.3192   -1.0064 C   0  0  0  0  0  0  0  0  0  0  0  0
    0.0002   -3.2762    0.2958 N   0  0  0  0  0  0  0  0  0  0  0  0
   -3.3226    1.3187   -1.0066 C   0  0  0  0  0  0  0  0  0  0  0  0
   -3.1338   -0.8266    0.2832 C   0  0  0  0  0  3  0  0  0  0  0  0
    3.1339   -0.8262    0.2831 C   0  0  0  0  0  3  0  0  0  0  0  0
    3.2059    0.6526    0.2424 C   0  0  0  0  0  0  0  0  0  0  0  0
   -3.2059    0.6523    0.2423 C   0  0  0  0  0  0  0  0  0  0  0  0
    3.4249    2.7224   -1.0262 C   0  0  0  0  0  0  0  0  0  0  0  0
    3.5158    3.2354   -1.9983 H   0  0  0  0  0  0  0  0  0  0  0  0
   -3.4253    2.7220   -1.0264 C   0  0  0  0  0  0  0  0  0  0  0  0
   -3.5161    3.2349   -1.9986 H   0  0  0  0  0  0  0  0  0  0  0  0
    4.1765   -1.7098    0.5858 C   0  0  0  0  0  0  0  0  0  0  0  0
    5.1926   -1.4090    0.8682 H   0  0  0  0  0  0  0  0  0  0  0  0
    3.3545    0.5254   -2.2873 C   0  0  0  0  0  0  0  0  0  0  0  0
    2.4135   -0.0404   -2.4456 H   0  0  0  0  0  0  0  0  0  0  0  0
    4.1585   -0.2378   -2.2509 H   0  0  0  0  0  0  0  0  0  0  0  0
    3.5230    1.1775   -3.1658 H   0  0  0  0  0  0  0  0  0  0  0  0
   -2.3450   -2.9132    0.0586 C   0  0  0  0  0  0  0  0  0  0  0  0
   -3.2220    1.4019    1.4472 C   0  0  0  0  0  0  0  0  0  0  0  0
    3.2218    1.4022    1.4473 C   0  0  0  0  0  0  0  0  0  0  0  0
   -3.3373    2.8034    1.3837 C   0  0  0  0  0  0  0  0  0  0  0  0
   -3.3389    3.3817    2.3224 H   0  0  0  0  0  0  0  0  0  0  0  0
    3.4363    3.4858    0.1572 C   0  0  0  0  0  0  0  0  0  0  0  0
    2.3455   -2.9130    0.0584 C   0  0  0  0  0  0  0  0  0  0  0  0
   -3.6732   -3.0384    0.4501 C   0  0  0  0  0  0  0  0  0  0  0  0
   -4.2162   -3.9762    0.6175 H   0  0  0  0  0  0  0  0  0  0  0  0
   -3.3544    0.5249   -2.2873 C   0  0  0  0  0  0  0  0  0  0  0  0
   -3.5227    1.1769   -3.1659 H   0  0  0  0  0  0  0  0  0  0  0  0
   -4.1584   -0.2382   -2.2511 H   0  0  0  0  0  0  0  0  0  0  0  0
   -2.4134   -0.0410   -2.4455 H   0  0  0  0  0  0  0  0  0  0  0  0
   -3.0832    0.7093    2.7803 C   0  0  0  0  0  0  0  0  0  0  0  0
   -3.0034    1.4390    3.6093 H   0  0  0  0  0  0  0  0  0  0  0  0
   -2.1868    0.0546    2.8003 H   0  0  0  0  0  0  0  0  0  0  0  0
   -3.9448    0.0422    2.9834 H   0  0  0  0  0  0  0  0  0  0  0  0
   -1.2553   -3.8939   -0.2127 C   0  0  0  0  0  0  0  0  0  0  0  0
   -1.4467   -4.8783    0.2712 H   0  0  0  0  0  0  0  0  0  0  0  0
   -1.1017   -4.0663   -1.3012 H   0  0  0  0  0  0  0  0  0  0  0  0
    3.6736   -3.0380    0.4498 C   0  0  0  0  0  0  0  0  0  0  0  0
    4.2167   -3.9758    0.6172 H   0  0  0  0  0  0  0  0  0  0  0  0
    0.0004   -3.2322    1.7749 C   0  0  0  0  0  0  0  0  0  0  0  0
    0.0006   -4.2651    2.1880 H   0  0  0  0  0  0  0  0  0  0  0  0
   -0.9080   -2.7085    2.1262 H   0  0  0  0  0  0  0  0  0  0  0  0
    0.9086   -2.7082    2.1260 H   0  0  0  0  0  0  0  0  0  0  0  0
    1.2558   -3.8937   -0.2130 C   0  0  0  0  0  0  0  0  0  0  0  0
    1.1021   -4.0661   -1.3014 H   0  0  0  0  0  0  0  0  0  0  0  0
    1.4473   -4.8781    0.2709 H   0  0  0  0  0  0  0  0  0  0  0  0
   -4.1762   -1.7102    0.5859 C   0  0  0  0  0  0  0  0  0  0  0  0
   -5.1924   -1.4095    0.8683 H   0  0  0  0  0  0  0  0  0  0  0  0
    3.3368    2.8036    1.3839 C   0  0  0  0  0  0  0  0  0  0  0  0
    3.3382    3.3819    2.3226 H   0  0  0  0  0  0  0  0  0  0  0  0
   -3.4368    3.4854    0.1569 C   0  0  0  0  0  0  0  0  0  0  0  0
    3.0827    0.7095    2.7804 C   0  0  0  0  0  0  0  0  0  0  0  0
    3.0053    1.4391    3.6096 H   0  0  0  0  0  0  0  0  0  0  0  0
    3.9428    0.0402    2.9824 H   0  0  0  0  0  0  0  0  0  0  0  0
    2.1846    0.0570    2.8010 H   0  0  0  0  0  0  0  0  0  0  0  0
   -3.5885    4.9854    0.1090 C   0  0  0  0  0  0  0  0  0  0  0  0
   -3.1855    5.4673    1.0214 H   0  0  0  0  0  0  0  0  0  0  0  0
   -4.6588    5.2751    0.0311 H   0  0  0  0  0  0  0  0  0  0  0  0
   -3.0724    5.4213   -0.7697 H   0  0  0  0  0  0  0  0  0  0  0  0
    3.5881    4.9858    0.1093 C   0  0  0  0  0  0  0  0  0  0  0  0
    4.6586    5.2754    0.0343 H   0  0  0  0  0  0  0  0  0  0  0  0
    3.1827    5.4679    1.0206 H   0  0  0  0  0  0  0  0  0  0  0  0
    3.0744    5.4214   -0.7709 H   0  0  0  0  0  0  0  0  0  0  0  0
  1 20  2  0  0  0  0
  1  6  1  0  0  0  0
  2 26  2  0  0  0  0
  2  7  1  0  0  0  0
  3  8  1  0  0  0  0
  4 42  1  0  0  0  0
  5  9  1  0  0  0  0
  6 49  1  0  0  0  0
  7 14  1  0  0  0  0
  8  7  1  0  0  0  0
  8 22  2  0  0  0  0
  9  6  1  0  0  0  0
  9 21  2  0  0  0  0
 10  3  2  0  0  0  0
 10 25  1  0  0  0  0
 11 10  1  0  0  0  0
 12  5  2  0  0  0  0
 12 53  1  0  0  0  0
 13 12  1  0  0  0  0
 14 15  1  0  0  0  0
 16 18  1  0  0  0  0
 16  3  1  0  0  0  0
 17 16  1  0  0  0  0
 19 16  1  0  0  0  0
 20 27  1  0  0  0  0
 21 33  1  0  0  0  0
 22 54  1  0  0  0  0
 23 21  1  0  0  0  0
 23 24  1  0  0  0  0
 25 51  2  0  0  0  0
 26 40  1  0  0  0  0
 27 49  2  0  0  0  0
 27 28  1  0  0  0  0
 29 31  1  0  0  0  0
 29  5  1  0  0  0  0
 30 29  1  0  0  0  0
 32 29  1  0  0  0  0
 33 35  1  0  0  0  0
 33 36  1  0  0  0  0
 33 34  1  0  0  0  0
 37 20  1  0  0  0  0
 37 38  1  0  0  0  0
 37  4  1  0  0  0  0
 39 37  1  0  0  0  0
 40 14  2  0  0  0  0
 40 41  1  0  0  0  0
 42 45  1  0  0  0  0
 42 44  1  0  0  0  0
 42 43  1  0  0  0  0
 46 26  1  0  0  0  0
 46 48  1  0  0  0  0
 46  4  1  0  0  0  0
 47 46  1  0  0  0  0
 49 50  1  0  0  0  0
 51 22  1  0  0  0  0
 51 52  1  0  0  0  0
 53 23  2  0  0  0  0
 54 57  1  0  0  0  0
 54 56  1  0  0  0  0
 54 55  1  0  0  0  0
 58 53  1  0  0  0  0
 58 59  1  0  0  0  0
 60 58  1  0  0  0  0
 61 58  1  0  0  0  0
 62 25  1  0  0  0  0
 62 64  1  0  0  0  0
 63 62  1  0  0  0  0
 65 62  1  0  0  0  0
M  END
