1,7,13
 OpenBabel05122313063D

 38 40  0  0  0  0  0  0  0  0999 V2000
   -2.2810   -0.2567   -0.3590 N   0  0  0  0  0  2  0  0  0  0  0  0
   -3.3010   -1.0518   -0.7382 C   0  0  0  0  0  0  0  0  0  0  0  0
   -4.6030   -0.5545   -0.8750 C   0  0  0  0  0  0  0  0  0  0  0  0
   -4.8498    0.7966   -0.5997 C   0  0  0  0  0  0  0  0  0  0  0  0
   -3.7837    1.6176   -0.2102 C   0  0  0  0  0  0  0  0  0  0  0  0
   -2.4952    1.0717   -0.1021 C   0  0  0  0  0  0  0  0  0  0  0  0
   -0.1157    1.1505    0.1220 N   0  0  0  0  0  2  0  0  0  0  0  0
   -1.2870    1.8502    0.2248 C   0  0  0  0  0  0  0  0  0  0  0  0
   -1.2810    3.2102    0.5648 C   0  0  0  0  0  0  0  0  0  0  0  0
   -0.0529    3.8422    0.8003 C   0  0  0  0  0  0  0  0  0  0  0  0
    1.1342    3.1291    0.6111 C   0  0  0  0  0  0  0  0  0  0  0  0
    1.0887    1.7712    0.2218 C   0  0  0  0  0  0  0  0  0  0  0  0
    1.6035   -1.1786    0.7704 N   0  0  0  0  0  0  0  0  0  0  0  0
    1.5823   -0.6935    2.1905 C   0  0  0  0  0  0  0  0  0  0  0  0
    1.9758   -2.6205    0.8105 C   0  0  0  0  0  0  0  0  0  0  0  0
    2.5176   -0.3637   -0.0414 C   0  0  0  0  0  0  0  0  0  0  0  0
    2.3075    1.0389   -0.1954 C   0  0  0  0  0  0  0  0  0  0  0  0
    3.2744    1.7902   -0.9024 C   0  0  0  0  0  0  0  0  0  0  0  0
    4.4047    1.1968   -1.4725 C   0  0  0  0  0  0  0  0  0  0  0  0
    4.5823   -0.1843   -1.3461 C   0  0  0  0  0  0  0  0  0  0  0  0
    3.6498   -0.9510   -0.6323 C   0  0  0  0  0  0  0  0  0  0  0  0
   -3.0388   -2.1084   -0.9032 H   0  0  0  0  0  0  0  0  0  0  0  0
   -5.4075   -1.2341   -1.1892 H   0  0  0  0  0  0  0  0  0  0  0  0
   -5.8634    1.2134   -0.6909 H   0  0  0  0  0  0  0  0  0  0  0  0
   -3.9508    2.6826   -0.0017 H   0  0  0  0  0  0  0  0  0  0  0  0
   -2.2233    3.7654    0.6574 H   0  0  0  0  0  0  0  0  0  0  0  0
   -0.0227    4.8958    1.1133 H   0  0  0  0  0  0  0  0  0  0  0  0
    2.1076    3.6119    0.7687 H   0  0  0  0  0  0  0  0  0  0  0  0
    0.8431   -1.2882    2.7566 H   0  0  0  0  0  0  0  0  0  0  0  0
    1.3065    0.3727    2.2435 H   0  0  0  0  0  0  0  0  0  0  0  0
    2.5899   -0.8292    2.6364 H   0  0  0  0  0  0  0  0  0  0  0  0
    1.2270   -3.1512    1.4193 H   0  0  0  0  0  0  0  0  0  0  0  0
    2.9814   -2.7344    1.2641 H   0  0  0  0  0  0  0  0  0  0  0  0
    1.9496   -3.0524   -0.2035 H   0  0  0  0  0  0  0  0  0  0  0  0
    3.1011    2.8646   -1.0570 H   0  0  0  0  0  0  0  0  0  0  0  0
    5.1260    1.8096   -2.0315 H   0  0  0  0  0  0  0  0  0  0  0  0
    5.4530   -0.6809   -1.7985 H   0  0  0  0  0  0  0  0  0  0  0  0
    3.8307   -2.0263   -0.5354 H   0  0  0  0  0  0  0  0  0  0  0  0
  1  6  1  0  0  0  0
  2  1  1  0  0  0  0
  3  2  2  0  0  0  0
  3  4  1  0  0  0  0
  4  5  2  0  0  0  0
  5  6  1  0  0  0  0
  5 25  1  0  0  0  0
  6  8  2  0  0  0  0
  7 12  1  0  0  0  0
  7  8  1  0  0  0  0
  8  9  1  0  0  0  0
  9 26  1  0  0  0  0
  9 10  2  0  0  0  0
 10 27  1  0  0  0  0
 11 28  1  0  0  0  0
 11 10  1  0  0  0  0
 12 11  2  0  0  0  0
 13 15  1  0  0  0  0
 13 14  1  0  0  0  0
 14 30  1  0  0  0  0
 14 31  1  0  0  0  0
 14 29  1  0  0  0  0
 15 33  1  0  0  0  0
 15 32  1  0  0  0  0
 16 13  1  0  0  0  0
 17 16  1  0  0  0  0
 17 12  1  0  0  0  0
 18 17  2  0  0  0  0
 19 20  2  0  0  0  0
 19 18  1  0  0  0  0
 20 21  1  0  0  0  0
 21 38  1  0  0  0  0
 21 16  2  0  0  0  0
 22  2  1  0  0  0  0
 23  3  1  0  0  0  0
 24  4  1  0  0  0  0
 34 15  1  0  0  0  0
 35 18  1  0  0  0  0
 36 19  1  0  0  0  0
 37 20  1  0  0  0  0
M  END
