1,2,6
 OpenBabel05122313063D

 50 53  0  0  1  0  0  0  0  0999 V2000
    0.6369    1.7719   -0.0364 N   0  0  0  0  0  2  0  0  0  0  0  0
   -1.5659    0.6802    0.2491 N   0  0  0  0  0  2  0  0  0  0  0  0
    5.0112    0.0425   -0.5521 N   0  0  0  0  0  0  0  0  0  0  0  0
    1.1858    4.4985   -0.1513 C   0  0  0  0  0  0  0  0  0  0  0  0
    1.4042    5.5745   -0.2014 H   0  0  0  0  0  0  0  0  0  0  0  0
    2.2047   -0.1403   -0.1272 N   0  0  0  0  0  2  0  0  0  0  0  0
    2.8340    1.0555   -0.3121 C   0  0  0  0  0  0  0  0  0  0  0  0
    1.9329    2.1921   -0.2395 C   0  0  2  0  0  3  0  0  0  0  0  0
    2.4096   -2.5451    0.1688 C   0  0  0  0  0  0  0  0  0  0  0  0
    1.3276   -2.6113    0.3395 H   0  0  0  0  0  0  0  0  0  0  0  0
   -0.3892    2.6770    0.1429 C   0  0  0  0  0  0  0  0  0  0  0  0
    2.2224    3.5632   -0.3142 C   0  0  0  0  0  0  0  0  0  0  0  0
    3.2570    3.8929   -0.4810 H   0  0  0  0  0  0  0  0  0  0  0  0
   -1.6644    2.0050    0.2966 C   0  0  1  0  0  3  0  0  0  0  0  0
   -2.7440   -0.1171    0.0900 C   0  0  0  0  0  0  0  0  0  0  0  0
   -2.6251   -0.8509    2.5315 C   0  0  0  0  0  0  0  0  0  0  0  0
   -3.3071   -1.2825    3.2888 H   0  0  0  0  0  0  0  0  0  0  0  0
   -2.3482    0.1763    2.8397 H   0  0  0  0  0  0  0  0  0  0  0  0
   -1.6715   -1.4163    2.5516 H   0  0  0  0  0  0  0  0  0  0  0  0
   -0.1247    4.0556    0.0872 C   0  0  0  0  0  0  0  0  0  0  0  0
   -0.9473    4.7705    0.2274 H   0  0  0  0  0  0  0  0  0  0  0  0
   -3.2530   -0.8852    1.1655 C   0  0  0  0  0  0  0  0  0  0  0  0
   -2.8637    0.7115   -2.3253 C   0  0  0  0  0  0  0  0  0  0  0  0
   -3.2597    0.3434   -3.2907 H   0  0  0  0  0  0  0  0  0  0  0  0
   -1.7586    0.6899   -2.3744 H   0  0  0  0  0  0  0  0  0  0  0  0
   -3.1835    1.7709   -2.2227 H   0  0  0  0  0  0  0  0  0  0  0  0
    4.4042   -1.1643   -0.3228 C   0  0  0  0  0  0  0  0  0  0  0  0
    2.9833   -1.2751   -0.0994 C   0  0  0  0  0  0  0  0  0  0  0  0
    3.2189   -3.6732    0.2036 C   0  0  0  0  0  0  0  0  0  0  0  0
    2.7694   -4.6550    0.4145 H   0  0  0  0  0  0  0  0  0  0  0  0
   -3.3697   -0.1365   -1.1862 C   0  0  0  0  0  0  0  0  0  0  0  0
    4.2383    1.1107   -0.5343 C   0  0  0  0  0  0  0  0  0  0  0  0
    4.7193    2.0906   -0.7026 H   0  0  0  0  0  0  0  0  0  0  0  0
   -2.9438    2.7697    0.4396 C   0  0  0  0  0  0  0  0  0  0  0  0
   -3.7991    2.0869    0.5904 H   0  0  0  0  0  0  0  0  0  0  0  0
   -3.1444    3.3931   -0.4570 H   0  0  0  0  0  0  0  0  0  0  0  0
   -2.8801    3.4590    1.3069 H   0  0  0  0  0  0  0  0  0  0  0  0
   -4.4933   -0.9608   -1.3634 C   0  0  0  0  0  0  0  0  0  0  0  0
   -4.9727   -0.9861   -2.3556 H   0  0  0  0  0  0  0  0  0  0  0  0
    4.6152   -3.5760   -0.0327 C   0  0  0  0  0  0  0  0  0  0  0  0
    5.2364   -4.4838   -0.0063 H   0  0  0  0  0  0  0  0  0  0  0  0
    5.1983   -2.3427   -0.2911 C   0  0  0  0  0  3  0  0  0  0  0  0
    6.2769   -2.2276   -0.4699 H   0  0  0  0  0  0  0  0  0  0  0  0
   -4.3897   -1.6803    0.9313 C   0  0  0  0  0  0  0  0  0  0  0  0
   -4.7968   -2.2669    1.7710 H   0  0  0  0  0  0  0  0  0  0  0  0
   -5.0190   -1.7474   -0.3235 C   0  0  0  0  0  0  0  0  0  0  0  0
   -6.2027   -2.6523   -0.5552 C   0  0  0  0  0  0  0  0  0  0  0  0
   -6.7704   -2.8311    0.3792 H   0  0  0  0  0  0  0  0  0  0  0  0
   -5.8753   -3.6449   -0.9336 H   0  0  0  0  0  0  0  0  0  0  0  0
   -6.8982   -2.2322   -1.3088 H   0  0  0  0  0  0  0  0  0  0  0  0
  1 11  1  0  0  0  0
  3 32  1  0  0  0  0
  3 27  2  0  0  0  0
  4 20  1  0  0  0  0
  5  4  1  0  0  0  0
  6 28  1  0  0  0  0
  7  6  1  0  0  0  0
  8  7  1  1  0  0  0
  8  1  1  0  0  0  0
  9 29  1  0  0  0  0
  9 10  1  0  0  0  0
 11 14  1  0  0  0  0
 12  8  1  0  0  0  0
 12  4  2  0  0  0  0
 13 12  1  0  0  0  0
 14  2  1  6  0  0  0
 14 34  1  0  0  0  0
 15  2  1  0  0  0  0
 15 22  1  0  0  0  0
 16 19  1  0  0  0  0
 16 18  1  0  0  0  0
 16 17  1  0  0  0  0
 20 11  2  0  0  0  0
 20 21  1  0  0  0  0
 22 16  1  0  0  0  0
 23 26  1  0  0  0  0
 23 31  1  0  0  0  0
 24 23  1  0  0  0  0
 25 23  1  0  0  0  0
 27 42  1  0  0  0  0
 27 28  1  0  0  0  0
 28  9  2  0  0  0  0
 29 30  1  0  0  0  0
 31 15  2  0  0  0  0
 32  7  2  0  0  0  0
 33 32  1  0  0  0  0
 34 35  1  0  0  0  0
 34 37  1  0  0  0  0
 36 34  1  0  0  0  0
 38 31  1  0  0  0  0
 38 46  2  0  0  0  0
 39 38  1  0  0  0  0
 40 41  1  0  0  0  0
 40 29  2  0  0  0  0
 42 40  1  0  0  0  0
 43 42  1  0  0  0  0
 44 22  2  0  0  0  0
 44 45  1  0  0  0  0
 46 44  1  0  0  0  0
 47 46  1  0  0  0  0
 47 48  1  0  0  0  0
 49 47  1  0  0  0  0
 50 47  1  0  0  0  0
M  END
