1,2,3
 OpenBabel05122313063D

 45 49  0  0  0  0  0  0  0  0999 V2000
   -2.2171    1.0409   -0.1957 N   0  0  0  0  0  2  0  0  0  0  0  0
    0.4291    1.0496   -0.1165 N   0  0  0  0  0  2  0  0  0  0  0  0
   -3.2292   -1.4213   -0.1810 N   0  0  0  0  0  2  0  0  0  0  0  0
   -1.6183    2.2387   -0.1537 C   0  0  0  0  0  0  0  0  0  0  0  0
   -2.3885    3.4330   -0.0944 C   0  0  0  0  0  0  0  0  0  0  0  0
   -1.8795    4.4077   -0.0638 H   0  0  0  0  0  0  0  0  0  0  0  0
   -3.7771    3.3495   -0.0724 C   0  0  0  0  0  0  0  0  0  0  0  0
   -4.3902    4.2628   -0.0303 H   0  0  0  0  0  0  0  0  0  0  0  0
   -4.4149    2.0780   -0.0952 C   0  0  0  0  0  0  0  0  0  0  0  0
   -5.8362    1.8643   -0.0698 C   0  0  0  0  0  0  0  0  0  0  0  0
   -6.5006    2.7410   -0.0305 H   0  0  0  0  0  0  0  0  0  0  0  0
   -6.3676    0.5919   -0.0948 C   0  0  0  0  0  0  0  0  0  0  0  0
   -7.4589    0.4486   -0.0778 H   0  0  0  0  0  0  0  0  0  0  0  0
   -5.5226   -0.5740   -0.1379 C   0  0  0  0  0  0  0  0  0  0  0  0
   -5.9898   -1.9153   -0.1644 C   0  0  0  0  0  0  0  0  0  0  0  0
   -7.0724   -2.1155   -0.1500 H   0  0  0  0  0  0  0  0  0  0  0  0
   -5.0710   -2.9612   -0.2119 C   0  0  0  0  0  0  0  0  0  0  0  0
   -5.4072   -4.0076   -0.2403 H   0  0  0  0  0  0  0  0  0  0  0  0
   -3.6845   -2.6696   -0.2202 C   0  0  0  0  0  0  0  0  0  0  0  0
   -2.9122   -3.4561   -0.2686 H   0  0  0  0  0  0  0  0  0  0  0  0
   -4.1091   -0.3968   -0.1551 C   0  0  0  0  0  0  0  0  0  0  0  0
   -3.5545    0.9402   -0.1485 C   0  0  0  0  0  0  0  0  0  0  0  0
   -0.1518    2.2058   -0.1355 C   0  0  0  0  0  3  0  0  0  0  0  0
    0.3967    3.1700   -0.0866 H   0  0  0  0  0  0  0  0  0  0  0  0
    1.8079    0.8596   -0.1133 C   0  0  0  0  0  0  0  0  0  0  0  0
    2.7272    1.7828   -0.6700 C   0  0  0  0  0  0  0  0  0  0  0  0
    2.3594    2.6887   -1.1749 H   0  0  0  0  0  0  0  0  0  0  0  0
    4.0949    1.5131   -0.6450 C   0  0  0  0  0  0  0  0  0  0  0  0
    4.7911    2.2148   -1.1276 H   0  0  0  0  0  0  0  0  0  0  0  0
    4.5988    0.3250   -0.0581 C   0  0  0  0  0  0  0  0  0  0  0  0
    6.0533    0.0438   -0.0378 C   0  0  0  0  0  0  0  0  0  0  0  0
    6.9966    1.0911    0.0836 C   0  0  0  0  0  0  0  0  0  0  0  0
    6.6431    2.1275    0.1923 H   0  0  0  0  0  0  0  0  0  0  0  0
    8.3716    0.8243    0.1054 C   0  0  0  0  0  0  0  0  0  0  0  0
    9.0863    1.6546    0.2123 H   0  0  0  0  0  0  0  0  0  0  0  0
    8.8374   -0.4964    0.0025 C   0  0  0  0  0  0  0  0  0  0  0  0
    9.9176   -0.7062    0.0182 H   0  0  0  0  0  0  0  0  0  0  0  0
    7.9142   -1.5473   -0.1205 C   0  0  0  0  0  0  0  0  0  0  0  0
    8.2686   -2.5853   -0.2113 H   0  0  0  0  0  0  0  0  0  0  0  0
    6.5391   -1.2811   -0.1387 C   0  0  0  0  0  0  0  0  0  0  0  0
    5.8264   -2.1100   -0.2626 H   0  0  0  0  0  0  0  0  0  0  0  0
    3.6675   -0.5890    0.4909 C   0  0  0  0  0  0  0  0  0  0  0  0
    4.0303   -1.5081    0.9736 H   0  0  0  0  0  0  0  0  0  0  0  0
    2.2959   -0.3429    0.4543 C   0  0  0  0  0  0  0  0  0  0  0  0
    1.5751   -1.0434    0.9002 H   0  0  0  0  0  0  0  0  0  0  0  0
  1  4  1  0  0  0  0
  1 22  1  0  0  0  0
  2 25  1  0  0  0  0
  3 21  1  0  0  0  0
  4 23  1  0  0  0  0
  4  5  2  0  0  0  0
  5  7  1  0  0  0  0
  5  6  1  0  0  0  0
  7  8  1  0  0  0  0
  9  7  2  0  0  0  0
  9 10  1  0  0  0  0
 10 11  1  0  0  0  0
 12 13  1  0  0  0  0
 12 10  2  0  0  0  0
 14 12  1  0  0  0  0
 15 16  1  0  0  0  0
 15 14  2  0  0  0  0
 17 15  1  0  0  0  0
 18 17  1  0  0  0  0
 19 17  2  0  0  0  0
 19  3  1  0  0  0  0
 20 19  1  0  0  0  0
 21 22  2  0  0  0  0
 21 14  1  0  0  0  0
 22  9  1  0  0  0  0
 23  2  1  0  0  0  0
 23 24  1  0  0  0  0
 25 44  1  0  0  0  0
 26 28  1  0  0  0  0
 26 25  2  0  0  0  0
 27 26  1  0  0  0  0
 28 30  2  0  0  0  0
 29 28  1  0  0  0  0
 30 31  1  0  0  0  0
 30 42  1  0  0  0  0
 31 32  1  0  0  0  0
 32 34  2  0  0  0  0
 32 33  1  0  0  0  0
 34 35  1  0  0  0  0
 36 37  1  0  0  0  0
 36 34  1  0  0  0  0
 38 36  2  0  0  0  0
 39 38  1  0  0  0  0
 40 38  1  0  0  0  0
 40 31  2  0  0  0  0
 41 40  1  0  0  0  0
 42 43  1  0  0  0  0
 44 42  2  0  0  0  0
 44 45  1  0  0  0  0
M  END
