3,5,8
 OpenBabel05122313063D

 32 31  0  0  0  0  0  0  0  0999 V2000
   -2.8051    2.2369    0.5410 Cl  0  0  0  0  0  0  0  0  0  0  0  0
   -4.0070   -1.7440   -0.8803 Cl  0  0  0  0  0  0  0  0  0  0  0  0
    2.7071   -0.3421    1.0907 N   0  0  0  0  0  0  0  0  0  0  0  0
    2.4696    0.0374   -1.9611 H   0  0  0  0  0  0  0  0  0  0  0  0
    2.0404   -0.7778   -1.4777 N   0  0  0  0  0  0  0  0  0  0  0  0
    3.0005    0.5335    1.5568 H   0  0  0  0  0  0  0  0  0  0  0  0
    2.4300   -1.0156    1.8210 H   0  0  0  0  0  0  0  0  0  0  0  0
   -0.5061    0.3372   -1.2831 N   0  0  0  0  0  0  0  0  0  0  0  0
    3.7635   -0.8952    0.1978 C   0  0  0  0  0  0  0  0  0  0  0  0
    4.4847   -1.5281    0.7537 H   0  0  0  0  0  0  0  0  0  0  0  0
    4.3308   -0.0395   -0.2215 H   0  0  0  0  0  0  0  0  0  0  0  0
    3.0750   -1.6751   -0.9199 C   0  0  0  0  0  0  0  0  0  0  0  0
    3.7997   -2.0022   -1.6953 H   0  0  0  0  0  0  0  0  0  0  0  0
    2.5610   -2.5701   -0.5182 H   0  0  0  0  0  0  0  0  0  0  0  0
    0.9964   -1.3407   -2.3541 C   0  0  0  0  0  0  0  0  0  0  0  0
    0.5368   -2.2027   -1.8332 H   0  0  0  0  0  0  0  0  0  0  0  0
    1.4175   -1.7000   -3.3180 H   0  0  0  0  0  0  0  0  0  0  0  0
    0.0067   -0.2102   -2.5917 C   0  0  0  0  0  0  0  0  0  0  0  0
   -0.8335   -0.5381   -3.2365 H   0  0  0  0  0  0  0  0  0  0  0  0
    0.5224    0.6170   -3.1154 H   0  0  0  0  0  0  0  0  0  0  0  0
   -0.9231    1.7639   -1.5141 C   0  0  0  0  0  0  0  0  0  0  0  0
   -0.0637    2.2573   -2.0072 H   0  0  0  0  0  0  0  0  0  0  0  0
   -1.7604    1.7722   -2.2450 H   0  0  0  0  0  0  0  0  0  0  0  0
   -1.2588    2.6310   -0.3132 C   0  0  0  0  0  0  0  0  0  0  0  0
   -1.3713    3.6696   -0.6772 H   0  0  0  0  0  0  0  0  0  0  0  0
   -0.4658    2.5984    0.4534 H   0  0  0  0  0  0  0  0  0  0  0  0
   -1.6326   -0.5152   -0.7808 C   0  0  0  0  0  0  0  0  0  0  0  0
   -1.8318   -0.2398    0.2698 H   0  0  0  0  0  0  0  0  0  0  0  0
   -1.2767   -1.5586   -0.7943 H   0  0  0  0  0  0  0  0  0  0  0  0
   -2.9521   -0.4548   -1.5538 C   0  0  0  0  0  0  0  0  0  0  0  0
   -2.8407   -0.6565   -2.6371 H   0  0  0  0  0  0  0  0  0  0  0  0
   -3.4810    0.5048   -1.4100 H   0  0  0  0  0  0  0  0  0  0  0  0
  3  6  1  0  0  0  0
  3  7  1  0  0  0  0
  4  5  1  0  0  0  0
  5 12  1  0  0  0  0
  8 27  1  0  0  0  0
  9 10  1  0  0  0  0
  9  3  1  0  0  0  0
 11  9  1  0  0  0  0
 12 14  1  0  0  0  0
 12  9  1  0  0  0  0
 13 12  1  0  0  0  0
 15 16  1  0  0  0  0
 15  5  1  0  0  0  0
 17 15  1  0  0  0  0
 18 15  1  0  0  0  0
 18  8  1  0  0  0  0
 19 18  1  0  0  0  0
 20 18  1  0  0  0  0
 21  8  1  0  0  0  0
 21 24  1  0  0  0  0
 22 21  1  0  0  0  0
 23 21  1  0  0  0  0
 24 26  1  0  0  0  0
 24  1  1  0  0  0  0
 25 24  1  0  0  0  0
 27 28  1  0  0  0  0
 29 27  1  0  0  0  0
 30 32  1  0  0  0  0
 30  2  1  0  0  0  0
 30 27  1  0  0  0  0
 31 30  1  0  0  0  0
M  END
