1,2,22
 OpenBabel05122313063D

 39 41  0  0  1  0  0  0  0  0999 V2000
    0.0000    1.6367    0.0000 N   0  0  0  0  0  2  0  0  0  0  0  0
    1.8369    0.1054   -0.8178 N   0  0  0  0  0  2  0  0  0  0  0  0
    3.1887    1.7519   -1.6141 O   0  0  0  0  0  0  0  0  0  0  0  0
    4.5300    0.0128    0.7585 O   0  0  0  0  0  0  0  0  0  0  0  0
    3.6394   -2.0746    0.6585 O   0  0  0  0  0  0  0  0  0  0  0  0
    3.1141   -0.5686   -1.1260 C   0  0  2  0  0  0  0  0  0  0  0  0
    3.8492   -0.8292    0.2076 C   0  0  0  0  0  0  0  0  0  0  0  0
    4.0832   -2.3375    2.0029 C   0  0  0  0  0  0  0  0  0  0  0  0
    3.8570    0.5038   -1.9501 C   0  0  0  0  0  0  0  0  0  0  0  0
    2.0390    1.3992   -1.0263 C   0  0  0  0  0  0  0  0  0  0  0  0
    1.0423    2.3282   -0.5651 C   0  0  0  0  0  0  0  0  0  0  0  0
    1.0647    3.7330   -0.5887 C   0  0  0  0  0  0  0  0  0  0  0  0
    0.0001    4.4357   -0.0000 C   0  0  0  0  0  0  0  0  0  0  0  0
    2.9357   -1.5130   -1.6722 H   0  0  0  0  0  0  0  0  0  0  0  0
    5.1141   -1.9635    2.1528 H   0  0  0  0  0  0  0  0  0  0  0  0
    4.0331   -3.4328    2.1314 H   0  0  0  0  0  0  0  0  0  0  0  0
    3.3899   -1.8293    2.7030 H   0  0  0  0  0  0  0  0  0  0  0  0
    4.9192    0.6054   -1.6641 H   0  0  0  0  0  0  0  0  0  0  0  0
    3.7548    0.3427   -3.0429 H   0  0  0  0  0  0  0  0  0  0  0  0
    1.9163    4.2478   -1.0529 H   0  0  0  0  0  0  0  0  0  0  0  0
    0.0001    5.5348   -0.0000 H   0  0  0  0  0  0  0  0  0  0  0  0
   -1.8369    0.1054    0.8178 N   0  0  0  0  0  2  0  0  0  0  0  0
   -3.1886    1.7520    1.6141 O   0  0  0  0  0  0  0  0  0  0  0  0
   -4.5300    0.0128   -0.7585 O   0  0  0  0  0  0  0  0  0  0  0  0
   -3.6394   -2.0746   -0.6584 O   0  0  0  0  0  0  0  0  0  0  0  0
   -3.1141   -0.5685    1.1260 C   0  0  2  0  0  0  0  0  0  0  0  0
   -3.8492   -0.8292   -0.2075 C   0  0  0  0  0  0  0  0  0  0  0  0
   -4.0832   -2.3376   -2.0028 C   0  0  0  0  0  0  0  0  0  0  0  0
   -3.8570    0.5039    1.9501 C   0  0  0  0  0  0  0  0  0  0  0  0
   -2.0390    1.3992    1.0263 C   0  0  2  0  0  3  0  0  0  0  0  0
   -1.0422    2.3282    0.5651 C   0  0  0  0  0  0  0  0  0  0  0  0
   -1.0646    3.7330    0.5887 C   0  0  0  0  0  0  0  0  0  0  0  0
   -2.9357   -1.5129    1.6723 H   0  0  0  0  0  0  0  0  0  0  0  0
   -5.1141   -1.9636   -2.1527 H   0  0  0  0  0  0  0  0  0  0  0  0
   -4.0331   -3.4329   -2.1312 H   0  0  0  0  0  0  0  0  0  0  0  0
   -3.3900   -1.8293   -2.7029 H   0  0  0  0  0  0  0  0  0  0  0  0
   -4.9192    0.6055    1.6641 H   0  0  0  0  0  0  0  0  0  0  0  0
   -3.7548    0.3429    3.0429 H   0  0  0  0  0  0  0  0  0  0  0  0
   -1.9162    4.2479    1.0529 H   0  0  0  0  0  0  0  0  0  0  0  0
  1 31  1  0  0  0  0
  3 10  1  0  0  0  0
  5  8  1  0  0  0  0
  6 14  1  6  0  0  0
  6  2  1  0  0  0  0
  6  7  1  0  0  0  0
  7  5  1  0  0  0  0
  7  4  2  0  0  0  0
  8 16  1  0  0  0  0
  8 15  1  0  0  0  0
  8 17  1  0  0  0  0
  9 18  1  0  0  0  0
  9  3  1  0  0  0  0
  9  6  1  0  0  0  0
 10  2  1  0  0  0  0
 10 11  2  0  0  0  0
 11  1  1  0  0  0  0
 12 11  1  0  0  0  0
 12 13  2  0  0  0  0
 13 32  1  0  0  0  0
 19  9  1  0  0  0  0
 20 12  1  0  0  0  0
 21 13  1  0  0  0  0
 22 30  1  0  0  0  0
 22 26  1  0  0  0  0
 23 29  1  0  0  0  0
 24 27  2  0  0  0  0
 25 27  1  0  0  0  0
 26 33  1  1  0  0  0
 26 29  1  0  0  0  0
 27 26  1  0  0  0  0
 28 25  1  0  0  0  0
 29 38  1  0  0  0  0
 30 31  1  6  0  0  0
 30 23  1  0  0  0  0
 31 32  2  0  0  0  0
 32 39  1  0  0  0  0
 34 28  1  0  0  0  0
 35 28  1  0  0  0  0
 36 28  1  0  0  0  0
 37 29  1  0  0  0  0
M  END
