1,2,3
 OpenBabel05122313063D

 45 47  0  0  1  0  0  0  0  0999 V2000
   -1.3438    1.4878    0.6645 N   0  0  0  0  0  0  0  0  0  0  0  0
    0.1417    0.4016   -1.4285 N   0  0  0  0  0  0  0  0  0  0  0  0
    1.6300   -0.8995    0.3116 N   0  0  0  0  0  2  0  0  0  0  0  0
    1.4176    2.3596    0.3503 N   0  0  0  0  0  0  0  0  0  0  0  0
   -2.4040   -0.8002   -1.3432 N   0  0  0  0  0  0  0  0  0  0  0  0
    1.0252   -0.6375   -2.0044 C   0  0  0  0  0  0  0  0  0  0  0  0
    1.5291   -0.2800   -2.9277 H   0  0  0  0  0  0  0  0  0  0  0  0
    0.3808   -1.4934   -2.3015 H   0  0  0  0  0  0  0  0  0  0  0  0
    0.3436    3.2713    0.7228 C   0  0  0  0  0  0  0  0  0  0  0  0
    0.5271    4.3285    0.4072 H   0  0  0  0  0  0  0  0  0  0  0  0
    0.2400    3.2661    1.8271 H   0  0  0  0  0  0  0  0  0  0  0  0
   -3.0377   -1.4816    0.8872 C   0  0  0  0  0  0  0  0  0  0  0  0
   -3.2546   -1.1968    1.9264 H   0  0  0  0  0  0  0  0  0  0  0  0
    1.6960    2.3214   -1.0762 C   0  0  0  0  0  0  0  0  0  0  0  0
    2.5610    1.6519   -1.2613 H   0  0  0  0  0  0  0  0  0  0  0  0
    1.9585    3.3191   -1.5088 H   0  0  0  0  0  0  0  0  0  0  0  0
    2.0133   -1.1188   -0.9802 C   0  0  2  0  0  3  0  0  0  0  0  0
   -2.7003   -0.4973   -0.0580 C   0  0  0  0  0  0  0  0  0  0  0  0
    3.5982   -2.0550    1.0738 C   0  0  0  0  0  0  0  0  0  0  0  0
    4.1962   -2.4131    1.9235 H   0  0  0  0  0  0  0  0  0  0  0  0
   -0.9627    2.7995    0.0655 C   0  0  1  0  0  0  0  0  0  0  0  0
   -1.7679    3.5374    0.2782 H   0  0  0  0  0  0  0  0  0  0  0  0
   -0.7648    2.6845   -1.4539 C   0  0  0  0  0  0  0  0  0  0  0  0
   -1.6773    2.3017   -1.9561 H   0  0  0  0  0  0  0  0  0  0  0  0
   -0.5950    3.7023   -1.8581 H   0  0  0  0  0  0  0  0  0  0  0  0
   -2.7022    0.9741    0.2962 C   0  0  0  0  0  0  0  0  0  0  0  0
   -3.0781    1.5392   -0.5775 H   0  0  0  0  0  0  0  0  0  0  0  0
   -3.3929    1.1622    1.1411 H   0  0  0  0  0  0  0  0  0  0  0  0
    2.4114   -1.3604    1.3200 C   0  0  0  0  0  0  0  0  0  0  0  0
    2.0400   -1.1501    2.3343 H   0  0  0  0  0  0  0  0  0  0  0  0
    3.1974   -1.7956   -1.2910 C   0  0  0  0  0  0  0  0  0  0  0  0
    3.4762   -1.9484   -2.3438 H   0  0  0  0  0  0  0  0  0  0  0  0
    0.4452    1.8077   -1.8094 C   0  0  2  0  0  0  0  0  0  0  0  0
    0.6199    1.8538   -2.9076 H   0  0  0  0  0  0  0  0  0  0  0  0
    4.0057   -2.2750   -0.2501 C   0  0  0  0  0  0  0  0  0  0  0  0
    4.9400   -2.8115   -0.4710 H   0  0  0  0  0  0  0  0  0  0  0  0
   -2.7714   -3.1373   -0.8496 C   0  0  0  0  0  0  0  0  0  0  0  0
   -2.7976   -4.1747   -1.2128 H   0  0  0  0  0  0  0  0  0  0  0  0
   -2.4402   -2.0901   -1.7229 C   0  0  0  0  0  0  0  0  0  0  0  0
   -2.2021   -2.2965   -2.7808 H   0  0  0  0  0  0  0  0  0  0  0  0
   -3.0665   -2.8233    0.4848 C   0  0  0  0  0  0  0  0  0  0  0  0
   -3.3232   -3.6148    1.2046 H   0  0  0  0  0  0  0  0  0  0  0  0
   -1.3118    1.5675    1.6983 H   0  0  0  0  0  0  0  0  0  0  0  0
    2.2573    2.4855    0.9216 H   0  0  0  0  0  0  0  0  0  0  0  0
   -0.8472    0.1633   -1.7027 H   0  0  0  0  0  0  0  0  0  0  0  0
  1 43  1  0  0  0  0
  3 29  1  0  0  0  0
  4  9  1  0  0  0  0
  4 44  1  0  0  0  0
  5 18  1  0  0  0  0
  6  2  1  0  0  0  0
  7  6  1  0  0  0  0
  8  6  1  0  0  0  0
  9 11  1  0  0  0  0
 10  9  1  0  0  0  0
 12 13  1  0  0  0  0
 14  4  1  0  0  0  0
 15 14  1  0  0  0  0
 16 14  1  0  0  0  0
 17  6  1  1  0  0  0
 17  3  1  0  0  0  0
 18 26  1  0  0  0  0
 18 12  2  0  0  0  0
 19 29  2  0  0  0  0
 19 20  1  0  0  0  0
 21 22  1  1  0  0  0
 21  1  1  0  0  0  0
 21  9  1  0  0  0  0
 23 21  1  0  0  0  0
 24 23  1  0  0  0  0
 25 23  1  0  0  0  0
 26  1  1  0  0  0  0
 26 28  1  0  0  0  0
 27 26  1  0  0  0  0
 29 30  1  0  0  0  0
 31 17  1  0  0  0  0
 31 35  2  0  0  0  0
 32 31  1  0  0  0  0
 33 34  1  6  0  0  0
 33 23  1  0  0  0  0
 33  2  1  0  0  0  0
 33 14  1  0  0  0  0
 35 19  1  0  0  0  0
 36 35  1  0  0  0  0
 37 41  2  0  0  0  0
 38 37  1  0  0  0  0
 39  5  2  0  0  0  0
 39 37  1  0  0  0  0
 40 39  1  0  0  0  0
 41 12  1  0  0  0  0
 41 42  1  0  0  0  0
 45  2  1  0  0  0  0
M  END
