1,4,14
 OpenBabel05122313063D

 21 21  0  0  1  0  0  0  0  0999 V2000
   -0.8206   -0.8540   -1.4445 N   0  0  0  0  0  0  0  0  0  0  0  0
   -0.3164   -0.5923   -2.3059 H   0  0  0  0  0  0  0  0  0  0  0  0
   -0.9033   -1.8807   -1.4649 H   0  0  0  0  0  0  0  0  0  0  0  0
   -0.9775    1.5017   -0.0003 N   0  0  0  0  0  0  0  0  0  0  0  0
   -0.4152    2.3611   -0.0005 H   0  0  0  0  0  0  0  0  0  0  0  0
   -1.7729    1.3339   -1.2208 C   0  0  0  0  0  0  0  0  0  0  0  0
   -1.1483    1.6348   -2.0850 H   0  0  0  0  0  0  0  0  0  0  0  0
   -2.6993    1.9541   -1.2199 H   0  0  0  0  0  0  0  0  0  0  0  0
   -2.8199   -0.6118    0.0003 C   0  0  0  0  0  0  0  0  0  0  0  0
   -3.8462   -0.1910    0.0004 H   0  0  0  0  0  0  0  0  0  0  0  0
   -2.9431   -1.7169    0.0005 H   0  0  0  0  0  0  0  0  0  0  0  0
   -2.1164   -0.1592   -1.3004 C   0  0  2  0  0  0  0  0  0  0  0  0
   -2.7923   -0.3530   -2.1636 H   0  0  0  0  0  0  0  0  0  0  0  0
   -0.8203   -0.8535    1.4448 N   0  0  0  0  0  0  0  0  0  0  0  0
   -0.3158   -0.5914    2.3059 H   0  0  0  0  0  0  0  0  0  0  0  0
   -0.9030   -1.8802    1.4657 H   0  0  0  0  0  0  0  0  0  0  0  0
   -2.1161   -0.1588    1.3008 C   0  0  1  0  0  0  0  0  0  0  0  0
   -1.7726    1.3344    1.2205 C   0  0  0  0  0  0  0  0  0  0  0  0
   -1.1478    1.6356    2.0844 H   0  0  0  0  0  0  0  0  0  0  0  0
   -2.6990    1.9546    1.2197 H   0  0  0  0  0  0  0  0  0  0  0  0
   -2.7918   -0.3523    2.1642 H   0  0  0  0  0  0  0  0  0  0  0  0
  1 12  1  0  0  0  0
  2  1  1  0  0  0  0
  3  1  1  0  0  0  0
  4 18  1  0  0  0  0
  5  4  1  0  0  0  0
  6  8  1  0  0  0  0
  6  4  1  0  0  0  0
  7  6  1  0  0  0  0
  9 10  1  0  0  0  0
  9 11  1  0  0  0  0
  9 17  1  0  0  0  0
 12 13  1  6  0  0  0
 12  6  1  0  0  0  0
 12  9  1  0  0  0  0
 14 16  1  0  0  0  0
 14 15  1  0  0  0  0
 17 14  1  0  0  0  0
 17 21  1  1  0  0  0
 18 17  1  0  0  0  0
 18 19  1  0  0  0  0
 20 18  1  0  0  0  0
M  END
