1,4,7
 OpenBabel05122313063D

 24 24  0  0  1  0  0  0  0  0999 V2000
    0.9365    1.7234    1.3816 N   0  0  0  0  0  0  0  0  0  0  0  0
    0.7468    1.4902    2.3686 H   0  0  0  0  0  0  0  0  0  0  0  0
    1.9395    1.4458    1.2441 H   0  0  0  0  0  0  0  0  0  0  0  0
   -1.7974    1.5378    0.7019 N   0  0  0  0  0  0  0  0  0  0  0  0
   -2.5425    1.1972    0.0451 H   0  0  0  0  0  0  0  0  0  0  0  0
   -2.1131    1.2787    1.6478 H   0  0  0  0  0  0  0  0  0  0  0  0
    0.1612    1.5988   -1.3927 N   0  0  0  0  0  0  0  0  0  0  0  0
    1.1061    1.3008   -1.6885 H   0  0  0  0  0  0  0  0  0  0  0  0
   -0.4963    1.2168   -2.0914 H   0  0  0  0  0  0  0  0  0  0  0  0
    0.7550    3.1784    1.1909 C   0  0  2  0  0  0  0  0  0  0  0  0
    1.4612    3.7214    1.8595 H   0  0  0  0  0  0  0  0  0  0  0  0
   -0.6777    3.5809    1.5634 C   0  0  0  0  0  0  0  0  0  0  0  0
   -0.7531    4.6878    1.5622 H   0  0  0  0  0  0  0  0  0  0  0  0
   -0.9063    3.2557    2.6024 H   0  0  0  0  0  0  0  0  0  0  0  0
   -1.7183    3.0135    0.5898 C   0  0  1  0  0  0  0  0  0  0  0  0
   -2.7128    3.4443    0.8459 H   0  0  0  0  0  0  0  0  0  0  0  0
   -1.3899    3.4184   -0.8570 C   0  0  0  0  0  0  0  0  0  0  0  0
   -2.1162    2.9405   -1.5479 H   0  0  0  0  0  0  0  0  0  0  0  0
   -1.5268    4.5148   -0.9529 H   0  0  0  0  0  0  0  0  0  0  0  0
    0.0450    3.0613   -1.2754 C   0  0  1  0  0  0  0  0  0  0  0  0
    0.2544    3.5383   -2.2598 H   0  0  0  0  0  0  0  0  0  0  0  0
    1.0776    3.5734   -0.2587 C   0  0  0  0  0  0  0  0  0  0  0  0
    1.1168    4.6801   -0.3195 H   0  0  0  0  0  0  0  0  0  0  0  0
    2.0912    3.2064   -0.5286 H   0  0  0  0  0  0  0  0  0  0  0  0
  1  2  1  0  0  0  0
  3  1  1  0  0  0  0
  4  6  1  0  0  0  0
  5  4  1  0  0  0  0
  7 20  1  0  0  0  0
  8  7  1  0  0  0  0
  9  7  1  0  0  0  0
 10  1  1  0  0  0  0
 10 12  1  0  0  0  0
 10 11  1  1  0  0  0
 12 14  1  0  0  0  0
 13 12  1  0  0  0  0
 15  4  1  0  0  0  0
 15 16  1  1  0  0  0
 15 12  1  0  0  0  0
 17 15  1  0  0  0  0
 18 17  1  0  0  0  0
 19 17  1  0  0  0  0
 20 21  1  6  0  0  0
 20 17  1  0  0  0  0
 20 22  1  0  0  0  0
 22 10  1  0  0  0  0
 23 22  1  0  0  0  0
 24 22  1  0  0  0  0
M  END
