9,10,11
 OpenBabel05122313063D

 37 39  0  0  1  0  0  0  0  0999 V2000
   -5.9115   -3.5020    0.0559 Br  0  0  0  0  0  0  0  0  0  0  0  0
    5.8903   -1.6114   -0.7548 Br  0  0  0  0  0  0  0  0  0  0  0  0
   -3.3964   -2.7813    1.6631 F   0  0  0  0  0  0  0  0  0  0  0  0
   -6.4309   -0.8744   -1.4330 F   0  0  0  0  0  0  0  0  0  0  0  0
    3.2875   -1.4120   -2.3701 F   0  0  0  0  0  0  0  0  0  0  0  0
    5.6868    0.8857    1.0085 F   0  0  0  0  0  0  0  0  0  0  0  0
   -4.4647    3.2191    0.0970 O   0  0  0  0  0  0  0  0  0  0  0  0
    2.5013    4.4480   -0.1678 O   0  0  0  0  0  0  0  0  0  0  0  0
   -0.9507    3.6452   -0.0174 N   0  0  0  0  0  2  0  0  0  0  0  0
   -2.6724    1.7040    0.1560 N   0  0  0  0  0  2  0  0  0  0  0  0
    1.3178    2.4317   -0.3406 N   0  0  0  0  0  2  0  0  0  0  0  0
   -3.2598    2.9556    0.1017 C   0  0  0  0  0  0  0  0  0  0  0  0
   -2.2271    4.0585    0.0716 C   0  0  2  0  0  3  0  0  0  0  0  0
   -2.5024    5.4311    0.1212 C   0  0  0  0  0  0  0  0  0  0  0  0
   -3.5535    5.7475    0.1819 H   0  0  0  0  0  0  0  0  0  0  0  0
   -1.4240    6.3331    0.0949 C   0  0  0  0  0  0  0  0  0  0  0  0
   -1.6147    7.4159    0.1400 H   0  0  0  0  0  0  0  0  0  0  0  0
   -0.1028    5.8581    0.0102 C   0  0  0  0  0  0  0  0  0  0  0  0
    0.7758    6.5186   -0.0128 H   0  0  0  0  0  0  0  0  0  0  0  0
    0.1076    4.4752   -0.0543 C   0  0  0  0  0  0  0  0  0  0  0  0
    1.4543    3.7979   -0.1799 C   0  0  0  0  0  0  0  0  0  0  0  0
   -3.4658    0.5455    0.1531 C   0  0  0  0  0  0  0  0  0  0  0  0
   -3.0727   -0.5571    0.9467 C   0  0  0  0  0  0  0  0  0  0  0  0
   -2.1963   -0.4899    1.6023 H   0  0  0  0  0  0  0  0  0  0  0  0
   -3.8005   -1.7461    0.9115 C   0  0  0  0  0  0  0  0  0  0  0  0
   -4.9442   -1.8875    0.1043 C   0  0  0  0  0  0  0  0  0  0  0  0
   -5.3407   -0.7727   -0.6611 C   0  0  0  0  0  0  0  0  0  0  0  0
   -4.6258    0.4255   -0.6505 C   0  0  0  0  0  0  0  0  0  0  0  0
   -4.9902    1.2682   -1.2490 H   0  0  0  0  0  0  0  0  0  0  0  0
    2.4464    1.6111   -0.5006 C   0  0  0  0  0  0  0  0  0  0  0  0
    2.3910    0.5709   -1.4557 C   0  0  0  0  0  0  0  0  0  0  0  0
    1.5322    0.4838   -2.1336 H   0  0  0  0  0  0  0  0  0  0  0  0
    3.4076   -0.3793   -1.5147 C   0  0  0  0  0  0  0  0  0  0  0  0
    4.5356   -0.3062   -0.6788 C   0  0  0  0  0  0  0  0  0  0  0  0
    4.6145    0.7806    0.2168 C   0  0  0  0  0  0  0  0  0  0  0  0
    3.5949    1.7289    0.3167 C   0  0  0  0  0  0  0  0  0  0  0  0
    3.6970    2.5496    1.0365 H   0  0  0  0  0  0  0  0  0  0  0  0
  1 26  1  0  0  0  0
  2 34  1  0  0  0  0
  4 27  1  0  0  0  0
  5 33  1  0  0  0  0
  7 12  2  0  0  0  0
  9 13  1  0  0  0  0
 11 21  1  0  0  0  0
 12 10  1  0  0  0  0
 13 12  1  6  0  0  0
 13 14  1  0  0  0  0
 14 15  1  0  0  0  0
 16 14  2  0  0  0  0
 16 17  1  0  0  0  0
 18 16  1  0  0  0  0
 19 18  1  0  0  0  0
 20  9  1  0  0  0  0
 20 18  2  0  0  0  0
 21  8  2  0  0  0  0
 21 20  1  0  0  0  0
 22 10  1  0  0  0  0
 22 23  1  0  0  0  0
 23 24  1  0  0  0  0
 25 23  2  0  0  0  0
 25  3  1  0  0  0  0
 26 25  1  0  0  0  0
 27 28  1  0  0  0  0
 27 26  2  0  0  0  0
 28 22  2  0  0  0  0
 29 28  1  0  0  0  0
 30 11  1  0  0  0  0
 30 36  1  0  0  0  0
 31 30  2  0  0  0  0
 32 31  1  0  0  0  0
 33 31  1  0  0  0  0
 33 34  2  0  0  0  0
 34 35  1  0  0  0  0
 35 36  2  0  0  0  0
 35  6  1  0  0  0  0
 36 37  1  0  0  0  0
M  END
