1,2,3
 OpenBabel05122313063D

 57 60  0  0  1  0  0  0  0  0999 V2000
    1.5910    1.8010   -0.5204 N   0  0  0  0  0  2  0  0  0  0  0  0
   -1.5947    1.7981   -0.5214 N   0  0  0  0  0  2  0  0  0  0  0  0
    0.0007   -0.1641   -2.0877 N   0  0  0  0  0  2  0  0  0  0  0  0
    1.3041    2.6932   -1.6432 C   0  0  2  0  0  0  0  0  0  0  0  0
    2.1358    3.4287   -1.7468 H   0  0  0  0  0  0  0  0  0  0  0  0
   -0.0031    3.4854   -1.4477 C   0  0  0  0  0  0  0  0  0  0  0  0
   -0.0040    3.9732   -0.4522 H   0  0  0  0  0  0  0  0  0  0  0  0
   -0.0037    4.3019   -2.1989 H   0  0  0  0  0  0  0  0  0  0  0  0
   -1.3087    2.6906   -1.6442 C   0  0  1  0  0  0  0  0  0  0  0  0
   -2.1417    3.4245   -1.7485 H   0  0  0  0  0  0  0  0  0  0  0  0
   -1.2602    1.8354   -2.9267 C   0  0  0  0  0  0  0  0  0  0  0  0
   -2.1731    1.2106   -2.9934 H   0  0  0  0  0  0  0  0  0  0  0  0
   -1.2727    2.5204   -3.7999 H   0  0  0  0  0  0  0  0  0  0  0  0
   -0.0001    0.9568   -3.0524 C   0  0  1  0  0  0  0  0  0  0  0  0
    0.0008    0.5258   -4.0795 H   0  0  0  0  0  0  0  0  0  0  0  0
    1.2582    1.8379   -2.9258 C   0  0  0  0  0  0  0  0  0  0  0  0
    1.2700    2.5229   -3.7991 H   0  0  0  0  0  0  0  0  0  0  0  0
    2.1724    1.2150   -2.9919 H   0  0  0  0  0  0  0  0  0  0  0  0
    2.7278    1.9117    0.0862 C   0  0  0  0  0  3  0  0  0  0  0  0
    3.3884    2.7751   -0.1592 H   0  0  0  0  0  0  0  0  0  0  0  0
    3.2364    0.9516    1.0675 C   0  0  0  0  0  0  0  0  0  0  0  0
    2.9312   -0.4265    0.9579 C   0  0  0  0  0  0  0  0  0  0  0  0
    2.3257   -0.7761    0.1087 H   0  0  0  0  0  0  0  0  0  0  0  0
    3.4301   -1.3356    1.8963 C   0  0  0  0  0  0  0  0  0  0  0  0
    3.2013   -2.4072    1.7953 H   0  0  0  0  0  0  0  0  0  0  0  0
    4.2357   -0.8813    2.9552 C   0  0  0  0  0  0  0  0  0  0  0  0
    4.6259   -1.5966    3.6947 H   0  0  0  0  0  0  0  0  0  0  0  0
    4.5651    0.4809    3.0577 C   0  0  0  0  0  0  0  0  0  0  0  0
    5.2081    0.8320    3.8781 H   0  0  0  0  0  0  0  0  0  0  0  0
    4.0844    1.3919    2.1088 C   0  0  0  0  0  0  0  0  0  0  0  0
    4.3500    2.4580    2.1823 H   0  0  0  0  0  0  0  0  0  0  0  0
   -2.7319    1.9069    0.0847 C   0  0  0  0  0  3  0  0  0  0  0  0
   -3.3941    2.7690   -0.1613 H   0  0  0  0  0  0  0  0  0  0  0  0
   -4.0871    1.3851    2.1078 C   0  0  0  0  0  0  0  0  0  0  0  0
   -4.3543    2.4508    2.1814 H   0  0  0  0  0  0  0  0  0  0  0  0
   -4.5659    0.4734    3.0570 C   0  0  0  0  0  0  0  0  0  0  0  0
   -5.2090    0.8235    3.8777 H   0  0  0  0  0  0  0  0  0  0  0  0
   -4.2345   -0.8884    2.9543 C   0  0  0  0  0  0  0  0  0  0  0  0
   -4.6233   -1.6042    3.6939 H   0  0  0  0  0  0  0  0  0  0  0  0
   -3.4288   -1.3415    1.8950 C   0  0  0  0  0  0  0  0  0  0  0  0
   -3.1984   -2.4127    1.7938 H   0  0  0  0  0  0  0  0  0  0  0  0
   -2.9317   -0.4315    0.9564 C   0  0  0  0  0  0  0  0  0  0  0  0
   -2.3260   -0.7802    0.1069 H   0  0  0  0  0  0  0  0  0  0  0  0
   -3.2390    0.9461    1.0661 C   0  0  0  0  0  0  0  0  0  0  0  0
    0.0022   -1.3564   -2.5964 C   0  0  0  0  0  3  0  0  0  0  0  0
    0.0028   -1.4511   -3.7060 H   0  0  0  0  0  0  0  0  0  0  0  0
    0.0031   -2.6354   -1.8875 C   0  0  0  0  0  0  0  0  0  0  0  0
    0.0022   -2.7570   -0.4784 C   0  0  0  0  0  0  0  0  0  0  0  0
    0.0006   -1.8467    0.1378 H   0  0  0  0  0  0  0  0  0  0  0  0
    0.0033   -4.0166    0.1265 C   0  0  0  0  0  0  0  0  0  0  0  0
    0.0025   -4.0960    1.2241 H   0  0  0  0  0  0  0  0  0  0  0  0
    0.0053   -5.1803   -0.6652 C   0  0  0  0  0  0  0  0  0  0  0  0
    0.0062   -6.1713   -0.1871 H   0  0  0  0  0  0  0  0  0  0  0  0
    0.0062   -5.0762   -2.0655 C   0  0  0  0  0  0  0  0  0  0  0  0
    0.0078   -5.9837   -2.6868 H   0  0  0  0  0  0  0  0  0  0  0  0
    0.0051   -3.8144   -2.6718 C   0  0  0  0  0  0  0  0  0  0  0  0
    0.0058   -3.7326   -3.7703 H   0  0  0  0  0  0  0  0  0  0  0  0
  1 19  1  0  0  0  0
  2 32  1  0  0  0  0
  4  5  1  6  0  0  0
  4  6  1  0  0  0  0
  4  1  1  0  0  0  0
  6  7  1  0  0  0  0
  8  6  1  0  0  0  0
  9 10  1  6  0  0  0
  9  6  1  0  0  0  0
  9  2  1  0  0  0  0
 11  9  1  0  0  0  0
 12 11  1  0  0  0  0
 13 11  1  0  0  0  0
 14 15  1  6  0  0  0
 14 11  1  0  0  0  0
 14 16  1  0  0  0  0
 14  3  1  0  0  0  0
 16  4  1  0  0  0  0
 17 16  1  0  0  0  0
 18 16  1  0  0  0  0
 19 21  1  0  0  0  0
 20 19  1  0  0  0  0
 21 30  1  0  0  0  0
 22 21  2  0  0  0  0
 22 24  1  0  0  0  0
 23 22  1  0  0  0  0
 24 26  2  0  0  0  0
 25 24  1  0  0  0  0
 26 28  1  0  0  0  0
 26 27  1  0  0  0  0
 28 29  1  0  0  0  0
 30 31  1  0  0  0  0
 30 28  2  0  0  0  0
 32 44  1  0  0  0  0
 33 32  1  0  0  0  0
 34 35  1  0  0  0  0
 34 36  1  0  0  0  0
 36 37  1  0  0  0  0
 38 36  2  0  0  0  0
 38 39  1  0  0  0  0
 40 38  1  0  0  0  0
 41 40  1  0  0  0  0
 42 44  1  0  0  0  0
 42 40  2  0  0  0  0
 43 42  1  0  0  0  0
 44 34  2  0  0  0  0
 45  3  1  0  0  0  0
 45 47  1  0  0  0  0
 46 45  1  0  0  0  0
 47 48  1  0  0  0  0
 48 50  2  0  0  0  0
 48 49  1  0  0  0  0
 50 51  1  0  0  0  0
 52 53  1  0  0  0  0
 52 50  1  0  0  0  0
 54 52  2  0  0  0  0
 55 54  1  0  0  0  0
 56 54  1  0  0  0  0
 56 47  2  0  0  0  0
 57 56  1  0  0  0  0
M  END
