3,4,5
 OpenBabel05122313063D

 57 60  0  0  1  0  0  0  0  0999 V2000
    3.9263   -0.9362    0.6590 O   0  0  0  0  0  0  0  0  0  0  0  0
   -3.7864    0.3954   -0.8603 O   0  0  0  0  0  0  0  0  0  0  0  0
    0.2440    0.9116    0.1218 N   0  0  0  0  0  2  0  0  0  0  0  0
    1.7937   -1.3196    0.0213 N   0  0  0  0  0  2  0  0  0  0  0  0
   -1.9275   -0.7178   -0.2236 N   0  0  0  0  0  2  0  0  0  0  0  0
    2.6122   -2.2068   -0.8331 C   0  0  1  0  0  0  0  0  0  0  0  0
    2.1981   -3.2332   -0.8153 H   0  0  0  0  0  0  0  0  0  0  0  0
    2.6337   -1.7118   -2.3043 C   0  0  0  0  0  0  0  0  0  0  0  0
    3.4115   -2.3353   -2.8037 H   0  0  0  0  0  0  0  0  0  0  0  0
    1.2940   -1.9704   -3.0004 C   0  0  0  0  0  0  0  0  0  0  0  0
    1.0137   -3.0426   -2.9672 H   0  0  0  0  0  0  0  0  0  0  0  0
    1.3320   -1.6532   -4.0619 H   0  0  0  0  0  0  0  0  0  0  0  0
    0.4822   -1.4022   -2.4970 H   0  0  0  0  0  0  0  0  0  0  0  0
    3.0375   -0.2362   -2.4195 C   0  0  0  0  0  0  0  0  0  0  0  0
    4.0007   -0.0169   -1.9161 H   0  0  0  0  0  0  0  0  0  0  0  0
    2.2600    0.4097   -1.9625 H   0  0  0  0  0  0  0  0  0  0  0  0
    3.1378    0.0578   -3.4832 H   0  0  0  0  0  0  0  0  0  0  0  0
    3.9752   -2.1546   -0.1202 C   0  0  0  0  0  0  0  0  0  0  0  0
    4.1254   -3.0077    0.5757 H   0  0  0  0  0  0  0  0  0  0  0  0
    4.8392   -2.0893   -0.8099 H   0  0  0  0  0  0  0  0  0  0  0  0
    2.6195   -0.5736    0.7212 C   0  0  0  0  0  0  0  0  0  0  0  0
    2.2800    0.6149    1.4678 C   0  0  0  0  0  0  0  0  0  0  0  0
    3.1519    1.0859    2.4786 C   0  0  0  0  0  0  0  0  0  0  0  0
    4.0401    0.4836    2.7181 H   0  0  0  0  0  0  0  0  0  0  0  0
    2.8945    2.2769    3.1536 C   0  0  0  0  0  0  0  0  0  0  0  0
    3.5689    2.6259    3.9487 H   0  0  0  0  0  0  0  0  0  0  0  0
    1.7460    3.0214    2.8047 C   0  0  0  0  0  0  0  0  0  0  0  0
    1.5117    3.9526    3.3442 H   0  0  0  0  0  0  0  0  0  0  0  0
    0.8876    2.5875    1.7971 C   0  0  0  0  0  0  0  0  0  0  0  0
   -0.0097    3.1728    1.5503 H   0  0  0  0  0  0  0  0  0  0  0  0
    1.1141    1.3690    1.0898 C   0  0  2  0  0  3  0  0  0  0  0  0
   -0.3934    1.8038   -0.7115 C   0  0  0  0  0  0  0  0  0  0  0  0
    0.2279    3.0120   -1.1500 C   0  0  0  0  0  0  0  0  0  0  0  0
    1.2470    3.2298   -0.8002 H   0  0  0  0  0  0  0  0  0  0  0  0
   -0.4064    3.8851   -2.0303 C   0  0  0  0  0  0  0  0  0  0  0  0
    0.1255    4.7896   -2.3650 H   0  0  0  0  0  0  0  0  0  0  0  0
   -1.7066    3.6149   -2.5116 C   0  0  0  0  0  0  0  0  0  0  0  0
   -2.2029    4.3082   -3.2058 H   0  0  0  0  0  0  0  0  0  0  0  0
   -2.3448    2.4472   -2.1010 C   0  0  0  0  0  3  0  0  0  0  0  0
   -3.3579    2.2065   -2.4533 H   0  0  0  0  0  0  0  0  0  0  0  0
   -1.7107    1.5347   -1.2224 C   0  0  0  0  0  0  0  0  0  0  0  0
   -2.4327    0.3698   -0.7661 C   0  0  0  0  0  0  0  0  0  0  0  0
   -4.2591   -0.8985   -0.4233 C   0  0  0  0  0  0  0  0  0  0  0  0
   -4.5664   -1.4787   -1.3193 H   0  0  0  0  0  0  0  0  0  0  0  0
   -5.1438   -0.7406    0.2234 H   0  0  0  0  0  0  0  0  0  0  0  0
   -3.0514   -1.5224    0.2993 C   0  0  2  0  0  0  0  0  0  0  0  0
   -2.9213   -2.5796    0.0006 H   0  0  0  0  0  0  0  0  0  0  0  0
   -3.0868   -1.4576    1.8468 C   0  0  0  0  0  0  0  0  0  0  0  0
   -2.1019   -1.8633    2.1659 H   0  0  0  0  0  0  0  0  0  0  0  0
   -4.1850   -2.3688    2.4040 C   0  0  0  0  0  0  0  0  0  0  0  0
   -4.0835   -3.4084    2.0296 H   0  0  0  0  0  0  0  0  0  0  0  0
   -5.1990   -2.0076    2.1281 H   0  0  0  0  0  0  0  0  0  0  0  0
   -4.1442   -2.4030    3.5110 H   0  0  0  0  0  0  0  0  0  0  0  0
   -3.1876   -0.0248    2.3802 C   0  0  0  0  0  0  0  0  0  0  0  0
   -2.3303    0.5873    2.0367 H   0  0  0  0  0  0  0  0  0  0  0  0
   -3.1787   -0.0219    3.4885 H   0  0  0  0  0  0  0  0  0  0  0  0
   -4.1239    0.4767    2.0561 H   0  0  0  0  0  0  0  0  0  0  0  0
  1 21  1  0  0  0  0
  2 42  1  0  0  0  0
  2 43  1  0  0  0  0
  4 21  1  0  0  0  0
  5 46  1  0  0  0  0
  6  7  1  1  0  0  0
  6 18  1  0  0  0  0
  6  4  1  0  0  0  0
  8  6  1  0  0  0  0
  9  8  1  0  0  0  0
 10 11  1  0  0  0  0
 10 13  1  0  0  0  0
 10  8  1  0  0  0  0
 12 10  1  0  0  0  0
 14  8  1  0  0  0  0
 14 16  1  0  0  0  0
 14 15  1  0  0  0  0
 17 14  1  0  0  0  0
 18 19  1  0  0  0  0
 18  1  1  0  0  0  0
 20 18  1  0  0  0  0
 21 22  2  0  0  0  0
 22 23  1  0  0  0  0
 23 24  1  0  0  0  0
 23 25  2  0  0  0  0
 25 26  1  0  0  0  0
 27 25  1  0  0  0  0
 27 28  1  0  0  0  0
 29 27  2  0  0  0  0
 30 29  1  0  0  0  0
 31  3  1  1  0  0  0
 31 22  1  0  0  0  0
 31 29  1  0  0  0  0
 32  3  1  0  0  0  0
 33 34  1  0  0  0  0
 33 32  2  0  0  0  0
 35 33  1  0  0  0  0
 36 35  1  0  0  0  0
 37 39  1  0  0  0  0
 37 35  2  0  0  0  0
 38 37  1  0  0  0  0
 39 41  1  0  0  0  0
 40 39  1  0  0  0  0
 41 42  2  0  0  0  0
 41 32  1  0  0  0  0
 42  5  1  0  0  0  0
 43 45  1  0  0  0  0
 43 46  1  0  0  0  0
 44 43  1  0  0  0  0
 46 47  1  6  0  0  0
 46 48  1  0  0  0  0
 48 49  1  0  0  0  0
 48 54  1  0  0  0  0
 48 50  1  0  0  0  0
 50 53  1  0  0  0  0
 51 50  1  0  0  0  0
 52 50  1  0  0  0  0
 54 56  1  0  0  0  0
 55 54  1  0  0  0  0
 57 54  1  0  0  0  0
M  END
