3,8,13
 OpenBabel05122313063D

 36 38  0  0  0  0  0  0  0  0999 V2000
   -3.2094   -3.4136    0.1080 S   0  0  0  0  0  0  0  0  0  0  0  0
    4.8960    5.0349    0.2315 Cl  0  0  0  0  0  0  0  0  0  0  0  0
    1.1581    0.5826   -1.0976 N   0  0  0  0  0  2  0  0  0  0  0  0
    2.0398    1.6451   -0.8106 C   0  0  0  0  0  0  0  0  0  0  0  0
    1.5830   -0.2548   -2.0075 N   0  0  0  0  0  0  0  0  0  0  0  0
    1.5414    2.8846   -0.3544 C   0  0  0  0  0  0  0  0  0  0  0  0
    0.4610    3.0426   -0.2607 H   0  0  0  0  0  0  0  0  0  0  0  0
   -0.1989   -1.4300   -1.2448 N   0  0  0  0  0  2  0  0  0  0  0  0
    2.4168    3.9285   -0.0407 C   0  0  0  0  0  0  0  0  0  0  0  0
    2.0286    4.8962    0.3064 H   0  0  0  0  0  0  0  0  0  0  0  0
   -1.0400   -2.4738   -1.2588 N   0  0  0  0  0  0  0  0  0  0  0  0
    3.8028    3.7405   -0.1785 C   0  0  0  0  0  0  0  0  0  0  0  0
   -1.8127   -1.2516    0.6051 N   0  0  0  0  0  2  0  0  0  0  0  0
    4.3154    2.5158   -0.6433 C   0  0  0  0  0  0  0  0  0  0  0  0
    5.4020    2.3829   -0.7425 H   0  0  0  0  0  0  0  0  0  0  0  0
    3.4378    1.4767   -0.9599 C   0  0  0  0  0  0  0  0  0  0  0  0
    3.8142    0.5080   -1.3141 H   0  0  0  0  0  0  0  0  0  0  0  0
    0.8264   -1.3580   -2.1283 C   0  0  0  0  0  0  0  0  0  0  0  0
    1.1222   -2.4217   -3.1420 C   0  0  0  0  0  0  0  0  0  0  0  0
    0.7383   -3.3783   -2.7328 H   0  0  0  0  0  0  0  0  0  0  0  0
    0.5103   -2.2319   -4.0542 H   0  0  0  0  0  0  0  0  0  0  0  0
    2.6045   -2.5177   -3.5079 C   0  0  0  0  0  0  0  0  0  0  0  0
    2.7673   -3.3031   -4.2718 H   0  0  0  0  0  0  0  0  0  0  0  0
    3.2165   -2.7700   -2.6182 H   0  0  0  0  0  0  0  0  0  0  0  0
    2.9800   -1.5566   -3.9091 H   0  0  0  0  0  0  0  0  0  0  0  0
   -1.8955   -2.3009   -0.2388 C   0  0  0  0  0  0  0  0  0  0  0  0
   -2.8053   -1.2676    1.5660 C   0  0  0  0  0  0  0  0  0  0  0  0
   -3.0210   -0.3259    2.5934 C   0  0  0  0  0  0  0  0  0  0  0  0
   -2.3672    0.5484    2.6793 H   0  0  0  0  0  0  0  0  0  0  0  0
   -4.0813   -0.5232    3.4842 C   0  0  0  0  0  0  0  0  0  0  0  0
   -4.2488    0.2123    4.2853 H   0  0  0  0  0  0  0  0  0  0  0  0
   -4.9345   -1.6410    3.3746 C   0  0  0  0  0  0  0  0  0  0  0  0
   -5.7608   -1.7739    4.0882 H   0  0  0  0  0  0  0  0  0  0  0  0
   -4.7392   -2.5893    2.3596 C   0  0  0  0  0  0  0  0  0  0  0  0
   -5.4006   -3.4631    2.2674 H   0  0  0  0  0  0  0  0  0  0  0  0
   -3.6798   -2.3945    1.4644 C   0  0  0  0  0  0  0  0  0  0  0  0
  1 36  1  0  0  0  0
  3  4  1  0  0  0  0
  4  6  1  0  0  0  0
  5  3  1  0  0  0  0
  6  7  1  0  0  0  0
  6  9  2  0  0  0  0
  9 10  1  0  0  0  0
 11  8  1  0  0  0  0
 11 26  2  0  0  0  0
 12  9  1  0  0  0  0
 12  2  1  0  0  0  0
 13 27  1  0  0  0  0
 14 12  2  0  0  0  0
 15 14  1  0  0  0  0
 16  4  2  0  0  0  0
 16 14  1  0  0  0  0
 17 16  1  0  0  0  0
 18  5  2  0  0  0  0
 18  8  1  0  0  0  0
 19 20  1  0  0  0  0
 19 18  1  0  0  0  0
 21 19  1  0  0  0  0
 22 19  1  0  0  0  0
 22 24  1  0  0  0  0
 23 22  1  0  0  0  0
 25 22  1  0  0  0  0
 26  1  1  0  0  0  0
 26 13  1  0  0  0  0
 27 28  1  0  0  0  0
 28 29  1  0  0  0  0
 28 30  2  0  0  0  0
 30 31  1  0  0  0  0
 32 30  1  0  0  0  0
 32 33  1  0  0  0  0
 34 32  2  0  0  0  0
 35 34  1  0  0  0  0
 36 27  2  0  0  0  0
 36 34  1  0  0  0  0
M  END
