4,5,6
 OpenBabel05122313063D

 55 58  0  0  1  0  0  0  0  0999 V2000
    0.2877   -0.0226   -1.7488 S   0  0  0  0  0  0  0  0  0  0  0  0
    0.1668    1.4405   -1.8639 O   0  0  0  0  0  0  0  0  0  0  0  0
   -0.3184   -0.9477   -2.7202 O   0  0  0  0  0  0  0  0  0  0  0  0
   -2.2437    1.6320    0.6958 N   0  0  0  0  0  2  0  0  0  0  0  0
   -0.6384   -0.3842   -0.1862 N   0  0  0  0  0  0  0  0  0  0  0  0
   -2.6878   -1.2836    1.1671 N   0  0  0  0  0  2  0  0  0  0  0  0
    6.3366   -0.2492    0.8271 N   0  0  0  0  0  0  0  0  0  0  0  0
   -3.0564    2.6942    0.9068 C   0  0  0  0  0  3  0  0  0  0  0  0
   -4.1012    2.5876    0.5818 H   0  0  0  0  0  0  0  0  0  0  0  0
   -2.6062    3.8794    1.4943 C   0  0  0  0  0  0  0  0  0  0  0  0
   -3.3093    4.7109    1.6423 H   0  0  0  0  0  0  0  0  0  0  0  0
   -1.2573    3.9858    1.8617 C   0  0  0  0  0  0  0  0  0  0  0  0
   -0.8662    4.9131    2.3052 H   0  0  0  0  0  0  0  0  0  0  0  0
   -0.4151    2.8875    1.6476 C   0  0  0  0  0  0  0  0  0  0  0  0
    0.6511    2.9224    1.9145 H   0  0  0  0  0  0  0  0  0  0  0  0
   -0.9441    1.7236    1.0742 C   0  0  0  0  0  0  0  0  0  0  0  0
   -0.1356    0.4714    0.9236 C   0  0  0  0  0  0  0  0  0  0  0  0
   -0.2322   -0.1110    1.8647 H   0  0  0  0  0  0  0  0  0  0  0  0
    0.9455    0.6944    0.8135 H   0  0  0  0  0  0  0  0  0  0  0  0
   -0.5542   -1.8216    0.1710 C   0  0  0  0  0  0  0  0  0  0  0  0
   -0.7698   -2.4115   -0.7441 H   0  0  0  0  0  0  0  0  0  0  0  0
    0.4616   -2.1016    0.5256 H   0  0  0  0  0  0  0  0  0  0  0  0
   -1.5930   -2.0893    1.2296 C   0  0  1  0  0  3  0  0  0  0  0  0
   -1.4562   -3.0776    2.2115 C   0  0  0  0  0  0  0  0  0  0  0  0
   -0.5529   -3.7043    2.2321 H   0  0  0  0  0  0  0  0  0  0  0  0
   -2.4809   -3.2502    3.1533 C   0  0  0  0  0  0  0  0  0  0  0  0
   -2.4012   -4.0259    3.9290 H   0  0  0  0  0  0  0  0  0  0  0  0
   -3.6011   -2.4101    3.0914 C   0  0  0  0  0  0  0  0  0  0  0  0
   -4.4262   -2.5004    3.8117 H   0  0  0  0  0  0  0  0  0  0  0  0
   -3.6661   -1.4391    2.0867 C   0  0  0  0  0  0  0  0  0  0  0  0
   -4.5333   -0.7686    2.0017 H   0  0  0  0  0  0  0  0  0  0  0  0
    1.9639   -0.5439   -1.3980 C   0  0  0  0  0  0  0  0  0  0  0  0
    2.2494   -1.8462   -1.8149 C   0  0  0  0  0  0  0  0  0  0  0  0
    1.4873   -2.4176   -2.3631 H   0  0  0  0  0  0  0  0  0  0  0  0
    3.5284   -2.3885   -1.5822 C   0  0  0  0  0  0  0  0  0  0  0  0
    3.7812   -3.3816   -1.9797 H   0  0  0  0  0  0  0  0  0  0  0  0
    4.4669   -1.6523   -0.8681 C   0  0  0  0  0  0  0  0  0  0  0  0
    5.4719   -2.0666   -0.7118 H   0  0  0  0  0  0  0  0  0  0  0  0
    4.1915   -0.3463   -0.3819 C   0  0  0  0  0  0  0  0  0  0  0  0
    5.1930    0.3964    0.3679 C   0  0  0  0  0  0  0  0  0  0  0  0
    4.9989    1.7752    0.5488 C   0  0  0  0  0  0  0  0  0  0  0  0
    5.7573    2.3733    1.0700 H   0  0  0  0  0  0  0  0  0  0  0  0
    3.8151    2.4003    0.1110 C   0  0  0  0  0  0  0  0  0  0  0  0
    3.6985    3.4837    0.2677 H   0  0  0  0  0  0  0  0  0  0  0  0
    2.7802    1.6884   -0.4868 C   0  0  0  0  0  0  0  0  0  0  0  0
    1.8727    2.2052   -0.8182 H   0  0  0  0  0  0  0  0  0  0  0  0
    2.9379    0.2956   -0.7383 C   0  0  0  0  0  0  0  0  0  0  0  0
    7.5186    0.5427    1.1217 C   0  0  0  0  0  0  0  0  0  0  0  0
    7.6875    1.2947    0.3280 H   0  0  0  0  0  0  0  0  0  0  0  0
    8.4005   -0.1276    1.1518 H   0  0  0  0  0  0  0  0  0  0  0  0
    7.4615    1.0666    2.1065 H   0  0  0  0  0  0  0  0  0  0  0  0
    6.2287   -1.4467    1.6582 C   0  0  0  0  0  0  0  0  0  0  0  0
    5.2331   -1.9121    1.5565 H   0  0  0  0  0  0  0  0  0  0  0  0
    6.3734   -1.1889    2.7338 H   0  0  0  0  0  0  0  0  0  0  0  0
    6.9996   -2.1975    1.3838 H   0  0  0  0  0  0  0  0  0  0  0  0
  1 32  1  0  0  0  0
  1  5  1  0  0  0  0
  2  1  2  0  0  0  0
  3  1  2  0  0  0  0
  4  8  1  0  0  0  0
  4 16  1  0  0  0  0
  5 20  1  0  0  0  0
  5 17  1  0  0  0  0
  6 23  1  0  0  0  0
  6 30  1  0  0  0  0
  7 48  1  0  0  0  0
  7 52  1  0  0  0  0
  8 10  1  0  0  0  0
  9  8  1  0  0  0  0
 10 11  1  0  0  0  0
 10 12  2  0  0  0  0
 12 13  1  0  0  0  0
 14 12  1  0  0  0  0
 14 15  1  0  0  0  0
 16 14  2  0  0  0  0
 17 16  1  0  0  0  0
 17 18  1  0  0  0  0
 19 17  1  0  0  0  0
 20 22  1  0  0  0  0
 21 20  1  0  0  0  0
 23 20  1  1  0  0  0
 23 24  1  0  0  0  0
 24 25  1  0  0  0  0
 24 26  2  0  0  0  0
 26 27  1  0  0  0  0
 28 26  1  0  0  0  0
 28 29  1  0  0  0  0
 30 28  2  0  0  0  0
 31 30  1  0  0  0  0
 32 47  1  0  0  0  0
 33 35  1  0  0  0  0
 33 32  2  0  0  0  0
 34 33  1  0  0  0  0
 35 37  2  0  0  0  0
 36 35  1  0  0  0  0
 37 38  1  0  0  0  0
 37 39  1  0  0  0  0
 39 40  1  0  0  0  0
 40 41  2  0  0  0  0
 40  7  1  0  0  0  0
 41 42  1  0  0  0  0
 43 44  1  0  0  0  0
 43 41  1  0  0  0  0
 45 43  2  0  0  0  0
 46 45  1  0  0  0  0
 47 45  1  0  0  0  0
 47 39  2  0  0  0  0
 48 50  1  0  0  0  0
 48 51  1  0  0  0  0
 49 48  1  0  0  0  0
 52 54  1  0  0  0  0
 53 52  1  0  0  0  0
 55 52  1  0  0  0  0
M  END
