3,4,5
 OpenBabel05122313063D

 35 37  0  0  1  0  0  0  0  0999 V2000
    2.5156   -1.1424   -2.4245 N   0  0  0  0  0  0  0  0  0  0  0  0
    2.2930   -0.3994   -3.0997 H   0  0  0  0  0  0  0  0  0  0  0  0
    1.6055   -1.3612   -1.4764 N   0  0  0  0  0  2  0  0  0  0  0  0
   -0.0412   -2.0490    0.2908 N   0  0  0  0  0  2  0  0  0  0  0  0
   -1.9778   -0.4174   -0.0232 N   0  0  0  0  0  2  0  0  0  0  0  0
   -3.2947   -1.3058    1.5994 O   0  0  0  0  0  0  0  0  0  0  0  0
    3.5314   -2.0547   -2.3572 C   0  0  0  0  0  3  0  0  0  0  0  0
    4.3708   -2.0268   -3.0589 H   0  0  0  0  0  0  0  0  0  0  0  0
    3.2461   -2.9127   -1.2958 C   0  0  0  0  0  0  0  0  0  0  0  0
    3.8470   -3.7639   -0.9632 H   0  0  0  0  0  0  0  0  0  0  0  0
    2.0094   -2.4552   -0.7630 C   0  0  0  0  0  0  0  0  0  0  0  0
    1.0597   -2.8737    0.2596 C   0  0  2  0  0  3  0  0  0  0  0  0
    1.1302   -3.9712    1.1329 C   0  0  0  0  0  0  0  0  0  0  0  0
    2.0116   -4.6272    1.1071 H   0  0  0  0  0  0  0  0  0  0  0  0
    0.0653   -4.2251    2.0159 C   0  0  0  0  0  0  0  0  0  0  0  0
    0.1168   -5.0824    2.7021 H   0  0  0  0  0  0  0  0  0  0  0  0
   -1.0712   -3.4004    2.0077 C   0  0  0  0  0  0  0  0  0  0  0  0
   -1.9308   -3.5851    2.6653 H   0  0  0  0  0  0  0  0  0  0  0  0
   -1.1004   -2.3187    1.1164 C   0  0  0  0  0  0  0  0  0  0  0  0
   -2.1529   -1.3427    0.8931 C   0  0  2  0  0  3  0  0  0  0  0  0
   -4.0624   -0.1830    1.0649 C   0  0  0  0  0  0  0  0  0  0  0  0
   -4.3009    0.4905    1.9104 H   0  0  0  0  0  0  0  0  0  0  0  0
   -5.0056   -0.5897    0.6477 H   0  0  0  0  0  0  0  0  0  0  0  0
   -3.1515    0.4707   -0.0127 C   0  0  2  0  0  0  0  0  0  0  0  0
   -2.8031    1.4701    0.3276 H   0  0  0  0  0  0  0  0  0  0  0  0
   -3.7626    0.6526   -1.4180 C   0  0  0  0  0  0  0  0  0  0  0  0
   -2.9060    0.9678   -2.0542 H   0  0  0  0  0  0  0  0  0  0  0  0
   -4.3149   -0.6456   -2.0105 C   0  0  0  0  0  0  0  0  0  0  0  0
   -5.1768   -1.0406   -1.4300 H   0  0  0  0  0  0  0  0  0  0  0  0
   -3.5233   -1.4203   -2.0728 H   0  0  0  0  0  0  0  0  0  0  0  0
   -4.6787   -0.4630   -3.0415 H   0  0  0  0  0  0  0  0  0  0  0  0
   -4.8029    1.7784   -1.3913 C   0  0  0  0  0  0  0  0  0  0  0  0
   -5.1905    1.9777   -2.4102 H   0  0  0  0  0  0  0  0  0  0  0  0
   -4.3753    2.7246   -0.9984 H   0  0  0  0  0  0  0  0  0  0  0  0
   -5.6770    1.5132   -0.7570 H   0  0  0  0  0  0  0  0  0  0  0  0
  1  7  1  0  0  0  0
  1  3  1  0  0  0  0
  2  1  1  0  0  0  0
  3 11  1  0  0  0  0
  4 19  1  0  0  0  0
  5 24  1  0  0  0  0
  5 20  1  0  0  0  0
  7  9  1  0  0  0  0
  8  7  1  0  0  0  0
  9 10  1  0  0  0  0
  9 11  2  0  0  0  0
 12 11  1  6  0  0  0
 12  4  1  0  0  0  0
 12 13  1  0  0  0  0
 13 15  2  0  0  0  0
 14 13  1  0  0  0  0
 15 16  1  0  0  0  0
 17 15  1  0  0  0  0
 17 18  1  0  0  0  0
 19 17  2  0  0  0  0
 20 19  1  1  0  0  0
 20  6  1  0  0  0  0
 21  6  1  0  0  0  0
 21 22  1  0  0  0  0
 23 21  1  0  0  0  0
 24 25  1  1  0  0  0
 24 21  1  0  0  0  0
 26 32  1  0  0  0  0
 26 24  1  0  0  0  0
 27 26  1  0  0  0  0
 28 29  1  0  0  0  0
 28 26  1  0  0  0  0
 30 28  1  0  0  0  0
 31 28  1  0  0  0  0
 32 34  1  0  0  0  0
 32 35  1  0  0  0  0
 33 32  1  0  0  0  0
M  END
