3,12,21
 OpenBabel05122313063D

 44 49  0  0  1  0  0  0  0  0999 V2000
    0.0011    0.0004   -1.0917 B   0  0  1  0  0  0  0  0  0  0  0  0
    0.9922   -1.0671   -0.5694 N   0  0  0  0  0  0  0  0  0  0  0  0
    1.1649   -1.2524    0.7656 N   0  0  0  0  0  2  0  0  0  0  0  0
    2.0692   -2.2137    0.9672 C   0  0  0  0  0  0  0  0  0  0  0  0
    3.4557   -3.6881   -0.7144 C   0  0  0  0  0  0  0  0  0  0  0  0
    3.6337   -3.8765   -2.0826 C   0  0  0  0  0  0  0  0  0  0  0  0
    2.9081   -3.1036   -3.0323 C   0  0  0  0  0  0  0  0  0  0  0  0
    1.9918   -2.1288   -2.6425 C   0  0  0  0  0  0  0  0  0  0  0  0
    1.8069   -1.9332   -1.2556 C   0  0  2  0  0  3  0  0  0  0  0  0
    2.5311   -2.7044   -0.2879 C   0  0  0  0  0  0  0  0  0  0  0  0
   -1.4198   -0.3253   -0.5723 N   0  0  0  0  0  0  0  0  0  0  0  0
   -1.6687   -0.3856    0.7622 N   0  0  0  0  0  2  0  0  0  0  0  0
   -2.9541   -0.6869    0.9609 C   0  0  0  0  0  0  0  0  0  0  0  0
   -4.9224   -1.1429   -0.7250 C   0  0  0  0  0  0  0  0  0  0  0  0
   -5.1725   -1.1985   -2.0937 C   0  0  0  0  0  0  0  0  0  0  0  0
   -4.1386   -0.9552   -3.0412 C   0  0  0  0  0  0  0  0  0  0  0  0
   -2.8364   -0.6521   -2.6485 C   0  0  0  0  0  0  0  0  0  0  0  0
   -2.5765   -0.5943   -1.2610 C   0  0  2  0  0  3  0  0  0  0  0  0
   -3.6083   -0.8372   -0.2956 C   0  0  0  0  0  0  0  0  0  0  0  0
    0.4286    1.3924   -0.5682 N   0  0  0  0  0  0  0  0  0  0  0  0
    0.4987    1.6345    0.7671 N   0  0  0  0  0  2  0  0  0  0  0  0
    0.8801    2.8978    0.9699 C   0  0  0  0  0  0  0  0  0  0  0  0
    1.4722    4.8349   -0.7097 C   0  0  0  0  0  0  0  0  0  0  0  0
    1.5516    5.0831   -2.0776 C   0  0  0  0  0  0  0  0  0  0  0  0
    1.2468    4.0686   -3.0284 C   0  0  0  0  0  0  0  0  0  0  0  0
    0.8574    2.7882   -2.6399 C   0  0  0  0  0  0  0  0  0  0  0  0
    0.7752    2.5305   -1.2532 C   0  0  2  0  0  3  0  0  0  0  0  0
    1.0791    3.5428   -0.2845 C   0  0  0  0  0  0  0  0  0  0  0  0
    0.0029    0.0013   -2.3091 H   0  0  0  0  0  0  0  0  0  0  0  0
    2.3478   -2.5095    1.9853 H   0  0  0  0  0  0  0  0  0  0  0  0
    4.0171   -4.2863    0.0187 H   0  0  0  0  0  0  0  0  0  0  0  0
    4.3460   -4.6343   -2.4416 H   0  0  0  0  0  0  0  0  0  0  0  0
    3.0766   -3.2822   -4.1052 H   0  0  0  0  0  0  0  0  0  0  0  0
    1.4337   -1.5345   -3.3785 H   0  0  0  0  0  0  0  0  0  0  0  0
   -3.3515   -0.7822    1.9781 H   0  0  0  0  0  0  0  0  0  0  0  0
   -5.7224   -1.3310    0.0065 H   0  0  0  0  0  0  0  0  0  0  0  0
   -6.1847   -1.4339   -2.4549 H   0  0  0  0  0  0  0  0  0  0  0  0
   -4.3760   -1.0083   -4.1146 H   0  0  0  0  0  0  0  0  0  0  0  0
   -2.0414   -0.4648   -3.3828 H   0  0  0  0  0  0  0  0  0  0  0  0
    0.9943    3.2868    1.9884 H   0  0  0  0  0  0  0  0  0  0  0  0
    1.7081    5.6198    0.0243 H   0  0  0  0  0  0  0  0  0  0  0  0
    1.8545    6.0783   -2.4356 H   0  0  0  0  0  0  0  0  0  0  0  0
    1.3213    4.3037   -4.1010 H   0  0  0  0  0  0  0  0  0  0  0  0
    0.6232    2.0082   -3.3766 H   0  0  0  0  0  0  0  0  0  0  0  0
  1 29  1  6  0  0  0
  1 11  1  0  0  0  0
  1  2  1  0  0  0  0
  1 20  1  0  0  0  0
  2  3  1  0  0  0  0
  3  4  1  0  0  0  0
  4 30  1  0  0  0  0
  5 10  1  0  0  0  0
  5 31  1  0  0  0  0
  6  5  2  0  0  0  0
  7  8  2  0  0  0  0
  7  6  1  0  0  0  0
  9  8  1  6  0  0  0
  9  2  1  0  0  0  0
  9 10  1  0  0  0  0
 10  4  2  0  0  0  0
 11 12  1  0  0  0  0
 12 13  1  0  0  0  0
 13 35  1  0  0  0  0
 14 19  1  0  0  0  0
 14 36  1  0  0  0  0
 15 14  2  0  0  0  0
 16 17  2  0  0  0  0
 16 15  1  0  0  0  0
 18 17  1  1  0  0  0
 18 11  1  0  0  0  0
 18 19  1  0  0  0  0
 19 13  2  0  0  0  0
 20 21  1  0  0  0  0
 21 22  1  0  0  0  0
 22 40  1  0  0  0  0
 23 28  1  0  0  0  0
 23 41  1  0  0  0  0
 24 23  2  0  0  0  0
 25 26  2  0  0  0  0
 25 24  1  0  0  0  0
 27 26  1  1  0  0  0
 27 20  1  0  0  0  0
 27 28  1  0  0  0  0
 28 22  2  0  0  0  0
 32  6  1  0  0  0  0
 33  7  1  0  0  0  0
 34  8  1  0  0  0  0
 37 15  1  0  0  0  0
 38 16  1  0  0  0  0
 39 17  1  0  0  0  0
 42 24  1  0  0  0  0
 43 25  1  0  0  0  0
 44 26  1  0  0  0  0
M  END
