1,11,18
 OpenBabel05122313063D

 29 30  0  0  0  0  0  0  0  0999 V2000
   -2.3107   -0.7349   -0.5252 N   0  0  0  0  0  0  0  0  0  0  0  0
   -3.2004   -0.6848   -1.5564 C   0  0  0  0  0  0  0  0  0  0  0  0
   -2.8598   -0.4393   -2.5707 H   0  0  0  0  0  0  0  0  0  0  0  0
   -4.5024   -0.9868   -1.0986 C   0  0  0  0  0  0  0  0  0  0  0  0
   -5.4101   -1.0213   -1.7124 H   0  0  0  0  0  0  0  0  0  0  0  0
   -4.3992   -1.2397    0.2859 C   0  0  0  0  0  0  0  0  0  0  0  0
   -5.2064   -1.5105    0.9772 H   0  0  0  0  0  0  0  0  0  0  0  0
   -3.0334   -1.0765    0.6145 C   0  0  0  0  0  3  0  0  0  0  0  0
   -2.2734   -1.1822    1.8093 C   0  0  0  0  0  3  0  0  0  0  0  0
   -2.7529   -1.4555    2.7706 H   0  0  0  0  0  0  0  0  0  0  0  0
   -0.9852   -0.9413    1.7233 N   0  0  0  0  0  2  0  0  0  0  0  0
   -0.0894   -0.9652    2.8681 C   0  0  0  0  0  0  0  0  0  0  0  0
   -0.3427   -1.7817    3.5796 H   0  0  0  0  0  0  0  0  0  0  0  0
   -0.1734   -0.0032    3.4252 H   0  0  0  0  0  0  0  0  0  0  0  0
    1.3315   -1.1135    2.3210 C   0  0  0  0  0  0  0  0  0  0  0  0
    2.0796   -0.8053    3.0870 H   0  0  0  0  0  0  0  0  0  0  0  0
    1.5276   -2.1881    2.0842 H   0  0  0  0  0  0  0  0  0  0  0  0
    1.4165   -0.2908    1.1254 N   0  0  0  0  0  2  0  0  0  0  0  0
    2.6609   -0.0672    0.5386 C   0  0  0  0  0  0  0  0  0  0  0  0
    3.8188   -0.8459    0.8121 C   0  0  0  0  0  0  0  0  0  0  0  0
    3.7721   -1.6548    1.5540 H   0  0  0  0  0  0  0  0  0  0  0  0
    5.0124   -0.6061    0.1223 C   0  0  0  0  0  0  0  0  0  0  0  0
    5.8961   -1.2228    0.3495 H   0  0  0  0  0  0  0  0  0  0  0  0
    5.0937    0.3936   -0.8635 C   0  0  0  0  0  0  0  0  0  0  0  0
    6.0348    0.5650   -1.4063 H   0  0  0  0  0  0  0  0  0  0  0  0
    3.9624    1.1779   -1.1354 C   0  0  0  0  0  0  0  0  0  0  0  0
    4.0091    1.9775   -1.8903 H   0  0  0  0  0  0  0  0  0  0  0  0
    2.7711    0.9725   -0.4277 C   0  0  0  0  0  0  0  0  0  0  0  0
    1.9093    1.6364   -0.6039 H   0  0  0  0  0  0  0  0  0  0  0  0
  1  8  1  0  0  0  0
  2  4  1  0  0  0  0
  2  1  2  0  0  0  0
  3  2  1  0  0  0  0
  4  6  2  0  0  0  0
  5  4  1  0  0  0  0
  6  8  1  0  0  0  0
  6  7  1  0  0  0  0
  8  9  1  0  0  0  0
  9 10  1  0  0  0  0
 11  9  1  0  0  0  0
 11 12  1  0  0  0  0
 12 14  1  0  0  0  0
 12 13  1  0  0  0  0
 15 12  1  0  0  0  0
 15 16  1  0  0  0  0
 17 15  1  0  0  0  0
 18 15  1  0  0  0  0
 19 20  1  0  0  0  0
 19 18  1  0  0  0  0
 20 21  1  0  0  0  0
 22 23  1  0  0  0  0
 22 20  2  0  0  0  0
 24 22  1  0  0  0  0
 25 24  1  0  0  0  0
 26 24  2  0  0  0  0
 26 28  1  0  0  0  0
 27 26  1  0  0  0  0
 28 19  2  0  0  0  0
 29 28  1  0  0  0  0
M  END
