1,8,15
 OpenBabel05122313063D

 59 59  0  0  0  0  0  0  0  0999 V2000
    0.2584    2.3620   -1.1336 N   0  0  0  0  0  0  0  0  0  0  0  0
    1.7439    0.8081   -2.4676 C   0  0  0  0  0  0  0  0  0  0  0  0
    0.8762    0.5243   -3.0974 H   0  0  0  0  0  0  0  0  0  0  0  0
    2.6175    0.8705   -3.1649 H   0  0  0  0  0  0  0  0  0  0  0  0
    1.5147    2.2123   -1.8862 C   0  0  0  0  0  0  0  0  0  0  0  0
    2.3588    2.4731   -1.2194 H   0  0  0  0  0  0  0  0  0  0  0  0
    1.5627    2.9467   -2.7268 H   0  0  0  0  0  0  0  0  0  0  0  0
    1.9082   -0.2360   -1.4525 N   0  0  0  0  0  0  0  0  0  0  0  0
    1.6468   -1.5969   -1.9310 C   0  0  0  0  0  0  0  0  0  0  0  0
    2.4960   -2.0063   -2.5337 H   0  0  0  0  0  0  0  0  0  0  0  0
    0.7864   -1.5405   -2.6283 H   0  0  0  0  0  0  0  0  0  0  0  0
    1.3351   -2.6127   -0.8158 C   0  0  0  0  0  0  0  0  0  0  0  0
    1.3179   -3.6261   -1.2868 H   0  0  0  0  0  0  0  0  0  0  0  0
    2.1799   -2.6367   -0.1024 H   0  0  0  0  0  0  0  0  0  0  0  0
    0.1039   -2.3168   -0.0809 N   0  0  0  0  0  0  0  0  0  0  0  0
    0.0512   -2.7250    1.3360 C   0  0  0  0  0  0  0  0  0  0  0  0
   -0.0332   -3.8353    1.4527 H   0  0  0  0  0  0  0  0  0  0  0  0
   -0.8627   -2.2645    1.7687 H   0  0  0  0  0  0  0  0  0  0  0  0
    1.2569   -2.3073    2.1814 C   0  0  0  0  0  0  0  0  0  0  0  0
    1.0263   -2.5701    3.2375 H   0  0  0  0  0  0  0  0  0  0  0  0
    2.1583   -2.8994    1.9046 H   0  0  0  0  0  0  0  0  0  0  0  0
    1.6137   -0.9409    2.0583 O   0  0  0  0  0  0  0  0  0  0  0  0
    1.1984   -0.0859    3.1259 C   0  0  0  0  0  0  0  0  0  0  0  0
    1.7101   -0.3760    4.0747 H   0  0  0  0  0  0  0  0  0  0  0  0
    0.0947   -0.1428    3.2697 H   0  0  0  0  0  0  0  0  0  0  0  0
    1.6114    1.3269    2.7759 C   0  0  0  0  0  0  0  0  0  0  0  0
    1.4408    1.9915    3.6555 H   0  0  0  0  0  0  0  0  0  0  0  0
    2.7002    1.3550    2.5269 H   0  0  0  0  0  0  0  0  0  0  0  0
    0.8473    1.7745    1.6638 O   0  0  0  0  0  0  0  0  0  0  0  0
    1.2723    2.9922    1.0957 C   0  0  0  0  0  0  0  0  0  0  0  0
    2.3407    2.9165    0.7699 H   0  0  0  0  0  0  0  0  0  0  0  0
    1.2328    3.8190    1.8450 H   0  0  0  0  0  0  0  0  0  0  0  0
    0.3472    3.3649   -0.0576 C   0  0  0  0  0  0  0  0  0  0  0  0
   -0.6668    3.4902    0.3676 H   0  0  0  0  0  0  0  0  0  0  0  0
    0.6661    4.3616   -0.4556 H   0  0  0  0  0  0  0  0  0  0  0  0
   -0.8460    2.6619   -2.0626 C   0  0  0  0  0  0  0  0  0  0  0  0
   -0.7777    1.9479   -2.9072 H   0  0  0  0  0  0  0  0  0  0  0  0
   -0.7100    3.6829   -2.5020 H   0  0  0  0  0  0  0  0  0  0  0  0
   -2.2552    2.5429   -1.4560 C   0  0  0  0  0  0  0  0  0  0  0  0
   -2.4089    1.5389   -0.9906 H   0  0  0  0  0  0  0  0  0  0  0  0
   -2.4198    3.2770   -0.6405 H   0  0  0  0  0  0  0  0  0  0  0  0
   -3.2696    2.7665   -2.4809 C   0  0  0  0  0  0  0  0  0  0  0  0
   -4.0572    2.9457   -3.3293 N   0  0  0  0  0  0  0  0  0  0  0  0
    3.1055   -0.0983   -0.6281 C   0  0  0  0  0  0  0  0  0  0  0  0
    2.9971   -0.7224    0.2785 H   0  0  0  0  0  0  0  0  0  0  0  0
    3.1498    0.9377   -0.2425 H   0  0  0  0  0  0  0  0  0  0  0  0
    4.4482   -0.4195   -1.3428 C   0  0  0  0  0  0  0  0  0  0  0  0
    4.4874   -1.4840   -1.6565 H   0  0  0  0  0  0  0  0  0  0  0  0
    4.5651    0.1863   -2.2668 H   0  0  0  0  0  0  0  0  0  0  0  0
    5.5826   -0.1511   -0.4661 C   0  0  0  0  0  0  0  0  0  0  0  0
    6.4543    0.0868    0.2797 N   0  0  0  0  0  0  0  0  0  0  0  0
   -1.1169   -2.6856   -0.8094 C   0  0  0  0  0  0  0  0  0  0  0  0
   -1.0373   -2.2996   -1.8452 H   0  0  0  0  0  0  0  0  0  0  0  0
   -1.9711   -2.1479   -0.3519 H   0  0  0  0  0  0  0  0  0  0  0  0
   -1.4068   -4.2120   -0.8654 C   0  0  0  0  0  0  0  0  0  0  0  0
   -0.4970   -4.7800   -1.1589 H   0  0  0  0  0  0  0  0  0  0  0  0
   -1.7090   -4.5909    0.1330 H   0  0  0  0  0  0  0  0  0  0  0  0
   -2.4618   -4.5310   -1.8213 C   0  0  0  0  0  0  0  0  0  0  0  0
   -3.3006   -4.7550   -2.6078 N   0  0  0  0  0  0  0  0  0  0  0  0
  1 33  1  0  0  0  0
  2  5  1  0  0  0  0
  2  8  1  0  0  0  0
  3  2  1  0  0  0  0
  4  2  1  0  0  0  0
  5  6  1  0  0  0  0
  5  1  1  0  0  0  0
  7  5  1  0  0  0  0
  8 44  1  0  0  0  0
  9  8  1  0  0  0  0
  9 12  1  0  0  0  0
 10  9  1  0  0  0  0
 11  9  1  0  0  0  0
 12 14  1  0  0  0  0
 12 15  1  0  0  0  0
 13 12  1  0  0  0  0
 15 16  1  0  0  0  0
 16 17  1  0  0  0  0
 16 18  1  0  0  0  0
 16 19  1  0  0  0  0
 19 20  1  0  0  0  0
 21 19  1  0  0  0  0
 22 19  1  0  0  0  0
 22 23  1  0  0  0  0
 23 25  1  0  0  0  0
 23 24  1  0  0  0  0
 26 23  1  0  0  0  0
 26 27  1  0  0  0  0
 28 26  1  0  0  0  0
 29 26  1  0  0  0  0
 30 29  1  0  0  0  0
 30 32  1  0  0  0  0
 31 30  1  0  0  0  0
 33 34  1  0  0  0  0
 33 30  1  0  0  0  0
 35 33  1  0  0  0  0
 36 39  1  0  0  0  0
 36  1  1  0  0  0  0
 37 36  1  0  0  0  0
 38 36  1  0  0  0  0
 39 40  1  0  0  0  0
 39 41  1  0  0  0  0
 42 39  1  0  0  0  0
 43 42  3  0  0  0  0
 44 46  1  0  0  0  0
 44 45  1  0  0  0  0
 47 44  1  0  0  0  0
 47 50  1  0  0  0  0
 48 47  1  0  0  0  0
 49 47  1  0  0  0  0
 50 51  3  0  0  0  0
 52 54  1  0  0  0  0
 52 15  1  0  0  0  0
 53 52  1  0  0  0  0
 55 52  1  0  0  0  0
 55 57  1  0  0  0  0
 56 55  1  0  0  0  0
 58 55  1  0  0  0  0
 59 58  3  0  0  0  0
M  END
