2,3,6
 OpenBabel05122313063D

 47 50  0  0  1  0  0  0  0  0999 V2000
   -1.6320    0.8815   -0.0261 N   0  0  0  0  0  0  0  0  0  0  0  0
   -1.4472   -0.4942    0.0288 N   0  0  0  0  0  2  0  0  0  0  0  0
    0.6173    0.7485    0.0261 N   0  0  0  0  0  2  0  0  0  0  0  0
   -2.9813    1.1915   -0.0709 C   0  0  1  0  0  3  0  0  0  0  0  0
    1.8945    1.2353   -0.0189 C   0  0  0  0  0  0  0  0  0  0  0  0
    2.3549   -1.0570    0.1251 N   0  0  0  0  0  2  0  0  0  0  0  0
   -0.4375    1.6068   -0.0502 C   0  0  0  0  0  0  0  0  0  0  0  0
    1.0996    3.4999   -0.1631 C   0  0  0  0  0  0  0  0  0  0  0  0
    1.2621    4.5849   -0.2333 H   0  0  0  0  0  0  0  0  0  0  0  0
   -2.8161   -2.5519   -0.0021 C   0  0  0  0  0  0  0  0  0  0  0  0
   -1.8956   -2.9479    0.4783 H   0  0  0  0  0  0  0  0  0  0  0  0
    3.2350   -2.0688    0.2131 C   0  0  0  0  0  0  0  0  0  0  0  0
    2.8053   -3.0776    0.2981 H   0  0  0  0  0  0  0  0  0  0  0  0
   -3.6484   -0.0308   -0.0509 C   0  0  0  0  0  0  0  0  0  0  0  0
   -4.7328   -0.1708   -0.0737 H   0  0  0  0  0  0  0  0  0  0  0  0
   -0.2121    2.9968   -0.1421 C   0  0  0  0  0  0  0  0  0  0  0  0
   -1.0589    3.6887   -0.2041 H   0  0  0  0  0  0  0  0  0  0  0  0
   -2.6632   -1.0556    0.0122 C   0  0  0  0  0  0  0  0  0  0  0  0
    2.2084    2.6109   -0.1021 C   0  0  0  0  0  0  0  0  0  0  0  0
    2.8697    0.2172    0.0423 C   0  0  0  0  0  0  0  0  0  0  0  0
    4.2509    0.5445    0.0360 C   0  0  0  0  0  0  0  0  0  0  0  0
   -2.8672   -3.0700   -1.4524 C   0  0  0  0  0  0  0  0  0  0  0  0
   -3.7628   -2.6816   -1.9814 H   0  0  0  0  0  0  0  0  0  0  0  0
   -2.9178   -4.1781   -1.4632 H   0  0  0  0  0  0  0  0  0  0  0  0
   -1.9644   -2.7506   -2.0098 H   0  0  0  0  0  0  0  0  0  0  0  0
    4.5841    1.9457   -0.0508 C   0  0  0  0  0  0  0  0  0  0  0  0
    5.6479    2.2282   -0.0618 H   0  0  0  0  0  0  0  0  0  0  0  0
   -3.5279    2.5938   -0.0542 C   0  0  0  0  0  0  0  0  0  0  0  0
   -2.9408    3.1966   -0.7829 H   0  0  0  0  0  0  0  0  0  0  0  0
    5.1507   -0.5488    0.1204 C   0  0  0  0  0  0  0  0  0  0  0  0
    6.2375   -0.3767    0.1170 H   0  0  0  0  0  0  0  0  0  0  0  0
   -3.3818    3.2319    1.3429 C   0  0  0  0  0  0  0  0  0  0  0  0
   -3.9981    2.6773    2.0789 H   0  0  0  0  0  0  0  0  0  0  0  0
   -3.7237    4.2868    1.3298 H   0  0  0  0  0  0  0  0  0  0  0  0
   -2.3355    3.2146    1.7067 H   0  0  0  0  0  0  0  0  0  0  0  0
    4.6287   -1.8444    0.2109 C   0  0  0  0  0  0  0  0  0  0  0  0
    5.3005   -2.7119    0.2818 H   0  0  0  0  0  0  0  0  0  0  0  0
   -4.0291   -3.0047    0.8196 C   0  0  0  0  0  0  0  0  0  0  0  0
   -3.9672   -2.6438    1.8655 H   0  0  0  0  0  0  0  0  0  0  0  0
   -4.0872   -4.1113    0.8415 H   0  0  0  0  0  0  0  0  0  0  0  0
   -4.9800   -2.6349    0.3808 H   0  0  0  0  0  0  0  0  0  0  0  0
    3.6134    2.9313   -0.1181 C   0  0  0  0  0  0  0  0  0  0  0  0
    3.9127    3.9885   -0.1834 H   0  0  0  0  0  0  0  0  0  0  0  0
   -4.9897    2.6208   -0.5185 C   0  0  0  0  0  0  0  0  0  0  0  0
   -5.1077    2.1679   -1.5222 H   0  0  0  0  0  0  0  0  0  0  0  0
   -5.3592    3.6642   -0.5620 H   0  0  0  0  0  0  0  0  0  0  0  0
   -5.6422    2.0678    0.1877 H   0  0  0  0  0  0  0  0  0  0  0  0
  1  2  1  0  0  0  0
  4 28  1  1  0  0  0
  4 14  1  0  0  0  0
  4  1  1  0  0  0  0
  5  3  1  0  0  0  0
  5 20  2  0  0  0  0
  6 12  1  0  0  0  0
  7  1  1  0  0  0  0
  7  3  1  0  0  0  0
  8 16  1  0  0  0  0
  8 19  2  0  0  0  0
  9  8  1  0  0  0  0
 10 18  1  0  0  0  0
 10 11  1  0  0  0  0
 10 38  1  0  0  0  0
 12 13  1  0  0  0  0
 14 18  2  0  0  0  0
 15 14  1  0  0  0  0
 16  7  2  0  0  0  0
 17 16  1  0  0  0  0
 18  2  1  0  0  0  0
 19  5  1  0  0  0  0
 20  6  1  0  0  0  0
 21 20  1  0  0  0  0
 21 30  2  0  0  0  0
 22 10  1  0  0  0  0
 23 22  1  0  0  0  0
 24 22  1  0  0  0  0
 25 22  1  0  0  0  0
 26 21  1  0  0  0  0
 27 26  1  0  0  0  0
 28 32  1  0  0  0  0
 29 28  1  0  0  0  0
 30 36  1  0  0  0  0
 31 30  1  0  0  0  0
 32 35  1  0  0  0  0
 32 33  1  0  0  0  0
 34 32  1  0  0  0  0
 36 12  2  0  0  0  0
 36 37  1  0  0  0  0
 38 40  1  0  0  0  0
 38 39  1  0  0  0  0
 41 38  1  0  0  0  0
 42 19  1  0  0  0  0
 42 26  2  0  0  0  0
 43 42  1  0  0  0  0
 44 28  1  0  0  0  0
 44 47  1  0  0  0  0
 45 44  1  0  0  0  0
 46 44  1  0  0  0  0
M  END
