1,4,7
 OpenBabel05122313063D

 36 36  0  0  0  0  0  0  0  0999 V2000
   -0.6343    1.8474    0.0009 N   0  0  0  0  0  0  0  0  0  0  0  0
   -1.4251    1.7589   -1.2492 C   0  0  0  0  0  0  0  0  0  0  0  0
   -1.8517    0.3368   -1.6324 C   0  0  0  0  0  0  0  0  0  0  0  0
   -0.7280   -0.6233   -1.5790 N   0  0  0  0  0  0  0  0  0  0  0  0
   -1.1608   -2.0178   -1.3169 C   0  0  0  0  0  0  0  0  0  0  0  0
   -1.9044   -2.2664   -0.0009 C   0  0  0  0  0  0  0  0  0  0  0  0
   -0.7277   -0.6248    1.5785 N   0  0  0  0  0  0  0  0  0  0  0  0
   -1.1605   -2.0191    1.3151 C   0  0  0  0  0  0  0  0  0  0  0  0
   -1.8515    0.3352    1.6329 C   0  0  0  0  0  0  0  0  0  0  0  0
   -1.4248    1.7578    1.2510 C   0  0  0  0  0  0  0  0  0  0  0  0
    0.1738    3.0818    0.0014 C   0  0  0  0  0  0  0  0  0  0  0  0
    0.0657   -0.5736   -2.8191 C   0  0  0  0  0  0  0  0  0  0  0  0
    0.0661   -0.5763    2.8186 C   0  0  0  0  0  0  0  0  0  0  0  0
   -0.7882    2.1741   -2.0556 H   0  0  0  0  0  0  0  0  0  0  0  0
   -2.3306    2.4100   -1.2022 H   0  0  0  0  0  0  0  0  0  0  0  0
   -2.6500   -0.0162   -0.9581 H   0  0  0  0  0  0  0  0  0  0  0  0
   -2.3082    0.3654   -2.6498 H   0  0  0  0  0  0  0  0  0  0  0  0
   -0.2412   -2.6393   -1.3401 H   0  0  0  0  0  0  0  0  0  0  0  0
   -1.8041   -2.3772   -2.1576 H   0  0  0  0  0  0  0  0  0  0  0  0
   -2.8863   -1.7483   -0.0006 H   0  0  0  0  0  0  0  0  0  0  0  0
   -2.1773   -3.3421   -0.0014 H   0  0  0  0  0  0  0  0  0  0  0  0
   -1.8037   -2.3792    2.1557 H   0  0  0  0  0  0  0  0  0  0  0  0
   -0.2410   -2.6405    1.3376 H   0  0  0  0  0  0  0  0  0  0  0  0
   -2.3078    0.3630    2.6504 H   0  0  0  0  0  0  0  0  0  0  0  0
   -2.6498   -0.0171    0.9584 H   0  0  0  0  0  0  0  0  0  0  0  0
   -2.3304    2.4089    1.2048 H   0  0  0  0  0  0  0  0  0  0  0  0
   -0.7878    2.1721    2.0577 H   0  0  0  0  0  0  0  0  0  0  0  0
   -0.4574    4.0012    0.0018 H   0  0  0  0  0  0  0  0  0  0  0  0
    0.8228    3.1015   -0.8943 H   0  0  0  0  0  0  0  0  0  0  0  0
    0.8229    3.1007    0.8970 H   0  0  0  0  0  0  0  0  0  0  0  0
   -0.5263   -0.9140   -3.7022 H   0  0  0  0  0  0  0  0  0  0  0  0
    0.9567   -1.2219   -2.7179 H   0  0  0  0  0  0  0  0  0  0  0  0
    0.4162    0.4586   -3.0073 H   0  0  0  0  0  0  0  0  0  0  0  0
   -0.5258   -0.9175    3.7014 H   0  0  0  0  0  0  0  0  0  0  0  0
    0.4166    0.4558    3.0077 H   0  0  0  0  0  0  0  0  0  0  0  0
    0.9572   -1.2244    2.7166 H   0  0  0  0  0  0  0  0  0  0  0  0
  1 11  1  0  0  0  0
  1 10  1  0  0  0  0
  2 15  1  0  0  0  0
  2  1  1  0  0  0  0
  3  4  1  0  0  0  0
  3  2  1  0  0  0  0
  3 16  1  0  0  0  0
  4  5  1  0  0  0  0
  5  6  1  0  0  0  0
  6 20  1  0  0  0  0
  6  8  1  0  0  0  0
  7  9  1  0  0  0  0
  7 13  1  0  0  0  0
  8 23  1  0  0  0  0
  8  7  1  0  0  0  0
  8 22  1  0  0  0  0
  9 24  1  0  0  0  0
 10  9  1  0  0  0  0
 10 27  1  0  0  0  0
 11 28  1  0  0  0  0
 11 30  1  0  0  0  0
 12 32  1  0  0  0  0
 12  4  1  0  0  0  0
 13 35  1  0  0  0  0
 13 34  1  0  0  0  0
 14  2  1  0  0  0  0
 17  3  1  0  0  0  0
 18  5  1  0  0  0  0
 19  5  1  0  0  0  0
 21  6  1  0  0  0  0
 25  9  1  0  0  0  0
 26 10  1  0  0  0  0
 29 11  1  0  0  0  0
 31 12  1  0  0  0  0
 33 12  1  0  0  0  0
 36 13  1  0  0  0  0
M  END
