1,5,9
 OpenBabel05122313063D

 60 60  0  0  0  0  0  0  0  0999 V2000
    1.8534   -0.6879   -0.3126 N   0  0  0  0  0  0  0  0  0  0  0  0
    2.3802    0.3064   -1.2922 C   0  0  0  0  0  0  0  0  0  0  0  0
    2.2364    1.7771   -0.8775 C   0  0  0  0  0  0  0  0  0  0  0  0
    0.8765    2.4229   -1.1566 C   0  0  0  0  0  0  0  0  0  0  0  0
   -0.2272    2.0170   -0.2416 N   0  0  0  0  0  0  0  0  0  0  0  0
   -1.5334    2.1160   -0.9482 C   0  0  0  0  0  0  0  0  0  0  0  0
   -1.8117    0.9449   -1.9044 C   0  0  0  0  0  0  0  0  0  0  0  0
   -2.4544   -0.3045   -1.2876 C   0  0  0  0  0  0  0  0  0  0  0  0
   -1.6215   -1.1289   -0.3531 N   0  0  0  0  0  0  0  0  0  0  0  0
   -1.0139   -2.3021   -1.0496 C   0  0  0  0  0  0  0  0  0  0  0  0
    0.2934   -2.0542   -1.8195 C   0  0  0  0  0  0  0  0  0  0  0  0
    1.5896   -1.9875   -0.9952 C   0  0  0  0  0  0  0  0  0  0  0  0
    2.8093   -0.8355    0.8487 C   0  0  0  0  0  0  0  0  0  0  0  0
    2.0822   -1.3553    2.0843 C   0  0  0  0  0  0  0  0  0  0  0  0
    4.0633   -1.6596    0.5319 C   0  0  0  0  0  0  0  0  0  0  0  0
   -0.1885    2.7993    1.0448 C   0  0  0  0  0  0  0  0  0  0  0  0
   -0.6732    4.2484    0.9215 C   0  0  0  0  0  0  0  0  0  0  0  0
   -0.9314    2.0409    2.1443 C   0  0  0  0  0  0  0  0  0  0  0  0
   -2.4578   -1.5563    0.8350 C   0  0  0  0  0  0  0  0  0  0  0  0
   -3.5752   -2.5448    0.4816 C   0  0  0  0  0  0  0  0  0  0  0  0
   -1.5877   -2.0679    1.9782 C   0  0  0  0  0  0  0  0  0  0  0  0
    1.8449    0.1526   -2.2512 H   0  0  0  0  0  0  0  0  0  0  0  0
    3.4497    0.0780   -1.5056 H   0  0  0  0  0  0  0  0  0  0  0  0
    2.5288    1.9183    0.1849 H   0  0  0  0  0  0  0  0  0  0  0  0
    2.9877    2.3542   -1.4562 H   0  0  0  0  0  0  0  0  0  0  0  0
    0.9771    3.5322   -1.1488 H   0  0  0  0  0  0  0  0  0  0  0  0
    0.5733    2.1592   -2.1898 H   0  0  0  0  0  0  0  0  0  0  0  0
   -1.5869    3.0762   -1.5109 H   0  0  0  0  0  0  0  0  0  0  0  0
   -2.3368    2.1568   -0.1859 H   0  0  0  0  0  0  0  0  0  0  0  0
   -0.8986    0.6863   -2.4806 H   0  0  0  0  0  0  0  0  0  0  0  0
   -2.5337    1.3071   -2.6669 H   0  0  0  0  0  0  0  0  0  0  0  0
   -3.3486    0.0299   -0.7230 H   0  0  0  0  0  0  0  0  0  0  0  0
   -2.8333   -0.9529   -2.1091 H   0  0  0  0  0  0  0  0  0  0  0  0
   -1.7610   -2.7373   -1.7522 H   0  0  0  0  0  0  0  0  0  0  0  0
   -0.8137   -3.0786   -0.2851 H   0  0  0  0  0  0  0  0  0  0  0  0
    0.4110   -2.9210   -2.5041 H   0  0  0  0  0  0  0  0  0  0  0  0
    0.2010   -1.1789   -2.4963 H   0  0  0  0  0  0  0  0  0  0  0  0
    1.5488   -2.7743   -0.2156 H   0  0  0  0  0  0  0  0  0  0  0  0
    2.4497   -2.2433   -1.6557 H   0  0  0  0  0  0  0  0  0  0  0  0
    3.1332    0.2017    1.0728 H   0  0  0  0  0  0  0  0  0  0  0  0
    1.2464   -0.6765    2.3546 H   0  0  0  0  0  0  0  0  0  0  0  0
    2.7736   -1.4052    2.9482 H   0  0  0  0  0  0  0  0  0  0  0  0
    1.6688   -2.3729    1.9331 H   0  0  0  0  0  0  0  0  0  0  0  0
    4.7924   -1.5514    1.3580 H   0  0  0  0  0  0  0  0  0  0  0  0
    4.5715   -1.3252   -0.3943 H   0  0  0  0  0  0  0  0  0  0  0  0
    3.8394   -2.7400    0.4323 H   0  0  0  0  0  0  0  0  0  0  0  0
    0.8864    2.8172    1.3237 H   0  0  0  0  0  0  0  0  0  0  0  0
   -0.1700    4.7954    0.0996 H   0  0  0  0  0  0  0  0  0  0  0  0
   -0.4527    4.7957    1.8583 H   0  0  0  0  0  0  0  0  0  0  0  0
   -1.7673    4.3071    0.7561 H   0  0  0  0  0  0  0  0  0  0  0  0
   -0.5303    1.0060    2.2415 H   0  0  0  0  0  0  0  0  0  0  0  0
   -2.0201    1.9714    1.9448 H   0  0  0  0  0  0  0  0  0  0  0  0
   -0.8076    2.5461    3.1223 H   0  0  0  0  0  0  0  0  0  0  0  0
   -2.9246   -0.6098    1.1812 H   0  0  0  0  0  0  0  0  0  0  0  0
   -4.2134   -2.1838   -0.3487 H   0  0  0  0  0  0  0  0  0  0  0  0
   -4.2325   -2.6932    1.3603 H   0  0  0  0  0  0  0  0  0  0  0  0
   -3.1744   -3.5396    0.2025 H   0  0  0  0  0  0  0  0  0  0  0  0
   -0.7994   -1.3311    2.2318 H   0  0  0  0  0  0  0  0  0  0  0  0
   -1.0946   -3.0330    1.7441 H   0  0  0  0  0  0  0  0  0  0  0  0
   -2.2084   -2.2315    2.8807 H   0  0  0  0  0  0  0  0  0  0  0  0
  1 13  1  0  0  0  0
  2  3  1  0  0  0  0
  2  1  1  0  0  0  0
  3 24  1  0  0  0  0
  4 26  1  0  0  0  0
  4  3  1  0  0  0  0
  4  5  1  0  0  0  0
  5 16  1  0  0  0  0
  6  5  1  0  0  0  0
  6 29  1  0  0  0  0
  7  8  1  0  0  0  0
  7  6  1  0  0  0  0
  8 32  1  0  0  0  0
  8  9  1  0  0  0  0
  9 19  1  0  0  0  0
 10  9  1  0  0  0  0
 10 35  1  0  0  0  0
 11 10  1  0  0  0  0
 11 12  1  0  0  0  0
 12  1  1  0  0  0  0
 12 38  1  0  0  0  0
 13 40  1  0  0  0  0
 13 14  1  0  0  0  0
 14 41  1  0  0  0  0
 14 42  1  0  0  0  0
 15 13  1  0  0  0  0
 15 44  1  0  0  0  0
 16 47  1  0  0  0  0
 16 18  1  0  0  0  0
 17 16  1  0  0  0  0
 17 49  1  0  0  0  0
 18 51  1  0  0  0  0
 18 53  1  0  0  0  0
 19 54  1  0  0  0  0
 19 21  1  0  0  0  0
 20 19  1  0  0  0  0
 20 56  1  0  0  0  0
 21 58  1  0  0  0  0
 21 60  1  0  0  0  0
 22  2  1  0  0  0  0
 23  2  1  0  0  0  0
 25  3  1  0  0  0  0
 27  4  1  0  0  0  0
 28  6  1  0  0  0  0
 30  7  1  0  0  0  0
 31  7  1  0  0  0  0
 33  8  1  0  0  0  0
 34 10  1  0  0  0  0
 36 11  1  0  0  0  0
 37 11  1  0  0  0  0
 39 12  1  0  0  0  0
 43 14  1  0  0  0  0
 45 15  1  0  0  0  0
 46 15  1  0  0  0  0
 48 17  1  0  0  0  0
 50 17  1  0  0  0  0
 52 18  1  0  0  0  0
 55 20  1  0  0  0  0
 57 20  1  0  0  0  0
 59 21  1  0  0  0  0
M  END
