2,3,8
 OpenBabel05122313063D

 29 31  0  0  1  0  0  0  0  0999 V2000
    5.2754   -0.0031   -0.0072 Cl  0  0  0  0  0  0  0  0  0  0  0  0
   -0.8006   -2.0515    0.0602 N   0  0  0  0  0  2  0  0  0  0  0  0
    0.8224   -0.0005    0.1880 N   0  0  0  0  0  2  0  0  0  0  0  0
    1.4599    1.1905    0.1208 C   0  0  0  0  0  0  0  0  0  0  0  0
    0.5449    2.3513    0.0694 C   0  0  0  0  0  0  0  0  0  0  0  0
    0.5421   -2.3519    0.0694 C   0  0  2  0  0  3  0  0  0  0  0  0
    1.4585   -1.1922    0.1208 C   0  0  0  0  0  0  0  0  0  0  0  0
   -0.7982    2.0525    0.0602 N   0  0  0  0  0  2  0  0  0  0  0  0
    3.5561   -0.0021    0.0525 C   0  0  0  0  0  0  0  0  0  0  0  0
   -1.6983    3.0519   -0.0252 C   0  0  0  0  0  0  0  0  0  0  0  0
   -2.7563    2.7569   -0.0387 H   0  0  0  0  0  0  0  0  0  0  0  0
    2.8594   -1.2262    0.0649 C   0  0  0  0  0  0  0  0  0  0  0  0
    3.4154   -2.1707    0.0143 H   0  0  0  0  0  0  0  0  0  0  0  0
    2.8609    1.2228    0.0648 C   0  0  0  0  0  0  0  0  0  0  0  0
    3.4180    2.1667    0.0142 H   0  0  0  0  0  0  0  0  0  0  0  0
    0.9835    3.6820    0.0055 C   0  0  0  0  0  0  0  0  0  0  0  0
    2.0588    3.9050    0.0164 H   0  0  0  0  0  0  0  0  0  0  0  0
   -1.7019   -3.0499   -0.0252 C   0  0  0  0  0  0  0  0  0  0  0  0
   -2.7596   -2.7536   -0.0387 H   0  0  0  0  0  0  0  0  0  0  0  0
   -1.3168    4.3970   -0.0976 C   0  0  0  0  0  0  0  0  0  0  0  0
   -2.0908    5.1738   -0.1691 H   0  0  0  0  0  0  0  0  0  0  0  0
   -1.3221   -4.3955   -0.0977 C   0  0  0  0  0  0  0  0  0  0  0  0
   -2.0970   -5.1713   -0.1691 H   0  0  0  0  0  0  0  0  0  0  0  0
    0.0404   -4.7189   -0.0787 C   0  0  0  0  0  0  0  0  0  0  0  0
    0.3720   -5.7658   -0.1321 H   0  0  0  0  0  0  0  0  0  0  0  0
    0.0460    4.7188   -0.0786 C   0  0  0  0  0  0  0  0  0  0  0  0
    0.3788    5.7654   -0.1321 H   0  0  0  0  0  0  0  0  0  0  0  0
    0.9792   -3.6831    0.0054 C   0  0  0  0  0  0  0  0  0  0  0  0
    2.0542   -3.9074    0.0164 H   0  0  0  0  0  0  0  0  0  0  0  0
  1  9  1  0  0  0  0
  2  6  1  0  0  0  0
  4  3  1  0  0  0  0
  5  4  2  0  0  0  0
  6  7  1  6  0  0  0
  7  3  1  0  0  0  0
  8  5  1  0  0  0  0
  9 14  2  0  0  0  0
  9 12  1  0  0  0  0
 10  8  1  0  0  0  0
 11 10  1  0  0  0  0
 12  7  2  0  0  0  0
 13 12  1  0  0  0  0
 14  4  1  0  0  0  0
 15 14  1  0  0  0  0
 16 17  1  0  0  0  0
 16  5  1  0  0  0  0
 18  2  1  0  0  0  0
 19 18  1  0  0  0  0
 20 26  1  0  0  0  0
 20 10  2  0  0  0  0
 21 20  1  0  0  0  0
 22 24  1  0  0  0  0
 22 18  2  0  0  0  0
 23 22  1  0  0  0  0
 24 28  2  0  0  0  0
 25 24  1  0  0  0  0
 26 16  2  0  0  0  0
 27 26  1  0  0  0  0
 28 29  1  0  0  0  0
 28  6  1  0  0  0  0
M  END
