1,2,3
 OpenBabel05122313063D

 37 41  0  0  1  0  0  0  0  0999 V2000
   -0.1959   -2.2131   -0.7886 N   0  0  0  0  0  2  0  0  0  0  0  0
    1.2236   -0.0300   -0.9629 N   0  0  0  0  0  2  0  0  0  0  0  0
   -0.4503    1.8882   -0.7777 N   0  0  0  0  0  2  0  0  0  0  0  0
    1.1598   -2.3748   -0.9842 C   0  0  0  0  0  0  0  0  0  0  0  0
    1.9265   -1.1843   -1.1213 C   0  0  0  0  0  0  0  0  0  0  0  0
    1.7842    1.1689   -1.2424 C   0  0  0  0  0  0  0  0  0  0  0  0
    3.1607    1.2299   -1.5891 C   0  0  0  0  0  0  0  0  0  0  0  0
    3.9187    0.0652   -1.6692 C   0  0  0  0  0  0  0  0  0  0  0  0
    3.3035   -1.2007   -1.4484 C   0  0  0  0  0  0  0  0  0  0  0  0
    3.9350   -2.4882   -1.5440 C   0  0  0  0  0  0  0  0  0  0  0  0
    3.2164   -3.6531   -1.3571 C   0  0  0  0  0  0  0  0  0  0  0  0
    1.7999   -3.6391   -1.0883 C   0  0  0  0  0  0  0  0  0  0  0  0
    0.9802   -4.7879   -0.9368 C   0  0  0  0  0  0  0  0  0  0  0  0
   -0.3858   -4.6174   -0.7194 C   0  0  0  0  0  0  0  0  0  0  0  0
   -0.9438   -3.3220   -0.6630 C   0  0  0  0  0  0  0  0  0  0  0  0
    0.8231    2.2609   -1.1157 C   0  0  0  0  0  0  0  0  0  0  0  0
   -1.3833    2.8800   -0.5346 C   0  0  1  0  0  3  0  0  0  0  0  0
   -2.6946    2.5433   -0.1059 C   0  0  0  0  0  0  0  0  0  0  0  0
   -3.6357    3.5310    0.1516 C   0  0  0  0  0  0  0  0  0  0  0  0
   -3.3155    4.9019   -0.0159 C   0  0  0  0  0  0  0  0  0  0  0  0
   -2.0419    5.2638   -0.4294 C   0  0  0  0  0  0  0  0  0  0  0  0
   -1.0513    4.2764   -0.6891 C   0  0  0  0  0  0  0  0  0  0  0  0
    0.2689    4.6200   -1.0939 C   0  0  0  0  0  0  0  0  0  0  0  0
    1.1962    3.6193   -1.2923 C   0  0  0  0  0  0  0  0  0  0  0  0
    3.6284    2.2015   -1.7953 H   0  0  0  0  0  0  0  0  0  0  0  0
    4.9879    0.1175   -1.9186 H   0  0  0  0  0  0  0  0  0  0  0  0
    5.0094   -2.5345   -1.7762 H   0  0  0  0  0  0  0  0  0  0  0  0
    3.7201   -4.6282   -1.4356 H   0  0  0  0  0  0  0  0  0  0  0  0
    1.4211   -5.7936   -1.0027 H   0  0  0  0  0  0  0  0  0  0  0  0
   -1.0515   -5.4847   -0.6075 H   0  0  0  0  0  0  0  0  0  0  0  0
   -2.0249   -3.1755   -0.5281 H   0  0  0  0  0  0  0  0  0  0  0  0
   -2.9425    1.4865    0.0187 H   0  0  0  0  0  0  0  0  0  0  0  0
   -4.6432    3.2430    0.4870 H   0  0  0  0  0  0  0  0  0  0  0  0
   -4.0739    5.6729    0.1836 H   0  0  0  0  0  0  0  0  0  0  0  0
   -1.7733    6.3230   -0.5601 H   0  0  0  0  0  0  0  0  0  0  0  0
    0.5363    5.6780   -1.2338 H   0  0  0  0  0  0  0  0  0  0  0  0
    2.2269    3.8562   -1.5866 H   0  0  0  0  0  0  0  0  0  0  0  0
  1 15  1  0  0  0  0
  4  1  1  0  0  0  0
  5  4  2  0  0  0  0
  5  2  1  0  0  0  0
  6 16  1  0  0  0  0
  6  2  1  0  0  0  0
  7  6  2  0  0  0  0
  8  7  1  0  0  0  0
  8  9  2  0  0  0  0
  9  5  1  0  0  0  0
 10  9  1  0  0  0  0
 10 11  2  0  0  0  0
 11 12  1  0  0  0  0
 12  4  1  0  0  0  0
 12 13  2  0  0  0  0
 13 14  1  0  0  0  0
 14 15  2  0  0  0  0
 14 30  1  0  0  0  0
 15 31  1  0  0  0  0
 16  3  1  0  0  0  0
 17  3  1  1  0  0  0
 17 18  1  0  0  0  0
 18 32  1  0  0  0  0
 18 19  2  0  0  0  0
 19 33  1  0  0  0  0
 20 19  1  0  0  0  0
 20 34  1  0  0  0  0
 21 20  2  0  0  0  0
 22 17  1  0  0  0  0
 22 21  1  0  0  0  0
 23 22  2  0  0  0  0
 24 16  2  0  0  0  0
 24 23  1  0  0  0  0
 25  7  1  0  0  0  0
 26  8  1  0  0  0  0
 27 10  1  0  0  0  0
 28 11  1  0  0  0  0
 29 13  1  0  0  0  0
 35 21  1  0  0  0  0
 36 23  1  0  0  0  0
 37 24  1  0  0  0  0
M  END
