1,2,3
 OpenBabel05122313063D

 36 36  0  0  0  0  0  0  0  0999 V2000
    1.5426   -0.9565   -1.3372 N   0  0  0  0  0  0  0  0  0  0  0  0
    1.5697    1.7142   -1.6270 N   0  0  0  0  0  0  0  0  0  0  0  0
    0.5140   -1.8228    0.7977 N   0  0  0  0  0  2  0  0  0  0  0  0
    1.9697   -0.4970   -2.5638 C   0  0  0  0  0  0  0  0  0  0  0  0
    1.8959   -1.5407   -3.4878 C   0  0  0  0  0  0  0  0  0  0  0  0
    2.1802   -1.5016   -4.5469 H   0  0  0  0  0  0  0  0  0  0  0  0
    1.3982   -2.6878   -2.7751 C   0  0  0  0  0  0  0  0  0  0  0  0
    1.2085   -3.6831   -3.1958 H   0  0  0  0  0  0  0  0  0  0  0  0
    1.1958   -2.2854   -1.4520 C   0  0  0  0  0  3  0  0  0  0  0  0
    0.6464   -2.8897   -0.1916 C   0  0  0  0  0  0  0  0  0  0  0  0
   -0.3371   -3.3767   -0.4015 H   0  0  0  0  0  0  0  0  0  0  0  0
    1.3149   -3.7100    0.1740 H   0  0  0  0  0  0  0  0  0  0  0  0
    2.4581    0.9109   -2.5303 C   0  0  0  0  0  0  0  0  0  0  0  0
    2.5136    1.3787   -3.5402 H   0  0  0  0  0  0  0  0  0  0  0  0
    3.4786    0.9644   -2.0889 H   0  0  0  0  0  0  0  0  0  0  0  0
    0.3525    2.0966   -2.3655 C   0  0  0  0  0  0  0  0  0  0  0  0
    0.6106    2.7300   -3.2468 H   0  0  0  0  0  0  0  0  0  0  0  0
   -0.3233    2.6692   -1.7043 H   0  0  0  0  0  0  0  0  0  0  0  0
   -0.1650    1.1865   -2.7228 H   0  0  0  0  0  0  0  0  0  0  0  0
    2.2710    2.9254   -1.1643 C   0  0  0  0  0  0  0  0  0  0  0  0
    1.6005    3.5023   -0.4989 H   0  0  0  0  0  0  0  0  0  0  0  0
    2.5775    3.5661   -2.0246 H   0  0  0  0  0  0  0  0  0  0  0  0
    3.1685    2.6320   -0.5894 H   0  0  0  0  0  0  0  0  0  0  0  0
   -0.1765   -0.9010    2.9164 C   0  0  0  0  0  0  0  0  0  0  0  0
   -1.0207   -0.3304    2.4772 H   0  0  0  0  0  0  0  0  0  0  0  0
    0.7387   -0.2615    2.9143 H   0  0  0  0  0  0  0  0  0  0  0  0
   -0.4194   -1.0854    3.9815 H   0  0  0  0  0  0  0  0  0  0  0  0
    0.0710   -2.2136    2.1481 C   0  0  0  0  0  0  0  0  0  0  0  0
   -1.2408   -3.0257    2.1085 C   0  0  0  0  0  0  0  0  0  0  0  0
   -1.0905   -4.0211    1.6453 H   0  0  0  0  0  0  0  0  0  0  0  0
   -2.0164   -2.4888    1.5275 H   0  0  0  0  0  0  0  0  0  0  0  0
   -1.6238   -3.1937    3.1361 H   0  0  0  0  0  0  0  0  0  0  0  0
    1.1616   -3.0248    2.8828 C   0  0  0  0  0  0  0  0  0  0  0  0
    2.0896   -2.4276    2.9818 H   0  0  0  0  0  0  0  0  0  0  0  0
    1.4094   -3.9545    2.3324 H   0  0  0  0  0  0  0  0  0  0  0  0
    0.8234   -3.3191    3.8978 H   0  0  0  0  0  0  0  0  0  0  0  0
  2 20  1  0  0  0  0
  3 28  1  0  0  0  0
  4 13  1  0  0  0  0
  4  1  2  0  0  0  0
  5  7  2  0  0  0  0
  5  4  1  0  0  0  0
  6  5  1  0  0  0  0
  7  9  1  0  0  0  0
  8  7  1  0  0  0  0
  9  1  1  0  0  0  0
  9 10  1  0  0  0  0
 10 12  1  0  0  0  0
 10  3  1  0  0  0  0
 11 10  1  0  0  0  0
 13 15  1  0  0  0  0
 13  2  1  0  0  0  0
 14 13  1  0  0  0  0
 16 18  1  0  0  0  0
 16  2  1  0  0  0  0
 17 16  1  0  0  0  0
 19 16  1  0  0  0  0
 20 23  1  0  0  0  0
 20 21  1  0  0  0  0
 22 20  1  0  0  0  0
 24 27  1  0  0  0  0
 25 24  1  0  0  0  0
 26 24  1  0  0  0  0
 28 33  1  0  0  0  0
 28 24  1  0  0  0  0
 29 28  1  0  0  0  0
 29 32  1  0  0  0  0
 30 29  1  0  0  0  0
 31 29  1  0  0  0  0
 33 34  1  0  0  0  0
 33 36  1  0  0  0  0
 35 33  1  0  0  0  0
M  END
