5,6,7
 OpenBabel05122313063D

 49 51  0  0  1  0  0  0  0  0999 V2000
   -0.5230   -0.3407    1.9500 O   0  0  0  0  0  0  0  0  0  0  0  0
   -0.5560    0.5714    2.3058 H   0  0  0  0  0  0  0  0  0  0  0  0
    0.6421   -0.3962   -1.8838 O   0  0  0  0  0  0  0  0  0  0  0  0
    0.7043   -1.3947   -1.8807 H   0  0  0  0  0  0  0  0  0  0  0  0
    0.0428    1.5368    0.0254 N   0  0  0  0  0  2  0  0  0  0  0  0
   -1.9377   -0.1058   -0.4327 N   0  0  0  0  0  0  0  0  0  0  0  0
    2.0565   -0.0683    0.4900 N   0  0  0  0  0  0  0  0  0  0  0  0
   -1.0449    2.1914   -0.4744 C   0  0  1  0  0  3  0  0  0  0  0  0
   -1.0994    3.5870   -0.4725 C   0  0  0  0  0  0  0  0  0  0  0  0
   -1.9863    4.1031   -0.8677 H   0  0  0  0  0  0  0  0  0  0  0  0
    0.0030    4.3139    0.0171 C   0  0  0  0  0  0  0  0  0  0  0  0
   -0.0133    5.4128    0.0144 H   0  0  0  0  0  0  0  0  0  0  0  0
    1.1284    3.6232    0.5042 C   0  0  0  0  0  0  0  0  0  0  0  0
    2.0050    4.1677    0.8844 H   0  0  0  0  0  0  0  0  0  0  0  0
    1.1146    2.2259    0.5111 C   0  0  0  0  0  0  0  0  0  0  0  0
   -2.0297    1.2365   -1.0853 C   0  0  0  0  0  0  0  0  0  0  0  0
   -3.0694    1.6322   -1.0785 H   0  0  0  0  0  0  0  0  0  0  0  0
   -1.7430    1.0863   -2.1477 H   0  0  0  0  0  0  0  0  0  0  0  0
   -2.7077   -0.1429    0.8817 C   0  0  1  0  0  0  0  0  0  0  0  0
   -2.8858    0.9054    1.2055 H   0  0  0  0  0  0  0  0  0  0  0  0
   -4.0053   -0.9022    0.5771 C   0  0  0  0  0  0  0  0  0  0  0  0
   -4.4615   -1.3434    1.4853 H   0  0  0  0  0  0  0  0  0  0  0  0
   -4.7550   -0.2146    0.1346 H   0  0  0  0  0  0  0  0  0  0  0  0
   -3.5421   -1.9413   -0.4526 C   0  0  0  0  0  0  0  0  0  0  0  0
   -4.3760   -2.3748   -1.0363 H   0  0  0  0  0  0  0  0  0  0  0  0
   -3.0029   -2.7787    0.0334 H   0  0  0  0  0  0  0  0  0  0  0  0
   -2.5816   -1.1452   -1.3314 C   0  0  0  0  0  0  0  0  0  0  0  0
   -1.7957   -1.7741   -1.7854 H   0  0  0  0  0  0  0  0  0  0  0  0
   -3.1376   -0.6183   -2.1342 H   0  0  0  0  0  0  0  0  0  0  0  0
   -1.8763   -0.8597    1.9427 C   0  0  0  0  0  0  0  0  0  0  0  0
   -2.3264   -0.7447    2.9504 H   0  0  0  0  0  0  0  0  0  0  0  0
   -1.7591   -1.9346    1.7125 H   0  0  0  0  0  0  0  0  0  0  0  0
    2.1605    1.3039    1.0750 C   0  0  0  0  0  0  0  0  0  0  0  0
    3.1885    1.7148    0.9604 H   0  0  0  0  0  0  0  0  0  0  0  0
    1.9916    1.1982    2.1685 H   0  0  0  0  0  0  0  0  0  0  0  0
    2.8207   -0.2325   -0.8043 C   0  0  1  0  0  0  0  0  0  0  0  0
    3.7236    0.4194   -0.7700 H   0  0  0  0  0  0  0  0  0  0  0  0
    3.2421   -1.7126   -0.8460 C   0  0  0  0  0  0  0  0  0  0  0  0
    4.2316   -1.8114   -1.3311 H   0  0  0  0  0  0  0  0  0  0  0  0
    2.5223   -2.3070   -1.4438 H   0  0  0  0  0  0  0  0  0  0  0  0
    3.2256   -2.2146    0.6128 C   0  0  0  0  0  0  0  0  0  0  0  0
    2.5704   -3.0995    0.6979 H   0  0  0  0  0  0  0  0  0  0  0  0
    4.2355   -2.4946    0.9675 H   0  0  0  0  0  0  0  0  0  0  0  0
    2.6708   -1.0534    1.4451 C   0  0  0  0  0  0  0  0  0  0  0  0
    1.8980   -1.3563    2.1769 H   0  0  0  0  0  0  0  0  0  0  0  0
    3.4911   -0.5411    1.9949 H   0  0  0  0  0  0  0  0  0  0  0  0
    1.9563    0.1946   -1.9877 C   0  0  0  0  0  0  0  0  0  0  0  0
    1.7916    1.2886   -2.0151 H   0  0  0  0  0  0  0  0  0  0  0  0
    2.4293   -0.1040   -2.9463 H   0  0  0  0  0  0  0  0  0  0  0  0
  1  2  1  0  0  0  0
  3  4  1  0  0  0  0
  5 15  1  0  0  0  0
  6 19  1  0  0  0  0
  7 33  1  0  0  0  0
  7 44  1  0  0  0  0
  8 16  1  6  0  0  0
  8  9  1  0  0  0  0
  8  5  1  0  0  0  0
  9 11  2  0  0  0  0
 10  9  1  0  0  0  0
 11 13  1  0  0  0  0
 12 11  1  0  0  0  0
 13 15  2  0  0  0  0
 13 14  1  0  0  0  0
 15 33  1  0  0  0  0
 16 17  1  0  0  0  0
 16  6  1  0  0  0  0
 18 16  1  0  0  0  0
 19 20  1  1  0  0  0
 19 30  1  0  0  0  0
 21 19  1  0  0  0  0
 21 22  1  0  0  0  0
 23 21  1  0  0  0  0
 24 26  1  0  0  0  0
 24 21  1  0  0  0  0
 25 24  1  0  0  0  0
 27 24  1  0  0  0  0
 27  6  1  0  0  0  0
 28 27  1  0  0  0  0
 29 27  1  0  0  0  0
 30  1  1  0  0  0  0
 30 31  1  0  0  0  0
 32 30  1  0  0  0  0
 33 35  1  0  0  0  0
 34 33  1  0  0  0  0
 36 37  1  1  0  0  0
 36  7  1  0  0  0  0
 38 36  1  0  0  0  0
 38 41  1  0  0  0  0
 39 38  1  0  0  0  0
 40 38  1  0  0  0  0
 41 42  1  0  0  0  0
 41 43  1  0  0  0  0
 41 44  1  0  0  0  0
 44 46  1  0  0  0  0
 44 45  1  0  0  0  0
 47  3  1  0  0  0  0
 47 36  1  0  0  0  0
 48 47  1  0  0  0  0
 49 47  1  0  0  0  0
M  END
