1,3,5
 OpenBabel05122313063D

 41 43  0  0  1  0  0  0  0  0999 V2000
   -0.2649    0.2960    1.6560 N   0  0  0  0  0  2  0  0  0  0  0  0
   -1.4626   -0.4093    1.5238 N   0  0  0  0  0  0  0  0  0  0  0  0
    0.2212   -1.6365   -1.0206 N   0  0  0  0  0  2  0  0  0  0  0  0
   -0.4197   -2.2339    0.0319 N   0  0  0  0  0  0  0  0  0  0  0  0
   -2.3373   -0.0286   -1.2529 N   0  0  0  0  0  2  0  0  0  0  0  0
   -2.6333   -1.1675   -0.5409 N   0  0  0  0  0  0  0  0  0  0  0  0
   -0.4757    1.3355    2.6135 C   0  0  2  0  0  3  0  0  0  0  0  0
   -1.8701    1.2316    3.0025 C   0  0  0  0  0  0  0  0  0  0  0  0
   -2.4572    0.1864    2.3330 C   0  0  0  0  0  0  0  0  0  0  0  0
    0.4131    2.3429    2.9642 C   0  0  0  0  0  2  0  0  0  0  0  0
   -3.8251   -0.3962    2.3793 C   0  0  0  0  0  0  0  0  0  0  0  0
    1.0889   -2.5373   -1.5280 C   0  0  1  0  0  3  0  0  0  0  0  0
    1.0138   -3.7276   -0.7689 C   0  0  0  0  0  0  0  0  0  0  0  0
    0.0474   -3.5025    0.2223 C   0  0  0  0  0  0  0  0  0  0  0  0
    1.9262   -2.2368   -2.7295 C   0  0  0  0  0  0  0  0  0  0  0  0
   -0.4574   -4.3703    1.3218 C   0  0  0  0  0  0  0  0  0  0  0  0
   -3.1957    0.0318   -2.2900 C   0  0  2  0  0  3  0  0  0  0  0  0
   -4.0560   -1.0926   -2.2503 C   0  0  0  0  0  0  0  0  0  0  0  0
   -3.6579   -1.8423   -1.1336 C   0  0  0  0  0  0  0  0  0  0  0  0
   -3.1396    1.1598   -3.2716 C   0  0  0  0  0  0  0  0  0  0  0  0
   -4.1466   -3.1457   -0.5973 C   0  0  0  0  0  0  0  0  0  0  0  0
   -1.6218   -1.4782    0.5504 B   0  0  0  0  0  0  0  0  0  0  0  0
    2.4628   -1.2757   -2.6104 H   0  0  0  0  0  0  0  0  0  0  0  0
   -4.4050   -0.1779    1.4570 H   0  0  0  0  0  0  0  0  0  0  0  0
    1.4363    2.0566    2.5942 H   0  0  0  0  0  0  0  0  0  0  0  0
   -0.5354   -5.4262    0.9983 H   0  0  0  0  0  0  0  0  0  0  0  0
   -2.9659    0.7884   -4.3021 H   0  0  0  0  0  0  0  0  0  0  0  0
   -1.4532   -4.0150    1.6600 H   0  0  0  0  0  0  0  0  0  0  0  0
   -3.7618   -1.5053    2.4557 H   0  0  0  0  0  0  0  0  0  0  0  0
   -4.1070   -3.1513    0.5111 H   0  0  0  0  0  0  0  0  0  0  0  0
   -4.0893    1.7334   -3.2877 H   0  0  0  0  0  0  0  0  0  0  0  0
    2.6603   -3.0441   -2.9086 H   0  0  0  0  0  0  0  0  0  0  0  0
   -3.5117   -3.9867   -0.9479 H   0  0  0  0  0  0  0  0  0  0  0  0
   -2.3425    1.8823    3.7465 H   0  0  0  0  0  0  0  0  0  0  0  0
    1.5951   -4.6431   -0.9211 H   0  0  0  0  0  0  0  0  0  0  0  0
   -4.8670   -1.3339   -2.9457 H   0  0  0  0  0  0  0  0  0  0  0  0
    0.2261   -4.3261    2.1954 H   0  0  0  0  0  0  0  0  0  0  0  0
   -4.3906   -0.0050    3.2453 H   0  0  0  0  0  0  0  0  0  0  0  0
    1.2960   -2.1382   -3.6377 H   0  0  0  0  0  0  0  0  0  0  0  0
   -2.3185    1.8558   -3.0120 H   0  0  0  0  0  0  0  0  0  0  0  0
   -5.1846   -3.3453   -0.9232 H   0  0  0  0  0  0  0  0  0  0  0  0
  1  7  1  0  0  0  0
  2  1  1  0  0  0  0
  2  9  1  0  0  0  0
  3  4  1  0  0  0  0
  4 14  1  0  0  0  0
  4 22  1  0  0  0  0
  5  6  1  0  0  0  0
  6 22  1  0  0  0  0
  7 10  1  6  0  0  0
  7  8  1  0  0  0  0
  8 34  1  0  0  0  0
  9 11  1  0  0  0  0
  9  8  2  0  0  0  0
 11 29  1  0  0  0  0
 11 38  1  0  0  0  0
 12 15  1  6  0  0  0
 12  3  1  0  0  0  0
 12 13  1  0  0  0  0
 13 14  2  0  0  0  0
 14 16  1  0  0  0  0
 15 23  1  0  0  0  0
 16 28  1  0  0  0  0
 16 37  1  0  0  0  0
 17 20  1  6  0  0  0
 17 18  1  0  0  0  0
 17  5  1  0  0  0  0
 18 19  2  0  0  0  0
 19 21  1  0  0  0  0
 19  6  1  0  0  0  0
 20 40  1  0  0  0  0
 21 30  1  0  0  0  0
 22  2  1  0  0  0  0
 24 11  1  0  0  0  0
 25 10  1  0  0  0  0
 26 16  1  0  0  0  0
 27 20  1  0  0  0  0
 31 20  1  0  0  0  0
 32 15  1  0  0  0  0
 33 21  1  0  0  0  0
 35 13  1  0  0  0  0
 36 18  1  0  0  0  0
 39 15  1  0  0  0  0
 41 21  1  0  0  0  0
M  END
