8,11,12
 OpenBabel05122313063D

 45 47  0  0  1  0  0  0  0  0999 V2000
    0.0557    0.8773   -2.0346 S   0  0  0  0  0  0  0  0  0  0  0  0
    1.8704    3.3614   -2.3473 F   0  0  0  0  0  0  0  0  0  0  0  0
    1.9782    5.5427   -0.7686 F   0  0  0  0  0  0  0  0  0  0  0  0
    0.3671    5.7079    1.4461 F   0  0  0  0  0  0  0  0  0  0  0  0
   -1.3078    3.6510    2.1028 F   0  0  0  0  0  0  0  0  0  0  0  0
   -1.2942    0.9436   -2.6508 O   0  0  0  0  0  0  0  0  0  0  0  0
    1.2460    0.8164   -2.9096 O   0  0  0  0  0  0  0  0  0  0  0  0
    0.0538   -0.5393    1.6309 N   0  0  0  0  0  0  0  0  0  0  0  0
    0.2332    0.4695    1.7733 H   0  0  0  0  0  0  0  0  0  0  0  0
   -0.1266   -0.9409    2.5612 H   0  0  0  0  0  0  0  0  0  0  0  0
    0.0842   -0.4171   -0.9851 N   0  0  0  0  0  2  0  0  0  0  0  0
   -1.5421    1.4264    0.5432 N   0  0  0  0  0  2  0  0  0  0  0  0
   -2.1400    1.7586    1.3050 H   0  0  0  0  0  0  0  0  0  0  0  0
    1.2380   -1.1992    1.0156 C   0  0  1  0  0  0  0  0  0  0  0  0
    0.9608   -2.2627    0.8713 H   0  0  0  0  0  0  0  0  0  0  0  0
    1.4211   -0.5657   -0.3847 C   0  0  1  0  0  0  0  0  0  0  0  0
    1.8971    0.4348   -0.2203 H   0  0  0  0  0  0  0  0  0  0  0  0
    2.4589   -1.1205    1.9066 C   0  0  0  0  0  0  0  0  0  0  0  0
    2.9445    0.1279    2.3494 C   0  0  0  0  0  0  0  0  0  0  0  0
    2.4413    1.0592    2.0404 H   0  0  0  0  0  0  0  0  0  0  0  0
    4.0831    0.2012    3.1635 C   0  0  0  0  0  0  0  0  0  0  0  0
    4.4533    1.1819    3.4983 H   0  0  0  0  0  0  0  0  0  0  0  0
    4.7554   -0.9734    3.5412 C   0  0  0  0  0  0  0  0  0  0  0  0
    5.6528   -0.9153    4.1754 H   0  0  0  0  0  0  0  0  0  0  0  0
    4.2812   -2.2192    3.1032 C   0  0  0  0  0  0  0  0  0  0  0  0
    4.8070   -3.1424    3.3901 H   0  0  0  0  0  0  0  0  0  0  0  0
    3.1380   -2.2903    2.2927 C   0  0  0  0  0  0  0  0  0  0  0  0
    2.7741   -3.2665    1.9356 H   0  0  0  0  0  0  0  0  0  0  0  0
    2.3884   -1.4024   -1.2177 C   0  0  0  0  0  0  0  0  0  0  0  0
    3.7735   -1.3450   -0.9712 C   0  0  0  0  0  0  0  0  0  0  0  0
    4.1667   -0.6422   -0.2212 H   0  0  0  0  0  0  0  0  0  0  0  0
    4.6597   -2.1669   -1.6832 C   0  0  0  0  0  0  0  0  0  0  0  0
    5.7402   -2.1064   -1.4814 H   0  0  0  0  0  0  0  0  0  0  0  0
    4.1735   -3.0529   -2.6575 C   0  0  0  0  0  0  0  0  0  0  0  0
    4.8695   -3.6934   -3.2206 H   0  0  0  0  0  0  0  0  0  0  0  0
    2.7963   -3.0964   -2.9258 C   0  0  0  0  0  0  0  0  0  0  0  0
    2.4079   -3.7643   -3.7103 H   0  0  0  0  0  0  0  0  0  0  0  0
    1.9123   -2.2739   -2.2125 C   0  0  0  0  0  0  0  0  0  0  0  0
    0.8393   -2.2506   -2.4461 H   0  0  0  0  0  0  0  0  0  0  0  0
    0.2267    2.3107   -0.9482 C   0  0  0  0  0  0  0  0  0  0  0  0
    1.0802    3.3856   -1.2712 C   0  0  0  0  0  0  0  0  0  0  0  0
    1.1529    4.5283   -0.4605 C   0  0  0  0  0  0  0  0  0  0  0  0
    0.3129    4.6210    0.6658 C   0  0  0  0  0  0  0  0  0  0  0  0
   -0.5253    3.5584    0.9969 C   0  0  0  0  0  0  0  0  0  0  0  0
   -0.6423    2.3846    0.1921 C   0  0  0  0  0  0  0  0  0  0  0  0
  1 11  1  0  0  0  0
  1 40  1  0  0  0  0
  2 41  1  0  0  0  0
  3 42  1  0  0  0  0
  6  1  2  0  0  0  0
  7  1  2  0  0  0  0
  8  9  1  0  0  0  0
  8 10  1  0  0  0  0
 11 16  1  0  0  0  0
 12 13  1  0  0  0  0
 14 15  1  6  0  0  0
 14  8  1  0  0  0  0
 14 18  1  0  0  0  0
 16 17  1  1  0  0  0
 16 14  1  0  0  0  0
 18 27  2  0  0  0  0
 18 19  1  0  0  0  0
 19 21  2  0  0  0  0
 20 19  1  0  0  0  0
 21 22  1  0  0  0  0
 21 23  1  0  0  0  0
 23 24  1  0  0  0  0
 25 26  1  0  0  0  0
 25 23  2  0  0  0  0
 27 25  1  0  0  0  0
 28 27  1  0  0  0  0
 29 30  1  0  0  0  0
 29 16  1  0  0  0  0
 30 31  1  0  0  0  0
 32 33  1  0  0  0  0
 32 30  2  0  0  0  0
 34 32  1  0  0  0  0
 35 34  1  0  0  0  0
 36 34  2  0  0  0  0
 36 38  1  0  0  0  0
 37 36  1  0  0  0  0
 38 29  2  0  0  0  0
 39 38  1  0  0  0  0
 40 45  1  0  0  0  0
 41 40  2  0  0  0  0
 41 42  1  0  0  0  0
 42 43  2  0  0  0  0
 43 44  1  0  0  0  0
 43  4  1  0  0  0  0
 44  5  1  0  0  0  0
 45 12  1  0  0  0  0
 45 44  2  0  0  0  0
M  END
