1,12,25
 OpenBabel05122313063D

 36 38  0  0  0  0  0  0  0  0999 V2000
   -2.0099   -1.4794   -0.1584 N   0  0  0  0  0  2  0  0  0  0  0  0
   -2.3055   -2.7645   -0.4334 C   0  0  0  0  0  3  0  0  0  0  0  0
   -1.4519   -3.3744   -0.7736 H   0  0  0  0  0  0  0  0  0  0  0  0
   -3.6084   -3.2564   -0.2754 C   0  0  0  0  0  0  0  0  0  0  0  0
   -3.8170   -4.3102   -0.5088 H   0  0  0  0  0  0  0  0  0  0  0  0
   -4.6173   -2.3953    0.1813 C   0  0  0  0  0  0  0  0  0  0  0  0
   -5.6463   -2.7608    0.3175 H   0  0  0  0  0  0  0  0  0  0  0  0
   -4.2941   -1.0605    0.4591 C   0  0  0  0  0  0  0  0  0  0  0  0
   -5.0242   -0.3186    0.8121 H   0  0  0  0  0  0  0  0  0  0  0  0
   -2.9742   -0.6341    0.2729 C   0  0  0  0  0  0  0  0  0  0  0  0
   -2.5952    0.8084    0.4970 C   0  0  0  0  0  0  0  0  0  0  0  0
   -1.2610    1.0729    0.2174 N   0  0  0  0  0  2  0  0  0  0  0  0
   -3.4654    1.6085    0.8526 O   0  0  0  0  0  0  0  0  0  0  0  0
   -0.7614    2.3493    0.0737 C   0  0  0  0  0  0  0  0  0  0  0  0
   -1.5883    3.5127    0.0730 C   0  0  0  0  0  0  0  0  0  0  0  0
   -2.6575    3.3742    0.2609 H   0  0  0  0  0  0  0  0  0  0  0  0
   -1.0749    4.7879   -0.1555 C   0  0  0  0  0  0  0  0  0  0  0  0
   -1.7708    5.6412   -0.1642 H   0  0  0  0  0  0  0  0  0  0  0  0
    0.3040    5.0007   -0.3624 C   0  0  0  0  0  0  0  0  0  0  0  0
    0.7028    6.0111   -0.5312 H   0  0  0  0  0  0  0  0  0  0  0  0
    1.1483    3.9022   -0.3222 C   0  0  0  0  0  3  0  0  0  0  0  0
    2.2362    4.0025   -0.4407 H   0  0  0  0  0  0  0  0  0  0  0  0
    0.6612    2.5765   -0.1196 C   0  0  0  0  0  0  0  0  0  0  0  0
    1.6882    1.6676   -0.0449 N   0  0  0  0  0  0  0  0  0  0  0  0
    1.5648    0.4070    0.0129 N   0  0  0  0  0  2  0  0  0  0  0  0
    2.8183   -0.2764    0.1957 C   0  0  0  0  0  0  0  0  0  0  0  0
    3.9612    0.1622   -0.4984 C   0  0  0  0  0  0  0  0  0  0  0  0
    3.8681    1.0016   -1.2007 H   0  0  0  0  0  0  0  0  0  0  0  0
    5.1839   -0.4869   -0.2919 C   0  0  0  0  0  0  0  0  0  0  0  0
    6.0740   -0.1597   -0.8500 H   0  0  0  0  0  0  0  0  0  0  0  0
    5.2736   -1.5525    0.6197 C   0  0  0  0  0  0  0  0  0  0  0  0
    6.2370   -2.0589    0.7820 H   0  0  0  0  0  0  0  0  0  0  0  0
    4.1313   -1.9733    1.3194 C   0  0  0  0  0  0  0  0  0  0  0  0
    4.1969   -2.8044    2.0372 H   0  0  0  0  0  0  0  0  0  0  0  0
    2.8972   -1.3486    1.1017 C   0  0  0  0  0  0  0  0  0  0  0  0
    1.9934   -1.6752    1.6325 H   0  0  0  0  0  0  0  0  0  0  0  0
  1 10  1  0  0  0  0
  2  4  1  0  0  0  0
  2  1  1  0  0  0  0
  3  2  1  0  0  0  0
  4  6  2  0  0  0  0
  5  4  1  0  0  0  0
  6  7  1  0  0  0  0
  6  8  1  0  0  0  0
  8  9  1  0  0  0  0
 10  8  2  0  0  0  0
 10 11  1  0  0  0  0
 11 13  2  0  0  0  0
 12 11  1  0  0  0  0
 14 12  1  0  0  0  0
 15 14  2  0  0  0  0
 15 16  1  0  0  0  0
 17 15  1  0  0  0  0
 18 17  1  0  0  0  0
 19 21  1  0  0  0  0
 19 17  2  0  0  0  0
 20 19  1  0  0  0  0
 21 23  1  0  0  0  0
 22 21  1  0  0  0  0
 23 24  2  0  0  0  0
 23 14  1  0  0  0  0
 24 25  1  0  0  0  0
 25 26  1  0  0  0  0
 26 35  1  0  0  0  0
 27 29  1  0  0  0  0
 27 26  2  0  0  0  0
 28 27  1  0  0  0  0
 29 31  2  0  0  0  0
 30 29  1  0  0  0  0
 31 32  1  0  0  0  0
 31 33  1  0  0  0  0
 33 34  1  0  0  0  0
 35 33  2  0  0  0  0
 35 36  1  0  0  0  0
M  END
