1,2,22
 OpenBabel05122313063D

 39 39  0  0  1  0  0  0  0  0999 V2000
    1.6438   -2.3193   -0.0000 N   0  0  0  0  0  2  0  0  0  0  0  0
   -1.0286   -2.1405    0.0000 N   0  0  0  0  0  2  0  0  0  0  0  0
   -2.3792   -2.1787    0.0001 N   0  0  0  0  0  0  0  0  0  0  0  0
   -2.7407   -3.1571    0.0003 H   0  0  0  0  0  0  0  0  0  0  0  0
   -1.2205   -4.4476    0.0002 O   0  0  0  0  0  0  0  0  0  0  0  0
   -2.7234    0.0890   -0.0004 O   0  0  0  0  0  0  0  0  0  0  0  0
   -4.7886    1.6665   -0.0003 O   0  0  0  0  0  0  0  0  0  0  0  0
   -3.9530    1.1065   -0.0005 H   0  0  0  0  0  0  0  0  0  0  0  0
   -7.0037    1.3412    0.0000 O   0  0  0  0  0  0  0  0  0  0  0  0
   -0.5216   -3.4177    0.0001 C   0  0  0  0  0  0  0  0  0  0  0  0
    0.9827   -3.4841   -0.0000 C   0  0  1  0  0  3  0  0  0  0  0  0
    1.6777   -4.7068   -0.0002 C   0  0  0  0  0  0  0  0  0  0  0  0
    1.1054   -5.6445   -0.0002 H   0  0  0  0  0  0  0  0  0  0  0  0
    3.0815   -4.6688   -0.0003 C   0  0  0  0  0  0  0  0  0  0  0  0
    3.6556   -5.6077   -0.0004 H   0  0  0  0  0  0  0  0  0  0  0  0
   -3.1955   -1.1117   -0.0001 C   0  0  0  0  0  0  0  0  0  0  0  0
   -4.6228   -1.4419   -0.0000 C   0  0  0  0  0  0  0  0  0  0  0  0
   -4.8344   -2.5248    0.0001 H   0  0  0  0  0  0  0  0  0  0  0  0
   -5.7055   -0.6146    0.0000 C   0  0  0  0  0  0  0  0  0  0  0  0
   -6.6942   -1.0995    0.0001 H   0  0  0  0  0  0  0  0  0  0  0  0
   -5.8723    0.8840   -0.0001 C   0  0  0  0  0  0  0  0  0  0  0  0
    2.6652    0.1053    0.0001 N   0  0  0  0  0  2  0  0  0  0  0  0
    3.1767    1.3515    0.0001 N   0  0  0  0  0  0  0  0  0  0  0  0
    4.2116    1.3962    0.0000 H   0  0  0  0  0  0  0  0  0  0  0  0
    4.8345   -0.7003   -0.0002 O   0  0  0  0  0  0  0  0  0  0  0  0
    1.1022    2.2819    0.0001 O   0  0  0  0  0  0  0  0  0  0  0  0
    0.1081    4.6518   -0.0001 O   0  0  0  0  0  0  0  0  0  0  0  0
    0.4519    3.7012    0.0000 H   0  0  0  0  0  0  0  0  0  0  0  0
    0.9640    6.7222   -0.0003 O   0  0  0  0  0  0  0  0  0  0  0  0
    3.6060   -0.8835   -0.0001 C   0  0  0  0  0  0  0  0  0  0  0  0
    2.9846   -2.2607   -0.0001 C   0  0  0  0  0  0  0  0  0  0  0  0
    3.7550   -3.4358   -0.0002 C   0  0  0  0  0  0  0  0  0  0  0  0
    4.8507   -3.3534   -0.0003 H   0  0  0  0  0  0  0  0  0  0  0  0
    2.3717    2.4368    0.0001 C   0  0  0  0  0  0  0  0  0  0  0  0
    3.0681    3.7261    0.0001 C   0  0  0  0  0  0  0  0  0  0  0  0
    4.1690    3.6477    0.0001 H   0  0  0  0  0  0  0  0  0  0  0  0
    2.5438    4.9833    0.0000 C   0  0  0  0  0  0  0  0  0  0  0  0
    3.2599    5.8198    0.0001 H   0  0  0  0  0  0  0  0  0  0  0  0
    1.1316    5.5138   -0.0001 C   0  0  0  0  0  0  0  0  0  0  0  0
  2  3  1  0  0  0  0
  2 10  1  0  0  0  0
  3  4  1  0  0  0  0
  6 16  2  0  0  0  0
  7 21  1  0  0  0  0
  8  7  1  0  0  0  0
 10  5  2  0  0  0  0
 11  1  1  0  0  0  0
 11 10  1  6  0  0  0
 12 11  1  0  0  0  0
 13 12  1  0  0  0  0
 14 32  1  0  0  0  0
 14 12  2  0  0  0  0
 15 14  1  0  0  0  0
 16 17  1  0  0  0  0
 16  3  1  0  0  0  0
 17 19  2  0  0  0  0
 17 18  1  0  0  0  0
 19 20  1  0  0  0  0
 21 19  1  0  0  0  0
 21  9  2  0  0  0  0
 23 22  1  0  0  0  0
 23 34  1  0  0  0  0
 24 23  1  0  0  0  0
 25 30  2  0  0  0  0
 27 28  1  0  0  0  0
 29 39  2  0  0  0  0
 30 22  1  0  0  0  0
 31 30  1  0  0  0  0
 31  1  1  0  0  0  0
 32 31  2  0  0  0  0
 33 32  1  0  0  0  0
 34 26  2  0  0  0  0
 35 34  1  0  0  0  0
 35 36  1  0  0  0  0
 37 38  1  0  0  0  0
 37 35  2  0  0  0  0
 39 27  1  0  0  0  0
 39 37  1  0  0  0  0
M  END
