1,2,3
 OpenBabel05122313063D

 34 35  0  0  1  0  0  0  0  0999 V2000
   -1.5253   -0.5737    0.2725 N   0  0  0  0  0  2  0  0  0  0  0  0
    0.0399   -0.5180   -1.8999 N   0  0  0  0  0  0  0  0  0  0  0  0
    1.5102   -0.6452    0.2319 N   0  0  0  0  0  2  0  0  0  0  0  0
   -2.2035    0.8083    2.2011 C   0  0  0  0  0  0  0  0  0  0  0  0
   -2.4253   -0.3425    1.2735 C   0  0  1  0  0  3  0  0  0  0  0  0
   -3.5495   -1.1818    1.4099 C   0  0  0  0  0  0  0  0  0  0  0  0
   -3.7666   -2.2360    0.5187 C   0  0  0  0  0  0  0  0  0  0  0  0
   -2.8435   -2.4427   -0.5146 C   0  0  0  0  0  0  0  0  0  0  0  0
   -1.7362   -1.5942   -0.6044 C   0  0  0  0  0  0  0  0  0  0  0  0
   -0.6665   -1.7827   -1.6540 C   0  0  0  0  0  0  0  0  0  0  0  0
    1.4749   -0.6357   -2.1835 C   0  0  0  0  0  0  0  0  0  0  0  0
    2.1696   -1.0168   -0.8966 C   0  0  1  0  0  3  0  0  0  0  0  0
    3.3919   -1.6944   -0.8552 C   0  0  0  0  0  0  0  0  0  0  0  0
    3.9573   -1.9772    0.3957 C   0  0  0  0  0  0  0  0  0  0  0  0
    3.2628   -1.6080    1.5510 C   0  0  0  0  0  0  0  0  0  0  0  0
    2.0210   -0.9479    1.4517 C   0  0  0  0  0  0  0  0  0  0  0  0
    1.2286   -0.5744    2.6642 C   0  0  0  0  0  0  0  0  0  0  0  0
   -1.2980    0.6515    2.8177 H   0  0  0  0  0  0  0  0  0  0  0  0
   -3.0748    0.9412    2.8676 H   0  0  0  0  0  0  0  0  0  0  0  0
   -2.0066    1.7355    1.6272 H   0  0  0  0  0  0  0  0  0  0  0  0
   -0.4777    0.1247   -2.5454 H   0  0  0  0  0  0  0  0  0  0  0  0
   -4.2596   -0.9774    2.2236 H   0  0  0  0  0  0  0  0  0  0  0  0
   -4.6517   -2.8817    0.6185 H   0  0  0  0  0  0  0  0  0  0  0  0
   -2.9774   -3.2466   -1.2526 H   0  0  0  0  0  0  0  0  0  0  0  0
    0.0699   -2.5221   -1.2699 H   0  0  0  0  0  0  0  0  0  0  0  0
   -1.0963   -2.2141   -2.5836 H   0  0  0  0  0  0  0  0  0  0  0  0
    1.8286    0.3713   -2.4870 H   0  0  0  0  0  0  0  0  0  0  0  0
    1.7020   -1.3614   -2.9960 H   0  0  0  0  0  0  0  0  0  0  0  0
    3.8895   -1.9863   -1.7910 H   0  0  0  0  0  0  0  0  0  0  0  0
    4.9268   -2.4923    0.4676 H   0  0  0  0  0  0  0  0  0  0  0  0
    3.6693   -1.8274    2.5484 H   0  0  0  0  0  0  0  0  0  0  0  0
    0.9752    0.5061    2.6112 H   0  0  0  0  0  0  0  0  0  0  0  0
    1.7819   -0.8061    3.5919 H   0  0  0  0  0  0  0  0  0  0  0  0
    0.2696   -1.1330    2.6735 H   0  0  0  0  0  0  0  0  0  0  0  0
  1  5  1  0  0  0  0
  2 10  1  0  0  0  0
  3 16  1  0  0  0  0
  4 18  1  0  0  0  0
  4 19  1  0  0  0  0
  5  6  1  0  0  0  0
  5  4  1  6  0  0  0
  6 22  1  0  0  0  0
  7 23  1  0  0  0  0
  7  6  2  0  0  0  0
  8  7  1  0  0  0  0
  9  8  2  0  0  0  0
  9  1  1  0  0  0  0
 10 25  1  0  0  0  0
 10  9  1  0  0  0  0
 11  2  1  0  0  0  0
 12 11  1  6  0  0  0
 12 13  1  0  0  0  0
 12  3  1  0  0  0  0
 13 14  2  0  0  0  0
 14 30  1  0  0  0  0
 14 15  1  0  0  0  0
 15 31  1  0  0  0  0
 16 15  2  0  0  0  0
 16 17  1  0  0  0  0
 17 34  1  0  0  0  0
 17 33  1  0  0  0  0
 20  4  1  0  0  0  0
 21  2  1  0  0  0  0
 24  8  1  0  0  0  0
 26 10  1  0  0  0  0
 27 11  1  0  0  0  0
 28 11  1  0  0  0  0
 29 13  1  0  0  0  0
 32 17  1  0  0  0  0
M  END
