3,5,37
 OpenBabel05122313063D

 53 55  0  0  1  0  0  0  0  0999 V2000
    4.6963    2.7887   -1.3025 Br  0  0  0  0  0  0  0  0  0  0  0  0
   -4.7636    2.6718   -1.3029 Br  0  0  0  0  0  0  0  0  0  0  0  0
    1.3550    0.8048   -0.0793 N   0  0  0  0  0  2  0  0  0  0  0  0
    1.2274    0.7290   -1.4341 N   0  0  0  0  0  0  0  0  0  0  0  0
   -1.3742    0.7713   -0.0793 N   0  0  0  0  0  2  0  0  0  0  0  0
   -1.2447    0.6987   -1.4341 N   0  0  0  0  0  0  0  0  0  0  0  0
    2.5046    1.4873    0.1960 C   0  0  1  0  0  3  0  0  0  0  0  0
    3.0965    1.8387   -1.0468 C   0  0  0  0  0  0  0  0  0  0  0  0
    2.2634    1.3440   -2.0496 C   0  0  0  0  0  0  0  0  0  0  0  0
    2.3377    1.3881   -3.1403 H   0  0  0  0  0  0  0  0  0  0  0  0
   -2.5404    1.4252    0.1959 C   0  0  2  0  0  3  0  0  0  0  0  0
   -3.1407    1.7619   -1.0470 C   0  0  0  0  0  0  0  0  0  0  0  0
   -2.2955    1.2879   -2.0497 C   0  0  0  0  0  0  0  0  0  0  0  0
   -2.3709    1.3301   -3.1404 H   0  0  0  0  0  0  0  0  0  0  0  0
    3.0548    1.8141    1.5591 C   0  0  0  0  0  0  0  0  0  0  0  0
    3.9908    2.3698    1.3373 H   0  0  0  0  0  0  0  0  0  0  0  0
    3.4551    0.5556    2.3485 C   0  0  0  0  0  0  0  0  0  0  0  0
    3.9492    0.8430    3.2983 H   0  0  0  0  0  0  0  0  0  0  0  0
    4.1618   -0.0690    1.7667 H   0  0  0  0  0  0  0  0  0  0  0  0
    2.5706   -0.0567    2.6058 H   0  0  0  0  0  0  0  0  0  0  0  0
   -3.0988    1.7384    1.5589 C   0  0  0  0  0  0  0  0  0  0  0  0
   -4.0480    2.2711    1.3368 H   0  0  0  0  0  0  0  0  0  0  0  0
   -3.4687    0.4704    2.3481 C   0  0  0  0  0  0  0  0  0  0  0  0
   -3.9698    0.7457    3.2977 H   0  0  0  0  0  0  0  0  0  0  0  0
   -2.5698   -0.1204    2.6054 H   0  0  0  0  0  0  0  0  0  0  0  0
   -4.1600   -0.1709    1.7659 H   0  0  0  0  0  0  0  0  0  0  0  0
   -2.2093    2.7144    2.3485 C   0  0  0  0  0  0  0  0  0  0  0  0
   -2.7056    2.9986    3.2981 H   0  0  0  0  0  0  0  0  0  0  0  0
   -2.0218    3.6387    1.7666 H   0  0  0  0  0  0  0  0  0  0  0  0
   -1.2368    2.2548    2.6060 H   0  0  0  0  0  0  0  0  0  0  0  0
    0.0001    0.0002   -2.0091 B   0  0  2  0  0  0  0  0  0  0  0  0
    0.0001    0.0001   -3.2266 H   0  0  0  0  0  0  0  0  0  0  0  0
    2.1415    2.7682    2.3483 C   0  0  0  0  0  0  0  0  0  0  0  0
    2.6301    3.0642    3.2983 H   0  0  0  0  0  0  0  0  0  0  0  0
    1.9320    3.6878    1.7664 H   0  0  0  0  0  0  0  0  0  0  0  0
    1.1802    2.2851    2.6050 H   0  0  0  0  0  0  0  0  0  0  0  0
    0.0195   -1.5755   -0.0792 N   0  0  0  0  0  2  0  0  0  0  0  0
    0.0176   -1.4271   -1.4340 N   0  0  0  0  0  0  0  0  0  0  0  0
    0.0325   -2.6318   -2.0495 C   0  0  0  0  0  3  0  0  0  0  0  0
    0.0445   -3.6007   -1.0467 C   0  0  0  0  0  0  0  0  0  0  0  0
    0.0676   -5.4611   -1.3026 Br  0  0  0  0  0  0  0  0  0  0  0  0
    0.0360   -2.9124    0.1961 C   0  0  0  0  0  0  0  0  0  0  0  0
    0.0439   -3.5524    1.5592 C   0  0  0  0  0  0  0  0  0  0  0  0
    0.0576   -4.6408    1.3373 H   0  0  0  0  0  0  0  0  0  0  0  0
   -1.2465   -3.2704    2.3483 C   0  0  0  0  0  0  0  0  0  0  0  0
   -1.2445   -3.8419    3.2981 H   0  0  0  0  0  0  0  0  0  0  0  0
   -1.3352   -2.1983    2.6054 H   0  0  0  0  0  0  0  0  0  0  0  0
   -2.1404   -3.5707    1.7662 H   0  0  0  0  0  0  0  0  0  0  0  0
    1.3266   -3.2380    2.3486 C   0  0  0  0  0  0  0  0  0  0  0  0
    1.3387   -3.8093    3.2985 H   0  0  0  0  0  0  0  0  0  0  0  0
    2.2279   -3.5159    1.7668 H   0  0  0  0  0  0  0  0  0  0  0  0
    1.3884   -2.1640    2.6056 H   0  0  0  0  0  0  0  0  0  0  0  0
    0.0336   -2.7183   -3.1402 H   0  0  0  0  0  0  0  0  0  0  0  0
  1  8  1  0  0  0  0
  2 12  1  0  0  0  0
  3  7  1  0  0  0  0
  4  3  1  0  0  0  0
  5 11  1  0  0  0  0
  6  5  1  0  0  0  0
  7 15  1  6  0  0  0
  8  7  1  0  0  0  0
  9  4  1  0  0  0  0
  9  8  2  0  0  0  0
 10  9  1  0  0  0  0
 11 21  1  1  0  0  0
 12 11  1  0  0  0  0
 13  6  1  0  0  0  0
 13 12  2  0  0  0  0
 14 13  1  0  0  0  0
 15 33  1  0  0  0  0
 15 17  1  0  0  0  0
 16 15  1  0  0  0  0
 17 20  1  0  0  0  0
 17 18  1  0  0  0  0
 19 17  1  0  0  0  0
 21 23  1  0  0  0  0
 21 27  1  0  0  0  0
 22 21  1  0  0  0  0
 23 25  1  0  0  0  0
 23 24  1  0  0  0  0
 26 23  1  0  0  0  0
 27 30  1  0  0  0  0
 27 28  1  0  0  0  0
 29 27  1  0  0  0  0
 31 32  1  6  0  0  0
 31  6  1  0  0  0  0
 31  4  1  0  0  0  0
 31 38  1  0  0  0  0
 33 36  1  0  0  0  0
 33 34  1  0  0  0  0
 35 33  1  0  0  0  0
 37 42  1  0  0  0  0
 38 37  1  0  0  0  0
 39 38  1  0  0  0  0
 39 40  1  0  0  0  0
 40 42  2  0  0  0  0
 41 40  1  0  0  0  0
 42 43  1  0  0  0  0
 43 45  1  0  0  0  0
 43 49  1  0  0  0  0
 44 43  1  0  0  0  0
 45 47  1  0  0  0  0
 45 46  1  0  0  0  0
 48 45  1  0  0  0  0
 49 52  1  0  0  0  0
 49 50  1  0  0  0  0
 51 49  1  0  0  0  0
 53 39  1  0  0  0  0
M  END
