1,2,3
 OpenBabel05122313063D

 57 61  0  0  0  0  0  0  0  0999 V2000
   -0.3691   -1.4799   -0.3946 N   0  0  0  0  0  2  0  0  0  0  0  0
    0.3836    0.8758    0.1200 N   0  0  0  0  0  2  0  0  0  0  0  0
   -3.0755   -1.2726   -0.4860 N   0  0  0  0  0  0  0  0  0  0  0  0
   -5.5937   -0.4574    0.7393 O   0  0  0  0  0  0  0  0  0  0  0  0
    2.0985   -2.2632   -0.1364 C   0  0  0  0  0  0  0  0  0  0  0  0
    2.3555   -3.6211   -0.3283 C   0  0  0  0  0  0  0  0  0  0  0  0
    1.5480   -4.3405   -0.5283 H   0  0  0  0  0  0  0  0  0  0  0  0
    3.7023   -4.0811   -0.2494 C   0  0  0  0  0  0  0  0  0  0  0  0
    3.8986   -5.1535   -0.4008 H   0  0  0  0  0  0  0  0  0  0  0  0
    4.7739   -3.2288    0.0168 C   0  0  0  0  0  0  0  0  0  0  0  0
    5.7978   -3.6293    0.0722 H   0  0  0  0  0  0  0  0  0  0  0  0
    4.5486   -1.8307    0.2229 C   0  0  0  0  0  0  0  0  0  0  0  0
    5.5262   -0.8261    0.5043 C   0  0  0  0  0  0  0  0  0  0  0  0
    6.5873   -1.1087    0.5835 H   0  0  0  0  0  0  0  0  0  0  0  0
    5.1427    0.5053    0.6769 C   0  0  0  0  0  0  0  0  0  0  0  0
    5.9152    1.2591    0.8919 H   0  0  0  0  0  0  0  0  0  0  0  0
    3.7869    0.9311    0.5824 C   0  0  0  0  0  0  0  0  0  0  0  0
    3.5250    1.9906    0.7148 H   0  0  0  0  0  0  0  0  0  0  0  0
    2.8098   -0.0258    0.3122 C   0  0  0  0  0  0  0  0  0  0  0  0
    3.2084   -1.3909    0.1375 C   0  0  0  0  0  0  0  0  0  0  0  0
    0.9286   -1.3921   -0.1207 C   0  0  0  0  0  0  0  0  0  0  0  0
    1.3520   -0.0301    0.1558 C   0  0  0  0  0  0  0  0  0  0  0  0
   -1.0706   -2.6854   -0.7815 C   0  0  0  0  0  0  0  0  0  0  0  0
   -1.2219   -3.3251    0.1172 H   0  0  0  0  0  0  0  0  0  0  0  0
   -0.4847   -3.2761   -1.5187 H   0  0  0  0  0  0  0  0  0  0  0  0
   -2.3922   -2.2346   -1.3856 C   0  0  0  0  0  0  0  0  0  0  0  0
   -2.1891   -1.6961   -2.3328 H   0  0  0  0  0  0  0  0  0  0  0  0
   -3.0533   -3.1040   -1.6093 H   0  0  0  0  0  0  0  0  0  0  0  0
   -3.6694   -1.9740    0.6893 C   0  0  0  0  0  0  0  0  0  0  0  0
   -2.8584   -2.3498    1.3399 H   0  0  0  0  0  0  0  0  0  0  0  0
   -4.2785   -2.8298    0.3128 H   0  0  0  0  0  0  0  0  0  0  0  0
   -4.5569   -1.0387    1.5106 C   0  0  0  0  0  0  0  0  0  0  0  0
   -5.0349   -1.6179    2.3257 H   0  0  0  0  0  0  0  0  0  0  0  0
   -3.9132   -0.2551    1.9715 H   0  0  0  0  0  0  0  0  0  0  0  0
   -5.0254    0.2598   -0.3414 C   0  0  0  0  0  0  0  0  0  0  0  0
   -4.3759    1.0939    0.0220 H   0  0  0  0  0  0  0  0  0  0  0  0
   -5.8586    0.7018   -0.9231 H   0  0  0  0  0  0  0  0  0  0  0  0
   -4.2010   -0.6493   -1.2394 C   0  0  0  0  0  0  0  0  0  0  0  0
   -4.8548   -1.4632   -1.6324 H   0  0  0  0  0  0  0  0  0  0  0  0
   -3.7760   -0.0713   -2.0804 H   0  0  0  0  0  0  0  0  0  0  0  0
    0.7141    2.2597    0.0092 C   0  0  0  0  0  0  0  0  0  0  0  0
    0.4041    3.1613    1.0584 C   0  0  0  0  0  0  0  0  0  0  0  0
    0.7770    4.5100    0.9040 C   0  0  0  0  0  0  0  0  0  0  0  0
    0.5549    5.2141    1.7210 H   0  0  0  0  0  0  0  0  0  0  0  0
    1.4154    4.9610   -0.2576 C   0  0  0  0  0  0  0  0  0  0  0  0
    1.6940    6.0209   -0.3589 H   0  0  0  0  0  0  0  0  0  0  0  0
    1.6844    4.0606   -1.2963 C   0  0  0  0  0  0  0  0  0  0  0  0
    2.1634    4.4138   -2.2228 H   0  0  0  0  0  0  0  0  0  0  0  0
    1.3409    2.7009   -1.1905 C   0  0  0  0  0  0  0  0  0  0  0  0
   -0.2999    2.7052    2.3052 C   0  0  0  0  0  0  0  0  0  0  0  0
   -1.3537    2.4296    2.0919 H   0  0  0  0  0  0  0  0  0  0  0  0
   -0.3019    3.5038    3.0713 H   0  0  0  0  0  0  0  0  0  0  0  0
    0.1532    1.7900    2.7327 H   0  0  0  0  0  0  0  0  0  0  0  0
    1.6182    1.7560   -2.3314 C   0  0  0  0  0  0  0  0  0  0  0  0
    1.8034    2.3212   -3.2647 H   0  0  0  0  0  0  0  0  0  0  0  0
    0.7561    1.0808   -2.4957 H   0  0  0  0  0  0  0  0  0  0  0  0
    2.5118    1.1254   -2.1398 H   0  0  0  0  0  0  0  0  0  0  0  0
  1 21  1  0  0  0  0
  2 22  1  0  0  0  0
  3 29  1  0  0  0  0
  4 32  1  0  0  0  0
  5 21  1  0  0  0  0
  5 20  1  0  0  0  0
  6  8  1  0  0  0  0
  6  5  2  0  0  0  0
  7  6  1  0  0  0  0
  8 10  2  0  0  0  0
  9  8  1  0  0  0  0
 10 11  1  0  0  0  0
 10 12  1  0  0  0  0
 12 13  1  0  0  0  0
 13 14  1  0  0  0  0
 13 15  2  0  0  0  0
 15 16  1  0  0  0  0
 17 15  1  0  0  0  0
 17 18  1  0  0  0  0
 19 17  2  0  0  0  0
 20 12  2  0  0  0  0
 20 19  1  0  0  0  0
 21 22  2  0  0  0  0
 22 19  1  0  0  0  0
 23  1  1  0  0  0  0
 23 24  1  0  0  0  0
 25 23  1  0  0  0  0
 26 23  1  0  0  0  0
 26  3  1  0  0  0  0
 27 26  1  0  0  0  0
 28 26  1  0  0  0  0
 29 30  1  0  0  0  0
 29 32  1  0  0  0  0
 31 29  1  0  0  0  0
 32 34  1  0  0  0  0
 32 33  1  0  0  0  0
 35 36  1  0  0  0  0
 35  4  1  0  0  0  0
 37 35  1  0  0  0  0
 38  3  1  0  0  0  0
 38 35  1  0  0  0  0
 39 38  1  0  0  0  0
 40 38  1  0  0  0  0
 41  2  1  0  0  0  0
 41 42  1  0  0  0  0
 42 50  1  0  0  0  0
 43 42  2  0  0  0  0
 43 44  1  0  0  0  0
 45 43  1  0  0  0  0
 46 45  1  0  0  0  0
 47 49  1  0  0  0  0
 47 45  2  0  0  0  0
 48 47  1  0  0  0  0
 49 41  2  0  0  0  0
 50 53  1  0  0  0  0
 50 52  1  0  0  0  0
 51 50  1  0  0  0  0
 54 57  1  0  0  0  0
 54 49  1  0  0  0  0
 55 54  1  0  0  0  0
 56 54  1  0  0  0  0
M  END
