1,10,26
 OpenBabel05122313063D

 34 35  0  0  1  0  0  0  0  0999 V2000
   -0.0338    2.0412   -0.0387 N   0  0  0  0  0  0  0  0  0  0  0  0
   -0.2040    2.2709    0.9499 H   0  0  0  0  0  0  0  0  0  0  0  0
   -1.1524    2.3906   -0.8868 C   0  0  0  0  0  0  0  0  0  0  0  0
   -1.0371    1.8493   -1.8522 H   0  0  0  0  0  0  0  0  0  0  0  0
   -1.2005    3.4872   -1.1146 H   0  0  0  0  0  0  0  0  0  0  0  0
   -2.4666    1.9934   -0.2103 C   0  0  0  0  0  0  0  0  0  0  0  0
   -2.4657    2.4199    0.8214 H   0  0  0  0  0  0  0  0  0  0  0  0
   -3.3048    2.4925   -0.7343 H   0  0  0  0  0  0  0  0  0  0  0  0
   -2.8188    0.5287   -0.0794 C   0  0  1  0  0  3  0  0  0  0  0  0
   -1.8804   -0.3984    0.2355 N   0  0  0  0  0  2  0  0  0  0  0  0
   -2.2511   -1.6797    0.4728 C   0  0  0  0  0  0  0  0  0  0  0  0
   -1.4381   -2.3602    0.7598 H   0  0  0  0  0  0  0  0  0  0  0  0
   -3.5718   -2.1141    0.3742 C   0  0  0  0  0  0  0  0  0  0  0  0
   -3.8157   -3.1667    0.5746 H   0  0  0  0  0  0  0  0  0  0  0  0
   -4.5564   -1.1817    0.0178 C   0  0  0  0  0  0  0  0  0  0  0  0
   -5.6109   -1.4801   -0.0799 H   0  0  0  0  0  0  0  0  0  0  0  0
   -4.1692    0.1427   -0.2017 C   0  0  0  0  0  0  0  0  0  0  0  0
   -4.9141    0.9069   -0.4678 H   0  0  0  0  0  0  0  0  0  0  0  0
    1.2873    2.4581   -0.4530 C   0  0  0  0  0  0  0  0  0  0  0  0
    1.3984    3.5724   -0.4901 H   0  0  0  0  0  0  0  0  0  0  0  0
    1.4585    2.0840   -1.4864 H   0  0  0  0  0  0  0  0  0  0  0  0
    2.3475    1.8834    0.5082 C   0  0  0  0  0  0  0  0  0  0  0  0
    3.2375    2.5415    0.5202 H   0  0  0  0  0  0  0  0  0  0  0  0
    1.9228    1.8761    1.5385 H   0  0  0  0  0  0  0  0  0  0  0  0
    2.8014    0.4864    0.1896 C   0  0  1  0  0  3  0  0  0  0  0  0
    1.8715   -0.4838   -0.0140 N   0  0  0  0  0  2  0  0  0  0  0  0
    2.2667   -1.7375   -0.3422 C   0  0  0  0  0  0  0  0  0  0  0  0
    1.4561   -2.4491   -0.5472 H   0  0  0  0  0  0  0  0  0  0  0  0
    3.6095   -2.1003   -0.4365 C   0  0  0  0  0  0  0  0  0  0  0  0
    3.8749   -3.1357   -0.6916 H   0  0  0  0  0  0  0  0  0  0  0  0
    4.5889   -1.1217   -0.2061 C   0  0  0  0  0  0  0  0  0  0  0  0
    5.6597   -1.3666   -0.2691 H   0  0  0  0  0  0  0  0  0  0  0  0
    4.1727    0.1783    0.0922 C   0  0  0  0  0  0  0  0  0  0  0  0
    4.9062    0.9809    0.2574 H   0  0  0  0  0  0  0  0  0  0  0  0
  1  2  1  0  0  0  0
  3  6  1  0  0  0  0
  3  1  1  0  0  0  0
  4  3  1  0  0  0  0
  5  3  1  0  0  0  0
  6  7  1  0  0  0  0
  8  6  1  0  0  0  0
  9  6  1  1  0  0  0
  9 10  1  0  0  0  0
 10 11  1  0  0  0  0
 11 12  1  0  0  0  0
 13 11  2  0  0  0  0
 13 14  1  0  0  0  0
 15 13  1  0  0  0  0
 16 15  1  0  0  0  0
 17  9  1  0  0  0  0
 17 15  2  0  0  0  0
 18 17  1  0  0  0  0
 19  1  1  0  0  0  0
 19 22  1  0  0  0  0
 20 19  1  0  0  0  0
 21 19  1  0  0  0  0
 22 23  1  0  0  0  0
 22 24  1  0  0  0  0
 25 22  1  6  0  0  0
 26 25  1  0  0  0  0
 27 26  1  0  0  0  0
 28 27  1  0  0  0  0
 29 27  2  0  0  0  0
 29 31  1  0  0  0  0
 30 29  1  0  0  0  0
 31 33  2  0  0  0  0
 32 31  1  0  0  0  0
 33 25  1  0  0  0  0
 33 34  1  0  0  0  0
M  END
