11,12,13
 OpenBabel05122313063D

 47 51  0  0  1  0  0  0  0  0999 V2000
   -4.2510   -0.4491    2.1083 F   0  0  0  0  0  0  0  0  0  0  0  0
   -6.1292   -2.4097    2.0608 F   0  0  0  0  0  0  0  0  0  0  0  0
   -6.3425   -4.0528   -0.1190 F   0  0  0  0  0  0  0  0  0  0  0  0
   -4.6689   -3.7201   -2.2595 F   0  0  0  0  0  0  0  0  0  0  0  0
   -2.7930   -1.7534   -2.2264 F   0  0  0  0  0  0  0  0  0  0  0  0
    4.2719   -0.1721   -2.1020 F   0  0  0  0  0  0  0  0  0  0  0  0
    6.2933   -1.9896   -2.1248 F   0  0  0  0  0  0  0  0  0  0  0  0
    6.7067   -3.6052    0.0459 F   0  0  0  0  0  0  0  0  0  0  0  0
    5.0885   -3.3962    2.2438 F   0  0  0  0  0  0  0  0  0  0  0  0
    3.0651   -1.5815    2.2755 F   0  0  0  0  0  0  0  0  0  0  0  0
    0.0324    0.4547    0.0186 N   0  0  0  0  0  2  0  0  0  0  0  0
   -2.0287    2.4652   -0.0232 N   0  0  0  0  0  2  0  0  0  0  0  0
    1.9931    2.6100    0.2318 N   0  0  0  0  0  0  0  0  0  0  0  0
   -2.3427    4.7601   -0.2492 O   0  0  0  0  0  0  0  0  0  0  0  0
   -1.0403   -0.3883    0.0009 C   0  0  0  0  0  0  0  0  0  0  0  0
   -0.5838   -1.7597    0.0153 C   0  0  0  0  0  0  0  0  0  0  0  0
   -1.2220   -2.6495    0.0214 H   0  0  0  0  0  0  0  0  0  0  0  0
    0.7970   -1.7205    0.0231 C   0  0  0  0  0  0  0  0  0  0  0  0
    1.4849   -2.5728    0.0236 H   0  0  0  0  0  0  0  0  0  0  0  0
    1.1737   -0.3271    0.0397 C   0  0  0  0  0  0  0  0  0  0  0  0
   -2.4226    0.0331   -0.0311 C   0  0  0  0  0  0  0  0  0  0  0  0
   -2.8537    1.3588   -0.0530 C   0  0  2  0  0  3  0  0  0  0  0  0
   -4.2474    1.8092   -0.1887 C   0  0  0  0  0  0  0  0  0  0  0  0
   -5.1171    1.1439   -0.2449 H   0  0  0  0  0  0  0  0  0  0  0  0
   -4.2294    3.1722   -0.2623 C   0  0  0  0  0  0  0  0  0  0  0  0
   -5.0666    3.8688   -0.3832 H   0  0  0  0  0  0  0  0  0  0  0  0
   -2.8107    3.5817   -0.1736 C   0  0  0  0  0  0  0  0  0  0  0  0
   -3.4579   -1.0394   -0.0574 C   0  0  0  0  0  0  0  0  0  0  0  0
   -4.3351   -1.2339    1.0274 C   0  0  0  0  0  0  0  0  0  0  0  0
   -5.3110   -2.2445    1.0181 C   0  0  0  0  0  0  0  0  0  0  0  0
   -5.4198   -3.0905   -0.0985 C   0  0  0  0  0  0  0  0  0  0  0  0
   -4.5575   -2.9204   -1.1957 C   0  0  0  0  0  0  0  0  0  0  0  0
   -3.5925   -1.9007   -1.1643 C   0  0  0  0  0  0  0  0  0  0  0  0
    2.4970    0.1791    0.0978 C   0  0  0  0  0  0  0  0  0  0  0  0
    2.8827    1.5365    0.1916 C   0  0  0  0  0  0  0  0  0  0  0  0
    4.2235    2.0431    0.3319 C   0  0  0  0  0  0  0  0  0  0  0  0
    5.1361    1.4370    0.3554 H   0  0  0  0  0  0  0  0  0  0  0  0
    4.1217    3.4259    0.4563 C   0  0  0  0  0  0  0  0  0  0  0  0
    4.9362    4.1467    0.5919 H   0  0  0  0  0  0  0  0  0  0  0  0
    2.7290    3.7263    0.3931 C   0  0  0  0  0  3  0  0  0  0  0  0
    2.2300    4.6998    0.4962 H   0  0  0  0  0  0  0  0  0  0  0  0
    3.6031   -0.8251    0.0851 C   0  0  0  0  0  0  0  0  0  0  0  0
    4.4543   -0.9485   -1.0293 C   0  0  0  0  0  0  0  0  0  0  0  0
    5.5022   -1.8838   -1.0545 C   0  0  0  0  0  0  0  0  0  0  0  0
    5.7144   -2.7152    0.0587 C   0  0  0  0  0  0  0  0  0  0  0  0
    4.8808   -2.6091    1.1854 C   0  0  0  0  0  0  0  0  0  0  0  0
    3.8378   -1.6683    1.1873 C   0  0  0  0  0  0  0  0  0  0  0  0
  3 31  1  0  0  0  0
  4 32  1  0  0  0  0
  5 33  1  0  0  0  0
  6 43  1  0  0  0  0
  7 44  1  0  0  0  0
  8 45  1  0  0  0  0
 11 20  1  0  0  0  0
 13 40  1  0  0  0  0
 14 27  2  0  0  0  0
 15 16  1  0  0  0  0
 15 11  1  0  0  0  0
 16 17  1  0  0  0  0
 16 18  2  0  0  0  0
 18 19  1  0  0  0  0
 18 20  1  0  0  0  0
 20 34  2  0  0  0  0
 21 15  2  0  0  0  0
 22 21  1  6  0  0  0
 22 12  1  0  0  0  0
 23 22  1  0  0  0  0
 24 23  1  0  0  0  0
 25 23  2  0  0  0  0
 25 27  1  0  0  0  0
 26 25  1  0  0  0  0
 27 12  1  0  0  0  0
 28 21  1  0  0  0  0
 28 29  1  0  0  0  0
 29  1  1  0  0  0  0
 30 29  2  0  0  0  0
 30  2  1  0  0  0  0
 31 30  1  0  0  0  0
 32 33  1  0  0  0  0
 32 31  2  0  0  0  0
 33 28  2  0  0  0  0
 34 35  1  0  0  0  0
 35 13  2  0  0  0  0
 35 36  1  0  0  0  0
 36 37  1  0  0  0  0
 36 38  2  0  0  0  0
 38 39  1  0  0  0  0
 40 38  1  0  0  0  0
 40 41  1  0  0  0  0
 42 34  1  0  0  0  0
 42 47  1  0  0  0  0
 43 42  2  0  0  0  0
 44 43  1  0  0  0  0
 44 45  2  0  0  0  0
 45 46  1  0  0  0  0
 46 47  2  0  0  0  0
 46  9  1  0  0  0  0
 47 10  1  0  0  0  0
M  END
