2,3,8
 OpenBabel05122313063D

 70 76  0  0  1  0  0  0  0  0999 V2000
   10.4087   -2.1987    0.0234 S   0  0  0  0  0  0  0  0  0  0  0  0
   -3.7112    0.2508   -0.6367 N   0  0  0  0  0  2  0  0  0  0  0  0
   -5.3855    2.2146    0.1272 N   0  0  0  0  0  2  0  0  0  0  0  0
   -3.6864   -2.0771   -1.2568 C   0  0  0  0  0  0  0  0  0  0  0  0
   -1.7518    1.6067   -0.3867 C   0  0  0  0  0  0  0  0  0  0  0  0
   -1.3008    2.5694   -0.1145 H   0  0  0  0  0  0  0  0  0  0  0  0
    3.4123    0.8871   -0.7406 C   0  0  0  0  0  0  0  0  0  0  0  0
   -5.0101   -2.0800   -0.9927 N   0  0  0  0  0  2  0  0  0  0  0  0
   -2.9502   -0.8128   -0.9490 C   0  0  0  0  0  0  0  0  0  0  0  0
   13.6560    0.1732    0.6445 C   0  0  0  0  0  0  0  0  0  0  0  0
   14.0382    1.1643    0.3740 H   0  0  0  0  0  0  0  0  0  0  0  0
    0.5539    0.6417   -0.7095 C   0  0  0  0  0  0  0  0  0  0  0  0
    1.1787    1.8576   -1.0708 C   0  0  0  0  0  0  0  0  0  0  0  0
    0.5635    2.7175   -1.3754 H   0  0  0  0  0  0  0  0  0  0  0  0
   11.5287    0.6311   -0.5201 N   0  0  0  0  0  0  0  0  0  0  0  0
   -3.1474    1.4414   -0.3673 C   0  0  0  0  0  0  0  0  0  0  0  0
   -3.8281   -4.3463   -2.0925 C   0  0  0  0  0  0  0  0  0  0  0  0
   -3.3553   -5.2387   -2.5294 H   0  0  0  0  0  0  0  0  0  0  0  0
   14.0342   -1.9380    1.7942 C   0  0  0  0  0  0  0  0  0  0  0  0
   14.6731   -2.6035    2.3925 H   0  0  0  0  0  0  0  0  0  0  0  0
   -1.5488   -0.7182   -0.9880 C   0  0  0  0  0  0  0  0  0  0  0  0
   -0.9377   -1.5903   -1.2528 H   0  0  0  0  0  0  0  0  0  0  0  0
   -3.0589   -3.2094   -1.8144 C   0  0  0  0  0  0  0  0  0  0  0  0
   -1.9854   -3.2016   -2.0460 H   0  0  0  0  0  0  0  0  0  0  0  0
   -4.0911    2.5556   -0.0472 C   0  0  1  0  0  3  0  0  0  0  0  0
   10.1291    0.5156   -0.5223 C   0  0  0  0  0  0  0  0  0  0  0  0
    9.2909    1.6081   -0.8675 C   0  0  0  0  0  0  0  0  0  0  0  0
    9.7320    2.5749   -1.1359 H   0  0  0  0  0  0  0  0  0  0  0  0
   -5.9744    4.5133    0.4998 C   0  0  0  0  0  0  0  0  0  0  0  0
   -6.7552    5.2565    0.7152 H   0  0  0  0  0  0  0  0  0  0  0  0
   12.3587   -0.2238    0.2440 C   0  0  0  0  0  0  0  0  0  0  0  0
   -4.6338    4.8861    0.3298 C   0  0  0  0  0  0  0  0  0  0  0  0
   -4.3305    5.9409    0.4080 H   0  0  0  0  0  0  0  0  0  0  0  0
   -6.3039    3.1546    0.3850 C   0  0  0  0  0  0  0  0  0  0  0  0
   -7.3418    2.7936    0.4931 H   0  0  0  0  0  0  0  0  0  0  0  0
    5.8043    0.1306   -0.4752 C   0  0  0  0  0  0  0  0  0  0  0  0
    5.4686   -0.8745   -0.1671 H   0  0  0  0  0  0  0  0  0  0  0  0
   -5.7520   -3.1611   -1.2653 C   0  0  0  0  0  0  0  0  0  0  0  0
   -6.8288   -3.0734   -1.0374 H   0  0  0  0  0  0  0  0  0  0  0  0
   -0.9174    0.5105   -0.6960 C   0  0  0  0  0  0  0  0  0  0  0  0
   -3.6796    3.9002    0.0484 C   0  0  0  0  0  0  0  0  0  0  0  0
   -2.6295    4.1801   -0.1098 H   0  0  0  0  0  0  0  0  0  0  0  0
   -5.2024   -4.3280   -1.8171 C   0  0  0  0  0  0  0  0  0  0  0  0
   -5.8426   -5.1967   -2.0262 H   0  0  0  0  0  0  0  0  0  0  0  0
   11.9277   -1.5200    0.6343 C   0  0  0  0  0  0  0  0  0  0  0  0
   12.1288    1.8298   -1.1122 C   0  0  0  0  0  0  0  0  0  0  0  0
   13.1395    1.5474   -1.4685 H   0  0  0  0  0  0  0  0  0  0  0  0
   11.5483    2.0715   -2.0250 H   0  0  0  0  0  0  0  0  0  0  0  0
    1.3903   -0.4478   -0.3611 C   0  0  0  0  0  0  0  0  0  0  0  0
    0.9376   -1.3977   -0.0393 H   0  0  0  0  0  0  0  0  0  0  0  0
    8.0838   -0.7931   -0.1601 C   0  0  0  0  0  0  0  0  0  0  0  0
    7.6251   -1.7548    0.1189 H   0  0  0  0  0  0  0  0  0  0  0  0
   12.7466   -2.3481    1.4174 C   0  0  0  0  0  0  0  0  0  0  0  0
   12.3664   -3.3383    1.7110 H   0  0  0  0  0  0  0  0  0  0  0  0
    7.8997    1.5001   -0.8742 C   0  0  0  0  0  0  0  0  0  0  0  0
    7.3095    2.3832   -1.1582 H   0  0  0  0  0  0  0  0  0  0  0  0
    9.4782   -0.7059   -0.1920 C   0  0  0  0  0  0  0  0  0  0  0  0
   12.2119    3.0564   -0.1952 C   0  0  0  0  0  0  0  0  0  0  0  0
   11.2115    3.3840    0.1475 H   0  0  0  0  0  0  0  0  0  0  0  0
   12.6815    3.9016   -0.7374 H   0  0  0  0  0  0  0  0  0  0  0  0
   12.8147    2.8544    0.7109 H   0  0  0  0  0  0  0  0  0  0  0  0
    4.8583    1.0669   -0.7774 C   0  0  0  0  0  0  0  0  0  0  0  0
    5.1893    2.0732   -1.0853 H   0  0  0  0  0  0  0  0  0  0  0  0
    2.5692    1.9734   -1.0900 C   0  0  0  0  0  0  0  0  0  0  0  0
    3.0293    2.9275   -1.3914 H   0  0  0  0  0  0  0  0  0  0  0  0
   14.4852   -0.6755    1.3943 C   0  0  0  0  0  0  0  0  0  0  0  0
   15.4907   -0.3278    1.6741 H   0  0  0  0  0  0  0  0  0  0  0  0
    7.2500    0.2988   -0.5084 C   0  0  0  0  0  0  0  0  0  0  0  0
    2.7784   -0.3287   -0.3710 C   0  0  0  0  0  0  0  0  0  0  0  0
    3.3870   -1.1957   -0.0758 H   0  0  0  0  0  0  0  0  0  0  0  0
  1 45  1  0  0  0  0
  2 16  1  0  0  0  0
  3 34  1  0  0  0  0
  4  8  1  0  0  0  0
  4  9  2  0  0  0  0
  5 16  2  0  0  0  0
  5  6  1  0  0  0  0
  7 69  1  0  0  0  0
  9  2  1  0  0  0  0
 10 66  1  0  0  0  0
 11 10  1  0  0  0  0
 12 40  1  0  0  0  0
 12 49  1  0  0  0  0
 13 12  2  0  0  0  0
 14 13  1  0  0  0  0
 15 31  1  0  0  0  0
 17 43  1  0  0  0  0
 17 23  2  0  0  0  0
 18 17  1  0  0  0  0
 19 20  1  0  0  0  0
 21  9  1  0  0  0  0
 21 40  2  0  0  0  0
 22 21  1  0  0  0  0
 23  4  1  0  0  0  0
 24 23  1  0  0  0  0
 25 16  1  6  0  0  0
 25 41  1  0  0  0  0
 25  3  1  0  0  0  0
 26 15  1  0  0  0  0
 26 57  1  0  0  0  0
 27 26  2  0  0  0  0
 28 27  1  0  0  0  0
 29 30  1  0  0  0  0
 31 45  1  0  0  0  0
 31 10  2  0  0  0  0
 32 33  1  0  0  0  0
 32 29  1  0  0  0  0
 34 35  1  0  0  0  0
 34 29  2  0  0  0  0
 36 37  1  0  0  0  0
 38 39  1  0  0  0  0
 38  8  1  0  0  0  0
 40  5  1  0  0  0  0
 41 32  2  0  0  0  0
 42 41  1  0  0  0  0
 43 38  2  0  0  0  0
 44 43  1  0  0  0  0
 45 53  2  0  0  0  0
 46 15  1  0  0  0  0
 46 58  1  0  0  0  0
 47 46  1  0  0  0  0
 48 46  1  0  0  0  0
 49 50  1  0  0  0  0
 51 52  1  0  0  0  0
 53 54  1  0  0  0  0
 53 19  1  0  0  0  0
 55 27  1  0  0  0  0
 55 68  2  0  0  0  0
 56 55  1  0  0  0  0
 57 51  2  0  0  0  0
 57  1  1  0  0  0  0
 58 59  1  0  0  0  0
 58 61  1  0  0  0  0
 60 58  1  0  0  0  0
 62  7  1  0  0  0  0
 62 36  2  0  0  0  0
 63 62  1  0  0  0  0
 64 13  1  0  0  0  0
 64  7  2  0  0  0  0
 65 64  1  0  0  0  0
 66 67  1  0  0  0  0
 66 19  2  0  0  0  0
 68 36  1  0  0  0  0
 68 51  1  0  0  0  0
 69 49  2  0  0  0  0
 69 70  1  0  0  0  0
M  END
