2,5,6
 OpenBabel05122313063D

 25 25  0  0  1  0  0  0  0  0999 V2000
   -2.9895   -1.6357   -0.0006 O   0  0  0  0  0  1  0  0  0  0  0  0
    1.7943   -0.0402    0.0001 N   0  0  0  0  0  2  0  0  0  0  0  0
    0.6599    1.9938   -0.0000 N   0  0  0  0  0  0  0  0  0  0  0  0
    0.6127    3.0142    0.0002 H   0  0  0  0  0  0  0  0  0  0  0  0
   -0.4768    1.2391    0.0001 N   0  0  0  0  0  2  0  0  0  0  0  0
   -2.2417   -0.6524   -0.0002 N   0  0  0  0  0  2  0  0  0  0  0  0
    1.8646    1.3234   -0.0000 C   0  0  2  0  0  3  0  0  0  0  0  0
    3.1103    1.9903   -0.0001 C   0  0  0  0  0  0  0  0  0  0  0  0
    3.1523    3.0890   -0.0003 H   0  0  0  0  0  0  0  0  0  0  0  0
    4.2728    1.2175   -0.0001 C   0  0  0  0  0  0  0  0  0  0  0  0
    5.2535    1.7163   -0.0001 H   0  0  0  0  0  0  0  0  0  0  0  0
    4.1892   -0.1883    0.0001 C   0  0  0  0  0  0  0  0  0  0  0  0
    5.0891   -0.8177    0.0001 H   0  0  0  0  0  0  0  0  0  0  0  0
    2.9218   -0.7764    0.0001 C   0  0  0  0  0  0  0  0  0  0  0  0
    2.7449   -1.8660    0.0002 H   0  0  0  0  0  0  0  0  0  0  0  0
   -1.7271    1.6764    0.0000 C   0  0  0  0  0  0  0  0  0  0  0  0
   -2.7212    0.6359    0.0003 C   0  0  0  0  0  0  0  0  0  0  0  0
   -2.0478    3.1426   -0.0004 C   0  0  0  0  0  0  0  0  0  0  0  0
   -1.6262    3.6469   -0.8972 H   0  0  0  0  0  0  0  0  0  0  0  0
   -1.6311    3.6466    0.8987 H   0  0  0  0  0  0  0  0  0  0  0  0
   -3.1375    3.3168   -0.0035 H   0  0  0  0  0  0  0  0  0  0  0  0
   -4.2001    0.8774    0.0005 C   0  0  0  0  0  0  0  0  0  0  0  0
   -4.5371    1.4305   -0.9019 H   0  0  0  0  0  0  0  0  0  0  0  0
   -4.5333    1.4494    0.8923 H   0  0  0  0  0  0  0  0  0  0  0  0
   -4.7080   -0.1043    0.0113 H   0  0  0  0  0  0  0  0  0  0  0  0
  1  6  1  0  0  0  0
  2 14  1  0  0  0  0
  3  5  1  0  0  0  0
  3  4  1  0  0  0  0
  6 17  1  0  0  0  0
  7  3  1  6  0  0  0
  7  2  1  0  0  0  0
  8 10  2  0  0  0  0
  8  7  1  0  0  0  0
  9  8  1  0  0  0  0
 10 12  1  0  0  0  0
 11 10  1  0  0  0  0
 12 14  2  0  0  0  0
 12 13  1  0  0  0  0
 14 15  1  0  0  0  0
 16  5  1  0  0  0  0
 16 17  2  0  0  0  0
 17 22  1  0  0  0  0
 18 16  1  0  0  0  0
 18 20  1  0  0  0  0
 19 18  1  0  0  0  0
 21 18  1  0  0  0  0
 22 25  1  0  0  0  0
 22 24  1  0  0  0  0
 23 22  1  0  0  0  0
M  END
