1,3,5
 OpenBabel05122313063D

 50 54  0  0  0  0  0  0  0  0999 V2000
    2.5124   -0.5335    1.1928 N   0  0  0  0  0  2  0  0  0  0  0  0
    2.6358    0.7436    1.6516 N   0  0  0  0  0  0  0  0  0  0  0  0
    0.0199   -2.0700    0.6012 N   0  0  0  0  0  2  0  0  0  0  0  0
   -1.2059   -1.6058    0.9594 N   0  0  0  0  0  0  0  0  0  0  0  0
    0.3078    0.7303    0.1050 N   0  0  0  0  0  2  0  0  0  0  0  0
    3.0069   -1.3325    2.1550 C   0  0  0  0  0  3  0  0  0  0  0  0
    3.0131   -2.4175    2.0084 H   0  0  0  0  0  0  0  0  0  0  0  0
    3.4562   -0.5682    3.2528 C   0  0  0  0  0  0  0  0  0  0  0  0
    3.8974   -0.9298    4.1861 H   0  0  0  0  0  0  0  0  0  0  0  0
    3.2014    0.7530    2.8953 C   0  0  0  0  0  0  0  0  0  0  0  0
    3.3549    1.6963    3.4284 H   0  0  0  0  0  0  0  0  0  0  0  0
    2.3179    1.8716    0.8407 C   0  0  0  0  0  0  0  0  0  0  0  0
    3.2247    2.9439    0.7986 C   0  0  0  0  0  0  0  0  0  0  0  0
    4.1569    2.8760    1.3798 H   0  0  0  0  0  0  0  0  0  0  0  0
    2.9790    4.0734    0.0025 C   0  0  0  0  0  0  0  0  0  0  0  0
    1.8113    4.0641   -0.7911 C   0  0  0  0  0  0  0  0  0  0  0  0
    1.6168    4.9079   -1.4721 H   0  0  0  0  0  0  0  0  0  0  0  0
    0.9140    2.9940   -0.7663 C   0  0  0  0  0  0  0  0  0  0  0  0
    0.0513    2.9925   -1.4453 H   0  0  0  0  0  0  0  0  0  0  0  0
    1.1181    1.8701    0.0738 C   0  0  0  0  0  0  0  0  0  0  0  0
    3.9392    5.2341   -0.0373 C   0  0  0  0  0  0  0  0  0  0  0  0
    3.4895    6.1449    0.4124 H   0  0  0  0  0  0  0  0  0  0  0  0
    4.2151    5.4938   -1.0800 H   0  0  0  0  0  0  0  0  0  0  0  0
    4.8724    5.0135    0.5160 H   0  0  0  0  0  0  0  0  0  0  0  0
    0.2045   -3.2329    1.2593 C   0  0  0  0  0  3  0  0  0  0  0  0
    1.1275   -3.8016    1.1044 H   0  0  0  0  0  0  0  0  0  0  0  0
   -0.9121   -3.5246    2.0649 C   0  0  0  0  0  0  0  0  0  0  0  0
   -1.0596   -4.3860    2.7228 H   0  0  0  0  0  0  0  0  0  0  0  0
   -1.7867   -2.4619    1.8593 C   0  0  0  0  0  0  0  0  0  0  0  0
   -2.7568   -2.2261    2.3047 H   0  0  0  0  0  0  0  0  0  0  0  0
   -1.8140   -0.4184    0.4502 C   0  0  0  0  0  0  0  0  0  0  0  0
   -3.2157   -0.4272    0.3625 C   0  0  0  0  0  0  0  0  0  0  0  0
   -3.7404   -1.3867    0.4735 H   0  0  0  0  0  0  0  0  0  0  0  0
   -3.9652    0.7510    0.1947 C   0  0  0  0  0  0  0  0  0  0  0  0
   -3.2311    1.9619    0.1691 C   0  0  0  0  0  0  0  0  0  0  0  0
   -3.7665    2.9195    0.0851 H   0  0  0  0  0  0  0  0  0  0  0  0
   -1.8400    1.9775    0.1815 C   0  0  0  0  0  0  0  0  0  0  0  0
   -1.3251    2.9447    0.1418 H   0  0  0  0  0  0  0  0  0  0  0  0
   -1.0552    0.7838    0.2209 C   0  0  0  0  0  0  0  0  0  0  0  0
   -5.4399    0.7166    0.0784 C   0  0  0  0  0  0  0  0  0  0  0  0
   -6.0989   -0.3800   -0.5274 C   0  0  0  0  0  0  0  0  0  0  0  0
   -5.5012   -1.2007   -0.9524 H   0  0  0  0  0  0  0  0  0  0  0  0
   -7.4956   -0.4187   -0.6314 C   0  0  0  0  0  0  0  0  0  0  0  0
   -7.9809   -1.2803   -1.1153 H   0  0  0  0  0  0  0  0  0  0  0  0
   -8.2733    0.6416   -0.1391 C   0  0  0  0  0  0  0  0  0  0  0  0
   -9.3701    0.6134   -0.2241 H   0  0  0  0  0  0  0  0  0  0  0  0
   -7.6358    1.7402    0.4600 C   0  0  0  0  0  0  0  0  0  0  0  0
   -8.2337    2.5753    0.8566 H   0  0  0  0  0  0  0  0  0  0  0  0
   -6.2395    1.7763    0.5690 C   0  0  0  0  0  0  0  0  0  0  0  0
   -5.7583    2.6306    1.0684 H   0  0  0  0  0  0  0  0  0  0  0  0
  1  2  1  0  0  0  0
  1  6  1  0  0  0  0
  2 10  1  0  0  0  0
  3  4  1  0  0  0  0
  3 25  1  0  0  0  0
  4 29  1  0  0  0  0
  5 39  1  0  0  0  0
  6  8  1  0  0  0  0
  7  6  1  0  0  0  0
  8  9  1  0  0  0  0
 10  8  2  0  0  0  0
 10 11  1  0  0  0  0
 12  2  1  0  0  0  0
 13 12  1  0  0  0  0
 13 14  1  0  0  0  0
 15 13  2  0  0  0  0
 16 18  2  0  0  0  0
 16 15  1  0  0  0  0
 17 16  1  0  0  0  0
 18 20  1  0  0  0  0
 19 18  1  0  0  0  0
 20  5  1  0  0  0  0
 20 12  2  0  0  0  0
 21 15  1  0  0  0  0
 21 22  1  0  0  0  0
 21 24  1  0  0  0  0
 23 21  1  0  0  0  0
 25 27  1  0  0  0  0
 26 25  1  0  0  0  0
 27 28  1  0  0  0  0
 29 27  2  0  0  0  0
 29 30  1  0  0  0  0
 31  4  1  0  0  0  0
 32 31  1  0  0  0  0
 32 33  1  0  0  0  0
 34 32  2  0  0  0  0
 35 37  2  0  0  0  0
 35 34  1  0  0  0  0
 36 35  1  0  0  0  0
 37 39  1  0  0  0  0
 38 37  1  0  0  0  0
 39 31  2  0  0  0  0
 40 34  1  0  0  0  0
 40 49  1  0  0  0  0
 41 40  2  0  0  0  0
 42 41  1  0  0  0  0
 43 41  1  0  0  0  0
 43 45  2  0  0  0  0
 44 43  1  0  0  0  0
 45 47  1  0  0  0  0
 46 45  1  0  0  0  0
 47 49  2  0  0  0  0
 47 48  1  0  0  0  0
 49 50  1  0  0  0  0
M  END
