1,2,3
 OpenBabel05122313063D

 29 30  0  0  1  0  0  0  0  0999 V2000
   -2.1144   -0.3490    0.0145 N   0  0  0  0  0  2  0  0  0  0  0  0
   -0.3167    1.5923   -0.2092 N   0  0  0  0  0  2  0  0  0  0  0  0
    1.9902   -0.3794    0.0141 N   0  0  0  0  0  2  0  0  0  0  0  0
   -2.9989   -1.3628    0.0491 C   0  0  0  0  0  0  0  0  0  0  0  0
   -4.3801   -1.1587   -0.0915 C   0  0  0  0  0  0  0  0  0  0  0  0
   -4.8668    0.1426   -0.2684 C   0  0  0  0  0  0  0  0  0  0  0  0
   -3.9502    1.2023   -0.3096 C   0  0  0  0  0  0  0  0  0  0  0  0
   -2.5799    0.9300   -0.1762 C   0  0  0  0  0  0  0  0  0  0  0  0
   -1.5538    1.9713   -0.2231 C   0  0  0  0  0  0  0  0  0  0  0  0
    0.7990    2.5129   -0.1454 C   0  0  0  0  0  0  0  0  0  0  0  0
    1.8600    1.9663    0.8333 C   0  0  0  0  0  0  0  0  0  0  0  0
    2.6412    0.7844    0.3095 C   0  0  2  0  0  3  0  0  0  0  0  0
    4.0282    0.8903    0.1065 C   0  0  0  0  0  0  0  0  0  0  0  0
    4.7553   -0.1889   -0.4088 C   0  0  0  0  0  0  0  0  0  0  0  0
    4.0684   -1.3676   -0.7228 C   0  0  0  0  0  0  0  0  0  0  0  0
    2.6924   -1.4234   -0.4943 C   0  0  0  0  0  0  0  0  0  0  0  0
   -2.5845   -2.3692    0.2028 H   0  0  0  0  0  0  0  0  0  0  0  0
   -5.0576   -2.0233   -0.0548 H   0  0  0  0  0  0  0  0  0  0  0  0
   -5.9449    0.3315   -0.3749 H   0  0  0  0  0  0  0  0  0  0  0  0
   -4.2842    2.2403   -0.4512 H   0  0  0  0  0  0  0  0  0  0  0  0
   -1.8521    3.0379   -0.2480 H   0  0  0  0  0  0  0  0  0  0  0  0
    1.2407    2.6026   -1.1622 H   0  0  0  0  0  0  0  0  0  0  0  0
    0.4702    3.5269    0.1699 H   0  0  0  0  0  0  0  0  0  0  0  0
    1.3578    1.6954    1.7868 H   0  0  0  0  0  0  0  0  0  0  0  0
    2.5718    2.7813    1.0641 H   0  0  0  0  0  0  0  0  0  0  0  0
    4.5319    1.8335    0.3617 H   0  0  0  0  0  0  0  0  0  0  0  0
    5.8410   -0.1073   -0.5654 H   0  0  0  0  0  0  0  0  0  0  0  0
    4.5834   -2.2447   -1.1387 H   0  0  0  0  0  0  0  0  0  0  0  0
    2.1190   -2.3316   -0.7202 H   0  0  0  0  0  0  0  0  0  0  0  0
  1  4  1  0  0  0  0
  2 10  1  0  0  0  0
  3 12  1  0  0  0  0
  4 17  1  0  0  0  0
  5 18  1  0  0  0  0
  5  4  2  0  0  0  0
  6  5  1  0  0  0  0
  7  6  2  0  0  0  0
  7  8  1  0  0  0  0
  8  1  1  0  0  0  0
  9  2  1  0  0  0  0
  9  8  2  0  0  0  0
 10 23  1  0  0  0  0
 10 11  1  0  0  0  0
 11 25  1  0  0  0  0
 11 24  1  0  0  0  0
 12 11  1  6  0  0  0
 13 12  1  0  0  0  0
 13 26  1  0  0  0  0
 14 13  2  0  0  0  0
 15 16  2  0  0  0  0
 15 14  1  0  0  0  0
 16  3  1  0  0  0  0
 19  6  1  0  0  0  0
 20  7  1  0  0  0  0
 21  9  1  0  0  0  0
 22 10  1  0  0  0  0
 27 14  1  0  0  0  0
 28 15  1  0  0  0  0
 29 16  1  0  0  0  0
M  END
