1,17,33
 OpenBabel05122313063D

 47 49  0  0  1  0  0  0  0  0999 V2000
    0.7317    1.6242   -2.0615 N   0  0  0  0  0  2  0  0  0  0  0  0
    2.5880    0.1000   -1.6790 C   0  0  0  0  0  0  0  0  0  0  0  0
    3.6949    0.1167   -1.5606 H   0  0  0  0  0  0  0  0  0  0  0  0
    2.3631   -0.6282   -2.4880 H   0  0  0  0  0  0  0  0  0  0  0  0
    2.0777    1.4538   -2.1251 C   0  0  1  0  0  3  0  0  0  0  0  0
    2.9262    2.4509   -2.6207 C   0  0  0  0  0  0  0  0  0  0  0  0
    4.0121    2.2801   -2.6512 H   0  0  0  0  0  0  0  0  0  0  0  0
    2.3632    3.6522   -3.0759 C   0  0  0  0  0  0  0  0  0  0  0  0
    3.0033    4.4557   -3.4693 H   0  0  0  0  0  0  0  0  0  0  0  0
    0.9742    3.8142   -3.0202 C   0  0  0  0  0  0  0  0  0  0  0  0
    0.5004    4.7417   -3.3717 H   0  0  0  0  0  0  0  0  0  0  0  0
    0.1718    2.7790   -2.5052 C   0  0  0  0  0  0  0  0  0  0  0  0
   -1.3211    2.8913   -2.4155 C   0  0  0  0  0  0  0  0  0  0  0  0
   -1.6862    3.8511   -2.8241 H   0  0  0  0  0  0  0  0  0  0  0  0
   -1.6475    2.8067   -1.3578 H   0  0  0  0  0  0  0  0  0  0  0  0
   -1.8044    2.0624   -2.9728 H   0  0  0  0  0  0  0  0  0  0  0  0
    1.8970   -0.3544   -0.4645 N   0  0  0  0  0  0  0  0  0  0  0  0
    1.8925   -1.8103   -0.3182 C   0  0  0  0  0  0  0  0  0  0  0  0
    1.4902   -2.0429    0.6915 H   0  0  0  0  0  0  0  0  0  0  0  0
    2.9133   -2.2566   -0.3584 H   0  0  0  0  0  0  0  0  0  0  0  0
    0.9950   -2.4913   -1.3337 C   0  0  1  0  0  3  0  0  0  0  0  0
    1.1980   -3.8303   -1.6974 C   0  0  0  0  0  0  0  0  0  0  0  0
    2.0580   -4.3833   -1.2923 H   0  0  0  0  0  0  0  0  0  0  0  0
    0.2903   -4.4380   -2.5742 C   0  0  0  0  0  0  0  0  0  0  0  0
    0.4196   -5.4892   -2.8716 H   0  0  0  0  0  0  0  0  0  0  0  0
   -0.7794   -3.6850   -3.0761 C   0  0  0  0  0  0  0  0  0  0  0  0
   -1.5045   -4.1291   -3.7727 H   0  0  0  0  0  0  0  0  0  0  0  0
   -0.9197   -2.3403   -2.6915 C   0  0  0  0  0  0  0  0  0  0  0  0
   -2.0248   -1.4629   -3.2000 C   0  0  0  0  0  0  0  0  0  0  0  0
   -2.7214   -2.0137   -3.8579 H   0  0  0  0  0  0  0  0  0  0  0  0
   -1.6041   -0.6082   -3.7707 H   0  0  0  0  0  0  0  0  0  0  0  0
   -2.5972   -1.0377   -2.3499 H   0  0  0  0  0  0  0  0  0  0  0  0
   -0.0416   -1.7716   -1.8256 N   0  0  0  0  0  2  0  0  0  0  0  0
    2.3275    0.3713    0.7591 C   0  0  0  0  0  0  0  0  0  0  0  0
    1.6106    0.0996    1.5590 H   0  0  0  0  0  0  0  0  0  0  0  0
    2.1980    1.4532    0.5525 H   0  0  0  0  0  0  0  0  0  0  0  0
    3.7465    0.0954    1.2055 C   0  0  0  0  0  0  0  0  0  0  0  0
    4.8153    0.8975    0.7545 C   0  0  0  0  0  0  0  0  0  0  0  0
    4.6042    1.7757    0.1225 H   0  0  0  0  0  0  0  0  0  0  0  0
    6.1375    0.6071    1.1243 C   0  0  0  0  0  0  0  0  0  0  0  0
    6.9603    1.2460    0.7697 H   0  0  0  0  0  0  0  0  0  0  0  0
    6.4080   -0.4898    1.9572 C   0  0  0  0  0  0  0  0  0  0  0  0
    7.4434   -0.7165    2.2519 H   0  0  0  0  0  0  0  0  0  0  0  0
    5.3513   -1.2863    2.4274 C   0  0  0  0  0  0  0  0  0  0  0  0
    5.5577   -2.1347    3.0972 H   0  0  0  0  0  0  0  0  0  0  0  0
    4.0309   -0.9940    2.0556 C   0  0  0  0  0  0  0  0  0  0  0  0
    3.2032   -1.6084    2.4454 H   0  0  0  0  0  0  0  0  0  0  0  0
  2  3  1  0  0  0  0
  2 17  1  0  0  0  0
  4  2  1  0  0  0  0
  5  1  1  0  0  0  0
  5  2  1  6  0  0  0
  6  5  1  0  0  0  0
  7  6  1  0  0  0  0
  8 10  1  0  0  0  0
  8  6  2  0  0  0  0
  9  8  1  0  0  0  0
 10 12  2  0  0  0  0
 11 10  1  0  0  0  0
 12 13  1  0  0  0  0
 12  1  1  0  0  0  0
 13 15  1  0  0  0  0
 14 13  1  0  0  0  0
 16 13  1  0  0  0  0
 17 18  1  0  0  0  0
 17 34  1  0  0  0  0
 18 19  1  0  0  0  0
 20 18  1  0  0  0  0
 21 18  1  1  0  0  0
 22 21  1  0  0  0  0
 22 23  1  0  0  0  0
 24 22  2  0  0  0  0
 25 24  1  0  0  0  0
 26 28  2  0  0  0  0
 26 24  1  0  0  0  0
 27 26  1  0  0  0  0
 28 33  1  0  0  0  0
 29 28  1  0  0  0  0
 29 32  1  0  0  0  0
 30 29  1  0  0  0  0
 31 29  1  0  0  0  0
 33 21  1  0  0  0  0
 34 37  1  0  0  0  0
 34 35  1  0  0  0  0
 36 34  1  0  0  0  0
 37 46  1  0  0  0  0
 38 40  1  0  0  0  0
 38 37  2  0  0  0  0
 39 38  1  0  0  0  0
 40 42  2  0  0  0  0
 41 40  1  0  0  0  0
 42 43  1  0  0  0  0
 42 44  1  0  0  0  0
 44 45  1  0  0  0  0
 46 44  2  0  0  0  0
 46 47  1  0  0  0  0
M  END
