1,4,7
 OpenBabel05122313063D

 45 47  0  0  1  0  0  0  0  0999 V2000
   -2.0837    1.4565   -0.0450 N   0  0  0  0  0  2  0  0  0  0  0  0
   -3.1518    1.7082   -0.8375 C   0  0  0  0  0  3  0  0  0  0  0  0
   -3.6239    0.8192   -1.2808 H   0  0  0  0  0  0  0  0  0  0  0  0
    0.4698    1.0593    0.8880 N   0  0  0  0  0  0  0  0  0  0  0  0
   -3.6513    3.0021   -1.0239 C   0  0  0  0  0  0  0  0  0  0  0  0
   -4.5253    3.1481   -1.6744 H   0  0  0  0  0  0  0  0  0  0  0  0
    0.4941   -1.6378    0.3986 N   0  0  0  0  0  2  0  0  0  0  0  0
   -3.0316    4.0803   -0.3808 C   0  0  0  0  0  0  0  0  0  0  0  0
   -3.3975    5.1087   -0.5163 H   0  0  0  0  0  0  0  0  0  0  0  0
    4.3600    1.3900   -0.7307 N   0  0  0  0  0  0  0  0  0  0  0  0
   -1.9269    3.8172    0.4455 C   0  0  0  0  0  0  0  0  0  0  0  0
   -1.4067    4.6282    0.9759 H   0  0  0  0  0  0  0  0  0  0  0  0
   -1.4814    2.5019    0.6045 C   0  0  0  0  0  0  0  0  0  0  0  0
   -0.3506    2.1197    1.5252 C   0  0  0  0  0  0  0  0  0  0  0  0
    0.2516    3.0063    1.8171 H   0  0  0  0  0  0  0  0  0  0  0  0
   -0.8011    1.6661    2.4343 H   0  0  0  0  0  0  0  0  0  0  0  0
    1.2087    0.1868    1.8401 C   0  0  0  0  0  0  0  0  0  0  0  0
    0.5193   -0.0081    2.6891 H   0  0  0  0  0  0  0  0  0  0  0  0
    2.1406    0.6584    2.2183 H   0  0  0  0  0  0  0  0  0  0  0  0
    1.5125   -1.1254    1.1666 C   0  0  2  0  0  3  0  0  0  0  0  0
    2.7412   -1.7772    1.2917 C   0  0  0  0  0  0  0  0  0  0  0  0
    3.5446   -1.3000    1.8700 H   0  0  0  0  0  0  0  0  0  0  0  0
    2.9493   -3.0058    0.6457 C   0  0  0  0  0  0  0  0  0  0  0  0
    3.9139   -3.5262    0.7307 H   0  0  0  0  0  0  0  0  0  0  0  0
    0.7142   -2.8103   -0.2423 C   0  0  0  0  0  0  0  0  0  0  0  0
   -0.1013   -3.1678   -0.8824 H   0  0  0  0  0  0  0  0  0  0  0  0
    1.3621    1.5866   -0.1739 C   0  0  0  0  0  0  0  0  0  0  0  0
    0.7203    2.0035   -0.9738 H   0  0  0  0  0  0  0  0  0  0  0  0
    1.8462    0.7007   -0.6273 H   0  0  0  0  0  0  0  0  0  0  0  0
    2.4207    2.6023    0.2682 C   0  0  0  0  0  0  0  0  0  0  0  0
    1.9932    3.6249    0.3357 H   0  0  0  0  0  0  0  0  0  0  0  0
    2.8242    2.3605    1.2743 H   0  0  0  0  0  0  0  0  0  0  0  0
    3.5980    2.6299   -0.7211 C   0  0  0  0  0  0  0  0  0  0  0  0
    3.2302    2.8109   -1.7516 H   0  0  0  0  0  0  0  0  0  0  0  0
    4.2866    3.4629   -0.4725 H   0  0  0  0  0  0  0  0  0  0  0  0
    5.2994    1.0354    0.2186 C   0  0  0  0  0  0  0  0  0  0  0  0
    5.6032    1.7449    0.9969 H   0  0  0  0  0  0  0  0  0  0  0  0
    5.7325   -0.2576   -0.0596 C   0  0  0  0  0  0  0  0  0  0  0  0
    6.4988   -0.8097    0.4970 H   0  0  0  0  0  0  0  0  0  0  0  0
    5.0181   -0.7028   -1.2137 C   0  0  0  0  0  0  0  0  0  0  0  0
    5.1082   -1.6733   -1.7142 H   0  0  0  0  0  0  0  0  0  0  0  0
    4.1757    0.3328   -1.6025 C   0  0  0  0  0  0  0  0  0  0  0  0
    3.4462    0.3987   -2.4181 H   0  0  0  0  0  0  0  0  0  0  0  0
    1.9097   -3.5273   -0.1330 C   0  0  0  0  0  0  0  0  0  0  0  0
    2.0186   -4.4760   -0.6775 H   0  0  0  0  0  0  0  0  0  0  0  0
  1 13  1  0  0  0  0
  2  1  1  0  0  0  0
  3  2  1  0  0  0  0
  4 14  1  0  0  0  0
  4 17  1  0  0  0  0
  5  2  1  0  0  0  0
  5  8  2  0  0  0  0
  6  5  1  0  0  0  0
  7 20  1  0  0  0  0
  8 11  1  0  0  0  0
  9  8  1  0  0  0  0
 10 33  1  0  0  0  0
 10 36  1  0  0  0  0
 11 13  2  0  0  0  0
 11 12  1  0  0  0  0
 13 14  1  0  0  0  0
 14 15  1  0  0  0  0
 14 16  1  0  0  0  0
 17 19  1  0  0  0  0
 17 18  1  0  0  0  0
 20 21  1  0  0  0  0
 20 17  1  6  0  0  0
 21 22  1  0  0  0  0
 23 24  1  0  0  0  0
 23 21  2  0  0  0  0
 25 44  2  0  0  0  0
 25  7  1  0  0  0  0
 26 25  1  0  0  0  0
 27 30  1  0  0  0  0
 27  4  1  0  0  0  0
 28 27  1  0  0  0  0
 29 27  1  0  0  0  0
 30 31  1  0  0  0  0
 30 32  1  0  0  0  0
 33 35  1  0  0  0  0
 33 30  1  0  0  0  0
 34 33  1  0  0  0  0
 36 37  1  0  0  0  0
 38 36  2  0  0  0  0
 38 39  1  0  0  0  0
 40 38  1  0  0  0  0
 41 40  1  0  0  0  0
 42 40  2  0  0  0  0
 42 10  1  0  0  0  0
 43 42  1  0  0  0  0
 44 23  1  0  0  0  0
 45 44  1  0  0  0  0
M  END
