1,2,3
 OpenBabel05122313063D

 54 56  0  0  0  0  0  0  0  0999 V2000
   -1.4386    1.1162    0.8580 N   0  0  0  0  0  2  0  0  0  0  0  0
   -2.4678   -1.0219    0.1190 N   0  0  0  0  0  2  0  0  0  0  0  0
    0.9355    0.6277    0.4569 N   0  0  0  0  0  2  0  0  0  0  0  0
    4.8902   -0.8081    0.1413 C   0  0  0  0  0  0  0  0  0  0  0  0
    5.9284   -1.1681    0.0789 H   0  0  0  0  0  0  0  0  0  0  0  0
    0.7529    1.8679    0.9142 C   0  0  0  0  0  0  0  0  0  0  0  0
    2.2646    0.1226    0.3036 C   0  0  0  0  0  0  0  0  0  0  0  0
   -3.4115    2.3181    1.4592 C   0  0  0  0  0  0  0  0  0  0  0  0
   -4.5027    2.3548    1.5806 H   0  0  0  0  0  0  0  0  0  0  0  0
   -0.6384    2.1883    1.1416 C   0  0  0  0  0  0  0  0  0  0  0  0
    1.8566    2.8472    1.1619 C   0  0  0  0  0  0  0  0  0  0  0  0
    2.8164    2.3294    1.3419 H   0  0  0  0  0  0  0  0  0  0  0  0
    1.6262    3.4987    2.0268 H   0  0  0  0  0  0  0  0  0  0  0  0
    1.9961    3.5006    0.2737 H   0  0  0  0  0  0  0  0  0  0  0  0
    2.1801   -0.0446    3.7311 C   0  0  0  0  0  0  0  0  0  0  0  0
    3.2317   -0.1190    4.0792 H   0  0  0  0  0  0  0  0  0  0  0  0
    1.5192   -0.2702    4.5935 H   0  0  0  0  0  0  0  0  0  0  0  0
    2.0014    1.0086    3.4346 H   0  0  0  0  0  0  0  0  0  0  0  0
    4.3461   -0.0556   -0.9051 C   0  0  0  0  0  0  0  0  0  0  0  0
    4.9571    0.1625   -1.7942 H   0  0  0  0  0  0  0  0  0  0  0  0
    2.4283    1.1624   -2.0431 C   0  0  0  0  0  0  0  0  0  0  0  0
    1.4089    1.5038   -1.7684 H   0  0  0  0  0  0  0  0  0  0  0  0
   -2.8965   -2.2186   -0.3360 C   0  0  0  0  0  3  0  0  0  0  0  0
   -2.0999   -2.8981   -0.6789 H   0  0  0  0  0  0  0  0  0  0  0  0
    3.2579    2.3916   -2.4461 C   0  0  0  0  0  0  0  0  0  0  0  0
    4.2660    2.1074   -2.8145 H   0  0  0  0  0  0  0  0  0  0  0  0
    3.4019    3.0928   -1.5983 H   0  0  0  0  0  0  0  0  0  0  0  0
    2.7523    2.9435   -3.2643 H   0  0  0  0  0  0  0  0  0  0  0  0
   -2.6139    3.4370    1.7704 C   0  0  0  0  0  0  0  0  0  0  0  0
   -3.0860    4.3587    2.1389 H   0  0  0  0  0  0  0  0  0  0  0  0
    2.0673   -2.4799    3.0105 C   0  0  0  0  0  0  0  0  0  0  0  0
    1.8657   -3.1613    2.1609 H   0  0  0  0  0  0  0  0  0  0  0  0
    1.3447   -2.7111    3.8195 H   0  0  0  0  0  0  0  0  0  0  0  0
    3.0812   -2.6964    3.4069 H   0  0  0  0  0  0  0  0  0  0  0  0
    2.7777   -0.6779    1.3604 C   0  0  0  0  0  0  0  0  0  0  0  0
    3.0222    0.4218   -0.8551 C   0  0  0  0  0  0  0  0  0  0  0  0
    1.9158   -1.0187    2.5689 C   0  0  0  0  0  0  0  0  0  0  0  0
    0.8623   -0.8871    2.2450 H   0  0  0  0  0  0  0  0  0  0  0  0
   -2.7921    1.1565    0.9797 C   0  0  0  0  0  0  0  0  0  0  0  0
   -1.2227    3.3821    1.6024 C   0  0  0  0  0  0  0  0  0  0  0  0
   -0.5926    4.2551    1.8212 H   0  0  0  0  0  0  0  0  0  0  0  0
   -5.2084   -1.6322    0.0845 C   0  0  0  0  0  0  0  0  0  0  0  0
   -6.2806   -1.8763    0.0705 H   0  0  0  0  0  0  0  0  0  0  0  0
   -3.3967   -0.1004    0.5503 C   0  0  0  0  0  0  0  0  0  0  0  0
   -4.7708   -0.3864    0.5427 C   0  0  0  0  0  0  0  0  0  0  0  0
   -5.4852    0.3729    0.8902 H   0  0  0  0  0  0  0  0  0  0  0  0
   -4.2515   -2.5590   -0.3630 C   0  0  0  0  0  0  0  0  0  0  0  0
   -4.5464   -3.5496   -0.7370 H   0  0  0  0  0  0  0  0  0  0  0  0
    4.1059   -1.1222    1.2598 C   0  0  0  0  0  0  0  0  0  0  0  0
    4.5309   -1.7353    2.0683 H   0  0  0  0  0  0  0  0  0  0  0  0
    2.2433    0.1933   -3.2248 C   0  0  0  0  0  0  0  0  0  0  0  0
    3.2214   -0.1831   -3.5926 H   0  0  0  0  0  0  0  0  0  0  0  0
    1.7255    0.7052   -4.0605 H   0  0  0  0  0  0  0  0  0  0  0  0
    1.6200   -0.6710   -2.9244 H   0  0  0  0  0  0  0  0  0  0  0  0
  1 39  1  0  0  0  0
  1 10  1  0  0  0  0
  2 44  1  0  0  0  0
  3  6  1  0  0  0  0
  4 49  1  0  0  0  0
  5  4  1  0  0  0  0
  6 10  2  0  0  0  0
  6 11  1  0  0  0  0
  7  3  1  0  0  0  0
  7 35  1  0  0  0  0
  8  9  1  0  0  0  0
  8 29  1  0  0  0  0
 10 40  1  0  0  0  0
 11 12  1  0  0  0  0
 11 13  1  0  0  0  0
 14 11  1  0  0  0  0
 15 16  1  0  0  0  0
 15 17  1  0  0  0  0
 18 15  1  0  0  0  0
 19 36  1  0  0  0  0
 19  4  2  0  0  0  0
 20 19  1  0  0  0  0
 21 22  1  0  0  0  0
 21 36  1  0  0  0  0
 23  2  1  0  0  0  0
 24 23  1  0  0  0  0
 25 21  1  0  0  0  0
 25 27  1  0  0  0  0
 26 25  1  0  0  0  0
 28 25  1  0  0  0  0
 29 30  1  0  0  0  0
 31 34  1  0  0  0  0
 31 33  1  0  0  0  0
 32 31  1  0  0  0  0
 35 37  1  0  0  0  0
 36  7  2  0  0  0  0
 37 31  1  0  0  0  0
 37 15  1  0  0  0  0
 38 37  1  0  0  0  0
 39  8  2  0  0  0  0
 40 29  2  0  0  0  0
 40 41  1  0  0  0  0
 42 45  1  0  0  0  0
 43 42  1  0  0  0  0
 44 39  1  0  0  0  0
 45 44  2  0  0  0  0
 45 46  1  0  0  0  0
 47 23  1  0  0  0  0
 47 42  2  0  0  0  0
 48 47  1  0  0  0  0
 49 35  2  0  0  0  0
 49 50  1  0  0  0  0
 51 54  1  0  0  0  0
 51 21  1  0  0  0  0
 52 51  1  0  0  0  0
 53 51  1  0  0  0  0
M  END
