3,4,5
 OpenBabel05122313063D

 49 50  0  0  0  0  0  0  0  0999 V2000
   -3.2020   -1.4033    0.2843 Si  0  0  0  0  0  0  0  0  0  0  0  0
    3.2026   -1.4026   -0.2838 Si  0  0  0  0  0  0  0  0  0  0  0  0
   -1.9564   -0.1034    0.1289 N   0  0  0  0  0  2  0  0  0  0  0  0
    1.9563   -0.1032   -0.1291 N   0  0  0  0  0  2  0  0  0  0  0  0
   -0.0002    1.4551   -0.0007 N   0  0  0  0  0  2  0  0  0  0  0  0
   -1.2220    2.1138   -0.2017 C   0  0  0  0  0  0  0  0  0  0  0  0
   -2.3396    1.2342   -0.0723 C   0  0  0  0  0  0  0  0  0  0  0  0
   -1.4408    3.4546   -0.5732 C   0  0  0  0  0  0  0  0  0  0  0  0
   -0.5929    4.1173   -0.7811 H   0  0  0  0  0  0  0  0  0  0  0  0
   -2.7524    3.9408   -0.7216 C   0  0  0  0  0  0  0  0  0  0  0  0
   -2.9065    4.9920   -1.0077 H   0  0  0  0  0  0  0  0  0  0  0  0
   -3.6448    1.7426   -0.1981 C   0  0  0  0  0  0  0  0  0  0  0  0
   -4.5132    1.0822   -0.0746 H   0  0  0  0  0  0  0  0  0  0  0  0
   -3.8511    3.0981   -0.5123 C   0  0  0  0  0  0  0  0  0  0  0  0
   -4.8769    3.4828   -0.6122 H   0  0  0  0  0  0  0  0  0  0  0  0
    3.6442    1.7431    0.1991 C   0  0  0  0  0  0  0  0  0  0  0  0
    4.5128    1.0828    0.0765 H   0  0  0  0  0  0  0  0  0  0  0  0
    1.2214    2.1140    0.2009 C   0  0  0  0  0  0  0  0  0  0  0  0
    2.3392    1.2345    0.0723 C   0  0  0  0  0  0  0  0  0  0  0  0
    3.8502    3.0987    0.5132 C   0  0  0  0  0  0  0  0  0  0  0  0
    4.8758    3.4835    0.6138 H   0  0  0  0  0  0  0  0  0  0  0  0
    2.7512    3.9413    0.7215 C   0  0  0  0  0  0  0  0  0  0  0  0
    2.9050    4.9926    1.0075 H   0  0  0  0  0  0  0  0  0  0  0  0
    1.4398    3.4549    0.5722 C   0  0  0  0  0  0  0  0  0  0  0  0
    0.5917    4.1176    0.7793 H   0  0  0  0  0  0  0  0  0  0  0  0
   -2.3920   -3.0962    0.5581 C   0  0  0  0  0  0  0  0  0  0  0  0
   -1.5890   -3.3595   -0.1576 H   0  0  0  0  0  0  0  0  0  0  0  0
   -3.2033   -3.8390    0.4039 H   0  0  0  0  0  0  0  0  0  0  0  0
   -2.0105   -3.2285    1.5874 H   0  0  0  0  0  0  0  0  0  0  0  0
   -4.2781   -1.0777    1.8017 C   0  0  0  0  0  0  0  0  0  0  0  0
   -4.8393   -0.1258    1.7458 H   0  0  0  0  0  0  0  0  0  0  0  0
   -3.6401   -1.0387    2.7083 H   0  0  0  0  0  0  0  0  0  0  0  0
   -5.0080   -1.9035    1.9320 H   0  0  0  0  0  0  0  0  0  0  0  0
   -4.1926   -1.5189   -1.3203 C   0  0  0  0  0  0  0  0  0  0  0  0
   -4.6375   -0.5527   -1.6247 H   0  0  0  0  0  0  0  0  0  0  0  0
   -5.0114   -2.2599   -1.2098 H   0  0  0  0  0  0  0  0  0  0  0  0
   -3.5334   -1.8612   -2.1440 H   0  0  0  0  0  0  0  0  0  0  0  0
    4.1913   -1.5185    1.3219 C   0  0  0  0  0  0  0  0  0  0  0  0
    3.5311   -1.8609    2.1448 H   0  0  0  0  0  0  0  0  0  0  0  0
    4.6357   -0.5523    1.6271 H   0  0  0  0  0  0  0  0  0  0  0  0
    5.0103   -2.2594    1.2123 H   0  0  0  0  0  0  0  0  0  0  0  0
    4.2803   -1.0761   -1.7999 C   0  0  0  0  0  0  0  0  0  0  0  0
    3.6433   -1.0375   -2.7072 H   0  0  0  0  0  0  0  0  0  0  0  0
    5.0108   -1.9015   -1.9294 H   0  0  0  0  0  0  0  0  0  0  0  0
    4.8409   -0.1239   -1.7435 H   0  0  0  0  0  0  0  0  0  0  0  0
    2.3938   -3.0957   -0.5597 C   0  0  0  0  0  0  0  0  0  0  0  0
    2.0136   -3.2271   -1.5896 H   0  0  0  0  0  0  0  0  0  0  0  0
    1.5901   -3.3602    0.1547 H   0  0  0  0  0  0  0  0  0  0  0  0
    3.2054   -3.8382   -0.4053 H   0  0  0  0  0  0  0  0  0  0  0  0
  1 26  1  0  0  0  0
  1 30  1  0  0  0  0
  2  4  1  0  0  0  0
  2 38  1  0  0  0  0
  3  1  1  0  0  0  0
  4 19  1  0  0  0  0
  5 18  1  0  0  0  0
  6  7  1  0  0  0  0
  6  5  1  0  0  0  0
  7  3  1  0  0  0  0
  8  6  2  0  0  0  0
  9  8  1  0  0  0  0
 10  8  1  0  0  0  0
 10 14  2  0  0  0  0
 11 10  1  0  0  0  0
 12 13  1  0  0  0  0
 12  7  2  0  0  0  0
 14 12  1  0  0  0  0
 15 14  1  0  0  0  0
 16 20  1  0  0  0  0
 17 16  1  0  0  0  0
 18 24  2  0  0  0  0
 19 16  2  0  0  0  0
 19 18  1  0  0  0  0
 20 21  1  0  0  0  0
 20 22  2  0  0  0  0
 22 23  1  0  0  0  0
 24 22  1  0  0  0  0
 24 25  1  0  0  0  0
 26 29  1  0  0  0  0
 27 26  1  0  0  0  0
 28 26  1  0  0  0  0
 30 33  1  0  0  0  0
 30 32  1  0  0  0  0
 31 30  1  0  0  0  0
 34 36  1  0  0  0  0
 34  1  1  0  0  0  0
 35 34  1  0  0  0  0
 37 34  1  0  0  0  0
 38 40  1  0  0  0  0
 38 39  1  0  0  0  0
 41 38  1  0  0  0  0
 42 45  1  0  0  0  0
 42  2  1  0  0  0  0
 43 42  1  0  0  0  0
 44 42  1  0  0  0  0
 46 49  1  0  0  0  0
 46  2  1  0  0  0  0
 46 48  1  0  0  0  0
 47 46  1  0  0  0  0
M  END
