1,2,3
 OpenBabel05122313063D

 56 58  0  0  0  0  0  0  0  0999 V2000
    1.0513    0.8719    0.1965 N   0  0  0  0  0  2  0  0  0  0  0  0
   -1.5458    1.2956    0.1713 N   0  0  0  0  0  2  0  0  0  0  0  0
   -2.0882   -1.4512   -0.3668 N   0  0  0  0  0  2  0  0  0  0  0  0
   -1.8471   -2.4498   -0.5534 H   0  0  0  0  0  0  0  0  0  0  0  0
    2.4084    0.4368    0.1460 C   0  0  0  0  0  0  0  0  0  0  0  0
    2.9366   -0.2504    1.2675 C   0  0  0  0  0  0  0  0  0  0  0  0
    4.2673   -0.6979    1.1950 C   0  0  0  0  0  0  0  0  0  0  0  0
    4.7060   -1.2233    2.0560 H   0  0  0  0  0  0  0  0  0  0  0  0
    5.0357   -0.4971    0.0415 C   0  0  0  0  0  0  0  0  0  0  0  0
    6.0755   -0.8557    0.0032 H   0  0  0  0  0  0  0  0  0  0  0  0
    4.4757    0.1435   -1.0711 C   0  0  0  0  0  0  0  0  0  0  0  0
    5.0764    0.2692   -1.9840 H   0  0  0  0  0  0  0  0  0  0  0  0
    3.1514    0.6179   -1.0492 C   0  0  0  0  0  0  0  0  0  0  0  0
    0.7122    2.1339    0.3758 C   0  0  0  0  0  0  0  0  0  0  0  0
    1.7108    3.2357    0.5802 C   0  0  0  0  0  0  0  0  0  0  0  0
    2.7219    2.8167    0.7306 H   0  0  0  0  0  0  0  0  0  0  0  0
    1.4480    3.8586    1.4580 H   0  0  0  0  0  0  0  0  0  0  0  0
    1.7487    3.9065   -0.3041 H   0  0  0  0  0  0  0  0  0  0  0  0
   -0.7265    2.3997    0.3384 C   0  0  0  0  0  0  0  0  0  0  0  0
   -1.2465    3.6904    0.4431 C   0  0  0  0  0  0  0  0  0  0  0  0
   -0.5742    4.5479    0.5730 H   0  0  0  0  0  0  0  0  0  0  0  0
   -2.6378    3.8611    0.3500 C   0  0  0  0  0  0  0  0  0  0  0  0
   -3.0832    4.8656    0.3917 H   0  0  0  0  0  0  0  0  0  0  0  0
   -3.4473    2.7443    0.1933 C   0  0  0  0  0  0  0  0  0  0  0  0
   -4.5283    2.8889    0.0966 H   0  0  0  0  0  0  0  0  0  0  0  0
   -2.9184    1.4198    0.1301 C   0  0  0  0  0  0  0  0  0  0  0  0
   -3.8171    0.2734    0.0148 C   0  0  0  0  0  0  0  0  0  0  0  0
   -3.3689   -1.0871   -0.2507 C   0  0  0  0  0  0  0  0  0  0  0  0
   -4.3696   -2.1146   -0.4052 C   0  0  0  0  0  0  0  0  0  0  0  0
   -4.0102   -3.1312   -0.6247 H   0  0  0  0  0  0  0  0  0  0  0  0
   -5.7176   -1.8548   -0.2714 C   0  0  0  0  0  0  0  0  0  0  0  0
   -6.4461   -2.6719   -0.3889 H   0  0  0  0  0  0  0  0  0  0  0  0
   -6.1597   -0.5411    0.0332 C   0  0  0  0  0  0  0  0  0  0  0  0
   -7.2290   -0.3273    0.1726 H   0  0  0  0  0  0  0  0  0  0  0  0
   -5.2256    0.4732    0.1667 C   0  0  0  0  0  0  0  0  0  0  0  0
   -5.6037    1.4689    0.4313 H   0  0  0  0  0  0  0  0  0  0  0  0
    2.5043    1.1913   -2.3039 C   0  0  0  0  0  0  0  0  0  0  0  0
    1.6307    1.7989   -1.9916 H   0  0  0  0  0  0  0  0  0  0  0  0
    3.4331    2.1123   -3.1063 C   0  0  0  0  0  0  0  0  0  0  0  0
    3.8461    2.9275   -2.4777 H   0  0  0  0  0  0  0  0  0  0  0  0
    2.8816    2.5732   -3.9505 H   0  0  0  0  0  0  0  0  0  0  0  0
    4.2886    1.5586   -3.5449 H   0  0  0  0  0  0  0  0  0  0  0  0
    1.9584    0.0369   -3.1675 C   0  0  0  0  0  0  0  0  0  0  0  0
    2.7898   -0.6006   -3.5337 H   0  0  0  0  0  0  0  0  0  0  0  0
    1.4085    0.4277   -4.0482 H   0  0  0  0  0  0  0  0  0  0  0  0
    1.2742   -0.6069   -2.5799 H   0  0  0  0  0  0  0  0  0  0  0  0
    2.0900   -0.4656    2.5139 C   0  0  0  0  0  0  0  0  0  0  0  0
    1.0286   -0.4069    2.1905 H   0  0  0  0  0  0  0  0  0  0  0  0
    2.3282    0.6571    3.5397 C   0  0  0  0  0  0  0  0  0  0  0  0
    3.3814    0.6563    3.8907 H   0  0  0  0  0  0  0  0  0  0  0  0
    1.6723    0.5292    4.4252 H   0  0  0  0  0  0  0  0  0  0  0  0
    2.1226    1.6569    3.1064 H   0  0  0  0  0  0  0  0  0  0  0  0
    2.2882   -1.8534    3.1356 C   0  0  0  0  0  0  0  0  0  0  0  0
    2.1277   -2.6457    2.3785 H   0  0  0  0  0  0  0  0  0  0  0  0
    1.5628   -2.0111    3.9591 H   0  0  0  0  0  0  0  0  0  0  0  0
    3.3033   -1.9817    3.5655 H   0  0  0  0  0  0  0  0  0  0  0  0
  1 14  1  0  0  0  0
  2 19  1  0  0  0  0
  3 28  1  0  0  0  0
  4  3  1  0  0  0  0
  5  1  1  0  0  0  0
  5  6  1  0  0  0  0
  6 47  1  0  0  0  0
  7  6  2  0  0  0  0
  7  8  1  0  0  0  0
  9  7  1  0  0  0  0
 10  9  1  0  0  0  0
 11 13  1  0  0  0  0
 11  9  2  0  0  0  0
 12 11  1  0  0  0  0
 13  5  2  0  0  0  0
 14 15  1  0  0  0  0
 15 16  1  0  0  0  0
 15 17  1  0  0  0  0
 18 15  1  0  0  0  0
 19 14  2  0  0  0  0
 19 20  1  0  0  0  0
 20 21  1  0  0  0  0
 22 23  1  0  0  0  0
 22 20  2  0  0  0  0
 24 22  1  0  0  0  0
 25 24  1  0  0  0  0
 26  2  1  0  0  0  0
 26 24  2  0  0  0  0
 27 26  1  0  0  0  0
 27 35  1  0  0  0  0
 28 27  2  0  0  0  0
 29 31  2  0  0  0  0
 29 28  1  0  0  0  0
 30 29  1  0  0  0  0
 31 33  1  0  0  0  0
 32 31  1  0  0  0  0
 33 35  2  0  0  0  0
 33 34  1  0  0  0  0
 35 36  1  0  0  0  0
 37 38  1  0  0  0  0
 37 13  1  0  0  0  0
 39 40  1  0  0  0  0
 39 37  1  0  0  0  0
 41 39  1  0  0  0  0
 42 39  1  0  0  0  0
 43 46  1  0  0  0  0
 43 37  1  0  0  0  0
 44 43  1  0  0  0  0
 45 43  1  0  0  0  0
 47 53  1  0  0  0  0
 47 49  1  0  0  0  0
 48 47  1  0  0  0  0
 49 50  1  0  0  0  0
 49 51  1  0  0  0  0
 52 49  1  0  0  0  0
 53 56  1  0  0  0  0
 53 55  1  0  0  0  0
 54 53  1  0  0  0  0
M  END
