3,4,5
 OpenBabel05122313063D

 55 57  0  0  0  0  0  0  0  0999 V2000
    7.2152    1.4135    1.0006 O   0  0  0  0  0  0  0  0  0  0  0  0
    7.7939   -0.1328   -0.4358 O   0  0  0  0  0  0  0  0  0  0  0  0
   -1.9822    1.8212   -0.0589 N   0  0  0  0  0  2  0  0  0  0  0  0
   -3.5265   -1.0402    0.1488 N   0  0  0  0  0  0  0  0  0  0  0  0
   -0.6367   -1.8176    0.3227 N   0  0  0  0  0  0  0  0  0  0  0  0
    6.9660    0.5238    0.1903 N   0  0  0  0  0  0  0  0  0  0  0  0
   -1.1378    2.7746    0.4115 C   0  0  0  0  0  3  0  0  0  0  0  0
   -1.4752    4.1280    0.4588 C   0  0  0  0  0  0  0  0  0  0  0  0
   -2.7417    4.5173    0.0000 C   0  0  0  0  0  0  0  0  0  0  0  0
   -3.6160    3.5347   -0.4810 C   0  0  0  0  0  0  0  0  0  0  0  0
   -3.2208    2.1858   -0.5049 C   0  0  0  0  0  0  0  0  0  0  0  0
   -4.1535    1.1121   -1.0155 C   0  0  0  0  0  0  0  0  0  0  0  0
   -4.5355    0.0262    0.0142 C   0  0  0  0  0  0  0  0  0  0  0  0
   -3.6171   -1.7055    1.4669 C   0  0  0  0  0  0  0  0  0  0  0  0
   -2.5732   -2.7987    1.6914 C   0  0  0  0  0  0  0  0  0  0  0  0
   -1.1013   -2.3907    1.6273 C   0  0  0  0  0  0  0  0  0  0  0  0
   -3.5440   -1.9963   -0.9916 C   0  0  0  0  0  0  0  0  0  0  0  0
   -2.1798   -2.1786   -1.6700 C   0  0  0  0  0  0  0  0  0  0  0  0
   -1.0090   -2.7027   -0.8327 C   0  0  0  0  0  0  0  0  0  0  0  0
    0.8376   -1.6089    0.3933 C   0  0  0  0  0  0  0  0  0  0  0  0
    1.3753   -0.6999   -0.7172 C   0  0  0  0  0  0  0  0  0  0  0  0
    2.8342   -0.3660   -0.5109 C   0  0  0  0  0  0  0  0  0  0  0  0
    3.2077    0.6399    0.4062 C   0  0  0  0  0  0  0  0  0  0  0  0
    4.5540    0.9379    0.6416 C   0  0  0  0  0  0  0  0  0  0  0  0
    5.5294    0.2128   -0.0529 C   0  0  0  0  0  0  0  0  0  0  0  0
    5.1978   -0.7904   -0.9698 C   0  0  0  0  0  0  0  0  0  0  0  0
    3.8447   -1.0747   -1.1924 C   0  0  0  0  0  0  0  0  0  0  0  0
   -0.1502    2.4250    0.7479 H   0  0  0  0  0  0  0  0  0  0  0  0
   -0.7506    4.8600    0.8421 H   0  0  0  0  0  0  0  0  0  0  0  0
   -3.0452    5.5746    0.0144 H   0  0  0  0  0  0  0  0  0  0  0  0
   -4.6162    3.8073   -0.8474 H   0  0  0  0  0  0  0  0  0  0  0  0
   -5.0830    1.6040   -1.3611 H   0  0  0  0  0  0  0  0  0  0  0  0
   -3.7151    0.6334   -1.9184 H   0  0  0  0  0  0  0  0  0  0  0  0
   -5.5270   -0.4053   -0.2614 H   0  0  0  0  0  0  0  0  0  0  0  0
   -4.6683    0.4995    1.0084 H   0  0  0  0  0  0  0  0  0  0  0  0
   -3.5063   -0.9169    2.2418 H   0  0  0  0  0  0  0  0  0  0  0  0
   -4.6322   -2.1519    1.6089 H   0  0  0  0  0  0  0  0  0  0  0  0
   -2.7436   -3.2107    2.7070 H   0  0  0  0  0  0  0  0  0  0  0  0
   -2.7625   -3.6536    1.0107 H   0  0  0  0  0  0  0  0  0  0  0  0
   -0.4805   -3.2872    1.8621 H   0  0  0  0  0  0  0  0  0  0  0  0
   -0.8801   -1.6356    2.4101 H   0  0  0  0  0  0  0  0  0  0  0  0
   -3.9603   -2.9741   -0.6632 H   0  0  0  0  0  0  0  0  0  0  0  0
   -4.2531   -1.6221   -1.7576 H   0  0  0  0  0  0  0  0  0  0  0  0
   -2.3146   -2.8698   -2.5293 H   0  0  0  0  0  0  0  0  0  0  0  0
   -1.8740   -1.2019   -2.1112 H   0  0  0  0  0  0  0  0  0  0  0  0
   -0.1291   -2.7808   -1.4999 H   0  0  0  0  0  0  0  0  0  0  0  0
   -1.2010   -3.7333   -0.4650 H   0  0  0  0  0  0  0  0  0  0  0  0
    1.0548   -1.1431    1.3757 H   0  0  0  0  0  0  0  0  0  0  0  0
    1.3629   -2.5927    0.3840 H   0  0  0  0  0  0  0  0  0  0  0  0
    1.2350   -1.1710   -1.7119 H   0  0  0  0  0  0  0  0  0  0  0  0
    0.7574    0.2291   -0.7147 H   0  0  0  0  0  0  0  0  0  0  0  0
    2.4290    1.2069    0.9420 H   0  0  0  0  0  0  0  0  0  0  0  0
    4.8730    1.7187    1.3449 H   0  0  0  0  0  0  0  0  0  0  0  0
    6.0045   -1.3242   -1.4900 H   0  0  0  0  0  0  0  0  0  0  0  0
    3.5688   -1.8583   -1.9152 H   0  0  0  0  0  0  0  0  0  0  0  0
  2  6  2  0  0  0  0
  3  7  1  0  0  0  0
  4 14  1  0  0  0  0
  5 20  1  0  0  0  0
  5 16  1  0  0  0  0
  6  1  2  0  0  0  0
  7  8  1  0  0  0  0
  7 28  1  0  0  0  0
  8 29  1  0  0  0  0
  9 30  1  0  0  0  0
  9  8  2  0  0  0  0
 10  9  1  0  0  0  0
 11 10  2  0  0  0  0
 11  3  1  0  0  0  0
 12 11  1  0  0  0  0
 12 13  1  0  0  0  0
 13  4  1  0  0  0  0
 13 35  1  0  0  0  0
 14 37  1  0  0  0  0
 14 15  1  0  0  0  0
 14 36  1  0  0  0  0
 15 38  1  0  0  0  0
 16 15  1  0  0  0  0
 16 40  1  0  0  0  0
 16 41  1  0  0  0  0
 17 42  1  0  0  0  0
 17  4  1  0  0  0  0
 18 17  1  0  0  0  0
 18 19  1  0  0  0  0
 19 47  1  0  0  0  0
 19  5  1  0  0  0  0
 20 48  1  0  0  0  0
 21 51  1  0  0  0  0
 21 22  1  0  0  0  0
 21 20  1  0  0  0  0
 22 23  1  0  0  0  0
 23 24  2  0  0  0  0
 23 52  1  0  0  0  0
 24 53  1  0  0  0  0
 25  6  1  0  0  0  0
 25 24  1  0  0  0  0
 26 25  2  0  0  0  0
 27 26  1  0  0  0  0
 27 22  2  0  0  0  0
 31 10  1  0  0  0  0
 32 12  1  0  0  0  0
 33 12  1  0  0  0  0
 34 13  1  0  0  0  0
 39 15  1  0  0  0  0
 43 17  1  0  0  0  0
 44 18  1  0  0  0  0
 45 18  1  0  0  0  0
 46 19  1  0  0  0  0
 49 20  1  0  0  0  0
 50 21  1  0  0  0  0
 54 26  1  0  0  0  0
 55 27  1  0  0  0  0
M  END
