1,3,5
 OpenBabel05122313063D

 50 52  0  0  1  0  0  0  0  0999 V2000
   -1.6117    1.0999   -0.8092 N   0  0  0  0  0  2  0  0  0  0  0  0
   -0.9383    2.2470   -0.5214 N   0  0  0  0  0  0  0  0  0  0  0  0
   -0.3448    0.3452    1.6289 N   0  0  0  0  0  2  0  0  0  0  0  0
    0.1596    1.6021    1.4928 N   0  0  0  0  0  0  0  0  0  0  0  0
    1.0493    0.0357   -0.8208 N   0  0  0  0  0  2  0  0  0  0  0  0
    2.3522    1.9541   -1.1186 O   0  0  0  0  0  0  0  0  0  0  0  0
    0.3399    2.1436    0.1574 C   0  0  1  0  0  0  0  0  0  0  0  0
    0.7612    3.1557    0.2533 H   0  0  0  0  0  0  0  0  0  0  0  0
   -1.0298    4.7281   -0.8889 C   0  0  0  0  0  0  0  0  0  0  0  0
   -0.9133    5.0329    0.1727 H   0  0  0  0  0  0  0  0  0  0  0  0
   -1.7135    5.4497   -1.3714 H   0  0  0  0  0  0  0  0  0  0  0  0
   -0.0375    4.8194   -1.3777 H   0  0  0  0  0  0  0  0  0  0  0  0
   -1.5800    3.3476   -1.0204 C   0  0  1  0  0  3  0  0  0  0  0  0
   -2.7325    2.8632   -1.6394 C   0  0  0  0  0  0  0  0  0  0  0  0
   -3.4918    3.4575   -2.1576 H   0  0  0  0  0  0  0  0  0  0  0  0
   -2.7279    1.4531   -1.4850 C   0  0  0  0  0  0  0  0  0  0  0  0
   -3.7530    0.4675   -1.9355 C   0  0  0  0  0  0  0  0  0  0  0  0
   -3.2593   -0.4713   -2.2593 H   0  0  0  0  0  0  0  0  0  0  0  0
   -4.3410    0.8885   -2.7723 H   0  0  0  0  0  0  0  0  0  0  0  0
   -4.4586    0.2273   -1.1126 H   0  0  0  0  0  0  0  0  0  0  0  0
    1.0818    3.5076    2.8429 C   0  0  0  0  0  0  0  0  0  0  0  0
    1.2475    3.7350    3.9115 H   0  0  0  0  0  0  0  0  0  0  0  0
    0.4327    4.3069    2.4263 H   0  0  0  0  0  0  0  0  0  0  0  0
    2.0626    3.5646    2.3266 H   0  0  0  0  0  0  0  0  0  0  0  0
    0.4685    2.1544    2.7062 C   0  0  2  0  0  3  0  0  0  0  0  0
    0.1189    1.1958    3.6575 C   0  0  0  0  0  0  0  0  0  0  0  0
    0.2306    1.2851    4.7428 H   0  0  0  0  0  0  0  0  0  0  0  0
   -0.3936    0.0771    2.9529 C   0  0  0  0  0  0  0  0  0  0  0  0
   -0.9411   -1.1969    3.5025 C   0  0  0  0  0  0  0  0  0  0  0  0
   -0.6433   -2.0475    2.8564 H   0  0  0  0  0  0  0  0  0  0  0  0
   -2.0501   -1.1632    3.5460 H   0  0  0  0  0  0  0  0  0  0  0  0
   -0.5666   -1.3592    4.5303 H   0  0  0  0  0  0  0  0  0  0  0  0
    1.3720    1.3309   -0.6856 C   0  0  0  0  0  0  0  0  0  0  0  0
    2.0187   -0.8271   -1.5420 C   0  0  2  0  0  0  0  0  0  0  0  0
    1.6224   -1.8548   -1.4205 H   0  0  0  0  0  0  0  0  0  0  0  0
    3.3786   -0.7891   -0.8391 C   0  0  0  0  0  0  0  0  0  0  0  0
    4.5499   -0.3314   -1.4696 C   0  0  0  0  0  0  0  0  0  0  0  0
    4.5053    0.0340   -2.5047 H   0  0  0  0  0  0  0  0  0  0  0  0
    5.7770   -0.3174   -0.7879 C   0  0  0  0  0  0  0  0  0  0  0  0
    6.6805    0.0477   -1.3012 H   0  0  0  0  0  0  0  0  0  0  0  0
    5.8534   -0.7553    0.5426 C   0  0  0  0  0  0  0  0  0  0  0  0
    6.8158   -0.7426    1.0777 H   0  0  0  0  0  0  0  0  0  0  0  0
    4.6897   -1.2123    1.1830 C   0  0  0  0  0  0  0  0  0  0  0  0
    4.7367   -1.5677    2.2247 H   0  0  0  0  0  0  0  0  0  0  0  0
    3.4662   -1.2301    0.4988 C   0  0  0  0  0  0  0  0  0  0  0  0
    2.5558   -1.6063    0.9917 H   0  0  0  0  0  0  0  0  0  0  0  0
    2.0451   -0.4995   -3.0374 C   0  0  0  0  0  0  0  0  0  0  0  0
    1.0259   -0.6300   -3.4466 H   0  0  0  0  0  0  0  0  0  0  0  0
    2.7259   -1.1911   -3.5732 H   0  0  0  0  0  0  0  0  0  0  0  0
    2.3814    0.5403   -3.2128 H   0  0  0  0  0  0  0  0  0  0  0  0
  1  2  1  0  0  0  0
  2  7  1  0  0  0  0
  3 28  1  0  0  0  0
  4  3  1  0  0  0  0
  4 25  1  0  0  0  0
  5 33  1  0  0  0  0
  6 33  2  0  0  0  0
  7  8  1  1  0  0  0
  7  4  1  0  0  0  0
  9 10  1  0  0  0  0
 11  9  1  0  0  0  0
 12  9  1  0  0  0  0
 13  9  1  6  0  0  0
 13  2  1  0  0  0  0
 14 16  2  0  0  0  0
 14 13  1  0  0  0  0
 15 14  1  0  0  0  0
 16  1  1  0  0  0  0
 17 16  1  0  0  0  0
 17 20  1  0  0  0  0
 18 17  1  0  0  0  0
 19 17  1  0  0  0  0
 21 22  1  0  0  0  0
 23 21  1  0  0  0  0
 24 21  1  0  0  0  0
 25 21  1  6  0  0  0
 25 26  1  0  0  0  0
 26 27  1  0  0  0  0
 28 29  1  0  0  0  0
 28 26  2  0  0  0  0
 29 31  1  0  0  0  0
 29 32  1  0  0  0  0
 30 29  1  0  0  0  0
 33  7  1  0  0  0  0
 34 35  1  1  0  0  0
 34 36  1  0  0  0  0
 34  5  1  0  0  0  0
 36 45  1  0  0  0  0
 37 36  2  0  0  0  0
 37 39  1  0  0  0  0
 38 37  1  0  0  0  0
 39 41  2  0  0  0  0
 40 39  1  0  0  0  0
 41 42  1  0  0  0  0
 41 43  1  0  0  0  0
 43 44  1  0  0  0  0
 45 46  1  0  0  0  0
 45 43  2  0  0  0  0
 47 34  1  0  0  0  0
 48 47  1  0  0  0  0
 49 47  1  0  0  0  0
 50 47  1  0  0  0  0
M  END
