5,6,7
 OpenBabel05122313063D

 33 36  0  0  1  0  0  0  0  0999 V2000
    0.2151   -3.9574   -0.1753 S   0  0  0  0  0  0  0  0  0  0  0  0
    0.4016    4.0348    0.1327 S   0  0  0  0  0  0  0  0  0  0  0  0
   -4.2044   -1.9007    1.0897 F   0  0  0  0  0  0  0  0  0  0  0  0
   -8.1185    0.3853   -0.1435 F   0  0  0  0  0  0  0  0  0  0  0  0
    0.2881    0.0394   -0.0339 N   0  0  0  0  0  2  0  0  0  0  0  0
    1.8667   -1.9955   -0.0876 N   0  0  0  0  0  2  0  0  0  0  0  0
    1.9587    1.9965    0.0676 N   0  0  0  0  0  2  0  0  0  0  0  0
   -0.3956   -1.1409   -0.0824 C   0  0  0  0  0  0  0  0  0  0  0  0
   -1.7939   -1.1346   -0.0989 C   0  0  0  0  0  0  0  0  0  0  0  0
   -2.3412   -2.0832   -0.1495 H   0  0  0  0  0  0  0  0  0  0  0  0
   -2.4960    0.1013   -0.0615 C   0  0  0  0  0  0  0  0  0  0  0  0
   -1.7383    1.3025   -0.0061 C   0  0  0  0  0  0  0  0  0  0  0  0
   -2.2449    2.2749    0.0593 H   0  0  0  0  0  0  0  0  0  0  0  0
   -0.3405    1.2501    0.0038 C   0  0  0  0  0  0  0  0  0  0  0  0
    0.5374   -2.2652   -0.1135 C   0  0  2  0  0  3  0  0  0  0  0  0
    2.6480   -3.1219   -0.1171 C   0  0  0  0  0  0  0  0  0  0  0  0
    3.7407   -3.0131   -0.0994 H   0  0  0  0  0  0  0  0  0  0  0  0
    1.9150   -4.2879   -0.1669 C   0  0  0  0  0  0  0  0  0  0  0  0
    2.2808   -5.3214   -0.1984 H   0  0  0  0  0  0  0  0  0  0  0  0
    0.6434    2.3292    0.0635 C   0  0  0  0  0  0  0  0  0  0  0  0
    2.7919    3.0839    0.1250 C   0  0  0  0  0  0  0  0  0  0  0  0
    3.8783    2.9226    0.1332 H   0  0  0  0  0  0  0  0  0  0  0  0
    2.1152    4.2836    0.1664 C   0  0  0  0  0  0  0  0  0  0  0  0
    2.5292    5.2981    0.2154 H   0  0  0  0  0  0  0  0  0  0  0  0
   -3.9683    0.1600   -0.0938 C   0  0  0  0  0  0  0  0  0  0  0  0
   -4.7831   -0.8462    0.4850 C   0  0  0  0  0  0  0  0  0  0  0  0
   -6.1759   -0.7851    0.4842 C   0  0  0  0  0  0  0  0  0  0  0  0
   -6.7705   -1.5779    0.9571 H   0  0  0  0  0  0  0  0  0  0  0  0
   -6.7897    0.3158   -0.1269 C   0  0  0  0  0  0  0  0  0  0  0  0
   -6.0373    1.3401   -0.7243 C   0  0  0  0  0  0  0  0  0  0  0  0
   -6.5536    2.1793   -1.2096 H   0  0  0  0  0  0  0  0  0  0  0  0
   -4.6456    1.2518   -0.6947 C   0  0  0  0  0  0  0  0  0  0  0  0
   -4.0579    2.0389   -1.1890 H   0  0  0  0  0  0  0  0  0  0  0  0
  1 18  1  0  0  0  0
  1 15  1  0  0  0  0
  2 23  1  0  0  0  0
  4 29  1  0  0  0  0
  5 14  1  0  0  0  0
  7 21  1  0  0  0  0
  8  5  1  0  0  0  0
  9  8  2  0  0  0  0
  9 11  1  0  0  0  0
 10  9  1  0  0  0  0
 11 12  2  0  0  0  0
 12 14  1  0  0  0  0
 12 13  1  0  0  0  0
 14 20  2  0  0  0  0
 15  6  1  0  0  0  0
 15  8  1  1  0  0  0
 16 17  1  0  0  0  0
 16  6  1  0  0  0  0
 18 16  2  0  0  0  0
 19 18  1  0  0  0  0
 20  7  1  0  0  0  0
 20  2  1  0  0  0  0
 21 22  1  0  0  0  0
 21 23  2  0  0  0  0
 23 24  1  0  0  0  0
 25 11  1  0  0  0  0
 25 26  1  0  0  0  0
 26  3  1  0  0  0  0
 27 26  2  0  0  0  0
 27 28  1  0  0  0  0
 29 27  1  0  0  0  0
 30 32  1  0  0  0  0
 30 29  2  0  0  0  0
 31 30  1  0  0  0  0
 32 25  2  0  0  0  0
 33 32  1  0  0  0  0
M  END
