1,2,3
 OpenBabel05122313063D

 29 30  0  0  0  0  0  0  0  0999 V2000
    2.0711   -0.1857   -0.1974 N   0  0  0  0  0  2  0  0  0  0  0  0
   -0.0963    1.1937   -0.9382 N   0  0  0  0  0  2  0  0  0  0  0  0
   -2.0563   -0.1365    0.2060 N   0  0  0  0  0  2  0  0  0  0  0  0
    3.0561   -1.0393    0.1319 C   0  0  0  0  0  3  0  0  0  0  0  0
    2.7614   -1.8798    0.7814 H   0  0  0  0  0  0  0  0  0  0  0  0
    4.3652   -0.8717   -0.3320 C   0  0  0  0  0  0  0  0  0  0  0  0
    5.1498   -1.5857   -0.0449 H   0  0  0  0  0  0  0  0  0  0  0  0
    4.6392    0.2204   -1.1699 C   0  0  0  0  0  0  0  0  0  0  0  0
    5.6556    0.3851   -1.5584 H   0  0  0  0  0  0  0  0  0  0  0  0
    3.6023    1.0967   -1.5145 C   0  0  0  0  0  0  0  0  0  0  0  0
    3.7839    1.9569   -2.1765 H   0  0  0  0  0  0  0  0  0  0  0  0
    2.3162    0.8620   -1.0021 C   0  0  0  0  0  0  0  0  0  0  0  0
    1.1532    1.7947   -1.3135 C   0  0  0  0  0  0  0  0  0  0  0  0
    1.2971    2.7183   -0.7072 H   0  0  0  0  0  0  0  0  0  0  0  0
    1.1920    2.0879   -2.3861 H   0  0  0  0  0  0  0  0  0  0  0  0
   -1.2689    1.5961   -1.2794 C   0  0  0  0  0  0  0  0  0  0  0  0
   -2.4038    0.8086   -0.6951 C   0  0  0  0  0  0  0  0  0  0  0  0
   -3.7507    1.0162   -1.0410 C   0  0  0  0  0  0  0  0  0  0  0  0
   -4.0315    1.7869   -1.7715 H   0  0  0  0  0  0  0  0  0  0  0  0
   -4.7352    0.2148   -0.4425 C   0  0  0  0  0  0  0  0  0  0  0  0
   -5.7951    0.3577   -0.7007 H   0  0  0  0  0  0  0  0  0  0  0  0
   -4.3527   -0.7672    0.4797 C   0  0  0  0  0  0  0  0  0  0  0  0
   -5.0936   -1.4166    0.9670 H   0  0  0  0  0  0  0  0  0  0  0  0
   -2.9868   -0.9087    0.7754 C   0  0  0  0  0  0  0  0  0  0  0  0
   -2.6141   -1.6669    1.4838 H   0  0  0  0  0  0  0  0  0  0  0  0
   -1.5750    2.7649   -2.1728 C   0  0  0  0  0  0  0  0  0  0  0  0
   -0.6575    3.2642   -2.5301 H   0  0  0  0  0  0  0  0  0  0  0  0
   -2.1865    3.5157   -1.6310 H   0  0  0  0  0  0  0  0  0  0  0  0
   -2.1628    2.4433   -3.0569 H   0  0  0  0  0  0  0  0  0  0  0  0
  1  4  1  0  0  0  0
  3 24  1  0  0  0  0
  4  5  1  0  0  0  0
  6  7  1  0  0  0  0
  6  4  1  0  0  0  0
  8  6  2  0  0  0  0
  9  8  1  0  0  0  0
 10  8  1  0  0  0  0
 10 12  2  0  0  0  0
 11 10  1  0  0  0  0
 12  1  1  0  0  0  0
 13 12  1  0  0  0  0
 13  2  1  0  0  0  0
 13 14  1  0  0  0  0
 15 13  1  0  0  0  0
 16  2  1  0  0  0  0
 16 17  2  0  0  0  0
 17  3  1  0  0  0  0
 18 17  1  0  0  0  0
 18 20  2  0  0  0  0
 19 18  1  0  0  0  0
 20 22  1  0  0  0  0
 21 20  1  0  0  0  0
 22 24  2  0  0  0  0
 22 23  1  0  0  0  0
 24 25  1  0  0  0  0
 26 28  1  0  0  0  0
 26 16  1  0  0  0  0
 27 26  1  0  0  0  0
 29 26  1  0  0  0  0
M  END
