1,2,3
 OpenBabel05122313063D

 34 37  0  0  1  0  0  0  0  0999 V2000
   -1.5390   -0.2537    1.3614 N   0  0  0  0  0  2  0  0  0  0  0  0
   -1.5396   -0.2564   -1.3607 N   0  0  0  0  0  2  0  0  0  0  0  0
    0.6575    0.4726   -0.0008 N   0  0  0  0  0  2  0  0  0  0  0  0
   -1.9717    1.0149   -1.1803 N   0  0  0  0  0  0  0  0  0  0  0  0
   -1.4618    1.6947   -0.0015 C   0  0  1  0  0  0  0  0  0  0  0  0
   -1.8458    2.7295   -0.0025 H   0  0  0  0  0  0  0  0  0  0  0  0
   -2.8020    1.4234    2.1867 C   0  0  0  0  0  3  0  0  0  0  0  0
   -3.2414    2.4266    2.1960 H   0  0  0  0  0  0  0  0  0  0  0  0
   -2.8007    1.4201   -2.1900 C   0  0  0  0  0  3  0  0  0  0  0  0
   -3.2395    2.4235   -2.2014 H   0  0  0  0  0  0  0  0  0  0  0  0
   -2.0967   -0.6775    2.5144 C   0  0  0  0  0  0  0  0  0  0  0  0
   -1.8495   -1.6805    2.8770 H   0  0  0  0  0  0  0  0  0  0  0  0
   -1.9716    1.0171    1.1786 N   0  0  0  0  0  0  0  0  0  0  0  0
    2.7517   -0.8101   -0.0011 C   0  0  0  0  0  0  0  0  0  0  0  0
    2.1779   -1.7447   -0.0015 H   0  0  0  0  0  0  0  0  0  0  0  0
   -2.0963   -0.6817   -2.5136 C   0  0  0  0  0  0  0  0  0  0  0  0
   -1.8494   -1.6854   -2.8743 H   0  0  0  0  0  0  0  0  0  0  0  0
    2.0576    0.4279   -0.0010 C   0  0  2  0  0  3  0  0  0  0  0  0
    2.1382    2.9048   -0.0015 C   0  0  0  0  0  0  0  0  0  0  0  0
    2.7155    3.8408   -0.0016 H   0  0  0  0  0  0  0  0  0  0  0  0
    0.0511    1.6913   -0.0015 C   0  0  0  0  0  0  0  0  0  0  0  0
    0.7545    2.9127   -0.0018 C   0  0  0  0  0  0  0  0  0  0  0  0
    0.1884    3.8561   -0.0023 H   0  0  0  0  0  0  0  0  0  0  0  0
    2.8205    1.6557   -0.0011 C   0  0  0  0  0  0  0  0  0  0  0  0
    4.1426   -0.8326   -0.0011 C   0  0  0  0  0  0  0  0  0  0  0  0
    4.6575   -1.8048   -0.0013 H   0  0  0  0  0  0  0  0  0  0  0  0
   -2.8998    0.3426   -3.0674 C   0  0  0  0  0  0  0  0  0  0  0  0
   -3.4775    0.3020   -3.9961 H   0  0  0  0  0  0  0  0  0  0  0  0
    4.2422    1.5880   -0.0010 C   0  0  0  0  0  0  0  0  0  0  0  0
    4.8084    2.5319   -0.0010 H   0  0  0  0  0  0  0  0  0  0  0  0
    4.8962    0.3646   -0.0010 C   0  0  0  0  0  0  0  0  0  0  0  0
    5.9960    0.3249   -0.0009 H   0  0  0  0  0  0  0  0  0  0  0  0
   -2.9014    0.3472    3.0657 C   0  0  0  0  0  0  0  0  0  0  0  0
   -3.4800    0.3078    3.9939 H   0  0  0  0  0  0  0  0  0  0  0  0
  1 11  1  0  0  0  0
  2  4  1  0  0  0  0
  4  5  1  0  0  0  0
  5  6  1  6  0  0  0
  5 21  1  0  0  0  0
  5 13  1  0  0  0  0
  7  8  1  0  0  0  0
  7 33  1  0  0  0  0
  9  4  1  0  0  0  0
 10  9  1  0  0  0  0
 11 12  1  0  0  0  0
 11 33  2  0  0  0  0
 13  1  1  0  0  0  0
 13  7  1  0  0  0  0
 15 14  1  0  0  0  0
 16  2  1  0  0  0  0
 17 16  1  0  0  0  0
 18 14  1  1  0  0  0
 18  3  1  0  0  0  0
 19 24  2  0  0  0  0
 20 19  1  0  0  0  0
 21  3  1  0  0  0  0
 22 19  1  0  0  0  0
 22 21  2  0  0  0  0
 23 22  1  0  0  0  0
 24 18  1  0  0  0  0
 24 29  1  0  0  0  0
 25 14  2  0  0  0  0
 25 31  1  0  0  0  0
 26 25  1  0  0  0  0
 27 16  2  0  0  0  0
 27  9  1  0  0  0  0
 28 27  1  0  0  0  0
 29 31  2  0  0  0  0
 29 30  1  0  0  0  0
 31 32  1  0  0  0  0
 33 34  1  0  0  0  0
M  END
