1,2,3
 OpenBabel05122313063D

 55 56  0  0  1  0  0  0  0  0999 V2000
   -0.8251    0.5569    0.5969 N   0  0  0  0  0  2  0  0  0  0  0  0
    1.8322    1.2981    0.8817 N   0  0  0  0  0  2  0  0  0  0  0  0
    2.5270   -0.7211   -0.5438 N   0  0  0  0  0  2  0  0  0  0  0  0
   -2.4364    1.7190    2.0772 C   0  0  0  0  0  0  0  0  0  0  0  0
   -2.4650    2.6012    2.7423 H   0  0  0  0  0  0  0  0  0  0  0  0
   -3.2311    1.8231    1.3138 H   0  0  0  0  0  0  0  0  0  0  0  0
   -2.7023    0.8225    2.6752 H   0  0  0  0  0  0  0  0  0  0  0  0
   -1.0666    1.5609    1.4576 C   0  0  0  0  0  0  0  0  0  0  0  0
   -0.0476    2.4598    1.8516 C   0  0  0  0  0  0  0  0  0  0  0  0
   -0.3577    3.3010    2.4865 H   0  0  0  0  0  0  0  0  0  0  0  0
    1.3198    2.3421    1.6046 C   0  0  1  0  0  3  0  0  0  0  0  0
    2.2655    3.3301    2.2375 C   0  0  0  0  0  0  0  0  0  0  0  0
    2.9667    3.7519    1.4867 H   0  0  0  0  0  0  0  0  0  0  0  0
    2.8869    2.8535    3.0265 H   0  0  0  0  0  0  0  0  0  0  0  0
    1.7082    4.1621    2.7041 H   0  0  0  0  0  0  0  0  0  0  0  0
   -1.9351   -0.3005    0.2748 C   0  0  0  0  0  0  0  0  0  0  0  0
   -2.0898   -1.5052    1.0122 C   0  0  0  0  0  0  0  0  0  0  0  0
   -3.1240   -2.3831    0.6419 C   0  0  0  0  0  0  0  0  0  0  0  0
   -3.2522   -3.3273    1.1924 H   0  0  0  0  0  0  0  0  0  0  0  0
   -3.9907   -2.0773   -0.4151 C   0  0  0  0  0  0  0  0  0  0  0  0
   -4.7906   -2.7797   -0.6940 H   0  0  0  0  0  0  0  0  0  0  0  0
   -3.8373   -0.8741   -1.1131 C   0  0  0  0  0  0  0  0  0  0  0  0
   -4.5236   -0.6360   -1.9406 H   0  0  0  0  0  0  0  0  0  0  0  0
   -2.8203    0.0408   -0.7836 C   0  0  0  0  0  0  0  0  0  0  0  0
   -1.1383   -1.8589    2.1515 C   0  0  0  0  0  0  0  0  0  0  0  0
   -0.6304   -0.9219    2.4580 H   0  0  0  0  0  0  0  0  0  0  0  0
   -0.0389   -2.8238    1.6719 C   0  0  0  0  0  0  0  0  0  0  0  0
   -0.4769   -3.7579    1.2633 H   0  0  0  0  0  0  0  0  0  0  0  0
    0.6387   -3.0957    2.5075 H   0  0  0  0  0  0  0  0  0  0  0  0
    0.5764   -2.3545    0.8779 H   0  0  0  0  0  0  0  0  0  0  0  0
   -1.8700   -2.4122    3.3834 C   0  0  0  0  0  0  0  0  0  0  0  0
   -1.1610   -2.5451    4.2257 H   0  0  0  0  0  0  0  0  0  0  0  0
   -2.3284   -3.4031    3.1851 H   0  0  0  0  0  0  0  0  0  0  0  0
   -2.6780   -1.7302    3.7185 H   0  0  0  0  0  0  0  0  0  0  0  0
   -2.6813    1.3368   -1.5763 C   0  0  0  0  0  0  0  0  0  0  0  0
   -1.8283    1.9000   -1.1483 H   0  0  0  0  0  0  0  0  0  0  0  0
   -3.9358    2.2205   -1.4529 C   0  0  0  0  0  0  0  0  0  0  0  0
   -4.1799    2.4536   -0.3970 H   0  0  0  0  0  0  0  0  0  0  0  0
   -4.8241    1.7257   -1.8973 H   0  0  0  0  0  0  0  0  0  0  0  0
   -3.7879    3.1817   -1.9862 H   0  0  0  0  0  0  0  0  0  0  0  0
   -2.3636    1.0716   -3.0589 C   0  0  0  0  0  0  0  0  0  0  0  0
   -3.2069    0.5554   -3.5630 H   0  0  0  0  0  0  0  0  0  0  0  0
   -1.4650    0.4398   -3.1829 H   0  0  0  0  0  0  0  0  0  0  0  0
   -2.1826    2.0267   -3.5923 H   0  0  0  0  0  0  0  0  0  0  0  0
    3.1649    1.0398    0.8723 C   0  0  0  0  0  0  0  0  0  0  0  0
    3.8832    1.6501    1.4345 H   0  0  0  0  0  0  0  0  0  0  0  0
    3.5698   -0.0656    0.1125 C   0  0  0  0  0  0  0  0  0  0  0  0
    4.9186   -0.5158   -0.0173 C   0  0  0  0  0  0  0  0  0  0  0  0
    5.7096    0.0461    0.5007 H   0  0  0  0  0  0  0  0  0  0  0  0
    5.2052   -1.6299   -0.7822 C   0  0  0  0  0  0  0  0  0  0  0  0
    6.2387   -1.9926   -0.8838 H   0  0  0  0  0  0  0  0  0  0  0  0
    4.1359   -2.2957   -1.4429 C   0  0  0  0  0  0  0  0  0  0  0  0
    4.3095   -3.1921   -2.0539 H   0  0  0  0  0  0  0  0  0  0  0  0
    2.8466   -1.8055   -1.3101 C   0  0  0  0  0  0  0  0  0  0  0  0
    2.0115   -2.3029   -1.8216 H   0  0  0  0  0  0  0  0  0  0  0  0
  1  8  1  0  0  0  0
  3 47  1  0  0  0  0
  4  7  1  0  0  0  0
  4  5  1  0  0  0  0
  6  4  1  0  0  0  0
  8  9  2  0  0  0  0
  8  4  1  0  0  0  0
  9 10  1  0  0  0  0
 11  2  1  1  0  0  0
 11  9  1  0  0  0  0
 11 12  1  0  0  0  0
 12 15  1  0  0  0  0
 12 14  1  0  0  0  0
 13 12  1  0  0  0  0
 16  1  1  0  0  0  0
 16 17  1  0  0  0  0
 17 25  1  0  0  0  0
 18 17  2  0  0  0  0
 18 19  1  0  0  0  0
 20 18  1  0  0  0  0
 21 20  1  0  0  0  0
 22 24  1  0  0  0  0
 22 20  2  0  0  0  0
 23 22  1  0  0  0  0
 24 16  2  0  0  0  0
 25 26  1  0  0  0  0
 25 31  1  0  0  0  0
 27 25  1  0  0  0  0
 27 29  1  0  0  0  0
 28 27  1  0  0  0  0
 30 27  1  0  0  0  0
 31 34  1  0  0  0  0
 31 32  1  0  0  0  0
 33 31  1  0  0  0  0
 35 37  1  0  0  0  0
 35 36  1  0  0  0  0
 35 24  1  0  0  0  0
 37 38  1  0  0  0  0
 39 37  1  0  0  0  0
 40 37  1  0  0  0  0
 41 35  1  0  0  0  0
 42 41  1  0  0  0  0
 43 41  1  0  0  0  0
 44 41  1  0  0  0  0
 45  2  1  0  0  0  0
 45 46  1  0  0  0  0
 47 45  2  0  0  0  0
 48 47  1  0  0  0  0
 48 49  1  0  0  0  0
 50 48  2  0  0  0  0
 51 50  1  0  0  0  0
 52 54  2  0  0  0  0
 52 50  1  0  0  0  0
 53 52  1  0  0  0  0
 54  3  1  0  0  0  0
 55 54  1  0  0  0  0
M  END
