1,2,3
 OpenBabel05122313063D

 25 26  0  0  1  0  0  0  0  0999 V2000
   -1.3281    1.4007    0.0630 N   0  0  0  0  0  2  0  0  0  0  0  0
    0.2930    0.1889   -1.8729 N   0  0  0  0  0  2  0  0  0  0  0  0
    1.3755   -1.2386   -0.6422 N   0  0  0  0  0  2  0  0  0  0  0  0
   -2.1054    1.5072    1.1733 C   0  0  0  0  0  3  0  0  0  0  0  0
   -3.0862    2.4782    1.3290 C   0  0  0  0  0  0  0  0  0  0  0  0
   -3.2841    3.3949    0.2795 C   0  0  0  0  0  0  0  0  0  0  0  0
   -2.5043    3.2891   -0.8651 C   0  0  0  0  0  0  0  0  0  0  0  0
   -1.5157    2.2741   -0.9700 C   0  0  0  0  0  0  0  0  0  0  0  0
   -0.7698    2.2277   -2.1332 N   0  0  0  0  0  0  0  0  0  0  0  0
    0.1596    1.2920   -2.6595 C   0  0  0  0  0  0  0  0  0  0  0  0
    0.7225    1.5193   -3.7242 O   0  0  0  0  0  0  0  0  0  0  0  0
    1.3238   -0.7230   -1.9068 C   0  0  2  0  0  3  0  0  0  0  0  0
    2.2234   -1.1312   -2.9063 C   0  0  0  0  0  0  0  0  0  0  0  0
    3.1569   -2.1131   -2.5473 C   0  0  0  0  0  0  0  0  0  0  0  0
    3.1860   -2.6466   -1.2422 C   0  0  0  0  0  0  0  0  0  0  0  0
    2.2724   -2.1716   -0.2932 C   0  0  0  0  0  0  0  0  0  0  0  0
   -1.8871    0.7755    1.9624 H   0  0  0  0  0  0  0  0  0  0  0  0
   -3.6769    2.5159    2.2538 H   0  0  0  0  0  0  0  0  0  0  0  0
   -4.0475    4.1832    0.3541 H   0  0  0  0  0  0  0  0  0  0  0  0
   -2.6425    3.9809   -1.7087 H   0  0  0  0  0  0  0  0  0  0  0  0
   -0.9347    2.9948   -2.7896 H   0  0  0  0  0  0  0  0  0  0  0  0
    2.1750   -0.6769   -3.9040 H   0  0  0  0  0  0  0  0  0  0  0  0
    3.8796   -2.4708   -3.2963 H   0  0  0  0  0  0  0  0  0  0  0  0
    3.9146   -3.4182   -0.9593 H   0  0  0  0  0  0  0  0  0  0  0  0
    2.2574   -2.5250    0.7498 H   0  0  0  0  0  0  0  0  0  0  0  0
  1  4  1  0  0  0  0
  3 16  1  0  0  0  0
  4  5  1  0  0  0  0
  4 17  1  0  0  0  0
  5 18  1  0  0  0  0
  6 19  1  0  0  0  0
  6  5  2  0  0  0  0
  7  6  1  0  0  0  0
  8  7  2  0  0  0  0
  8  1  1  0  0  0  0
  9  8  1  0  0  0  0
 10  9  1  0  0  0  0
 10  2  1  0  0  0  0
 11 10  2  0  0  0  0
 12  2  1  1  0  0  0
 12  3  1  0  0  0  0
 13 14  2  0  0  0  0
 13 12  1  0  0  0  0
 14 15  1  0  0  0  0
 15 24  1  0  0  0  0
 15 16  2  0  0  0  0
 16 25  1  0  0  0  0
 20  7  1  0  0  0  0
 21  9  1  0  0  0  0
 22 13  1  0  0  0  0
 23 14  1  0  0  0  0
M  END
