1,2,3
 OpenBabel05122313063D

 48 50  0  0  1  0  0  0  0  0999 V2000
   -2.0048    2.1277   -0.3711 N   0  0  0  0  0  2  0  0  0  0  0  0
   -0.7236   -0.1317   -0.0148 N   0  0  0  0  0  2  0  0  0  0  0  0
   -2.5045   -2.0349    0.2759 N   0  0  0  0  0  2  0  0  0  0  0  0
   -2.7626    3.2171   -0.5319 C   0  0  0  0  0  3  0  0  0  0  0  0
   -3.8489    3.0377   -0.5937 H   0  0  0  0  0  0  0  0  0  0  0  0
   -2.2109    4.5042   -0.6187 C   0  0  0  0  0  0  0  0  0  0  0  0
   -2.8621    5.3805   -0.7478 H   0  0  0  0  0  0  0  0  0  0  0  0
   -0.8174    4.6347   -0.5344 C   0  0  0  0  0  0  0  0  0  0  0  0
   -0.3434    5.6260   -0.5928 H   0  0  0  0  0  0  0  0  0  0  0  0
   -0.0294    3.4873   -0.3737 C   0  0  0  0  0  0  0  0  0  0  0  0
    1.0636    3.5723   -0.3040 H   0  0  0  0  0  0  0  0  0  0  0  0
   -0.6618    2.2338   -0.2925 C   0  0  0  0  0  0  0  0  0  0  0  0
    0.0657    0.9421   -0.1368 C   0  0  2  0  0  3  0  0  0  0  0  0
    1.4663    0.8278   -0.1370 C   0  0  0  0  0  0  0  0  0  0  0  0
    2.0998    1.7146   -0.2452 H   0  0  0  0  0  0  0  0  0  0  0  0
    2.0313   -0.4575   -0.0000 C   0  0  0  0  0  0  0  0  0  0  0  0
    1.1768   -1.5738    0.1238 C   0  0  0  0  0  0  0  0  0  0  0  0
    1.6256   -2.5693    0.2334 H   0  0  0  0  0  0  0  0  0  0  0  0
   -0.2076   -1.3653    0.1088 C   0  0  0  0  0  0  0  0  0  0  0  0
   -1.2214   -2.4515    0.2276 C   0  0  2  0  0  3  0  0  0  0  0  0
   -0.9004   -3.8206    0.2861 C   0  0  0  0  0  0  0  0  0  0  0  0
    0.1453   -4.1544    0.2422 H   0  0  0  0  0  0  0  0  0  0  0  0
   -1.9382   -4.7549    0.3932 C   0  0  0  0  0  0  0  0  0  0  0  0
   -1.7103   -5.8305    0.4381 H   0  0  0  0  0  0  0  0  0  0  0  0
   -3.2658   -4.3042    0.4388 C   0  0  0  0  0  0  0  0  0  0  0  0
   -4.1072   -5.0070    0.5202 H   0  0  0  0  0  0  0  0  0  0  0  0
   -3.4999   -2.9229    0.3755 C   0  0  0  0  0  0  0  0  0  0  0  0
   -4.5179   -2.5002    0.3990 H   0  0  0  0  0  0  0  0  0  0  0  0
    4.2728    0.3823   -0.0902 C   0  0  0  0  0  0  0  0  0  0  0  0
    4.1303    1.0668    0.7743 H   0  0  0  0  0  0  0  0  0  0  0  0
    4.0955    0.9277   -1.0413 H   0  0  0  0  0  0  0  0  0  0  0  0
    5.6974   -0.1793   -0.0784 C   0  0  0  0  0  0  0  0  0  0  0  0
    5.9441   -0.9436    1.2432 C   0  0  0  0  0  0  0  0  0  0  0  0
    5.2661   -1.8190    1.2864 H   0  0  0  0  0  0  0  0  0  0  0  0
    6.9881   -1.3504    1.2407 H   0  0  0  0  0  0  0  0  0  0  0  0
    6.6816    1.0127   -0.2020 C   0  0  0  0  0  0  0  0  0  0  0  0
    6.4665    1.5514   -1.1459 H   0  0  0  0  0  0  0  0  0  0  0  0
    6.4960    1.7340    0.6356 H   0  0  0  0  0  0  0  0  0  0  0  0
    5.9065   -1.1274   -1.2689 C   0  0  0  0  0  0  0  0  0  0  0  0
    6.9724   -1.4550   -1.2610 H   0  0  0  0  0  0  0  0  0  0  0  0
    5.2596   -2.0265   -1.1326 H   0  0  0  0  0  0  0  0  0  0  0  0
    3.3551   -0.7108    0.0170 O   0  0  0  0  0  0  0  0  0  0  0  0
    5.6705   -0.1788    2.4010 O   0  0  0  0  0  0  0  0  0  0  0  0
    6.2873    0.5753    2.4233 H   0  0  0  0  0  0  0  0  0  0  0  0
    8.0381    0.6219   -0.2752 O   0  0  0  0  0  0  0  0  0  0  0  0
    8.2706    0.1671    0.5549 H   0  0  0  0  0  0  0  0  0  0  0  0
    5.5826   -0.4209   -2.4552 O   0  0  0  0  0  0  0  0  0  0  0  0
    5.7949   -0.9916   -3.2135 H   0  0  0  0  0  0  0  0  0  0  0  0
  1 12  1  0  0  0  0
  2 19  1  0  0  0  0
  3 27  1  0  0  0  0
  4  1  1  0  0  0  0
  5  4  1  0  0  0  0
  6  8  2  0  0  0  0
  6  4  1  0  0  0  0
  7  6  1  0  0  0  0
  8 10  1  0  0  0  0
  9  8  1  0  0  0  0
 10 11  1  0  0  0  0
 10 12  2  0  0  0  0
 13 12  1  6  0  0  0
 13  2  1  0  0  0  0
 14 13  1  0  0  0  0
 14 16  2  0  0  0  0
 15 14  1  0  0  0  0
 16 42  1  0  0  0  0
 16 17  1  0  0  0  0
 17 18  1  0  0  0  0
 19 17  2  0  0  0  0
 20 19  1  6  0  0  0
 20  3  1  0  0  0  0
 20 21  1  0  0  0  0
 21 23  2  0  0  0  0
 22 21  1  0  0  0  0
 23 24  1  0  0  0  0
 23 25  1  0  0  0  0
 25 26  1  0  0  0  0
 27 28  1  0  0  0  0
 27 25  2  0  0  0  0
 29 32  1  0  0  0  0
 29 42  1  0  0  0  0
 29 30  1  0  0  0  0
 31 29  1  0  0  0  0
 32 33  1  0  0  0  0
 33 34  1  0  0  0  0
 33 43  1  0  0  0  0
 35 33  1  0  0  0  0
 36 32  1  0  0  0  0
 36 38  1  0  0  0  0
 37 36  1  0  0  0  0
 39 40  1  0  0  0  0
 39 41  1  0  0  0  0
 39 32  1  0  0  0  0
 43 44  1  0  0  0  0
 45 36  1  0  0  0  0
 45 46  1  0  0  0  0
 47 39  1  0  0  0  0
 48 47  1  0  0  0  0
M  END
