2,3,4
 OpenBabel05122313063D

 60 66  0  0  1  0  0  0  0  0999 V2000
    8.7677    0.0003   -0.0001 O   0  0  0  0  0  0  0  0  0  0  0  0
   -2.5822   -0.0014    0.0026 N   0  0  0  0  0  2  0  0  0  0  0  0
   -4.1523    1.8639    0.9575 N   0  0  0  0  0  2  0  0  0  0  0  0
   -4.1523   -1.8642   -0.9572 N   0  0  0  0  0  2  0  0  0  0  0  0
    5.9363   -0.0002    0.0006 N   0  0  0  0  0  0  0  0  0  0  0  0
   -5.0491    2.7492    1.4086 C   0  0  0  0  0  3  0  0  0  0  0  0
   -6.1073    2.4758    1.2648 H   0  0  0  0  0  0  0  0  0  0  0  0
   -4.6645    3.9492    2.0249 C   0  0  0  0  0  0  0  0  0  0  0  0
   -5.4261    4.6557    2.3840 H   0  0  0  0  0  0  0  0  0  0  0  0
   -3.2953    4.2152    2.1658 C   0  0  0  0  0  0  0  0  0  0  0  0
   -2.9523    5.1452    2.6430 H   0  0  0  0  0  0  0  0  0  0  0  0
   -2.3620    3.2832    1.6917 C   0  0  0  0  0  0  0  0  0  0  0  0
   -1.2854    3.4759    1.7938 H   0  0  0  0  0  0  0  0  0  0  0  0
   -2.8278    2.1033    1.0852 C   0  0  0  0  0  0  0  0  0  0  0  0
   -1.9350    1.0381    0.5422 C   0  0  2  0  0  3  0  0  0  0  0  0
   -0.5308    1.0730    0.5613 C   0  0  0  0  0  0  0  0  0  0  0  0
    0.0063    1.9350    0.9786 H   0  0  0  0  0  0  0  0  0  0  0  0
    0.1967   -0.0010    0.0019 C   0  0  0  0  0  0  0  0  0  0  0  0
   -0.5308   -1.0752   -0.5573 C   0  0  0  0  0  0  0  0  0  0  0  0
    0.0063   -1.9368   -0.9754 H   0  0  0  0  0  0  0  0  0  0  0  0
   -1.9350   -1.0405   -0.5378 C   0  0  0  0  0  0  0  0  0  0  0  0
   -2.8278   -2.1052   -1.0816 C   0  0  1  0  0  3  0  0  0  0  0  0
   -2.3620   -3.2863   -1.6859 C   0  0  0  0  0  0  0  0  0  0  0  0
   -1.2854   -3.4805   -1.7851 H   0  0  0  0  0  0  0  0  0  0  0  0
   -3.2953   -4.2176   -2.1612 C   0  0  0  0  0  0  0  0  0  0  0  0
   -2.9523   -5.1485   -2.6367 H   0  0  0  0  0  0  0  0  0  0  0  0
   -4.6645   -3.9499   -2.0238 C   0  0  0  0  0  0  0  0  0  0  0  0
   -5.4261   -4.6558   -2.3840 H   0  0  0  0  0  0  0  0  0  0  0  0
   -5.0491   -2.7488   -1.4095 C   0  0  0  0  0  0  0  0  0  0  0  0
   -6.1073   -2.4741   -1.2682 H   0  0  0  0  0  0  0  0  0  0  0  0
    1.6785   -0.0008    0.0016 C   0  0  0  0  0  0  0  0  0  0  0  0
    2.4039    0.5456    1.0849 C   0  0  0  0  0  0  0  0  0  0  0  0
    1.8639    0.9554    1.9515 H   0  0  0  0  0  0  0  0  0  0  0  0
    3.8024    0.5497    1.0853 C   0  0  0  0  0  0  0  0  0  0  0  0
    4.3608    0.9737    1.9323 H   0  0  0  0  0  0  0  0  0  0  0  0
    4.5132   -0.0004    0.0009 C   0  0  0  0  0  0  0  0  0  0  0  0
    3.8020   -0.5508   -1.0831 C   0  0  0  0  0  0  0  0  0  0  0  0
    4.3602   -0.9745   -1.9304 H   0  0  0  0  0  0  0  0  0  0  0  0
    2.4036   -0.5471   -1.0821 C   0  0  0  0  0  0  0  0  0  0  0  0
    1.8632   -0.9569   -1.9485 H   0  0  0  0  0  0  0  0  0  0  0  0
    6.6488   -0.8288    0.8938 C   0  0  0  0  0  0  0  0  0  0  0  0
    6.0155   -1.7148    1.7861 C   0  0  0  0  0  0  0  0  0  0  0  0
    4.9190   -1.7749    1.7954 H   0  0  0  0  0  0  0  0  0  0  0  0
    6.7674   -2.5225    2.6568 C   0  0  0  0  0  0  0  0  0  0  0  0
    6.2433   -3.2017    3.3450 H   0  0  0  0  0  0  0  0  0  0  0  0
    8.1657   -2.4666    2.6427 C   0  0  0  0  0  0  0  0  0  0  0  0
    8.7606   -3.0941    3.3218 H   0  0  0  0  0  0  0  0  0  0  0  0
    8.8119   -1.6037    1.7408 C   0  0  0  0  0  0  0  0  0  0  0  0
    9.9079   -1.5376    1.6851 H   0  0  0  0  0  0  0  0  0  0  0  0
    8.0664   -0.8001    0.8746 C   0  0  0  0  0  0  0  0  0  0  0  0
    6.6481    0.8286   -0.8930 C   0  0  0  0  0  0  0  0  0  0  0  0
    6.0141    1.7143   -1.7851 C   0  0  0  0  0  0  0  0  0  0  0  0
    4.9176    1.7741   -1.7939 H   0  0  0  0  0  0  0  0  0  0  0  0
    6.7653    2.5221   -2.6563 C   0  0  0  0  0  0  0  0  0  0  0  0
    6.2407    3.2011   -3.3443 H   0  0  0  0  0  0  0  0  0  0  0  0
    8.1637    2.4667   -2.6428 C   0  0  0  0  0  0  0  0  0  0  0  0
    8.7581    3.0943   -3.3223 H   0  0  0  0  0  0  0  0  0  0  0  0
    8.8105    1.6040   -1.7412 C   0  0  0  0  0  0  0  0  0  0  0  0
    9.9066    1.5383   -1.6860 H   0  0  0  0  0  0  0  0  0  0  0  0
    8.0657    0.8003   -0.8746 C   0  0  0  0  0  0  0  0  0  0  0  0
  1 50  1  0  0  0  0
  2 15  1  0  0  0  0
  3 14  1  0  0  0  0
  3  6  1  0  0  0  0
  5 36  1  0  0  0  0
  5 41  1  0  0  0  0
  6  8  1  0  0  0  0
  7  6  1  0  0  0  0
  8 10  2  0  0  0  0
  8  9  1  0  0  0  0
 10 11  1  0  0  0  0
 12 13  1  0  0  0  0
 12 10  1  0  0  0  0
 14 12  2  0  0  0  0
 15 16  1  0  0  0  0
 15 14  1  6  0  0  0
 16 17  1  0  0  0  0
 18 16  2  0  0  0  0
 19 21  2  0  0  0  0
 19 18  1  0  0  0  0
 20 19  1  0  0  0  0
 21  2  1  0  0  0  0
 22  4  1  0  0  0  0
 22 21  1  1  0  0  0
 23 22  1  0  0  0  0
 24 23  1  0  0  0  0
 25 27  1  0  0  0  0
 25 23  2  0  0  0  0
 26 25  1  0  0  0  0
 27 29  2  0  0  0  0
 28 27  1  0  0  0  0
 29 30  1  0  0  0  0
 29  4  1  0  0  0  0
 31 18  1  0  0  0  0
 31 32  1  0  0  0  0
 32 34  2  0  0  0  0
 32 33  1  0  0  0  0
 34 35  1  0  0  0  0
 36 34  1  0  0  0  0
 37 39  1  0  0  0  0
 37 36  2  0  0  0  0
 38 37  1  0  0  0  0
 39 31  2  0  0  0  0
 40 39  1  0  0  0  0
 41 42  1  0  0  0  0
 42 43  1  0  0  0  0
 42 44  2  0  0  0  0
 44 45  1  0  0  0  0
 46 44  1  0  0  0  0
 46 47  1  0  0  0  0
 48 46  2  0  0  0  0
 49 48  1  0  0  0  0
 50 41  2  0  0  0  0
 50 48  1  0  0  0  0
 51 60  1  0  0  0  0
 51  5  1  0  0  0  0
 52 51  2  0  0  0  0
 53 52  1  0  0  0  0
 54 56  2  0  0  0  0
 54 52  1  0  0  0  0
 55 54  1  0  0  0  0
 56 58  1  0  0  0  0
 57 56  1  0  0  0  0
 58 59  1  0  0  0  0
 58 60  2  0  0  0  0
 60  1  1  0  0  0  0
M  END
