1,7,18
 OpenBabel05122313063D

 49 51  0  0  0  0  0  0  0  0999 V2000
    2.1366    0.8379   -0.0735 N   0  0  0  0  0  0  0  0  0  0  0  0
    3.2934    0.1759   -0.0433 N   0  0  0  0  0  2  0  0  0  0  0  0
    4.2433    1.1439   -0.0128 C   0  0  0  0  0  0  0  0  0  0  0  0
    3.7410    2.4067   -0.0232 N   0  0  0  0  0  0  0  0  0  0  0  0
    2.4197    2.1903   -0.0617 C   0  0  0  0  0  0  0  0  0  0  0  0
    1.2914    3.1092   -0.0722 C   0  0  0  0  0  0  0  0  0  0  0  0
    0.1082    2.4399   -0.1032 N   0  0  0  0  0  2  0  0  0  0  0  0
    1.2906    4.5066   -0.0394 C   0  0  0  0  0  0  0  0  0  0  0  0
    2.2323    5.0687   -0.0161 H   0  0  0  0  0  0  0  0  0  0  0  0
    0.0443    5.1818   -0.0292 C   0  0  0  0  0  0  0  0  0  0  0  0
   -1.1712    4.4549   -0.0429 C   0  0  0  0  0  0  0  0  0  0  0  0
   -2.1600    4.9269   -0.0236 H   0  0  0  0  0  0  0  0  0  0  0  0
   -1.0983    3.0546   -0.0779 C   0  0  0  0  0  0  0  0  0  0  0  0
   -2.1921    2.0910   -0.0795 C   0  0  0  0  0  0  0  0  0  0  0  0
   -3.5216    2.2434   -0.0412 N   0  0  0  0  0  0  0  0  0  0  0  0
   -3.9648    0.9550   -0.0623 C   0  0  0  0  0  0  0  0  0  0  0  0
   -2.9720    0.0355   -0.1112 N   0  0  0  0  0  2  0  0  0  0  0  0
   -1.8461    0.7585   -0.1177 N   0  0  0  0  0  2  0  0  0  0  0  0
    0.1100    6.5284    0.0005 O   0  0  0  0  0  0  0  0  0  0  0  0
   -1.1007    7.2730    0.0150 C   0  0  0  0  0  0  0  0  0  0  0  0
   -1.7108    7.0780   -0.8934 H   0  0  0  0  0  0  0  0  0  0  0  0
   -0.8072    8.3380    0.0349 H   0  0  0  0  0  0  0  0  0  0  0  0
   -1.7100    7.0444    0.9161 H   0  0  0  0  0  0  0  0  0  0  0  0
    5.7195    0.7969    0.0202 C   0  0  0  0  0  0  0  0  0  0  0  0
    6.5521    2.0809    0.1517 C   0  0  0  0  0  0  0  0  0  0  0  0
    7.6332    1.8342    0.1729 H   0  0  0  0  0  0  0  0  0  0  0  0
    6.2963    2.6279    1.0803 H   0  0  0  0  0  0  0  0  0  0  0  0
    6.3612    2.7686   -0.6950 H   0  0  0  0  0  0  0  0  0  0  0  0
    5.9849   -0.1385    1.2200 C   0  0  0  0  0  0  0  0  0  0  0  0
    5.3567   -1.0488    1.1539 H   0  0  0  0  0  0  0  0  0  0  0  0
    5.7475    0.3686    2.1771 H   0  0  0  0  0  0  0  0  0  0  0  0
    7.0520   -0.4430    1.2458 H   0  0  0  0  0  0  0  0  0  0  0  0
    6.0845    0.0630   -1.2897 C   0  0  0  0  0  0  0  0  0  0  0  0
    5.4730   -0.8539   -1.4067 H   0  0  0  0  0  0  0  0  0  0  0  0
    7.1560   -0.2269   -1.2884 H   0  0  0  0  0  0  0  0  0  0  0  0
    5.9022    0.7095   -2.1719 H   0  0  0  0  0  0  0  0  0  0  0  0
   -5.4296    0.5766    0.0107 C   0  0  0  0  0  0  0  0  0  0  0  0
   -5.5909   -0.9458   -0.1328 C   0  0  0  0  0  0  0  0  0  0  0  0
   -5.2051   -1.3001   -1.1096 H   0  0  0  0  0  0  0  0  0  0  0  0
   -6.6627   -1.2220   -0.0611 H   0  0  0  0  0  0  0  0  0  0  0  0
   -5.0309   -1.4857    0.6558 H   0  0  0  0  0  0  0  0  0  0  0  0
   -5.9718    1.0346    1.3835 C   0  0  0  0  0  0  0  0  0  0  0  0
   -5.4474    0.5092    2.2076 H   0  0  0  0  0  0  0  0  0  0  0  0
   -7.0566    0.8159    1.4669 H   0  0  0  0  0  0  0  0  0  0  0  0
   -5.8190    2.1237    1.5180 H   0  0  0  0  0  0  0  0  0  0  0  0
   -6.1904    1.3074   -1.1147 C   0  0  0  0  0  0  0  0  0  0  0  0
   -6.0314    2.4013   -1.0435 H   0  0  0  0  0  0  0  0  0  0  0  0
   -7.2784    1.1007   -1.0474 H   0  0  0  0  0  0  0  0  0  0  0  0
   -5.8364    0.9759   -2.1121 H   0  0  0  0  0  0  0  0  0  0  0  0
  1  5  2  0  0  0  0
  1  2  1  0  0  0  0
  2  3  1  0  0  0  0
  3 24  1  0  0  0  0
  4  3  2  0  0  0  0
  5  4  1  0  0  0  0
  6  5  1  0  0  0  0
  6  8  2  0  0  0  0
  7 13  1  0  0  0  0
  7  6  1  0  0  0  0
  8 10  1  0  0  0  0
  8  9  1  0  0  0  0
 10 19  1  0  0  0  0
 11 10  2  0  0  0  0
 11 12  1  0  0  0  0
 13 11  1  0  0  0  0
 14 13  2  0  0  0  0
 14 15  1  0  0  0  0
 16 15  2  0  0  0  0
 16 37  1  0  0  0  0
 17 16  1  0  0  0  0
 18 17  1  0  0  0  0
 18 14  1  0  0  0  0
 19 20  1  0  0  0  0
 20 22  1  0  0  0  0
 20 23  1  0  0  0  0
 21 20  1  0  0  0  0
 24 25  1  0  0  0  0
 24 29  1  0  0  0  0
 25 26  1  0  0  0  0
 25 27  1  0  0  0  0
 28 25  1  0  0  0  0
 29 32  1  0  0  0  0
 29 31  1  0  0  0  0
 30 29  1  0  0  0  0
 33 35  1  0  0  0  0
 33 24  1  0  0  0  0
 34 33  1  0  0  0  0
 36 33  1  0  0  0  0
 37 42  1  0  0  0  0
 38 40  1  0  0  0  0
 38 37  1  0  0  0  0
 38 41  1  0  0  0  0
 39 38  1  0  0  0  0
 42 44  1  0  0  0  0
 42 45  1  0  0  0  0
 42 43  1  0  0  0  0
 46 48  1  0  0  0  0
 46 47  1  0  0  0  0
 46 37  1  0  0  0  0
 49 46  1  0  0  0  0
M  END
