6,7,12
 OpenBabel05122313063D

 78 79  0  0  1  0  0  0  0  0999 V2000
   -3.0900    3.2783   -1.2057 C   0  0  0  0  0  0  0  0  0  0  0  0
   -3.7440    2.7813   -1.9426 H   0  0  0  0  0  0  0  0  0  0  0  0
   -2.6865    4.1983   -1.6781 H   0  0  0  0  0  0  0  0  0  0  0  0
   -3.7206    3.6122   -0.3554 H   0  0  0  0  0  0  0  0  0  0  0  0
   -3.6083   -1.0040   -0.2985 N   0  3  0  0  0  0  0  0  0  0  0  0
    0.0254    2.0341    0.4301 N   0  0  0  0  0  2  0  0  0  0  0  0
    1.7289    0.2460    0.4522 N   0  0  0  0  0  2  0  0  0  0  0  0
    3.2520    1.2621    2.1640 C   0  0  0  0  0  0  0  0  0  0  0  0
    3.9635    0.4621    1.8941 H   0  0  0  0  0  0  0  0  0  0  0  0
    2.9550    1.1199    3.2255 H   0  0  0  0  0  0  0  0  0  0  0  0
    3.7650    2.2420    2.0980 H   0  0  0  0  0  0  0  0  0  0  0  0
   -1.6997    1.1675   -1.1154 N   0  0  0  0  0  2  0  0  0  0  0  0
   -2.5326    0.4825   -2.1020 C   0  0  0  0  0  0  0  0  0  0  0  0
   -1.8809   -0.2682   -2.5853 H   0  0  0  0  0  0  0  0  0  0  0  0
   -2.8611    1.1725   -2.9083 H   0  0  0  0  0  0  0  0  0  0  0  0
   -3.8075   -0.1519   -1.5286 C   0  0  0  0  0  0  0  0  0  0  0  0
   -4.5363    0.6330   -1.2626 H   0  0  0  0  0  0  0  0  0  0  0  0
   -4.2833   -0.7776   -2.3071 H   0  0  0  0  0  0  0  0  0  0  0  0
   -4.6722   -0.7095    0.7780 C   0  0  0  0  0  0  0  0  0  0  0  0
   -5.6469   -0.8418    0.2631 H   0  0  0  0  0  0  0  0  0  0  0  0
   -4.5299    0.7336    1.2690 C   0  0  0  0  0  0  0  0  0  0  0  0
   -5.3025    0.9215    2.0381 H   0  0  0  0  0  0  0  0  0  0  0  0
   -4.6787    1.4888    0.4754 H   0  0  0  0  0  0  0  0  0  0  0  0
   -3.5341    0.8908    1.7290 H   0  0  0  0  0  0  0  0  0  0  0  0
   -4.5672   -1.6773    1.9565 C   0  0  0  0  0  0  0  0  0  0  0  0
   -4.8093   -2.7234    1.6958 H   0  0  0  0  0  0  0  0  0  0  0  0
   -5.2942   -1.3609    2.7286 H   0  0  0  0  0  0  0  0  0  0  0  0
   -3.5584   -1.6401    2.4138 H   0  0  0  0  0  0  0  0  0  0  0  0
   -3.4342   -2.4977   -0.6112 C   0  0  0  0  0  0  0  0  0  0  0  0
   -3.1542   -2.9266    0.3694 H   0  0  0  0  0  0  0  0  0  0  0  0
   -2.2653   -2.7297   -1.5627 C   0  0  0  0  0  0  0  0  0  0  0  0
   -2.0300   -3.8114   -1.5640 H   0  0  0  0  0  0  0  0  0  0  0  0
   -1.3484   -2.1923   -1.2545 H   0  0  0  0  0  0  0  0  0  0  0  0
   -2.5037   -2.4482   -2.6072 H   0  0  0  0  0  0  0  0  0  0  0  0
   -4.7266   -3.1382   -1.1058 C   0  0  0  0  0  0  0  0  0  0  0  0
   -4.5456   -4.2208   -1.2494 H   0  0  0  0  0  0  0  0  0  0  0  0
   -5.0450   -2.7368   -2.0891 H   0  0  0  0  0  0  0  0  0  0  0  0
   -5.5694   -3.0380   -0.3960 H   0  0  0  0  0  0  0  0  0  0  0  0
   -1.9689    2.4090   -0.7226 C   0  0  0  0  0  0  0  0  0  0  0  0
   -0.9976    2.9259    0.2292 C   0  0  0  0  0  0  0  0  0  0  0  0
    1.0481    2.2934    1.3089 C   0  0  0  0  0  0  0  0  0  0  0  0
    1.0707    3.5072    2.0149 C   0  0  0  0  0  0  0  0  0  0  0  0
    1.8864    3.7118    2.7218 H   0  0  0  0  0  0  0  0  0  0  0  0
    0.0464    4.4465    1.8027 C   0  0  0  0  0  0  0  0  0  0  0  0
    0.0580    5.4031    2.3436 H   0  0  0  0  0  0  0  0  0  0  0  0
   -0.9937    4.1606    0.9045 C   0  0  0  0  0  0  0  0  0  0  0  0
   -1.8047    4.8822    0.7351 H   0  0  0  0  0  0  0  0  0  0  0  0
    2.0329    1.2195    1.3009 C   0  0  1  0  0  3  0  0  0  0  0  0
    2.7135   -0.7505    0.1204 C   0  0  0  0  0  0  0  0  0  0  0  0
    3.6373   -0.4488   -0.9204 C   0  0  0  0  0  0  0  0  0  0  0  0
    3.6476    0.8937   -1.6465 C   0  0  0  0  0  0  0  0  0  0  0  0
    2.6786    1.3898   -1.4354 H   0  0  0  0  0  0  0  0  0  0  0  0
    3.7511    0.7378   -3.1720 C   0  0  0  0  0  0  0  0  0  0  0  0
    2.9628    0.0640   -3.5575 H   0  0  0  0  0  0  0  0  0  0  0  0
    4.7375    0.3345   -3.4794 H   0  0  0  0  0  0  0  0  0  0  0  0
    3.6372    1.7247   -3.6643 H   0  0  0  0  0  0  0  0  0  0  0  0
    4.7779    1.7999   -1.1226 C   0  0  0  0  0  0  0  0  0  0  0  0
    4.7050    1.9777   -0.0326 H   0  0  0  0  0  0  0  0  0  0  0  0
    4.7571    2.7851   -1.6316 H   0  0  0  0  0  0  0  0  0  0  0  0
    5.7701    1.3424   -1.3156 H   0  0  0  0  0  0  0  0  0  0  0  0
    4.5883   -1.4305   -1.2505 C   0  0  0  0  0  0  0  0  0  0  0  0
    5.3167   -1.2210   -2.0476 H   0  0  0  0  0  0  0  0  0  0  0  0
    4.6249   -2.6649   -0.5912 C   0  0  0  0  0  0  0  0  0  0  0  0
    5.3777   -3.4169   -0.8708 H   0  0  0  0  0  0  0  0  0  0  0  0
    3.7038   -2.9373    0.4250 C   0  0  0  0  0  0  0  0  0  0  0  0
    3.7390   -3.9060    0.9460 H   0  0  0  0  0  0  0  0  0  0  0  0
    2.7329   -1.9910    0.8038 C   0  0  0  0  0  0  0  0  0  0  0  0
    1.7470   -2.3194    1.9152 C   0  0  0  0  0  0  0  0  0  0  0  0
    1.1476   -1.4105    2.1165 H   0  0  0  0  0  0  0  0  0  0  0  0
    0.7633   -3.4112    1.4598 C   0  0  0  0  0  0  0  0  0  0  0  0
   -0.0081   -3.5922    2.2363 H   0  0  0  0  0  0  0  0  0  0  0  0
    1.2867   -4.3705    1.2675 H   0  0  0  0  0  0  0  0  0  0  0  0
    0.2494   -3.1121    0.5247 H   0  0  0  0  0  0  0  0  0  0  0  0
    2.4546   -2.7041    3.2246 C   0  0  0  0  0  0  0  0  0  0  0  0
    3.1523   -1.9088    3.5568 H   0  0  0  0  0  0  0  0  0  0  0  0
    3.0418   -3.6393    3.1198 H   0  0  0  0  0  0  0  0  0  0  0  0
    1.7135   -2.8685    4.0330 H   0  0  0  0  0  0  0  0  0  0  0  0
   -2.6932   -0.7230    0.1710 H   0  0  0  0  0  0  0  0  0  0  0  0
  1 39  1  0  0  0  0
  1  4  1  0  0  0  0
  2  1  1  0  0  0  0
  3  1  1  0  0  0  0
  5 78  1  0  0  0  0
  5 19  1  0  0  0  0
  6 41  1  0  0  0  0
  8 10  1  0  0  0  0
  9  8  1  0  0  0  0
 11  8  1  0  0  0  0
 12 39  1  0  0  0  0
 13 16  1  0  0  0  0
 13 12  1  0  0  0  0
 14 13  1  0  0  0  0
 15 13  1  0  0  0  0
 16 17  1  0  0  0  0
 16  5  1  0  0  0  0
 18 16  1  0  0  0  0
 19 21  1  0  0  0  0
 19 25  1  0  0  0  0
 20 19  1  0  0  0  0
 21 24  1  0  0  0  0
 21 22  1  0  0  0  0
 23 21  1  0  0  0  0
 25 28  1  0  0  0  0
 25 27  1  0  0  0  0
 26 25  1  0  0  0  0
 29  5  1  0  0  0  0
 29 30  1  0  0  0  0
 31 33  1  0  0  0  0
 31 29  1  0  0  0  0
 32 31  1  0  0  0  0
 34 31  1  0  0  0  0
 35 29  1  0  0  0  0
 35 38  1  0  0  0  0
 36 35  1  0  0  0  0
 37 35  1  0  0  0  0
 39 40  2  0  0  0  0
 40  6  1  0  0  0  0
 40 46  1  0  0  0  0
 41 42  2  0  0  0  0
 42 43  1  0  0  0  0
 44 42  1  0  0  0  0
 44 45  1  0  0  0  0
 46 44  2  0  0  0  0
 47 46  1  0  0  0  0
 48  7  1  6  0  0  0
 48 41  1  0  0  0  0
 48  8  1  0  0  0  0
 49  7  1  0  0  0  0
 49 67  1  0  0  0  0
 50 49  2  0  0  0  0
 51 52  1  0  0  0  0
 51 57  1  0  0  0  0
 51 50  1  0  0  0  0
 53 51  1  0  0  0  0
 54 53  1  0  0  0  0
 55 53  1  0  0  0  0
 56 53  1  0  0  0  0
 57 58  1  0  0  0  0
 59 57  1  0  0  0  0
 60 57  1  0  0  0  0
 61 50  1  0  0  0  0
 61 63  2  0  0  0  0
 62 61  1  0  0  0  0
 63 65  1  0  0  0  0
 64 63  1  0  0  0  0
 65 67  2  0  0  0  0
 65 66  1  0  0  0  0
 67 68  1  0  0  0  0
 68 69  1  0  0  0  0
 68 74  1  0  0  0  0
 70 68  1  0  0  0  0
 70 71  1  0  0  0  0
 72 70  1  0  0  0  0
 73 70  1  0  0  0  0
 74 75  1  0  0  0  0
 74 77  1  0  0  0  0
 76 74  1  0  0  0  0
M  CHG  1   5   1
M  END
