1,2,3
 OpenBabel05122313063D

 63 67  0  0  0  0  0  0  0  0999 V2000
   -2.1627   -2.1010   -0.8303 N   0  0  0  0  0  2  0  0  0  0  0  0
   -2.5723    1.4841    0.6247 N   0  0  0  0  0  2  0  0  0  0  0  0
   -1.4868   -0.9077    1.6405 N   0  0  0  0  0  0  0  0  0  0  0  0
    3.8138    0.5569    0.2887 N   0  0  0  0  0  0  0  0  0  0  0  0
    3.8538    4.2221   -0.2878 N   0  0  0  0  0  0  0  0  0  0  0  0
    5.7548   -2.3803   -0.8388 N   0  0  0  0  0  0  0  0  0  0  0  0
   -2.2322   -2.5467   -2.0979 C   0  0  0  0  0  3  0  0  0  0  0  0
   -2.4056   -1.7781   -2.8647 H   0  0  0  0  0  0  0  0  0  0  0  0
   -2.0650   -3.8987   -2.4138 C   0  0  0  0  0  0  0  0  0  0  0  0
   -2.1244   -4.2337   -3.4612 H   0  0  0  0  0  0  0  0  0  0  0  0
   -1.8332   -4.7886   -1.3450 C   0  0  0  0  0  0  0  0  0  0  0  0
   -1.7260   -5.8693   -1.5476 H   0  0  0  0  0  0  0  0  0  0  0  0
   -1.7510   -4.2793   -0.0563 C   0  0  0  0  0  3  0  0  0  0  0  0
   -1.9077   -2.9330    0.2198 C   0  0  0  0  0  0  0  0  0  0  0  0
   -1.8789   -2.3221    1.6108 C   0  0  0  0  0  0  0  0  0  0  0  0
   -2.9161   -2.3859    1.9990 H   0  0  0  0  0  0  0  0  0  0  0  0
   -1.2313   -2.9480    2.2603 H   0  0  0  0  0  0  0  0  0  0  0  0
   -2.7821    2.6860    0.0591 C   0  0  0  0  0  3  0  0  0  0  0  0
   -2.7930    2.6984   -1.0419 H   0  0  0  0  0  0  0  0  0  0  0  0
   -2.9491    3.8403    0.8304 C   0  0  0  0  0  0  0  0  0  0  0  0
   -3.1225    4.8075    0.3383 H   0  0  0  0  0  0  0  0  0  0  0  0
   -2.8834    3.7295    2.2273 C   0  0  0  0  0  0  0  0  0  0  0  0
   -3.0093    4.6168    2.8657 H   0  0  0  0  0  0  0  0  0  0  0  0
   -2.6390    2.4756    2.8013 C   0  0  0  0  0  0  0  0  0  0  0  0
   -2.5571    2.3548    3.8915 H   0  0  0  0  0  0  0  0  0  0  0  0
   -2.4851    1.3573    1.9662 C   0  0  0  0  0  0  0  0  0  0  0  0
   -2.2784   -0.0399    2.5153 C   0  0  0  0  0  0  0  0  0  0  0  0
   -1.8572    0.0210    3.5456 H   0  0  0  0  0  0  0  0  0  0  0  0
   -3.2927   -0.4902    2.5770 H   0  0  0  0  0  0  0  0  0  0  0  0
   -0.1063   -0.6102    1.4737 C   0  0  0  0  0  0  0  0  0  0  0  0
    0.7642   -1.5176    0.8270 C   0  0  0  0  0  0  0  0  0  0  0  0
    0.4218   -2.5211    0.5447 H   0  0  0  0  0  0  0  0  0  0  0  0
    2.0679   -1.1577    0.4847 C   0  0  0  0  0  0  0  0  0  0  0  0
    2.6877   -1.9003   -0.0333 H   0  0  0  0  0  0  0  0  0  0  0  0
    2.5751    0.1375    0.7670 C   0  0  0  0  0  0  0  0  0  0  0  0
    1.7428    0.9969    1.5283 C   0  0  0  0  0  0  0  0  0  0  0  0
    2.0918    1.9939    1.8246 H   0  0  0  0  0  0  0  0  0  0  0  0
    0.4413    0.6301    1.8716 C   0  0  0  0  0  0  0  0  0  0  0  0
   -0.1567    1.3579    2.4321 H   0  0  0  0  0  0  0  0  0  0  0  0
    4.2149    1.9423    0.4290 C   0  0  0  0  0  0  0  0  0  0  0  0
    5.2909    2.0273    0.1776 H   0  0  0  0  0  0  0  0  0  0  0  0
    4.1457    2.2707    1.4896 H   0  0  0  0  0  0  0  0  0  0  0  0
    3.4447    2.9467   -0.4254 C   0  0  0  0  0  0  0  0  0  0  0  0
    2.3834    2.5717   -1.2702 C   0  0  0  0  0  0  0  0  0  0  0  0
    2.0494    1.5275   -1.3471 H   0  0  0  0  0  0  0  0  0  0  0  0
    1.7164    3.5726   -1.9908 C   0  0  0  0  0  0  0  0  0  0  0  0
    0.8633    3.3007   -2.6313 H   0  0  0  0  0  0  0  0  0  0  0  0
    2.1430    4.9011   -1.8586 C   0  0  0  0  0  0  0  0  0  0  0  0
    1.6520    5.7193   -2.4066 H   0  0  0  0  0  0  0  0  0  0  0  0
    3.2197    5.1679   -0.9957 C   0  0  0  0  0  0  0  0  0  0  0  0
    3.5851    6.2031   -0.8663 H   0  0  0  0  0  0  0  0  0  0  0  0
    4.5498   -0.2888   -0.6301 C   0  0  0  0  0  0  0  0  0  0  0  0
    5.2864    0.3405   -1.1703 H   0  0  0  0  0  0  0  0  0  0  0  0
    3.8908   -0.7121   -1.4212 H   0  0  0  0  0  0  0  0  0  0  0  0
    5.3028   -1.4443    0.0159 C   0  0  0  0  0  0  0  0  0  0  0  0
    5.5206   -1.5101    1.4044 C   0  0  0  0  0  0  0  0  0  0  0  0
    5.1155   -0.7242    2.0578 H   0  0  0  0  0  0  0  0  0  0  0  0
    6.2441   -2.5948    1.9184 C   0  0  0  0  0  0  0  0  0  0  0  0
    6.4286   -2.6793    3.0005 H   0  0  0  0  0  0  0  0  0  0  0  0
    6.7237   -3.5697    1.0322 C   0  0  0  0  0  0  0  0  0  0  0  0
    7.2942   -4.4394    1.3904 H   0  0  0  0  0  0  0  0  0  0  0  0
    6.4497   -3.4111   -0.3365 C   0  0  0  0  0  0  0  0  0  0  0  0
    6.8076   -4.1611   -1.0650 H   0  0  0  0  0  0  0  0  0  0  0  0
  1 14  1  0  0  0  0
  2 26  1  0  0  0  0
  3 27  1  0  0  0  0
  4 40  1  0  0  0  0
  4 35  1  0  0  0  0
  6 62  2  0  0  0  0
  6 55  1  0  0  0  0
  7  1  1  0  0  0  0
  8  7  1  0  0  0  0
  9  7  1  0  0  0  0
  9 11  2  0  0  0  0
 10  9  1  0  0  0  0
 11 13  1  0  0  0  0
 12 11  1  0  0  0  0
 13 14  2  0  0  0  0
 14 15  1  0  0  0  0
 15  3  1  0  0  0  0
 15 16  1  0  0  0  0
 15 17  1  0  0  0  0
 18  2  1  0  0  0  0
 18 20  1  0  0  0  0
 19 18  1  0  0  0  0
 20 22  2  0  0  0  0
 21 20  1  0  0  0  0
 22 24  1  0  0  0  0
 22 23  1  0  0  0  0
 24 25  1  0  0  0  0
 26 27  1  0  0  0  0
 26 24  2  0  0  0  0
 27 29  1  0  0  0  0
 27 28  1  0  0  0  0
 30  3  1  0  0  0  0
 30 38  1  0  0  0  0
 31 30  2  0  0  0  0
 32 31  1  0  0  0  0
 33 35  2  0  0  0  0
 33 31  1  0  0  0  0
 34 33  1  0  0  0  0
 35 36  1  0  0  0  0
 36 37  1  0  0  0  0
 36 38  2  0  0  0  0
 38 39  1  0  0  0  0
 40 42  1  0  0  0  0
 41 40  1  0  0  0  0
 43  5  1  0  0  0  0
 43 40  1  0  0  0  0
 44 43  2  0  0  0  0
 45 44  1  0  0  0  0
 46 48  2  0  0  0  0
 46 44  1  0  0  0  0
 47 46  1  0  0  0  0
 48 50  1  0  0  0  0
 49 48  1  0  0  0  0
 50 51  1  0  0  0  0
 50  5  2  0  0  0  0
 52 55  1  0  0  0  0
 52  4  1  0  0  0  0
 53 52  1  0  0  0  0
 54 52  1  0  0  0  0
 55 56  2  0  0  0  0
 56 58  1  0  0  0  0
 56 57  1  0  0  0  0
 58 59  1  0  0  0  0
 60 61  1  0  0  0  0
 60 58  2  0  0  0  0
 62 60  1  0  0  0  0
 63 62  1  0  0  0  0
M  END
