4,5,6
 OpenBabel05122313063D

 51 53  0  0  0  0  0  0  0  0999 V2000
   -2.4524   -2.6378   -0.6452 O   0  0  0  0  0  0  0  0  0  0  0  0
   -5.9560    1.6773    0.0269 O   0  0  0  0  0  0  0  0  0  0  0  0
   -5.8761   -0.2853   -0.9531 O   0  0  0  0  0  0  0  0  0  0  0  0
    1.6056    2.1169   -0.2075 N   0  0  0  0  0  0  0  0  0  0  0  0
    3.6652    0.2576   -0.9171 N   0  0  0  0  0  0  0  0  0  0  0  0
    2.2812   -1.7686    0.5724 N   0  0  0  0  0  0  0  0  0  0  0  0
    0.1367    0.1259    1.4503 N   0  0  0  0  0  0  0  0  0  0  0  0
   -1.4339   -2.0429    0.0284 N   0  0  0  0  0  0  0  0  0  0  0  0
   -3.5687   -1.8686   -0.7421 N   0  0  0  0  0  0  0  0  0  0  0  0
   -5.4001    0.6267   -0.2870 N   0  0  0  0  0  0  0  0  0  0  0  0
    3.0338    2.4660   -0.0369 C   0  0  0  0  0  0  0  0  0  0  0  0
    3.9267    1.7028   -1.0152 C   0  0  0  0  0  0  0  0  0  0  0  0
    4.3615   -0.4425    0.1738 C   0  0  0  0  0  0  0  0  0  0  0  0
    3.7493   -1.8268    0.3493 C   0  0  0  0  0  0  0  0  0  0  0  0
    1.9584   -1.5337    1.9964 C   0  0  0  0  0  0  0  0  0  0  0  0
    0.5118   -1.0947    2.2197 C   0  0  0  0  0  0  0  0  0  0  0  0
    0.7306    1.3574    2.0082 C   0  0  0  0  0  0  0  0  0  0  0  0
    0.8110    2.4896    0.9843 C   0  0  0  0  0  0  0  0  0  0  0  0
    1.0372    2.7301   -1.4317 C   0  0  0  0  0  0  0  0  0  0  0  0
    1.6471   -3.0080    0.0569 C   0  0  0  0  0  0  0  0  0  0  0  0
   -1.2494    0.2128    1.1108 C   0  0  0  0  0  0  0  0  0  0  0  0
   -2.0602    1.3084    1.4052 C   0  0  0  0  0  0  0  0  0  0  0  0
   -3.4072    1.4214    0.9459 C   0  0  0  0  0  0  0  0  0  0  0  0
   -4.0090    0.4410    0.1869 C   0  0  0  0  0  0  0  0  0  0  0  0
   -3.2585   -0.7394   -0.1010 C   0  0  0  0  0  0  0  0  0  0  0  0
   -1.8965   -0.8469    0.3788 C   0  0  0  0  0  0  0  0  0  0  0  0
    3.8707   -0.2009   -1.8151 H   0  0  0  0  0  0  0  0  0  0  0  0
    3.3245    2.2189    1.0055 H   0  0  0  0  0  0  0  0  0  0  0  0
    3.1909    3.5620   -0.1584 H   0  0  0  0  0  0  0  0  0  0  0  0
    3.7151    2.0175   -2.0555 H   0  0  0  0  0  0  0  0  0  0  0  0
    4.9922    1.9525   -0.8162 H   0  0  0  0  0  0  0  0  0  0  0  0
    5.4555   -0.5338   -0.0080 H   0  0  0  0  0  0  0  0  0  0  0  0
    4.2489    0.1588    1.1004 H   0  0  0  0  0  0  0  0  0  0  0  0
    4.2569   -2.3817    1.1689 H   0  0  0  0  0  0  0  0  0  0  0  0
    3.9164   -2.4122   -0.5773 H   0  0  0  0  0  0  0  0  0  0  0  0
    2.1361   -2.4556    2.5971 H   0  0  0  0  0  0  0  0  0  0  0  0
    2.6628   -0.7702    2.3870 H   0  0  0  0  0  0  0  0  0  0  0  0
    0.3501   -0.9195    3.3064 H   0  0  0  0  0  0  0  0  0  0  0  0
   -0.1737   -1.9061    1.9193 H   0  0  0  0  0  0  0  0  0  0  0  0
    1.7512    1.0996    2.3543 H   0  0  0  0  0  0  0  0  0  0  0  0
    0.1827    1.7007    2.9148 H   0  0  0  0  0  0  0  0  0  0  0  0
   -0.2018    2.7560    0.6338 H   0  0  0  0  0  0  0  0  0  0  0  0
    1.2232    3.3991    1.4746 H   0  0  0  0  0  0  0  0  0  0  0  0
    0.0080    2.3558   -1.5807 H   0  0  0  0  0  0  0  0  0  0  0  0
    1.6131    2.4158   -2.3205 H   0  0  0  0  0  0  0  0  0  0  0  0
    1.0410    3.8402   -1.3627 H   0  0  0  0  0  0  0  0  0  0  0  0
    0.5528   -2.9621    0.1914 H   0  0  0  0  0  0  0  0  0  0  0  0
    2.0634   -3.9033    0.5686 H   0  0  0  0  0  0  0  0  0  0  0  0
    1.8307   -3.0781   -1.0314 H   0  0  0  0  0  0  0  0  0  0  0  0
   -1.6787    2.1359    2.0155 H   0  0  0  0  0  0  0  0  0  0  0  0
   -4.0065    2.3103    1.1891 H   0  0  0  0  0  0  0  0  0  0  0  0
  1  8  1  0  0  0  0
  3 10  2  0  0  0  0
  4 11  1  0  0  0  0
  4 18  1  0  0  0  0
  5 13  1  0  0  0  0
  6 15  1  0  0  0  0
  7 17  1  0  0  0  0
  7 16  1  0  0  0  0
  8 26  2  0  0  0  0
  9  1  1  0  0  0  0
  9 25  2  0  0  0  0
 10  2  2  0  0  0  0
 10 24  1  0  0  0  0
 11 28  1  0  0  0  0
 12  5  1  0  0  0  0
 12 31  1  0  0  0  0
 12 11  1  0  0  0  0
 13 14  1  0  0  0  0
 13 33  1  0  0  0  0
 14  6  1  0  0  0  0
 14 34  1  0  0  0  0
 15 16  1  0  0  0  0
 15 37  1  0  0  0  0
 15 36  1  0  0  0  0
 16 38  1  0  0  0  0
 17 40  1  0  0  0  0
 17 41  1  0  0  0  0
 18 43  1  0  0  0  0
 18 17  1  0  0  0  0
 19 46  1  0  0  0  0
 19  4  1  0  0  0  0
 20 47  1  0  0  0  0
 20 48  1  0  0  0  0
 20  6  1  0  0  0  0
 21 22  2  0  0  0  0
 21  7  1  0  0  0  0
 22 50  1  0  0  0  0
 23 51  1  0  0  0  0
 23 22  1  0  0  0  0
 24 23  2  0  0  0  0
 25 24  1  0  0  0  0
 25 26  1  0  0  0  0
 26 21  1  0  0  0  0
 27  5  1  0  0  0  0
 29 11  1  0  0  0  0
 30 12  1  0  0  0  0
 32 13  1  0  0  0  0
 35 14  1  0  0  0  0
 39 16  1  0  0  0  0
 42 18  1  0  0  0  0
 44 19  1  0  0  0  0
 45 19  1  0  0  0  0
 49 20  1  0  0  0  0
M  END
