1,2,3
 OpenBabel05122313063D

 61 63  0  0  1  0  0  0  0  0999 V2000
    0.0785    2.0350   -0.0844 N   0  0  0  0  0  2  0  0  0  0  0  0
    2.0532    0.4247   -0.0389 N   0  0  0  0  0  2  0  0  0  0  0  0
   -1.9856    0.5472   -0.0849 N   0  0  0  0  0  2  0  0  0  0  0  0
   -1.1029    2.7280   -0.0327 C   0  0  0  0  0  0  0  0  0  0  0  0
   -1.0797    4.1339    0.0492 C   0  0  0  0  0  0  0  0  0  0  0  0
   -2.0219    4.6976    0.0800 H   0  0  0  0  0  0  0  0  0  0  0  0
    0.1581    4.7948    0.1085 C   0  0  0  0  0  0  0  0  0  0  0  0
    0.1901    5.8919    0.1732 H   0  0  0  0  0  0  0  0  0  0  0  0
    1.3550    4.0591    0.1094 C   0  0  0  0  0  0  0  0  0  0  0  0
    2.3272    4.5640    0.1875 H   0  0  0  0  0  0  0  0  0  0  0  0
    1.2955    2.6550    0.0224 C   0  0  0  0  0  0  0  0  0  0  0  0
    2.4045    1.7067    0.0159 C   0  0  1  0  0  3  0  0  0  0  0  0
    3.8172    2.1968    0.0892 C   0  0  0  0  0  0  0  0  0  0  0  0
    4.5340    1.3566    0.1012 H   0  0  0  0  0  0  0  0  0  0  0  0
    3.9574    2.7926    1.0158 H   0  0  0  0  0  0  0  0  0  0  0  0
    4.0599    2.8634   -0.7644 H   0  0  0  0  0  0  0  0  0  0  0  0
   -2.2653    1.8487   -0.0683 C   0  0  0  0  0  0  0  0  0  0  0  0
   -3.6497    2.4182   -0.0591 C   0  0  0  0  0  0  0  0  0  0  0  0
   -4.4123    1.6191   -0.0569 H   0  0  0  0  0  0  0  0  0  0  0  0
   -3.8218    3.0758   -0.9368 H   0  0  0  0  0  0  0  0  0  0  0  0
   -3.7943    3.0433    0.8473 H   0  0  0  0  0  0  0  0  0  0  0  0
    3.0208   -0.5985   -0.3020 C   0  0  0  0  0  0  0  0  0  0  0  0
    3.3082   -1.5741    0.6907 C   0  0  0  0  0  0  0  0  0  0  0  0
    4.1869   -2.6217    0.3573 C   0  0  0  0  0  0  0  0  0  0  0  0
    4.4176   -3.3750    1.1274 H   0  0  0  0  0  0  0  0  0  0  0  0
    4.7652   -2.7163   -0.9138 C   0  0  0  0  0  0  0  0  0  0  0  0
    5.4396   -3.5514   -1.1572 H   0  0  0  0  0  0  0  0  0  0  0  0
    4.4838   -1.7360   -1.8717 C   0  0  0  0  0  0  0  0  0  0  0  0
    4.9358   -1.7988   -2.8739 H   0  0  0  0  0  0  0  0  0  0  0  0
    3.6210   -0.6588   -1.5929 C   0  0  0  0  0  0  0  0  0  0  0  0
    3.3653    0.3807   -2.6543 C   0  0  0  0  0  0  0  0  0  0  0  0
    2.2941    0.6569   -2.6951 H   0  0  0  0  0  0  0  0  0  0  0  0
    3.6552   -0.0094   -3.6486 H   0  0  0  0  0  0  0  0  0  0  0  0
    3.9626    1.3010   -2.4806 H   0  0  0  0  0  0  0  0  0  0  0  0
    2.7729   -1.4752    2.0982 C   0  0  0  0  0  0  0  0  0  0  0  0
    1.6917   -1.2320    2.0876 H   0  0  0  0  0  0  0  0  0  0  0  0
    2.8842   -2.4674    2.5835 H   0  0  0  0  0  0  0  0  0  0  0  0
    3.4817   -0.4103    2.9476 C   0  0  0  0  0  0  0  0  0  0  0  0
    3.0755   -0.4042    3.9787 H   0  0  0  0  0  0  0  0  0  0  0  0
    3.3124    0.6030    2.5335 H   0  0  0  0  0  0  0  0  0  0  0  0
    4.5757   -0.5885    3.0011 H   0  0  0  0  0  0  0  0  0  0  0  0
   -2.9989   -0.4358   -0.3337 C   0  0  0  0  0  0  0  0  0  0  0  0
   -3.3690   -1.3481    0.6921 C   0  0  0  0  0  0  0  0  0  0  0  0
   -4.2635   -2.3860    0.3666 C   0  0  0  0  0  0  0  0  0  0  0  0
   -4.5587   -3.0893    1.1619 H   0  0  0  0  0  0  0  0  0  0  0  0
   -4.7843   -2.5267   -0.9256 C   0  0  0  0  0  0  0  0  0  0  0  0
   -5.4729   -3.3523   -1.1612 H   0  0  0  0  0  0  0  0  0  0  0  0
   -4.4345   -1.5975   -1.9116 C   0  0  0  0  0  0  0  0  0  0  0  0
   -4.8482   -1.6901   -2.9278 H   0  0  0  0  0  0  0  0  0  0  0  0
   -3.5507   -0.5345   -1.6432 C   0  0  0  0  0  0  0  0  0  0  0  0
   -3.2253    0.4555   -2.7318 C   0  0  0  0  0  0  0  0  0  0  0  0
   -3.5148    0.0488   -3.7194 H   0  0  0  0  0  0  0  0  0  0  0  0
   -2.1413    0.6799   -2.7578 H   0  0  0  0  0  0  0  0  0  0  0  0
   -3.7805    1.4079   -2.5964 H   0  0  0  0  0  0  0  0  0  0  0  0
   -2.9017   -1.1940    2.1190 C   0  0  0  0  0  0  0  0  0  0  0  0
   -1.8091   -1.0090    2.1548 H   0  0  0  0  0  0  0  0  0  0  0  0
   -3.0924   -2.1489    2.6525 H   0  0  0  0  0  0  0  0  0  0  0  0
   -3.5912   -0.0465    2.8709 C   0  0  0  0  0  0  0  0  0  0  0  0
   -3.2433   -0.0104    3.9225 H   0  0  0  0  0  0  0  0  0  0  0  0
   -4.6954   -0.1570    2.8699 H   0  0  0  0  0  0  0  0  0  0  0  0
   -3.3382    0.9321    2.4182 H   0  0  0  0  0  0  0  0  0  0  0  0
  1  4  1  0  0  0  0
  1 11  1  0  0  0  0
  3 17  1  0  0  0  0
  4  5  1  0  0  0  0
  5  6  1  0  0  0  0
  5  7  2  0  0  0  0
  7  9  1  0  0  0  0
  7  8  1  0  0  0  0
  9 10  1  0  0  0  0
 11  9  2  0  0  0  0
 12  2  1  1  0  0  0
 12 11  1  0  0  0  0
 12 13  1  0  0  0  0
 13 14  1  0  0  0  0
 13 15  1  0  0  0  0
 16 13  1  0  0  0  0
 17 18  1  0  0  0  0
 17  4  2  0  0  0  0
 18 19  1  0  0  0  0
 18 21  1  0  0  0  0
 20 18  1  0  0  0  0
 22  2  1  0  0  0  0
 22 23  1  0  0  0  0
 23 35  1  0  0  0  0
 24 23  2  0  0  0  0
 24 25  1  0  0  0  0
 26 24  1  0  0  0  0
 27 26  1  0  0  0  0
 28 30  1  0  0  0  0
 28 26  2  0  0  0  0
 29 28  1  0  0  0  0
 30 22  2  0  0  0  0
 31 34  1  0  0  0  0
 31 30  1  0  0  0  0
 32 31  1  0  0  0  0
 33 31  1  0  0  0  0
 35 37  1  0  0  0  0
 35 38  1  0  0  0  0
 36 35  1  0  0  0  0
 38 41  1  0  0  0  0
 38 39  1  0  0  0  0
 40 38  1  0  0  0  0
 42  3  1  0  0  0  0
 42 43  1  0  0  0  0
 43 55  1  0  0  0  0
 44 43  2  0  0  0  0
 44 45  1  0  0  0  0
 46 44  1  0  0  0  0
 47 46  1  0  0  0  0
 48 50  1  0  0  0  0
 48 46  2  0  0  0  0
 49 48  1  0  0  0  0
 50 42  2  0  0  0  0
 51 54  1  0  0  0  0
 51 50  1  0  0  0  0
 52 51  1  0  0  0  0
 53 51  1  0  0  0  0
 55 56  1  0  0  0  0
 55 57  1  0  0  0  0
 55 58  1  0  0  0  0
 58 59  1  0  0  0  0
 60 58  1  0  0  0  0
 61 58  1  0  0  0  0
M  END
