2,4,5
 OpenBabel05122313063D

 21 21  0  0  0  0  0  0  0  0999 V2000
   -3.6801   -3.5848   -1.5994 N   0  0  0  0  0  0  0  0  0  0  0  0
   -0.9377   -1.5238   -0.9938 N   0  0  0  0  0  2  0  0  0  0  0  0
   -0.6290   -2.0309   -1.8295 H   0  0  0  0  0  0  0  0  0  0  0  0
   -1.5354   -0.2196    1.1042 N   0  0  0  0  0  2  0  0  0  0  0  0
    0.6057    1.1779    1.2513 N   0  0  0  0  0  2  0  0  0  0  0  0
   -0.3188    1.4042    2.2460 C   0  0  0  0  0  0  0  0  0  0  0  0
   -0.0571    2.3475    3.2595 C   0  0  0  0  0  0  0  0  0  0  0  0
   -0.8063    2.5160    4.0461 H   0  0  0  0  0  0  0  0  0  0  0  0
    1.1552    3.0465    3.2455 C   0  0  0  0  0  0  0  0  0  0  0  0
    1.3771    3.7833    4.0316 H   0  0  0  0  0  0  0  0  0  0  0  0
    2.0841    2.7962    2.2227 C   0  0  0  0  0  0  0  0  0  0  0  0
    3.0483    3.3210    2.1792 H   0  0  0  0  0  0  0  0  0  0  0  0
    1.7682    1.8483    1.2390 C   0  0  0  0  0  0  0  0  0  0  0  0
    2.4664    1.6183    0.4207 H   0  0  0  0  0  0  0  0  0  0  0  0
   -1.5158    0.6052    2.1379 C   0  0  0  0  0  0  0  0  0  0  0  0
   -2.3519    0.6640    2.8539 H   0  0  0  0  0  0  0  0  0  0  0  0
   -2.5081   -1.1021    0.7014 C   0  0  0  0  0  0  0  0  0  0  0  0
   -3.7288   -1.2318    1.4091 C   0  0  0  0  0  0  0  0  0  0  0  0
   -2.9916   -2.7877   -1.0832 C   0  0  0  0  0  0  0  0  0  0  0  0
   -2.1274   -1.8129   -0.4798 C   0  0  0  0  0  0  0  0  0  0  0  0
   -4.7168   -1.2737    2.0464 N   0  0  0  0  0  0  0  0  0  0  0  0
  1 19  3  0  0  0  0
  2 20  1  0  0  0  0
  3  2  1  0  0  0  0
  4 15  1  0  0  0  0
  5  6  1  0  0  0  0
  6  7  1  0  0  0  0
  7  8  1  0  0  0  0
  9  7  2  0  0  0  0
  9 10  1  0  0  0  0
 11  9  1  0  0  0  0
 12 11  1  0  0  0  0
 13  5  1  0  0  0  0
 13 11  2  0  0  0  0
 14 13  1  0  0  0  0
 15  6  2  0  0  0  0
 15 16  1  0  0  0  0
 17  4  1  0  0  0  0
 17 18  1  0  0  0  0
 18 21  3  0  0  0  0
 19 20  1  0  0  0  0
 20 17  2  0  0  0  0
M  END
