1,2,3
 OpenBabel05122313063D

 21 21  0  0  0  0  0  0  0  0999 V2000
   -0.6056    1.1783   -1.2511 N   0  0  0  0  0  2  0  0  0  0  0  0
    1.5354   -0.2194   -1.1043 N   0  0  0  0  0  2  0  0  0  0  0  0
    0.9375   -1.5241    0.9934 N   0  0  0  0  0  2  0  0  0  0  0  0
    0.6286   -2.0317    1.8287 H   0  0  0  0  0  0  0  0  0  0  0  0
    3.6795   -3.5858    1.5983 N   0  0  0  0  0  0  0  0  0  0  0  0
    4.7168   -1.2734   -2.0466 N   0  0  0  0  0  0  0  0  0  0  0  0
   -1.7680    1.8488   -1.2385 C   0  0  0  0  0  3  0  0  0  0  0  0
   -2.4663    1.6186   -0.4203 H   0  0  0  0  0  0  0  0  0  0  0  0
   -2.0837    2.7971   -2.2219 C   0  0  0  0  0  0  0  0  0  0  0  0
   -3.0479    3.3220   -2.1783 H   0  0  0  0  0  0  0  0  0  0  0  0
   -1.1548    3.0477   -3.2446 C   0  0  0  0  0  0  0  0  0  0  0  0
   -1.3766    3.7847   -4.0304 H   0  0  0  0  0  0  0  0  0  0  0  0
    0.0575    2.3485   -3.2588 C   0  0  0  0  0  0  0  0  0  0  0  0
    0.8067    2.5172   -4.0453 H   0  0  0  0  0  0  0  0  0  0  0  0
    0.3190    1.4049   -2.2456 C   0  0  0  0  0  0  0  0  0  0  0  0
    1.5159    0.6057   -2.1378 C   0  0  0  0  0  3  0  0  0  0  0  0
    2.3520    0.6647   -2.8537 H   0  0  0  0  0  0  0  0  0  0  0  0
    2.5080   -1.1021   -0.7017 C   0  0  0  0  0  0  0  0  0  0  0  0
    2.1272   -1.8132    0.4793 C   0  0  0  0  0  0  0  0  0  0  0  0
    2.9912   -2.7884    1.0823 C   0  0  0  0  0  0  0  0  0  0  0  0
    3.7288   -1.2317   -1.4092 C   0  0  0  0  0  0  0  0  0  0  0  0
  1  7  1  0  0  0  0
  2 18  1  0  0  0  0
  3  4  1  0  0  0  0
  6 21  3  0  0  0  0
  7  8  1  0  0  0  0
  9 10  1  0  0  0  0
  9  7  1  0  0  0  0
 11  9  2  0  0  0  0
 12 11  1  0  0  0  0
 13 11  1  0  0  0  0
 13 15  2  0  0  0  0
 14 13  1  0  0  0  0
 15 16  1  0  0  0  0
 15  1  1  0  0  0  0
 16  2  1  0  0  0  0
 17 16  1  0  0  0  0
 18 19  2  0  0  0  0
 19  3  1  0  0  0  0
 19 20  1  0  0  0  0
 20  5  3  0  0  0  0
 21 18  1  0  0  0  0
M  END
