2,3,4
 OpenBabel05122313063D

 59 59  0  0  0  0  0  0  0  0999 V2000
   -1.8886   -0.8469    2.4485 O   0  0  0  0  0  0  0  0  0  0  0  0
    1.1954   -1.1771    0.1376 N   0  0  0  0  0  2  0  0  0  0  0  0
    0.4509   -0.0267    2.3450 N   0  0  0  0  0  2  0  0  0  0  0  0
   -1.8963   -1.5590   -0.0389 N   0  0  0  0  0  2  0  0  0  0  0  0
    1.7531   -2.8644   -0.0308 Si  0  0  0  0  0  0  0  0  0  0  0  0
   -2.1379   -1.7308   -1.8014 Si  0  0  0  0  0  0  0  0  0  0  0  0
    2.0306   -0.1468    0.6262 C   0  0  0  0  0  0  0  0  0  0  0  0
    1.5919    0.5145    1.7976 C   0  0  0  0  0  0  0  0  0  0  0  0
    3.2501    0.1984   -0.1302 C   0  0  0  0  0  0  0  0  0  0  0  0
    3.3044   -0.0387   -1.5267 C   0  0  0  0  0  0  0  0  0  0  0  0
    4.4561    0.2426   -2.2711 C   0  0  0  0  0  0  0  0  0  0  0  0
    5.5986    0.7631   -1.6404 C   0  0  0  0  0  0  0  0  0  0  0  0
    5.5746    0.9782   -0.2527 C   0  0  0  0  0  0  0  0  0  0  0  0
    4.4228    0.6934    0.4929 C   0  0  0  0  0  0  0  0  0  0  0  0
    2.1464    1.8041    2.3396 C   0  0  0  0  0  0  0  0  0  0  0  0
   -1.2957   -0.6667    3.7433 C   0  0  0  0  0  0  0  0  0  0  0  0
   -0.2106    0.3877    3.5495 C   0  0  0  0  0  0  0  0  0  0  0  0
   -2.5651   -2.0931    2.2384 C   0  0  0  0  0  0  0  0  0  0  0  0
   -2.9842   -2.0804    0.7771 C   0  0  0  0  0  0  0  0  0  0  0  0
    3.3932   -3.0443    0.8887 C   0  0  0  0  0  0  0  0  0  0  0  0
    1.9828   -3.3570   -1.8446 C   0  0  0  0  0  0  0  0  0  0  0  0
    0.4710   -4.0055    0.7655 C   0  0  0  0  0  0  0  0  0  0  0  0
   -0.8556   -0.7102   -2.7355 C   0  0  0  0  0  0  0  0  0  0  0  0
   -1.9856   -3.5627   -2.2757 C   0  0  0  0  0  0  0  0  0  0  0  0
   -3.8732   -1.1490   -2.2767 C   0  0  0  0  0  0  0  0  0  0  0  0
    2.4116   -0.4400   -2.0263 H   0  0  0  0  0  0  0  0  0  0  0  0
    4.4604    0.0572   -3.3565 H   0  0  0  0  0  0  0  0  0  0  0  0
    6.5052    0.9857   -2.2231 H   0  0  0  0  0  0  0  0  0  0  0  0
    6.4718    1.3570    0.2609 H   0  0  0  0  0  0  0  0  0  0  0  0
    4.4474    0.8176    1.5838 H   0  0  0  0  0  0  0  0  0  0  0  0
    2.7604    2.3321    1.5879 H   0  0  0  0  0  0  0  0  0  0  0  0
    2.7667    1.6415    3.2473 H   0  0  0  0  0  0  0  0  0  0  0  0
    1.3167    2.4833    2.6211 H   0  0  0  0  0  0  0  0  0  0  0  0
   -0.8380   -1.6296    4.0640 H   0  0  0  0  0  0  0  0  0  0  0  0
   -2.0745   -0.3675    4.4787 H   0  0  0  0  0  0  0  0  0  0  0  0
    0.4590    0.4015    4.4409 H   0  0  0  0  0  0  0  0  0  0  0  0
   -0.6694    1.4044    3.4717 H   0  0  0  0  0  0  0  0  0  0  0  0
   -1.8530   -2.9234    2.4515 H   0  0  0  0  0  0  0  0  0  0  0  0
   -3.4366   -2.1791    2.9253 H   0  0  0  0  0  0  0  0  0  0  0  0
   -3.2805   -3.1208    0.4980 H   0  0  0  0  0  0  0  0  0  0  0  0
   -3.9038   -1.4566    0.6672 H   0  0  0  0  0  0  0  0  0  0  0  0
    3.7176   -4.1055    0.8989 H   0  0  0  0  0  0  0  0  0  0  0  0
    4.1928   -2.4405    0.4158 H   0  0  0  0  0  0  0  0  0  0  0  0
    3.2862   -2.7043    1.9392 H   0  0  0  0  0  0  0  0  0  0  0  0
    2.1416   -4.4525   -1.9274 H   0  0  0  0  0  0  0  0  0  0  0  0
    2.8664   -2.8503   -2.2813 H   0  0  0  0  0  0  0  0  0  0  0  0
    1.0994   -3.0957   -2.4601 H   0  0  0  0  0  0  0  0  0  0  0  0
    0.7513   -5.0705    0.6280 H   0  0  0  0  0  0  0  0  0  0  0  0
    0.4070   -3.8021    1.8544 H   0  0  0  0  0  0  0  0  0  0  0  0
   -0.5301   -3.8386    0.3236 H   0  0  0  0  0  0  0  0  0  0  0  0
   -0.9013   -0.9609   -3.8155 H   0  0  0  0  0  0  0  0  0  0  0  0
    0.1703   -0.9111   -2.3707 H   0  0  0  0  0  0  0  0  0  0  0  0
   -1.0591    0.3723   -2.6194 H   0  0  0  0  0  0  0  0  0  0  0  0
   -2.2186   -3.7014   -3.3521 H   0  0  0  0  0  0  0  0  0  0  0  0
   -0.9670   -3.9579   -2.0931 H   0  0  0  0  0  0  0  0  0  0  0  0
   -2.6995   -4.1886   -1.7011 H   0  0  0  0  0  0  0  0  0  0  0  0
   -4.0076   -1.2279   -3.3757 H   0  0  0  0  0  0  0  0  0  0  0  0
   -4.6627   -1.7660   -1.8010 H   0  0  0  0  0  0  0  0  0  0  0  0
   -4.0369   -0.0928   -1.9839 H   0  0  0  0  0  0  0  0  0  0  0  0
  1 16  1  0  0  0  0
  2  7  1  0  0  0  0
  3 17  1  0  0  0  0
  4 19  1  0  0  0  0
  5  2  1  0  0  0  0
  5 22  1  0  0  0  0
  5 20  1  0  0  0  0
  6  4  1  0  0  0  0
  7  8  2  0  0  0  0
  8 15  1  0  0  0  0
  8  3  1  0  0  0  0
  9 14  1  0  0  0  0
  9  7  1  0  0  0  0
 10  9  2  0  0  0  0
 11 12  2  0  0  0  0
 11 10  1  0  0  0  0
 12 13  1  0  0  0  0
 13 29  1  0  0  0  0
 13 14  2  0  0  0  0
 14 30  1  0  0  0  0
 15 33  1  0  0  0  0
 15 32  1  0  0  0  0
 16 34  1  0  0  0  0
 16 35  1  0  0  0  0
 17 16  1  0  0  0  0
 17 36  1  0  0  0  0
 18  1  1  0  0  0  0
 18 38  1  0  0  0  0
 18 39  1  0  0  0  0
 19 18  1  0  0  0  0
 20 42  1  0  0  0  0
 20 44  1  0  0  0  0
 21  5  1  0  0  0  0
 22 49  1  0  0  0  0
 23 53  1  0  0  0  0
 23 52  1  0  0  0  0
 23  6  1  0  0  0  0
 24 55  1  0  0  0  0
 24  6  1  0  0  0  0
 24 56  1  0  0  0  0
 25 59  1  0  0  0  0
 25  6  1  0  0  0  0
 25 58  1  0  0  0  0
 26 10  1  0  0  0  0
 27 11  1  0  0  0  0
 28 12  1  0  0  0  0
 31 15  1  0  0  0  0
 37 17  1  0  0  0  0
 40 19  1  0  0  0  0
 41 19  1  0  0  0  0
 43 20  1  0  0  0  0
 45 21  1  0  0  0  0
 46 21  1  0  0  0  0
 47 21  1  0  0  0  0
 48 22  1  0  0  0  0
 50 22  1  0  0  0  0
 51 23  1  0  0  0  0
 54 24  1  0  0  0  0
 57 25  1  0  0  0  0
M  END
