3,9,15
 OpenBabel05122313063D

 45 48  0  0  1  0  0  0  0  0999 V2000
    2.6342   -0.0623    0.2931 B   0  0  1  0  0  0  0  0  0  0  0  0
    2.2789   -1.2825   -0.6047 N   0  0  0  0  0  0  0  0  0  0  0  0
    0.9740   -1.4500   -0.9471 N   0  0  0  0  0  2  0  0  0  0  0  0
    0.8976   -2.5688   -1.6937 C   0  0  2  0  0  3  0  0  0  0  0  0
   -0.4124   -3.0586   -2.2291 C   0  0  0  0  0  0  0  0  0  0  0  0
    2.1884   -3.1383   -1.8294 C   0  0  0  0  0  0  0  0  0  0  0  0
    3.0387   -2.2860   -1.1241 C   0  0  0  0  0  0  0  0  0  0  0  0
    2.5078    1.2636   -0.5253 N   0  0  0  0  0  0  0  0  0  0  0  0
    1.3925    1.6055   -1.2178 N   0  0  0  0  0  2  0  0  0  0  0  0
    1.6354    2.7740   -1.8412 C   0  0  1  0  0  3  0  0  0  0  0  0
    0.5826    3.4366   -2.6715 C   0  0  0  0  0  0  0  0  0  0  0  0
    2.9565    3.1949   -1.5485 C   0  0  0  0  0  0  0  0  0  0  0  0
    3.4729    2.2068   -0.7123 C   0  0  0  0  0  0  0  0  0  0  0  0
    1.6443   -0.0761    1.4961 N   0  0  0  0  0  0  0  0  0  0  0  0
    0.4869    0.6331    1.5057 N   0  0  0  0  0  2  0  0  0  0  0  0
   -0.1926    0.2575    2.6094 C   0  0  0  0  0  0  0  0  0  0  0  0
   -1.5235    0.8578    2.9401 C   0  0  0  0  0  0  0  0  0  0  0  0
    0.5398   -0.7336    3.3166 C   0  0  0  0  0  0  0  0  0  0  0  0
    1.6981   -0.9222    2.5648 C   0  0  0  0  0  3  0  0  0  0  0  0
    4.0633   -0.1271    0.8543 N   0  0  0  0  0  0  0  0  0  0  0  0
    5.1112   -0.5469    0.0957 N   0  0  0  0  0  0  0  0  0  0  0  0
    6.2244   -0.2366    0.7782 C   0  0  0  0  0  0  0  0  0  0  0  0
    7.5760   -0.5943    0.2410 C   0  0  0  0  0  0  0  0  0  0  0  0
    5.8946    0.4210    1.9989 C   0  0  0  0  0  0  0  0  0  0  0  0
    4.5058    0.4758    2.0048 C   0  0  0  0  0  0  0  0  0  0  0  0
   -0.2612   -3.7121   -3.1095 H   0  0  0  0  0  0  0  0  0  0  0  0
   -0.9774   -3.6378   -1.4682 H   0  0  0  0  0  0  0  0  0  0  0  0
   -1.0558   -2.2077   -2.5309 H   0  0  0  0  0  0  0  0  0  0  0  0
    2.4635   -4.0479   -2.3736 H   0  0  0  0  0  0  0  0  0  0  0  0
    4.1213   -2.2775   -0.9606 H   0  0  0  0  0  0  0  0  0  0  0  0
    0.9651    3.7053   -3.6769 H   0  0  0  0  0  0  0  0  0  0  0  0
   -0.2833    2.7557   -2.7959 H   0  0  0  0  0  0  0  0  0  0  0  0
    0.2183    4.3719   -2.1966 H   0  0  0  0  0  0  0  0  0  0  0  0
    3.4673    4.0952   -1.9049 H   0  0  0  0  0  0  0  0  0  0  0  0
    4.4612    2.1001   -0.2538 H   0  0  0  0  0  0  0  0  0  0  0  0
   -1.7242    1.7332    2.2950 H   0  0  0  0  0  0  0  0  0  0  0  0
   -2.3520    0.1338    2.7872 H   0  0  0  0  0  0  0  0  0  0  0  0
   -1.5660    1.1836    3.9990 H   0  0  0  0  0  0  0  0  0  0  0  0
    0.2690   -1.2278    4.2558 H   0  0  0  0  0  0  0  0  0  0  0  0
    2.5582   -1.5833    2.7166 H   0  0  0  0  0  0  0  0  0  0  0  0
    8.0729   -1.3674    0.8644 H   0  0  0  0  0  0  0  0  0  0  0  0
    7.4787   -0.9909   -0.7873 H   0  0  0  0  0  0  0  0  0  0  0  0
    8.2503    0.2863    0.2158 H   0  0  0  0  0  0  0  0  0  0  0  0
    6.5764    0.7950    2.7703 H   0  0  0  0  0  0  0  0  0  0  0  0
    3.8035    0.9056    2.7266 H   0  0  0  0  0  0  0  0  0  0  0  0
  1  2  1  6  0  0  0
  1 20  1  0  0  0  0
  1 14  1  0  0  0  0
  3  2  1  0  0  0  0
  4  5  1  1  0  0  0
  4  3  1  0  0  0  0
  5 27  1  0  0  0  0
  6  4  1  0  0  0  0
  6  7  2  0  0  0  0
  7 30  1  0  0  0  0
  7  2  1  0  0  0  0
  8  1  1  0  0  0  0
  9  8  1  0  0  0  0
 10 11  1  1  0  0  0
 10 12  1  0  0  0  0
 10  9  1  0  0  0  0
 11 33  1  0  0  0  0
 12 13  2  0  0  0  0
 13  8  1  0  0  0  0
 13 35  1  0  0  0  0
 14 15  1  0  0  0  0
 14 19  1  0  0  0  0
 15 16  1  0  0  0  0
 16 17  1  0  0  0  0
 16 18  2  0  0  0  0
 17 38  1  0  0  0  0
 18 39  1  0  0  0  0
 19 40  1  0  0  0  0
 19 18  1  0  0  0  0
 20 25  1  0  0  0  0
 21 22  2  0  0  0  0
 21 20  1  0  0  0  0
 22 24  1  0  0  0  0
 23 22  1  0  0  0  0
 23 41  1  0  0  0  0
 24 25  2  0  0  0  0
 24 44  1  0  0  0  0
 25 45  1  0  0  0  0
 26  5  1  0  0  0  0
 28  5  1  0  0  0  0
 29  6  1  0  0  0  0
 31 11  1  0  0  0  0
 32 11  1  0  0  0  0
 34 12  1  0  0  0  0
 36 17  1  0  0  0  0
 37 17  1  0  0  0  0
 42 23  1  0  0  0  0
 43 23  1  0  0  0  0
M  END
