1,3,4
 OpenBabel05122313063D

 36 37  0  0  1  0  0  0  0  0999 V2000
    1.3561    1.7769   -0.0110 N   0  0  0  0  0  0  0  0  0  0  0  0
   -1.3565    1.7768    0.0111 N   0  0  0  0  0  0  0  0  0  0  0  0
    2.2005   -0.6511    0.0921 N   0  0  0  0  0  2  0  0  0  0  0  0
   -2.2006   -0.6512   -0.0921 N   0  0  0  0  0  2  0  0  0  0  0  0
    0.6608    3.0278   -0.3670 C   0  0  0  0  0  0  0  0  0  0  0  0
   -0.6613    3.0278    0.3670 C   0  0  0  0  0  0  0  0  0  0  0  0
    2.5803    1.5459   -0.7876 C   0  0  0  0  0  0  0  0  0  0  0  0
    3.1385    0.2337   -0.3326 C   0  0  1  0  0  3  0  0  0  0  0  0
    4.5050   -0.0674   -0.3266 C   0  0  0  0  0  0  0  0  0  0  0  0
    4.9285   -1.3187    0.1383 C   0  0  0  0  0  0  0  0  0  0  0  0
    3.9597   -2.2203    0.5987 C   0  0  0  0  0  0  0  0  0  0  0  0
    2.6130   -1.8527    0.5609 C   0  0  0  0  0  0  0  0  0  0  0  0
   -2.5806    1.5458    0.7877 C   0  0  0  0  0  0  0  0  0  0  0  0
   -3.1386    0.2335    0.3327 C   0  0  1  0  0  3  0  0  0  0  0  0
   -4.5051   -0.0677    0.3267 C   0  0  0  0  0  0  0  0  0  0  0  0
   -4.9285   -1.3189   -0.1384 C   0  0  0  0  0  0  0  0  0  0  0  0
   -3.9597   -2.2203   -0.5990 C   0  0  0  0  0  0  0  0  0  0  0  0
   -2.6131   -1.8527   -0.5612 C   0  0  0  0  0  0  0  0  0  0  0  0
    1.5860    1.7978    0.9992 H   0  0  0  0  0  0  0  0  0  0  0  0
   -1.5864    1.7976   -0.9991 H   0  0  0  0  0  0  0  0  0  0  0  0
    0.5037    3.0262   -1.4652 H   0  0  0  0  0  0  0  0  0  0  0  0
    1.2736    3.9185   -0.1107 H   0  0  0  0  0  0  0  0  0  0  0  0
   -0.5041    3.0263    1.4652 H   0  0  0  0  0  0  0  0  0  0  0  0
   -1.2741    3.9184    0.1105 H   0  0  0  0  0  0  0  0  0  0  0  0
    3.3155    2.3686   -0.6624 H   0  0  0  0  0  0  0  0  0  0  0  0
    2.2934    1.4889   -1.8598 H   0  0  0  0  0  0  0  0  0  0  0  0
    5.2246    0.6838   -0.6824 H   0  0  0  0  0  0  0  0  0  0  0  0
    5.9967   -1.5796    0.1525 H   0  0  0  0  0  0  0  0  0  0  0  0
    4.2347   -3.2089    0.9917 H   0  0  0  0  0  0  0  0  0  0  0  0
    1.8217   -2.5367    0.8968 H   0  0  0  0  0  0  0  0  0  0  0  0
   -3.3160    2.3685    0.6624 H   0  0  0  0  0  0  0  0  0  0  0  0
   -2.2938    1.4888    1.8599 H   0  0  0  0  0  0  0  0  0  0  0  0
   -5.2248    0.6834    0.6826 H   0  0  0  0  0  0  0  0  0  0  0  0
   -5.9968   -1.5798   -0.1526 H   0  0  0  0  0  0  0  0  0  0  0  0
   -4.2348   -3.2088   -0.9922 H   0  0  0  0  0  0  0  0  0  0  0  0
   -1.8217   -2.5366   -0.8973 H   0  0  0  0  0  0  0  0  0  0  0  0
  1 19  1  0  0  0  0
  2  6  1  0  0  0  0
  2 13  1  0  0  0  0
  3 12  1  0  0  0  0
  4 14  1  0  0  0  0
  5 22  1  0  0  0  0
  5  1  1  0  0  0  0
  5  6  1  0  0  0  0
  6 23  1  0  0  0  0
  7 25  1  0  0  0  0
  7  1  1  0  0  0  0
  8  7  1  1  0  0  0
  8  9  1  0  0  0  0
  8  3  1  0  0  0  0
  9 10  2  0  0  0  0
 10 28  1  0  0  0  0
 10 11  1  0  0  0  0
 11 29  1  0  0  0  0
 12 11  2  0  0  0  0
 12 30  1  0  0  0  0
 13 32  1  0  0  0  0
 14 13  1  6  0  0  0
 15 14  1  0  0  0  0
 15 33  1  0  0  0  0
 16 15  2  0  0  0  0
 17 18  2  0  0  0  0
 17 16  1  0  0  0  0
 18  4  1  0  0  0  0
 20  2  1  0  0  0  0
 21  5  1  0  0  0  0
 24  6  1  0  0  0  0
 26  7  1  0  0  0  0
 27  9  1  0  0  0  0
 31 13  1  0  0  0  0
 34 16  1  0  0  0  0
 35 17  1  0  0  0  0
 36 18  1  0  0  0  0
M  END
