1,2,3
 OpenBabel05122313063D

 43 45  0  0  0  0  0  0  0  0999 V2000
    1.9461    1.0829   -0.0799 N   0  0  0  0  0  2  0  0  0  0  0  0
    1.2606   -1.7649   -0.3490 N   0  0  0  0  0  0  0  0  0  0  0  0
   -1.5790   -1.6751    0.0906 N   0  0  0  0  0  0  0  0  0  0  0  0
   -1.8888   -1.6727   -0.8932 H   0  0  0  0  0  0  0  0  0  0  0  0
   -5.1112    1.8162   -0.6254 N   0  0  0  0  0  0  0  0  0  0  0  0
    1.7812    2.4074    0.0494 C   0  0  0  0  0  3  0  0  0  0  0  0
    0.7374    2.7617    0.0315 H   0  0  0  0  0  0  0  0  0  0  0  0
    2.8618    3.2888    0.1793 C   0  0  0  0  0  0  0  0  0  0  0  0
    2.6873    4.3690    0.2829 H   0  0  0  0  0  0  0  0  0  0  0  0
    4.1549    2.7510    0.1723 C   0  0  0  0  0  0  0  0  0  0  0  0
    5.0346    3.4042    0.2762 H   0  0  0  0  0  0  0  0  0  0  0  0
    4.3219    1.3665    0.0217 C   0  0  0  0  0  0  0  0  0  0  0  0
    5.3300    0.9329    0.0014 H   0  0  0  0  0  0  0  0  0  0  0  0
    3.1849    0.5480   -0.1081 C   0  0  0  0  0  0  0  0  0  0  0  0
    3.2551   -0.9597   -0.3157 C   0  0  0  0  0  0  0  0  0  0  0  0
    2.2352   -1.4178   -1.4116 C   0  0  0  0  0  0  0  0  0  0  0  0
    1.8528   -0.6538   -2.1205 H   0  0  0  0  0  0  0  0  0  0  0  0
    2.6004   -2.3134   -1.9629 H   0  0  0  0  0  0  0  0  0  0  0  0
    2.3308   -1.7333    0.6848 C   0  0  0  0  0  0  0  0  0  0  0  0
    2.7280   -2.7505    0.9063 H   0  0  0  0  0  0  0  0  0  0  0  0
    2.0318   -1.2199    1.6226 H   0  0  0  0  0  0  0  0  0  0  0  0
    4.6705   -1.5025   -0.4555 C   0  0  0  0  0  0  0  0  0  0  0  0
    5.2034   -1.0354   -1.3084 H   0  0  0  0  0  0  0  0  0  0  0  0
    4.6487   -2.5959   -0.6301 H   0  0  0  0  0  0  0  0  0  0  0  0
    5.2670   -1.3231    0.4618 H   0  0  0  0  0  0  0  0  0  0  0  0
    0.4163   -2.9455   -0.5097 C   0  0  0  0  0  0  0  0  0  0  0  0
    0.9899   -3.8851   -0.3254 H   0  0  0  0  0  0  0  0  0  0  0  0
    0.0819   -2.9662   -1.5697 H   0  0  0  0  0  0  0  0  0  0  0  0
   -0.8064   -2.8745    0.4043 C   0  0  0  0  0  0  0  0  0  0  0  0
   -1.4012   -3.8153    0.3135 H   0  0  0  0  0  0  0  0  0  0  0  0
   -0.4829   -2.7902    1.4646 H   0  0  0  0  0  0  0  0  0  0  0  0
   -2.7329   -1.4422    0.9788 C   0  0  0  0  0  0  0  0  0  0  0  0
   -2.3210   -1.1906    1.9783 H   0  0  0  0  0  0  0  0  0  0  0  0
   -3.3541   -2.3651    1.0692 H   0  0  0  0  0  0  0  0  0  0  0  0
   -3.5833   -0.3070    0.4591 C   0  0  0  0  0  0  0  0  0  0  0  0
   -4.7037   -0.5534   -0.3538 C   0  0  0  0  0  0  0  0  0  0  0  0
   -5.0154   -1.5854   -0.5844 H   0  0  0  0  0  0  0  0  0  0  0  0
   -5.4273    0.5351   -0.8667 C   0  0  0  0  0  0  0  0  0  0  0  0
   -6.3118    0.3579   -1.5058 H   0  0  0  0  0  0  0  0  0  0  0  0
   -4.0404    2.0460    0.1522 C   0  0  0  0  0  0  0  0  0  0  0  0
   -3.7897    3.1056    0.3389 H   0  0  0  0  0  0  0  0  0  0  0  0
   -3.2486    1.0348    0.7162 C   0  0  0  0  0  0  0  0  0  0  0  0
   -2.3769    1.2752    1.3454 H   0  0  0  0  0  0  0  0  0  0  0  0
  1  6  1  0  0  0  0
  2 19  1  0  0  0  0
  3 29  1  0  0  0  0
  3 32  1  0  0  0  0
  4  3  1  0  0  0  0
  5 40  1  0  0  0  0
  6  8  1  0  0  0  0
  7  6  1  0  0  0  0
  8  9  1  0  0  0  0
 10  8  2  0  0  0  0
 10 11  1  0  0  0  0
 12 10  1  0  0  0  0
 13 12  1  0  0  0  0
 14  1  1  0  0  0  0
 14 12  2  0  0  0  0
 15 14  1  0  0  0  0
 15 19  1  0  0  0  0
 16  2  1  0  0  0  0
 16 15  1  0  0  0  0
 17 16  1  0  0  0  0
 18 16  1  0  0  0  0
 19 20  1  0  0  0  0
 19 21  1  0  0  0  0
 22 15  1  0  0  0  0
 22 25  1  0  0  0  0
 23 22  1  0  0  0  0
 24 22  1  0  0  0  0
 26  2  1  0  0  0  0
 26 27  1  0  0  0  0
 26 29  1  0  0  0  0
 28 26  1  0  0  0  0
 29 31  1  0  0  0  0
 30 29  1  0  0  0  0
 32 34  1  0  0  0  0
 32 33  1  0  0  0  0
 35 42  1  0  0  0  0
 35 32  1  0  0  0  0
 36 35  2  0  0  0  0
 37 36  1  0  0  0  0
 38  5  2  0  0  0  0
 38 36  1  0  0  0  0
 39 38  1  0  0  0  0
 40 41  1  0  0  0  0
 40 42  2  0  0  0  0
 42 43  1  0  0  0  0
M  END
