1,2,4
 OpenBabel05122313063D

 40 40  0  0  0  0  0  0  0  0999 V2000
   -0.0226    0.6466   -1.9502 N   0  0  0  0  0  2  0  0  0  0  0  0
   -2.2956    0.8875   -0.3139 N   0  0  0  0  0  0  0  0  0  0  0  0
    0.1883    1.7992    1.3452 N   0  0  0  0  0  0  0  0  0  0  0  0
    2.3911    0.5119   -0.4191 N   0  0  0  0  0  0  0  0  0  0  0  0
   -1.1908    1.2379   -2.5326 C   0  0  0  0  0  0  0  0  0  0  0  0
   -1.3458    0.9660   -3.6132 H   0  0  0  0  0  0  0  0  0  0  0  0
   -1.1235    2.3684   -2.5592 H   0  0  0  0  0  0  0  0  0  0  0  0
   -2.4605    0.8215   -1.7846 C   0  0  0  0  0  0  0  0  0  0  0  0
   -3.3271    1.4486   -2.1151 H   0  0  0  0  0  0  0  0  0  0  0  0
   -2.7083   -0.2317   -2.0262 H   0  0  0  0  0  0  0  0  0  0  0  0
   -2.0007    2.2605    0.1335 C   0  0  0  0  0  0  0  0  0  0  0  0
   -2.9489    2.8302    0.2955 H   0  0  0  0  0  0  0  0  0  0  0  0
   -1.4744    2.7874   -0.6843 H   0  0  0  0  0  0  0  0  0  0  0  0
   -1.1808    2.3513    1.4175 C   0  0  0  0  0  0  0  0  0  0  0  0
   -1.1523    3.4271    1.7306 H   0  0  0  0  0  0  0  0  0  0  0  0
   -1.7018    1.8012    2.2284 H   0  0  0  0  0  0  0  0  0  0  0  0
    1.0433    2.5264    0.3867 C   0  0  0  0  0  0  0  0  0  0  0  0
    1.2249    3.5721    0.7485 H   0  0  0  0  0  0  0  0  0  0  0  0
    0.5061    2.5866   -0.5746 H   0  0  0  0  0  0  0  0  0  0  0  0
    2.4119    1.8743    0.1577 C   0  0  0  0  0  0  0  0  0  0  0  0
    3.0104    2.5608   -0.4891 H   0  0  0  0  0  0  0  0  0  0  0  0
    2.9545    1.8217    1.1219 H   0  0  0  0  0  0  0  0  0  0  0  0
    2.4198    0.5183   -1.9020 C   0  0  0  0  0  0  0  0  0  0  0  0
    2.4906   -0.5416   -2.2193 H   0  0  0  0  0  0  0  0  0  0  0  0
    3.3442    1.0367   -2.2635 H   0  0  0  0  0  0  0  0  0  0  0  0
    1.1835    1.1477   -2.5398 C   0  0  0  0  0  0  0  0  0  0  0  0
    1.2600    2.2759   -2.4683 H   0  0  0  0  0  0  0  0  0  0  0  0
    1.2590    0.9511   -3.6444 H   0  0  0  0  0  0  0  0  0  0  0  0
   -3.4759    0.3410    0.3625 C   0  0  0  0  0  0  0  0  0  0  0  0
   -3.3398    0.3773    1.4593 H   0  0  0  0  0  0  0  0  0  0  0  0
   -3.6058   -0.7223    0.0805 H   0  0  0  0  0  0  0  0  0  0  0  0
   -4.4054    0.9030    0.0939 H   0  0  0  0  0  0  0  0  0  0  0  0
    0.7798    1.8216    2.6873 C   0  0  0  0  0  0  0  0  0  0  0  0
    0.0758    1.3719    3.4096 H   0  0  0  0  0  0  0  0  0  0  0  0
    1.0057    2.8657    3.0190 H   0  0  0  0  0  0  0  0  0  0  0  0
    1.7087    1.2233    2.7205 H   0  0  0  0  0  0  0  0  0  0  0  0
    3.5202   -0.2848    0.0840 C   0  0  0  0  0  0  0  0  0  0  0  0
    3.4499   -1.3144   -0.3173 H   0  0  0  0  0  0  0  0  0  0  0  0
    3.4735   -0.3514    1.1870 H   0  0  0  0  0  0  0  0  0  0  0  0
    4.5069    0.1471   -0.2168 H   0  0  0  0  0  0  0  0  0  0  0  0
  2 11  1  0  0  0  0
  2 29  1  0  0  0  0
  3 14  1  0  0  0  0
  3 33  1  0  0  0  0
  4 37  1  0  0  0  0
  4 20  1  0  0  0  0
  5  1  1  0  0  0  0
  5  8  1  0  0  0  0
  6  5  1  0  0  0  0
  7  5  1  0  0  0  0
  8  2  1  0  0  0  0
  9  8  1  0  0  0  0
 10  8  1  0  0  0  0
 11 12  1  0  0  0  0
 11 14  1  0  0  0  0
 13 11  1  0  0  0  0
 14 15  1  0  0  0  0
 14 16  1  0  0  0  0
 17 18  1  0  0  0  0
 17  3  1  0  0  0  0
 19 17  1  0  0  0  0
 20 17  1  0  0  0  0
 20 22  1  0  0  0  0
 21 20  1  0  0  0  0
 23  4  1  0  0  0  0
 24 23  1  0  0  0  0
 25 23  1  0  0  0  0
 26 27  1  0  0  0  0
 26  1  1  0  0  0  0
 26 23  1  0  0  0  0
 28 26  1  0  0  0  0
 29 30  1  0  0  0  0
 31 29  1  0  0  0  0
 32 29  1  0  0  0  0
 33 36  1  0  0  0  0
 33 35  1  0  0  0  0
 33 34  1  0  0  0  0
 37 39  1  0  0  0  0
 38 37  1  0  0  0  0
 40 37  1  0  0  0  0
M  END
