1,2,3
 OpenBabel05122313063D

 30 30  0  0  0  0  0  0  0  0999 V2000
    0.1767    1.8604   -0.3496 N   0  0  0  0  0  0  0  0  0  0  0  0
    1.6117   -0.4245    0.1103 N   0  0  0  0  0  2  0  0  0  0  0  0
   -0.7052    0.3865    1.9807 N   0  0  0  0  0  0  0  0  0  0  0  0
    0.1984    0.1452    2.4188 H   0  0  0  0  0  0  0  0  0  0  0  0
    2.2657   -1.4849    0.6463 C   0  0  0  0  0  3  0  0  0  0  0  0
    1.6412   -2.3352    0.9580 H   0  0  0  0  0  0  0  0  0  0  0  0
    3.6564   -1.5137    0.7808 C   0  0  0  0  0  0  0  0  0  0  0  0
    4.1416   -2.3997    1.2137 H   0  0  0  0  0  0  0  0  0  0  0  0
    4.4020   -0.4053    0.3542 C   0  0  0  0  0  0  0  0  0  0  0  0
    5.4979   -0.3956    0.4479 H   0  0  0  0  0  0  0  0  0  0  0  0
    3.7266    0.6945   -0.1942 C   0  0  0  0  0  0  0  0  0  0  0  0
    4.2767    1.5822   -0.5387 H   0  0  0  0  0  0  0  0  0  0  0  0
    2.3316    0.6537   -0.3123 C   0  0  0  0  0  0  0  0  0  0  0  0
    1.5324    1.7573   -0.9581 C   0  0  0  0  0  0  0  0  0  0  0  0
    1.3968    1.5219   -2.0352 H   0  0  0  0  0  0  0  0  0  0  0  0
    2.0735    2.7277   -0.9005 H   0  0  0  0  0  0  0  0  0  0  0  0
    0.2824    2.4209    1.0386 C   0  0  0  0  0  0  0  0  0  0  0  0
    0.2487    3.5306    1.0072 H   0  0  0  0  0  0  0  0  0  0  0  0
    1.2759    2.1414    1.4470 H   0  0  0  0  0  0  0  0  0  0  0  0
   -0.8014    1.8689    1.9471 C   0  0  0  0  0  0  0  0  0  0  0  0
   -0.7022    2.3040    2.9661 H   0  0  0  0  0  0  0  0  0  0  0  0
   -1.8131    2.1331    1.5774 H   0  0  0  0  0  0  0  0  0  0  0  0
   -1.7746   -0.2286    2.8049 C   0  0  0  0  0  0  0  0  0  0  0  0
   -1.7776    0.1854    3.8350 H   0  0  0  0  0  0  0  0  0  0  0  0
   -1.6232   -1.3221    2.8487 H   0  0  0  0  0  0  0  0  0  0  0  0
   -2.7559   -0.0331    2.3344 H   0  0  0  0  0  0  0  0  0  0  0  0
   -0.6940    2.7179   -1.1950 C   0  0  0  0  0  0  0  0  0  0  0  0
   -0.2463    3.7272   -1.3242 H   0  0  0  0  0  0  0  0  0  0  0  0
   -1.6873    2.8204   -0.7226 H   0  0  0  0  0  0  0  0  0  0  0  0
   -0.8295    2.2446   -2.1844 H   0  0  0  0  0  0  0  0  0  0  0  0
  1 17  1  0  0  0  0
  2  5  1  0  0  0  0
  3  4  1  0  0  0  0
  3 23  1  0  0  0  0
  5  7  1  0  0  0  0
  5  6  1  0  0  0  0
  7  8  1  0  0  0  0
  9 10  1  0  0  0  0
  9  7  2  0  0  0  0
 11  9  1  0  0  0  0
 12 11  1  0  0  0  0
 13 11  2  0  0  0  0
 13  2  1  0  0  0  0
 14 16  1  0  0  0  0
 14  1  1  0  0  0  0
 14 13  1  0  0  0  0
 15 14  1  0  0  0  0
 17 19  1  0  0  0  0
 17 20  1  0  0  0  0
 18 17  1  0  0  0  0
 20  3  1  0  0  0  0
 20 21  1  0  0  0  0
 22 20  1  0  0  0  0
 23 25  1  0  0  0  0
 23 24  1  0  0  0  0
 26 23  1  0  0  0  0
 27 29  1  0  0  0  0
 27  1  1  0  0  0  0
 28 27  1  0  0  0  0
 30 27  1  0  0  0  0
M  END
