1,2,3
 OpenBabel05122313063D

 42 42  0  0  0  0  0  0  0  0999 V2000
    1.5457    1.4538   -0.1395 N   0  0  0  0  0  2  0  0  0  0  0  0
   -0.9988    0.4551    0.2065 N   0  0  0  0  0  0  0  0  0  0  0  0
    0.9520   -0.9111    1.9665 N   0  0  0  0  0  0  0  0  0  0  0  0
   -3.6642    1.5035    0.5084 O   0  0  0  0  0  0  0  0  0  0  0  0
   -4.4888   -0.2016   -0.7549 O   0  0  0  0  0  0  0  0  0  0  0  0
    2.8250    1.8914   -0.0394 C   0  0  0  0  0  3  0  0  0  0  0  0
    3.6063    1.1174   -0.0411 H   0  0  0  0  0  0  0  0  0  0  0  0
    3.1450    3.2479    0.0521 C   0  0  0  0  0  0  0  0  0  0  0  0
    4.1981    3.5537    0.1239 H   0  0  0  0  0  0  0  0  0  0  0  0
    2.1065    4.1908    0.0520 C   0  0  0  0  0  0  0  0  0  0  0  0
    2.3238    5.2660    0.1323 H   0  0  0  0  0  0  0  0  0  0  0  0
    0.7837    3.7397   -0.0548 C   0  0  0  0  0  0  0  0  0  0  0  0
   -0.0588    4.4461   -0.0628 H   0  0  0  0  0  0  0  0  0  0  0  0
    0.5331    2.3653   -0.1660 C   0  0  0  0  0  0  0  0  0  0  0  0
   -0.8512    1.8177   -0.3910 C   0  0  0  0  0  0  0  0  0  0  0  0
   -1.6292    2.5036   -0.0011 H   0  0  0  0  0  0  0  0  0  0  0  0
   -1.0158    1.7166   -1.4856 H   0  0  0  0  0  0  0  0  0  0  0  0
   -1.0500    0.5481    1.7078 C   0  0  0  0  0  0  0  0  0  0  0  0
   -2.0889    0.7333    2.0429 H   0  0  0  0  0  0  0  0  0  0  0  0
   -0.4686    1.4430    2.0036 H   0  0  0  0  0  0  0  0  0  0  0  0
   -0.4713   -0.6920    2.3608 C   0  0  0  0  0  0  0  0  0  0  0  0
   -0.5578   -0.6097    3.4681 H   0  0  0  0  0  0  0  0  0  0  0  0
   -1.0418   -1.5934    2.0595 H   0  0  0  0  0  0  0  0  0  0  0  0
    1.8422    0.0508    2.6623 C   0  0  0  0  0  0  0  0  0  0  0  0
    1.5472    1.0923    2.4481 H   0  0  0  0  0  0  0  0  0  0  0  0
    2.8812   -0.0967    2.3147 H   0  0  0  0  0  0  0  0  0  0  0  0
    1.8067   -0.1129    3.7613 H   0  0  0  0  0  0  0  0  0  0  0  0
    1.3679   -2.2821    2.3691 C   0  0  0  0  0  0  0  0  0  0  0  0
    1.2977   -2.3978    3.4726 H   0  0  0  0  0  0  0  0  0  0  0  0
    2.4123   -2.4588    2.0549 H   0  0  0  0  0  0  0  0  0  0  0  0
    0.7211   -3.0342    1.8843 H   0  0  0  0  0  0  0  0  0  0  0  0
   -2.1864   -0.2450   -0.3470 C   0  0  0  0  0  0  0  0  0  0  0  0
   -2.2570   -1.2549    0.1025 H   0  0  0  0  0  0  0  0  0  0  0  0
   -2.0345   -0.4125   -1.4315 H   0  0  0  0  0  0  0  0  0  0  0  0
   -3.5229    0.4745   -0.1340 C   0  0  0  0  0  0  0  0  0  0  0  0
   -5.8539    0.3117   -0.6385 C   0  0  0  0  0  0  0  0  0  0  0  0
   -6.3510   -0.0461   -1.5593 H   0  0  0  0  0  0  0  0  0  0  0  0
   -5.8081    1.4185   -0.6491 H   0  0  0  0  0  0  0  0  0  0  0  0
   -6.5288   -0.2102    0.6149 C   0  0  0  0  0  0  0  0  0  0  0  0
   -6.5243   -1.3175    0.6424 H   0  0  0  0  0  0  0  0  0  0  0  0
   -7.5842    0.1272    0.6324 H   0  0  0  0  0  0  0  0  0  0  0  0
   -6.0351    0.1791    1.5268 H   0  0  0  0  0  0  0  0  0  0  0  0
  1  6  1  0  0  0  0
  2 18  1  0  0  0  0
  3 21  1  0  0  0  0
  3 28  1  0  0  0  0
  3 24  1  0  0  0  0
  5 36  1  0  0  0  0
  5 35  1  0  0  0  0
  6  8  1  0  0  0  0
  7  6  1  0  0  0  0
  8  9  1  0  0  0  0
 10  8  2  0  0  0  0
 10 11  1  0  0  0  0
 12 10  1  0  0  0  0
 13 12  1  0  0  0  0
 14  1  1  0  0  0  0
 14 12  2  0  0  0  0
 15 14  1  0  0  0  0
 15 16  1  0  0  0  0
 15  2  1  0  0  0  0
 17 15  1  0  0  0  0
 18 20  1  0  0  0  0
 18 19  1  0  0  0  0
 18 21  1  0  0  0  0
 21 22  1  0  0  0  0
 23 21  1  0  0  0  0
 24 27  1  0  0  0  0
 25 24  1  0  0  0  0
 26 24  1  0  0  0  0
 28 29  1  0  0  0  0
 30 28  1  0  0  0  0
 31 28  1  0  0  0  0
 32 35  1  0  0  0  0
 32 33  1  0  0  0  0
 32  2  1  0  0  0  0
 34 32  1  0  0  0  0
 35  4  2  0  0  0  0
 36 39  1  0  0  0  0
 37 36  1  0  0  0  0
 38 36  1  0  0  0  0
 39 41  1  0  0  0  0
 39 40  1  0  0  0  0
 39 42  1  0  0  0  0
M  END
