3,5,7
 OpenBabel05122313063D

 37 39  0  0  1  0  0  0  0  0999 V2000
   -1.9746   -0.0816   -0.0121 P   0  0  1  0  0  0  0  0  0  0  0  0
   -1.7669    1.9739   -1.9670 N   0  0  0  0  0  0  0  0  0  0  0  0
    0.2091    1.1768   -1.2934 N   0  0  0  0  0  2  0  0  0  0  0  0
   -1.6690   -2.8470   -0.5612 N   0  0  0  0  0  0  0  0  0  0  0  0
    0.2796   -1.7580   -0.3733 N   0  0  0  0  0  2  0  0  0  0  0  0
   -1.5780    0.8517    2.6630 N   0  0  0  0  0  0  0  0  0  0  0  0
    0.3089    0.5255    1.5217 N   0  0  0  0  0  2  0  0  0  0  0  0
   -1.1209    1.0306   -1.1877 C   0  0  1  0  0  3  0  0  0  0  0  0
   -0.7882    2.7389   -2.5768 C   0  0  0  0  0  0  0  0  0  0  0  0
   -1.0243    3.5655   -3.2521 H   0  0  0  0  0  0  0  0  0  0  0  0
    0.4237    2.2400   -2.1466 C   0  0  0  0  0  0  0  0  0  0  0  0
    1.4293    2.5990   -2.3846 H   0  0  0  0  0  0  0  0  0  0  0  0
   -3.1714    2.1091   -2.0984 C   0  0  0  0  0  0  0  0  0  0  0  0
   -3.7258    1.3695   -1.5014 H   0  0  0  0  0  0  0  0  0  0  0  0
   -3.7938    3.0239   -2.8579 C   0  0  0  0  0  0  0  0  0  0  0  0
   -3.2646    3.7726   -3.4649 H   0  0  0  0  0  0  0  0  0  0  0  0
   -4.8916    3.0372   -2.8859 H   0  0  0  0  0  0  0  0  0  0  0  0
   -1.0563   -1.6224   -0.3454 C   0  0  2  0  0  3  0  0  0  0  0  0
   -0.6624   -3.7789   -0.7303 C   0  0  0  0  0  0  0  0  0  0  0  0
   -0.8659   -4.8372   -0.9139 H   0  0  0  0  0  0  0  0  0  0  0  0
    0.5291   -3.0942   -0.6118 C   0  0  0  0  0  0  0  0  0  0  0  0
    1.5424   -3.4991   -0.6823 H   0  0  0  0  0  0  0  0  0  0  0  0
   -3.0666   -3.0758   -0.5973 C   0  0  0  0  0  0  0  0  0  0  0  0
   -3.6508   -2.1606   -0.4187 H   0  0  0  0  0  0  0  0  0  0  0  0
   -3.6529   -4.2621   -0.8213 C   0  0  0  0  0  0  0  0  0  0  0  0
   -3.0951   -5.1919   -1.0040 H   0  0  0  0  0  0  0  0  0  0  0  0
   -4.7495   -4.3235   -0.8255 H   0  0  0  0  0  0  0  0  0  0  0  0
   -1.0288    0.4424    1.4641 C   0  0  2  0  0  3  0  0  0  0  0  0
   -0.5288    1.2005    3.4977 C   0  0  0  0  0  0  0  0  0  0  0  0
   -0.6851    1.5623    4.5173 H   0  0  0  0  0  0  0  0  0  0  0  0
    0.6305    0.9956    2.7789 C   0  0  0  0  0  0  0  0  0  0  0  0
    1.6681    1.1538    3.0897 H   0  0  0  0  0  0  0  0  0  0  0  0
   -2.9642    0.8971    2.9545 C   0  0  0  0  0  0  0  0  0  0  0  0
   -3.5854    0.5710    2.1068 H   0  0  0  0  0  0  0  0  0  0  0  0
   -3.4970    1.2872    4.1226 C   0  0  0  0  0  0  0  0  0  0  0  0
   -2.8983    1.6155    4.9844 H   0  0  0  0  0  0  0  0  0  0  0  0
   -4.5890    1.2829    4.2396 H   0  0  0  0  0  0  0  0  0  0  0  0
  2  8  1  0  0  0  0
  3  8  1  0  0  0  0
  4 18  1  0  0  0  0
  5 18  1  0  0  0  0
  6 33  1  0  0  0  0
  6 29  1  0  0  0  0
  7 31  1  0  0  0  0
  8  1  1  1  0  0  0
  9 11  2  0  0  0  0
  9  2  1  0  0  0  0
 10  9  1  0  0  0  0
 11  3  1  0  0  0  0
 12 11  1  0  0  0  0
 13  2  1  0  0  0  0
 13 14  1  0  0  0  0
 15 13  2  0  0  0  0
 16 15  1  0  0  0  0
 17 15  1  0  0  0  0
 18  1  1  1  0  0  0
 19 21  2  0  0  0  0
 19  4  1  0  0  0  0
 20 19  1  0  0  0  0
 21  5  1  0  0  0  0
 22 21  1  0  0  0  0
 23  4  1  0  0  0  0
 23 24  1  0  0  0  0
 25 23  2  0  0  0  0
 26 25  1  0  0  0  0
 27 25  1  0  0  0  0
 28  1  1  6  0  0  0
 28  7  1  0  0  0  0
 28  6  1  0  0  0  0
 29 30  1  0  0  0  0
 31 32  1  0  0  0  0
 31 29  2  0  0  0  0
 33 35  2  0  0  0  0
 34 33  1  0  0  0  0
 35 37  1  0  0  0  0
 35 36  1  0  0  0  0
M  END
