2,5,6
 OpenBabel05122313063D

 37 39  0  0  1  0  0  0  0  0999 V2000
   -4.0262   -2.7577    0.0414 O   0  0  0  0  0  0  0  0  0  0  0  0
   -0.9126    0.6708   -0.1435 N   0  0  0  0  0  2  0  0  0  0  0  0
   -2.5261   -1.0148   -0.0536 N   0  0  0  0  0  0  0  0  0  0  0  0
   -1.7667   -1.6452    0.3419 H   0  0  0  0  0  0  0  0  0  0  0  0
    1.4794    1.6227    0.9692 N   0  0  0  0  0  0  0  0  0  0  0  0
    2.3965   -0.6764   -0.2745 N   0  0  0  0  0  2  0  0  0  0  0  0
    0.8983    2.2701   -0.2070 C   0  0  0  0  0  0  0  0  0  0  0  0
    1.4104    1.8572   -1.1046 H   0  0  0  0  0  0  0  0  0  0  0  0
    1.0661    3.3760   -0.2127 H   0  0  0  0  0  0  0  0  0  0  0  0
   -0.5803    1.9672   -0.3425 C   0  0  1  0  0  3  0  0  0  0  0  0
   -1.5219    2.9429   -0.7051 C   0  0  0  0  0  0  0  0  0  0  0  0
   -1.2036    3.9853   -0.8483 H   0  0  0  0  0  0  0  0  0  0  0  0
   -2.8542    2.5561   -0.8912 C   0  0  0  0  0  0  0  0  0  0  0  0
   -3.6198    3.2903   -1.1855 H   0  0  0  0  0  0  0  0  0  0  0  0
   -3.2286    1.2143   -0.6890 C   0  0  0  0  0  0  0  0  0  0  0  0
   -4.5683    0.7057   -0.8448 C   0  0  0  0  0  0  0  0  0  0  0  0
   -5.3609    1.4064   -1.1540 H   0  0  0  0  0  0  0  0  0  0  0  0
   -4.8484   -0.6105   -0.6160 C   0  0  0  0  0  0  0  0  0  0  0  0
   -5.8604   -1.0238   -0.7280 H   0  0  0  0  0  0  0  0  0  0  0  0
   -3.8168   -1.5720   -0.1885 C   0  0  0  0  0  0  0  0  0  0  0  0
   -2.2092    0.2879   -0.2904 C   0  0  0  0  0  0  0  0  0  0  0  0
    1.0503    2.2386    2.2176 C   0  0  0  0  0  0  0  0  0  0  0  0
    1.4016    1.6318    3.0745 H   0  0  0  0  0  0  0  0  0  0  0  0
   -0.0569    2.2653    2.2513 H   0  0  0  0  0  0  0  0  0  0  0  0
    1.4266    3.2858    2.3408 H   0  0  0  0  0  0  0  0  0  0  0  0
    2.9171    1.4174    0.8724 C   0  0  0  0  0  0  0  0  0  0  0  0
    3.2688    1.0922    1.8760 H   0  0  0  0  0  0  0  0  0  0  0  0
    3.4806    2.3547    0.6327 H   0  0  0  0  0  0  0  0  0  0  0  0
    3.2959    0.3251   -0.1146 C   0  0  1  0  0  3  0  0  0  0  0  0
    4.5375    0.3075   -0.7654 C   0  0  0  0  0  0  0  0  0  0  0  0
    5.2358    1.1480   -0.6311 H   0  0  0  0  0  0  0  0  0  0  0  0
    4.8736   -0.7895   -1.5739 C   0  0  0  0  0  0  0  0  0  0  0  0
    5.8446   -0.8262   -2.0898 H   0  0  0  0  0  0  0  0  0  0  0  0
    3.9501   -1.8400   -1.7033 C   0  0  0  0  0  0  0  0  0  0  0  0
    4.1750   -2.7276   -2.3123 H   0  0  0  0  0  0  0  0  0  0  0  0
    2.7235   -1.7429   -1.0399 C   0  0  0  0  0  0  0  0  0  0  0  0
    1.9607   -2.5382   -1.0837 H   0  0  0  0  0  0  0  0  0  0  0  0
  3  4  1  0  0  0  0
  5 22  1  0  0  0  0
  6 29  1  0  0  0  0
  7  5  1  0  0  0  0
  8  7  1  0  0  0  0
  9  7  1  0  0  0  0
 10  7  1  6  0  0  0
 10  2  1  0  0  0  0
 11 10  1  0  0  0  0
 12 11  1  0  0  0  0
 13 11  2  0  0  0  0
 13 15  1  0  0  0  0
 14 13  1  0  0  0  0
 15 21  2  0  0  0  0
 16 15  1  0  0  0  0
 16 18  2  0  0  0  0
 17 16  1  0  0  0  0
 18 20  1  0  0  0  0
 19 18  1  0  0  0  0
 20  3  1  0  0  0  0
 20  1  2  0  0  0  0
 21  2  1  0  0  0  0
 21  3  1  0  0  0  0
 22 24  1  0  0  0  0
 22 25  1  0  0  0  0
 22 23  1  0  0  0  0
 26  5  1  0  0  0  0
 26 27  1  0  0  0  0
 28 26  1  0  0  0  0
 29 26  1  1  0  0  0
 30 31  1  0  0  0  0
 30 29  1  0  0  0  0
 32 30  2  0  0  0  0
 33 32  1  0  0  0  0
 34 32  1  0  0  0  0
 34 36  2  0  0  0  0
 35 34  1  0  0  0  0
 36  6  1  0  0  0  0
 37 36  1  0  0  0  0
M  END
