3,5,7
 OpenBabel05122313063D

 44 46  0  0  1  0  0  0  0  0999 V2000
    0.3868    0.1259    2.2471 B   0  0  2  0  0  0  0  0  0  0  0  0
   -0.4213    1.3469    1.7217 N   0  0  0  0  0  0  0  0  0  0  0  0
   -0.8130    1.4395    0.4233 N   0  0  0  0  0  2  0  0  0  0  0  0
    1.7963    0.1026    1.6386 N   0  0  0  0  0  0  0  0  0  0  0  0
    1.8961    0.0109    0.3007 N   0  0  0  0  0  2  0  0  0  0  0  0
   -0.4031   -1.1562    1.8594 N   0  0  0  0  0  0  0  0  0  0  0  0
   -0.8024   -1.3888    0.5812 N   0  0  0  0  0  2  0  0  0  0  0  0
   -1.6254    2.5131    0.3396 C   0  0  2  0  0  3  0  0  0  0  0  0
   -1.7468    3.1325    1.5971 C   0  0  0  0  0  0  0  0  0  0  0  0
   -0.9675    2.3593    2.4619 C   0  0  0  0  0  0  0  0  0  0  0  0
   -2.2988    2.9661   -0.9264 C   0  0  0  0  0  0  0  0  0  0  0  0
   -0.7336    2.5345    3.9269 C   0  0  0  0  0  0  0  0  0  0  0  0
    3.2042    0.0151    0.0113 C   0  0  2  0  0  3  0  0  0  0  0  0
    3.9736    0.1114    1.1929 C   0  0  0  0  0  0  0  0  0  0  0  0
    3.0332    0.1668    2.2279 C   0  0  0  0  0  0  0  0  0  0  0  0
    3.6817   -0.0719   -1.4082 C   0  0  0  0  0  0  0  0  0  0  0  0
    3.2370    0.2745    3.7043 C   0  0  0  0  0  0  0  0  0  0  0  0
   -1.5952   -2.4794    0.6154 C   0  0  1  0  0  3  0  0  0  0  0  0
   -1.6958   -2.9686    1.9310 C   0  0  0  0  0  0  0  0  0  0  0  0
   -0.9247   -2.0968    2.7046 C   0  0  0  0  0  0  0  0  0  0  0  0
   -2.2690   -3.0706   -0.5919 C   0  0  0  0  0  0  0  0  0  0  0  0
   -0.6767   -2.1149    4.1776 C   0  0  0  0  0  0  0  0  0  0  0  0
   -1.4305    3.5742   -1.7712 F   0  0  0  0  0  0  0  0  0  0  0  0
   -2.8793    1.9508   -1.5982 F   0  0  0  0  0  0  0  0  0  0  0  0
   -3.2621    3.8693   -0.6259 F   0  0  0  0  0  0  0  0  0  0  0  0
    5.0338   -0.0645   -1.4515 F   0  0  0  0  0  0  0  0  0  0  0  0
    3.2571   -1.2055   -2.0196 F   0  0  0  0  0  0  0  0  0  0  0  0
    3.2414    0.9691   -2.1577 F   0  0  0  0  0  0  0  0  0  0  0  0
   -1.3994   -3.7628   -1.3683 F   0  0  0  0  0  0  0  0  0  0  0  0
   -3.2268   -3.9409   -0.1926 F   0  0  0  0  0  0  0  0  0  0  0  0
   -2.8560   -2.1375   -1.3687 F   0  0  0  0  0  0  0  0  0  0  0  0
    0.4629    0.1940    3.4548 H   0  0  0  0  0  0  0  0  0  0  0  0
   -2.3368    4.0193    1.8434 H   0  0  0  0  0  0  0  0  0  0  0  0
    0.3456    2.6179    4.1654 H   0  0  0  0  0  0  0  0  0  0  0  0
   -1.2346    3.4566    4.2743 H   0  0  0  0  0  0  0  0  0  0  0  0
   -1.1349    1.6839    4.5144 H   0  0  0  0  0  0  0  0  0  0  0  0
    5.0635    0.1370    1.2818 H   0  0  0  0  0  0  0  0  0  0  0  0
    4.3179    0.3041    3.9338 H   0  0  0  0  0  0  0  0  0  0  0  0
    2.7748    1.1935    4.1196 H   0  0  0  0  0  0  0  0  0  0  0  0
    2.7961   -0.5868    4.2467 H   0  0  0  0  0  0  0  0  0  0  0  0
   -2.2679   -3.8353    2.2727 H   0  0  0  0  0  0  0  0  0  0  0  0
   -1.1532   -3.0075    4.6228 H   0  0  0  0  0  0  0  0  0  0  0  0
    0.4058   -2.1482    4.4133 H   0  0  0  0  0  0  0  0  0  0  0  0
   -1.0943   -1.2177    4.6783 H   0  0  0  0  0  0  0  0  0  0  0  0
  1 32  1  1  0  0  0
  2  1  1  0  0  0  0
  2 10  1  0  0  0  0
  3  2  1  0  0  0  0
  4 15  1  0  0  0  0
  4  1  1  0  0  0  0
  5  4  1  0  0  0  0
  6  1  1  0  0  0  0
  6 20  1  0  0  0  0
  7 18  1  0  0  0  0
  7  6  1  0  0  0  0
  8 11  1  1  0  0  0
  8  3  1  0  0  0  0
  8  9  1  0  0  0  0
  9 33  1  0  0  0  0
  9 10  2  0  0  0  0
 10 12  1  0  0  0  0
 11 25  1  0  0  0  0
 12 34  1  0  0  0  0
 12 35  1  0  0  0  0
 12 36  1  0  0  0  0
 13 16  1  6  0  0  0
 13  5  1  0  0  0  0
 13 14  1  0  0  0  0
 14 37  1  0  0  0  0
 14 15  2  0  0  0  0
 15 17  1  0  0  0  0
 17 38  1  0  0  0  0
 17 39  1  0  0  0  0
 17 40  1  0  0  0  0
 18 21  1  1  0  0  0
 18 19  1  0  0  0  0
 19 41  1  0  0  0  0
 19 20  2  0  0  0  0
 20 22  1  0  0  0  0
 21 30  1  0  0  0  0
 22 43  1  0  0  0  0
 22 42  1  0  0  0  0
 22 44  1  0  0  0  0
 23 11  1  0  0  0  0
 24 11  1  0  0  0  0
 26 16  1  0  0  0  0
 27 16  1  0  0  0  0
 28 16  1  0  0  0  0
 29 21  1  0  0  0  0
 31 21  1  0  0  0  0
M  END
