1,18,28
 OpenBabel05122313063D

 31 33  0  0  1  0  0  0  0  0999 V2000
    0.7845   -2.1774   -0.4645 N   0  0  0  0  0  2  0  0  0  0  0  0
    1.7910   -3.0528   -0.5592 C   0  0  0  0  0  3  0  0  0  0  0  0
    2.7961   -2.6122   -0.6631 H   0  0  0  0  0  0  0  0  0  0  0  0
    1.5778   -4.4402   -0.5437 C   0  0  0  0  0  0  0  0  0  0  0  0
    2.4286   -5.1319   -0.6215 H   0  0  0  0  0  0  0  0  0  0  0  0
    0.2618   -4.9106   -0.4317 C   0  0  0  0  0  0  0  0  0  0  0  0
    0.0522   -5.9905   -0.4158 H   0  0  0  0  0  0  0  0  0  0  0  0
   -0.7909   -3.9887   -0.3508 C   0  0  0  0  0  0  0  0  0  0  0  0
   -1.8304   -4.3379   -0.2833 H   0  0  0  0  0  0  0  0  0  0  0  0
   -0.4887   -2.6151   -0.3727 C   0  0  0  0  0  0  0  0  0  0  0  0
   -1.5176   -1.5374   -0.3242 C   0  0  1  0  0  3  0  0  0  0  0  0
   -2.8827   -1.7603   -0.0906 C   0  0  0  0  0  0  0  0  0  0  0  0
   -3.2961   -2.7618    0.0823 H   0  0  0  0  0  0  0  0  0  0  0  0
   -3.7477   -0.6489   -0.0517 C   0  0  0  0  0  0  0  0  0  0  0  0
   -3.2215    0.6478   -0.2369 C   0  0  0  0  0  0  0  0  0  0  0  0
   -3.8755    1.5286   -0.1762 H   0  0  0  0  0  0  0  0  0  0  0  0
   -1.8421    0.7764   -0.4621 C   0  0  0  0  0  0  0  0  0  0  0  0
   -1.0401   -0.2971   -0.5236 N   0  0  0  0  0  2  0  0  0  0  0  0
   -1.1390    2.0822   -0.6170 C   0  0  1  0  0  3  0  0  0  0  0  0
   -1.7994    3.3107   -0.7994 C   0  0  0  0  0  0  0  0  0  0  0  0
   -2.8957    3.3580   -0.8560 H   0  0  0  0  0  0  0  0  0  0  0  0
   -1.0332    4.4771   -0.9246 C   0  0  0  0  0  0  0  0  0  0  0  0
   -1.5267    5.4492   -1.0725 H   0  0  0  0  0  0  0  0  0  0  0  0
    0.3645    4.3876   -0.8607 C   0  0  0  0  0  0  0  0  0  0  0  0
    1.0007    5.2794   -0.9519 H   0  0  0  0  0  0  0  0  0  0  0  0
    0.9447    3.1238   -0.6752 C   0  0  0  0  0  0  0  0  0  0  0  0
    2.0341    2.9847   -0.5955 H   0  0  0  0  0  0  0  0  0  0  0  0
    0.2093    2.0110   -0.5614 N   0  0  0  0  0  2  0  0  0  0  0  0
   -5.1035   -0.9092    0.1898 N   0  0  0  0  0  0  0  0  0  0  0  0
   -5.9167    0.0208    0.2559 N   0  0  0  0  0  4  0  0  0  0  0  0
   -6.7815    0.7723    0.3423 N   0  0  0  0  0  2  0  0  0  0  0  0
  1 10  1  0  0  0  0
  2  4  1  0  0  0  0
  2  1  1  0  0  0  0
  3  2  1  0  0  0  0
  4  6  2  0  0  0  0
  5  4  1  0  0  0  0
  6  7  1  0  0  0  0
  6  8  1  0  0  0  0
  8  9  1  0  0  0  0
 10  8  2  0  0  0  0
 11 10  1  1  0  0  0
 11 12  1  0  0  0  0
 12 14  2  0  0  0  0
 12 13  1  0  0  0  0
 14 29  1  0  0  0  0
 15 16  1  0  0  0  0
 15 14  1  0  0  0  0
 17 15  2  0  0  0  0
 18 17  1  0  0  0  0
 18 11  1  0  0  0  0
 19 28  1  0  0  0  0
 19 17  1  1  0  0  0
 20 19  1  0  0  0  0
 21 20  1  0  0  0  0
 22 24  1  0  0  0  0
 22 20  2  0  0  0  0
 23 22  1  0  0  0  0
 24 26  2  0  0  0  0
 25 24  1  0  0  0  0
 26 27  1  0  0  0  0
 26 28  1  0  0  0  0
 29 30  2  0  0  0  0
 30 31  2  0  0  0  0
M  END
