1,3,5
 OpenBabel05122313063D

 62 64  0  0  1  0  0  0  0  0999 V2000
   -0.3977    0.1753    1.8295 N   0  0  0  0  0  2  0  0  0  0  0  0
   -0.4886   -0.8307    2.7328 N   0  0  0  0  0  0  0  0  0  0  0  0
   -1.8501   -1.6671    0.1497 N   0  0  0  0  0  2  0  0  0  0  0  0
   -1.8059   -2.4116    1.2828 N   0  0  0  0  0  0  0  0  0  0  0  0
    1.0465   -2.0027    0.3369 N   0  0  0  0  0  2  0  0  0  0  0  0
    0.7067   -2.6838    1.4587 N   0  0  0  0  0  0  0  0  0  0  0  0
   -0.5813   -2.3019    2.2350 B   0  0  1  0  0  0  0  0  0  0  0  0
   -0.7243   -3.0454    3.1813 H   0  0  0  0  0  0  0  0  0  0  0  0
   -0.5916   -0.3261    4.0008 C   0  0  1  0  0  3  0  0  0  0  0  0
   -0.5678    1.0703    3.8943 C   0  0  0  0  0  0  0  0  0  0  0  0
   -0.6319    1.8024    4.7042 H   0  0  0  0  0  0  0  0  0  0  0  0
   -0.4540    1.3275    2.5145 C   0  0  0  0  0  0  0  0  0  0  0  0
   -0.7127   -1.1830    5.2181 C   0  0  0  0  0  0  0  0  0  0  0  0
    0.1421   -1.8823    5.3147 H   0  0  0  0  0  0  0  0  0  0  0  0
   -1.6378   -1.7945    5.2012 H   0  0  0  0  0  0  0  0  0  0  0  0
   -0.7399   -0.5476    6.1220 H   0  0  0  0  0  0  0  0  0  0  0  0
   -0.3917    2.6589    1.8223 C   0  0  0  0  0  0  0  0  0  0  0  0
    1.0352    3.2996    1.9067 C   0  0  0  0  0  0  0  0  0  0  0  0
    1.2885    4.4893    0.9311 C   0  0  0  0  0  0  0  0  0  0  0  0
   -2.9712   -3.1105    1.4464 C   0  0  1  0  0  3  0  0  0  0  0  0
   -3.7990   -2.7933    0.3628 C   0  0  0  0  0  0  0  0  0  0  0  0
   -4.8059   -3.1676    0.1586 H   0  0  0  0  0  0  0  0  0  0  0  0
   -3.0482   -1.8915   -0.4157 C   0  0  0  0  0  0  0  0  0  0  0  0
   -3.2282   -4.0231    2.6008 C   0  0  0  0  0  0  0  0  0  0  0  0
   -2.4708   -4.8302    2.6645 H   0  0  0  0  0  0  0  0  0  0  0  0
   -4.2224   -4.4934    2.4915 H   0  0  0  0  0  0  0  0  0  0  0  0
   -3.2116   -3.4794    3.5672 H   0  0  0  0  0  0  0  0  0  0  0  0
   -3.4775   -1.1837   -1.6690 C   0  0  0  0  0  0  0  0  0  0  0  0
   -3.9241    0.2901   -1.3835 C   0  0  0  0  0  0  0  0  0  0  0  0
   -4.1654    1.1765   -2.6436 C   0  0  0  0  0  0  0  0  0  0  0  0
    1.6047   -3.6880    1.6995 C   0  0  2  0  0  3  0  0  0  0  0  0
    2.5606   -3.6425    0.6771 C   0  0  0  0  0  0  0  0  0  0  0  0
    3.4271   -4.2963    0.5442 H   0  0  0  0  0  0  0  0  0  0  0  0
    2.1591   -2.5755   -0.1488 C   0  0  0  0  0  0  0  0  0  0  0  0
    1.5035   -4.6203    2.8619 C   0  0  0  0  0  0  0  0  0  0  0  0
    1.5247   -4.0763    3.8278 H   0  0  0  0  0  0  0  0  0  0  0  0
    2.3524   -5.3279    2.8486 H   0  0  0  0  0  0  0  0  0  0  0  0
    0.5645   -5.2096    2.8366 H   0  0  0  0  0  0  0  0  0  0  0  0
    2.8330   -2.0671   -1.3908 C   0  0  0  0  0  0  0  0  0  0  0  0
    4.0549   -1.1451   -1.0572 C   0  0  0  0  0  0  0  0  0  0  0  0
    4.5950   -0.2986   -2.2501 C   0  0  0  0  0  0  0  0  0  0  0  0
   -1.2641    3.5222    2.4158 F   0  0  0  0  0  0  0  0  0  0  0  0
   -0.7495    2.5286    0.5112 F   0  0  0  0  0  0  0  0  0  0  0  0
    1.1938    3.7567    3.1802 F   0  0  0  0  0  0  0  0  0  0  0  0
    1.9702    2.3519    1.6744 F   0  0  0  0  0  0  0  0  0  0  0  0
    1.3624    4.0669   -0.3332 F   0  0  0  0  0  0  0  0  0  0  0  0
    2.4482    5.0846    1.2614 F   0  0  0  0  0  0  0  0  0  0  0  0
    0.2961    5.3925    1.0408 F   0  0  0  0  0  0  0  0  0  0  0  0
   -2.4760   -1.1670   -2.5897 F   0  0  0  0  0  0  0  0  0  0  0  0
   -4.5475   -1.8389   -2.2064 F   0  0  0  0  0  0  0  0  0  0  0  0
   -2.9851    0.9049   -0.6179 F   0  0  0  0  0  0  0  0  0  0  0  0
   -5.0824    0.2327   -0.6758 F   0  0  0  0  0  0  0  0  0  0  0  0
   -3.0157    1.4562   -3.2592 F   0  0  0  0  0  0  0  0  0  0  0  0
   -4.9890    0.5470   -3.5020 F   0  0  0  0  0  0  0  0  0  0  0  0
   -4.7470    2.3272   -2.2590 F   0  0  0  0  0  0  0  0  0  0  0  0
    1.9466   -1.3752   -2.1639 F   0  0  0  0  0  0  0  0  0  0  0  0
    3.3013   -3.1199   -2.1194 F   0  0  0  0  0  0  0  0  0  0  0  0
    5.0614   -1.9545   -0.6242 F   0  0  0  0  0  0  0  0  0  0  0  0
    3.7234   -0.3026   -0.0534 F   0  0  0  0  0  0  0  0  0  0  0  0
    3.7339    0.6649   -2.5850 F   0  0  0  0  0  0  0  0  0  0  0  0
    5.7626    0.2643   -1.8916 F   0  0  0  0  0  0  0  0  0  0  0  0
    4.8107   -1.0924   -3.3159 F   0  0  0  0  0  0  0  0  0  0  0  0
  1 12  1  0  0  0  0
  1  2  1  0  0  0  0
  2  9  1  0  0  0  0
  3  4  1  0  0  0  0
  4 20  1  0  0  0  0
  4  7  1  0  0  0  0
  5  6  1  0  0  0  0
  6 31  1  0  0  0  0
  6  7  1  0  0  0  0
  7  2  1  0  0  0  0
  7  8  1  1  0  0  0
  9 13  1  6  0  0  0
 10  9  1  0  0  0  0
 10 11  1  0  0  0  0
 12 10  2  0  0  0  0
 13 14  1  0  0  0  0
 13 16  1  0  0  0  0
 15 13  1  0  0  0  0
 17 18  1  0  0  0  0
 17 42  1  0  0  0  0
 17 12  1  0  0  0  0
 18 44  1  0  0  0  0
 19 48  1  0  0  0  0
 19 47  1  0  0  0  0
 19 18  1  0  0  0  0
 20 24  1  6  0  0  0
 21 20  1  0  0  0  0
 22 21  1  0  0  0  0
 23  3  1  0  0  0  0
 23 21  2  0  0  0  0
 24 25  1  0  0  0  0
 24 27  1  0  0  0  0
 26 24  1  0  0  0  0
 28 29  1  0  0  0  0
 28 23  1  0  0  0  0
 29 52  1  0  0  0  0
 29 51  1  0  0  0  0
 30 55  1  0  0  0  0
 30 29  1  0  0  0  0
 31 35  1  6  0  0  0
 32 31  1  0  0  0  0
 33 32  1  0  0  0  0
 34  5  1  0  0  0  0
 34 32  2  0  0  0  0
 35 36  1  0  0  0  0
 37 35  1  0  0  0  0
 38 35  1  0  0  0  0
 39 40  1  0  0  0  0
 39 34  1  0  0  0  0
 40 58  1  0  0  0  0
 40 59  1  0  0  0  0
 41 61  1  0  0  0  0
 41 40  1  0  0  0  0
 43 17  1  0  0  0  0
 45 18  1  0  0  0  0
 46 19  1  0  0  0  0
 49 28  1  0  0  0  0
 50 28  1  0  0  0  0
 53 30  1  0  0  0  0
 54 30  1  0  0  0  0
 56 39  1  0  0  0  0
 57 39  1  0  0  0  0
 60 41  1  0  0  0  0
 62 41  1  0  0  0  0
M  END
