2,3,4
 OpenBabel05122313063D

 45 48  0  0  1  0  0  0  0  0999 V2000
    3.8761    1.0623   -0.2942 O   0  0  0  0  0  0  0  0  0  0  0  0
    0.3270    1.6083   -0.1219 N   0  0  0  0  0  2  0  0  0  0  0  0
    2.0111   -0.1977   -0.0510 N   0  0  0  0  0  2  0  0  0  0  0  0
   -1.7840    0.3696    0.1063 N   0  0  0  0  0  2  0  0  0  0  0  0
   -0.7660    2.4449   -0.0844 C   0  0  0  0  0  0  0  0  0  0  0  0
   -2.8901   -0.5321   -0.0189 C   0  0  0  0  0  0  0  0  0  0  0  0
    3.0981   -1.0622   -0.0734 C   0  0  0  0  0  0  0  0  0  0  0  0
    2.5239    1.0288   -0.1818 C   0  0  2  0  0  3  0  0  0  0  0  0
   -1.9930    1.6854    0.0291 C   0  0  0  0  0  0  0  0  0  0  0  0
   -0.5898    3.8355   -0.2050 C   0  0  0  0  0  0  0  0  0  0  0  0
   -1.4683    4.4951   -0.1827 H   0  0  0  0  0  0  0  0  0  0  0  0
    4.2598   -0.2660   -0.2205 C   0  0  0  0  0  0  0  0  0  0  0  0
    1.8191    3.5067   -0.3517 C   0  0  0  0  0  0  0  0  0  0  0  0
    2.8451    3.8891   -0.4394 H   0  0  0  0  0  0  0  0  0  0  0  0
   -3.4314   -1.1626    1.1277 C   0  0  0  0  0  0  0  0  0  0  0  0
   -4.4524   -1.7029   -1.4546 C   0  0  0  0  0  0  0  0  0  0  0  0
   -4.8446   -1.9164   -2.4612 H   0  0  0  0  0  0  0  0  0  0  0  0
   -3.3959   -0.7843   -1.3216 C   0  0  0  0  0  0  0  0  0  0  0  0
    5.5477   -0.7942   -0.2777 C   0  0  0  0  0  0  0  0  0  0  0  0
    6.4337   -0.1551   -0.3910 H   0  0  0  0  0  0  0  0  0  0  0  0
    0.7053    4.3637   -0.3465 C   0  0  0  0  0  0  0  0  0  0  0  0
    0.8483    5.4492   -0.4419 H   0  0  0  0  0  0  0  0  0  0  0  0
    1.6034    2.1263   -0.2250 C   0  0  0  0  0  0  0  0  0  0  0  0
   -3.3378    2.3420    0.0005 C   0  0  0  0  0  0  0  0  0  0  0  0
   -4.1441    1.6036    0.1599 H   0  0  0  0  0  0  0  0  0  0  0  0
   -3.5174    2.8530   -0.9694 H   0  0  0  0  0  0  0  0  0  0  0  0
   -3.4042    3.1168    0.7922 H   0  0  0  0  0  0  0  0  0  0  0  0
   -2.8203   -0.0880   -2.5273 C   0  0  0  0  0  0  0  0  0  0  0  0
   -1.7137   -0.1304   -2.5092 H   0  0  0  0  0  0  0  0  0  0  0  0
   -3.1166    0.9822   -2.5681 H   0  0  0  0  0  0  0  0  0  0  0  0
   -3.1738   -0.5643   -3.4613 H   0  0  0  0  0  0  0  0  0  0  0  0
   -5.0000   -2.3430   -0.3358 C   0  0  0  0  0  0  0  0  0  0  0  0
   -5.8261   -3.0596   -0.4590 H   0  0  0  0  0  0  0  0  0  0  0  0
    3.1949   -2.4597    0.0152 C   0  0  0  0  0  0  0  0  0  0  0  0
    2.2866   -3.0698    0.1050 H   0  0  0  0  0  0  0  0  0  0  0  0
    5.6344   -2.1941   -0.1818 C   0  0  0  0  0  0  0  0  0  0  0  0
    6.6256   -2.6696   -0.2210 H   0  0  0  0  0  0  0  0  0  0  0  0
   -4.4954   -2.0659    0.9405 C   0  0  0  0  0  0  0  0  0  0  0  0
   -4.9306   -2.5566    1.8251 H   0  0  0  0  0  0  0  0  0  0  0  0
    4.4842   -3.0063   -0.0397 C   0  0  0  0  0  0  0  0  0  0  0  0
    4.6082   -4.0974    0.0252 H   0  0  0  0  0  0  0  0  0  0  0  0
   -2.9021   -0.8735    2.5048 C   0  0  0  0  0  0  0  0  0  0  0  0
   -1.8777   -1.2773    2.6371 H   0  0  0  0  0  0  0  0  0  0  0  0
   -3.5608   -1.3084    3.2804 H   0  0  0  0  0  0  0  0  0  0  0  0
   -2.8020    0.2147    2.6920 H   0  0  0  0  0  0  0  0  0  0  0  0
  1 12  1  0  0  0  0
  1  8  1  0  0  0  0
  2  5  1  0  0  0  0
  5  9  2  0  0  0  0
  6  4  1  0  0  0  0
  6 15  1  0  0  0  0
  7  3  1  0  0  0  0
  7 34  1  0  0  0  0
  8 23  1  6  0  0  0
  8  3  1  0  0  0  0
  9  4  1  0  0  0  0
 10 11  1  0  0  0  0
 10  5  1  0  0  0  0
 12  7  2  0  0  0  0
 13 21  1  0  0  0  0
 13 23  2  0  0  0  0
 14 13  1  0  0  0  0
 15 42  1  0  0  0  0
 16 18  1  0  0  0  0
 16 32  2  0  0  0  0
 17 16  1  0  0  0  0
 18  6  2  0  0  0  0
 19 12  1  0  0  0  0
 19 36  2  0  0  0  0
 20 19  1  0  0  0  0
 21 10  2  0  0  0  0
 22 21  1  0  0  0  0
 23  2  1  0  0  0  0
 24  9  1  0  0  0  0
 24 25  1  0  0  0  0
 24 27  1  0  0  0  0
 26 24  1  0  0  0  0
 28 29  1  0  0  0  0
 28 18  1  0  0  0  0
 30 28  1  0  0  0  0
 31 28  1  0  0  0  0
 32 38  1  0  0  0  0
 33 32  1  0  0  0  0
 34 35  1  0  0  0  0
 36 40  1  0  0  0  0
 37 36  1  0  0  0  0
 38 15  2  0  0  0  0
 38 39  1  0  0  0  0
 40 34  2  0  0  0  0
 40 41  1  0  0  0  0
 42 43  1  0  0  0  0
 42 45  1  0  0  0  0
 42 44  1  0  0  0  0
M  END
