1,14,25
 OpenBabel05122313063D

 33 33  0  0  0  0  0  0  0  0999 V2000
   -1.6679   -0.3979   -0.0284 N   0  0  0  0  0  2  0  0  0  0  0  0
   -2.5266   -1.3979    0.2806 C   0  0  0  0  0  3  0  0  0  0  0  0
   -2.0707   -2.3584    0.5569 H   0  0  0  0  0  0  0  0  0  0  0  0
   -3.9126   -1.2181    0.2438 C   0  0  0  0  0  0  0  0  0  0  0  0
   -4.5718   -2.0595    0.4991 H   0  0  0  0  0  0  0  0  0  0  0  0
   -4.4293    0.0342   -0.1119 C   0  0  0  0  0  0  0  0  0  0  0  0
   -5.5149    0.2067   -0.1430 H   0  0  0  0  0  0  0  0  0  0  0  0
   -3.5361    1.0725   -0.4192 C   0  0  0  0  0  0  0  0  0  0  0  0
   -3.9032    2.0720   -0.6932 H   0  0  0  0  0  0  0  0  0  0  0  0
   -2.1593    0.8352   -0.3785 C   0  0  0  0  0  0  0  0  0  0  0  0
   -1.1248    1.8817   -0.7463 C   0  0  0  0  0  0  0  0  0  0  0  0
   -0.8105    1.7155   -1.7985 H   0  0  0  0  0  0  0  0  0  0  0  0
   -1.5630    2.9025   -0.6804 H   0  0  0  0  0  0  0  0  0  0  0  0
    0.0745    1.7285    0.1145 N   0  0  0  0  0  0  0  0  0  0  0  0
   -0.1819    2.2649    1.4675 C   0  0  0  0  0  0  0  0  0  0  0  0
   -0.3190    3.3689    1.4372 H   0  0  0  0  0  0  0  0  0  0  0  0
    0.6568    2.0205    2.1435 H   0  0  0  0  0  0  0  0  0  0  0  0
   -1.0942    1.7979    1.8825 H   0  0  0  0  0  0  0  0  0  0  0  0
    1.3558    2.2113   -0.4608 C   0  0  0  0  0  0  0  0  0  0  0  0
    1.5016    3.3017   -0.2860 H   0  0  0  0  0  0  0  0  0  0  0  0
    1.3185    2.0552   -1.5570 H   0  0  0  0  0  0  0  0  0  0  0  0
    2.5220    1.4395    0.1569 C   0  0  0  0  0  0  0  0  0  0  0  0
    3.4891    1.8094   -0.2470 H   0  0  0  0  0  0  0  0  0  0  0  0
    2.5459    1.6054    1.2512 H   0  0  0  0  0  0  0  0  0  0  0  0
    2.4204   -0.0522   -0.0638 N   0  0  0  0  0  0  0  0  0  0  0  0
    2.9424   -0.4006   -1.4155 C   0  0  0  0  0  0  0  0  0  0  0  0
    4.0206   -0.1398   -1.4851 H   0  0  0  0  0  0  0  0  0  0  0  0
    2.3776    0.1454   -2.1922 H   0  0  0  0  0  0  0  0  0  0  0  0
    2.8135   -1.4830   -1.5894 H   0  0  0  0  0  0  0  0  0  0  0  0
    3.2267   -0.7572    0.9694 C   0  0  0  0  0  0  0  0  0  0  0  0
    4.2887   -0.4349    0.9158 H   0  0  0  0  0  0  0  0  0  0  0  0
    3.1683   -1.8458    0.7953 H   0  0  0  0  0  0  0  0  0  0  0  0
    2.8177   -0.5339    1.9713 H   0  0  0  0  0  0  0  0  0  0  0  0
  1  2  1  0  0  0  0
  2  3  1  0  0  0  0
  4  2  1  0  0  0  0
  4  5  1  0  0  0  0
  6  4  2  0  0  0  0
  7  6  1  0  0  0  0
  8 10  2  0  0  0  0
  8  6  1  0  0  0  0
  9  8  1  0  0  0  0
 10  1  1  0  0  0  0
 11 13  1  0  0  0  0
 11 10  1  0  0  0  0
 11 14  1  0  0  0  0
 12 11  1  0  0  0  0
 14 15  1  0  0  0  0
 15 18  1  0  0  0  0
 15 17  1  0  0  0  0
 16 15  1  0  0  0  0
 19 20  1  0  0  0  0
 19 14  1  0  0  0  0
 19 22  1  0  0  0  0
 21 19  1  0  0  0  0
 22 24  1  0  0  0  0
 23 22  1  0  0  0  0
 25 22  1  0  0  0  0
 25 30  1  0  0  0  0
 26 25  1  0  0  0  0
 27 26  1  0  0  0  0
 28 26  1  0  0  0  0
 29 26  1  0  0  0  0
 30 33  1  0  0  0  0
 31 30  1  0  0  0  0
 32 30  1  0  0  0  0
M  END
