1,4,5
 OpenBabel05122313063D

 55 58  0  0  1  0  0  0  0  0999 V2000
    1.3926   -0.7766    0.1589 N   0  0  0  0  0  2  0  0  0  0  0  0
   -1.4461    2.8308    0.9760 C   0  0  0  0  0  3  0  0  0  0  0  0
   -0.4196    3.2236    0.9336 H   0  0  0  0  0  0  0  0  0  0  0  0
   -1.6628   -1.1486    1.0028 N   0  0  0  0  0  2  0  0  0  0  0  0
   -1.5694    1.5061    0.7926 N   0  0  0  0  0  2  0  0  0  0  0  0
    1.7781    1.8721   -0.5712 N   0  0  0  0  0  0  0  0  0  0  0  0
   -2.7912    0.9056    0.8697 C   0  0  0  0  0  0  0  0  0  0  0  0
   -4.6509   -2.2475    1.0389 C   0  0  0  0  0  0  0  0  0  0  0  0
   -4.2043   -2.5249    2.0061 H   0  0  0  0  0  0  0  0  0  0  0  0
   -1.4309   -2.5549    0.7712 C   0  0  0  0  0  0  0  0  0  0  0  0
   -2.2522   -3.0645    0.2165 H   0  0  0  0  0  0  0  0  0  0  0  0
   -1.3553   -3.0492    1.7676 H   0  0  0  0  0  0  0  0  0  0  0  0
   -4.0454   -1.2365    0.2607 C   0  0  0  0  0  0  0  0  0  0  0  0
   -3.9482    1.6797    1.0822 C   0  0  0  0  0  0  0  0  0  0  0  0
   -4.9236    1.1760    1.1295 H   0  0  0  0  0  0  0  0  0  0  0  0
    3.6920   -1.3740   -0.4243 C   0  0  0  0  0  0  0  0  0  0  0  0
   -2.7967   -0.5680    0.7277 C   0  0  1  0  0  3  0  0  0  0  0  0
   -4.6319   -0.8693   -0.9717 C   0  0  0  0  0  0  0  0  0  0  0  0
   -4.1544   -0.0977   -1.5993 H   0  0  0  0  0  0  0  0  0  0  0  0
    3.0127    3.5248   -1.8236 C   0  0  0  0  0  0  0  0  0  0  0  0
    3.0711    4.5573   -2.1982 H   0  0  0  0  0  0  0  0  0  0  0  0
    3.8982    1.2951   -1.5750 C   0  0  0  0  0  0  0  0  0  0  0  0
    4.6728    0.5374   -1.7556 H   0  0  0  0  0  0  0  0  0  0  0  0
   -0.1033   -2.7719    0.0244 C   0  0  0  0  0  0  0  0  0  0  0  0
   -0.2011   -2.4012   -1.0163 H   0  0  0  0  0  0  0  0  0  0  0  0
    0.0714   -3.8660   -0.0344 H   0  0  0  0  0  0  0  0  0  0  0  0
   -2.5552    3.6513    1.2060 C   0  0  0  0  0  0  0  0  0  0  0  0
   -2.4159    4.7333    1.3378 H   0  0  0  0  0  0  0  0  0  0  0  0
    4.0304    2.5961   -2.0767 C   0  0  0  0  0  0  0  0  0  0  0  0
    4.9191    2.8783   -2.6608 H   0  0  0  0  0  0  0  0  0  0  0  0
    5.8693   -3.1432   -0.5860 C   0  0  0  0  0  0  0  0  0  0  0  0
    6.7215   -3.8369   -0.6484 H   0  0  0  0  0  0  0  0  0  0  0  0
   -6.3950   -2.5153   -0.6326 C   0  0  0  0  0  0  0  0  0  0  0  0
   -7.3118   -3.0144   -0.9819 H   0  0  0  0  0  0  0  0  0  0  0  0
    3.8634   -2.1801   -1.5682 C   0  0  0  0  0  0  0  0  0  0  0  0
    3.1397   -2.1119   -2.3951 H   0  0  0  0  0  0  0  0  0  0  0  0
   -5.8215   -2.8797    0.5963 C   0  0  0  0  0  0  0  0  0  0  0  0
   -6.2894   -3.6604    1.2152 H   0  0  0  0  0  0  0  0  0  0  0  0
    4.6148   -1.4521    0.6387 C   0  0  0  0  0  0  0  0  0  0  0  0
    4.4639   -0.8175    1.5289 H   0  0  0  0  0  0  0  0  0  0  0  0
    4.9512   -3.0629   -1.6455 C   0  0  0  0  0  0  0  0  0  0  0  0
    5.0811   -3.6920   -2.5391 H   0  0  0  0  0  0  0  0  0  0  0  0
    1.9082    3.1068   -1.0602 C   0  0  0  0  0  0  0  0  0  0  0  0
    1.0904    3.8135   -0.8329 H   0  0  0  0  0  0  0  0  0  0  0  0
    2.5416   -0.4212   -0.3332 C   0  0  1  0  0  3  0  0  0  0  0  0
    5.6983   -2.3392    0.5527 C   0  0  0  0  0  0  0  0  0  0  0  0
    6.4148   -2.4017    1.3857 H   0  0  0  0  0  0  0  0  0  0  0  0
    1.1358   -2.1215    0.6692 C   0  0  0  0  0  0  0  0  0  0  0  0
    0.9958   -2.0205    1.7678 H   0  0  0  0  0  0  0  0  0  0  0  0
    2.0283   -2.7570    0.5045 H   0  0  0  0  0  0  0  0  0  0  0  0
    2.7422    0.9654   -0.8342 C   0  0  0  0  0  0  0  0  0  0  0  0
   -3.8308    3.0629    1.2483 C   0  0  0  0  0  0  0  0  0  0  0  0
   -4.7257    3.6792    1.4202 H   0  0  0  0  0  0  0  0  0  0  0  0
   -5.7962   -1.5137   -1.4140 C   0  0  0  0  0  0  0  0  0  0  0  0
   -6.2355   -1.2309   -2.3827 H   0  0  0  0  0  0  0  0  0  0  0  0
  1 48  1  0  0  0  0
  2 27  1  0  0  0  0
  3  2  1  0  0  0  0
  5  7  1  0  0  0  0
  5  2  1  0  0  0  0
  7 14  2  0  0  0  0
  8  9  1  0  0  0  0
 10  4  1  0  0  0  0
 10 12  1  0  0  0  0
 11 10  1  0  0  0  0
 13 17  1  0  0  0  0
 13  8  2  0  0  0  0
 14 15  1  0  0  0  0
 14 52  1  0  0  0  0
 16 45  1  0  0  0  0
 16 39  1  0  0  0  0
 17  7  1  0  0  0  0
 17  4  1  6  0  0  0
 18 13  1  0  0  0  0
 19 18  1  0  0  0  0
 20 43  1  0  0  0  0
 21 20  1  0  0  0  0
 22 51  2  0  0  0  0
 23 22  1  0  0  0  0
 24 48  1  0  0  0  0
 24 10  1  0  0  0  0
 25 24  1  0  0  0  0
 26 24  1  0  0  0  0
 27 52  2  0  0  0  0
 27 28  1  0  0  0  0
 29 20  2  0  0  0  0
 29 22  1  0  0  0  0
 30 29  1  0  0  0  0
 31 46  1  0  0  0  0
 32 31  1  0  0  0  0
 33 37  2  0  0  0  0
 34 33  1  0  0  0  0
 35 16  2  0  0  0  0
 36 35  1  0  0  0  0
 37  8  1  0  0  0  0
 37 38  1  0  0  0  0
 39 40  1  0  0  0  0
 41 35  1  0  0  0  0
 41 31  2  0  0  0  0
 42 41  1  0  0  0  0
 43 44  1  0  0  0  0
 43  6  2  0  0  0  0
 45  1  1  6  0  0  0
 46 39  2  0  0  0  0
 46 47  1  0  0  0  0
 48 49  1  0  0  0  0
 50 48  1  0  0  0  0
 51  6  1  0  0  0  0
 51 45  1  0  0  0  0
 52 53  1  0  0  0  0
 54 18  2  0  0  0  0
 54 33  1  0  0  0  0
 55 54  1  0  0  0  0
M  END
