1,2,3
 OpenBabel05122313063D

 73 75  0  0  1  0  0  0  0  0999 V2000
    0.0802    2.1205   -0.4906 N   0  0  0  0  0  2  0  0  0  0  0  0
   -1.5608    0.3613   -0.1783 N   0  0  0  0  0  2  0  0  0  0  0  0
    1.9815    1.1178    0.6473 N   0  0  0  0  0  2  0  0  0  0  0  0
   -3.6174   -2.2701    1.4687 C   0  0  0  0  0  0  0  0  0  0  0  0
   -4.0797   -2.4771    2.4456 H   0  0  0  0  0  0  0  0  0  0  0  0
    1.1323    3.0042   -0.4151 C   0  0  0  0  0  0  0  0  0  0  0  0
    3.0483   -1.0832    0.5513 C   0  0  0  0  0  0  0  0  0  0  0  0
    2.0078   -1.4842    0.6197 H   0  0  0  0  0  0  0  0  0  0  0  0
   -2.8915   -1.0788    1.2898 C   0  0  0  0  0  0  0  0  0  0  0  0
    2.2612    2.3584    0.2253 C   0  0  0  0  0  0  0  0  0  0  0  0
   -2.4238   -1.7694   -1.0472 C   0  0  0  0  0  0  0  0  0  0  0  0
    3.0216    0.2861    1.2681 C   0  0  2  0  0  0  0  0  0  0  0  0
    4.0178    0.7547    1.1066 H   0  0  0  0  0  0  0  0  0  0  0  0
   -2.3142   -0.8337    0.0175 C   0  0  0  0  0  0  0  0  0  0  0  0
   -1.1533    2.5038   -0.9659 C   0  0  0  0  0  0  0  0  0  0  0  0
    4.0030   -2.0869    1.2192 C   0  0  0  0  0  0  0  0  0  0  0  0
    5.0252   -1.6423    1.2607 H   0  0  0  0  0  0  0  0  0  0  0  0
    3.6980   -2.2705    2.2692 H   0  0  0  0  0  0  0  0  0  0  0  0
   -3.1560   -2.9477   -0.8149 C   0  0  0  0  0  0  0  0  0  0  0  0
   -3.2574   -3.6892   -1.6202 H   0  0  0  0  0  0  0  0  0  0  0  0
   -1.6849   -1.5246   -2.3587 C   0  0  0  0  0  0  0  0  0  0  0  0
   -1.7875   -0.4459   -2.6041 H   0  0  0  0  0  0  0  0  0  0  0  0
   -0.2614    4.7043   -1.4463 C   0  0  0  0  0  0  0  0  0  0  0  0
   -0.3904    5.7245   -1.8360 H   0  0  0  0  0  0  0  0  0  0  0  0
    2.7666    0.2092    2.7777 C   0  0  0  0  0  0  0  0  0  0  0  0
    2.6983    1.2288    3.2075 H   0  0  0  0  0  0  0  0  0  0  0  0
    3.5843   -0.3272    3.2965 H   0  0  0  0  0  0  0  0  0  0  0  0
    1.8030   -0.3044    2.9652 H   0  0  0  0  0  0  0  0  0  0  0  0
   -3.7575   -3.1951    0.4268 C   0  0  0  0  0  0  0  0  0  0  0  0
   -4.3325   -4.1204    0.5839 H   0  0  0  0  0  0  0  0  0  0  0  0
   -2.0950    1.4167   -0.8147 C   0  0  2  0  0  3  0  0  0  0  0  0
   -1.3429    3.8038   -1.4707 C   0  0  0  0  0  0  0  0  0  0  0  0
   -2.3224    4.1056   -1.8679 H   0  0  0  0  0  0  0  0  0  0  0  0
    3.4719   -2.2441   -1.6887 C   0  0  0  0  0  0  0  0  0  0  0  0
    3.7629   -2.0722   -2.7465 H   0  0  0  0  0  0  0  0  0  0  0  0
    2.4578   -2.6989   -1.7149 H   0  0  0  0  0  0  0  0  0  0  0  0
    4.0636   -3.4200    0.4613 C   0  0  0  0  0  0  0  0  0  0  0  0
    4.7798   -4.1074    0.9590 H   0  0  0  0  0  0  0  0  0  0  0  0
    3.0666   -3.9119    0.5184 H   0  0  0  0  0  0  0  0  0  0  0  0
    0.9786    4.3160   -0.9052 C   0  0  0  0  0  0  0  0  0  0  0  0
    1.8148    5.0279   -0.8600 H   0  0  0  0  0  0  0  0  0  0  0  0
   -2.7300   -0.0615    2.4097 C   0  0  0  0  0  0  0  0  0  0  0  0
   -1.8325    0.5369    2.1428 H   0  0  0  0  0  0  0  0  0  0  0  0
   -3.5037    1.4884   -1.3154 C   0  0  0  0  0  0  0  0  0  0  0  0
   -3.5328    1.5052   -2.4266 H   0  0  0  0  0  0  0  0  0  0  0  0
   -3.9979    2.4201   -0.9691 H   0  0  0  0  0  0  0  0  0  0  0  0
   -4.0980    0.6222   -0.9710 H   0  0  0  0  0  0  0  0  0  0  0  0
    3.5911    3.0349    0.3870 C   0  0  0  0  0  0  0  0  0  0  0  0
    3.9286    3.0416    1.4439 H   0  0  0  0  0  0  0  0  0  0  0  0
    3.5428    4.0839    0.0427 H   0  0  0  0  0  0  0  0  0  0  0  0
    4.3829    2.5271   -0.2043 H   0  0  0  0  0  0  0  0  0  0  0  0
    3.4007   -0.9098   -0.9379 C   0  0  0  0  0  0  0  0  0  0  0  0
    2.6558   -0.2387   -1.4137 H   0  0  0  0  0  0  0  0  0  0  0  0
    4.3876   -0.3950   -1.0121 H   0  0  0  0  0  0  0  0  0  0  0  0
   -3.9384    0.8882    2.4777 C   0  0  0  0  0  0  0  0  0  0  0  0
   -4.1035    1.4079    1.5130 H   0  0  0  0  0  0  0  0  0  0  0  0
   -3.7884    1.6625    3.2583 H   0  0  0  0  0  0  0  0  0  0  0  0
   -4.8687    0.3329    2.7220 H   0  0  0  0  0  0  0  0  0  0  0  0
   -2.2390   -2.3167   -3.5476 C   0  0  0  0  0  0  0  0  0  0  0  0
   -2.0687   -3.4072   -3.4321 H   0  0  0  0  0  0  0  0  0  0  0  0
   -1.7302   -2.0077   -4.4827 H   0  0  0  0  0  0  0  0  0  0  0  0
   -3.3281   -2.1553   -3.6794 H   0  0  0  0  0  0  0  0  0  0  0  0
    4.4391   -3.2209   -1.0112 C   0  0  0  0  0  0  0  0  0  0  0  0
    4.4504   -4.1943   -1.5456 H   0  0  0  0  0  0  0  0  0  0  0  0
    5.4752   -2.8168   -1.0737 H   0  0  0  0  0  0  0  0  0  0  0  0
   -0.1817   -1.7951   -2.1632 C   0  0  0  0  0  0  0  0  0  0  0  0
   -0.0080   -2.8524   -1.8756 H   0  0  0  0  0  0  0  0  0  0  0  0
    0.2323   -1.1462   -1.3568 H   0  0  0  0  0  0  0  0  0  0  0  0
    0.3895   -1.5849   -3.0907 H   0  0  0  0  0  0  0  0  0  0  0  0
   -2.4471   -0.7137    3.7682 C   0  0  0  0  0  0  0  0  0  0  0  0
   -3.3104   -1.3028    4.1427 H   0  0  0  0  0  0  0  0  0  0  0  0
   -2.2290    0.0639    4.5285 H   0  0  0  0  0  0  0  0  0  0  0  0
   -1.5694   -1.3875    3.7060 H   0  0  0  0  0  0  0  0  0  0  0  0
  1  6  1  0  0  0  0
  2 14  1  0  0  0  0
  3 12  1  0  0  0  0
  4  5  1  0  0  0  0
  6 10  2  0  0  0  0
  7  8  1  0  0  0  0
  7 16  1  0  0  0  0
  7 12  1  0  0  0  0
  9  4  1  0  0  0  0
  9 42  1  0  0  0  0
 10 48  1  0  0  0  0
 10  3  1  0  0  0  0
 11 19  2  0  0  0  0
 11 14  1  0  0  0  0
 12 13  1  6  0  0  0
 12 25  1  0  0  0  0
 14  9  2  0  0  0  0
 15 31  1  0  0  0  0
 15  1  1  0  0  0  0
 16 17  1  0  0  0  0
 16 18  1  0  0  0  0
 19 29  1  0  0  0  0
 20 19  1  0  0  0  0
 21 66  1  0  0  0  0
 21 11  1  0  0  0  0
 22 21  1  0  0  0  0
 23 40  2  0  0  0  0
 24 23  1  0  0  0  0
 25 28  1  0  0  0  0
 25 26  1  0  0  0  0
 25 27  1  0  0  0  0
 29 30  1  0  0  0  0
 29  4  2  0  0  0  0
 31  2  1  1  0  0  0
 32 23  1  0  0  0  0
 32 15  2  0  0  0  0
 33 32  1  0  0  0  0
 34 63  1  0  0  0  0
 34 52  1  0  0  0  0
 35 34  1  0  0  0  0
 36 34  1  0  0  0  0
 37 39  1  0  0  0  0
 37 38  1  0  0  0  0
 37 16  1  0  0  0  0
 40 41  1  0  0  0  0
 40  6  1  0  0  0  0
 42 55  1  0  0  0  0
 42 70  1  0  0  0  0
 43 42  1  0  0  0  0
 44 47  1  0  0  0  0
 44 46  1  0  0  0  0
 44 31  1  0  0  0  0
 45 44  1  0  0  0  0
 48 49  1  0  0  0  0
 50 48  1  0  0  0  0
 51 48  1  0  0  0  0
 52  7  1  0  0  0  0
 53 52  1  0  0  0  0
 54 52  1  0  0  0  0
 55 58  1  0  0  0  0
 55 57  1  0  0  0  0
 56 55  1  0  0  0  0
 59 60  1  0  0  0  0
 59 21  1  0  0  0  0
 61 59  1  0  0  0  0
 62 59  1  0  0  0  0
 63 37  1  0  0  0  0
 64 63  1  0  0  0  0
 65 63  1  0  0  0  0
 66 67  1  0  0  0  0
 66 68  1  0  0  0  0
 69 66  1  0  0  0  0
 70 71  1  0  0  0  0
 70 72  1  0  0  0  0
 73 70  1  0  0  0  0
M  END
