1,7,48
 OpenBabel05122313063D

 56 59  0  0  1  0  0  0  0  0999 V2000
    0.0098   -1.2353    0.0693 N   0  0  0  0  0  0  0  0  0  0  0  0
    0.0063   -1.6095   -0.8954 H   0  0  0  0  0  0  0  0  0  0  0  0
   -1.3336   -0.7122    0.3471 C   0  0  1  0  0  0  0  0  0  0  0  0
   -1.3971   -0.5345    1.4413 H   0  0  0  0  0  0  0  0  0  0  0  0
   -1.5458    0.6574   -0.3627 C   0  0  2  0  0  0  0  0  0  0  0  0
   -1.4915    0.4671   -1.4580 H   0  0  0  0  0  0  0  0  0  0  0  0
   -0.4316    1.5315   -0.0119 N   0  0  0  0  0  0  0  0  0  0  0  0
   -0.3420    1.6404    1.0158 H   0  0  0  0  0  0  0  0  0  0  0  0
    0.3698   -2.3339    1.0044 C   0  0  0  0  0  0  0  0  0  0  0  0
    0.4317   -1.8741    2.0111 H   0  0  0  0  0  0  0  0  0  0  0  0
   -0.4347   -3.1054    1.0132 H   0  0  0  0  0  0  0  0  0  0  0  0
    1.6864   -2.9714    0.6405 C   0  0  0  0  0  0  0  0  0  0  0  0
    2.8755   -2.5718    1.2792 C   0  0  0  0  0  0  0  0  0  0  0  0
    2.8300   -1.7905    2.0544 H   0  0  0  0  0  0  0  0  0  0  0  0
    4.1025   -3.1352    0.9031 C   0  0  0  0  0  0  0  0  0  0  0  0
    5.0280   -2.8095    1.4017 H   0  0  0  0  0  0  0  0  0  0  0  0
    4.1551   -4.0954   -0.1182 C   0  0  0  0  0  0  0  0  0  0  0  0
    5.1208   -4.5302   -0.4187 H   0  0  0  0  0  0  0  0  0  0  0  0
    2.9738   -4.4971   -0.7617 C   0  0  0  0  0  0  0  0  0  0  0  0
    3.0106   -5.2490   -1.5650 H   0  0  0  0  0  0  0  0  0  0  0  0
    1.7460   -3.9390   -0.3804 C   0  0  0  0  0  0  0  0  0  0  0  0
    0.8164   -4.2533   -0.8838 H   0  0  0  0  0  0  0  0  0  0  0  0
   -2.4185   -1.6870   -0.0866 C   0  0  0  0  0  0  0  0  0  0  0  0
   -2.2187   -2.2508   -1.2927 N   0  0  0  0  0  0  0  0  0  0  0  0
   -3.1456   -3.0978   -1.7636 C   0  0  0  0  0  0  0  0  0  0  0  0
   -2.9449   -3.5435   -2.7540 H   0  0  0  0  0  0  0  0  0  0  0  0
   -4.3176   -3.4228   -1.0610 C   0  0  0  0  0  0  0  0  0  0  0  0
   -5.0475   -4.1245   -1.4907 H   0  0  0  0  0  0  0  0  0  0  0  0
   -4.5234   -2.8345    0.1953 C   0  0  0  0  0  0  0  0  0  0  0  0
   -5.4263   -3.0632    0.7818 H   0  0  0  0  0  0  0  0  0  0  0  0
   -3.5568   -1.9512    0.6946 C   0  0  0  0  0  0  0  0  0  0  0  0
   -3.6806   -1.4610    1.6716 H   0  0  0  0  0  0  0  0  0  0  0  0
   -2.9191    1.2256   -0.0369 C   0  0  0  0  0  0  0  0  0  0  0  0
   -3.9653    1.1629   -0.9753 C   0  0  0  0  0  0  0  0  0  0  0  0
   -3.7731    0.7215   -1.9662 H   0  0  0  0  0  0  0  0  0  0  0  0
   -5.2448    1.6415   -0.6544 C   0  0  0  0  0  0  0  0  0  0  0  0
   -6.0534    1.5843   -1.3989 H   0  0  0  0  0  0  0  0  0  0  0  0
   -5.4918    2.1925    0.6125 C   0  0  0  0  0  0  0  0  0  0  0  0
   -6.4939    2.5704    0.8658 H   0  0  0  0  0  0  0  0  0  0  0  0
   -4.4528    2.2631    1.5554 C   0  0  0  0  0  0  0  0  0  0  0  0
   -4.6388    2.6957    2.5503 H   0  0  0  0  0  0  0  0  0  0  0  0
   -3.1755    1.7822    1.2324 C   0  0  0  0  0  0  0  0  0  0  0  0
   -2.3682    1.8385    1.9817 H   0  0  0  0  0  0  0  0  0  0  0  0
   -0.3519    2.8128   -0.6917 C   0  0  0  0  0  0  0  0  0  0  0  0
   -1.0942    3.5600   -0.3261 H   0  0  0  0  0  0  0  0  0  0  0  0
   -0.5891    2.6465   -1.7670 H   0  0  0  0  0  0  0  0  0  0  0  0
    1.0533    3.3844   -0.6007 C   0  0  1  0  0  3  0  0  0  0  0  0
    2.0353    2.5027   -0.3569 N   0  0  0  0  0  2  0  0  0  0  0  0
    3.3176    2.9004   -0.3437 C   0  0  0  0  0  0  0  0  0  0  0  0
    4.0557    2.0973   -0.1814 H   0  0  0  0  0  0  0  0  0  0  0  0
    3.6796    4.2363   -0.5532 C   0  0  0  0  0  0  0  0  0  0  0  0
    4.7377    4.5339   -0.5309 H   0  0  0  0  0  0  0  0  0  0  0  0
    2.6617    5.1744   -0.7891 C   0  0  0  0  0  0  0  0  0  0  0  0
    2.9065    6.2350   -0.9526 H   0  0  0  0  0  0  0  0  0  0  0  0
    1.3282    4.7459   -0.8173 C   0  0  0  0  0  0  0  0  0  0  0  0
    0.5062    5.4529   -1.0066 H   0  0  0  0  0  0  0  0  0  0  0  0
  1  3  1  0  0  0  0
  1  9  1  0  0  0  0
  2  1  1  0  0  0  0
  3  4  1  1  0  0  0
  5  6  1  6  0  0  0
  5 33  1  0  0  0  0
  5  7  1  0  0  0  0
  5  3  1  0  0  0  0
  7  8  1  0  0  0  0
  9 11  1  0  0  0  0
  9 10  1  0  0  0  0
 12  9  1  0  0  0  0
 12 13  1  0  0  0  0
 13 14  1  0  0  0  0
 15 13  2  0  0  0  0
 15 16  1  0  0  0  0
 17 15  1  0  0  0  0
 18 17  1  0  0  0  0
 19 21  1  0  0  0  0
 19 17  2  0  0  0  0
 20 19  1  0  0  0  0
 21 12  2  0  0  0  0
 22 21  1  0  0  0  0
 23  3  1  0  0  0  0
 23 31  1  0  0  0  0
 24 23  2  0  0  0  0
 25 24  1  0  0  0  0
 25 27  2  0  0  0  0
 26 25  1  0  0  0  0
 27 29  1  0  0  0  0
 28 27  1  0  0  0  0
 29 31  2  0  0  0  0
 29 30  1  0  0  0  0
 31 32  1  0  0  0  0
 33 42  1  0  0  0  0
 34 36  1  0  0  0  0
 34 33  2  0  0  0  0
 35 34  1  0  0  0  0
 36 38  2  0  0  0  0
 37 36  1  0  0  0  0
 38 39  1  0  0  0  0
 38 40  1  0  0  0  0
 40 41  1  0  0  0  0
 42 40  2  0  0  0  0
 42 43  1  0  0  0  0
 44 45  1  0  0  0  0
 44  7  1  0  0  0  0
 46 44  1  0  0  0  0
 47 44  1  6  0  0  0
 47 48  1  0  0  0  0
 48 49  1  0  0  0  0
 49 50  1  0  0  0  0
 51 52  1  0  0  0  0
 51 49  2  0  0  0  0
 53 51  1  0  0  0  0
 54 53  1  0  0  0  0
 55 53  2  0  0  0  0
 55 47  1  0  0  0  0
 56 55  1  0  0  0  0
M  END
