29,30,32
 OpenBabel05122313063D

 34 35  0  0  1  0  0  0  0  0999 V2000
   -3.2105    1.1796   -0.4130 C   0  0  0  0  0  3  0  0  0  0  0  0
   -3.6729    0.1781   -0.4596 H   0  0  0  0  0  0  0  0  0  0  0  0
   -3.9532    2.3598   -0.5555 C   0  0  0  0  0  0  0  0  0  0  0  0
   -5.0419    2.3144   -0.7021 H   0  0  0  0  0  0  0  0  0  0  0  0
   -3.2709    3.5848   -0.5148 C   0  0  0  0  0  0  0  0  0  0  0  0
   -3.8176    4.5334   -0.6277 H   0  0  0  0  0  0  0  0  0  0  0  0
   -1.8795    3.5881   -0.3431 C   0  0  0  0  0  0  0  0  0  0  0  0
   -1.3113    4.5303   -0.3245 H   0  0  0  0  0  0  0  0  0  0  0  0
   -1.2093    2.3611   -0.1977 C   0  0  0  0  0  0  0  0  0  0  0  0
    0.2874    2.2750    0.0266 C   0  0  0  0  0  0  0  0  0  0  0  0
    0.7543    3.2490   -0.2471 H   0  0  0  0  0  0  0  0  0  0  0  0
    0.4612    2.1075    1.1160 H   0  0  0  0  0  0  0  0  0  0  0  0
    2.2647    0.8140   -0.3626 C   0  0  2  0  0  0  0  0  0  0  0  0
    2.3387    0.8008    0.7493 H   0  0  0  0  0  0  0  0  0  0  0  0
    3.2467    1.8534   -0.9333 C   0  0  0  0  0  0  0  0  0  0  0  0
    3.0896    1.9140   -2.0356 H   0  0  0  0  0  0  0  0  0  0  0  0
    3.0021    2.8561   -0.5256 H   0  0  0  0  0  0  0  0  0  0  0  0
    4.7115    1.5070   -0.6493 C   0  0  0  0  0  0  0  0  0  0  0  0
    5.3793    2.2744   -1.0922 H   0  0  0  0  0  0  0  0  0  0  0  0
    4.8880    1.5333    0.4489 H   0  0  0  0  0  0  0  0  0  0  0  0
    5.0521    0.1133   -1.1848 C   0  0  0  0  0  0  0  0  0  0  0  0
    6.1026   -0.1545   -0.9489 H   0  0  0  0  0  0  0  0  0  0  0  0
    4.9713    0.1142   -2.2949 H   0  0  0  0  0  0  0  0  0  0  0  0
    4.0977   -0.9342   -0.6045 C   0  0  0  0  0  0  0  0  0  0  0  0
    4.3217   -1.9433   -1.0107 H   0  0  0  0  0  0  0  0  0  0  0  0
    4.2461   -0.9990    0.4975 H   0  0  0  0  0  0  0  0  0  0  0  0
    2.6147   -0.6102   -0.8616 C   0  0  1  0  0  0  0  0  0  0  0  0
    2.4323   -0.6286   -1.9614 H   0  0  0  0  0  0  0  0  0  0  0  0
   -1.8809    1.1945   -0.2291 N   0  0  0  0  0  2  0  0  0  0  0  0
    0.8595    1.1208   -0.6678 N   0  0  0  0  0  0  0  0  0  0  0  0
    0.7343    1.2199   -1.6852 H   0  0  0  0  0  0  0  0  0  0  0  0
    1.7126   -1.6016   -0.2608 N   0  0  0  0  0  0  0  0  0  0  0  0
    1.9599   -1.7623    0.7285 H   0  0  0  0  0  0  0  0  0  0  0  0
    1.7601   -2.5049   -0.7476 H   0  0  0  0  0  0  0  0  0  0  0  0
  1 29  1  0  0  0  0
  2  1  1  0  0  0  0
  3  5  2  0  0  0  0
  3  1  1  0  0  0  0
  4  3  1  0  0  0  0
  5  7  1  0  0  0  0
  6  5  1  0  0  0  0
  7  8  1  0  0  0  0
  7  9  2  0  0  0  0
  9 10  1  0  0  0  0
 10 12  1  0  0  0  0
 11 10  1  0  0  0  0
 13 14  1  1  0  0  0
 15 18  1  0  0  0  0
 15 17  1  0  0  0  0
 15 13  1  0  0  0  0
 16 15  1  0  0  0  0
 18 20  1  0  0  0  0
 19 18  1  0  0  0  0
 21 22  1  0  0  0  0
 21 18  1  0  0  0  0
 21 24  1  0  0  0  0
 23 21  1  0  0  0  0
 24 26  1  0  0  0  0
 25 24  1  0  0  0  0
 27 28  1  6  0  0  0
 27 24  1  0  0  0  0
 27 13  1  0  0  0  0
 27 32  1  0  0  0  0
 29  9  1  0  0  0  0
 30 13  1  0  0  0  0
 30 10  1  0  0  0  0
 31 30  1  0  0  0  0
 32 33  1  0  0  0  0
 34 32  1  0  0  0  0
M  END
