1,2,5
 OpenBabel05122313063D

 45 47  0  0  0  0  0  0  0  0999 V2000
   -0.0060   -1.9197    1.1755 N   0  0  0  0  0  2  0  0  0  0  0  0
   -1.9782   -1.1187   -0.2115 N   0  0  0  0  0  2  0  0  0  0  0  0
   -5.5606   -0.7863   -2.5001 O   0  0  0  0  0  0  0  0  0  0  0  0
    5.7091   -0.7517   -2.2486 O   0  0  0  0  0  0  0  0  0  0  0  0
    2.0472   -1.1289   -0.0985 N   0  0  0  0  0  2  0  0  0  0  0  0
    2.3123   -1.8751    0.9575 C   0  0  0  0  0  0  0  0  0  0  0  0
    3.3450   -2.1261    1.2511 H   0  0  0  0  0  0  0  0  0  0  0  0
    1.1789   -2.3584    1.7159 C   0  0  0  0  0  0  0  0  0  0  0  0
   -1.2239   -2.3011    1.6840 C   0  0  0  0  0  0  0  0  0  0  0  0
   -2.3095   -1.8132    0.8612 C   0  0  0  0  0  3  0  0  0  0  0  0
   -3.3594   -2.0442    1.1075 H   0  0  0  0  0  0  0  0  0  0  0  0
   -2.9961   -0.7104   -1.1840 C   0  0  0  0  0  0  0  0  0  0  0  0
   -2.4781    0.0067   -1.8514 H   0  0  0  0  0  0  0  0  0  0  0  0
   -4.2320   -0.0216   -0.5907 C   0  0  0  0  0  0  0  0  0  0  0  0
   -4.7632   -0.6982    0.1122 H   0  0  0  0  0  0  0  0  0  0  0  0
   -3.9358    0.8936   -0.0359 H   0  0  0  0  0  0  0  0  0  0  0  0
   -5.1876    0.3437   -1.7333 C   0  0  0  0  0  0  0  0  0  0  0  0
   -6.1251    0.7851   -1.3389 H   0  0  0  0  0  0  0  0  0  0  0  0
   -4.6990    1.1149   -2.3828 H   0  0  0  0  0  0  0  0  0  0  0  0
   -4.4332   -1.4142   -3.0991 C   0  0  0  0  0  0  0  0  0  0  0  0
   -3.9278   -0.7071   -3.8046 H   0  0  0  0  0  0  0  0  0  0  0  0
   -4.8266   -2.2611   -3.6960 H   0  0  0  0  0  0  0  0  0  0  0  0
   -3.4235   -1.9013   -2.0604 C   0  0  0  0  0  0  0  0  0  0  0  0
   -2.5269   -2.3467   -2.5377 H   0  0  0  0  0  0  0  0  0  0  0  0
   -3.8909   -2.6820   -1.4220 H   0  0  0  0  0  0  0  0  0  0  0  0
   -1.2751   -3.0993    2.8401 C   0  0  0  0  0  0  0  0  0  0  0  0
   -2.2491   -3.3928    3.2561 H   0  0  0  0  0  0  0  0  0  0  0  0
   -0.0736   -3.5256    3.4315 C   0  0  0  0  0  0  0  0  0  0  0  0
   -0.1011   -4.1554    4.3322 H   0  0  0  0  0  0  0  0  0  0  0  0
    1.1614   -3.1703    2.8639 C   0  0  0  0  0  0  0  0  0  0  0  0
    2.1089   -3.5204    3.2974 H   0  0  0  0  0  0  0  0  0  0  0  0
    3.1189   -0.6726   -0.9861 C   0  0  0  0  0  0  0  0  0  0  0  0
    2.6627    0.1402   -1.5858 H   0  0  0  0  0  0  0  0  0  0  0  0
    3.5022   -1.7850   -1.9789 C   0  0  0  0  0  0  0  0  0  0  0  0
    3.9035   -2.6568   -1.4184 H   0  0  0  0  0  0  0  0  0  0  0  0
    2.5966   -2.1211   -2.5230 H   0  0  0  0  0  0  0  0  0  0  0  0
    4.5663   -1.2485   -2.9356 C   0  0  0  0  0  0  0  0  0  0  0  0
    4.9298   -2.0485   -3.6109 H   0  0  0  0  0  0  0  0  0  0  0  0
    4.1183   -0.4435   -3.5716 H   0  0  0  0  0  0  0  0  0  0  0  0
    5.3746    0.3078   -1.3716 C   0  0  0  0  0  0  0  0  0  0  0  0
    4.9426    1.1685   -1.9436 H   0  0  0  0  0  0  0  0  0  0  0  0
    6.3230    0.6542   -0.9131 H   0  0  0  0  0  0  0  0  0  0  0  0
    4.3729   -0.1258   -0.2941 C   0  0  0  0  0  0  0  0  0  0  0  0
    4.8531   -0.9047    0.3359 H   0  0  0  0  0  0  0  0  0  0  0  0
    4.1128    0.7362    0.3562 H   0  0  0  0  0  0  0  0  0  0  0  0
  1  9  1  0  0  0  0
  1  8  1  0  0  0  0
  2 10  1  0  0  0  0
  3 17  1  0  0  0  0
  4 40  1  0  0  0  0
  5  6  1  0  0  0  0
  6  7  1  0  0  0  0
  6  8  2  0  0  0  0
  8 30  1  0  0  0  0
  9 26  2  0  0  0  0
 10 11  1  0  0  0  0
 10  9  1  0  0  0  0
 12 14  1  0  0  0  0
 12  2  1  0  0  0  0
 13 12  1  0  0  0  0
 14 16  1  0  0  0  0
 14 15  1  0  0  0  0
 17 18  1  0  0  0  0
 17 14  1  0  0  0  0
 19 17  1  0  0  0  0
 20  3  1  0  0  0  0
 20 23  1  0  0  0  0
 21 20  1  0  0  0  0
 22 20  1  0  0  0  0
 23 25  1  0  0  0  0
 23 12  1  0  0  0  0
 24 23  1  0  0  0  0
 26 27  1  0  0  0  0
 26 28  1  0  0  0  0
 28 29  1  0  0  0  0
 30 31  1  0  0  0  0
 30 28  2  0  0  0  0
 32 43  1  0  0  0  0
 32  5  1  0  0  0  0
 33 32  1  0  0  0  0
 34 35  1  0  0  0  0
 34 32  1  0  0  0  0
 36 34  1  0  0  0  0
 37  4  1  0  0  0  0
 37 34  1  0  0  0  0
 38 37  1  0  0  0  0
 39 37  1  0  0  0  0
 40 42  1  0  0  0  0
 40 43  1  0  0  0  0
 41 40  1  0  0  0  0
 43 44  1  0  0  0  0
 43 45  1  0  0  0  0
M  END
