1,2,4
 OpenBabel05122313063D

 36 39  0  0  1  0  0  0  0  0999 V2000
   -2.5798    0.4634   -0.2134 N   0  0  0  0  0  2  0  0  0  0  0  0
    0.3079    0.4718   -0.8597 N   0  0  0  0  0  2  0  0  0  0  0  0
    2.1574    1.5799   -0.3236 N   0  0  0  0  0  0  0  0  0  0  0  0
    1.1802   -1.9615   -0.2055 N   0  0  0  0  0  2  0  0  0  0  0  0
   -3.6384   -0.0108    0.4706 C   0  0  0  0  0  3  0  0  0  0  0  0
   -3.6330   -1.0993    0.6496 H   0  0  0  0  0  0  0  0  0  0  0  0
   -4.6823    0.8109    0.9117 C   0  0  0  0  0  0  0  0  0  0  0  0
   -5.5298    0.3779    1.4615 H   0  0  0  0  0  0  0  0  0  0  0  0
   -4.6064    2.1839    0.6428 C   0  0  0  0  0  0  0  0  0  0  0  0
   -5.3967    2.8692    0.9851 H   0  0  0  0  0  0  0  0  0  0  0  0
   -3.5063    2.6740   -0.0732 C   0  0  0  0  0  0  0  0  0  0  0  0
   -3.4200    3.7448   -0.3102 H   0  0  0  0  0  0  0  0  0  0  0  0
   -2.5082    1.7798   -0.5010 C   0  0  0  0  0  0  0  0  0  0  0  0
   -1.3539    2.2629   -1.3665 C   0  0  0  0  0  0  0  0  0  0  0  0
   -1.5513    1.9052   -2.4028 H   0  0  0  0  0  0  0  0  0  0  0  0
   -1.3706    3.3679   -1.4103 H   0  0  0  0  0  0  0  0  0  0  0  0
    0.0053    1.7916   -0.9529 C   0  0  0  0  0  0  0  0  0  0  0  0
    1.1525    2.5381   -0.6244 C   0  0  0  0  0  0  0  0  0  0  0  0
    1.4679    3.9167   -0.5323 C   0  0  0  0  0  0  0  0  0  0  0  0
    0.6964    4.6535   -0.7962 H   0  0  0  0  0  0  0  0  0  0  0  0
    2.7203    4.3048   -0.0946 C   0  0  0  0  0  0  0  0  0  0  0  0
    2.9770    5.3702   -0.0127 H   0  0  0  0  0  0  0  0  0  0  0  0
    3.6736    3.3111    0.2905 C   0  0  0  0  0  0  0  0  0  0  0  0
    4.6492    3.6024    0.7025 H   0  0  0  0  0  0  0  0  0  0  0  0
    3.3805    1.9731    0.1848 C   0  0  0  0  0  0  0  0  0  0  0  0
    4.0490    1.1786    0.5305 H   0  0  0  0  0  0  0  0  0  0  0  0
    1.5941    0.3311   -0.4839 C   0  0  1  0  0  3  0  0  0  0  0  0
    2.1465   -1.0057   -0.2700 C   0  0  2  0  0  3  0  0  0  0  0  0
    3.5143   -1.3411   -0.1831 C   0  0  0  0  0  0  0  0  0  0  0  0
    4.2958   -0.5791   -0.2938 H   0  0  0  0  0  0  0  0  0  0  0  0
    3.8680   -2.6813    0.0070 C   0  0  0  0  0  0  0  0  0  0  0  0
    4.9292   -2.9636    0.0763 H   0  0  0  0  0  0  0  0  0  0  0  0
    2.8624   -3.6544    0.0981 C   0  0  0  0  0  0  0  0  0  0  0  0
    3.1010   -4.7167    0.2468 H   0  0  0  0  0  0  0  0  0  0  0  0
    1.5260   -3.2450   -0.0234 C   0  0  0  0  0  0  0  0  0  0  0  0
    0.6999   -3.9749    0.0119 H   0  0  0  0  0  0  0  0  0  0  0  0
  1  5  1  0  0  0  0
  3 25  1  0  0  0  0
  4 35  1  0  0  0  0
  5  6  1  0  0  0  0
  5  7  1  0  0  0  0
  7  8  1  0  0  0  0
  9  7  2  0  0  0  0
  9 10  1  0  0  0  0
 11  9  1  0  0  0  0
 12 11  1  0  0  0  0
 13  1  1  0  0  0  0
 13 11  2  0  0  0  0
 14 17  1  0  0  0  0
 14 13  1  0  0  0  0
 15 14  1  0  0  0  0
 16 14  1  0  0  0  0
 17  2  1  0  0  0  0
 17 18  2  0  0  0  0
 18 19  1  0  0  0  0
 18  3  1  0  0  0  0
 19 21  2  0  0  0  0
 20 19  1  0  0  0  0
 21 22  1  0  0  0  0
 21 23  1  0  0  0  0
 23 24  1  0  0  0  0
 25 23  2  0  0  0  0
 25 26  1  0  0  0  0
 27  2  1  1  0  0  0
 27  3  1  0  0  0  0
 27 28  1  0  0  0  0
 28  4  1  6  0  0  0
 28 29  1  0  0  0  0
 29 31  2  0  0  0  0
 30 29  1  0  0  0  0
 31 32  1  0  0  0  0
 31 33  1  0  0  0  0
 33 34  1  0  0  0  0
 35 36  1  0  0  0  0
 35 33  2  0  0  0  0
M  END
