7,21,24
 OpenBabel05122313063D

 71 73  0  0  0  0  0  0  0  0999 V2000
   -1.0408   -2.3361    1.4938 O   0  0  0  0  0  0  0  0  0  0  0  0
   -0.3055   -2.0846    2.6879 C   0  0  0  0  0  0  0  0  0  0  0  0
   -0.6913   -0.7648    3.3378 C   0  0  0  0  0  0  0  0  0  0  0  0
   -0.3787    0.2852    2.4356 O   0  0  0  0  0  0  0  0  0  0  0  0
   -0.9314    1.5478    2.7855 C   0  0  0  0  0  0  0  0  0  0  0  0
   -0.2563    2.6189    1.9441 C   0  0  0  0  0  0  0  0  0  0  0  0
   -0.4208    2.4304    0.4915 N   0  0  0  0  0  0  0  0  0  0  0  0
    0.7084    3.0333   -0.2461 C   0  0  0  0  0  0  0  0  0  0  0  0
    2.0787    2.5060    0.1324 C   0  0  0  0  0  0  0  0  0  0  0  0
    2.3372    1.1278    0.2703 C   0  0  0  0  0  0  0  0  0  0  0  0
    3.6203    0.6586    0.5832 C   0  0  0  0  0  0  0  0  0  0  0  0
    4.6757    1.5686    0.7574 C   0  0  0  0  0  0  0  0  0  0  0  0
    4.4342    2.9444    0.6234 C   0  0  0  0  0  0  0  0  0  0  0  0
    3.1447    3.4080    0.3187 C   0  0  0  0  0  0  0  0  0  0  0  0
   -1.7114    2.9652    0.0303 C   0  0  0  0  0  0  0  0  0  0  0  0
   -2.3748   -2.7825    1.7012 C   0  0  0  0  0  0  0  0  0  0  0  0
   -3.1906   -2.4923    0.4611 C   0  0  0  0  0  0  0  0  0  0  0  0
   -3.2214   -1.0874    0.2624 O   0  0  0  0  0  0  0  0  0  0  0  0
   -4.0318   -0.6806   -0.8245 C   0  0  0  0  0  0  0  0  0  0  0  0
   -3.7881    0.7933   -1.1127 C   0  0  0  0  0  0  0  0  0  0  0  0
   -2.4148    1.1084   -1.5318 N   0  0  0  0  0  0  0  0  0  0  0  0
   -2.1065    0.6123   -2.8805 C   0  0  0  0  0  0  0  0  0  0  0  0
   -0.6158    0.3891   -3.1338 C   0  0  0  0  0  0  0  0  0  0  0  0
   -0.0288   -0.6272   -2.2496 N   0  0  0  0  0  0  0  0  0  0  0  0
    1.4163   -0.7765   -2.4690 C   0  0  0  0  0  0  0  0  0  0  0  0
    2.0850   -1.8293   -1.6127 C   0  0  0  0  0  0  0  0  0  0  0  0
    3.4706   -2.0400   -1.7749 C   0  0  0  0  0  0  0  0  0  0  0  0
    4.1496   -2.9819   -0.9920 C   0  0  0  0  0  0  0  0  0  0  0  0
    3.4532   -3.7356   -0.0308 C   0  0  0  0  0  0  0  0  0  0  0  0
    2.0756   -3.5381    0.1327 C   0  0  0  0  0  0  0  0  0  0  0  0
    1.3948   -2.5911   -0.6533 C   0  0  0  0  0  0  0  0  0  0  0  0
   -2.1233    2.5436   -1.3832 C   0  0  0  0  0  0  0  0  0  0  0  0
   -0.4318   -2.9145    3.4200 H   0  0  0  0  0  0  0  0  0  0  0  0
    0.7607   -2.0517    2.3846 H   0  0  0  0  0  0  0  0  0  0  0  0
   -1.7782   -0.7477    3.5900 H   0  0  0  0  0  0  0  0  0  0  0  0
   -0.1288   -0.6407    4.2933 H   0  0  0  0  0  0  0  0  0  0  0  0
   -2.0403    1.5298    2.6479 H   0  0  0  0  0  0  0  0  0  0  0  0
   -0.7363    1.7732    3.8589 H   0  0  0  0  0  0  0  0  0  0  0  0
   -0.6214    3.6239    2.2686 H   0  0  0  0  0  0  0  0  0  0  0  0
    0.8275    2.5813    2.1668 H   0  0  0  0  0  0  0  0  0  0  0  0
    0.5403    2.8480   -1.3279 H   0  0  0  0  0  0  0  0  0  0  0  0
    0.7026    4.1450   -0.1208 H   0  0  0  0  0  0  0  0  0  0  0  0
    1.5133    0.4013    0.1512 H   0  0  0  0  0  0  0  0  0  0  0  0
    3.7919   -0.4236    0.6832 H   0  0  0  0  0  0  0  0  0  0  0  0
    5.6852    1.2054    1.0019 H   0  0  0  0  0  0  0  0  0  0  0  0
    5.2535    3.6654    0.7639 H   0  0  0  0  0  0  0  0  0  0  0  0
    2.9616    4.4903    0.2244 H   0  0  0  0  0  0  0  0  0  0  0  0
   -1.7063    4.0842    0.0665 H   0  0  0  0  0  0  0  0  0  0  0  0
   -2.4908    2.6372    0.7484 H   0  0  0  0  0  0  0  0  0  0  0  0
   -2.3937   -3.8769    1.9146 H   0  0  0  0  0  0  0  0  0  0  0  0
   -2.8443   -2.2586    2.5640 H   0  0  0  0  0  0  0  0  0  0  0  0
   -4.2193   -2.9008    0.6001 H   0  0  0  0  0  0  0  0  0  0  0  0
   -2.7425   -3.0015   -0.4271 H   0  0  0  0  0  0  0  0  0  0  0  0
   -3.8178   -1.3101   -1.7220 H   0  0  0  0  0  0  0  0  0  0  0  0
   -5.1128   -0.8257   -0.5883 H   0  0  0  0  0  0  0  0  0  0  0  0
   -4.5352    1.1350   -1.8725 H   0  0  0  0  0  0  0  0  0  0  0  0
   -4.0010    1.3583   -0.1830 H   0  0  0  0  0  0  0  0  0  0  0  0
   -2.6326   -0.3533   -3.0250 H   0  0  0  0  0  0  0  0  0  0  0  0
   -2.5055    1.2966   -3.6689 H   0  0  0  0  0  0  0  0  0  0  0  0
   -0.4800    0.1272   -4.2101 H   0  0  0  0  0  0  0  0  0  0  0  0
   -0.0490    1.3313   -2.9782 H   0  0  0  0  0  0  0  0  0  0  0  0
   -0.4807   -1.5338   -2.4390 H   0  0  0  0  0  0  0  0  0  0  0  0
    1.6314   -0.9920   -3.5441 H   0  0  0  0  0  0  0  0  0  0  0  0
    1.8884    0.2079   -2.2567 H   0  0  0  0  0  0  0  0  0  0  0  0
    4.0256   -1.4507   -2.5223 H   0  0  0  0  0  0  0  0  0  0  0  0
    5.2306   -3.1312   -1.1327 H   0  0  0  0  0  0  0  0  0  0  0  0
    3.9852   -4.4791    0.5813 H   0  0  0  0  0  0  0  0  0  0  0  0
    1.5123   -4.1296    0.8704 H   0  0  0  0  0  0  0  0  0  0  0  0
    0.3155   -2.4556   -0.4864 H   0  0  0  0  0  0  0  0  0  0  0  0
   -1.3187    2.8121   -2.0945 H   0  0  0  0  0  0  0  0  0  0  0  0
   -3.0040    3.1599   -1.6868 H   0  0  0  0  0  0  0  0  0  0  0  0
  1 16  1  0  0  0  0
  1  2  1  0  0  0  0
  2  3  1  0  0  0  0
  2 33  1  0  0  0  0
  3 35  1  0  0  0  0
  3 36  1  0  0  0  0
  4  5  1  0  0  0  0
  4  3  1  0  0  0  0
  5 38  1  0  0  0  0
  6 40  1  0  0  0  0
  6 39  1  0  0  0  0
  6  5  1  0  0  0  0
  7  6  1  0  0  0  0
  8 42  1  0  0  0  0
  8  9  1  0  0  0  0
  8  7  1  0  0  0  0
  9 10  2  0  0  0  0
  9 14  1  0  0  0  0
 10 11  1  0  0  0  0
 11 44  1  0  0  0  0
 11 12  2  0  0  0  0
 12 45  1  0  0  0  0
 13 12  1  0  0  0  0
 13 46  1  0  0  0  0
 14 13  2  0  0  0  0
 15 48  1  0  0  0  0
 15  7  1  0  0  0  0
 15 49  1  0  0  0  0
 16 50  1  0  0  0  0
 16 51  1  0  0  0  0
 17 52  1  0  0  0  0
 17 16  1  0  0  0  0
 18 17  1  0  0  0  0
 19 55  1  0  0  0  0
 19 18  1  0  0  0  0
 20 19  1  0  0  0  0
 20 57  1  0  0  0  0
 21 32  1  0  0  0  0
 21 20  1  0  0  0  0
 22 21  1  0  0  0  0
 23 61  1  0  0  0  0
 23 22  1  0  0  0  0
 23 24  1  0  0  0  0
 25 64  1  0  0  0  0
 25 24  1  0  0  0  0
 25 26  1  0  0  0  0
 26 31  1  0  0  0  0
 27 26  2  0  0  0  0
 27 28  1  0  0  0  0
 28 29  2  0  0  0  0
 29 30  1  0  0  0  0
 29 67  1  0  0  0  0
 30 68  1  0  0  0  0
 31 69  1  0  0  0  0
 31 30  2  0  0  0  0
 32 15  1  0  0  0  0
 34  2  1  0  0  0  0
 37  5  1  0  0  0  0
 41  8  1  0  0  0  0
 43 10  1  0  0  0  0
 47 14  1  0  0  0  0
 53 17  1  0  0  0  0
 54 19  1  0  0  0  0
 56 20  1  0  0  0  0
 58 22  1  0  0  0  0
 59 22  1  0  0  0  0
 60 23  1  0  0  0  0
 62 24  1  0  0  0  0
 63 25  1  0  0  0  0
 65 27  1  0  0  0  0
 66 28  1  0  0  0  0
 70 32  1  0  0  0  0
 71 32  1  0  0  0  0
M  END
