1,2,3
 OpenBabel05122313063D

 42 44  0  0  1  0  0  0  0  0999 V2000
   -2.7550   -0.0931    0.2975 N   0  0  0  0  0  2  0  0  0  0  0  0
   -0.5388   -1.3357   -0.7101 N   0  0  0  0  0  0  0  0  0  0  0  0
    0.8562    1.0053   -1.0784 N   0  0  0  0  0  2  0  0  0  0  0  0
   -3.6720    0.5103    1.0870 C   0  0  0  0  0  3  0  0  0  0  0  0
   -3.4472    1.5552    1.3525 H   0  0  0  0  0  0  0  0  0  0  0  0
   -4.8229   -0.1665    1.5043 C   0  0  0  0  0  0  0  0  0  0  0  0
   -5.5528    0.3539    2.1400 H   0  0  0  0  0  0  0  0  0  0  0  0
   -5.0170   -1.4960    1.1073 C   0  0  0  0  0  0  0  0  0  0  0  0
   -5.9087   -2.0526    1.4307 H   0  0  0  0  0  0  0  0  0  0  0  0
   -4.0554   -2.1155    0.2913 C   0  0  0  0  0  0  0  0  0  0  0  0
   -4.1776   -3.1573   -0.0377 H   0  0  0  0  0  0  0  0  0  0  0  0
   -2.9332   -1.3884   -0.1115 C   0  0  0  0  0  0  0  0  0  0  0  0
   -1.8772   -1.9124   -1.0611 C   0  0  0  0  0  0  0  0  0  0  0  0
   -2.1267   -1.5727   -2.0879 H   0  0  0  0  0  0  0  0  0  0  0  0
   -1.8490   -3.0226   -1.0619 H   0  0  0  0  0  0  0  0  0  0  0  0
    0.4366   -1.2770   -1.8514 C   0  0  0  0  0  0  0  0  0  0  0  0
   -0.1560   -1.1188   -2.7763 H   0  0  0  0  0  0  0  0  0  0  0  0
    0.9908   -2.2329   -1.9506 H   0  0  0  0  0  0  0  0  0  0  0  0
    1.3839   -0.1071   -1.6781 C   0  0  1  0  0  3  0  0  0  0  0  0
    2.7077   -0.1096   -2.1226 C   0  0  0  0  0  0  0  0  0  0  0  0
    3.1212   -1.0144   -2.5892 H   0  0  0  0  0  0  0  0  0  0  0  0
    3.4940    1.0403   -1.9479 C   0  0  0  0  0  0  0  0  0  0  0  0
    4.5410    1.0491   -2.2845 H   0  0  0  0  0  0  0  0  0  0  0  0
    2.9332    2.1688   -1.3359 C   0  0  0  0  0  0  0  0  0  0  0  0
    3.5170    3.0853   -1.1754 H   0  0  0  0  0  0  0  0  0  0  0  0
    1.6041    2.1183   -0.9067 C   0  0  0  0  0  0  0  0  0  0  0  0
    1.0910    2.9573   -0.4122 H   0  0  0  0  0  0  0  0  0  0  0  0
    0.0311   -2.0819    0.4869 C   0  0  0  0  0  0  0  0  0  0  0  0
   -0.6534   -1.8818    1.3332 H   0  0  0  0  0  0  0  0  0  0  0  0
   -0.0108   -3.1640    0.2459 H   0  0  0  0  0  0  0  0  0  0  0  0
    1.4434   -1.6921    0.8211 C   0  0  0  0  0  0  0  0  0  0  0  0
    2.5199   -2.5053    0.3875 C   0  0  0  0  0  0  0  0  0  0  0  0
    2.2136   -3.6330   -0.3194 O   0  0  0  0  0  0  0  0  0  0  0  0
    3.0251   -4.1543   -0.4701 H   0  0  0  0  0  0  0  0  0  0  0  0
    3.8458   -2.1167    0.6540 C   0  0  0  0  0  0  0  0  0  0  0  0
    4.6806   -2.7586    0.3298 H   0  0  0  0  0  0  0  0  0  0  0  0
    4.1138   -0.9072    1.3043 C   0  0  0  0  0  0  0  0  0  0  0  0
    5.1498   -0.5912    1.4904 H   0  0  0  0  0  0  0  0  0  0  0  0
    3.0469   -0.0899    1.7193 C   0  0  0  0  0  0  0  0  0  0  0  0
    3.3636    1.4521    2.4582 Cl  0  0  0  0  0  0  0  0  0  0  0  0
    1.7237   -0.4993    1.5113 C   0  0  0  0  0  0  0  0  0  0  0  0
    0.8952    0.1410    1.8494 H   0  0  0  0  0  0  0  0  0  0  0  0
  1  4  1  0  0  0  0
  2 28  1  0  0  0  0
  3 26  1  0  0  0  0
  4  5  1  0  0  0  0
  4  6  1  0  0  0  0
  6  7  1  0  0  0  0
  8  9  1  0  0  0  0
  8  6  2  0  0  0  0
 10  8  1  0  0  0  0
 11 10  1  0  0  0  0
 12 10  2  0  0  0  0
 12  1  1  0  0  0  0
 13  2  1  0  0  0  0
 13 12  1  0  0  0  0
 14 13  1  0  0  0  0
 15 13  1  0  0  0  0
 16  2  1  0  0  0  0
 17 16  1  0  0  0  0
 18 16  1  0  0  0  0
 19 16  1  6  0  0  0
 19  3  1  0  0  0  0
 20 22  2  0  0  0  0
 20 19  1  0  0  0  0
 21 20  1  0  0  0  0
 22 24  1  0  0  0  0
 23 22  1  0  0  0  0
 24 25  1  0  0  0  0
 24 26  2  0  0  0  0
 26 27  1  0  0  0  0
 28 31  1  0  0  0  0
 28 29  1  0  0  0  0
 30 28  1  0  0  0  0
 31 41  1  0  0  0  0
 32 35  1  0  0  0  0
 32 31  2  0  0  0  0
 33 32  1  0  0  0  0
 34 33  1  0  0  0  0
 35 37  2  0  0  0  0
 36 35  1  0  0  0  0
 37 38  1  0  0  0  0
 37 39  1  0  0  0  0
 39 40  1  0  0  0  0
 41 39  2  0  0  0  0
 41 42  1  0  0  0  0
M  END
