1,2,3
 OpenBabel05122313063D

 38 39  0  0  0  0  0  0  0  0999 V2000
   -1.9736    0.5689   -0.0553 N   0  0  0  0  0  2  0  0  0  0  0  0
   -0.4944   -1.1770    1.2470 N   0  0  0  0  0  2  0  0  0  0  0  0
    2.2367   -0.4879    0.8138 N   0  0  0  0  0  0  0  0  0  0  0  0
   -2.6097   -0.5177    0.4343 C   0  0  0  0  0  0  0  0  0  0  0  0
   -4.0026   -0.6677    0.3131 C   0  0  0  0  0  0  0  0  0  0  0  0
   -4.5092   -1.5604    0.7037 H   0  0  0  0  0  0  0  0  0  0  0  0
   -4.7377    0.3492   -0.3151 C   0  0  0  0  0  0  0  0  0  0  0  0
   -5.8288    0.2569   -0.4226 H   0  0  0  0  0  0  0  0  0  0  0  0
   -4.0658    1.4795   -0.7963 C   0  0  0  0  0  0  0  0  0  0  0  0
   -4.6052    2.3030   -1.2854 H   0  0  0  0  0  0  0  0  0  0  0  0
   -2.6695    1.5462   -0.6461 C   0  0  0  0  0  0  0  0  0  0  0  0
   -2.0942    2.4195   -0.9971 H   0  0  0  0  0  0  0  0  0  0  0  0
   -1.7326   -1.5234    1.1115 C   0  0  0  0  0  0  0  0  0  0  0  0
   -2.3303   -2.8236    1.5639 C   0  0  0  0  0  0  0  0  0  0  0  0
   -2.7470   -3.3570    0.6865 H   0  0  0  0  0  0  0  0  0  0  0  0
   -3.1566   -2.6507    2.2837 H   0  0  0  0  0  0  0  0  0  0  0  0
   -1.5833   -3.4845    2.0351 H   0  0  0  0  0  0  0  0  0  0  0  0
    0.5354   -2.0217    1.8074 C   0  0  0  0  0  0  0  0  0  0  0  0
    0.7353   -2.8532    1.0908 H   0  0  0  0  0  0  0  0  0  0  0  0
    0.2261   -2.4917    2.7664 H   0  0  0  0  0  0  0  0  0  0  0  0
    1.7818   -1.1657    2.0402 C   0  0  0  0  0  0  0  0  0  0  0  0
    1.5338   -0.3795    2.7834 H   0  0  0  0  0  0  0  0  0  0  0  0
    2.5977   -1.7901    2.4769 H   0  0  0  0  0  0  0  0  0  0  0  0
    3.1555    0.6252    1.1656 C   0  0  0  0  0  0  0  0  0  0  0  0
    2.5818    1.3464    1.7817 H   0  0  0  0  0  0  0  0  0  0  0  0
    3.9907    0.2205    1.7913 H   0  0  0  0  0  0  0  0  0  0  0  0
    3.7222    1.3273   -0.0655 C   0  0  0  0  0  0  0  0  0  0  0  0
    2.8874    1.8342   -0.5928 H   0  0  0  0  0  0  0  0  0  0  0  0
    4.4132    2.1254    0.2752 H   0  0  0  0  0  0  0  0  0  0  0  0
    4.4228    0.3413   -1.0024 C   0  0  0  0  0  0  0  0  0  0  0  0
    5.3281   -0.0740   -0.5035 H   0  0  0  0  0  0  0  0  0  0  0  0
    4.7743    0.8564   -1.9197 H   0  0  0  0  0  0  0  0  0  0  0  0
    3.4607   -0.7945   -1.3552 C   0  0  0  0  0  0  0  0  0  0  0  0
    2.6134   -0.4101   -1.9601 H   0  0  0  0  0  0  0  0  0  0  0  0
    3.9592   -1.5757   -1.9651 H   0  0  0  0  0  0  0  0  0  0  0  0
    2.8996   -1.4555   -0.0986 C   0  0  0  0  0  0  0  0  0  0  0  0
    2.1684   -2.2394   -0.3784 H   0  0  0  0  0  0  0  0  0  0  0  0
    3.7272   -1.9573    0.4648 H   0  0  0  0  0  0  0  0  0  0  0  0
  1  4  1  0  0  0  0
  2 18  1  0  0  0  0
  3 24  1  0  0  0  0
  3 21  1  0  0  0  0
  4 13  2  0  0  0  0
  5  4  1  0  0  0  0
  5  6  1  0  0  0  0
  7  5  2  0  0  0  0
  8  7  1  0  0  0  0
  9 11  2  0  0  0  0
  9  7  1  0  0  0  0
 10  9  1  0  0  0  0
 11  1  1  0  0  0  0
 12 11  1  0  0  0  0
 13  2  1  0  0  0  0
 13 14  1  0  0  0  0
 14 17  1  0  0  0  0
 14 16  1  0  0  0  0
 15 14  1  0  0  0  0
 18 21  1  0  0  0  0
 18 20  1  0  0  0  0
 19 18  1  0  0  0  0
 21 23  1  0  0  0  0
 21 22  1  0  0  0  0
 24 25  1  0  0  0  0
 24 26  1  0  0  0  0
 27 29  1  0  0  0  0
 27 24  1  0  0  0  0
 28 27  1  0  0  0  0
 30 31  1  0  0  0  0
 30 27  1  0  0  0  0
 32 30  1  0  0  0  0
 33 30  1  0  0  0  0
 33 36  1  0  0  0  0
 34 33  1  0  0  0  0
 35 33  1  0  0  0  0
 36 38  1  0  0  0  0
 36  3  1  0  0  0  0
 37 36  1  0  0  0  0
M  END
