4,5,6
 OpenBabel05122313063D

 56 61  0  0  1  0  0  0  0  0999 V2000
   -1.2622    5.0371    0.0116 O   0  0  0  0  0  0  0  0  0  0  0  0
    2.1923   -1.0203    2.2953 O   0  0  0  0  0  0  0  0  0  0  0  0
    2.1915   -1.0121   -2.2999 O   0  0  0  0  0  0  0  0  0  0  0  0
   -1.3596    1.3738    0.0041 N   0  0  0  0  0  2  0  0  0  0  0  0
   -0.4829   -1.0849    1.4622 N   0  0  0  0  0  2  0  0  0  0  0  0
   -0.4831   -1.0791   -1.4650 N   0  0  0  0  0  2  0  0  0  0  0  0
   -2.5339    0.6759    0.0027 N   0  0  0  0  0  0  0  0  0  0  0  0
   -1.7949   -1.3928    1.2641 N   0  0  0  0  0  0  0  0  0  0  0  0
   -1.7952   -1.3875   -1.2675 N   0  0  0  0  0  0  0  0  0  0  0  0
   -2.5303   -0.8737   -0.0005 B   0  0  2  0  0  0  0  0  0  0  0  0
   -3.6724   -1.2825   -0.0013 H   0  0  0  0  0  0  0  0  0  0  0  0
   -5.0218    1.0735    0.0025 C   0  0  0  0  0  0  0  0  0  0  0  0
   -5.2586    0.4614   -0.8915 H   0  0  0  0  0  0  0  0  0  0  0  0
   -5.6951    1.9503    0.0052 H   0  0  0  0  0  0  0  0  0  0  0  0
   -5.2583    0.4560    0.8927 H   0  0  0  0  0  0  0  0  0  0  0  0
   -3.5988    1.5307    0.0036 C   0  0  2  0  0  3  0  0  0  0  0  0
   -3.0907    2.8302    0.0056 C   0  0  0  0  0  0  0  0  0  0  0  0
   -3.6541    3.7671    0.0068 H   0  0  0  0  0  0  0  0  0  0  0  0
   -1.6796    2.6909    0.0058 C   0  0  0  0  0  0  0  0  0  0  0  0
   -0.7172    3.7731    0.0077 C   0  0  0  0  0  0  0  0  0  0  0  0
    0.6637    3.8618    0.0059 C   0  0  0  0  0  0  0  0  0  0  0  0
    1.3622    3.0170    0.0030 H   0  0  0  0  0  0  0  0  0  0  0  0
    0.9755    5.2586    0.0090 C   0  0  0  0  0  0  0  0  0  0  0  0
    1.9732    5.7107    0.0088 H   0  0  0  0  0  0  0  0  0  0  0  0
   -0.2299    5.9236    0.0123 C   0  0  0  0  0  0  0  0  0  0  0  0
   -0.5110    6.9816    0.0153 H   0  0  0  0  0  0  0  0  0  0  0  0
   -3.6616   -2.6811    2.3571 C   0  0  0  0  0  0  0  0  0  0  0  0
   -4.3975   -1.8518    2.3798 H   0  0  0  0  0  0  0  0  0  0  0  0
   -3.7960   -3.2838    3.2740 H   0  0  0  0  0  0  0  0  0  0  0  0
   -3.9152   -3.3189    1.4861 H   0  0  0  0  0  0  0  0  0  0  0  0
   -2.2576   -2.1746    2.2841 C   0  0  1  0  0  3  0  0  0  0  0  0
   -1.1954   -2.3803    3.1685 C   0  0  0  0  0  0  0  0  0  0  0  0
   -1.2112   -2.9724    4.0884 H   0  0  0  0  0  0  0  0  0  0  0  0
   -0.0937   -1.6830    2.6121 C   0  0  0  0  0  0  0  0  0  0  0  0
    1.2598   -1.5925    3.1148 C   0  0  0  0  0  0  0  0  0  0  0  0
    1.8621   -1.9824    4.3000 C   0  0  0  0  0  0  0  0  0  0  0  0
    1.3676   -2.4633    5.1507 H   0  0  0  0  0  0  0  0  0  0  0  0
    3.2424   -1.6180    4.1864 C   0  0  0  0  0  0  0  0  0  0  0  0
    4.0309   -1.7664    4.9318 H   0  0  0  0  0  0  0  0  0  0  0  0
    3.3881   -1.0348    2.9464 C   0  0  0  0  0  0  0  0  0  0  0  0
    4.2248   -0.5926    2.3919 H   0  0  0  0  0  0  0  0  0  0  0  0
   -3.6636   -2.6683   -2.3666 C   0  0  0  0  0  0  0  0  0  0  0  0
   -3.9178   -3.3089   -1.4978 H   0  0  0  0  0  0  0  0  0  0  0  0
   -3.7981   -3.2678   -3.2857 H   0  0  0  0  0  0  0  0  0  0  0  0
   -4.3989   -1.8384   -2.3868 H   0  0  0  0  0  0  0  0  0  0  0  0
   -2.2592   -2.1630   -2.2917 C   0  0  2  0  0  3  0  0  0  0  0  0
   -1.1980   -2.3640   -3.1783 C   0  0  0  0  0  0  0  0  0  0  0  0
   -1.2149   -2.9509   -4.1015 H   0  0  0  0  0  0  0  0  0  0  0  0
   -0.0953   -1.6706   -2.6188 C   0  0  0  0  0  0  0  0  0  0  0  0
    1.2578   -1.5782   -3.1221 C   0  0  0  0  0  0  0  0  0  0  0  0
    1.8585   -1.9611   -4.3104 C   0  0  0  0  0  0  0  0  0  0  0  0
    1.3627   -2.4359   -5.1637 H   0  0  0  0  0  0  0  0  0  0  0  0
    3.2392   -1.5985   -4.1959 C   0  0  0  0  0  0  0  0  0  0  0  0
    4.0268   -1.7427   -4.9431 H   0  0  0  0  0  0  0  0  0  0  0  0
    3.3866   -1.0233   -2.9523 C   0  0  0  0  0  0  0  0  0  0  0  0
    4.2242   -0.5851   -2.3960 H   0  0  0  0  0  0  0  0  0  0  0  0
  1 25  1  0  0  0  0
  2 40  1  0  0  0  0
  2 35  1  0  0  0  0
  4 19  1  0  0  0  0
  5 34  1  0  0  0  0
  6  9  1  0  0  0  0
  7 16  1  0  0  0  0
  7  4  1  0  0  0  0
  8  5  1  0  0  0  0
  8 31  1  0  0  0  0
  9 10  1  0  0  0  0
 10 11  1  6  0  0  0
 10  7  1  0  0  0  0
 10  8  1  0  0  0  0
 12 14  1  0  0  0  0
 12 15  1  0  0  0  0
 13 12  1  0  0  0  0
 16 12  1  6  0  0  0
 16 17  1  0  0  0  0
 17 19  2  0  0  0  0
 17 18  1  0  0  0  0
 19 20  1  0  0  0  0
 20  1  1  0  0  0  0
 21 20  2  0  0  0  0
 21 23  1  0  0  0  0
 22 21  1  0  0  0  0
 23 25  2  0  0  0  0
 24 23  1  0  0  0  0
 25 26  1  0  0  0  0
 27 28  1  0  0  0  0
 27 29  1  0  0  0  0
 30 27  1  0  0  0  0
 31 27  1  6  0  0  0
 31 32  1  0  0  0  0
 32 33  1  0  0  0  0
 34 35  1  0  0  0  0
 34 32  2  0  0  0  0
 35 36  2  0  0  0  0
 36 37  1  0  0  0  0
 38 36  1  0  0  0  0
 38 39  1  0  0  0  0
 40 38  2  0  0  0  0
 41 40  1  0  0  0  0
 42 43  1  0  0  0  0
 44 42  1  0  0  0  0
 45 42  1  0  0  0  0
 46 42  1  1  0  0  0
 46  9  1  0  0  0  0
 47 49  2  0  0  0  0
 47 46  1  0  0  0  0
 48 47  1  0  0  0  0
 49  6  1  0  0  0  0
 50 49  1  0  0  0  0
 50  3  1  0  0  0  0
 51 53  1  0  0  0  0
 51 50  2  0  0  0  0
 52 51  1  0  0  0  0
 53 55  2  0  0  0  0
 54 53  1  0  0  0  0
 55 56  1  0  0  0  0
 55  3  1  0  0  0  0
M  END
