3,7,11
 OpenBabel05122313063D

 77 82  0  0  1  0  0  0  0  0999 V2000
   -0.0037   -0.0026    3.2202 B   0  0  1  0  0  0  0  0  0  0  0  0
   -0.0043   -0.0033    4.4349 H   0  0  0  0  0  0  0  0  0  0  0  0
   -1.6830   -0.1018    1.3600 N   0  0  0  0  0  2  0  0  0  0  0  0
   -1.4602   -0.1053    2.6915 N   0  0  0  0  0  0  0  0  0  0  0  0
   -4.8432   -0.7180   -0.2861 N   0  0  0  0  0  0  0  0  0  0  0  0
   -5.2064   -1.1240    0.5777 H   0  0  0  0  0  0  0  0  0  0  0  0
    0.9249   -1.4068    1.3611 N   0  0  0  0  0  2  0  0  0  0  0  0
    0.8142   -1.2127    2.6925 N   0  0  0  0  0  0  0  0  0  0  0  0
    3.0437   -3.8332   -0.2816 N   0  0  0  0  0  0  0  0  0  0  0  0
    3.5746   -3.9450    0.5835 H   0  0  0  0  0  0  0  0  0  0  0  0
    0.7511    1.5040    1.3626 N   0  0  0  0  0  2  0  0  0  0  0  0
    0.6360    1.3109    2.6937 N   0  0  0  0  0  0  0  0  0  0  0  0
    1.8001    4.5510   -0.2784 N   0  0  0  0  0  0  0  0  0  0  0  0
    1.6304    5.0673    0.5862 H   0  0  0  0  0  0  0  0  0  0  0  0
   -2.9379    0.2475   -1.1738 O   0  0  0  0  0  0  0  0  0  0  0  0
    1.2563   -2.6666   -1.1730 O   0  0  0  0  0  0  0  0  0  0  0  0
    1.6819    2.4198   -1.1696 O   0  0  0  0  0  0  0  0  0  0  0  0
   -3.0117   -0.1987    1.1766 C   0  0  1  0  0  3  0  0  0  0  0  0
   -3.6628   -0.2642    2.4374 C   0  0  0  0  0  0  0  0  0  0  0  0
   -4.7363   -0.3064    2.6528 H   0  0  0  0  0  0  0  0  0  0  0  0
   -2.6384   -0.1999    3.3862 C   0  0  0  0  0  0  0  0  0  0  0  0
   -3.5638   -0.1913   -0.2116 C   0  0  0  0  0  0  0  0  0  0  0  0
   -5.3264   -0.3867   -2.6934 C   0  0  0  0  0  0  0  0  0  0  0  0
   -4.3353    0.0566   -2.8426 H   0  0  0  0  0  0  0  0  0  0  0  0
   -6.2357   -0.5316   -3.7503 C   0  0  0  0  0  0  0  0  0  0  0  0
   -5.9418   -0.1842   -4.7526 H   0  0  0  0  0  0  0  0  0  0  0  0
   -7.4994   -1.1096   -3.5528 C   0  0  0  0  0  0  0  0  0  0  0  0
   -8.2012   -1.2177   -4.3930 H   0  0  0  0  0  0  0  0  0  0  0  0
   -7.8567   -1.5510   -2.2685 C   0  0  0  0  0  0  0  0  0  0  0  0
   -8.8423   -2.0083   -2.0924 H   0  0  0  0  0  0  0  0  0  0  0  0
   -6.9626   -1.4127   -1.2013 C   0  0  0  0  0  0  0  0  0  0  0  0
   -7.2488   -1.7592   -0.1945 H   0  0  0  0  0  0  0  0  0  0  0  0
   -5.6899   -0.8296   -1.4010 C   0  0  0  0  0  0  0  0  0  0  0  0
   -2.7164   -0.2125    4.8784 C   0  0  0  0  0  0  0  0  0  0  0  0
   -2.1618   -1.0692    5.3131 H   0  0  0  0  0  0  0  0  0  0  0  0
   -3.7715   -0.2903    5.1999 H   0  0  0  0  0  0  0  0  0  0  0  0
   -2.2895    0.7099    5.3227 H   0  0  0  0  0  0  0  0  0  0  0  0
    1.6739   -2.5088    1.1786 C   0  0  1  0  0  3  0  0  0  0  0  0
    2.0542   -3.0401    2.4400 C   0  0  0  0  0  0  0  0  0  0  0  0
    2.6276   -3.9484    2.6561 H   0  0  0  0  0  0  0  0  0  0  0  0
    1.4843   -2.1857    3.3880 C   0  0  0  0  0  0  0  0  0  0  0  0
    1.9469   -2.9896   -0.2093 C   0  0  0  0  0  0  0  0  0  0  0  0
    3.0066   -4.4140   -2.6900 C   0  0  0  0  0  0  0  0  0  0  0  0
    2.1266   -3.7786   -2.8410 H   0  0  0  0  0  0  0  0  0  0  0  0
    3.5915   -5.1263   -3.7460 C   0  0  0  0  0  0  0  0  0  0  0  0
    3.1469   -5.0446   -4.7498 H   0  0  0  0  0  0  0  0  0  0  0  0
    4.7248   -5.9300   -3.5462 C   0  0  0  0  0  0  0  0  0  0  0  0
    5.1731   -6.4815   -4.3858 H   0  0  0  0  0  0  0  0  0  0  0  0
    5.2816   -6.0198   -2.2601 C   0  0  0  0  0  0  0  0  0  0  0  0
    6.1709   -6.6434   -2.0821 H   0  0  0  0  0  0  0  0  0  0  0  0
    4.7100   -5.3174   -1.1937 C   0  0  0  0  0  0  0  0  0  0  0  0
    5.1500   -5.3929   -0.1856 H   0  0  0  0  0  0  0  0  0  0  0  0
    3.5679   -4.5084   -1.3959 C   0  0  0  0  0  0  0  0  0  0  0  0
    1.5313   -2.2474    4.8804 C   0  0  0  0  0  0  0  0  0  0  0  0
    1.9949   -1.3389    5.3164 H   0  0  0  0  0  0  0  0  0  0  0  0
    2.1258   -3.1223    5.2027 H   0  0  0  0  0  0  0  0  0  0  0  0
    0.5183   -2.3393    5.3227 H   0  0  0  0  0  0  0  0  0  0  0  0
    1.3320    2.7033    1.1812 C   0  0  1  0  0  3  0  0  0  0  0  0
    1.5999    3.2981    2.4430 C   0  0  0  0  0  0  0  0  0  0  0  0
    2.0999    4.2487    2.6602 H   0  0  0  0  0  0  0  0  0  0  0  0
    1.1429    2.3774    3.3902 C   0  0  0  0  0  0  0  0  0  0  0  0
    1.6150    3.1798   -0.2062 C   0  0  0  0  0  0  0  0  0  0  0  0
    2.3296    4.8074   -2.6851 C   0  0  0  0  0  0  0  0  0  0  0  0
    2.2169    3.7278   -2.8363 H   0  0  0  0  0  0  0  0  0  0  0  0
    2.6600    5.6688   -3.7404 C   0  0  0  0  0  0  0  0  0  0  0  0
    2.8136    5.2422   -4.7435 H   0  0  0  0  0  0  0  0  0  0  0  0
    2.7927    7.0518   -3.5405 C   0  0  0  0  0  0  0  0  0  0  0  0
    3.0509    7.7148   -4.3795 H   0  0  0  0  0  0  0  0  0  0  0  0
    2.5893    7.5798   -2.2553 C   0  0  0  0  0  0  0  0  0  0  0  0
    2.6872    8.6616   -2.0773 H   0  0  0  0  0  0  0  0  0  0  0  0
    2.2608    6.7349   -1.1897 C   0  0  0  0  0  0  0  0  0  0  0  0
    2.1040    7.1543   -0.1823 H   0  0  0  0  0  0  0  0  0  0  0  0
    2.1279    5.3416   -1.3919 C   0  0  0  0  0  0  0  0  0  0  0  0
    1.1701    2.4491    4.8826 C   0  0  0  0  0  0  0  0  0  0  0  0
    0.1507    2.3957    5.3166 H   0  0  0  0  0  0  0  0  0  0  0  0
    1.6294    3.4016    5.2057 H   0  0  0  0  0  0  0  0  0  0  0  0
    1.7559    1.6181    5.3259 H   0  0  0  0  0  0  0  0  0  0  0  0
  1  2  1  1  0  0  0
  3  4  1  0  0  0  0
  4  1  1  0  0  0  0
  4 21  1  0  0  0  0
  5 22  1  0  0  0  0
  5  6  1  0  0  0  0
  7  8  1  0  0  0  0
  8  1  1  0  0  0  0
  8 41  1  0  0  0  0
  9 42  1  0  0  0  0
  9 10  1  0  0  0  0
 11 12  1  0  0  0  0
 12  1  1  0  0  0  0
 12 61  1  0  0  0  0
 13 62  1  0  0  0  0
 13 14  1  0  0  0  0
 15 22  2  0  0  0  0
 16 42  2  0  0  0  0
 17 62  2  0  0  0  0
 18 22  1  1  0  0  0
 18  3  1  0  0  0  0
 18 19  1  0  0  0  0
 19 20  1  0  0  0  0
 19 21  2  0  0  0  0
 21 34  1  0  0  0  0
 23 33  1  0  0  0  0
 24 23  1  0  0  0  0
 25 27  1  0  0  0  0
 25 23  2  0  0  0  0
 26 25  1  0  0  0  0
 27 29  2  0  0  0  0
 28 27  1  0  0  0  0
 29 30  1  0  0  0  0
 29 31  1  0  0  0  0
 31 32  1  0  0  0  0
 33 31  2  0  0  0  0
 33  5  1  0  0  0  0
 34 36  1  0  0  0  0
 34 35  1  0  0  0  0
 34 37  1  0  0  0  0
 38 42  1  1  0  0  0
 38  7  1  0  0  0  0
 38 39  1  0  0  0  0
 39 40  1  0  0  0  0
 39 41  2  0  0  0  0
 41 54  1  0  0  0  0
 43 53  1  0  0  0  0
 44 43  1  0  0  0  0
 45 47  1  0  0  0  0
 45 43  2  0  0  0  0
 46 45  1  0  0  0  0
 47 49  2  0  0  0  0
 48 47  1  0  0  0  0
 49 50  1  0  0  0  0
 49 51  1  0  0  0  0
 51 52  1  0  0  0  0
 53 51  2  0  0  0  0
 53  9  1  0  0  0  0
 54 56  1  0  0  0  0
 54 55  1  0  0  0  0
 54 57  1  0  0  0  0
 58 62  1  1  0  0  0
 58 11  1  0  0  0  0
 58 59  1  0  0  0  0
 59 60  1  0  0  0  0
 59 61  2  0  0  0  0
 61 74  1  0  0  0  0
 63 73  1  0  0  0  0
 64 63  1  0  0  0  0
 65 67  1  0  0  0  0
 65 63  2  0  0  0  0
 66 65  1  0  0  0  0
 67 69  2  0  0  0  0
 68 67  1  0  0  0  0
 69 70  1  0  0  0  0
 69 71  1  0  0  0  0
 71 72  1  0  0  0  0
 73 71  2  0  0  0  0
 73 13  1  0  0  0  0
 74 76  1  0  0  0  0
 74 75  1  0  0  0  0
 74 77  1  0  0  0  0
M  END
