2,3,4
 OpenBabel05122313063D

 36 39  0  0  0  0  0  0  0  0999 V2000
   -6.8293    0.5434   -0.2420 S   0  0  0  0  0  0  0  0  0  0  0  0
    1.5748   -1.9879   -0.0257 N   0  0  0  0  0  2  0  0  0  0  0  0
   -0.1053   -0.0210    0.0089 N   0  0  0  0  0  2  0  0  0  0  0  0
    1.4737    2.0289    0.0227 N   0  0  0  0  0  2  0  0  0  0  0  0
   -6.4839   -1.0500    0.3452 C   0  0  0  0  0  0  0  0  0  0  0  0
   -7.3058   -1.7293    0.6025 H   0  0  0  0  0  0  0  0  0  0  0  0
   -5.1292   -1.2749    0.4385 C   0  0  0  0  0  0  0  0  0  0  0  0
   -4.7120   -2.2166    0.8191 H   0  0  0  0  0  0  0  0  0  0  0  0
   -4.3445   -0.1338    0.0406 C   0  0  0  0  0  0  0  0  0  0  0  0
   -5.1614    0.9309   -0.3507 C   0  0  0  0  0  0  0  0  0  0  0  0
   -4.8610    1.9086   -0.7462 H   0  0  0  0  0  0  0  0  0  0  0  0
   -2.8794   -0.0908    0.0331 C   0  0  0  0  0  0  0  0  0  0  0  0
   -2.1169   -1.2891    0.0173 C   0  0  0  0  0  0  0  0  0  0  0  0
   -2.6260   -2.2608   -0.0087 H   0  0  0  0  0  0  0  0  0  0  0  0
   -0.7202   -1.2355    0.0052 C   0  0  0  0  0  0  0  0  0  0  0  0
    0.2420   -2.3575   -0.0183 C   0  0  0  0  0  0  0  0  0  0  0  0
   -0.1105   -3.7133   -0.0334 C   0  0  0  0  0  0  0  0  0  0  0  0
   -1.1705   -4.0014   -0.0285 H   0  0  0  0  0  0  0  0  0  0  0  0
    0.8939   -4.6911   -0.0557 C   0  0  0  0  0  0  0  0  0  0  0  0
    0.6257   -5.7574   -0.0680 H   0  0  0  0  0  0  0  0  0  0  0  0
    2.2376   -4.2922   -0.0622 C   0  0  0  0  0  0  0  0  0  0  0  0
    3.0545   -5.0270   -0.0793 H   0  0  0  0  0  0  0  0  0  0  0  0
    2.5439   -2.9266   -0.0468 C   0  0  0  0  0  3  0  0  0  0  0  0
    3.5740   -2.5358   -0.0508 H   0  0  0  0  0  0  0  0  0  0  0  0
   -2.1775    1.1445    0.0410 C   0  0  0  0  0  0  0  0  0  0  0  0
   -2.7346    2.0893    0.0846 H   0  0  0  0  0  0  0  0  0  0  0  0
   -0.7810    1.1620    0.0261 C   0  0  0  0  0  0  0  0  0  0  0  0
    0.1240    2.3310    0.0368 C   0  0  0  0  0  0  0  0  0  0  0  0
   -0.2957    3.6674    0.0598 C   0  0  0  0  0  0  0  0  0  0  0  0
   -1.3687    3.9020    0.0719 H   0  0  0  0  0  0  0  0  0  0  0  0
    0.6585    4.6944    0.0678 C   0  0  0  0  0  0  0  0  0  0  0  0
    0.3373    5.7459    0.0862 H   0  0  0  0  0  0  0  0  0  0  0  0
    2.0206    4.3635    0.0523 C   0  0  0  0  0  0  0  0  0  0  0  0
    2.7997    5.1384    0.0577 H   0  0  0  0  0  0  0  0  0  0  0  0
    2.3947    3.0151    0.0300 C   0  0  0  0  0  0  0  0  0  0  0  0
    3.4430    2.6765    0.0174 H   0  0  0  0  0  0  0  0  0  0  0  0
  1  5  1  0  0  0  0
  2 16  1  0  0  0  0
  3 27  1  0  0  0  0
  4 35  1  0  0  0  0
  4 28  1  0  0  0  0
  5  7  2  0  0  0  0
  5  6  1  0  0  0  0
  7  8  1  0  0  0  0
  9  7  1  0  0  0  0
 10  1  1  0  0  0  0
 10  9  2  0  0  0  0
 11 10  1  0  0  0  0
 12  9  1  0  0  0  0
 12 25  2  0  0  0  0
 13 12  1  0  0  0  0
 14 13  1  0  0  0  0
 15  3  1  0  0  0  0
 15 13  2  0  0  0  0
 16 15  1  0  0  0  0
 17 18  1  0  0  0  0
 17 16  2  0  0  0  0
 19 17  1  0  0  0  0
 20 19  1  0  0  0  0
 21 19  2  0  0  0  0
 21 23  1  0  0  0  0
 22 21  1  0  0  0  0
 23  2  1  0  0  0  0
 24 23  1  0  0  0  0
 25 26  1  0  0  0  0
 27 28  2  0  0  0  0
 27 25  1  0  0  0  0
 28 29  1  0  0  0  0
 29 31  2  0  0  0  0
 29 30  1  0  0  0  0
 31 32  1  0  0  0  0
 33 34  1  0  0  0  0
 33 31  1  0  0  0  0
 35 33  2  0  0  0  0
 36 35  1  0  0  0  0
M  END
