6,11,12
 OpenBabel05122313063D

 31 32  0  0  1  0  0  0  0  0999 V2000
   -4.7761   -0.0835   -0.2573 C   0  0  0  0  0  0  0  0  0  0  0  0
   -5.8758   -0.1187   -0.2525 H   0  0  0  0  0  0  0  0  0  0  0  0
   -1.9444    2.3531    0.5269 C   0  0  0  0  0  0  0  0  0  0  0  0
   -1.3635    2.1815    1.4577 H   0  0  0  0  0  0  0  0  0  0  0  0
   -2.6702    3.1693    0.7069 H   0  0  0  0  0  0  0  0  0  0  0  0
    0.1729    1.8686   -0.7244 N   0  0  0  0  0  0  0  0  0  0  0  0
    1.4017    2.3453   -0.0718 C   0  0  0  0  0  0  0  0  0  0  0  0
    1.1494    2.5538    0.9905 H   0  0  0  0  0  0  0  0  0  0  0  0
    1.7920    3.2802   -0.5319 H   0  0  0  0  0  0  0  0  0  0  0  0
    2.4213    1.2402   -0.1118 C   0  0  2  0  0  3  0  0  0  0  0  0
    1.8861   -0.0084   -0.1055 N   0  0  0  0  0  2  0  0  0  0  0  0
   -1.9809    0.0071   -0.2166 N   0  0  0  0  0  2  0  0  0  0  0  0
   -2.6292   -1.0871   -0.6796 C   0  0  0  0  0  3  0  0  0  0  0  0
   -1.9795   -1.9062   -1.0174 H   0  0  0  0  0  0  0  0  0  0  0  0
   -4.0222   -1.1740   -0.7093 C   0  0  0  0  0  0  0  0  0  0  0  0
   -4.4979   -2.0923   -1.0805 H   0  0  0  0  0  0  0  0  0  0  0  0
   -4.0995    1.0642    0.1706 C   0  0  0  0  0  0  0  0  0  0  0  0
   -4.6516    1.9554    0.5022 H   0  0  0  0  0  0  0  0  0  0  0  0
   -2.6937    1.0966    0.1756 C   0  0  0  0  0  0  0  0  0  0  0  0
   -0.9897    2.7708   -0.6007 C   0  0  0  0  0  0  0  0  0  0  0  0
   -1.5288    2.7647   -1.5692 H   0  0  0  0  0  0  0  0  0  0  0  0
   -0.6383    3.8112   -0.4289 H   0  0  0  0  0  0  0  0  0  0  0  0
    3.8056    1.4364   -0.1151 C   0  0  0  0  0  0  0  0  0  0  0  0
    4.2115    2.4581   -0.1281 H   0  0  0  0  0  0  0  0  0  0  0  0
    2.6890   -1.0917   -0.0916 C   0  0  0  0  0  0  0  0  0  0  0  0
    2.1621   -2.0585   -0.0779 H   0  0  0  0  0  0  0  0  0  0  0  0
    4.0827   -0.9633   -0.0847 C   0  0  0  0  0  0  0  0  0  0  0  0
    4.7057   -1.8683   -0.0737 H   0  0  0  0  0  0  0  0  0  0  0  0
    4.6510    0.3161   -0.0973 C   0  0  0  0  0  0  0  0  0  0  0  0
    5.7434    0.4454   -0.0961 H   0  0  0  0  0  0  0  0  0  0  0  0
    0.3491    1.6383   -1.7186 H   0  0  0  0  0  0  0  0  0  0  0  0
  1  2  1  0  0  0  0
  1 17  1  0  0  0  0
  3  5  1  0  0  0  0
  3  4  1  0  0  0  0
  6 20  1  0  0  0  0
  6  7  1  0  0  0  0
  7  8  1  0  0  0  0
  9  7  1  0  0  0  0
 10 11  1  0  0  0  0
 10  7  1  1  0  0  0
 11 25  1  0  0  0  0
 12 19  1  0  0  0  0
 13 12  1  0  0  0  0
 14 13  1  0  0  0  0
 15 13  1  0  0  0  0
 15  1  2  0  0  0  0
 16 15  1  0  0  0  0
 17 19  2  0  0  0  0
 17 18  1  0  0  0  0
 19  3  1  0  0  0  0
 20 22  1  0  0  0  0
 20  3  1  0  0  0  0
 21 20  1  0  0  0  0
 23 10  1  0  0  0  0
 23 29  2  0  0  0  0
 24 23  1  0  0  0  0
 25 27  2  0  0  0  0
 25 26  1  0  0  0  0
 27 28  1  0  0  0  0
 29 30  1  0  0  0  0
 29 27  1  0  0  0  0
 31  6  1  0  0  0  0
M  END
