2,3,4
 OpenBabel05122313063D

 37 41  0  0  1  0  0  0  0  0999 V2000
   -3.6762    0.6347   -0.1357 C   0  0  0  0  0  0  0  0  0  0  0  0
   -1.8416   -0.6796   -0.3266 N   0  0  0  0  0  2  0  0  0  0  0  0
    1.8414   -0.6796   -0.3272 N   0  0  0  0  0  2  0  0  0  0  0  0
   -0.0001    0.9588   -0.3618 N   0  0  0  0  0  2  0  0  0  0  0  0
    2.2734    0.6417   -0.2666 C   0  0  0  0  0  0  0  0  0  0  0  0
    3.6760    0.6348   -0.1361 C   0  0  0  0  0  0  0  0  0  0  0  0
   -2.2736    0.6417   -0.2661 C   0  0  0  0  0  0  0  0  0  0  0  0
   -0.0001    3.7037   -0.1473 C   0  0  0  0  0  0  0  0  0  0  0  0
   -0.0001    4.8009   -0.0755 H   0  0  0  0  0  0  0  0  0  0  0  0
    1.2008    1.6085   -0.2744 C   0  0  2  0  0  3  0  0  0  0  0  0
   -1.2010    1.6085   -0.2741 C   0  0  0  0  0  0  0  0  0  0  0  0
    5.3469   -1.1509   -0.0009 C   0  0  0  0  0  0  0  0  0  0  0  0
    5.5169   -2.2356    0.0069 H   0  0  0  0  0  0  0  0  0  0  0  0
    1.2226    3.0104   -0.1820 C   0  0  0  0  0  0  0  0  0  0  0  0
    2.1777    3.5496   -0.1259 H   0  0  0  0  0  0  0  0  0  0  0  0
   -4.0319   -0.7438   -0.1135 N   0  0  0  0  0  0  0  0  0  0  0  0
   -1.2228    3.0104   -0.1817 C   0  0  0  0  0  0  0  0  0  0  0  0
   -2.1779    3.5496   -0.1253 H   0  0  0  0  0  0  0  0  0  0  0  0
    4.7062    1.5981   -0.0298 C   0  0  0  0  0  0  0  0  0  0  0  0
    4.4394    2.6631   -0.0416 H   0  0  0  0  0  0  0  0  0  0  0  0
   -4.7064    1.5980   -0.0296 C   0  0  0  0  0  0  0  0  0  0  0  0
   -4.4397    2.6631   -0.0415 H   0  0  0  0  0  0  0  0  0  0  0  0
    4.0317   -0.7438   -0.1137 N   0  0  0  0  0  0  0  0  0  0  0  0
   -2.8897   -1.4928   -0.2278 C   0  0  0  0  0  3  0  0  0  0  0  0
   -2.8326   -2.5863   -0.2251 H   0  0  0  0  0  0  0  0  0  0  0  0
    2.8895   -1.4928   -0.2282 C   0  0  0  0  0  3  0  0  0  0  0  0
    2.8325   -2.5862   -0.2255 H   0  0  0  0  0  0  0  0  0  0  0  0
   -6.0267    1.1867    0.0868 C   0  0  0  0  0  0  0  0  0  0  0  0
   -6.8319    1.9300    0.1689 H   0  0  0  0  0  0  0  0  0  0  0  0
    6.3420   -0.2049    0.0996 C   0  0  0  0  0  0  0  0  0  0  0  0
    7.3831   -0.5429    0.1921 H   0  0  0  0  0  0  0  0  0  0  0  0
    6.0265    1.1868    0.0868 C   0  0  0  0  0  0  0  0  0  0  0  0
    6.8316    1.9300    0.1690 H   0  0  0  0  0  0  0  0  0  0  0  0
   -6.3422   -0.2049    0.0996 C   0  0  0  0  0  0  0  0  0  0  0  0
   -7.3833   -0.5429    0.1920 H   0  0  0  0  0  0  0  0  0  0  0  0
   -5.3471   -1.1510   -0.0007 C   0  0  0  0  0  0  0  0  0  0  0  0
   -5.5171   -2.2357    0.0070 H   0  0  0  0  0  0  0  0  0  0  0  0
  1 16  1  0  0  0  0
  1 21  1  0  0  0  0
  2  7  1  0  0  0  0
  2 24  1  0  0  0  0
  3  5  1  0  0  0  0
  3 26  1  0  0  0  0
  4 10  1  0  0  0  0
  4 11  1  0  0  0  0
  5  6  2  0  0  0  0
  6 23  1  0  0  0  0
  6 19  1  0  0  0  0
  7  1  2  0  0  0  0
  8  9  1  0  0  0  0
 10  5  1  1  0  0  0
 10 14  1  0  0  0  0
 11  7  1  0  0  0  0
 11 17  2  0  0  0  0
 12 13  1  0  0  0  0
 12 30  2  0  0  0  0
 14  8  2  0  0  0  0
 14 15  1  0  0  0  0
 16 36  1  0  0  0  0
 17  8  1  0  0  0  0
 17 18  1  0  0  0  0
 19 32  2  0  0  0  0
 20 19  1  0  0  0  0
 21 28  2  0  0  0  0
 22 21  1  0  0  0  0
 23 12  1  0  0  0  0
 24 25  1  0  0  0  0
 24 16  1  0  0  0  0
 26 27  1  0  0  0  0
 26 23  1  0  0  0  0
 28 34  1  0  0  0  0
 28 29  1  0  0  0  0
 30 31  1  0  0  0  0
 32 30  1  0  0  0  0
 32 33  1  0  0  0  0
 34 35  1  0  0  0  0
 36 37  1  0  0  0  0
 36 34  2  0  0  0  0
M  END
