1,2,3
 OpenBabel05122313063D

 37 36  0  0  0  0  0  0  0  0999 V2000
    1.3358   -0.6117    1.9962 N   0  0  0  0  0  0  0  0  0  0  0  0
    3.5389   -0.0029    0.1163 N   0  0  0  0  0  2  0  0  0  0  0  0
    1.6155   -0.9539   -1.9349 N   0  0  0  0  0  0  0  0  0  0  0  0
    2.6380   -1.0030    2.5800 C   0  0  0  0  0  0  0  0  0  0  0  0
    3.0230   -1.8431    1.9693 H   0  0  0  0  0  0  0  0  0  0  0  0
    2.4695   -1.3882    3.6115 H   0  0  0  0  0  0  0  0  0  0  0  0
    3.6633    0.1260    2.5977 C   0  0  0  0  0  0  0  0  0  0  0  0
    4.6390   -0.3344    2.8524 H   0  0  0  0  0  0  0  0  0  0  0  0
    3.4472    0.8556    3.4037 H   0  0  0  0  0  0  0  0  0  0  0  0
    3.7688    0.8638    1.2595 C   0  0  0  0  0  0  0  0  0  0  0  0
    3.0797    1.7501    1.2162 H   0  0  0  0  0  0  0  0  0  0  0  0
    4.7822    1.3173    1.1690 H   0  0  0  0  0  0  0  0  0  0  0  0
    3.9398    0.6382   -1.1236 C   0  0  0  0  0  0  0  0  0  0  0  0
    4.9330    1.1209   -0.9770 H   0  0  0  0  0  0  0  0  0  0  0  0
    3.2603    1.5056   -1.3471 H   0  0  0  0  0  0  0  0  0  0  0  0
    4.0253   -0.3384   -2.3008 C   0  0  0  0  0  0  0  0  0  0  0  0
    5.0149   -0.8377   -2.3026 H   0  0  0  0  0  0  0  0  0  0  0  0
    3.9661    0.2282   -3.2519 H   0  0  0  0  0  0  0  0  0  0  0  0
    2.9763   -1.4460   -2.2461 C   0  0  0  0  0  0  0  0  0  0  0  0
    2.9511   -2.0034   -3.2102 H   0  0  0  0  0  0  0  0  0  0  0  0
    3.2419   -2.1691   -1.4502 H   0  0  0  0  0  0  0  0  0  0  0  0
    0.6944    0.5011    2.7284 C   0  0  0  0  0  0  0  0  0  0  0  0
   -0.3442    0.6281    2.3715 H   0  0  0  0  0  0  0  0  0  0  0  0
    1.2526    1.4423    2.5707 H   0  0  0  0  0  0  0  0  0  0  0  0
    0.6705    0.2725    3.8169 H   0  0  0  0  0  0  0  0  0  0  0  0
    0.4315   -1.7805    1.9364 C   0  0  0  0  0  0  0  0  0  0  0  0
   -0.5043   -1.5033    1.4227 H   0  0  0  0  0  0  0  0  0  0  0  0
    0.1846   -2.1245    2.9655 H   0  0  0  0  0  0  0  0  0  0  0  0
    0.9281   -2.6123    1.4018 H   0  0  0  0  0  0  0  0  0  0  0  0
    1.1243    0.0243   -2.9243 C   0  0  0  0  0  0  0  0  0  0  0  0
    1.1814   -0.4033   -3.9499 H   0  0  0  0  0  0  0  0  0  0  0  0
    1.7247    0.9519   -2.8890 H   0  0  0  0  0  0  0  0  0  0  0  0
    0.0742    0.2737   -2.6922 H   0  0  0  0  0  0  0  0  0  0  0  0
    0.6687   -2.0853   -1.8138 C   0  0  0  0  0  0  0  0  0  0  0  0
    1.0626   -2.8264   -1.0931 H   0  0  0  0  0  0  0  0  0  0  0  0
    0.5457   -2.5885   -2.7986 H   0  0  0  0  0  0  0  0  0  0  0  0
   -0.3149   -1.7176   -1.4681 H   0  0  0  0  0  0  0  0  0  0  0  0
  1  4  1  0  0  0  0
  1 22  1  0  0  0  0
  2 10  1  0  0  0  0
  3 34  1  0  0  0  0
  4  7  1  0  0  0  0
  4  6  1  0  0  0  0
  5  4  1  0  0  0  0
  7  8  1  0  0  0  0
  7  9  1  0  0  0  0
 10  7  1  0  0  0  0
 11 10  1  0  0  0  0
 12 10  1  0  0  0  0
 13 14  1  0  0  0  0
 13  2  1  0  0  0  0
 15 13  1  0  0  0  0
 16 19  1  0  0  0  0
 16 13  1  0  0  0  0
 17 16  1  0  0  0  0
 18 16  1  0  0  0  0
 19  3  1  0  0  0  0
 19 21  1  0  0  0  0
 20 19  1  0  0  0  0
 22 25  1  0  0  0  0
 23 22  1  0  0  0  0
 24 22  1  0  0  0  0
 26  1  1  0  0  0  0
 26 28  1  0  0  0  0
 27 26  1  0  0  0  0
 29 26  1  0  0  0  0
 30 32  1  0  0  0  0
 30 33  1  0  0  0  0
 30  3  1  0  0  0  0
 31 30  1  0  0  0  0
 34 37  1  0  0  0  0
 34 35  1  0  0  0  0
 36 34  1  0  0  0  0
M  END
