1,2,3
 OpenBabel05122313063D

 81 86  0  0  1  0  0  0  0  0999 V2000
   -5.1202    0.1218   -0.3657 N   0  0  0  0  0  2  0  0  0  0  0  0
   -6.6717    2.0682    0.4036 N   0  0  0  0  0  2  0  0  0  0  0  0
   -6.6822   -1.9046   -0.8562 N   0  0  0  0  0  2  0  0  0  0  0  0
    6.1572   -0.0081   -0.0039 B   0  0  0  0  0  0  0  0  0  0  0  0
    6.9420    1.3230   -0.3083 C   0  0  0  0  0  0  0  0  0  0  0  0
    7.9340    1.8049    0.6003 C   0  0  0  0  0  0  0  0  0  0  0  0
    8.6095    3.0058    0.3253 C   0  0  0  0  0  0  0  0  0  0  0  0
    9.3594    3.3709    1.0467 H   0  0  0  0  0  0  0  0  0  0  0  0
    8.3690    3.7471   -0.8462 C   0  0  0  0  0  0  0  0  0  0  0  0
    7.4137    3.2509   -1.7489 C   0  0  0  0  0  0  0  0  0  0  0  0
    7.2271    3.8004   -2.6866 H   0  0  0  0  0  0  0  0  0  0  0  0
    6.6902    2.0709   -1.4968 C   0  0  0  0  0  0  0  0  0  0  0  0
    8.2831    1.0563    1.8674 C   0  0  0  0  0  0  0  0  0  0  0  0
    7.3860    0.8015    2.4666 H   0  0  0  0  0  0  0  0  0  0  0  0
    8.9569    1.6556    2.5096 H   0  0  0  0  0  0  0  0  0  0  0  0
    8.7886    0.0952    1.6430 H   0  0  0  0  0  0  0  0  0  0  0  0
    9.1039    5.0363   -1.1100 C   0  0  0  0  0  0  0  0  0  0  0  0
    9.0316    5.3399   -2.1725 H   0  0  0  0  0  0  0  0  0  0  0  0
   10.1773    4.9552   -0.8442 H   0  0  0  0  0  0  0  0  0  0  0  0
    8.6847    5.8648   -0.4990 H   0  0  0  0  0  0  0  0  0  0  0  0
    5.6904    1.6153   -2.5391 C   0  0  0  0  0  0  0  0  0  0  0  0
    4.6548    1.9039   -2.2647 H   0  0  0  0  0  0  0  0  0  0  0  0
    5.6800    0.5153   -2.6689 H   0  0  0  0  0  0  0  0  0  0  0  0
    5.9123    2.0708   -3.5239 H   0  0  0  0  0  0  0  0  0  0  0  0
    6.8893   -1.3553    0.3545 C   0  0  0  0  0  0  0  0  0  0  0  0
    7.9385   -1.8555   -0.4768 C   0  0  0  0  0  0  0  0  0  0  0  0
    8.5650   -3.0717   -0.1564 C   0  0  0  0  0  0  0  0  0  0  0  0
    9.3606   -3.4505   -0.8194 H   0  0  0  0  0  0  0  0  0  0  0  0
    8.2189   -3.8115    0.9893 C   0  0  0  0  0  0  0  0  0  0  0  0
    7.2083   -3.2970    1.8187 C   0  0  0  0  0  0  0  0  0  0  0  0
    6.9391   -3.8445    2.7372 H   0  0  0  0  0  0  0  0  0  0  0  0
    6.5318   -2.1008    1.5176 C   0  0  0  0  0  0  0  0  0  0  0  0
    8.4018   -1.1107   -1.7090 C   0  0  0  0  0  0  0  0  0  0  0  0
    8.9114   -0.1630   -1.4408 H   0  0  0  0  0  0  0  0  0  0  0  0
    7.5601   -0.8316   -2.3740 H   0  0  0  0  0  0  0  0  0  0  0  0
    9.1088   -1.7236   -2.3008 H   0  0  0  0  0  0  0  0  0  0  0  0
    8.9012   -5.1184    1.3021 C   0  0  0  0  0  0  0  0  0  0  0  0
    8.7714   -5.4053    2.3639 H   0  0  0  0  0  0  0  0  0  0  0  0
    9.9873   -5.0740    1.0840 H   0  0  0  0  0  0  0  0  0  0  0  0
    8.4833   -5.9422    0.6838 H   0  0  0  0  0  0  0  0  0  0  0  0
    5.4668   -1.6273    2.4848 C   0  0  0  0  0  0  0  0  0  0  0  0
    5.4579   -0.5265    2.6060 H   0  0  0  0  0  0  0  0  0  0  0  0
    5.6156   -2.0775    3.4857 H   0  0  0  0  0  0  0  0  0  0  0  0
    4.4496   -1.9089    2.1422 H   0  0  0  0  0  0  0  0  0  0  0  0
    4.5848    0.0095   -0.0594 C   0  0  0  0  0  0  0  0  0  0  0  0
    3.8512    1.1812    0.2551 C   0  0  0  0  0  0  0  0  0  0  0  0
    4.4022    2.0939    0.5330 H   0  0  0  0  0  0  0  0  0  0  0  0
    2.4560    1.2027    0.2270 C   0  0  0  0  0  0  0  0  0  0  0  0
    1.9010    2.1155    0.4888 H   0  0  0  0  0  0  0  0  0  0  0  0
    1.7325    0.0407   -0.1539 C   0  0  0  0  0  0  0  0  0  0  0  0
    2.4540   -1.1369   -0.4877 C   0  0  0  0  0  0  0  0  0  0  0  0
    1.8977   -2.0381   -0.7844 H   0  0  0  0  0  0  0  0  0  0  0  0
    3.8482   -1.1459   -0.4235 C   0  0  0  0  0  0  0  0  0  0  0  0
    4.3963   -2.0709   -0.6639 H   0  0  0  0  0  0  0  0  0  0  0  0
    0.3120    0.0561   -0.1987 C   0  0  0  0  0  0  0  0  0  0  0  0
   -0.9202    0.0698   -0.2355 C   0  0  0  0  0  0  0  0  0  0  0  0
   -2.3397    0.0862   -0.2765 C   0  0  0  0  0  0  0  0  0  0  0  0
   -3.0630    1.2546    0.0758 C   0  0  0  0  0  0  0  0  0  0  0  0
   -2.5152    2.1505    0.3951 H   0  0  0  0  0  0  0  0  0  0  0  0
   -4.4643    1.2264    0.0235 C   0  0  0  0  0  0  0  0  0  0  0  0
   -4.4701   -1.0085   -0.6847 C   0  0  0  0  0  0  0  0  0  0  0  0
   -3.0691   -1.0684   -0.6602 C   0  0  0  0  0  0  0  0  0  0  0  0
   -2.5260   -1.9873   -0.9160 H   0  0  0  0  0  0  0  0  0  0  0  0
   -5.3546    2.3648    0.3918 C   0  0  0  0  0  0  0  0  0  0  0  0
   -4.8987    3.6596    0.6975 C   0  0  0  0  0  0  0  0  0  0  0  0
   -3.8266    3.8997    0.6780 H   0  0  0  0  0  0  0  0  0  0  0  0
   -5.8413    4.6467    1.0179 C   0  0  0  0  0  0  0  0  0  0  0  0
   -5.5095    5.6670    1.2622 H   0  0  0  0  0  0  0  0  0  0  0  0
   -7.2056    4.3214    1.0173 C   0  0  0  0  0  0  0  0  0  0  0  0
   -7.9724    5.0714    1.2589 H   0  0  0  0  0  0  0  0  0  0  0  0
   -7.5786    3.0065    0.6983 C   0  0  0  0  0  0  0  0  0  0  0  0
   -8.6283    2.6646    0.6625 H   0  0  0  0  0  0  0  0  0  0  0  0
   -5.3665   -2.1468   -1.0384 C   0  0  2  0  0  3  0  0  0  0  0  0
   -4.9174   -3.3833   -1.5354 C   0  0  0  0  0  0  0  0  0  0  0  0
   -3.8464   -3.5737   -1.6909 H   0  0  0  0  0  0  0  0  0  0  0  0
   -5.8654   -4.3699   -1.8415 C   0  0  0  0  0  0  0  0  0  0  0  0
   -5.5390   -5.3461   -2.2304 H   0  0  0  0  0  0  0  0  0  0  0  0
   -7.2282   -4.0968   -1.6530 C   0  0  0  0  0  0  0  0  0  0  0  0
   -7.9990   -4.8449   -1.8872 H   0  0  0  0  0  0  0  0  0  0  0  0
   -7.5941   -2.8365   -1.1553 C   0  0  0  0  0  0  0  0  0  0  0  0
   -8.6422   -2.5311   -0.9864 H   0  0  0  0  0  0  0  0  0  0  0  0
  1 60  1  0  0  0  0
  2 71  1  0  0  0  0
  4 25  1  0  0  0  0
  5  4  1  0  0  0  0
  5  6  1  0  0  0  0
  6 13  1  0  0  0  0
  7  6  2  0  0  0  0
  7  8  1  0  0  0  0
  9  7  1  0  0  0  0
 10 12  1  0  0  0  0
 10  9  2  0  0  0  0
 11 10  1  0  0  0  0
 12  5  2  0  0  0  0
 13 14  1  0  0  0  0
 13 15  1  0  0  0  0
 16 13  1  0  0  0  0
 17  9  1  0  0  0  0
 17 19  1  0  0  0  0
 17 20  1  0  0  0  0
 18 17  1  0  0  0  0
 21 22  1  0  0  0  0
 21 12  1  0  0  0  0
 23 21  1  0  0  0  0
 24 21  1  0  0  0  0
 25 32  1  0  0  0  0
 26 27  1  0  0  0  0
 26 25  2  0  0  0  0
 27 29  2  0  0  0  0
 28 27  1  0  0  0  0
 29 37  1  0  0  0  0
 29 30  1  0  0  0  0
 30 31  1  0  0  0  0
 32 30  2  0  0  0  0
 32 41  1  0  0  0  0
 33 34  1  0  0  0  0
 33 26  1  0  0  0  0
 35 33  1  0  0  0  0
 36 33  1  0  0  0  0
 37 38  1  0  0  0  0
 39 37  1  0  0  0  0
 40 37  1  0  0  0  0
 41 42  1  0  0  0  0
 41 43  1  0  0  0  0
 44 41  1  0  0  0  0
 45  4  1  0  0  0  0
 45 46  1  0  0  0  0
 46 47  1  0  0  0  0
 48 46  2  0  0  0  0
 48 49  1  0  0  0  0
 50 48  1  0  0  0  0
 51 53  1  0  0  0  0
 51 50  2  0  0  0  0
 52 51  1  0  0  0  0
 53 45  2  0  0  0  0
 54 53  1  0  0  0  0
 55 50  1  0  0  0  0
 56 55  3  0  0  0  0
 57 56  1  0  0  0  0
 57 58  2  0  0  0  0
 58 59  1  0  0  0  0
 60 58  1  0  0  0  0
 60 64  2  0  0  0  0
 61 62  2  0  0  0  0
 61  1  1  0  0  0  0
 62 57  1  0  0  0  0
 63 62  1  0  0  0  0
 64  2  1  0  0  0  0
 64 65  1  0  0  0  0
 65 67  2  0  0  0  0
 66 65  1  0  0  0  0
 67 68  1  0  0  0  0
 69 67  1  0  0  0  0
 69 70  1  0  0  0  0
 71 69  2  0  0  0  0
 72 71  1  0  0  0  0
 73  3  1  0  0  0  0
 73 61  1  6  0  0  0
 74 73  1  0  0  0  0
 75 74  1  0  0  0  0
 76 78  1  0  0  0  0
 76 74  2  0  0  0  0
 77 76  1  0  0  0  0
 78 80  2  0  0  0  0
 79 78  1  0  0  0  0
 80 81  1  0  0  0  0
 80  3  1  0  0  0  0
M  END
