4,26,48
 OpenBabel05122313063D

 68 73  0  0  1  0  0  0  0  0999 V2000
    0.3933   -0.6877   -3.6010 B   0  0  2  0  0  0  0  0  0  0  0  0
    0.4405   -0.8418   -4.8121 H   0  0  0  0  0  0  0  0  0  0  0  0
    0.2704    0.8251   -3.2788 N   0  0  0  0  0  0  0  0  0  0  0  0
    0.0735    1.2704   -2.0129 N   0  0  0  0  0  2  0  0  0  0  0  0
    0.0444    2.6279   -2.0510 C   0  0  1  0  0  3  0  0  0  0  0  0
    0.2521    3.0515   -3.3885 C   0  0  0  0  0  0  0  0  0  0  0  0
    0.2543    4.0815   -3.7571 H   0  0  0  0  0  0  0  0  0  0  0  0
    0.3819    1.8778   -4.1282 C   0  0  0  0  0  0  0  0  0  0  0  0
    0.5349    1.7087   -5.1992 H   0  0  0  0  0  0  0  0  0  0  0  0
   -0.2058    3.4695   -0.8705 C   0  0  0  0  0  0  0  0  0  0  0  0
    0.5333    4.6521   -0.6730 C   0  0  0  0  0  0  0  0  0  0  0  0
    1.3209    4.9208   -1.3933 H   0  0  0  0  0  0  0  0  0  0  0  0
    0.3097    5.4799    0.4368 C   0  0  0  0  0  0  0  0  0  0  0  0
    0.9179    6.3854    0.5624 H   0  0  0  0  0  0  0  0  0  0  0  0
   -0.6787    5.1305    1.3803 C   0  0  0  0  0  0  0  0  0  0  0  0
   -1.4375    3.9549    1.1855 C   0  0  0  0  0  0  0  0  0  0  0  0
   -2.2108    3.7046    1.9260 H   0  0  0  0  0  0  0  0  0  0  0  0
   -1.2056    3.1421    0.0777 C   0  0  0  0  0  0  0  0  0  0  0  0
   -1.7939    2.2240   -0.0612 H   0  0  0  0  0  0  0  0  0  0  0  0
   -0.9735    5.8551    2.4932 O   0  0  0  0  0  0  0  0  0  0  0  0
   -0.2380    7.0376    2.7405 C   0  0  0  0  0  0  0  0  0  0  0  0
   -0.6310    7.4600    3.6838 H   0  0  0  0  0  0  0  0  0  0  0  0
   -0.3691    7.7869    1.9273 H   0  0  0  0  0  0  0  0  0  0  0  0
    0.8495    6.8325    2.8622 H   0  0  0  0  0  0  0  0  0  0  0  0
   -0.8613   -1.4043   -3.0355 N   0  0  0  0  0  0  0  0  0  0  0  0
   -1.3140   -1.2098   -1.7691 N   0  0  0  0  0  2  0  0  0  0  0  0
   -2.4643   -1.9183   -1.6263 C   0  0  2  0  0  3  0  0  0  0  0  0
   -2.7308   -2.6074   -2.8342 C   0  0  0  0  0  0  0  0  0  0  0  0
   -3.5966   -3.2404   -3.0496 H   0  0  0  0  0  0  0  0  0  0  0  0
   -1.6979   -2.2434   -3.6967 C   0  0  0  0  0  0  0  0  0  0  0  0
   -1.5026   -2.5031   -4.7423 H   0  0  0  0  0  0  0  0  0  0  0  0
   -3.2773   -1.8746   -0.4010 C   0  0  0  0  0  0  0  0  0  0  0  0
   -3.6330   -0.6374    0.1896 C   0  0  0  0  0  0  0  0  0  0  0  0
   -3.2989    0.2967   -0.2840 H   0  0  0  0  0  0  0  0  0  0  0  0
   -4.3930   -0.5934    1.3561 C   0  0  0  0  0  0  0  0  0  0  0  0
   -4.6721    0.3621    1.8229 H   0  0  0  0  0  0  0  0  0  0  0  0
   -4.8239   -1.7903    1.9708 C   0  0  0  0  0  0  0  0  0  0  0  0
   -4.4963   -3.0296    1.3823 C   0  0  0  0  0  0  0  0  0  0  0  0
   -4.8188   -3.9752    1.8376 H   0  0  0  0  0  0  0  0  0  0  0  0
   -3.7337   -3.0594    0.2056 C   0  0  0  0  0  0  0  0  0  0  0  0
   -3.4623   -4.0297   -0.2374 H   0  0  0  0  0  0  0  0  0  0  0  0
   -5.5472   -1.6469    3.1130 O   0  0  0  0  0  0  0  0  0  0  0  0
   -5.9908   -2.8127    3.7806 C   0  0  0  0  0  0  0  0  0  0  0  0
   -6.5413   -2.4705    4.6764 H   0  0  0  0  0  0  0  0  0  0  0  0
   -5.1405   -3.4551    4.1021 H   0  0  0  0  0  0  0  0  0  0  0  0
   -6.6756   -3.4200    3.1465 H   0  0  0  0  0  0  0  0  0  0  0  0
    1.6700   -1.2372   -2.9458 N   0  0  0  0  0  0  0  0  0  0  0  0
    1.7580   -1.2549   -1.5992 N   0  0  0  0  0  2  0  0  0  0  0  0
    3.0221   -1.6177   -1.2853 C   0  0  2  0  0  3  0  0  0  0  0  0
    3.7627   -1.8323   -2.4827 C   0  0  0  0  0  0  0  0  0  0  0  0
    4.8005   -2.1688   -2.5714 H   0  0  0  0  0  0  0  0  0  0  0  0
    2.8605   -1.5783   -3.5133 C   0  0  0  0  0  0  0  0  0  0  0  0
    2.9713   -1.6217   -4.6024 H   0  0  0  0  0  0  0  0  0  0  0  0
    3.4746   -1.7543    0.1073 C   0  0  0  0  0  0  0  0  0  0  0  0
    4.7994   -1.4429    0.4712 C   0  0  0  0  0  0  0  0  0  0  0  0
    5.4985   -1.0797   -0.2976 H   0  0  0  0  0  0  0  0  0  0  0  0
    5.2428   -1.5547    1.7976 C   0  0  0  0  0  0  0  0  0  0  0  0
    6.2809   -1.2915    2.0403 H   0  0  0  0  0  0  0  0  0  0  0  0
    4.3491   -1.9860    2.7995 C   0  0  0  0  0  0  0  0  0  0  0  0
    3.0209   -2.3126    2.4470 C   0  0  0  0  0  0  0  0  0  0  0  0
    2.3390   -2.6592    3.2370 H   0  0  0  0  0  0  0  0  0  0  0  0
    2.5977   -2.2036    1.1235 C   0  0  0  0  0  0  0  0  0  0  0  0
    1.5696   -2.4796    0.8540 H   0  0  0  0  0  0  0  0  0  0  0  0
    4.6709   -2.1222    4.1164 O   0  0  0  0  0  0  0  0  0  0  0  0
    5.9883   -1.8084    4.5203 C   0  0  0  0  0  0  0  0  0  0  0  0
    6.0334   -1.9846    5.6112 H   0  0  0  0  0  0  0  0  0  0  0  0
    6.2444   -0.7439    4.3163 H   0  0  0  0  0  0  0  0  0  0  0  0
    6.7437   -2.4555    4.0191 H   0  0  0  0  0  0  0  0  0  0  0  0
  1  2  1  6  0  0  0
  1  3  1  0  0  0  0
  1 25  1  0  0  0  0
  1 47  1  0  0  0  0
  3  4  1  0  0  0  0
  5  4  1  0  0  0  0
  5 10  1  6  0  0  0
  6  5  1  0  0  0  0
  7  6  1  0  0  0  0
  8  6  2  0  0  0  0
  8  3  1  0  0  0  0
  9  8  1  0  0  0  0
 10 11  2  0  0  0  0
 10 18  1  0  0  0  0
 11 13  1  0  0  0  0
 12 11  1  0  0  0  0
 13 14  1  0  0  0  0
 13 15  2  0  0  0  0
 15 20  1  0  0  0  0
 16 15  1  0  0  0  0
 16 17  1  0  0  0  0
 18 16  2  0  0  0  0
 19 18  1  0  0  0  0
 20 21  1  0  0  0  0
 21 24  1  0  0  0  0
 21 22  1  0  0  0  0
 23 21  1  0  0  0  0
 25 26  1  0  0  0  0
 26 27  1  0  0  0  0
 27 32  1  6  0  0  0
 28 27  1  0  0  0  0
 29 28  1  0  0  0  0
 30 25  1  0  0  0  0
 30 28  2  0  0  0  0
 31 30  1  0  0  0  0
 32 33  2  0  0  0  0
 32 40  1  0  0  0  0
 33 35  1  0  0  0  0
 34 33  1  0  0  0  0
 35 36  1  0  0  0  0
 35 37  2  0  0  0  0
 37 42  1  0  0  0  0
 38 39  1  0  0  0  0
 38 37  1  0  0  0  0
 40 38  2  0  0  0  0
 41 40  1  0  0  0  0
 42 43  1  0  0  0  0
 43 45  1  0  0  0  0
 43 44  1  0  0  0  0
 46 43  1  0  0  0  0
 47 48  1  0  0  0  0
 48 49  1  0  0  0  0
 49 54  1  1  0  0  0
 50 49  1  0  0  0  0
 51 50  1  0  0  0  0
 52 47  1  0  0  0  0
 52 50  2  0  0  0  0
 53 52  1  0  0  0  0
 54 55  2  0  0  0  0
 54 62  1  0  0  0  0
 55 57  1  0  0  0  0
 56 55  1  0  0  0  0
 57 58  1  0  0  0  0
 57 59  2  0  0  0  0
 59 64  1  0  0  0  0
 60 59  1  0  0  0  0
 60 61  1  0  0  0  0
 62 60  2  0  0  0  0
 63 62  1  0  0  0  0
 64 65  1  0  0  0  0
 65 66  1  0  0  0  0
 67 65  1  0  0  0  0
 68 65  1  0  0  0  0
M  END
