3,4,5
 OpenBabel05122313063D

 53 55  0  0  1  0  0  0  0  0999 V2000
    2.4192    1.1763   -0.2908 N   0  0  2  0  0  0  0  0  0  0  0  0
   -0.7833    2.4852   -0.8933 N   0  0  0  0  0  0  0  0  0  0  0  0
   -2.0578   -0.0051   -0.3192 N   0  0  0  0  0  2  0  0  0  0  0  0
   -0.7507   -2.4191   -0.1621 N   0  0  0  0  0  2  0  0  0  0  0  0
    2.4480   -1.3915   -0.4009 N   0  0  1  0  0  0  0  0  0  0  0  0
    3.1555    0.6177    0.8617 C   0  0  0  0  0  0  0  0  0  0  0  0
    2.6224    0.9079    1.7866 H   0  0  0  0  0  0  0  0  0  0  0  0
    4.1750    1.0689    0.9141 H   0  0  0  0  0  0  0  0  0  0  0  0
    3.2617   -0.9214    0.7381 C   0  0  0  0  0  0  0  0  0  0  0  0
    4.3206   -1.2409    0.5911 H   0  0  0  0  0  0  0  0  0  0  0  0
    2.8896   -1.3965    1.6643 H   0  0  0  0  0  0  0  0  0  0  0  0
    2.9904   -0.8139   -1.6450 C   0  0  0  0  0  0  0  0  0  0  0  0
    2.3052   -1.0834   -2.4717 H   0  0  0  0  0  0  0  0  0  0  0  0
    3.9902   -1.2546   -1.8689 H   0  0  0  0  0  0  0  0  0  0  0  0
    3.0968    0.7228   -1.5174 C   0  0  0  0  0  0  0  0  0  0  0  0
    4.1647    1.0494   -1.4944 H   0  0  0  0  0  0  0  0  0  0  0  0
    2.6187    1.1931   -2.3939 H   0  0  0  0  0  0  0  0  0  0  0  0
    2.3775    2.6466   -0.1804 C   0  0  0  0  0  0  0  0  0  0  0  0
    1.9970    2.8778    0.8358 H   0  0  0  0  0  0  0  0  0  0  0  0
    3.4264    3.0305   -0.2252 H   0  0  0  0  0  0  0  0  0  0  0  0
    1.5293    3.3854   -1.2256 C   0  0  0  0  0  0  0  0  0  0  0  0
    1.5626    2.8744   -2.2098 H   0  0  0  0  0  0  0  0  0  0  0  0
    2.0021    4.3741   -1.3923 H   0  0  0  0  0  0  0  0  0  0  0  0
    0.0765    3.6587   -0.8302 C   0  0  0  0  0  0  0  0  0  0  0  0
    0.0535    4.1256    0.1786 H   0  0  0  0  0  0  0  0  0  0  0  0
   -0.3434    4.4145   -1.5334 H   0  0  0  0  0  0  0  0  0  0  0  0
   -1.8367    2.4221   -0.1478 C   0  0  0  0  0  0  0  0  0  0  0  0
   -2.2605    3.4770    0.8379 C   0  0  0  0  0  0  0  0  0  0  0  0
   -3.2469    3.2659    1.2856 H   0  0  0  0  0  0  0  0  0  0  0  0
   -2.2725    4.4916    0.3938 H   0  0  0  0  0  0  0  0  0  0  0  0
   -1.5187    3.4641    1.6658 H   0  0  0  0  0  0  0  0  0  0  0  0
   -2.6796    1.1864   -0.2517 C   0  0  1  0  0  3  0  0  0  0  0  0
   -4.0872    1.2854   -0.2835 C   0  0  0  0  0  0  0  0  0  0  0  0
   -4.5754    2.2682   -0.2293 H   0  0  0  0  0  0  0  0  0  0  0  0
   -4.8427    0.1171   -0.4081 C   0  0  0  0  0  0  0  0  0  0  0  0
   -5.9408    0.1624   -0.4494 H   0  0  0  0  0  0  0  0  0  0  0  0
   -4.1825   -1.1166   -0.4683 C   0  0  0  0  0  0  0  0  0  0  0  0
   -4.7644   -2.0436   -0.5388 H   0  0  0  0  0  0  0  0  0  0  0  0
   -2.7740   -1.1462   -0.4114 C   0  0  0  0  0  0  0  0  0  0  0  0
   -2.0261   -2.4492   -0.3769 C   0  0  2  0  0  3  0  0  0  0  0  0
   -2.8268   -3.7171   -0.5269 C   0  0  0  0  0  0  0  0  0  0  0  0
   -2.1927   -4.5796   -0.7930 H   0  0  0  0  0  0  0  0  0  0  0  0
   -3.6037   -3.6151   -1.3073 H   0  0  0  0  0  0  0  0  0  0  0  0
   -3.3473   -3.9630    0.4238 H   0  0  0  0  0  0  0  0  0  0  0  0
   -0.0136   -3.6664    0.0345 C   0  0  0  0  0  0  0  0  0  0  0  0
   -0.5625   -4.3058    0.7598 H   0  0  0  0  0  0  0  0  0  0  0  0
    0.0009   -4.2345   -0.9257 H   0  0  0  0  0  0  0  0  0  0  0  0
    1.4198   -3.4916    0.5359 C   0  0  0  0  0  0  0  0  0  0  0  0
    1.4140   -2.9249    1.4900 H   0  0  0  0  0  0  0  0  0  0  0  0
    1.7895   -4.5061    0.7880 H   0  0  0  0  0  0  0  0  0  0  0  0
    2.3894   -2.8625   -0.4690 C   0  0  0  0  0  0  0  0  0  0  0  0
    2.0857   -3.1346   -1.5021 H   0  0  0  0  0  0  0  0  0  0  0  0
    3.4169   -3.2764   -0.3313 H   0  0  0  0  0  0  0  0  0  0  0  0
  1 15  1  6  0  0  0
  1 18  1  0  0  0  0
  1  6  1  0  0  0  0
  2 24  1  0  0  0  0
  2 27  2  0  0  0  0
  4 45  1  0  0  0  0
  5 12  1  6  0  0  0
  5  9  1  0  0  0  0
  6  8  1  0  0  0  0
  6  7  1  0  0  0  0
  9  6  1  0  0  0  0
  9 11  1  0  0  0  0
 10  9  1  0  0  0  0
 12 15  1  0  0  0  0
 13 12  1  0  0  0  0
 14 12  1  0  0  0  0
 15 16  1  0  0  0  0
 17 15  1  0  0  0  0
 18 19  1  0  0  0  0
 20 18  1  0  0  0  0
 21 24  1  0  0  0  0
 21 18  1  0  0  0  0
 22 21  1  0  0  0  0
 23 21  1  0  0  0  0
 24 25  1  0  0  0  0
 26 24  1  0  0  0  0
 27 28  1  0  0  0  0
 28 29  1  0  0  0  0
 28 31  1  0  0  0  0
 30 28  1  0  0  0  0
 32  3  1  6  0  0  0
 32 27  1  0  0  0  0
 33 32  1  0  0  0  0
 33 34  1  0  0  0  0
 35 33  2  0  0  0  0
 36 35  1  0  0  0  0
 37 39  2  0  0  0  0
 37 35  1  0  0  0  0
 38 37  1  0  0  0  0
 39 40  1  0  0  0  0
 39  3  1  0  0  0  0
 40 41  1  1  0  0  0
 40  4  1  0  0  0  0
 41 44  1  0  0  0  0
 42 41  1  0  0  0  0
 43 41  1  0  0  0  0
 45 48  1  0  0  0  0
 45 46  1  0  0  0  0
 47 45  1  0  0  0  0
 48 50  1  0  0  0  0
 48 49  1  0  0  0  0
 51  5  1  0  0  0  0
 51 53  1  0  0  0  0
 51 48  1  0  0  0  0
 52 51  1  0  0  0  0
M  END
