1,2,3
 OpenBabel05122313063D

 60 60  0  0  0  0  0  0  0  0999 V2000
    0.3363   -1.3518   -1.5161 N   0  0  0  0  0  0  0  0  0  0  0  0
    2.5588   -0.1390   -0.2689 N   0  0  0  0  0  0  0  0  0  0  0  0
    0.5149    1.4755   -1.3565 N   0  0  0  0  0  0  0  0  0  0  0  0
    1.6210   -2.0964   -1.4838 C   0  0  0  0  0  0  0  0  0  0  0  0
    1.7508   -2.7340   -2.3863 H   0  0  0  0  0  0  0  0  0  0  0  0
    1.5815   -2.7704   -0.6067 H   0  0  0  0  0  0  0  0  0  0  0  0
    2.7949   -1.1386   -1.3626 C   0  0  0  0  0  0  0  0  0  0  0  0
    3.7276   -1.7085   -1.1780 H   0  0  0  0  0  0  0  0  0  0  0  0
    2.9577   -0.6006   -2.3150 H   0  0  0  0  0  0  0  0  0  0  0  0
    2.8966    1.2451   -0.7056 C   0  0  0  0  0  0  0  0  0  0  0  0
    3.9413    1.3089   -1.0819 H   0  0  0  0  0  0  0  0  0  0  0  0
    2.8224    1.8909    0.1898 H   0  0  0  0  0  0  0  0  0  0  0  0
    1.9288    1.7219   -1.7771 C   0  0  0  0  0  0  0  0  0  0  0  0
    2.1010    2.7970   -1.9743 H   0  0  0  0  0  0  0  0  0  0  0  0
    2.1211    1.2065   -2.7373 H   0  0  0  0  0  0  0  0  0  0  0  0
   -0.3072    0.8678   -2.4409 C   0  0  0  0  0  0  0  0  0  0  0  0
   -0.2879    1.4901   -3.3613 H   0  0  0  0  0  0  0  0  0  0  0  0
   -1.3471    0.8333   -2.0671 H   0  0  0  0  0  0  0  0  0  0  0  0
    0.1852   -0.5323   -2.7623 C   0  0  0  0  0  0  0  0  0  0  0  0
   -0.5231   -1.0178   -3.4626 H   0  0  0  0  0  0  0  0  0  0  0  0
    1.1545   -0.5002   -3.2961 H   0  0  0  0  0  0  0  0  0  0  0  0
   -0.8473   -2.2590   -1.3614 C   0  0  0  0  0  0  0  0  0  0  0  0
   -1.7264   -1.5921   -1.3709 H   0  0  0  0  0  0  0  0  0  0  0  0
   -0.8105   -2.6791   -0.3392 H   0  0  0  0  0  0  0  0  0  0  0  0
   -1.0108   -3.4004   -2.3938 C   0  0  0  0  0  0  0  0  0  0  0  0
   -0.4991   -3.1109   -3.3405 H   0  0  0  0  0  0  0  0  0  0  0  0
   -0.4107   -4.7312   -1.9145 C   0  0  0  0  0  0  0  0  0  0  0  0
    0.6743   -4.6694   -1.7003 H   0  0  0  0  0  0  0  0  0  0  0  0
   -0.9168   -5.0710   -0.9863 H   0  0  0  0  0  0  0  0  0  0  0  0
   -0.5511   -5.5254   -2.6745 H   0  0  0  0  0  0  0  0  0  0  0  0
   -2.5049   -3.5704   -2.7099 C   0  0  0  0  0  0  0  0  0  0  0  0
   -2.9329   -2.6547   -3.1657 H   0  0  0  0  0  0  0  0  0  0  0  0
   -2.6768   -4.4137   -3.4076 H   0  0  0  0  0  0  0  0  0  0  0  0
   -3.0809   -3.7775   -1.7834 H   0  0  0  0  0  0  0  0  0  0  0  0
    3.3040   -0.5418    0.9663 C   0  0  0  0  0  0  0  0  0  0  0  0
    2.9897   -1.5829    1.1694 H   0  0  0  0  0  0  0  0  0  0  0  0
    2.9088    0.0689    1.8007 H   0  0  0  0  0  0  0  0  0  0  0  0
    4.8504   -0.4584    0.9244 C   0  0  0  0  0  0  0  0  0  0  0  0
    5.1828   -0.5548   -0.1346 H   0  0  0  0  0  0  0  0  0  0  0  0
    5.4451   -1.6435    1.7004 C   0  0  0  0  0  0  0  0  0  0  0  0
    6.5520   -1.6018    1.7082 H   0  0  0  0  0  0  0  0  0  0  0  0
    5.1067   -1.6331    2.7581 H   0  0  0  0  0  0  0  0  0  0  0  0
    5.1450   -2.6163    1.2600 H   0  0  0  0  0  0  0  0  0  0  0  0
    5.3927    0.8671    1.4803 C   0  0  0  0  0  0  0  0  0  0  0  0
    6.4994    0.8898    1.4338 H   0  0  0  0  0  0  0  0  0  0  0  0
    5.0221    1.7543    0.9319 H   0  0  0  0  0  0  0  0  0  0  0  0
    5.1043    0.9878    2.5457 H   0  0  0  0  0  0  0  0  0  0  0  0
   -0.1195    2.7300   -0.8193 C   0  0  0  0  0  0  0  0  0  0  0  0
    0.6697    3.2672   -0.2547 H   0  0  0  0  0  0  0  0  0  0  0  0
   -0.8678    2.4223   -0.0730 H   0  0  0  0  0  0  0  0  0  0  0  0
   -0.8045    3.6951   -1.7997 C   0  0  0  0  0  0  0  0  0  0  0  0
   -1.5877    3.1282   -2.3471 H   0  0  0  0  0  0  0  0  0  0  0  0
   -1.5437    4.7411   -0.9507 C   0  0  0  0  0  0  0  0  0  0  0  0
   -2.0964    5.4513   -1.5961 H   0  0  0  0  0  0  0  0  0  0  0  0
   -2.2734    4.2535   -0.2740 H   0  0  0  0  0  0  0  0  0  0  0  0
   -0.8352    5.3330   -0.3328 H   0  0  0  0  0  0  0  0  0  0  0  0
    0.1302    4.3557   -2.8197 C   0  0  0  0  0  0  0  0  0  0  0  0
   -0.4278    5.0816   -3.4441 H   0  0  0  0  0  0  0  0  0  0  0  0
    0.9446    4.9187   -2.3147 H   0  0  0  0  0  0  0  0  0  0  0  0
    0.5989    3.6304   -3.5162 H   0  0  0  0  0  0  0  0  0  0  0  0
  1  4  1  0  0  0  0
  1 22  1  0  0  0  0
  2 35  1  0  0  0  0
  3 48  1  0  0  0  0
  4  7  1  0  0  0  0
  4  6  1  0  0  0  0
  5  4  1  0  0  0  0
  7  8  1  0  0  0  0
  7  2  1  0  0  0  0
  9  7  1  0  0  0  0
 10  2  1  0  0  0  0
 10 12  1  0  0  0  0
 11 10  1  0  0  0  0
 13  3  1  0  0  0  0
 13 10  1  0  0  0  0
 14 13  1  0  0  0  0
 15 13  1  0  0  0  0
 16 18  1  0  0  0  0
 16  3  1  0  0  0  0
 17 16  1  0  0  0  0
 19 16  1  0  0  0  0
 19  1  1  0  0  0  0
 20 19  1  0  0  0  0
 21 19  1  0  0  0  0
 22 24  1  0  0  0  0
 23 22  1  0  0  0  0
 25 27  1  0  0  0  0
 25 22  1  0  0  0  0
 26 25  1  0  0  0  0
 27 28  1  0  0  0  0
 27 29  1  0  0  0  0
 30 27  1  0  0  0  0
 31 25  1  0  0  0  0
 31 34  1  0  0  0  0
 32 31  1  0  0  0  0
 33 31  1  0  0  0  0
 35 36  1  0  0  0  0
 35 37  1  0  0  0  0
 38 35  1  0  0  0  0
 38 44  1  0  0  0  0
 38 40  1  0  0  0  0
 39 38  1  0  0  0  0
 40 41  1  0  0  0  0
 40 42  1  0  0  0  0
 43 40  1  0  0  0  0
 44 47  1  0  0  0  0
 45 44  1  0  0  0  0
 46 44  1  0  0  0  0
 48 49  1  0  0  0  0
 48 50  1  0  0  0  0
 51 53  1  0  0  0  0
 51 48  1  0  0  0  0
 52 51  1  0  0  0  0
 53 56  1  0  0  0  0
 53 55  1  0  0  0  0
 54 53  1  0  0  0  0
 57 59  1  0  0  0  0
 57 51  1  0  0  0  0
 58 57  1  0  0  0  0
 60 57  1  0  0  0  0
M  END
