4,5,6
 OpenBabel05122313063D

 55 58  0  0  1  0  0  0  0  0999 V2000
    7.9127   -0.8578   -0.0139 O   0  0  0  0  0  0  0  0  0  0  0  0
    8.8371    0.8387    1.1686 O   0  0  0  0  0  0  0  0  0  0  0  0
    9.6447    0.3397    0.9148 H   0  0  0  0  0  0  0  0  0  0  0  0
    1.4010    0.4706    0.2840 N   0  0  0  0  0  0  0  0  0  0  0  0
   -1.0901    1.3436   -0.6756 N   0  0  0  0  0  2  0  0  0  0  0  0
   -1.0108   -0.7575    1.2142 N   0  0  0  0  0  2  0  0  0  0  0  0
   -0.1982    2.2809   -0.3072 C   0  0  0  0  0  0  0  0  0  0  0  0
   -0.5526    3.6247   -0.0354 C   0  0  0  0  0  0  0  0  0  0  0  0
    0.2296    4.3400    0.2547 H   0  0  0  0  0  0  0  0  0  0  0  0
   -1.8761    4.0103   -0.1434 C   0  0  0  0  0  0  0  0  0  0  0  0
   -2.1816    5.0488    0.0554 H   0  0  0  0  0  0  0  0  0  0  0  0
   -4.2388    3.3825   -0.5799 C   0  0  0  0  0  0  0  0  0  0  0  0
   -4.5395    4.4232   -0.3870 H   0  0  0  0  0  0  0  0  0  0  0  0
   -5.1806    2.4174   -0.8955 C   0  0  0  0  0  0  0  0  0  0  0  0
   -6.2463    2.6807   -0.9605 H   0  0  0  0  0  0  0  0  0  0  0  0
   -4.7639    1.0828   -1.1368 C   0  0  0  0  0  0  0  0  0  0  0  0
   -5.5105    0.3142   -1.3856 H   0  0  0  0  0  0  0  0  0  0  0  0
   -3.4242    0.7270   -1.0689 C   0  0  0  0  0  0  0  0  0  0  0  0
   -3.1254   -0.3070   -1.2595 H   0  0  0  0  0  0  0  0  0  0  0  0
   -2.4311    1.6906   -0.7523 C   0  0  1  0  0  3  0  0  0  0  0  0
   -2.8567    3.0473   -0.4942 C   0  0  0  0  0  0  0  0  0  0  0  0
   -0.3588    0.0727    2.0486 C   0  0  0  0  0  0  0  0  0  0  0  0
   -0.9416    0.5768    3.2360 C   0  0  0  0  0  0  0  0  0  0  0  0
   -0.3675    1.2692    3.8674 H   0  0  0  0  0  0  0  0  0  0  0  0
   -2.2310    0.1996    3.5719 C   0  0  0  0  0  0  0  0  0  0  0  0
   -2.7215    0.6039    4.4704 H   0  0  0  0  0  0  0  0  0  0  0  0
   -2.9193   -0.7396    2.7614 C   0  0  0  0  0  0  0  0  0  0  0  0
   -4.2248   -1.2116    3.0836 C   0  0  0  0  0  0  0  0  0  0  0  0
   -4.7247   -0.8090    3.9774 H   0  0  0  0  0  0  0  0  0  0  0  0
   -4.8397   -2.1728    2.2981 C   0  0  0  0  0  0  0  0  0  0  0  0
   -5.8439   -2.5398    2.5551 H   0  0  0  0  0  0  0  0  0  0  0  0
   -4.1563   -2.7106    1.1752 C   0  0  0  0  0  0  0  0  0  0  0  0
   -4.6269   -3.5083    0.5815 H   0  0  0  0  0  0  0  0  0  0  0  0
   -2.8939   -2.2553    0.8219 C   0  0  0  0  0  0  0  0  0  0  0  0
   -2.3607   -2.6967   -0.0277 H   0  0  0  0  0  0  0  0  0  0  0  0
   -2.2554   -1.2401    1.5822 C   0  0  2  0  0  3  0  0  0  0  0  0
    1.2436    1.8609   -0.2226 C   0  0  0  0  0  0  0  0  0  0  0  0
    1.8097    2.5817    0.4042 H   0  0  0  0  0  0  0  0  0  0  0  0
    1.6894    1.8923   -1.2401 H   0  0  0  0  0  0  0  0  0  0  0  0
    1.0859    0.3770    1.7360 C   0  0  0  0  0  0  0  0  0  0  0  0
    1.6786   -0.4697    2.1443 H   0  0  0  0  0  0  0  0  0  0  0  0
    1.4172    1.2863    2.2791 H   0  0  0  0  0  0  0  0  0  0  0  0
    2.7971   -0.0225    0.0105 C   0  0  0  0  0  0  0  0  0  0  0  0
    2.9275   -0.0180   -1.0895 H   0  0  0  0  0  0  0  0  0  0  0  0
    2.8258   -1.0839    0.3252 H   0  0  0  0  0  0  0  0  0  0  0  0
    3.9363    0.7501    0.6763 C   0  0  0  0  0  0  0  0  0  0  0  0
    3.9451    1.8083    0.3363 H   0  0  0  0  0  0  0  0  0  0  0  0
    3.8013    0.7754    1.7800 H   0  0  0  0  0  0  0  0  0  0  0  0
    5.2857    0.1031    0.3459 C   0  0  0  0  0  0  0  0  0  0  0  0
    5.2954   -0.9543    0.6851 H   0  0  0  0  0  0  0  0  0  0  0  0
    5.4241    0.0541   -0.7549 H   0  0  0  0  0  0  0  0  0  0  0  0
    6.4727    0.8349    0.9651 C   0  0  0  0  0  0  0  0  0  0  0  0
    6.5326    1.8905    0.6217 H   0  0  0  0  0  0  0  0  0  0  0  0
    6.3875    0.8946    2.0722 H   0  0  0  0  0  0  0  0  0  0  0  0
    7.7940    0.1611    0.6381 C   0  0  0  0  0  0  0  0  0  0  0  0
  1 55  2  0  0  0  0
  3  2  1  0  0  0  0
  4 40  1  0  0  0  0
  5  7  1  0  0  0  0
  6 36  1  0  0  0  0
  6 22  1  0  0  0  0
  7 37  1  0  0  0  0
  7  8  2  0  0  0  0
  8  9  1  0  0  0  0
 10  8  1  0  0  0  0
 10 11  1  0  0  0  0
 12 21  1  0  0  0  0
 12 13  1  0  0  0  0
 14 12  2  0  0  0  0
 15 14  1  0  0  0  0
 16 18  2  0  0  0  0
 16 14  1  0  0  0  0
 17 16  1  0  0  0  0
 19 18  1  0  0  0  0
 20 18  1  1  0  0  0
 20  5  1  0  0  0  0
 20 21  1  0  0  0  0
 21 10  2  0  0  0  0
 22 23  2  0  0  0  0
 23 25  1  0  0  0  0
 23 24  1  0  0  0  0
 25 26  1  0  0  0  0
 27 28  1  0  0  0  0
 27 25  2  0  0  0  0
 28 29  1  0  0  0  0
 30 31  1  0  0  0  0
 30 28  2  0  0  0  0
 32 30  1  0  0  0  0
 33 32  1  0  0  0  0
 34 32  2  0  0  0  0
 35 34  1  0  0  0  0
 36 34  1  1  0  0  0
 36 27  1  0  0  0  0
 37  4  1  0  0  0  0
 37 38  1  0  0  0  0
 39 37  1  0  0  0  0
 40 22  1  0  0  0  0
 40 41  1  0  0  0  0
 40 42  1  0  0  0  0
 43  4  1  0  0  0  0
 43 45  1  0  0  0  0
 43 46  1  0  0  0  0
 44 43  1  0  0  0  0
 46 48  1  0  0  0  0
 47 46  1  0  0  0  0
 49 46  1  0  0  0  0
 49 50  1  0  0  0  0
 49 52  1  0  0  0  0
 51 49  1  0  0  0  0
 52 54  1  0  0  0  0
 53 52  1  0  0  0  0
 55 52  1  0  0  0  0
 55  2  1  0  0  0  0
M  END
