59,60,63
 OpenBabel05122313063D

 69 73  0  0  1  0  0  0  0  0999 V2000
    8.4936   -0.0374   -0.5649 C   0  0  0  0  0  0  0  0  0  0  0  0
    9.0564   -0.4660    0.3027 H   0  0  0  0  0  0  0  0  0  0  0  0
    8.7003   -0.7149   -1.4318 H   0  0  0  0  0  0  0  0  0  0  0  0
    7.0169   -0.1165   -0.2462 C   0  0  0  0  0  0  0  0  0  0  0  0
    6.4153   -1.3701   -0.0343 C   0  0  0  0  0  0  0  0  0  0  0  0
    6.9899   -2.3056   -0.1006 H   0  0  0  0  0  0  0  0  0  0  0  0
    5.0493   -1.4493    0.2718 C   0  0  0  0  0  0  0  0  0  0  0  0
    4.2582   -0.2823    0.3720 C   0  0  0  0  0  0  0  0  0  0  0  0
    3.1900   -0.3459    0.6149 H   0  0  0  0  0  0  0  0  0  0  0  0
    4.8831    0.9648    0.1670 C   0  0  0  0  0  0  0  0  0  0  0  0
    6.2518    1.0504   -0.1504 C   0  0  0  0  0  0  0  0  0  0  0  0
    6.7148    2.0314   -0.3120 H   0  0  0  0  0  0  0  0  0  0  0  0
    3.2019   -3.0147    0.3448 C   0  0  0  0  0  0  0  0  0  0  0  0
    2.5570   -2.3281    0.9411 H   0  0  0  0  0  0  0  0  0  0  0  0
    3.0811   -4.0285    0.7826 H   0  0  0  0  0  0  0  0  0  0  0  0
    2.7819   -3.0281   -1.1307 C   0  0  0  0  0  0  0  0  0  0  0  0
    2.6746   -1.9947   -1.5171 H   0  0  0  0  0  0  0  0  0  0  0  0
    3.5982   -3.5055   -1.7112 H   0  0  0  0  0  0  0  0  0  0  0  0
    1.5059   -3.8210   -1.4054 C   0  0  0  0  0  0  0  0  0  0  0  0
    1.2554   -3.7983   -2.4844 H   0  0  0  0  0  0  0  0  0  0  0  0
    1.6192   -4.8817   -1.1067 H   0  0  0  0  0  0  0  0  0  0  0  0
   -0.4221   -3.9486    0.2648 C   0  0  0  0  0  0  0  0  0  0  0  0
   -0.2426   -4.9846    0.5683 H   0  0  0  0  0  0  0  0  0  0  0  0
   -1.3634   -3.0013    0.6543 C   0  0  0  0  0  0  0  0  0  0  0  0
   -2.4447   -3.0481    1.7073 C   0  0  0  0  0  0  0  0  0  0  0  0
   -2.8482   -4.0845    1.7868 H   0  0  0  0  0  0  0  0  0  0  0  0
   -2.0057   -2.7927    2.6946 H   0  0  0  0  0  0  0  0  0  0  0  0
   -4.3655   -2.4162    0.4414 C   0  0  0  0  0  0  0  0  0  0  0  0
   -5.0123   -3.2796    0.7188 H   0  0  0  0  0  0  0  0  0  0  0  0
   -3.8036   -2.6972   -0.4833 H   0  0  0  0  0  0  0  0  0  0  0  0
   -5.2178   -1.2062    0.1329 C   0  0  2  0  0  3  0  0  0  0  0  0
   -6.6192   -1.2864    0.0827 C   0  0  0  0  0  0  0  0  0  0  0  0
   -7.1242   -2.2370    0.3075 H   0  0  0  0  0  0  0  0  0  0  0  0
   -7.3519   -0.1417   -0.2557 C   0  0  0  0  0  0  0  0  0  0  0  0
   -8.4500   -0.1777   -0.3110 H   0  0  0  0  0  0  0  0  0  0  0  0
   -6.6652    1.0496   -0.5218 C   0  0  0  0  0  0  0  0  0  0  0  0
   -7.2062    1.9662   -0.7979 H   0  0  0  0  0  0  0  0  0  0  0  0
   -5.2635    1.0615   -0.4312 C   0  0  0  0  0  0  0  0  0  0  0  0
   -4.4669    2.3275   -0.6512 C   0  0  0  0  0  0  0  0  0  0  0  0
   -5.1400    3.1489   -0.9876 H   0  0  0  0  0  0  0  0  0  0  0  0
   -4.0182    2.6355    0.3251 H   0  0  0  0  0  0  0  0  0  0  0  0
   -2.4849    3.1036   -1.7259 C   0  0  0  0  0  0  0  0  0  0  0  0
   -2.9536    4.1110   -1.8213 H   0  0  0  0  0  0  0  0  0  0  0  0
   -1.9500    2.9029   -2.6780 H   0  0  0  0  0  0  0  0  0  0  0  0
   -1.4889    3.1073   -0.5899 C   0  0  0  0  0  0  0  0  0  0  0  0
   -0.5966    4.0832   -0.1564 C   0  0  0  0  0  0  0  0  0  0  0  0
   -0.4093    5.1128   -0.4765 H   0  0  0  0  0  0  0  0  0  0  0  0
    1.2515    3.9983    1.6027 C   0  0  0  0  0  0  0  0  0  0  0  0
    1.1984    3.5269    2.6034 H   0  0  0  0  0  0  0  0  0  0  0  0
    1.1055    5.0879    1.7300 H   0  0  0  0  0  0  0  0  0  0  0  0
    2.5858    3.7056    0.9172 C   0  0  0  0  0  0  0  0  0  0  0  0
    2.6187    4.1852   -0.0835 H   0  0  0  0  0  0  0  0  0  0  0  0
    3.3864    4.1843    1.5179 H   0  0  0  0  0  0  0  0  0  0  0  0
    2.9217    2.2218    0.7774 C   0  0  0  0  0  0  0  0  0  0  0  0
    2.8605    1.7112    1.7682 H   0  0  0  0  0  0  0  0  0  0  0  0
    2.2000    1.7042    0.1023 H   0  0  0  0  0  0  0  0  0  0  0  0
    0.3427   -3.3106   -0.6687 N   0  0  0  0  0  0  0  0  0  0  0  0
   -0.0769   -2.0580   -0.8728 N   0  0  0  0  0  2  0  0  0  0  0  0
   -1.1037   -1.8705   -0.0706 N   0  0  0  0  0  2  0  0  0  0  0  0
   -4.5670   -0.0506   -0.1162 N   0  0  0  0  0  2  0  0  0  0  0  0
    0.1011    3.4869    0.8539 N   0  0  0  0  0  0  0  0  0  0  0  0
   -0.3114    2.2309    1.0585 N   0  0  0  0  0  2  0  0  0  0  0  0
   -1.2682    2.0020    0.1853 N   0  0  0  0  0  2  0  0  0  0  0  0
    8.8632    1.2971   -0.8309 O   0  0  0  0  0  0  0  0  0  0  0  0
    9.8246    1.3170   -0.9747 H   0  0  0  0  0  0  0  0  0  0  0  0
    4.5755   -2.7198    0.5012 O   0  0  0  0  0  0  0  0  0  0  0  0
    4.2359    2.1670    0.2606 O   0  0  0  0  0  0  0  0  0  0  0  0
   -3.4688   -2.0975    1.4970 O   0  0  0  0  0  0  0  0  0  0  0  0
   -3.4524    2.0805   -1.6154 O   0  0  0  0  0  0  0  0  0  0  0  0
  1  4  1  0  0  0  0
  1  2  1  0  0  0  0
  3  1  1  0  0  0  0
  4 11  2  0  0  0  0
  4  5  1  0  0  0  0
  5  7  2  0  0  0  0
  6  5  1  0  0  0  0
  7  8  1  0  0  0  0
  7 66  1  0  0  0  0
  8  9  1  0  0  0  0
 10 67  1  0  0  0  0
 10  8  2  0  0  0  0
 11 10  1  0  0  0  0
 12 11  1  0  0  0  0
 13 66  1  0  0  0  0
 13 15  1  0  0  0  0
 13 14  1  0  0  0  0
 16 13  1  0  0  0  0
 17 16  1  0  0  0  0
 18 16  1  0  0  0  0
 19 16  1  0  0  0  0
 19 21  1  0  0  0  0
 19 57  1  0  0  0  0
 20 19  1  0  0  0  0
 22 23  1  0  0  0  0
 22 24  2  0  0  0  0
 24 25  1  0  0  0  0
 25 26  1  0  0  0  0
 25 27  1  0  0  0  0
 28 29  1  0  0  0  0
 28 68  1  0  0  0  0
 30 28  1  0  0  0  0
 31 60  1  6  0  0  0
 31 28  1  0  0  0  0
 32 31  1  0  0  0  0
 32 33  1  0  0  0  0
 34 32  2  0  0  0  0
 35 34  1  0  0  0  0
 36 38  2  0  0  0  0
 36 34  1  0  0  0  0
 37 36  1  0  0  0  0
 38 60  1  0  0  0  0
 39 38  1  0  0  0  0
 39 41  1  0  0  0  0
 40 39  1  0  0  0  0
 42 69  1  0  0  0  0
 42 45  1  0  0  0  0
 43 42  1  0  0  0  0
 44 42  1  0  0  0  0
 45 46  2  0  0  0  0
 45 63  1  0  0  0  0
 46 61  1  0  0  0  0
 47 46  1  0  0  0  0
 48 50  1  0  0  0  0
 48 49  1  0  0  0  0
 51 53  1  0  0  0  0
 51 48  1  0  0  0  0
 52 51  1  0  0  0  0
 54 51  1  0  0  0  0
 54 55  1  0  0  0  0
 56 54  1  0  0  0  0
 57 22  1  0  0  0  0
 58 57  1  0  0  0  0
 58 59  1  0  0  0  0
 59 24  1  0  0  0  0
 61 62  1  0  0  0  0
 61 48  1  0  0  0  0
 63 62  1  0  0  0  0
 64  1  1  0  0  0  0
 65 64  1  0  0  0  0
 67 54  1  0  0  0  0
 68 25  1  0  0  0  0
 69 39  1  0  0  0  0
M  END
