1,2,3
 OpenBabel05122313063D

 30 30  0  0  0  0  0  0  0  0999 V2000
   -1.1719    0.8144   -1.0690 N   0  0  0  0  0  0  0  0  0  0  0  0
   -0.1197   -1.4218   -1.0694 N   0  0  0  0  0  0  0  0  0  0  0  0
    1.2908    0.6076   -1.0695 N   0  0  0  0  0  0  0  0  0  0  0  0
    0.2571    3.0668   -1.3242 C   0  0  0  0  0  0  0  0  0  0  0  0
   -0.6020    3.4947   -1.8776 H   0  0  0  0  0  0  0  0  0  0  0  0
    1.1759    3.3459   -1.8767 H   0  0  0  0  0  0  0  0  0  0  0  0
    0.3002    3.5874   -0.3437 H   0  0  0  0  0  0  0  0  0  0  0  0
   -2.3733    1.6493   -0.9112 C   0  0  0  0  0  0  0  0  0  0  0  0
   -2.7873    1.9367   -1.9007 H   0  0  0  0  0  0  0  0  0  0  0  0
   -2.1344    2.5687   -0.3478 H   0  0  0  0  0  0  0  0  0  0  0  0
   -3.1517    1.1051   -0.3473 H   0  0  0  0  0  0  0  0  0  0  0  0
   -2.7849   -1.3102   -1.3234 C   0  0  0  0  0  0  0  0  0  0  0  0
   -3.2571   -1.5323   -0.3425 H   0  0  0  0  0  0  0  0  0  0  0  0
   -2.7264   -2.2686   -1.8761 H   0  0  0  0  0  0  0  0  0  0  0  0
   -3.4859   -0.6542   -1.8762 H   0  0  0  0  0  0  0  0  0  0  0  0
   -0.2421   -2.8796   -0.9114 C   0  0  0  0  0  0  0  0  0  0  0  0
   -1.1572   -3.1326   -0.3470 H   0  0  0  0  0  0  0  0  0  0  0  0
    0.6190   -3.2815   -0.3485 H   0  0  0  0  0  0  0  0  0  0  0  0
   -0.2851   -3.3819   -1.9008 H   0  0  0  0  0  0  0  0  0  0  0  0
    2.5268   -1.7561   -1.3251 C   0  0  0  0  0  0  0  0  0  0  0  0
    3.3267   -1.2260   -1.8789 H   0  0  0  0  0  0  0  0  0  0  0  0
    2.3089   -2.6913   -1.8775 H   0  0  0  0  0  0  0  0  0  0  0  0
    2.9566   -2.0536   -0.3447 H   0  0  0  0  0  0  0  0  0  0  0  0
    2.6145    1.2304   -0.9117 C   0  0  0  0  0  0  0  0  0  0  0  0
    3.2917    0.5631   -0.3494 H   0  0  0  0  0  0  0  0  0  0  0  0
    2.5326    2.1760   -0.3465 H   0  0  0  0  0  0  0  0  0  0  0  0
    3.0699    1.4465   -1.9011 H   0  0  0  0  0  0  0  0  0  0  0  0
    0.1257    1.5009   -1.1432 B   0  0  0  0  0  0  0  0  0  0  0  0
   -1.3631   -0.6412   -1.1430 B   0  0  0  0  0  0  0  0  0  0  0  0
    1.2365   -0.8595   -1.1436 B   0  0  0  0  0  0  0  0  0  0  0  0
  1  8  1  0  0  0  0
  2 16  1  0  0  0  0
  3 24  1  0  0  0  0
  4 28  1  0  0  0  0
  4  7  1  0  0  0  0
  5  4  1  0  0  0  0
  6  4  1  0  0  0  0
  8 10  1  0  0  0  0
  8 11  1  0  0  0  0
  9  8  1  0  0  0  0
 12 29  1  0  0  0  0
 12 13  1  0  0  0  0
 14 12  1  0  0  0  0
 15 12  1  0  0  0  0
 16 18  1  0  0  0  0
 16 17  1  0  0  0  0
 19 16  1  0  0  0  0
 20 30  1  0  0  0  0
 20 23  1  0  0  0  0
 21 20  1  0  0  0  0
 22 20  1  0  0  0  0
 24 25  1  0  0  0  0
 24 26  1  0  0  0  0
 27 24  1  0  0  0  0
 28  3  1  0  0  0  0
 28  1  1  0  0  0  0
 29  2  1  0  0  0  0
 29  1  1  0  0  0  0
 30  3  1  0  0  0  0
 30  2  1  0  0  0  0
M  END
