1,6,21
 OpenBabel05122313063D

 45 48  0  0  1  0  0  0  0  0999 V2000
    0.0000    1.0414   -0.0000 N   0  0  0  0  0  2  0  0  0  0  0  0
    1.0402    1.7388    0.5929 C   0  0  2  0  0  3  0  0  0  0  0  0
    4.2011   -1.5683   -0.7452 C   0  0  0  0  0  0  0  0  0  0  0  0
    4.6859   -2.1333    0.0787 H   0  0  0  0  0  0  0  0  0  0  0  0
    4.8533   -1.5943   -1.6394 H   0  0  0  0  0  0  0  0  0  0  0  0
   -1.9776   -0.9786    0.3251 N   0  0  0  0  0  2  0  0  0  0  0  0
    3.4236    2.0448    1.1980 C   0  0  0  0  0  0  0  0  0  0  0  0
    4.4498    1.6534    1.1624 H   0  0  0  0  0  0  0  0  0  0  0  0
   -2.3995    1.2718   -0.5944 C   0  0  0  0  0  0  0  0  0  0  0  0
    1.8092    3.7043    1.8700 C   0  0  0  0  0  0  0  0  0  0  0  0
    1.5581    4.6376    2.3975 H   0  0  0  0  0  0  0  0  0  0  0  0
    2.3686   -2.1146   -2.4940 C   0  0  0  0  0  0  0  0  0  0  0  0
    2.9691   -2.8961   -3.0024 H   0  0  0  0  0  0  0  0  0  0  0  0
    1.2994   -2.3887   -2.5778 H   0  0  0  0  0  0  0  0  0  0  0  0
    2.5355   -1.1461   -3.0083 H   0  0  0  0  0  0  0  0  0  0  0  0
   -1.8092    3.7043   -1.8700 C   0  0  0  0  0  0  0  0  0  0  0  0
   -1.5581    4.6376   -2.3977 H   0  0  0  0  0  0  0  0  0  0  0  0
    2.3995    1.2717    0.5944 C   0  0  0  0  0  0  0  0  0  0  0  0
   -1.0402    1.7388   -0.5930 C   0  0  0  0  0  0  0  0  0  0  0  0
    2.7709    0.0185   -0.0298 C   0  0  0  0  0  0  0  0  0  0  0  0
    1.9776   -0.9786   -0.3251 N   0  0  0  0  0  2  0  0  0  0  0  0
   -4.0758   -0.1853    0.3228 O   0  0  0  0  0  0  0  0  0  0  0  0
    4.0758   -0.1853   -0.3227 O   0  0  0  0  0  0  0  0  0  0  0  0
    3.1460    3.2537    1.8289 C   0  0  0  0  0  0  0  0  0  0  0  0
    3.9504    3.8338    2.3031 H   0  0  0  0  0  0  0  0  0  0  0  0
   -3.1461    3.2537   -1.8289 C   0  0  0  0  0  0  0  0  0  0  0  0
   -3.9504    3.8338   -2.3031 H   0  0  0  0  0  0  0  0  0  0  0  0
   -2.7709    0.0185    0.0299 C   0  0  0  0  0  0  0  0  0  0  0  0
   -4.2010   -1.5684    0.7452 C   0  0  0  0  0  0  0  0  0  0  0  0
   -4.6857   -2.1333   -0.0787 H   0  0  0  0  0  0  0  0  0  0  0  0
   -4.8533   -1.5945    1.6394 H   0  0  0  0  0  0  0  0  0  0  0  0
   -2.3685   -2.1145    2.4941 C   0  0  0  0  0  0  0  0  0  0  0  0
   -2.9690   -2.8960    3.0025 H   0  0  0  0  0  0  0  0  0  0  0  0
   -1.2993   -2.3884    2.5779 H   0  0  0  0  0  0  0  0  0  0  0  0
   -2.5355   -1.1460    3.0083 H   0  0  0  0  0  0  0  0  0  0  0  0
    0.7903    2.9704    1.2702 C   0  0  0  0  0  0  0  0  0  0  0  0
   -0.2468    3.3285    1.3278 H   0  0  0  0  0  0  0  0  0  0  0  0
    2.7539   -2.0300   -1.0183 C   0  0  2  0  0  0  0  0  0  0  0  0
    2.5230   -2.9966   -0.5294 H   0  0  0  0  0  0  0  0  0  0  0  0
   -0.7903    2.9704   -1.2703 C   0  0  0  0  0  0  0  0  0  0  0  0
    0.2468    3.3284   -1.3280 H   0  0  0  0  0  0  0  0  0  0  0  0
   -2.7538   -2.0300    1.0184 C   0  0  2  0  0  0  0  0  0  0  0  0
   -2.5229   -2.9966    0.5295 H   0  0  0  0  0  0  0  0  0  0  0  0
   -3.4236    2.0448   -1.1980 C   0  0  0  0  0  3  0  0  0  0  0  0
   -4.4499    1.6534   -1.1623 H   0  0  0  0  0  0  0  0  0  0  0  0
  2  1  1  1  0  0  0
  2 18  1  0  0  0  0
  2 36  1  0  0  0  0
  3 23  1  0  0  0  0
  3  4  1  0  0  0  0
  5  3  1  0  0  0  0
  6 42  1  0  0  0  0
  7 24  2  0  0  0  0
  8  7  1  0  0  0  0
  9 19  1  0  0  0  0
  9 28  2  0  0  0  0
 10 11  1  0  0  0  0
 12 38  1  0  0  0  0
 13 12  1  0  0  0  0
 14 12  1  0  0  0  0
 15 12  1  0  0  0  0
 16 26  2  0  0  0  0
 16 40  1  0  0  0  0
 17 16  1  0  0  0  0
 18  7  1  0  0  0  0
 19  1  1  0  0  0  0
 20 18  2  0  0  0  0
 21 20  1  0  0  0  0
 22 29  1  0  0  0  0
 23 20  1  0  0  0  0
 24 10  1  0  0  0  0
 24 25  1  0  0  0  0
 26 44  1  0  0  0  0
 27 26  1  0  0  0  0
 28 22  1  0  0  0  0
 28  6  1  0  0  0  0
 29 42  1  0  0  0  0
 29 31  1  0  0  0  0
 30 29  1  0  0  0  0
 32 34  1  0  0  0  0
 32 33  1  0  0  0  0
 32 35  1  0  0  0  0
 36 37  1  0  0  0  0
 36 10  2  0  0  0  0
 38  3  1  0  0  0  0
 38 39  1  1  0  0  0
 38 21  1  0  0  0  0
 40 19  2  0  0  0  0
 41 40  1  0  0  0  0
 42 43  1  6  0  0  0
 42 32  1  0  0  0  0
 44 45  1  0  0  0  0
 44  9  1  0  0  0  0
M  END
