5,6,7
 OpenBabel05122313063D

 65 71  0  0  1  0  0  0  0  0999 V2000
    6.6281   -3.7504   -0.6771 Cl  0  0  0  0  0  0  0  0  0  0  0  0
    1.3739   -7.5110    0.2201 Cl  0  0  0  0  0  0  0  0  0  0  0  0
   -9.5147    0.8867   -0.3661 Cl  0  0  0  0  0  0  0  0  0  0  0  0
    2.1979    9.2733    0.4974 Cl  0  0  0  0  0  0  0  0  0  0  0  0
    1.7299    1.0275   -0.1598 N   0  0  0  0  0  2  0  0  0  0  0  0
   -0.8494    1.1865   -0.2160 N   0  0  0  0  0  2  0  0  0  0  0  0
   -1.5334   -1.3017   -0.0244 N   0  0  0  0  0  0  0  0  0  0  0  0
    2.2798    3.2501   -0.0239 C   0  0  0  0  0  0  0  0  0  0  0  0
   -3.8165   -1.0893    0.0510 C   0  0  0  0  0  0  0  0  0  0  0  0
    3.0945    1.1122   -0.1471 C   0  0  2  0  0  3  0  0  0  0  0  0
    3.4647    2.4740   -0.0593 C   0  0  0  0  0  0  0  0  0  0  0  0
    4.4910    2.8594   -0.0448 H   0  0  0  0  0  0  0  0  0  0  0  0
    1.2076    2.3162   -0.1009 C   0  0  0  0  0  0  0  0  0  0  0  0
   -0.2317    2.4109   -0.1926 C   0  0  0  0  0  0  0  0  0  0  0  0
   -1.0426    3.5643   -0.2649 C   0  0  0  0  0  0  0  0  0  0  0  0
   -0.5764    4.5557   -0.3041 H   0  0  0  0  0  0  0  0  0  0  0  0
   -2.4356    3.4111   -0.2679 C   0  0  0  0  0  0  0  0  0  0  0  0
   -3.0746    4.3064   -0.3036 H   0  0  0  0  0  0  0  0  0  0  0  0
   -3.0343    2.1453   -0.2077 C   0  0  0  0  0  0  0  0  0  0  0  0
   -4.1234    2.0314   -0.1638 H   0  0  0  0  0  0  0  0  0  0  0  0
   -2.2075    1.0007   -0.1929 C   0  0  0  0  0  0  0  0  0  0  0  0
   -2.5850   -0.3921   -0.1079 C   0  0  0  0  0  0  0  0  0  0  0  0
   -3.4639   -2.4446    0.2696 C   0  0  0  0  0  0  0  0  0  0  0  0
   -4.1610   -3.2871    0.3501 H   0  0  0  0  0  0  0  0  0  0  0  0
   -2.0565   -2.5474    0.1871 C   0  0  0  0  0  3  0  0  0  0  0  0
   -1.2516   -3.7747    0.1761 C   0  0  0  0  0  0  0  0  0  0  0  0
   -0.2848   -3.9948   -0.8327 C   0  0  0  0  0  0  0  0  0  0  0  0
   -0.1514   -3.2372   -1.6187 H   0  0  0  0  0  0  0  0  0  0  0  0
    0.5036   -5.1504   -0.8417 C   0  0  0  0  0  0  0  0  0  0  0  0
    1.2591   -5.3145   -1.6235 H   0  0  0  0  0  0  0  0  0  0  0  0
    0.3249   -6.1105    0.1688 C   0  0  0  0  0  0  0  0  0  0  0  0
   -0.6571   -5.9407    1.1582 C   0  0  0  0  0  0  0  0  0  0  0  0
   -0.7875   -6.7072    1.9350 H   0  0  0  0  0  0  0  0  0  0  0  0
   -1.4399   -4.7792    1.1520 C   0  0  0  0  0  0  0  0  0  0  0  0
   -2.1935   -4.6263    1.9391 H   0  0  0  0  0  0  0  0  0  0  0  0
    3.9781   -0.0487   -0.3027 C   0  0  0  0  0  0  0  0  0  0  0  0
    5.1423   -0.1888    0.4867 C   0  0  0  0  0  0  0  0  0  0  0  0
    5.3766    0.5812    1.2371 H   0  0  0  0  0  0  0  0  0  0  0  0
    5.9751   -1.3078    0.3602 C   0  0  0  0  0  0  0  0  0  0  0  0
    6.8655   -1.4249    0.9939 H   0  0  0  0  0  0  0  0  0  0  0  0
    5.6484   -2.3039   -0.5743 C   0  0  0  0  0  0  0  0  0  0  0  0
    4.5209   -2.1716   -1.4028 C   0  0  0  0  0  0  0  0  0  0  0  0
    4.2959   -2.9493   -2.1468 H   0  0  0  0  0  0  0  0  0  0  0  0
    3.6996   -1.0475   -1.2652 C   0  0  0  0  0  0  0  0  0  0  0  0
    2.8160   -0.9355   -1.9107 H   0  0  0  0  0  0  0  0  0  0  0  0
   -5.1947   -0.5797   -0.0456 C   0  0  0  0  0  0  0  0  0  0  0  0
   -6.1655   -0.9532    0.9124 C   0  0  0  0  0  0  0  0  0  0  0  0
   -5.8644   -1.5925    1.7558 H   0  0  0  0  0  0  0  0  0  0  0  0
   -7.4907   -0.5104    0.8202 C   0  0  0  0  0  0  0  0  0  0  0  0
   -8.2364   -0.7986    1.5744 H   0  0  0  0  0  0  0  0  0  0  0  0
   -7.8665    0.3222   -0.2464 C   0  0  0  0  0  0  0  0  0  0  0  0
   -6.9287    0.7000   -1.2217 C   0  0  0  0  0  0  0  0  0  0  0  0
   -7.2426    1.3353   -2.0620 H   0  0  0  0  0  0  0  0  0  0  0  0
   -5.6087    0.2444   -1.1184 C   0  0  0  0  0  0  0  0  0  0  0  0
   -4.8827    0.5123   -1.9007 H   0  0  0  0  0  0  0  0  0  0  0  0
    2.2313    4.7185    0.0904 C   0  0  0  0  0  0  0  0  0  0  0  0
    1.4132    5.3600    1.0498 C   0  0  0  0  0  0  0  0  0  0  0  0
    0.7962    4.7482    1.7247 H   0  0  0  0  0  0  0  0  0  0  0  0
    1.3954    6.7543    1.1785 C   0  0  0  0  0  0  0  0  0  0  0  0
    0.7610    7.2438    1.9309 H   0  0  0  0  0  0  0  0  0  0  0  0
    2.2146    7.5337    0.3451 C   0  0  0  0  0  0  0  0  0  0  0  0
    3.0505    6.9254   -0.6052 C   0  0  0  0  0  0  0  0  0  0  0  0
    3.6864    7.5489   -1.2494 H   0  0  0  0  0  0  0  0  0  0  0  0
    3.0531    5.5302   -0.7251 C   0  0  0  0  0  0  0  0  0  0  0  0
    3.6949    5.0521   -1.4802 H   0  0  0  0  0  0  0  0  0  0  0  0
  1 41  1  0  0  0  0
  3 51  1  0  0  0  0
  5 10  1  0  0  0  0
  5 13  1  0  0  0  0
  6 21  1  0  0  0  0
  6 14  1  0  0  0  0
  7 25  1  0  0  0  0
  8 56  1  0  0  0  0
  9 23  2  0  0  0  0
 10 36  1  6  0  0  0
 10 11  1  0  0  0  0
 11 12  1  0  0  0  0
 11  8  2  0  0  0  0
 13  8  1  0  0  0  0
 14 13  2  0  0  0  0
 15 14  1  0  0  0  0
 16 15  1  0  0  0  0
 17 15  2  0  0  0  0
 17 19  1  0  0  0  0
 18 17  1  0  0  0  0
 19 21  2  0  0  0  0
 19 20  1  0  0  0  0
 21 22  1  0  0  0  0
 22  7  2  0  0  0  0
 22  9  1  0  0  0  0
 23 24  1  0  0  0  0
 25 23  1  0  0  0  0
 26 25  1  0  0  0  0
 26 34  1  0  0  0  0
 27 26  2  0  0  0  0
 28 27  1  0  0  0  0
 29 27  1  0  0  0  0
 29 31  2  0  0  0  0
 30 29  1  0  0  0  0
 31  2  1  0  0  0  0
 31 32  1  0  0  0  0
 32 33  1  0  0  0  0
 34 32  2  0  0  0  0
 34 35  1  0  0  0  0
 36 37  1  0  0  0  0
 37 38  1  0  0  0  0
 39 37  2  0  0  0  0
 39 40  1  0  0  0  0
 41 39  1  0  0  0  0
 42 44  1  0  0  0  0
 42 41  2  0  0  0  0
 43 42  1  0  0  0  0
 44 36  2  0  0  0  0
 45 44  1  0  0  0  0
 46  9  1  0  0  0  0
 46 47  1  0  0  0  0
 47 48  1  0  0  0  0
 49 47  2  0  0  0  0
 49 50  1  0  0  0  0
 51 49  1  0  0  0  0
 52 54  1  0  0  0  0
 52 51  2  0  0  0  0
 53 52  1  0  0  0  0
 54 46  2  0  0  0  0
 55 54  1  0  0  0  0
 56 57  1  0  0  0  0
 57 59  2  0  0  0  0
 57 58  1  0  0  0  0
 59 60  1  0  0  0  0
 61  4  1  0  0  0  0
 61 59  1  0  0  0  0
 62 61  2  0  0  0  0
 63 62  1  0  0  0  0
 64 62  1  0  0  0  0
 64 56  2  0  0  0  0
 65 64  1  0  0  0  0
M  END
