2,3,5
 OpenBabel05122313063D

 72 75  0  0  1  0  0  0  0  0999 V2000
    0.8827    1.6513   -0.7797 Si  0  0  0  0  0  0  0  0  0  0  0  0
   -2.4726   -0.2045    0.2001 N   0  0  0  0  0  2  0  0  0  0  0  0
   -0.5129    0.7154   -0.3708 N   0  0  0  0  0  2  0  0  0  0  0  0
    2.3338    0.6660   -0.1765 N   0  0  0  0  0  0  0  0  0  0  0  0
    1.5062   -1.4728   -0.7276 N   0  0  0  0  0  2  0  0  0  0  0  0
    1.8691   -2.4288   -0.8161 H   0  0  0  0  0  0  0  0  0  0  0  0
   -3.8653   -0.2804    0.4512 C   0  0  0  0  0  0  0  0  0  0  0  0
   -4.3002   -0.5531    1.7777 C   0  0  0  0  0  0  0  0  0  0  0  0
   -5.6789   -0.6902    2.0214 C   0  0  0  0  0  0  0  0  0  0  0  0
   -6.0182   -0.8974    3.0486 H   0  0  0  0  0  0  0  0  0  0  0  0
   -6.6125   -0.5653    0.9836 C   0  0  0  0  0  0  0  0  0  0  0  0
   -7.6874   -0.6808    1.1897 H   0  0  0  0  0  0  0  0  0  0  0  0
   -6.1700   -0.2984   -0.3173 C   0  0  0  0  0  0  0  0  0  0  0  0
   -6.8985   -0.2049   -1.1382 H   0  0  0  0  0  0  0  0  0  0  0  0
   -4.8000   -0.1519   -0.6114 C   0  0  0  0  0  0  0  0  0  0  0  0
   -3.3016   -0.6764    2.8964 C   0  0  0  0  0  0  0  0  0  0  0  0
   -3.8062   -0.8593    3.8641 H   0  0  0  0  0  0  0  0  0  0  0  0
   -2.6736    0.2342    2.9951 H   0  0  0  0  0  0  0  0  0  0  0  0
   -2.5700   -1.4890    2.7164 H   0  0  0  0  0  0  0  0  0  0  0  0
   -4.3491    0.1388   -2.0179 C   0  0  0  0  0  0  0  0  0  0  0  0
   -4.1198    1.2184   -2.1471 H   0  0  0  0  0  0  0  0  0  0  0  0
   -5.1408   -0.1181   -2.7477 H   0  0  0  0  0  0  0  0  0  0  0  0
   -3.4229   -0.4091   -2.2844 H   0  0  0  0  0  0  0  0  0  0  0  0
   -1.7933    0.9242   -0.0791 C   0  0  1  0  0  3  0  0  0  0  0  0
   -2.4303    2.2737   -0.0909 C   0  0  0  0  0  0  0  0  0  0  0  0
   -3.1577    2.7473    1.0187 C   0  0  0  0  0  0  0  0  0  0  0  0
   -3.2646    2.1133    1.9097 H   0  0  0  0  0  0  0  0  0  0  0  0
   -3.7287    4.0274    0.9895 C   0  0  0  0  0  0  0  0  0  0  0  0
   -4.2857    4.3951    1.8644 H   0  0  0  0  0  0  0  0  0  0  0  0
   -3.5964    4.8356   -0.1512 C   0  0  0  0  0  0  0  0  0  0  0  0
   -4.0521    5.8371   -0.1729 H   0  0  0  0  0  0  0  0  0  0  0  0
   -2.8880    4.3610   -1.2673 C   0  0  0  0  0  0  0  0  0  0  0  0
   -2.7944    4.9847   -2.1692 H   0  0  0  0  0  0  0  0  0  0  0  0
   -2.3042    3.0870   -1.2359 C   0  0  0  0  0  0  0  0  0  0  0  0
   -1.7665    2.6968   -2.1128 H   0  0  0  0  0  0  0  0  0  0  0  0
    0.9544    3.3324    0.0499 C   0  0  0  0  0  0  0  0  0  0  0  0
    0.7394    3.2636    1.1327 H   0  0  0  0  0  0  0  0  0  0  0  0
    0.1769    3.9759   -0.4083 H   0  0  0  0  0  0  0  0  0  0  0  0
    1.9396    3.8180   -0.0913 H   0  0  0  0  0  0  0  0  0  0  0  0
    1.0925    1.8012   -2.6386 C   0  0  0  0  0  0  0  0  0  0  0  0
    1.0835    0.7971   -3.1058 H   0  0  0  0  0  0  0  0  0  0  0  0
    2.0219    2.3416   -2.9039 H   0  0  0  0  0  0  0  0  0  0  0  0
    0.2368    2.3659   -3.0602 H   0  0  0  0  0  0  0  0  0  0  0  0
    3.4750    1.4579    0.2332 C   0  0  0  0  0  0  0  0  0  0  0  0
    4.4966    1.7622   -0.7052 C   0  0  0  0  0  0  0  0  0  0  0  0
    5.5581    2.5905   -0.2911 C   0  0  0  0  0  0  0  0  0  0  0  0
    6.3552    2.8304   -1.0124 H   0  0  0  0  0  0  0  0  0  0  0  0
    5.6130    3.1047    1.0084 C   0  0  0  0  0  0  0  0  0  0  0  0
    6.4490    3.7532    1.3112 H   0  0  0  0  0  0  0  0  0  0  0  0
    4.6030    2.7852    1.9230 C   0  0  0  0  0  0  0  0  0  0  0  0
    4.6471    3.1775    2.9513 H   0  0  0  0  0  0  0  0  0  0  0  0
    3.5215    1.9607    1.5605 C   0  0  0  0  0  0  0  0  0  0  0  0
    4.5192    1.2109   -2.1092 C   0  0  0  0  0  0  0  0  0  0  0  0
    3.5902    0.6829   -2.3827 H   0  0  0  0  0  0  0  0  0  0  0  0
    5.3581    0.4939   -2.2248 H   0  0  0  0  0  0  0  0  0  0  0  0
    4.6809    2.0214   -2.8487 H   0  0  0  0  0  0  0  0  0  0  0  0
    2.4769    1.6216    2.5935 C   0  0  0  0  0  0  0  0  0  0  0  0
    2.9444    1.1004    3.4556 H   0  0  0  0  0  0  0  0  0  0  0  0
    1.6735    0.9651    2.2099 H   0  0  0  0  0  0  0  0  0  0  0  0
    2.0148    2.5427    3.0045 H   0  0  0  0  0  0  0  0  0  0  0  0
    2.4832   -0.6776   -0.3349 C   0  0  2  0  0  3  0  0  0  0  0  0
    3.8069   -1.3069   -0.0156 C   0  0  0  0  0  0  0  0  0  0  0  0
    4.5251   -1.9850   -1.0209 C   0  0  0  0  0  0  0  0  0  0  0  0
    4.1438   -1.9885   -2.0534 H   0  0  0  0  0  0  0  0  0  0  0  0
    5.7275   -2.6374   -0.7098 C   0  0  0  0  0  0  0  0  0  0  0  0
    6.2889   -3.1543   -1.5027 H   0  0  0  0  0  0  0  0  0  0  0  0
    6.2113   -2.6295    0.6075 C   0  0  0  0  0  0  0  0  0  0  0  0
    7.1546   -3.1412    0.8514 H   0  0  0  0  0  0  0  0  0  0  0  0
    5.4834   -1.9766    1.6158 C   0  0  0  0  0  0  0  0  0  0  0  0
    5.8485   -1.9848    2.6537 H   0  0  0  0  0  0  0  0  0  0  0  0
    4.2858   -1.3168    1.3099 C   0  0  0  0  0  0  0  0  0  0  0  0
    3.7004   -0.8282    2.1004 H   0  0  0  0  0  0  0  0  0  0  0  0
  1  3  1  0  0  0  0
  1  4  1  0  0  0  0
  1 36  1  0  0  0  0
  2  7  1  0  0  0  0
  4 44  1  0  0  0  0
  6  5  1  0  0  0  0
  7  8  1  0  0  0  0
  8  9  2  0  0  0  0
  8 16  1  0  0  0  0
  9 10  1  0  0  0  0
 11 12  1  0  0  0  0
 11  9  1  0  0  0  0
 13 11  2  0  0  0  0
 14 13  1  0  0  0  0
 15 13  1  0  0  0  0
 15  7  2  0  0  0  0
 16 18  1  0  0  0  0
 16 17  1  0  0  0  0
 19 16  1  0  0  0  0
 20 15  1  0  0  0  0
 21 20  1  0  0  0  0
 22 20  1  0  0  0  0
 23 20  1  0  0  0  0
 24  3  1  6  0  0  0
 24  2  1  0  0  0  0
 25 24  1  0  0  0  0
 25 26  1  0  0  0  0
 26 27  1  0  0  0  0
 28 26  2  0  0  0  0
 28 29  1  0  0  0  0
 30 28  1  0  0  0  0
 31 30  1  0  0  0  0
 32 34  1  0  0  0  0
 32 30  2  0  0  0  0
 33 32  1  0  0  0  0
 34 25  2  0  0  0  0
 35 34  1  0  0  0  0
 36 37  1  0  0  0  0
 38 36  1  0  0  0  0
 39 36  1  0  0  0  0
 40  1  1  0  0  0  0
 41 40  1  0  0  0  0
 42 40  1  0  0  0  0
 43 40  1  0  0  0  0
 44 52  1  0  0  0  0
 45 46  1  0  0  0  0
 45 44  2  0  0  0  0
 46 48  2  0  0  0  0
 47 46  1  0  0  0  0
 48 49  1  0  0  0  0
 48 50  1  0  0  0  0
 50 51  1  0  0  0  0
 52 50  2  0  0  0  0
 52 57  1  0  0  0  0
 53 45  1  0  0  0  0
 54 53  1  0  0  0  0
 55 53  1  0  0  0  0
 56 53  1  0  0  0  0
 57 60  1  0  0  0  0
 57 58  1  0  0  0  0
 59 57  1  0  0  0  0
 61  5  1  1  0  0  0
 61  4  1  0  0  0  0
 61 62  1  0  0  0  0
 62 71  1  0  0  0  0
 63 65  1  0  0  0  0
 63 62  2  0  0  0  0
 64 63  1  0  0  0  0
 65 67  2  0  0  0  0
 66 65  1  0  0  0  0
 67 68  1  0  0  0  0
 67 69  1  0  0  0  0
 69 70  1  0  0  0  0
 71 69  2  0  0  0  0
 71 72  1  0  0  0  0
M  END
