1,4,7
 OpenBabel05122313063D

 53 57  0  0  1  0  0  0  0  0999 V2000
    0.0000    1.4023    0.1288 N   0  0  0  0  0  2  0  0  0  0  0  0
   -2.3754    1.3312    0.0500 N   0  0  0  0  0  0  0  0  0  0  0  0
   -3.8426   -0.0739   -1.1474 N   0  0  2  0  0  0  0  0  0  0  0  0
   -1.5692   -0.6871   -0.8580 N   0  0  0  0  0  2  0  0  0  0  0  0
    2.3755    1.3313    0.0499 N   0  0  2  0  0  0  0  0  0  0  0  0
    3.8426   -0.0740   -1.1474 N   0  0  1  0  0  0  0  0  0  0  0  0
    1.5692   -0.6871   -0.8580 N   0  0  0  0  0  2  0  0  0  0  0  0
    1.1777    2.0646   -0.0392 C   0  0  2  0  0  3  0  0  0  0  0  0
    1.2081    3.4566   -0.2494 C   0  0  0  0  0  0  0  0  0  0  0  0
    2.1608    3.9816   -0.3863 H   0  0  0  0  0  0  0  0  0  0  0  0
    0.0000    4.1530   -0.3299 C   0  0  0  0  0  0  0  0  0  0  0  0
    0.0000    5.2377   -0.5100 H   0  0  0  0  0  0  0  0  0  0  0  0
   -1.2081    3.4565   -0.2494 C   0  0  0  0  0  0  0  0  0  0  0  0
   -2.1608    3.9816   -0.3862 H   0  0  0  0  0  0  0  0  0  0  0  0
   -1.1776    2.0646   -0.0391 C   0  0  0  0  0  0  0  0  0  0  0  0
   -3.5795    1.9788    0.5880 C   0  0  0  0  0  0  0  0  0  0  0  0
   -3.2758    2.8920    1.1278 H   0  0  0  0  0  0  0  0  0  0  0  0
   -4.0231    1.2949    1.3437 H   0  0  0  0  0  0  0  0  0  0  0  0
   -4.5500    2.2493   -0.5543 C   0  0  0  0  0  0  0  0  0  0  0  0
   -5.4595    2.7754   -0.2043 H   0  0  0  0  0  0  0  0  0  0  0  0
   -4.0616    2.8998   -1.3091 H   0  0  0  0  0  0  0  0  0  0  0  0
   -4.9382    0.9044   -1.1564 C   0  0  0  0  0  0  0  0  0  0  0  0
   -5.7747    0.4605   -0.5721 H   0  0  0  0  0  0  0  0  0  0  0  0
   -5.3077    1.0162   -2.1995 H   0  0  0  0  0  0  0  0  0  0  0  0
   -4.2415   -1.3933   -1.6630 C   0  0  0  0  0  0  0  0  0  0  0  0
   -4.4658   -1.2872   -2.7480 H   0  0  0  0  0  0  0  0  0  0  0  0
   -5.1940   -1.6784   -1.1664 H   0  0  0  0  0  0  0  0  0  0  0  0
   -3.1670   -2.4447   -1.4361 C   0  0  0  0  0  0  0  0  0  0  0  0
   -3.3711   -3.3286   -2.0711 H   0  0  0  0  0  0  0  0  0  0  0  0
   -3.1641   -2.7865   -0.3803 H   0  0  0  0  0  0  0  0  0  0  0  0
   -1.8115   -1.8206   -1.7527 C   0  0  0  0  0  0  0  0  0  0  0  0
   -0.9994   -2.5558   -1.6182 H   0  0  0  0  0  0  0  0  0  0  0  0
   -1.7735   -1.4856   -2.8149 H   0  0  0  0  0  0  0  0  0  0  0  0
   -2.5761    0.1493   -0.6856 C   0  0  2  0  0  3  0  0  0  0  0  0
    3.5795    1.9788    0.5879 C   0  0  0  0  0  0  0  0  0  0  0  0
    4.0232    1.2948    1.3436 H   0  0  0  0  0  0  0  0  0  0  0  0
    3.2759    2.8920    1.1276 H   0  0  0  0  0  0  0  0  0  0  0  0
    4.5500    2.2493   -0.5545 C   0  0  0  0  0  0  0  0  0  0  0  0
    5.4595    2.7753   -0.2045 H   0  0  0  0  0  0  0  0  0  0  0  0
    4.0616    2.8998   -1.3093 H   0  0  0  0  0  0  0  0  0  0  0  0
    4.9382    0.9044   -1.1566 C   0  0  0  0  0  0  0  0  0  0  0  0
    5.3075    1.0161   -2.1997 H   0  0  0  0  0  0  0  0  0  0  0  0
    5.7748    0.4604   -0.5724 H   0  0  0  0  0  0  0  0  0  0  0  0
    4.2415   -1.3935   -1.6627 C   0  0  0  0  0  0  0  0  0  0  0  0
    5.1939   -1.6786   -1.1658 H   0  0  0  0  0  0  0  0  0  0  0  0
    4.4660   -1.2876   -2.7476 H   0  0  0  0  0  0  0  0  0  0  0  0
    3.1670   -2.4448   -1.4357 C   0  0  0  0  0  0  0  0  0  0  0  0
    3.1640   -2.7865   -0.3799 H   0  0  0  0  0  0  0  0  0  0  0  0
    3.3711   -3.3288   -2.0706 H   0  0  0  0  0  0  0  0  0  0  0  0
    1.8116   -1.8207   -1.7526 C   0  0  0  0  0  0  0  0  0  0  0  0
    1.7737   -1.4858   -2.8148 H   0  0  0  0  0  0  0  0  0  0  0  0
    0.9994   -2.5559   -1.6181 H   0  0  0  0  0  0  0  0  0  0  0  0
    2.5761    0.1493   -0.6856 C   0  0  1  0  0  3  0  0  0  0  0  0
  2 16  1  0  0  0  0
  3 25  1  1  0  0  0
  3 34  1  0  0  0  0
  5 35  1  6  0  0  0
  6 44  1  1  0  0  0
  6 53  1  0  0  0  0
  8  9  1  1  0  0  0
  8  5  1  0  0  0  0
  8  1  1  0  0  0  0
 10  9  1  0  0  0  0
 11  9  2  0  0  0  0
 11 13  1  0  0  0  0
 12 11  1  0  0  0  0
 13 15  2  0  0  0  0
 14 13  1  0  0  0  0
 15  2  1  0  0  0  0
 15  1  1  0  0  0  0
 16 17  1  0  0  0  0
 16 18  1  0  0  0  0
 19 20  1  0  0  0  0
 19 16  1  0  0  0  0
 21 19  1  0  0  0  0
 22  3  1  0  0  0  0
 22 23  1  0  0  0  0
 22 19  1  0  0  0  0
 24 22  1  0  0  0  0
 25 28  1  0  0  0  0
 25 27  1  0  0  0  0
 26 25  1  0  0  0  0
 28 30  1  0  0  0  0
 29 28  1  0  0  0  0
 31 32  1  0  0  0  0
 31 28  1  0  0  0  0
 31  4  1  0  0  0  0
 33 31  1  0  0  0  0
 34  4  1  1  0  0  0
 34  2  1  0  0  0  0
 35 37  1  0  0  0  0
 35 36  1  0  0  0  0
 38 39  1  0  0  0  0
 38 35  1  0  0  0  0
 40 38  1  0  0  0  0
 41  6  1  0  0  0  0
 41 43  1  0  0  0  0
 41 38  1  0  0  0  0
 42 41  1  0  0  0  0
 44 47  1  0  0  0  0
 44 45  1  0  0  0  0
 46 44  1  0  0  0  0
 47 48  1  0  0  0  0
 49 47  1  0  0  0  0
 50 52  1  0  0  0  0
 50 47  1  0  0  0  0
 50  7  1  0  0  0  0
 51 50  1  0  0  0  0
 53  7  1  1  0  0  0
 53  5  1  0  0  0  0
M  END
