24,25,27
 OpenBabel05122313063D

 29 29  0  0  1  0  0  0  0  0999 V2000
   -1.1647    0.2415    2.4907 C   0  0  0  0  0  3  0  0  0  0  0  0
   -1.4473    1.3025    2.4003 H   0  0  0  0  0  0  0  0  0  0  0  0
   -1.2523   -0.4495    3.7047 C   0  0  0  0  0  0  0  0  0  0  0  0
   -1.5783    0.0814    4.6102 H   0  0  0  0  0  0  0  0  0  0  0  0
   -0.9377   -1.8157    3.7333 C   0  0  0  0  0  0  0  0  0  0  0  0
   -1.0054   -2.3873    4.6707 H   0  0  0  0  0  0  0  0  0  0  0  0
   -0.5539   -2.4501    2.5422 C   0  0  0  0  0  0  0  0  0  0  0  0
   -0.3183   -3.5241    2.5206 H   0  0  0  0  0  0  0  0  0  0  0  0
   -0.4809   -1.6919    1.3672 C   0  0  0  0  0  0  0  0  0  0  0  0
   -0.0380   -2.2396    0.0360 C   0  0  0  0  0  0  0  0  0  0  0  0
    1.0559   -2.0585   -0.0511 H   0  0  0  0  0  0  0  0  0  0  0  0
   -0.2020   -3.3365   -0.0266 H   0  0  0  0  0  0  0  0  0  0  0  0
   -2.2249   -2.2416   -2.9255 C   0  0  0  0  0  0  0  0  0  0  0  0
   -3.2343   -2.6265   -3.1663 H   0  0  0  0  0  0  0  0  0  0  0  0
   -1.4888   -2.9810   -3.3031 H   0  0  0  0  0  0  0  0  0  0  0  0
   -2.0908   -1.2821   -3.4609 H   0  0  0  0  0  0  0  0  0  0  0  0
   -2.0824   -2.0462   -1.4107 C   0  0  2  0  0  0  0  0  0  0  0  0
   -2.1979   -3.0422   -0.9240 H   0  0  0  0  0  0  0  0  0  0  0  0
   -3.1273   -1.1225   -0.8448 C   0  0  2  0  0  3  0  0  0  0  0  0
   -4.5697   -1.4986   -0.7618 C   0  0  0  0  0  0  0  0  0  0  0  0
   -4.9762   -1.2266    0.2334 H   0  0  0  0  0  0  0  0  0  0  0  0
   -4.7195   -2.5800   -0.9395 H   0  0  0  0  0  0  0  0  0  0  0  0
   -5.1721   -0.9317   -1.5035 H   0  0  0  0  0  0  0  0  0  0  0  0
   -0.7694   -0.3673    1.3524 N   0  0  0  0  0  2  0  0  0  0  0  0
   -0.7173   -1.5150   -1.0676 N   0  0  0  0  0  0  0  0  0  0  0  0
   -0.1402   -1.6023   -1.9145 H   0  0  0  0  0  0  0  0  0  0  0  0
   -2.7010    0.0531   -0.4658 N   0  0  0  0  0  2  0  0  0  0  0  0
   -3.5865    0.9060    0.0135 O   0  0  0  0  0  0  0  0  0  0  0  0
   -2.9629    1.7926    0.3369 H   0  0  0  0  0  0  0  0  0  0  0  0
  1  3  1  0  0  0  0
  2  1  1  0  0  0  0
  3  5  2  0  0  0  0
  3  4  1  0  0  0  0
  5  6  1  0  0  0  0
  7  5  1  0  0  0  0
  8  7  1  0  0  0  0
  9  7  2  0  0  0  0
 10  9  1  0  0  0  0
 11 10  1  0  0  0  0
 12 10  1  0  0  0  0
 13 17  1  0  0  0  0
 14 13  1  0  0  0  0
 15 13  1  0  0  0  0
 16 13  1  0  0  0  0
 17 25  1  0  0  0  0
 17 18  1  1  0  0  0
 17 19  1  0  0  0  0
 19 20  1  0  0  0  0
 19 27  1  6  0  0  0
 20 21  1  0  0  0  0
 22 20  1  0  0  0  0
 23 20  1  0  0  0  0
 24  9  1  0  0  0  0
 24  1  1  0  0  0  0
 25 10  1  0  0  0  0
 26 25  1  0  0  0  0
 27 28  1  0  0  0  0
 28 29  1  0  0  0  0
M  END
