5,8,28
 OpenBabel05122313063D

 39 41  0  0  1  0  0  0  0  0999 V2000
   -4.0919    0.1939    0.2812 C   0  0  0  0  0  0  0  0  0  0  0  0
   -4.0099    1.2694    0.4929 H   0  0  0  0  0  0  0  0  0  0  0  0
   -4.2552   -2.5650   -0.2165 C   0  0  0  0  0  0  0  0  0  0  0  0
   -4.3064   -3.6479   -0.4051 H   0  0  0  0  0  0  0  0  0  0  0  0
   -0.0001    1.7194   -0.0002 N   0  0  0  0  0  2  0  0  0  0  0  0
   -5.1455   -0.5619    0.8192 C   0  0  0  0  0  0  0  0  0  0  0  0
   -5.9003   -0.0622    1.4452 H   0  0  0  0  0  0  0  0  0  0  0  0
   -2.0120    0.2641   -1.0522 N   0  0  0  0  0  0  0  0  0  0  0  0
   -5.2365   -1.9388    0.5720 C   0  0  0  0  0  0  0  0  0  0  0  0
   -6.0632   -2.5257    0.9984 H   0  0  0  0  0  0  0  0  0  0  0  0
   -3.1251   -0.4405   -0.5166 C   0  0  0  0  0  0  0  0  0  0  0  0
   -1.0338    2.3939   -0.5494 C   0  0  1  0  0  3  0  0  0  0  0  0
   -2.0535    1.6392   -1.0844 N   0  0  0  0  0  0  0  0  0  0  0  0
   -3.2003   -1.8267   -0.7616 C   0  0  0  0  0  0  0  0  0  0  0  0
   -2.4070   -2.3101   -1.3532 H   0  0  0  0  0  0  0  0  0  0  0  0
   -0.0005    4.4929    0.0002 C   0  0  0  0  0  0  0  0  0  0  0  0
   -0.0007    5.5933    0.0003 H   0  0  0  0  0  0  0  0  0  0  0  0
   -1.0749    3.8051   -0.5746 C   0  0  0  0  0  0  0  0  0  0  0  0
   -1.9293    4.3329   -1.0196 H   0  0  0  0  0  0  0  0  0  0  0  0
   -1.5861   -0.1734   -1.8934 H   0  0  0  0  0  0  0  0  0  0  0  0
   -2.8030    2.1062   -1.6031 H   0  0  0  0  0  0  0  0  0  0  0  0
    4.0923    0.1943   -0.2808 C   0  0  0  0  0  0  0  0  0  0  0  0
    4.0104    1.2697   -0.4925 H   0  0  0  0  0  0  0  0  0  0  0  0
    4.2555   -2.5647    0.2170 C   0  0  0  0  0  0  0  0  0  0  0  0
    4.3066   -3.6476    0.4056 H   0  0  0  0  0  0  0  0  0  0  0  0
    5.1461   -0.5616   -0.8185 C   0  0  0  0  0  0  0  0  0  0  0  0
    5.9012   -0.0618   -1.4442 H   0  0  0  0  0  0  0  0  0  0  0  0
    2.0119    0.2644    1.0519 N   0  0  0  0  0  0  0  0  0  0  0  0
    5.2370   -1.9385   -0.5712 C   0  0  0  0  0  0  0  0  0  0  0  0
    6.0639   -2.5254   -0.9973 H   0  0  0  0  0  0  0  0  0  0  0  0
    3.1252   -0.4401    0.5166 C   0  0  0  0  0  0  0  0  0  0  0  0
    1.0334    2.3940    0.5491 C   0  0  0  0  0  0  0  0  0  0  0  0
    2.0534    1.6395    1.0839 N   0  0  0  0  0  0  0  0  0  0  0  0
    3.2003   -1.8264    0.7617 C   0  0  0  0  0  0  0  0  0  0  0  0
    2.4069   -2.3098    1.3530 H   0  0  0  0  0  0  0  0  0  0  0  0
    1.0741    3.8053    0.5747 C   0  0  0  0  0  0  0  0  0  0  0  0
    1.9284    4.3332    1.0198 H   0  0  0  0  0  0  0  0  0  0  0  0
    1.5859   -0.1731    1.8931 H   0  0  0  0  0  0  0  0  0  0  0  0
    2.8023    2.1066    1.6033 H   0  0  0  0  0  0  0  0  0  0  0  0
  1  2  1  0  0  0  0
  1  6  1  0  0  0  0
  3  9  1  0  0  0  0
  4  3  1  0  0  0  0
  5 32  1  0  0  0  0
  6  7  1  0  0  0  0
  8 11  1  0  0  0  0
  9  6  2  0  0  0  0
  9 10  1  0  0  0  0
 11  1  2  0  0  0  0
 12 13  1  1  0  0  0
 12  5  1  0  0  0  0
 13  8  1  0  0  0  0
 14 11  1  0  0  0  0
 14  3  2  0  0  0  0
 15 14  1  0  0  0  0
 16 17  1  0  0  0  0
 16 36  1  0  0  0  0
 18 12  1  0  0  0  0
 18 16  2  0  0  0  0
 19 18  1  0  0  0  0
 20  8  1  0  0  0  0
 21 13  1  0  0  0  0
 22 31  1  0  0  0  0
 23 22  1  0  0  0  0
 24 25  1  0  0  0  0
 24 34  1  0  0  0  0
 26 29  1  0  0  0  0
 26 22  2  0  0  0  0
 27 26  1  0  0  0  0
 28 33  1  0  0  0  0
 28 38  1  0  0  0  0
 29 24  2  0  0  0  0
 30 29  1  0  0  0  0
 31 34  2  0  0  0  0
 31 28  1  0  0  0  0
 32 36  2  0  0  0  0
 32 33  1  0  0  0  0
 33 39  1  0  0  0  0
 34 35  1  0  0  0  0
 36 37  1  0  0  0  0
M  END
