1,2,3
 OpenBabel05122313063D

 43 44  0  0  1  0  0  0  0  0999 V2000
   -1.5885   -1.2227   -0.2801 N   0  0  0  0  0  2  0  0  0  0  0  0
   -0.0274    0.9572   -0.9069 N   0  0  0  0  0  0  0  0  0  0  0  0
    2.2987   -0.2218   -0.0911 N   0  0  0  0  0  2  0  0  0  0  0  0
   -2.3220   -2.1948    0.3030 C   0  0  0  0  0  3  0  0  0  0  0  0
   -3.7059   -2.2698    0.1135 C   0  0  0  0  0  0  0  0  0  0  0  0
   -4.3363   -1.3103   -0.6905 C   0  0  0  0  0  0  0  0  0  0  0  0
   -3.5648   -0.3013   -1.2872 C   0  0  0  0  0  0  0  0  0  0  0  0
   -2.1829   -0.2799   -1.0679 C   0  0  0  0  0  0  0  0  0  0  0  0
   -1.2527    0.7122   -1.7302 C   0  0  0  0  0  0  0  0  0  0  0  0
    1.2049    1.2049   -1.7231 C   0  0  0  0  0  0  0  0  0  0  0  0
    2.4361    0.8573   -0.9174 C   0  0  2  0  0  3  0  0  0  0  0  0
    3.6610    1.5221   -1.0253 C   0  0  0  0  0  0  0  0  0  0  0  0
    4.7590    1.0540   -0.2844 C   0  0  0  0  0  0  0  0  0  0  0  0
    4.5988   -0.0605    0.5491 C   0  0  0  0  0  0  0  0  0  0  0  0
    3.3444   -0.6772    0.6291 C   0  0  0  0  0  0  0  0  0  0  0  0
   -0.2112    2.0964    0.0575 C   0  0  0  0  0  0  0  0  0  0  0  0
   -1.2716    1.9313    1.1582 C   0  0  1  0  0  0  0  0  0  0  0  0
   -0.7392    1.1502    2.3650 C   0  0  0  0  0  0  0  0  0  0  0  0
   -1.7896    3.3244    1.5815 C   0  0  0  0  0  0  0  0  0  0  0  0
   -2.6751    4.0226    0.5489 C   0  0  0  0  0  0  0  0  0  0  0  0
   -1.7512   -2.9121    0.9138 H   0  0  0  0  0  0  0  0  0  0  0  0
   -4.2747   -3.0759    0.5977 H   0  0  0  0  0  0  0  0  0  0  0  0
   -5.4240   -1.3426   -0.8520 H   0  0  0  0  0  0  0  0  0  0  0  0
   -4.0299    0.4689   -1.9193 H   0  0  0  0  0  0  0  0  0  0  0  0
   -1.7779    1.6654   -1.9538 H   0  0  0  0  0  0  0  0  0  0  0  0
   -0.9241    0.2804   -2.6989 H   0  0  0  0  0  0  0  0  0  0  0  0
    1.1642    0.5372   -2.6089 H   0  0  0  0  0  0  0  0  0  0  0  0
    1.2405    2.2539   -2.0888 H   0  0  0  0  0  0  0  0  0  0  0  0
    3.7544    2.3948   -1.6875 H   0  0  0  0  0  0  0  0  0  0  0  0
    5.7320    1.5617   -0.3586 H   0  0  0  0  0  0  0  0  0  0  0  0
    5.4345   -0.4577    1.1421 H   0  0  0  0  0  0  0  0  0  0  0  0
    3.1378   -1.5593    1.2554 H   0  0  0  0  0  0  0  0  0  0  0  0
    0.7777    2.2790    0.5264 H   0  0  0  0  0  0  0  0  0  0  0  0
   -0.4430    2.9860   -0.5702 H   0  0  0  0  0  0  0  0  0  0  0  0
   -2.1439    1.3849    0.7354 H   0  0  0  0  0  0  0  0  0  0  0  0
   -0.3341    0.1551    2.0801 H   0  0  0  0  0  0  0  0  0  0  0  0
    0.0769    1.7119    2.8658 H   0  0  0  0  0  0  0  0  0  0  0  0
   -1.5403    0.9838    3.1114 H   0  0  0  0  0  0  0  0  0  0  0  0
   -2.3611    3.1973    2.5242 H   0  0  0  0  0  0  0  0  0  0  0  0
   -0.9221    3.9688    1.8486 H   0  0  0  0  0  0  0  0  0  0  0  0
   -3.0337    5.0000    0.9264 H   0  0  0  0  0  0  0  0  0  0  0  0
   -2.1453    4.2281   -0.4055 H   0  0  0  0  0  0  0  0  0  0  0  0
   -3.5712    3.4122    0.3098 H   0  0  0  0  0  0  0  0  0  0  0  0
  1  4  1  0  0  0  0
  2 16  1  0  0  0  0
  3 15  1  0  0  0  0
  4 21  1  0  0  0  0
  5  4  1  0  0  0  0
  5 22  1  0  0  0  0
  6  5  2  0  0  0  0
  7  8  2  0  0  0  0
  7  6  1  0  0  0  0
  8  1  1  0  0  0  0
  9  8  1  0  0  0  0
  9  2  1  0  0  0  0
 10  2  1  0  0  0  0
 11 10  1  6  0  0  0
 11  3  1  0  0  0  0
 12 11  1  0  0  0  0
 12 13  2  0  0  0  0
 13 14  1  0  0  0  0
 14 15  2  0  0  0  0
 14 31  1  0  0  0  0
 15 32  1  0  0  0  0
 16 33  1  0  0  0  0
 16 17  1  0  0  0  0
 17 35  1  6  0  0  0
 17 19  1  0  0  0  0
 17 18  1  0  0  0  0
 18 37  1  0  0  0  0
 18 38  1  0  0  0  0
 19 40  1  0  0  0  0
 19 39  1  0  0  0  0
 20 41  1  0  0  0  0
 20 19  1  0  0  0  0
 23  6  1  0  0  0  0
 24  7  1  0  0  0  0
 25  9  1  0  0  0  0
 26  9  1  0  0  0  0
 27 10  1  0  0  0  0
 28 10  1  0  0  0  0
 29 12  1  0  0  0  0
 30 13  1  0  0  0  0
 34 16  1  0  0  0  0
 36 18  1  0  0  0  0
 42 20  1  0  0  0  0
 43 20  1  0  0  0  0
M  END
