1,2,3
 OpenBabel05122313063D

 43 44  0  0  1  0  0  0  0  0999 V2000
    2.1231   -0.5910    0.1251 N   0  0  0  0  0  2  0  0  0  0  0  0
    0.0544    0.9766    0.9891 N   0  0  0  0  0  0  0  0  0  0  0  0
   -1.8803   -0.8409    0.2012 N   0  0  0  0  0  2  0  0  0  0  0  0
    3.0915   -1.1635   -0.6183 C   0  0  0  0  0  3  0  0  0  0  0  0
    4.4396   -0.8448   -0.4139 C   0  0  0  0  0  0  0  0  0  0  0  0
    4.7777    0.0911    0.5724 C   0  0  0  0  0  0  0  0  0  0  0  0
    3.7586    0.6842    1.3366 C   0  0  0  0  0  0  0  0  0  0  0  0
    2.4312    0.3175    1.0971 C   0  0  0  0  0  0  0  0  0  0  0  0
    1.2472    0.8171    1.8933 C   0  0  0  0  0  0  0  0  0  0  0  0
   -1.2419    0.9578    1.7416 C   0  0  0  0  0  0  0  0  0  0  0  0
   -2.3065    0.1160    1.0735 C   0  0  2  0  0  3  0  0  0  0  0  0
   -3.6682    0.2572    1.3673 C   0  0  0  0  0  0  0  0  0  0  0  0
   -4.5947   -0.5934    0.7477 C   0  0  0  0  0  0  0  0  0  0  0  0
   -4.1362   -1.5647   -0.1537 C   0  0  0  0  0  0  0  0  0  0  0  0
   -2.7648   -1.6631   -0.4058 C   0  0  0  0  0  0  0  0  0  0  0  0
    0.2748    2.2343    0.1808 C   0  0  0  0  0  0  0  0  0  0  0  0
   -0.4772    2.5295   -1.1390 C   0  0  0  0  0  0  0  0  0  0  0  0
   -0.1162    1.5255   -2.2475 C   0  0  0  0  0  0  0  0  0  0  0  0
   -2.0046    2.6151   -0.9766 C   0  0  0  0  0  0  0  0  0  0  0  0
    0.0452    3.9259   -1.5525 C   0  0  0  0  0  0  0  0  0  0  0  0
    2.7450   -1.8967   -1.3634 H   0  0  0  0  0  0  0  0  0  0  0  0
    5.2091   -1.3317   -1.0292 H   0  0  0  0  0  0  0  0  0  0  0  0
    5.8289    0.3630    0.7481 H   0  0  0  0  0  0  0  0  0  0  0  0
    3.9912    1.4231    2.1167 H   0  0  0  0  0  0  0  0  0  0  0  0
    1.4822    1.7682    2.4186 H   0  0  0  0  0  0  0  0  0  0  0  0
    0.9909    0.0566    2.6596 H   0  0  0  0  0  0  0  0  0  0  0  0
   -1.0454    0.5230    2.7442 H   0  0  0  0  0  0  0  0  0  0  0  0
   -1.6100    1.9912    1.9080 H   0  0  0  0  0  0  0  0  0  0  0  0
   -3.9971    1.0356    2.0708 H   0  0  0  0  0  0  0  0  0  0  0  0
   -5.6684   -0.4937    0.9650 H   0  0  0  0  0  0  0  0  0  0  0  0
   -4.8297   -2.2488   -0.6624 H   0  0  0  0  0  0  0  0  0  0  0  0
   -2.3228   -2.4092   -1.0849 H   0  0  0  0  0  0  0  0  0  0  0  0
    0.1034    3.0789    0.8874 H   0  0  0  0  0  0  0  0  0  0  0  0
    1.3564    2.2363   -0.0611 H   0  0  0  0  0  0  0  0  0  0  0  0
    0.9813    1.4594   -2.3952 H   0  0  0  0  0  0  0  0  0  0  0  0
   -0.5655    1.8444   -3.2090 H   0  0  0  0  0  0  0  0  0  0  0  0
   -0.4894    0.5023   -2.0317 H   0  0  0  0  0  0  0  0  0  0  0  0
   -2.4706    1.6251   -0.8184 H   0  0  0  0  0  0  0  0  0  0  0  0
   -2.4534    3.0325   -1.8996 H   0  0  0  0  0  0  0  0  0  0  0  0
   -2.2969    3.2837   -0.1403 H   0  0  0  0  0  0  0  0  0  0  0  0
   -0.2136    4.7006   -0.8019 H   0  0  0  0  0  0  0  0  0  0  0  0
   -0.4082    4.2279   -2.5166 H   0  0  0  0  0  0  0  0  0  0  0  0
    1.1464    3.9293   -1.6857 H   0  0  0  0  0  0  0  0  0  0  0  0
  1  8  1  0  0  0  0
  2 10  1  0  0  0  0
  2  9  1  0  0  0  0
  3 11  1  0  0  0  0
  4  5  1  0  0  0  0
  4  1  1  0  0  0  0
  5  6  2  0  0  0  0
  6 23  1  0  0  0  0
  6  7  1  0  0  0  0
  7 24  1  0  0  0  0
  8  7  2  0  0  0  0
  8  9  1  0  0  0  0
  9 25  1  0  0  0  0
  9 26  1  0  0  0  0
 10 28  1  0  0  0  0
 10 27  1  0  0  0  0
 11 12  1  0  0  0  0
 11 10  1  1  0  0  0
 12 29  1  0  0  0  0
 13 30  1  0  0  0  0
 13 12  2  0  0  0  0
 14 13  1  0  0  0  0
 15 14  2  0  0  0  0
 15  3  1  0  0  0  0
 16 33  1  0  0  0  0
 16  2  1  0  0  0  0
 17 19  1  0  0  0  0
 17 16  1  0  0  0  0
 18 37  1  0  0  0  0
 18 17  1  0  0  0  0
 19 38  1  0  0  0  0
 19 40  1  0  0  0  0
 20 17  1  0  0  0  0
 20 41  1  0  0  0  0
 21  4  1  0  0  0  0
 22  5  1  0  0  0  0
 31 14  1  0  0  0  0
 32 15  1  0  0  0  0
 34 16  1  0  0  0  0
 35 18  1  0  0  0  0
 36 18  1  0  0  0  0
 39 19  1  0  0  0  0
 42 20  1  0  0  0  0
 43 20  1  0  0  0  0
M  END
