2,3,5
 OpenBabel05122313063D

 51 53  0  0  1  0  0  0  0  0999 V2000
   -1.9340   -1.8651   -0.5726 Si  0  0  0  0  0  0  0  0  0  0  0  0
    1.2353    1.3296    0.1848 N   0  0  0  0  0  2  0  0  0  0  0  0
   -1.1817   -0.3555   -0.0020 N   0  0  0  0  0  2  0  0  0  0  0  0
    3.2947    0.3745   -0.2784 N   0  0  1  0  0  0  0  0  0  0  0  0
    2.6245   -0.8088   -0.4056 N   0  0  0  0  0  2  0  0  0  0  0  0
    2.5132    1.5605   -0.1622 C   0  0  1  0  0  3  0  0  0  0  0  0
    3.0252    2.8370   -0.4139 C   0  0  0  0  0  0  0  0  0  0  0  0
    4.0510    3.0008   -0.7536 H   0  0  0  0  0  0  0  0  0  0  0  0
    2.1301    3.9211   -0.2465 C   0  0  0  0  0  0  0  0  0  0  0  0
    2.4940    4.9481   -0.4016 H   0  0  0  0  0  0  0  0  0  0  0  0
    0.7997    3.6942    0.0635 C   0  0  0  0  0  0  0  0  0  0  0  0
    0.0868    4.5262    0.1509 H   0  0  0  0  0  0  0  0  0  0  0  0
    0.3174    2.3522    0.2132 C   0  0  0  0  0  0  0  0  0  0  0  0
   -1.0730    2.0824    0.3390 C   0  0  0  0  0  0  0  0  0  0  0  0
   -1.7139    2.9667    0.4582 H   0  0  0  0  0  0  0  0  0  0  0  0
   -1.7464    0.8531    0.1530 C   0  0  0  0  0  0  0  0  0  0  0  0
   -3.2462    0.9582    0.1189 C   0  0  0  0  0  0  0  0  0  0  0  0
   -3.9026    1.7179   -0.8705 C   0  0  0  0  0  0  0  0  0  0  0  0
   -3.2994    2.2538   -1.6192 H   0  0  0  0  0  0  0  0  0  0  0  0
   -5.3038    1.7657   -0.9194 C   0  0  0  0  0  0  0  0  0  0  0  0
   -5.8047    2.3456   -1.7098 H   0  0  0  0  0  0  0  0  0  0  0  0
   -6.0670    1.0719    0.0337 C   0  0  0  0  0  0  0  0  0  0  0  0
   -7.1663    1.1102   -0.0042 H   0  0  0  0  0  0  0  0  0  0  0  0
   -5.4211    0.3361    1.0411 C   0  0  0  0  0  0  0  0  0  0  0  0
   -6.0132   -0.1937    1.8032 H   0  0  0  0  0  0  0  0  0  0  0  0
   -4.0206    0.2774    1.0810 C   0  0  0  0  0  0  0  0  0  0  0  0
   -3.5095   -0.2922    1.8711 H   0  0  0  0  0  0  0  0  0  0  0  0
    4.6626    0.1790   -0.2383 C   0  0  2  0  0  3  0  0  0  0  0  0
    4.8499   -1.1960   -0.3649 C   0  0  0  0  0  0  0  0  0  0  0  0
    5.8129   -1.7178   -0.3710 H   0  0  0  0  0  0  0  0  0  0  0  0
    3.5571   -1.7714   -0.4584 C   0  0  0  0  0  0  0  0  0  0  0  0
    5.6934    1.2411   -0.0442 C   0  0  0  0  0  0  0  0  0  0  0  0
    6.6593    0.7618    0.2007 H   0  0  0  0  0  0  0  0  0  0  0  0
    5.4282    1.9307    0.7817 H   0  0  0  0  0  0  0  0  0  0  0  0
    5.8501    1.8545   -0.9563 H   0  0  0  0  0  0  0  0  0  0  0  0
    3.1813   -3.2143   -0.5578 C   0  0  0  0  0  0  0  0  0  0  0  0
    2.6136   -3.5266    0.3428 H   0  0  0  0  0  0  0  0  0  0  0  0
    4.0824   -3.8492   -0.6401 H   0  0  0  0  0  0  0  0  0  0  0  0
    2.5335   -3.4038   -1.4364 H   0  0  0  0  0  0  0  0  0  0  0  0
   -0.4989   -2.7949   -1.3893 C   0  0  0  0  0  0  0  0  0  0  0  0
    0.0051   -2.1691   -2.1540 H   0  0  0  0  0  0  0  0  0  0  0  0
   -0.8528   -3.7269   -1.8765 H   0  0  0  0  0  0  0  0  0  0  0  0
    0.2563   -3.0818   -0.6293 H   0  0  0  0  0  0  0  0  0  0  0  0
   -2.5357   -2.9301    0.8727 C   0  0  0  0  0  0  0  0  0  0  0  0
   -1.7768   -2.9320    1.6817 H   0  0  0  0  0  0  0  0  0  0  0  0
   -2.6878   -3.9788    0.5419 H   0  0  0  0  0  0  0  0  0  0  0  0
   -3.4931   -2.5641    1.2924 H   0  0  0  0  0  0  0  0  0  0  0  0
   -3.3065   -1.6226   -1.8514 C   0  0  0  0  0  0  0  0  0  0  0  0
   -4.2383   -1.2245   -1.4047 H   0  0  0  0  0  0  0  0  0  0  0  0
   -3.5396   -2.5993   -2.3256 H   0  0  0  0  0  0  0  0  0  0  0  0
   -2.9850   -0.9237   -2.6501 H   0  0  0  0  0  0  0  0  0  0  0  0
  1  3  1  0  0  0  0
  1 44  1  0  0  0  0
  2 13  1  0  0  0  0
  3 16  1  0  0  0  0
  4  5  1  1  0  0  0
  4 28  1  0  0  0  0
  4  6  1  0  0  0  0
  6  7  1  6  0  0  0
  6  2  1  0  0  0  0
  7  9  2  0  0  0  0
  8  7  1  0  0  0  0
  9 11  1  0  0  0  0
 10  9  1  0  0  0  0
 11 12  1  0  0  0  0
 11 13  2  0  0  0  0
 13 14  1  0  0  0  0
 14 15  1  0  0  0  0
 16 14  2  0  0  0  0
 17 16  1  0  0  0  0
 17 26  1  0  0  0  0
 18 17  2  0  0  0  0
 19 18  1  0  0  0  0
 20 18  1  0  0  0  0
 20 22  2  0  0  0  0
 21 20  1  0  0  0  0
 22 24  1  0  0  0  0
 23 22  1  0  0  0  0
 24 26  2  0  0  0  0
 24 25  1  0  0  0  0
 26 27  1  0  0  0  0
 28 32  1  1  0  0  0
 29 28  1  0  0  0  0
 30 29  1  0  0  0  0
 31  5  1  0  0  0  0
 31 29  2  0  0  0  0
 32 33  1  0  0  0  0
 32 34  1  0  0  0  0
 35 32  1  0  0  0  0
 36 31  1  0  0  0  0
 36 37  1  0  0  0  0
 38 36  1  0  0  0  0
 39 36  1  0  0  0  0
 40 43  1  0  0  0  0
 40  1  1  0  0  0  0
 41 40  1  0  0  0  0
 42 40  1  0  0  0  0
 44 47  1  0  0  0  0
 44 45  1  0  0  0  0
 46 44  1  0  0  0  0
 48 49  1  0  0  0  0
 48  1  1  0  0  0  0
 50 48  1  0  0  0  0
 51 48  1  0  0  0  0
M  END
