1,6,12
 OpenBabel05122313063D

 60 65  0  0  1  0  0  0  0  0999 V2000
   -2.3785    0.1178   -0.7031 N   0  0  0  0  0  2  0  0  0  0  0  0
   -4.8592    3.2505   -0.2248 C   0  0  0  0  0  3  0  0  0  0  0  0
   -5.9125    2.9551   -0.0751 H   0  0  0  0  0  0  0  0  0  0  0  0
   -4.5614   -3.2612   -0.8176 C   0  0  0  0  0  3  0  0  0  0  0  0
   -5.6364   -3.0935   -0.6292 H   0  0  0  0  0  0  0  0  0  0  0  0
   -3.9780    2.2447   -0.2983 N   0  0  0  0  0  2  0  0  0  0  0  0
   -2.6686    2.5000   -0.5045 C   0  0  0  0  0  0  0  0  0  0  0  0
   -0.2563   -0.9877   -0.8006 C   0  0  0  0  0  0  0  0  0  0  0  0
    0.3211   -1.9168   -0.8899 H   0  0  0  0  0  0  0  0  0  0  0  0
    1.8982    0.3084   -0.6460 C   0  0  0  0  0  0  0  0  0  0  0  0
    0.4213    0.2447   -0.6838 C   0  0  0  0  0  0  0  0  0  0  0  0
   -3.7756   -2.1832   -0.7001 N   0  0  0  0  0  2  0  0  0  0  0  0
   -2.4492   -2.2785   -0.9323 C   0  0  0  0  0  0  0  0  0  0  0  0
   -4.4742    4.5946   -0.3416 C   0  0  0  0  0  0  0  0  0  0  0  0
   -5.2258    5.3939   -0.2734 H   0  0  0  0  0  0  0  0  0  0  0  0
   -3.1176    4.8797   -0.5494 C   0  0  0  0  0  0  0  0  0  0  0  0
   -2.7719    5.9193   -0.6510 H   0  0  0  0  0  0  0  0  0  0  0  0
   -1.7683    1.3114   -0.6066 C   0  0  1  0  0  3  0  0  0  0  0  0
   -2.2021    3.8232   -0.6368 C   0  0  0  0  0  0  0  0  0  0  0  0
   -1.1395    4.0293   -0.8233 H   0  0  0  0  0  0  0  0  0  0  0  0
    2.6584   -0.7262   -0.0478 C   0  0  0  0  0  0  0  0  0  0  0  0
    2.1414   -1.5745    0.4253 H   0  0  0  0  0  0  0  0  0  0  0  0
   -1.6615   -1.0144   -0.8072 C   0  0  0  0  0  0  0  0  0  0  0  0
    2.5984    1.4023   -1.2028 C   0  0  0  0  0  0  0  0  0  0  0  0
    2.0412    2.2101   -1.7005 H   0  0  0  0  0  0  0  0  0  0  0  0
    4.0503   -0.6690   -0.0049 C   0  0  0  0  0  0  0  0  0  0  0  0
    4.5998   -1.4867    0.4838 H   0  0  0  0  0  0  0  0  0  0  0  0
   -0.3660    1.4124   -0.5943 C   0  0  0  0  0  0  0  0  0  0  0  0
    0.1227    2.3862   -0.4612 H   0  0  0  0  0  0  0  0  0  0  0  0
    4.7594    0.4237   -0.5669 C   0  0  0  0  0  0  0  0  0  0  0  0
   -1.8651   -3.5090   -1.2939 C   0  0  0  0  0  0  0  0  0  0  0  0
   -0.7891   -3.5821   -1.5020 H   0  0  0  0  0  0  0  0  0  0  0  0
   -2.6809   -4.6419   -1.4087 C   0  0  0  0  0  0  0  0  0  0  0  0
   -2.2429   -5.6107   -1.6919 H   0  0  0  0  0  0  0  0  0  0  0  0
   -4.0568   -4.5222   -1.1691 C   0  0  0  0  0  0  0  0  0  0  0  0
   -4.7325   -5.3850   -1.2544 H   0  0  0  0  0  0  0  0  0  0  0  0
    6.2151    0.5350   -0.5542 C   0  0  0  0  0  0  0  0  0  0  0  0
    6.6099    1.4410   -1.0443 H   0  0  0  0  0  0  0  0  0  0  0  0
    7.0954   -0.3489   -0.0059 C   0  0  0  0  0  0  0  0  0  0  0  0
    6.6975   -1.2500    0.4910 H   0  0  0  0  0  0  0  0  0  0  0  0
    3.9932    1.4540   -1.1678 C   0  0  0  0  0  0  0  0  0  0  0  0
    4.5156    2.3102   -1.6222 H   0  0  0  0  0  0  0  0  0  0  0  0
    8.5515   -0.2443    0.0093 C   0  0  0  0  0  0  0  0  0  0  0  0
    9.2678    0.8200   -0.5954 C   0  0  0  0  0  0  0  0  0  0  0  0
    8.7245    1.6178   -1.1222 H   0  0  0  0  0  0  0  0  0  0  0  0
    9.3097   -1.2521    0.6552 C   0  0  0  0  0  0  0  0  0  0  0  0
    8.7823   -2.0885    1.1398 H   0  0  0  0  0  0  0  0  0  0  0  0
   11.3951   -0.1384    0.0987 C   0  0  0  0  0  0  0  0  0  0  0  0
   10.7045   -1.2030    0.7100 C   0  0  0  0  0  0  0  0  0  0  0  0
   11.2644   -1.9807    1.2481 H   0  0  0  0  0  0  0  0  0  0  0  0
   10.6605    0.8714   -0.5610 C   0  0  0  0  0  0  0  0  0  0  0  0
   11.1929    1.6866   -1.0712 H   0  0  0  0  0  0  0  0  0  0  0  0
   12.8073   -0.0754    0.1441 N   0  0  0  0  0  0  0  0  0  0  0  0
   13.6942   -1.1469    0.1634 C   0  0  0  0  0  0  0  0  0  0  0  0
   13.3492   -2.1819    0.0817 H   0  0  0  0  0  0  0  0  0  0  0  0
   13.5860    1.0713    0.2114 C   0  0  0  0  0  0  0  0  0  0  0  0
   13.1334    2.0700    0.2581 H   0  0  0  0  0  0  0  0  0  0  0  0
   14.9552   -0.5820    0.2303 C   0  0  0  0  0  0  0  0  0  0  0  0
   15.9210   -1.1031    0.2459 H   0  0  0  0  0  0  0  0  0  0  0  0
   14.8733    0.7944    0.2682 N   0  0  0  0  0  0  0  0  0  0  0  0
  1 18  1  0  0  0  0
  2  3  1  0  0  0  0
  4 12  1  0  0  0  0
  4  5  1  0  0  0  0
  6  2  1  0  0  0  0
  7  6  1  0  0  0  0
  8 11  1  0  0  0  0
  9  8  1  0  0  0  0
 10 21  1  0  0  0  0
 11 10  1  0  0  0  0
 11 28  2  0  0  0  0
 13 23  1  0  0  0  0
 13 12  1  0  0  0  0
 14 15  1  0  0  0  0
 14  2  1  0  0  0  0
 16 14  2  0  0  0  0
 17 16  1  0  0  0  0
 18 28  1  0  0  0  0
 18  7  1  1  0  0  0
 19 16  1  0  0  0  0
 19  7  2  0  0  0  0
 20 19  1  0  0  0  0
 21 26  2  0  0  0  0
 21 22  1  0  0  0  0
 23  8  2  0  0  0  0
 23  1  1  0  0  0  0
 24 41  1  0  0  0  0
 24 10  2  0  0  0  0
 25 24  1  0  0  0  0
 26 27  1  0  0  0  0
 28 29  1  0  0  0  0
 30 37  1  0  0  0  0
 30 26  1  0  0  0  0
 31 13  2  0  0  0  0
 32 31  1  0  0  0  0
 33 31  1  0  0  0  0
 33 35  2  0  0  0  0
 34 33  1  0  0  0  0
 35  4  1  0  0  0  0
 36 35  1  0  0  0  0
 37 39  2  0  0  0  0
 38 37  1  0  0  0  0
 39 43  1  0  0  0  0
 39 40  1  0  0  0  0
 41 30  2  0  0  0  0
 42 41  1  0  0  0  0
 43 46  1  0  0  0  0
 44 51  1  0  0  0  0
 44 43  2  0  0  0  0
 45 44  1  0  0  0  0
 46 49  2  0  0  0  0
 46 47  1  0  0  0  0
 48 53  1  0  0  0  0
 48 49  1  0  0  0  0
 49 50  1  0  0  0  0
 51 48  2  0  0  0  0
 52 51  1  0  0  0  0
 53 54  1  0  0  0  0
 53 56  1  0  0  0  0
 54 58  2  0  0  0  0
 55 54  1  0  0  0  0
 56 57  1  0  0  0  0
 56 60  2  0  0  0  0
 58 59  1  0  0  0  0
 58 60  1  0  0  0  0
M  END
