3,4,5
 OpenBabel05122313063D

 39 42  0  0  0  0  0  0  0  0999 V2000
    4.2509   -1.8883    1.1099 F   0  0  0  0  0  0  0  0  0  0  0  0
    8.1662    0.3828   -0.1508 F   0  0  0  0  0  0  0  0  0  0  0  0
   -1.8149   -2.0047   -0.0895 N   0  0  0  0  0  2  0  0  0  0  0  0
   -0.2315    0.0412   -0.0327 N   0  0  0  0  0  2  0  0  0  0  0  0
   -1.9056    2.0107    0.0673 N   0  0  0  0  0  2  0  0  0  0  0  0
   -0.4659   -2.3085   -0.1139 C   0  0  0  0  0  0  0  0  0  0  0  0
   -0.0467   -3.6443   -0.1646 C   0  0  0  0  0  0  0  0  0  0  0  0
    1.0263   -3.8786   -0.1824 H   0  0  0  0  0  0  0  0  0  0  0  0
   -1.0025   -4.6696   -0.1913 C   0  0  0  0  0  0  0  0  0  0  0  0
   -0.6826   -5.7209   -0.2309 H   0  0  0  0  0  0  0  0  0  0  0  0
   -2.3641   -4.3375   -0.1663 C   0  0  0  0  0  0  0  0  0  0  0  0
   -3.1441   -5.1113   -0.1855 H   0  0  0  0  0  0  0  0  0  0  0  0
   -2.7371   -2.9894   -0.1148 C   0  0  0  0  0  3  0  0  0  0  0  0
   -3.7851   -2.6505   -0.0916 H   0  0  0  0  0  0  0  0  0  0  0  0
    0.4405   -1.1418   -0.0804 C   0  0  0  0  0  0  0  0  0  0  0  0
    1.8382   -1.1318   -0.0965 C   0  0  0  0  0  0  0  0  0  0  0  0
    2.3903   -2.0768   -0.1444 H   0  0  0  0  0  0  0  0  0  0  0  0
    2.5420    0.1016   -0.0609 C   0  0  0  0  0  0  0  0  0  0  0  0
    1.7838    1.3007   -0.0054 C   0  0  0  0  0  0  0  0  0  0  0  0
    2.2972    2.2689    0.0587 H   0  0  0  0  0  0  0  0  0  0  0  0
    0.3864    1.2534    0.0052 C   0  0  0  0  0  0  0  0  0  0  0  0
   -0.5719    2.3771    0.0662 C   0  0  0  0  0  0  0  0  0  0  0  0
   -0.2155    3.7308    0.1208 C   0  0  0  0  0  0  0  0  0  0  0  0
    0.8452    4.0164    0.1208 H   0  0  0  0  0  0  0  0  0  0  0  0
   -1.2172    4.7101    0.1764 C   0  0  0  0  0  0  0  0  0  0  0  0
   -0.9461    5.7748    0.2202 H   0  0  0  0  0  0  0  0  0  0  0  0
   -2.5620    4.3146    0.1756 C   0  0  0  0  0  0  0  0  0  0  0  0
   -3.3768    5.0507    0.2179 H   0  0  0  0  0  0  0  0  0  0  0  0
   -2.8721    2.9509    0.1201 C   0  0  0  0  0  0  0  0  0  0  0  0
   -3.9032    2.5629    0.1164 H   0  0  0  0  0  0  0  0  0  0  0  0
    4.0152    0.1593   -0.0957 C   0  0  0  0  0  0  0  0  0  0  0  0
    4.8299   -0.8399    0.4937 C   0  0  0  0  0  0  0  0  0  0  0  0
    6.2229   -0.7796    0.4913 C   0  0  0  0  0  0  0  0  0  0  0  0
    6.8176   -1.5672    0.9728 H   0  0  0  0  0  0  0  0  0  0  0  0
    6.8368    0.3140   -0.1327 C   0  0  0  0  0  0  0  0  0  0  0  0
    6.0843    1.3312   -0.7415 C   0  0  0  0  0  0  0  0  0  0  0  0
    6.6005    2.1643   -1.2372 H   0  0  0  0  0  0  0  0  0  0  0  0
    4.6923    1.2433   -0.7100 C   0  0  0  0  0  0  0  0  0  0  0  0
    4.1036    2.0240   -1.2134 H   0  0  0  0  0  0  0  0  0  0  0  0
  2 35  1  0  0  0  0
  4 21  1  0  0  0  0
  5 29  1  0  0  0  0
  6  3  1  0  0  0  0
  6 15  1  0  0  0  0
  7  6  2  0  0  0  0
  8  7  1  0  0  0  0
  9 11  2  0  0  0  0
  9  7  1  0  0  0  0
 10  9  1  0  0  0  0
 11 13  1  0  0  0  0
 12 11  1  0  0  0  0
 13 14  1  0  0  0  0
 13  3  1  0  0  0  0
 15  4  1  0  0  0  0
 16 15  2  0  0  0  0
 16 18  1  0  0  0  0
 17 16  1  0  0  0  0
 18 19  2  0  0  0  0
 19 21  1  0  0  0  0
 19 20  1  0  0  0  0
 21 22  2  0  0  0  0
 22  5  1  0  0  0  0
 22 23  1  0  0  0  0
 23 25  2  0  0  0  0
 24 23  1  0  0  0  0
 25 26  1  0  0  0  0
 27 25  1  0  0  0  0
 27 28  1  0  0  0  0
 29 27  2  0  0  0  0
 30 29  1  0  0  0  0
 31 18  1  0  0  0  0
 31 32  1  0  0  0  0
 32  1  1  0  0  0  0
 33 32  2  0  0  0  0
 33 34  1  0  0  0  0
 35 33  1  0  0  0  0
 36 38  1  0  0  0  0
 36 35  2  0  0  0  0
 37 36  1  0  0  0  0
 38 31  2  0  0  0  0
 39 38  1  0  0  0  0
M  END
