2,3,4
 OpenBabel05122313063D

 39 42  0  0  0  0  0  0  0  0999 V2000
    8.0493   -0.0000   -0.0000 Br  0  0  0  0  0  0  0  0  0  0  0  0
   -2.5402   -2.0090    0.0422 N   0  0  0  0  0  2  0  0  0  0  0  0
   -0.9097    0.0000    0.0000 N   0  0  0  0  0  2  0  0  0  0  0  0
   -2.5402    2.0090   -0.0422 N   0  0  0  0  0  2  0  0  0  0  0  0
   -1.1985   -2.3449    0.0480 C   0  0  0  0  0  0  0  0  0  0  0  0
   -0.8118   -3.6911    0.0796 C   0  0  0  0  0  0  0  0  0  0  0  0
    0.2551   -3.9523    0.0854 H   0  0  0  0  0  0  0  0  0  0  0  0
   -1.7914   -4.6937    0.1049 C   0  0  0  0  0  0  0  0  0  0  0  0
   -1.4965   -5.7527    0.1303 H   0  0  0  0  0  0  0  0  0  0  0  0
   -3.1448   -4.3288    0.0975 C   0  0  0  0  0  0  0  0  0  0  0  0
   -3.9430   -5.0839    0.1163 H   0  0  0  0  0  0  0  0  0  0  0  0
   -3.4855   -2.9717    0.0659 C   0  0  0  0  0  3  0  0  0  0  0  0
   -4.5251   -2.6072    0.0587 H   0  0  0  0  0  0  0  0  0  0  0  0
   -0.2649   -1.1994    0.0191 C   0  0  0  0  0  0  0  0  0  0  0  0
    1.1331   -1.2169    0.0191 C   0  0  0  0  0  0  0  0  0  0  0  0
    1.6687   -2.1741    0.0645 H   0  0  0  0  0  0  0  0  0  0  0  0
    1.8639   -0.0000    0.0000 C   0  0  0  0  0  0  0  0  0  0  0  0
    1.1331    1.2169   -0.0191 C   0  0  0  0  0  0  0  0  0  0  0  0
    1.6687    2.1741   -0.0645 H   0  0  0  0  0  0  0  0  0  0  0  0
   -0.2649    1.1994   -0.0191 C   0  0  0  0  0  0  0  0  0  0  0  0
   -1.1985    2.3449   -0.0479 C   0  0  0  0  0  0  0  0  0  0  0  0
   -0.8118    3.6911   -0.0795 C   0  0  0  0  0  0  0  0  0  0  0  0
    0.2552    3.9523   -0.0853 H   0  0  0  0  0  0  0  0  0  0  0  0
   -1.7914    4.6937   -0.1048 C   0  0  0  0  0  0  0  0  0  0  0  0
   -1.4965    5.7527   -0.1302 H   0  0  0  0  0  0  0  0  0  0  0  0
   -3.1448    4.3288   -0.0975 C   0  0  0  0  0  0  0  0  0  0  0  0
   -3.9430    5.0839   -0.1163 H   0  0  0  0  0  0  0  0  0  0  0  0
   -3.4855    2.9717   -0.0659 C   0  0  0  0  0  0  0  0  0  0  0  0
   -4.5251    2.6072   -0.0588 H   0  0  0  0  0  0  0  0  0  0  0  0
    3.3389   -0.0000    0.0000 C   0  0  0  0  0  0  0  0  0  0  0  0
    4.0662   -1.0495   -0.6110 C   0  0  0  0  0  0  0  0  0  0  0  0
    3.5351   -1.8625   -1.1282 H   0  0  0  0  0  0  0  0  0  0  0  0
    5.4635   -1.0528   -0.6196 C   0  0  0  0  0  0  0  0  0  0  0  0
    6.0164   -1.8637   -1.1139 H   0  0  0  0  0  0  0  0  0  0  0  0
    6.1622   -0.0000   -0.0000 C   0  0  0  0  0  0  0  0  0  0  0  0
    5.4635    1.0528    0.6196 C   0  0  0  0  0  0  0  0  0  0  0  0
    6.0164    1.8637    1.1139 H   0  0  0  0  0  0  0  0  0  0  0  0
    4.0662    1.0495    0.6110 C   0  0  0  0  0  0  0  0  0  0  0  0
    3.5351    1.8625    1.1282 H   0  0  0  0  0  0  0  0  0  0  0  0
  1 35  1  0  0  0  0
  2  5  1  0  0  0  0
  2 12  1  0  0  0  0
  3 14  1  0  0  0  0
  5  6  2  0  0  0  0
  6  7  1  0  0  0  0
  6  8  1  0  0  0  0
  8  9  1  0  0  0  0
 10  8  2  0  0  0  0
 10 11  1  0  0  0  0
 12 10  1  0  0  0  0
 13 12  1  0  0  0  0
 14  5  1  0  0  0  0
 15 14  2  0  0  0  0
 15 16  1  0  0  0  0
 17 15  1  0  0  0  0
 18 17  2  0  0  0  0
 19 18  1  0  0  0  0
 20 18  1  0  0  0  0
 20  3  1  0  0  0  0
 21  4  1  0  0  0  0
 21 20  2  0  0  0  0
 22 21  1  0  0  0  0
 23 22  1  0  0  0  0
 24 26  1  0  0  0  0
 24 22  2  0  0  0  0
 25 24  1  0  0  0  0
 26 28  2  0  0  0  0
 27 26  1  0  0  0  0
 28 29  1  0  0  0  0
 28  4  1  0  0  0  0
 30 17  1  0  0  0  0
 30 38  1  0  0  0  0
 31 30  2  0  0  0  0
 32 31  1  0  0  0  0
 33 31  1  0  0  0  0
 33 35  2  0  0  0  0
 34 33  1  0  0  0  0
 35 36  1  0  0  0  0
 36 37  1  0  0  0  0
 38 36  2  0  0  0  0
 38 39  1  0  0  0  0
M  END
