2,3,5
 OpenBabel05122313063D

 30 32  0  0  0  0  0  0  0  0999 V2000
   -1.2418   -2.0563    0.6997 N   0  0  0  0  0  0  0  0  0  0  0  0
    1.3612   -0.8720    0.0220 N   0  0  0  0  0  2  0  0  0  0  0  0
   -1.3612   -0.8720    0.0219 N   0  0  0  0  0  2  0  0  0  0  0  0
   -4.9514   -1.8859   -1.7849 O   0  0  0  0  0  0  0  0  0  0  0  0
   -0.0001    0.1878    2.1333 N   0  0  0  0  0  2  0  0  0  0  0  0
   -0.0001   -1.0806    2.6212 N   0  0  0  0  0  0  0  0  0  0  0  0
   -4.7302   -3.7748   -0.6824 O   0  0  0  0  0  0  0  0  0  0  0  0
   -4.3568   -2.6456   -1.0152 N   0  0  0  0  0  0  0  0  0  0  0  0
    1.2418   -2.0562    0.6997 N   0  0  0  0  0  0  0  0  0  0  0  0
   -3.1172   -2.1711   -0.4556 C   0  0  0  0  0  0  0  0  0  0  0  0
   -2.4992   -0.9216   -0.6898 C   0  0  0  0  0  3  0  0  0  0  0  0
   -2.8258   -0.0919   -1.3229 H   0  0  0  0  0  0  0  0  0  0  0  0
   -2.2888   -2.8659    0.4324 C   0  0  0  0  0  0  0  0  0  0  0  0
   -2.3942   -3.8628    0.8700 H   0  0  0  0  0  0  0  0  0  0  0  0
    2.4992   -0.9216   -0.6897 C   0  0  0  0  0  3  0  0  0  0  0  0
    2.8258   -0.0919   -1.3228 H   0  0  0  0  0  0  0  0  0  0  0  0
    0.0000    0.2769    4.3901 C   0  0  0  0  0  0  0  0  0  0  0  0
    0.0001    0.6595    5.4152 H   0  0  0  0  0  0  0  0  0  0  0  0
    4.7303   -3.7748   -0.6822 O   0  0  0  0  0  0  0  0  0  0  0  0
    4.9514   -1.8859   -1.7849 O   0  0  0  0  0  0  0  0  0  0  0  0
    3.1172   -2.1710   -0.4555 C   0  0  0  0  0  0  0  0  0  0  0  0
    4.3568   -2.6456   -1.0151 N   0  0  0  0  0  0  0  0  0  0  0  0
   -0.0000    1.0234    3.1910 C   0  0  0  0  0  3  0  0  0  0  0  0
    0.0000    2.1070    3.0318 H   0  0  0  0  0  0  0  0  0  0  0  0
   -0.0000   -1.0582    3.9820 C   0  0  0  0  0  0  0  0  0  0  0  0
   -0.0001   -1.9924    4.5536 H   0  0  0  0  0  0  0  0  0  0  0  0
   -0.0000   -2.2417    1.6118 B   0  0  2  0  0  0  0  0  0  0  0  0
   -0.0000   -3.3312    2.1545 H   0  0  0  0  0  0  0  0  0  0  0  0
    2.2888   -2.8659    0.4324 C   0  0  0  0  0  0  0  0  0  0  0  0
    2.3941   -3.8628    0.8701 H   0  0  0  0  0  0  0  0  0  0  0  0
  1 27  1  0  0  0  0
  2  9  1  0  0  0  0
  3  1  1  0  0  0  0
  4  8  2  0  0  0  0
  5  6  1  0  0  0  0
  5 23  1  0  0  0  0
  6 25  1  0  0  0  0
  8  7  2  0  0  0  0
  8 10  1  0  0  0  0
  9 27  1  0  0  0  0
 10 13  2  0  0  0  0
 11 10  1  0  0  0  0
 11  3  1  0  0  0  0
 12 11  1  0  0  0  0
 13  1  1  0  0  0  0
 13 14  1  0  0  0  0
 15 21  1  0  0  0  0
 15  2  1  0  0  0  0
 16 15  1  0  0  0  0
 17 18  1  0  0  0  0
 20 22  2  0  0  0  0
 21 29  2  0  0  0  0
 22 19  2  0  0  0  0
 22 21  1  0  0  0  0
 23 17  1  0  0  0  0
 24 23  1  0  0  0  0
 25 17  2  0  0  0  0
 25 26  1  0  0  0  0
 27 28  1  1  0  0  0
 27  6  1  0  0  0  0
 29  9  1  0  0  0  0
 29 30  1  0  0  0  0
M  END
