3,8
 OpenBabel05122313063D

 10  9  0  0  0  0  0  0  0  0999 V2000
   -1.5562    2.0647   -1.6035 S   0  0  0  0  0  0  0  0  0  0  0  0
   -2.8686    2.1164   -0.9254 O   0  0  0  0  0  0  0  0  0  0  0  0
   -0.8903    0.6867   -1.5800 O   0  0  0  0  0  0  0  0  0  0  0  0
   -1.3747    2.7223   -2.9047 O   0  0  0  0  0  0  0  0  0  0  0  0
   -0.6524    2.9911   -0.4242 O   0  0  0  0  0  0  0  0  0  0  0  0
    1.6162    2.4224    0.7071 S   0  0  0  0  0  0  0  0  0  0  0  0
    0.7763    2.9087   -0.7317 O   0  0  0  0  0  0  0  0  0  0  0  0
    0.8788    1.1672    1.1679 O   0  0  0  0  0  0  0  0  0  0  0  0
    1.4767    3.5191    1.6893 O   0  0  0  0  0  0  0  0  0  0  0  0
    2.9488    2.1788    0.1204 O   0  0  0  0  0  0  0  0  0  0  0  0
  1  3  1  0  0  0  0
  1  2  1  0  0  0  0
  1  5  1  0  0  0  0
  4  1  1  0  0  0  0
  6  8  1  0  0  0  0
  6  9  1  0  0  0  0
  7  5  1  0  0  0  0
  7  6  1  0  0  0  0
 10  6  1  0  0  0  0
M  END
