2,6
 OpenBabel05122313063D

 50 52  0  0  0  0  0  0  0  0999 V2000
   -0.4092   -0.0002   -0.1643 P   0  0  0  0  0  0  0  0  0  0  0  0
    1.5780   -1.4681   -1.6456 O   0  5  0  0  0  0  0  0  0  0  0  0
   -3.0804   -1.5001   -0.6676 O   0  0  0  0  0  0  0  0  0  0  0  0
   -1.1695    2.3439    1.5098 O   0  0  0  0  0  0  0  0  0  0  0  0
   -1.1708   -2.3439    1.5099 O   0  0  0  0  0  0  0  0  0  0  0  0
    1.5779    1.4657   -1.6475 O   0  5  0  0  0  0  0  0  0  0  0  0
   -3.0799    1.5015   -0.6666 O   0  0  0  0  0  0  0  0  0  0  0  0
   -0.7797   -1.4599   -1.1784 C   0  0  0  0  0  0  0  0  0  0  0  0
   -2.0564   -2.0284   -1.4033 C   0  0  0  0  0  0  0  0  0  0  0  0
   -2.2120   -3.0873   -2.3135 C   0  0  0  0  0  0  0  0  0  0  0  0
   -1.0712   -3.5659   -2.9955 C   0  0  0  0  0  0  0  0  0  0  0  0
    0.1950   -3.0279   -2.7863 C   0  0  0  0  0  0  0  0  0  0  0  0
    0.3747   -1.9577   -1.8575 C   0  0  0  0  0  0  0  0  0  0  0  0
   -4.3955   -1.9372   -0.9234 C   0  0  0  0  0  0  0  0  0  0  0  0
   -1.3508    0.0001    1.3977 C   0  0  0  0  0  0  0  0  0  0  0  0
   -1.7307   -1.2166    2.0191 C   0  0  0  0  0  0  0  0  0  0  0  0
   -2.6126   -1.2210    3.1184 C   0  0  0  0  0  0  0  0  0  0  0  0
   -3.0566    0.0006    3.6420 C   0  0  0  0  0  0  0  0  0  0  0  0
   -2.6119    1.2219    3.1183 C   0  0  0  0  0  0  0  0  0  0  0  0
   -1.7301    1.2170    2.0190 C   0  0  0  0  0  0  0  0  0  0  0  0
   -1.7823   -3.5972    1.7542 C   0  0  0  0  0  0  0  0  0  0  0  0
   -1.7807    3.5975    1.7536 C   0  0  0  0  0  0  0  0  0  0  0  0
   -0.7795    1.4594   -1.1788 C   0  0  0  0  0  0  0  0  0  0  0  0
   -2.0560    2.0286   -1.4033 C   0  0  0  0  0  0  0  0  0  0  0  0
   -2.2114    3.0870   -2.3142 C   0  0  0  0  0  0  0  0  0  0  0  0
   -1.0707    3.5643   -2.9972 C   0  0  0  0  0  0  0  0  0  0  0  0
    0.1953    3.0257   -2.7884 C   0  0  0  0  0  0  0  0  0  0  0  0
    0.3748    1.9560   -1.8589 C   0  0  0  0  0  0  0  0  0  0  0  0
   -4.3950    1.9389   -0.9224 C   0  0  0  0  0  0  0  0  0  0  0  0
   -3.1945   -3.5382   -2.5013 H   0  0  0  0  0  0  0  0  0  0  0  0
   -1.1927   -4.3916   -3.7146 H   0  0  0  0  0  0  0  0  0  0  0  0
    1.0792   -3.4041   -3.3202 H   0  0  0  0  0  0  0  0  0  0  0  0
   -4.5291   -3.0222   -0.7068 H   0  0  0  0  0  0  0  0  0  0  0  0
   -5.0535   -1.3567   -0.2491 H   0  0  0  0  0  0  0  0  0  0  0  0
   -4.6970   -1.7515   -1.9790 H   0  0  0  0  0  0  0  0  0  0  0  0
   -2.9295   -2.1664    3.5769 H   0  0  0  0  0  0  0  0  0  0  0  0
   -3.7420    0.0008    4.5032 H   0  0  0  0  0  0  0  0  0  0  0  0
   -2.9284    2.1676    3.5768 H   0  0  0  0  0  0  0  0  0  0  0  0
   -1.2896   -4.3157    1.0733 H   0  0  0  0  0  0  0  0  0  0  0  0
   -1.6411   -3.9321    2.8062 H   0  0  0  0  0  0  0  0  0  0  0  0
   -2.8689   -3.5643    1.5235 H   0  0  0  0  0  0  0  0  0  0  0  0
   -2.8672    3.5649    1.5227 H   0  0  0  0  0  0  0  0  0  0  0  0
   -1.6395    3.9327    2.8055 H   0  0  0  0  0  0  0  0  0  0  0  0
   -1.2877    4.3156    1.0725 H   0  0  0  0  0  0  0  0  0  0  0  0
   -3.1937    3.5385   -2.5016 H   0  0  0  0  0  0  0  0  0  0  0  0
   -1.1921    4.3897   -3.7167 H   0  0  0  0  0  0  0  0  0  0  0  0
    1.0794    3.4009   -3.3230 H   0  0  0  0  0  0  0  0  0  0  0  0
   -5.0529    1.3592   -0.2475 H   0  0  0  0  0  0  0  0  0  0  0  0
   -4.5282    3.0241   -0.7067 H   0  0  0  0  0  0  0  0  0  0  0  0
   -4.6967    1.7525   -1.9778 H   0  0  0  0  0  0  0  0  0  0  0  0
  1 15  1  0  0  0  0
  4 22  1  0  0  0  0
  4 20  1  0  0  0  0
  5 21  1  0  0  0  0
  5 16  1  0  0  0  0
  8  1  1  0  0  0  0
  9  8  1  0  0  0  0
  9  3  1  0  0  0  0
 10  9  2  0  0  0  0
 11 12  2  0  0  0  0
 11 10  1  0  0  0  0
 12 13  1  0  0  0  0
 13  2  1  0  0  0  0
 13  8  2  0  0  0  0
 14 33  1  0  0  0  0
 14  3  1  0  0  0  0
 14 34  1  0  0  0  0
 15 20  2  0  0  0  0
 15 16  1  0  0  0  0
 16 17  2  0  0  0  0
 17 36  1  0  0  0  0
 17 18  1  0  0  0  0
 18 37  1  0  0  0  0
 19 38  1  0  0  0  0
 19 18  2  0  0  0  0
 20 19  1  0  0  0  0
 21 40  1  0  0  0  0
 22 43  1  0  0  0  0
 23  1  1  0  0  0  0
 24 23  1  0  0  0  0
 24  7  1  0  0  0  0
 25 24  2  0  0  0  0
 26 27  2  0  0  0  0
 26 25  1  0  0  0  0
 27 28  1  0  0  0  0
 28  6  1  0  0  0  0
 28 23  2  0  0  0  0
 29 49  1  0  0  0  0
 29  7  1  0  0  0  0
 29 48  1  0  0  0  0
 30 10  1  0  0  0  0
 31 11  1  0  0  0  0
 32 12  1  0  0  0  0
 35 14  1  0  0  0  0
 39 21  1  0  0  0  0
 41 21  1  0  0  0  0
 42 22  1  0  0  0  0
 44 22  1  0  0  0  0
 45 25  1  0  0  0  0
 46 26  1  0  0  0  0
 47 27  1  0  0  0  0
 50 29  1  0  0  0  0
M  CHG  2   2  -1   6  -1
M  END
