1,2
 OpenBabel05122313063D

  4  3  0  0  0  0  0  0  0  0999 V2000
    0.6924   -2.4935   -0.5806 O   0  5  0  0  0  0  0  0  0  0  0  0
    0.8857   -0.8636   -2.0622 O   0  0  0  0  0  0  0  0  0  0  0  0
    0.9351   -3.0251   -2.7849 O   0  0  0  0  0  0  0  0  0  0  0  0
    0.8514   -2.2081   -1.8798 C   0  0  0  0  0  0  0  0  0  0  0  0
  2  4  2  0  0  0  0
  3  4  1  0  0  0  0
  4  1  1  0  0  0  0
M  CHG  1   1  -1
M  END
