1,2
 OpenBabel05122313063D

 11 10  0  0  0  0  0  0  0  0999 V2000
    1.2998    1.4843   -0.0619 O   0  0  0  0  0  1  0  0  0  0  0  0
   -1.1634    1.6986   -0.1096 O   0  0  0  0  0  1  0  0  0  0  0  0
   -0.5373    2.8367   -0.0764 N   0  0  0  0  0  2  0  0  0  0  0  0
    0.7377    2.6848   -0.0549 N   0  0  0  0  0  0  0  0  0  0  0  0
    1.6605    3.8219    0.0003 C   0  0  0  0  0  0  0  0  0  0  0  0
    2.3369    3.7055   -0.8724 H   0  0  0  0  0  0  0  0  0  0  0  0
    2.2832    3.6619    0.9055 H   0  0  0  0  0  0  0  0  0  0  0  0
    0.9638    5.1716    0.0122 C   0  0  0  0  0  0  0  0  0  0  0  0
    0.3503    5.3176   -0.8968 H   0  0  0  0  0  0  0  0  0  0  0  0
    1.7295    5.9707    0.0543 H   0  0  0  0  0  0  0  0  0  0  0  0
    0.2972    5.2740    0.8891 H   0  0  0  0  0  0  0  0  0  0  0  0
  1  4  1  0  0  0  0
  2  3  1  0  0  0  0
  3  4  1  0  0  0  0
  4  5  1  0  0  0  0
  5  8  1  0  0  0  0
  5  7  1  0  0  0  0
  6  5  1  0  0  0  0
  8 10  1  0  0  0  0
  8 11  1  0  0  0  0
  9  8  1  0  0  0  0
M  END
