1,2
 OpenBabel05122313063D

 24 23  0  0  1  0  0  0  0  0999 V2000
    1.1951    0.8789    0.1739 O   0  0  0  0  0  1  0  0  0  0  0  0
   -0.1964   -1.2666   -0.9203 O   0  5  0  0  0  0  0  0  0  0  0  0
    3.3834    0.5945    0.3688 O   0  0  0  0  0  0  0  0  0  0  0  0
    1.0199   -3.0720   -1.3811 O   0  0  0  0  0  0  0  0  0  0  0  0
    4.4998   -1.8100    0.0232 O   0  0  0  0  0  0  0  0  0  0  0  0
    2.1877    0.0932    0.0563 C   0  0  2  0  0  3  0  0  0  0  0  0
    2.1727   -1.2748   -0.3871 C   0  0  0  0  0  0  0  0  0  0  0  0
    0.9447   -1.8220   -0.8819 C   0  0  0  0  0  0  0  0  0  0  0  0
    3.4337    1.9456    0.8699 C   0  0  0  0  0  0  0  0  0  0  0  0
    4.8806    2.2407    1.2076 C   0  0  0  0  0  0  0  0  0  0  0  0
   -0.2036   -3.7027   -1.8187 C   0  0  0  0  0  0  0  0  0  0  0  0
   -1.0124   -4.2549   -0.6550 C   0  0  0  0  0  0  0  0  0  0  0  0
    3.3788   -2.1207   -0.3630 C   0  0  0  0  0  0  0  0  0  0  0  0
    2.7659    2.0289    1.7535 H   0  0  0  0  0  0  0  0  0  0  0  0
    3.0303    2.6352    0.0978 H   0  0  0  0  0  0  0  0  0  0  0  0
    4.9754    3.2703    1.6058 H   0  0  0  0  0  0  0  0  0  0  0  0
    5.5220    2.1498    0.3092 H   0  0  0  0  0  0  0  0  0  0  0  0
    5.2582    1.5300    1.9685 H   0  0  0  0  0  0  0  0  0  0  0  0
   -0.7970   -2.9768   -2.4097 H   0  0  0  0  0  0  0  0  0  0  0  0
    0.1440   -4.5135   -2.4883 H   0  0  0  0  0  0  0  0  0  0  0  0
   -0.3991   -4.9427   -0.0391 H   0  0  0  0  0  0  0  0  0  0  0  0
   -1.8833   -4.8229   -1.0409 H   0  0  0  0  0  0  0  0  0  0  0  0
   -1.3942   -3.4380   -0.0117 H   0  0  0  0  0  0  0  0  0  0  0  0
    3.1774   -3.1631   -0.7432 H   0  0  0  0  0  0  0  0  0  0  0  0
  2  8  1  0  0  0  0
  3  9  1  0  0  0  0
  4  8  1  0  0  0  0
  6  1  1  6  0  0  0
  6  3  1  0  0  0  0
  7 13  1  0  0  0  0
  7  6  1  0  0  0  0
  8  7  2  0  0  0  0
  9 10  1  0  0  0  0
  9 14  1  0  0  0  0
 10 16  1  0  0  0  0
 10 18  1  0  0  0  0
 11  4  1  0  0  0  0
 11 12  1  0  0  0  0
 12 21  1  0  0  0  0
 12 23  1  0  0  0  0
 13  5  2  0  0  0  0
 15  9  1  0  0  0  0
 17 10  1  0  0  0  0
 19 11  1  0  0  0  0
 20 11  1  0  0  0  0
 22 12  1  0  0  0  0
 24 13  1  0  0  0  0
M  CHG  1   2  -1
M  END
