20,21
 OpenBabel05122313063D

 21 21  0  0  1  0  0  0  0  0999 V2000
    1.3399   -2.9409    2.8399 C   0  0  0  0  0  0  0  0  0  0  0  0
   -3.5402   -0.9253   -0.5868 C   0  0  0  0  0  0  0  0  0  0  0  0
    0.6379   -1.9945    1.8909 C   0  0  1  0  0  3  0  0  0  0  0  0
   -0.6118   -2.3479    1.3511 C   0  0  0  0  0  0  0  0  0  0  0  0
   -1.3597   -1.5210    0.4775 C   0  0  0  0  0  0  0  0  0  0  0  0
   -2.7323   -1.9105    0.0259 C   0  0  0  0  0  0  0  0  0  0  0  0
   -3.2496   -3.2149    0.1812 C   0  0  0  0  0  0  0  0  0  0  0  0
   -4.5432   -3.5245   -0.2596 C   0  0  0  0  0  0  0  0  0  0  0  0
   -5.3420   -2.5356   -0.8566 C   0  0  0  0  0  0  0  0  0  0  0  0
   -4.8349   -1.2355   -1.0182 C   0  0  0  0  0  0  0  0  0  0  0  0
   -3.1315    0.0869   -0.7137 H   0  0  0  0  0  0  0  0  0  0  0  0
    1.5674   -2.4190    3.7917 H   0  0  0  0  0  0  0  0  0  0  0  0
    0.7445   -3.8471    3.0529 H   0  0  0  0  0  0  0  0  0  0  0  0
    2.3129   -3.2392    2.3985 H   0  0  0  0  0  0  0  0  0  0  0  0
   -1.0468   -3.2992    1.6770 H   0  0  0  0  0  0  0  0  0  0  0  0
   -2.6325   -4.0055    0.6313 H   0  0  0  0  0  0  0  0  0  0  0  0
   -4.9295   -4.5480   -0.1394 H   0  0  0  0  0  0  0  0  0  0  0  0
   -6.3589   -2.7808   -1.1994 H   0  0  0  0  0  0  0  0  0  0  0  0
   -5.4523   -0.4538   -1.4866 H   0  0  0  0  0  0  0  0  0  0  0  0
    1.2845   -0.9052    1.6708 O   0  0  0  0  0  1  0  0  0  0  0  0
   -0.9590   -0.3915    0.0339 O   0  5  0  0  0  0  0  0  0  0  0  0
  1 13  1  0  0  0  0
  1 12  1  0  0  0  0
  2  6  1  0  0  0  0
  3 20  1  1  0  0  0
  3  1  1  0  0  0  0
  4 15  1  0  0  0  0
  4  3  1  0  0  0  0
  5  4  2  0  0  0  0
  6  7  2  0  0  0  0
  6  5  1  0  0  0  0
  7 16  1  0  0  0  0
  8 17  1  0  0  0  0
  8  7  1  0  0  0  0
  9  8  2  0  0  0  0
 10  9  1  0  0  0  0
 10  2  2  0  0  0  0
 11  2  1  0  0  0  0
 14  1  1  0  0  0  0
 18  9  1  0  0  0  0
 19 10  1  0  0  0  0
 21  5  1  0  0  0  0
M  CHG  1  21  -1
M  END
