1,2
 OpenBabel05122313063D

 22 24  0  0  0  0  0  0  0  0999 V2000
   -0.5723   -0.8407    1.1654 O   0  5  0  0  0  0  0  0  0  0  0  0
   -0.5727    0.8389   -1.1664 O   0  5  0  0  0  0  0  0  0  0  0  0
   -1.8606   -0.7565    1.0253 C   0  0  0  0  0  0  0  0  0  0  0  0
   -2.6391   -1.4798    2.0008 C   0  0  0  0  0  0  0  0  0  0  0  0
   -2.0733   -2.0416    2.7578 H   0  0  0  0  0  0  0  0  0  0  0  0
   -4.0105   -1.4691    1.9838 C   0  0  0  0  0  0  0  0  0  0  0  0
   -4.5783   -2.0322    2.7411 H   0  0  0  0  0  0  0  0  0  0  0  0
   -4.7341   -0.7329    0.9887 C   0  0  0  0  0  0  0  0  0  0  0  0
   -6.1482   -0.7202    0.9711 C   0  0  0  0  0  0  0  0  0  0  0  0
   -6.6900   -1.2901    1.7417 H   0  0  0  0  0  0  0  0  0  0  0  0
   -6.8547   -0.0017   -0.0002 C   0  0  0  0  0  0  0  0  0  0  0  0
   -7.9541   -0.0018   -0.0001 H   0  0  0  0  0  0  0  0  0  0  0  0
   -6.1485    0.7169   -0.9716 C   0  0  0  0  0  3  0  0  0  0  0  0
   -6.6906    1.2868   -1.7421 H   0  0  0  0  0  0  0  0  0  0  0  0
   -4.7344    0.7300   -0.9894 C   0  0  0  0  0  0  0  0  0  0  0  0
   -4.0111    1.4662   -1.9846 C   0  0  0  0  0  0  0  0  0  0  0  0
   -4.5791    2.0291   -2.7418 H   0  0  0  0  0  0  0  0  0  0  0  0
   -2.6397    1.4772   -2.0018 C   0  0  0  0  0  0  0  0  0  0  0  0
   -2.0741    2.0390   -2.7590 H   0  0  0  0  0  0  0  0  0  0  0  0
   -1.8609    0.7542   -1.0263 C   0  0  0  0  0  0  0  0  0  0  0  0
   -2.5512   -0.0012   -0.0004 C   0  0  0  0  0  0  0  0  0  0  0  0
   -3.9948   -0.0014   -0.0003 C   0  0  0  0  0  0  0  0  0  0  0  0
  2 20  1  0  0  0  0
  3  1  1  0  0  0  0
  3  4  1  0  0  0  0
  4  5  1  0  0  0  0
  6  4  2  0  0  0  0
  6  7  1  0  0  0  0
  8  6  1  0  0  0  0
  9  8  1  0  0  0  0
  9 10  1  0  0  0  0
 11 12  1  0  0  0  0
 11  9  2  0  0  0  0
 13 11  1  0  0  0  0
 14 13  1  0  0  0  0
 15 13  1  0  0  0  0
 15 22  1  0  0  0  0
 16 15  2  0  0  0  0
 17 16  1  0  0  0  0
 18 16  1  0  0  0  0
 18 20  2  0  0  0  0
 19 18  1  0  0  0  0
 20 21  1  0  0  0  0
 21 22  1  0  0  0  0
 21  3  2  0  0  0  0
 22  8  2  0  0  0  0
M  CHG  2   1  -1   2  -1
M  END
