1,2
 OpenBabel05122313063D

 42 45  0  0  0  0  0  0  0  0999 V2000
    0.6655    0.4446   -1.4819 O   0  5  0  0  0  0  0  0  0  0  0  0
    0.6655   -0.4465    1.4813 O   0  5  0  0  0  0  0  0  0  0  0  0
   -0.3535    1.2150   -1.0814 C   0  0  0  0  0  0  0  0  0  0  0  0
   -0.4715    2.5457   -1.5559 C   0  0  0  0  0  0  0  0  0  0  0  0
    0.2595    2.9038   -2.2979 H   0  0  0  0  0  0  0  0  0  0  0  0
   -1.4954    3.3743   -1.0936 C   0  0  0  0  0  0  0  0  0  0  0  0
   -1.5762    4.4056   -1.4764 H   0  0  0  0  0  0  0  0  0  0  0  0
   -2.4143    2.9351   -0.1200 C   0  0  0  0  0  0  0  0  0  0  0  0
   -3.4484    3.9046    0.4231 C   0  0  0  0  0  0  0  0  0  0  0  0
   -3.8401    4.5325   -0.4059 H   0  0  0  0  0  0  0  0  0  0  0  0
   -2.9439    4.6155    1.1192 H   0  0  0  0  0  0  0  0  0  0  0  0
   -4.5931    3.2183    1.1720 C   0  0  0  0  0  0  0  0  0  0  0  0
   -5.2571    2.6946    0.4479 H   0  0  0  0  0  0  0  0  0  0  0  0
   -5.2207    3.9735    1.6897 H   0  0  0  0  0  0  0  0  0  0  0  0
   -4.0244    2.1970    2.1591 C   0  0  0  0  0  0  0  0  0  0  0  0
   -4.8259    1.7581    2.7889 H   0  0  0  0  0  0  0  0  0  0  0  0
   -3.3253    2.7147    2.8537 H   0  0  0  0  0  0  0  0  0  0  0  0
   -3.2841    1.0857    1.4101 C   0  0  0  0  0  0  0  0  0  0  0  0
   -4.0338    0.4128    0.9354 H   0  0  0  0  0  0  0  0  0  0  0  0
   -2.7272    0.4350    2.1151 H   0  0  0  0  0  0  0  0  0  0  0  0
   -2.3274    1.5978    0.3456 C   0  0  0  0  0  0  0  0  0  0  0  0
   -1.3484    0.7221   -0.1865 C   0  0  0  0  0  0  0  0  0  0  0  0
   -1.3490   -0.7222    0.1864 C   0  0  0  0  0  0  0  0  0  0  0  0
   -2.3288   -1.5971   -0.3455 C   0  0  0  0  0  0  0  0  0  0  0  0
   -3.2854   -1.0842   -1.4097 C   0  0  0  0  0  0  0  0  0  0  0  0
   -2.7283   -0.4337   -2.1146 H   0  0  0  0  0  0  0  0  0  0  0  0
   -4.0347   -0.4110   -0.9347 H   0  0  0  0  0  0  0  0  0  0  0  0
   -4.0264   -2.1949   -2.1587 C   0  0  0  0  0  0  0  0  0  0  0  0
   -4.8277   -1.7555   -2.7886 H   0  0  0  0  0  0  0  0  0  0  0  0
   -3.3277   -2.7131   -2.8534 H   0  0  0  0  0  0  0  0  0  0  0  0
   -4.5959   -3.2158   -1.1717 C   0  0  0  0  0  0  0  0  0  0  0  0
   -5.2240   -3.9706   -1.6893 H   0  0  0  0  0  0  0  0  0  0  0  0
   -5.2594   -2.6918   -0.4475 H   0  0  0  0  0  0  0  0  0  0  0  0
   -3.4517   -3.9030   -0.4228 C   0  0  0  0  0  0  0  0  0  0  0  0
   -2.9478   -4.6144   -1.1188 H   0  0  0  0  0  0  0  0  0  0  0  0
   -3.8437   -4.5305    0.4063 H   0  0  0  0  0  0  0  0  0  0  0  0
   -2.4167   -2.9344    0.1201 C   0  0  0  0  0  0  0  0  0  0  0  0
   -1.4978   -3.3744    1.0933 C   0  0  0  0  0  0  0  0  0  0  0  0
   -1.5792   -4.4057    1.4760 H   0  0  0  0  0  0  0  0  0  0  0  0
   -0.4731   -2.5466    1.5554 C   0  0  0  0  0  0  0  0  0  0  0  0
    0.2579   -2.9054    2.2970 H   0  0  0  0  0  0  0  0  0  0  0  0
   -0.3542   -1.2160    1.0810 C   0  0  0  0  0  0  0  0  0  0  0  0
  1  3  1  0  0  0  0
  3 22  1  0  0  0  0
  4  6  1  0  0  0  0
  4  3  2  0  0  0  0
  5  4  1  0  0  0  0
  6  8  2  0  0  0  0
  7  6  1  0  0  0  0
  8 21  1  0  0  0  0
  8  9  1  0  0  0  0
  9 11  1  0  0  0  0
  9 12  1  0  0  0  0
 10  9  1  0  0  0  0
 12 14  1  0  0  0  0
 12 15  1  0  0  0  0
 13 12  1  0  0  0  0
 15 16  1  0  0  0  0
 15 17  1  0  0  0  0
 18 20  1  0  0  0  0
 18 15  1  0  0  0  0
 19 18  1  0  0  0  0
 21 18  1  0  0  0  0
 22 23  1  0  0  0  0
 22 21  2  0  0  0  0
 23 42  1  0  0  0  0
 24 37  1  0  0  0  0
 24 23  2  0  0  0  0
 25 27  1  0  0  0  0
 25 24  1  0  0  0  0
 26 25  1  0  0  0  0
 28 25  1  0  0  0  0
 28 31  1  0  0  0  0
 29 28  1  0  0  0  0
 30 28  1  0  0  0  0
 31 33  1  0  0  0  0
 31 34  1  0  0  0  0
 32 31  1  0  0  0  0
 34 37  1  0  0  0  0
 34 36  1  0  0  0  0
 35 34  1  0  0  0  0
 37 38  2  0  0  0  0
 38 39  1  0  0  0  0
 38 40  1  0  0  0  0
 40 41  1  0  0  0  0
 42  2  1  0  0  0  0
 42 40  2  0  0  0  0
M  CHG  2   1  -1   2  -1
M  END
