1,3
 OpenBabel05122313063D

 14 13  0  0  0  0  0  0  0  0999 V2000
   -0.3664    2.1468    0.1448 O   0  5  0  0  0  0  0  0  0  0  0  0
   -1.4593    3.7544    1.2455 O   0  0  0  0  0  0  0  0  0  0  0  0
    1.8754    1.6378   -1.1325 O   0  5  0  0  0  0  0  0  0  0  0  0
    2.5650    3.5753   -2.0061 O   0  0  0  0  0  0  0  0  0  0  0  0
    1.9890    2.6849    1.5052 N   0  0  0  0  0  0  0  0  0  0  0  0
    2.6846    2.6282    2.2550 H   0  0  0  0  0  0  0  0  0  0  0  0
   -0.4670    3.0466    1.0903 C   0  0  0  0  0  0  0  0  0  0  0  0
    0.7307    3.1837    2.0509 C   0  0  0  0  0  0  0  0  0  0  0  0
    0.7644    4.2578    2.3547 H   0  0  0  0  0  0  0  0  0  0  0  0
    0.4786    2.5952    2.9599 H   0  0  0  0  0  0  0  0  0  0  0  0
    2.5127    3.4619    0.3823 C   0  0  0  0  0  0  0  0  0  0  0  0
    3.6183    3.5401    0.4688 H   0  0  0  0  0  0  0  0  0  0  0  0
    2.1403    4.5124    0.3719 H   0  0  0  0  0  0  0  0  0  0  0  0
    2.2716    2.8825   -1.0356 C   0  0  0  0  0  0  0  0  0  0  0  0
  1  7  1  0  0  0  0
  3 14  1  0  0  0  0
  4 14  2  0  0  0  0
  5  8  1  0  0  0  0
  5  6  1  0  0  0  0
  7  2  2  0  0  0  0
  7  8  1  0  0  0  0
  8  9  1  0  0  0  0
  8 10  1  0  0  0  0
 11 12  1  0  0  0  0
 11  5  1  0  0  0  0
 13 11  1  0  0  0  0
 14 11  1  0  0  0  0
M  CHG  2   1  -1   3  -1
M  END
