1,2
 OpenBabel05122313063D

 28 29  0  0  1  0  0  0  0  0999 V2000
    0.0397   -0.3792    1.4955 O   0  5  0  0  0  0  0  0  0  0  0  0
   -0.5271    1.0442   -0.9727 O   0  0  0  0  0  1  0  0  0  0  0  0
   -2.4615    3.9715   -0.0199 C   0  0  0  0  0  0  0  0  0  0  0  0
   -2.7400    3.7248    1.0144 H   0  0  0  0  0  0  0  0  0  0  0  0
   -3.0262    5.0977   -0.6291 C   0  0  0  0  0  0  0  0  0  0  0  0
   -3.7221    5.7325   -0.0607 H   0  0  0  0  0  0  0  0  0  0  0  0
   -2.7145    5.4108   -1.9629 C   0  0  0  0  0  0  0  0  0  0  0  0
   -3.1587    6.2975   -2.4397 H   0  0  0  0  0  0  0  0  0  0  0  0
   -1.8428    4.5815   -2.6858 C   0  0  0  0  0  0  0  0  0  0  0  0
   -1.5989    4.8147   -3.7330 H   0  0  0  0  0  0  0  0  0  0  0  0
   -1.2797    3.4484   -2.0844 C   0  0  0  0  0  0  0  0  0  0  0  0
   -0.6048    2.8048   -2.6682 H   0  0  0  0  0  0  0  0  0  0  0  0
   -1.5711    3.1352   -0.7345 C   0  0  0  0  0  0  0  0  0  0  0  0
   -0.9627    1.9236   -0.1051 C   0  0  2  0  0  3  0  0  0  0  0  0
   -0.8954    1.8063    1.2873 C   0  0  0  0  0  0  0  0  0  0  0  0
   -1.2294    2.6775    1.8579 H   0  0  0  0  0  0  0  0  0  0  0  0
   -0.4135    0.6806    2.0295 C   0  0  0  0  0  0  0  0  0  0  0  0
   -0.4246    0.7247    3.5273 C   0  0  0  0  0  0  0  0  0  0  0  0
    0.2624   -0.2951    4.2240 C   0  0  0  0  0  0  0  0  0  0  0  0
    0.7721   -1.0697    3.6338 H   0  0  0  0  0  0  0  0  0  0  0  0
    0.2921   -0.3116    5.6223 C   0  0  0  0  0  0  0  0  0  0  0  0
    0.8370   -1.1082    6.1513 H   0  0  0  0  0  0  0  0  0  0  0  0
   -0.3732    0.6882    6.3519 C   0  0  0  0  0  0  0  0  0  0  0  0
   -0.3527    0.6765    7.4521 H   0  0  0  0  0  0  0  0  0  0  0  0
   -1.0681    1.7017    5.6726 C   0  0  0  0  0  0  0  0  0  0  0  0
   -1.5982    2.4819    6.2390 H   0  0  0  0  0  0  0  0  0  0  0  0
   -1.0930    1.7222    4.2721 C   0  0  0  0  0  0  0  0  0  0  0  0
   -1.6569    2.5168    3.7638 H   0  0  0  0  0  0  0  0  0  0  0  0
  1 17  1  0  0  0  0
  3  4  1  0  0  0  0
  5  6  1  0  0  0  0
  5  3  1  0  0  0  0
  7  5  2  0  0  0  0
  8  7  1  0  0  0  0
  9 11  2  0  0  0  0
  9  7  1  0  0  0  0
 10  9  1  0  0  0  0
 11 13  1  0  0  0  0
 12 11  1  0  0  0  0
 13 14  1  0  0  0  0
 13  3  2  0  0  0  0
 14  2  1  6  0  0  0
 14 15  1  0  0  0  0
 15 16  1  0  0  0  0
 15 17  2  0  0  0  0
 17 18  1  0  0  0  0
 18 19  2  0  0  0  0
 18 27  1  0  0  0  0
 19 21  1  0  0  0  0
 20 19  1  0  0  0  0
 21 22  1  0  0  0  0
 21 23  2  0  0  0  0
 23 24  1  0  0  0  0
 25 26  1  0  0  0  0
 25 23  1  0  0  0  0
 27 25  2  0  0  0  0
 28 27  1  0  0  0  0
M  CHG  1   1  -1
M  END
