1,2
 OpenBabel05122313063D

 34 37  0  0  0  0  0  0  0  0999 V2000
   -0.3034    0.3541   -1.3652 O   0  5  0  0  0  0  0  0  0  0  0  0
   -0.4397   -0.4246    1.3196 O   0  5  0  0  0  0  0  0  0  0  0  0
    1.7404   -0.6110   -0.5697 C   0  0  0  0  0  0  0  0  0  0  0  0
    0.7412   -0.4608   -1.5554 C   0  0  0  0  0  0  0  0  0  0  0  0
    0.8516   -1.1475   -2.8062 C   0  0  0  0  0  0  0  0  0  0  0  0
    0.0832   -0.9430   -3.5667 H   0  0  0  0  0  0  0  0  0  0  0  0
    1.8796   -2.0394   -3.0399 C   0  0  0  0  0  0  0  0  0  0  0  0
    1.9543   -2.5637   -4.0056 H   0  0  0  0  0  0  0  0  0  0  0  0
    2.8491   -2.3119   -2.0304 C   0  0  0  0  0  0  0  0  0  0  0  0
    3.8809   -3.2743   -2.2284 C   0  0  0  0  0  0  0  0  0  0  0  0
    3.9227   -3.8054   -3.1927 H   0  0  0  0  0  0  0  0  0  0  0  0
    4.8070   -3.5474   -1.2330 C   0  0  0  0  0  0  0  0  0  0  0  0
    5.5970   -4.2955   -1.3982 H   0  0  0  0  0  0  0  0  0  0  0  0
    4.7235   -2.8631    0.0080 C   0  0  0  0  0  0  0  0  0  0  0  0
    5.4455   -3.0915    0.8070 H   0  0  0  0  0  0  0  0  0  0  0  0
    3.7382   -1.9112    0.2275 C   0  0  0  0  0  0  0  0  0  0  0  0
    3.6819   -1.3943    1.1954 H   0  0  0  0  0  0  0  0  0  0  0  0
    2.7755   -1.5927   -0.7795 C   0  0  0  0  0  0  0  0  0  0  0  0
    1.7602    0.2524    0.6426 C   0  0  0  0  0  0  0  0  0  0  0  0
    0.6932    0.2502    1.5678 C   0  0  0  0  0  0  0  0  0  0  0  0
    0.8189    0.9380    2.8155 C   0  0  0  0  0  0  0  0  0  0  0  0
   -0.0008    0.8298    3.5413 H   0  0  0  0  0  0  0  0  0  0  0  0
    1.9310    1.7070    3.0965 C   0  0  0  0  0  0  0  0  0  0  0  0
    2.0154    2.2344    4.0597 H   0  0  0  0  0  0  0  0  0  0  0  0
    2.9774    1.8471    2.1389 C   0  0  0  0  0  0  0  0  0  0  0  0
    4.0976    2.6950    2.3775 C   0  0  0  0  0  0  0  0  0  0  0  0
    4.1481    3.2378    3.3347 H   0  0  0  0  0  0  0  0  0  0  0  0
    5.0967    2.8462    1.4280 C   0  0  0  0  0  0  0  0  0  0  0  0
    5.9542    3.5076    1.6233 H   0  0  0  0  0  0  0  0  0  0  0  0
    5.0007    2.1512    0.1937 C   0  0  0  0  0  0  0  0  0  0  0  0
    5.7815    2.2854   -0.5705 H   0  0  0  0  0  0  0  0  0  0  0  0
    3.9307    1.3062   -0.0628 C   0  0  0  0  0  0  0  0  0  0  0  0
    3.8665    0.7809   -1.0254 H   0  0  0  0  0  0  0  0  0  0  0  0
    2.8898    1.1131    0.8975 C   0  0  0  0  0  0  0  0  0  0  0  0
  2 20  1  0  0  0  0
  3 19  1  0  0  0  0
  4  1  1  0  0  0  0
  4  3  2  0  0  0  0
  5  4  1  0  0  0  0
  6  5  1  0  0  0  0
  7  5  2  0  0  0  0
  7  9  1  0  0  0  0
  8  7  1  0  0  0  0
  9 18  1  0  0  0  0
 10  9  2  0  0  0  0
 10 12  1  0  0  0  0
 11 10  1  0  0  0  0
 12 14  2  0  0  0  0
 13 12  1  0  0  0  0
 14 16  1  0  0  0  0
 14 15  1  0  0  0  0
 16 17  1  0  0  0  0
 18  3  1  0  0  0  0
 18 16  2  0  0  0  0
 19 34  2  0  0  0  0
 19 20  1  0  0  0  0
 20 21  2  0  0  0  0
 21 23  1  0  0  0  0
 21 22  1  0  0  0  0
 23 24  1  0  0  0  0
 25 26  1  0  0  0  0
 25 23  2  0  0  0  0
 26 27  1  0  0  0  0
 28 29  1  0  0  0  0
 28 26  2  0  0  0  0
 30 28  1  0  0  0  0
 31 30  1  0  0  0  0
 32 30  2  0  0  0  0
 32 34  1  0  0  0  0
 33 32  1  0  0  0  0
 34 25  1  0  0  0  0
M  CHG  2   1  -1   2  -1
M  END
