1,4
 OpenBabel05122313063D

 16 16  0  0  1  0  0  0  0  0999 V2000
   -1.0701    0.4002   -1.5255 O   0  5  0  0  0  0  0  0  0  0  0  0
   -0.4427    1.5042   -1.8053 C   0  0  0  0  0  0  0  0  0  0  0  0
   -0.5423    2.1619   -2.8418 O   0  0  0  0  0  0  0  0  0  0  0  0
    0.4141    1.1556    0.3764 O   0  0  0  0  0  1  0  0  0  0  0  0
    0.4799    1.9097   -0.6342 C   0  0  1  0  0  3  0  0  0  0  0  0
    1.3863    3.0589   -0.6201 C   0  0  0  0  0  0  0  0  0  0  0  0
    1.4412    3.9777   -1.6986 C   0  0  0  0  0  0  0  0  0  0  0  0
    0.7845    3.8003   -2.5620 H   0  0  0  0  0  0  0  0  0  0  0  0
    2.3160    5.0690   -1.6361 C   0  0  0  0  0  0  0  0  0  0  0  0
    2.3569    5.7817   -2.4735 H   0  0  0  0  0  0  0  0  0  0  0  0
    3.1387    5.2574   -0.5131 C   0  0  0  0  0  0  0  0  0  0  0  0
    3.8247    6.1176   -0.4719 H   0  0  0  0  0  0  0  0  0  0  0  0
    3.0917    4.3466    0.5599 C   0  0  0  0  0  0  0  0  0  0  0  0
    3.7415    4.4924    1.4359 H   0  0  0  0  0  0  0  0  0  0  0  0
    2.2241    3.2544    0.5096 C   0  0  0  0  0  0  0  0  0  0  0  0
    2.1812    2.5249    1.3316 H   0  0  0  0  0  0  0  0  0  0  0  0
  2  1  1  0  0  0  0
  2  5  1  0  0  0  0
  3  2  2  0  0  0  0
  5  6  1  0  0  0  0
  5  4  1  6  0  0  0
  6 15  1  0  0  0  0
  7  9  1  0  0  0  0
  7  6  2  0  0  0  0
  8  7  1  0  0  0  0
  9 11  2  0  0  0  0
 10  9  1  0  0  0  0
 11 12  1  0  0  0  0
 11 13  1  0  0  0  0
 13 14  1  0  0  0  0
 15 13  2  0  0  0  0
 15 16  1  0  0  0  0
M  CHG  1   1  -1
M  END
