2,3
 OpenBabel05122313063D

 15 15  0  0  0  0  0  0  0  0999 V2000
    7.4978   -2.0154   -0.0606 S   0  0  0  0  0  0  0  0  0  0  0  0
    0.9802   -0.0469   -0.0214 O   0  5  0  0  0  0  0  0  0  0  0  0
    0.6656   -2.2139    0.0770 O   0  5  0  0  0  0  0  0  0  0  0  0
    1.4765   -1.2314    0.0208 C   0  0  0  0  0  3  0  0  0  0  0  0
    2.9421   -1.4420    0.0014 C   0  0  0  0  0  0  0  0  0  0  0  0
    3.4755   -2.7453    0.0663 C   0  0  0  0  0  0  0  0  0  0  0  0
    4.8568   -2.9505    0.0492 C   0  0  0  0  0  0  0  0  0  0  0  0
    5.7367   -1.8472   -0.0341 C   0  0  0  0  0  0  0  0  0  0  0  0
    5.2035   -0.5385   -0.1004 C   0  0  0  0  0  0  0  0  0  0  0  0
    3.8216   -0.3425   -0.0825 C   0  0  0  0  0  0  0  0  0  0  0  0
    7.5230   -3.3743    0.0186 H   0  0  0  0  0  0  0  0  0  0  0  0
    2.7831   -3.5974    0.1317 H   0  0  0  0  0  0  0  0  0  0  0  0
    5.2596   -3.9735    0.1012 H   0  0  0  0  0  0  0  0  0  0  0  0
    5.8819    0.3256   -0.1671 H   0  0  0  0  0  0  0  0  0  0  0  0
    3.3982    0.6710   -0.1358 H   0  0  0  0  0  0  0  0  0  0  0  0
  1  8  1  0  0  0  0
  1 11  1  0  0  0  0
  2  4  1  0  0  0  0
  4  3  1  0  0  0  0
  5  4  1  0  0  0  0
  5  6  1  0  0  0  0
  6 12  1  0  0  0  0
  7  6  2  0  0  0  0
  7 13  1  0  0  0  0
  8  7  1  0  0  0  0
  9 10  1  0  0  0  0
  9  8  2  0  0  0  0
 10  5  2  0  0  0  0
 14  9  1  0  0  0  0
 15 10  1  0  0  0  0
M  CHG  2   2  -1   3  -1
M  END
