1,2
 OpenBabel05122313063D

 24 26  0  0  0  0  0  0  0  0999 V2000
    0.2181    1.1358    0.3566 O   0  5  0  0  0  0  0  0  0  0  0  0
   -0.5260   -0.9110   -1.0094 O   0  5  0  0  0  0  0  0  0  0  0  0
   -1.0501    1.0081    0.1873 C   0  0  0  0  0  0  0  0  0  0  0  0
   -1.4755   -0.1350   -0.5841 C   0  0  0  0  0  0  0  0  0  0  0  0
   -2.8725   -0.3499   -0.8844 C   0  0  0  0  0  0  0  0  0  0  0  0
   -3.8435    0.5874   -0.3967 C   0  0  0  0  0  0  0  0  0  0  0  0
   -3.4139    1.7571    0.3884 C   0  0  0  0  0  0  0  0  0  0  0  0
   -2.0248    1.9636    0.6754 C   0  0  0  0  0  0  0  0  0  0  0  0
   -1.5977    3.0870    1.4231 C   0  0  0  0  0  0  0  0  0  0  0  0
   -2.5246    4.0131    1.8959 C   0  0  0  0  0  0  0  0  0  0  0  0
   -3.8959    3.8222    1.6252 C   0  0  0  0  0  0  0  0  0  0  0  0
   -4.3271    2.7168    0.8871 C   0  0  0  0  0  0  0  0  0  0  0  0
   -3.2765   -1.4796   -1.6379 C   0  0  0  0  0  0  0  0  0  0  0  0
   -4.6222   -1.6960   -1.9229 C   0  0  0  0  0  0  0  0  0  0  0  0
   -5.5879   -0.7820   -1.4511 C   0  0  0  0  0  0  0  0  0  0  0  0
   -5.2013    0.3331   -0.7029 C   0  0  0  0  0  0  0  0  0  0  0  0
   -0.5203    3.1971    1.6143 H   0  0  0  0  0  0  0  0  0  0  0  0
   -2.1910    4.8855    2.4774 H   0  0  0  0  0  0  0  0  0  0  0  0
   -4.6361    4.5470    1.9966 H   0  0  0  0  0  0  0  0  0  0  0  0
   -5.4024    2.6005    0.6940 H   0  0  0  0  0  0  0  0  0  0  0  0
   -2.4965   -2.1758   -1.9787 H   0  0  0  0  0  0  0  0  0  0  0  0
   -4.9315   -2.5756   -2.5071 H   0  0  0  0  0  0  0  0  0  0  0  0
   -6.6541   -0.9461   -1.6685 H   0  0  0  0  0  0  0  0  0  0  0  0
   -5.9790    1.0232   -0.3478 H   0  0  0  0  0  0  0  0  0  0  0  0
  2  4  1  0  0  0  0
  3  1  1  0  0  0  0
  3  8  1  0  0  0  0
  4  3  2  0  0  0  0
  5  4  1  0  0  0  0
  5  6  1  0  0  0  0
  6  7  1  0  0  0  0
  7  8  2  0  0  0  0
  7 12  1  0  0  0  0
  8  9  1  0  0  0  0
  9 17  1  0  0  0  0
  9 10  2  0  0  0  0
 10 18  1  0  0  0  0
 11 10  1  0  0  0  0
 11 19  1  0  0  0  0
 12 11  2  0  0  0  0
 13  5  2  0  0  0  0
 14 13  1  0  0  0  0
 14 15  2  0  0  0  0
 15 16  1  0  0  0  0
 16  6  2  0  0  0  0
 16 24  1  0  0  0  0
 20 12  1  0  0  0  0
 21 13  1  0  0  0  0
 22 14  1  0  0  0  0
 23 15  1  0  0  0  0
M  CHG  2   1  -1   2  -1
M  END
