1,2
 OpenBabel05122313063D

 12 12  0  0  0  0  0  0  0  0999 V2000
    0.3923    1.0520    1.0319 O   0  5  0  0  0  0  0  0  0  0  0  0
    0.7172    1.4786   -1.5295 O   0  5  0  0  0  0  0  0  0  0  0  0
    1.1145    2.1467    0.7042 C   0  0  0  0  0  0  0  0  0  0  0  0
    1.7056    3.0256    1.6303 C   0  0  0  0  0  0  0  0  0  0  0  0
    2.4390    4.1277    1.1563 C   0  0  0  0  0  0  0  0  0  0  0  0
    2.5924    4.3607   -0.2255 C   0  0  0  0  0  0  0  0  0  0  0  0
    2.0188    3.4896   -1.1613 C   0  0  0  0  0  0  0  0  0  0  0  0
    1.2817    2.3825   -0.6998 C   0  0  0  0  0  0  0  0  0  0  0  0
    1.5807    2.8410    2.7080 H   0  0  0  0  0  0  0  0  0  0  0  0
    2.8982    4.8189    1.8785 H   0  0  0  0  0  0  0  0  0  0  0  0
    3.1690    5.2304   -0.5723 H   0  0  0  0  0  0  0  0  0  0  0  0
    2.1268    3.6428   -2.2448 H   0  0  0  0  0  0  0  0  0  0  0  0
  2  8  1  0  0  0  0
  3  1  1  0  0  0  0
  3  4  1  0  0  0  0
  4  9  1  0  0  0  0
  5  4  2  0  0  0  0
  5 10  1  0  0  0  0
  6  5  1  0  0  0  0
  7  8  1  0  0  0  0
  7  6  2  0  0  0  0
  8  3  2  0  0  0  0
 11  6  1  0  0  0  0
 12  7  1  0  0  0  0
M  CHG  2   1  -1   2  -1
M  END
