1,2
 OpenBabel05122313063D

 34 35  0  0  0  0  0  0  0  0999 V2000
    1.3157   -1.1357    0.5142 O   0  0  0  0  0  1  0  0  0  0  0  0
    1.2978    1.0473   -0.6987 O   0  0  0  0  0  1  0  0  0  0  0  0
    2.6798   -0.6270    0.3519 C   0  0  0  0  0  0  0  0  0  0  0  0
    3.3147   -1.3492   -0.8562 C   0  0  0  0  0  0  0  0  0  0  0  0
    2.7673   -1.0783   -1.7829 H   0  0  0  0  0  0  0  0  0  0  0  0
    4.3539   -0.9780   -0.9790 H   0  0  0  0  0  0  0  0  0  0  0  0
    3.3446   -2.8700   -0.6673 C   0  0  0  0  0  0  0  0  0  0  0  0
    3.8062   -3.3471   -1.5565 H   0  0  0  0  0  0  0  0  0  0  0  0
    2.3022   -3.2489   -0.6071 H   0  0  0  0  0  0  0  0  0  0  0  0
    4.1052   -3.2452    0.6088 C   0  0  0  0  0  0  0  0  0  0  0  0
    4.0997   -4.3450    0.7593 H   0  0  0  0  0  0  0  0  0  0  0  0
    5.1736   -2.9491    0.4978 H   0  0  0  0  0  0  0  0  0  0  0  0
    3.5047   -2.5374    1.8277 C   0  0  0  0  0  0  0  0  0  0  0  0
    2.4755   -2.9168    2.0003 H   0  0  0  0  0  0  0  0  0  0  0  0
    4.0887   -2.7672    2.7431 H   0  0  0  0  0  0  0  0  0  0  0  0
    3.4283   -1.0152    1.6380 C   0  0  0  0  0  0  0  0  0  0  0  0
    4.4519   -0.5820    1.5831 H   0  0  0  0  0  0  0  0  0  0  0  0
    2.9257   -0.5580    2.5114 H   0  0  0  0  0  0  0  0  0  0  0  0
    2.4973    0.9077    0.1179 C   0  0  0  0  0  0  0  0  0  0  0  0
    2.2383    1.6843    1.4279 C   0  0  0  0  0  0  0  0  0  0  0  0
    1.3893    1.2090    1.9633 H   0  0  0  0  0  0  0  0  0  0  0  0
    3.1299    1.5835    2.0821 H   0  0  0  0  0  0  0  0  0  0  0  0
    1.9692    3.1717    1.1771 C   0  0  0  0  0  0  0  0  0  0  0  0
    1.7874    3.6876    2.1429 H   0  0  0  0  0  0  0  0  0  0  0  0
    1.0404    3.2719    0.5785 H   0  0  0  0  0  0  0  0  0  0  0  0
    3.1331    3.8197    0.4210 C   0  0  0  0  0  0  0  0  0  0  0  0
    2.9218    4.8913    0.2226 H   0  0  0  0  0  0  0  0  0  0  0  0
    4.0476    3.7927    1.0570 H   0  0  0  0  0  0  0  0  0  0  0  0
    3.4020    3.0767   -0.8913 C   0  0  0  0  0  0  0  0  0  0  0  0
    4.2747    3.5139   -1.4199 H   0  0  0  0  0  0  0  0  0  0  0  0
    2.5270    3.1947   -1.5645 H   0  0  0  0  0  0  0  0  0  0  0  0
    3.6405    1.5770   -0.6672 C   0  0  0  0  0  0  0  0  0  0  0  0
    4.5812    1.4214   -0.0931 H   0  0  0  0  0  0  0  0  0  0  0  0
    3.7644    1.0694   -1.6427 H   0  0  0  0  0  0  0  0  0  0  0  0
  2 19  1  0  0  0  0
  3  1  1  0  0  0  0
  3 16  1  0  0  0  0
  4  7  1  0  0  0  0
  4  3  1  0  0  0  0
  5  4  1  0  0  0  0
  6  4  1  0  0  0  0
  7  9  1  0  0  0  0
  7 10  1  0  0  0  0
  8  7  1  0  0  0  0
 10 11  1  0  0  0  0
 10 13  1  0  0  0  0
 12 10  1  0  0  0  0
 13 14  1  0  0  0  0
 13 15  1  0  0  0  0
 16 13  1  0  0  0  0
 16 18  1  0  0  0  0
 17 16  1  0  0  0  0
 19  3  1  0  0  0  0
 19 20  1  0  0  0  0
 20 21  1  0  0  0  0
 20 22  1  0  0  0  0
 23 20  1  0  0  0  0
 23 24  1  0  0  0  0
 25 23  1  0  0  0  0
 26 28  1  0  0  0  0
 26 23  1  0  0  0  0
 27 26  1  0  0  0  0
 29 32  1  0  0  0  0
 29 26  1  0  0  0  0
 30 29  1  0  0  0  0
 31 29  1  0  0  0  0
 32 33  1  0  0  0  0
 32 19  1  0  0  0  0
 34 32  1  0  0  0  0
M  END
