1,15
 OpenBabel05122313063D

 27 28  0  0  0  0  0  0  0  0999 V2000
   -1.4883    1.2696   -0.0468 O   0  0  0  0  0  1  0  0  0  0  0  0
    0.0025    3.1952    0.0005 O   0  0  0  0  0  0  0  0  0  0  0  0
   -2.4816    3.5878    0.2217 C   0  0  0  0  0  0  0  0  0  0  0  0
   -3.7313    3.1435    0.7080 C   0  0  0  0  0  0  0  0  0  0  0  0
   -4.8131    4.0236    0.8609 C   0  0  0  0  0  0  0  0  0  0  0  0
   -4.6681    5.3783    0.5172 C   0  0  0  0  0  0  0  0  0  0  0  0
   -3.4335    5.8441    0.0353 C   0  0  0  0  0  0  0  0  0  0  0  0
   -2.3537    4.9579   -0.1012 C   0  0  0  0  0  0  0  0  0  0  0  0
   -1.2517    2.5962    0.0510 B   0  0  0  0  0  0  0  0  0  0  0  0
   -3.8419    2.0851    0.9878 H   0  0  0  0  0  0  0  0  0  0  0  0
   -5.7751    3.6560    1.2534 H   0  0  0  0  0  0  0  0  0  0  0  0
   -5.5157    6.0725    0.6308 H   0  0  0  0  0  0  0  0  0  0  0  0
   -3.3130    6.9063   -0.2307 H   0  0  0  0  0  0  0  0  0  0  0  0
   -1.3820    5.3247   -0.4680 H   0  0  0  0  0  0  0  0  0  0  0  0
    1.4901    1.2672    0.0475 O   0  0  0  0  0  1  0  0  0  0  0  0
    2.4872    3.5837   -0.2205 C   0  0  0  0  0  0  0  0  0  0  0  0
    3.7362    3.1372   -0.7068 C   0  0  0  0  0  0  0  0  0  0  0  0
    4.8196    4.0155   -0.8595 C   0  0  0  0  0  0  0  0  0  0  0  0
    4.6768    5.3704   -0.5159 C   0  0  0  0  0  0  0  0  0  0  0  0
    3.4430    5.8384   -0.0340 C   0  0  0  0  0  0  0  0  0  0  0  0
    2.3617    4.9540    0.1023 C   0  0  0  0  0  0  0  0  0  0  0  0
    1.2557    2.5942   -0.0500 B   0  0  0  0  0  0  0  0  0  0  0  0
    3.8450    2.0787   -0.9865 H   0  0  0  0  0  0  0  0  0  0  0  0
    5.7810    3.6462   -1.2519 H   0  0  0  0  0  0  0  0  0  0  0  0
    5.5256    6.0632   -0.6294 H   0  0  0  0  0  0  0  0  0  0  0  0
    3.3243    6.9008    0.2319 H   0  0  0  0  0  0  0  0  0  0  0  0
    1.3906    5.3225    0.4690 H   0  0  0  0  0  0  0  0  0  0  0  0
  1  9  1  0  0  0  0
  2  9  1  0  0  0  0
  3  4  1  0  0  0  0
  4  5  2  0  0  0  0
  4 10  1  0  0  0  0
  5 11  1  0  0  0  0
  6 12  1  0  0  0  0
  6  5  1  0  0  0  0
  7  6  2  0  0  0  0
  8  7  1  0  0  0  0
  8  3  2  0  0  0  0
  9  3  1  0  0  0  0
 13  7  1  0  0  0  0
 14  8  1  0  0  0  0
 16 22  1  0  0  0  0
 16 21  1  0  0  0  0
 17 16  2  0  0  0  0
 18 17  1  0  0  0  0
 18 19  2  0  0  0  0
 19 20  1  0  0  0  0
 20 21  2  0  0  0  0
 20 26  1  0  0  0  0
 21 27  1  0  0  0  0
 22  2  1  0  0  0  0
 22 15  1  0  0  0  0
 23 17  1  0  0  0  0
 24 18  1  0  0  0  0
 25 19  1  0  0  0  0
M  END
