1,2
 OpenBabel05122313063D

 32 34  0  0  0  0  0  0  0  0999 V2000
    2.2211    0.3400    0.8275 O   0  5  0  0  0  0  0  0  0  0  0  0
   -0.0103    2.3667    0.4655 O   0  5  0  0  0  0  0  0  0  0  0  0
    2.3770    2.5335   -0.1353 C   0  0  0  0  0  0  0  0  0  0  0  0
    2.9129    1.2680    0.2800 C   0  0  0  0  0  0  0  0  0  0  0  0
    6.3220   -0.5476    0.2385 C   0  0  0  0  0  0  0  0  0  0  0  0
    4.3287    3.7088   -1.0945 O   0  0  0  0  0  0  0  0  0  0  0  0
    4.3455    1.0086    0.0409 C   0  0  0  0  0  0  0  0  0  0  0  0
    2.1576    4.7610   -0.9912 C   0  0  0  0  0  0  0  0  0  0  0  0
   10.2541   -1.7960   -0.2860 F   0  0  0  0  0  0  0  0  0  0  0  0
    4.9311   -0.1535    0.4393 C   0  0  0  0  0  3  0  0  0  0  0  0
    0.8937    4.3578   -0.5292 C   0  0  0  0  0  0  0  0  0  0  0  0
    7.2674    0.2750   -0.4279 C   0  0  0  0  0  0  0  0  0  0  0  0
    3.1395    3.6391   -0.7714 C   0  0  0  0  0  0  0  0  0  0  0  0
    8.5884   -0.1405   -0.6054 C   0  0  0  0  0  0  0  0  0  0  0  0
    0.9980    2.9634    0.0048 C   0  0  0  0  0  0  0  0  0  0  0  0
   -0.2148    5.2027   -0.6160 C   0  0  0  0  0  0  0  0  0  0  0  0
    2.3562    6.0223   -1.5526 C   0  0  0  0  0  0  0  0  0  0  0  0
    8.0815   -2.2366    0.5497 C   0  0  0  0  0  0  0  0  0  0  0  0
   -0.0232    6.4802   -1.1789 C   0  0  0  0  0  0  0  0  0  0  0  0
    6.7611   -1.8058    0.7204 C   0  0  0  0  0  0  0  0  0  0  0  0
    1.2447    6.8849   -1.6405 C   0  0  0  0  0  0  0  0  0  0  0  0
    8.9822   -1.3951   -0.1142 C   0  0  0  0  0  0  0  0  0  0  0  0
    4.8974    1.8100   -0.4734 H   0  0  0  0  0  0  0  0  0  0  0  0
    4.2897   -0.8763    0.9734 H   0  0  0  0  0  0  0  0  0  0  0  0
    3.3542    6.3176   -1.9099 H   0  0  0  0  0  0  0  0  0  0  0  0
   -1.1996    4.8687   -0.2562 H   0  0  0  0  0  0  0  0  0  0  0  0
    6.9581    1.2586   -0.8108 H   0  0  0  0  0  0  0  0  0  0  0  0
    6.0425   -2.4557    1.2437 H   0  0  0  0  0  0  0  0  0  0  0  0
    8.4273   -3.2110    0.9230 H   0  0  0  0  0  0  0  0  0  0  0  0
    9.3275    0.4909   -1.1190 H   0  0  0  0  0  0  0  0  0  0  0  0
    1.3647    7.8887   -2.0765 H   0  0  0  0  0  0  0  0  0  0  0  0
   -0.8743    7.1735   -1.2626 H   0  0  0  0  0  0  0  0  0  0  0  0
  3 15  2  0  0  0  0
  3  4  1  0  0  0  0
  4  1  1  0  0  0  0
  5 10  1  0  0  0  0
  5 20  1  0  0  0  0
  6 13  2  0  0  0  0
  7  4  2  0  0  0  0
  7 10  1  0  0  0  0
  8 13  1  0  0  0  0
  8 11  1  0  0  0  0
  9 22  1  0  0  0  0
 10 24  1  0  0  0  0
 11 15  1  0  0  0  0
 12  5  2  0  0  0  0
 13  3  1  0  0  0  0
 14 12  1  0  0  0  0
 14 22  2  0  0  0  0
 15  2  1  0  0  0  0
 16 11  2  0  0  0  0
 16 26  1  0  0  0  0
 17  8  2  0  0  0  0
 18 20  2  0  0  0  0
 18 29  1  0  0  0  0
 19 16  1  0  0  0  0
 20 28  1  0  0  0  0
 21 17  1  0  0  0  0
 21 19  2  0  0  0  0
 22 18  1  0  0  0  0
 23  7  1  0  0  0  0
 25 17  1  0  0  0  0
 27 12  1  0  0  0  0
 30 14  1  0  0  0  0
 31 21  1  0  0  0  0
 32 19  1  0  0  0  0
M  CHG  2   1  -1   2  -1
M  END
