1,11
 OpenBabel05122313063D

 18 18  0  0  1  0  0  0  0  0999 V2000
    0.7716   -0.7138    0.0020 O   0  5  0  0  0  0  0  0  0  0  0  0
    1.4650    0.3393    0.0010 C   0  0  0  0  0  0  0  0  0  0  0  0
    2.9334    0.1694    0.0006 C   0  0  0  0  0  0  0  0  0  0  0  0
    3.9781    1.0892   -0.0004 C   0  0  0  0  0  0  0  0  0  0  0  0
    3.8166    2.1754   -0.0012 H   0  0  0  0  0  0  0  0  0  0  0  0
    5.2594    0.4703   -0.0005 C   0  0  0  0  0  0  0  0  0  0  0  0
    6.2117    1.0193   -0.0013 H   0  0  0  0  0  0  0  0  0  0  0  0
    5.1711   -0.9144    0.0005 C   0  0  0  0  0  0  0  0  0  0  0  0
    5.9950   -1.6393    0.0007 H   0  0  0  0  0  0  0  0  0  0  0  0
    3.5358   -1.4686    0.0015 S   0  0  0  0  0  0  0  0  0  0  0  0
   -1.4137    1.0953   -0.0001 O   0  0  0  0  0  1  0  0  0  0  0  0
   -0.4426    1.9222    0.0003 C   0  0  1  0  0  3  0  0  0  0  0  0
    0.9272    1.6676    0.0007 C   0  0  0  0  0  0  0  0  0  0  0  0
    1.6089    2.5250    0.0003 H   0  0  0  0  0  0  0  0  0  0  0  0
   -0.9190    3.3860    0.0002 C   0  0  0  0  0  0  0  0  0  0  0  0
    0.1085    4.2795    0.0016 F   0  0  0  0  0  0  0  0  0  0  0  0
   -1.6741    3.6462    1.0893 F   0  0  0  0  0  0  0  0  0  0  0  0
   -1.6714    3.6468   -1.0911 F   0  0  0  0  0  0  0  0  0  0  0  0
  2  1  1  0  0  0  0
  3  2  1  0  0  0  0
  3 10  1  0  0  0  0
  4  3  2  0  0  0  0
  5  4  1  0  0  0  0
  6  4  1  0  0  0  0
  6  8  2  0  0  0  0
  7  6  1  0  0  0  0
  8  9  1  0  0  0  0
  8 10  1  0  0  0  0
 12 11  1  6  0  0  0
 12 13  1  0  0  0  0
 13  2  2  0  0  0  0
 14 13  1  0  0  0  0
 15 12  1  0  0  0  0
 15 16  1  0  0  0  0
 15 17  1  0  0  0  0
 18 15  1  0  0  0  0
M  CHG  1   1  -1
M  END
