1,2
 OpenBabel05122313063D

 26 27  0  0  1  0  0  0  0  0999 V2000
   -0.4395   -0.4765   -1.4861 O   0  0  0  0  0  1  0  0  0  0  0  0
   -1.9635   -1.9659   -0.2239 O   0  0  0  0  0  1  0  0  0  0  0  0
   -2.3440   -0.6717   -0.3535 N   0  0  0  0  0  0  0  0  0  0  0  0
   -1.5267    0.0808   -1.1193 C   0  0  2  0  0  3  0  0  0  0  0  0
   -1.8360    1.4618   -1.5511 C   0  0  0  0  0  0  0  0  0  0  0  0
   -0.7445    2.3367   -1.7450 C   0  0  0  0  0  0  0  0  0  0  0  0
    0.2719    1.9630   -1.5540 H   0  0  0  0  0  0  0  0  0  0  0  0
   -0.9622    3.6483   -2.1843 C   0  0  0  0  0  0  0  0  0  0  0  0
   -0.1074    4.3269   -2.3246 H   0  0  0  0  0  0  0  0  0  0  0  0
   -2.2669    4.0922   -2.4542 C   0  0  0  0  0  0  0  0  0  0  0  0
   -2.4381    5.1217   -2.8034 H   0  0  0  0  0  0  0  0  0  0  0  0
   -3.3531    3.2152   -2.2935 C   0  0  0  0  0  0  0  0  0  0  0  0
   -4.3738    3.5526   -2.5279 H   0  0  0  0  0  0  0  0  0  0  0  0
   -3.1440    1.9055   -1.8451 C   0  0  0  0  0  0  0  0  0  0  0  0
   -3.9965    1.2207   -1.7361 H   0  0  0  0  0  0  0  0  0  0  0  0
   -3.4948   -0.2975    0.3948 C   0  0  0  0  0  0  0  0  0  0  0  0
   -4.5951   -1.1732    0.4174 C   0  0  0  0  0  0  0  0  0  0  0  0
   -4.5357   -2.1174   -0.1407 H   0  0  0  0  0  0  0  0  0  0  0  0
   -5.7300   -0.8259    1.1611 C   0  0  0  0  0  0  0  0  0  0  0  0
   -6.5937   -1.5073    1.1806 H   0  0  0  0  0  0  0  0  0  0  0  0
   -5.7682    0.3814    1.8784 C   0  0  0  0  0  0  0  0  0  0  0  0
   -6.6627    0.6495    2.4600 H   0  0  0  0  0  0  0  0  0  0  0  0
   -4.6537    1.2364    1.8681 C   0  0  0  0  0  0  0  0  0  0  0  0
   -4.6678    2.1702    2.4497 H   0  0  0  0  0  0  0  0  0  0  0  0
   -3.5062    0.8952    1.1407 C   0  0  0  0  0  0  0  0  0  0  0  0
   -2.6194    1.5437    1.1490 H   0  0  0  0  0  0  0  0  0  0  0  0
  3  2  1  0  0  0  0
  3 16  1  0  0  0  0
  4  1  1  6  0  0  0
  4  3  1  0  0  0  0
  5  4  1  0  0  0  0
  6  7  1  0  0  0  0
  6  5  1  0  0  0  0
  8  6  2  0  0  0  0
  9  8  1  0  0  0  0
 10 12  2  0  0  0  0
 10  8  1  0  0  0  0
 11 10  1  0  0  0  0
 12 14  1  0  0  0  0
 13 12  1  0  0  0  0
 14 15  1  0  0  0  0
 14  5  2  0  0  0  0
 16 17  2  0  0  0  0
 16 25  1  0  0  0  0
 17 19  1  0  0  0  0
 18 17  1  0  0  0  0
 19 20  1  0  0  0  0
 19 21  2  0  0  0  0
 21 22  1  0  0  0  0
 23 21  1  0  0  0  0
 23 24  1  0  0  0  0
 25 26  1  0  0  0  0
 25 23  2  0  0  0  0
M  END
