1,3
 OpenBabel05122313063D

 19 19  0  0  0  0  0  0  0  0999 V2000
    1.5991    1.9351    0.0057 O   0  5  0  0  0  0  0  0  0  0  0  0
    3.5015    2.2469    1.1747 O   0  0  0  0  0  0  0  0  0  0  0  0
    2.0020   -0.6622   -1.3811 O   0  5  0  0  0  0  0  0  0  0  0  0
    4.0948   -1.2593   -0.7807 O   0  0  0  0  0  0  0  0  0  0  0  0
    1.5272   -0.6829    1.4659 C   0  0  0  0  0  0  0  0  0  0  0  0
    0.4709    0.0591    2.0412 C   0  0  0  0  0  0  0  0  0  0  0  0
    0.5448    1.1550    2.0856 H   0  0  0  0  0  0  0  0  0  0  0  0
   -0.6696   -0.5831    2.5566 C   0  0  0  0  0  0  0  0  0  0  0  0
   -1.4772    0.0209    2.9996 H   0  0  0  0  0  0  0  0  0  0  0  0
   -0.7781   -1.9797    2.5135 C   0  0  0  0  0  0  0  0  0  0  0  0
   -1.6728   -2.4823    2.9118 H   0  0  0  0  0  0  0  0  0  0  0  0
    0.2787   -2.7339    1.9715 C   0  0  0  0  0  0  0  0  0  0  0  0
    0.2149   -3.8330    1.9475 H   0  0  0  0  0  0  0  0  0  0  0  0
    1.4137   -2.0933    1.4598 C   0  0  0  0  0  0  0  0  0  0  0  0
    2.2345   -2.6875    1.0277 H   0  0  0  0  0  0  0  0  0  0  0  0
    2.7570   -0.0348    0.8430 C   0  0  0  0  0  0  0  0  0  0  0  0
    3.6484   -0.2326    1.4677 H   0  0  0  0  0  0  0  0  0  0  0  0
    2.6504    1.5138    0.6923 C   0  0  0  0  0  0  0  0  0  0  0  0
    3.0260   -0.7149   -0.5462 C   0  0  0  0  0  0  0  0  0  0  0  0
  1 18  1  0  0  0  0
  3 19  1  0  0  0  0
  4 19  2  0  0  0  0
  5  6  1  0  0  0  0
  6  7  1  0  0  0  0
  6  8  2  0  0  0  0
  8  9  1  0  0  0  0
 10  8  1  0  0  0  0
 10 11  1  0  0  0  0
 12 10  2  0  0  0  0
 13 12  1  0  0  0  0
 14  5  2  0  0  0  0
 14 12  1  0  0  0  0
 15 14  1  0  0  0  0
 16  5  1  0  0  0  0
 16 17  1  0  0  0  0
 18 16  1  0  0  0  0
 18  2  2  0  0  0  0
 19 16  1  0  0  0  0
M  CHG  2   1  -1   3  -1
M  END
