1,2
 OpenBabel05122313063D

 38 39  0  0  0  0  0  0  0  0999 V2000
   -1.1070   -0.2801    0.3860 O   0  5  0  0  0  0  0  0  0  0  0  0
    1.7299   -0.5984    0.0073 O   0  5  0  0  0  0  0  0  0  0  0  0
   -7.9993    4.4268   -0.2137 O   0  0  0  0  0  0  0  0  0  0  0  0
   -8.7310    3.8259   -0.4487 H   0  0  0  0  0  0  0  0  0  0  0  0
    9.3628    2.9203   -0.6392 O   0  0  0  0  0  0  0  0  0  0  0  0
   10.0179    2.2031   -0.7287 H   0  0  0  0  0  0  0  0  0  0  0  0
   -6.8571    3.6974   -0.1170 C   0  0  0  0  0  0  0  0  0  0  0  0
   -6.8169    2.3060   -0.3404 C   0  0  0  0  0  0  0  0  0  0  0  0
   -7.7412    1.7678   -0.6091 H   0  0  0  0  0  0  0  0  0  0  0  0
   -5.6094    1.6128   -0.2208 C   0  0  0  0  0  0  0  0  0  0  0  0
   -5.5830    0.5266   -0.4067 H   0  0  0  0  0  0  0  0  0  0  0  0
   -4.4055    2.2804    0.1189 C   0  0  0  0  0  0  0  0  0  0  0  0
   -4.4695    3.6815    0.3378 C   0  0  0  0  0  0  0  0  0  0  0  0
   -3.5561    4.2303    0.6123 H   0  0  0  0  0  0  0  0  0  0  0  0
   -5.6685    4.3812    0.2245 C   0  0  0  0  0  0  0  0  0  0  0  0
   -5.7184    5.4655    0.3997 H   0  0  0  0  0  0  0  0  0  0  0  0
   -3.1827    1.5004    0.2181 C   0  0  0  0  0  0  0  0  0  0  0  0
   -3.3101    0.4109    0.1131 H   0  0  0  0  0  0  0  0  0  0  0  0
   -1.8995    1.9241    0.3973 C   0  0  0  0  0  0  0  0  0  0  0  0
   -1.6425    2.9912    0.4862 H   0  0  0  0  0  0  0  0  0  0  0  0
   -0.7828    0.9670    0.4168 C   0  0  0  0  0  0  0  0  0  0  0  0
    0.5410    1.4620    0.3996 C   0  0  0  0  0  0  0  0  0  0  0  0
    0.6732    2.5501    0.4704 H   0  0  0  0  0  0  0  0  0  0  0  0
    1.6998    0.6829    0.1670 C   0  0  0  0  0  0  0  0  0  0  0  0
    2.9803    1.3928    0.0452 C   0  0  0  0  0  0  0  0  0  0  0  0
    2.9371    2.4897    0.1308 H   0  0  0  0  0  0  0  0  0  0  0  0
    4.1623    0.7425   -0.1437 C   0  0  0  0  0  3  0  0  0  0  0  0
    4.1036   -0.3581   -0.1981 H   0  0  0  0  0  0  0  0  0  0  0  0
    5.4907    1.3252   -0.2722 C   0  0  0  0  0  0  0  0  0  0  0  0
    6.6100    0.4703   -0.4217 C   0  0  0  0  0  0  0  0  0  0  0  0
    6.4491   -0.6189   -0.4371 H   0  0  0  0  0  0  0  0  0  0  0  0
    7.9080    0.9739   -0.5454 C   0  0  0  0  0  0  0  0  0  0  0  0
    8.7621    0.2857   -0.6586 H   0  0  0  0  0  0  0  0  0  0  0  0
    8.1281    2.3658   -0.5239 C   0  0  0  0  0  0  0  0  0  0  0  0
    7.0266    3.2387   -0.3776 C   0  0  0  0  0  0  0  0  0  0  0  0
    7.2135    4.3222   -0.3637 H   0  0  0  0  0  0  0  0  0  0  0  0
    5.7387    2.7237   -0.2552 C   0  0  0  0  0  0  0  0  0  0  0  0
    4.8972    3.4234   -0.1439 H   0  0  0  0  0  0  0  0  0  0  0  0
  1 21  1  0  0  0  0
  2 24  1  0  0  0  0
  3  7  1  0  0  0  0
  4  3  1  0  0  0  0
  5 34  1  0  0  0  0
  6  5  1  0  0  0  0
  7 15  1  0  0  0  0
  8 10  1  0  0  0  0
  8  7  2  0  0  0  0
  9  8  1  0  0  0  0
 10 12  2  0  0  0  0
 11 10  1  0  0  0  0
 12 17  1  0  0  0  0
 12 13  1  0  0  0  0
 13 14  1  0  0  0  0
 15 13  2  0  0  0  0
 15 16  1  0  0  0  0
 17 19  2  0  0  0  0
 18 17  1  0  0  0  0
 19 21  1  0  0  0  0
 19 20  1  0  0  0  0
 22 21  2  0  0  0  0
 22 23  1  0  0  0  0
 24 22  1  0  0  0  0
 25 26  1  0  0  0  0
 25 24  2  0  0  0  0
 27 25  1  0  0  0  0
 28 27  1  0  0  0  0
 29 37  1  0  0  0  0
 29 27  1  0  0  0  0
 30 29  2  0  0  0  0
 31 30  1  0  0  0  0
 32 34  2  0  0  0  0
 32 30  1  0  0  0  0
 33 32  1  0  0  0  0
 34 35  1  0  0  0  0
 35 36  1  0  0  0  0
 35 37  2  0  0  0  0
 37 38  1  0  0  0  0
M  CHG  2   1  -1   2  -1
M  END
