2,25
 OpenBabel05122313063D

 25 25  0  0  0  0  0  0  0  0999 V2000
    1.1959   -0.2538   -1.4256 O   0  0  0  0  0  0  0  0  0  0  0  0
   -2.8606   -0.5879   -0.8765 O   0  5  0  0  0  0  0  0  0  0  0  0
    3.6891    0.3597   -1.1902 O   0  0  0  0  0  0  0  0  0  0  0  0
   -2.5998   -2.3764    0.6085 N   0  0  0  0  0  0  0  0  0  0  0  0
   -1.3498   -2.1280    0.6387 N   0  0  0  0  0  2  0  0  0  0  0  0
    3.2049   -0.4127   -0.2180 C   0  0  0  0  0  0  0  0  0  0  0  0
    1.1758   -1.5619    0.6567 C   0  0  0  0  0  0  0  0  0  0  0  0
    1.8131   -0.7518   -0.3334 C   0  0  0  0  0  0  0  0  0  0  0  0
    3.9281   -0.9220    0.8769 C   0  0  0  0  0  0  0  0  0  0  0  0
    4.9951   -0.6869    0.9824 H   0  0  0  0  0  0  0  0  0  0  0  0
   -4.7922   -1.8699   -0.2999 C   0  0  0  0  0  0  0  0  0  0  0  0
   -5.0358   -2.7825    0.2709 H   0  0  0  0  0  0  0  0  0  0  0  0
   -5.0747   -1.9914   -1.3646 H   0  0  0  0  0  0  0  0  0  0  0  0
   -5.3750   -1.0106    0.0909 H   0  0  0  0  0  0  0  0  0  0  0  0
   -3.3337   -1.5608   -0.2099 C   0  0  0  0  0  0  0  0  0  0  0  0
    1.9371   -2.0467    1.7485 C   0  0  0  0  0  0  0  0  0  0  0  0
    1.4493   -2.6650    2.5135 H   0  0  0  0  0  0  0  0  0  0  0  0
   -0.2064   -1.8394    0.5621 C   0  0  0  0  0  2  0  0  0  0  0  0
    5.0772    0.7132   -1.1843 C   0  0  0  0  0  0  0  0  0  0  0  0
    5.2316    1.3361   -2.0821 H   0  0  0  0  0  0  0  0  0  0  0  0
    5.7153   -0.1928   -1.2456 H   0  0  0  0  0  0  0  0  0  0  0  0
    5.3341    1.2970   -0.2758 H   0  0  0  0  0  0  0  0  0  0  0  0
    3.2968   -1.7275    1.8386 C   0  0  0  0  0  0  0  0  0  0  0  0
    3.8838   -2.1116    2.6853 H   0  0  0  0  0  0  0  0  0  0  0  0
   -0.1238   -0.5805   -1.5412 O   0  0  0  0  0  1  0  0  0  0  0  0
  1  8  1  0  0  0  0
  2 15  1  0  0  0  0
  3 19  1  0  0  0  0
  3  6  1  0  0  0  0
  4  5  1  0  0  0  0
  6  9  1  0  0  0  0
  7 16  2  0  0  0  0
  8  6  2  0  0  0  0
  8  7  1  0  0  0  0
  9 10  1  0  0  0  0
  9 23  2  0  0  0  0
 11 15  1  0  0  0  0
 11 14  1  0  0  0  0
 11 12  1  0  0  0  0
 13 11  1  0  0  0  0
 15  4  2  0  0  0  0
 16 23  1  0  0  0  0
 16 17  1  0  0  0  0
 18  5  1  0  0  0  0
 18  7  1  0  0  0  0
 19 22  1  0  0  0  0
 20 19  1  0  0  0  0
 21 19  1  0  0  0  0
 23 24  1  0  0  0  0
 25  1  1  0  0  0  0
M  CHG  1   2  -1
M  END
