1,2
 OpenBabel05122313063D

 36 35  0  0  1  0  0  0  0  0999 V2000
    1.0220    1.7946    0.2342 O   0  5  0  0  0  0  0  0  0  0  0  0
    0.3338   -0.8894   -0.6430 O   0  5  0  0  0  0  0  0  0  0  0  0
   -1.5573    1.7316    0.6804 N   0  0  0  0  0  0  0  0  0  0  0  0
   -2.1281   -0.9536    0.1332 N   0  0  0  0  0  0  0  0  0  0  0  0
    1.9257    2.3991   -1.8906 C   0  0  0  0  0  0  0  0  0  0  0  0
    0.7791    2.2822   -0.9226 C   0  0  0  0  0  0  0  0  0  0  0  0
   -0.5418    2.6768   -1.2789 C   0  0  0  0  0  0  0  0  0  0  0  0
   -1.6754    2.3467   -0.5124 C   0  0  1  0  0  3  0  0  0  0  0  0
   -3.0516    2.6339   -1.0490 C   0  0  0  0  0  0  0  0  0  0  0  0
   -2.5875    1.0581    1.4500 C   0  0  0  0  0  0  0  0  0  0  0  0
   -3.1821   -0.1881    0.7571 C   0  0  0  0  0  0  0  0  0  0  0  0
   -2.2239   -2.1348   -0.4942 C   0  0  2  0  0  3  0  0  0  0  0  0
   -3.5559   -2.8284   -0.5140 C   0  0  0  0  0  0  0  0  0  0  0  0
   -1.0901   -2.7031   -1.1112 C   0  0  0  0  0  0  0  0  0  0  0  0
    0.1785   -2.0598   -1.1448 C   0  0  0  0  0  0  0  0  0  0  0  0
    1.3668   -2.7150   -1.7945 C   0  0  0  0  0  0  0  0  0  0  0  0
   -0.5657    1.5821    0.9744 H   0  0  0  0  0  0  0  0  0  0  0  0
   -1.1538   -0.5710    0.1023 H   0  0  0  0  0  0  0  0  0  0  0  0
    1.6104    2.6675   -2.9156 H   0  0  0  0  0  0  0  0  0  0  0  0
    2.4818    1.4369   -1.8882 H   0  0  0  0  0  0  0  0  0  0  0  0
    2.6413    3.1614   -1.5172 H   0  0  0  0  0  0  0  0  0  0  0  0
   -0.7070    3.1722   -2.2446 H   0  0  0  0  0  0  0  0  0  0  0  0
   -3.0070    3.4031   -1.8406 H   0  0  0  0  0  0  0  0  0  0  0  0
   -3.7392    2.9819   -0.2528 H   0  0  0  0  0  0  0  0  0  0  0  0
   -3.4958    1.7205   -1.4971 H   0  0  0  0  0  0  0  0  0  0  0  0
   -2.0842    0.7372    2.3830 H   0  0  0  0  0  0  0  0  0  0  0  0
   -3.4167    1.7462    1.7200 H   0  0  0  0  0  0  0  0  0  0  0  0
   -3.9454    0.1094    0.0017 H   0  0  0  0  0  0  0  0  0  0  0  0
   -3.7237   -0.7847    1.5245 H   0  0  0  0  0  0  0  0  0  0  0  0
   -3.5032   -3.7787   -1.0737 H   0  0  0  0  0  0  0  0  0  0  0  0
   -4.3312   -2.1865   -0.9825 H   0  0  0  0  0  0  0  0  0  0  0  0
   -3.9019   -3.0467    0.5181 H   0  0  0  0  0  0  0  0  0  0  0  0
   -1.1999   -3.6875   -1.5834 H   0  0  0  0  0  0  0  0  0  0  0  0
    1.2108   -3.7913   -1.9930 H   0  0  0  0  0  0  0  0  0  0  0  0
    2.2660   -2.5482   -1.1643 H   0  0  0  0  0  0  0  0  0  0  0  0
    1.5803   -2.2005   -2.7556 H   0  0  0  0  0  0  0  0  0  0  0  0
  3 17  1  0  0  0  0
  3 10  1  0  0  0  0
  4 11  1  0  0  0  0
  5 20  1  0  0  0  0
  5 21  1  0  0  0  0
  5  6  1  0  0  0  0
  6  1  1  0  0  0  0
  7  6  2  0  0  0  0
  8  7  1  6  0  0  0
  8  3  1  0  0  0  0
  9  8  1  0  0  0  0
  9 24  1  0  0  0  0
 10 27  1  0  0  0  0
 10 26  1  0  0  0  0
 11 10  1  0  0  0  0
 11 29  1  0  0  0  0
 12 14  1  1  0  0  0
 12  4  1  0  0  0  0
 13 12  1  0  0  0  0
 13 32  1  0  0  0  0
 15 14  2  0  0  0  0
 15  2  1  0  0  0  0
 16 35  1  0  0  0  0
 16 15  1  0  0  0  0
 18  4  1  0  0  0  0
 19  5  1  0  0  0  0
 22  7  1  0  0  0  0
 23  9  1  0  0  0  0
 25  9  1  0  0  0  0
 28 11  1  0  0  0  0
 30 13  1  0  0  0  0
 31 13  1  0  0  0  0
 33 14  1  0  0  0  0
 34 16  1  0  0  0  0
 36 16  1  0  0  0  0
M  CHG  2   1  -1   2  -1
M  END
