1,5
 OpenBabel05122313063D

 19 18  0  0  0  0  0  0  0  0999 V2000
   -0.5737   -0.6021   -0.4117 O   0  0  0  0  0  1  0  0  0  0  0  0
    0.6832    1.8959   -0.6481 O   0  0  0  0  0  0  0  0  0  0  0  0
   -0.7460    3.5465   -1.0657 O   0  0  0  0  0  0  0  0  0  0  0  0
   -1.7048    3.6955   -0.9485 H   0  0  0  0  0  0  0  0  0  0  0  0
    0.7543    0.0557    1.6402 O   0  5  0  0  0  0  0  0  0  0  0  0
   -0.9972    0.9927    2.7487 O   0  0  0  0  0  0  0  0  0  0  0  0
   -3.6550   -2.3559   -0.4175 O   0  0  0  0  0  0  0  0  0  0  0  0
   -3.9914   -0.1940   -0.9495 O   0  0  0  0  0  0  0  0  0  0  0  0
   -0.4654    2.2883   -0.6158 C   0  0  0  0  0  0  0  0  0  0  0  0
   -1.6780    1.5175   -0.1247 C   0  0  0  0  0  0  0  0  0  0  0  0
   -2.3775    1.3814   -0.9766 H   0  0  0  0  0  0  0  0  0  0  0  0
   -2.1945    2.1279    0.6487 H   0  0  0  0  0  0  0  0  0  0  0  0
   -1.3183    0.1455    0.4878 C   0  0  0  0  0  0  0  0  0  0  0  0
   -0.4741    0.4391    1.7802 C   0  0  0  0  0  0  0  0  0  0  0  0
   -2.5707   -0.6506    0.9352 C   0  0  0  0  0  0  0  0  0  0  0  0
   -2.2286   -1.5276    1.5138 H   0  0  0  0  0  0  0  0  0  0  0  0
   -3.1647    0.0011    1.6083 H   0  0  0  0  0  0  0  0  0  0  0  0
   -3.4296   -1.1843   -0.1820 C   0  0  0  0  0  0  0  0  0  0  0  0
   -4.4722   -0.6852   -1.6510 H   0  0  0  0  0  0  0  0  0  0  0  0
  1 13  1  0  0  0  0
  2  9  2  0  0  0  0
  3  4  1  0  0  0  0
  3  9  1  0  0  0  0
  5 14  1  0  0  0  0
  7 18  2  0  0  0  0
  8 18  1  0  0  0  0
  9 10  1  0  0  0  0
 10 13  1  0  0  0  0
 10 12  1  0  0  0  0
 11 10  1  0  0  0  0
 13 15  1  0  0  0  0
 13 14  1  0  0  0  0
 14  6  2  0  0  0  0
 15 16  1  0  0  0  0
 15 17  1  0  0  0  0
 18 15  1  0  0  0  0
 19  8  1  0  0  0  0
M  CHG  1   5  -1
M  END
