1,7
 OpenBabel05122313063D

 14 13  0  0  1  0  0  0  0  0999 V2000
   -0.3834    0.9819   -2.0954 O   0  5  0  0  0  0  0  0  0  0  0  0
   -1.0655    2.0512   -1.8540 C   0  0  0  0  0  0  0  0  0  0  0  0
   -1.6508    3.6128   -0.0940 N   0  0  0  0  0  0  0  0  0  0  0  0
   -2.1204    4.0103   -0.9195 H   0  0  0  0  0  0  0  0  0  0  0  0
   -1.7240    2.7455   -2.6377 O   0  0  0  0  0  0  0  0  0  0  0  0
   -0.9585    2.5047   -0.3892 C   0  0  2  0  0  3  0  0  0  0  0  0
   -0.2415    1.8833    0.4412 O   0  0  0  0  0  1  0  0  0  0  0  0
   -1.6369    4.2370    1.1948 C   0  0  0  0  0  0  0  0  0  0  0  0
   -1.6836    3.4588    1.9866 H   0  0  0  0  0  0  0  0  0  0  0  0
   -2.5316    4.8763    1.3280 H   0  0  0  0  0  0  0  0  0  0  0  0
   -0.3802    5.0709    1.4453 C   0  0  0  0  0  0  0  0  0  0  0  0
   -0.4459    5.6629    2.6602 O   0  0  0  0  0  0  0  0  0  0  0  0
    0.3942    6.1613    2.7632 H   0  0  0  0  0  0  0  0  0  0  0  0
    0.5572    5.1894    0.6853 O   0  0  0  0  0  0  0  0  0  0  0  0
  1  2  1  0  0  0  0
  2  6  1  0  0  0  0
  3  8  1  0  0  0  0
  4  3  1  0  0  0  0
  5  2  2  0  0  0  0
  6  3  1  0  0  0  0
  6  7  1  6  0  0  0
  8 10  1  0  0  0  0
  8 11  1  0  0  0  0
  8  9  1  0  0  0  0
 11 12  1  0  0  0  0
 12 13  1  0  0  0  0
 14 11  2  0  0  0  0
M  CHG  1   1  -1
M  END
