1,2
 OpenBabel05122313063D

 25 27  0  0  1  0  0  0  0  0999 V2000
    0.5357   -1.6319   -0.8064 O   0  5  0  0  0  0  0  0  0  0  0  0
    1.7248    0.4423    0.5857 O   0  0  0  0  0  1  0  0  0  0  0  0
    2.7894    2.4717    1.6124 O   0  0  0  0  0  0  0  0  0  0  0  0
    2.0746    1.8098    1.3512 H   0  0  0  0  0  0  0  0  0  0  0  0
    6.5981   -1.7895   -0.4005 O   0  0  0  0  0  0  0  0  0  0  0  0
    1.9475   -3.3241   -1.5719 C   0  0  0  0  0  0  0  0  0  0  0  0
    1.0385   -3.8304   -1.9296 H   0  0  0  0  0  0  0  0  0  0  0  0
    1.7540   -2.0649   -0.9106 C   0  0  0  0  0  0  0  0  0  0  0  0
    2.9382   -1.3727   -0.4246 C   0  0  0  0  0  0  0  0  0  0  0  0
    2.8530   -0.1272    0.2870 C   0  0  1  0  0  3  0  0  0  0  0  0
    4.0552    0.5889    0.7069 C   0  0  0  0  0  0  0  0  0  0  0  0
    3.9618    1.8725    1.3444 C   0  0  0  0  0  0  0  0  0  0  0  0
    5.1473    2.5514    1.7036 C   0  0  0  0  0  0  0  0  0  0  0  0
    5.0425    3.5322    2.1899 H   0  0  0  0  0  0  0  0  0  0  0  0
    6.4019    1.9854    1.4540 C   0  0  0  0  0  0  0  0  0  0  0  0
    7.3106    2.5326    1.7486 H   0  0  0  0  0  0  0  0  0  0  0  0
    6.5065    0.7297    0.8365 C   0  0  0  0  0  0  0  0  0  0  0  0
    7.4751    0.2547    0.6257 H   0  0  0  0  0  0  0  0  0  0  0  0
    5.3452    0.0386    0.4617 C   0  0  0  0  0  0  0  0  0  0  0  0
    5.4862   -1.2847   -0.2102 C   0  0  0  0  0  0  0  0  0  0  0  0
    4.2311   -1.9597   -0.6549 C   0  0  0  0  0  0  0  0  0  0  0  0
    4.3592   -3.1848   -1.3098 C   0  0  0  0  0  0  0  0  0  0  0  0
    5.3733   -3.5840   -1.4530 H   0  0  0  0  0  0  0  0  0  0  0  0
    3.2094   -3.8671   -1.7643 C   0  0  0  0  0  0  0  0  0  0  0  0
    3.3141   -4.8337   -2.2817 H   0  0  0  0  0  0  0  0  0  0  0  0
  4  3  1  0  0  0  0
  5 20  2  0  0  0  0
  6  8  1  0  0  0  0
  7  6  1  0  0  0  0
  8  1  1  0  0  0  0
  8  9  2  0  0  0  0
  9 10  1  0  0  0  0
 10  2  1  6  0  0  0
 10 11  1  0  0  0  0
 11 12  1  0  0  0  0
 12  3  1  0  0  0  0
 12 13  2  0  0  0  0
 13 14  1  0  0  0  0
 15 13  1  0  0  0  0
 15 16  1  0  0  0  0
 17 15  2  0  0  0  0
 18 17  1  0  0  0  0
 19 11  2  0  0  0  0
 19 17  1  0  0  0  0
 20 19  1  0  0  0  0
 21  9  1  0  0  0  0
 21 20  1  0  0  0  0
 22 21  2  0  0  0  0
 23 22  1  0  0  0  0
 24  6  2  0  0  0  0
 24 22  1  0  0  0  0
 25 24  1  0  0  0  0
M  CHG  1   1  -1
M  END
