2,3
 OpenBabel05122313063D

 12 12  0  0  1  0  0  0  0  0999 V2000
   -2.6952    0.6499    0.0000 N   0  0  0  0  0  0  0  0  0  0  0  0
   -1.5239    1.3111    0.0002 O   0  0  0  0  0  1  0  0  0  0  0  0
   -1.5196   -1.3290   -0.0000 O   0  0  0  0  0  1  0  0  0  0  0  0
   -2.6699   -0.7414   -0.0000 C   0  0  2  0  0  3  0  0  0  0  0  0
   -3.9240   -1.4065   -0.0001 C   0  0  0  0  0  0  0  0  0  0  0  0
   -3.9003   -2.5046   -0.0001 H   0  0  0  0  0  0  0  0  0  0  0  0
   -5.1133   -0.6830   -0.0002 C   0  0  0  0  0  0  0  0  0  0  0  0
   -6.0763   -1.2143   -0.0003 H   0  0  0  0  0  0  0  0  0  0  0  0
   -5.0808    0.7289   -0.0002 C   0  0  0  0  0  0  0  0  0  0  0  0
   -5.9991    1.3302   -0.0003 H   0  0  0  0  0  0  0  0  0  0  0  0
   -3.8512    1.3719   -0.0001 C   0  0  0  0  0  0  0  0  0  0  0  0
   -3.6998    2.4597   -0.0001 H   0  0  0  0  0  0  0  0  0  0  0  0
  1  2  1  0  0  0  0
  4  3  1  6  0  0  0
  4  1  1  0  0  0  0
  5  4  1  0  0  0  0
  6  5  1  0  0  0  0
  7  9  1  0  0  0  0
  7  5  2  0  0  0  0
  8  7  1  0  0  0  0
  9 11  2  0  0  0  0
 10  9  1  0  0  0  0
 11 12  1  0  0  0  0
 11  1  1  0  0  0  0
M  END
