1,2
 OpenBabel05122313063D

 30 31  0  0  0  0  0  0  0  0999 V2000
    0.1086    1.0624    1.1530 O   0  5  0  0  0  0  0  0  0  0  0  0
    0.4648    1.3077   -1.0288 O   0  5  0  0  0  0  0  0  0  0  0  0
   -0.2013    7.8691    0.0723 O   0  0  0  0  0  0  0  0  0  0  0  0
    1.6101    6.5126    0.1220 O   0  0  0  0  0  0  0  0  0  0  0  0
    2.0260    7.4018    0.1170 H   0  0  0  0  0  0  0  0  0  0  0  0
   -5.4876   -2.4844    0.4365 O   0  0  0  0  0  0  0  0  0  0  0  0
   -6.8235   -1.2377   -0.8939 O   0  0  0  0  0  0  0  0  0  0  0  0
   -7.3295   -2.0774   -0.8453 H   0  0  0  0  0  0  0  0  0  0  0  0
   -0.0182    1.7290    0.0711 C   0  0  0  0  0  3  0  0  0  0  0  0
   -0.7322    3.0532    0.0960 C   0  0  0  0  0  0  0  0  0  0  0  0
    0.0569    4.2151    0.0892 C   0  0  0  0  0  0  0  0  0  0  0  0
    1.1526    4.1312    0.0795 H   0  0  0  0  0  0  0  0  0  0  0  0
   -0.5353    5.4898    0.0845 C   0  0  0  0  0  0  0  0  0  0  0  0
   -1.9384    5.6003    0.0635 C   0  0  0  0  0  0  0  0  0  0  0  0
   -2.3872    6.6042    0.0621 H   0  0  0  0  0  0  0  0  0  0  0  0
   -2.7257    4.4482    0.0466 C   0  0  0  0  0  0  0  0  0  0  0  0
   -3.8221    4.5394    0.0413 H   0  0  0  0  0  0  0  0  0  0  0  0
   -2.1498    3.1557    0.0699 C   0  0  0  0  0  0  0  0  0  0  0  0
    0.2710    6.7467    0.0914 C   0  0  0  0  0  0  0  0  0  0  0  0
   -3.0483    1.9706    0.0217 C   0  0  0  0  0  0  0  0  0  0  0  0
   -2.8953    0.8717    0.9024 C   0  0  0  0  0  0  0  0  0  0  0  0
   -2.0786    0.8832    1.6362 H   0  0  0  0  0  0  0  0  0  0  0  0
   -3.7749   -0.2125    0.8457 C   0  0  0  0  0  0  0  0  0  0  0  0
   -3.6642   -1.0664    1.5303 H   0  0  0  0  0  0  0  0  0  0  0  0
   -4.8384   -0.2265   -0.0791 C   0  0  0  0  0  0  0  0  0  0  0  0
   -5.0138    0.8717   -0.9462 C   0  0  0  0  0  0  0  0  0  0  0  0
   -5.8447    0.8676   -1.6653 H   0  0  0  0  0  0  0  0  0  0  0  0
   -4.1246    1.9495   -0.8979 C   0  0  0  0  0  0  0  0  0  0  0  0
   -4.2529    2.7910   -1.5950 H   0  0  0  0  0  0  0  0  0  0  0  0
   -5.7221   -1.4226   -0.1273 C   0  0  0  0  0  0  0  0  0  0  0  0
  2  9  1  0  0  0  0
  3 19  2  0  0  0  0
  5  4  1  0  0  0  0
  7  8  1  0  0  0  0
  7 30  1  0  0  0  0
  9 10  1  0  0  0  0
  9  1  1  0  0  0  0
 11 10  1  0  0  0  0
 12 11  1  0  0  0  0
 13 11  2  0  0  0  0
 13 19  1  0  0  0  0
 14 13  1  0  0  0  0
 15 14  1  0  0  0  0
 16 14  2  0  0  0  0
 16 18  1  0  0  0  0
 17 16  1  0  0  0  0
 18 10  2  0  0  0  0
 19  4  1  0  0  0  0
 20 18  1  0  0  0  0
 20 21  1  0  0  0  0
 21 22  1  0  0  0  0
 23 21  2  0  0  0  0
 23 24  1  0  0  0  0
 25 23  1  0  0  0  0
 26 28  1  0  0  0  0
 26 25  2  0  0  0  0
 27 26  1  0  0  0  0
 28 20  2  0  0  0  0
 29 28  1  0  0  0  0
 30 25  1  0  0  0  0
 30  6  2  0  0  0  0
M  CHG  2   1  -1   2  -1
M  END
