1,2
 OpenBabel05122313063D

 14 14  0  0  0  0  0  0  0  0999 V2000
   -1.0923   -1.7682    0.8036 O   0  0  0  0  0  1  0  0  0  0  0  0
   -1.5841    0.8348   -0.4608 O   0  5  0  0  0  0  0  0  0  0  0  0
   -2.8133    0.4771   -0.3209 C   0  0  0  0  0  0  0  0  0  0  0  0
   -3.8560    1.3634   -0.7713 C   0  0  0  0  0  0  0  0  0  0  0  0
   -5.1982    1.0434   -0.6477 C   0  0  0  0  0  0  0  0  0  0  0  0
   -5.6155   -0.1868   -0.0680 C   0  0  0  0  0  0  0  0  0  0  0  0
   -4.6480   -1.0706    0.3787 C   0  0  0  0  0  0  0  0  0  0  0  0
   -3.2521   -0.7835    0.2746 C   0  0  0  0  0  0  0  0  0  0  0  0
   -2.3501   -1.7801    0.7751 C   0  0  0  0  0  3  0  0  0  0  0  0
   -3.5297    2.3128   -1.2216 H   0  0  0  0  0  0  0  0  0  0  0  0
   -5.9578    1.7566   -1.0069 H   0  0  0  0  0  0  0  0  0  0  0  0
   -6.6846   -0.4268    0.0217 H   0  0  0  0  0  0  0  0  0  0  0  0
   -4.9411   -2.0322    0.8335 H   0  0  0  0  0  0  0  0  0  0  0  0
   -2.8516   -2.6939    1.1946 H   0  0  0  0  0  0  0  0  0  0  0  0
  2  3  1  0  0  0  0
  3  8  1  0  0  0  0
  4  5  1  0  0  0  0
  4  3  2  0  0  0  0
  5  6  2  0  0  0  0
  6 12  1  0  0  0  0
  6  7  1  0  0  0  0
  7 13  1  0  0  0  0
  8  7  2  0  0  0  0
  8  9  1  0  0  0  0
  9  1  1  0  0  0  0
  9 14  1  0  0  0  0
 10  4  1  0  0  0  0
 11  5  1  0  0  0  0
M  CHG  1   2  -1
M  END
