2,8
 OpenBabel05122313063D

  8  7  0  0  1  0  0  0  0  0999 V2000
    2.7442   -1.4039    1.9453 O   0  0  0  0  0  0  0  0  0  0  0  0
    2.6383   -1.4961   -0.3329 O   0  0  0  0  0  1  0  0  0  0  0  0
    4.1635   -2.9344    0.8827 C   0  0  0  0  0  0  0  0  0  0  0  0
    5.0603   -2.6210    0.3120 H   0  0  0  0  0  0  0  0  0  0  0  0
    3.7968   -3.8763    0.4275 H   0  0  0  0  0  0  0  0  0  0  0  0
    4.4344   -3.1110    1.9391 H   0  0  0  0  0  0  0  0  0  0  0  0
    3.1026   -1.8735    0.7560 C   0  0  1  0  0  3  0  0  0  0  0  0
    1.7440   -0.4012    1.9842 O   0  0  0  0  0  1  0  0  0  0  0  0
  1  8  1  0  0  0  0
  3  6  1  0  0  0  0
  4  3  1  0  0  0  0
  5  3  1  0  0  0  0
  7  2  1  6  0  0  0
  7  3  1  0  0  0  0
  7  1  1  0  0  0  0
M  END
