1,2
 OpenBabel05122313063D

 20 21  0  0  0  0  0  0  0  0999 V2000
    0.7174    0.8983    0.0012 O   0  5  0  0  0  0  0  0  0  0  0  0
   -0.0285   -1.9203    0.0006 O   0  5  0  0  0  0  0  0  0  0  0  0
    1.6653   -3.3317    0.0005 O   0  0  0  0  0  0  0  0  0  0  0  0
    3.0066    1.3238    0.0004 C   0  0  0  0  0  0  0  0  0  0  0  0
    2.7454    2.3929    0.0006 H   0  0  0  0  0  0  0  0  0  0  0  0
    1.9480    0.3941    0.0007 C   0  0  0  0  0  0  0  0  0  0  0  0
    2.2652   -1.0190    0.0004 C   0  0  0  0  0  0  0  0  0  0  0  0
    1.2773   -2.1639    0.0005 C   0  0  0  0  0  0  0  0  0  0  0  0
    3.6054   -1.4044   -0.0001 C   0  0  0  0  0  0  0  0  0  0  0  0
    3.8027   -2.4878   -0.0003 H   0  0  0  0  0  0  0  0  0  0  0  0
    6.0448   -0.8901   -0.0008 C   0  0  0  0  0  0  0  0  0  0  0  0
    6.2694   -1.9683   -0.0010 H   0  0  0  0  0  0  0  0  0  0  0  0
    7.0684    0.0459   -0.0011 C   0  0  0  0  0  0  0  0  0  0  0  0
    8.1193   -0.2808   -0.0014 H   0  0  0  0  0  0  0  0  0  0  0  0
    6.7599    1.4360   -0.0008 C   0  0  0  0  0  0  0  0  0  0  0  0
    7.5782    2.1729   -0.0010 H   0  0  0  0  0  0  0  0  0  0  0  0
    5.4430    1.8685   -0.0003 C   0  0  0  0  0  0  0  0  0  0  0  0
    5.2087    2.9448   -0.0001 H   0  0  0  0  0  0  0  0  0  0  0  0
    4.3639    0.9301   -0.0001 C   0  0  0  0  0  0  0  0  0  0  0  0
    4.6794   -0.4801   -0.0003 C   0  0  0  0  0  0  0  0  0  0  0  0
  3  8  2  0  0  0  0
  4  5  1  0  0  0  0
  4  6  1  0  0  0  0
  6  1  1  0  0  0  0
  7  8  1  0  0  0  0
  7  6  2  0  0  0  0
  8  2  1  0  0  0  0
  9  7  1  0  0  0  0
 10  9  1  0  0  0  0
 11 20  1  0  0  0  0
 12 11  1  0  0  0  0
 13 11  2  0  0  0  0
 13 15  1  0  0  0  0
 14 13  1  0  0  0  0
 15 17  2  0  0  0  0
 16 15  1  0  0  0  0
 17 18  1  0  0  0  0
 17 19  1  0  0  0  0
 19  4  2  0  0  0  0
 20  9  2  0  0  0  0
 20 19  1  0  0  0  0
M  CHG  2   1  -1   2  -1
M  END
