1,2
 OpenBabel05122313063D

 12 11  0  0  0  0  0  0  0  0999 V2000
   -1.3803   -0.0474    1.0894 O   0  0  0  0  0  1  0  0  0  0  0  0
   -1.3928    0.2124   -1.0758 O   0  0  0  0  0  1  0  0  0  0  0  0
   -2.1328    0.0788    0.0066 N   0  0  0  0  0  0  0  0  0  0  0  0
   -3.4514    0.0718    0.0190 C   0  0  0  0  0  3  0  0  0  0  0  0
   -4.1909    0.2189   -1.2702 C   0  0  0  0  0  0  0  0  0  0  0  0
   -4.1652   -0.0811    1.3216 C   0  0  0  0  0  0  0  0  0  0  0  0
   -4.8497   -0.6594   -1.4447 H   0  0  0  0  0  0  0  0  0  0  0  0
   -3.4956    0.3196   -2.1216 H   0  0  0  0  0  0  0  0  0  0  0  0
   -4.8540    1.1107   -1.2404 H   0  0  0  0  0  0  0  0  0  0  0  0
   -4.8062   -0.9894    1.3108 H   0  0  0  0  0  0  0  0  0  0  0  0
   -4.8418    0.7829    1.4985 H   0  0  0  0  0  0  0  0  0  0  0  0
   -3.4519   -0.1569    2.1606 H   0  0  0  0  0  0  0  0  0  0  0  0
  2  3  1  0  0  0  0
  3  4  1  0  0  0  0
  3  1  1  0  0  0  0
  4  6  1  0  0  0  0
  5  9  1  0  0  0  0
  5  4  1  0  0  0  0
  6 11  1  0  0  0  0
  6 12  1  0  0  0  0
  7  5  1  0  0  0  0
  8  5  1  0  0  0  0
 10  6  1  0  0  0  0
M  END
