1,2
 OpenBabel05122313063D

 26 29  0  0  0  0  0  0  0  0999 V2000
   -0.0732    0.9037   -0.8978 O   0  5  0  0  0  0  0  0  0  0  0  0
   -0.0678   -1.4641    0.1408 O   0  5  0  0  0  0  0  0  0  0  0  0
    1.0906    0.4385   -0.5415 C   0  0  0  0  0  0  0  0  0  0  0  0
    1.0844   -0.8868    0.0408 C   0  0  0  0  0  0  0  0  0  0  0  0
    2.3354   -1.5456    0.3650 C   0  0  0  0  0  0  0  0  0  0  0  0
    2.3599   -2.8369    0.9231 C   0  0  0  0  0  0  0  0  0  0  0  0
    1.4021   -3.3457    1.1036 H   0  0  0  0  0  0  0  0  0  0  0  0
    3.5838   -3.4466    1.2429 C   0  0  0  0  0  0  0  0  0  0  0  0
    3.5939   -4.4569    1.6788 H   0  0  0  0  0  0  0  0  0  0  0  0
    4.7884   -2.7748    1.0134 C   0  0  0  0  0  0  0  0  0  0  0  0
    5.7473   -3.2527    1.2676 H   0  0  0  0  0  0  0  0  0  0  0  0
    4.8043   -1.4726    0.4527 C   0  0  0  0  0  0  0  0  0  0  0  0
    6.0328   -0.7654    0.2057 C   0  0  0  0  0  0  0  0  0  0  0  0
    6.9816   -1.2588    0.4679 H   0  0  0  0  0  0  0  0  0  0  0  0
    6.0317    0.4928   -0.3451 C   0  0  0  0  0  0  0  0  0  0  0  0
    6.9796    1.0213   -0.5303 H   0  0  0  0  0  0  0  0  0  0  0  0
    4.8022    1.1526   -0.6969 C   0  0  0  0  0  0  0  0  0  0  0  0
    4.7847    2.4475   -1.2745 C   0  0  0  0  0  0  0  0  0  0  0  0
    5.7422    2.9604   -1.4543 H   0  0  0  0  0  0  0  0  0  0  0  0
    3.5777    3.0672   -1.6124 C   0  0  0  0  0  0  0  0  0  0  0  0
    3.5849    4.0721   -2.0610 H   0  0  0  0  0  0  0  0  0  0  0  0
    2.3547    2.4171   -1.3817 C   0  0  0  0  0  0  0  0  0  0  0  0
    1.3974    2.8941   -1.6362 H   0  0  0  0  0  0  0  0  0  0  0  0
    2.3315    1.1305   -0.8096 C   0  0  0  0  0  0  0  0  0  0  0  0
    3.5608    0.4764   -0.4600 C   0  0  0  0  0  0  0  0  0  0  0  0
    3.5612   -0.8416    0.1176 C   0  0  0  0  0  0  0  0  0  0  0  0
  1  3  1  0  0  0  0
  3  4  1  0  0  0  0
  4  2  1  0  0  0  0
  4  5  2  0  0  0  0
  5  6  1  0  0  0  0
  6  7  1  0  0  0  0
  6  8  2  0  0  0  0
  8  9  1  0  0  0  0
 10  8  1  0  0  0  0
 10 11  1  0  0  0  0
 12 10  2  0  0  0  0
 13 12  1  0  0  0  0
 13 14  1  0  0  0  0
 15 13  2  0  0  0  0
 16 15  1  0  0  0  0
 17 25  1  0  0  0  0
 17 15  1  0  0  0  0
 18 17  2  0  0  0  0
 19 18  1  0  0  0  0
 20 22  2  0  0  0  0
 20 18  1  0  0  0  0
 21 20  1  0  0  0  0
 22 24  1  0  0  0  0
 23 22  1  0  0  0  0
 24  3  2  0  0  0  0
 24 25  1  0  0  0  0
 25 26  2  0  0  0  0
 26  5  1  0  0  0  0
 26 12  1  0  0  0  0
M  CHG  2   1  -1   2  -1
M  END
