2,3
 OpenBabel05122313063D

 16 16  0  0  0  0  0  0  0  0999 V2000
    6.5483    0.3081    1.7554 N   0  0  0  0  0  0  0  0  0  0  0  0
    1.3143   -0.2923   -1.2711 O   0  5  0  0  0  0  0  0  0  0  0  0
    1.5165    0.0599    0.9142 O   0  5  0  0  0  0  0  0  0  0  0  0
    2.0552   -0.1449   -0.2330 C   0  0  0  0  0  3  0  0  0  0  0  0
    3.5388   -0.2048   -0.3651 C   0  0  0  0  0  0  0  0  0  0  0  0
    4.3424    0.0455    0.7613 C   0  0  0  0  0  0  0  0  0  0  0  0
    3.8484    0.2815    1.7158 H   0  0  0  0  0  0  0  0  0  0  0  0
    5.7530    0.0069    0.6672 C   0  0  0  0  0  0  0  0  0  0  0  0
    6.3276   -0.3025   -0.5933 C   0  0  0  0  0  0  0  0  0  0  0  0
    7.4243   -0.3400   -0.6896 H   0  0  0  0  0  0  0  0  0  0  0  0
    5.5205   -0.5539   -1.7092 C   0  0  0  0  0  0  0  0  0  0  0  0
    5.9976   -0.7933   -2.6718 H   0  0  0  0  0  0  0  0  0  0  0  0
    4.1230   -0.5063   -1.6127 C   0  0  0  0  0  0  0  0  0  0  0  0
    3.4736   -0.7023   -2.4763 H   0  0  0  0  0  0  0  0  0  0  0  0
    6.1232    0.2664    2.6805 H   0  0  0  0  0  0  0  0  0  0  0  0
    7.5253    0.0194    1.7257 H   0  0  0  0  0  0  0  0  0  0  0  0
  1 15  1  0  0  0  0
  2  4  1  0  0  0  0
  4  3  1  0  0  0  0
  5  4  1  0  0  0  0
  5  6  1  0  0  0  0
  6  7  1  0  0  0  0
  8  6  2  0  0  0  0
  8  1  1  0  0  0  0
  9  8  1  0  0  0  0
 10  9  1  0  0  0  0
 11 13  1  0  0  0  0
 11  9  2  0  0  0  0
 12 11  1  0  0  0  0
 13  5  2  0  0  0  0
 14 13  1  0  0  0  0
 16  1  1  0  0  0  0
M  CHG  2   2  -1   3  -1
M  END
