1,16
 OpenBabel05122313063D

 30 30  0  0  1  0  0  0  0  0999 V2000
   -0.1145   -1.3409    0.1821 O   0  0  0  0  0  1  0  0  0  0  0  0
    1.5065   -2.7001    0.8769 O   0  0  0  0  0  0  0  0  0  0  0  0
    2.2183   -0.7121   -0.1654 C   0  0  0  0  0  0  0  0  0  0  0  0
    3.3683   -1.3925   -0.6174 C   0  0  0  0  0  0  0  0  0  0  0  0
    4.4838   -0.7000   -1.1014 C   0  0  0  0  0  0  0  0  0  0  0  0
    1.0880   -1.5687    0.3082 C   0  0  1  0  0  3  0  0  0  0  0  0
    0.4634   -3.6283    1.3165 C   0  0  0  0  0  0  0  0  0  0  0  0
   -0.1244   -3.2140    2.6530 C   0  0  0  0  0  0  0  0  0  0  0  0
    3.3685   -2.4902   -0.5932 H   0  0  0  0  0  0  0  0  0  0  0  0
    5.3557   -1.2589   -1.4721 H   0  0  0  0  0  0  0  0  0  0  0  0
   -0.3164   -3.6697    0.5298 H   0  0  0  0  0  0  0  0  0  0  0  0
    0.9917   -4.5987    1.3716 H   0  0  0  0  0  0  0  0  0  0  0  0
   -0.6843   -2.2615    2.5657 H   0  0  0  0  0  0  0  0  0  0  0  0
   -0.8352   -3.9940    2.9919 H   0  0  0  0  0  0  0  0  0  0  0  0
    0.6667   -3.1122    3.4224 H   0  0  0  0  0  0  0  0  0  0  0  0
   -0.1147    1.3408    0.1824 O   0  0  0  0  0  1  0  0  0  0  0  0
    2.2182    0.7126   -0.1653 C   0  0  0  0  0  0  0  0  0  0  0  0
    4.4837    0.7009   -1.1014 C   0  0  0  0  0  0  0  0  0  0  0  0
    1.0877    1.5688    0.3084 C   0  0  1  0  0  3  0  0  0  0  0  0
    3.3680    1.3932   -0.6173 C   0  0  0  0  0  0  0  0  0  0  0  0
    5.3555    1.2600   -1.4720 H   0  0  0  0  0  0  0  0  0  0  0  0
    1.5059    2.7003    0.8773 O   0  0  0  0  0  0  0  0  0  0  0  0
    3.3680    2.4909   -0.5929 H   0  0  0  0  0  0  0  0  0  0  0  0
    0.4626    3.6281    1.3169 C   0  0  0  0  0  0  0  0  0  0  0  0
   -0.1254    3.2132    2.6532 C   0  0  0  0  0  0  0  0  0  0  0  0
   -0.3170    3.6697    0.5302 H   0  0  0  0  0  0  0  0  0  0  0  0
    0.9907    4.5986    1.3726 H   0  0  0  0  0  0  0  0  0  0  0  0
   -0.6852    2.2606    2.5653 H   0  0  0  0  0  0  0  0  0  0  0  0
   -0.8365    3.9930    2.9922 H   0  0  0  0  0  0  0  0  0  0  0  0
    0.6655    3.1113    3.4227 H   0  0  0  0  0  0  0  0  0  0  0  0
  2  7  1  0  0  0  0
  3 17  1  0  0  0  0
  3  6  1  0  0  0  0
  4  9  1  0  0  0  0
  4  3  2  0  0  0  0
  5 18  2  0  0  0  0
  5  4  1  0  0  0  0
  6  1  1  6  0  0  0
  6  2  1  0  0  0  0
  7 12  1  0  0  0  0
  7  8  1  0  0  0  0
  8 14  1  0  0  0  0
  8 15  1  0  0  0  0
 10  5  1  0  0  0  0
 11  7  1  0  0  0  0
 13  8  1  0  0  0  0
 17 19  1  0  0  0  0
 18 20  1  0  0  0  0
 19 16  1  6  0  0  0
 19 22  1  0  0  0  0
 20 23  1  0  0  0  0
 20 17  2  0  0  0  0
 21 18  1  0  0  0  0
 22 24  1  0  0  0  0
 24 27  1  0  0  0  0
 24 25  1  0  0  0  0
 25 29  1  0  0  0  0
 25 30  1  0  0  0  0
 26 24  1  0  0  0  0
 28 25  1  0  0  0  0
M  END
