1,2
 OpenBabel05122313063D

 15 14  0  0  0  0  0  0  0  0999 V2000
   -1.2898   -1.1041    1.1058 O   0  0  0  0  0  1  0  0  0  0  0  0
   -1.1920    0.9087   -1.5031 O   0  0  0  0  0  1  0  0  0  0  0  0
   -2.1703   -1.1101    0.0194 N   0  0  0  0  0  0  0  0  0  0  0  0
   -1.8540    1.1242   -0.2829 N   0  0  0  0  0  0  0  0  0  0  0  0
   -2.8467   -2.3722   -0.1926 C   0  0  0  0  0  0  0  0  0  0  0  0
   -3.3994   -2.3322   -1.1514 H   0  0  0  0  0  0  0  0  0  0  0  0
   -3.5531   -2.6031    0.6365 H   0  0  0  0  0  0  0  0  0  0  0  0
   -2.0853   -3.1709   -0.2541 H   0  0  0  0  0  0  0  0  0  0  0  0
   -2.9165    0.1389   -0.0727 C   0  0  0  0  0  0  0  0  0  0  0  0
   -3.4598    0.3836    0.8683 H   0  0  0  0  0  0  0  0  0  0  0  0
   -3.6211    0.0816   -0.9331 H   0  0  0  0  0  0  0  0  0  0  0  0
   -2.1907    2.5146   -0.0412 C   0  0  0  0  0  0  0  0  0  0  0  0
   -2.9430    2.8820   -0.7766 H   0  0  0  0  0  0  0  0  0  0  0  0
   -1.2790    3.1278   -0.1367 H   0  0  0  0  0  0  0  0  0  0  0  0
   -2.5942    2.6235    0.9846 H   0  0  0  0  0  0  0  0  0  0  0  0
  2  4  1  0  0  0  0
  3  1  1  0  0  0  0
  4  9  1  0  0  0  0
  4 12  1  0  0  0  0
  5  3  1  0  0  0  0
  5  7  1  0  0  0  0
  6  5  1  0  0  0  0
  8  5  1  0  0  0  0
  9  3  1  0  0  0  0
  9 10  1  0  0  0  0
 11  9  1  0  0  0  0
 12 15  1  0  0  0  0
 13 12  1  0  0  0  0
 14 12  1  0  0  0  0
M  END
