1,2
 OpenBabel05122313063D

 18 17  0  0  0  0  0  0  0  0999 V2000
    0.9146    1.8021    0.7690 O   0  0  0  0  0  1  0  0  0  0  0  0
    1.1202   -1.3774    1.0259 O   0  0  0  0  0  1  0  0  0  0  0  0
    2.0563    1.3662    0.0529 N   0  0  0  0  0  0  0  0  0  0  0  0
    2.0060   -1.3604   -0.0781 N   0  0  0  0  0  0  0  0  0  0  0  0
    2.1313   -2.6765   -0.6888 C   0  0  0  0  0  0  0  0  0  0  0  0
    2.6201   -3.4047   -0.0008 H   0  0  0  0  0  0  0  0  0  0  0  0
    2.7266   -2.5896   -1.6193 H   0  0  0  0  0  0  0  0  0  0  0  0
    1.1233   -3.0509   -0.9472 H   0  0  0  0  0  0  0  0  0  0  0  0
    3.2897   -0.7373    0.2816 C   0  0  0  0  0  0  0  0  0  0  0  0
    3.8820   -0.6630   -0.6550 H   0  0  0  0  0  0  0  0  0  0  0  0
    3.8580   -1.3722    1.0027 H   0  0  0  0  0  0  0  0  0  0  0  0
    3.0449    0.6529    0.8847 C   0  0  0  0  0  0  0  0  0  0  0  0
    2.6058    0.5560    1.8949 H   0  0  0  0  0  0  0  0  0  0  0  0
    3.9987    1.2173    0.9747 H   0  0  0  0  0  0  0  0  0  0  0  0
    2.5803    2.3855   -0.8411 C   0  0  0  0  0  0  0  0  0  0  0  0
    2.9937    3.2507   -0.2740 H   0  0  0  0  0  0  0  0  0  0  0  0
    1.7714    2.7355   -1.5085 H   0  0  0  0  0  0  0  0  0  0  0  0
    3.3798    1.9409   -1.4667 H   0  0  0  0  0  0  0  0  0  0  0  0
  3  1  1  0  0  0  0
  3 12  1  0  0  0  0
  4  9  1  0  0  0  0
  4  2  1  0  0  0  0
  5  4  1  0  0  0  0
  5  6  1  0  0  0  0
  7  5  1  0  0  0  0
  8  5  1  0  0  0  0
  9 12  1  0  0  0  0
  9 11  1  0  0  0  0
 10  9  1  0  0  0  0
 12 14  1  0  0  0  0
 12 13  1  0  0  0  0
 15 16  1  0  0  0  0
 15  3  1  0  0  0  0
 17 15  1  0  0  0  0
 18 15  1  0  0  0  0
M  END
