1,2
 OpenBabel05122313063D

 37 38  0  0  1  0  0  0  0  0999 V2000
   -0.4270    0.8062   -1.1415 O   0  0  0  0  0  1  0  0  0  0  0  0
   -0.4402    0.2281    1.3588 O   0  0  0  0  0  1  0  0  0  0  0  0
   -1.7749    0.7852   -0.8550 C   0  0  2  0  0  0  0  0  0  0  0  0
   -2.3427    0.6517   -1.8040 H   0  0  0  0  0  0  0  0  0  0  0  0
   -2.2817    2.0596   -0.1695 C   0  0  0  0  0  0  0  0  0  0  0  0
   -3.6493    2.1754    0.1477 C   0  0  0  0  0  0  0  0  0  0  0  0
   -4.3335    1.3403   -0.0724 H   0  0  0  0  0  0  0  0  0  0  0  0
   -4.1476    3.3364    0.7544 C   0  0  0  0  0  0  0  0  0  0  0  0
   -5.2187    3.4116    0.9968 H   0  0  0  0  0  0  0  0  0  0  0  0
   -3.2792    4.3989    1.0555 C   0  0  0  0  0  0  0  0  0  0  0  0
   -3.6666    5.3105    1.5352 H   0  0  0  0  0  0  0  0  0  0  0  0
   -1.9159    4.2871    0.7461 C   0  0  0  0  0  0  0  0  0  0  0  0
   -1.2254    5.1091    0.9885 H   0  0  0  0  0  0  0  0  0  0  0  0
   -1.4195    3.1254    0.1333 C   0  0  0  0  0  0  0  0  0  0  0  0
   -0.3478    3.0374   -0.0877 H   0  0  0  0  0  0  0  0  0  0  0  0
   -2.7178   -1.5468   -0.6849 C   0  0  0  0  0  0  0  0  0  0  0  0
   -3.9035   -1.4005   -1.4339 C   0  0  0  0  0  0  0  0  0  0  0  0
   -4.3972   -0.4191   -1.4908 H   0  0  0  0  0  0  0  0  0  0  0  0
   -4.4592   -2.5047   -2.0952 C   0  0  0  0  0  0  0  0  0  0  0  0
   -5.3835   -2.3770   -2.6787 H   0  0  0  0  0  0  0  0  0  0  0  0
   -3.8515   -3.7668   -2.0023 C   0  0  0  0  0  0  0  0  0  0  0  0
   -4.2928   -4.6333   -2.5168 H   0  0  0  0  0  0  0  0  0  0  0  0
   -2.6717   -3.9120   -1.2552 C   0  0  0  0  0  0  0  0  0  0  0  0
   -2.1735   -4.8911   -1.1910 H   0  0  0  0  0  0  0  0  0  0  0  0
   -2.0966   -2.8094   -0.6083 C   0  0  0  0  0  0  0  0  0  0  0  0
   -1.1473   -2.9108   -0.0619 H   0  0  0  0  0  0  0  0  0  0  0  0
   -1.4878   -0.4669    1.1766 C   0  0  2  0  0  3  0  0  0  0  0  0
   -1.1476   -1.5302    3.3363 C   0  0  0  0  0  0  0  0  0  0  0  0
   -0.1202   -1.1757    3.1465 H   0  0  0  0  0  0  0  0  0  0  0  0
   -1.1295   -2.6278    3.4979 H   0  0  0  0  0  0  0  0  0  0  0  0
   -1.5420   -1.0402    4.2517 H   0  0  0  0  0  0  0  0  0  0  0  0
   -3.3525   -1.7224    2.2151 C   0  0  0  0  0  0  0  0  0  0  0  0
   -3.9949   -1.1315    1.5391 H   0  0  0  0  0  0  0  0  0  0  0  0
   -3.7434   -1.6263    3.2481 H   0  0  0  0  0  0  0  0  0  0  0  0
   -3.4095   -2.7892    1.9091 H   0  0  0  0  0  0  0  0  0  0  0  0
   -2.1445   -0.4109   -0.0379 N   0  0  0  0  0  0  0  0  0  0  0  0
   -1.9893   -1.2191    2.1870 N   0  0  0  0  0  0  0  0  0  0  0  0
  1  3  1  0  0  0  0
  3  4  1  6  0  0  0
  3  5  1  0  0  0  0
  3 36  1  0  0  0  0
  5 14  2  0  0  0  0
  5  6  1  0  0  0  0
  6  8  2  0  0  0  0
  7  6  1  0  0  0  0
  8  9  1  0  0  0  0
  8 10  1  0  0  0  0
 10 11  1  0  0  0  0
 12 13  1  0  0  0  0
 12 10  2  0  0  0  0
 14 12  1  0  0  0  0
 15 14  1  0  0  0  0
 16 25  1  0  0  0  0
 16 36  1  0  0  0  0
 17 16  2  0  0  0  0
 18 17  1  0  0  0  0
 19 21  2  0  0  0  0
 19 17  1  0  0  0  0
 20 19  1  0  0  0  0
 21 23  1  0  0  0  0
 22 21  1  0  0  0  0
 23 24  1  0  0  0  0
 23 25  2  0  0  0  0
 25 26  1  0  0  0  0
 27  2  1  1  0  0  0
 27 37  1  0  0  0  0
 28 30  1  0  0  0  0
 28 31  1  0  0  0  0
 29 28  1  0  0  0  0
 32 34  1  0  0  0  0
 33 32  1  0  0  0  0
 35 32  1  0  0  0  0
 36 27  1  0  0  0  0
 37 32  1  0  0  0  0
 37 28  1  0  0  0  0
M  END
