4,5
 OpenBabel05122313063D

 18 18  0  0  0  0  0  0  0  0999 V2000
   -2.4724    2.6867    0.0215 N   0  0  0  0  0  0  0  0  0  0  0  0
   -6.0490   -0.6352    0.5422 N   0  0  0  0  0  0  0  0  0  0  0  0
   -1.8898   -3.4274   -0.3303 O   0  5  0  0  0  0  0  0  0  0  0  0
   -0.1512   -2.0506   -0.4651 O   0  0  0  0  0  0  0  0  0  0  0  0
   -0.7360    0.5935   -0.7690 O   0  5  0  0  0  0  0  0  0  0  0  0
   -1.3614    2.9302    0.5299 O   0  0  0  0  0  0  0  0  0  0  0  0
   -3.2486    3.5500   -0.3746 O   0  0  0  0  0  0  0  0  0  0  0  0
   -6.8158    0.3177    0.6997 O   0  0  0  0  0  0  0  0  0  0  0  0
   -6.3687   -1.8229    0.5985 O   0  0  0  0  0  0  0  0  0  0  0  0
   -2.3712   -1.0959   -0.1895 C   0  0  0  0  0  0  0  0  0  0  0  0
   -1.9203    0.2593   -0.3399 C   0  0  0  0  0  0  0  0  0  0  0  0
   -2.8895    1.2870   -0.0530 C   0  0  0  0  0  0  0  0  0  0  0  0
   -4.2333    1.0103    0.1968 C   0  0  0  0  0  0  0  0  0  0  0  0
   -4.9551    1.8200    0.3649 H   0  0  0  0  0  0  0  0  0  0  0  0
   -4.6350   -0.3264    0.2631 C   0  0  0  0  0  0  0  0  0  0  0  0
   -3.7136   -1.3685    0.0895 C   0  0  0  0  0  0  0  0  0  0  0  0
   -4.0323   -2.4179    0.1658 H   0  0  0  0  0  0  0  0  0  0  0  0
   -1.4510   -2.2813   -0.3400 C   0  0  0  0  0  0  0  0  0  0  0  0
  1  6  2  0  0  0  0
  2  9  2  0  0  0  0
  2  8  2  0  0  0  0
  4 18  2  0  0  0  0
  5 11  1  0  0  0  0
  7  1  2  0  0  0  0
 10 16  1  0  0  0  0
 11 10  2  0  0  0  0
 11 12  1  0  0  0  0
 12  1  1  0  0  0  0
 12 13  2  0  0  0  0
 13 15  1  0  0  0  0
 13 14  1  0  0  0  0
 15  2  1  0  0  0  0
 16 17  1  0  0  0  0
 16 15  2  0  0  0  0
 18  3  1  0  0  0  0
 18 10  1  0  0  0  0
M  CHG  2   3  -1   5  -1
M  END
