2,4
 OpenBabel05122313063D

  8  7  0  0  0  0  0  0  0  0999 V2000
    0.1397   -0.0278    3.1108 S   0  0  0  0  0  0  0  0  0  0  0  0
    0.6245    1.1337    2.2336 O   0  0  0  0  0  1  0  0  0  0  0  0
    1.1977   -0.7605    3.8365 O   0  0  0  0  0  1  0  0  0  0  0  0
   -0.7534   -0.9031    2.2123 O   0  0  0  0  0  1  0  0  0  0  0  0
   -0.9653    0.6931    4.3336 C   0  0  0  0  0  0  0  0  0  0  0  0
   -1.3645   -0.1339    4.9484 H   0  0  0  0  0  0  0  0  0  0  0  0
   -1.7810    1.2263    3.8126 H   0  0  0  0  0  0  0  0  0  0  0  0
   -0.3694    1.3833    4.9582 H   0  0  0  0  0  0  0  0  0  0  0  0
  1  3  1  0  0  0  0
  1  5  1  0  0  0  0
  2  1  1  0  0  0  0
  4  1  1  0  0  0  0
  5  6  1  0  0  0  0
  5  8  1  0  0  0  0
  7  5  1  0  0  0  0
M  END
