1,4
 OpenBabel05122313063D

 46 47  0  0  1  0  0  0  0  0999 V2000
    2.0244    0.1955   -0.1093 O   0  5  0  0  0  0  0  0  0  0  0  0
    3.4558   -1.6341    0.2532 C   0  0  0  0  0  0  0  0  0  0  0  0
   -0.3527   -1.6643   -0.3548 C   0  0  1  0  0  3  0  0  0  0  0  0
   -0.8285   -0.4855   -0.5444 O   0  0  0  0  0  1  0  0  0  0  0  0
    2.0861   -1.0876   -0.0200 C   0  0  0  0  0  0  0  0  0  0  0  0
   -2.1606   -2.9772    0.7921 C   0  0  0  0  0  0  0  0  0  0  0  0
    4.1236   -1.2367    1.4442 C   0  0  0  0  0  0  0  0  0  0  0  0
    4.0829   -2.5117   -0.6653 C   0  0  0  0  0  0  0  0  0  0  0  0
    6.0546   -2.6209    0.8038 C   0  0  0  0  0  0  0  0  0  0  0  0
   -3.4194   -4.7186   -0.4059 C   0  0  0  0  0  0  0  0  0  0  0  0
    5.3777   -2.9823   -0.3718 C   0  0  0  0  0  0  0  0  0  0  0  0
    5.8744   -3.6513   -1.0937 H   0  0  0  0  0  0  0  0  0  0  0  0
   -2.6325   -4.4734   -1.5467 C   0  0  0  0  0  0  0  0  0  0  0  0
   -2.8199   -5.0518   -2.4664 H   0  0  0  0  0  0  0  0  0  0  0  0
   -3.1660   -3.9595    0.7516 C   0  0  0  0  0  0  0  0  0  0  0  0
   -3.7726   -4.1333    1.6557 H   0  0  0  0  0  0  0  0  0  0  0  0
    3.4164   -2.9417   -1.9521 C   0  0  0  0  0  0  0  0  0  0  0  0
    2.7361   -3.8053   -1.7913 H   0  0  0  0  0  0  0  0  0  0  0  0
    4.1721   -3.2574   -2.6976 H   0  0  0  0  0  0  0  0  0  0  0  0
    2.8044   -2.1337   -2.3974 H   0  0  0  0  0  0  0  0  0  0  0  0
   -1.9190   -2.1605    2.0360 C   0  0  0  0  0  0  0  0  0  0  0  0
   -2.5304   -2.5226    2.8837 H   0  0  0  0  0  0  0  0  0  0  0  0
   -2.1722   -1.0950    1.8636 H   0  0  0  0  0  0  0  0  0  0  0  0
   -0.8507   -2.1886    2.3339 H   0  0  0  0  0  0  0  0  0  0  0  0
    7.4390   -3.1378    1.1049 C   0  0  0  0  0  0  0  0  0  0  0  0
    7.7975   -3.8310    0.3197 H   0  0  0  0  0  0  0  0  0  0  0  0
    7.4654   -3.6777    2.0744 H   0  0  0  0  0  0  0  0  0  0  0  0
    8.1706   -2.3063    1.1833 H   0  0  0  0  0  0  0  0  0  0  0  0
    0.9993   -1.9892   -0.1134 C   0  0  0  0  0  0  0  0  0  0  0  0
    1.2269   -3.0535    0.0361 H   0  0  0  0  0  0  0  0  0  0  0  0
   -1.6117   -3.5052   -1.5509 C   0  0  0  0  0  0  0  0  0  0  0  0
   -4.4832   -5.7884   -0.4130 C   0  0  0  0  0  0  0  0  0  0  0  0
   -4.0687   -6.7656   -0.0827 H   0  0  0  0  0  0  0  0  0  0  0  0
   -4.9045   -5.9407   -1.4265 H   0  0  0  0  0  0  0  0  0  0  0  0
   -5.3163   -5.5417    0.2749 H   0  0  0  0  0  0  0  0  0  0  0  0
    3.4759   -0.2988    2.4341 C   0  0  0  0  0  0  0  0  0  0  0  0
    3.4427    0.7388    2.0457 H   0  0  0  0  0  0  0  0  0  0  0  0
    4.0279   -0.2938    3.3934 H   0  0  0  0  0  0  0  0  0  0  0  0
    2.4235   -0.5829    2.6394 H   0  0  0  0  0  0  0  0  0  0  0  0
   -1.3824   -2.7598   -0.3707 C   0  0  0  0  0  0  0  0  0  0  0  0
    5.4051   -1.7493    1.6993 C   0  0  0  0  0  0  0  0  0  0  0  0
    5.9158   -1.4557    2.6313 H   0  0  0  0  0  0  0  0  0  0  0  0
   -0.7889   -3.2509   -2.7908 C   0  0  0  0  0  0  0  0  0  0  0  0
   -0.8464   -2.1873   -3.1015 H   0  0  0  0  0  0  0  0  0  0  0  0
   -1.1296   -3.8769   -3.6377 H   0  0  0  0  0  0  0  0  0  0  0  0
    0.2860   -3.4641   -2.6158 H   0  0  0  0  0  0  0  0  0  0  0  0
  1  5  1  0  0  0  0
  2  7  1  0  0  0  0
  3  4  1  1  0  0  0
  3 29  1  0  0  0  0
  5  2  1  0  0  0  0
  6 21  1  0  0  0  0
  7 41  2  0  0  0  0
  7 36  1  0  0  0  0
  8 11  1  0  0  0  0
  8  2  2  0  0  0  0
  9 25  1  0  0  0  0
  9 41  1  0  0  0  0
 10 15  2  0  0  0  0
 11  9  2  0  0  0  0
 12 11  1  0  0  0  0
 13 10  1  0  0  0  0
 14 13  1  0  0  0  0
 15  6  1  0  0  0  0
 15 16  1  0  0  0  0
 17 18  1  0  0  0  0
 17  8  1  0  0  0  0
 19 17  1  0  0  0  0
 20 17  1  0  0  0  0
 21 24  1  0  0  0  0
 21 22  1  0  0  0  0
 23 21  1  0  0  0  0
 25 28  1  0  0  0  0
 25 27  1  0  0  0  0
 26 25  1  0  0  0  0
 29  5  2  0  0  0  0
 29 30  1  0  0  0  0
 31 13  2  0  0  0  0
 31 40  1  0  0  0  0
 32 10  1  0  0  0  0
 32 33  1  0  0  0  0
 32 35  1  0  0  0  0
 34 32  1  0  0  0  0
 36 39  1  0  0  0  0
 36 38  1  0  0  0  0
 37 36  1  0  0  0  0
 40  3  1  0  0  0  0
 40  6  2  0  0  0  0
 41 42  1  0  0  0  0
 43 46  1  0  0  0  0
 43 31  1  0  0  0  0
 44 43  1  0  0  0  0
 45 43  1  0  0  0  0
M  CHG  1   1  -1
M  END
