2,3
 OpenBabel05122313063D

 49 50  0  0  0  0  0  0  0  0999 V2000
    1.3100    3.0155   -1.0877 Si  0  0  0  0  0  0  0  0  0  0  0  0
   -1.1224    1.0190   -0.9451 O   0  5  0  0  0  0  0  0  0  0  0  0
    1.0898    0.2599    0.4249 O   0  5  0  0  0  0  0  0  0  0  0  0
   -1.3661    2.1732   -0.2471 C   0  0  0  0  0  0  0  0  0  0  0  0
   -0.3544    3.1636   -0.1826 C   0  0  0  0  0  0  0  0  0  0  0  0
   -0.6310    4.3311    0.5629 C   0  0  0  0  0  0  0  0  0  0  0  0
    0.1318    5.1214    0.6363 H   0  0  0  0  0  0  0  0  0  0  0  0
   -1.8591    4.5085    1.2124 C   0  0  0  0  0  0  0  0  0  0  0  0
   -2.0514    5.4225    1.7943 H   0  0  0  0  0  0  0  0  0  0  0  0
   -2.8491    3.5207    1.1086 C   0  0  0  0  0  0  0  0  0  0  0  0
   -3.8167    3.6728    1.6086 H   0  0  0  0  0  0  0  0  0  0  0  0
   -2.6334    2.3386    0.3780 C   0  0  0  0  0  0  0  0  0  0  0  0
   -3.7131    1.2836    0.1941 C   0  0  0  0  0  0  0  0  0  0  0  0
   -3.2133    0.2902    0.2437 H   0  0  0  0  0  0  0  0  0  0  0  0
   -4.3220    1.3824   -1.2164 C   0  0  0  0  0  0  0  0  0  0  0  0
   -4.8411    2.3544   -1.3491 H   0  0  0  0  0  0  0  0  0  0  0  0
   -5.0546    0.5672   -1.3843 H   0  0  0  0  0  0  0  0  0  0  0  0
   -3.5368    1.2956   -1.9919 H   0  0  0  0  0  0  0  0  0  0  0  0
   -4.7975    1.3013    1.2751 C   0  0  0  0  0  0  0  0  0  0  0  0
   -4.3657    1.2436    2.2948 H   0  0  0  0  0  0  0  0  0  0  0  0
   -5.4784    0.4364    1.1442 H   0  0  0  0  0  0  0  0  0  0  0  0
   -5.4219    2.2172    1.2199 H   0  0  0  0  0  0  0  0  0  0  0  0
    2.2930    0.8474    0.6306 C   0  0  0  0  0  0  0  0  0  0  0  0
    2.5843    2.0720   -0.0309 C   0  0  0  0  0  0  0  0  0  0  0  0
    3.8685    2.6231    0.1576 C   0  0  0  0  0  0  0  0  0  0  0  0
    4.1297    3.5701   -0.3386 H   0  0  0  0  0  0  0  0  0  0  0  0
    4.8257    1.9970    0.9699 C   0  0  0  0  0  0  0  0  0  0  0  0
    5.8234    2.4437    1.0963 H   0  0  0  0  0  0  0  0  0  0  0  0
    4.4952    0.8096    1.6338 C   0  0  0  0  0  0  0  0  0  0  0  0
    5.2388    0.3288    2.2893 H   0  0  0  0  0  0  0  0  0  0  0  0
    3.2288    0.2137    1.4911 C   0  0  0  0  0  0  0  0  0  0  0  0
    2.8764   -1.0554    2.2509 C   0  0  0  0  0  0  0  0  0  0  0  0
    1.8391   -1.3192    1.9739 H   0  0  0  0  0  0  0  0  0  0  0  0
    3.7747   -2.2354    1.8474 C   0  0  0  0  0  0  0  0  0  0  0  0
    3.7237   -2.4193    0.7556 H   0  0  0  0  0  0  0  0  0  0  0  0
    3.4586   -3.1645    2.3659 H   0  0  0  0  0  0  0  0  0  0  0  0
    4.8373   -2.0517    2.1110 H   0  0  0  0  0  0  0  0  0  0  0  0
    2.8960   -0.8227    3.7710 C   0  0  0  0  0  0  0  0  0  0  0  0
    3.9119   -0.5606    4.1332 H   0  0  0  0  0  0  0  0  0  0  0  0
    2.5754   -1.7377    4.3116 H   0  0  0  0  0  0  0  0  0  0  0  0
    2.2144    0.0027    4.0595 H   0  0  0  0  0  0  0  0  0  0  0  0
    1.1047    2.2730   -2.8164 C   0  0  0  0  0  0  0  0  0  0  0  0
    0.6879    1.2501   -2.8051 H   0  0  0  0  0  0  0  0  0  0  0  0
    2.0814    2.2530   -3.3412 H   0  0  0  0  0  0  0  0  0  0  0  0
    0.4076    2.9063   -3.4029 H   0  0  0  0  0  0  0  0  0  0  0  0
    1.9792    4.7720   -1.3354 C   0  0  0  0  0  0  0  0  0  0  0  0
    1.2157    5.3945   -1.8448 H   0  0  0  0  0  0  0  0  0  0  0  0
    2.8823    4.7586   -1.9791 H   0  0  0  0  0  0  0  0  0  0  0  0
    2.2492    5.2696   -0.3825 H   0  0  0  0  0  0  0  0  0  0  0  0
  1  5  1  0  0  0  0
  1 24  1  0  0  0  0
  2  4  1  0  0  0  0
  3 23  1  0  0  0  0
  4  5  2  0  0  0  0
  4 12  1  0  0  0  0
  5  6  1  0  0  0  0
  6  7  1  0  0  0  0
  6  8  2  0  0  0  0
  8  9  1  0  0  0  0
 10  8  1  0  0  0  0
 10 11  1  0  0  0  0
 12 10  2  0  0  0  0
 13 14  1  0  0  0  0
 13 12  1  0  0  0  0
 13 19  1  0  0  0  0
 15 13  1  0  0  0  0
 16 15  1  0  0  0  0
 17 15  1  0  0  0  0
 18 15  1  0  0  0  0
 19 20  1  0  0  0  0
 21 19  1  0  0  0  0
 22 19  1  0  0  0  0
 23 31  1  0  0  0  0
 24 25  1  0  0  0  0
 24 23  2  0  0  0  0
 25 27  2  0  0  0  0
 26 25  1  0  0  0  0
 27 28  1  0  0  0  0
 27 29  1  0  0  0  0
 29 30  1  0  0  0  0
 31 29  2  0  0  0  0
 31 32  1  0  0  0  0
 32 38  1  0  0  0  0
 33 32  1  0  0  0  0
 34 37  1  0  0  0  0
 34 32  1  0  0  0  0
 34 36  1  0  0  0  0
 35 34  1  0  0  0  0
 38 41  1  0  0  0  0
 38 39  1  0  0  0  0
 38 40  1  0  0  0  0
 42 43  1  0  0  0  0
 42  1  1  0  0  0  0
 44 42  1  0  0  0  0
 45 42  1  0  0  0  0
 46  1  1  0  0  0  0
 46 49  1  0  0  0  0
 47 46  1  0  0  0  0
 48 46  1  0  0  0  0
M  CHG  2   2  -1   3  -1
M  END
