3,4
 OpenBabel05122313063D

 40 40  0  0  0  0  0  0  0  0999 V2000
    2.0630   -4.0289    0.2050 P   0  0  0  0  0  0  0  0  0  0  0  0
    4.8780    2.5633    0.6119 P   0  0  0  0  0  0  0  0  0  0  0  0
    0.9645   -1.4543   -1.0660 O   0  5  0  0  0  0  0  0  0  0  0  0
    1.4494    1.1522   -1.0037 O   0  5  0  0  0  0  0  0  0  0  0  0
    0.5595   -4.1657    0.2355 O   0  0  0  0  0  0  0  0  0  0  0  0
    2.8645   -5.4420    0.4438 O   0  0  0  0  0  0  0  0  0  0  0  0
    2.6923   -3.1349    1.4272 O   0  0  0  0  0  0  0  0  0  0  0  0
    6.2751    2.0686    0.8288 O   0  0  0  0  0  0  0  0  0  0  0  0
    3.8556    1.9490    1.7411 O   0  0  0  0  0  0  0  0  0  0  0  0
    4.6832    4.2037    0.7251 O   0  0  0  0  0  0  0  0  0  0  0  0
    2.2414   -1.0630   -1.2112 C   0  0  0  0  0  0  0  0  0  0  0  0
    3.2721   -2.0164   -1.3364 C   0  0  0  0  0  0  0  0  0  0  0  0
    4.5951   -1.5427   -1.4000 C   0  0  0  0  0  0  0  0  0  0  0  0
    4.8751   -0.1663   -1.3355 C   0  0  0  0  0  0  0  0  0  0  0  0
    3.8464    0.7907   -1.2161 C   0  0  0  0  0  0  0  0  0  0  0  0
    2.5115    0.3310   -1.1590 C   0  0  0  0  0  0  0  0  0  0  0  0
    2.8985   -3.4758   -1.3384 C   0  0  0  0  0  0  0  0  0  0  0  0
    4.1339    2.2570   -1.0285 C   0  0  0  0  0  0  0  0  0  0  0  0
    2.4514   -6.2528    1.5461 C   0  0  0  0  0  0  0  0  0  0  0  0
    2.0155   -1.9957    1.9664 C   0  0  0  0  0  0  0  0  0  0  0  0
    5.4958    4.9011    1.6745 C   0  0  0  0  0  0  0  0  0  0  0  0
    2.5130    2.4262    1.8667 C   0  0  0  0  0  0  0  0  0  0  0  0
    5.4224   -2.2648   -1.4770 H   0  0  0  0  0  0  0  0  0  0  0  0
    5.9190    0.1806   -1.3334 H   0  0  0  0  0  0  0  0  0  0  0  0
    3.7948   -4.1171   -1.4382 H   0  0  0  0  0  0  0  0  0  0  0  0
    2.1902   -3.7214   -2.1578 H   0  0  0  0  0  0  0  0  0  0  0  0
    3.2102    2.8605   -1.1222 H   0  0  0  0  0  0  0  0  0  0  0  0
    4.8752    2.6418   -1.7585 H   0  0  0  0  0  0  0  0  0  0  0  0
    1.3442   -6.3281    1.5895 H   0  0  0  0  0  0  0  0  0  0  0  0
    2.8233   -5.8324    2.5051 H   0  0  0  0  0  0  0  0  0  0  0  0
    2.8855   -7.2598    1.3963 H   0  0  0  0  0  0  0  0  0  0  0  0
    0.9364   -2.0126    1.7123 H   0  0  0  0  0  0  0  0  0  0  0  0
    2.4729   -1.0641    1.5725 H   0  0  0  0  0  0  0  0  0  0  0  0
    2.1353   -2.0213    3.0680 H   0  0  0  0  0  0  0  0  0  0  0  0
    6.4845    4.4080    1.7807 H   0  0  0  0  0  0  0  0  0  0  0  0
    5.0023    4.9359    2.6702 H   0  0  0  0  0  0  0  0  0  0  0  0
    5.6330    5.9360    1.3042 H   0  0  0  0  0  0  0  0  0  0  0  0
    1.8903    2.1052    1.0044 H   0  0  0  0  0  0  0  0  0  0  0  0
    2.4867    3.5342    1.9502 H   0  0  0  0  0  0  0  0  0  0  0  0
    2.1000    1.9838    2.7941 H   0  0  0  0  0  0  0  0  0  0  0  0
  1  5  2  0  0  0  0
  1  6  1  0  0  0  0
  1  7  1  0  0  0  0
  2 10  1  0  0  0  0
  2  8  2  0  0  0  0
  2  9  1  0  0  0  0
  6 19  1  0  0  0  0
  7 20  1  0  0  0  0
  9 22  1  0  0  0  0
 10 21  1  0  0  0  0
 11 16  1  0  0  0  0
 11  3  1  0  0  0  0
 12 11  2  0  0  0  0
 13 12  1  0  0  0  0
 13 14  2  0  0  0  0
 14 24  1  0  0  0  0
 14 15  1  0  0  0  0
 15 16  2  0  0  0  0
 15 18  1  0  0  0  0
 16  4  1  0  0  0  0
 17 12  1  0  0  0  0
 17  1  1  0  0  0  0
 18  2  1  0  0  0  0
 19 29  1  0  0  0  0
 19 30  1  0  0  0  0
 20 34  1  0  0  0  0
 21 35  1  0  0  0  0
 21 36  1  0  0  0  0
 22 39  1  0  0  0  0
 22 40  1  0  0  0  0
 23 13  1  0  0  0  0
 25 17  1  0  0  0  0
 26 17  1  0  0  0  0
 27 18  1  0  0  0  0
 28 18  1  0  0  0  0
 31 19  1  0  0  0  0
 32 20  1  0  0  0  0
 33 20  1  0  0  0  0
 37 21  1  0  0  0  0
 38 22  1  0  0  0  0
M  CHG  2   3  -1   4  -1
M  END
