1,2
 OpenBabel05122313063D

 15 15  0  0  0  0  0  0  0  0999 V2000
    1.8856    0.4039   -1.1914 O   0  5  0  0  0  0  0  0  0  0  0  0
    1.5234    1.7432    0.5471 O   0  5  0  0  0  0  0  0  0  0  0  0
    7.3777    3.6858   -1.1844 O   0  0  0  0  0  0  0  0  0  0  0  0
    2.2668    1.3459   -0.4090 C   0  0  0  0  0  3  0  0  0  0  0  0
    3.6091    1.9689   -0.6048 C   0  0  0  0  0  0  0  0  0  0  0  0
    4.4751    1.5130   -1.6209 C   0  0  0  0  0  0  0  0  0  0  0  0
    5.7327    2.0913   -1.8049 C   0  0  0  0  0  0  0  0  0  0  0  0
    6.1456    3.1497   -0.9684 C   0  0  0  0  0  0  0  0  0  0  0  0
    5.2855    3.6138    0.0496 C   0  0  0  0  0  0  0  0  0  0  0  0
    4.0298    3.0251    0.2271 C   0  0  0  0  0  0  0  0  0  0  0  0
    7.5148    4.4044   -0.5392 H   0  0  0  0  0  0  0  0  0  0  0  0
    4.1337    0.6884   -2.2630 H   0  0  0  0  0  0  0  0  0  0  0  0
    6.4177    1.7441   -2.5920 H   0  0  0  0  0  0  0  0  0  0  0  0
    5.6097    4.4431    0.7011 H   0  0  0  0  0  0  0  0  0  0  0  0
    3.3441    3.3728    1.0133 H   0  0  0  0  0  0  0  0  0  0  0  0
  1  4  1  0  0  0  0
  3  8  1  0  0  0  0
  3 11  1  0  0  0  0
  4  2  1  0  0  0  0
  5  4  1  0  0  0  0
  5 10  1  0  0  0  0
  6  5  2  0  0  0  0
  7  6  1  0  0  0  0
  7  8  2  0  0  0  0
  8  9  1  0  0  0  0
  9 10  2  0  0  0  0
  9 14  1  0  0  0  0
 10 15  1  0  0  0  0
 12  6  1  0  0  0  0
 13  7  1  0  0  0  0
M  CHG  2   1  -1   2  -1
M  END
