1,4
 OpenBabel05122313063D

 15 14  0  0  0  0  0  0  0  0999 V2000
    0.6878   -1.1466   -0.9359 O   0  5  0  0  0  0  0  0  0  0  0  0
    2.7998   -1.5442   -1.4532 O   0  0  0  0  0  0  0  0  0  0  0  0
    2.5256    2.5272   -0.0763 O   0  5  0  0  0  0  0  0  0  0  0  0
    0.5092    1.6210   -0.0236 O   0  0  0  0  0  0  0  0  0  0  0  0
    1.9979   -0.9120   -0.7857 C   0  0  0  0  0  0  0  0  0  0  0  0
    2.4342    0.1233    0.2745 C   0  0  0  0  0  0  0  0  0  0  0  0
    1.8428    1.5229    0.0270 C   0  0  0  0  0  0  0  0  0  0  0  0
    3.9553    0.1615    0.4409 C   0  0  0  0  0  0  0  0  0  0  0  0
    4.5184   -1.0703    1.1493 C   0  0  0  0  0  0  0  0  0  0  0  0
    1.9587   -0.1965    1.2315 H   0  0  0  0  0  0  0  0  0  0  0  0
    4.4110    0.2649   -0.5645 H   0  0  0  0  0  0  0  0  0  0  0  0
    4.2100    1.0866    0.9952 H   0  0  0  0  0  0  0  0  0  0  0  0
    4.0846   -1.1867    2.1659 H   0  0  0  0  0  0  0  0  0  0  0  0
    4.3034   -1.9914    0.5727 H   0  0  0  0  0  0  0  0  0  0  0  0
    5.6183   -0.9956    1.2659 H   0  0  0  0  0  0  0  0  0  0  0  0
  1  5  1  0  0  0  0
  2  5  2  0  0  0  0
  3  7  1  0  0  0  0
  4  7  2  0  0  0  0
  5  6  1  0  0  0  0
  6  8  1  0  0  0  0
  6 10  1  0  0  0  0
  7  6  1  0  0  0  0
  8 12  1  0  0  0  0
  8  9  1  0  0  0  0
  9 15  1  0  0  0  0
  9 13  1  0  0  0  0
 11  8  1  0  0  0  0
 14  9  1  0  0  0  0
M  CHG  2   1  -1   3  -1
M  END
