3,5
 OpenBabel05122313063D

 14 14  0  0  0  0  0  0  0  0999 V2000
   -1.6054    3.0472    0.2558 Cl  0  0  0  0  0  0  0  0  0  0  0  0
   -5.5821   -0.6235   -0.2236 Cl  0  0  0  0  0  0  0  0  0  0  0  0
    0.6552   -1.7127   -0.9719 O   0  5  0  0  0  0  0  0  0  0  0  0
   -1.0006   -3.2286   -0.8731 O   0  0  0  0  0  0  0  0  0  0  0  0
    0.1632    0.7665   -0.2061 O   0  5  0  0  0  0  0  0  0  0  0  0
   -0.6180   -2.0729   -0.7686 C   0  0  0  0  0  0  0  0  0  0  0  0
   -1.5551   -0.9340   -0.4582 C   0  0  0  0  0  0  0  0  0  0  0  0
   -1.1084    0.4038   -0.2232 C   0  0  0  0  0  0  0  0  0  0  0  0
   -2.1141    1.3988   -0.0165 C   0  0  0  0  0  0  0  0  0  0  0  0
   -3.4753    1.0937   -0.0186 C   0  0  0  0  0  0  0  0  0  0  0  0
   -4.2174    1.8845    0.1526 H   0  0  0  0  0  0  0  0  0  0  0  0
   -3.8788   -0.2381   -0.2369 C   0  0  0  0  0  0  0  0  0  0  0  0
   -2.9316   -1.2378   -0.4608 C   0  0  0  0  0  0  0  0  0  0  0  0
   -3.2239   -2.2811   -0.6433 H   0  0  0  0  0  0  0  0  0  0  0  0
  3  6  1  0  0  0  0
  4  6  2  0  0  0  0
  6  7  1  0  0  0  0
  7  8  1  0  0  0  0
  8  5  1  0  0  0  0
  8  9  2  0  0  0  0
  9  1  1  0  0  0  0
 10  9  1  0  0  0  0
 10 11  1  0  0  0  0
 12  2  1  0  0  0  0
 12 10  2  0  0  0  0
 13  7  2  0  0  0  0
 13 12  1  0  0  0  0
 14 13  1  0  0  0  0
M  CHG  2   3  -1   5  -1
M  END
