1,2
 OpenBabel05122313063D

 21 21  0  0  1  0  0  0  0  0999 V2000
    0.5835    1.6354   -0.7717 O   0  5  0  0  0  0  0  0  0  0  0  0
   -1.1159   -0.0202    0.4730 O   0  0  0  0  0  1  0  0  0  0  0  0
   -3.7365   -0.7059   -1.1974 O   0  0  0  0  0  0  0  0  0  0  0  0
   -4.3782   -1.7586    0.7123 O   0  0  0  0  0  0  0  0  0  0  0  0
   -2.8366    1.4855    0.3172 N   0  0  0  0  0  0  0  0  0  0  0  0
   -0.6344    2.0636   -0.5651 C   0  0  0  0  0  0  0  0  0  0  0  0
   -1.5285    1.1373    0.1054 C   0  0  2  0  0  3  0  0  0  0  0  0
   -3.3466    2.7048   -0.0961 C   0  0  0  0  0  0  0  0  0  0  0  0
   -4.4065    2.8825    0.1219 H   0  0  0  0  0  0  0  0  0  0  0  0
   -2.5170    3.6084   -0.7256 C   0  0  0  0  0  0  0  0  0  0  0  0
   -2.9315    4.5776   -1.0356 H   0  0  0  0  0  0  0  0  0  0  0  0
   -1.1555    3.3000   -0.9735 C   0  0  0  0  0  0  0  0  0  0  0  0
   -0.4944    4.0138   -1.4848 H   0  0  0  0  0  0  0  0  0  0  0  0
   -3.6746    0.4758    0.9415 C   0  0  0  0  0  0  0  0  0  0  0  0
   -4.6497    0.9267    1.2093 H   0  0  0  0  0  0  0  0  0  0  0  0
   -3.1964    0.1027    1.8677 H   0  0  0  0  0  0  0  0  0  0  0  0
   -3.9112   -0.7091    0.0023 C   0  0  0  0  0  0  0  0  0  0  0  0
   -4.6922   -2.9306   -0.0538 C   0  0  0  0  0  0  0  0  0  0  0  0
   -5.1783   -3.6331    0.6458 H   0  0  0  0  0  0  0  0  0  0  0  0
   -3.7683   -3.3817   -0.4684 H   0  0  0  0  0  0  0  0  0  0  0  0
   -5.3693   -2.6830   -0.8953 H   0  0  0  0  0  0  0  0  0  0  0  0
  1  6  1  0  0  0  0
  3 17  2  0  0  0  0
  5 14  1  0  0  0  0
  6  7  1  0  0  0  0
  7  5  1  0  0  0  0
  7  2  1  6  0  0  0
  8  9  1  0  0  0  0
  8  5  1  0  0  0  0
 10  8  2  0  0  0  0
 11 10  1  0  0  0  0
 12 10  1  0  0  0  0
 12  6  2  0  0  0  0
 13 12  1  0  0  0  0
 14 15  1  0  0  0  0
 14 16  1  0  0  0  0
 17  4  1  0  0  0  0
 17 14  1  0  0  0  0
 18 19  1  0  0  0  0
 18  4  1  0  0  0  0
 20 18  1  0  0  0  0
 21 18  1  0  0  0  0
M  CHG  1   1  -1
M  END
