4,5
 OpenBabel05122313063D

 16 16  0  0  0  0  0  0  0  0999 V2000
    4.3144   -2.1767    1.8569 N   0  0  0  0  0  0  0  0  0  0  0  0
    4.8521   -2.6857    2.5561 H   0  0  0  0  0  0  0  0  0  0  0  0
    3.2884   -2.0996    1.9438 H   0  0  0  0  0  0  0  0  0  0  0  0
    1.9791   -1.4856    0.8514 O   0  5  0  0  0  0  0  0  0  0  0  0
    1.8190   -0.9756   -1.3142 O   0  5  0  0  0  0  0  0  0  0  0  0
    2.5055   -1.4029   -0.3261 C   0  0  0  0  0  3  0  0  0  0  0  0
    3.9321   -1.7750   -0.5258 C   0  0  0  0  0  0  0  0  0  0  0  0
    4.7746   -2.1726    0.5666 C   0  0  0  0  0  0  0  0  0  0  0  0
    6.1205   -2.5271    0.2736 C   0  0  0  0  0  0  0  0  0  0  0  0
    6.7763   -2.8379    1.1028 H   0  0  0  0  0  0  0  0  0  0  0  0
    6.6133   -2.4849   -1.0301 C   0  0  0  0  0  0  0  0  0  0  0  0
    7.6610   -2.7691   -1.2172 H   0  0  0  0  0  0  0  0  0  0  0  0
    5.7882   -2.0859   -2.1013 C   0  0  0  0  0  0  0  0  0  0  0  0
    6.1799   -2.0543   -3.1283 H   0  0  0  0  0  0  0  0  0  0  0  0
    4.4630   -1.7387   -1.8338 C   0  0  0  0  0  0  0  0  0  0  0  0
    3.7785   -1.4271   -2.6362 H   0  0  0  0  0  0  0  0  0  0  0  0
  1  3  1  0  0  0  0
  1  2  1  0  0  0  0
  5  6  1  0  0  0  0
  6  4  1  0  0  0  0
  7  6  1  0  0  0  0
  7  8  1  0  0  0  0
  8  1  1  0  0  0  0
  9  8  2  0  0  0  0
  9 10  1  0  0  0  0
 11  9  1  0  0  0  0
 12 11  1  0  0  0  0
 13 15  1  0  0  0  0
 13 11  2  0  0  0  0
 14 13  1  0  0  0  0
 15  7  2  0  0  0  0
 16 15  1  0  0  0  0
M  CHG  2   4  -1   5  -1
M  END
