3,7
 OpenBabel05122313063D

 30 31  0  0  0  0  0  0  0  0999 V2000
   -4.5676   -0.2173   -0.1343 S   0  0  0  0  0  0  0  0  0  0  0  0
   -3.7844    0.9408    1.4526 S   0  0  0  0  0  0  0  0  0  0  0  0
    0.7121   -1.1505   -0.1084 O   0  5  0  0  0  0  0  0  0  0  0  0
    1.0612   -3.3353   -0.5109 O   0  0  0  0  0  0  0  0  0  0  0  0
   -0.9351   -4.9239   -0.6656 O   0  0  0  0  0  0  0  0  0  0  0  0
    0.0103   -4.5513   -0.6513 H   0  0  0  0  0  0  0  0  0  0  0  0
    1.4432    1.5084    0.5181 O   0  5  0  0  0  0  0  0  0  0  0  0
    1.7825    3.4880   -0.5008 O   0  0  0  0  0  0  0  0  0  0  0  0
   -0.2064    4.9257   -1.1733 O   0  0  0  0  0  0  0  0  0  0  0  0
    0.7419    4.5869   -1.0242 H   0  0  0  0  0  0  0  0  0  0  0  0
    0.2827   -2.3630   -0.3458 C   0  0  0  0  0  0  0  0  0  0  0  0
   -1.1861   -2.5346   -0.3945 C   0  0  0  0  0  0  0  0  0  0  0  0
   -1.7230   -3.8544   -0.5343 C   0  0  0  0  0  0  0  0  0  0  0  0
   -3.1293   -4.0142   -0.5181 C   0  0  0  0  0  0  0  0  0  0  0  0
   -3.5363   -5.0318   -0.6062 H   0  0  0  0  0  0  0  0  0  0  0  0
   -3.9694   -2.9106   -0.3651 C   0  0  0  0  0  0  0  0  0  0  0  0
   -5.0599   -3.0551   -0.3197 H   0  0  0  0  0  0  0  0  0  0  0  0
   -3.4396   -1.6003   -0.2642 C   0  0  0  0  0  0  0  0  0  0  0  0
   -2.0520   -1.4290   -0.2947 C   0  0  0  0  0  0  0  0  0  0  0  0
   -1.6102   -0.4278   -0.2288 H   0  0  0  0  0  0  0  0  0  0  0  0
    1.0145    2.6399    0.0058 C   0  0  0  0  0  0  0  0  0  0  0  0
   -0.4485    2.8590    0.0532 C   0  0  0  0  0  0  0  0  0  0  0  0
   -0.9884    4.0181   -0.5926 C   0  0  0  0  0  0  0  0  0  0  0  0
   -2.3953    4.1906   -0.6158 C   0  0  0  0  0  0  0  0  0  0  0  0
   -2.7985    5.0812   -1.1190 H   0  0  0  0  0  0  0  0  0  0  0  0
   -3.2320    3.2565   -0.0118 C   0  0  0  0  0  0  0  0  0  0  0  0
   -4.3233    3.3965   -0.0342 H   0  0  0  0  0  0  0  0  0  0  0  0
   -2.7033    2.1125    0.6390 C   0  0  0  0  0  0  0  0  0  0  0  0
   -1.3147    1.9326    0.6690 C   0  0  0  0  0  0  0  0  0  0  0  0
   -0.8740    1.0580    1.1674 H   0  0  0  0  0  0  0  0  0  0  0  0
  1  2  1  0  0  0  0
  4 11  2  0  0  0  0
  5  6  1  0  0  0  0
  5 13  1  0  0  0  0
  8 21  2  0  0  0  0
  9 10  1  0  0  0  0
  9 23  1  0  0  0  0
 11  3  1  0  0  0  0
 12 11  1  0  0  0  0
 12 19  1  0  0  0  0
 13 14  1  0  0  0  0
 13 12  2  0  0  0  0
 14 16  2  0  0  0  0
 15 14  1  0  0  0  0
 16 17  1  0  0  0  0
 16 18  1  0  0  0  0
 18  1  1  0  0  0  0
 19 18  2  0  0  0  0
 19 20  1  0  0  0  0
 21 22  1  0  0  0  0
 21  7  1  0  0  0  0
 22 29  1  0  0  0  0
 23 22  2  0  0  0  0
 24 23  1  0  0  0  0
 24 26  2  0  0  0  0
 25 24  1  0  0  0  0
 26 28  1  0  0  0  0
 27 26  1  0  0  0  0
 28 29  2  0  0  0  0
 28  2  1  0  0  0  0
 29 30  1  0  0  0  0
M  CHG  2   3  -1   7  -1
M  END
