1,2
 OpenBabel05122313063D

 18 19  0  0  0  0  0  0  0  0999 V2000
   -0.7468   -1.3308   -0.0002 O   0  5  0  0  0  0  0  0  0  0  0  0
   -0.7468    1.3308    0.0002 O   0  5  0  0  0  0  0  0  0  0  0  0
   -1.9455   -0.7240   -0.0002 C   0  0  0  0  0  0  0  0  0  0  0  0
   -3.1507   -1.4244   -0.0004 C   0  0  0  0  0  0  0  0  0  0  0  0
   -4.3897   -0.7259   -0.0002 C   0  0  0  0  0  0  0  0  0  0  0  0
   -5.6438   -1.4079   -0.0004 C   0  0  0  0  0  0  0  0  0  0  0  0
   -6.8435   -0.7112   -0.0002 C   0  0  0  0  0  0  0  0  0  0  0  0
   -6.8435    0.7112    0.0002 C   0  0  0  0  0  0  0  0  0  0  0  0
   -5.6438    1.4079    0.0004 C   0  0  0  0  0  0  0  0  0  0  0  0
   -4.3897    0.7259    0.0002 C   0  0  0  0  0  0  0  0  0  0  0  0
   -3.1507    1.4244    0.0004 C   0  0  0  0  0  0  0  0  0  0  0  0
   -1.9455    0.7240    0.0002 C   0  0  0  0  0  0  0  0  0  0  0  0
   -3.1318   -2.5248   -0.0007 H   0  0  0  0  0  0  0  0  0  0  0  0
   -5.6402   -2.5096   -0.0008 H   0  0  0  0  0  0  0  0  0  0  0  0
   -7.7987   -1.2583   -0.0004 H   0  0  0  0  0  0  0  0  0  0  0  0
   -7.7987    1.2583    0.0004 H   0  0  0  0  0  0  0  0  0  0  0  0
   -5.6402    2.5096    0.0008 H   0  0  0  0  0  0  0  0  0  0  0  0
   -3.1318    2.5248    0.0007 H   0  0  0  0  0  0  0  0  0  0  0  0
  1  3  1  0  0  0  0
  3 12  1  0  0  0  0
  4  5  1  0  0  0  0
  4  3  2  0  0  0  0
  5 10  1  0  0  0  0
  6  5  2  0  0  0  0
  6  7  1  0  0  0  0
  7  8  2  0  0  0  0
  8 16  1  0  0  0  0
  8  9  1  0  0  0  0
  9 17  1  0  0  0  0
 10 11  1  0  0  0  0
 10  9  2  0  0  0  0
 11 18  1  0  0  0  0
 12  2  1  0  0  0  0
 12 11  2  0  0  0  0
 13  4  1  0  0  0  0
 14  6  1  0  0  0  0
 15  7  1  0  0  0  0
M  CHG  2   1  -1   2  -1
M  END
