1,3
 OpenBabel05122313063D

 17 17  0  0  0  0  0  0  0  0999 V2000
   -1.1018    1.3449   -0.9642 O   0  5  0  0  0  0  0  0  0  0  0  0
   -3.1913    2.0469   -1.2127 O   0  0  0  0  0  0  0  0  0  0  0  0
   -1.0555   -1.5584   -0.7441 O   0  5  0  0  0  0  0  0  0  0  0  0
   -3.1255   -2.3433   -0.8892 O   0  0  0  0  0  0  0  0  0  0  0  0
   -4.9914    0.1158    2.5889 O   0  0  0  0  0  0  0  0  0  0  0  0
   -2.4152    1.1852   -0.8210 C   0  0  0  0  0  0  0  0  0  0  0  0
   -2.3753   -1.4140   -0.6282 C   0  0  0  0  0  0  0  0  0  0  0  0
   -2.9013   -0.0773   -0.0763 C   0  0  0  0  0  0  0  0  0  0  0  0
   -2.6962    0.1038    1.4759 C   0  0  0  0  0  0  0  0  0  0  0  0
   -4.1679    0.6007    1.5507 C   0  0  0  0  0  0  0  0  0  0  0  0
   -4.4263   -0.0346    0.1760 C   0  0  0  0  0  0  0  0  0  0  0  0
   -4.8340    0.6748    3.3707 H   0  0  0  0  0  0  0  0  0  0  0  0
   -1.8730    0.7679    1.8117 H   0  0  0  0  0  0  0  0  0  0  0  0
   -2.6101   -0.8819    1.9755 H   0  0  0  0  0  0  0  0  0  0  0  0
   -4.2053    1.7122    1.4786 H   0  0  0  0  0  0  0  0  0  0  0  0
   -4.8123   -1.0658    0.2834 H   0  0  0  0  0  0  0  0  0  0  0  0
   -5.0241    0.5408   -0.5535 H   0  0  0  0  0  0  0  0  0  0  0  0
  1  6  1  0  0  0  0
  2  6  2  0  0  0  0
  3  7  1  0  0  0  0
  4  7  2  0  0  0  0
  5 12  1  0  0  0  0
  6  8  1  0  0  0  0
  7  8  1  0  0  0  0
  8 11  1  0  0  0  0
  8  9  1  0  0  0  0
  9 10  1  0  0  0  0
  9 13  1  0  0  0  0
  9 14  1  0  0  0  0
 10  5  1  0  0  0  0
 11 16  1  0  0  0  0
 11 10  1  0  0  0  0
 15 10  1  0  0  0  0
 17 11  1  0  0  0  0
M  CHG  2   1  -1   3  -1
M  END
