1,3
 OpenBabel05122313063D

 14 14  0  0  1  0  0  0  0  0999 V2000
    2.4843   -0.4958   -0.6815 O   0  0  0  0  0  1  0  0  0  0  0  0
    2.1092   -2.6933   -1.3161 O   0  0  0  0  0  0  0  0  0  0  0  0
    0.8733   -2.6315   -0.5482 O   0  0  0  0  0  1  0  0  0  0  0  0
    6.9568   -2.3316    0.6825 O   0  0  0  0  0  0  0  0  0  0  0  0
    3.0328   -1.7939   -0.6974 C   0  0  1  0  0  0  0  0  0  0  0  0
    4.2381   -1.7636   -1.6080 C   0  0  0  0  0  0  0  0  0  0  0  0
    5.4997   -1.9131   -1.1515 C   0  0  0  0  0  0  0  0  0  0  0  0
    5.7976   -2.2119    0.2752 C   0  0  0  0  0  0  0  0  0  0  0  0
    4.6251   -2.3777    1.1669 C   0  0  0  0  0  0  0  0  0  0  0  0
    3.3584   -2.2287    0.7159 C   0  0  0  0  0  0  0  0  0  0  0  0
    4.0129   -1.5354   -2.6617 H   0  0  0  0  0  0  0  0  0  0  0  0
    6.3757   -1.8207   -1.8122 H   0  0  0  0  0  0  0  0  0  0  0  0
    4.8515   -2.6490    2.2103 H   0  0  0  0  0  0  0  0  0  0  0  0
    2.4838   -2.3725    1.3696 H   0  0  0  0  0  0  0  0  0  0  0  0
  2  5  1  0  0  0  0
  2  3  1  0  0  0  0
  5  1  1  1  0  0  0
  5 10  1  0  0  0  0
  6  7  2  0  0  0  0
  6  5  1  0  0  0  0
  7  8  1  0  0  0  0
  8  4  2  0  0  0  0
  8  9  1  0  0  0  0
  9 13  1  0  0  0  0
 10  9  2  0  0  0  0
 10 14  1  0  0  0  0
 11  6  1  0  0  0  0
 12  7  1  0  0  0  0
M  END
