1,2
 OpenBabel05122313063D

 34 35  0  0  1  0  0  0  0  0999 V2000
   -2.0641   -0.8860   -0.5087 O   0  0  0  0  0  1  0  0  0  0  0  0
    0.3314    0.5239   -1.3025 O   0  5  0  0  0  0  0  0  0  0  0  0
   -2.6191    0.2150   -0.9348 C   0  0  2  0  0  3  0  0  0  0  0  0
   -1.9241    1.3167   -1.4706 C   0  0  0  0  0  0  0  0  0  0  0  0
   -2.5298    2.1757   -1.7763 H   0  0  0  0  0  0  0  0  0  0  0  0
   -0.5222    1.4412   -1.6239 C   0  0  0  0  0  0  0  0  0  0  0  0
   -4.1021    0.2330   -0.8034 C   0  0  0  0  0  0  0  0  0  0  0  0
   -4.7860   -0.9834   -0.5746 C   0  0  0  0  0  0  0  0  0  0  0  0
   -4.1972   -1.9083   -0.5022 H   0  0  0  0  0  0  0  0  0  0  0  0
   -6.1773   -1.0117   -0.4484 C   0  0  0  0  0  0  0  0  0  0  0  0
   -6.6848   -1.9746   -0.2774 H   0  0  0  0  0  0  0  0  0  0  0  0
   -6.9462    0.1683   -0.5366 C   0  0  0  0  0  0  0  0  0  0  0  0
   -6.2602    1.3817   -0.7491 C   0  0  0  0  0  0  0  0  0  0  0  0
   -6.8315    2.3219   -0.8043 H   0  0  0  0  0  0  0  0  0  0  0  0
   -4.8677    1.4175   -0.8823 C   0  0  0  0  0  0  0  0  0  0  0  0
   -4.3727    2.3891   -1.0231 H   0  0  0  0  0  0  0  0  0  0  0  0
   -8.4486    0.1263   -0.4313 C   0  0  0  0  0  0  0  0  0  0  0  0
   -8.8682    1.1120   -0.1503 H   0  0  0  0  0  0  0  0  0  0  0  0
   -8.7850   -0.6207    0.3153 H   0  0  0  0  0  0  0  0  0  0  0  0
   -8.9061   -0.1611   -1.4028 H   0  0  0  0  0  0  0  0  0  0  0  0
    0.0830    2.6982   -2.1429 C   0  0  0  0  0  0  0  0  0  0  0  0
   -0.6547    3.6797   -2.8387 C   0  0  0  0  0  0  0  0  0  0  0  0
   -1.7235    3.5266   -3.0475 H   0  0  0  0  0  0  0  0  0  0  0  0
   -0.0347    4.8460   -3.3032 C   0  0  0  0  0  0  0  0  0  0  0  0
   -0.6300    5.5925   -3.8524 H   0  0  0  0  0  0  0  0  0  0  0  0
    1.3383    5.0805   -3.0900 C   0  0  0  0  0  0  0  0  0  0  0  0
    2.0735    4.0933   -2.3973 C   0  0  0  0  0  0  0  0  0  0  0  0
    3.1495    4.2486   -2.2178 H   0  0  0  0  0  0  0  0  0  0  0  0
    1.4645    2.9240   -1.9377 C   0  0  0  0  0  0  0  0  0  0  0  0
    2.0450    2.1596   -1.4021 H   0  0  0  0  0  0  0  0  0  0  0  0
    2.0097    6.3352   -3.5853 C   0  0  0  0  0  0  0  0  0  0  0  0
    2.4634    6.9060   -2.7480 H   0  0  0  0  0  0  0  0  0  0  0  0
    1.2978    7.0040   -4.1062 H   0  0  0  0  0  0  0  0  0  0  0  0
    2.8332    6.0983   -4.2914 H   0  0  0  0  0  0  0  0  0  0  0  0
  3  7  1  0  0  0  0
  3  1  1  1  0  0  0
  4  3  1  0  0  0  0
  5  4  1  0  0  0  0
  6  4  2  0  0  0  0
  6  2  1  0  0  0  0
  7  8  1  0  0  0  0
  8  9  1  0  0  0  0
  8 10  2  0  0  0  0
 10 11  1  0  0  0  0
 12 10  1  0  0  0  0
 12 17  1  0  0  0  0
 13 12  2  0  0  0  0
 14 13  1  0  0  0  0
 15  7  2  0  0  0  0
 15 13  1  0  0  0  0
 16 15  1  0  0  0  0
 17 18  1  0  0  0  0
 17 19  1  0  0  0  0
 20 17  1  0  0  0  0
 21 29  1  0  0  0  0
 21  6  1  0  0  0  0
 22 21  2  0  0  0  0
 23 22  1  0  0  0  0
 24 26  2  0  0  0  0
 24 22  1  0  0  0  0
 25 24  1  0  0  0  0
 26 27  1  0  0  0  0
 27 28  1  0  0  0  0
 27 29  2  0  0  0  0
 29 30  1  0  0  0  0
 31 26  1  0  0  0  0
 31 32  1  0  0  0  0
 33 31  1  0  0  0  0
 34 31  1  0  0  0  0
M  CHG  1   2  -1
M  END
