1,4
 OpenBabel05122313063D

 14 14  0  0  1  0  0  0  0  0999 V2000
    1.7325   -1.5144   -0.1022 O   0  0  0  0  0  1  0  0  0  0  0  0
    3.0673   -0.4498    1.9803 O   0  0  0  0  0  0  0  0  0  0  0  0
    2.2436   -0.9556    1.7825 H   0  0  0  0  0  0  0  0  0  0  0  0
    1.6838    1.4786    0.3194 O   0  0  0  0  0  1  0  0  0  0  0  0
    3.1688   -0.4289   -1.6186 O   0  0  0  0  0  0  0  0  0  0  0  0
    3.0231   -1.1155   -0.3739 C   0  0  1  0  0  0  0  0  0  0  0  0
    3.6455   -2.0418   -0.4186 H   0  0  0  0  0  0  0  0  0  0  0  0
    3.5356   -0.1186    0.7048 C   0  0  1  0  0  0  0  0  0  0  0  0
    4.6487   -0.1060    0.7127 H   0  0  0  0  0  0  0  0  0  0  0  0
    3.0304    1.2259    0.0935 C   0  0  1  0  0  0  0  0  0  0  0  0
    3.6109    2.0827    0.5121 H   0  0  0  0  0  0  0  0  0  0  0  0
    3.3784    0.9735   -1.3832 C   0  0  0  0  0  0  0  0  0  0  0  0
    2.7187    1.5672   -2.0507 H   0  0  0  0  0  0  0  0  0  0  0  0
    4.4404    1.2427   -1.6053 H   0  0  0  0  0  0  0  0  0  0  0  0
  3  2  1  0  0  0  0
  5 12  1  0  0  0  0
  5  6  1  0  0  0  0
  6  7  1  6  0  0  0
  6  1  1  0  0  0  0
  6  8  1  0  0  0  0
  8  9  1  1  0  0  0
  8  2  1  0  0  0  0
 10  4  1  0  0  0  0
 10 11  1  1  0  0  0
 10  8  1  0  0  0  0
 12 10  1  0  0  0  0
 13 12  1  0  0  0  0
 14 12  1  0  0  0  0
M  END
