1,38
 OpenBabel05122313063D

 72 77  0  0  0  0  0  0  0  0999 V2000
    1.2972    1.0131   -0.6313 O   0  5  0  0  0  0  0  0  0  0  0  0
   -0.8401    0.0179   -0.5130 C   0  0  0  0  0  0  0  0  0  0  0  0
    0.6237   -0.0816   -0.6516 C   0  0  0  0  0  0  0  0  0  0  0  0
   -1.2478    1.6352    0.0415 P   0  0  0  0  0  4  0  0  0  0  0  0
   -0.8901    2.9140   -1.2123 C   0  0  0  0  0  0  0  0  0  0  0  0
   -0.4146    2.5705   -2.4898 C   0  0  0  0  0  0  0  0  0  0  0  0
   -0.1867    1.5212   -2.7220 H   0  0  0  0  0  0  0  0  0  0  0  0
   -0.2069    3.5767   -3.4436 C   0  0  0  0  0  0  0  0  0  0  0  0
    0.1762    3.3099   -4.4398 H   0  0  0  0  0  0  0  0  0  0  0  0
   -0.4669    4.9192   -3.1239 C   0  0  0  0  0  0  0  0  0  0  0  0
   -0.2931    5.7062   -3.8732 H   0  0  0  0  0  0  0  0  0  0  0  0
   -0.9441    5.2597   -1.8479 C   0  0  0  0  0  0  0  0  0  0  0  0
   -1.1486    6.3108   -1.5950 H   0  0  0  0  0  0  0  0  0  0  0  0
   -1.1634    4.2583   -0.8912 C   0  0  0  0  0  0  0  0  0  0  0  0
   -1.5470    4.5247    0.1061 H   0  0  0  0  0  0  0  0  0  0  0  0
   -0.3625    2.0342    1.5822 C   0  0  0  0  0  0  0  0  0  0  0  0
    0.7748    2.8651    1.5646 C   0  0  0  0  0  0  0  0  0  0  0  0
    1.0655    3.3786    0.6382 H   0  0  0  0  0  0  0  0  0  0  0  0
    1.5702    2.9786    2.7129 C   0  0  0  0  0  0  0  0  0  0  0  0
    2.4794    3.5966    2.6806 H   0  0  0  0  0  0  0  0  0  0  0  0
    1.2384    2.2683    3.8764 C   0  0  0  0  0  0  0  0  0  0  0  0
    1.8830    2.3376    4.7648 H   0  0  0  0  0  0  0  0  0  0  0  0
    0.1071    1.4368    3.8956 C   0  0  0  0  0  0  0  0  0  0  0  0
   -0.1401    0.8572    4.7973 H   0  0  0  0  0  0  0  0  0  0  0  0
   -0.6875    1.3083    2.7493 C   0  0  0  0  0  0  0  0  0  0  0  0
   -1.5382    0.6096    2.7546 H   0  0  0  0  0  0  0  0  0  0  0  0
   -3.0429    1.8649    0.3022 C   0  0  0  0  0  0  0  0  0  0  0  0
   -3.5787    2.3596    1.5059 C   0  0  0  0  0  0  0  0  0  0  0  0
   -2.9212    2.5551    2.3648 H   0  0  0  0  0  0  0  0  0  0  0  0
   -4.9560    2.6181    1.6025 C   0  0  0  0  0  0  0  0  0  0  0  0
   -5.3708    3.0061    2.5450 H   0  0  0  0  0  0  0  0  0  0  0  0
   -5.7951    2.3943    0.5019 C   0  0  0  0  0  0  0  0  0  0  0  0
   -6.8732    2.6006    0.5802 H   0  0  0  0  0  0  0  0  0  0  0  0
   -5.2581    1.9154   -0.7058 C   0  0  0  0  0  0  0  0  0  0  0  0
   -5.9124    1.7437   -1.5730 H   0  0  0  0  0  0  0  0  0  0  0  0
   -3.8873    1.6567   -0.8099 C   0  0  0  0  0  0  0  0  0  0  0  0
   -3.4632    1.2959   -1.7589 H   0  0  0  0  0  0  0  0  0  0  0  0
    1.2254   -1.2060   -0.6807 O   0  0  0  0  0  0  0  0  0  0  0  0
   -1.6060   -1.5268   -0.2136 P   0  0  0  0  0  4  0  0  0  0  0  0
   -1.1547   -2.3302    1.3671 C   0  0  0  0  0  0  0  0  0  0  0  0
   -0.0048   -1.9112    2.0629 C   0  0  0  0  0  0  0  0  0  0  0  0
    0.6337   -1.1137    1.6642 H   0  0  0  0  0  0  0  0  0  0  0  0
    0.3482   -2.5285    3.2713 C   0  0  0  0  0  0  0  0  0  0  0  0
    1.2554   -2.1846    3.7903 H   0  0  0  0  0  0  0  0  0  0  0  0
   -0.4425   -3.5666    3.7878 C   0  0  0  0  0  0  0  0  0  0  0  0
   -0.1634   -4.0527    4.7350 H   0  0  0  0  0  0  0  0  0  0  0  0
   -1.5907   -3.9893    3.0959 C   0  0  0  0  0  0  0  0  0  0  0  0
   -2.2127   -4.8022    3.5000 H   0  0  0  0  0  0  0  0  0  0  0  0
   -1.9511   -3.3753    1.8877 C   0  0  0  0  0  0  0  0  0  0  0  0
   -2.8577   -3.7034    1.3567 H   0  0  0  0  0  0  0  0  0  0  0  0
   -1.1654   -2.6445   -1.5866 C   0  0  0  0  0  0  0  0  0  0  0  0
   -0.9590   -4.0194   -1.3734 C   0  0  0  0  0  0  0  0  0  0  0  0
   -1.0090   -4.4380   -0.3581 H   0  0  0  0  0  0  0  0  0  0  0  0
   -0.6515   -4.8498   -2.4609 C   0  0  0  0  0  0  0  0  0  0  0  0
   -0.4748   -5.9225   -2.2919 H   0  0  0  0  0  0  0  0  0  0  0  0
   -0.5502   -4.3139   -3.7541 C   0  0  0  0  0  0  0  0  0  0  0  0
   -0.2978   -4.9680   -4.6022 H   0  0  0  0  0  0  0  0  0  0  0  0
   -0.7508   -2.9397   -3.9632 C   0  0  0  0  0  0  0  0  0  0  0  0
   -0.6513   -2.5138   -4.9728 H   0  0  0  0  0  0  0  0  0  0  0  0
   -1.0550   -2.1018   -2.8823 C   0  0  0  0  0  0  0  0  0  0  0  0
   -1.1800   -1.0179   -3.0278 H   0  0  0  0  0  0  0  0  0  0  0  0
   -3.4327   -1.4410   -0.1769 C   0  0  0  0  0  0  0  0  0  0  0  0
   -4.1839   -1.7301   -1.3326 C   0  0  0  0  0  0  0  0  0  0  0  0
   -3.6725   -2.0199   -2.2623 H   0  0  0  0  0  0  0  0  0  0  0  0
   -5.5849   -1.6658   -1.2903 C   0  0  0  0  0  0  0  0  0  0  0  0
   -6.1678   -1.9009   -2.1934 H   0  0  0  0  0  0  0  0  0  0  0  0
   -6.2387   -1.3144   -0.0995 C   0  0  0  0  0  0  0  0  0  0  0  0
   -7.3378   -1.2676   -0.0681 H   0  0  0  0  0  0  0  0  0  0  0  0
   -5.4916   -1.0264    1.0544 C   0  0  0  0  0  0  0  0  0  0  0  0
   -6.0004   -0.7473    1.9886 H   0  0  0  0  0  0  0  0  0  0  0  0
   -4.0931   -1.0932    1.0203 C   0  0  0  0  0  0  0  0  0  0  0  0
   -3.5123   -0.8836    1.9303 H   0  0  0  0  0  0  0  0  0  0  0  0
  2 39  1  0  0  0  0
  2  4  1  0  0  0  0
  3  1  1  0  0  0  0
  3  2  2  0  0  0  0
  4 27  1  0  0  0  0
  4 16  1  0  0  0  0
  5 14  1  0  0  0  0
  5  4  1  0  0  0  0
  6  5  2  0  0  0  0
  7  6  1  0  0  0  0
  8 10  2  0  0  0  0
  8  6  1  0  0  0  0
  9  8  1  0  0  0  0
 10 12  1  0  0  0  0
 11 10  1  0  0  0  0
 12 13  1  0  0  0  0
 12 14  2  0  0  0  0
 14 15  1  0  0  0  0
 16 25  1  0  0  0  0
 17 16  2  0  0  0  0
 17 19  1  0  0  0  0
 18 17  1  0  0  0  0
 19 21  2  0  0  0  0
 20 19  1  0  0  0  0
 21 23  1  0  0  0  0
 21 22  1  0  0  0  0
 23 24  1  0  0  0  0
 25 26  1  0  0  0  0
 25 23  2  0  0  0  0
 27 28  1  0  0  0  0
 28 30  2  0  0  0  0
 28 29  1  0  0  0  0
 30 31  1  0  0  0  0
 32 33  1  0  0  0  0
 32 30  1  0  0  0  0
 34 32  2  0  0  0  0
 35 34  1  0  0  0  0
 36 34  1  0  0  0  0
 36 27  2  0  0  0  0
 37 36  1  0  0  0  0
 38  3  2  0  0  0  0
 39 62  1  0  0  0  0
 39 40  1  0  0  0  0
 40 49  2  0  0  0  0
 40 41  1  0  0  0  0
 41 43  2  0  0  0  0
 42 41  1  0  0  0  0
 43 45  1  0  0  0  0
 43 44  1  0  0  0  0
 45 46  1  0  0  0  0
 47 48  1  0  0  0  0
 47 45  2  0  0  0  0
 49 47  1  0  0  0  0
 50 49  1  0  0  0  0
 51 52  1  0  0  0  0
 51 39  1  0  0  0  0
 52 53  1  0  0  0  0
 54 55  1  0  0  0  0
 54 52  2  0  0  0  0
 56 54  1  0  0  0  0
 57 56  1  0  0  0  0
 58 56  2  0  0  0  0
 58 60  1  0  0  0  0
 59 58  1  0  0  0  0
 60 51  2  0  0  0  0
 61 60  1  0  0  0  0
 62 71  1  0  0  0  0
 63 65  1  0  0  0  0
 63 62  2  0  0  0  0
 64 63  1  0  0  0  0
 65 67  2  0  0  0  0
 66 65  1  0  0  0  0
 67 68  1  0  0  0  0
 67 69  1  0  0  0  0
 69 70  1  0  0  0  0
 71 69  2  0  0  0  0
 71 72  1  0  0  0  0
M  CHG  1   1  -1
M  END
