1,2
 OpenBabel05122313063D

 23 24  0  0  0  0  0  0  0  0999 V2000
    0.3766    1.8103   -0.0015 O   0  5  0  0  0  0  0  0  0  0  0  0
    1.7685   -0.5077   -0.0025 O   0  5  0  0  0  0  0  0  0  0  0  0
    1.5180    2.3834   -0.0012 C   0  0  0  0  0  0  0  0  0  0  0  0
    1.4571    3.8937   -0.0019 C   0  0  0  0  0  0  0  0  0  0  0  0
    0.3988    4.2085   -0.0053 H   0  0  0  0  0  0  0  0  0  0  0  0
    1.9597    4.3131    0.8930 H   0  0  0  0  0  0  0  0  0  0  0  0
    1.9659    4.3131   -0.8932 H   0  0  0  0  0  0  0  0  0  0  0  0
    2.7763    1.6949   -0.0002 C   0  0  0  0  0  0  0  0  0  0  0  0
    4.0196    2.4236    0.0013 C   0  0  0  0  0  0  0  0  0  0  0  0
    3.9869    3.5221    0.0022 H   0  0  0  0  0  0  0  0  0  0  0  0
    5.2389    1.7929    0.0018 C   0  0  0  0  0  0  0  0  0  0  0  0
    6.1711    2.3770    0.0030 H   0  0  0  0  0  0  0  0  0  0  0  0
    5.3175    0.3579    0.0008 C   0  0  0  0  0  0  0  0  0  0  0  0
    4.1102   -0.4129   -0.0007 C   0  0  0  0  0  0  0  0  0  0  0  0
    4.1767   -1.8286   -0.0016 C   0  0  0  0  0  3  0  0  0  0  0  0
    3.2287   -2.3852   -0.0026 H   0  0  0  0  0  0  0  0  0  0  0  0
    5.4076   -2.4788   -0.0012 C   0  0  0  0  0  0  0  0  0  0  0  0
    5.4514   -3.5783   -0.0019 H   0  0  0  0  0  0  0  0  0  0  0  0
    6.6048   -1.7241    0.0002 C   0  0  0  0  0  0  0  0  0  0  0  0
    7.5773   -2.2401    0.0005 H   0  0  0  0  0  0  0  0  0  0  0  0
    6.5592   -0.3325    0.0012 C   0  0  0  0  0  0  0  0  0  0  0  0
    7.4906    0.2549    0.0023 H   0  0  0  0  0  0  0  0  0  0  0  0
    2.8099    0.2558   -0.0011 C   0  0  0  0  0  0  0  0  0  0  0  0
  1  3  1  0  0  0  0
  2 23  1  0  0  0  0
  3  8  2  0  0  0  0
  4  3  1  0  0  0  0
  4  6  1  0  0  0  0
  5  4  1  0  0  0  0
  7  4  1  0  0  0  0
  8  9  1  0  0  0  0
  9 11  2  0  0  0  0
  9 10  1  0  0  0  0
 11 12  1  0  0  0  0
 13 21  2  0  0  0  0
 13 11  1  0  0  0  0
 14 13  1  0  0  0  0
 15 17  1  0  0  0  0
 15 14  1  0  0  0  0
 16 15  1  0  0  0  0
 17 19  2  0  0  0  0
 18 17  1  0  0  0  0
 19 20  1  0  0  0  0
 19 21  1  0  0  0  0
 21 22  1  0  0  0  0
 23 14  2  0  0  0  0
 23  8  1  0  0  0  0
M  CHG  2   1  -1   2  -1
M  END
