1,2
 OpenBabel05122313063D

 23 23  0  0  1  0  0  0  0  0999 V2000
    1.8270    0.8271    0.0001 O   0  0  0  0  0  1  0  0  0  0  0  0
    1.1065   -1.6735   -0.0000 O   0  5  0  0  0  0  0  0  0  0  0  0
    2.3903   -1.4543   -0.0000 C   0  0  0  0  0  0  0  0  0  0  0  0
    2.8011   -0.0411   -0.0000 C   0  0  1  0  0  3  0  0  0  0  0  0
    4.1247    0.4593   -0.0002 C   0  0  0  0  0  0  0  0  0  0  0  0
    3.2610   -2.5710   -0.0001 C   0  0  0  0  0  0  0  0  0  0  0  0
    6.6868    1.5849    1.2718 C   0  0  0  0  0  0  0  0  0  0  0  0
    7.6265    2.1740    1.2854 H   0  0  0  0  0  0  0  0  0  0  0  0
    6.6584    0.9592    2.1860 H   0  0  0  0  0  0  0  0  0  0  0  0
    5.8425    2.3024    1.3278 H   0  0  0  0  0  0  0  0  0  0  0  0
    5.3747   -0.1811   -0.0002 C   0  0  0  0  0  0  0  0  0  0  0  0
    4.6577   -2.6138   -0.0001 C   0  0  0  0  0  0  0  0  0  0  0  0
    6.6101    0.7240   -0.0002 C   0  0  0  0  0  0  0  0  0  0  0  0
    7.4939    0.0508   -0.0005 H   0  0  0  0  0  0  0  0  0  0  0  0
    5.6000   -1.5736   -0.0002 C   0  0  0  0  0  0  0  0  0  0  0  0
    6.6865    1.5857   -1.2717 C   0  0  0  0  0  0  0  0  0  0  0  0
    7.6262    2.1747   -1.2852 H   0  0  0  0  0  0  0  0  0  0  0  0
    5.8423    2.3034   -1.3270 H   0  0  0  0  0  0  0  0  0  0  0  0
    6.6577    0.9606   -2.1863 H   0  0  0  0  0  0  0  0  0  0  0  0
    4.1302    1.5622   -0.0003 H   0  0  0  0  0  0  0  0  0  0  0  0
    6.6568   -1.8860   -0.0002 H   0  0  0  0  0  0  0  0  0  0  0  0
    2.7236   -3.5329   -0.0000 H   0  0  0  0  0  0  0  0  0  0  0  0
    5.0853   -3.6304   -0.0002 H   0  0  0  0  0  0  0  0  0  0  0  0
  3  2  1  0  0  0  0
  3  4  1  0  0  0  0
  4  1  1  6  0  0  0
  5  4  1  0  0  0  0
  6  3  2  0  0  0  0
  6 22  1  0  0  0  0
  7  8  1  0  0  0  0
  7 10  1  0  0  0  0
  7  9  1  0  0  0  0
 11 13  1  0  0  0  0
 11 15  1  0  0  0  0
 11  5  2  0  0  0  0
 12  6  1  0  0  0  0
 13  7  1  0  0  0  0
 14 13  1  0  0  0  0
 15 12  2  0  0  0  0
 16 13  1  0  0  0  0
 17 16  1  0  0  0  0
 18 16  1  0  0  0  0
 19 16  1  0  0  0  0
 20  5  1  0  0  0  0
 21 15  1  0  0  0  0
 23 12  1  0  0  0  0
M  CHG  1   2  -1
M  END
