1,2
 OpenBabel05122313063D

 15 14  0  0  1  0  0  0  0  0999 V2000
    1.3735    1.4580   -0.0001 O   0  0  0  0  0  1  0  0  0  0  0  0
    1.3735   -1.4580   -0.0001 O   0  5  0  0  0  0  0  0  0  0  0  0
    5.8992   -0.0000    0.0002 N   0  0  0  0  0  0  0  0  0  0  0  0
    3.4700    2.5302    0.0000 C   0  0  0  0  0  0  0  0  0  0  0  0
    2.8085    3.4140   -0.0005 H   0  0  0  0  0  0  0  0  0  0  0  0
    4.1326    2.5541    0.8886 H   0  0  0  0  0  0  0  0  0  0  0  0
    4.1336    2.5537   -0.8878 H   0  0  0  0  0  0  0  0  0  0  0  0
    2.6353    1.2742   -0.0000 C   0  0  2  0  0  3  0  0  0  0  0  0
    3.2936   -0.0000   -0.0001 C   0  0  0  0  0  0  0  0  0  0  0  0
    2.6353   -1.2742   -0.0002 C   0  0  0  0  0  0  0  0  0  0  0  0
    3.4699   -2.5302   -0.0001 C   0  0  0  0  0  0  0  0  0  0  0  0
    2.8085   -3.4140   -0.0018 H   0  0  0  0  0  0  0  0  0  0  0  0
    4.1346   -2.5531   -0.8872 H   0  0  0  0  0  0  0  0  0  0  0  0
    4.1316   -2.5547    0.8892 H   0  0  0  0  0  0  0  0  0  0  0  0
    4.7229   -0.0000   -0.0000 C   0  0  0  0  0  0  0  0  0  0  0  0
  4  6  1  0  0  0  0
  5  4  1  0  0  0  0
  7  4  1  0  0  0  0
  8  1  1  6  0  0  0
  8  4  1  0  0  0  0
  9  8  1  0  0  0  0
  9 15  1  0  0  0  0
 10  2  1  0  0  0  0
 10  9  2  0  0  0  0
 10 11  1  0  0  0  0
 11 14  1  0  0  0  0
 12 11  1  0  0  0  0
 13 11  1  0  0  0  0
 15  3  3  0  0  0  0
M  CHG  1   2  -1
M  END
