3,4
 OpenBabel05122313063D

 33 32  0  0  1  0  0  0  0  0999 V2000
   -3.6348    2.2552    0.5837 N   0  0  0  0  0  0  0  0  0  0  0  0
   -3.4152    3.1310    1.0662 H   0  0  0  0  0  0  0  0  0  0  0  0
   -3.5982    0.8211   -1.1171 O   0  0  0  0  0  1  0  0  0  0  0  0
   -4.1359    1.2739    1.3645 O   0  0  0  0  0  1  0  0  0  0  0  0
   -3.3336    1.9812   -0.6917 C   0  0  2  0  0  3  0  0  0  0  0  0
   -2.6603    3.0307   -1.5314 C   0  0  0  0  0  0  0  0  0  0  0  0
   -2.6822    4.0080   -1.0038 H   0  0  0  0  0  0  0  0  0  0  0  0
   -3.2581    3.1423   -2.4590 H   0  0  0  0  0  0  0  0  0  0  0  0
   -1.2121    2.6424   -1.8783 C   0  0  0  0  0  0  0  0  0  0  0  0
   -1.2258    1.6849   -2.4413 H   0  0  0  0  0  0  0  0  0  0  0  0
   -0.8045    3.4087   -2.5719 H   0  0  0  0  0  0  0  0  0  0  0  0
   -0.3016    2.5168   -0.6532 C   0  0  0  0  0  0  0  0  0  0  0  0
   -0.6310    1.6572   -0.0274 H   0  0  0  0  0  0  0  0  0  0  0  0
   -0.4223    3.4217   -0.0135 H   0  0  0  0  0  0  0  0  0  0  0  0
    1.1792    2.3613   -1.0076 C   0  0  0  0  0  0  0  0  0  0  0  0
    1.3216    1.4450   -1.6243 H   0  0  0  0  0  0  0  0  0  0  0  0
    1.4852    3.2103   -1.6604 H   0  0  0  0  0  0  0  0  0  0  0  0
    2.1065    2.3080    0.2092 C   0  0  0  0  0  0  0  0  0  0  0  0
    1.8806    3.1679    0.8799 H   0  0  0  0  0  0  0  0  0  0  0  0
    1.8794    1.3973    0.8081 H   0  0  0  0  0  0  0  0  0  0  0  0
    3.5940    2.3334   -0.1507 C   0  0  0  0  0  0  0  0  0  0  0  0
    3.8131    3.2651   -0.7201 H   0  0  0  0  0  0  0  0  0  0  0  0
    3.8212    1.4974   -0.8498 H   0  0  0  0  0  0  0  0  0  0  0  0
    4.5306    2.2467    1.0564 C   0  0  0  0  0  0  0  0  0  0  0  0
    4.2582    3.0335    1.7962 H   0  0  0  0  0  0  0  0  0  0  0  0
    4.3624    1.2783    1.5813 H   0  0  0  0  0  0  0  0  0  0  0  0
    6.0142    2.3799    0.6989 C   0  0  0  0  0  0  0  0  0  0  0  0
    6.1876    3.3757    0.2338 H   0  0  0  0  0  0  0  0  0  0  0  0
    6.2674    1.6360   -0.0880 H   0  0  0  0  0  0  0  0  0  0  0  0
    6.9496    2.1952    1.8936 C   0  0  0  0  0  0  0  0  0  0  0  0
    6.7441    2.9411    2.6898 H   0  0  0  0  0  0  0  0  0  0  0  0
    8.0143    2.2999    1.6030 H   0  0  0  0  0  0  0  0  0  0  0  0
    6.8259    1.1894    2.3480 H   0  0  0  0  0  0  0  0  0  0  0  0
  1  2  1  0  0  0  0
  1  4  1  0  0  0  0
  5  3  1  1  0  0  0
  5  1  1  0  0  0  0
  6  7  1  0  0  0  0
  6  5  1  0  0  0  0
  8  6  1  0  0  0  0
  9  6  1  0  0  0  0
  9 12  1  0  0  0  0
 10  9  1  0  0  0  0
 11  9  1  0  0  0  0
 12 13  1  0  0  0  0
 12 14  1  0  0  0  0
 15 12  1  0  0  0  0
 15 18  1  0  0  0  0
 16 15  1  0  0  0  0
 17 15  1  0  0  0  0
 18 20  1  0  0  0  0
 18 19  1  0  0  0  0
 21 18  1  0  0  0  0
 21 24  1  0  0  0  0
 22 21  1  0  0  0  0
 23 21  1  0  0  0  0
 24 26  1  0  0  0  0
 24 25  1  0  0  0  0
 27 24  1  0  0  0  0
 27 30  1  0  0  0  0
 28 27  1  0  0  0  0
 29 27  1  0  0  0  0
 30 33  1  0  0  0  0
 30 31  1  0  0  0  0
 32 30  1  0  0  0  0
M  END
