1,30
 OpenBabel05122313063D

 30 30  0  0  0  0  0  0  0  0999 V2000
    1.0949    0.8384    0.7641 O   0  0  0  0  0  1  0  0  0  0  0  0
    2.1227    1.7620   -0.1840 Si  0  0  0  0  0  0  0  0  0  0  0  0
    2.1450    3.4792    0.6207 C   0  0  0  0  0  0  0  0  0  0  0  0
    1.1437    3.9495    0.5411 H   0  0  0  0  0  0  0  0  0  0  0  0
    2.8798    4.1623    0.1487 H   0  0  0  0  0  0  0  0  0  0  0  0
    2.4005    3.3911    1.6961 H   0  0  0  0  0  0  0  0  0  0  0  0
    1.5399    1.9066   -1.9829 C   0  0  0  0  0  0  0  0  0  0  0  0
    0.5150    2.3266   -2.0400 H   0  0  0  0  0  0  0  0  0  0  0  0
    1.5335    0.9039   -2.4567 H   0  0  0  0  0  0  0  0  0  0  0  0
    2.2206    2.5595   -2.5681 H   0  0  0  0  0  0  0  0  0  0  0  0
    3.9138    1.1038   -0.2088 C   0  0  0  0  0  0  0  0  0  0  0  0
    4.9005    2.0222   -0.6395 C   0  0  0  0  0  0  0  0  0  0  0  0
    4.6043    3.0466   -0.9235 H   0  0  0  0  0  0  0  0  0  0  0  0
    6.2573    1.6764   -0.7201 C   0  0  0  0  0  0  0  0  0  0  0  0
    6.9995    2.4161   -1.0601 H   0  0  0  0  0  0  0  0  0  0  0  0
    6.6564    0.3816   -0.3621 C   0  0  0  0  0  0  0  0  0  0  0  0
    7.7176    0.0905   -0.4152 H   0  0  0  0  0  0  0  0  0  0  0  0
    5.6917   -0.5462    0.0587 C   0  0  0  0  0  0  0  0  0  0  0  0
    6.0258   -1.5618    0.3240 H   0  0  0  0  0  0  0  0  0  0  0  0
    4.3172   -0.2186    0.1450 C   0  0  0  0  0  0  0  0  0  0  0  0
    3.1164   -1.5937    0.7110 Si  0  0  0  0  0  0  0  0  0  0  0  0
    2.6403   -1.3418    2.5273 C   0  0  0  0  0  0  0  0  0  0  0  0
    1.9635   -2.1549    2.8655 H   0  0  0  0  0  0  0  0  0  0  0  0
    2.1136   -0.3733    2.6335 H   0  0  0  0  0  0  0  0  0  0  0  0
    3.5374   -1.3415    3.1807 H   0  0  0  0  0  0  0  0  0  0  0  0
    4.0170   -3.2604    0.5672 C   0  0  0  0  0  0  0  0  0  0  0  0
    3.3104   -4.0738    0.8340 H   0  0  0  0  0  0  0  0  0  0  0  0
    4.8869   -3.3397    1.2513 H   0  0  0  0  0  0  0  0  0  0  0  0
    4.3704   -3.4445   -0.4678 H   0  0  0  0  0  0  0  0  0  0  0  0
    1.7883   -1.7380   -0.3031 O   0  0  0  0  0  1  0  0  0  0  0  0
  2  3  1  0  0  0  0
  2  1  1  0  0  0  0
  3  6  1  0  0  0  0
  4  3  1  0  0  0  0
  5  3  1  0  0  0  0
  7  2  1  0  0  0  0
  8  7  1  0  0  0  0
  9  7  1  0  0  0  0
 10  7  1  0  0  0  0
 11  2  1  0  0  0  0
 11 20  1  0  0  0  0
 12 11  2  0  0  0  0
 13 12  1  0  0  0  0
 14 12  1  0  0  0  0
 14 16  2  0  0  0  0
 15 14  1  0  0  0  0
 16 18  1  0  0  0  0
 17 16  1  0  0  0  0
 18 20  2  0  0  0  0
 18 19  1  0  0  0  0
 20 21  1  0  0  0  0
 21 22  1  0  0  0  0
 22 24  1  0  0  0  0
 22 23  1  0  0  0  0
 22 25  1  0  0  0  0
 26 21  1  0  0  0  0
 26 27  1  0  0  0  0
 26 28  1  0  0  0  0
 29 26  1  0  0  0  0
 30 21  1  0  0  0  0
M  END
