1,2
 OpenBabel05122313063D

 34 34  0  0  0  0  0  0  0  0999 V2000
    0.0138    0.4037   -1.6291 O   0  5  0  0  0  0  0  0  0  0  0  0
    1.9387   -0.9962   -0.9320 O   0  5  0  0  0  0  0  0  0  0  0  0
    1.0826    1.1338   -1.2923 C   0  0  0  0  0  0  0  0  0  0  0  0
    1.1137    2.5629   -1.3363 C   0  0  0  0  0  0  0  0  0  0  0  0
    2.3842    2.9582   -0.9016 C   0  0  0  0  0  3  0  0  0  0  0  0
    3.3595    2.2524   -0.5089 C   0  0  0  0  0  3  0  0  0  0  0  0
    3.4422    0.8574   -0.4012 C   0  0  0  0  0  0  0  0  0  0  0  0
    2.2030    0.3227   -0.8630 C   0  0  0  0  0  0  0  0  0  0  0  0
   -0.0651    3.4405   -1.7379 C   0  0  0  0  0  0  0  0  0  0  0  0
   -0.5128    3.0795   -3.1716 C   0  0  0  0  0  0  0  0  0  0  0  0
   -1.2418    3.2177   -0.7610 C   0  0  0  0  0  0  0  0  0  0  0  0
    0.3723    4.9135   -1.6870 C   0  0  0  0  0  0  0  0  0  0  0  0
    4.5770    0.0185    0.1703 C   0  0  0  0  0  0  0  0  0  0  0  0
    5.0768   -0.9828   -0.8937 C   0  0  0  0  0  0  0  0  0  0  0  0
    4.0602   -0.7531    1.4070 C   0  0  0  0  0  0  0  0  0  0  0  0
    5.7260    0.9511    0.5862 C   0  0  0  0  0  0  0  0  0  0  0  0
    0.3089    3.2510   -3.8969 H   0  0  0  0  0  0  0  0  0  0  0  0
   -1.3804    3.7036   -3.4744 H   0  0  0  0  0  0  0  0  0  0  0  0
   -0.8089    2.0140   -3.2279 H   0  0  0  0  0  0  0  0  0  0  0  0
   -1.5660    2.1597   -0.7588 H   0  0  0  0  0  0  0  0  0  0  0  0
   -2.1091    3.8478   -1.0515 H   0  0  0  0  0  0  0  0  0  0  0  0
   -0.9549    3.4822    0.2762 H   0  0  0  0  0  0  0  0  0  0  0  0
   -0.4668    5.5811   -1.9735 H   0  0  0  0  0  0  0  0  0  0  0  0
    1.2199    5.1012   -2.3777 H   0  0  0  0  0  0  0  0  0  0  0  0
    0.7039    5.1910   -0.6655 H   0  0  0  0  0  0  0  0  0  0  0  0
    5.4667   -0.4491   -1.7848 H   0  0  0  0  0  0  0  0  0  0  0  0
    4.2528   -1.6474   -1.2183 H   0  0  0  0  0  0  0  0  0  0  0  0
    5.8939   -1.6115   -0.4801 H   0  0  0  0  0  0  0  0  0  0  0  0
    3.2298   -1.4331    1.1335 H   0  0  0  0  0  0  0  0  0  0  0  0
    3.6846   -0.0509    2.1791 H   0  0  0  0  0  0  0  0  0  0  0  0
    4.8780   -1.3583    1.8530 H   0  0  0  0  0  0  0  0  0  0  0  0
    6.1042    1.5276   -0.2829 H   0  0  0  0  0  0  0  0  0  0  0  0
    6.5689    0.3683    1.0126 H   0  0  0  0  0  0  0  0  0  0  0  0
    5.3855    1.6805    1.3493 H   0  0  0  0  0  0  0  0  0  0  0  0
  1  3  1  0  0  0  0
  2  8  1  0  0  0  0
  3  8  1  0  0  0  0
  4  3  2  0  0  0  0
  4  5  1  0  0  0  0
  5  6  2  0  0  0  0
  6  7  1  0  0  0  0
  7 13  1  0  0  0  0
  8  7  2  0  0  0  0
  9 12  1  0  0  0  0
  9  4  1  0  0  0  0
  9 11  1  0  0  0  0
 10  9  1  0  0  0  0
 11 20  1  0  0  0  0
 11 22  1  0  0  0  0
 12 25  1  0  0  0  0
 13 16  1  0  0  0  0
 13 15  1  0  0  0  0
 14 28  1  0  0  0  0
 14 13  1  0  0  0  0
 15 31  1  0  0  0  0
 15 30  1  0  0  0  0
 16 33  1  0  0  0  0
 16 34  1  0  0  0  0
 17 10  1  0  0  0  0
 18 10  1  0  0  0  0
 19 10  1  0  0  0  0
 21 11  1  0  0  0  0
 23 12  1  0  0  0  0
 24 12  1  0  0  0  0
 26 14  1  0  0  0  0
 27 14  1  0  0  0  0
 29 15  1  0  0  0  0
 32 16  1  0  0  0  0
M  CHG  2   1  -1   2  -1
M  END
