1,3
 OpenBabel05122313063D

 17 17  0  0  1  0  0  0  0  0999 V2000
   -0.7854   -1.9375   -0.5612 O   0  5  0  0  0  0  0  0  0  0  0  0
   -2.8487   -2.5990   -1.1239 O   0  0  0  0  0  0  0  0  0  0  0  0
   -1.2217    0.6140   -1.1767 O   0  0  0  0  0  1  0  0  0  0  0  0
   -2.0369   -1.7041   -0.9552 C   0  0  0  0  0  0  0  0  0  0  0  0
   -2.3702   -0.1974   -1.1613 C   0  0  1  0  0  0  0  0  0  0  0  0
   -2.8725   -0.1368   -2.1575 H   0  0  0  0  0  0  0  0  0  0  0  0
   -3.3832    0.2418   -0.1021 C   0  0  0  0  0  0  0  0  0  0  0  0
   -4.6550   -0.3627   -0.0349 C   0  0  0  0  0  0  0  0  0  0  0  0
   -4.8990   -1.1714   -0.7397 H   0  0  0  0  0  0  0  0  0  0  0  0
   -5.5773    0.0384    0.9413 C   0  0  0  0  0  0  0  0  0  0  0  0
   -6.5663   -0.4437    0.9870 H   0  0  0  0  0  0  0  0  0  0  0  0
   -5.2453    1.0494    1.8597 C   0  0  0  0  0  0  0  0  0  0  0  0
   -5.9727    1.3646    2.6237 H   0  0  0  0  0  0  0  0  0  0  0  0
   -3.9804    1.6529    1.7954 C   0  0  0  0  0  0  0  0  0  0  0  0
   -3.7109    2.4453    2.5116 H   0  0  0  0  0  0  0  0  0  0  0  0
   -3.0545    1.2516    0.8188 C   0  0  0  0  0  0  0  0  0  0  0  0
   -2.0601    1.7155    0.7498 H   0  0  0  0  0  0  0  0  0  0  0  0
  2  4  2  0  0  0  0
  3  5  1  0  0  0  0
  4  1  1  0  0  0  0
  5  6  1  6  0  0  0
  5  4  1  0  0  0  0
  5  7  1  0  0  0  0
  7  8  2  0  0  0  0
  7 16  1  0  0  0  0
  8 10  1  0  0  0  0
  9  8  1  0  0  0  0
 10 11  1  0  0  0  0
 10 12  2  0  0  0  0
 12 13  1  0  0  0  0
 14 12  1  0  0  0  0
 14 15  1  0  0  0  0
 16 14  2  0  0  0  0
 17 16  1  0  0  0  0
M  CHG  1   1  -1
M  END
