1,4
 OpenBabel05122313063D

 50 51  0  0  1  0  0  0  0  0999 V2000
    0.6189    0.1722   -0.0486 O   0  5  0  0  0  0  0  0  0  0  0  0
    0.4746    1.6812   -0.0543 H   0  0  0  0  0  0  0  0  0  0  0  0
    4.2666   -2.7108   -1.1507 O   0  0  0  0  0  0  0  0  0  0  0  0
   -1.8845    0.0763    1.3696 O   0  5  0  0  0  0  0  0  0  0  0  0
   -1.6478    1.6227    1.2518 H   0  0  0  0  0  0  0  0  0  0  0  0
   -3.5025   -3.1788   -1.7357 O   0  0  0  0  0  0  0  0  0  0  0  0
    0.8739    2.6298   -0.3753 N   0  0  0  0  0  0  0  0  0  0  0  0
   -1.7692    2.4798    0.6247 N   0  0  0  0  0  0  0  0  0  0  0  0
    2.7688    3.6772   -1.4820 C   0  0  0  0  0  0  0  0  0  0  0  0
    2.0874    4.3147   -2.0809 H   0  0  0  0  0  0  0  0  0  0  0  0
    3.6446    3.4313   -2.1030 H   0  0  0  0  0  0  0  0  0  0  0  0
    3.1182    4.2920   -0.6256 H   0  0  0  0  0  0  0  0  0  0  0  0
    2.0467    2.4578   -0.9826 C   0  0  1  0  0  3  0  0  0  0  0  0
    2.5638    1.1235   -1.1003 C   0  0  0  0  0  0  0  0  0  0  0  0
    1.8064   -0.0046   -0.5618 C   0  0  0  0  0  0  0  0  0  0  0  0
    2.3778   -1.3030   -0.5901 C   0  0  0  0  0  0  0  0  0  0  0  0
    1.7766   -2.1031   -0.1350 H   0  0  0  0  0  0  0  0  0  0  0  0
    3.6481   -1.5114   -1.1271 C   0  0  0  0  0  0  0  0  0  0  0  0
    4.3835   -0.4245   -1.6955 C   0  0  0  0  0  0  0  0  0  0  0  0
    5.3743   -0.6273   -2.1239 H   0  0  0  0  0  0  0  0  0  0  0  0
    3.8455    0.8462   -1.6730 C   0  0  0  0  0  0  0  0  0  0  0  0
    4.4399    1.6683   -2.0962 H   0  0  0  0  0  0  0  0  0  0  0  0
    3.5862   -3.8213   -0.5727 C   0  0  0  0  0  0  0  0  0  0  0  0
    3.3047   -3.6270    0.4844 H   0  0  0  0  0  0  0  0  0  0  0  0
    4.2867   -4.6743   -0.6254 H   0  0  0  0  0  0  0  0  0  0  0  0
    2.6612   -4.0650   -1.1388 H   0  0  0  0  0  0  0  0  0  0  0  0
   -2.8035    3.2619   -1.4608 C   0  0  0  0  0  0  0  0  0  0  0  0
   -2.6617    4.2717   -1.0346 H   0  0  0  0  0  0  0  0  0  0  0  0
   -3.8486    3.1848   -1.8139 H   0  0  0  0  0  0  0  0  0  0  0  0
   -2.1510    3.1631   -2.3528 H   0  0  0  0  0  0  0  0  0  0  0  0
   -2.4995    2.1845   -0.4552 C   0  0  1  0  0  3  0  0  0  0  0  0
   -2.9215    0.8304   -0.6595 C   0  0  0  0  0  0  0  0  0  0  0  0
   -2.4748   -0.2230    0.2483 C   0  0  0  0  0  0  0  0  0  0  0  0
   -2.6620   -1.5819   -0.1195 C   0  0  0  0  0  0  0  0  0  0  0  0
   -2.2295   -2.3298    0.5589 H   0  0  0  0  0  0  0  0  0  0  0  0
   -3.3176   -1.9131   -1.3044 C   0  0  0  0  0  0  0  0  0  0  0  0
   -3.8441   -0.8893   -2.1558 C   0  0  0  0  0  0  0  0  0  0  0  0
   -4.3801   -1.1901   -3.0662 H   0  0  0  0  0  0  0  0  0  0  0  0
   -3.6386    0.4366   -1.8346 C   0  0  0  0  0  0  0  0  0  0  0  0
   -4.0189    1.2059   -2.5220 H   0  0  0  0  0  0  0  0  0  0  0  0
   -2.9670   -4.2354   -0.9447 C   0  0  0  0  0  0  0  0  0  0  0  0
   -1.8752   -4.1100   -0.7787 H   0  0  0  0  0  0  0  0  0  0  0  0
   -3.1577   -5.1686   -1.5048 H   0  0  0  0  0  0  0  0  0  0  0  0
   -3.4673   -4.2896    0.0464 H   0  0  0  0  0  0  0  0  0  0  0  0
    0.1792    3.8726   -0.1282 C   0  0  0  0  0  0  0  0  0  0  0  0
   -0.2188    4.2853   -1.0840 H   0  0  0  0  0  0  0  0  0  0  0  0
    0.8644    4.6455    0.2832 H   0  0  0  0  0  0  0  0  0  0  0  0
   -0.9618    3.6576    0.8877 C   0  0  0  0  0  0  0  0  0  0  0  0
   -0.5148    3.4803    1.8867 H   0  0  0  0  0  0  0  0  0  0  0  0
   -1.5782    4.5809    0.9355 H   0  0  0  0  0  0  0  0  0  0  0  0
  3 18  1  0  0  0  0
  3 23  1  0  0  0  0
  6 36  1  0  0  0  0
  6 41  1  0  0  0  0
  7 45  1  0  0  0  0
  7  2  1  0  0  0  0
  8 48  1  0  0  0  0
  8  5  1  0  0  0  0
  9 12  1  0  0  0  0
 10  9  1  0  0  0  0
 11  9  1  0  0  0  0
 13  9  1  1  0  0  0
 13  7  1  0  0  0  0
 14 13  1  0  0  0  0
 14 15  1  0  0  0  0
 15  1  1  0  0  0  0
 16 15  2  0  0  0  0
 16 17  1  0  0  0  0
 18 16  1  0  0  0  0
 19 21  1  0  0  0  0
 19 18  2  0  0  0  0
 20 19  1  0  0  0  0
 21 14  2  0  0  0  0
 22 21  1  0  0  0  0
 23 24  1  0  0  0  0
 25 23  1  0  0  0  0
 26 23  1  0  0  0  0
 27 28  1  0  0  0  0
 29 27  1  0  0  0  0
 30 27  1  0  0  0  0
 31 27  1  6  0  0  0
 31  8  1  0  0  0  0
 32 31  1  0  0  0  0
 32 33  1  0  0  0  0
 33  4  1  0  0  0  0
 34 33  2  0  0  0  0
 34 35  1  0  0  0  0
 36 34  1  0  0  0  0
 37 39  1  0  0  0  0
 37 36  2  0  0  0  0
 38 37  1  0  0  0  0
 39 32  2  0  0  0  0
 40 39  1  0  0  0  0
 41 42  1  0  0  0  0
 41 44  1  0  0  0  0
 43 41  1  0  0  0  0
 45 47  1  0  0  0  0
 45 48  1  0  0  0  0
 46 45  1  0  0  0  0
 48 50  1  0  0  0  0
 48 49  1  0  0  0  0
M  CHG  2   1  -1   4  -1
M  END
