1,2
 OpenBabel05122313063D

 17 17  0  0  0  0  0  0  0  0999 V2000
   -1.3032   -1.4452    0.1018 O   0  5  0  0  0  0  0  0  0  0  0  0
   -1.3661    1.2617   -0.1142 O   0  5  0  0  0  0  0  0  0  0  0  0
   -2.4878   -0.8004   -0.0300 C   0  0  0  0  0  0  0  0  0  0  0  0
   -3.6482   -1.6048   -0.0755 C   0  0  0  0  0  0  0  0  0  0  0  0
   -4.9095   -0.9491   -0.1821 C   0  0  0  0  0  0  0  0  0  0  0  0
   -4.9734    0.4484   -0.2337 C   0  0  0  0  0  0  0  0  0  0  0  0
   -3.8144    1.2322   -0.1811 C   0  0  0  0  0  0  0  0  0  0  0  0
   -2.5210    0.6146   -0.1068 C   0  0  0  0  0  0  0  0  0  0  0  0
   -3.4569   -2.9333    0.0182 O   0  0  0  0  0  0  0  0  0  0  0  0
   -6.1697   -1.6939   -0.2465 N   0  0  0  0  0  0  0  0  0  0  0  0
   -6.1075   -2.9248   -0.2935 O   0  0  0  0  0  0  0  0  0  0  0  0
   -7.2219   -1.0449   -0.2544 O   0  0  0  0  0  0  0  0  0  0  0  0
   -3.9767    2.6842   -0.1964 N   0  0  0  0  0  0  0  0  0  0  0  0
   -5.1046    3.1392   -0.4129 O   0  0  0  0  0  0  0  0  0  0  0  0
   -2.9834    3.3924    0.0241 O   0  0  0  0  0  0  0  0  0  0  0  0
   -5.9526    0.9346   -0.3073 H   0  0  0  0  0  0  0  0  0  0  0  0
   -2.4771   -2.9996    0.1518 H   0  0  0  0  0  0  0  0  0  0  0  0
  2  8  1  0  0  0  0
  3  1  1  0  0  0  0
  4  3  1  0  0  0  0
  4  9  1  0  0  0  0
  5  4  2  0  0  0  0
  6  5  1  0  0  0  0
  6  7  2  0  0  0  0
  7  8  1  0  0  0  0
  8  3  2  0  0  0  0
  9 17  1  0  0  0  0
 10  5  1  0  0  0  0
 11 10  2  0  0  0  0
 12 10  2  0  0  0  0
 13  7  1  0  0  0  0
 13 15  2  0  0  0  0
 14 13  2  0  0  0  0
 16  6  1  0  0  0  0
M  CHG  2   1  -1   2  -1
M  END
