46,47
 OpenBabel05122313063D

 49 52  0  0  0  0  0  0  0  0999 V2000
   -2.6684    1.3359   -1.0554 C   0  0  0  0  0  0  0  0  0  0  0  0
   -4.0014    1.0009   -0.7411 C   0  0  0  0  0  0  0  0  0  0  0  0
   -4.2931    0.8400    0.3082 H   0  0  0  0  0  0  0  0  0  0  0  0
   -4.9431    0.8473   -1.7661 C   0  0  0  0  0  0  0  0  0  0  0  0
   -5.9801    0.5727   -1.5208 H   0  0  0  0  0  0  0  0  0  0  0  0
   -4.5590    1.0264   -3.1065 C   0  0  0  0  0  0  0  0  0  0  0  0
   -5.2996    0.8989   -3.9110 H   0  0  0  0  0  0  0  0  0  0  0  0
   -3.2328    1.3615   -3.4206 C   0  0  0  0  0  0  0  0  0  0  0  0
   -2.9322    1.4993   -4.4706 H   0  0  0  0  0  0  0  0  0  0  0  0
   -2.2848    1.5171   -2.3969 C   0  0  0  0  0  0  0  0  0  0  0  0
   -1.2368    1.7669   -2.6203 H   0  0  0  0  0  0  0  0  0  0  0  0
   -1.8673    2.7395    1.3950 C   0  0  0  0  0  0  0  0  0  0  0  0
   -1.6721    4.0748    0.9885 C   0  0  0  0  0  0  0  0  0  0  0  0
   -1.2349    4.2862    0.0006 H   0  0  0  0  0  0  0  0  0  0  0  0
   -2.0280    5.1229    1.8482 C   0  0  0  0  0  0  0  0  0  0  0  0
   -1.8742    6.1664    1.5337 H   0  0  0  0  0  0  0  0  0  0  0  0
   -2.5758    4.8418    3.1116 C   0  0  0  0  0  0  0  0  0  0  0  0
   -2.8540    5.6670    3.7849 H   0  0  0  0  0  0  0  0  0  0  0  0
   -2.7646    3.5111    3.5180 C   0  0  0  0  0  0  0  0  0  0  0  0
   -3.1875    3.2926    4.5105 H   0  0  0  0  0  0  0  0  0  0  0  0
   -2.4100    2.4569    2.6623 C   0  0  0  0  0  0  0  0  0  0  0  0
   -2.5366    1.4056    2.9622 H   0  0  0  0  0  0  0  0  0  0  0  0
   -2.6108   -2.0730   -0.4047 C   0  0  0  0  0  0  0  0  0  0  0  0
   -2.6842   -2.1437   -1.8081 C   0  0  0  0  0  0  0  0  0  0  0  0
   -1.8035   -1.8586   -2.4019 H   0  0  0  0  0  0  0  0  0  0  0  0
   -3.8767   -2.5539   -2.4226 C   0  0  0  0  0  0  0  0  0  0  0  0
   -3.9382   -2.5978   -3.5205 H   0  0  0  0  0  0  0  0  0  0  0  0
   -4.9900   -2.8997   -1.6406 C   0  0  0  0  0  0  0  0  0  0  0  0
   -5.9247   -3.2207   -2.1255 H   0  0  0  0  0  0  0  0  0  0  0  0
   -4.9143   -2.8362   -0.2383 C   0  0  0  0  0  0  0  0  0  0  0  0
   -5.7868   -3.1100    0.3743 H   0  0  0  0  0  0  0  0  0  0  0  0
   -3.7281   -2.4198    0.3811 C   0  0  0  0  0  0  0  0  0  0  0  0
   -3.6672   -2.3555    1.4790 H   0  0  0  0  0  0  0  0  0  0  0  0
   -0.6082   -2.5521    1.6788 C   0  0  0  0  0  0  0  0  0  0  0  0
   -0.4489   -3.9141    1.3514 C   0  0  0  0  0  0  0  0  0  0  0  0
   -0.7049   -4.2694    0.3406 H   0  0  0  0  0  0  0  0  0  0  0  0
    0.0314   -4.8114    2.3147 C   0  0  0  0  0  0  0  0  0  0  0  0
    0.1558   -5.8750    2.0606 H   0  0  0  0  0  0  0  0  0  0  0  0
    0.3547   -4.3523    3.6031 C   0  0  0  0  0  0  0  0  0  0  0  0
    0.7333   -5.0585    4.3579 H   0  0  0  0  0  0  0  0  0  0  0  0
    0.1964   -2.9957    3.9291 C   0  0  0  0  0  0  0  0  0  0  0  0
    0.4513   -2.6379    4.9382 H   0  0  0  0  0  0  0  0  0  0  0  0
   -0.2844   -2.0927    2.9690 C   0  0  0  0  0  0  0  0  0  0  0  0
   -0.4132   -1.0237    3.1968 H   0  0  0  0  0  0  0  0  0  0  0  0
   -1.4486    0.0245    1.1537 N   0  0  0  0  0  2  0  0  0  0  0  0
   -0.0410    1.7593   -0.4276 O   0  0  0  0  0  1  0  0  0  0  0  0
   -0.0368   -1.3025   -0.7548 O   0  0  0  0  0  1  0  0  0  0  0  0
   -1.4074    1.3955    0.2664 P   0  0  0  0  0  4  0  0  0  0  0  0
   -1.1225   -1.3815    0.3888 P   0  0  0  0  0  4  0  0  0  0  0  0
  1  2  1  0  0  0  0
  1 48  1  0  0  0  0
  2  3  1  0  0  0  0
  4  5  1  0  0  0  0
  4  2  2  0  0  0  0
  6  4  1  0  0  0  0
  7  6  1  0  0  0  0
  8  6  2  0  0  0  0
  8 10  1  0  0  0  0
  9  8  1  0  0  0  0
 10  1  2  0  0  0  0
 11 10  1  0  0  0  0
 12 21  1  0  0  0  0
 13 12  2  0  0  0  0
 13 15  1  0  0  0  0
 14 13  1  0  0  0  0
 15 17  2  0  0  0  0
 16 15  1  0  0  0  0
 17 19  1  0  0  0  0
 17 18  1  0  0  0  0
 19 20  1  0  0  0  0
 21 22  1  0  0  0  0
 21 19  2  0  0  0  0
 23 32  1  0  0  0  0
 23 49  1  0  0  0  0
 24 23  2  0  0  0  0
 25 24  1  0  0  0  0
 26 24  1  0  0  0  0
 26 28  2  0  0  0  0
 27 26  1  0  0  0  0
 28 30  1  0  0  0  0
 29 28  1  0  0  0  0
 30 31  1  0  0  0  0
 30 32  2  0  0  0  0
 32 33  1  0  0  0  0
 34 43  1  0  0  0  0
 35 34  2  0  0  0  0
 35 37  1  0  0  0  0
 36 35  1  0  0  0  0
 37 39  2  0  0  0  0
 38 37  1  0  0  0  0
 39 41  1  0  0  0  0
 39 40  1  0  0  0  0
 41 42  1  0  0  0  0
 43 44  1  0  0  0  0
 43 41  2  0  0  0  0
 46 48  1  0  0  0  0
 47 49  1  0  0  0  0
 48 45  1  0  0  0  0
 48 12  1  0  0  0  0
 49 45  1  0  0  0  0
 49 34  1  0  0  0  0
M  END
