4,5
 OpenBabel05122313063D

 71 75  0  0  1  0  0  0  0  0999 V2000
   -1.9440   -4.3694    1.7010 S   0  0  0  0  0  0  0  0  0  0  0  0
    1.6890   -0.7256   -0.3836 P   0  0  0  0  0  4  0  0  0  0  0  0
   -1.4212    0.8523   -0.3444 P   0  0  0  0  0  4  0  0  0  0  0  0
    1.5537    0.7457    0.0361 O   0  0  0  0  0  1  0  0  0  0  0  0
   -0.8312    1.9198    0.5919 O   0  0  0  0  0  1  0  0  0  0  0  0
   -0.0522   -2.8583    0.4190 N   0  0  0  0  0  0  0  0  0  0  0  0
   -1.9475   -1.7825    0.7654 N   0  0  0  0  0  0  0  0  0  0  0  0
    0.1089   -1.5744   -0.0884 C   0  0  1  0  0  3  0  0  0  0  0  0
   -1.3206   -3.0087    0.9688 C   0  0  0  0  0  0  0  0  0  0  0  0
   -1.1004   -0.8998    0.1096 C   0  0  2  0  0  3  0  0  0  0  0  0
    0.8937   -3.9594    0.4076 C   0  0  0  0  0  0  0  0  0  0  0  0
    1.4606   -4.0092    1.3583 H   0  0  0  0  0  0  0  0  0  0  0  0
    1.6052   -3.8414   -0.4280 H   0  0  0  0  0  0  0  0  0  0  0  0
    0.3083   -4.8946    0.3043 H   0  0  0  0  0  0  0  0  0  0  0  0
   -3.2706   -1.5241    1.3263 C   0  0  0  0  0  0  0  0  0  0  0  0
   -3.3644   -0.4364    1.4922 H   0  0  0  0  0  0  0  0  0  0  0  0
   -3.2762   -2.0213    2.3186 H   0  0  0  0  0  0  0  0  0  0  0  0
   -4.4089   -2.0725    0.4669 C   0  0  0  0  0  0  0  0  0  0  0  0
   -4.3016   -3.1769    0.4135 H   0  0  0  0  0  0  0  0  0  0  0  0
   -4.3062   -1.6863   -0.5691 H   0  0  0  0  0  0  0  0  0  0  0  0
   -5.7828   -1.6934    1.0227 C   0  0  0  0  0  0  0  0  0  0  0  0
   -5.8845   -2.0981    2.0537 H   0  0  0  0  0  0  0  0  0  0  0  0
   -5.8437   -0.5872    1.1203 H   0  0  0  0  0  0  0  0  0  0  0  0
   -6.9351   -2.1940    0.1526 C   0  0  0  0  0  0  0  0  0  0  0  0
   -6.9114   -3.2985    0.0463 H   0  0  0  0  0  0  0  0  0  0  0  0
   -6.8800   -1.7620   -0.8689 H   0  0  0  0  0  0  0  0  0  0  0  0
   -7.9207   -1.9186    0.5788 H   0  0  0  0  0  0  0  0  0  0  0  0
    2.9880   -1.6232    0.5205 C   0  0  0  0  0  0  0  0  0  0  0  0
    2.9083   -1.6814    1.9292 C   0  0  0  0  0  0  0  0  0  0  0  0
    2.0456   -1.2308    2.4514 H   0  0  0  0  0  0  0  0  0  0  0  0
    3.9423   -2.2930    2.6509 C   0  0  0  0  0  0  0  0  0  0  0  0
    3.8799   -2.3374    3.7486 H   0  0  0  0  0  0  0  0  0  0  0  0
    5.0541   -2.8330    1.9827 C   0  0  0  0  0  0  0  0  0  0  0  0
    5.8642   -3.3083    2.5565 H   0  0  0  0  0  0  0  0  0  0  0  0
    5.1386   -2.7580    0.5832 C   0  0  0  0  0  0  0  0  0  0  0  0
    6.0141   -3.1689    0.0585 H   0  0  0  0  0  0  0  0  0  0  0  0
    4.1087   -2.1528   -0.1521 C   0  0  0  0  0  0  0  0  0  0  0  0
    4.1819   -2.0873   -1.2476 H   0  0  0  0  0  0  0  0  0  0  0  0
    2.1253   -0.7870   -2.1448 C   0  0  0  0  0  0  0  0  0  0  0  0
    2.6710    0.3811   -2.7111 C   0  0  0  0  0  0  0  0  0  0  0  0
    2.7354    1.2949   -2.0991 H   0  0  0  0  0  0  0  0  0  0  0  0
    3.0891    0.3638   -4.0504 C   0  0  0  0  0  0  0  0  0  0  0  0
    3.5098    1.2758   -4.4996 H   0  0  0  0  0  0  0  0  0  0  0  0
    2.9616   -0.8050   -4.8170 C   0  0  0  0  0  0  0  0  0  0  0  0
    3.2925   -0.8126   -5.8667 H   0  0  0  0  0  0  0  0  0  0  0  0
    2.4005   -1.9638   -4.2529 C   0  0  0  0  0  0  0  0  0  0  0  0
    2.2877   -2.8754   -4.8588 H   0  0  0  0  0  0  0  0  0  0  0  0
    1.9795   -1.9570   -2.9162 C   0  0  0  0  0  0  0  0  0  0  0  0
    1.5268   -2.8607   -2.4786 H   0  0  0  0  0  0  0  0  0  0  0  0
   -3.2121    1.1873   -0.3901 C   0  0  0  0  0  0  0  0  0  0  0  0
   -4.0505    0.7328   -1.4257 C   0  0  0  0  0  0  0  0  0  0  0  0
   -3.6453    0.1133   -2.2399 H   0  0  0  0  0  0  0  0  0  0  0  0
   -5.4052    1.0960   -1.4315 C   0  0  0  0  0  0  0  0  0  0  0  0
   -6.0624    0.7419   -2.2397 H   0  0  0  0  0  0  0  0  0  0  0  0
   -5.9176    1.9176   -0.4140 C   0  0  0  0  0  0  0  0  0  0  0  0
   -6.9807    2.2020   -0.4233 H   0  0  0  0  0  0  0  0  0  0  0  0
   -5.0739    2.3884    0.6059 C   0  0  0  0  0  0  0  0  0  0  0  0
   -5.4713    3.0461    1.3934 H   0  0  0  0  0  0  0  0  0  0  0  0
   -3.7181    2.0317    0.6212 C   0  0  0  0  0  0  0  0  0  0  0  0
   -3.0320    2.4093    1.3956 H   0  0  0  0  0  0  0  0  0  0  0  0
   -0.8345    1.0046   -2.0546 C   0  0  0  0  0  0  0  0  0  0  0  0
   -0.3004    2.2544   -2.4275 C   0  0  0  0  0  0  0  0  0  0  0  0
   -0.1304    3.0270   -1.6601 H   0  0  0  0  0  0  0  0  0  0  0  0
    0.0688    2.4678   -3.7625 C   0  0  0  0  0  0  0  0  0  0  0  0
    0.5025    3.4363   -4.0542 H   0  0  0  0  0  0  0  0  0  0  0  0
   -0.0961    1.4504   -4.7167 C   0  0  0  0  0  0  0  0  0  0  0  0
    0.2006    1.6236   -5.7624 H   0  0  0  0  0  0  0  0  0  0  0  0
   -0.6193    0.2037   -4.3383 C   0  0  0  0  0  0  0  0  0  0  0  0
   -0.7257   -0.6009   -5.0809 H   0  0  0  0  0  0  0  0  0  0  0  0
   -0.9877   -0.0248   -3.0047 C   0  0  0  0  0  0  0  0  0  0  0  0
   -1.3728   -1.0102   -2.6999 H   0  0  0  0  0  0  0  0  0  0  0  0
  2  4  1  0  0  0  0
  2 28  1  0  0  0  0
  3  5  1  0  0  0  0
  6  9  1  0  0  0  0
  7  9  1  0  0  0  0
  7 15  1  0  0  0  0
  8  2  1  1  0  0  0
  8 10  1  0  0  0  0
  8  6  1  0  0  0  0
  9  1  2  0  0  0  0
 10  3  1  1  0  0  0
 10  7  1  0  0  0  0
 11  6  1  0  0  0  0
 11 12  1  0  0  0  0
 13 11  1  0  0  0  0
 14 11  1  0  0  0  0
 15 16  1  0  0  0  0
 15 17  1  0  0  0  0
 18 21  1  0  0  0  0
 18 15  1  0  0  0  0
 19 18  1  0  0  0  0
 20 18  1  0  0  0  0
 21 23  1  0  0  0  0
 21 22  1  0  0  0  0
 24 27  1  0  0  0  0
 24 21  1  0  0  0  0
 25 24  1  0  0  0  0
 26 24  1  0  0  0  0
 28 29  1  0  0  0  0
 29 30  1  0  0  0  0
 29 31  2  0  0  0  0
 31 32  1  0  0  0  0
 33 34  1  0  0  0  0
 33 31  1  0  0  0  0
 35 33  2  0  0  0  0
 36 35  1  0  0  0  0
 37 28  2  0  0  0  0
 37 35  1  0  0  0  0
 38 37  1  0  0  0  0
 39  2  1  0  0  0  0
 40 39  1  0  0  0  0
 40 41  1  0  0  0  0
 42 40  2  0  0  0  0
 43 42  1  0  0  0  0
 44 46  2  0  0  0  0
 44 42  1  0  0  0  0
 45 44  1  0  0  0  0
 46 48  1  0  0  0  0
 47 46  1  0  0  0  0
 48 49  1  0  0  0  0
 48 39  2  0  0  0  0
 50  3  1  0  0  0  0
 50 59  1  0  0  0  0
 51 50  2  0  0  0  0
 52 51  1  0  0  0  0
 53 51  1  0  0  0  0
 53 55  2  0  0  0  0
 54 53  1  0  0  0  0
 55 57  1  0  0  0  0
 56 55  1  0  0  0  0
 57 59  2  0  0  0  0
 57 58  1  0  0  0  0
 59 60  1  0  0  0  0
 61  3  1  0  0  0  0
 62 61  1  0  0  0  0
 62 63  1  0  0  0  0
 64 62  2  0  0  0  0
 65 64  1  0  0  0  0
 66 68  2  0  0  0  0
 66 64  1  0  0  0  0
 67 66  1  0  0  0  0
 68 70  1  0  0  0  0
 69 68  1  0  0  0  0
 70 71  1  0  0  0  0
 70 61  2  0  0  0  0
M  END
