1,2
 OpenBabel05122313063D

 19 20  0  0  1  0  0  0  0  0999 V2000
    0.8169   -0.2655   -1.2539 O   0  0  0  0  0  1  0  0  0  0  0  0
    0.8114   -0.2817    1.2580 O   0  0  0  0  0  1  0  0  0  0  0  0
    2.0910   -0.7229    0.7851 C   0  0  1  0  0  0  0  0  0  0  0  0
    2.2747   -1.7284    1.2239 H   0  0  0  0  0  0  0  0  0  0  0  0
    2.0931   -0.7184   -0.7813 C   0  0  2  0  0  0  0  0  0  0  0  0
    2.2717   -1.7216   -1.2275 H   0  0  0  0  0  0  0  0  0  0  0  0
    3.2360    0.2632   -1.1270 C   0  0  2  0  0  0  0  0  0  0  0  0
    3.1723    0.6335   -2.1674 H   0  0  0  0  0  0  0  0  0  0  0  0
    4.5612   -0.4512   -0.7717 C   0  0  0  0  0  0  0  0  0  0  0  0
    5.4188    0.1204   -1.1763 H   0  0  0  0  0  0  0  0  0  0  0  0
    4.6191   -1.4697   -1.2059 H   0  0  0  0  0  0  0  0  0  0  0  0
    4.5581   -0.4511    0.7888 C   0  0  0  0  0  0  0  0  0  0  0  0
    4.6162   -1.4695    1.2233 H   0  0  0  0  0  0  0  0  0  0  0  0
    5.4130    0.1222    1.1965 H   0  0  0  0  0  0  0  0  0  0  0  0
    3.2301    0.2607    1.1383 C   0  0  1  0  0  0  0  0  0  0  0  0
    3.1600    0.6287    2.1791 H   0  0  0  0  0  0  0  0  0  0  0  0
    3.1204    1.3033    0.0065 C   0  0  0  0  0  0  0  0  0  0  0  0
    2.1719    1.8735    0.0043 H   0  0  0  0  0  0  0  0  0  0  0  0
    3.9573    2.0297    0.0095 H   0  0  0  0  0  0  0  0  0  0  0  0
  1  5  1  0  0  0  0
  3 15  1  0  0  0  0
  3  4  1  1  0  0  0
  3  2  1  0  0  0  0
  5  6  1  6  0  0  0
  5  3  1  0  0  0  0
  7  8  1  6  0  0  0
  7  5  1  0  0  0  0
  7  9  1  0  0  0  0
  7 17  1  0  0  0  0
  9 12  1  0  0  0  0
 10  9  1  0  0  0  0
 11  9  1  0  0  0  0
 12 15  1  0  0  0  0
 12 14  1  0  0  0  0
 12 13  1  0  0  0  0
 15 16  1  1  0  0  0
 17 19  1  0  0  0  0
 17 15  1  0  0  0  0
 18 17  1  0  0  0  0
M  END
