1,2
 OpenBabel05122313063D

 18 18  0  0  0  0  0  0  0  0999 V2000
    0.3329   -1.8238   -1.2587 O   0  0  0  0  0  1  0  0  0  0  0  0
    1.5811    0.5533   -0.7325 O   0  5  0  0  0  0  0  0  0  0  0  0
    3.7662    1.8432   -0.1281 O   0  0  0  0  0  0  0  0  0  0  0  0
    1.4784   -2.3112   -1.0263 C   0  0  0  0  0  3  0  0  0  0  0  0
    1.5713   -3.4071   -1.2012 H   0  0  0  0  0  0  0  0  0  0  0  0
    2.6480   -1.6175   -0.6131 C   0  0  0  0  0  0  0  0  0  0  0  0
    3.8559   -2.3449   -0.3712 C   0  0  0  0  0  0  0  0  0  0  0  0
    3.8368   -3.4427   -0.4466 H   0  0  0  0  0  0  0  0  0  0  0  0
    5.0167   -1.6742   -0.0407 C   0  0  0  0  0  0  0  0  0  0  0  0
    5.9462   -2.2258    0.1596 H   0  0  0  0  0  0  0  0  0  0  0  0
    5.0191   -0.2534    0.0491 C   0  0  0  0  0  0  0  0  0  0  0  0
    5.9515    0.2592    0.3226 H   0  0  0  0  0  0  0  0  0  0  0  0
    3.8650    0.4882   -0.1922 C   0  0  0  0  0  0  0  0  0  0  0  0
    2.6246   -0.1810   -0.5222 C   0  0  0  0  0  0  0  0  0  0  0  0
    4.9218    2.5733    0.2317 C   0  0  0  0  0  0  0  0  0  0  0  0
    5.2872    2.2951    1.2461 H   0  0  0  0  0  0  0  0  0  0  0  0
    4.6325    3.6405    0.2328 H   0  0  0  0  0  0  0  0  0  0  0  0
    5.7499    2.4235   -0.4977 H   0  0  0  0  0  0  0  0  0  0  0  0
  1  4  1  0  0  0  0
  2 14  1  0  0  0  0
  3 15  1  0  0  0  0
  4  6  1  0  0  0  0
  5  4  1  0  0  0  0
  6 14  2  0  0  0  0
  6  7  1  0  0  0  0
  7  9  2  0  0  0  0
  8  7  1  0  0  0  0
  9 11  1  0  0  0  0
  9 10  1  0  0  0  0
 11 12  1  0  0  0  0
 13  3  1  0  0  0  0
 13 11  2  0  0  0  0
 14 13  1  0  0  0  0
 15 17  1  0  0  0  0
 15 16  1  0  0  0  0
 18 15  1  0  0  0  0
M  CHG  1   2  -1
M  END
