4,5
 OpenBabel05122313063D

 21 21  0  0  1  0  0  0  0  0999 V2000
    5.1573    0.4823   -0.2798 O   0  0  0  0  0  0  0  0  0  0  0  0
    3.0780    2.2047    0.4083 O   0  0  0  0  0  0  0  0  0  0  0  0
    4.0101    2.4112    0.1977 H   0  0  0  0  0  0  0  0  0  0  0  0
    0.3932    1.1354   -0.2212 O   0  0  0  0  0  1  0  0  0  0  0  0
    0.1118   -1.5777    0.0511 O   0  0  0  0  0  1  0  0  0  0  0  0
    3.7556   -1.3304   -0.3737 O   0  0  0  0  0  0  0  0  0  0  0  0
    3.9451   -0.0395    0.1767 C   0  0  2  0  0  0  0  0  0  0  0  0
    3.9562   -0.1163    1.3017 H   0  0  0  0  0  0  0  0  0  0  0  0
    2.8424    0.9604   -0.2238 C   0  0  1  0  0  0  0  0  0  0  0  0
    2.8631    1.0490   -1.3383 H   0  0  0  0  0  0  0  0  0  0  0  0
    1.5001    0.3700    0.1966 C   0  0  2  0  0  0  0  0  0  0  0  0
    1.5252    0.2776    1.3180 H   0  0  0  0  0  0  0  0  0  0  0  0
    1.3513   -1.0507   -0.3651 C   0  0  1  0  0  0  0  0  0  0  0  0
    1.4064   -0.9618   -1.4835 H   0  0  0  0  0  0  0  0  0  0  0  0
    2.5359   -1.9226    0.0688 C   0  0  0  0  0  0  0  0  0  0  0  0
    2.5236   -2.0356    1.1815 H   0  0  0  0  0  0  0  0  0  0  0  0
    2.4826   -2.9323   -0.3839 H   0  0  0  0  0  0  0  0  0  0  0  0
    6.2978   -0.1985    0.2137 C   0  0  0  0  0  0  0  0  0  0  0  0
    6.3383   -0.1708    1.3291 H   0  0  0  0  0  0  0  0  0  0  0  0
    7.1905    0.3157   -0.1913 H   0  0  0  0  0  0  0  0  0  0  0  0
    6.3070   -1.2610   -0.1106 H   0  0  0  0  0  0  0  0  0  0  0  0
  1  7  1  0  0  0  0
  1 18  1  0  0  0  0
  3  2  1  0  0  0  0
  4 11  1  0  0  0  0
  6 15  1  0  0  0  0
  6  7  1  0  0  0  0
  7  8  1  1  0  0  0
  9 10  1  6  0  0  0
  9  7  1  0  0  0  0
  9 11  1  0  0  0  0
  9  2  1  0  0  0  0
 11 12  1  1  0  0  0
 13 14  1  6  0  0  0
 13  5  1  0  0  0  0
 13 15  1  0  0  0  0
 13 11  1  0  0  0  0
 15 16  1  0  0  0  0
 17 15  1  0  0  0  0
 18 19  1  0  0  0  0
 20 18  1  0  0  0  0
 21 18  1  0  0  0  0
M  END
