1,2
 OpenBabel05122313063D

 58 60  0  0  1  0  0  0  0  0999 V2000
    0.4836   -0.3308   -1.0155 O   0  0  0  0  0  1  0  0  0  0  0  0
    2.2830    0.0043    1.4339 O   0  0  0  0  0  1  0  0  0  0  0  0
   -0.4711    0.4517    2.0331 C   0  0  0  0  0  0  0  0  0  0  0  0
   -0.5883    1.5394    1.9960 H   0  0  0  0  0  0  0  0  0  0  0  0
    0.4451   -0.2553    2.9940 C   0  0  1  0  0  0  0  0  0  0  0  0
    0.1947   -0.0408    4.0582 H   0  0  0  0  0  0  0  0  0  0  0  0
    0.2253   -1.7073    2.6598 C   0  0  0  0  0  0  0  0  0  0  0  0
    0.6805   -2.5492    3.1978 H   0  0  0  0  0  0  0  0  0  0  0  0
   -0.6054   -1.7957    1.5892 C   0  0  0  0  0  0  0  0  0  0  0  0
   -0.9497   -2.7314    1.1304 H   0  0  0  0  0  0  0  0  0  0  0  0
   -1.0172   -0.4365    1.1545 C   0  0  0  0  0  0  0  0  0  0  0  0
   -1.8121   -0.1109   -0.1109 C   0  0  0  0  0  0  0  0  0  0  0  0
   -3.1554   -0.8662   -0.1182 C   0  0  0  0  0  0  0  0  0  0  0  0
   -3.6375   -1.5303    1.0263 C   0  0  0  0  0  0  0  0  0  0  0  0
   -3.0377   -1.5280    1.9468 H   0  0  0  0  0  0  0  0  0  0  0  0
   -4.8832   -2.1786    1.0333 C   0  0  0  0  0  0  0  0  0  0  0  0
   -5.2184   -2.6860    1.9522 H   0  0  0  0  0  0  0  0  0  0  0  0
   -5.7140   -2.1847   -0.1005 C   0  0  0  0  0  0  0  0  0  0  0  0
   -5.2534   -1.4876   -1.2372 C   0  0  0  0  0  0  0  0  0  0  0  0
   -5.8874   -1.4404   -2.1374 H   0  0  0  0  0  0  0  0  0  0  0  0
   -4.0130   -0.8409   -1.2417 C   0  0  0  0  0  0  0  0  0  0  0  0
   -3.7216   -0.2771   -2.1376 H   0  0  0  0  0  0  0  0  0  0  0  0
   -7.0374   -2.9064   -0.1110 C   0  0  0  0  0  0  0  0  0  0  0  0
   -7.3811   -3.1449    0.9145 H   0  0  0  0  0  0  0  0  0  0  0  0
   -6.9661   -3.8656   -0.6677 H   0  0  0  0  0  0  0  0  0  0  0  0
   -7.8260   -2.3056   -0.6082 H   0  0  0  0  0  0  0  0  0  0  0  0
   -2.0848    1.4085   -0.1259 C   0  0  0  0  0  0  0  0  0  0  0  0
   -3.3538    1.9529    0.1446 C   0  0  0  0  0  0  0  0  0  0  0  0
   -4.2049    1.2863    0.3385 H   0  0  0  0  0  0  0  0  0  0  0  0
   -3.5590    3.3424    0.1837 C   0  0  0  0  0  0  0  0  0  0  0  0
   -4.5678    3.7286    0.4015 H   0  0  0  0  0  0  0  0  0  0  0  0
   -2.5093    4.2494   -0.0434 C   0  0  0  0  0  0  0  0  0  0  0  0
   -1.2325    3.7054   -0.2990 C   0  0  0  0  0  0  0  0  0  0  0  0
   -0.3787    4.3815   -0.4719 H   0  0  0  0  0  0  0  0  0  0  0  0
   -1.0264    2.3223   -0.3321 C   0  0  0  0  0  0  0  0  0  0  0  0
   -0.0212    1.9244   -0.5095 H   0  0  0  0  0  0  0  0  0  0  0  0
   -2.7317    5.7406   -0.0293 C   0  0  0  0  0  0  0  0  0  0  0  0
   -1.9494    6.2638    0.5579 H   0  0  0  0  0  0  0  0  0  0  0  0
   -3.7175    6.0027    0.4020 H   0  0  0  0  0  0  0  0  0  0  0  0
   -2.6954    6.1622   -1.0569 H   0  0  0  0  0  0  0  0  0  0  0  0
   -0.8544   -0.5597   -1.3804 C   0  0  0  0  0  0  0  0  0  0  0  0
   -1.1209    0.2387   -2.6729 C   0  0  0  0  0  0  0  0  0  0  0  0
   -0.9957    1.3256   -2.5286 H   0  0  0  0  0  0  0  0  0  0  0  0
   -2.1348    0.0639   -3.0769 H   0  0  0  0  0  0  0  0  0  0  0  0
   -0.3925   -0.1005   -3.4367 H   0  0  0  0  0  0  0  0  0  0  0  0
   -1.0416   -2.0531   -1.7112 C   0  0  0  0  0  0  0  0  0  0  0  0
   -0.2941   -2.3403   -2.4758 H   0  0  0  0  0  0  0  0  0  0  0  0
   -2.0482   -2.2594   -2.1169 H   0  0  0  0  0  0  0  0  0  0  0  0
   -0.8960   -2.6976   -0.8285 H   0  0  0  0  0  0  0  0  0  0  0  0
    1.9455    0.2102    2.7742 C   0  0  0  0  0  0  0  0  0  0  0  0
    2.0864    1.7070    3.1081 C   0  0  0  0  0  0  0  0  0  0  0  0
    3.1420    2.0187    2.9773 H   0  0  0  0  0  0  0  0  0  0  0  0
    1.7899    1.9184    4.1552 H   0  0  0  0  0  0  0  0  0  0  0  0
    1.4609    2.3225    2.4348 H   0  0  0  0  0  0  0  0  0  0  0  0
    2.8928   -0.6027    3.6741 C   0  0  0  0  0  0  0  0  0  0  0  0
    2.8443   -1.6815    3.4348 H   0  0  0  0  0  0  0  0  0  0  0  0
    2.6402   -0.4725    4.7456 H   0  0  0  0  0  0  0  0  0  0  0  0
    3.9359   -0.2624    3.5177 H   0  0  0  0  0  0  0  0  0  0  0  0
  2 50  1  0  0  0  0
  3  5  1  0  0  0  0
  4  3  1  0  0  0  0
  5  6  1  1  0  0  0
  7  5  1  0  0  0  0
  7  8  1  0  0  0  0
  9  7  2  0  0  0  0
 10  9  1  0  0  0  0
 11  9  1  0  0  0  0
 11  3  2  0  0  0  0
 12 11  1  0  0  0  0
 13 12  1  0  0  0  0
 13 14  1  0  0  0  0
 14 16  2  0  0  0  0
 14 15  1  0  0  0  0
 16 17  1  0  0  0  0
 18 16  1  0  0  0  0
 19 18  2  0  0  0  0
 20 19  1  0  0  0  0
 21 19  1  0  0  0  0
 21 13  2  0  0  0  0
 22 21  1  0  0  0  0
 23 18  1  0  0  0  0
 23 24  1  0  0  0  0
 25 23  1  0  0  0  0
 26 23  1  0  0  0  0
 27 12  1  0  0  0  0
 27 28  1  0  0  0  0
 28 30  2  0  0  0  0
 28 29  1  0  0  0  0
 30 31  1  0  0  0  0
 32 37  1  0  0  0  0
 32 30  1  0  0  0  0
 33 32  2  0  0  0  0
 34 33  1  0  0  0  0
 35 33  1  0  0  0  0
 35 27  2  0  0  0  0
 36 35  1  0  0  0  0
 37 39  1  0  0  0  0
 37 38  1  0  0  0  0
 40 37  1  0  0  0  0
 41  1  1  0  0  0  0
 41 12  1  0  0  0  0
 42 43  1  0  0  0  0
 42 41  1  0  0  0  0
 44 42  1  0  0  0  0
 45 42  1  0  0  0  0
 46 41  1  0  0  0  0
 46 49  1  0  0  0  0
 47 46  1  0  0  0  0
 48 46  1  0  0  0  0
 50  5  1  0  0  0  0
 50 51  1  0  0  0  0
 50 55  1  0  0  0  0
 51 53  1  0  0  0  0
 52 51  1  0  0  0  0
 54 51  1  0  0  0  0
 55 57  1  0  0  0  0
 56 55  1  0  0  0  0
 58 55  1  0  0  0  0
M  END
