1,14
 OpenBabel05122313063D

 26 27  0  0  0  0  0  0  0  0999 V2000
   -0.6604    0.7065    1.7457 O   0  5  0  0  0  0  0  0  0  0  0  0
   -2.8414    1.0924    2.1810 O   0  0  0  0  0  0  0  0  0  0  0  0
   -1.8002    1.3029    1.5417 C   0  0  0  0  0  0  0  0  0  0  0  0
   -1.8410    2.2494    0.3380 C   0  0  0  0  0  0  0  0  0  0  0  0
   -3.1121    2.5064   -0.2152 C   0  0  0  0  0  0  0  0  0  0  0  0
   -3.9751    2.0981    0.3325 H   0  0  0  0  0  0  0  0  0  0  0  0
   -0.6843    2.7735   -0.3015 C   0  0  0  0  0  0  0  0  0  0  0  0
   -3.2597    3.2219   -1.4078 C   0  0  0  0  0  0  0  0  0  0  0  0
   -4.2616    3.4038   -1.8274 H   0  0  0  0  0  0  0  0  0  0  0  0
   -0.8484    3.4850   -1.5116 C   0  0  0  0  0  0  0  0  0  0  0  0
    0.0475    3.8894   -2.0069 H   0  0  0  0  0  0  0  0  0  0  0  0
   -2.1145    3.6990   -2.0692 C   0  0  0  0  0  0  0  0  0  0  0  0
   -2.2078    4.2579   -3.0136 H   0  0  0  0  0  0  0  0  0  0  0  0
    0.6589    0.7119   -1.7447 O   0  5  0  0  0  0  0  0  0  0  0  0
    2.8393    1.1006   -2.1806 O   0  0  0  0  0  0  0  0  0  0  0  0
    1.7986    1.3081   -1.5394 C   0  0  0  0  0  0  0  0  0  0  0  0
    1.8400    2.2500   -0.3322 C   0  0  0  0  0  0  0  0  0  0  0  0
    3.1112    2.5046    0.2218 C   0  0  0  0  0  0  0  0  0  0  0  0
    3.9741    2.0980   -0.3276 H   0  0  0  0  0  0  0  0  0  0  0  0
    0.6835    2.7722    0.3095 C   0  0  0  0  0  0  0  0  0  0  0  0
    3.2592    3.2155    1.4171 C   0  0  0  0  0  0  0  0  0  0  0  0
    4.2613    3.3954    1.8372 H   0  0  0  0  0  0  0  0  0  0  0  0
    0.8480    3.4792    1.5221 C   0  0  0  0  0  0  0  0  0  0  0  0
   -0.0476    3.8820    2.0191 H   0  0  0  0  0  0  0  0  0  0  0  0
    2.1143    3.6906    2.0804 C   0  0  0  0  0  0  0  0  0  0  0  0
    2.2080    4.2460    3.0268 H   0  0  0  0  0  0  0  0  0  0  0  0
  3  1  1  0  0  0  0
  3  2  2  0  0  0  0
  4  3  1  0  0  0  0
  5  6  1  0  0  0  0
  5  4  1  0  0  0  0
  7 20  1  0  0  0  0
  7  4  2  0  0  0  0
  8  5  2  0  0  0  0
  9  8  1  0  0  0  0
 10  7  1  0  0  0  0
 11 10  1  0  0  0  0
 12 10  2  0  0  0  0
 12  8  1  0  0  0  0
 13 12  1  0  0  0  0
 14 16  1  0  0  0  0
 15 16  2  0  0  0  0
 16 17  1  0  0  0  0
 17 18  2  0  0  0  0
 17 20  1  0  0  0  0
 18 21  1  0  0  0  0
 19 18  1  0  0  0  0
 20 23  2  0  0  0  0
 21 22  1  0  0  0  0
 21 25  2  0  0  0  0
 23 24  1  0  0  0  0
 23 25  1  0  0  0  0
 25 26  1  0  0  0  0
M  CHG  2   1  -1  14  -1
M  END
