1,2
 OpenBabel05122313063D

 24 24  0  0  1  0  0  0  0  0999 V2000
   -1.3740   -1.4544    0.0002 O   0  0  0  0  0  1  0  0  0  0  0  0
   -1.3740    1.4544   -0.0001 O   0  5  0  0  0  0  0  0  0  0  0  0
   -4.8102   -0.0000   -0.0000 C   0  0  0  0  0  0  0  0  0  0  0  0
   -5.5342    0.0001    1.2117 C   0  0  0  0  0  0  0  0  0  0  0  0
   -4.9784    0.0002    2.1628 H   0  0  0  0  0  0  0  0  0  0  0  0
   -3.4607    2.5307   -0.0001 C   0  0  0  0  0  0  0  0  0  0  0  0
   -2.7826    3.4026   -0.0002 H   0  0  0  0  0  0  0  0  0  0  0  0
   -4.1238    2.5698    0.8870 H   0  0  0  0  0  0  0  0  0  0  0  0
   -4.1239    2.5696   -0.8870 H   0  0  0  0  0  0  0  0  0  0  0  0
   -5.5341   -0.0001   -1.2118 C   0  0  0  0  0  0  0  0  0  0  0  0
   -4.9783   -0.0002   -2.1629 H   0  0  0  0  0  0  0  0  0  0  0  0
   -3.4607   -2.5307    0.0001 C   0  0  0  0  0  0  0  0  0  0  0  0
   -4.1238   -2.5697   -0.8870 H   0  0  0  0  0  0  0  0  0  0  0  0
   -4.1240   -2.5696    0.8870 H   0  0  0  0  0  0  0  0  0  0  0  0
   -2.7826   -3.4026    0.0002 H   0  0  0  0  0  0  0  0  0  0  0  0
   -3.3098    0.0000    0.0000 C   0  0  0  0  0  0  0  0  0  0  0  0
   -2.6414   -1.2574    0.0001 C   0  0  1  0  0  3  0  0  0  0  0  0
   -6.9375    0.0001    1.2138 C   0  0  0  0  0  0  0  0  0  0  0  0
   -7.4842    0.0002    2.1693 H   0  0  0  0  0  0  0  0  0  0  0  0
   -7.6428    0.0000   -0.0001 C   0  0  0  0  0  0  0  0  0  0  0  0
   -8.7435    0.0000   -0.0002 H   0  0  0  0  0  0  0  0  0  0  0  0
   -6.9374   -0.0001   -1.2140 C   0  0  0  0  0  0  0  0  0  0  0  0
   -7.4841   -0.0002   -2.1696 H   0  0  0  0  0  0  0  0  0  0  0  0
   -2.6414    1.2574   -0.0001 C   0  0  0  0  0  0  0  0  0  0  0  0
  2 24  1  0  0  0  0
  3 16  1  0  0  0  0
  3  4  1  0  0  0  0
  4 18  2  0  0  0  0
  4  5  1  0  0  0  0
  6 24  1  0  0  0  0
  6  8  1  0  0  0  0
  7  6  1  0  0  0  0
  9  6  1  0  0  0  0
 10  3  2  0  0  0  0
 11 10  1  0  0  0  0
 12 17  1  0  0  0  0
 12 15  1  0  0  0  0
 12 14  1  0  0  0  0
 13 12  1  0  0  0  0
 16 17  1  0  0  0  0
 17  1  1  1  0  0  0
 18 19  1  0  0  0  0
 20 18  1  0  0  0  0
 21 20  1  0  0  0  0
 22 10  1  0  0  0  0
 22 20  2  0  0  0  0
 23 22  1  0  0  0  0
 24 16  2  0  0  0  0
M  CHG  1   2  -1
M  END
