1,2
 OpenBabel05122313063D

 28 29  0  0  1  0  0  0  0  0999 V2000
    1.3387    1.7469    0.6575 O   0  5  0  0  0  0  0  0  0  0  0  0
   -0.7611    0.1217   -0.4289 O   0  0  0  0  0  1  0  0  0  0  0  0
   -4.8864   -0.4560   -0.0354 C   0  0  0  0  0  0  0  0  0  0  0  0
   -0.8363    2.5287   -0.1729 C   0  0  0  0  0  0  0  0  0  0  0  0
    0.9370    4.0401    0.6407 C   0  0  0  0  0  0  0  0  0  0  0  0
    1.9440    4.1520    1.0686 H   0  0  0  0  0  0  0  0  0  0  0  0
    0.5041    2.7033    0.3600 C   0  0  0  0  0  0  0  0  0  0  0  0
   -1.6138    3.6971   -0.4386 C   0  0  0  0  0  0  0  0  0  0  0  0
   -2.6123    3.5829   -0.8814 H   0  0  0  0  0  0  0  0  0  0  0  0
   -2.8859    1.0480   -0.4023 C   0  0  0  0  0  0  0  0  0  0  0  0
   -3.5099    1.9274   -0.6077 H   0  0  0  0  0  0  0  0  0  0  0  0
   -5.8923    0.4338   -0.4902 C   0  0  0  0  0  0  0  0  0  0  0  0
   -5.6083    1.4103   -0.9103 H   0  0  0  0  0  0  0  0  0  0  0  0
   -5.2905   -1.7116    0.4823 C   0  0  0  0  0  0  0  0  0  0  0  0
   -4.5179   -2.4100    0.8401 H   0  0  0  0  0  0  0  0  0  0  0  0
   -1.1429    4.9792   -0.2005 C   0  0  0  0  0  0  0  0  0  0  0  0
   -1.7627    5.8534   -0.4453 H   0  0  0  0  0  0  0  0  0  0  0  0
   -7.2432    0.0814   -0.4225 C   0  0  0  0  0  0  0  0  0  0  0  0
   -8.0096    0.7845   -0.7825 H   0  0  0  0  0  0  0  0  0  0  0  0
    0.1464    5.1435    0.3628 C   0  0  0  0  0  0  0  0  0  0  0  0
    0.5305    6.1543    0.5718 H   0  0  0  0  0  0  0  0  0  0  0  0
   -6.6440   -2.0637    0.5512 C   0  0  0  0  0  0  0  0  0  0  0  0
   -6.9358   -3.0428    0.9603 H   0  0  0  0  0  0  0  0  0  0  0  0
   -1.4238    1.2087   -0.3620 C   0  0  2  0  0  3  0  0  0  0  0  0
   -3.4610   -0.1447   -0.0802 C   0  0  0  0  0  0  0  0  0  0  0  0
   -2.7753   -0.9526    0.2256 H   0  0  0  0  0  0  0  0  0  0  0  0
   -7.6261   -1.1680    0.0994 C   0  0  0  0  0  0  0  0  0  0  0  0
   -8.6908   -1.4418    0.1503 H   0  0  0  0  0  0  0  0  0  0  0  0
  3 14  1  0  0  0  0
  4  7  1  0  0  0  0
  5  6  1  0  0  0  0
  7  5  2  0  0  0  0
  7  1  1  0  0  0  0
  8 16  1  0  0  0  0
  8  4  2  0  0  0  0
  9  8  1  0  0  0  0
 10 24  1  0  0  0  0
 10 25  2  0  0  0  0
 11 10  1  0  0  0  0
 12 18  1  0  0  0  0
 12  3  2  0  0  0  0
 13 12  1  0  0  0  0
 14 22  2  0  0  0  0
 14 15  1  0  0  0  0
 16 20  2  0  0  0  0
 17 16  1  0  0  0  0
 18 27  2  0  0  0  0
 19 18  1  0  0  0  0
 20 21  1  0  0  0  0
 20  5  1  0  0  0  0
 22 23  1  0  0  0  0
 24  2  1  1  0  0  0
 24  4  1  0  0  0  0
 25  3  1  0  0  0  0
 25 26  1  0  0  0  0
 27 28  1  0  0  0  0
 27 22  1  0  0  0  0
M  CHG  1   1  -1
M  END
