2,3
 OpenBabel05122313063D

 28 29  0  0  1  0  0  0  0  0999 V2000
    5.9310    0.7508   -0.5037 S   0  0  0  0  0  0  0  0  0  0  0  0
   -1.4066    1.6969    0.8237 O   0  5  0  0  0  0  0  0  0  0  0  0
    0.5766    0.2655   -0.6804 O   0  0  0  0  0  1  0  0  0  0  0  0
   -0.6727    2.7179    0.4660 C   0  0  0  0  0  0  0  0  0  0  0  0
   -1.1397    4.0180    0.8398 C   0  0  0  0  0  0  0  0  0  0  0  0
   -2.1028    4.0656    1.3687 H   0  0  0  0  0  0  0  0  0  0  0  0
   -0.4299    5.1701    0.5336 C   0  0  0  0  0  0  0  0  0  0  0  0
   -0.8388    6.1517    0.8207 H   0  0  0  0  0  0  0  0  0  0  0  0
    0.8055    5.0939   -0.1533 C   0  0  0  0  0  0  0  0  0  0  0  0
    1.3575    6.0075   -0.4162 H   0  0  0  0  0  0  0  0  0  0  0  0
    1.3101    3.8458   -0.4918 C   0  0  0  0  0  0  0  0  0  0  0  0
    2.2656    3.7889   -1.0324 H   0  0  0  0  0  0  0  0  0  0  0  0
    0.6081    2.6380   -0.2090 C   0  0  0  0  0  0  0  0  0  0  0  0
    1.2253    1.3543   -0.5216 C   0  0  1  0  0  3  0  0  0  0  0  0
    2.6826    1.2237   -0.5506 C   0  0  0  0  0  0  0  0  0  0  0  0
    3.3112    2.1189   -0.6585 H   0  0  0  0  0  0  0  0  0  0  0  0
    3.2346    0.0049   -0.2574 C   0  0  0  0  0  0  0  0  0  0  0  0
    2.5179   -0.8008   -0.0275 H   0  0  0  0  0  0  0  0  0  0  0  0
    4.6155   -0.3432   -0.1116 C   0  0  0  0  0  0  0  0  0  0  0  0
    5.1048   -1.5727    0.3701 C   0  0  0  0  0  0  0  0  0  0  0  0
    4.2215   -2.7153    0.7882 C   0  0  0  0  0  0  0  0  0  0  0  0
    3.3504   -2.3752    1.3837 H   0  0  0  0  0  0  0  0  0  0  0  0
    4.7891   -3.4531    1.3869 H   0  0  0  0  0  0  0  0  0  0  0  0
    3.8149   -3.2517   -0.0963 H   0  0  0  0  0  0  0  0  0  0  0  0
    6.5302   -1.5944    0.4091 C   0  0  0  0  0  0  0  0  0  0  0  0
    7.1142   -2.4578    0.7574 H   0  0  0  0  0  0  0  0  0  0  0  0
    7.1105   -0.4165   -0.0308 C   0  0  0  0  0  0  0  0  0  0  0  0
    8.1782   -0.1746   -0.1020 H   0  0  0  0  0  0  0  0  0  0  0  0
  1 19  1  0  0  0  0
  1 27  1  0  0  0  0
  4  2  1  0  0  0  0
  4  5  1  0  0  0  0
  5  6  1  0  0  0  0
  7  8  1  0  0  0  0
  7  5  2  0  0  0  0
  9  7  1  0  0  0  0
 10  9  1  0  0  0  0
 11 13  1  0  0  0  0
 11  9  2  0  0  0  0
 12 11  1  0  0  0  0
 13  4  2  0  0  0  0
 14  3  1  1  0  0  0
 14 13  1  0  0  0  0
 15 14  1  0  0  0  0
 15 17  2  0  0  0  0
 16 15  1  0  0  0  0
 17 19  1  0  0  0  0
 17 18  1  0  0  0  0
 19 20  2  0  0  0  0
 20 25  1  0  0  0  0
 20 21  1  0  0  0  0
 21 22  1  0  0  0  0
 21 23  1  0  0  0  0
 24 21  1  0  0  0  0
 25 26  1  0  0  0  0
 27 25  2  0  0  0  0
 28 27  1  0  0  0  0
M  CHG  1   2  -1
M  END
