6,7
 OpenBabel05122313063D

 23 24  0  0  0  0  0  0  0  0999 V2000
   -0.7504    0.9739   -1.4553 S   0  0  0  0  0  0  0  0  0  0  0  0
    0.7741    1.7636    3.7035 Cl  0  0  0  0  0  0  0  0  0  0  0  0
    0.3891    6.0449    0.3831 Cl  0  0  0  0  0  0  0  0  0  0  0  0
   -6.0302    2.5215   -1.2107 Cl  0  0  0  0  0  0  0  0  0  0  0  0
   -4.5271   -2.2916    0.7865 Cl  0  0  0  0  0  0  0  0  0  0  0  0
    0.0207    0.2117    1.2336 O   0  5  0  0  0  0  0  0  0  0  0  0
   -1.7956   -1.4609   -0.1371 O   0  5  0  0  0  0  0  0  0  0  0  0
    0.0615    1.5243    1.0773 C   0  0  0  0  0  0  0  0  0  0  0  0
    0.4285    2.4113    2.1245 C   0  0  0  0  0  0  0  0  0  0  0  0
    0.5216    3.7936    1.9123 C   0  0  0  0  0  0  0  0  0  0  0  0
    0.8199    4.4523    2.7383 H   0  0  0  0  0  0  0  0  0  0  0  0
    0.2443    4.3273    0.6427 C   0  0  0  0  0  0  0  0  0  0  0  0
   -0.1509    3.4935   -0.4158 C   0  0  0  0  0  0  0  0  0  0  0  0
   -0.3656    3.9078   -1.4096 H   0  0  0  0  0  0  0  0  0  0  0  0
   -0.2514    2.1211   -0.1725 C   0  0  0  0  0  0  0  0  0  0  0  0
   -2.4641    0.6784   -0.9940 C   0  0  0  0  0  0  0  0  0  0  0  0
   -3.4547    1.6289   -1.2696 C   0  0  0  0  0  0  0  0  0  0  0  0
   -3.2001    2.5804   -1.7560 H   0  0  0  0  0  0  0  0  0  0  0  0
   -4.7783    1.3519   -0.8962 C   0  0  0  0  0  0  0  0  0  0  0  0
   -5.1072    0.1384   -0.2696 C   0  0  0  0  0  0  0  0  0  0  0  0
   -6.1429   -0.0734    0.0259 H   0  0  0  0  0  0  0  0  0  0  0  0
   -4.1042   -0.8064   -0.0171 C   0  0  0  0  0  0  0  0  0  0  0  0
   -2.7508   -0.5674   -0.3799 C   0  0  0  0  0  0  0  0  0  0  0  0
  1 16  1  0  0  0  0
  1 15  1  0  0  0  0
  3 12  1  0  0  0  0
  4 19  1  0  0  0  0
  8  6  1  0  0  0  0
  8  9  1  0  0  0  0
  9  2  1  0  0  0  0
 10  9  2  0  0  0  0
 10 11  1  0  0  0  0
 12 10  1  0  0  0  0
 13 15  1  0  0  0  0
 13 12  2  0  0  0  0
 14 13  1  0  0  0  0
 15  8  2  0  0  0  0
 16 23  1  0  0  0  0
 17 16  2  0  0  0  0
 17 19  1  0  0  0  0
 18 17  1  0  0  0  0
 19 20  2  0  0  0  0
 20 22  1  0  0  0  0
 20 21  1  0  0  0  0
 22  5  1  0  0  0  0
 23  7  1  0  0  0  0
 23 22  2  0  0  0  0
M  CHG  2   6  -1   7  -1
M  END
