1,2
 OpenBabel05122313063D

 20 21  0  0  0  0  0  0  0  0999 V2000
   -1.1789    1.5882   -1.0079 O   0  5  0  0  0  0  0  0  0  0  0  0
    0.1845   -0.5239   -0.2163 O   0  5  0  0  0  0  0  0  0  0  0  0
   -0.1897    3.6016   -0.8716 O   0  0  0  0  0  0  0  0  0  0  0  0
    2.5477   -0.3498   -0.0936 C   0  0  0  0  0  0  0  0  0  0  0  0
    2.6649   -1.7418    0.1708 C   0  0  0  0  0  0  0  0  0  0  0  0
    1.7440   -2.3396    0.2179 H   0  0  0  0  0  0  0  0  0  0  0  0
    3.9105   -2.3277    0.3611 C   0  0  0  0  0  0  0  0  0  0  0  0
    3.9878   -3.4068    0.5629 H   0  0  0  0  0  0  0  0  0  0  0  0
    5.0856   -1.5357    0.2953 C   0  0  0  0  0  0  0  0  0  0  0  0
    6.0700   -2.0038    0.4483 H   0  0  0  0  0  0  0  0  0  0  0  0
    4.9973   -0.1736    0.0383 C   0  0  0  0  0  0  0  0  0  0  0  0
    5.9078    0.4435   -0.0143 H   0  0  0  0  0  0  0  0  0  0  0  0
    3.7363    0.4576   -0.1640 C   0  0  0  0  0  0  0  0  0  0  0  0
    3.6172    1.8575   -0.4295 C   0  0  0  0  0  0  0  0  0  0  0  0
    4.5293    2.4717   -0.4754 H   0  0  0  0  0  0  0  0  0  0  0  0
    2.3743    2.4255   -0.6206 C   0  0  0  0  0  0  0  0  0  0  0  0
    2.2545    3.5003   -0.8226 H   0  0  0  0  0  0  0  0  0  0  0  0
    1.1745    1.6552   -0.5576 C   0  0  0  0  0  0  0  0  0  0  0  0
    1.2496    0.2657   -0.2909 C   0  0  0  0  0  0  0  0  0  0  0  0
   -0.1089    2.3825   -0.8072 C   0  0  0  0  0  0  0  0  0  0  0  0
  1 20  1  0  0  0  0
  3 20  2  0  0  0  0
  4  5  2  0  0  0  0
  5  6  1  0  0  0  0
  5  7  1  0  0  0  0
  7  8  1  0  0  0  0
  9  7  2  0  0  0  0
  9 10  1  0  0  0  0
 11  9  1  0  0  0  0
 12 11  1  0  0  0  0
 13  4  1  0  0  0  0
 13 11  2  0  0  0  0
 14 13  1  0  0  0  0
 15 14  1  0  0  0  0
 16 18  1  0  0  0  0
 16 14  2  0  0  0  0
 17 16  1  0  0  0  0
 18 19  2  0  0  0  0
 19  2  1  0  0  0  0
 19  4  1  0  0  0  0
 20 18  1  0  0  0  0
M  CHG  2   1  -1   2  -1
M  END
