1,2
 OpenBabel05122313063D

 34 37  0  0  0  0  0  0  0  0999 V2000
    0.7246   -0.4738    1.2535 O   0  5  0  0  0  0  0  0  0  0  0  0
   -0.7277   -0.4738   -1.2520 O   0  5  0  0  0  0  0  0  0  0  0  0
    0.9873    3.6368   -1.1106 O   0  0  0  0  0  0  0  0  0  0  0  0
    3.3734   -0.2911    1.6896 O   0  0  0  0  0  0  0  0  0  0  0  0
   -0.9849    3.6390    1.1097 O   0  0  0  0  0  0  0  0  0  0  0  0
   -3.3759   -0.2889   -1.6864 O   0  0  0  0  0  0  0  0  0  0  0  0
    1.4956    2.8217   -0.3389 C   0  0  0  0  0  0  0  0  0  0  0  0
    2.9179    2.9572    0.1049 C   0  0  0  0  0  0  0  0  0  0  0  0
    1.3394    0.6158    0.8346 C   0  0  0  0  0  0  0  0  0  0  0  0
   -0.7213    1.6521   -0.1535 C   0  0  0  0  0  0  0  0  0  0  0  0
   -1.3407    0.6167   -0.8329 C   0  0  0  0  0  0  0  0  0  0  0  0
   -1.4944    2.8236    0.3391 C   0  0  0  0  0  0  0  0  0  0  0  0
   -2.9169    2.9600   -0.1039 C   0  0  0  0  0  0  0  0  0  0  0  0
    4.9731    4.2534    0.1705 C   0  0  0  0  0  0  0  0  0  0  0  0
    5.5302    5.1674   -0.0847 H   0  0  0  0  0  0  0  0  0  0  0  0
    2.8161    0.6810    1.1667 C   0  0  0  0  0  0  0  0  0  0  0  0
   -3.5525    1.9273   -0.8338 C   0  0  0  0  0  0  0  0  0  0  0  0
   -4.8986    2.0673   -1.2236 C   0  0  0  0  0  0  0  0  0  0  0  0
   -5.3681    1.2458   -1.7843 H   0  0  0  0  0  0  0  0  0  0  0  0
    3.5523    1.9243    0.8357 C   0  0  0  0  0  0  0  0  0  0  0  0
   -2.8177    0.6830   -1.1643 C   0  0  0  0  0  0  0  0  0  0  0  0
   -4.9709    4.2580   -0.1695 C   0  0  0  0  0  0  0  0  0  0  0  0
   -5.5270    5.1728    0.0855 H   0  0  0  0  0  0  0  0  0  0  0  0
    0.7211    1.6516    0.1547 C   0  0  0  0  0  0  0  0  0  0  0  0
   -5.6032    3.2330   -0.8975 C   0  0  0  0  0  0  0  0  0  0  0  0
   -6.6521    3.3471   -1.2097 H   0  0  0  0  0  0  0  0  0  0  0  0
    5.6042    3.2282    0.8995 C   0  0  0  0  0  0  0  0  0  0  0  0
    6.6530    3.3415    1.2121 H   0  0  0  0  0  0  0  0  0  0  0  0
    3.6369    4.1151   -0.2324 C   0  0  0  0  0  0  0  0  0  0  0  0
    3.1192    4.8953   -0.8098 H   0  0  0  0  0  0  0  0  0  0  0  0
    4.8983    2.0634    1.2260 C   0  0  0  0  0  0  0  0  0  0  0  0
    5.3668    1.2418    1.7874 H   0  0  0  0  0  0  0  0  0  0  0  0
   -3.6346    4.1188    0.2329 C   0  0  0  0  0  0  0  0  0  0  0  0
   -3.1159    4.8988    0.8095 H   0  0  0  0  0  0  0  0  0  0  0  0
  2 11  1  0  0  0  0
  3  7  2  0  0  0  0
  6 21  2  0  0  0  0
  7  8  1  0  0  0  0
  7 24  1  0  0  0  0
  8 20  1  0  0  0  0
  9 16  1  0  0  0  0
  9  1  1  0  0  0  0
 10 24  1  0  0  0  0
 10 12  1  0  0  0  0
 11 10  2  0  0  0  0
 12  5  2  0  0  0  0
 13 33  1  0  0  0  0
 13 12  1  0  0  0  0
 14 27  2  0  0  0  0
 15 14  1  0  0  0  0
 16  4  2  0  0  0  0
 17 13  2  0  0  0  0
 18 25  2  0  0  0  0
 18 17  1  0  0  0  0
 19 18  1  0  0  0  0
 20 16  1  0  0  0  0
 20 31  2  0  0  0  0
 21 17  1  0  0  0  0
 21 11  1  0  0  0  0
 22 23  1  0  0  0  0
 22 33  2  0  0  0  0
 24  9  2  0  0  0  0
 25 22  1  0  0  0  0
 26 25  1  0  0  0  0
 27 28  1  0  0  0  0
 27 31  1  0  0  0  0
 29  8  2  0  0  0  0
 29 14  1  0  0  0  0
 30 29  1  0  0  0  0
 31 32  1  0  0  0  0
 33 34  1  0  0  0  0
M  CHG  2   1  -1   2  -1
M  END
