3,8
 OpenBabel05122313063D

 18 18  0  0  1  0  0  0  0  0999 V2000
    2.4036    2.4692    0.1198 N   0  0  0  0  0  0  0  0  0  0  0  0
    5.8200   -1.0930   -0.0741 N   0  0  0  0  0  0  0  0  0  0  0  0
    0.4509    0.4941   -0.4548 O   0  0  0  0  0  1  0  0  0  0  0  0
    3.1818    3.3005   -0.3208 O   0  0  0  0  0  0  0  0  0  0  0  0
    1.3759    2.7305    0.7702 O   0  0  0  0  0  0  0  0  0  0  0  0
    6.6433   -0.1853   -0.0131 O   0  0  0  0  0  0  0  0  0  0  0  0
    6.0595   -2.2968   -0.1097 O   0  0  0  0  0  0  0  0  0  0  0  0
   -0.2138   -2.1202   -0.1264 O   0  5  0  0  0  0  0  0  0  0  0  0
    1.6553    0.0937   -0.2435 C   0  0  2  0  0  3  0  0  0  0  0  0
    2.7225    1.0473   -0.0812 C   0  0  0  0  0  0  0  0  0  0  0  0
    4.0587    0.6723   -0.0591 C   0  0  0  0  0  0  0  0  0  0  0  0
    4.8543    1.4268    0.0227 H   0  0  0  0  0  0  0  0  0  0  0  0
    4.3890   -0.6951   -0.1111 C   0  0  0  0  0  0  0  0  0  0  0  0
    3.4101   -1.6763   -0.1624 C   0  0  0  0  0  0  0  0  0  0  0  0
    3.7181   -2.7325   -0.1561 H   0  0  0  0  0  0  0  0  0  0  0  0
    2.0441   -1.3024   -0.2081 C   0  0  0  0  0  0  0  0  0  0  0  0
    1.0362   -2.3108   -0.1884 C   0  0  0  0  0  0  0  0  0  0  0  0
    1.3631   -3.3740   -0.2095 H   0  0  0  0  0  0  0  0  0  0  0  0
  1  5  2  0  0  0  0
  2  6  2  0  0  0  0
  4  1  2  0  0  0  0
  7  2  2  0  0  0  0
  9  3  1  6  0  0  0
  9 16  1  0  0  0  0
  9 10  1  0  0  0  0
 10 11  2  0  0  0  0
 10  1  1  0  0  0  0
 11 12  1  0  0  0  0
 13  2  1  0  0  0  0
 13 11  1  0  0  0  0
 14 15  1  0  0  0  0
 14 13  2  0  0  0  0
 16 17  2  0  0  0  0
 16 14  1  0  0  0  0
 17  8  1  0  0  0  0
 18 17  1  0  0  0  0
M  CHG  1   8  -1
M  END
