1,2
 OpenBabel05122313063D

 43 44  0  0  0  0  0  0  0  0999 V2000
    0.9557    0.2645    0.1837 O   0  5  0  0  0  0  0  0  0  0  0  0
   -1.4916    0.1676   -0.7672 O   0  5  0  0  0  0  0  0  0  0  0  0
    1.8999    1.1736   -0.1431 C   0  0  0  0  0  0  0  0  0  0  0  0
    3.1332    1.1422    0.5591 C   0  0  0  0  0  0  0  0  0  0  0  0
    4.0959    2.1115    0.2277 C   0  0  0  0  0  0  0  0  0  0  0  0
    5.0625    2.1126    0.7518 H   0  0  0  0  0  0  0  0  0  0  0  0
    3.8482    3.0727   -0.7638 C   0  0  0  0  0  0  0  0  0  0  0  0
    4.6171    3.8211   -1.0078 H   0  0  0  0  0  0  0  0  0  0  0  0
    2.6235    3.0774   -1.4470 C   0  0  0  0  0  0  0  0  0  0  0  0
    2.4289    3.8274   -2.2298 H   0  0  0  0  0  0  0  0  0  0  0  0
    1.6284    2.1310   -1.1523 C   0  0  0  0  0  0  0  0  0  0  0  0
    0.2932    2.1274   -1.8695 C   0  0  0  0  0  0  0  0  0  0  0  0
    0.1273    1.1355   -2.3368 H   0  0  0  0  0  0  0  0  0  0  0  0
    0.3427    2.8655   -2.6942 H   0  0  0  0  0  0  0  0  0  0  0  0
   -0.8831    2.4736   -0.9741 C   0  0  0  0  0  0  0  0  0  0  0  0
   -1.1475    3.8110   -0.6344 C   0  0  0  0  0  0  0  0  0  0  0  0
   -0.4852    4.5987   -1.0276 H   0  0  0  0  0  0  0  0  0  0  0  0
   -2.2300    4.1470    0.1893 C   0  0  0  0  0  0  0  0  0  0  0  0
   -2.4232    5.1995    0.4457 H   0  0  0  0  0  0  0  0  0  0  0  0
   -3.0690    3.1371    0.6810 C   0  0  0  0  0  0  0  0  0  0  0  0
   -3.9204    3.4048    1.3261 H   0  0  0  0  0  0  0  0  0  0  0  0
   -2.8468    1.7831    0.3723 C   0  0  0  0  0  0  0  0  0  0  0  0
   -1.7366    1.4657   -0.4526 C   0  0  0  0  0  0  0  0  0  0  0  0
    3.3356    0.0928    1.6417 C   0  0  0  0  0  0  0  0  0  0  0  0
    2.8758   -0.8432    1.2569 H   0  0  0  0  0  0  0  0  0  0  0  0
    2.5669    0.4881    2.9187 C   0  0  0  0  0  0  0  0  0  0  0  0
    2.9748    1.4272    3.3468 H   0  0  0  0  0  0  0  0  0  0  0  0
    2.6538   -0.3036    3.6924 H   0  0  0  0  0  0  0  0  0  0  0  0
    1.4917    0.6500    2.7074 H   0  0  0  0  0  0  0  0  0  0  0  0
    4.8067   -0.1984    1.9538 C   0  0  0  0  0  0  0  0  0  0  0  0
    5.3760   -0.4618    1.0399 H   0  0  0  0  0  0  0  0  0  0  0  0
    4.8870   -1.0472    2.6625 H   0  0  0  0  0  0  0  0  0  0  0  0
    5.3083    0.6698    2.4303 H   0  0  0  0  0  0  0  0  0  0  0  0
   -3.7438    0.6860    0.9260 C   0  0  0  0  0  0  0  0  0  0  0  0
   -3.4138   -0.2646    0.4624 H   0  0  0  0  0  0  0  0  0  0  0  0
   -3.5578    0.5382    2.4460 C   0  0  0  0  0  0  0  0  0  0  0  0
   -3.8581    1.4628    2.9824 H   0  0  0  0  0  0  0  0  0  0  0  0
   -2.5001    0.3221    2.6926 H   0  0  0  0  0  0  0  0  0  0  0  0
   -4.1773   -0.2962    2.8356 H   0  0  0  0  0  0  0  0  0  0  0  0
   -5.2186    0.9098    0.5561 C   0  0  0  0  0  0  0  0  0  0  0  0
   -5.6227    1.8352    1.0174 H   0  0  0  0  0  0  0  0  0  0  0  0
   -5.8423    0.0642    0.9122 H   0  0  0  0  0  0  0  0  0  0  0  0
   -5.3507    0.9958   -0.5410 H   0  0  0  0  0  0  0  0  0  0  0  0
  2 23  1  0  0  0  0
  3  1  1  0  0  0  0
  3  4  1  0  0  0  0
  4 24  1  0  0  0  0
  5  4  2  0  0  0  0
  5  6  1  0  0  0  0
  7  5  1  0  0  0  0
  8  7  1  0  0  0  0
  9 11  1  0  0  0  0
  9  7  2  0  0  0  0
 10  9  1  0  0  0  0
 11  3  2  0  0  0  0
 12 11  1  0  0  0  0
 12 15  1  0  0  0  0
 13 12  1  0  0  0  0
 14 12  1  0  0  0  0
 15 16  2  0  0  0  0
 15 23  1  0  0  0  0
 16 18  1  0  0  0  0
 17 16  1  0  0  0  0
 18 19  1  0  0  0  0
 18 20  2  0  0  0  0
 20 21  1  0  0  0  0
 22 20  1  0  0  0  0
 22 34  1  0  0  0  0
 23 22  2  0  0  0  0
 24 30  1  0  0  0  0
 24 26  1  0  0  0  0
 25 24  1  0  0  0  0
 26 27  1  0  0  0  0
 26 28  1  0  0  0  0
 29 26  1  0  0  0  0
 30 33  1  0  0  0  0
 30 32  1  0  0  0  0
 31 30  1  0  0  0  0
 34 36  1  0  0  0  0
 35 34  1  0  0  0  0
 36 38  1  0  0  0  0
 36 39  1  0  0  0  0
 36 37  1  0  0  0  0
 40 42  1  0  0  0  0
 40 34  1  0  0  0  0
 40 41  1  0  0  0  0
 43 40  1  0  0  0  0
M  CHG  2   1  -1   2  -1
M  END
