1,2
 OpenBabel05122313063D

 19 19  0  0  0  0  0  0  0  0999 V2000
    0.7358   -0.4301    1.2082 O   0  5  0  0  0  0  0  0  0  0  0  0
    2.4983   -1.3949   -1.1104 O   0  5  0  0  0  0  0  0  0  0  0  0
    3.1481   -0.1619    0.9671 C   0  0  0  0  0  0  0  0  0  0  0  0
    4.2656   -0.0760   -1.1909 O   0  0  0  0  0  0  0  0  0  0  0  0
    3.4110   -1.4802    1.7976 C   0  0  0  0  0  0  0  0  0  0  0  0
    2.4810   -1.8399    2.2757 H   0  0  0  0  0  0  0  0  0  0  0  0
    3.7579   -2.2890    1.1229 H   0  0  0  0  0  0  0  0  0  0  0  0
    1.7341    0.4182    1.2789 C   0  0  0  0  0  0  0  0  0  0  0  0
    4.2641    0.8190    1.4087 C   0  0  0  0  0  0  0  0  0  0  0  0
    4.6310    1.4132    0.5521 H   0  0  0  0  0  0  0  0  0  0  0  0
    3.8334    1.5161    2.1534 H   0  0  0  0  0  0  0  0  0  0  0  0
    5.3459   -0.0609    2.0439 C   0  0  0  0  0  0  0  0  0  0  0  0
    6.0434    0.5036    2.6963 H   0  0  0  0  0  0  0  0  0  0  0  0
    5.9502   -0.5477    1.2478 H   0  0  0  0  0  0  0  0  0  0  0  0
    3.3268   -0.5158   -0.5366 C   0  0  0  0  0  0  0  0  0  0  0  0
    4.5227   -1.1152    2.7946 C   0  0  0  0  0  0  0  0  0  0  0  0
    4.0817   -0.6591    3.7076 H   0  0  0  0  0  0  0  0  0  0  0  0
    5.1109   -1.9983    3.1194 H   0  0  0  0  0  0  0  0  0  0  0  0
    1.5885    1.6023    1.5977 O   0  0  0  0  0  0  0  0  0  0  0  0
  1  8  1  0  0  0  0
  2 15  1  0  0  0  0
  3  8  1  0  0  0  0
  3  9  1  0  0  0  0
  3  5  1  0  0  0  0
  4 15  2  0  0  0  0
  5  6  1  0  0  0  0
  5 16  1  0  0  0  0
  7  5  1  0  0  0  0
  8 19  2  0  0  0  0
  9 12  1  0  0  0  0
  9 11  1  0  0  0  0
 10  9  1  0  0  0  0
 12 13  1  0  0  0  0
 12 16  1  0  0  0  0
 14 12  1  0  0  0  0
 15  3  1  0  0  0  0
 16 18  1  0  0  0  0
 16 17  1  0  0  0  0
M  CHG  2   1  -1   2  -1
M  END
