1,2
 OpenBabel05122313063D

 36 37  0  0  0  0  0  0  0  0999 V2000
   -1.3873   -0.9228   -0.0237 O   0  5  0  0  0  0  0  0  0  0  0  0
    1.3926   -0.0683   -0.1962 O   0  5  0  0  0  0  0  0  0  0  0  0
   -7.6281    3.2109    0.0494 C   0  0  0  0  0  0  0  0  0  0  0  0
   -8.6796    3.5350    0.0565 H   0  0  0  0  0  0  0  0  0  0  0  0
   -7.3140    1.8390    0.0778 C   0  0  0  0  0  0  0  0  0  0  0  0
   -8.1212    1.0920    0.1071 H   0  0  0  0  0  0  0  0  0  0  0  0
   -5.9814    1.4210    0.0684 C   0  0  0  0  0  0  0  0  0  0  0  0
   -5.7537    0.3451    0.0902 H   0  0  0  0  0  0  0  0  0  0  0  0
   -4.9262    2.3687    0.0298 C   0  0  0  0  0  0  0  0  0  0  0  0
   -5.2620    3.7459    0.0018 C   0  0  0  0  0  0  0  0  0  0  0  0
   -4.4533    4.4930   -0.0290 H   0  0  0  0  0  0  0  0  0  0  0  0
   -6.5976    4.1634    0.0113 C   0  0  0  0  0  0  0  0  0  0  0  0
   -6.8377    5.2367   -0.0115 H   0  0  0  0  0  0  0  0  0  0  0  0
   -3.5176    1.9934    0.0157 C   0  0  0  0  0  3  0  0  0  0  0  0
   -2.8189    2.8468   -0.0166 H   0  0  0  0  0  0  0  0  0  0  0  0
   -3.0026    0.7305    0.0328 C   0  0  0  0  0  0  0  0  0  0  0  0
   -3.6738   -0.1425    0.0515 H   0  0  0  0  0  0  0  0  0  0  0  0
   -1.5850    0.3645    0.0193 C   0  0  0  0  0  0  0  0  0  0  0  0
   -0.5567    1.3349    0.0357 C   0  0  0  0  0  0  0  0  0  0  0  0
   -0.8600    2.3873    0.0960 H   0  0  0  0  0  0  0  0  0  0  0  0
    0.8288    1.1021   -0.1027 C   0  0  0  0  0  0  0  0  0  0  0  0
    1.7160    2.2642   -0.1658 C   0  0  0  0  0  0  0  0  0  0  0  0
    1.2287    3.2474   -0.0832 H   0  0  0  0  0  0  0  0  0  0  0  0
    3.0672    2.1594   -0.3222 C   0  0  0  0  0  0  0  0  0  0  0  0
    3.4743    1.1371   -0.4070 H   0  0  0  0  0  0  0  0  0  0  0  0
    4.0415    3.2399   -0.3971 C   0  0  0  0  0  0  0  0  0  0  0  0
    3.6878    4.6110   -0.3063 C   0  0  0  0  0  0  0  0  0  0  0  0
    2.6346    4.8992   -0.1733 H   0  0  0  0  0  0  0  0  0  0  0  0
    4.6650    5.6062   -0.3853 C   0  0  0  0  0  0  0  0  0  0  0  0
    4.3741    6.6649   -0.3138 H   0  0  0  0  0  0  0  0  0  0  0  0
    6.0185    5.2603   -0.5571 C   0  0  0  0  0  0  0  0  0  0  0  0
    6.7842    6.0479   -0.6198 H   0  0  0  0  0  0  0  0  0  0  0  0
    6.3882    3.9090   -0.6494 C   0  0  0  0  0  0  0  0  0  0  0  0
    7.4446    3.6337   -0.7850 H   0  0  0  0  0  0  0  0  0  0  0  0
    5.4099    2.9114   -0.5700 C   0  0  0  0  0  0  0  0  0  0  0  0
    5.6985    1.8510   -0.6441 H   0  0  0  0  0  0  0  0  0  0  0  0
  1 18  1  0  0  0  0
  2 21  1  0  0  0  0
  3  4  1  0  0  0  0
  3  5  1  0  0  0  0
  5  6  1  0  0  0  0
  7  5  2  0  0  0  0
  7  8  1  0  0  0  0
  9  7  1  0  0  0  0
 10 12  1  0  0  0  0
 10  9  2  0  0  0  0
 11 10  1  0  0  0  0
 12  3  2  0  0  0  0
 13 12  1  0  0  0  0
 14  9  1  0  0  0  0
 14 16  1  0  0  0  0
 15 14  1  0  0  0  0
 16 17  1  0  0  0  0
 18 16  2  0  0  0  0
 18 19  1  0  0  0  0
 19 20  1  0  0  0  0
 21 19  2  0  0  0  0
 22 21  1  0  0  0  0
 22 23  1  0  0  0  0
 24 22  2  0  0  0  0
 25 24  1  0  0  0  0
 26 24  1  0  0  0  0
 26 27  1  0  0  0  0
 27 28  1  0  0  0  0
 29 30  1  0  0  0  0
 29 27  2  0  0  0  0
 31 29  1  0  0  0  0
 32 31  1  0  0  0  0
 33 35  1  0  0  0  0
 33 31  2  0  0  0  0
 34 33  1  0  0  0  0
 35 26  2  0  0  0  0
 36 35  1  0  0  0  0
M  CHG  2   1  -1   2  -1
M  END
