2,3
 OpenBabel05122313063D

 14 14  0  0  1  0  0  0  0  0999 V2000
   -2.4123    2.9612    0.0000 Cl  0  0  0  0  0  0  0  0  0  0  0  0
   -0.4779   -1.2771    0.0002 O   0  5  0  0  0  0  0  0  0  0  0  0
   -0.3548    1.4192    0.0000 O   0  0  0  0  0  1  0  0  0  0  0  0
   -2.4165    0.1979    0.0000 C   0  0  0  0  0  0  0  0  0  0  0  0
   -1.7890   -1.0966    0.0001 C   0  0  0  0  0  0  0  0  0  0  0  0
   -2.6003   -2.2568    0.0001 C   0  0  0  0  0  0  0  0  0  0  0  0
   -3.9904   -2.1520    0.0000 C   0  0  0  0  0  0  0  0  0  0  0  0
   -4.6135   -0.8867   -0.0000 C   0  0  0  0  0  0  0  0  0  0  0  0
   -3.8318    0.2666   -0.0000 C   0  0  0  0  0  0  0  0  0  0  0  0
   -1.5800    1.3970    0.0000 C   0  0  1  0  0  3  0  0  0  0  0  0
   -2.0907   -3.2303    0.0002 H   0  0  0  0  0  0  0  0  0  0  0  0
   -4.6022   -3.0668    0.0000 H   0  0  0  0  0  0  0  0  0  0  0  0
   -5.7098   -0.8066   -0.0001 H   0  0  0  0  0  0  0  0  0  0  0  0
   -4.3032    1.2587   -0.0001 H   0  0  0  0  0  0  0  0  0  0  0  0
  4  5  1  0  0  0  0
  5  2  1  0  0  0  0
  6  5  2  0  0  0  0
  6 11  1  0  0  0  0
  7 12  1  0  0  0  0
  7  6  1  0  0  0  0
  8  7  2  0  0  0  0
  9  8  1  0  0  0  0
  9  4  2  0  0  0  0
 10  4  1  0  0  0  0
 10  1  1  1  0  0  0
 10  3  1  0  0  0  0
 13  8  1  0  0  0  0
 14  9  1  0  0  0  0
M  CHG  1   2  -1
M  END
