1,2
 OpenBabel05122313063D

 44 47  0  0  1  0  0  0  0  0999 V2000
   -1.4787   -1.6453   -0.3696 O   0  0  0  0  0  1  0  0  0  0  0  0
   -1.5977    1.2028    0.2898 O   0  5  0  0  0  0  0  0  0  0  0  0
    6.1416    0.0606    0.0083 N   0  0  0  0  0  0  0  0  0  0  0  0
    0.6647   -2.6153   -0.5927 C   0  0  0  0  0  0  0  0  0  0  0  0
    1.3303   -2.8242    0.2686 H   0  0  0  0  0  0  0  0  0  0  0  0
    1.3308   -2.4263   -1.4582 H   0  0  0  0  0  0  0  0  0  0  0  0
    0.0335   -3.4987   -0.7964 H   0  0  0  0  0  0  0  0  0  0  0  0
   -0.2201   -1.4176   -0.3167 C   0  0  1  0  0  3  0  0  0  0  0  0
    0.3890   -0.1585   -0.0267 C   0  0  0  0  0  0  0  0  0  0  0  0
   -0.3181    1.0431    0.2520 C   0  0  0  0  0  0  0  0  0  0  0  0
    0.4581    2.3085    0.5442 C   0  0  0  0  0  0  0  0  0  0  0  0
    1.1128    2.5764   -0.3091 H   0  0  0  0  0  0  0  0  0  0  0  0
    1.1265    2.1711    1.4173 H   0  0  0  0  0  0  0  0  0  0  0  0
   -0.2476    3.1346    0.7431 H   0  0  0  0  0  0  0  0  0  0  0  0
    1.8879   -0.0978   -0.0161 C   0  0  0  0  0  0  0  0  0  0  0  0
    2.6120    0.2067   -1.1888 C   0  0  0  0  0  0  0  0  0  0  0  0
    2.0594    0.3969   -2.1223 H   0  0  0  0  0  0  0  0  0  0  0  0
    4.0118    0.2514   -1.1901 C   0  0  0  0  0  0  0  0  0  0  0  0
    4.5641    0.4613   -2.1173 H   0  0  0  0  0  0  0  0  0  0  0  0
    4.7257    0.0089    0.0004 C   0  0  0  0  0  0  0  0  0  0  0  0
    4.0181   -0.2860    1.1828 C   0  0  0  0  0  0  0  0  0  0  0  0
    4.5738   -0.4534    2.1167 H   0  0  0  0  0  0  0  0  0  0  0  0
    2.6190   -0.3466    1.1653 C   0  0  0  0  0  0  0  0  0  0  0  0
    2.0716   -0.5774    2.0926 H   0  0  0  0  0  0  0  0  0  0  0  0
    6.9234    1.1256   -0.4605 C   0  0  0  0  0  0  0  0  0  0  0  0
    6.5231    2.3647   -0.9886 C   0  0  0  0  0  0  0  0  0  0  0  0
    5.4604    2.6212   -1.1002 H   0  0  0  0  0  0  0  0  0  0  0  0
    7.5274    3.2693   -1.3603 C   0  0  0  0  0  0  0  0  0  0  0  0
    7.2391    4.2460   -1.7775 H   0  0  0  0  0  0  0  0  0  0  0  0
    8.8966    2.9557   -1.2070 C   0  0  0  0  0  0  0  0  0  0  0  0
    9.6582    3.6888   -1.5117 H   0  0  0  0  0  0  0  0  0  0  0  0
    9.2906    1.7262   -0.6648 C   0  0  0  0  0  0  0  0  0  0  0  0
   10.3567    1.4869   -0.5335 H   0  0  0  0  0  0  0  0  0  0  0  0
    8.3037    0.7988   -0.2823 C   0  0  0  0  0  0  0  0  0  0  0  0
    8.3483   -0.5211    0.3176 C   0  0  0  0  0  0  0  0  0  0  0  0
    9.3956   -1.3756    0.7091 C   0  0  0  0  0  0  0  0  0  0  0  0
   10.4430   -1.0606    0.5871 H   0  0  0  0  0  0  0  0  0  0  0  0
    9.0860   -2.6302    1.2488 C   0  0  0  0  0  0  0  0  0  0  0  0
    9.8954   -3.3068    1.5605 H   0  0  0  0  0  0  0  0  0  0  0  0
    7.7414   -3.0408    1.3904 C   0  0  0  0  0  0  0  0  0  0  0  0
    7.5201   -4.0356    1.8060 H   0  0  0  0  0  0  0  0  0  0  0  0
    6.6783   -2.2103    1.0095 C   0  0  0  0  0  0  0  0  0  0  0  0
    5.6357   -2.5419    1.1124 H   0  0  0  0  0  0  0  0  0  0  0  0
    6.9934   -0.9458    0.4842 C   0  0  0  0  0  0  0  0  0  0  0  0
  3 44  1  0  0  0  0
  4  8  1  0  0  0  0
  4  5  1  0  0  0  0
  6  4  1  0  0  0  0
  7  4  1  0  0  0  0
  8  1  1  6  0  0  0
  8  9  1  0  0  0  0
  9 15  1  0  0  0  0
  9 10  2  0  0  0  0
 10  2  1  0  0  0  0
 10 11  1  0  0  0  0
 11 14  1  0  0  0  0
 11 13  1  0  0  0  0
 12 11  1  0  0  0  0
 15 23  1  0  0  0  0
 16 15  2  0  0  0  0
 17 16  1  0  0  0  0
 18 16  1  0  0  0  0
 18 20  2  0  0  0  0
 19 18  1  0  0  0  0
 20  3  1  0  0  0  0
 20 21  1  0  0  0  0
 21 22  1  0  0  0  0
 23 21  2  0  0  0  0
 23 24  1  0  0  0  0
 25 34  1  0  0  0  0
 25  3  1  0  0  0  0
 26 25  2  0  0  0  0
 27 26  1  0  0  0  0
 28 30  2  0  0  0  0
 28 26  1  0  0  0  0
 29 28  1  0  0  0  0
 30 32  1  0  0  0  0
 31 30  1  0  0  0  0
 32 33  1  0  0  0  0
 32 34  2  0  0  0  0
 34 35  1  0  0  0  0
 35 44  2  0  0  0  0
 35 36  1  0  0  0  0
 36 38  2  0  0  0  0
 37 36  1  0  0  0  0
 38 40  1  0  0  0  0
 38 39  1  0  0  0  0
 40 41  1  0  0  0  0
 42 43  1  0  0  0  0
 42 40  2  0  0  0  0
 44 42  1  0  0  0  0
M  CHG  1   2  -1
M  END
