1,2
 OpenBabel05122313063D

 24 26  0  0  0  0  0  0  0  0999 V2000
   -0.1568   -1.3666    0.0002 O   0  5  0  0  0  0  0  0  0  0  0  0
    1.5051    0.5418    0.0002 O   0  5  0  0  0  0  0  0  0  0  0  0
   -2.8101   -2.2044    0.0001 O   0  0  0  0  0  0  0  0  0  0  0  0
   -4.3394    3.0526    0.0001 O   0  0  0  0  0  0  0  0  0  0  0  0
   -0.7155   -0.1828    0.0002 C   0  0  0  0  0  0  0  0  0  0  0  0
    0.2438    0.9156    0.0002 C   0  0  0  0  0  0  0  0  0  0  0  0
   -0.2042    2.2486    0.0002 C   0  0  0  0  0  0  0  0  0  0  0  0
    0.5414    3.0591    0.0002 H   0  0  0  0  0  0  0  0  0  0  0  0
   -1.5809    2.5130    0.0002 C   0  0  0  0  0  0  0  0  0  0  0  0
   -1.9682    3.5431    0.0002 H   0  0  0  0  0  0  0  0  0  0  0  0
   -2.5338    1.4785    0.0001 C   0  0  0  0  0  0  0  0  0  0  0  0
   -2.1120    0.0948    0.0001 C   0  0  0  0  0  0  0  0  0  0  0  0
   -3.0961   -1.0005    0.0001 C   0  0  0  0  0  0  0  0  0  0  0  0
   -4.5514   -0.5960   -0.0001 C   0  0  0  0  0  0  0  0  0  0  0  0
   -5.5279   -1.6111   -0.0002 C   0  0  0  0  0  0  0  0  0  0  0  0
   -5.1647   -2.6505   -0.0002 H   0  0  0  0  0  0  0  0  0  0  0  0
   -6.8892   -1.2885   -0.0004 C   0  0  0  0  0  0  0  0  0  0  0  0
   -7.6464   -2.0892   -0.0005 H   0  0  0  0  0  0  0  0  0  0  0  0
   -7.2928    0.0624   -0.0004 C   0  0  0  0  0  0  0  0  0  0  0  0
   -8.3649    0.3172   -0.0005 H   0  0  0  0  0  0  0  0  0  0  0  0
   -6.3300    1.0767   -0.0002 C   0  0  0  0  0  0  0  0  0  0  0  0
   -6.5958    2.1449   -0.0002 H   0  0  0  0  0  0  0  0  0  0  0  0
   -4.9569    0.7579   -0.0001 C   0  0  0  0  0  0  0  0  0  0  0  0
   -3.9525    1.8694    0.0001 C   0  0  0  0  0  0  0  0  0  0  0  0
  5  1  1  0  0  0  0
  5  6  1  0  0  0  0
  6  2  1  0  0  0  0
  6  7  2  0  0  0  0
  7  8  1  0  0  0  0
  9  7  1  0  0  0  0
  9 10  1  0  0  0  0
 11  9  2  0  0  0  0
 12 11  1  0  0  0  0
 12  5  2  0  0  0  0
 13  3  2  0  0  0  0
 13 12  1  0  0  0  0
 14 23  1  0  0  0  0
 14 13  1  0  0  0  0
 15 16  1  0  0  0  0
 15 14  2  0  0  0  0
 17 19  2  0  0  0  0
 17 15  1  0  0  0  0
 18 17  1  0  0  0  0
 19 21  1  0  0  0  0
 20 19  1  0  0  0  0
 21 22  1  0  0  0  0
 21 23  2  0  0  0  0
 23 24  1  0  0  0  0
 24  4  2  0  0  0  0
 24 11  1  0  0  0  0
M  CHG  2   1  -1   2  -1
M  END
