1,3
 OpenBabel05122313063D

  9  8  0  0  1  0  0  0  0  0999 V2000
   -0.6911    1.3065    1.4108 O   0  5  0  0  0  0  0  0  0  0  0  0
   -2.3362    2.7766    1.9646 O   0  0  0  0  0  0  0  0  0  0  0  0
   -1.0443    1.6674   -1.0737 O   0  0  0  0  0  1  0  0  0  0  0  0
   -1.6273    2.1856    1.1538 C   0  0  0  0  0  0  0  0  0  0  0  0
   -1.7289    2.4321   -0.3449 C   0  0  1  0  0  3  0  0  0  0  0  0
   -2.5368    3.5521   -0.8810 C   0  0  0  0  0  0  0  0  0  0  0  0
   -2.5645    3.5570   -1.9851 H   0  0  0  0  0  0  0  0  0  0  0  0
   -2.1216    4.5131   -0.5063 H   0  0  0  0  0  0  0  0  0  0  0  0
   -3.5579    3.4992   -0.4490 H   0  0  0  0  0  0  0  0  0  0  0  0
  4  1  1  0  0  0  0
  4  2  2  0  0  0  0
  5  3  1  1  0  0  0
  5  4  1  0  0  0  0
  6  8  1  0  0  0  0
  6  9  1  0  0  0  0
  6  5  1  0  0  0  0
  7  6  1  0  0  0  0
M  CHG  1   1  -1
M  END
