1,3
 OpenBabel05122313063D

 73 78  0  0  0  0  0  0  0  0999 V2000
    1.2268   -1.5145   -0.6811 O   0  5  0  0  0  0  0  0  0  0  0  0
    1.0196    1.0774    0.7873 O   0  0  0  0  0  0  0  0  0  0  0  0
   -1.2400    1.5053   -0.7159 O   0  5  0  0  0  0  0  0  0  0  0  0
   -0.9741   -1.0691    0.9671 O   0  0  0  0  0  0  0  0  0  0  0  0
    0.5621    3.4405    0.4318 C   0  0  0  0  0  0  0  0  0  0  0  0
    1.4765    2.3628    0.4795 C   0  0  0  0  0  0  0  0  0  0  0  0
   -1.7210    2.3248    0.2151 C   0  0  0  0  0  0  0  0  0  0  0  0
    4.0043   -1.2265    0.0878 C   0  0  0  0  0  0  0  0  0  0  0  0
   -4.0244    0.8621   -1.2889 C   0  0  0  0  0  0  0  0  0  0  0  0
   -3.3143    1.3470   -1.9705 H   0  0  0  0  0  0  0  0  0  0  0  0
   -3.0863    2.2281    0.6359 C   0  0  0  0  0  0  0  0  0  0  0  0
   -2.7317    4.1021    2.1856 C   0  0  0  0  0  0  0  0  0  0  0  0
   -3.1286    4.7953    2.9415 H   0  0  0  0  0  0  0  0  0  0  0  0
    1.7157   -2.3417    0.2379 C   0  0  0  0  0  0  0  0  0  0  0  0
    4.9303   -0.5780    0.9401 C   0  0  0  0  0  0  0  0  0  0  0  0
    4.9246   -0.8115    2.0159 H   0  0  0  0  0  0  0  0  0  0  0  0
    3.0882   -2.2594    0.6378 C   0  0  0  0  0  0  0  0  0  0  0  0
    4.0140   -0.8822   -1.2841 C   0  0  0  0  0  0  0  0  0  0  0  0
    3.3060   -1.3711   -1.9653 H   0  0  0  0  0  0  0  0  0  0  0  0
   -0.8694    3.3079    0.8096 C   0  0  0  0  0  0  0  0  0  0  0  0
   -1.4558   -2.3225    0.5674 C   0  0  0  0  0  0  0  0  0  0  0  0
   -4.9342   -0.0813   -1.7861 C   0  0  0  0  0  0  0  0  0  0  0  0
   -4.9198   -0.3310   -2.8578 H   0  0  0  0  0  0  0  0  0  0  0  0
   -3.5579    3.1250    1.6181 C   0  0  0  0  0  0  0  0  0  0  0  0
   -4.6146    3.0639    1.9195 H   0  0  0  0  0  0  0  0  0  0  0  0
   -5.8538   -0.3805    0.4365 C   0  0  0  0  0  0  0  0  0  0  0  0
   -6.5611   -0.8705    1.1231 H   0  0  0  0  0  0  0  0  0  0  0  0
   -0.5708   -3.4223    0.4687 C   0  0  0  0  0  0  0  0  0  0  0  0
   -1.3957    4.1888    1.7765 C   0  0  0  0  0  0  0  0  0  0  0  0
   -0.7263    4.9390    2.2247 H   0  0  0  0  0  0  0  0  0  0  0  0
    4.9192    0.0656   -1.7812 C   0  0  0  0  0  0  0  0  0  0  0  0
    4.9035    0.3161   -2.8527 H   0  0  0  0  0  0  0  0  0  0  0  0
    0.8665   -3.3251    0.8337 C   0  0  0  0  0  0  0  0  0  0  0  0
   -4.0103    1.2038    0.0835 C   0  0  0  0  0  0  0  0  0  0  0  0
    2.8394    2.5280    0.1974 C   0  0  0  0  0  0  0  0  0  0  0  0
    3.5021    1.6533    0.2446 H   0  0  0  0  0  0  0  0  0  0  0  0
   -1.1236   -4.6526    0.0475 C   0  0  0  0  0  0  0  0  0  0  0  0
   -0.4523   -5.5191   -0.0513 H   0  0  0  0  0  0  0  0  0  0  0  0
   -5.8540   -0.7073   -0.9293 C   0  0  0  0  0  0  0  0  0  0  0  0
   -6.5656   -1.4488   -1.3234 H   0  0  0  0  0  0  0  0  0  0  0  0
    1.0869    4.7042    0.0731 C   0  0  0  0  0  0  0  0  0  0  0  0
    0.3939    5.5568    0.0120 H   0  0  0  0  0  0  0  0  0  0  0  0
    1.4022   -4.2279    1.7742 C   0  0  0  0  0  0  0  0  0  0  0  0
    0.7350   -4.9826    2.2186 H   0  0  0  0  0  0  0  0  0  0  0  0
   -2.8184   -2.4344    0.2641 C   0  0  0  0  0  0  0  0  0  0  0  0
   -3.4571   -1.5461    0.3567 H   0  0  0  0  0  0  0  0  0  0  0  0
    5.8380    0.3681    0.4418 C   0  0  0  0  0  0  0  0  0  0  0  0
    6.5435    0.8610    1.1282 H   0  0  0  0  0  0  0  0  0  0  0  0
    2.4459    4.8833   -0.2164 C   0  0  0  0  0  0  0  0  0  0  0  0
    2.8158    5.8796   -0.5018 H   0  0  0  0  0  0  0  0  0  0  0  0
    3.5701   -3.1753    1.5973 C   0  0  0  0  0  0  0  0  0  0  0  0
    4.6317   -3.1245    1.8831 H   0  0  0  0  0  0  0  0  0  0  0  0
    3.3284    3.7932   -0.1507 C   0  0  0  0  0  0  0  0  0  0  0  0
    4.3970    3.9182   -0.3815 H   0  0  0  0  0  0  0  0  0  0  0  0
    2.7466   -4.1581    2.1598 C   0  0  0  0  0  0  0  0  0  0  0  0
    3.1524   -4.8687    2.8946 H   0  0  0  0  0  0  0  0  0  0  0  0
   -4.9404    0.5596    0.9352 C   0  0  0  0  0  0  0  0  0  0  0  0
   -4.9309    0.7885    2.0117 H   0  0  0  0  0  0  0  0  0  0  0  0
    5.8365    0.6951   -0.9239 C   0  0  0  0  0  0  0  0  0  0  0  0
    6.5443    1.4402   -1.3178 H   0  0  0  0  0  0  0  0  0  0  0  0
   -3.3348   -3.6650   -0.1620 C   0  0  0  0  0  0  0  0  0  0  0  0
   -4.4025   -3.7462   -0.4147 H   0  0  0  0  0  0  0  0  0  0  0  0
   -2.4837   -4.7764   -0.2681 C   0  0  0  0  0  0  0  0  0  0  0  0
   -2.8782   -5.7457   -0.6080 H   0  0  0  0  0  0  0  0  0  0  0  0
    1.1599    0.6388    2.1623 C   0  0  0  0  0  0  0  0  0  0  0  0
    1.7921   -0.2749    2.1591 H   0  0  0  0  0  0  0  0  0  0  0  0
    1.6989    1.4340    2.7140 H   0  0  0  0  0  0  0  0  0  0  0  0
   -0.8425   -0.9467    2.4021 C   0  0  0  0  0  0  0  0  0  0  0  0
   -1.8548   -1.0393    2.8536 H   0  0  0  0  0  0  0  0  0  0  0  0
   -0.2207   -1.7953    2.7652 H   0  0  0  0  0  0  0  0  0  0  0  0
   -0.2062    0.3767    2.7882 C   0  0  0  0  0  0  0  0  0  0  0  0
   -0.0844    0.3552    3.8924 H   0  0  0  0  0  0  0  0  0  0  0  0
   -0.8807    1.2268    2.5591 H   0  0  0  0  0  0  0  0  0  0  0  0
  1 14  1  0  0  0  0
  2 65  1  0  0  0  0
  3  7  1  0  0  0  0
  4 68  1  0  0  0  0
  5  6  1  0  0  0  0
  5 20  1  0  0  0  0
  6  2  1  0  0  0  0
  7 11  2  0  0  0  0
  7 20  1  0  0  0  0
  8 17  1  0  0  0  0
  8 15  1  0  0  0  0
  9 34  1  0  0  0  0
 10  9  1  0  0  0  0
 11 24  1  0  0  0  0
 12 13  1  0  0  0  0
 14 17  2  0  0  0  0
 14 33  1  0  0  0  0
 15 16  1  0  0  0  0
 17 51  1  0  0  0  0
 18  8  2  0  0  0  0
 19 18  1  0  0  0  0
 20 29  2  0  0  0  0
 21  4  1  0  0  0  0
 22  9  2  0  0  0  0
 22 39  1  0  0  0  0
 23 22  1  0  0  0  0
 24 25  1  0  0  0  0
 24 12  2  0  0  0  0
 26 57  1  0  0  0  0
 26 27  1  0  0  0  0
 28 21  1  0  0  0  0
 28 33  1  0  0  0  0
 29 12  1  0  0  0  0
 29 30  1  0  0  0  0
 31 18  1  0  0  0  0
 31 59  2  0  0  0  0
 32 31  1  0  0  0  0
 33 43  2  0  0  0  0
 34 11  1  0  0  0  0
 34 57  2  0  0  0  0
 35 36  1  0  0  0  0
 35  6  2  0  0  0  0
 37 28  2  0  0  0  0
 38 37  1  0  0  0  0
 39 26  2  0  0  0  0
 40 39  1  0  0  0  0
 41  5  2  0  0  0  0
 42 41  1  0  0  0  0
 43 55  1  0  0  0  0
 43 44  1  0  0  0  0
 45 46  1  0  0  0  0
 45 21  2  0  0  0  0
 47 15  2  0  0  0  0
 47 48  1  0  0  0  0
 49 53  2  0  0  0  0
 49 41  1  0  0  0  0
 50 49  1  0  0  0  0
 51 52  1  0  0  0  0
 51 55  2  0  0  0  0
 53 35  1  0  0  0  0
 54 53  1  0  0  0  0
 55 56  1  0  0  0  0
 57 58  1  0  0  0  0
 59 47  1  0  0  0  0
 60 59  1  0  0  0  0
 61 45  1  0  0  0  0
 62 61  1  0  0  0  0
 63 61  2  0  0  0  0
 63 37  1  0  0  0  0
 64 63  1  0  0  0  0
 65 67  1  0  0  0  0
 65 71  1  0  0  0  0
 66 65  1  0  0  0  0
 68 70  1  0  0  0  0
 68 71  1  0  0  0  0
 68 69  1  0  0  0  0
 71 72  1  0  0  0  0
 73 71  1  0  0  0  0
M  CHG  2   1  -1   3  -1
M  END
