1,39
 OpenBabel05122313063D

 76 81  0  0  0  0  0  0  0  0999 V2000
    1.3015    1.4438   -0.8393 O   0  5  0  0  0  0  0  0  0  0  0  0
    4.0387    0.7106   -1.5282 C   0  0  0  0  0  0  0  0  0  0  0  0
    3.3391    1.2168   -2.2055 H   0  0  0  0  0  0  0  0  0  0  0  0
    1.8455    2.2874    0.0343 C   0  0  0  0  0  0  0  0  0  0  0  0
   -1.3420    2.4045    0.4127 C   0  0  0  0  0  0  0  0  0  0  0  0
   -0.3985    3.4534    0.3061 C   0  0  0  0  0  0  0  0  0  0  0  0
    4.0878    1.0972   -0.1690 C   0  0  0  0  0  0  0  0  0  0  0  0
   -2.7022    2.6064    0.1246 C   0  0  0  0  0  0  0  0  0  0  0  0
   -3.3997    1.7595    0.1888 H   0  0  0  0  0  0  0  0  0  0  0  0
    3.2311    2.1803    0.3794 C   0  0  0  0  0  0  0  0  0  0  0  0
    1.0402    3.2973    0.6439 C   0  0  0  0  0  0  0  0  0  0  0  0
    4.8741   -0.3028   -2.0182 C   0  0  0  0  0  0  0  0  0  0  0  0
    4.8127   -0.5862   -3.0797 H   0  0  0  0  0  0  0  0  0  0  0  0
   -2.2423    4.9329   -0.3792 C   0  0  0  0  0  0  0  0  0  0  0  0
   -2.5840    5.9289   -0.6980 H   0  0  0  0  0  0  0  0  0  0  0  0
    5.0018    0.4258    0.6788 C   0  0  0  0  0  0  0  0  0  0  0  0
    5.0396    0.6935    1.7459 H   0  0  0  0  0  0  0  0  0  0  0  0
   -0.8876    4.7181   -0.0978 C   0  0  0  0  0  0  0  0  0  0  0  0
   -0.1668    5.5435   -0.1994 H   0  0  0  0  0  0  0  0  0  0  0  0
    5.8393   -0.5866    0.1879 C   0  0  0  0  0  0  0  0  0  0  0  0
    6.5363   -1.0967    0.8704 H   0  0  0  0  0  0  0  0  0  0  0  0
   -3.1544    3.8714   -0.2673 C   0  0  0  0  0  0  0  0  0  0  0  0
   -4.2196    4.0156   -0.5022 H   0  0  0  0  0  0  0  0  0  0  0  0
    3.7715    3.0970    1.3055 C   0  0  0  0  0  0  0  0  0  0  0  0
    4.8415    3.0241    1.5524 H   0  0  0  0  0  0  0  0  0  0  0  0
    2.9896    4.1015    1.8884 C   0  0  0  0  0  0  0  0  0  0  0  0
    3.4367    4.8102    2.6008 H   0  0  0  0  0  0  0  0  0  0  0  0
    1.6328    4.1956    1.5541 C   0  0  0  0  0  0  0  0  0  0  0  0
    1.0010    4.9705    2.0148 H   0  0  0  0  0  0  0  0  0  0  0  0
    5.7780   -0.9570   -1.1654 C   0  0  0  0  0  0  0  0  0  0  0  0
    6.4297   -1.7547   -1.5532 H   0  0  0  0  0  0  0  0  0  0  0  0
   -0.9043    1.1288    0.7709 O   0  0  0  0  0  0  0  0  0  0  0  0
   -1.5084    0.5376    1.9556 C   0  0  0  0  0  0  0  0  0  0  0  0
   -1.8166   -0.4903    1.6874 H   0  0  0  0  0  0  0  0  0  0  0  0
   -2.4216    1.1155    2.1969 H   0  0  0  0  0  0  0  0  0  0  0  0
   -0.5413    0.5440    3.1338 C   0  0  0  0  0  0  0  0  0  0  0  0
   -1.1510    0.4250    4.0553 H   0  0  0  0  0  0  0  0  0  0  0  0
   -0.0758    1.5517    3.2001 H   0  0  0  0  0  0  0  0  0  0  0  0
   -1.3015   -1.4441   -0.8394 O   0  5  0  0  0  0  0  0  0  0  0  0
   -4.0388   -0.7110   -1.5284 C   0  0  0  0  0  0  0  0  0  0  0  0
   -3.3395   -1.2175   -2.2057 H   0  0  0  0  0  0  0  0  0  0  0  0
   -1.8455   -2.2875    0.0343 C   0  0  0  0  0  0  0  0  0  0  0  0
    1.3419   -2.4045    0.4128 C   0  0  0  0  0  0  0  0  0  0  0  0
    0.3985   -3.4534    0.3062 C   0  0  0  0  0  0  0  0  0  0  0  0
   -4.0878   -1.0972   -0.1690 C   0  0  0  0  0  0  0  0  0  0  0  0
    2.7021   -2.6062    0.1246 C   0  0  0  0  0  0  0  0  0  0  0  0
    3.3996   -1.7592    0.1887 H   0  0  0  0  0  0  0  0  0  0  0  0
   -3.2312   -2.1804    0.3794 C   0  0  0  0  0  0  0  0  0  0  0  0
   -1.0402   -3.2973    0.6440 C   0  0  0  0  0  0  0  0  0  0  0  0
   -4.8742    0.3025   -2.0184 C   0  0  0  0  0  0  0  0  0  0  0  0
   -4.8129    0.5857   -3.0800 H   0  0  0  0  0  0  0  0  0  0  0  0
    2.2423   -4.9328   -0.3792 C   0  0  0  0  0  0  0  0  0  0  0  0
    2.5842   -5.9287   -0.6980 H   0  0  0  0  0  0  0  0  0  0  0  0
   -5.0014   -0.4254    0.6788 C   0  0  0  0  0  0  0  0  0  0  0  0
   -5.0389   -0.6929    1.7460 H   0  0  0  0  0  0  0  0  0  0  0  0
    0.8877   -4.7182   -0.0977 C   0  0  0  0  0  0  0  0  0  0  0  0
    0.1670   -5.5436   -0.1992 H   0  0  0  0  0  0  0  0  0  0  0  0
   -5.8387    0.5871    0.1879 C   0  0  0  0  0  0  0  0  0  0  0  0
   -6.5355    1.0975    0.8703 H   0  0  0  0  0  0  0  0  0  0  0  0
    3.1544   -3.8712   -0.2674 C   0  0  0  0  0  0  0  0  0  0  0  0
    4.2196   -4.0153   -0.5024 H   0  0  0  0  0  0  0  0  0  0  0  0
   -3.7715   -3.0970    1.3056 C   0  0  0  0  0  0  0  0  0  0  0  0
   -4.8415   -3.0240    1.5525 H   0  0  0  0  0  0  0  0  0  0  0  0
   -2.9896   -4.1015    1.8886 C   0  0  0  0  0  0  0  0  0  0  0  0
   -3.4368   -4.8101    2.6009 H   0  0  0  0  0  0  0  0  0  0  0  0
   -1.6328   -4.1956    1.5542 C   0  0  0  0  0  0  0  0  0  0  0  0
   -1.0011   -4.9705    2.0150 H   0  0  0  0  0  0  0  0  0  0  0  0
   -5.7776    0.9572   -1.1655 C   0  0  0  0  0  0  0  0  0  0  0  0
   -6.4292    1.7549   -1.5534 H   0  0  0  0  0  0  0  0  0  0  0  0
    0.9041   -1.1288    0.7709 O   0  0  0  0  0  0  0  0  0  0  0  0
    1.5081   -0.5376    1.9557 C   0  0  0  0  0  0  0  0  0  0  0  0
    1.8164    0.4903    1.6875 H   0  0  0  0  0  0  0  0  0  0  0  0
    2.4213   -1.1155    2.1970 H   0  0  0  0  0  0  0  0  0  0  0  0
    0.5410   -0.5439    3.1339 C   0  0  0  0  0  0  0  0  0  0  0  0
    1.1507   -0.4249    4.0554 H   0  0  0  0  0  0  0  0  0  0  0  0
    0.0755   -1.5516    3.2001 H   0  0  0  0  0  0  0  0  0  0  0  0
  1  4  1  0  0  0  0
  2  7  1  0  0  0  0
  3  2  1  0  0  0  0
  4 10  2  0  0  0  0
  4 11  1  0  0  0  0
  5 32  1  0  0  0  0
  6  5  1  0  0  0  0
  6 11  1  0  0  0  0
  7 10  1  0  0  0  0
  7 16  2  0  0  0  0
  8  9  1  0  0  0  0
  8  5  2  0  0  0  0
 10 24  1  0  0  0  0
 11 28  2  0  0  0  0
 12  2  2  0  0  0  0
 12 30  1  0  0  0  0
 13 12  1  0  0  0  0
 14 22  2  0  0  0  0
 14 18  1  0  0  0  0
 15 14  1  0  0  0  0
 16 17  1  0  0  0  0
 18  6  2  0  0  0  0
 19 18  1  0  0  0  0
 20 16  1  0  0  0  0
 20 21  1  0  0  0  0
 22  8  1  0  0  0  0
 23 22  1  0  0  0  0
 24 25  1  0  0  0  0
 24 26  2  0  0  0  0
 26 27  1  0  0  0  0
 28 26  1  0  0  0  0
 28 29  1  0  0  0  0
 30 20  2  0  0  0  0
 31 30  1  0  0  0  0
 32 33  1  0  0  0  0
 33 35  1  0  0  0  0
 33 36  1  0  0  0  0
 34 33  1  0  0  0  0
 36 74  1  0  0  0  0
 36 38  1  0  0  0  0
 36 37  1  0  0  0  0
 39 42  1  0  0  0  0
 40 45  1  0  0  0  0
 41 40  1  0  0  0  0
 42 48  2  0  0  0  0
 42 49  1  0  0  0  0
 43 70  1  0  0  0  0
 44 43  1  0  0  0  0
 44 49  1  0  0  0  0
 45 48  1  0  0  0  0
 45 54  2  0  0  0  0
 46 47  1  0  0  0  0
 46 43  2  0  0  0  0
 48 62  1  0  0  0  0
 49 66  2  0  0  0  0
 50 40  2  0  0  0  0
 50 68  1  0  0  0  0
 51 50  1  0  0  0  0
 52 60  2  0  0  0  0
 52 56  1  0  0  0  0
 53 52  1  0  0  0  0
 54 55  1  0  0  0  0
 56 44  2  0  0  0  0
 57 56  1  0  0  0  0
 58 54  1  0  0  0  0
 58 59  1  0  0  0  0
 60 46  1  0  0  0  0
 61 60  1  0  0  0  0
 62 63  1  0  0  0  0
 62 64  2  0  0  0  0
 64 65  1  0  0  0  0
 66 64  1  0  0  0  0
 66 67  1  0  0  0  0
 68 58  2  0  0  0  0
 69 68  1  0  0  0  0
 70 71  1  0  0  0  0
 71 73  1  0  0  0  0
 71 74  1  0  0  0  0
 72 71  1  0  0  0  0
 74 76  1  0  0  0  0
 74 75  1  0  0  0  0
M  CHG  2   1  -1  39  -1
M  END
