25,29
 OpenBabel05122313063D

 30 31  0  0  0  0  0  0  0  0999 V2000
    0.6164    0.7958    2.3282 C   0  0  0  0  0  0  0  0  0  0  0  0
   -0.2691    1.8221    3.0757 C   0  0  0  0  0  0  0  0  0  0  0  0
   -0.9442    1.2785    3.7777 H   0  0  0  0  0  0  0  0  0  0  0  0
    0.3774    2.4833    3.6828 H   0  0  0  0  0  0  0  0  0  0  0  0
   -1.9047    2.0800    1.3583 C   0  0  0  0  0  0  0  0  0  0  0  0
   -2.9168    1.2510    1.8141 C   0  0  0  0  0  0  0  0  0  0  0  0
   -2.9814    1.0182    2.8874 H   0  0  0  0  0  0  0  0  0  0  0  0
   -3.8589    0.6647    0.9205 C   0  0  0  0  0  0  0  0  0  0  0  0
   -4.8857   -0.2206    1.3596 C   0  0  0  0  0  0  0  0  0  0  0  0
   -4.9552   -0.4554    2.4343 H   0  0  0  0  0  0  0  0  0  0  0  0
   -5.7970   -0.7675    0.4618 C   0  0  0  0  0  0  0  0  0  0  0  0
   -6.5875   -1.4441    0.8217 H   0  0  0  0  0  0  0  0  0  0  0  0
   -5.7227   -0.4354   -0.9161 C   0  0  0  0  0  0  0  0  0  0  0  0
   -6.4577   -0.8544   -1.6208 H   0  0  0  0  0  0  0  0  0  0  0  0
   -4.7256    0.4182   -1.3749 C   0  0  0  0  0  0  0  0  0  0  0  0
   -4.6584    0.6730   -2.4443 H   0  0  0  0  0  0  0  0  0  0  0  0
   -3.7652    0.9765   -0.4845 C   0  0  0  0  0  0  0  0  0  0  0  0
   -2.7097    1.8202   -0.9433 C   0  0  0  0  0  0  0  0  0  0  0  0
   -2.6114    1.9884   -2.0248 H   0  0  0  0  0  0  0  0  0  0  0  0
   -1.7864    2.3595   -0.0542 C   0  0  0  0  0  0  0  0  0  0  0  0
   -0.4895    3.3031   -1.8046 C   0  0  0  0  0  0  0  0  0  0  0  0
    0.3535    4.0212   -1.8663 H   0  0  0  0  0  0  0  0  0  0  0  0
   -1.3733    3.7543   -2.3033 H   0  0  0  0  0  0  0  0  0  0  0  0
   -0.0838    2.0007   -2.5510 C   0  0  0  0  0  0  0  0  0  0  0  0
    0.1467    0.5188    1.1580 O   0  5  0  0  0  0  0  0  0  0  0  0
    1.6308    0.3453    2.8729 O   0  0  0  0  0  0  0  0  0  0  0  0
   -0.9841    2.6673    2.1774 O   0  0  0  0  0  0  0  0  0  0  0  0
   -0.7214    3.1239   -0.4077 O   0  0  0  0  0  0  0  0  0  0  0  0
    0.7683    1.2554   -1.9341 O   0  5  0  0  0  0  0  0  0  0  0  0
   -0.5644    1.7959   -3.6746 O   0  0  0  0  0  0  0  0  0  0  0  0
  1 26  2  0  0  0  0
  1  2  1  0  0  0  0
  2  4  1  0  0  0  0
  2  3  1  0  0  0  0
  5  6  1  0  0  0  0
  5 27  1  0  0  0  0
  6  7  1  0  0  0  0
  8  9  1  0  0  0  0
  8  6  2  0  0  0  0
  9 10  1  0  0  0  0
 11 12  1  0  0  0  0
 11  9  2  0  0  0  0
 13 11  1  0  0  0  0
 14 13  1  0  0  0  0
 15 13  2  0  0  0  0
 15 17  1  0  0  0  0
 16 15  1  0  0  0  0
 17  8  1  0  0  0  0
 18 17  2  0  0  0  0
 18 20  1  0  0  0  0
 19 18  1  0  0  0  0
 20  5  2  0  0  0  0
 21 28  1  0  0  0  0
 22 21  1  0  0  0  0
 23 21  1  0  0  0  0
 24 29  1  0  0  0  0
 24 21  1  0  0  0  0
 25  1  1  0  0  0  0
 27  2  1  0  0  0  0
 28 20  1  0  0  0  0
 30 24  2  0  0  0  0
M  CHG  2  25  -1  29  -1
M  END
