1,2
 OpenBabel05122313063D

 12 12  0  0  1  0  0  0  0  0999 V2000
    1.3818   -2.3329    1.5125 O   0  0  0  0  0  1  0  0  0  0  0  0
    1.3791   -2.5800   -1.2893 O   0  0  0  0  0  1  0  0  0  0  0  0
    3.8579   -3.5964   -2.1607 O   0  0  0  0  0  0  0  0  0  0  0  0
    2.3485   -2.9769   -0.4912 N   0  0  0  0  0  0  0  0  0  0  0  0
    3.5744   -3.4927   -0.9809 C   0  0  0  0  0  0  0  0  0  0  0  0
    4.4278   -3.8434    0.2319 C   0  0  0  0  0  0  0  0  0  0  0  0
    5.4032   -3.3255    0.1357 H   0  0  0  0  0  0  0  0  0  0  0  0
    4.6435   -4.9315    0.2219 H   0  0  0  0  0  0  0  0  0  0  0  0
    3.6159   -3.3918    1.4552 C   0  0  0  0  0  0  0  0  0  0  0  0
    3.3930   -4.2084    2.1728 H   0  0  0  0  0  0  0  0  0  0  0  0
    4.1137   -2.5881    2.0368 H   0  0  0  0  0  0  0  0  0  0  0  0
    2.3232   -2.8506    0.8839 C   0  0  1  0  0  3  0  0  0  0  0  0
  2  4  1  0  0  0  0
  3  5  2  0  0  0  0
  4 12  1  0  0  0  0
  5  4  1  0  0  0  0
  5  6  1  0  0  0  0
  6  9  1  0  0  0  0
  7  6  1  0  0  0  0
  8  6  1  0  0  0  0
  9 11  1  0  0  0  0
  9 10  1  0  0  0  0
 12  9  1  0  0  0  0
 12  1  1  6  0  0  0
M  END
