2,4
 OpenBabel05122313063D

 26 27  0  0  0  0  0  0  0  0999 V2000
   -9.5413    0.5298   -0.0624 F   0  0  0  0  0  0  0  0  0  0  0  0
    2.5671    1.0714   -1.1135 O   0  5  0  0  0  0  0  0  0  0  0  0
    0.9453    2.6269   -1.1531 O   0  0  0  0  0  0  0  0  0  0  0  0
    2.0853   -1.2140    0.1165 O   0  5  0  0  0  0  0  0  0  0  0  0
   -3.3135    0.1145   -0.1844 N   0  0  0  0  0  2  0  0  0  0  0  0
   -4.1571   -0.7674    0.1719 N   0  0  0  0  0  2  0  0  0  0  0  0
    1.2968    1.4810   -0.9193 C   0  0  0  0  0  0  0  0  0  0  0  0
    0.3657    0.4056   -0.4476 C   0  0  0  0  0  0  0  0  0  0  0  0
    0.8085   -0.8736    0.0272 C   0  0  0  0  0  0  0  0  0  0  0  0
   -0.1712   -1.8344    0.4233 C   0  0  0  0  0  0  0  0  0  0  0  0
    0.1943   -2.8087    0.7814 H   0  0  0  0  0  0  0  0  0  0  0  0
   -1.5248   -1.5458    0.3641 C   0  0  0  0  0  0  0  0  0  0  0  0
   -2.2881   -2.2750    0.6714 H   0  0  0  0  0  0  0  0  0  0  0  0
   -1.9682   -0.2741   -0.0986 C   0  0  0  0  0  0  0  0  0  0  0  0
   -1.0128    0.6761   -0.4970 C   0  0  0  0  0  0  0  0  0  0  0  0
   -1.3461    1.6620   -0.8525 H   0  0  0  0  0  0  0  0  0  0  0  0
   -5.5057   -0.3681    0.0859 C   0  0  0  0  0  0  0  0  0  0  0  0
   -6.4652   -1.3296    0.4733 C   0  0  0  0  0  0  0  0  0  0  0  0
   -6.1017   -2.3113    0.8107 H   0  0  0  0  0  0  0  0  0  0  0  0
   -7.8318   -1.0349    0.4264 C   0  0  0  0  0  0  0  0  0  0  0  0
   -8.5960   -1.7673    0.7229 H   0  0  0  0  0  0  0  0  0  0  0  0
   -8.2303    0.2345   -0.0131 C   0  0  0  0  0  0  0  0  0  0  0  0
   -7.2973    1.2106   -0.4047 C   0  0  0  0  0  0  0  0  0  0  0  0
   -7.6616    2.1920   -0.7422 H   0  0  0  0  0  0  0  0  0  0  0  0
   -5.9368    0.9078   -0.3547 C   0  0  0  0  0  0  0  0  0  0  0  0
   -5.1695    1.6371   -0.6507 H   0  0  0  0  0  0  0  0  0  0  0  0
  1 22  1  0  0  0  0
  2  7  1  0  0  0  0
  3  7  2  0  0  0  0
  5 14  1  0  0  0  0
  5  6  1  0  0  0  0
  7  8  1  0  0  0  0
  8  9  1  0  0  0  0
  9  4  1  0  0  0  0
  9 10  2  0  0  0  0
 10 11  1  0  0  0  0
 12 10  1  0  0  0  0
 12 13  1  0  0  0  0
 14 12  2  0  0  0  0
 15  8  2  0  0  0  0
 15 14  1  0  0  0  0
 16 15  1  0  0  0  0
 17  6  1  0  0  0  0
 17 18  1  0  0  0  0
 18 19  1  0  0  0  0
 20 18  2  0  0  0  0
 20 21  1  0  0  0  0
 22 20  1  0  0  0  0
 23 25  1  0  0  0  0
 23 22  2  0  0  0  0
 24 23  1  0  0  0  0
 25 17  2  0  0  0  0
 26 25  1  0  0  0  0
M  CHG  2   2  -1   4  -1
M  END
