2,4
 OpenBabel05122313063D

 26 27  0  0  0  0  0  0  0  0999 V2000
   -9.0190    0.3663    0.0329 Br  0  0  0  0  0  0  0  0  0  0  0  0
    3.6299    1.2817   -0.9233 O   0  5  0  0  0  0  0  0  0  0  0  0
    1.9065    2.7192   -1.0059 O   0  0  0  0  0  0  0  0  0  0  0  0
    3.1992   -1.2089   -0.1595 O   0  5  0  0  0  0  0  0  0  0  0  0
   -2.2329    0.0044   -0.2114 N   0  0  0  0  0  2  0  0  0  0  0  0
   -3.0496   -0.9349    0.0491 N   0  0  0  0  0  2  0  0  0  0  0  0
    2.3252    1.5890   -0.8110 C   0  0  0  0  0  0  0  0  0  0  0  0
    1.4327    0.4295   -0.4706 C   0  0  0  0  0  0  0  0  0  0  0  0
    1.9126   -0.8878   -0.1708 C   0  0  0  0  0  0  0  0  0  0  0  0
    0.9650   -1.9179    0.1134 C   0  0  0  0  0  0  0  0  0  0  0  0
    1.3622   -2.9200    0.3348 H   0  0  0  0  0  0  0  0  0  0  0  0
   -0.3964   -1.6621    0.1092 C   0  0  0  0  0  0  0  0  0  0  0  0
   -1.1357   -2.4445    0.3330 H   0  0  0  0  0  0  0  0  0  0  0  0
   -0.8780   -0.3559   -0.1889 C   0  0  0  0  0  0  0  0  0  0  0  0
    0.0470    0.6618   -0.4803 C   0  0  0  0  0  0  0  0  0  0  0  0
   -0.3156    1.6733   -0.7146 H   0  0  0  0  0  0  0  0  0  0  0  0
   -4.4078   -0.5601    0.0259 C   0  0  0  0  0  0  0  0  0  0  0  0
   -5.3405   -1.5810    0.3101 C   0  0  0  0  0  0  0  0  0  0  0  0
   -4.9530   -2.5874    0.5271 H   0  0  0  0  0  0  0  0  0  0  0  0
   -6.7141   -1.3153    0.3145 C   0  0  0  0  0  0  0  0  0  0  0  0
   -7.4417   -2.1086    0.5355 H   0  0  0  0  0  0  0  0  0  0  0  0
   -7.1558   -0.0121    0.0307 C   0  0  0  0  0  0  0  0  0  0  0  0
   -6.2416    1.0220   -0.2561 C   0  0  0  0  0  0  0  0  0  0  0  0
   -6.6122    2.0337   -0.4753 H   0  0  0  0  0  0  0  0  0  0  0  0
   -4.8741    0.7467   -0.2579 C   0  0  0  0  0  0  0  0  0  0  0  0
   -4.1295    1.5252   -0.4768 H   0  0  0  0  0  0  0  0  0  0  0  0
  2  7  1  0  0  0  0
  3  7  2  0  0  0  0
  5 14  1  0  0  0  0
  5  6  1  0  0  0  0
  7  8  1  0  0  0  0
  8  9  1  0  0  0  0
  9  4  1  0  0  0  0
  9 10  2  0  0  0  0
 10 11  1  0  0  0  0
 12 10  1  0  0  0  0
 12 13  1  0  0  0  0
 14 12  2  0  0  0  0
 15  8  2  0  0  0  0
 15 14  1  0  0  0  0
 16 15  1  0  0  0  0
 17  6  1  0  0  0  0
 17 18  1  0  0  0  0
 18 20  2  0  0  0  0
 18 19  1  0  0  0  0
 20 21  1  0  0  0  0
 22  1  1  0  0  0  0
 22 20  1  0  0  0  0
 23 22  2  0  0  0  0
 24 23  1  0  0  0  0
 25 23  1  0  0  0  0
 25 17  2  0  0  0  0
 26 25  1  0  0  0  0
M  CHG  2   2  -1   4  -1
M  END
