1,2
 OpenBabel05122313063D

 15 15  0  0  0  0  0  0  0  0999 V2000
   -2.5433    0.0873    0.9032 O   0  5  0  0  0  0  0  0  0  0  0  0
   -1.9754   -0.3636   -1.2187 O   0  5  0  0  0  0  0  0  0  0  0  0
   -8.4802   -0.1124    1.8415 N   0  0  0  0  0  0  0  0  0  0  0  0
   -4.3014   -0.3373   -0.6634 C   0  0  0  0  0  0  0  0  0  0  0  0
   -4.6820   -0.5899   -1.9957 C   0  0  0  0  0  0  0  0  0  0  0  0
   -3.8886   -0.6785   -2.7521 H   0  0  0  0  0  0  0  0  0  0  0  0
   -6.0375   -0.7183   -2.3315 C   0  0  0  0  0  0  0  0  0  0  0  0
   -6.3320   -0.9138   -3.3735 H   0  0  0  0  0  0  0  0  0  0  0  0
   -7.0239   -0.5973   -1.3447 C   0  0  0  0  0  0  0  0  0  0  0  0
   -8.0891   -0.6964   -1.5983 H   0  0  0  0  0  0  0  0  0  0  0  0
   -6.6489   -0.3433   -0.0030 C   0  0  0  0  0  0  0  0  0  0  0  0
   -5.2836   -0.2135    0.3323 C   0  0  0  0  0  0  0  0  0  0  0  0
   -4.9677   -0.0163    1.3662 H   0  0  0  0  0  0  0  0  0  0  0  0
   -7.6552   -0.2168    1.0125 C   0  0  0  0  0  0  0  0  0  0  0  0
   -2.8447   -0.1953   -0.3003 C   0  0  0  0  0  3  0  0  0  0  0  0
  2 15  1  0  0  0  0
  4 15  1  0  0  0  0
  4 12  1  0  0  0  0
  5  4  2  0  0  0  0
  6  5  1  0  0  0  0
  7  5  1  0  0  0  0
  7  9  2  0  0  0  0
  8  7  1  0  0  0  0
  9 11  1  0  0  0  0
 10  9  1  0  0  0  0
 11 12  2  0  0  0  0
 11 14  1  0  0  0  0
 12 13  1  0  0  0  0
 14  3  3  0  0  0  0
 15  1  1  0  0  0  0
M  CHG  2   1  -1   2  -1
M  END
