11,12
 OpenBabel05122313063D

 33 33  0  0  0  0  0  0  0  0999 V2000
   -2.9978   -0.0648    1.2977 O   0  0  0  0  0  0  0  0  0  0  0  0
    1.6572    0.5790    1.3522 O   0  0  0  0  0  0  0  0  0  0  0  0
   -0.5564   -1.0447    1.1730 O   0  0  0  0  0  0  0  0  0  0  0  0
   -6.4704   -0.5581    1.3874 O   0  0  0  0  0  0  0  0  0  0  0  0
   -7.0416   -1.2098    0.9236 H   0  0  0  0  0  0  0  0  0  0  0  0
   -4.9879   -1.4200   -0.0903 O   0  0  0  0  0  0  0  0  0  0  0  0
    4.6489    0.0687    2.6684 O   0  0  0  0  0  0  0  0  0  0  0  0
    4.5307    0.0772    0.4500 O   0  0  0  0  0  0  0  0  0  0  0  0
    0.6342   -3.8788    0.7145 O   0  0  0  0  0  0  0  0  0  0  0  0
    2.1102   -2.1169    0.7711 O   0  0  0  0  0  0  0  0  0  0  0  0
    3.7317    0.6182   -0.6401 O   0  0  0  0  0  1  0  0  0  0  0  0
    2.7354   -2.5295   -0.4907 O   0  0  0  0  0  1  0  0  0  0  0  0
    4.0623    0.4258    1.6655 C   0  0  0  0  0  0  0  0  0  0  0  0
    2.8246    1.3306    1.7036 C   0  0  0  0  0  0  0  0  0  0  0  0
    2.7319    1.6935    2.7476 H   0  0  0  0  0  0  0  0  0  0  0  0
    2.9627    2.1804    1.0021 H   0  0  0  0  0  0  0  0  0  0  0  0
    0.4379    1.1610    1.5315 C   0  0  0  0  0  0  0  0  0  0  0  0
    0.2457    2.5358    1.7702 C   0  0  0  0  0  0  0  0  0  0  0  0
    1.1087    3.2079    1.8537 H   0  0  0  0  0  0  0  0  0  0  0  0
   -1.0550    3.0432    1.8737 C   0  0  0  0  0  0  0  0  0  0  0  0
   -1.2031    4.1158    2.0675 H   0  0  0  0  0  0  0  0  0  0  0  0
   -2.1733    2.2090    1.7336 C   0  0  0  0  0  0  0  0  0  0  0  0
   -3.1812    2.6337    1.8219 H   0  0  0  0  0  0  0  0  0  0  0  0
   -1.9865    0.8329    1.4968 C   0  0  0  0  0  0  0  0  0  0  0  0
   -0.6784    0.2870    1.4379 C   0  0  0  0  0  0  0  0  0  0  0  0
    0.2041   -1.8904    2.0652 C   0  0  0  0  0  0  0  0  0  0  0  0
   -0.5024   -2.5024    2.6614 H   0  0  0  0  0  0  0  0  0  0  0  0
    0.8637   -1.2937    2.7235 H   0  0  0  0  0  0  0  0  0  0  0  0
    1.0113   -2.8045    1.1373 C   0  0  0  0  0  0  0  0  0  0  0  0
   -4.3169    0.4069    1.3798 C   0  0  0  0  0  0  0  0  0  0  0  0
   -4.4698    1.3250    0.7609 H   0  0  0  0  0  0  0  0  0  0  0  0
   -4.6131    0.6602    2.4224 H   0  0  0  0  0  0  0  0  0  0  0  0
   -5.2537   -0.6463    0.8064 C   0  0  0  0  0  0  0  0  0  0  0  0
  1 30  1  0  0  0  0
  1 24  1  0  0  0  0
  2 17  1  0  0  0  0
  2 14  1  0  0  0  0
  3 25  1  0  0  0  0
  3 26  1  0  0  0  0
  5  4  1  0  0  0  0
  6 33  2  0  0  0  0
  8 13  1  0  0  0  0
  9 29  2  0  0  0  0
 10 29  1  0  0  0  0
 11  8  1  0  0  0  0
 12 10  1  0  0  0  0
 13 14  1  0  0  0  0
 13  7  2  0  0  0  0
 14 15  1  0  0  0  0
 16 14  1  0  0  0  0
 17 18  1  0  0  0  0
 18 19  1  0  0  0  0
 18 20  2  0  0  0  0
 20 21  1  0  0  0  0
 22 23  1  0  0  0  0
 22 20  1  0  0  0  0
 24 22  2  0  0  0  0
 25 24  1  0  0  0  0
 25 17  2  0  0  0  0
 26 27  1  0  0  0  0
 26 28  1  0  0  0  0
 29 26  1  0  0  0  0
 30 32  1  0  0  0  0
 31 30  1  0  0  0  0
 33 30  1  0  0  0  0
 33  4  1  0  0  0  0
M  END
