3,6
 OpenBabel05122313063D

 39 38  0  0  0  0  0  0  0  0999 V2000
   -1.0652    1.3207   -0.9261 P   0  0  0  0  0  4  0  0  0  0  0  0
    1.7664    0.2630   -0.7544 P   0  0  0  0  0  4  0  0  0  0  0  0
   -1.2966    0.4651    0.3106 O   0  0  0  0  0  1  0  0  0  0  0  0
   -2.1894    1.2564   -2.0710 O   0  0  0  0  0  0  0  0  0  0  0  0
   -0.9687    2.8907   -0.5642 O   0  0  0  0  0  0  0  0  0  0  0  0
    1.3228   -0.8055    0.2284 O   0  0  0  0  0  1  0  0  0  0  0  0
    2.9788   -0.2469   -1.6962 O   0  0  0  0  0  0  0  0  0  0  0  0
    2.3340    1.6332   -0.1125 O   0  0  0  0  0  0  0  0  0  0  0  0
    0.4562    0.8931   -1.8392 C   0  0  0  0  0  0  0  0  0  0  0  0
    0.1826    0.0539   -2.5093 H   0  0  0  0  0  0  0  0  0  0  0  0
    0.8214    1.7566   -2.4272 H   0  0  0  0  0  0  0  0  0  0  0  0
   -3.4873    0.6322   -1.8126 C   0  0  0  0  0  0  0  0  0  0  0  0
   -3.3060   -0.4084   -1.4731 H   0  0  0  0  0  0  0  0  0  0  0  0
   -3.9604    0.5963   -2.8128 H   0  0  0  0  0  0  0  0  0  0  0  0
   -4.3205    1.4214   -0.8223 C   0  0  0  0  0  0  0  0  0  0  0  0
   -3.8601    1.4011    0.1854 H   0  0  0  0  0  0  0  0  0  0  0  0
   -5.3274    0.9650   -0.7393 H   0  0  0  0  0  0  0  0  0  0  0  0
   -4.4394    2.4741   -1.1471 H   0  0  0  0  0  0  0  0  0  0  0  0
   -0.6183    3.3429    0.7782 C   0  0  0  0  0  0  0  0  0  0  0  0
   -0.2885    2.4770    1.3888 H   0  0  0  0  0  0  0  0  0  0  0  0
   -1.5505    3.7363    1.2336 H   0  0  0  0  0  0  0  0  0  0  0  0
    0.4475    4.4131    0.6727 C   0  0  0  0  0  0  0  0  0  0  0  0
    1.3658    3.9973    0.2152 H   0  0  0  0  0  0  0  0  0  0  0  0
    0.6978    4.7928    1.6839 H   0  0  0  0  0  0  0  0  0  0  0  0
    0.0975    5.2669    0.0596 H   0  0  0  0  0  0  0  0  0  0  0  0
    3.2452   -1.6723   -1.8823 C   0  0  0  0  0  0  0  0  0  0  0  0
    3.0771   -2.1929   -0.9177 H   0  0  0  0  0  0  0  0  0  0  0  0
    4.3247   -1.7128   -2.1273 H   0  0  0  0  0  0  0  0  0  0  0  0
    2.3897   -2.2639   -2.9842 C   0  0  0  0  0  0  0  0  0  0  0  0
    1.3211   -2.2914   -2.6878 H   0  0  0  0  0  0  0  0  0  0  0  0
    2.7052   -3.3091   -3.1771 H   0  0  0  0  0  0  0  0  0  0  0  0
    2.5001   -1.6915   -3.9269 H   0  0  0  0  0  0  0  0  0  0  0  0
    3.4289    1.5596    0.8546 C   0  0  0  0  0  0  0  0  0  0  0  0
    4.1460    2.3431    0.5371 H   0  0  0  0  0  0  0  0  0  0  0  0
    3.9385    0.5783    0.7549 H   0  0  0  0  0  0  0  0  0  0  0  0
    2.9206    1.7803    2.2631 C   0  0  0  0  0  0  0  0  0  0  0  0
    2.4368    2.7722    2.3599 H   0  0  0  0  0  0  0  0  0  0  0  0
    3.7703    1.7422    2.9744 H   0  0  0  0  0  0  0  0  0  0  0  0
    2.1875    0.9987    2.5458 H   0  0  0  0  0  0  0  0  0  0  0  0
  1  5  1  0  0  0  0
  1  3  1  0  0  0  0
  2  8  1  0  0  0  0
  2  6  1  0  0  0  0
  4 12  1  0  0  0  0
  4  1  1  0  0  0  0
  5 19  1  0  0  0  0
  7  2  1  0  0  0  0
  8 33  1  0  0  0  0
  9  1  1  0  0  0  0
  9  2  1  0  0  0  0
 10  9  1  0  0  0  0
 11  9  1  0  0  0  0
 12 13  1  0  0  0  0
 12 15  1  0  0  0  0
 14 12  1  0  0  0  0
 15 17  1  0  0  0  0
 15 16  1  0  0  0  0
 18 15  1  0  0  0  0
 19 21  1  0  0  0  0
 19 20  1  0  0  0  0
 22 19  1  0  0  0  0
 22 24  1  0  0  0  0
 23 22  1  0  0  0  0
 25 22  1  0  0  0  0
 26  7  1  0  0  0  0
 26 27  1  0  0  0  0
 28 26  1  0  0  0  0
 29 30  1  0  0  0  0
 29 26  1  0  0  0  0
 31 29  1  0  0  0  0
 32 29  1  0  0  0  0
 33 36  1  0  0  0  0
 34 33  1  0  0  0  0
 35 33  1  0  0  0  0
 36 37  1  0  0  0  0
 36 39  1  0  0  0  0
 36 38  1  0  0  0  0
M  END
