1,2
 OpenBabel05122313063D

 44 45  0  0  1  0  0  0  0  0999 V2000
    1.7377    0.2487   -0.2908 O   0  5  0  0  0  0  0  0  0  0  0  0
   -0.8277   -1.0714   -0.1814 O   0  0  0  0  0  1  0  0  0  0  0  0
    4.0751    6.0693   -0.1070 O   0  0  0  0  0  0  0  0  0  0  0  0
    3.4888    7.3486   -0.2617 C   0  0  0  0  0  0  0  0  0  0  0  0
    2.9758    7.4536   -1.2440 H   0  0  0  0  0  0  0  0  0  0  0  0
    4.3158    8.0804   -0.2086 H   0  0  0  0  0  0  0  0  0  0  0  0
    2.7573    7.5694    0.5476 H   0  0  0  0  0  0  0  0  0  0  0  0
    3.2667    4.9783   -0.1233 C   0  0  0  0  0  0  0  0  0  0  0  0
    3.9049    3.7285    0.0486 C   0  0  0  0  0  0  0  0  0  0  0  0
    4.9955    3.7165    0.1884 H   0  0  0  0  0  0  0  0  0  0  0  0
    3.1584    2.5541    0.0456 C   0  0  0  0  0  0  0  0  0  0  0  0
    3.6487    1.5802    0.1822 H   0  0  0  0  0  0  0  0  0  0  0  0
    1.7512    2.5784   -0.1184 C   0  0  0  0  0  0  0  0  0  0  0  0
    1.1294    3.8311   -0.2953 C   0  0  0  0  0  0  0  0  0  0  0  0
    0.0434    3.8878   -0.4562 H   0  0  0  0  0  0  0  0  0  0  0  0
    1.8670    5.0220   -0.2999 C   0  0  0  0  0  0  0  0  0  0  0  0
    1.3447    5.9764   -0.4483 H   0  0  0  0  0  0  0  0  0  0  0  0
    1.0034    1.2901   -0.1062 C   0  0  0  0  0  0  0  0  0  0  0  0
   -0.3979    1.2787    0.0787 C   0  0  0  0  0  0  0  0  0  0  0  0
   -0.8866    2.2330    0.3007 H   0  0  0  0  0  0  0  0  0  0  0  0
   -1.2273    0.1440   -0.0264 C   0  0  1  0  0  3  0  0  0  0  0  0
   -2.7117    0.2974    0.0318 C   0  0  0  0  0  0  0  0  0  0  0  0
   -3.5007   -0.8148    0.4006 C   0  0  0  0  0  0  0  0  0  0  0  0
   -2.9910   -1.7575    0.6450 H   0  0  0  0  0  0  0  0  0  0  0  0
   -4.8915   -0.7127    0.4708 C   0  0  0  0  0  0  0  0  0  0  0  0
   -5.4703   -1.5980    0.7760 H   0  0  0  0  0  0  0  0  0  0  0  0
   -5.5646    0.4935    0.1674 C   0  0  0  0  0  0  0  0  0  0  0  0
   -4.7704    1.5948   -0.2116 C   0  0  0  0  0  0  0  0  0  0  0  0
   -5.2427    2.5520   -0.4703 H   0  0  0  0  0  0  0  0  0  0  0  0
   -3.3734    1.5018   -0.2773 C   0  0  0  0  0  0  0  0  0  0  0  0
   -2.7935    2.3786   -0.6008 H   0  0  0  0  0  0  0  0  0  0  0  0
   -7.0981    0.5610    0.2592 C   0  0  0  0  0  0  0  0  0  0  0  0
   -7.7111   -0.4819   -0.7032 C   0  0  0  0  0  0  0  0  0  0  0  0
   -8.8191   -0.4558   -0.6462 H   0  0  0  0  0  0  0  0  0  0  0  0
   -7.3856   -1.5119   -0.4566 H   0  0  0  0  0  0  0  0  0  0  0  0
   -7.4146   -0.2759   -1.7516 H   0  0  0  0  0  0  0  0  0  0  0  0
   -7.5314    0.2438    1.7091 C   0  0  0  0  0  0  0  0  0  0  0  0
   -7.1029    0.9787    2.4201 H   0  0  0  0  0  0  0  0  0  0  0  0
   -7.2004   -0.7646    2.0268 H   0  0  0  0  0  0  0  0  0  0  0  0
   -8.6369    0.2804    1.7984 H   0  0  0  0  0  0  0  0  0  0  0  0
   -7.6435    1.9492   -0.1177 C   0  0  0  0  0  0  0  0  0  0  0  0
   -7.2586    2.7406    0.5566 H   0  0  0  0  0  0  0  0  0  0  0  0
   -8.7492    1.9522   -0.0377 H   0  0  0  0  0  0  0  0  0  0  0  0
   -7.3840    2.2258   -1.1596 H   0  0  0  0  0  0  0  0  0  0  0  0
  1 18  1  0  0  0  0
  4  6  1  0  0  0  0
  4  3  1  0  0  0  0
  4  7  1  0  0  0  0
  5  4  1  0  0  0  0
  8  3  1  0  0  0  0
  8  9  1  0  0  0  0
  9 10  1  0  0  0  0
 11  9  2  0  0  0  0
 11 12  1  0  0  0  0
 13 18  1  0  0  0  0
 13 11  1  0  0  0  0
 14 13  2  0  0  0  0
 15 14  1  0  0  0  0
 16 14  1  0  0  0  0
 16  8  2  0  0  0  0
 17 16  1  0  0  0  0
 18 19  2  0  0  0  0
 19 20  1  0  0  0  0
 21  2  1  6  0  0  0
 21 22  1  0  0  0  0
 21 19  1  0  0  0  0
 22 23  1  0  0  0  0
 23 25  2  0  0  0  0
 23 24  1  0  0  0  0
 25 26  1  0  0  0  0
 27 32  1  0  0  0  0
 27 25  1  0  0  0  0
 28 27  2  0  0  0  0
 29 28  1  0  0  0  0
 30 28  1  0  0  0  0
 30 22  2  0  0  0  0
 31 30  1  0  0  0  0
 32 37  1  0  0  0  0
 33 34  1  0  0  0  0
 33 35  1  0  0  0  0
 33 32  1  0  0  0  0
 36 33  1  0  0  0  0
 37 40  1  0  0  0  0
 37 39  1  0  0  0  0
 37 38  1  0  0  0  0
 41 43  1  0  0  0  0
 41 32  1  0  0  0  0
 41 42  1  0  0  0  0
 44 41  1  0  0  0  0
M  CHG  1   1  -1
M  END
