2,3
 OpenBabel05122313063D

 47 48  0  0  1  0  0  0  0  0999 V2000
    0.6665   -1.7239    1.4220 N   0  0  0  0  0  2  0  0  0  0  0  0
   -1.6535    0.3531    0.7806 O   0  5  0  0  0  0  0  0  0  0  0  0
    1.1723    1.4602    0.7609 O   0  5  0  0  0  0  0  0  0  0  0  0
   -2.2752   -0.6591    0.1796 C   0  0  0  0  0  0  0  0  0  0  0  0
   -3.6786   -0.7270    0.2644 C   0  0  0  0  0  0  0  0  0  0  0  0
   -4.1952    0.0602    0.8340 H   0  0  0  0  0  0  0  0  0  0  0  0
   -4.4124   -1.7604   -0.3390 C   0  0  0  0  0  0  0  0  0  0  0  0
   -3.7330   -2.7696   -1.0929 C   0  0  0  0  0  0  0  0  0  0  0  0
   -2.3478   -2.6837   -1.2092 C   0  0  0  0  0  0  0  0  0  0  0  0
   -1.7939   -3.4317   -1.7965 H   0  0  0  0  0  0  0  0  0  0  0  0
   -1.5584   -1.6757   -0.5701 C   0  0  0  0  0  0  0  0  0  0  0  0
   -5.9092   -1.7978   -0.2060 C   0  0  0  0  0  0  0  0  0  0  0  0
   -6.4030   -1.7490   -1.1999 H   0  0  0  0  0  0  0  0  0  0  0  0
   -6.2889   -0.9609    0.4092 H   0  0  0  0  0  0  0  0  0  0  0  0
   -6.2462   -2.7496    0.2568 H   0  0  0  0  0  0  0  0  0  0  0  0
   -4.5037   -3.8809   -1.7563 C   0  0  0  0  0  0  0  0  0  0  0  0
   -5.0676   -4.4882   -1.0166 H   0  0  0  0  0  0  0  0  0  0  0  0
   -3.8281   -4.5622   -2.3070 H   0  0  0  0  0  0  0  0  0  0  0  0
   -5.2533   -3.4901   -2.4770 H   0  0  0  0  0  0  0  0  0  0  0  0
   -0.1567   -1.7210   -0.6963 C   0  0  0  0  0  2  0  0  0  0  0  0
    1.8376   -1.9928    2.2248 C   0  0  0  0  0  0  0  0  0  0  0  0
    1.5605   -1.8122    3.2880 H   0  0  0  0  0  0  0  0  0  0  0  0
    2.6992   -1.3216    1.9842 H   0  0  0  0  0  0  0  0  0  0  0  0
    2.3032   -3.4548    2.0887 C   0  0  0  0  0  0  0  0  0  0  0  0
    2.5943   -3.6292    1.0296 H   0  0  0  0  0  0  0  0  0  0  0  0
    1.4318   -4.1166    2.2803 H   0  0  0  0  0  0  0  0  0  0  0  0
    3.4645   -3.8004    3.0189 C   0  0  0  0  0  0  0  0  0  0  0  0
    4.3476   -3.1577    2.8197 H   0  0  0  0  0  0  0  0  0  0  0  0
    3.7843   -4.8550    2.8969 H   0  0  0  0  0  0  0  0  0  0  0  0
    3.1859   -3.6571    4.0840 H   0  0  0  0  0  0  0  0  0  0  0  0
    0.8235   -1.2519    0.1905 C   0  0  2  0  0  3  0  0  0  0  0  0
    2.0350   -0.5134   -0.2955 C   0  0  0  0  0  0  0  0  0  0  0  0
    2.1715    0.8460    0.0664 C   0  0  0  0  0  0  0  0  0  0  0  0
    3.3234    1.5651   -0.2961 C   0  0  0  0  0  0  0  0  0  0  0  0
    3.3956    2.6224   -0.0004 H   0  0  0  0  0  0  0  0  0  0  0  0
    4.3536    0.9548   -1.0317 C   0  0  0  0  0  0  0  0  0  0  0  0
    4.2186   -0.4063   -1.4228 C   0  0  0  0  0  0  0  0  0  0  0  0
    3.0590   -1.1096   -1.0483 C   0  0  0  0  0  0  0  0  0  0  0  0
    2.9379   -2.1622   -1.3481 H   0  0  0  0  0  0  0  0  0  0  0  0
    5.5829    1.7394   -1.4113 C   0  0  0  0  0  0  0  0  0  0  0  0
    5.7157    1.7812   -2.5134 H   0  0  0  0  0  0  0  0  0  0  0  0
    6.5056    1.2724   -1.0057 H   0  0  0  0  0  0  0  0  0  0  0  0
    5.5348    2.7789   -1.0352 H   0  0  0  0  0  0  0  0  0  0  0  0
    5.2998   -1.0842   -2.2240 C   0  0  0  0  0  0  0  0  0  0  0  0
    5.0386   -2.1370   -2.4433 H   0  0  0  0  0  0  0  0  0  0  0  0
    6.2735   -1.0808   -1.6887 H   0  0  0  0  0  0  0  0  0  0  0  0
    5.4768   -0.5706   -3.1933 H   0  0  0  0  0  0  0  0  0  0  0  0
  1 21  1  0  0  0  0
  4  5  1  0  0  0  0
  4  2  1  0  0  0  0
  5  6  1  0  0  0  0
  7 12  1  0  0  0  0
  7  5  2  0  0  0  0
  8  7  1  0  0  0  0
  9  8  2  0  0  0  0
  9 11  1  0  0  0  0
 10  9  1  0  0  0  0
 11  4  2  0  0  0  0
 12 15  1  0  0  0  0
 12 14  1  0  0  0  0
 13 12  1  0  0  0  0
 16  8  1  0  0  0  0
 16 17  1  0  0  0  0
 18 16  1  0  0  0  0
 19 16  1  0  0  0  0
 20 11  1  0  0  0  0
 21 22  1  0  0  0  0
 23 21  1  0  0  0  0
 24 21  1  0  0  0  0
 24 26  1  0  0  0  0
 24 27  1  0  0  0  0
 25 24  1  0  0  0  0
 27 30  1  0  0  0  0
 28 27  1  0  0  0  0
 29 27  1  0  0  0  0
 31 20  1  6  0  0  0
 31  1  1  0  0  0  0
 32 33  1  0  0  0  0
 32 31  1  0  0  0  0
 33  3  1  0  0  0  0
 34 35  1  0  0  0  0
 34 33  2  0  0  0  0
 36 34  1  0  0  0  0
 37 38  1  0  0  0  0
 37 36  2  0  0  0  0
 38 32  2  0  0  0  0
 39 38  1  0  0  0  0
 40 43  1  0  0  0  0
 40 36  1  0  0  0  0
 40 42  1  0  0  0  0
 41 40  1  0  0  0  0
 44 46  1  0  0  0  0
 44 37  1  0  0  0  0
 45 44  1  0  0  0  0
 47 44  1  0  0  0  0
M  CHG  2   2  -1   3  -1
M  END
