1,2
 OpenBabel05122313063D

 20 20  0  0  1  0  0  0  0  0999 V2000
   -1.2877    1.2818   -0.1335 O   0  5  0  0  0  0  0  0  0  0  0  0
   -1.1021   -1.2511   -0.9333 O   0  0  0  0  0  1  0  0  0  0  0  0
   -2.5939    1.0944   -0.2451 C   0  0  0  0  0  0  0  0  0  0  0  0
   -3.4425    2.1662    0.1385 C   0  0  0  0  0  0  0  0  0  0  0  0
   -2.9558    3.0807    0.5079 H   0  0  0  0  0  0  0  0  0  0  0  0
   -4.8286    2.0637    0.0395 C   0  0  0  0  0  0  0  0  0  0  0  0
   -5.4601    2.9135    0.3413 H   0  0  0  0  0  0  0  0  0  0  0  0
   -5.4255    0.8778   -0.4467 C   0  0  0  0  0  0  0  0  0  0  0  0
   -6.5192    0.8009   -0.5324 H   0  0  0  0  0  0  0  0  0  0  0  0
   -4.6189   -0.1938   -0.8129 C   0  0  0  0  0  0  0  0  0  0  0  0
   -5.0889   -1.1139   -1.1879 H   0  0  0  0  0  0  0  0  0  0  0  0
   -3.1967   -0.1338   -0.7117 C   0  0  0  0  0  0  0  0  0  0  0  0
   -2.3716   -1.2581   -1.0942 C   0  0  1  0  0  3  0  0  0  0  0  0
   -2.9698   -2.4887   -1.7451 C   0  0  0  0  0  0  0  0  0  0  0  0
   -3.6890   -2.9431   -1.0264 H   0  0  0  0  0  0  0  0  0  0  0  0
   -3.5955   -2.1637   -2.6057 H   0  0  0  0  0  0  0  0  0  0  0  0
   -1.9415   -3.5251   -2.1876 C   0  0  0  0  0  0  0  0  0  0  0  0
   -1.2296   -3.0970   -2.9201 H   0  0  0  0  0  0  0  0  0  0  0  0
   -2.4438   -4.3923   -2.6586 H   0  0  0  0  0  0  0  0  0  0  0  0
   -1.3474   -3.8941   -1.3293 H   0  0  0  0  0  0  0  0  0  0  0  0
  3  1  1  0  0  0  0
  3  4  1  0  0  0  0
  4  5  1  0  0  0  0
  6  4  2  0  0  0  0
  6  7  1  0  0  0  0
  8  6  1  0  0  0  0
  9  8  1  0  0  0  0
 10 12  1  0  0  0  0
 10  8  2  0  0  0  0
 11 10  1  0  0  0  0
 12  3  2  0  0  0  0
 13  2  1  6  0  0  0
 13 12  1  0  0  0  0
 14 13  1  0  0  0  0
 14 15  1  0  0  0  0
 16 14  1  0  0  0  0
 17 14  1  0  0  0  0
 17 20  1  0  0  0  0
 18 17  1  0  0  0  0
 19 17  1  0  0  0  0
M  CHG  1   1  -1
M  END
