1,2
 OpenBabel05122313063D

 23 23  0  0  0  0  0  0  0  0999 V2000
    0.0656   -1.4640   -0.9327 O   0  5  0  0  0  0  0  0  0  0  0  0
    0.0656    1.4640   -0.9328 O   0  5  0  0  0  0  0  0  0  0  0  0
   -1.9886   -2.2207   -1.2597 O   0  0  0  0  0  0  0  0  0  0  0  0
   -1.9886    2.2208   -1.2596 O   0  0  0  0  0  0  0  0  0  0  0  0
   -1.2618    1.3110   -0.8799 C   0  0  0  0  0  0  0  0  0  0  0  0
   -1.2618   -1.3109   -0.8799 C   0  0  0  0  0  0  0  0  0  0  0  0
   -1.8117    0.0000   -0.3507 C   0  0  0  0  0  0  0  0  0  0  0  0
   -2.8689    0.0000    0.5229 C   0  0  0  0  0  0  0  0  0  0  0  0
   -3.5661   -1.2482    1.0066 C   0  0  0  0  0  0  0  0  0  0  0  0
   -4.9885   -1.2708    0.3996 C   0  0  0  0  0  0  0  0  0  0  0  0
   -5.7718   -0.0000    0.7507 C   0  0  0  0  0  0  0  0  0  0  0  0
   -4.9885    1.2709    0.3997 C   0  0  0  0  0  0  0  0  0  0  0  0
   -3.5661    1.2482    1.0067 C   0  0  0  0  0  0  0  0  0  0  0  0
   -3.6522   -1.1992    2.1157 H   0  0  0  0  0  0  0  0  0  0  0  0
   -3.0261   -2.1699    0.7316 H   0  0  0  0  0  0  0  0  0  0  0  0
   -5.5286   -2.1754    0.7501 H   0  0  0  0  0  0  0  0  0  0  0  0
   -4.8807   -1.3678   -0.7017 H   0  0  0  0  0  0  0  0  0  0  0  0
   -6.7555    0.0000    0.2349 H   0  0  0  0  0  0  0  0  0  0  0  0
   -5.9930   -0.0000    1.8425 H   0  0  0  0  0  0  0  0  0  0  0  0
   -4.8807    1.3679   -0.7015 H   0  0  0  0  0  0  0  0  0  0  0  0
   -5.5286    2.1754    0.7503 H   0  0  0  0  0  0  0  0  0  0  0  0
   -3.6522    1.1991    2.1158 H   0  0  0  0  0  0  0  0  0  0  0  0
   -3.0261    2.1699    0.7318 H   0  0  0  0  0  0  0  0  0  0  0  0
  1  6  1  0  0  0  0
  2  5  1  0  0  0  0
  3  6  2  0  0  0  0
  4  5  2  0  0  0  0
  5  7  1  0  0  0  0
  6  7  1  0  0  0  0
  7  8  2  0  0  0  0
  8  9  1  0  0  0  0
  8 13  1  0  0  0  0
  9 14  1  0  0  0  0
 10 16  1  0  0  0  0
 10 11  1  0  0  0  0
 10  9  1  0  0  0  0
 11 19  1  0  0  0  0
 12 21  1  0  0  0  0
 12 11  1  0  0  0  0
 12 13  1  0  0  0  0
 13 22  1  0  0  0  0
 15  9  1  0  0  0  0
 17 10  1  0  0  0  0
 18 11  1  0  0  0  0
 20 12  1  0  0  0  0
 23 13  1  0  0  0  0
M  CHG  2   1  -1   2  -1
M  END
