1,2,3,4
 OpenBabel05122313063D

 38 40  0  0  0  0  0  0  0  0999 V2000
    1.1202    0.9808   -0.3591 N   0  0  0  0  0  2  0  0  0  0  0  0
   -1.3804    0.9854   -0.0275 N   0  0  0  0  0  2  0  0  0  0  0  0
    1.4020   -1.5898    0.5986 O   0  5  0  0  0  0  0  0  0  0  0  0
   -1.0482   -1.6324   -0.3176 O   0  5  0  0  0  0  0  0  0  0  0  0
    2.6271   -1.5408    0.1651 C   0  0  0  0  0  0  0  0  0  0  0  0
    3.4811   -2.6683    0.3685 C   0  0  0  0  0  0  0  0  0  0  0  0
    3.0512   -3.5302    0.8984 H   0  0  0  0  0  0  0  0  0  0  0  0
    4.7885   -2.6666   -0.0924 C   0  0  0  0  0  0  0  0  0  0  0  0
    5.4258   -3.5488    0.0732 H   0  0  0  0  0  0  0  0  0  0  0  0
    5.3178   -1.5352   -0.7761 C   0  0  0  0  0  0  0  0  0  0  0  0
    6.3579   -1.5461   -1.1332 H   0  0  0  0  0  0  0  0  0  0  0  0
    4.5217   -0.4227   -0.9838 C   0  0  0  0  0  0  0  0  0  0  0  0
    4.9251    0.4606   -1.5042 H   0  0  0  0  0  0  0  0  0  0  0  0
    3.1647   -0.3804   -0.5273 C   0  0  0  0  0  0  0  0  0  0  0  0
    2.4025    0.7921   -0.7267 C   0  0  0  0  0  3  0  0  0  0  0  0
    2.9095    1.6356   -1.2274 H   0  0  0  0  0  0  0  0  0  0  0  0
    0.5546    2.2741   -0.3557 C   0  0  0  0  0  0  0  0  0  0  0  0
    1.2495    3.4926   -0.4808 C   0  0  0  0  0  0  0  0  0  0  0  0
    2.3403    3.5053   -0.6084 H   0  0  0  0  0  0  0  0  0  0  0  0
    0.5431    4.7006   -0.4051 C   0  0  0  0  0  0  0  0  0  0  0  0
    1.0882    5.6520   -0.4952 H   0  0  0  0  0  0  0  0  0  0  0  0
   -0.8467    4.7062   -0.1876 C   0  0  0  0  0  0  0  0  0  0  0  0
   -1.3869    5.6605   -0.1027 H   0  0  0  0  0  0  0  0  0  0  0  0
   -1.5440    3.4987   -0.0510 C   0  0  0  0  0  0  0  0  0  0  0  0
   -2.6241    3.5072    0.1533 H   0  0  0  0  0  0  0  0  0  0  0  0
   -0.8456    2.2819   -0.1351 C   0  0  0  0  0  0  0  0  0  0  0  0
   -2.6563    0.7589   -0.2250 C   0  0  0  0  0  3  0  0  0  0  0  0
   -3.3347    1.6117   -0.4208 H   0  0  0  0  0  0  0  0  0  0  0  0
   -3.2235   -0.5557   -0.3040 C   0  0  0  0  0  0  0  0  0  0  0  0
   -4.6287   -0.7249   -0.4073 C   0  0  0  0  0  0  0  0  0  0  0  0
   -5.2708    0.1686   -0.3496 H   0  0  0  0  0  0  0  0  0  0  0  0
   -5.1923   -1.9874   -0.5751 C   0  0  0  0  0  0  0  0  0  0  0  0
   -6.2833   -2.1058   -0.6411 H   0  0  0  0  0  0  0  0  0  0  0  0
   -4.3449   -3.1138   -0.6698 C   0  0  0  0  0  0  0  0  0  0  0  0
   -4.7806   -4.1151   -0.8098 H   0  0  0  0  0  0  0  0  0  0  0  0
   -2.9582   -2.9771   -0.5941 C   0  0  0  0  0  0  0  0  0  0  0  0
   -2.2858   -3.8432   -0.6714 H   0  0  0  0  0  0  0  0  0  0  0  0
   -2.3661   -1.7031   -0.3960 C   0  0  0  0  0  0  0  0  0  0  0  0
  1 17  1  0  0  0  0
  5  6  1  0  0  0  0
  5  3  1  0  0  0  0
  6  7  1  0  0  0  0
  8  9  1  0  0  0  0
  8  6  2  0  0  0  0
 10  8  1  0  0  0  0
 11 10  1  0  0  0  0
 12 10  2  0  0  0  0
 12 14  1  0  0  0  0
 13 12  1  0  0  0  0
 14  5  2  0  0  0  0
 15 14  1  0  0  0  0
 15  1  1  0  0  0  0
 16 15  1  0  0  0  0
 17 26  1  0  0  0  0
 18 20  1  0  0  0  0
 18 17  2  0  0  0  0
 19 18  1  0  0  0  0
 20 22  2  0  0  0  0
 21 20  1  0  0  0  0
 22 23  1  0  0  0  0
 22 24  1  0  0  0  0
 24 25  1  0  0  0  0
 26 24  2  0  0  0  0
 26  2  1  0  0  0  0
 27  2  1  0  0  0  0
 28 27  1  0  0  0  0
 29 27  1  0  0  0  0
 30 31  1  0  0  0  0
 30 29  2  0  0  0  0
 32 30  1  0  0  0  0
 33 32  1  0  0  0  0
 34 36  1  0  0  0  0
 34 32  2  0  0  0  0
 35 34  1  0  0  0  0
 36 38  2  0  0  0  0
 37 36  1  0  0  0  0
 38  4  1  0  0  0  0
 38 29  1  0  0  0  0
M  CHG  2   3  -1   4  -1
M  END
