1,2,3,4
 OpenBabel05122313063D

 44 46  0  0  0  0  0  0  0  0999 V2000
   -1.5012   -1.4527    0.3428 O   0  5  0  0  0  0  0  0  0  0  0  0
    1.5035   -1.4509    0.3481 O   0  5  0  0  0  0  0  0  0  0  0  0
   -1.3307    1.4094   -0.0145 N   0  0  0  0  0  2  0  0  0  0  0  0
    1.3296    1.4097   -0.0156 N   0  0  0  0  0  2  0  0  0  0  0  0
   -2.7207   -1.2915   -0.0778 C   0  0  0  0  0  0  0  0  0  0  0  0
   -3.5623   -2.4600   -0.1731 C   0  0  0  0  0  0  0  0  0  0  0  0
   -4.8738   -2.3351   -0.6260 C   0  0  0  0  0  0  0  0  0  0  0  0
   -5.4977   -3.2418   -0.6912 H   0  0  0  0  0  0  0  0  0  0  0  0
   -5.4250   -1.0862   -1.0096 C   0  0  0  0  0  0  0  0  0  0  0  0
   -6.4631   -1.0257   -1.3665 H   0  0  0  0  0  0  0  0  0  0  0  0
   -4.6370    0.0493   -0.9287 C   0  0  0  0  0  0  0  0  0  0  0  0
   -5.0433    1.0314   -1.2213 H   0  0  0  0  0  0  0  0  0  0  0  0
   -3.2873   -0.0097   -0.4625 C   0  0  0  0  0  0  0  0  0  0  0  0
   -2.5693    1.2278   -0.4170 C   0  0  0  0  0  3  0  0  0  0  0  0
   -3.1361    2.1096   -0.7878 H   0  0  0  0  0  0  0  0  0  0  0  0
   -0.7185    2.6667    0.0295 C   0  0  0  0  0  0  0  0  0  0  0  0
   -1.4066    3.8962    0.1098 C   0  0  0  0  0  0  0  0  0  0  0  0
   -2.5054    3.9010    0.1549 H   0  0  0  0  0  0  0  0  0  0  0  0
   -0.7043    5.1052    0.1663 C   0  0  0  0  0  0  0  0  0  0  0  0
   -1.2568    6.0539    0.2369 H   0  0  0  0  0  0  0  0  0  0  0  0
    0.7025    5.1053    0.1655 C   0  0  0  0  0  0  0  0  0  0  0  0
    1.2549    6.0542    0.2355 H   0  0  0  0  0  0  0  0  0  0  0  0
    1.4050    3.8965    0.1082 C   0  0  0  0  0  0  0  0  0  0  0  0
    2.5038    3.9014    0.1522 H   0  0  0  0  0  0  0  0  0  0  0  0
    0.7171    2.6669    0.0287 C   0  0  0  0  0  0  0  0  0  0  0  0
    2.5678    1.2285   -0.4196 C   0  0  0  0  0  3  0  0  0  0  0  0
    3.1333    2.1103   -0.7923 H   0  0  0  0  0  0  0  0  0  0  0  0
    3.2866   -0.0086   -0.4644 C   0  0  0  0  0  0  0  0  0  0  0  0
    4.6354    0.0506   -0.9334 C   0  0  0  0  0  0  0  0  0  0  0  0
    5.0402    1.0323   -1.2292 H   0  0  0  0  0  0  0  0  0  0  0  0
    5.4241   -1.0844   -1.0132 C   0  0  0  0  0  0  0  0  0  0  0  0
    6.4614   -1.0239   -1.3725 H   0  0  0  0  0  0  0  0  0  0  0  0
    4.8749   -2.3329   -0.6254 C   0  0  0  0  0  0  0  0  0  0  0  0
    5.4995   -3.2392   -0.6897 H   0  0  0  0  0  0  0  0  0  0  0  0
    3.5645   -2.4579   -0.1693 C   0  0  0  0  0  0  0  0  0  0  0  0
    2.7221   -1.2899   -0.0754 C   0  0  0  0  0  0  0  0  0  0  0  0
   -2.9632   -3.7781    0.2272 C   0  0  0  0  0  0  0  0  0  0  0  0
   -3.6681   -4.6144    0.0578 H   0  0  0  0  0  0  0  0  0  0  0  0
   -2.6718   -3.7769    1.2995 H   0  0  0  0  0  0  0  0  0  0  0  0
   -2.0263   -3.9720   -0.3351 H   0  0  0  0  0  0  0  0  0  0  0  0
    2.9675   -3.7755    0.2355 C   0  0  0  0  0  0  0  0  0  0  0  0
    3.6724   -4.6117    0.0660 H   0  0  0  0  0  0  0  0  0  0  0  0
    2.0291   -3.9712   -0.3237 H   0  0  0  0  0  0  0  0  0  0  0  0
    2.6791   -3.7721    1.3086 H   0  0  0  0  0  0  0  0  0  0  0  0
  3 16  1  0  0  0  0
  4 25  1  0  0  0  0
  5  1  1  0  0  0  0
  6  5  1  0  0  0  0
  6 37  1  0  0  0  0
  7  6  2  0  0  0  0
  8  7  1  0  0  0  0
  9 11  2  0  0  0  0
  9  7  1  0  0  0  0
 10  9  1  0  0  0  0
 11 13  1  0  0  0  0
 12 11  1  0  0  0  0
 13 14  1  0  0  0  0
 13  5  2  0  0  0  0
 14  3  1  0  0  0  0
 15 14  1  0  0  0  0
 16 17  1  0  0  0  0
 17 18  1  0  0  0  0
 17 19  2  0  0  0  0
 19 20  1  0  0  0  0
 21 19  1  0  0  0  0
 21 22  1  0  0  0  0
 23 24  1  0  0  0  0
 23 21  2  0  0  0  0
 25 16  2  0  0  0  0
 25 23  1  0  0  0  0
 26  4  1  0  0  0  0
 27 26  1  0  0  0  0
 28 26  1  0  0  0  0
 28 36  1  0  0  0  0
 29 28  2  0  0  0  0
 30 29  1  0  0  0  0
 31 29  1  0  0  0  0
 31 33  2  0  0  0  0
 32 31  1  0  0  0  0
 33 35  1  0  0  0  0
 34 33  1  0  0  0  0
 35 36  2  0  0  0  0
 35 41  1  0  0  0  0
 36  2  1  0  0  0  0
 37 39  1  0  0  0  0
 38 37  1  0  0  0  0
 40 37  1  0  0  0  0
 41 44  1  0  0  0  0
 42 41  1  0  0  0  0
 43 41  1  0  0  0  0
M  CHG  2   1  -1   2  -1
M  END
