1,2,3,4
 OpenBabel05122313063D

 48 49  0  0  1  0  0  0  0  0999 V2000
   -1.4568    1.2287   -0.8370 O   0  5  0  0  0  0  0  0  0  0  0  0
    1.5349    1.1706   -0.5460 O   0  5  0  0  0  0  0  0  0  0  0  0
   -1.2779   -1.5376   -0.6732 N   0  0  0  0  0  2  0  0  0  0  0  0
    1.3374   -1.5729    0.0245 N   0  0  0  0  0  2  0  0  0  0  0  0
   -2.6464    1.0170   -0.4413 C   0  0  0  0  0  0  0  0  0  0  0  0
   -3.3870    2.1489    0.0869 C   0  0  1  0  0  3  0  0  0  0  0  0
   -4.6720    1.9862    0.4387 N   0  0  0  0  0  0  0  0  0  0  0  0
   -5.1638    2.8037    0.8193 H   0  0  0  0  0  0  0  0  0  0  0  0
   -5.3582    0.8073    0.3619 C   0  0  0  0  0  0  0  0  0  0  0  0
   -6.4126    0.8293    0.6644 H   0  0  0  0  0  0  0  0  0  0  0  0
   -4.6929   -0.3472   -0.0340 C   0  0  0  0  0  0  0  0  0  0  0  0
   -5.4629   -1.6590    0.0210 C   0  0  0  0  0  0  0  0  0  0  0  0
   -5.0564   -2.2797    0.8478 H   0  0  0  0  0  0  0  0  0  0  0  0
   -6.5238   -1.4421    0.2878 H   0  0  0  0  0  0  0  0  0  0  0  0
   -2.6729    3.4266    0.3271 C   0  0  0  0  0  0  0  0  0  0  0  0
   -3.3291    4.2240    0.7244 H   0  0  0  0  0  0  0  0  0  0  0  0
   -2.1761    3.7661   -0.6035 H   0  0  0  0  0  0  0  0  0  0  0  0
   -1.8547    3.2128    1.0510 H   0  0  0  0  0  0  0  0  0  0  0  0
   -5.3579   -2.4509   -1.1456 O   0  0  0  0  0  0  0  0  0  0  0  0
   -5.7278   -1.9434   -1.8922 H   0  0  0  0  0  0  0  0  0  0  0  0
   -3.3170   -0.2715   -0.3996 C   0  0  0  0  0  0  0  0  0  0  0  0
   -2.5708   -1.5008   -0.6560 C   0  0  0  0  0  3  0  0  0  0  0  0
   -3.1676   -2.4227   -0.8182 H   0  0  0  0  0  0  0  0  0  0  0  0
   -0.5731   -2.7944   -0.8271 C   0  0  0  0  0  0  0  0  0  0  0  0
   -0.1591   -2.8393   -1.8596 H   0  0  0  0  0  0  0  0  0  0  0  0
   -1.2268   -3.6831   -0.6815 H   0  0  0  0  0  0  0  0  0  0  0  0
    0.6009   -2.8115    0.1730 C   0  0  0  0  0  0  0  0  0  0  0  0
    0.1841   -2.8232    1.2053 H   0  0  0  0  0  0  0  0  0  0  0  0
    1.2350   -3.7151    0.0345 H   0  0  0  0  0  0  0  0  0  0  0  0
    2.6278   -1.5603   -0.0196 C   0  0  0  0  0  3  0  0  0  0  0  0
    3.1903   -2.5078    0.1046 H   0  0  0  0  0  0  0  0  0  0  0  0
    3.4186   -0.3439   -0.1863 C   0  0  0  0  0  0  0  0  0  0  0  0
    4.8407   -0.4301   -0.1251 C   0  0  0  0  0  0  0  0  0  0  0  0
    5.6087    0.7165   -0.2855 C   0  0  0  0  0  3  0  0  0  0  0  0
    6.7039    0.7302   -0.2299 H   0  0  0  0  0  0  0  0  0  0  0  0
    4.9903    1.9092   -0.5209 N   0  0  0  0  0  0  0  0  0  0  0  0
    5.5813    2.7423   -0.6292 H   0  0  0  0  0  0  0  0  0  0  0  0
    3.6615    2.0829   -0.6107 C   0  0  0  0  0  0  0  0  0  0  0  0
    5.5711   -1.7411    0.0884 C   0  0  0  0  0  0  0  0  0  0  0  0
    5.3796   -2.3967   -0.7988 H   0  0  0  0  0  0  0  0  0  0  0  0
    6.6669   -1.5364    0.0976 H   0  0  0  0  0  0  0  0  0  0  0  0
    5.1269   -2.3330    1.2948 O   0  0  0  0  0  0  0  0  0  0  0  0
    5.6191   -3.1654    1.4210 H   0  0  0  0  0  0  0  0  0  0  0  0
    3.0834    3.4279   -0.8619 C   0  0  0  0  0  0  0  0  0  0  0  0
    3.8563    4.2117   -0.9760 H   0  0  0  0  0  0  0  0  0  0  0  0
    2.3984    3.6988   -0.0316 H   0  0  0  0  0  0  0  0  0  0  0  0
    2.4457    3.3978   -1.7695 H   0  0  0  0  0  0  0  0  0  0  0  0
    2.7809    0.9390   -0.4407 C   0  0  0  0  0  0  0  0  0  0  0  0
  1  5  1  0  0  0  0
  2 48  1  0  0  0  0
  3 22  1  0  0  0  0
  4 27  1  0  0  0  0
  5 21  2  0  0  0  0
  5  6  1  0  0  0  0
  6 15  1  1  0  0  0
  6  7  1  0  0  0  0
  7  8  1  0  0  0  0
  9  7  1  0  0  0  0
  9 10  1  0  0  0  0
 11 12  1  0  0  0  0
 11  9  2  0  0  0  0
 12 14  1  0  0  0  0
 12 13  1  0  0  0  0
 15 16  1  0  0  0  0
 15 18  1  0  0  0  0
 17 15  1  0  0  0  0
 19 12  1  0  0  0  0
 20 19  1  0  0  0  0
 21 11  1  0  0  0  0
 22 21  1  0  0  0  0
 23 22  1  0  0  0  0
 24 26  1  0  0  0  0
 24  3  1  0  0  0  0
 24 27  1  0  0  0  0
 25 24  1  0  0  0  0
 27 28  1  0  0  0  0
 29 27  1  0  0  0  0
 30  4  1  0  0  0  0
 30 31  1  0  0  0  0
 32 33  2  0  0  0  0
 32 30  1  0  0  0  0
 33 39  1  0  0  0  0
 34 35  1  0  0  0  0
 34 33  1  0  0  0  0
 36 34  1  0  0  0  0
 37 36  1  0  0  0  0
 38 36  1  0  0  0  0
 38 48  2  0  0  0  0
 39 41  1  0  0  0  0
 39 42  1  0  0  0  0
 40 39  1  0  0  0  0
 42 43  1  0  0  0  0
 44 38  1  0  0  0  0
 44 46  1  0  0  0  0
 45 44  1  0  0  0  0
 47 44  1  0  0  0  0
 48 32  1  0  0  0  0
M  CHG  2   1  -1   2  -1
M  END
