1,2,24,25
 OpenBabel05122313063D

 46 47  0  0  1  0  0  0  0  0999 V2000
    1.3695   -1.7211    0.0680 O   0  5  0  0  0  0  0  0  0  0  0  0
    1.3098    1.2270    0.1257 N   0  0  0  0  0  2  0  0  0  0  0  0
    6.8445   -1.2057   -0.1187 F   0  0  0  0  0  0  0  0  0  0  0  0
    2.6571   -1.5072    0.0215 C   0  0  0  0  0  0  0  0  0  0  0  0
    3.5036   -2.6612   -0.0389 C   0  0  0  0  0  0  0  0  0  0  0  0
    3.0024   -3.6394   -0.0473 H   0  0  0  0  0  0  0  0  0  0  0  0
    4.8861   -2.5621   -0.0862 C   0  0  0  0  0  0  0  0  0  0  0  0
    5.5222   -3.4585   -0.1335 H   0  0  0  0  0  0  0  0  0  0  0  0
    5.4967   -1.2881   -0.0731 C   0  0  0  0  0  0  0  0  0  0  0  0
    4.7317   -0.1393   -0.0114 C   0  0  0  0  0  3  0  0  0  0  0  0
    5.2351    0.8390    0.0024 H   0  0  0  0  0  0  0  0  0  0  0  0
    3.3042   -0.2084    0.0353 C   0  0  0  0  0  0  0  0  0  0  0  0
    2.6103    1.0458    0.1236 C   0  0  0  0  0  0  0  0  0  0  0  0
    3.2523    1.9396    0.2102 H   0  0  0  0  0  0  0  0  0  0  0  0
    0.6846    2.5597    0.3979 C   0  0  0  0  0  0  0  0  0  0  0  0
    0.4366    2.6411    1.9181 C   0  0  0  0  0  0  0  0  0  0  0  0
   -0.2899    1.8719    2.2436 H   0  0  0  0  0  0  0  0  0  0  0  0
    0.0625    3.6415    2.2091 H   0  0  0  0  0  0  0  0  0  0  0  0
    1.3874    2.4611    2.4563 H   0  0  0  0  0  0  0  0  0  0  0  0
    1.5915    3.7190   -0.0371 C   0  0  0  0  0  0  0  0  0  0  0  0
    2.4562    3.8234    0.6462 H   0  0  0  0  0  0  0  0  0  0  0  0
    1.0380    4.6759    0.0112 H   0  0  0  0  0  0  0  0  0  0  0  0
    1.9744    3.5899   -1.0667 H   0  0  0  0  0  0  0  0  0  0  0  0
   -1.3695   -1.7211   -0.0680 O   0  0  0  0  0  1  0  0  0  0  0  0
   -1.3098    1.2270   -0.1257 N   0  0  0  0  0  2  0  0  0  0  0  0
   -6.8445   -1.2057    0.1186 F   0  0  0  0  0  0  0  0  0  0  0  0
   -2.6571   -1.5072   -0.0214 C   0  0  2  0  0  3  0  0  0  0  0  0
   -3.5035   -2.6612    0.0389 C   0  0  0  0  0  0  0  0  0  0  0  0
   -3.0024   -3.6394    0.0473 H   0  0  0  0  0  0  0  0  0  0  0  0
   -4.8861   -2.5621    0.0861 C   0  0  0  0  0  0  0  0  0  0  0  0
   -5.5222   -3.4585    0.1334 H   0  0  0  0  0  0  0  0  0  0  0  0
   -5.4967   -1.2881    0.0730 C   0  0  0  0  0  0  0  0  0  0  0  0
   -4.7317   -0.1393    0.0114 C   0  0  0  0  0  0  0  0  0  0  0  0
   -5.2351    0.8390   -0.0023 H   0  0  0  0  0  0  0  0  0  0  0  0
   -3.3042   -0.2084   -0.0353 C   0  0  0  0  0  0  0  0  0  0  0  0
   -2.6103    1.0458   -0.1235 C   0  0  0  0  0  0  0  0  0  0  0  0
   -3.2523    1.9396   -0.2101 H   0  0  0  0  0  0  0  0  0  0  0  0
   -0.6846    2.5597   -0.3979 C   0  0  0  0  0  0  0  0  0  0  0  0
   -0.4366    2.6411   -1.9181 C   0  0  0  0  0  0  0  0  0  0  0  0
    0.2899    1.8719   -2.2437 H   0  0  0  0  0  0  0  0  0  0  0  0
   -0.0625    3.6415   -2.2091 H   0  0  0  0  0  0  0  0  0  0  0  0
   -1.3874    2.4611   -2.4563 H   0  0  0  0  0  0  0  0  0  0  0  0
   -1.5915    3.7189    0.0371 C   0  0  0  0  0  0  0  0  0  0  0  0
   -2.4563    3.8233   -0.6462 H   0  0  0  0  0  0  0  0  0  0  0  0
   -1.0381    4.6759   -0.0113 H   0  0  0  0  0  0  0  0  0  0  0  0
   -1.9744    3.5898    1.0667 H   0  0  0  0  0  0  0  0  0  0  0  0
  2 15  1  0  0  0  0
  3  9  1  0  0  0  0
  4 12  1  0  0  0  0
  4  1  1  0  0  0  0
  5  4  2  0  0  0  0
  6  5  1  0  0  0  0
  7  9  2  0  0  0  0
  7  5  1  0  0  0  0
  8  7  1  0  0  0  0
  9 10  1  0  0  0  0
 10 11  1  0  0  0  0
 10 12  1  0  0  0  0
 12 13  2  0  0  0  0
 13  2  1  0  0  0  0
 13 14  1  0  0  0  0
 15 16  1  0  0  0  0
 16 18  1  0  0  0  0
 16 17  1  0  0  0  0
 16 19  1  0  0  0  0
 20 22  1  0  0  0  0
 20 15  1  0  0  0  0
 20 21  1  0  0  0  0
 23 20  1  0  0  0  0
 25 36  1  0  0  0  0
 27 24  1  6  0  0  0
 27 28  1  0  0  0  0
 28 29  1  0  0  0  0
 28 30  2  0  0  0  0
 30 31  1  0  0  0  0
 32 30  1  0  0  0  0
 32 26  1  0  0  0  0
 33 32  2  0  0  0  0
 34 33  1  0  0  0  0
 35 27  1  0  0  0  0
 35 33  1  0  0  0  0
 36 35  2  0  0  0  0
 37 36  1  0  0  0  0
 38 25  1  0  0  0  0
 38 43  1  0  0  0  0
 38 15  1  0  0  0  0
 39 38  1  0  0  0  0
 40 39  1  0  0  0  0
 41 39  1  0  0  0  0
 42 39  1  0  0  0  0
 43 46  1  0  0  0  0
 44 43  1  0  0  0  0
 45 43  1  0  0  0  0
M  CHG  1   1  -1
M  END
