1,3,6,8
 OpenBabel05122313063D

 54 55  0  0  0  0  0  0  0  0999 V2000
    1.2706    0.8283   -0.0001 O   0  5  0  0  0  0  0  0  0  0  0  0
    3.3224   -2.7687   -0.3618 O   0  0  0  0  0  0  0  0  0  0  0  0
   -1.2706    0.8283    0.0000 O   0  5  0  0  0  0  0  0  0  0  0  0
   -3.3224   -2.7687    0.3618 O   0  0  0  0  0  0  0  0  0  0  0  0
    3.2135   -0.4907   -0.0340 N   0  0  0  0  0  4  0  0  0  0  0  0
    1.2618   -1.8654   -0.0987 N   0  0  0  0  0  2  0  0  0  0  0  0
   -3.2135   -0.4907    0.0340 N   0  0  0  0  0  4  0  0  0  0  0  0
   -1.2618   -1.8654    0.0987 N   0  0  0  0  0  2  0  0  0  0  0  0
    2.5705   -1.6615   -0.1599 C   0  0  0  0  0  0  0  0  0  0  0  0
    2.5440    0.6624    0.0495 C   0  0  0  0  0  0  0  0  0  0  0  0
    3.3522    1.9080    0.2039 C   0  0  0  0  0  0  0  0  0  0  0  0
    4.7616    1.8566    0.2339 C   0  0  0  0  0  0  0  0  0  0  0  0
    5.2486    0.8761    0.1392 H   0  0  0  0  0  0  0  0  0  0  0  0
    5.5063    3.0335    0.3808 C   0  0  0  0  0  0  0  0  0  0  0  0
    6.6059    2.9871    0.4032 H   0  0  0  0  0  0  0  0  0  0  0  0
    4.8528    4.2720    0.4994 C   0  0  0  0  0  0  0  0  0  0  0  0
    5.4398    5.1962    0.6149 H   0  0  0  0  0  0  0  0  0  0  0  0
    3.4490    4.3288    0.4710 C   0  0  0  0  0  0  0  0  0  0  0  0
    2.9351    5.2976    0.5651 H   0  0  0  0  0  0  0  0  0  0  0  0
    2.7009    3.1541    0.3242 C   0  0  0  0  0  0  0  0  0  0  0  0
    1.6019    3.1725    0.3013 H   0  0  0  0  0  0  0  0  0  0  0  0
    4.7548   -2.6263   -0.4026 C   0  0  0  0  0  0  0  0  0  0  0  0
    5.1060   -2.1826    0.5525 H   0  0  0  0  0  0  0  0  0  0  0  0
    5.0278   -1.9121   -1.2073 H   0  0  0  0  0  0  0  0  0  0  0  0
    5.3383   -4.0047   -0.6410 C   0  0  0  0  0  0  0  0  0  0  0  0
    5.0617   -4.7019    0.1749 H   0  0  0  0  0  0  0  0  0  0  0  0
    4.9756   -4.4304   -1.5977 H   0  0  0  0  0  0  0  0  0  0  0  0
    6.4437   -3.9441   -0.6851 H   0  0  0  0  0  0  0  0  0  0  0  0
    0.6881   -3.1937   -0.3242 C   0  0  0  0  0  0  0  0  0  0  0  0
    0.5989   -3.3762   -1.4197 H   0  0  0  0  0  0  0  0  0  0  0  0
    1.3401   -3.9892    0.0893 H   0  0  0  0  0  0  0  0  0  0  0  0
   -0.6880   -3.1937    0.3241 C   0  0  0  0  0  0  0  0  0  0  0  0
   -0.5988   -3.3762    1.4196 H   0  0  0  0  0  0  0  0  0  0  0  0
   -1.3401   -3.9892   -0.0894 H   0  0  0  0  0  0  0  0  0  0  0  0
   -2.5705   -1.6615    0.1599 C   0  0  0  0  0  0  0  0  0  0  0  0
   -2.5440    0.6624   -0.0496 C   0  0  0  0  0  0  0  0  0  0  0  0
   -3.3522    1.9080   -0.2039 C   0  0  0  0  0  0  0  0  0  0  0  0
   -4.7616    1.8566   -0.2338 C   0  0  0  0  0  0  0  0  0  0  0  0
   -5.2486    0.8760   -0.1392 H   0  0  0  0  0  0  0  0  0  0  0  0
   -5.5064    3.0335   -0.3808 C   0  0  0  0  0  0  0  0  0  0  0  0
   -6.6060    2.9870   -0.4031 H   0  0  0  0  0  0  0  0  0  0  0  0
   -4.8528    4.2720   -0.4993 C   0  0  0  0  0  0  0  0  0  0  0  0
   -5.4399    5.1962   -0.6148 H   0  0  0  0  0  0  0  0  0  0  0  0
   -3.4490    4.3288   -0.4709 C   0  0  0  0  0  0  0  0  0  0  0  0
   -2.9351    5.2976   -0.5650 H   0  0  0  0  0  0  0  0  0  0  0  0
   -2.7009    3.1540   -0.3242 C   0  0  0  0  0  0  0  0  0  0  0  0
   -1.6020    3.1725   -0.3014 H   0  0  0  0  0  0  0  0  0  0  0  0
   -4.7548   -2.6263    0.4027 C   0  0  0  0  0  0  0  0  0  0  0  0
   -5.0277   -1.9121    1.2073 H   0  0  0  0  0  0  0  0  0  0  0  0
   -5.1060   -2.1827   -0.5525 H   0  0  0  0  0  0  0  0  0  0  0  0
   -5.3382   -4.0047    0.6411 C   0  0  0  0  0  0  0  0  0  0  0  0
   -5.0617   -4.7020   -0.1747 H   0  0  0  0  0  0  0  0  0  0  0  0
   -4.9755   -4.4303    1.5979 H   0  0  0  0  0  0  0  0  0  0  0  0
   -6.4436   -3.9442    0.6853 H   0  0  0  0  0  0  0  0  0  0  0  0
  1 10  1  0  0  0  0
  2  9  1  0  0  0  0
  4 48  1  0  0  0  0
  5 10  2  0  0  0  0
  7 35  2  0  0  0  0
  8 35  1  0  0  0  0
  8 32  1  0  0  0  0
  9  6  1  0  0  0  0
  9  5  2  0  0  0  0
 10 11  1  0  0  0  0
 11 12  2  0  0  0  0
 11 20  1  0  0  0  0
 12 14  1  0  0  0  0
 13 12  1  0  0  0  0
 14 15  1  0  0  0  0
 14 16  2  0  0  0  0
 16 17  1  0  0  0  0
 18 16  1  0  0  0  0
 18 19  1  0  0  0  0
 20 18  2  0  0  0  0
 21 20  1  0  0  0  0
 22  2  1  0  0  0  0
 22 23  1  0  0  0  0
 24 22  1  0  0  0  0
 25 22  1  0  0  0  0
 25 26  1  0  0  0  0
 27 25  1  0  0  0  0
 28 25  1  0  0  0  0
 29  6  1  0  0  0  0
 29 31  1  0  0  0  0
 29 32  1  0  0  0  0
 30 29  1  0  0  0  0
 32 33  1  0  0  0  0
 34 32  1  0  0  0  0
 35  4  1  0  0  0  0
 36  3  1  0  0  0  0
 36  7  2  0  0  0  0
 37 36  1  0  0  0  0
 38 37  1  0  0  0  0
 38 39  1  0  0  0  0
 40 38  2  0  0  0  0
 41 40  1  0  0  0  0
 42 44  2  0  0  0  0
 42 40  1  0  0  0  0
 43 42  1  0  0  0  0
 44 46  1  0  0  0  0
 45 44  1  0  0  0  0
 46 47  1  0  0  0  0
 46 37  2  0  0  0  0
 48 51  1  0  0  0  0
 48 49  1  0  0  0  0
 50 48  1  0  0  0  0
 51 54  1  0  0  0  0
 51 53  1  0  0  0  0
 52 51  1  0  0  0  0
M  CHG  2   1  -1   3  -1
M  END
