3,4,5,6
 OpenBabel05122313063D

 34 35  0  0  0  0  0  0  0  0999 V2000
   -6.9993   -0.8834    0.5166 Cl  0  0  0  0  0  0  0  0  0  0  0  0
    7.1028   -0.8440    0.3923 Cl  0  0  0  0  0  0  0  0  0  0  0  0
   -1.2782    1.9274   -0.0838 N   0  0  0  0  0  2  0  0  0  0  0  0
    1.2773    1.8276    0.2865 N   0  0  0  0  0  2  0  0  0  0  0  0
   -1.2940   -0.6514   -0.9985 O   0  5  0  0  0  0  0  0  0  0  0  0
    1.3010   -0.7657   -0.7185 O   0  5  0  0  0  0  0  0  0  0  0  0
   -3.2347    0.4910   -0.0826 C   0  0  0  0  0  0  0  0  0  0  0  0
   -2.5480   -0.6604   -0.6162 C   0  0  0  0  0  0  0  0  0  0  0  0
   -3.3012   -1.8611   -0.7659 C   0  0  0  0  0  0  0  0  0  0  0  0
   -2.7718   -2.7422   -1.1549 H   0  0  0  0  0  0  0  0  0  0  0  0
   -4.6471   -1.9261   -0.4221 C   0  0  0  0  0  0  0  0  0  0  0  0
   -5.2078   -2.8651   -0.5366 H   0  0  0  0  0  0  0  0  0  0  0  0
   -5.3079   -0.7844    0.0900 C   0  0  0  0  0  0  0  0  0  0  0  0
   -4.6121    0.4084    0.2533 C   0  0  0  0  0  0  0  0  0  0  0  0
   -5.1298    1.2938    0.6512 H   0  0  0  0  0  0  0  0  0  0  0  0
   -2.5608    1.7521    0.0621 C   0  0  0  0  0  3  0  0  0  0  0  0
   -3.1832    2.6385    0.3019 H   0  0  0  0  0  0  0  0  0  0  0  0
   -0.6484    3.2367    0.0220 C   0  0  0  0  0  0  0  0  0  0  0  0
   -1.3204    3.9810    0.4999 H   0  0  0  0  0  0  0  0  0  0  0  0
   -0.3981    3.5922   -1.0017 H   0  0  0  0  0  0  0  0  0  0  0  0
    0.6348    3.0261    0.8206 C   0  0  0  0  0  0  0  0  0  0  0  0
    1.3065    3.9094    0.7735 H   0  0  0  0  0  0  0  0  0  0  0  0
    0.3771    2.8302    1.8849 H   0  0  0  0  0  0  0  0  0  0  0  0
    2.5594    1.6336    0.4294 C   0  0  0  0  0  3  0  0  0  0  0  0
    3.1636    2.4641    0.8487 H   0  0  0  0  0  0  0  0  0  0  0  0
    3.2592    0.4214    0.1124 C   0  0  0  0  0  0  0  0  0  0  0  0
    2.5745   -0.7311   -0.4238 C   0  0  0  0  0  0  0  0  0  0  0  0
    3.3582   -1.8989   -0.6738 C   0  0  0  0  0  0  0  0  0  0  0  0
    2.8322   -2.7812   -1.0654 H   0  0  0  0  0  0  0  0  0  0  0  0
    4.7249   -1.9300   -0.4279 C   0  0  0  0  0  0  0  0  0  0  0  0
    5.3066   -2.8425   -0.6236 H   0  0  0  0  0  0  0  0  0  0  0  0
    5.3832   -0.7868    0.0876 C   0  0  0  0  0  0  0  0  0  0  0  0
    4.6601    0.3685    0.3546 C   0  0  0  0  0  0  0  0  0  0  0  0
    5.1724    1.2516    0.7645 H   0  0  0  0  0  0  0  0  0  0  0  0
  3 18  1  0  0  0  0
  3 16  1  0  0  0  0
  4 24  1  0  0  0  0
  4 21  1  0  0  0  0
  5  8  1  0  0  0  0
  6 27  1  0  0  0  0
  7 16  1  0  0  0  0
  7 14  1  0  0  0  0
  8  7  2  0  0  0  0
  9  8  1  0  0  0  0
  9 11  2  0  0  0  0
 10  9  1  0  0  0  0
 11 13  1  0  0  0  0
 12 11  1  0  0  0  0
 13 14  2  0  0  0  0
 13  1  1  0  0  0  0
 14 15  1  0  0  0  0
 16 17  1  0  0  0  0
 18 19  1  0  0  0  0
 18 21  1  0  0  0  0
 20 18  1  0  0  0  0
 21 23  1  0  0  0  0
 22 21  1  0  0  0  0
 24 25  1  0  0  0  0
 26 33  1  0  0  0  0
 26 24  1  0  0  0  0
 27 26  2  0  0  0  0
 28 30  2  0  0  0  0
 28 27  1  0  0  0  0
 29 28  1  0  0  0  0
 30 32  1  0  0  0  0
 31 30  1  0  0  0  0
 32 33  2  0  0  0  0
 32  2  1  0  0  0  0
 33 34  1  0  0  0  0
M  CHG  2   5  -1   6  -1
M  END
