3,4,9,10
 OpenBabel05122313063D

 38 40  0  0  0  0  0  0  0  0999 V2000
    5.9929   -0.3921    0.0070 Cl  0  0  0  0  0  0  0  0  0  0  0  0
    4.8303   -3.3632   -0.2668 Cl  0  0  0  0  0  0  0  0  0  0  0  0
   -1.6693    2.1747   -0.4148 O   0  5  0  0  0  0  0  0  0  0  0  0
   -2.6211   -0.1926   -0.3861 O   0  5  0  0  0  0  0  0  0  0  0  0
    2.5296    2.9854    0.1074 O   0  0  0  0  0  0  0  0  0  0  0  0
    0.0092   -3.3669   -0.9418 O   0  0  0  0  0  0  0  0  0  0  0  0
   -1.8804   -4.8454    0.4369 O   0  0  0  0  0  0  0  0  0  0  0  0
   -5.2261   -0.7514   -0.5333 O   0  0  0  0  0  0  0  0  0  0  0  0
    1.0112    1.2411    0.0425 N   0  0  0  0  0  2  0  0  0  0  0  0
    0.0699   -1.2070   -0.1075 N   0  0  0  0  0  2  0  0  0  0  0  0
   -1.1083    3.3848   -0.3678 C   0  0  0  0  0  0  0  0  0  0  0  0
    0.2710    3.6324   -0.1092 C   0  0  0  0  0  0  0  0  0  0  0  0
    0.7122    4.9773   -0.0676 C   0  0  0  0  0  0  0  0  0  0  0  0
    1.7842    5.1299    0.1246 H   0  0  0  0  0  0  0  0  0  0  0  0
   -0.1520    6.0520   -0.2767 C   0  0  0  0  0  0  0  0  0  0  0  0
    0.2256    7.0848   -0.2322 H   0  0  0  0  0  0  0  0  0  0  0  0
   -1.5101    5.7960   -0.5535 C   0  0  0  0  0  0  0  0  0  0  0  0
   -2.2091    6.6295   -0.7290 H   0  0  0  0  0  0  0  0  0  0  0  0
   -1.9781    4.4838   -0.6010 C   0  0  0  0  0  0  0  0  0  0  0  0
   -3.0328    4.2481   -0.8044 H   0  0  0  0  0  0  0  0  0  0  0  0
    1.3544    2.6020    0.0348 C   0  0  0  0  0  0  0  0  0  0  0  0
    2.0004    0.2215   -0.0134 C   0  0  0  0  0  0  0  0  0  0  0  0
    1.4840   -1.1072   -0.1323 C   0  0  0  0  0  0  0  0  0  0  0  0
    2.3758   -2.1952   -0.2124 C   0  0  0  0  0  0  0  0  0  0  0  0
    1.9788   -3.2070   -0.3311 H   0  0  0  0  0  0  0  0  0  0  0  0
    3.7598   -1.9858   -0.1661 C   0  0  0  0  0  0  0  0  0  0  0  0
    4.2695   -0.6810   -0.0459 C   0  0  0  0  0  0  0  0  0  0  0  0
    3.3971    0.4123    0.0325 C   0  0  0  0  0  0  0  0  0  0  0  0
    3.7907    1.4266    0.1298 H   0  0  0  0  0  0  0  0  0  0  0  0
   -2.9416   -1.4556   -0.2828 C   0  0  0  0  0  0  0  0  0  0  0  0
   -2.0542   -2.5230   -0.1748 C   0  0  0  0  0  0  0  0  0  0  0  0
   -2.5774   -3.8787    0.1149 C   0  0  0  0  0  0  0  0  0  0  0  0
   -4.0616   -4.0788    0.0654 C   0  0  0  0  0  0  0  0  0  0  0  0
   -4.3821   -5.1175    0.2451 H   0  0  0  0  0  0  0  0  0  0  0  0
   -4.9330   -3.0671   -0.1399 C   0  0  0  0  0  0  0  0  0  0  0  0
   -6.0261   -3.2021   -0.1643 H   0  0  0  0  0  0  0  0  0  0  0  0
   -4.4507   -1.6821   -0.3374 C   0  0  0  0  0  0  0  0  0  0  0  0
   -0.5829   -2.4130   -0.4356 C   0  0  0  0  0  0  0  0  0  0  0  0
  2 26  1  0  0  0  0
  3 11  1  0  0  0  0
  4 30  1  0  0  0  0
  6 38  2  0  0  0  0
  8 37  2  0  0  0  0
 11 12  1  0  0  0  0
 12 13  2  0  0  0  0
 12 21  1  0  0  0  0
 13 14  1  0  0  0  0
 15 16  1  0  0  0  0
 15 13  1  0  0  0  0
 17 15  2  0  0  0  0
 18 17  1  0  0  0  0
 19 17  1  0  0  0  0
 19 11  2  0  0  0  0
 20 19  1  0  0  0  0
 21  9  1  0  0  0  0
 21  5  2  0  0  0  0
 22 28  1  0  0  0  0
 22  9  1  0  0  0  0
 23 10  1  0  0  0  0
 23 22  2  0  0  0  0
 24 26  2  0  0  0  0
 24 23  1  0  0  0  0
 25 24  1  0  0  0  0
 26 27  1  0  0  0  0
 27  1  1  0  0  0  0
 27 28  2  0  0  0  0
 28 29  1  0  0  0  0
 30 31  2  0  0  0  0
 31 32  1  0  0  0  0
 32  7  2  0  0  0  0
 33 32  1  0  0  0  0
 33 34  1  0  0  0  0
 35 33  2  0  0  0  0
 36 35  1  0  0  0  0
 37 30  1  0  0  0  0
 37 35  1  0  0  0  0
 38 31  1  0  0  0  0
 38 10  1  0  0  0  0
M  CHG  2   3  -1   4  -1
M  END
