1,2,3,4
 OpenBabel05122313063D

 61 62  0  0  1  0  0  0  0  0999 V2000
   -1.6853   -0.3990   -1.2786 O   0  0  0  0  0  1  0  0  0  0  0  0
    1.6717   -1.3434    0.7283 O   0  5  0  0  0  0  0  0  0  0  0  0
   -1.0624   -1.4441    1.3707 N   0  0  0  0  0  2  0  0  0  0  0  0
    1.0522   -0.0634   -1.8159 N   0  0  0  0  0  2  0  0  0  0  0  0
   -3.2597   -1.4804    0.2385 C   0  0  0  0  0  0  0  0  0  0  0  0
   -2.8854   -0.8247   -0.9914 C   0  0  1  0  0  3  0  0  0  0  0  0
   -3.9139   -0.6097   -1.9619 C   0  0  0  0  0  0  0  0  0  0  0  0
   -5.2189   -1.0342   -1.7447 C   0  0  0  0  0  0  0  0  0  0  0  0
   -5.5839   -1.6879   -0.5423 C   0  0  0  0  0  0  0  0  0  0  0  0
    0.2352    0.9734    2.6806 C   0  0  0  0  0  0  0  0  0  0  0  0
   -4.6109   -1.8930    0.4264 C   0  0  0  0  0  0  0  0  0  0  0  0
   -2.3488   -1.6718    1.3316 C   0  0  0  0  0  0  0  0  0  0  0  0
    3.2617   -0.8813   -1.0563 C   0  0  0  0  0  0  0  0  0  0  0  0
    2.8805   -1.3871    0.2389 C   0  0  0  0  0  0  0  0  0  0  0  0
    3.9080   -1.9631    1.0504 C   0  0  0  0  0  0  0  0  0  0  0  0
    5.2221   -2.0463    0.6067 C   0  0  0  0  0  0  0  0  0  0  0  0
    5.5960   -1.5535   -0.6674 C   0  0  0  0  0  0  0  0  0  0  0  0
    4.6215   -0.9777   -1.4713 C   0  0  0  0  0  3  0  0  0  0  0  0
    2.3444   -0.2189   -1.9397 C   0  0  0  0  0  0  0  0  0  0  0  0
   -0.3994   -1.5222    2.6801 C   0  0  0  0  0  0  0  0  0  0  0  0
   -0.4543   -0.1743    3.4226 C   0  0  0  0  0  0  0  0  0  0  0  0
   -0.0683    2.3790    3.2146 C   0  0  0  0  0  0  0  0  0  0  0  0
    0.1825    3.4742    2.1632 C   0  0  0  0  0  0  0  0  0  0  0  0
   -0.8556    3.4489    1.0329 C   0  0  0  0  0  0  0  0  0  0  0  0
   -0.6238    4.4277   -0.1258 C   0  0  0  0  0  0  0  0  0  0  0  0
    0.7000    4.2640   -0.8942 C   0  0  0  0  0  0  0  0  0  0  0  0
    1.0346    2.8387   -1.3599 C   0  0  0  0  0  0  0  0  0  0  0  0
   -0.0605    2.1435   -2.1737 C   0  0  0  0  0  0  0  0  0  0  0  0
    0.3746    0.8007   -2.7873 C   0  0  0  0  0  0  0  0  0  0  0  0
   -3.6253   -0.1010   -2.8931 H   0  0  0  0  0  0  0  0  0  0  0  0
   -5.9785   -0.8574   -2.5225 H   0  0  0  0  0  0  0  0  0  0  0  0
   -6.6189   -2.0193   -0.3773 H   0  0  0  0  0  0  0  0  0  0  0  0
    1.3320    0.7991    2.6508 H   0  0  0  0  0  0  0  0  0  0  0  0
   -0.0868    0.9226    1.6179 H   0  0  0  0  0  0  0  0  0  0  0  0
   -4.8739   -2.3853    1.3767 H   0  0  0  0  0  0  0  0  0  0  0  0
   -2.8138   -2.0393    2.2706 H   0  0  0  0  0  0  0  0  0  0  0  0
    3.6134   -2.3441    2.0389 H   0  0  0  0  0  0  0  0  0  0  0  0
    5.9822   -2.5034    1.2599 H   0  0  0  0  0  0  0  0  0  0  0  0
    6.6382   -1.6215   -1.0100 H   0  0  0  0  0  0  0  0  0  0  0  0
    4.8897   -0.5771   -2.4624 H   0  0  0  0  0  0  0  0  0  0  0  0
    2.8093    0.2351   -2.8389 H   0  0  0  0  0  0  0  0  0  0  0  0
    0.6498   -1.8250    2.5076 H   0  0  0  0  0  0  0  0  0  0  0  0
   -0.8998   -2.3060    3.2890 H   0  0  0  0  0  0  0  0  0  0  0  0
   -1.5238    0.0876    3.5904 H   0  0  0  0  0  0  0  0  0  0  0  0
   -0.0097   -0.3166    4.4321 H   0  0  0  0  0  0  0  0  0  0  0  0
    0.5286    2.5800    4.1305 H   0  0  0  0  0  0  0  0  0  0  0  0
   -1.1351    2.4305    3.5314 H   0  0  0  0  0  0  0  0  0  0  0  0
    1.2067    3.3462    1.7473 H   0  0  0  0  0  0  0  0  0  0  0  0
    0.1745    4.4754    2.6469 H   0  0  0  0  0  0  0  0  0  0  0  0
   -0.9245    2.4186    0.6217 H   0  0  0  0  0  0  0  0  0  0  0  0
   -1.8575    3.6511    1.4720 H   0  0  0  0  0  0  0  0  0  0  0  0
   -1.4725    4.3244   -0.8362 H   0  0  0  0  0  0  0  0  0  0  0  0
   -0.6806    5.4722    0.2528 H   0  0  0  0  0  0  0  0  0  0  0  0
    1.5424    4.6282   -0.2671 H   0  0  0  0  0  0  0  0  0  0  0  0
    0.6741    4.9417   -1.7761 H   0  0  0  0  0  0  0  0  0  0  0  0
    1.9757    2.8738   -1.9540 H   0  0  0  0  0  0  0  0  0  0  0  0
    1.2707    2.2062   -0.4768 H   0  0  0  0  0  0  0  0  0  0  0  0
   -0.9517    1.9580   -1.5417 H   0  0  0  0  0  0  0  0  0  0  0  0
   -0.3974    2.7959   -3.0094 H   0  0  0  0  0  0  0  0  0  0  0  0
   -0.5189    0.2688   -3.1653 H   0  0  0  0  0  0  0  0  0  0  0  0
    1.0701    0.9783   -3.6373 H   0  0  0  0  0  0  0  0  0  0  0  0
  3 20  1  0  0  0  0
  5 11  1  0  0  0  0
  5 12  2  0  0  0  0
  6  1  1  1  0  0  0
  6  5  1  0  0  0  0
  7  8  2  0  0  0  0
  7  6  1  0  0  0  0
  8  9  1  0  0  0  0
  9 32  1  0  0  0  0
  9 11  2  0  0  0  0
 10 22  1  0  0  0  0
 10 21  1  0  0  0  0
 11 35  1  0  0  0  0
 12  3  1  0  0  0  0
 12 36  1  0  0  0  0
 13 14  1  0  0  0  0
 14  2  1  0  0  0  0
 14 15  2  0  0  0  0
 15 37  1  0  0  0  0
 16 15  1  0  0  0  0
 16 38  1  0  0  0  0
 17 16  2  0  0  0  0
 18 13  1  0  0  0  0
 18 17  1  0  0  0  0
 19  4  1  0  0  0  0
 19 13  2  0  0  0  0
 20 43  1  0  0  0  0
 20 21  1  0  0  0  0
 21 44  1  0  0  0  0
 21 45  1  0  0  0  0
 22 47  1  0  0  0  0
 22 46  1  0  0  0  0
 23 49  1  0  0  0  0
 23 22  1  0  0  0  0
 24 51  1  0  0  0  0
 24 23  1  0  0  0  0
 25 53  1  0  0  0  0
 25 24  1  0  0  0  0
 26 54  1  0  0  0  0
 26 25  1  0  0  0  0
 27 26  1  0  0  0  0
 27 57  1  0  0  0  0
 28 58  1  0  0  0  0
 28 27  1  0  0  0  0
 29 28  1  0  0  0  0
 29  4  1  0  0  0  0
 30  7  1  0  0  0  0
 31  8  1  0  0  0  0
 33 10  1  0  0  0  0
 34 10  1  0  0  0  0
 39 17  1  0  0  0  0
 40 18  1  0  0  0  0
 41 19  1  0  0  0  0
 42 20  1  0  0  0  0
 48 23  1  0  0  0  0
 50 24  1  0  0  0  0
 52 25  1  0  0  0  0
 55 26  1  0  0  0  0
 56 27  1  0  0  0  0
 59 28  1  0  0  0  0
 60 29  1  0  0  0  0
 61 29  1  0  0  0  0
M  CHG  1   2  -1
M  END
