1,3,38,42
 OpenBabel05122313063D

 74 77  0  0  1  0  0  0  0  0999 V2000
   -1.7521   -1.2209   -0.1796 O   0  5  0  0  0  0  0  0  0  0  0  0
   -5.2911   -3.2968    0.3125 O   0  0  0  0  0  0  0  0  0  0  0  0
    0.9685   -1.2573   -0.2255 N   0  0  0  0  0  2  0  0  0  0  0  0
    3.5769   -2.1214    1.2340 C   0  0  0  0  0  0  0  0  0  0  0  0
    2.7523   -1.9961    1.9532 H   0  0  0  0  0  0  0  0  0  0  0  0
    4.7005   -2.8805    1.5875 C   0  0  0  0  0  0  0  0  0  0  0  0
    4.7580   -3.3395    2.5862 H   0  0  0  0  0  0  0  0  0  0  0  0
    5.7507   -3.0556    0.6704 C   0  0  0  0  0  0  0  0  0  0  0  0
    6.6335   -3.6507    0.9490 H   0  0  0  0  0  0  0  0  0  0  0  0
    5.6676   -2.4712   -0.6021 C   0  0  0  0  0  0  0  0  0  0  0  0
    6.4860   -2.6037   -1.3258 H   0  0  0  0  0  0  0  0  0  0  0  0
    4.5388   -1.7158   -0.9561 C   0  0  0  0  0  0  0  0  0  0  0  0
    4.4762   -1.2510   -1.9524 H   0  0  0  0  0  0  0  0  0  0  0  0
    3.4841   -1.5315   -0.0442 C   0  0  0  0  0  0  0  0  0  0  0  0
    2.3035   -0.6545   -0.4081 C   0  0  2  0  0  0  0  0  0  0  0  0
    2.3923   -0.3709   -1.4808 H   0  0  0  0  0  0  0  0  0  0  0  0
    0.8075   -2.5552   -0.3840 C   0  0  0  0  0  0  0  0  0  0  0  0
    1.7175   -3.1640   -0.5442 H   0  0  0  0  0  0  0  0  0  0  0  0
   -0.4378   -3.2478   -0.3635 C   0  0  0  0  0  0  0  0  0  0  0  0
   -0.4569   -4.6699   -0.4731 C   0  0  0  0  0  3  0  0  0  0  0  0
    0.5064   -5.1993   -0.5620 H   0  0  0  0  0  0  0  0  0  0  0  0
   -1.6456   -5.3905   -0.4668 C   0  0  0  0  0  0  0  0  0  0  0  0
   -2.8605   -4.6543   -0.3508 C   0  0  0  0  0  0  0  0  0  0  0  0
   -3.8251   -5.1884   -0.3415 H   0  0  0  0  0  0  0  0  0  0  0  0
   -2.8974   -3.2696   -0.2425 C   0  0  0  0  0  0  0  0  0  0  0  0
   -1.6733   -2.5165   -0.2532 C   0  0  0  0  0  0  0  0  0  0  0  0
   -1.6767   -6.8938   -0.5783 C   0  0  0  0  0  0  0  0  0  0  0  0
   -0.6574   -7.3177   -0.6674 H   0  0  0  0  0  0  0  0  0  0  0  0
   -2.2587   -7.2242   -1.4647 H   0  0  0  0  0  0  0  0  0  0  0  0
   -2.1591   -7.3579    0.3082 H   0  0  0  0  0  0  0  0  0  0  0  0
   -4.2047   -2.5093   -0.1364 C   0  0  0  0  0  0  0  0  0  0  0  0
   -4.0485   -1.6102    0.5064 H   0  0  0  0  0  0  0  0  0  0  0  0
   -4.4913   -2.1228   -1.1396 H   0  0  0  0  0  0  0  0  0  0  0  0
   -5.2739   -3.5143    1.7063 C   0  0  0  0  0  0  0  0  0  0  0  0
   -4.3646   -4.0664    2.0444 H   0  0  0  0  0  0  0  0  0  0  0  0
   -6.1674   -4.1176    1.9612 H   0  0  0  0  0  0  0  0  0  0  0  0
   -5.3184   -2.5533    2.2744 H   0  0  0  0  0  0  0  0  0  0  0  0
   -1.7521    1.2209    0.1796 O   0  0  0  0  0  1  0  0  0  0  0  0
   -1.6733    2.5165    0.2532 C   0  0  2  0  0  3  0  0  0  0  0  0
   -0.4378    3.2478    0.3635 C   0  0  0  0  0  0  0  0  0  0  0  0
    0.8075    2.5552    0.3840 C   0  0  0  0  0  0  0  0  0  0  0  0
    0.9685    1.2574    0.2256 N   0  0  0  0  0  2  0  0  0  0  0  0
    2.3035    0.6546    0.4081 C   0  0  2  0  0  0  0  0  0  0  0  0
    3.4841    1.5315    0.0442 C   0  0  0  0  0  0  0  0  0  0  0  0
    3.5769    2.1214   -1.2340 C   0  0  0  0  0  0  0  0  0  0  0  0
    2.7523    1.9962   -1.9532 H   0  0  0  0  0  0  0  0  0  0  0  0
    4.7005    2.8806   -1.5875 C   0  0  0  0  0  0  0  0  0  0  0  0
    4.7579    3.3396   -2.5862 H   0  0  0  0  0  0  0  0  0  0  0  0
    5.7506    3.0556   -0.6704 C   0  0  0  0  0  0  0  0  0  0  0  0
    6.6334    3.6508   -0.9491 H   0  0  0  0  0  0  0  0  0  0  0  0
    5.6676    2.4713    0.6020 C   0  0  0  0  0  0  0  0  0  0  0  0
    6.4859    2.6038    1.3258 H   0  0  0  0  0  0  0  0  0  0  0  0
    4.5388    1.7158    0.9561 C   0  0  0  0  0  0  0  0  0  0  0  0
    4.4762    1.2510    1.9524 H   0  0  0  0  0  0  0  0  0  0  0  0
    2.3923    0.3709    1.4808 H   0  0  0  0  0  0  0  0  0  0  0  0
    1.7175    3.1640    0.5442 H   0  0  0  0  0  0  0  0  0  0  0  0
   -0.4569    4.6699    0.4732 C   0  0  0  0  0  0  0  0  0  0  0  0
    0.5063    5.1993    0.5621 H   0  0  0  0  0  0  0  0  0  0  0  0
   -1.6457    5.3905    0.4668 C   0  0  0  0  0  0  0  0  0  0  0  0
   -2.8605    4.6542    0.3508 C   0  0  0  0  0  0  0  0  0  0  0  0
   -3.8252    5.1884    0.3415 H   0  0  0  0  0  0  0  0  0  0  0  0
   -2.8975    3.2695    0.2425 C   0  0  0  0  0  0  0  0  0  0  0  0
   -4.2047    2.5092    0.1364 C   0  0  0  0  0  0  0  0  0  0  0  0
   -5.2911    3.2968   -0.3126 O   0  0  0  0  0  0  0  0  0  0  0  0
   -5.2739    3.5142   -1.7063 C   0  0  0  0  0  0  0  0  0  0  0  0
   -4.3646    4.0664   -2.0445 H   0  0  0  0  0  0  0  0  0  0  0  0
   -6.1674    4.1175   -1.9613 H   0  0  0  0  0  0  0  0  0  0  0  0
   -5.3184    2.5532   -2.2744 H   0  0  0  0  0  0  0  0  0  0  0  0
   -4.0485    1.6101   -0.5064 H   0  0  0  0  0  0  0  0  0  0  0  0
   -4.4914    2.1227    1.1395 H   0  0  0  0  0  0  0  0  0  0  0  0
   -1.6768    6.8938    0.5783 C   0  0  0  0  0  0  0  0  0  0  0  0
   -0.6575    7.3177    0.6672 H   0  0  0  0  0  0  0  0  0  0  0  0
   -2.2586    7.2241    1.4650 H   0  0  0  0  0  0  0  0  0  0  0  0
   -2.1595    7.3578   -0.3080 H   0  0  0  0  0  0  0  0  0  0  0  0
  2 34  1  0  0  0  0
  4  6  1  0  0  0  0
  4  5  1  0  0  0  0
  6  7  1  0  0  0  0
  8  9  1  0  0  0  0
  8  6  2  0  0  0  0
 10  8  1  0  0  0  0
 11 10  1  0  0  0  0
 12 10  2  0  0  0  0
 12 14  1  0  0  0  0
 13 12  1  0  0  0  0
 14  4  2  0  0  0  0
 15 16  1  6  0  0  0
 15  3  1  0  0  0  0
 15 14  1  0  0  0  0
 15 43  1  0  0  0  0
 17 19  2  0  0  0  0
 17  3  1  0  0  0  0
 18 17  1  0  0  0  0
 19 26  1  0  0  0  0
 20 22  1  0  0  0  0
 20 19  1  0  0  0  0
 21 20  1  0  0  0  0
 22 23  2  0  0  0  0
 23 24  1  0  0  0  0
 23 25  1  0  0  0  0
 25 31  1  0  0  0  0
 26 25  2  0  0  0  0
 26  1  1  0  0  0  0
 27 22  1  0  0  0  0
 27 30  1  0  0  0  0
 28 27  1  0  0  0  0
 29 27  1  0  0  0  0
 31  2  1  0  0  0  0
 31 32  1  0  0  0  0
 33 31  1  0  0  0  0
 34 36  1  0  0  0  0
 34 35  1  0  0  0  0
 34 37  1  0  0  0  0
 39 38  1  1  0  0  0
 39 40  1  0  0  0  0
 40 41  2  0  0  0  0
 40 57  1  0  0  0  0
 41 56  1  0  0  0  0
 42 41  1  0  0  0  0
 42 43  1  0  0  0  0
 43 55  1  1  0  0  0
 44 43  1  0  0  0  0
 44 53  1  0  0  0  0
 45 44  2  0  0  0  0
 46 45  1  0  0  0  0
 47 45  1  0  0  0  0
 47 49  2  0  0  0  0
 48 47  1  0  0  0  0
 49 51  1  0  0  0  0
 50 49  1  0  0  0  0
 51 53  2  0  0  0  0
 51 52  1  0  0  0  0
 53 54  1  0  0  0  0
 57 58  1  0  0  0  0
 59 57  2  0  0  0  0
 59 71  1  0  0  0  0
 60 59  1  0  0  0  0
 61 60  1  0  0  0  0
 62 39  1  0  0  0  0
 62 60  2  0  0  0  0
 63 62  1  0  0  0  0
 63 70  1  0  0  0  0
 64 63  1  0  0  0  0
 65 64  1  0  0  0  0
 66 65  1  0  0  0  0
 67 65  1  0  0  0  0
 68 65  1  0  0  0  0
 69 63  1  0  0  0  0
 71 72  1  0  0  0  0
 71 73  1  0  0  0  0
 74 71  1  0  0  0  0
M  CHG  1   1  -1
M  END
