1,5,6,10
 OpenBabel05122313063D

 38 39  0  0  0  0  0  0  0  0999 V2000
    0.6614   -2.0396   -0.2886 N   0  0  0  0  0  2  0  0  0  0  0  0
    3.0490    2.4886    0.0071 O   0  0  0  0  0  0  0  0  0  0  0  0
   -4.7578    0.7441   -0.2280 C   0  0  0  0  0  0  0  0  0  0  0  0
   -5.5144   -0.0545   -0.2288 H   0  0  0  0  0  0  0  0  0  0  0  0
   -1.0878    1.0692    0.0065 O   0  5  0  0  0  0  0  0  0  0  0  0
    1.2709    0.5667   -0.0091 O   0  5  0  0  0  0  0  0  0  0  0  0
   -1.5327   -2.9285    0.0431 C   0  0  0  0  0  0  0  0  0  0  0  0
   -2.3780   -3.4684   -0.4249 H   0  0  0  0  0  0  0  0  0  0  0  0
   -1.4575   -3.2762    1.0998 H   0  0  0  0  0  0  0  0  0  0  0  0
   -1.7746   -1.4864    0.0157 N   0  0  0  0  0  2  0  0  0  0  0  0
   -4.0112   -1.9571   -0.0598 O   0  0  0  0  0  0  0  0  0  0  0  0
    2.9429   -1.1672   -0.2145 C   0  0  0  0  0  0  0  0  0  0  0  0
   -2.3872    1.3323   -0.1089 C   0  0  0  0  0  0  0  0  0  0  0  0
    1.9634   -2.1838   -0.3869 C   0  0  0  0  0  3  0  0  0  0  0  0
    2.3355   -3.1893   -0.6725 H   0  0  0  0  0  0  0  0  0  0  0  0
   -3.1143   -1.1030   -0.0447 C   0  0  0  0  0  0  0  0  0  0  0  0
   -3.4092    0.3461   -0.1123 C   0  0  0  0  0  0  0  0  0  0  0  0
   -5.1063    2.0911   -0.3418 C   0  0  0  0  0  0  0  0  0  0  0  0
   -6.1621    2.3867   -0.4283 H   0  0  0  0  0  0  0  0  0  0  0  0
   -4.0897    3.0687   -0.3498 C   0  0  0  0  0  0  0  0  0  0  0  0
   -4.3505    4.1345   -0.4426 H   0  0  0  0  0  0  0  0  0  0  0  0
   -2.7487    2.6998   -0.2405 C   0  0  0  0  0  0  0  0  0  0  0  0
   -1.9380    3.4422   -0.2407 H   0  0  0  0  0  0  0  0  0  0  0  0
   -0.2228   -3.1408   -0.6870 C   0  0  0  0  0  0  0  0  0  0  0  0
    0.2441   -4.1240   -0.4658 H   0  0  0  0  0  0  0  0  0  0  0  0
   -0.3891   -3.0750   -1.7849 H   0  0  0  0  0  0  0  0  0  0  0  0
    2.5092    0.1975   -0.0907 C   0  0  0  0  0  0  0  0  0  0  0  0
    3.5287    1.2286   -0.0852 C   0  0  0  0  0  0  0  0  0  0  0  0
    4.3316   -1.4910   -0.2961 C   0  0  0  0  0  0  0  0  0  0  0  0
    4.6286   -2.5458   -0.3981 H   0  0  0  0  0  0  0  0  0  0  0  0
    5.2792   -0.4847   -0.2511 C   0  0  0  0  0  0  0  0  0  0  0  0
    6.3510   -0.7242   -0.3035 H   0  0  0  0  0  0  0  0  0  0  0  0
    3.9772    3.5549    0.0417 C   0  0  0  0  0  0  0  0  0  0  0  0
    3.3826    4.4839    0.1148 H   0  0  0  0  0  0  0  0  0  0  0  0
    4.5990    3.5922   -0.8813 H   0  0  0  0  0  0  0  0  0  0  0  0
    4.6530    3.4855    0.9240 H   0  0  0  0  0  0  0  0  0  0  0  0
    4.8775    0.8744   -0.1481 C   0  0  0  0  0  0  0  0  0  0  0  0
    5.6491    1.6558   -0.1196 H   0  0  0  0  0  0  0  0  0  0  0  0
  2 33  1  0  0  0  0
  3 17  1  0  0  0  0
  4  3  1  0  0  0  0
  7  9  1  0  0  0  0
  8  7  1  0  0  0  0
 10  7  1  0  0  0  0
 11 16  2  0  0  0  0
 12 27  1  0  0  0  0
 13  5  1  0  0  0  0
 14  1  1  0  0  0  0
 14 12  1  0  0  0  0
 15 14  1  0  0  0  0
 16 10  1  0  0  0  0
 17 13  2  0  0  0  0
 17 16  1  0  0  0  0
 18  3  2  0  0  0  0
 19 18  1  0  0  0  0
 20 18  1  0  0  0  0
 20 22  2  0  0  0  0
 21 20  1  0  0  0  0
 22 13  1  0  0  0  0
 23 22  1  0  0  0  0
 24 25  1  0  0  0  0
 24  1  1  0  0  0  0
 24  7  1  0  0  0  0
 26 24  1  0  0  0  0
 27 28  2  0  0  0  0
 27  6  1  0  0  0  0
 28  2  1  0  0  0  0
 29 31  1  0  0  0  0
 29 12  2  0  0  0  0
 30 29  1  0  0  0  0
 31 37  2  0  0  0  0
 32 31  1  0  0  0  0
 33 34  1  0  0  0  0
 33 36  1  0  0  0  0
 35 33  1  0  0  0  0
 37 38  1  0  0  0  0
 37 28  1  0  0  0  0
M  CHG  2   5  -1   6  -1
M  END
