1,2,37,38
 OpenBabel05122313063D

 72 75  0  0  1  0  0  0  0  0999 V2000
    1.2240    0.6677   -0.2803 O   0  5  0  0  0  0  0  0  0  0  0  0
    1.2512    3.3789   -0.2192 N   0  0  0  0  0  2  0  0  0  0  0  0
    2.4671    0.7566   -0.6666 C   0  0  0  0  0  0  0  0  0  0  0  0
    3.1574    2.0057   -0.8706 C   0  0  0  0  0  0  0  0  0  0  0  0
    4.5187    2.0137   -1.2914 C   0  0  0  0  0  3  0  0  0  0  0  0
    5.0147    2.9883   -1.4344 H   0  0  0  0  0  0  0  0  0  0  0  0
    5.2289    0.8386   -1.5109 C   0  0  0  0  0  0  0  0  0  0  0  0
    6.6712    0.8364   -1.9486 C   0  0  0  0  0  0  0  0  0  0  0  0
    7.0687    1.8649   -2.0514 H   0  0  0  0  0  0  0  0  0  0  0  0
    6.7981    0.3256   -2.9264 H   0  0  0  0  0  0  0  0  0  0  0  0
    7.3124    0.2951   -1.2217 H   0  0  0  0  0  0  0  0  0  0  0  0
    4.5423   -0.3880   -1.2932 C   0  0  0  0  0  0  0  0  0  0  0  0
    5.0841   -1.3399   -1.4161 H   0  0  0  0  0  0  0  0  0  0  0  0
    3.2116   -0.4517   -0.8880 C   0  0  0  0  0  0  0  0  0  0  0  0
    2.5554   -1.7874   -0.6057 C   0  0  0  0  0  0  0  0  0  0  0  0
    3.0225   -2.3829    0.6403 N   0  0  0  0  0  0  0  0  0  0  0  0
    4.2420   -2.9666    0.6588 N   0  0  0  0  0  0  0  0  0  0  0  0
    4.4655   -3.2866    1.9438 C   0  0  0  0  0  0  0  0  0  0  0  0
    5.7289   -3.9822    2.3474 C   0  0  0  0  0  0  0  0  0  0  0  0
    5.5263   -4.9834    2.7823 H   0  0  0  0  0  0  0  0  0  0  0  0
    6.2882   -3.4028    3.1112 H   0  0  0  0  0  0  0  0  0  0  0  0
    6.3809   -4.1147    1.4633 H   0  0  0  0  0  0  0  0  0  0  0  0
    3.3688   -2.8853    2.7575 C   0  0  0  0  0  0  0  0  0  0  0  0
    3.2467   -3.0166    3.8386 H   0  0  0  0  0  0  0  0  0  0  0  0
    2.4506   -2.2946    1.8868 C   0  0  0  0  0  0  0  0  0  0  0  0
    1.0967   -1.7128    2.1357 C   0  0  0  0  0  0  0  0  0  0  0  0
    0.9400   -0.7519    1.6052 H   0  0  0  0  0  0  0  0  0  0  0  0
    0.9531   -1.5459    3.2195 H   0  0  0  0  0  0  0  0  0  0  0  0
    0.2918   -2.4030    1.8018 H   0  0  0  0  0  0  0  0  0  0  0  0
    2.5023    3.2426   -0.5981 C   0  0  0  0  0  0  0  0  0  0  0  0
    3.1075    4.1665   -0.6935 H   0  0  0  0  0  0  0  0  0  0  0  0
    0.7411    4.6955    0.1684 C   0  0  0  0  0  0  0  0  0  0  0  0
    0.8775    4.8274    1.2651 H   0  0  0  0  0  0  0  0  0  0  0  0
    1.2884    5.5137   -0.3466 H   0  0  0  0  0  0  0  0  0  0  0  0
    2.7857   -2.5107   -1.4119 H   0  0  0  0  0  0  0  0  0  0  0  0
    1.4609   -1.6570   -0.5447 H   0  0  0  0  0  0  0  0  0  0  0  0
   -1.2240    0.6677    0.2803 O   0  0  0  0  0  1  0  0  0  0  0  0
   -1.2512    3.3789    0.2192 N   0  0  0  0  0  2  0  0  0  0  0  0
   -2.4672    0.7566    0.6666 C   0  0  1  0  0  3  0  0  0  0  0  0
   -3.1574    2.0057    0.8706 C   0  0  0  0  0  0  0  0  0  0  0  0
   -4.5188    2.0137    1.2914 C   0  0  0  0  0  0  0  0  0  0  0  0
   -5.0148    2.9882    1.4344 H   0  0  0  0  0  0  0  0  0  0  0  0
   -5.2289    0.8385    1.5109 C   0  0  0  0  0  0  0  0  0  0  0  0
   -6.6712    0.8364    1.9486 C   0  0  0  0  0  0  0  0  0  0  0  0
   -7.0687    1.8648    2.0513 H   0  0  0  0  0  0  0  0  0  0  0  0
   -6.7982    0.3255    2.9264 H   0  0  0  0  0  0  0  0  0  0  0  0
   -7.3125    0.2950    1.2217 H   0  0  0  0  0  0  0  0  0  0  0  0
   -4.5423   -0.3880    1.2932 C   0  0  0  0  0  0  0  0  0  0  0  0
   -5.0841   -1.3400    1.4161 H   0  0  0  0  0  0  0  0  0  0  0  0
   -3.2117   -0.4518    0.8880 C   0  0  0  0  0  0  0  0  0  0  0  0
   -2.5554   -1.7874    0.6057 C   0  0  0  0  0  0  0  0  0  0  0  0
   -3.0225   -2.3830   -0.6403 N   0  0  0  0  0  0  0  0  0  0  0  0
   -4.2420   -2.9666   -0.6588 N   0  0  0  0  0  0  0  0  0  0  0  0
   -4.4654   -3.2866   -1.9438 C   0  0  0  0  0  0  0  0  0  0  0  0
   -5.7288   -3.9823   -2.3475 C   0  0  0  0  0  0  0  0  0  0  0  0
   -5.5262   -4.9835   -2.7823 H   0  0  0  0  0  0  0  0  0  0  0  0
   -6.2881   -3.4029   -3.1112 H   0  0  0  0  0  0  0  0  0  0  0  0
   -6.3809   -4.1148   -1.4634 H   0  0  0  0  0  0  0  0  0  0  0  0
   -3.3687   -2.8854   -2.7575 C   0  0  0  0  0  0  0  0  0  0  0  0
   -3.2465   -3.0167   -3.8386 H   0  0  0  0  0  0  0  0  0  0  0  0
   -2.4505   -2.2947   -1.8867 C   0  0  0  0  0  0  0  0  0  0  0  0
   -1.0966   -1.7128   -2.1357 C   0  0  0  0  0  0  0  0  0  0  0  0
   -0.9399   -0.7519   -1.6052 H   0  0  0  0  0  0  0  0  0  0  0  0
   -0.9530   -1.5459   -3.2195 H   0  0  0  0  0  0  0  0  0  0  0  0
   -0.2917   -2.4030   -1.8017 H   0  0  0  0  0  0  0  0  0  0  0  0
   -2.5023    3.2426    0.5981 C   0  0  0  0  0  0  0  0  0  0  0  0
   -3.1075    4.1664    0.6935 H   0  0  0  0  0  0  0  0  0  0  0  0
   -0.7412    4.6955   -0.1684 C   0  0  0  0  0  0  0  0  0  0  0  0
   -0.8776    4.8274   -1.2651 H   0  0  0  0  0  0  0  0  0  0  0  0
   -1.2885    5.5137    0.3466 H   0  0  0  0  0  0  0  0  0  0  0  0
   -2.7857   -2.5107    1.4120 H   0  0  0  0  0  0  0  0  0  0  0  0
   -1.4609   -1.6570    0.5447 H   0  0  0  0  0  0  0  0  0  0  0  0
  2 32  1  0  0  0  0
  3  1  1  0  0  0  0
  4  3  1  0  0  0  0
  4 30  2  0  0  0  0
  5  4  1  0  0  0  0
  6  5  1  0  0  0  0
  7 12  2  0  0  0  0
  7  5  1  0  0  0  0
  8  7  1  0  0  0  0
  8 11  1  0  0  0  0
  9  8  1  0  0  0  0
 10  8  1  0  0  0  0
 12 14  1  0  0  0  0
 13 12  1  0  0  0  0
 14  3  2  0  0  0  0
 14 15  1  0  0  0  0
 15 36  1  0  0  0  0
 15 16  1  0  0  0  0
 16 17  1  0  0  0  0
 16 25  1  0  0  0  0
 17 18  2  0  0  0  0
 18 19  1  0  0  0  0
 18 23  1  0  0  0  0
 19 20  1  0  0  0  0
 19 21  1  0  0  0  0
 22 19  1  0  0  0  0
 23 24  1  0  0  0  0
 25 26  1  0  0  0  0
 25 23  2  0  0  0  0
 26 28  1  0  0  0  0
 27 26  1  0  0  0  0
 29 26  1  0  0  0  0
 30  2  1  0  0  0  0
 31 30  1  0  0  0  0
 32 33  1  0  0  0  0
 34 32  1  0  0  0  0
 35 15  1  0  0  0  0
 38 66  1  0  0  0  0
 39 37  1  6  0  0  0
 39 40  1  0  0  0  0
 39 50  1  0  0  0  0
 40 41  1  0  0  0  0
 41 42  1  0  0  0  0
 41 43  2  0  0  0  0
 43 44  1  0  0  0  0
 44 45  1  0  0  0  0
 44 46  1  0  0  0  0
 47 44  1  0  0  0  0
 48 49  1  0  0  0  0
 48 43  1  0  0  0  0
 50 48  2  0  0  0  0
 51 50  1  0  0  0  0
 51 71  1  0  0  0  0
 52 51  1  0  0  0  0
 53 52  1  0  0  0  0
 54 53  2  0  0  0  0
 55 54  1  0  0  0  0
 55 58  1  0  0  0  0
 56 55  1  0  0  0  0
 57 55  1  0  0  0  0
 59 54  1  0  0  0  0
 59 61  2  0  0  0  0
 60 59  1  0  0  0  0
 61 52  1  0  0  0  0
 62 61  1  0  0  0  0
 62 65  1  0  0  0  0
 62 63  1  0  0  0  0
 64 62  1  0  0  0  0
 66 67  1  0  0  0  0
 66 40  2  0  0  0  0
 68 32  1  0  0  0  0
 68 38  1  0  0  0  0
 68 70  1  0  0  0  0
 69 68  1  0  0  0  0
 72 51  1  0  0  0  0
M  CHG  1   1  -1
M  END
