2,3,5,7
 OpenBabel05122313063D

 39 39  0  0  1  0  0  0  0  0999 V2000
    2.1311   -3.3984   -0.0001 S   0  0  0  0  0  0  0  0  0  0  0  0
    0.3295    2.4806    0.0003 O   0  0  0  0  0  1  0  0  0  0  0  0
   -1.4659    0.7205    0.0000 O   0  5  0  0  0  0  0  0  0  0  0  0
   -3.9844    1.4011    0.0001 O   0  0  0  0  0  0  0  0  0  0  0  0
    0.4511   -1.2208   -0.0000 N   0  0  0  0  0  2  0  0  0  0  0  0
    2.7284   -0.7732    0.0000 N   0  0  0  0  0  0  0  0  0  0  0  0
    2.2200    0.4946    0.0000 N   0  0  0  0  0  2  0  0  0  0  0  0
    0.9986    4.7396   -0.0008 C   0  0  0  0  0  0  0  0  0  0  0  0
    1.3433    3.2690    0.0001 C   0  0  2  0  0  3  0  0  0  0  0  0
    2.6903    2.8518    0.0001 C   0  0  0  0  0  0  0  0  0  0  0  0
    3.1095    1.5071    0.0002 C   0  0  0  0  0  0  0  0  0  0  0  0
    4.5769    1.1728    0.0004 C   0  0  0  0  0  0  0  0  0  0  0  0
    1.7744   -1.6660   -0.0000 C   0  0  0  0  0  0  0  0  0  0  0  0
    3.9457   -3.3346   -0.0002 C   0  0  0  0  0  0  0  0  0  0  0  0
   -0.5917   -2.0516   -0.0000 C   0  0  0  0  0  0  0  0  0  0  0  0
   -1.9490   -1.6594   -0.0000 C   0  0  0  0  0  0  0  0  0  0  0  0
   -2.9713   -2.6674   -0.0001 C   0  0  0  0  0  3  0  0  0  0  0  0
   -4.3035   -2.3132   -0.0001 C   0  0  0  0  0  0  0  0  0  0  0  0
   -4.6834   -0.9391   -0.0000 C   0  0  0  0  0  0  0  0  0  0  0  0
   -3.7252    0.0698    0.0000 C   0  0  0  0  0  0  0  0  0  0  0  0
   -5.3349    1.8106    0.0002 C   0  0  0  0  0  0  0  0  0  0  0  0
   -2.3075   -0.2560   -0.0000 C   0  0  0  0  0  0  0  0  0  0  0  0
    0.3747    4.9740    0.8859 H   0  0  0  0  0  0  0  0  0  0  0  0
    1.8963    5.3843    0.0026 H   0  0  0  0  0  0  0  0  0  0  0  0
    0.3815    4.9745   -0.8921 H   0  0  0  0  0  0  0  0  0  0  0  0
    3.4706    3.6235    0.0001 H   0  0  0  0  0  0  0  0  0  0  0  0
    4.8341    0.5562    0.8849 H   0  0  0  0  0  0  0  0  0  0  0  0
    4.8344    0.5563   -0.8840 H   0  0  0  0  0  0  0  0  0  0  0  0
    5.1889    2.0925    0.0005 H   0  0  0  0  0  0  0  0  0  0  0  0
    4.3142   -2.8124    0.9021 H   0  0  0  0  0  0  0  0  0  0  0  0
    4.2812   -4.3888   -0.0001 H   0  0  0  0  0  0  0  0  0  0  0  0
    4.3142   -2.8125   -0.9025 H   0  0  0  0  0  0  0  0  0  0  0  0
   -0.3788   -3.1377   -0.0000 H   0  0  0  0  0  0  0  0  0  0  0  0
   -2.6675   -3.7254   -0.0001 H   0  0  0  0  0  0  0  0  0  0  0  0
   -5.0868   -3.0851   -0.0001 H   0  0  0  0  0  0  0  0  0  0  0  0
   -5.7516   -0.6826   -0.0000 H   0  0  0  0  0  0  0  0  0  0  0  0
   -5.3284    2.9165    0.0003 H   0  0  0  0  0  0  0  0  0  0  0  0
   -5.8787    1.4510   -0.9034 H   0  0  0  0  0  0  0  0  0  0  0  0
   -5.8786    1.4508    0.9038 H   0  0  0  0  0  0  0  0  0  0  0  0
  1 13  1  0  0  0  0
  4 21  1  0  0  0  0
  7  6  1  0  0  0  0
  7 11  1  0  0  0  0
  8  9  1  0  0  0  0
  8 24  1  0  0  0  0
  8 23  1  0  0  0  0
  9 10  1  0  0  0  0
  9  2  1  6  0  0  0
 10 11  2  0  0  0  0
 11 12  1  0  0  0  0
 12 29  1  0  0  0  0
 12 27  1  0  0  0  0
 13  5  1  0  0  0  0
 13  6  2  0  0  0  0
 14  1  1  0  0  0  0
 14 31  1  0  0  0  0
 14 30  1  0  0  0  0
 15  5  1  0  0  0  0
 16 15  2  0  0  0  0
 16 22  1  0  0  0  0
 17 18  1  0  0  0  0
 17 16  1  0  0  0  0
 18 19  2  0  0  0  0
 19 36  1  0  0  0  0
 19 20  1  0  0  0  0
 20  4  1  0  0  0  0
 21 37  1  0  0  0  0
 21 39  1  0  0  0  0
 22  3  1  0  0  0  0
 22 20  2  0  0  0  0
 25  8  1  0  0  0  0
 26 10  1  0  0  0  0
 28 12  1  0  0  0  0
 32 14  1  0  0  0  0
 33 15  1  0  0  0  0
 34 17  1  0  0  0  0
 35 18  1  0  0  0  0
 38 21  1  0  0  0  0
M  CHG  1   3  -1
M  END
