1,2,3,5
 OpenBabel05122313063D

 80 83  0  0  1  0  0  0  0  0999 V2000
   -1.9601   -0.6377    1.1346 N   0  0  0  0  0  2  0  0  0  0  0  0
    1.9601    0.6376    1.1346 N   0  0  0  0  0  2  0  0  0  0  0  0
   -0.8886    1.4195    2.5259 O   0  5  0  0  0  0  0  0  0  0  0  0
   -2.9131    2.0883    3.2836 O   0  0  0  0  0  0  0  0  0  0  0  0
    0.8887   -1.4197    2.5258 O   0  5  0  0  0  0  0  0  0  0  0  0
    2.9131   -2.0886    3.2834 O   0  0  0  0  0  0  0  0  0  0  0  0
   -0.2170    1.3622   -0.4834 O   0  0  0  0  0  0  0  0  0  0  0  0
    0.2170   -1.3622   -0.4834 O   0  0  0  0  0  0  0  0  0  0  0  0
   -1.6624    3.3197   -1.4957 O   0  0  0  0  0  0  0  0  0  0  0  0
    1.6625   -3.3196   -1.4958 O   0  0  0  0  0  0  0  0  0  0  0  0
   -2.1795    1.3686    2.6106 C   0  0  0  0  0  0  0  0  0  0  0  0
   -2.8945    0.3284    1.6681 C   0  0  1  0  0  0  0  0  0  0  0  0
   -3.6988   -0.1691    2.2556 H   0  0  0  0  0  0  0  0  0  0  0  0
   -3.5390    1.1630    0.5304 C   0  0  0  0  0  0  0  0  0  0  0  0
   -2.7507    1.7796    0.0591 H   0  0  0  0  0  0  0  0  0  0  0  0
   -4.2399    1.8506    1.0486 H   0  0  0  0  0  0  0  0  0  0  0  0
   -4.2379    0.3502   -0.5296 C   0  0  0  0  0  0  0  0  0  0  0  0
   -3.8087    0.4155   -1.8719 C   0  0  0  0  0  0  0  0  0  0  0  0
   -2.9805    1.0964   -2.1249 H   0  0  0  0  0  0  0  0  0  0  0  0
   -4.4267   -0.3563   -2.8693 C   0  0  0  0  0  0  0  0  0  0  0  0
   -4.0778   -0.2873   -3.9116 H   0  0  0  0  0  0  0  0  0  0  0  0
   -5.4868   -1.2143   -2.5391 C   0  0  0  0  0  0  0  0  0  0  0  0
   -5.9715   -1.8233   -3.3172 H   0  0  0  0  0  0  0  0  0  0  0  0
   -5.9297   -1.2847   -1.2077 C   0  0  0  0  0  0  0  0  0  0  0  0
   -6.7676   -1.9474   -0.9413 H   0  0  0  0  0  0  0  0  0  0  0  0
   -5.3116   -0.5097   -0.2154 C   0  0  0  0  0  0  0  0  0  0  0  0
   -5.6714   -0.5679    0.8245 H   0  0  0  0  0  0  0  0  0  0  0  0
    2.1795   -1.3689    2.6105 C   0  0  0  0  0  0  0  0  0  0  0  0
    2.8945   -0.3286    1.6681 C   0  0  1  0  0  0  0  0  0  0  0  0
    3.6988    0.1689    2.2556 H   0  0  0  0  0  0  0  0  0  0  0  0
    3.5390   -1.1631    0.5303 C   0  0  0  0  0  0  0  0  0  0  0  0
    4.2400   -1.8506    1.0484 H   0  0  0  0  0  0  0  0  0  0  0  0
    2.7507   -1.7796    0.0590 H   0  0  0  0  0  0  0  0  0  0  0  0
    4.2379   -0.3501   -0.5297 C   0  0  0  0  0  0  0  0  0  0  0  0
    5.3115    0.5099   -0.2154 C   0  0  0  0  0  0  0  0  0  0  0  0
    5.6713    0.5681    0.8244 H   0  0  0  0  0  0  0  0  0  0  0  0
    5.9295    1.2850   -1.2077 C   0  0  0  0  0  0  0  0  0  0  0  0
    6.7673    1.9478   -0.9412 H   0  0  0  0  0  0  0  0  0  0  0  0
    5.4866    1.2147   -2.5391 C   0  0  0  0  0  0  0  0  0  0  0  0
    5.9711    1.8239   -3.3171 H   0  0  0  0  0  0  0  0  0  0  0  0
    4.4265    0.3567   -2.8693 C   0  0  0  0  0  0  0  0  0  0  0  0
    4.0776    0.2877   -3.9116 H   0  0  0  0  0  0  0  0  0  0  0  0
    3.8086   -0.4153   -1.8719 C   0  0  0  0  0  0  0  0  0  0  0  0
    2.9804   -1.0963   -2.1250 H   0  0  0  0  0  0  0  0  0  0  0  0
    0.2670    0.7066   -1.6676 C   0  0  0  0  0  0  0  0  0  0  0  0
    1.3782    0.7085   -1.6687 H   0  0  0  0  0  0  0  0  0  0  0  0
   -0.1000    1.2407   -2.5710 H   0  0  0  0  0  0  0  0  0  0  0  0
   -0.2670   -0.7066   -1.6676 C   0  0  0  0  0  0  0  0  0  0  0  0
   -1.3781   -0.7084   -1.6688 H   0  0  0  0  0  0  0  0  0  0  0  0
    0.1001   -1.2406   -2.5710 H   0  0  0  0  0  0  0  0  0  0  0  0
    2.2964    1.8774    0.9812 C   0  0  0  0  0  3  0  0  0  0  0  0
    3.3102    2.2166    1.2884 H   0  0  0  0  0  0  0  0  0  0  0  0
    1.4323    2.9188    0.4198 C   0  0  0  0  0  0  0  0  0  0  0  0
    0.2376    2.6483   -0.2896 C   0  0  0  0  0  0  0  0  0  0  0  0
   -0.5497    3.7036   -0.8134 C   0  0  0  0  0  0  0  0  0  0  0  0
   -0.1494    5.0371   -0.6082 C   0  0  0  0  0  0  0  0  0  0  0  0
   -0.7568    5.8660   -0.9948 H   0  0  0  0  0  0  0  0  0  0  0  0
    1.0399    5.3087    0.0890 C   0  0  0  0  0  0  0  0  0  0  0  0
    1.3477    6.3535    0.2413 H   0  0  0  0  0  0  0  0  0  0  0  0
    1.8257    4.2692    0.5875 C   0  0  0  0  0  0  0  0  0  0  0  0
    2.7551    4.4861    1.1348 H   0  0  0  0  0  0  0  0  0  0  0  0
   -2.5790    4.3189   -1.9155 C   0  0  0  0  0  0  0  0  0  0  0  0
   -2.9443    4.9214   -1.0557 H   0  0  0  0  0  0  0  0  0  0  0  0
   -3.4323    3.7814   -2.3688 H   0  0  0  0  0  0  0  0  0  0  0  0
   -2.1295    4.9980   -2.6733 H   0  0  0  0  0  0  0  0  0  0  0  0
   -2.2964   -1.8776    0.9811 C   0  0  0  0  0  3  0  0  0  0  0  0
   -3.3101   -2.2168    1.2883 H   0  0  0  0  0  0  0  0  0  0  0  0
   -1.4323   -2.9189    0.4197 C   0  0  0  0  0  0  0  0  0  0  0  0
   -0.2376   -2.6483   -0.2897 C   0  0  0  0  0  0  0  0  0  0  0  0
    0.5498   -3.7035   -0.8135 C   0  0  0  0  0  0  0  0  0  0  0  0
    0.1495   -5.0371   -0.6085 C   0  0  0  0  0  0  0  0  0  0  0  0
    0.7570   -5.8660   -0.9950 H   0  0  0  0  0  0  0  0  0  0  0  0
   -1.0398   -5.3088    0.0887 C   0  0  0  0  0  0  0  0  0  0  0  0
   -1.3476   -6.3536    0.2410 H   0  0  0  0  0  0  0  0  0  0  0  0
   -1.8256   -4.2693    0.5873 C   0  0  0  0  0  0  0  0  0  0  0  0
   -2.7550   -4.4863    1.1346 H   0  0  0  0  0  0  0  0  0  0  0  0
    2.5791   -4.3188   -1.9157 C   0  0  0  0  0  0  0  0  0  0  0  0
    2.9444   -4.9213   -1.0559 H   0  0  0  0  0  0  0  0  0  0  0  0
    3.4324   -3.7813   -2.3690 H   0  0  0  0  0  0  0  0  0  0  0  0
    2.1296   -4.9979   -2.6735 H   0  0  0  0  0  0  0  0  0  0  0  0
  1 12  1  0  0  0  0
  2 29  1  0  0  0  0
  3 11  1  0  0  0  0
  5 28  1  0  0  0  0
  7 54  1  0  0  0  0
  8 69  1  0  0  0  0
  9 55  1  0  0  0  0
 10 70  1  0  0  0  0
 11  4  2  0  0  0  0
 12 13  1  1  0  0  0
 12 11  1  0  0  0  0
 14 16  1  0  0  0  0
 14 12  1  0  0  0  0
 15 14  1  0  0  0  0
 17 26  1  0  0  0  0
 17 14  1  0  0  0  0
 18 17  2  0  0  0  0
 19 18  1  0  0  0  0
 20 22  2  0  0  0  0
 20 18  1  0  0  0  0
 21 20  1  0  0  0  0
 22 24  1  0  0  0  0
 23 22  1  0  0  0  0
 24 25  1  0  0  0  0
 24 26  2  0  0  0  0
 26 27  1  0  0  0  0
 28  6  2  0  0  0  0
 29 30  1  1  0  0  0
 29 28  1  0  0  0  0
 31 32  1  0  0  0  0
 31 29  1  0  0  0  0
 33 31  1  0  0  0  0
 34 35  1  0  0  0  0
 34 31  1  0  0  0  0
 35 36  1  0  0  0  0
 37 38  1  0  0  0  0
 37 35  2  0  0  0  0
 39 37  1  0  0  0  0
 40 39  1  0  0  0  0
 41 39  2  0  0  0  0
 41 43  1  0  0  0  0
 42 41  1  0  0  0  0
 43 34  2  0  0  0  0
 44 43  1  0  0  0  0
 45  7  1  0  0  0  0
 46 45  1  0  0  0  0
 47 45  1  0  0  0  0
 48 45  1  0  0  0  0
 48  8  1  0  0  0  0
 49 48  1  0  0  0  0
 50 48  1  0  0  0  0
 51  2  1  0  0  0  0
 51 52  1  0  0  0  0
 53 60  1  0  0  0  0
 53 51  1  0  0  0  0
 54 53  2  0  0  0  0
 55 56  2  0  0  0  0
 55 54  1  0  0  0  0
 56 58  1  0  0  0  0
 57 56  1  0  0  0  0
 58 59  1  0  0  0  0
 58 60  2  0  0  0  0
 60 61  1  0  0  0  0
 62  9  1  0  0  0  0
 62 63  1  0  0  0  0
 64 62  1  0  0  0  0
 65 62  1  0  0  0  0
 66  1  1  0  0  0  0
 66 67  1  0  0  0  0
 68 75  1  0  0  0  0
 68 66  1  0  0  0  0
 69 68  2  0  0  0  0
 70 71  2  0  0  0  0
 70 69  1  0  0  0  0
 71 73  1  0  0  0  0
 72 71  1  0  0  0  0
 73 74  1  0  0  0  0
 73 75  2  0  0  0  0
 75 76  1  0  0  0  0
 77 10  1  0  0  0  0
 77 78  1  0  0  0  0
 79 77  1  0  0  0  0
 80 77  1  0  0  0  0
M  CHG  2   3  -1   5  -1
M  END
