1,2,3,4
 OpenBabel05122313063D

 46 47  0  0  1  0  0  0  0  0999 V2000
   -1.2590   -0.1278   -1.4758 O   0  5  0  0  0  0  0  0  0  0  0  0
    1.2590    0.1279   -1.4758 O   0  5  0  0  0  0  0  0  0  0  0  0
   -1.3083   -0.2242    1.3138 N   0  0  0  0  0  2  0  0  0  0  0  0
    1.3083    0.2242    1.3138 N   0  0  0  0  0  2  0  0  0  0  0  0
   -2.5560   -0.0999   -1.3622 C   0  0  0  0  0  0  0  0  0  0  0  0
   -3.3011    0.0273   -2.5778 C   0  0  0  0  0  0  0  0  0  0  0  0
   -4.6868    0.0429   -2.5816 C   0  0  0  0  0  0  0  0  0  0  0  0
   -5.4103   -0.0654   -1.3686 C   0  0  0  0  0  0  0  0  0  0  0  0
   -4.7176   -0.1965   -0.1749 C   0  0  0  0  0  0  0  0  0  0  0  0
   -3.2874   -0.2192   -0.1154 C   0  0  0  0  0  0  0  0  0  0  0  0
   -2.6180   -0.3534    1.1751 C   0  0  2  0  0  3  0  0  0  0  0  0
   -3.5011   -0.6305    2.3750 C   0  0  0  0  0  0  0  0  0  0  0  0
    2.5560    0.1000   -1.3622 C   0  0  0  0  0  0  0  0  0  0  0  0
    3.3011   -0.0273   -2.5778 C   0  0  0  0  0  0  0  0  0  0  0  0
    4.6868   -0.0429   -2.5817 C   0  0  0  0  0  0  0  0  0  0  0  0
    5.4103    0.0655   -1.3686 C   0  0  0  0  0  0  0  0  0  0  0  0
    4.7176    0.1966   -0.1749 C   0  0  0  0  0  0  0  0  0  0  0  0
    3.2874    0.2192   -0.1154 C   0  0  0  0  0  0  0  0  0  0  0  0
    2.6181    0.3534    1.1751 C   0  0  2  0  0  3  0  0  0  0  0  0
    3.5012    0.6304    2.3750 C   0  0  0  0  0  0  0  0  0  0  0  0
   -0.6490   -0.4116    2.6219 C   0  0  2  0  0  0  0  0  0  0  0  0
    0.6490    0.4115    2.6219 C   0  0  2  0  0  0  0  0  0  0  0  0
   -0.3971   -1.8887    2.9583 C   0  0  0  0  0  0  0  0  0  0  0  0
    0.3971    1.8885    2.9585 C   0  0  0  0  0  0  0  0  0  0  0  0
   -2.7171    0.1109   -3.5051 H   0  0  0  0  0  0  0  0  0  0  0  0
   -5.2257    0.1440   -3.5363 H   0  0  0  0  0  0  0  0  0  0  0  0
   -6.5090   -0.0446   -1.3698 H   0  0  0  0  0  0  0  0  0  0  0  0
   -5.2980   -0.2719    0.7533 H   0  0  0  0  0  0  0  0  0  0  0  0
    2.7171   -0.1109   -3.5051 H   0  0  0  0  0  0  0  0  0  0  0  0
    5.2257   -0.1439   -3.5363 H   0  0  0  0  0  0  0  0  0  0  0  0
    6.5090    0.0448   -1.3698 H   0  0  0  0  0  0  0  0  0  0  0  0
    5.2980    0.2720    0.7533 H   0  0  0  0  0  0  0  0  0  0  0  0
   -1.2896    0.0236    3.4150 H   0  0  0  0  0  0  0  0  0  0  0  0
    1.2896   -0.0238    3.4150 H   0  0  0  0  0  0  0  0  0  0  0  0
   -4.1308    0.2545    2.5999 H   0  0  0  0  0  0  0  0  0  0  0  0
   -4.1904   -1.4672    2.1553 H   0  0  0  0  0  0  0  0  0  0  0  0
   -2.9446   -0.8886    3.2881 H   0  0  0  0  0  0  0  0  0  0  0  0
    4.1310   -0.2545    2.5997 H   0  0  0  0  0  0  0  0  0  0  0  0
    4.1903    1.4673    2.1553 H   0  0  0  0  0  0  0  0  0  0  0  0
    2.9447    0.8884    3.2881 H   0  0  0  0  0  0  0  0  0  0  0  0
    0.4084   -2.3152    2.3333 H   0  0  0  0  0  0  0  0  0  0  0  0
   -0.0932   -1.9821    4.0196 H   0  0  0  0  0  0  0  0  0  0  0  0
   -1.3065   -2.5014    2.8082 H   0  0  0  0  0  0  0  0  0  0  0  0
    0.0932    1.9819    4.0198 H   0  0  0  0  0  0  0  0  0  0  0  0
   -0.4084    2.3151    2.3336 H   0  0  0  0  0  0  0  0  0  0  0  0
    1.3065    2.5013    2.8083 H   0  0  0  0  0  0  0  0  0  0  0  0
  1  5  1  0  0  0  0
  2 13  1  0  0  0  0
  3 21  1  0  0  0  0
  4 22  1  0  0  0  0
  5 10  1  0  0  0  0
  6  5  2  0  0  0  0
  7  6  1  0  0  0  0
  7  8  2  0  0  0  0
  8  9  1  0  0  0  0
  9 10  2  0  0  0  0
  9 28  1  0  0  0  0
 10 11  1  0  0  0  0
 11  3  1  1  0  0  0
 11 12  1  0  0  0  0
 12 35  1  0  0  0  0
 12 37  1  0  0  0  0
 13 18  1  0  0  0  0
 14 13  2  0  0  0  0
 15 14  1  0  0  0  0
 15 16  2  0  0  0  0
 16 17  1  0  0  0  0
 17 18  2  0  0  0  0
 17 32  1  0  0  0  0
 18 19  1  0  0  0  0
 19  4  1  1  0  0  0
 19 20  1  0  0  0  0
 20 38  1  0  0  0  0
 20 40  1  0  0  0  0
 21 22  1  0  0  0  0
 21 23  1  0  0  0  0
 21 33  1  1  0  0  0
 22 24  1  0  0  0  0
 22 34  1  1  0  0  0
 23 42  1  0  0  0  0
 24 44  1  0  0  0  0
 25  6  1  0  0  0  0
 26  7  1  0  0  0  0
 27  8  1  0  0  0  0
 29 14  1  0  0  0  0
 30 15  1  0  0  0  0
 31 16  1  0  0  0  0
 36 12  1  0  0  0  0
 39 20  1  0  0  0  0
 41 23  1  0  0  0  0
 43 23  1  0  0  0  0
 45 24  1  0  0  0  0
 46 24  1  0  0  0  0
M  CHG  2   1  -1   2  -1
M  END
