1,2,3,4
 OpenBabel05122313063D

 46 47  0  0  1  0  0  0  0  0999 V2000
    1.3717   -1.7983    0.0562 O   0  5  0  0  0  0  0  0  0  0  0  0
   -1.3717   -1.7983   -0.0557 O   0  0  0  0  0  1  0  0  0  0  0  0
    1.3113    1.1504    0.1145 N   0  0  0  0  0  2  0  0  0  0  0  0
   -1.3113    1.1504   -0.1145 N   0  0  0  0  0  2  0  0  0  0  0  0
    2.6582   -1.5866   -0.0004 C   0  0  0  0  0  0  0  0  0  0  0  0
    3.5050   -2.7389   -0.0668 C   0  0  0  0  0  0  0  0  0  0  0  0
    3.0023   -3.7167   -0.0710 H   0  0  0  0  0  0  0  0  0  0  0  0
    4.8869   -2.6303   -0.1248 C   0  0  0  0  0  0  0  0  0  0  0  0
    5.4982   -3.5451   -0.1765 H   0  0  0  0  0  0  0  0  0  0  0  0
    5.5201   -1.3612   -0.1171 C   0  0  0  0  0  0  0  0  0  0  0  0
    6.6157   -1.2819   -0.1614 H   0  0  0  0  0  0  0  0  0  0  0  0
    4.7310   -0.2235   -0.0491 C   0  0  0  0  0  3  0  0  0  0  0  0
    5.2036    0.7724   -0.0365 H   0  0  0  0  0  0  0  0  0  0  0  0
    3.3047   -0.2862    0.0080 C   0  0  0  0  0  0  0  0  0  0  0  0
    2.6113    0.9673    0.1011 C   0  0  0  0  0  0  0  0  0  0  0  0
    3.2554    1.8607    0.1814 H   0  0  0  0  0  0  0  0  0  0  0  0
    0.6881    2.4823    0.3920 C   0  0  0  0  0  0  0  0  0  0  0  0
   -0.6880    2.4823   -0.3921 C   0  0  0  0  0  0  0  0  0  0  0  0
    1.5910    3.6421   -0.0501 C   0  0  0  0  0  0  0  0  0  0  0  0
    1.9645    3.5135   -1.0832 H   0  0  0  0  0  0  0  0  0  0  0  0
    2.4623    3.7451    0.6252 H   0  0  0  0  0  0  0  0  0  0  0  0
    1.0383    4.5992    0.0041 H   0  0  0  0  0  0  0  0  0  0  0  0
    0.4522    2.5637    1.9142 C   0  0  0  0  0  0  0  0  0  0  0  0
    0.0792    3.5635    2.2087 H   0  0  0  0  0  0  0  0  0  0  0  0
    1.4077    2.3843    2.4445 H   0  0  0  0  0  0  0  0  0  0  0  0
   -0.2707    1.7933    2.2450 H   0  0  0  0  0  0  0  0  0  0  0  0
   -0.4522    2.5635   -1.9143 C   0  0  0  0  0  0  0  0  0  0  0  0
   -0.0792    3.5634   -2.2089 H   0  0  0  0  0  0  0  0  0  0  0  0
   -1.4076    2.3841   -2.4446 H   0  0  0  0  0  0  0  0  0  0  0  0
    0.2707    1.7931   -2.2450 H   0  0  0  0  0  0  0  0  0  0  0  0
   -1.5909    3.6421    0.0499 C   0  0  0  0  0  0  0  0  0  0  0  0
   -1.9645    3.5135    1.0831 H   0  0  0  0  0  0  0  0  0  0  0  0
   -2.4622    3.7451   -0.6253 H   0  0  0  0  0  0  0  0  0  0  0  0
   -1.0383    4.5992   -0.0043 H   0  0  0  0  0  0  0  0  0  0  0  0
   -2.6113    0.9673   -0.1011 C   0  0  0  0  0  0  0  0  0  0  0  0
   -3.2554    1.8607   -0.1815 H   0  0  0  0  0  0  0  0  0  0  0  0
   -3.3047   -0.2862   -0.0081 C   0  0  0  0  0  0  0  0  0  0  0  0
   -2.6582   -1.5865    0.0005 C   0  0  1  0  0  3  0  0  0  0  0  0
   -3.5050   -2.7389    0.0667 C   0  0  0  0  0  0  0  0  0  0  0  0
   -3.0024   -3.7167    0.0710 H   0  0  0  0  0  0  0  0  0  0  0  0
   -4.8869   -2.6302    0.1244 C   0  0  0  0  0  0  0  0  0  0  0  0
   -5.4982   -3.5450    0.1759 H   0  0  0  0  0  0  0  0  0  0  0  0
   -5.5202   -1.3612    0.1166 C   0  0  0  0  0  0  0  0  0  0  0  0
   -6.6157   -1.2819    0.1606 H   0  0  0  0  0  0  0  0  0  0  0  0
   -4.7310   -0.2234    0.0488 C   0  0  0  0  0  0  0  0  0  0  0  0
   -5.2036    0.7725    0.0361 H   0  0  0  0  0  0  0  0  0  0  0  0
  3 17  1  0  0  0  0
  4 35  1  0  0  0  0
  5 14  1  0  0  0  0
  5  1  1  0  0  0  0
  6  5  2  0  0  0  0
  7  6  1  0  0  0  0
  8 10  2  0  0  0  0
  8  6  1  0  0  0  0
  9  8  1  0  0  0  0
 10 12  1  0  0  0  0
 11 10  1  0  0  0  0
 12 13  1  0  0  0  0
 12 14  1  0  0  0  0
 14 15  2  0  0  0  0
 15  3  1  0  0  0  0
 15 16  1  0  0  0  0
 17 23  1  0  0  0  0
 18  4  1  0  0  0  0
 18 31  1  0  0  0  0
 18 17  1  0  0  0  0
 19 22  1  0  0  0  0
 19 17  1  0  0  0  0
 19 21  1  0  0  0  0
 20 19  1  0  0  0  0
 23 24  1  0  0  0  0
 23 26  1  0  0  0  0
 23 25  1  0  0  0  0
 27 18  1  0  0  0  0
 28 27  1  0  0  0  0
 29 27  1  0  0  0  0
 30 27  1  0  0  0  0
 31 32  1  0  0  0  0
 33 31  1  0  0  0  0
 34 31  1  0  0  0  0
 35 37  2  0  0  0  0
 36 35  1  0  0  0  0
 37 38  1  0  0  0  0
 37 45  1  0  0  0  0
 38  2  1  6  0  0  0
 38 39  1  0  0  0  0
 39 40  1  0  0  0  0
 39 41  2  0  0  0  0
 41 42  1  0  0  0  0
 43 41  1  0  0  0  0
 43 44  1  0  0  0  0
 45 43  2  0  0  0  0
 46 45  1  0  0  0  0
M  CHG  1   1  -1
M  END
