1,10,21,54
 OpenBabel05122313063D

 84 89  0  0  0  0  0  0  0  0999 V2000
   -4.2968   -1.2395    0.0701 N   0  0  0  0  0  2  0  0  0  0  0  0
   -5.5462   -0.6689    0.1241 C   0  0  0  0  0  0  0  0  0  0  0  0
   -6.7172   -1.4284    0.1683 C   0  0  0  0  0  0  0  0  0  0  0  0
   -7.6971   -0.9374    0.2096 H   0  0  0  0  0  0  0  0  0  0  0  0
   -6.6045   -2.8271    0.1713 C   0  0  0  0  0  0  0  0  0  0  0  0
   -7.5014   -3.4604    0.2324 H   0  0  0  0  0  0  0  0  0  0  0  0
   -5.3428   -3.4030    0.1045 C   0  0  0  0  0  0  0  0  0  0  0  0
   -5.2464   -4.4942    0.1308 H   0  0  0  0  0  0  0  0  0  0  0  0
   -4.1600   -2.6114    0.0291 C   0  0  0  0  0  0  0  0  0  0  0  0
   -4.2615    1.3304    0.0405 N   0  0  0  0  0  2  0  0  0  0  0  0
   -5.5260    0.7955    0.1089 C   0  0  0  0  0  0  0  0  0  0  0  0
   -6.6756    1.5877    0.1403 C   0  0  0  0  0  0  0  0  0  0  0  0
   -7.6684    1.1245    0.1943 H   0  0  0  0  0  0  0  0  0  0  0  0
   -6.5247    2.9825    0.1147 C   0  0  0  0  0  0  0  0  0  0  0  0
   -7.4037    3.6413    0.1652 H   0  0  0  0  0  0  0  0  0  0  0  0
   -5.2479    3.5219    0.0328 C   0  0  0  0  0  0  0  0  0  0  0  0
   -5.1218    4.6104    0.0361 H   0  0  0  0  0  0  0  0  0  0  0  0
   -4.0874    2.6969   -0.0295 C   0  0  0  0  0  0  0  0  0  0  0  0
   -2.8546   -3.2385   -0.0779 C   0  0  0  0  0  0  0  0  0  0  0  0
   -1.6385   -2.4847    0.1060 C   0  0  0  0  0  0  0  0  0  0  0  0
   -1.5851   -1.2046    0.3244 O   0  5  0  0  0  0  0  0  0  0  0  0
   -0.3847   -3.1720    0.0720 C   0  0  0  0  0  0  0  0  0  0  0  0
    0.5036   -2.5502    0.2353 H   0  0  0  0  0  0  0  0  0  0  0  0
   -0.3155   -4.5419   -0.1699 C   0  0  0  0  0  0  0  0  0  0  0  0
   -1.5093   -5.2857   -0.3914 C   0  0  0  0  0  0  0  0  0  0  0  0
   -1.4325   -6.3593   -0.6100 H   0  0  0  0  0  0  0  0  0  0  0  0
   -2.7287   -4.6363   -0.3397 C   0  0  0  0  0  0  0  0  0  0  0  0
   -3.6296   -5.2328   -0.5387 H   0  0  0  0  0  0  0  0  0  0  0  0
    0.8387   -5.2545   -0.2286 O   0  0  0  0  0  0  0  0  0  0  0  0
    2.0712   -4.5711   -0.0333 C   0  0  0  0  0  0  0  0  0  0  0  0
    2.1060   -4.0893    0.9696 H   0  0  0  0  0  0  0  0  0  0  0  0
    2.1821   -3.7645   -0.7934 H   0  0  0  0  0  0  0  0  0  0  0  0
    3.1891   -5.6044   -0.1463 C   0  0  0  0  0  0  0  0  0  0  0  0
    3.0191   -6.3712    0.6372 H   0  0  0  0  0  0  0  0  0  0  0  0
    3.1002   -6.1360   -1.1307 H   0  0  0  0  0  0  0  0  0  0  0  0
    4.4969   -5.0058    0.0595 N   0  0  0  0  0  0  0  0  0  0  0  0
    5.4874   -5.9377    0.5904 C   0  0  0  0  0  0  0  0  0  0  0  0
    5.7344   -6.7442   -0.1568 H   0  0  0  0  0  0  0  0  0  0  0  0
    5.0495   -6.4475    1.4737 H   0  0  0  0  0  0  0  0  0  0  0  0
    6.7751   -5.2104    0.9847 C   0  0  0  0  0  0  0  0  0  0  0  0
    7.5144   -5.9451    1.3664 H   0  0  0  0  0  0  0  0  0  0  0  0
    6.5438   -4.5122    1.8181 H   0  0  0  0  0  0  0  0  0  0  0  0
    7.3443   -4.4234   -0.2008 C   0  0  0  0  0  0  0  0  0  0  0  0
    7.6841   -5.1379   -0.9845 H   0  0  0  0  0  0  0  0  0  0  0  0
    8.2382   -3.8403    0.1039 H   0  0  0  0  0  0  0  0  0  0  0  0
    6.2675   -3.5063   -0.7903 C   0  0  0  0  0  0  0  0  0  0  0  0
    6.0095   -2.7125   -0.0564 H   0  0  0  0  0  0  0  0  0  0  0  0
    6.6340   -2.9994   -1.7071 H   0  0  0  0  0  0  0  0  0  0  0  0
    4.9993   -4.2984   -1.1162 C   0  0  0  0  0  0  0  0  0  0  0  0
    4.2120   -3.6131   -1.4908 H   0  0  0  0  0  0  0  0  0  0  0  0
    5.2160   -5.0201   -1.9540 H   0  0  0  0  0  0  0  0  0  0  0  0
   -2.7658    3.2856   -0.1548 C   0  0  0  0  0  0  0  0  0  0  0  0
   -1.5697    2.5022    0.0364 C   0  0  0  0  0  0  0  0  0  0  0  0
   -1.5501    1.2262    0.2831 O   0  5  0  0  0  0  0  0  0  0  0  0
   -0.2974    3.1525   -0.0246 C   0  0  0  0  0  0  0  0  0  0  0  0
    0.5749    2.5080    0.1377 H   0  0  0  0  0  0  0  0  0  0  0  0
   -0.1920    4.5152   -0.2923 C   0  0  0  0  0  0  0  0  0  0  0  0
   -1.3664    5.2879   -0.5187 C   0  0  0  0  0  0  0  0  0  0  0  0
   -1.2616    6.3547   -0.7575 H   0  0  0  0  0  0  0  0  0  0  0  0
   -2.6030    4.6738   -0.4454 C   0  0  0  0  0  0  0  0  0  0  0  0
   -3.4884    5.2916   -0.6491 H   0  0  0  0  0  0  0  0  0  0  0  0
    0.9811    5.1940   -0.3737 O   0  0  0  0  0  0  0  0  0  0  0  0
    2.1949    4.4830   -0.1608 C   0  0  0  0  0  0  0  0  0  0  0  0
    2.3148    3.6655   -0.9067 H   0  0  0  0  0  0  0  0  0  0  0  0
    2.1866    4.0130    0.8490 H   0  0  0  0  0  0  0  0  0  0  0  0
    3.3400    5.4821   -0.3048 C   0  0  0  0  0  0  0  0  0  0  0  0
    3.2867    5.9094   -1.3272 H   0  0  0  0  0  0  0  0  0  0  0  0
    3.1727    6.3374    0.4024 H   0  0  0  0  0  0  0  0  0  0  0  0
    4.6346    4.8461   -0.1301 N   0  0  0  0  0  0  0  0  0  0  0  0
    4.9760    4.6081    1.2708 C   0  0  0  0  0  0  0  0  0  0  0  0
    4.1243    4.1040    1.7709 H   0  0  0  0  0  0  0  0  0  0  0  0
    5.1314    5.5825    1.8148 H   0  0  0  0  0  0  0  0  0  0  0  0
    6.2369    3.7504    1.3993 C   0  0  0  0  0  0  0  0  0  0  0  0
    6.0263    2.7462    0.9721 H   0  0  0  0  0  0  0  0  0  0  0  0
    6.4796    3.6064    2.4726 H   0  0  0  0  0  0  0  0  0  0  0  0
    7.4096    4.3933    0.6515 C   0  0  0  0  0  0  0  0  0  0  0  0
    7.6926    5.3413    1.1625 H   0  0  0  0  0  0  0  0  0  0  0  0
    8.3056    3.7388    0.6813 H   0  0  0  0  0  0  0  0  0  0  0  0
    7.0067    4.7023   -0.7946 C   0  0  0  0  0  0  0  0  0  0  0  0
    7.8137    5.2502   -1.3242 H   0  0  0  0  0  0  0  0  0  0  0  0
    6.8376    3.7515   -1.3450 H   0  0  0  0  0  0  0  0  0  0  0  0
    5.7160    5.5238   -0.8390 C   0  0  0  0  0  0  0  0  0  0  0  0
    5.9145    6.5447   -0.4056 H   0  0  0  0  0  0  0  0  0  0  0  0
    5.3988    5.6824   -1.8908 H   0  0  0  0  0  0  0  0  0  0  0  0
  1  2  1  0  0  0  0
  2  3  1  0  0  0  0
  3  5  2  0  0  0  0
  3  4  1  0  0  0  0
  5  6  1  0  0  0  0
  7  8  1  0  0  0  0
  7  5  1  0  0  0  0
  9  1  1  0  0  0  0
  9  7  2  0  0  0  0
 10 11  1  0  0  0  0
 11  2  2  0  0  0  0
 11 12  1  0  0  0  0
 12 13  1  0  0  0  0
 14 12  2  0  0  0  0
 14 15  1  0  0  0  0
 16 17  1  0  0  0  0
 16 14  1  0  0  0  0
 18 16  2  0  0  0  0
 18 10  1  0  0  0  0
 19  9  1  0  0  0  0
 19 20  1  0  0  0  0
 20 21  1  0  0  0  0
 22 20  2  0  0  0  0
 22 23  1  0  0  0  0
 24 22  1  0  0  0  0
 25 27  1  0  0  0  0
 25 24  2  0  0  0  0
 26 25  1  0  0  0  0
 27 19  2  0  0  0  0
 28 27  1  0  0  0  0
 29 24  1  0  0  0  0
 29 30  1  0  0  0  0
 30 31  1  0  0  0  0
 32 30  1  0  0  0  0
 33 30  1  0  0  0  0
 33 36  1  0  0  0  0
 33 34  1  0  0  0  0
 35 33  1  0  0  0  0
 36 37  1  0  0  0  0
 37 40  1  0  0  0  0
 37 39  1  0  0  0  0
 38 37  1  0  0  0  0
 40 41  1  0  0  0  0
 40 42  1  0  0  0  0
 43 45  1  0  0  0  0
 43 40  1  0  0  0  0
 44 43  1  0  0  0  0
 46 43  1  0  0  0  0
 46 47  1  0  0  0  0
 48 46  1  0  0  0  0
 49 46  1  0  0  0  0
 49 36  1  0  0  0  0
 50 49  1  0  0  0  0
 51 49  1  0  0  0  0
 52 18  1  0  0  0  0
 52 53  1  0  0  0  0
 53 54  1  0  0  0  0
 55 53  2  0  0  0  0
 55 56  1  0  0  0  0
 57 55  1  0  0  0  0
 58 60  1  0  0  0  0
 58 57  2  0  0  0  0
 59 58  1  0  0  0  0
 60 52  2  0  0  0  0
 61 60  1  0  0  0  0
 62 57  1  0  0  0  0
 62 63  1  0  0  0  0
 63 65  1  0  0  0  0
 64 63  1  0  0  0  0
 66 63  1  0  0  0  0
 66 69  1  0  0  0  0
 66 68  1  0  0  0  0
 67 66  1  0  0  0  0
 69 70  1  0  0  0  0
 70 73  1  0  0  0  0
 70 71  1  0  0  0  0
 70 72  1  0  0  0  0
 73 75  1  0  0  0  0
 74 73  1  0  0  0  0
 76 78  1  0  0  0  0
 76 77  1  0  0  0  0
 76 73  1  0  0  0  0
 79 76  1  0  0  0  0
 80 79  1  0  0  0  0
 81 79  1  0  0  0  0
 82 79  1  0  0  0  0
 82 83  1  0  0  0  0
 82 69  1  0  0  0  0
 84 82  1  0  0  0  0
M  CHG  2  21  -1  54  -1
M  END
