1,2,3,4
 OpenBabel05122313063D

 40 41  0  0  1  0  0  0  0  0999 V2000
   -1.3561   -1.4982    0.3660 O   0  5  0  0  0  0  0  0  0  0  0  0
   -0.5886    0.3223   -1.4349 O   0  5  0  0  0  0  0  0  0  0  0  0
   -2.6013    0.9720    0.3689 N   0  0  0  0  0  2  0  0  0  0  0  0
   -0.3353    2.1388    0.5273 N   0  0  0  0  0  2  0  0  0  0  0  0
   -2.6912    2.3696    0.7930 C   0  0  0  0  0  0  0  0  0  0  0  0
   -1.3295    2.8192    1.3454 C   0  0  0  0  0  0  0  0  0  0  0  0
   -2.4468   -1.8959   -0.2167 C   0  0  0  0  0  0  0  0  0  0  0  0
   -2.5242   -3.2832   -0.5669 C   0  0  0  0  0  0  0  0  0  0  0  0
   -3.6218   -3.8148   -1.2273 C   0  0  0  0  0  0  0  0  0  0  0  0
   -4.7198   -2.9909   -1.5675 C   0  0  0  0  0  0  0  0  0  0  0  0
   -4.6954   -1.6517   -1.1978 C   0  0  0  0  0  0  0  0  0  0  0  0
   -3.5965   -1.0616   -0.5073 C   0  0  0  0  0  0  0  0  0  0  0  0
   -3.6618    0.3250   -0.0652 C   0  0  1  0  0  3  0  0  0  0  0  0
   -4.9805    1.0655   -0.0769 C   0  0  0  0  0  0  0  0  0  0  0  0
    0.4511    0.9030   -1.9540 C   0  0  0  0  0  0  0  0  0  0  0  0
    0.9445    0.4122   -3.2070 C   0  0  0  0  0  0  0  0  0  0  0  0
    2.1063    0.9111   -3.7824 C   0  0  0  0  0  0  0  0  0  0  0  0
    2.8405    1.9449   -3.1526 C   0  0  0  0  0  0  0  0  0  0  0  0
    2.3508    2.4960   -1.9726 C   0  0  0  0  0  0  0  0  0  0  0  0
    1.1597    2.0246   -1.3525 C   0  0  0  0  0  0  0  0  0  0  0  0
    0.5220    2.7526   -0.2551 C   0  0  1  0  0  3  0  0  0  0  0  0
    0.7616    4.2379   -0.1084 C   0  0  0  0  0  0  0  0  0  0  0  0
   -1.6561   -3.9055   -0.3051 H   0  0  0  0  0  0  0  0  0  0  0  0
   -3.6297   -4.8831   -1.4956 H   0  0  0  0  0  0  0  0  0  0  0  0
   -5.5821   -3.4000   -2.1130 H   0  0  0  0  0  0  0  0  0  0  0  0
   -5.5539   -1.0239   -1.4740 H   0  0  0  0  0  0  0  0  0  0  0  0
   -5.1790    1.5077    0.9200 H   0  0  0  0  0  0  0  0  0  0  0  0
   -4.9573    1.9065   -0.8014 H   0  0  0  0  0  0  0  0  0  0  0  0
   -5.8335    0.4152   -0.3233 H   0  0  0  0  0  0  0  0  0  0  0  0
   -3.4767    2.5151    1.5650 H   0  0  0  0  0  0  0  0  0  0  0  0
   -2.9699    3.0023   -0.0809 H   0  0  0  0  0  0  0  0  0  0  0  0
   -1.2253    2.4698    2.3905 H   0  0  0  0  0  0  0  0  0  0  0  0
   -1.2461    3.9229    1.3145 H   0  0  0  0  0  0  0  0  0  0  0  0
    0.3746   -0.4054   -3.6721 H   0  0  0  0  0  0  0  0  0  0  0  0
    2.4680    0.4810   -4.7295 H   0  0  0  0  0  0  0  0  0  0  0  0
    3.7757    2.3172   -3.5940 H   0  0  0  0  0  0  0  0  0  0  0  0
    2.9144    3.3116   -1.4952 H   0  0  0  0  0  0  0  0  0  0  0  0
    1.7013    4.5452   -0.5972 H   0  0  0  0  0  0  0  0  0  0  0  0
   -0.0536    4.8080   -0.6027 H   0  0  0  0  0  0  0  0  0  0  0  0
    0.7995    4.5471    0.9535 H   0  0  0  0  0  0  0  0  0  0  0  0
  3  5  1  0  0  0  0
  4  6  1  0  0  0  0
  5  6  1  0  0  0  0
  5 30  1  0  0  0  0
  6 32  1  0  0  0  0
  7  1  1  0  0  0  0
  8 23  1  0  0  0  0
  8  7  2  0  0  0  0
  9  8  1  0  0  0  0
 10  9  2  0  0  0  0
 10 11  1  0  0  0  0
 11 12  2  0  0  0  0
 12  7  1  0  0  0  0
 12 13  1  0  0  0  0
 13  3  1  1  0  0  0
 14 13  1  0  0  0  0
 14 27  1  0  0  0  0
 15  2  1  0  0  0  0
 15 20  1  0  0  0  0
 16 15  2  0  0  0  0
 17 16  1  0  0  0  0
 17 18  2  0  0  0  0
 18 19  1  0  0  0  0
 19 37  1  0  0  0  0
 19 20  2  0  0  0  0
 20 21  1  0  0  0  0
 21 22  1  0  0  0  0
 21  4  1  6  0  0  0
 22 40  1  0  0  0  0
 24  9  1  0  0  0  0
 25 10  1  0  0  0  0
 26 11  1  0  0  0  0
 28 14  1  0  0  0  0
 29 14  1  0  0  0  0
 31  5  1  0  0  0  0
 33  6  1  0  0  0  0
 34 16  1  0  0  0  0
 35 17  1  0  0  0  0
 36 18  1  0  0  0  0
 38 22  1  0  0  0  0
 39 22  1  0  0  0  0
M  CHG  2   1  -1   2  -1
M  END
