1,2,3,4
 OpenBabel05122313063D

 34 33  0  0  1  0  0  0  0  0999 V2000
    1.2861   -1.1129   -0.0638 N   0  0  0  0  0  2  0  0  0  0  0  0
   -1.2861   -1.1129    0.0635 N   0  0  0  0  0  2  0  0  0  0  0  0
    1.2351    1.6276    0.0246 O   0  0  0  0  0  1  0  0  0  0  0  0
   -1.2352    1.6276   -0.0248 O   0  5  0  0  0  0  0  0  0  0  0  0
    3.2460    2.8437    0.2093 C   0  0  0  0  0  0  0  0  0  0  0  0
    2.5142    1.5248    0.0988 C   0  0  2  0  0  3  0  0  0  0  0  0
    3.2260    0.3161    0.0714 C   0  0  0  0  0  0  0  0  0  0  0  0
    2.6104   -0.9551   -0.0531 C   0  0  0  0  0  0  0  0  0  0  0  0
    3.5159   -2.1610   -0.1938 C   0  0  0  0  0  0  0  0  0  0  0  0
    0.6875   -2.4190   -0.3211 C   0  0  0  0  0  0  0  0  0  0  0  0
   -0.6875   -2.4191    0.3203 C   0  0  0  0  0  0  0  0  0  0  0  0
   -3.5158   -2.1611    0.1945 C   0  0  0  0  0  0  0  0  0  0  0  0
   -2.6104   -0.9551    0.0535 C   0  0  1  0  0  3  0  0  0  0  0  0
   -3.2260    0.3161   -0.0708 C   0  0  0  0  0  0  0  0  0  0  0  0
   -2.5143    1.5248   -0.0986 C   0  0  0  0  0  0  0  0  0  0  0  0
   -3.2461    2.8436   -0.2093 C   0  0  0  0  0  0  0  0  0  0  0  0
    2.9816    3.4878   -0.6541 H   0  0  0  0  0  0  0  0  0  0  0  0
    2.9076    3.3803    1.1194 H   0  0  0  0  0  0  0  0  0  0  0  0
    4.3435    2.7170    0.2484 H   0  0  0  0  0  0  0  0  0  0  0  0
    4.3217    0.3532    0.1208 H   0  0  0  0  0  0  0  0  0  0  0  0
    4.5767   -1.8567   -0.1518 H   0  0  0  0  0  0  0  0  0  0  0  0
    3.3468   -2.6838   -1.1584 H   0  0  0  0  0  0  0  0  0  0  0  0
    3.3404   -2.9036    0.6125 H   0  0  0  0  0  0  0  0  0  0  0  0
    0.5880   -2.5777   -1.4212 H   0  0  0  0  0  0  0  0  0  0  0  0
    1.2973   -3.2558    0.0779 H   0  0  0  0  0  0  0  0  0  0  0  0
   -0.5880   -2.5783    1.4204 H   0  0  0  0  0  0  0  0  0  0  0  0
   -1.2973   -3.2558   -0.0791 H   0  0  0  0  0  0  0  0  0  0  0  0
   -3.3460   -2.6841    1.1588 H   0  0  0  0  0  0  0  0  0  0  0  0
   -4.5766   -1.8568    0.1534 H   0  0  0  0  0  0  0  0  0  0  0  0
   -3.3408   -2.9035   -0.6121 H   0  0  0  0  0  0  0  0  0  0  0  0
   -4.3218    0.3532   -0.1196 H   0  0  0  0  0  0  0  0  0  0  0  0
   -4.3436    2.7169   -0.2478 H   0  0  0  0  0  0  0  0  0  0  0  0
   -2.9082    3.3797   -1.1200 H   0  0  0  0  0  0  0  0  0  0  0  0
   -2.9811    3.4883    0.6535 H   0  0  0  0  0  0  0  0  0  0  0  0
  1  8  1  0  0  0  0
  2 11  1  0  0  0  0
  5 19  1  0  0  0  0
  5 18  1  0  0  0  0
  6  3  1  6  0  0  0
  6  5  1  0  0  0  0
  7  6  1  0  0  0  0
  7 20  1  0  0  0  0
  8  7  2  0  0  0  0
  9 21  1  0  0  0  0
  9  8  1  0  0  0  0
  9 23  1  0  0  0  0
 10  1  1  0  0  0  0
 10 25  1  0  0  0  0
 10 11  1  0  0  0  0
 11 26  1  0  0  0  0
 12 28  1  0  0  0  0
 13 14  1  1  0  0  0
 13  2  1  0  0  0  0
 13 12  1  0  0  0  0
 15 14  2  0  0  0  0
 15  4  1  0  0  0  0
 16 15  1  0  0  0  0
 16 34  1  0  0  0  0
 17  5  1  0  0  0  0
 22  9  1  0  0  0  0
 24 10  1  0  0  0  0
 27 11  1  0  0  0  0
 29 12  1  0  0  0  0
 30 12  1  0  0  0  0
 31 14  1  0  0  0  0
 32 16  1  0  0  0  0
 33 16  1  0  0  0  0
M  CHG  1   4  -1
M  END
