2,3,7,8
 OpenBabel05122313063D

 62 66  0  0  1  0  0  0  0  0999 V2000
    7.3544   -2.3973   -0.4246 Cl  0  0  0  0  0  0  0  0  0  0  0  0
    0.7701   -0.5684   -1.0997 O   0  5  0  0  0  0  0  0  0  0  0  0
    1.1578    1.9975   -0.7491 O   0  5  0  0  0  0  0  0  0  0  0  0
    3.6106    2.7508   -0.2747 O   0  0  0  0  0  0  0  0  0  0  0  0
    1.4020   -2.5953   -0.0949 N   0  0  0  0  0  0  0  0  0  0  0  0
    0.8045   -3.6790    0.5201 N   0  0  0  0  0  0  0  0  0  0  0  0
   -1.9861   -0.1679   -0.6712 N   0  0  0  0  0  2  0  0  0  0  0  0
   -1.5420    2.3586   -0.3522 N   0  0  0  0  0  2  0  0  0  0  0  0
    5.6098   -2.4480   -0.3315 C   0  0  0  0  0  0  0  0  0  0  0  0
    4.8693   -1.2644   -0.4791 C   0  0  0  0  0  0  0  0  0  0  0  0
    5.3907   -0.3107   -0.6424 H   0  0  0  0  0  0  0  0  0  0  0  0
    3.4718   -1.2935   -0.4078 C   0  0  0  0  0  0  0  0  0  0  0  0
    2.8997   -0.3625   -0.5120 H   0  0  0  0  0  0  0  0  0  0  0  0
    2.8129   -2.5243   -0.1924 C   0  0  0  0  0  0  0  0  0  0  0  0
    3.5618   -3.7078   -0.0353 C   0  0  0  0  0  0  0  0  0  0  0  0
    3.0262   -4.6470    0.1550 H   0  0  0  0  0  0  0  0  0  0  0  0
    4.9585   -3.6712   -0.1043 C   0  0  0  0  0  0  0  0  0  0  0  0
    5.5484   -4.5905    0.0168 H   0  0  0  0  0  0  0  0  0  0  0  0
   -0.5005   -3.4390    0.5371 C   0  0  0  0  0  0  0  0  0  0  0  0
   -0.8030   -2.1666   -0.0878 C   0  0  0  0  0  0  0  0  0  0  0  0
    0.4764   -1.6574   -0.4864 C   0  0  0  0  0  0  0  0  0  0  0  0
   -1.4083   -4.4217    1.2065 C   0  0  0  0  0  0  0  0  0  0  0  0
   -0.7921   -5.1758    1.7307 H   0  0  0  0  0  0  0  0  0  0  0  0
   -2.0654   -4.9427    0.4819 H   0  0  0  0  0  0  0  0  0  0  0  0
   -2.0773   -3.9232    1.9357 H   0  0  0  0  0  0  0  0  0  0  0  0
   -2.0178   -1.4450   -0.2772 C   0  0  1  0  0  3  0  0  0  0  0  0
   -3.3067   -2.1163    0.0652 C   0  0  0  0  0  0  0  0  0  0  0  0
   -3.7716   -3.2148   -0.6835 C   0  0  0  0  0  0  0  0  0  0  0  0
   -3.1846   -3.5710   -1.5439 H   0  0  0  0  0  0  0  0  0  0  0  0
   -4.9810   -3.8366   -0.3395 C   0  0  0  0  0  0  0  0  0  0  0  0
   -5.3476   -4.6881   -0.9327 H   0  0  0  0  0  0  0  0  0  0  0  0
   -5.7181   -3.3759    0.7636 C   0  0  0  0  0  0  0  0  0  0  0  0
   -6.6639   -3.8682    1.0369 H   0  0  0  0  0  0  0  0  0  0  0  0
   -5.2466   -2.2885    1.5184 C   0  0  0  0  0  0  0  0  0  0  0  0
   -5.8211   -1.9299    2.3859 H   0  0  0  0  0  0  0  0  0  0  0  0
   -4.0482   -1.6494    1.1716 C   0  0  0  0  0  0  0  0  0  0  0  0
   -3.6660   -0.7868    1.7417 H   0  0  0  0  0  0  0  0  0  0  0  0
   -3.1025    0.6526   -0.9244 C   0  0  0  0  0  0  0  0  0  0  0  0
   -4.3673    0.2436   -1.3924 C   0  0  0  0  0  0  0  0  0  0  0  0
   -4.5576   -0.8131   -1.6112 H   0  0  0  0  0  0  0  0  0  0  0  0
   -5.3801    1.1900   -1.5994 C   0  0  0  0  0  0  0  0  0  0  0  0
   -6.3583    0.8557   -1.9756 H   0  0  0  0  0  0  0  0  0  0  0  0
   -5.1496    2.5537   -1.3529 C   0  0  0  0  0  0  0  0  0  0  0  0
   -5.9450    3.2923   -1.5308 H   0  0  0  0  0  0  0  0  0  0  0  0
   -3.8870    2.9818   -0.9229 C   0  0  0  0  0  0  0  0  0  0  0  0
   -3.6860    4.0538   -0.7863 H   0  0  0  0  0  0  0  0  0  0  0  0
   -2.8634    2.0420   -0.7167 C   0  0  0  0  0  0  0  0  0  0  0  0
   -1.1601    3.4934    0.1865 C   0  0  0  0  0  3  0  0  0  0  0  0
   -1.9429    4.2311    0.4435 H   0  0  0  0  0  0  0  0  0  0  0  0
    0.1950    3.8537    0.4827 C   0  0  0  0  0  0  0  0  0  0  0  0
    0.4469    5.0439    1.2293 C   0  0  0  0  0  0  0  0  0  0  0  0
   -0.4099    5.6234    1.6056 H   0  0  0  0  0  0  0  0  0  0  0  0
    1.7450    5.4539    1.4870 C   0  0  0  0  0  0  0  0  0  0  0  0
    1.9374    6.3632    2.0743 H   0  0  0  0  0  0  0  0  0  0  0  0
    2.8404    4.6990    0.9954 C   0  0  0  0  0  0  0  0  0  0  0  0
    3.8630    5.0331    1.2181 H   0  0  0  0  0  0  0  0  0  0  0  0
    2.6314    3.5394    0.2445 C   0  0  0  0  0  0  0  0  0  0  0  0
    1.2925    3.0761   -0.0269 C   0  0  0  0  0  0  0  0  0  0  0  0
    4.9528    3.0983   -0.0053 C   0  0  0  0  0  0  0  0  0  0  0  0
    5.5812    2.3293   -0.4926 H   0  0  0  0  0  0  0  0  0  0  0  0
    5.1698    3.1015    1.0871 H   0  0  0  0  0  0  0  0  0  0  0  0
    5.2171    4.0971   -0.4219 H   0  0  0  0  0  0  0  0  0  0  0  0
  1  9  1  0  0  0  0
  2 21  1  0  0  0  0
  3 58  1  0  0  0  0
  4 59  1  0  0  0  0
  4 57  1  0  0  0  0
  5  6  1  0  0  0  0
  6 19  2  0  0  0  0
  8 48  1  0  0  0  0
  9 17  1  0  0  0  0
 10 12  1  0  0  0  0
 10  9  2  0  0  0  0
 11 10  1  0  0  0  0
 12 14  2  0  0  0  0
 13 12  1  0  0  0  0
 14  5  1  0  0  0  0
 14 15  1  0  0  0  0
 15 16  1  0  0  0  0
 17 15  2  0  0  0  0
 17 18  1  0  0  0  0
 19 22  1  0  0  0  0
 20 19  1  0  0  0  0
 21  5  1  0  0  0  0
 21 20  2  0  0  0  0
 22 23  1  0  0  0  0
 22 25  1  0  0  0  0
 24 22  1  0  0  0  0
 26  7  1  1  0  0  0
 26 20  1  0  0  0  0
 26 27  1  0  0  0  0
 27 36  1  0  0  0  0
 28 30  1  0  0  0  0
 28 27  2  0  0  0  0
 29 28  1  0  0  0  0
 30 32  2  0  0  0  0
 31 30  1  0  0  0  0
 32 33  1  0  0  0  0
 32 34  1  0  0  0  0
 34 35  1  0  0  0  0
 36 34  2  0  0  0  0
 36 37  1  0  0  0  0
 38 47  1  0  0  0  0
 38  7  1  0  0  0  0
 39 38  2  0  0  0  0
 40 39  1  0  0  0  0
 41 39  1  0  0  0  0
 41 43  2  0  0  0  0
 42 41  1  0  0  0  0
 43 45  1  0  0  0  0
 44 43  1  0  0  0  0
 45 46  1  0  0  0  0
 45 47  2  0  0  0  0
 47  8  1  0  0  0  0
 48 49  1  0  0  0  0
 48 50  1  0  0  0  0
 50 51  1  0  0  0  0
 51 53  2  0  0  0  0
 51 52  1  0  0  0  0
 53 54  1  0  0  0  0
 55 56  1  0  0  0  0
 55 53  1  0  0  0  0
 57 55  2  0  0  0  0
 58 57  1  0  0  0  0
 58 50  2  0  0  0  0
 59 61  1  0  0  0  0
 60 59  1  0  0  0  0
 62 59  1  0  0  0  0
M  CHG  2   2  -1   3  -1
M  END
