1,5,7,8
 OpenBabel05122313063D

 28 27  0  0  0  0  0  0  0  0999 V2000
    0.8697   -1.9105   -0.6785 O   0  5  0  0  0  0  0  0  0  0  0  0
   -0.4647   -3.5773   -1.3903 O   0  0  0  0  0  0  0  0  0  0  0  0
   -4.0338    0.0449   -0.0988 O   0  0  0  0  0  0  0  0  0  0  0  0
   -3.9299    0.9378    1.9844 O   0  0  0  0  0  0  0  0  0  0  0  0
    0.8326    1.6057    0.7019 O   0  5  0  0  0  0  0  0  0  0  0  0
    0.9992    3.7601    0.0606 O   0  0  0  0  0  0  0  0  0  0  0  0
   -1.1767   -0.2031   -0.1690 N   0  0  0  0  0  0  0  0  0  0  0  0
    0.9368    0.6194   -1.7789 N   0  0  0  0  0  0  0  0  0  0  0  0
   -0.3845    0.3873   -2.4198 C   0  0  0  0  0  0  0  0  0  0  0  0
   -1.4567    0.6335   -1.3846 C   0  0  0  0  0  0  0  0  0  0  0  0
   -1.8759    0.3660    1.0043 C   0  0  0  0  0  0  0  0  0  0  0  0
   -3.3997    0.4211    0.8666 C   0  0  0  0  0  0  0  0  0  0  0  0
   -1.5073   -1.6477   -0.3912 C   0  0  0  0  0  0  0  0  0  0  0  0
   -0.3084   -2.4806   -0.8927 C   0  0  0  0  0  0  0  0  0  0  0  0
    1.3160    2.0493   -1.6149 C   0  0  0  0  0  0  0  0  0  0  0  0
    1.0195    2.5719   -0.1870 C   0  0  0  0  0  0  0  0  0  0  0  0
    1.6458    0.1138   -2.3280 H   0  0  0  0  0  0  0  0  0  0  0  0
   -4.9068    0.9597    1.8681 H   0  0  0  0  0  0  0  0  0  0  0  0
   -0.4079   -0.6570   -2.7876 H   0  0  0  0  0  0  0  0  0  0  0  0
   -0.5236    1.0538   -3.2970 H   0  0  0  0  0  0  0  0  0  0  0  0
   -2.4704    0.4104   -1.7700 H   0  0  0  0  0  0  0  0  0  0  0  0
   -1.4494    1.6948   -1.0646 H   0  0  0  0  0  0  0  0  0  0  0  0
   -1.4723    1.3797    1.2056 H   0  0  0  0  0  0  0  0  0  0  0  0
   -1.6608   -0.2418    1.9047 H   0  0  0  0  0  0  0  0  0  0  0  0
   -1.8280   -2.0903    0.5742 H   0  0  0  0  0  0  0  0  0  0  0  0
   -2.3705   -1.7591   -1.0750 H   0  0  0  0  0  0  0  0  0  0  0  0
    2.4042    2.1631   -1.7984 H   0  0  0  0  0  0  0  0  0  0  0  0
    0.8072    2.6952   -2.3586 H   0  0  0  0  0  0  0  0  0  0  0  0
  2 14  2  0  0  0  0
  3 12  2  0  0  0  0
  7 11  1  0  0  0  0
  8 15  1  0  0  0  0
  9  8  1  0  0  0  0
  9 10  1  0  0  0  0
 10 22  1  0  0  0  0
 10  7  1  0  0  0  0
 11 23  1  0  0  0  0
 11 24  1  0  0  0  0
 12 11  1  0  0  0  0
 12  4  1  0  0  0  0
 13  7  1  0  0  0  0
 13 25  1  0  0  0  0
 14  1  1  0  0  0  0
 14 13  1  0  0  0  0
 15 16  1  0  0  0  0
 16  6  2  0  0  0  0
 16  5  1  0  0  0  0
 17  8  1  0  0  0  0
 18  4  1  0  0  0  0
 19  9  1  0  0  0  0
 20  9  1  0  0  0  0
 21 10  1  0  0  0  0
 26 13  1  0  0  0  0
 27 15  1  0  0  0  0
 28 15  1  0  0  0  0
M  CHG  2   1  -1   5  -1
M  END
