3,4,5,8
 OpenBabel05122313063D

 66 70  0  0  0  0  0  0  0  0999 V2000
   -1.0051    0.6544   -1.0647 O   0  0  0  0  0  0  0  0  0  0  0  0
   -0.7527   -0.9346    1.0657 O   0  0  0  0  0  0  0  0  0  0  0  0
    0.4939    1.3051    1.6311 N   0  0  0  0  0  2  0  0  0  0  0  0
    1.9016    1.7370   -0.9229 O   0  5  0  0  0  0  0  0  0  0  0  0
    2.3429   -1.0618    0.9267 O   0  5  0  0  0  0  0  0  0  0  0  0
    1.4642   -2.2670   -1.6817 C   0  0  0  0  0  3  0  0  0  0  0  0
    1.2582   -2.9054   -2.5687 H   0  0  0  0  0  0  0  0  0  0  0  0
    0.8755   -1.0878   -1.6307 N   0  0  0  0  0  2  0  0  0  0  0  0
   -0.6934   -0.6154   -5.0182 C   0  0  0  0  0  0  0  0  0  0  0  0
   -0.5572   -0.9321   -6.0627 H   0  0  0  0  0  0  0  0  0  0  0  0
   -3.0819   -1.1676    0.2436 C   0  0  0  0  0  0  0  0  0  0  0  0
   -5.7156   -0.2439   -0.2400 C   0  0  0  0  0  0  0  0  0  0  0  0
   -6.7335    0.1253   -0.4352 H   0  0  0  0  0  0  0  0  0  0  0  0
   -0.9945    0.2467   -2.3688 C   0  0  0  0  0  0  0  0  0  0  0  0
    3.6059   -4.8933   -0.1385 C   0  0  0  0  0  0  0  0  0  0  0  0
    3.9566   -5.9034   -0.3944 H   0  0  0  0  0  0  0  0  0  0  0  0
    1.3007    3.4483    0.7034 C   0  0  0  0  0  0  0  0  0  0  0  0
   -0.1197    1.0586    4.0394 C   0  0  0  0  0  0  0  0  0  0  0  0
    0.4879    1.9314    4.3195 H   0  0  0  0  0  0  0  0  0  0  0  0
    2.3168   -2.8693   -0.7060 C   0  0  0  0  0  0  0  0  0  0  0  0
   -1.7117   -1.7851    0.4477 C   0  0  0  0  0  0  0  0  0  0  0  0
   -1.8057   -2.7391    1.0097 H   0  0  0  0  0  0  0  0  0  0  0  0
   -1.2511   -2.0296   -0.5303 H   0  0  0  0  0  0  0  0  0  0  0  0
    0.2109   -1.0480   -4.0378 C   0  0  0  0  0  0  0  0  0  0  0  0
    1.0594   -1.6886   -4.3191 H   0  0  0  0  0  0  0  0  0  0  0  0
   -3.2918    0.1527   -0.2410 C   0  0  0  0  0  0  0  0  0  0  0  0
   -0.8658   -0.5458    2.3707 C   0  0  0  0  0  0  0  0  0  0  0  0
   -1.6070   -1.2264    3.3451 C   0  0  0  0  0  0  0  0  0  0  0  0
   -2.1913   -2.1162    3.0744 H   0  0  0  0  0  0  0  0  0  0  0  0
    1.3298    4.8482    0.9977 C   0  0  0  0  0  0  0  0  0  0  0  0
    0.8935    5.1810    1.9544 H   0  0  0  0  0  0  0  0  0  0  0  0
    2.7056   -2.2400    0.5543 C   0  0  0  0  0  0  0  0  0  0  0  0
    0.0626   -0.6547   -2.6919 C   0  0  0  0  0  0  0  0  0  0  0  0
    2.4373    5.3156   -1.0955 C   0  0  0  0  0  0  0  0  0  0  0  0
    2.8808    6.0415   -1.7958 H   0  0  0  0  0  0  0  0  0  0  0  0
   -1.9126    0.6612   -3.3421 C   0  0  0  0  0  0  0  0  0  0  0  0
   -2.7441    1.3256   -3.0711 H   0  0  0  0  0  0  0  0  0  0  0  0
   -1.7617    0.2238   -4.6688 C   0  0  0  0  0  0  0  0  0  0  0  0
   -2.4796    0.5567   -5.4328 H   0  0  0  0  0  0  0  0  0  0  0  0
   -4.2016   -1.9882    0.4790 C   0  0  0  0  0  0  0  0  0  0  0  0
   -4.0376   -3.0088    0.8608 H   0  0  0  0  0  0  0  0  0  0  0  0
   -0.8420    0.3649    5.0208 C   0  0  0  0  0  0  0  0  0  0  0  0
   -0.8090    0.7074    6.0656 H   0  0  0  0  0  0  0  0  0  0  0  0
   -5.5091   -1.5428    0.2416 C   0  0  0  0  0  0  0  0  0  0  0  0
   -6.3623   -2.2096    0.4361 H   0  0  0  0  0  0  0  0  0  0  0  0
    3.9850   -4.2865    1.0895 C   0  0  0  0  0  0  0  0  0  0  0  0
    4.6353   -4.8370    1.7883 H   0  0  0  0  0  0  0  0  0  0  0  0
   -2.1805    1.1647   -0.4452 C   0  0  0  0  0  0  0  0  0  0  0  0
   -2.5662    2.0430   -1.0063 H   0  0  0  0  0  0  0  0  0  0  0  0
   -1.8175    1.5390    0.5328 H   0  0  0  0  0  0  0  0  0  0  0  0
    2.7879   -4.1871   -1.0042 C   0  0  0  0  0  0  0  0  0  0  0  0
    2.4801   -4.6379   -1.9626 H   0  0  0  0  0  0  0  0  0  0  0  0
   -0.1412    0.6396    2.6932 C   0  0  0  0  0  0  0  0  0  0  0  0
   -4.6108    0.5853   -0.4770 C   0  0  0  0  0  0  0  0  0  0  0  0
   -4.7715    1.6065   -0.8588 H   0  0  0  0  0  0  0  0  0  0  0  0
    0.6810    2.6097    1.6804 C   0  0  0  0  0  3  0  0  0  0  0  0
    0.2837    3.1519    2.5664 H   0  0  0  0  0  0  0  0  0  0  0  0
    3.5520   -3.0131    1.4228 C   0  0  0  0  0  0  0  0  0  0  0  0
    3.8407   -2.5354    2.3706 H   0  0  0  0  0  0  0  0  0  0  0  0
   -1.5966   -0.7649    4.6722 C   0  0  0  0  0  0  0  0  0  0  0  0
   -2.1735   -1.3054    5.4370 H   0  0  0  0  0  0  0  0  0  0  0  0
    1.8710    2.9707   -0.5545 C   0  0  0  0  0  0  0  0  0  0  0  0
    2.4306    3.9695   -1.4248 C   0  0  0  0  0  0  0  0  0  0  0  0
    2.8575    3.6052   -2.3708 H   0  0  0  0  0  0  0  0  0  0  0  0
    1.8833    5.7747    0.1301 C   0  0  0  0  0  0  0  0  0  0  0  0
    1.8955    6.8445    0.3830 H   0  0  0  0  0  0  0  0  0  0  0  0
  1 48  1  0  0  0  0
  2 27  1  0  0  0  0
  3 56  1  0  0  0  0
  3 53  1  0  0  0  0
  4 62  1  0  0  0  0
  6  8  1  0  0  0  0
  6 20  1  0  0  0  0
  7  6  1  0  0  0  0
  9 38  2  0  0  0  0
  9 24  1  0  0  0  0
 10  9  1  0  0  0  0
 11 21  1  0  0  0  0
 11 40  1  0  0  0  0
 12 44  1  0  0  0  0
 13 12  1  0  0  0  0
 14  1  1  0  0  0  0
 15 46  1  0  0  0  0
 16 15  1  0  0  0  0
 17 30  1  0  0  0  0
 17 56  1  0  0  0  0
 18 19  1  0  0  0  0
 18 42  1  0  0  0  0
 20 32  2  0  0  0  0
 21 22  1  0  0  0  0
 21  2  1  0  0  0  0
 23 21  1  0  0  0  0
 24 33  2  0  0  0  0
 25 24  1  0  0  0  0
 26 11  2  0  0  0  0
 27 53  1  0  0  0  0
 27 28  2  0  0  0  0
 28 60  1  0  0  0  0
 29 28  1  0  0  0  0
 30 31  1  0  0  0  0
 32  5  1  0  0  0  0
 32 58  1  0  0  0  0
 33 14  1  0  0  0  0
 33  8  1  0  0  0  0
 34 65  1  0  0  0  0
 35 34  1  0  0  0  0
 36 37  1  0  0  0  0
 36 14  2  0  0  0  0
 38 36  1  0  0  0  0
 39 38  1  0  0  0  0
 40 41  1  0  0  0  0
 42 43  1  0  0  0  0
 44 45  1  0  0  0  0
 44 40  2  0  0  0  0
 46 58  2  0  0  0  0
 46 47  1  0  0  0  0
 48 26  1  0  0  0  0
 48 50  1  0  0  0  0
 49 48  1  0  0  0  0
 51 20  1  0  0  0  0
 51 15  2  0  0  0  0
 52 51  1  0  0  0  0
 53 18  2  0  0  0  0
 54 26  1  0  0  0  0
 54 12  2  0  0  0  0
 55 54  1  0  0  0  0
 56 57  1  0  0  0  0
 58 59  1  0  0  0  0
 60 42  2  0  0  0  0
 60 61  1  0  0  0  0
 62 17  2  0  0  0  0
 63 34  2  0  0  0  0
 63 62  1  0  0  0  0
 64 63  1  0  0  0  0
 65 66  1  0  0  0  0
 65 30  2  0  0  0  0
M  CHG  2   4  -1   5  -1
M  END
