1,2,3,4
 OpenBabel05122313063D

 44 45  0  0  1  0  0  0  0  0999 V2000
    0.1385    2.5718   -0.5295 O   0  0  0  0  0  1  0  0  0  0  0  0
   -1.8980    1.1513   -0.4168 O   0  0  0  0  0  1  0  0  0  0  0  0
    1.7148    0.3887    0.1493 N   0  0  0  0  0  2  0  0  0  0  0  0
   -0.3769   -1.0658   -0.1170 N   0  0  0  0  0  2  0  0  0  0  0  0
    1.0819    4.7328   -0.4837 C   0  0  0  0  0  0  0  0  0  0  0  0
    0.1479    5.1447   -0.0512 H   0  0  0  0  0  0  0  0  0  0  0  0
    1.0161    4.8827   -1.5813 H   0  0  0  0  0  0  0  0  0  0  0  0
    1.9508    5.2955   -0.0960 H   0  0  0  0  0  0  0  0  0  0  0  0
    1.1704    3.2540   -0.1844 C   0  0  1  0  0  3  0  0  0  0  0  0
    2.3072    2.7165    0.4372 C   0  0  0  0  0  0  0  0  0  0  0  0
    3.0837    3.4099    0.7863 H   0  0  0  0  0  0  0  0  0  0  0  0
    2.5422    1.3288    0.6194 C   0  0  0  0  0  0  0  0  0  0  0  0
    3.7960    0.9768    1.3984 C   0  0  0  0  0  0  0  0  0  0  0  0
    3.6736    0.0559    2.0002 H   0  0  0  0  0  0  0  0  0  0  0  0
    4.0431    1.8062    2.0866 H   0  0  0  0  0  0  0  0  0  0  0  0
    4.6724    0.8344    0.7331 H   0  0  0  0  0  0  0  0  0  0  0  0
    2.0047   -1.0473    0.2839 C   0  0  2  0  0  0  0  0  0  0  0  0
    1.9743   -1.3265    1.3672 H   0  0  0  0  0  0  0  0  0  0  0  0
    3.3236   -1.5685   -0.3179 C   0  0  0  0  0  0  0  0  0  0  0  0
    4.2029   -1.0622    0.1151 H   0  0  0  0  0  0  0  0  0  0  0  0
    3.3275   -1.3372   -1.4056 H   0  0  0  0  0  0  0  0  0  0  0  0
    3.4438   -3.0830   -0.0864 C   0  0  0  0  0  0  0  0  0  0  0  0
    4.3872   -3.4599   -0.5326 H   0  0  0  0  0  0  0  0  0  0  0  0
    3.5222   -3.2719    1.0077 H   0  0  0  0  0  0  0  0  0  0  0  0
    2.2462   -3.8575   -0.6480 C   0  0  0  0  0  0  0  0  0  0  0  0
    2.3248   -4.9343   -0.3928 H   0  0  0  0  0  0  0  0  0  0  0  0
    2.2631   -3.7981   -1.7586 H   0  0  0  0  0  0  0  0  0  0  0  0
    0.9071   -3.2943   -0.1467 C   0  0  0  0  0  0  0  0  0  0  0  0
    0.7866   -3.4828    0.9429 H   0  0  0  0  0  0  0  0  0  0  0  0
    0.0720   -3.8124   -0.6612 H   0  0  0  0  0  0  0  0  0  0  0  0
    0.8574   -1.7900   -0.4185 C   0  0  1  0  0  0  0  0  0  0  0  0
    1.0242   -1.6449   -1.5127 H   0  0  0  0  0  0  0  0  0  0  0  0
   -1.5196   -1.6720    0.1023 C   0  0  0  0  0  0  0  0  0  0  0  0
   -1.5184   -2.7742    0.1920 H   0  0  0  0  0  0  0  0  0  0  0  0
   -2.9003    0.3912   -0.1004 C   0  0  2  0  0  3  0  0  0  0  0  0
   -2.7865   -1.0193    0.2025 C   0  0  0  0  0  0  0  0  0  0  0  0
   -3.9485   -1.7745    0.5289 C   0  0  0  0  0  0  0  0  0  0  0  0
   -3.8297   -2.8485    0.7479 H   0  0  0  0  0  0  0  0  0  0  0  0
   -5.2050   -1.1857    0.5721 C   0  0  0  0  0  0  0  0  0  0  0  0
   -6.0941   -1.7786    0.8304 H   0  0  0  0  0  0  0  0  0  0  0  0
   -5.3248    0.1957    0.2692 C   0  0  0  0  0  0  0  0  0  0  0  0
   -6.3176    0.6723    0.2955 H   0  0  0  0  0  0  0  0  0  0  0  0
   -4.2144    0.9613   -0.0623 C   0  0  0  0  0  0  0  0  0  0  0  0
   -4.2998    2.0313   -0.3005 H   0  0  0  0  0  0  0  0  0  0  0  0
  3 17  1  0  0  0  0
  3 12  1  0  0  0  0
  4 33  1  0  0  0  0
  5  9  1  0  0  0  0
  5  8  1  0  0  0  0
  5  6  1  0  0  0  0
  7  5  1  0  0  0  0
  9  1  1  1  0  0  0
  9 10  1  0  0  0  0
 10 12  2  0  0  0  0
 10 11  1  0  0  0  0
 12 13  1  0  0  0  0
 13 14  1  0  0  0  0
 13 15  1  0  0  0  0
 16 13  1  0  0  0  0
 17 18  1  1  0  0  0
 19 22  1  0  0  0  0
 19 20  1  0  0  0  0
 19 17  1  0  0  0  0
 21 19  1  0  0  0  0
 22 24  1  0  0  0  0
 23 22  1  0  0  0  0
 25 26  1  0  0  0  0
 25 28  1  0  0  0  0
 25 22  1  0  0  0  0
 27 25  1  0  0  0  0
 28 29  1  0  0  0  0
 30 28  1  0  0  0  0
 31 32  1  6  0  0  0
 31 28  1  0  0  0  0
 31  4  1  0  0  0  0
 31 17  1  0  0  0  0
 33 34  1  0  0  0  0
 33 36  2  0  0  0  0
 35  2  1  6  0  0  0
 35 43  1  0  0  0  0
 35 36  1  0  0  0  0
 36 37  1  0  0  0  0
 37 39  2  0  0  0  0
 37 38  1  0  0  0  0
 39 40  1  0  0  0  0
 41 42  1  0  0  0  0
 41 39  1  0  0  0  0
 43 41  2  0  0  0  0
 44 43  1  0  0  0  0
M  END
