5,6,7,8
 OpenBabel05122313063D

 60 65  0  0  0  0  0  0  0  0999 V2000
   -0.2721    4.5146    1.4679 Cl  0  0  0  0  0  0  0  0  0  0  0  0
    4.8235    5.2189   -0.2838 Cl  0  0  0  0  0  0  0  0  0  0  0  0
   -5.2493    2.1973   -1.0475 Cl  0  0  0  0  0  0  0  0  0  0  0  0
   -6.8241   -1.6152    2.4836 Cl  0  0  0  0  0  0  0  0  0  0  0  0
   -0.0677    1.9433    0.1325 O   0  5  0  0  0  0  0  0  0  0  0  0
   -2.6081    1.1404   -0.5993 O   0  5  0  0  0  0  0  0  0  0  0  0
    1.2425    0.0090   -1.3434 N   0  0  0  0  0  2  0  0  0  0  0  0
   -0.7209   -0.6722    0.7402 N   0  0  0  0  0  2  0  0  0  0  0  0
    1.0263    2.6395   -0.0109 C   0  0  0  0  0  0  0  0  0  0  0  0
    1.1121    3.9315    0.6012 C   0  0  0  0  0  0  0  0  0  0  0  0
    2.2613    4.7147    0.5085 C   0  0  0  0  0  0  0  0  0  0  0  0
    3.3922    4.2259   -0.1828 C   0  0  0  0  0  0  0  0  0  0  0  0
    3.3714    2.9628   -0.7638 C   0  0  0  0  0  0  0  0  0  0  0  0
    2.1991    2.1653   -0.6961 C   0  0  0  0  0  0  0  0  0  0  0  0
    2.2593    0.8201   -1.1982 C   0  0  0  0  0  3  0  0  0  0  0  0
    1.4463   -1.3838   -1.5877 C   0  0  0  0  0  0  0  0  0  0  0  0
    1.4693   -1.8815   -2.9163 C   0  0  0  0  0  0  0  0  0  0  0  0
    1.5233   -3.2493   -3.1263 C   0  0  0  0  0  0  0  0  0  0  0  0
    1.5282   -4.1606   -2.0303 C   0  0  0  0  0  0  0  0  0  0  0  0
    1.5483   -5.5724   -2.2310 C   0  0  0  0  0  0  0  0  0  0  0  0
    1.5400   -6.4455   -1.1545 C   0  0  0  0  0  0  0  0  0  0  0  0
    1.5090   -5.9393    0.1728 C   0  0  0  0  0  0  0  0  0  0  0  0
    1.4949   -4.5723    0.4055 C   0  0  0  0  0  0  0  0  0  0  0  0
    1.5062   -3.6464   -0.6801 C   0  0  0  0  0  0  0  0  0  0  0  0
    1.4880   -2.2269   -0.4734 C   0  0  0  0  0  0  0  0  0  0  0  0
    1.5719   -1.6084    0.8825 C   0  0  0  0  0  0  0  0  0  0  0  0
    2.8088   -1.6990    1.6151 C   0  0  0  0  0  0  0  0  0  0  0  0
    3.9565   -2.3662    1.0859 C   0  0  0  0  0  0  0  0  0  0  0  0
    5.1394   -2.4356    1.8065 C   0  0  0  0  0  0  0  0  0  0  0  0
    5.2386   -1.8445    3.0939 C   0  0  0  0  0  0  0  0  0  0  0  0
    4.1492   -1.1786    3.6327 C   0  0  0  0  0  0  0  0  0  0  0  0
    2.9209   -1.0823    2.9159 C   0  0  0  0  0  0  0  0  0  0  0  0
    1.8072   -0.3674    3.4390 C   0  0  0  0  0  0  0  0  0  0  0  0
    0.6371   -0.2583    2.7137 C   0  0  0  0  0  0  0  0  0  0  0  0
    0.5070   -0.8798    1.4357 C   0  0  0  0  0  0  0  0  0  0  0  0
   -1.8405   -0.9837    1.3571 C   0  0  0  0  0  3  0  0  0  0  0  0
   -3.1776   -0.5908    1.0251 C   0  0  0  0  0  0  0  0  0  0  0  0
   -4.2264   -1.2262    1.7574 C   0  0  0  0  0  0  0  0  0  0  0  0
   -5.5425   -0.8253    1.6004 C   0  0  0  0  0  0  0  0  0  0  0  0
   -5.8640    0.2444    0.7283 C   0  0  0  0  0  0  0  0  0  0  0  0
   -4.8592    0.8886    0.0183 C   0  0  0  0  0  0  0  0  0  0  0  0
   -3.4723    0.4922    0.1095 C   0  0  0  0  0  0  0  0  0  0  0  0
    2.2827    5.7084    0.9752 H   0  0  0  0  0  0  0  0  0  0  0  0
    4.2636    2.5796   -1.2790 H   0  0  0  0  0  0  0  0  0  0  0  0
    3.2613    0.4078   -1.4244 H   0  0  0  0  0  0  0  0  0  0  0  0
    1.4232   -1.1665   -3.7503 H   0  0  0  0  0  0  0  0  0  0  0  0
    1.5455   -3.6502   -4.1511 H   0  0  0  0  0  0  0  0  0  0  0  0
    1.5661   -5.9565   -3.2627 H   0  0  0  0  0  0  0  0  0  0  0  0
    1.5537   -7.5324   -1.3249 H   0  0  0  0  0  0  0  0  0  0  0  0
    1.4945   -6.6385    1.0224 H   0  0  0  0  0  0  0  0  0  0  0  0
    1.4712   -4.1836    1.4337 H   0  0  0  0  0  0  0  0  0  0  0  0
    3.8956   -2.8262    0.0902 H   0  0  0  0  0  0  0  0  0  0  0  0
    6.0099   -2.9523    1.3750 H   0  0  0  0  0  0  0  0  0  0  0  0
    6.1817   -1.9101    3.6566 H   0  0  0  0  0  0  0  0  0  0  0  0
    4.2164   -0.7043    4.6240 H   0  0  0  0  0  0  0  0  0  0  0  0
    1.8985    0.1232    4.4200 H   0  0  0  0  0  0  0  0  0  0  0  0
   -0.2043    0.3433    3.0859 H   0  0  0  0  0  0  0  0  0  0  0  0
   -1.7400   -1.6126    2.2640 H   0  0  0  0  0  0  0  0  0  0  0  0
   -3.9810   -2.0384    2.4566 H   0  0  0  0  0  0  0  0  0  0  0  0
   -6.9068    0.5680    0.6102 H   0  0  0  0  0  0  0  0  0  0  0  0
  2 12  1  0  0  0  0
  3 41  1  0  0  0  0
  6 42  1  0  0  0  0
  7 15  1  0  0  0  0
  8 36  1  0  0  0  0
  8 35  1  0  0  0  0
  9  5  1  0  0  0  0
  9 10  1  0  0  0  0
 10  1  1  0  0  0  0
 11 10  2  0  0  0  0
 11 43  1  0  0  0  0
 12 11  1  0  0  0  0
 13 14  1  0  0  0  0
 13 12  2  0  0  0  0
 14  9  2  0  0  0  0
 15 14  1  0  0  0  0
 16  7  1  0  0  0  0
 16 25  1  0  0  0  0
 17 16  2  0  0  0  0
 18 17  1  0  0  0  0
 18 19  2  0  0  0  0
 19 24  1  0  0  0  0
 20 19  1  0  0  0  0
 20 21  2  0  0  0  0
 21 22  1  0  0  0  0
 22 23  2  0  0  0  0
 22 50  1  0  0  0  0
 23 51  1  0  0  0  0
 24 25  2  0  0  0  0
 24 23  1  0  0  0  0
 25 26  1  0  0  0  0
 26 35  2  0  0  0  0
 26 27  1  0  0  0  0
 27 32  1  0  0  0  0
 28 27  2  0  0  0  0
 28 29  1  0  0  0  0
 29 30  2  0  0  0  0
 30 31  1  0  0  0  0
 30 54  1  0  0  0  0
 31 55  1  0  0  0  0
 32 33  1  0  0  0  0
 32 31  2  0  0  0  0
 33 56  1  0  0  0  0
 34 57  1  0  0  0  0
 34 33  2  0  0  0  0
 35 34  1  0  0  0  0
 36 58  1  0  0  0  0
 37 36  1  0  0  0  0
 37 38  1  0  0  0  0
 38 59  1  0  0  0  0
 39 38  2  0  0  0  0
 39  4  1  0  0  0  0
 40 39  1  0  0  0  0
 41 42  1  0  0  0  0
 41 40  2  0  0  0  0
 42 37  2  0  0  0  0
 44 13  1  0  0  0  0
 45 15  1  0  0  0  0
 46 17  1  0  0  0  0
 47 18  1  0  0  0  0
 48 20  1  0  0  0  0
 49 21  1  0  0  0  0
 52 28  1  0  0  0  0
 53 29  1  0  0  0  0
 60 40  1  0  0  0  0
M  CHG  2   5  -1   6  -1
M  END
