1,2,5,6
 OpenBabel05122313063D

 42 43  0  0  1  0  0  0  0  0999 V2000
   -1.3016    0.4442    0.4684 O   0  5  0  0  0  0  0  0  0  0  0  0
    1.3016    0.4442   -0.4683 O   0  0  0  0  0  1  0  0  0  0  0  0
    2.6610    2.6852   -0.6460 O   0  0  0  0  0  0  0  0  0  0  0  0
   -2.6610    2.6852    0.6461 O   0  0  0  0  0  0  0  0  0  0  0  0
   -1.2638   -2.2277    0.1139 N   0  0  0  0  0  2  0  0  0  0  0  0
    1.2638   -2.2276   -0.1139 N   0  0  0  0  0  2  0  0  0  0  0  0
   -2.5793    0.3852    0.1717 C   0  0  0  0  0  0  0  0  0  0  0  0
   -3.3592    1.5962    0.2671 C   0  0  0  0  0  0  0  0  0  0  0  0
   -4.7219    1.5723   -0.0553 C   0  0  0  0  0  0  0  0  0  0  0  0
   -5.3138    2.4962   -0.0162 H   0  0  0  0  0  0  0  0  0  0  0  0
   -5.3535    0.3635   -0.4290 C   0  0  0  0  0  0  0  0  0  0  0  0
   -6.4269    0.3724   -0.6668 H   0  0  0  0  0  0  0  0  0  0  0  0
   -4.6392   -0.8271   -0.4786 C   0  0  0  0  0  3  0  0  0  0  0  0
   -5.1435   -1.7722   -0.7294 H   0  0  0  0  0  0  0  0  0  0  0  0
   -3.2462   -0.8429   -0.1870 C   0  0  0  0  0  0  0  0  0  0  0  0
   -2.5587   -2.1035   -0.0814 C   0  0  0  0  0  0  0  0  0  0  0  0
   -3.1793   -3.0205   -0.1185 H   0  0  0  0  0  0  0  0  0  0  0  0
   -0.6737   -3.5424    0.3594 C   0  0  0  0  0  0  0  0  0  0  0  0
   -1.3335   -4.3660    0.0151 H   0  0  0  0  0  0  0  0  0  0  0  0
   -0.5159   -3.6576    1.4537 H   0  0  0  0  0  0  0  0  0  0  0  0
    0.6737   -3.5424   -0.3594 C   0  0  0  0  0  0  0  0  0  0  0  0
    1.3335   -4.3660   -0.0151 H   0  0  0  0  0  0  0  0  0  0  0  0
    0.5159   -3.6576   -1.4537 H   0  0  0  0  0  0  0  0  0  0  0  0
    2.5587   -2.1035    0.0814 C   0  0  0  0  0  0  0  0  0  0  0  0
    3.1793   -3.0205    0.1185 H   0  0  0  0  0  0  0  0  0  0  0  0
    3.2462   -0.8429    0.1870 C   0  0  0  0  0  0  0  0  0  0  0  0
    2.5793    0.3853   -0.1717 C   0  0  1  0  0  3  0  0  0  0  0  0
    3.3592    1.5962   -0.2671 C   0  0  0  0  0  0  0  0  0  0  0  0
    4.7219    1.5723    0.0552 C   0  0  0  0  0  0  0  0  0  0  0  0
    5.3138    2.4962    0.0161 H   0  0  0  0  0  0  0  0  0  0  0  0
    5.3535    0.3635    0.4289 C   0  0  0  0  0  0  0  0  0  0  0  0
    6.4269    0.3724    0.6667 H   0  0  0  0  0  0  0  0  0  0  0  0
    4.6392   -0.8271    0.4786 C   0  0  0  0  0  0  0  0  0  0  0  0
    5.1435   -1.7722    0.7293 H   0  0  0  0  0  0  0  0  0  0  0  0
   -3.3515    3.9228    0.7666 C   0  0  0  0  0  0  0  0  0  0  0  0
   -2.6033    4.6628    1.1026 H   0  0  0  0  0  0  0  0  0  0  0  0
   -4.1696    3.8620    1.5169 H   0  0  0  0  0  0  0  0  0  0  0  0
   -3.7755    4.2490   -0.2082 H   0  0  0  0  0  0  0  0  0  0  0  0
    3.3515    3.9228   -0.7666 C   0  0  0  0  0  0  0  0  0  0  0  0
    4.1696    3.8620   -1.5169 H   0  0  0  0  0  0  0  0  0  0  0  0
    3.7755    4.2490    0.2082 H   0  0  0  0  0  0  0  0  0  0  0  0
    2.6033    4.6628   -1.1026 H   0  0  0  0  0  0  0  0  0  0  0  0
  3 28  1  0  0  0  0
  4 35  1  0  0  0  0
  5 18  1  0  0  0  0
  6 24  1  0  0  0  0
  7  8  2  0  0  0  0
  7  1  1  0  0  0  0
  8  4  1  0  0  0  0
  9 10  1  0  0  0  0
  9  8  1  0  0  0  0
 11  9  2  0  0  0  0
 12 11  1  0  0  0  0
 13 11  1  0  0  0  0
 13 15  1  0  0  0  0
 14 13  1  0  0  0  0
 15 16  2  0  0  0  0
 15  7  1  0  0  0  0
 16  5  1  0  0  0  0
 17 16  1  0  0  0  0
 18 20  1  0  0  0  0
 19 18  1  0  0  0  0
 21  6  1  0  0  0  0
 21 22  1  0  0  0  0
 21 18  1  0  0  0  0
 23 21  1  0  0  0  0
 24 25  1  0  0  0  0
 24 26  2  0  0  0  0
 26 33  1  0  0  0  0
 27  2  1  6  0  0  0
 27 26  1  0  0  0  0
 28 27  1  0  0  0  0
 28 29  2  0  0  0  0
 29 31  1  0  0  0  0
 30 29  1  0  0  0  0
 31 33  2  0  0  0  0
 31 32  1  0  0  0  0
 33 34  1  0  0  0  0
 35 36  1  0  0  0  0
 35 37  1  0  0  0  0
 38 35  1  0  0  0  0
 39  3  1  0  0  0  0
 39 41  1  0  0  0  0
 40 39  1  0  0  0  0
 42 39  1  0  0  0  0
M  CHG  1   1  -1
M  END
