1,2,3,5
 OpenBabel05122313063D

 48 50  0  0  1  0  0  0  0  0999 V2000
    1.6891   -0.9496   -0.8668 O   0  5  0  0  0  0  0  0  0  0  0  0
   -1.6337   -0.6030    0.9840 O   0  5  0  0  0  0  0  0  0  0  0  0
    0.8868    0.6487    1.2033 N   0  0  0  0  0  0  0  0  0  0  0  0
    0.2115    0.6614    1.9811 H   0  0  0  0  0  0  0  0  0  0  0  0
   -0.6397    0.7885   -1.1298 N   0  0  0  0  0  0  0  0  0  0  0  0
    0.0465    0.7796   -1.8983 H   0  0  0  0  0  0  0  0  0  0  0  0
   -0.4699    2.0174   -0.3253 C   0  0  2  0  0  0  0  0  0  0  0  0
   -1.3152    2.0285    0.3974 H   0  0  0  0  0  0  0  0  0  0  0  0
   -0.5236    3.3139   -1.1474 C   0  0  0  0  0  0  0  0  0  0  0  0
    0.2817    3.2809   -1.9168 H   0  0  0  0  0  0  0  0  0  0  0  0
   -1.4877    3.3749   -1.6921 H   0  0  0  0  0  0  0  0  0  0  0  0
   -0.3386    4.5499   -0.2588 C   0  0  0  0  0  0  0  0  0  0  0  0
   -0.3534    5.4703   -0.8778 H   0  0  0  0  0  0  0  0  0  0  0  0
   -1.2030    4.6275    0.4374 H   0  0  0  0  0  0  0  0  0  0  0  0
    0.9600    4.4636    0.5504 C   0  0  0  0  0  0  0  0  0  0  0  0
    1.0625    5.3421    1.2201 H   0  0  0  0  0  0  0  0  0  0  0  0
    1.8297    4.4958   -0.1428 H   0  0  0  0  0  0  0  0  0  0  0  0
    1.0198    3.1670    1.3664 C   0  0  0  0  0  0  0  0  0  0  0  0
    0.2155    3.1701    2.1373 H   0  0  0  0  0  0  0  0  0  0  0  0
    1.9849    3.0979    1.9088 H   0  0  0  0  0  0  0  0  0  0  0  0
    0.8369    1.9302    0.4738 C   0  0  1  0  0  0  0  0  0  0  0  0
    1.6791    1.9023   -0.2535 H   0  0  0  0  0  0  0  0  0  0  0  0
    2.2292    0.2730    1.6999 C   0  0  0  0  0  0  0  0  0  0  0  0
    2.1102   -0.7251    2.1702 H   0  0  0  0  0  0  0  0  0  0  0  0
    2.5953    0.9766    2.4805 H   0  0  0  0  0  0  0  0  0  0  0  0
    3.2389    0.2018    0.5796 C   0  0  0  0  0  0  0  0  0  0  0  0
    4.5199    0.7523    0.7436 C   0  0  0  0  0  0  0  0  0  0  0  0
    4.7848    1.2520    1.6878 H   0  0  0  0  0  0  0  0  0  0  0  0
    5.4728    0.6718   -0.2830 C   0  0  0  0  0  0  0  0  0  0  0  0
    7.0638    1.3611   -0.0455 Cl  0  0  0  0  0  0  0  0  0  0  0  0
    5.1504    0.0497   -1.4999 C   0  0  0  0  0  0  0  0  0  0  0  0
    5.9017   -0.0062   -2.3004 H   0  0  0  0  0  0  0  0  0  0  0  0
    3.8717   -0.4874   -1.6790 C   0  0  0  0  0  0  0  0  0  0  0  0
    3.5961   -0.9769   -2.6248 H   0  0  0  0  0  0  0  0  0  0  0  0
    2.8928   -0.4307   -0.6545 C   0  0  0  0  0  0  0  0  0  0  0  0
   -1.9999    0.6040   -1.6827 C   0  0  0  0  0  0  0  0  0  0  0  0
   -1.9723   -0.3516   -2.2445 H   0  0  0  0  0  0  0  0  0  0  0  0
   -2.2598    1.4106   -2.4039 H   0  0  0  0  0  0  0  0  0  0  0  0
   -3.0597    0.5464   -0.6055 C   0  0  0  0  0  0  0  0  0  0  0  0
   -4.3221    1.1090   -0.8626 C   0  0  0  0  0  0  0  0  0  0  0  0
   -4.5114    1.6065   -1.8261 H   0  0  0  0  0  0  0  0  0  0  0  0
   -5.3496    1.0460    0.0881 C   0  0  0  0  0  0  0  0  0  0  0  0
   -6.9116    1.7504   -0.2714 Cl  0  0  0  0  0  0  0  0  0  0  0  0
   -5.1237    0.4306    1.3302 C   0  0  0  0  0  0  0  0  0  0  0  0
   -5.9312    0.3883    2.0750 H   0  0  0  0  0  0  0  0  0  0  0  0
   -3.8674   -0.1156    1.6042 C   0  0  0  0  0  0  0  0  0  0  0  0
   -3.6652   -0.5977    2.5722 H   0  0  0  0  0  0  0  0  0  0  0  0
   -2.8113   -0.0810    0.6559 C   0  0  0  0  0  0  0  0  0  0  0  0
  1 35  1  0  0  0  0
  3 23  1  0  0  0  0
  3  4  1  0  0  0  0
  5  7  1  0  0  0  0
  6  5  1  0  0  0  0
  7  8  1  1  0  0  0
  7 21  1  0  0  0  0
  9  7  1  0  0  0  0
  9 12  1  0  0  0  0
 10  9  1  0  0  0  0
 11  9  1  0  0  0  0
 12 14  1  0  0  0  0
 12 15  1  0  0  0  0
 13 12  1  0  0  0  0
 15 16  1  0  0  0  0
 15 18  1  0  0  0  0
 17 15  1  0  0  0  0
 18 20  1  0  0  0  0
 18 19  1  0  0  0  0
 21 22  1  6  0  0  0
 21  3  1  0  0  0  0
 21 18  1  0  0  0  0
 23 24  1  0  0  0  0
 23 25  1  0  0  0  0
 26 27  1  0  0  0  0
 26 23  1  0  0  0  0
 27 28  1  0  0  0  0
 29 30  1  0  0  0  0
 29 27  2  0  0  0  0
 31 29  1  0  0  0  0
 32 31  1  0  0  0  0
 33 31  2  0  0  0  0
 33 35  1  0  0  0  0
 34 33  1  0  0  0  0
 35 26  2  0  0  0  0
 36  5  1  0  0  0  0
 36 39  1  0  0  0  0
 37 36  1  0  0  0  0
 38 36  1  0  0  0  0
 39 48  1  0  0  0  0
 40 39  2  0  0  0  0
 40 42  1  0  0  0  0
 41 40  1  0  0  0  0
 42 44  2  0  0  0  0
 43 42  1  0  0  0  0
 44 46  1  0  0  0  0
 44 45  1  0  0  0  0
 46 47  1  0  0  0  0
 48  2  1  0  0  0  0
 48 46  2  0  0  0  0
M  CHG  2   1  -1   2  -1
M  END
