1,2,4,5
 OpenBabel05122313063D

 37 39  0  0  1  0  0  0  0  0999 V2000
    1.4618   -1.8259   -0.3105 O   0  0  0  0  0  1  0  0  0  0  0  0
   -1.4454   -1.8462   -0.2368 O   0  0  0  0  0  1  0  0  0  0  0  0
   -0.7406    4.7127   -0.1365 N   0  0  0  0  0  0  0  0  0  0  0  0
   -1.3378    1.0333   -0.0307 N   0  0  0  0  0  2  0  0  0  0  0  0
    1.3370    1.0321    0.0260 N   0  0  0  0  0  2  0  0  0  0  0  0
   -1.3686    3.5337   -0.1312 C   0  0  0  0  0  0  0  0  0  0  0  0
   -2.4684    3.5700   -0.2254 H   0  0  0  0  0  0  0  0  0  0  0  0
   -0.7139    2.2824   -0.0379 C   0  0  0  0  0  0  0  0  0  0  0  0
    0.7199    2.2824    0.0033 C   0  0  0  0  0  0  0  0  0  0  0  0
    1.3713    3.5339   -0.0211 C   0  0  0  0  0  0  0  0  0  0  0  0
    2.4684    3.6050   -0.0128 H   0  0  0  0  0  0  0  0  0  0  0  0
    0.6041    4.7021   -0.0721 C   0  0  0  0  0  0  0  0  0  0  0  0
    1.1035    5.6870   -0.0758 H   0  0  0  0  0  0  0  0  0  0  0  0
    3.3527   -0.3549    0.1497 C   0  0  0  0  0  0  0  0  0  0  0  0
    2.7268   -1.6480   -0.1168 C   0  0  1  0  0  3  0  0  0  0  0  0
    3.5965   -2.7896   -0.1607 C   0  0  0  0  0  0  0  0  0  0  0  0
    3.1199   -3.7592   -0.3657 H   0  0  0  0  0  0  0  0  0  0  0  0
    4.9617   -2.6786    0.0485 C   0  0  0  0  0  0  0  0  0  0  0  0
    5.5897   -3.5826    0.0072 H   0  0  0  0  0  0  0  0  0  0  0  0
    5.5664   -1.4195    0.3173 C   0  0  0  0  0  0  0  0  0  0  0  0
    6.6507   -1.3470    0.4827 H   0  0  0  0  0  0  0  0  0  0  0  0
    4.7676   -0.2916    0.3640 C   0  0  0  0  0  0  0  0  0  0  0  0
    5.2143    0.6959    0.5662 H   0  0  0  0  0  0  0  0  0  0  0  0
    2.6374    0.8742    0.1989 C   0  0  0  0  0  0  0  0  0  0  0  0
    3.2586    1.7718    0.4056 H   0  0  0  0  0  0  0  0  0  0  0  0
   -3.3480   -0.3618    0.1273 C   0  0  0  0  0  0  0  0  0  0  0  0
   -2.7162   -1.6621   -0.0727 C   0  0  2  0  0  3  0  0  0  0  0  0
   -3.5809   -2.8070   -0.0772 C   0  0  0  0  0  0  0  0  0  0  0  0
   -3.0984   -3.7830   -0.2314 H   0  0  0  0  0  0  0  0  0  0  0  0
   -4.9505   -2.6921    0.1048 C   0  0  0  0  0  0  0  0  0  0  0  0
   -5.5751   -3.5994    0.0924 H   0  0  0  0  0  0  0  0  0  0  0  0
   -5.5614   -1.4255    0.3099 C   0  0  0  0  0  0  0  0  0  0  0  0
   -6.6481   -1.3481    0.4563 H   0  0  0  0  0  0  0  0  0  0  0  0
   -4.7645   -0.2941    0.3214 C   0  0  0  0  0  0  0  0  0  0  0  0
   -5.2162    0.6996    0.4769 H   0  0  0  0  0  0  0  0  0  0  0  0
   -2.6355    0.8729    0.1519 C   0  0  0  0  0  0  0  0  0  0  0  0
   -3.2582    1.7693    0.3563 H   0  0  0  0  0  0  0  0  0  0  0  0
  3  6  2  0  0  0  0
  3 12  1  0  0  0  0
  4 36  1  0  0  0  0
  5 24  1  0  0  0  0
  6  8  1  0  0  0  0
  7  6  1  0  0  0  0
  8  4  1  0  0  0  0
  8  9  2  0  0  0  0
  9  5  1  0  0  0  0
 10 11  1  0  0  0  0
 10  9  1  0  0  0  0
 12 10  2  0  0  0  0
 13 12  1  0  0  0  0
 14 24  2  0  0  0  0
 14 22  1  0  0  0  0
 15  1  1  1  0  0  0
 15 14  1  0  0  0  0
 16 15  1  0  0  0  0
 16 18  2  0  0  0  0
 17 16  1  0  0  0  0
 18 20  1  0  0  0  0
 19 18  1  0  0  0  0
 20 22  2  0  0  0  0
 20 21  1  0  0  0  0
 22 23  1  0  0  0  0
 24 25  1  0  0  0  0
 26 36  2  0  0  0  0
 26 34  1  0  0  0  0
 27  2  1  1  0  0  0
 27 26  1  0  0  0  0
 28 27  1  0  0  0  0
 28 30  2  0  0  0  0
 29 28  1  0  0  0  0
 30 32  1  0  0  0  0
 31 30  1  0  0  0  0
 32 34  2  0  0  0  0
 32 33  1  0  0  0  0
 34 35  1  0  0  0  0
 36 37  1  0  0  0  0
M  END
