67,68,69,70
 OpenBabel05122313063D

 70 75  0  0  1  0  0  0  0  0999 V2000
    2.3862   -1.4016   -0.3188 C   0  0  0  0  0  0  0  0  0  0  0  0
    2.8025   -2.1759    0.7687 C   0  0  0  0  0  0  0  0  0  0  0  0
    2.1322   -2.3639    1.6187 H   0  0  0  0  0  0  0  0  0  0  0  0
    4.0958   -2.7310    0.7512 C   0  0  0  0  0  0  0  0  0  0  0  0
    4.4316   -3.3460    1.5994 H   0  0  0  0  0  0  0  0  0  0  0  0
    4.9605   -2.5059   -0.3345 C   0  0  0  0  0  0  0  0  0  0  0  0
    5.9715   -2.9406   -0.3258 H   0  0  0  0  0  0  0  0  0  0  0  0
    4.5408   -1.7403   -1.4347 C   0  0  0  0  0  0  0  0  0  0  0  0
    5.2141   -1.5723   -2.2887 H   0  0  0  0  0  0  0  0  0  0  0  0
    3.2475   -1.1976   -1.4272 C   0  0  0  0  0  0  0  0  0  0  0  0
    2.5356   -0.4147   -2.4461 C   0  0  0  0  0  0  0  0  0  0  0  0
    2.9263    0.0084   -3.7262 C   0  0  0  0  0  0  0  0  0  0  0  0
    3.9290   -0.2260   -4.1147 H   0  0  0  0  0  0  0  0  0  0  0  0
    2.0116    0.7365   -4.5054 C   0  0  0  0  0  0  0  0  0  0  0  0
    2.3020    1.0757   -5.5113 H   0  0  0  0  0  0  0  0  0  0  0  0
    0.7217    1.0245   -4.0204 C   0  0  0  0  0  0  0  0  0  0  0  0
    0.0132    1.5822   -4.6511 H   0  0  0  0  0  0  0  0  0  0  0  0
    0.3258    0.6017   -2.7376 C   0  0  0  0  0  0  0  0  0  0  0  0
   -0.6802    0.8236   -2.3503 H   0  0  0  0  0  0  0  0  0  0  0  0
    1.2453   -0.1002   -1.9543 C   0  0  0  0  0  0  0  0  0  0  0  0
   -0.4386   -2.5333   -0.7108 C   0  0  2  0  0  3  0  0  0  0  0  0
    0.6121   -3.3910   -1.3813 C   0  0  0  0  0  0  0  0  0  0  0  0
    1.1553   -2.8260   -2.1616 H   0  0  0  0  0  0  0  0  0  0  0  0
    0.1241   -4.2618   -1.8547 H   0  0  0  0  0  0  0  0  0  0  0  0
    1.3694   -3.7642   -0.6657 H   0  0  0  0  0  0  0  0  0  0  0  0
   -1.7063   -3.1582   -0.5293 C   0  0  0  0  0  0  0  0  0  0  0  0
   -1.7904   -4.2272   -0.7533 H   0  0  0  0  0  0  0  0  0  0  0  0
   -2.8443   -2.4771   -0.1207 C   0  0  0  0  0  0  0  0  0  0  0  0
   -4.1544   -3.2413    0.1140 C   0  0  0  0  0  0  0  0  0  0  0  0
    1.2459    0.1000    1.9543 C   0  0  0  0  0  0  0  0  0  0  0  0
    0.3268   -0.6021    2.7379 C   0  0  0  0  0  0  0  0  0  0  0  0
   -0.6793   -0.8240    2.3510 H   0  0  0  0  0  0  0  0  0  0  0  0
    0.7232   -1.0249    4.0205 C   0  0  0  0  0  0  0  0  0  0  0  0
    0.0150   -1.5827    4.6515 H   0  0  0  0  0  0  0  0  0  0  0  0
    2.0133   -0.7367    4.5051 C   0  0  0  0  0  0  0  0  0  0  0  0
    2.3041   -1.0759    5.5109 H   0  0  0  0  0  0  0  0  0  0  0  0
    2.9276   -0.0084    3.7257 C   0  0  0  0  0  0  0  0  0  0  0  0
    3.9303    0.2261    4.1138 H   0  0  0  0  0  0  0  0  0  0  0  0
    2.5363    0.4147    2.4457 C   0  0  0  0  0  0  0  0  0  0  0  0
    3.2478    1.1978    1.4266 C   0  0  0  0  0  0  0  0  0  0  0  0
    4.5410    1.7407    1.4337 C   0  0  0  0  0  0  0  0  0  0  0  0
    5.2146    1.5729    2.2874 H   0  0  0  0  0  0  0  0  0  0  0  0
    4.9601    2.5066    0.3334 C   0  0  0  0  0  0  0  0  0  0  0  0
    5.9710    2.9415    0.3244 H   0  0  0  0  0  0  0  0  0  0  0  0
    4.0949    2.7316   -0.7519 C   0  0  0  0  0  0  0  0  0  0  0  0
    4.4302    3.3468   -1.6003 H   0  0  0  0  0  0  0  0  0  0  0  0
    2.8017    2.1762   -0.7691 C   0  0  0  0  0  0  0  0  0  0  0  0
    2.1310    2.3640   -1.6188 H   0  0  0  0  0  0  0  0  0  0  0  0
    2.3860    1.4016    0.3185 C   0  0  0  0  0  0  0  0  0  0  0  0
    1.0880   -0.6086   -0.5185 C   0  0  0  0  0  0  0  0  0  0  0  0
    1.0881    0.6084    0.5186 C   0  0  0  0  0  0  0  0  0  0  0  0
    0.6121    3.3902    1.3825 C   0  0  0  0  0  0  0  0  0  0  0  0
    1.1558    2.8249    2.1622 H   0  0  0  0  0  0  0  0  0  0  0  0
    0.1241    4.2605    1.8567 H   0  0  0  0  0  0  0  0  0  0  0  0
    1.3690    3.7642    0.6669 H   0  0  0  0  0  0  0  0  0  0  0  0
   -0.4386    2.5329    0.7117 C   0  0  2  0  0  3  0  0  0  0  0  0
   -1.7062    3.1579    0.5302 C   0  0  0  0  0  0  0  0  0  0  0  0
   -1.7904    4.2268    0.7549 H   0  0  0  0  0  0  0  0  0  0  0  0
   -2.8441    2.4771    0.1208 C   0  0  0  0  0  0  0  0  0  0  0  0
   -4.1542    3.2414   -0.1137 C   0  0  0  0  0  0  0  0  0  0  0  0
   -4.0332   -4.5611   -0.1655 F   0  0  0  0  0  0  0  0  0  0  0  0
   -5.1438   -2.7472   -0.6554 F   0  0  0  0  0  0  0  0  0  0  0  0
   -4.5367   -3.1296    1.4050 F   0  0  0  0  0  0  0  0  0  0  0  0
   -4.0329    4.5613    0.1659 F   0  0  0  0  0  0  0  0  0  0  0  0
   -5.1435    2.7474    0.6559 F   0  0  0  0  0  0  0  0  0  0  0  0
   -4.5368    3.1298   -1.4046 F   0  0  0  0  0  0  0  0  0  0  0  0
   -0.2135   -1.2724   -0.3322 N   0  0  0  0  0  2  0  0  0  0  0  0
   -0.2136    1.2720    0.3327 N   0  0  0  0  0  2  0  0  0  0  0  0
   -2.9597   -1.2171    0.0777 O   0  5  0  0  0  0  0  0  0  0  0  0
   -2.9595    1.2173   -0.0788 O   0  5  0  0  0  0  0  0  0  0  0  0
  1  2  1  0  0  0  0
  2  3  1  0  0  0  0
  4  2  2  0  0  0  0
  4  5  1  0  0  0  0
  6  7  1  0  0  0  0
  6  4  1  0  0  0  0
  8 10  1  0  0  0  0
  8  6  2  0  0  0  0
  9  8  1  0  0  0  0
 10  1  2  0  0  0  0
 11 20  1  0  0  0  0
 11 10  1  0  0  0  0
 12 11  2  0  0  0  0
 13 12  1  0  0  0  0
 14 16  2  0  0  0  0
 14 12  1  0  0  0  0
 15 14  1  0  0  0  0
 16 18  1  0  0  0  0
 17 16  1  0  0  0  0
 18 19  1  0  0  0  0
 18 20  2  0  0  0  0
 20 50  1  0  0  0  0
 21 26  1  6  0  0  0
 21 67  1  0  0  0  0
 22 21  1  0  0  0  0
 22 25  1  0  0  0  0
 23 22  1  0  0  0  0
 24 22  1  0  0  0  0
 26 28  2  0  0  0  0
 27 26  1  0  0  0  0
 28 69  1  0  0  0  0
 28 29  1  0  0  0  0
 29 63  1  0  0  0  0
 30 39  2  0  0  0  0
 30 31  1  0  0  0  0
 31 33  2  0  0  0  0
 32 31  1  0  0  0  0
 33 35  1  0  0  0  0
 33 34  1  0  0  0  0
 35 36  1  0  0  0  0
 37 38  1  0  0  0  0
 37 35  2  0  0  0  0
 39 37  1  0  0  0  0
 40 41  1  0  0  0  0
 40 39  1  0  0  0  0
 41 42  1  0  0  0  0
 43 41  2  0  0  0  0
 44 43  1  0  0  0  0
 45 43  1  0  0  0  0
 46 45  1  0  0  0  0
 47 45  2  0  0  0  0
 47 49  1  0  0  0  0
 48 47  1  0  0  0  0
 49 51  1  0  0  0  0
 49 40  2  0  0  0  0
 50 67  1  0  0  0  0
 50  1  1  0  0  0  0
 50 51  1  0  0  0  0
 51 30  1  0  0  0  0
 52 54  1  0  0  0  0
 52 53  1  0  0  0  0
 55 52  1  0  0  0  0
 56 68  1  1  0  0  0
 56 52  1  0  0  0  0
 57 56  1  0  0  0  0
 57 58  1  0  0  0  0
 59 57  2  0  0  0  0
 60 59  1  0  0  0  0
 60 64  1  0  0  0  0
 60 65  1  0  0  0  0
 61 29  1  0  0  0  0
 62 29  1  0  0  0  0
 66 60  1  0  0  0  0
 68 51  1  0  0  0  0
 70 59  1  0  0  0  0
M  CHG  2  69  -1  70  -1
M  END
