1,2,3,4
 OpenBabel05122313063D

 46 49  0  0  0  0  0  0  0  0999 V2000
    1.6306   -1.5003   -0.4899 O   0  5  0  0  0  0  0  0  0  0  0  0
   -1.2729   -1.0660   -1.2326 O   0  5  0  0  0  0  0  0  0  0  0  0
    1.6410    1.3129   -0.0979 N   0  0  0  0  0  2  0  0  0  0  0  0
   -1.0330    1.5357   -0.2167 N   0  0  0  0  0  2  0  0  0  0  0  0
    2.6882    4.6088    0.3190 N   0  0  0  0  0  0  0  0  0  0  0  0
   -1.6025    4.9344    0.2354 N   0  0  0  0  0  0  0  0  0  0  0  0
    2.9558    1.1094   -0.0597 C   0  0  0  0  0  3  0  0  0  0  0  0
    3.5855    2.0075    0.0798 H   0  0  0  0  0  0  0  0  0  0  0  0
    3.6262   -0.1329   -0.1790 C   0  0  0  0  0  0  0  0  0  0  0  0
    2.9087   -1.3849   -0.3853 C   0  0  0  0  0  0  0  0  0  0  0  0
    3.6826   -2.6012   -0.4948 C   0  0  0  0  0  0  0  0  0  0  0  0
    3.1087   -3.5252   -0.6560 H   0  0  0  0  0  0  0  0  0  0  0  0
    5.0501   -2.6033   -0.4121 C   0  0  0  0  0  0  0  0  0  0  0  0
    5.6079   -3.5494   -0.5031 H   0  0  0  0  0  0  0  0  0  0  0  0
    5.7974   -1.3945   -0.2090 C   0  0  0  0  0  0  0  0  0  0  0  0
    7.2138   -1.4322   -0.1270 C   0  0  0  0  0  0  0  0  0  0  0  0
    7.7171   -2.4071   -0.2234 H   0  0  0  0  0  0  0  0  0  0  0  0
    7.9536   -0.2716    0.0695 C   0  0  0  0  0  0  0  0  0  0  0  0
    9.0511   -0.3099    0.1314 H   0  0  0  0  0  0  0  0  0  0  0  0
    7.2730    0.9594    0.1888 C   0  0  0  0  0  0  0  0  0  0  0  0
    7.8414    1.8887    0.3452 H   0  0  0  0  0  0  0  0  0  0  0  0
    5.8824    1.0183    0.1114 C   0  0  0  0  0  0  0  0  0  0  0  0
    5.4105    2.0050    0.2127 H   0  0  0  0  0  0  0  0  0  0  0  0
    5.0931   -0.1476   -0.0902 C   0  0  0  0  0  0  0  0  0  0  0  0
   -2.3569    1.4899   -0.2149 C   0  0  0  0  0  3  0  0  0  0  0  0
   -2.9032    2.4320   -0.0089 H   0  0  0  0  0  0  0  0  0  0  0  0
   -3.1332    0.3333   -0.5072 C   0  0  0  0  0  0  0  0  0  0  0  0
   -2.5354   -0.8496   -1.1126 C   0  0  0  0  0  0  0  0  0  0  0  0
   -3.4332   -1.8535   -1.6475 C   0  0  0  0  0  0  0  0  0  0  0  0
   -2.9578   -2.6938   -2.1751 H   0  0  0  0  0  0  0  0  0  0  0  0
   -4.7949   -1.7691   -1.5007 C   0  0  0  0  0  0  0  0  0  0  0  0
   -5.4457   -2.5584   -1.9112 H   0  0  0  0  0  0  0  0  0  0  0  0
   -5.4115   -0.6744   -0.8060 C   0  0  0  0  0  0  0  0  0  0  0  0
   -6.8175   -0.6330   -0.6152 C   0  0  0  0  0  0  0  0  0  0  0  0
   -7.4259   -1.4568   -1.0208 H   0  0  0  0  0  0  0  0  0  0  0  0
   -7.4190    0.4183    0.0683 C   0  0  0  0  0  0  0  0  0  0  0  0
   -8.5095    0.4415    0.2109 H   0  0  0  0  0  0  0  0  0  0  0  0
   -6.6092    1.4531    0.5868 C   0  0  0  0  0  0  0  0  0  0  0  0
   -7.0695    2.2837    1.1432 H   0  0  0  0  0  0  0  0  0  0  0  0
   -5.2265    1.4326    0.4120 C   0  0  0  0  0  0  0  0  0  0  0  0
   -4.6341    2.2439    0.8576 H   0  0  0  0  0  0  0  0  0  0  0  0
   -4.5805    0.3838   -0.2998 C   0  0  0  0  0  0  0  0  0  0  0  0
    1.0924    2.5720    0.0199 C   0  0  0  0  0  0  0  0  0  0  0  0
   -0.3103    2.6894   -0.0271 C   0  0  0  0  0  0  0  0  0  0  0  0
    1.9266    3.7229    0.1853 C   0  0  0  0  0  0  0  0  0  0  0  0
   -0.9665    3.9521    0.1186 C   0  0  0  0  0  0  0  0  0  0  0  0
  1 10  1  0  0  0  0
  2 28  1  0  0  0  0
  3  7  1  0  0  0  0
  3 43  1  0  0  0  0
  4 25  1  0  0  0  0
  4 44  1  0  0  0  0
  7  8  1  0  0  0  0
  9 24  1  0  0  0  0
  9  7  1  0  0  0  0
 10  9  2  0  0  0  0
 11 13  2  0  0  0  0
 11 10  1  0  0  0  0
 12 11  1  0  0  0  0
 13 15  1  0  0  0  0
 14 13  1  0  0  0  0
 15 16  2  0  0  0  0
 15 24  1  0  0  0  0
 16 18  1  0  0  0  0
 17 16  1  0  0  0  0
 18 19  1  0  0  0  0
 18 20  2  0  0  0  0
 20 21  1  0  0  0  0
 22 20  1  0  0  0  0
 22 23  1  0  0  0  0
 24 22  2  0  0  0  0
 25 26  1  0  0  0  0
 27 42  1  0  0  0  0
 27 25  1  0  0  0  0
 28 27  2  0  0  0  0
 29 31  2  0  0  0  0
 29 28  1  0  0  0  0
 30 29  1  0  0  0  0
 31 33  1  0  0  0  0
 32 31  1  0  0  0  0
 33 34  2  0  0  0  0
 33 42  1  0  0  0  0
 34 36  1  0  0  0  0
 35 34  1  0  0  0  0
 36 37  1  0  0  0  0
 36 38  2  0  0  0  0
 38 39  1  0  0  0  0
 40 38  1  0  0  0  0
 40 41  1  0  0  0  0
 42 40  2  0  0  0  0
 43 45  1  0  0  0  0
 44 43  2  0  0  0  0
 44 46  1  0  0  0  0
 45  5  3  0  0  0  0
 46  6  3  0  0  0  0
M  CHG  2   1  -1   2  -1
M  END
