1,6,7,11
 OpenBabel05122313063D

 36 37  0  0  0  0  0  0  0  0999 V2000
   -1.5041   -1.4316   -0.6137 O   0  5  0  0  0  0  0  0  0  0  0  0
    5.8747   -3.2435   -1.0743 O   0  0  0  0  0  0  0  0  0  0  0  0
    5.3433   -4.0619   -1.1116 H   0  0  0  0  0  0  0  0  0  0  0  0
   -5.8756   -3.2432   -1.0729 O   0  0  0  0  0  0  0  0  0  0  0  0
   -5.3443   -4.0618   -1.1093 H   0  0  0  0  0  0  0  0  0  0  0  0
    1.5033   -1.4314   -0.6163 O   0  5  0  0  0  0  0  0  0  0  0  0
    1.3461    1.4357   -0.5377 N   0  0  0  0  0  2  0  0  0  0  0  0
   -2.7709   -1.2203   -0.7154 C   0  0  0  0  0  0  0  0  0  0  0  0
    0.7031    2.6539   -0.5136 C   0  0  0  0  0  0  0  0  0  0  0  0
    3.3933    0.1094   -0.6831 C   0  0  0  0  0  0  0  0  0  0  0  0
   -1.3463    1.4356   -0.5376 N   0  0  0  0  0  2  0  0  0  0  0  0
   -3.6493   -2.3390   -0.8610 C   0  0  0  0  0  0  0  0  0  0  0  0
   -3.1791   -3.3345   -0.8956 H   0  0  0  0  0  0  0  0  0  0  0  0
   -0.7034    2.6539   -0.5136 C   0  0  0  0  0  0  0  0  0  0  0  0
    2.6670    1.3254   -0.6138 C   0  0  0  0  0  3  0  0  0  0  0  0
    3.2703    2.2586   -0.6407 H   0  0  0  0  0  0  0  0  0  0  0  0
   -5.0326   -2.1912   -0.9436 C   0  0  0  0  0  0  0  0  0  0  0  0
   -3.3937    0.1095   -0.6827 C   0  0  0  0  0  0  0  0  0  0  0  0
   -2.6672    1.3254   -0.6139 C   0  0  0  0  0  3  0  0  0  0  0  0
   -3.2705    2.2586   -0.6412 H   0  0  0  0  0  0  0  0  0  0  0  0
    2.7703   -1.2203   -0.7170 C   0  0  0  0  0  0  0  0  0  0  0  0
    1.4449    3.8776   -0.5021 C   0  0  0  0  0  0  0  0  0  0  0  0
    4.8208    0.2066   -0.7698 C   0  0  0  0  0  0  0  0  0  0  0  0
    5.2699    1.2125   -0.7427 H   0  0  0  0  0  0  0  0  0  0  0  0
    3.6485   -2.3390   -0.8630 C   0  0  0  0  0  0  0  0  0  0  0  0
    3.1781   -3.3344   -0.8986 H   0  0  0  0  0  0  0  0  0  0  0  0
   -1.4452    3.8775   -0.5023 C   0  0  0  0  0  0  0  0  0  0  0  0
    5.6361   -0.8980   -0.8924 C   0  0  0  0  0  0  0  0  0  0  0  0
    6.7292   -0.8173   -0.9612 H   0  0  0  0  0  0  0  0  0  0  0  0
    5.0318   -2.1914   -0.9447 C   0  0  0  0  0  0  0  0  0  0  0  0
   -4.8211    0.2069   -0.7702 C   0  0  0  0  0  0  0  0  0  0  0  0
   -5.2701    1.2129   -0.7440 H   0  0  0  0  0  0  0  0  0  0  0  0
   -2.1367    4.8287   -0.4894 N   0  0  0  0  0  0  0  0  0  0  0  0
   -5.6366   -0.8976   -0.8925 C   0  0  0  0  0  0  0  0  0  0  0  0
   -6.7296   -0.8168   -0.9619 H   0  0  0  0  0  0  0  0  0  0  0  0
    2.1364    4.8287   -0.4892 N   0  0  0  0  0  0  0  0  0  0  0  0
  2 30  1  0  0  0  0
  3  2  1  0  0  0  0
  4 17  1  0  0  0  0
  5  4  1  0  0  0  0
  7  9  1  0  0  0  0
  8 18  1  0  0  0  0
  8  1  1  0  0  0  0
  9 22  1  0  0  0  0
 10 15  1  0  0  0  0
 11 14  1  0  0  0  0
 12  8  2  0  0  0  0
 13 12  1  0  0  0  0
 14  9  2  0  0  0  0
 14 27  1  0  0  0  0
 15  7  1  0  0  0  0
 16 15  1  0  0  0  0
 17 34  2  0  0  0  0
 17 12  1  0  0  0  0
 18 19  1  0  0  0  0
 19 11  1  0  0  0  0
 20 19  1  0  0  0  0
 21 10  1  0  0  0  0
 21  6  1  0  0  0  0
 22 36  3  0  0  0  0
 23 24  1  0  0  0  0
 23 10  2  0  0  0  0
 25 21  2  0  0  0  0
 26 25  1  0  0  0  0
 27 33  3  0  0  0  0
 28 23  1  0  0  0  0
 29 28  1  0  0  0  0
 30 28  2  0  0  0  0
 30 25  1  0  0  0  0
 31 32  1  0  0  0  0
 31 18  2  0  0  0  0
 34 31  1  0  0  0  0
 35 34  1  0  0  0  0
M  CHG  2   1  -1   6  -1
M  END
