1,2,3,4
 OpenBabel05122313063D

 67 68  0  0  1  0  0  0  0  0999 V2000
    1.2326   -1.1404   -1.3274 O   0  5  0  0  0  0  0  0  0  0  0  0
   -1.9150    1.2401   -0.5160 O   0  0  0  0  0  1  0  0  0  0  0  0
    0.7786    1.7445   -1.0337 N   0  0  0  0  0  2  0  0  0  0  0  0
   -1.4769   -1.6386   -0.8499 N   0  0  0  0  0  2  0  0  0  0  0  0
    2.9225    0.6070   -1.5282 C   0  0  0  0  0  0  0  0  0  0  0  0
    2.4726   -0.7613   -1.5072 C   0  0  0  0  0  0  0  0  0  0  0  0
    3.4475   -1.7866   -1.7043 C   0  0  0  0  0  0  0  0  0  0  0  0
    4.7862   -1.4818   -1.9175 C   0  0  0  0  0  0  0  0  0  0  0  0
    5.2311   -0.1373   -1.9481 C   0  0  0  0  0  0  0  0  0  0  0  0
    4.3037    0.8777   -1.7575 C   0  0  0  0  0  3  0  0  0  0  0  0
    2.0596    1.7341   -1.3154 C   0  0  0  0  0  0  0  0  0  0  0  0
   -3.6377   -0.4823   -0.4747 C   0  0  0  0  0  0  0  0  0  0  0  0
   -3.1650    0.8745   -0.3854 C   0  0  1  0  0  3  0  0  0  0  0  0
   -4.1260    1.9011   -0.1357 C   0  0  0  0  0  0  0  0  0  0  0  0
   -5.4768    1.6082    0.0061 C   0  0  0  0  0  0  0  0  0  0  0  0
   -5.9474    0.2754   -0.0888 C   0  0  0  0  0  0  0  0  0  0  0  0
   -5.0318   -0.7412   -0.3232 C   0  0  0  0  0  0  0  0  0  0  0  0
   -2.7777   -1.6116   -0.6819 C   0  0  0  0  0  0  0  0  0  0  0  0
    0.1612    3.0496   -0.7456 C   0  0  0  0  0  0  0  0  0  0  0  0
    0.0315    3.2858    0.7664 C   0  0  0  0  0  0  0  0  0  0  0  0
    1.3566    3.6150    1.4645 C   0  0  0  0  0  0  0  0  0  0  0  0
    1.3554    3.3558    2.9787 C   0  0  0  0  0  0  0  0  0  0  0  0
    1.2201    1.8753    3.3728 C   0  0  0  0  0  0  0  0  0  0  0  0
    2.3030    0.9717    2.7719 C   0  0  0  0  0  0  0  0  0  0  0  0
    2.2845   -0.4789    3.2669 C   0  0  0  0  0  0  0  0  0  0  0  0
    0.9805   -1.2311    2.9730 C   0  0  0  0  0  0  0  0  0  0  0  0
    1.1222   -2.7493    3.1218 C   0  0  0  0  0  0  0  0  0  0  0  0
   -0.1760   -3.5483    2.9235 C   0  0  0  0  0  0  0  0  0  0  0  0
   -0.9429   -3.2249    1.6319 C   0  0  0  0  0  0  0  0  0  0  0  0
   -0.1041   -3.3442    0.3585 C   0  0  0  0  0  0  0  0  0  0  0  0
   -0.8480   -2.9672   -0.9304 C   0  0  0  0  0  0  0  0  0  0  0  0
    3.0926   -2.8273   -1.6830 H   0  0  0  0  0  0  0  0  0  0  0  0
    5.5084   -2.3001   -2.0647 H   0  0  0  0  0  0  0  0  0  0  0  0
    6.2914    0.0972   -2.1180 H   0  0  0  0  0  0  0  0  0  0  0  0
    4.6278    1.9309   -1.7729 H   0  0  0  0  0  0  0  0  0  0  0  0
    2.5533    2.7227   -1.3893 H   0  0  0  0  0  0  0  0  0  0  0  0
   -3.7517    2.9325   -0.0630 H   0  0  0  0  0  0  0  0  0  0  0  0
   -6.1888    2.4270    0.1950 H   0  0  0  0  0  0  0  0  0  0  0  0
   -7.0174    0.0508    0.0245 H   0  0  0  0  0  0  0  0  0  0  0  0
   -5.3738   -1.7864   -0.3938 H   0  0  0  0  0  0  0  0  0  0  0  0
   -3.2898   -2.5937   -0.6859 H   0  0  0  0  0  0  0  0  0  0  0  0
   -0.8406    3.0604   -1.2090 H   0  0  0  0  0  0  0  0  0  0  0  0
    0.7793    3.8462   -1.2137 H   0  0  0  0  0  0  0  0  0  0  0  0
   -0.6997    4.1062    0.9308 H   0  0  0  0  0  0  0  0  0  0  0  0
   -0.4345    2.3778    1.1994 H   0  0  0  0  0  0  0  0  0  0  0  0
    1.6215    4.6768    1.2683 H   0  0  0  0  0  0  0  0  0  0  0  0
    2.1766    3.0186    1.0101 H   0  0  0  0  0  0  0  0  0  0  0  0
    2.3017    3.7543    3.4064 H   0  0  0  0  0  0  0  0  0  0  0  0
    0.5364    3.9395    3.4541 H   0  0  0  0  0  0  0  0  0  0  0  0
    1.2506    1.7970    4.4823 H   0  0  0  0  0  0  0  0  0  0  0  0
    0.2181    1.4965    3.0762 H   0  0  0  0  0  0  0  0  0  0  0  0
    3.3024    1.4164    2.9785 H   0  0  0  0  0  0  0  0  0  0  0  0
    2.2010    0.9571    1.6644 H   0  0  0  0  0  0  0  0  0  0  0  0
    3.1243   -1.0231    2.7809 H   0  0  0  0  0  0  0  0  0  0  0  0
    2.4962   -0.5115    4.3600 H   0  0  0  0  0  0  0  0  0  0  0  0
    0.1662   -0.8657    3.6376 H   0  0  0  0  0  0  0  0  0  0  0  0
    0.6545   -0.9820    1.9374 H   0  0  0  0  0  0  0  0  0  0  0  0
    1.8936   -3.1024    2.4014 H   0  0  0  0  0  0  0  0  0  0  0  0
    1.5349   -2.9833    4.1280 H   0  0  0  0  0  0  0  0  0  0  0  0
    0.0652   -4.6339    2.9522 H   0  0  0  0  0  0  0  0  0  0  0  0
   -0.8536   -3.3654    3.7862 H   0  0  0  0  0  0  0  0  0  0  0  0
   -1.8361   -3.8855    1.5614 H   0  0  0  0  0  0  0  0  0  0  0  0
   -1.3418   -2.1904    1.7005 H   0  0  0  0  0  0  0  0  0  0  0  0
    0.7923   -2.6978    0.4273 H   0  0  0  0  0  0  0  0  0  0  0  0
    0.2695   -4.3850    0.2366 H   0  0  0  0  0  0  0  0  0  0  0  0
   -0.1332   -2.9617   -1.7741 H   0  0  0  0  0  0  0  0  0  0  0  0
   -1.6450   -3.7113   -1.1466 H   0  0  0  0  0  0  0  0  0  0  0  0
  3 19  1  0  0  0  0
  4 18  1  0  0  0  0
  5  6  1  0  0  0  0
  5 11  2  0  0  0  0
  6  1  1  0  0  0  0
  7 32  1  0  0  0  0
  7  6  2  0  0  0  0
  8  7  1  0  0  0  0
  9  8  2  0  0  0  0
  9 10  1  0  0  0  0
 10  5  1  0  0  0  0
 11  3  1  0  0  0  0
 12 13  1  0  0  0  0
 12 17  1  0  0  0  0
 13  2  1  1  0  0  0
 13 14  1  0  0  0  0
 14 37  1  0  0  0  0
 14 15  2  0  0  0  0
 15 38  1  0  0  0  0
 16 15  1  0  0  0  0
 16 39  1  0  0  0  0
 17 16  2  0  0  0  0
 18 12  2  0  0  0  0
 19 20  1  0  0  0  0
 20 44  1  0  0  0  0
 20 45  1  0  0  0  0
 20 21  1  0  0  0  0
 21 22  1  0  0  0  0
 22 23  1  0  0  0  0
 22 48  1  0  0  0  0
 22 49  1  0  0  0  0
 23 50  1  0  0  0  0
 24 52  1  0  0  0  0
 24 25  1  0  0  0  0
 24 23  1  0  0  0  0
 25 55  1  0  0  0  0
 26 27  1  0  0  0  0
 26 25  1  0  0  0  0
 26 56  1  0  0  0  0
 27 59  1  0  0  0  0
 28 60  1  0  0  0  0
 28 27  1  0  0  0  0
 28 61  1  0  0  0  0
 29 63  1  0  0  0  0
 29 28  1  0  0  0  0
 30 64  1  0  0  0  0
 30 29  1  0  0  0  0
 31  4  1  0  0  0  0
 31 30  1  0  0  0  0
 33  8  1  0  0  0  0
 34  9  1  0  0  0  0
 35 10  1  0  0  0  0
 36 11  1  0  0  0  0
 40 17  1  0  0  0  0
 41 18  1  0  0  0  0
 42 19  1  0  0  0  0
 43 19  1  0  0  0  0
 46 21  1  0  0  0  0
 47 21  1  0  0  0  0
 51 23  1  0  0  0  0
 53 24  1  0  0  0  0
 54 25  1  0  0  0  0
 57 26  1  0  0  0  0
 58 27  1  0  0  0  0
 62 29  1  0  0  0  0
 65 30  1  0  0  0  0
 66 31  1  0  0  0  0
 67 31  1  0  0  0  0
M  CHG  1   1  -1
M  END
