1,2,32,33
 OpenBabel05122313063D

 62 63  0  0  0  0  0  0  0  0999 V2000
   -1.7129    1.0693   -0.5548 O   0  5  0  0  0  0  0  0  0  0  0  0
   -1.0543   -1.7517   -0.4051 N   0  0  0  0  0  2  0  0  0  0  0  0
   -0.4999   -2.9943    0.0207 N   0  0  0  0  0  0  0  0  0  0  0  0
   -2.3452   -1.8338   -0.6421 C   0  0  0  0  0  0  0  0  0  0  0  0
   -2.7681   -2.8490   -0.5353 H   0  0  0  0  0  0  0  0  0  0  0  0
    0.5320   -0.5535    3.6135 C   0  0  0  0  0  0  0  0  0  0  0  0
    1.2140   -0.3891    4.4768 H   0  0  0  0  0  0  0  0  0  0  0  0
    1.1666   -0.4640    2.7045 H   0  0  0  0  0  0  0  0  0  0  0  0
    0.2387   -3.6719   -1.0413 C   0  0  0  0  0  0  0  0  0  0  0  0
   -0.4282   -3.8097   -1.9158 H   0  0  0  0  0  0  0  0  0  0  0  0
    0.5202   -4.6772   -0.6690 H   0  0  0  0  0  0  0  0  0  0  0  0
    1.1532   -3.1309   -1.3661 H   0  0  0  0  0  0  0  0  0  0  0  0
   -3.9304    1.5812   -1.1048 C   0  0  0  0  0  0  0  0  0  0  0  0
   -3.6606    2.6432   -1.0136 H   0  0  0  0  0  0  0  0  0  0  0  0
   -5.2206    1.1910   -1.4426 C   0  0  0  0  0  0  0  0  0  0  0  0
   -5.9851    1.9622   -1.6264 H   0  0  0  0  0  0  0  0  0  0  0  0
   -0.7724   -2.4610    2.4390 C   0  0  0  0  0  0  0  0  0  0  0  0
   -1.4428   -3.3138    2.6761 H   0  0  0  0  0  0  0  0  0  0  0  0
   -1.4346   -1.6483    2.0750 H   0  0  0  0  0  0  0  0  0  0  0  0
   -2.9004    0.6191   -0.8707 C   0  0  0  0  0  0  0  0  0  0  0  0
   -5.5656   -0.1790   -1.5498 C   0  0  0  0  0  0  0  0  0  0  0  0
   -6.5897   -0.4784   -1.8140 H   0  0  0  0  0  0  0  0  0  0  0  0
   -4.5901   -1.1348   -1.3021 C   0  0  0  0  0  3  0  0  0  0  0  0
   -4.8380   -2.2069   -1.3586 H   0  0  0  0  0  0  0  0  0  0  0  0
    0.1836   -2.8721    1.3146 C   0  0  0  0  0  0  0  0  0  0  0  0
    0.6041   -3.8770    1.5293 H   0  0  0  0  0  0  0  0  0  0  0  0
    1.0467   -2.1717    1.2538 H   0  0  0  0  0  0  0  0  0  0  0  0
   -3.2514   -0.7745   -0.9684 C   0  0  0  0  0  0  0  0  0  0  0  0
   -0.0403   -1.9797    3.7017 C   0  0  0  0  0  0  0  0  0  0  0  0
    0.7814   -2.6907    3.9410 H   0  0  0  0  0  0  0  0  0  0  0  0
   -0.7377   -2.0279    4.5664 H   0  0  0  0  0  0  0  0  0  0  0  0
    1.7129   -1.0694   -0.5548 O   0  5  0  0  0  0  0  0  0  0  0  0
    1.0542    1.7516   -0.4054 N   0  0  0  0  0  2  0  0  0  0  0  0
    0.4998    2.9942    0.0202 N   0  0  0  0  0  0  0  0  0  0  0  0
    2.3451    1.8337   -0.6424 C   0  0  0  0  0  0  0  0  0  0  0  0
    2.7680    2.8489   -0.5358 H   0  0  0  0  0  0  0  0  0  0  0  0
   -0.5317    0.5542    3.6136 C   0  0  0  0  0  0  0  0  0  0  0  0
   -1.2135    0.3899    4.4771 H   0  0  0  0  0  0  0  0  0  0  0  0
   -1.1666    0.4646    2.7047 H   0  0  0  0  0  0  0  0  0  0  0  0
   -0.2389    3.6716   -1.0419 C   0  0  0  0  0  0  0  0  0  0  0  0
    0.4280    3.8093   -1.9165 H   0  0  0  0  0  0  0  0  0  0  0  0
   -0.5204    4.6770   -0.6697 H   0  0  0  0  0  0  0  0  0  0  0  0
   -1.1533    3.1305   -1.3665 H   0  0  0  0  0  0  0  0  0  0  0  0
    3.9303   -1.5814   -1.1047 C   0  0  0  0  0  0  0  0  0  0  0  0
    3.6606   -2.6433   -1.0134 H   0  0  0  0  0  0  0  0  0  0  0  0
    5.2206   -1.1912   -1.4426 C   0  0  0  0  0  0  0  0  0  0  0  0
    5.9851   -1.9624   -1.6263 H   0  0  0  0  0  0  0  0  0  0  0  0
    0.7726    2.4615    2.4386 C   0  0  0  0  0  0  0  0  0  0  0  0
    1.4429    3.3144    2.6755 H   0  0  0  0  0  0  0  0  0  0  0  0
    1.4348    1.6488    2.0746 H   0  0  0  0  0  0  0  0  0  0  0  0
    2.9004   -0.6193   -0.8708 C   0  0  0  0  0  0  0  0  0  0  0  0
    5.5655    0.1788   -1.5500 C   0  0  0  0  0  0  0  0  0  0  0  0
    6.5896    0.4782   -1.8141 H   0  0  0  0  0  0  0  0  0  0  0  0
    4.5900    1.1346   -1.3024 C   0  0  0  0  0  3  0  0  0  0  0  0
    4.8379    2.2067   -1.3589 H   0  0  0  0  0  0  0  0  0  0  0  0
   -0.1836    2.8723    1.3141 C   0  0  0  0  0  0  0  0  0  0  0  0
   -0.6042    3.8772    1.5286 H   0  0  0  0  0  0  0  0  0  0  0  0
   -1.0467    2.1717    1.2535 H   0  0  0  0  0  0  0  0  0  0  0  0
    3.2513    0.7744   -0.9686 C   0  0  0  0  0  0  0  0  0  0  0  0
    0.0406    1.9804    3.7015 C   0  0  0  0  0  0  0  0  0  0  0  0
   -0.7811    2.6915    3.9407 H   0  0  0  0  0  0  0  0  0  0  0  0
    0.7381    2.0287    4.5661 H   0  0  0  0  0  0  0  0  0  0  0  0
  2  3  1  0  0  0  0
  3 25  1  0  0  0  0
  4  5  1  0  0  0  0
  4  2  1  0  0  0  0
  6 37  1  0  0  0  0
  6 29  1  0  0  0  0
  6  7  1  0  0  0  0
  8  6  1  0  0  0  0
  9 11  1  0  0  0  0
  9  3  1  0  0  0  0
 10  9  1  0  0  0  0
 12  9  1  0  0  0  0
 13 14  1  0  0  0  0
 13 20  2  0  0  0  0
 15 13  1  0  0  0  0
 16 15  1  0  0  0  0
 17 18  1  0  0  0  0
 17 29  1  0  0  0  0
 19 17  1  0  0  0  0
 20  1  1  0  0  0  0
 21 15  2  0  0  0  0
 21 23  1  0  0  0  0
 22 21  1  0  0  0  0
 23 28  1  0  0  0  0
 24 23  1  0  0  0  0
 25 26  1  0  0  0  0
 25 17  1  0  0  0  0
 27 25  1  0  0  0  0
 28 20  1  0  0  0  0
 28  4  2  0  0  0  0
 29 30  1  0  0  0  0
 29 31  1  0  0  0  0
 33 34  1  0  0  0  0
 34 56  1  0  0  0  0
 35 36  1  0  0  0  0
 35 33  1  0  0  0  0
 37 60  1  0  0  0  0
 37 38  1  0  0  0  0
 39 37  1  0  0  0  0
 40 42  1  0  0  0  0
 40 34  1  0  0  0  0
 41 40  1  0  0  0  0
 43 40  1  0  0  0  0
 44 45  1  0  0  0  0
 44 51  2  0  0  0  0
 46 44  1  0  0  0  0
 47 46  1  0  0  0  0
 48 49  1  0  0  0  0
 48 60  1  0  0  0  0
 50 48  1  0  0  0  0
 51 32  1  0  0  0  0
 52 46  2  0  0  0  0
 52 54  1  0  0  0  0
 53 52  1  0  0  0  0
 54 59  1  0  0  0  0
 55 54  1  0  0  0  0
 56 57  1  0  0  0  0
 56 48  1  0  0  0  0
 58 56  1  0  0  0  0
 59 51  1  0  0  0  0
 59 35  2  0  0  0  0
 60 61  1  0  0  0  0
 60 62  1  0  0  0  0
M  CHG  2   1  -1  32  -1
M  END
