1,2,24,25
 OpenBabel05122313063D

 44 45  0  0  0  0  0  0  0  0999 V2000
    1.7749   -0.6507   -0.7279 O   0  5  0  0  0  0  0  0  0  0  0  0
   -0.6327    0.9665   -1.3038 N   0  0  0  0  0  0  0  0  0  0  0  0
    2.9312   -0.0661   -0.3873 C   0  0  0  0  0  0  0  0  0  0  0  0
    3.9907   -0.0849   -1.3226 C   0  0  0  0  0  0  0  0  0  0  0  0
    3.8233   -0.6065   -2.2759 H   0  0  0  0  0  0  0  0  0  0  0  0
    5.2119    0.5305   -1.0257 C   0  0  0  0  0  0  0  0  0  0  0  0
    6.0296    0.4979   -1.7618 H   0  0  0  0  0  0  0  0  0  0  0  0
    5.3915    1.1899    0.2016 C   0  0  0  0  0  0  0  0  0  0  0  0
    6.3466    1.6809    0.4383 H   0  0  0  0  0  0  0  0  0  0  0  0
    4.3349    1.2236    1.1226 C   0  0  0  0  0  0  0  0  0  0  0  0
    4.4632    1.7471    2.0839 H   0  0  0  0  0  0  0  0  0  0  0  0
    3.1026    0.5981    0.8571 C   0  0  0  0  0  0  0  0  0  0  0  0
   -1.9999    0.7265   -1.8542 C   0  0  0  0  0  0  0  0  0  0  0  0
   -1.9339   -0.2219   -2.4275 H   0  0  0  0  0  0  0  0  0  0  0  0
   -2.2470    1.5367   -2.5799 H   0  0  0  0  0  0  0  0  0  0  0  0
    0.2885    1.1466   -2.4434 C   0  0  0  0  0  0  0  0  0  0  0  0
    1.3128    1.3574   -2.0914 H   0  0  0  0  0  0  0  0  0  0  0  0
   -0.0566    1.9860   -3.0906 H   0  0  0  0  0  0  0  0  0  0  0  0
    0.3200    0.2152   -3.0383 H   0  0  0  0  0  0  0  0  0  0  0  0
   -0.6018    2.1390   -0.4009 C   0  0  0  0  0  0  0  0  0  0  0  0
   -0.5960    3.0869   -0.9883 H   0  0  0  0  0  0  0  0  0  0  0  0
   -1.5418    2.1389    0.1851 H   0  0  0  0  0  0  0  0  0  0  0  0
    2.0069    0.6147    1.8919 C   0  0  0  0  0  0  0  0  0  0  0  0
    0.6382    0.8881    1.3613 N   0  0  0  0  0  0  0  0  0  0  0  0
   -1.7758   -0.6827    0.6929 O   0  5  0  0  0  0  0  0  0  0  0  0
   -2.9319   -0.0823    0.3801 C   0  0  0  0  0  0  0  0  0  0  0  0
   -3.9952   -0.1549    1.3084 C   0  0  0  0  0  0  0  0  0  0  0  0
   -3.8303   -0.7281    2.2322 H   0  0  0  0  0  0  0  0  0  0  0  0
   -5.2166    0.4731    1.0408 C   0  0  0  0  0  0  0  0  0  0  0  0
   -6.0373    0.3981    1.7705 H   0  0  0  0  0  0  0  0  0  0  0  0
   -5.3928    1.1986   -0.1491 C   0  0  0  0  0  0  0  0  0  0  0  0
   -6.3482    1.6996   -0.3625 H   0  0  0  0  0  0  0  0  0  0  0  0
   -4.3325    1.2856   -1.0622 C   0  0  0  0  0  0  0  0  0  0  0  0
   -4.4581    1.8613   -1.9936 H   0  0  0  0  0  0  0  0  0  0  0  0
   -3.0996    0.6494   -0.8263 C   0  0  0  0  0  0  0  0  0  0  0  0
    0.6054    2.1122    0.5298 C   0  0  0  0  0  0  0  0  0  0  0  0
   -0.2794    1.0007    2.5124 C   0  0  0  0  0  0  0  0  0  0  0  0
   -1.3047    1.2321    2.1763 H   0  0  0  0  0  0  0  0  0  0  0  0
    0.0679    1.8003    3.2071 H   0  0  0  0  0  0  0  0  0  0  0  0
   -0.3095    0.0357    3.0512 H   0  0  0  0  0  0  0  0  0  0  0  0
    0.5982    3.0234    1.1725 H   0  0  0  0  0  0  0  0  0  0  0  0
    1.5454    2.1485   -0.0551 H   0  0  0  0  0  0  0  0  0  0  0  0
    1.9418   -0.3663    2.4076 H   0  0  0  0  0  0  0  0  0  0  0  0
    2.2573    1.3799    2.6638 H   0  0  0  0  0  0  0  0  0  0  0  0
  1  3  1  0  0  0  0
  2 20  1  0  0  0  0
  3 12  1  0  0  0  0
  4  6  1  0  0  0  0
  4  3  2  0  0  0  0
  5  4  1  0  0  0  0
  6  8  2  0  0  0  0
  7  6  1  0  0  0  0
  8  9  1  0  0  0  0
  8 10  1  0  0  0  0
 10 11  1  0  0  0  0
 12 10  2  0  0  0  0
 12 23  1  0  0  0  0
 13  2  1  0  0  0  0
 13 35  1  0  0  0  0
 14 13  1  0  0  0  0
 15 13  1  0  0  0  0
 16 17  1  0  0  0  0
 16  2  1  0  0  0  0
 18 16  1  0  0  0  0
 19 16  1  0  0  0  0
 20 22  1  0  0  0  0
 20 36  1  0  0  0  0
 21 20  1  0  0  0  0
 23 43  1  0  0  0  0
 23 44  1  0  0  0  0
 24 23  1  0  0  0  0
 24 37  1  0  0  0  0
 26 25  1  0  0  0  0
 26 27  1  0  0  0  0
 27 28  1  0  0  0  0
 29 27  2  0  0  0  0
 29 30  1  0  0  0  0
 31 29  1  0  0  0  0
 32 31  1  0  0  0  0
 33 35  1  0  0  0  0
 33 31  2  0  0  0  0
 34 33  1  0  0  0  0
 35 26  2  0  0  0  0
 36 41  1  0  0  0  0
 36 24  1  0  0  0  0
 37 40  1  0  0  0  0
 37 39  1  0  0  0  0
 38 37  1  0  0  0  0
 42 36  1  0  0  0  0
M  CHG  2   1  -1  25  -1
M  END
