1,17,30,49
 OpenBabel05122313063D

 49 51  0  0  1  0  0  0  0  0999 V2000
    2.0150   -1.6552   -0.1434 O   0  0  0  0  0  1  0  0  0  0  0  0
    3.2967   -1.4285   -0.0392 C   0  0  1  0  0  3  0  0  0  0  0  0
    4.1141   -2.5938    0.1259 C   0  0  0  0  0  0  0  0  0  0  0  0
    3.5810   -3.5552    0.1415 H   0  0  0  0  0  0  0  0  0  0  0  0
    5.4886   -2.5195    0.2757 C   0  0  0  0  0  0  0  0  0  0  0  0
    6.0740   -3.4424    0.4110 H   0  0  0  0  0  0  0  0  0  0  0  0
    6.1366   -1.2611    0.2642 C   0  0  0  0  0  0  0  0  0  0  0  0
    7.2245   -1.1873    0.4046 H   0  0  0  0  0  0  0  0  0  0  0  0
    5.3790   -0.1150    0.0725 C   0  0  0  0  0  0  0  0  0  0  0  0
    5.9017    0.8507    0.0791 H   0  0  0  0  0  0  0  0  0  0  0  0
    3.9576   -0.1326   -0.0977 C   0  0  0  0  0  0  0  0  0  0  0  0
    3.2724    1.1372   -0.3174 C   0  0  0  0  0  0  0  0  0  0  0  0
    4.0912    2.3684   -0.6518 C   0  0  0  0  0  0  0  0  0  0  0  0
    4.3296    2.9622    0.2566 H   0  0  0  0  0  0  0  0  0  0  0  0
    3.5534    3.0314   -1.3536 H   0  0  0  0  0  0  0  0  0  0  0  0
    5.0451    2.0950   -1.1317 H   0  0  0  0  0  0  0  0  0  0  0  0
    1.9553    1.2620   -0.2445 N   0  0  0  0  0  2  0  0  0  0  0  0
    1.2704    2.5450   -0.4567 C   0  0  0  0  0  0  0  0  0  0  0  0
    1.0893    2.6807   -1.5468 H   0  0  0  0  0  0  0  0  0  0  0  0
    1.8789    3.3989   -0.1020 H   0  0  0  0  0  0  0  0  0  0  0  0
   -0.0849    2.5743    0.2875 C   0  0  0  0  0  0  0  0  0  0  0  0
    0.1460    2.7411    1.8019 C   0  0  0  0  0  0  0  0  0  0  0  0
   -0.8191    2.6917    2.3434 H   0  0  0  0  0  0  0  0  0  0  0  0
    0.6201    3.7196    2.0186 H   0  0  0  0  0  0  0  0  0  0  0  0
    0.7976    1.9324    2.1866 H   0  0  0  0  0  0  0  0  0  0  0  0
   -0.9257    3.7331   -0.2641 C   0  0  0  0  0  0  0  0  0  0  0  0
   -0.3431    4.6741   -0.2134 H   0  0  0  0  0  0  0  0  0  0  0  0
   -1.8461    3.8955    0.3296 H   0  0  0  0  0  0  0  0  0  0  0  0
   -1.2106    3.5560   -1.3201 H   0  0  0  0  0  0  0  0  0  0  0  0
   -0.7048    1.2381    0.0541 N   0  0  0  0  0  2  0  0  0  0  0  0
   -2.0073    1.0548    0.0838 C   0  0  0  0  0  0  0  0  0  0  0  0
   -2.6187    1.9636    0.1905 H   0  0  0  0  0  0  0  0  0  0  0  0
   -2.7128   -0.1887    0.0172 C   0  0  0  0  0  0  0  0  0  0  0  0
   -4.1749   -0.1551   -0.0320 C   0  0  0  0  0  0  0  0  0  0  0  0
   -4.9350    1.0467   -0.1183 C   0  0  0  0  0  0  0  0  0  0  0  0
   -4.4307    2.0211   -0.1812 H   0  0  0  0  0  0  0  0  0  0  0  0
   -6.3275    1.0383   -0.1474 C   0  0  0  0  0  0  0  0  0  0  0  0
   -6.8706    1.9934   -0.2154 H   0  0  0  0  0  0  0  0  0  0  0  0
   -7.0448   -0.1780   -0.0998 C   0  0  0  0  0  0  0  0  0  0  0  0
   -8.1445   -0.1778   -0.1237 H   0  0  0  0  0  0  0  0  0  0  0  0
   -6.3370   -1.3721   -0.0332 C   0  0  0  0  0  3  0  0  0  0  0  0
   -6.8690   -2.3362   -0.0063 H   0  0  0  0  0  0  0  0  0  0  0  0
   -4.9175   -1.3875   -0.0026 C   0  0  0  0  0  0  0  0  0  0  0  0
   -4.2015   -2.6287    0.0472 C   0  0  0  0  0  0  0  0  0  0  0  0
   -4.7803   -3.5659    0.0695 H   0  0  0  0  0  0  0  0  0  0  0  0
   -2.8316   -2.6670    0.0573 C   0  0  0  0  0  0  0  0  0  0  0  0
   -2.2739   -3.6138    0.0859 H   0  0  0  0  0  0  0  0  0  0  0  0
   -2.0362   -1.4635    0.0352 C   0  0  0  0  0  0  0  0  0  0  0  0
   -0.7492   -1.6593    0.0511 O   0  5  0  0  0  0  0  0  0  0  0  0
  2  1  1  6  0  0  0
  2  3  1  0  0  0  0
  3  4  1  0  0  0  0
  3  5  2  0  0  0  0
  5  6  1  0  0  0  0
  7  5  1  0  0  0  0
  7  8  1  0  0  0  0
  9 10  1  0  0  0  0
  9  7  2  0  0  0  0
 11  2  1  0  0  0  0
 11  9  1  0  0  0  0
 12 17  1  0  0  0  0
 12 11  2  0  0  0  0
 13 12  1  0  0  0  0
 13 14  1  0  0  0  0
 15 13  1  0  0  0  0
 16 13  1  0  0  0  0
 18 17  1  0  0  0  0
 18 20  1  0  0  0  0
 18 21  1  0  0  0  0
 19 18  1  0  0  0  0
 21 22  1  0  0  0  0
 22 24  1  0  0  0  0
 22 25  1  0  0  0  0
 22 23  1  0  0  0  0
 26 27  1  0  0  0  0
 26 21  1  0  0  0  0
 26 28  1  0  0  0  0
 29 26  1  0  0  0  0
 30 31  1  0  0  0  0
 30 21  1  0  0  0  0
 31 32  1  0  0  0  0
 33 48  1  0  0  0  0
 33 31  2  0  0  0  0
 34 43  1  0  0  0  0
 34 33  1  0  0  0  0
 35 34  2  0  0  0  0
 36 35  1  0  0  0  0
 37 35  1  0  0  0  0
 37 39  2  0  0  0  0
 38 37  1  0  0  0  0
 39 41  1  0  0  0  0
 40 39  1  0  0  0  0
 41 42  1  0  0  0  0
 41 43  1  0  0  0  0
 43 44  2  0  0  0  0
 44 46  1  0  0  0  0
 44 45  1  0  0  0  0
 46 47  1  0  0  0  0
 48 49  1  0  0  0  0
 48 46  2  0  0  0  0
M  CHG  1  49  -1
M  END
