1,2,6,7
 OpenBabel05122313063D

 61 63  0  0  1  0  0  0  0  0999 V2000
   -0.2342   -1.0778   -0.0011 O   0  5  0  0  0  0  0  0  0  0  0  0
   -0.4192    1.3241    0.1927 O   0  0  0  0  0  1  0  0  0  0  0  0
    2.1095   -2.0267   -0.1769 O   0  0  0  0  0  0  0  0  0  0  0  0
    4.0037   -3.3036    0.0285 O   0  0  0  0  0  0  0  0  0  0  0  0
    5.9176    1.1599   -0.1481 O   0  0  0  0  0  0  0  0  0  0  0  0
   -2.9436   -1.3607   -0.0372 N   0  0  0  0  0  2  0  0  0  0  0  0
   -3.1610    1.1986   -0.0329 N   0  0  0  0  0  2  0  0  0  0  0  0
    5.5084   -1.0387    0.2958 N   0  0  0  0  0  0  0  0  0  0  0  0
    5.8581   -1.9969    0.3812 H   0  0  0  0  0  0  0  0  0  0  0  0
   -4.2643   -0.8977    0.1469 C   0  0  0  0  0  0  0  0  0  0  0  0
   -5.3992   -1.7079    0.3329 C   0  0  0  0  0  0  0  0  0  0  0  0
   -5.3132   -2.8029    0.3034 H   0  0  0  0  0  0  0  0  0  0  0  0
   -6.6423   -1.1245    0.6049 C   0  0  0  0  0  0  0  0  0  0  0  0
   -7.5229   -1.7638    0.7646 H   0  0  0  0  0  0  0  0  0  0  0  0
   -6.7462    0.2718    0.7210 C   0  0  0  0  0  0  0  0  0  0  0  0
   -7.7089    0.7333    0.9866 H   0  0  0  0  0  0  0  0  0  0  0  0
   -5.6262    1.0903    0.5271 C   0  0  0  0  0  0  0  0  0  0  0  0
   -5.7282    2.1693    0.6772 H   0  0  0  0  0  0  0  0  0  0  0  0
   -4.3721    0.5262    0.1947 C   0  0  0  0  0  0  0  0  0  0  0  0
   -0.1929   -2.3502   -0.1952 C   0  0  0  0  0  0  0  0  0  0  0  0
    1.1063   -2.9716   -0.2865 C   0  0  0  0  0  0  0  0  0  0  0  0
    1.2589   -4.3367   -0.4842 C   0  0  0  0  0  0  0  0  0  0  0  0
    2.2680   -4.7619   -0.5459 H   0  0  0  0  0  0  0  0  0  0  0  0
    0.1014   -5.1563   -0.5993 C   0  0  0  0  0  0  0  0  0  0  0  0
    0.2262   -6.2376   -0.7533 H   0  0  0  0  0  0  0  0  0  0  0  0
   -1.1672   -4.6028   -0.5220 C   0  0  0  0  0  3  0  0  0  0  0  0
   -2.0592   -5.2423   -0.6134 H   0  0  0  0  0  0  0  0  0  0  0  0
   -1.3496   -3.1996   -0.3212 C   0  0  0  0  0  0  0  0  0  0  0  0
   -2.6552   -2.6433   -0.2115 C   0  0  0  0  0  0  0  0  0  0  0  0
   -3.4960   -3.3573   -0.2715 H   0  0  0  0  0  0  0  0  0  0  0  0
   -0.5467    2.5651   -0.1081 C   0  0  2  0  0  3  0  0  0  0  0  0
   -1.7850    3.1492   -0.4583 C   0  0  0  0  0  0  0  0  0  0  0  0
   -1.7839    4.1874   -0.8115 H   0  0  0  0  0  0  0  0  0  0  0  0
   -3.0310    2.4915   -0.4154 C   0  0  0  0  0  0  0  0  0  0  0  0
   -4.2185    3.3076   -0.8835 C   0  0  0  0  0  0  0  0  0  0  0  0
   -4.9649    2.6855   -1.4125 H   0  0  0  0  0  0  0  0  0  0  0  0
   -3.8661    4.0997   -1.5694 H   0  0  0  0  0  0  0  0  0  0  0  0
   -4.7352    3.8138   -0.0420 H   0  0  0  0  0  0  0  0  0  0  0  0
    0.7301    3.3318   -0.1144 C   0  0  0  0  0  0  0  0  0  0  0  0
    0.7859    4.7411   -0.0540 C   0  0  0  0  0  0  0  0  0  0  0  0
   -0.1412    5.3280    0.0250 H   0  0  0  0  0  0  0  0  0  0  0  0
    2.0245    5.3972   -0.0607 C   0  0  0  0  0  0  0  0  0  0  0  0
    2.0590    6.4960   -0.0046 H   0  0  0  0  0  0  0  0  0  0  0  0
    3.2182    4.6582   -0.1286 C   0  0  0  0  0  0  0  0  0  0  0  0
    4.1877    5.1796   -0.1330 H   0  0  0  0  0  0  0  0  0  0  0  0
    3.1778    3.2536   -0.1885 C   0  0  0  0  0  0  0  0  0  0  0  0
    4.1095    2.6659   -0.2402 H   0  0  0  0  0  0  0  0  0  0  0  0
    1.9395    2.6002   -0.1793 C   0  0  0  0  0  0  0  0  0  0  0  0
    1.8719    1.5039   -0.2299 H   0  0  0  0  0  0  0  0  0  0  0  0
    3.4259   -2.2316    0.0290 C   0  0  0  0  0  0  0  0  0  0  0  0
    4.0706   -0.8770    0.3080 C   0  0  1  0  0  0  0  0  0  0  0  0
    3.7882   -0.1856   -0.5163 H   0  0  0  0  0  0  0  0  0  0  0  0
    3.5320   -0.2807    1.6238 C   0  0  0  0  0  0  0  0  0  0  0  0
    3.7868   -0.9370    2.4799 H   0  0  0  0  0  0  0  0  0  0  0  0
    2.4327   -0.1626    1.5697 H   0  0  0  0  0  0  0  0  0  0  0  0
    3.9925    0.7126    1.7815 H   0  0  0  0  0  0  0  0  0  0  0  0
    6.3405    0.0164    0.0417 C   0  0  0  0  0  0  0  0  0  0  0  0
    7.8256   -0.3101    0.0179 C   0  0  0  0  0  0  0  0  0  0  0  0
    8.0526   -1.3832    0.1673 H   0  0  0  0  0  0  0  0  0  0  0  0
    8.3318    0.2802    0.8071 H   0  0  0  0  0  0  0  0  0  0  0  0
    8.2462    0.0216   -0.9514 H   0  0  0  0  0  0  0  0  0  0  0  0
  3 50  1  0  0  0  0
  4 50  2  0  0  0  0
  5 57  2  0  0  0  0
  6 10  1  0  0  0  0
  7 19  1  0  0  0  0
  8 51  1  0  0  0  0
  8  9  1  0  0  0  0
 10 19  2  0  0  0  0
 10 11  1  0  0  0  0
 11 13  2  0  0  0  0
 12 11  1  0  0  0  0
 13 15  1  0  0  0  0
 13 14  1  0  0  0  0
 15 16  1  0  0  0  0
 17 18  1  0  0  0  0
 17 15  2  0  0  0  0
 19 17  1  0  0  0  0
 20  1  1  0  0  0  0
 21 20  2  0  0  0  0
 21  3  1  0  0  0  0
 22 21  1  0  0  0  0
 23 22  1  0  0  0  0
 24 26  1  0  0  0  0
 24 22  2  0  0  0  0
 25 24  1  0  0  0  0
 26 28  1  0  0  0  0
 27 26  1  0  0  0  0
 28 29  2  0  0  0  0
 28 20  1  0  0  0  0
 29  6  1  0  0  0  0
 30 29  1  0  0  0  0
 31  2  1  6  0  0  0
 32 34  2  0  0  0  0
 32 31  1  0  0  0  0
 33 32  1  0  0  0  0
 34  7  1  0  0  0  0
 35 34  1  0  0  0  0
 35 38  1  0  0  0  0
 36 35  1  0  0  0  0
 37 35  1  0  0  0  0
 39 31  1  0  0  0  0
 39 40  1  0  0  0  0
 40 41  1  0  0  0  0
 42 40  2  0  0  0  0
 42 43  1  0  0  0  0
 44 42  1  0  0  0  0
 45 44  1  0  0  0  0
 46 48  1  0  0  0  0
 46 44  2  0  0  0  0
 47 46  1  0  0  0  0
 48 39  2  0  0  0  0
 49 48  1  0  0  0  0
 50 51  1  0  0  0  0
 51 52  1  6  0  0  0
 51 53  1  0  0  0  0
 53 56  1  0  0  0  0
 53 54  1  0  0  0  0
 55 53  1  0  0  0  0
 57  8  1  0  0  0  0
 58 57  1  0  0  0  0
 58 59  1  0  0  0  0
 58 60  1  0  0  0  0
 61 58  1  0  0  0  0
M  CHG  1   1  -1
M  END
