1,2,3,4
 OpenBabel05122313063D

 37 38  0  0  0  0  0  0  0  0999 V2000
   -1.2796   -1.2327   -1.1154 O   0  5  0  0  0  0  0  0  0  0  0  0
    1.2786   -1.2327   -1.1167 O   0  5  0  0  0  0  0  0  0  0  0  0
   -1.4520    1.4387   -0.6648 N   0  0  0  0  0  2  0  0  0  0  0  0
    1.4516    1.4383   -0.6656 N   0  0  0  0  0  2  0  0  0  0  0  0
   -3.0669   -0.2226    0.1417 C   0  0  0  0  0  0  0  0  0  0  0  0
   -2.3821   -1.3552   -0.4237 C   0  0  0  0  0  0  0  0  0  0  0  0
   -2.9746   -2.6394   -0.2578 C   0  0  0  0  0  0  0  0  0  0  0  0
   -2.4526   -3.5001   -0.6996 H   0  0  0  0  0  0  0  0  0  0  0  0
   -4.1563   -2.7921    0.4641 C   0  0  0  0  0  0  0  0  0  0  0  0
   -4.5788   -3.8008    0.5953 H   0  0  0  0  0  0  0  0  0  0  0  0
   -4.8163   -1.6797    1.0384 C   0  0  0  0  0  0  0  0  0  0  0  0
   -5.7448   -1.8179    1.6105 H   0  0  0  0  0  0  0  0  0  0  0  0
   -4.2769   -0.4098    0.8603 C   0  0  0  0  0  0  0  0  0  0  0  0
   -4.7831    0.4742    1.2803 H   0  0  0  0  0  0  0  0  0  0  0  0
   -2.6075    1.1030   -0.1498 C   0  0  0  0  0  3  0  0  0  0  0  0
   -3.3281    1.9246    0.0420 H   0  0  0  0  0  0  0  0  0  0  0  0
   -1.2648    2.8311   -1.0538 C   0  0  0  0  0  0  0  0  0  0  0  0
   -1.2098    2.8741   -2.1654 H   0  0  0  0  0  0  0  0  0  0  0  0
   -2.1580    3.4192   -0.7499 H   0  0  0  0  0  0  0  0  0  0  0  0
    0.0002    3.4472   -0.4682 C   0  0  0  0  0  0  0  0  0  0  0  0
    0.0006    3.3491    0.6382 H   0  0  0  0  0  0  0  0  0  0  0  0
    0.0003    4.5308   -0.7069 H   0  0  0  0  0  0  0  0  0  0  0  0
    1.2647    2.8307   -1.0546 C   0  0  0  0  0  0  0  0  0  0  0  0
    1.2089    2.8736   -2.1662 H   0  0  0  0  0  0  0  0  0  0  0  0
    2.1582    3.4185   -0.7513 H   0  0  0  0  0  0  0  0  0  0  0  0
    2.6073    1.1023   -0.1509 C   0  0  0  0  0  3  0  0  0  0  0  0
    3.3282    1.9237    0.0406 H   0  0  0  0  0  0  0  0  0  0  0  0
    3.0663   -0.2234    0.1405 C   0  0  0  0  0  0  0  0  0  0  0  0
    2.3812   -1.3558   -0.4251 C   0  0  0  0  0  0  0  0  0  0  0  0
    2.9733   -2.6402   -0.2595 C   0  0  0  0  0  0  0  0  0  0  0  0
    2.4510   -3.5006   -0.7015 H   0  0  0  0  0  0  0  0  0  0  0  0
    4.1549   -2.7933    0.4624 C   0  0  0  0  0  0  0  0  0  0  0  0
    4.5771   -3.8022    0.5933 H   0  0  0  0  0  0  0  0  0  0  0  0
    4.8152   -1.6812    1.0369 C   0  0  0  0  0  0  0  0  0  0  0  0
    5.7436   -1.8199    1.6090 H   0  0  0  0  0  0  0  0  0  0  0  0
    4.2762   -0.4112    0.8591 C   0  0  0  0  0  0  0  0  0  0  0  0
    4.7827    0.4726    1.2792 H   0  0  0  0  0  0  0  0  0  0  0  0
  1  6  1  0  0  0  0
  2 29  1  0  0  0  0
  3 15  1  0  0  0  0
  4 26  1  0  0  0  0
  5 13  1  0  0  0  0
  6  7  1  0  0  0  0
  6  5  2  0  0  0  0
  7  9  2  0  0  0  0
  8  7  1  0  0  0  0
  9 10  1  0  0  0  0
  9 11  1  0  0  0  0
 11 12  1  0  0  0  0
 13 11  2  0  0  0  0
 13 14  1  0  0  0  0
 15 16  1  0  0  0  0
 15  5  1  0  0  0  0
 17 19  1  0  0  0  0
 17  3  1  0  0  0  0
 17 20  1  0  0  0  0
 18 17  1  0  0  0  0
 20 21  1  0  0  0  0
 22 20  1  0  0  0  0
 23 25  1  0  0  0  0
 23  4  1  0  0  0  0
 23 20  1  0  0  0  0
 24 23  1  0  0  0  0
 26 27  1  0  0  0  0
 26 28  1  0  0  0  0
 28 36  1  0  0  0  0
 29 30  1  0  0  0  0
 29 28  2  0  0  0  0
 30 32  2  0  0  0  0
 31 30  1  0  0  0  0
 32 33  1  0  0  0  0
 32 34  1  0  0  0  0
 34 35  1  0  0  0  0
 36 34  2  0  0  0  0
 36 37  1  0  0  0  0
M  CHG  2   1  -1   2  -1
M  END
