1,8,9,10
 OpenBabel05122313063D

 76 80  0  0  0  0  0  0  0  0999 V2000
   -1.6420    1.2766    1.2817 O   0  5  0  0  0  0  0  0  0  0  0  0
   -0.6104    3.4186    2.3812 O   0  0  0  0  0  0  0  0  0  0  0  0
    1.1358    2.4418    0.2287 O   0  0  0  0  0  0  0  0  0  0  0  0
    2.6205    0.2878   -1.1700 O   0  0  0  0  0  0  0  0  0  0  0  0
    5.0866   -0.1928   -0.6693 O   0  0  0  0  0  0  0  0  0  0  0  0
    5.2965   -0.8436    2.1074 O   0  0  0  0  0  0  0  0  0  0  0  0
    1.7616   -1.5750    2.6135 O   0  0  0  0  0  0  0  0  0  0  0  0
   -0.4273   -1.1557    1.3487 O   0  5  0  0  0  0  0  0  0  0  0  0
   -2.5511   -2.2180   -0.3664 N   0  0  0  0  0  2  0  0  0  0  0  0
   -3.7505    0.1359   -0.4049 N   0  0  0  0  0  2  0  0  0  0  0  0
   -3.7698   -2.1701   -1.0777 C   0  0  0  0  0  0  0  0  0  0  0  0
   -4.3656   -3.2624   -1.7418 C   0  0  0  0  0  0  0  0  0  0  0  0
   -3.8852   -4.2502   -1.7250 H   0  0  0  0  0  0  0  0  0  0  0  0
   -5.5784   -3.1017   -2.4190 C   0  0  0  0  0  0  0  0  0  0  0  0
   -6.0337   -3.9631   -2.9294 H   0  0  0  0  0  0  0  0  0  0  0  0
   -6.2169   -1.8478   -2.4413 C   0  0  0  0  0  0  0  0  0  0  0  0
   -7.1733   -1.7233   -2.9698 H   0  0  0  0  0  0  0  0  0  0  0  0
   -5.6424   -0.7544   -1.7854 C   0  0  0  0  0  0  0  0  0  0  0  0
   -6.1569    0.2159   -1.8056 H   0  0  0  0  0  0  0  0  0  0  0  0
   -4.4192   -0.8977   -1.0987 C   0  0  0  0  0  0  0  0  0  0  0  0
   -4.1686    1.3894   -0.3464 C   0  0  0  0  0  0  0  0  0  0  0  0
   -5.1059    1.6379   -0.8771 H   0  0  0  0  0  0  0  0  0  0  0  0
   -3.5393    2.4830    0.3179 C   0  0  0  0  0  0  0  0  0  0  0  0
   -4.1641    3.7688    0.1948 C   0  0  0  0  0  3  0  0  0  0  0  0
   -5.0997    3.8396   -0.3818 H   0  0  0  0  0  0  0  0  0  0  0  0
   -3.6161    4.8990    0.7721 C   0  0  0  0  0  0  0  0  0  0  0  0
   -4.1099    5.8756    0.6663 H   0  0  0  0  0  0  0  0  0  0  0  0
   -2.4047    4.7954    1.5085 C   0  0  0  0  0  0  0  0  0  0  0  0
   -1.9588    5.6898    1.9703 H   0  0  0  0  0  0  0  0  0  0  0  0
   -1.7629    3.5737    1.6671 C   0  0  0  0  0  0  0  0  0  0  0  0
   -2.3077    2.3626    1.0814 C   0  0  0  0  0  0  0  0  0  0  0  0
    0.5621    4.0779    1.9049 C   0  0  0  0  0  0  0  0  0  0  0  0
    1.3849    3.6967    2.5415 H   0  0  0  0  0  0  0  0  0  0  0  0
    0.4979    5.1834    2.0510 H   0  0  0  0  0  0  0  0  0  0  0  0
    0.8661    3.8083    0.4397 C   0  0  0  0  0  0  0  0  0  0  0  0
   -0.0088    4.1379   -0.1729 H   0  0  0  0  0  0  0  0  0  0  0  0
    1.7304    4.4515    0.1327 H   0  0  0  0  0  0  0  0  0  0  0  0
    0.8550    2.0314   -1.0898 C   0  0  0  0  0  0  0  0  0  0  0  0
    1.3898    2.6767   -1.8278 H   0  0  0  0  0  0  0  0  0  0  0  0
   -0.2404    2.1216   -1.3080 H   0  0  0  0  0  0  0  0  0  0  0  0
    1.2280    0.5692   -1.2780 C   0  0  0  0  0  0  0  0  0  0  0  0
    0.7553   -0.0195   -0.4674 H   0  0  0  0  0  0  0  0  0  0  0  0
    0.8259    0.2117   -2.2539 H   0  0  0  0  0  0  0  0  0  0  0  0
    3.4904    0.7341   -2.1143 C   0  0  0  0  0  0  0  0  0  0  0  0
    3.1560    1.3535   -3.3295 C   0  0  0  0  0  0  0  0  0  0  0  0
    2.1022    1.4967   -3.6031 H   0  0  0  0  0  0  0  0  0  0  0  0
    4.1656    1.8068   -4.2022 C   0  0  0  0  0  0  0  0  0  0  0  0
    3.8815    2.2979   -5.1447 H   0  0  0  0  0  0  0  0  0  0  0  0
    5.5130    1.6458   -3.8672 C   0  0  0  0  0  0  0  0  0  0  0  0
    6.3031    2.0173   -4.5362 H   0  0  0  0  0  0  0  0  0  0  0  0
    5.8658    0.9970   -2.6672 C   0  0  0  0  0  0  0  0  0  0  0  0
    6.9247    0.8539   -2.4102 H   0  0  0  0  0  0  0  0  0  0  0  0
    4.8697    0.5165   -1.8073 C   0  0  0  0  0  0  0  0  0  0  0  0
    6.3524   -0.2149   -0.0380 C   0  0  0  0  0  0  0  0  0  0  0  0
    6.6216    0.8069    0.3181 H   0  0  0  0  0  0  0  0  0  0  0  0
    7.1572   -0.5655   -0.7282 H   0  0  0  0  0  0  0  0  0  0  0  0
    6.2463   -1.1937    1.1294 C   0  0  0  0  0  0  0  0  0  0  0  0
    6.0318   -2.2097    0.7125 H   0  0  0  0  0  0  0  0  0  0  0  0
    7.2326   -1.2372    1.6384 H   0  0  0  0  0  0  0  0  0  0  0  0
    3.9352   -1.0208    1.7271 C   0  0  0  0  0  0  0  0  0  0  0  0
    3.8443   -1.7743    0.9134 H   0  0  0  0  0  0  0  0  0  0  0  0
    3.4909   -0.0847    1.3261 H   0  0  0  0  0  0  0  0  0  0  0  0
    3.1418   -1.4789    2.9482 C   0  0  0  0  0  0  0  0  0  0  0  0
    3.5483   -2.4316    3.3565 H   0  0  0  0  0  0  0  0  0  0  0  0
    3.2011   -0.7206    3.7532 H   0  0  0  0  0  0  0  0  0  0  0  0
    1.3223   -2.6107    1.8550 C   0  0  0  0  0  0  0  0  0  0  0  0
    1.9613   -3.8352    1.6918 C   0  0  0  0  0  0  0  0  0  0  0  0
    2.9314   -4.0141    2.1769 H   0  0  0  0  0  0  0  0  0  0  0  0
    1.3740   -4.8675    0.9084 C   0  0  0  0  0  0  0  0  0  0  0  0
    1.8991   -5.8279    0.8039 H   0  0  0  0  0  0  0  0  0  0  0  0
    0.1583   -4.6641    0.2883 C   0  0  0  0  0  3  0  0  0  0  0  0
   -0.3006   -5.4613   -0.3164 H   0  0  0  0  0  0  0  0  0  0  0  0
   -0.5316   -3.4083    0.4010 C   0  0  0  0  0  0  0  0  0  0  0  0
    0.0572   -2.3439    1.1898 C   0  0  0  0  0  0  0  0  0  0  0  0
   -1.7688   -3.2834   -0.2935 C   0  0  0  0  0  0  0  0  0  0  0  0
   -2.0952   -4.1894   -0.8360 H   0  0  0  0  0  0  0  0  0  0  0  0
  3 35  1  0  0  0  0
  5 54  1  0  0  0  0
  7 63  1  0  0  0  0
  9 75  1  0  0  0  0
 10 21  1  0  0  0  0
 11  9  1  0  0  0  0
 12 13  1  0  0  0  0
 12 11  2  0  0  0  0
 14 12  1  0  0  0  0
 15 14  1  0  0  0  0
 16 14  2  0  0  0  0
 16 18  1  0  0  0  0
 17 16  1  0  0  0  0
 18 20  2  0  0  0  0
 19 18  1  0  0  0  0
 20 11  1  0  0  0  0
 20 10  1  0  0  0  0
 21 23  2  0  0  0  0
 22 21  1  0  0  0  0
 23 31  1  0  0  0  0
 24 23  1  0  0  0  0
 24 26  1  0  0  0  0
 25 24  1  0  0  0  0
 26 28  2  0  0  0  0
 27 26  1  0  0  0  0
 28 30  1  0  0  0  0
 28 29  1  0  0  0  0
 30  2  1  0  0  0  0
 31  1  1  0  0  0  0
 31 30  2  0  0  0  0
 32 34  1  0  0  0  0
 32  2  1  0  0  0  0
 32 33  1  0  0  0  0
 35 32  1  0  0  0  0
 36 35  1  0  0  0  0
 37 35  1  0  0  0  0
 38  3  1  0  0  0  0
 39 38  1  0  0  0  0
 40 38  1  0  0  0  0
 41  4  1  0  0  0  0
 41 38  1  0  0  0  0
 41 42  1  0  0  0  0
 43 41  1  0  0  0  0
 44 53  1  0  0  0  0
 44  4  1  0  0  0  0
 45 44  2  0  0  0  0
 46 45  1  0  0  0  0
 47 49  2  0  0  0  0
 47 45  1  0  0  0  0
 48 47  1  0  0  0  0
 49 51  1  0  0  0  0
 50 49  1  0  0  0  0
 51 52  1  0  0  0  0
 51 53  2  0  0  0  0
 53  5  1  0  0  0  0
 54 55  1  0  0  0  0
 54 57  1  0  0  0  0
 56 54  1  0  0  0  0
 57 59  1  0  0  0  0
 57  6  1  0  0  0  0
 58 57  1  0  0  0  0
 60  6  1  0  0  0  0
 60 63  1  0  0  0  0
 61 60  1  0  0  0  0
 62 60  1  0  0  0  0
 63 64  1  0  0  0  0
 63 65  1  0  0  0  0
 66  7  1  0  0  0  0
 67 66  1  0  0  0  0
 67 68  1  0  0  0  0
 69 67  2  0  0  0  0
 70 69  1  0  0  0  0
 71 73  1  0  0  0  0
 71 69  1  0  0  0  0
 72 71  1  0  0  0  0
 73 74  1  0  0  0  0
 74  8  1  0  0  0  0
 74 66  2  0  0  0  0
 75 73  2  0  0  0  0
 76 75  1  0  0  0  0
M  CHG  2   1  -1   8  -1
M  END
