1,2,3,4
 OpenBabel05122313063D

 61 62  0  0  0  0  0  0  0  0999 V2000
   -1.3974    1.4398   -0.8716 O   0  5  0  0  0  0  0  0  0  0  0  0
    1.3975   -1.4398   -0.8719 O   0  5  0  0  0  0  0  0  0  0  0  0
   -1.6598   -1.1218   -0.8722 N   0  0  0  0  0  2  0  0  0  0  0  0
    1.6598    1.1218   -0.8724 N   0  0  0  0  0  2  0  0  0  0  0  0
   -2.6337    1.0187   -0.8348 C   0  0  0  0  0  0  0  0  0  0  0  0
   -4.0954   -1.1049   -0.8374 C   0  0  0  0  0  0  0  0  0  0  0  0
    5.8399   -0.7454   -0.7525 C   0  0  0  0  0  0  0  0  0  0  0  0
    2.6338   -1.0186   -0.8350 C   0  0  0  0  0  0  0  0  0  0  0  0
    4.0954    1.1050   -0.8375 C   0  0  0  0  0  0  0  0  0  0  0  0
   -5.8399    0.7456   -0.7529 C   0  0  0  0  0  0  0  0  0  0  0  0
    2.8220    0.4484   -0.8452 C   0  0  0  0  0  0  0  0  0  0  0  0
    3.6435   -2.0054   -0.7827 C   0  0  0  0  0  0  0  0  0  0  0  0
   -5.3881   -0.5906   -0.8021 C   0  0  0  0  0  0  0  0  0  0  0  0
    1.5855    2.5746   -0.8685 C   0  0  0  0  0  0  0  0  0  0  0  0
   -3.6434    2.0055   -0.7822 C   0  0  0  0  0  3  0  0  0  0  0  0
    0.9192    1.6006    2.3077 C   0  0  0  0  0  0  0  0  0  0  0  0
    5.3881    0.5909   -0.8019 C   0  0  0  0  0  0  0  0  0  0  0  0
   -1.5857   -2.5747   -0.8686 C   0  0  0  0  0  0  0  0  0  0  0  0
   -5.0419    1.8919   -0.7434 C   0  0  0  0  0  0  0  0  0  0  0  0
    5.0420   -1.8917   -0.7434 C   0  0  0  0  0  3  0  0  0  0  0  0
   -2.8220   -0.4484   -0.8451 C   0  0  0  0  0  0  0  0  0  0  0  0
   -1.7792   -3.2496    0.5046 C   0  0  0  0  0  0  0  0  0  0  0  0
    1.7792    3.2495    0.5047 C   0  0  0  0  0  0  0  0  0  0  0  0
    0.2103   -1.2819    3.2897 C   0  0  0  0  0  0  0  0  0  0  0  0
    0.7106    2.9220    1.5598 C   0  0  0  0  0  0  0  0  0  0  0  0
   -0.9193   -1.6008    2.3076 C   0  0  0  0  0  0  0  0  0  0  0  0
    0.0000   -0.0001    4.1103 C   0  0  0  0  0  0  0  0  0  0  0  0
   -0.7106   -2.9221    1.5596 C   0  0  0  0  0  0  0  0  0  0  0  0
   -0.2103    1.2817    3.2898 C   0  0  0  0  0  0  0  0  0  0  0  0
   -4.0419   -2.2022   -0.8614 H   0  0  0  0  0  0  0  0  0  0  0  0
    6.9299   -0.8958   -0.7182 H   0  0  0  0  0  0  0  0  0  0  0  0
    4.0417    2.2024   -0.8617 H   0  0  0  0  0  0  0  0  0  0  0  0
   -6.9299    0.8960   -0.7190 H   0  0  0  0  0  0  0  0  0  0  0  0
    3.2269   -3.0253   -0.7734 H   0  0  0  0  0  0  0  0  0  0  0  0
   -6.1831   -1.3553   -0.8081 H   0  0  0  0  0  0  0  0  0  0  0  0
    0.5804    2.8418   -1.2513 H   0  0  0  0  0  0  0  0  0  0  0  0
    2.3220    2.9908   -1.5935 H   0  0  0  0  0  0  0  0  0  0  0  0
   -3.2267    3.0253   -0.7725 H   0  0  0  0  0  0  0  0  0  0  0  0
    1.8925    1.6305    2.8491 H   0  0  0  0  0  0  0  0  0  0  0  0
    1.0055    0.7771    1.5682 H   0  0  0  0  0  0  0  0  0  0  0  0
    6.1830    1.3556   -0.8078 H   0  0  0  0  0  0  0  0  0  0  0  0
   -0.5806   -2.8419   -1.2515 H   0  0  0  0  0  0  0  0  0  0  0  0
   -2.3222   -2.9906   -1.5936 H   0  0  0  0  0  0  0  0  0  0  0  0
   -5.5810    2.8530   -0.7020 H   0  0  0  0  0  0  0  0  0  0  0  0
    5.5811   -2.8528   -0.7020 H   0  0  0  0  0  0  0  0  0  0  0  0
   -2.7886   -3.0131    0.9076 H   0  0  0  0  0  0  0  0  0  0  0  0
   -1.7783   -4.3435    0.3087 H   0  0  0  0  0  0  0  0  0  0  0  0
    2.7886    3.0130    0.9076 H   0  0  0  0  0  0  0  0  0  0  0  0
    1.7782    4.3434    0.3089 H   0  0  0  0  0  0  0  0  0  0  0  0
    1.1654   -1.2148    2.7225 H   0  0  0  0  0  0  0  0  0  0  0  0
    0.3429   -2.1371    3.9893 H   0  0  0  0  0  0  0  0  0  0  0  0
    0.6788    3.7481    2.3040 H   0  0  0  0  0  0  0  0  0  0  0  0
   -0.2888    2.9112    1.0711 H   0  0  0  0  0  0  0  0  0  0  0  0
   -1.8925   -1.6308    2.8491 H   0  0  0  0  0  0  0  0  0  0  0  0
   -1.0056   -0.7773    1.5682 H   0  0  0  0  0  0  0  0  0  0  0  0
   -0.8761   -0.1406    4.7816 H   0  0  0  0  0  0  0  0  0  0  0  0
    0.8762    0.1403    4.7815 H   0  0  0  0  0  0  0  0  0  0  0  0
   -0.6787   -3.7483    2.3038 H   0  0  0  0  0  0  0  0  0  0  0  0
    0.2887   -2.9112    1.0709 H   0  0  0  0  0  0  0  0  0  0  0  0
   -0.3428    2.1369    3.9895 H   0  0  0  0  0  0  0  0  0  0  0  0
   -1.1654    1.2146    2.7227 H   0  0  0  0  0  0  0  0  0  0  0  0
  1  5  1  0  0  0  0
  2  8  1  0  0  0  0
  3 18  1  0  0  0  0
  3 21  1  0  0  0  0
  4 14  1  0  0  0  0
  4 11  1  0  0  0  0
  5 15  1  0  0  0  0
  6 13  2  0  0  0  0
  7 20  1  0  0  0  0
  7 31  1  0  0  0  0
  8 12  2  0  0  0  0
  9 17  1  0  0  0  0
 10 19  2  0  0  0  0
 10 33  1  0  0  0  0
 11  9  2  0  0  0  0
 11  8  1  0  0  0  0
 12 34  1  0  0  0  0
 12 20  1  0  0  0  0
 13 10  1  0  0  0  0
 14 23  1  0  0  0  0
 15 38  1  0  0  0  0
 15 19  1  0  0  0  0
 16 39  1  0  0  0  0
 16 29  1  0  0  0  0
 17  7  2  0  0  0  0
 18 22  1  0  0  0  0
 19 44  1  0  0  0  0
 20 45  1  0  0  0  0
 21  6  1  0  0  0  0
 21  5  2  0  0  0  0
 22 46  1  0  0  0  0
 22 28  1  0  0  0  0
 23 48  1  0  0  0  0
 23 25  1  0  0  0  0
 24 51  1  0  0  0  0
 24 27  1  0  0  0  0
 25 52  1  0  0  0  0
 25 16  1  0  0  0  0
 26 54  1  0  0  0  0
 26 24  1  0  0  0  0
 27 57  1  0  0  0  0
 27 56  1  0  0  0  0
 28 58  1  0  0  0  0
 28 26  1  0  0  0  0
 29 60  1  0  0  0  0
 29 27  1  0  0  0  0
 30  6  1  0  0  0  0
 32  9  1  0  0  0  0
 35 13  1  0  0  0  0
 36 14  1  0  0  0  0
 37 14  1  0  0  0  0
 40 16  1  0  0  0  0
 41 17  1  0  0  0  0
 42 18  1  0  0  0  0
 43 18  1  0  0  0  0
 47 22  1  0  0  0  0
 49 23  1  0  0  0  0
 50 24  1  0  0  0  0
 53 25  1  0  0  0  0
 55 26  1  0  0  0  0
 59 28  1  0  0  0  0
 61 29  1  0  0  0  0
M  CHG  2   1  -1   2  -1
M  END
