1,14,31,44
 OpenBabel05122313063D

 44 46  0  0  1  0  0  0  0  0999 V2000
    1.7027   -1.1309    1.0321 O   0  5  0  0  0  0  0  0  0  0  0  0
    2.8761   -1.1407    0.4924 C   0  0  0  0  0  0  0  0  0  0  0  0
    3.7991   -2.1872    0.8363 C   0  0  0  0  0  0  0  0  0  0  0  0
    3.4391   -2.9479    1.5446 H   0  0  0  0  0  0  0  0  0  0  0  0
    5.0798   -2.2558    0.3079 C   0  0  0  0  0  0  0  0  0  0  0  0
    5.7573   -3.0739    0.5945 H   0  0  0  0  0  0  0  0  0  0  0  0
    5.5220   -1.2716   -0.6115 C   0  0  0  0  0  0  0  0  0  0  0  0
    7.2855   -1.3797   -1.3317 Br  0  0  0  0  0  0  0  0  0  0  0  0
    4.6739   -0.2389   -0.9820 C   0  0  0  0  0  0  0  0  0  0  0  0
    5.0166    0.5261   -1.6961 H   0  0  0  0  0  0  0  0  0  0  0  0
    3.3552   -0.1422   -0.4504 C   0  0  0  0  0  0  0  0  0  0  0  0
    2.5614    0.9724   -0.8938 C   0  0  0  0  0  3  0  0  0  0  0  0
    3.0734    1.6318   -1.6308 H   0  0  0  0  0  0  0  0  0  0  0  0
    1.3423    1.2622   -0.5283 N   0  0  0  0  0  2  0  0  0  0  0  0
    0.6614    2.4214   -1.1118 C   0  0  2  0  0  0  0  0  0  0  0  0
    0.3817    2.1730   -2.1650 H   0  0  0  0  0  0  0  0  0  0  0  0
    1.4803    3.7220   -1.1157 C   0  0  0  0  0  0  0  0  0  0  0  0
    1.7773    3.9486   -0.0675 H   0  0  0  0  0  0  0  0  0  0  0  0
    2.4206    3.5849   -1.6873 H   0  0  0  0  0  0  0  0  0  0  0  0
    0.6776    4.8874   -1.7060 C   0  0  0  0  0  0  0  0  0  0  0  0
    0.4839    4.6869   -2.7833 H   0  0  0  0  0  0  0  0  0  0  0  0
    1.2785    5.8193   -1.6664 H   0  0  0  0  0  0  0  0  0  0  0  0
   -0.6594    5.0801   -0.9815 C   0  0  0  0  0  0  0  0  0  0  0  0
   -1.2433    5.8968   -1.4535 H   0  0  0  0  0  0  0  0  0  0  0  0
   -0.4658    5.3997    0.0666 H   0  0  0  0  0  0  0  0  0  0  0  0
   -1.4805    3.7844   -0.9677 C   0  0  0  0  0  0  0  0  0  0  0  0
   -2.4255    3.9335   -0.4042 H   0  0  0  0  0  0  0  0  0  0  0  0
   -1.7693    3.5126   -2.0076 H   0  0  0  0  0  0  0  0  0  0  0  0
   -0.6767    2.6381   -0.3488 C   0  0  1  0  0  0  0  0  0  0  0  0
   -0.3840    2.9409    0.6875 H   0  0  0  0  0  0  0  0  0  0  0  0
   -1.3184    1.3442   -0.2268 N   0  0  0  0  0  2  0  0  0  0  0  0
   -2.5330    1.0924   -0.6202 C   0  0  0  0  0  3  0  0  0  0  0  0
   -3.1676    1.9153   -1.0186 H   0  0  0  0  0  0  0  0  0  0  0  0
   -3.1673   -0.2018   -0.5822 C   0  0  0  0  0  0  0  0  0  0  0  0
   -4.5409   -0.2498   -0.9579 C   0  0  0  0  0  0  0  0  0  0  0  0
   -5.0495    0.6889   -1.2285 H   0  0  0  0  0  0  0  0  0  0  0  0
   -5.2373   -1.4485   -0.9857 C   0  0  0  0  0  0  0  0  0  0  0  0
   -7.0809   -1.4844   -1.4782 Br  0  0  0  0  0  0  0  0  0  0  0  0
   -4.5762   -2.6577   -0.6539 C   0  0  0  0  0  0  0  0  0  0  0  0
   -5.1320   -3.6066   -0.6842 H   0  0  0  0  0  0  0  0  0  0  0  0
   -3.2362   -2.6411   -0.2974 C   0  0  0  0  0  0  0  0  0  0  0  0
   -2.7091   -3.5720   -0.0417 H   0  0  0  0  0  0  0  0  0  0  0  0
   -2.4626   -1.4296   -0.2309 C   0  0  0  0  0  0  0  0  0  0  0  0
   -1.2230   -1.5032    0.1189 O   0  5  0  0  0  0  0  0  0  0  0  0
  2  3  1  0  0  0  0
  2  1  1  0  0  0  0
  3  4  1  0  0  0  0
  5  6  1  0  0  0  0
  5  3  2  0  0  0  0
  7  5  1  0  0  0  0
  8  7  1  0  0  0  0
  9  7  2  0  0  0  0
  9 11  1  0  0  0  0
 10  9  1  0  0  0  0
 11  2  2  0  0  0  0
 12 14  1  0  0  0  0
 12 11  1  0  0  0  0
 13 12  1  0  0  0  0
 15 16  1  6  0  0  0
 15 14  1  0  0  0  0
 15 29  1  0  0  0  0
 17 15  1  0  0  0  0
 17 18  1  0  0  0  0
 19 17  1  0  0  0  0
 20 22  1  0  0  0  0
 20 17  1  0  0  0  0
 20 23  1  0  0  0  0
 21 20  1  0  0  0  0
 23 26  1  0  0  0  0
 23 25  1  0  0  0  0
 24 23  1  0  0  0  0
 26 27  1  0  0  0  0
 26 29  1  0  0  0  0
 28 26  1  0  0  0  0
 29 31  1  0  0  0  0
 29 30  1  1  0  0  0
 32 34  1  0  0  0  0
 32 31  1  0  0  0  0
 33 32  1  0  0  0  0
 34 43  1  0  0  0  0
 35 34  2  0  0  0  0
 36 35  1  0  0  0  0
 37 35  1  0  0  0  0
 37 39  2  0  0  0  0
 38 37  1  0  0  0  0
 39 41  1  0  0  0  0
 40 39  1  0  0  0  0
 41 43  2  0  0  0  0
 41 42  1  0  0  0  0
 43 44  1  0  0  0  0
M  CHG  2   1  -1  44  -1
M  END
