1,6,17,22
 OpenBabel05122313063D

 42 42  0  0  1  0  0  0  0  0999 V2000
    1.2484   -1.9222    0.0008 O   0  0  0  0  0  1  0  0  0  0  0  0
    2.5244   -1.8885    0.0005 C   0  0  1  0  0  3  0  0  0  0  0  0
    3.2688   -0.6543    0.0003 C   0  0  0  0  0  0  0  0  0  0  0  0
    2.5839    0.5824    0.0002 C   0  0  0  0  0  0  0  0  0  0  0  0
    3.2091    1.4890    0.0001 H   0  0  0  0  0  0  0  0  0  0  0  0
    1.2704    0.7828    0.0002 N   0  0  0  0  0  2  0  0  0  0  0  0
    0.7098    2.0790    0.0001 C   0  0  0  0  0  0  0  0  0  0  0  0
    1.4104    3.3013    0.0003 C   0  0  0  0  0  0  0  0  0  0  0  0
    2.5090    3.3212    0.0009 H   0  0  0  0  0  0  0  0  0  0  0  0
    0.7035    4.5096   -0.0002 C   0  0  0  0  0  0  0  0  0  0  0  0
    1.2555    5.4610    0.0000 H   0  0  0  0  0  0  0  0  0  0  0  0
   -0.7035    4.5096   -0.0010 C   0  0  0  0  0  0  0  0  0  0  0  0
   -1.2554    5.4610   -0.0015 H   0  0  0  0  0  0  0  0  0  0  0  0
   -1.4104    3.3013   -0.0011 C   0  0  0  0  0  0  0  0  0  0  0  0
   -2.5090    3.3212   -0.0019 H   0  0  0  0  0  0  0  0  0  0  0  0
   -0.7098    2.0790   -0.0005 C   0  0  0  0  0  0  0  0  0  0  0  0
   -1.2704    0.7828   -0.0004 N   0  0  0  0  0  2  0  0  0  0  0  0
   -2.5839    0.5824    0.0004 C   0  0  0  0  0  3  0  0  0  0  0  0
   -3.2091    1.4890    0.0013 H   0  0  0  0  0  0  0  0  0  0  0  0
   -3.2688   -0.6543    0.0001 C   0  0  0  0  0  0  0  0  0  0  0  0
   -2.5244   -1.8885   -0.0011 C   0  0  0  0  0  0  0  0  0  0  0  0
   -1.2484   -1.9223   -0.0012 O   0  5  0  0  0  0  0  0  0  0  0  0
    3.1805   -3.2417    0.0006 C   0  0  0  0  0  0  0  0  0  0  0  0
    2.3887   -4.0126    0.0006 H   0  0  0  0  0  0  0  0  0  0  0  0
    3.8467   -3.3556    0.8775 H   0  0  0  0  0  0  0  0  0  0  0  0
    3.8470   -3.3556   -0.8760 H   0  0  0  0  0  0  0  0  0  0  0  0
    4.7557   -0.6478    0.0002 C   0  0  0  0  0  0  0  0  0  0  0  0
    5.4255   -1.6823    0.0003 O   0  0  0  0  0  0  0  0  0  0  0  0
    5.4840    0.6982   -0.0000 C   0  0  0  0  0  0  0  0  0  0  0  0
    6.5682    0.4883   -0.0002 H   0  0  0  0  0  0  0  0  0  0  0  0
    5.2361    1.3047    0.8954 H   0  0  0  0  0  0  0  0  0  0  0  0
    5.2358    1.3047   -0.8953 H   0  0  0  0  0  0  0  0  0  0  0  0
   -4.7557   -0.6478    0.0011 C   0  0  0  0  0  0  0  0  0  0  0  0
   -5.4255   -1.6822    0.0008 O   0  0  0  0  0  0  0  0  0  0  0  0
   -5.4840    0.6982    0.0021 C   0  0  0  0  0  0  0  0  0  0  0  0
   -6.5682    0.4883    0.0025 H   0  0  0  0  0  0  0  0  0  0  0  0
   -5.2363    1.3052   -0.8929 H   0  0  0  0  0  0  0  0  0  0  0  0
   -5.2355    1.3041    0.8978 H   0  0  0  0  0  0  0  0  0  0  0  0
   -3.1805   -3.2417   -0.0022 C   0  0  0  0  0  0  0  0  0  0  0  0
   -2.3886   -4.0126   -0.0035 H   0  0  0  0  0  0  0  0  0  0  0  0
   -3.8475   -3.3546   -0.8786 H   0  0  0  0  0  0  0  0  0  0  0  0
   -3.8463   -3.3565    0.8749 H   0  0  0  0  0  0  0  0  0  0  0  0
  2 23  1  0  0  0  0
  2  1  1  1  0  0  0
  3  2  1  0  0  0  0
  4  3  2  0  0  0  0
  5  4  1  0  0  0  0
  6  4  1  0  0  0  0
  7  6  1  0  0  0  0
  7  8  1  0  0  0  0
  8  9  1  0  0  0  0
 10 11  1  0  0  0  0
 10  8  2  0  0  0  0
 12 10  1  0  0  0  0
 13 12  1  0  0  0  0
 14 12  2  0  0  0  0
 14 16  1  0  0  0  0
 15 14  1  0  0  0  0
 16 17  1  0  0  0  0
 16  7  2  0  0  0  0
 17 18  1  0  0  0  0
 18 19  1  0  0  0  0
 20 18  1  0  0  0  0
 20 33  1  0  0  0  0
 21 20  2  0  0  0  0
 22 21  1  0  0  0  0
 23 25  1  0  0  0  0
 24 23  1  0  0  0  0
 26 23  1  0  0  0  0
 27 28  2  0  0  0  0
 27  3  1  0  0  0  0
 29 27  1  0  0  0  0
 29 31  1  0  0  0  0
 30 29  1  0  0  0  0
 32 29  1  0  0  0  0
 33 35  1  0  0  0  0
 34 33  2  0  0  0  0
 35 36  1  0  0  0  0
 35 38  1  0  0  0  0
 37 35  1  0  0  0  0
 39 21  1  0  0  0  0
 39 42  1  0  0  0  0
 40 39  1  0  0  0  0
 41 39  1  0  0  0  0
M  CHG  1  22  -1
M  END
