1,5,18,21
 OpenBabel05122313063D

 33 34  0  0  1  0  0  0  0  0999 V2000
   -1.3823   -2.6556    0.0003 O   0  5  0  0  0  0  0  0  0  0  0  0
   -3.6433   -2.8161   -0.0010 O   0  0  0  0  0  0  0  0  0  0  0  0
   -0.0003    1.8346    0.0002 O   0  0  0  0  0  0  0  0  0  0  0  0
   -2.0530    3.4220    0.0004 O   0  0  0  0  0  0  0  0  0  0  0  0
   -1.3588   -0.1015   -0.0001 N   0  0  0  0  0  2  0  0  0  0  0  0
   -2.6104   -0.6554   -0.0003 C   0  0  2  0  0  3  0  0  0  0  0  0
   -3.7500    0.1362   -0.0003 C   0  0  0  0  0  0  0  0  0  0  0  0
   -4.7250   -0.3719   -0.0006 H   0  0  0  0  0  0  0  0  0  0  0  0
   -3.6220    1.5357   -0.0001 C   0  0  0  0  0  0  0  0  0  0  0  0
   -4.5149    2.1742   -0.0001 H   0  0  0  0  0  0  0  0  0  0  0  0
   -2.3385    2.1076    0.0002 C   0  0  0  0  0  0  0  0  0  0  0  0
   -1.2129    1.2270    0.0001 C   0  0  0  0  0  0  0  0  0  0  0  0
   -2.6103   -2.1615   -0.0004 C   0  0  0  0  0  0  0  0  0  0  0  0
   -3.1355    4.3431    0.0006 C   0  0  0  0  0  0  0  0  0  0  0  0
   -3.7691    4.2271   -0.9057 H   0  0  0  0  0  0  0  0  0  0  0  0
   -2.6816    5.3502    0.0009 H   0  0  0  0  0  0  0  0  0  0  0  0
   -3.7692    4.2267    0.9067 H   0  0  0  0  0  0  0  0  0  0  0  0
    1.3833   -2.6551   -0.0003 O   0  5  0  0  0  0  0  0  0  0  0  0
    3.6444   -2.8147    0.0009 O   0  0  0  0  0  0  0  0  0  0  0  0
    2.0517    3.4227   -0.0004 O   0  0  0  0  0  0  0  0  0  0  0  0
    1.3588   -0.1010    0.0002 N   0  0  0  0  0  2  0  0  0  0  0  0
    2.6106   -0.6544    0.0002 C   0  0  2  0  0  3  0  0  0  0  0  0
    3.7500    0.1376    0.0001 C   0  0  0  0  0  0  0  0  0  0  0  0
    4.7251   -0.3702    0.0002 H   0  0  0  0  0  0  0  0  0  0  0  0
    3.6214    1.5371   -0.0001 C   0  0  0  0  0  0  0  0  0  0  0  0
    4.5141    2.1759   -0.0002 H   0  0  0  0  0  0  0  0  0  0  0  0
    2.3377    2.1085   -0.0002 C   0  0  0  0  0  0  0  0  0  0  0  0
    1.2124    1.2274    0.0000 C   0  0  0  0  0  0  0  0  0  0  0  0
    2.6111   -2.1605    0.0003 C   0  0  0  0  0  0  0  0  0  0  0  0
    3.1339    4.3443   -0.0008 C   0  0  0  0  0  0  0  0  0  0  0  0
    3.7676    4.2286    0.9054 H   0  0  0  0  0  0  0  0  0  0  0  0
    2.6796    5.3512   -0.0011 H   0  0  0  0  0  0  0  0  0  0  0  0
    3.7675    4.2280   -0.9070 H   0  0  0  0  0  0  0  0  0  0  0  0
  2 13  2  0  0  0  0
  4 14  1  0  0  0  0
  5 12  1  0  0  0  0
  6 13  1  1  0  0  0
  6  5  1  0  0  0  0
  7  6  1  0  0  0  0
  7  9  2  0  0  0  0
  8  7  1  0  0  0  0
  9 10  1  0  0  0  0
  9 11  1  0  0  0  0
 11  4  1  0  0  0  0
 12 11  2  0  0  0  0
 12  3  1  0  0  0  0
 13  1  1  0  0  0  0
 14 16  1  0  0  0  0
 14 17  1  0  0  0  0
 15 14  1  0  0  0  0
 18 29  1  0  0  0  0
 20 27  1  0  0  0  0
 21 22  1  0  0  0  0
 22 29  1  6  0  0  0
 23 24  1  0  0  0  0
 23 22  1  0  0  0  0
 25 23  2  0  0  0  0
 26 25  1  0  0  0  0
 27 25  1  0  0  0  0
 27 28  2  0  0  0  0
 28  3  1  0  0  0  0
 28 21  1  0  0  0  0
 29 19  2  0  0  0  0
 30 20  1  0  0  0  0
 30 31  1  0  0  0  0
 32 30  1  0  0  0  0
 33 30  1  0  0  0  0
M  CHG  2   1  -1  18  -1
M  END
