3,4,7,8
 OpenBabel05122313063D

 52 56  0  0  0  0  0  0  0  0999 V2000
    4.6466   -0.0004    2.4429 O   0  0  0  0  0  0  0  0  0  0  0  0
    4.6466    0.0004   -2.4429 O   0  0  0  0  0  0  0  0  0  0  0  0
   -4.1800    1.6950   -0.0001 O   0  5  0  0  0  0  0  0  0  0  0  0
   -4.1800   -1.6950    0.0000 O   0  5  0  0  0  0  0  0  0  0  0  0
   -4.0056    3.9578   -0.0001 O   0  0  0  0  0  0  0  0  0  0  0  0
   -4.0056   -3.9578    0.0000 O   0  0  0  0  0  0  0  0  0  0  0  0
   -1.5924    1.3697   -0.0000 N   0  0  0  0  0  2  0  0  0  0  0  0
   -1.5924   -1.3697    0.0001 N   0  0  0  0  0  0  0  0  0  0  0  0
   -2.0116    2.6382   -0.0000 C   0  0  0  0  0  0  0  0  0  0  0  0
   -2.0116   -2.6381    0.0000 C   0  0  0  0  0  0  0  0  0  0  0  0
   -0.8584    3.4965    0.0001 C   0  0  0  0  0  0  0  0  0  0  0  0
   -0.8584   -3.4965   -0.0001 C   0  0  0  0  0  0  0  0  0  0  0  0
   -0.7284    4.8981    0.0001 C   0  0  0  0  0  3  0  0  0  0  0  0
   -1.6385    5.5155    0.0001 H   0  0  0  0  0  0  0  0  0  0  0  0
   -0.7285   -4.8981   -0.0001 C   0  0  0  0  0  3  0  0  0  0  0  0
   -1.6386   -5.5155   -0.0001 H   0  0  0  0  0  0  0  0  0  0  0  0
    0.5596    5.4439    0.0002 C   0  0  0  0  0  0  0  0  0  0  0  0
    0.6926    6.5372    0.0002 H   0  0  0  0  0  0  0  0  0  0  0  0
    0.5596   -5.4439   -0.0002 C   0  0  0  0  0  0  0  0  0  0  0  0
    0.6926   -6.5372   -0.0003 H   0  0  0  0  0  0  0  0  0  0  0  0
    1.6999    4.6037    0.0002 C   0  0  0  0  0  0  0  0  0  0  0  0
    2.7034    5.0582    0.0003 H   0  0  0  0  0  0  0  0  0  0  0  0
    1.6998   -4.6037   -0.0003 C   0  0  0  0  0  0  0  0  0  0  0  0
    2.7033   -5.0583   -0.0004 H   0  0  0  0  0  0  0  0  0  0  0  0
    1.5861    3.2061    0.0002 C   0  0  0  0  0  0  0  0  0  0  0  0
    2.4880    2.5790    0.0003 H   0  0  0  0  0  0  0  0  0  0  0  0
    1.5861   -3.2062   -0.0002 C   0  0  0  0  0  0  0  0  0  0  0  0
    2.4880   -2.5790   -0.0002 H   0  0  0  0  0  0  0  0  0  0  0  0
    0.2988    2.6286    0.0001 C   0  0  0  0  0  0  0  0  0  0  0  0
    0.2988   -2.6286   -0.0001 C   0  0  0  0  0  0  0  0  0  0  0  0
   -0.2093    1.2572    0.0000 C   0  0  0  0  0  0  0  0  0  0  0  0
   -0.2093   -1.2572    0.0000 C   0  0  0  0  0  0  0  0  0  0  0  0
    0.4451   -0.0000    0.0000 C   0  0  0  0  0  0  0  0  0  0  0  0
    1.9408   -0.0000    0.0000 C   0  0  0  0  0  0  0  0  0  0  0  0
    2.6384   -0.0002    1.2193 C   0  0  0  0  0  0  0  0  0  0  0  0
    2.1020   -0.0004    2.1772 H   0  0  0  0  0  0  0  0  0  0  0  0
    4.0446   -0.0002    1.2163 C   0  0  0  0  0  0  0  0  0  0  0  0
    4.7611    0.0000   -0.0000 C   0  0  0  0  0  0  0  0  0  0  0  0
    5.8564    0.0000   -0.0000 H   0  0  0  0  0  0  0  0  0  0  0  0
    4.0446    0.0002   -1.2163 C   0  0  0  0  0  0  0  0  0  0  0  0
    2.6384    0.0002   -1.2193 C   0  0  0  0  0  0  0  0  0  0  0  0
    2.1020    0.0004   -2.1772 H   0  0  0  0  0  0  0  0  0  0  0  0
    6.0546   -0.0006    2.5016 C   0  0  0  0  0  0  0  0  0  0  0  0
    6.4959    0.9033    2.0211 H   0  0  0  0  0  0  0  0  0  0  0  0
    6.4956   -0.9043    2.0206 H   0  0  0  0  0  0  0  0  0  0  0  0
    6.3258   -0.0009    3.5742 H   0  0  0  0  0  0  0  0  0  0  0  0
    6.0546    0.0006   -2.5016 C   0  0  0  0  0  0  0  0  0  0  0  0
    6.4958   -0.9033   -2.0211 H   0  0  0  0  0  0  0  0  0  0  0  0
    6.4956    0.9043   -2.0207 H   0  0  0  0  0  0  0  0  0  0  0  0
    6.3258    0.0008   -3.5743 H   0  0  0  0  0  0  0  0  0  0  0  0
   -3.5080    2.8274   -0.0000 C   0  0  0  0  0  0  0  0  0  0  0  0
   -3.5080   -2.8274    0.0000 C   0  0  0  0  0  0  0  0  0  0  0  0
  1 43  1  0  0  0  0
  2 40  1  0  0  0  0
  3 51  1  0  0  0  0
  5 51  2  0  0  0  0
  6 52  2  0  0  0  0
  7  9  1  0  0  0  0
  7 31  1  0  0  0  0
  9 11  2  0  0  0  0
 10  8  1  0  0  0  0
 11 13  1  0  0  0  0
 11 29  1  0  0  0  0
 12 10  2  0  0  0  0
 13 17  1  0  0  0  0
 14 13  1  0  0  0  0
 15 16  1  0  0  0  0
 15 12  1  0  0  0  0
 17 18  1  0  0  0  0
 17 21  2  0  0  0  0
 19 15  1  0  0  0  0
 20 19  1  0  0  0  0
 21 22  1  0  0  0  0
 23 19  2  0  0  0  0
 23 27  1  0  0  0  0
 24 23  1  0  0  0  0
 25 21  1  0  0  0  0
 25 26  1  0  0  0  0
 27 30  2  0  0  0  0
 28 27  1  0  0  0  0
 29 25  2  0  0  0  0
 30 12  1  0  0  0  0
 30 32  1  0  0  0  0
 31 29  1  0  0  0  0
 32 33  1  0  0  0  0
 32  8  2  0  0  0  0
 33 31  2  0  0  0  0
 34 33  1  0  0  0  0
 34 35  1  0  0  0  0
 35 36  1  0  0  0  0
 37 35  2  0  0  0  0
 37  1  1  0  0  0  0
 38 37  1  0  0  0  0
 39 38  1  0  0  0  0
 40 38  2  0  0  0  0
 41 40  1  0  0  0  0
 41 34  2  0  0  0  0
 42 41  1  0  0  0  0
 43 46  1  0  0  0  0
 44 43  1  0  0  0  0
 45 43  1  0  0  0  0
 47  2  1  0  0  0  0
 47 48  1  0  0  0  0
 47 49  1  0  0  0  0
 50 47  1  0  0  0  0
 51  9  1  0  0  0  0
 52 10  1  0  0  0  0
 52  4  1  0  0  0  0
M  CHG  2   3  -1   4  -1
M  END
