4,5,12,16
 OpenBabel05122313063D

 78 79  0  0  1  0  0  0  0  0999 V2000
    2.5844   -3.8008   -1.6642 F   0  0  0  0  0  0  0  0  0  0  0  0
   -0.0779   -4.1372    0.5772 F   0  0  0  0  0  0  0  0  0  0  0  0
    3.0300   -5.7601    0.2160 F   0  0  0  0  0  0  0  0  0  0  0  0
   -0.3955    2.2516    0.0873 N   0  0  0  0  0  2  0  0  0  0  0  0
    0.4964   -1.2471   -0.6937 O   0  5  0  0  0  0  0  0  0  0  0  0
    0.4281   -3.5066   -1.7928 F   0  0  0  0  0  0  0  0  0  0  0  0
   -4.8792    0.0676    0.9241 F   0  0  0  0  0  0  0  0  0  0  0  0
    1.2314   -6.3074    1.3187 F   0  0  0  0  0  0  0  0  0  0  0  0
    1.8901   -3.5825    1.3722 F   0  0  0  0  0  0  0  0  0  0  0  0
    5.2110   -0.9757   -0.4294 O   0  0  0  0  0  0  0  0  0  0  0  0
   -5.0882    2.2329   -0.5639 O   0  0  0  0  0  0  0  0  0  0  0  0
   -1.6825   -0.0972   -0.2410 O   0  0  0  0  0  1  0  0  0  0  0  0
    1.1836   -6.2214   -0.8639 F   0  0  0  0  0  0  0  0  0  0  0  0
   -4.6446   -0.3933   -1.2345 F   0  0  0  0  0  0  0  0  0  0  0  0
   -2.8473   -1.8480    1.4429 F   0  0  0  0  0  0  0  0  0  0  0  0
    1.8135    1.0648   -0.3204 N   0  0  0  0  0  2  0  0  0  0  0  0
   -4.1187    3.9075    0.6204 O   0  0  0  0  0  0  0  0  0  0  0  0
    0.5802    4.5879    0.1803 C   0  0  0  0  0  0  0  0  0  0  0  0
   -2.9986   -2.4303   -0.6920 F   0  0  0  0  0  0  0  0  0  0  0  0
    2.8667    0.2800   -0.3866 C   0  0  0  0  0  3  0  0  0  0  0  0
    3.8596    0.7602   -0.3679 H   0  0  0  0  0  0  0  0  0  0  0  0
    1.5063   -3.3278   -0.9902 C   0  0  0  0  0  0  0  0  0  0  0  0
   -2.7661    0.5644   -0.1058 C   0  0  2  0  0  3  0  0  0  0  0  0
   -5.4026   -2.3943    1.8721 F   0  0  0  0  0  0  0  0  0  0  0  0
    1.6379   -1.8125   -0.6758 C   0  0  0  0  0  0  0  0  0  0  0  0
    4.3256   -2.9933    0.1057 O   0  0  0  0  0  0  0  0  0  0  0  0
   -3.6378   -1.8413    0.3399 C   0  0  0  0  0  0  0  0  0  0  0  0
    3.7440    2.7852    1.4288 C   0  0  0  0  0  0  0  0  0  0  0  0
    3.1459    2.1377    2.0891 H   0  0  0  0  0  0  0  0  0  0  0  0
    1.2535   -4.1587    0.3227 C   0  0  0  0  0  0  0  0  0  0  0  0
   -2.8288    1.9682    0.0436 C   0  0  0  0  0  0  0  0  0  0  0  0
   -4.0601    2.8043    0.0953 C   0  0  0  0  0  0  0  0  0  0  0  0
    0.7301    6.8923    0.9690 C   0  0  0  0  0  0  0  0  0  0  0  0
    0.9377    7.6051    1.7811 H   0  0  0  0  0  0  0  0  0  0  0  0
   -4.0054   -0.3635   -0.0351 C   0  0  0  0  0  0  0  0  0  0  0  0
    3.2872    3.0713    0.1249 C   0  0  0  0  0  0  0  0  0  0  0  0
   -5.8383   -2.6063   -0.2587 F   0  0  0  0  0  0  0  0  0  0  0  0
    2.8665   -1.1448   -0.4619 C   0  0  0  0  0  0  0  0  0  0  0  0
    6.5185   -1.4878   -0.1122 C   0  0  0  0  0  0  0  0  0  0  0  0
    6.7832   -2.2785   -0.8467 H   0  0  0  0  0  0  0  0  0  0  0  0
    6.4824   -1.9800    0.8827 H   0  0  0  0  0  0  0  0  0  0  0  0
   -4.4968   -4.0146    0.7310 F   0  0  0  0  0  0  0  0  0  0  0  0
    7.4895   -0.3247   -0.1490 C   0  0  0  0  0  0  0  0  0  0  0  0
    8.5132   -0.6747    0.0902 H   0  0  0  0  0  0  0  0  0  0  0  0
    7.2055    0.4524    0.5891 H   0  0  0  0  0  0  0  0  0  0  0  0
    7.5103    0.1458   -1.1522 H   0  0  0  0  0  0  0  0  0  0  0  0
    1.6985   -5.6497    0.2410 C   0  0  0  0  0  0  0  0  0  0  0  0
    5.7462    4.1102    1.0417 C   0  0  0  0  0  0  0  0  0  0  0  0
    6.7059    4.5132    1.3989 H   0  0  0  0  0  0  0  0  0  0  0  0
   -1.6230    2.7096    0.2042 C   0  0  0  0  0  0  0  0  0  0  0  0
   -1.7642    3.7781    0.4547 H   0  0  0  0  0  0  0  0  0  0  0  0
    0.2008    5.0649   -1.0917 C   0  0  0  0  0  0  0  0  0  0  0  0
   -0.0220    4.3508   -1.9000 H   0  0  0  0  0  0  0  0  0  0  0  0
    4.1660   -1.8376   -0.2436 C   0  0  0  0  0  0  0  0  0  0  0  0
   -7.4086    1.9056   -0.9922 C   0  0  0  0  0  0  0  0  0  0  0  0
   -8.4201    2.3531   -0.9302 H   0  0  0  0  0  0  0  0  0  0  0  0
   -7.4008    0.9650   -0.4074 H   0  0  0  0  0  0  0  0  0  0  0  0
   -7.2029    1.6510   -2.0506 H   0  0  0  0  0  0  0  0  0  0  0  0
    4.9666    3.2978    1.8827 C   0  0  0  0  0  0  0  0  0  0  0  0
    5.3139    3.0626    2.9001 H   0  0  0  0  0  0  0  0  0  0  0  0
   -6.3738    2.8746   -0.4566 C   0  0  0  0  0  0  0  0  0  0  0  0
   -6.3480    3.8263   -1.0299 H   0  0  0  0  0  0  0  0  0  0  0  0
   -6.5531    3.1449    0.6052 H   0  0  0  0  0  0  0  0  0  0  0  0
    0.0836    6.4410   -1.3282 C   0  0  0  0  0  0  0  0  0  0  0  0
   -0.2207    6.8008   -2.3226 H   0  0  0  0  0  0  0  0  0  0  0  0
   -4.8839   -2.7294    0.6809 C   0  0  0  0  0  0  0  0  0  0  0  0
    4.0748    3.8849   -0.7087 C   0  0  0  0  0  0  0  0  0  0  0  0
    3.7214    4.1164   -1.7256 H   0  0  0  0  0  0  0  0  0  0  0  0
    0.8417    5.5135    1.2059 C   0  0  0  0  0  0  0  0  0  0  0  0
    1.1420    5.1471    2.1999 H   0  0  0  0  0  0  0  0  0  0  0  0
    0.7643    3.1057    0.4266 C   0  0  2  0  0  0  0  0  0  0  0  0
    0.9781    2.9494    1.5074 H   0  0  0  0  0  0  0  0  0  0  0  0
    1.9586    2.5359   -0.3655 C   0  0  2  0  0  0  0  0  0  0  0  0
    1.8246    2.8433   -1.4266 H   0  0  0  0  0  0  0  0  0  0  0  0
    5.2969    4.4045   -0.2540 C   0  0  0  0  0  0  0  0  0  0  0  0
    5.9013    5.0409   -0.9176 H   0  0  0  0  0  0  0  0  0  0  0  0
    0.3505    7.3584   -0.2981 C   0  0  0  0  0  0  0  0  0  0  0  0
    0.2570    8.4389   -0.4842 H   0  0  0  0  0  0  0  0  0  0  0  0
  1 22  1  0  0  0  0
  3 47  1  0  0  0  0
  4 50  1  0  0  0  0
  4 71  1  0  0  0  0
  5 25  1  0  0  0  0
  6 22  1  0  0  0  0
 10 54  1  0  0  0  0
 10 39  1  0  0  0  0
 11 61  1  0  0  0  0
 11 32  1  0  0  0  0
 13 47  1  0  0  0  0
 14 35  1  0  0  0  0
 18 71  1  0  0  0  0
 18 69  1  0  0  0  0
 19 27  1  0  0  0  0
 20 21  1  0  0  0  0
 20 16  1  0  0  0  0
 22 25  1  0  0  0  0
 22 30  1  0  0  0  0
 23 12  1  1  0  0  0
 23 35  1  0  0  0  0
 23 31  1  0  0  0  0
 25 38  2  0  0  0  0
 27 66  1  0  0  0  0
 27 15  1  0  0  0  0
 28 59  1  0  0  0  0
 28 29  1  0  0  0  0
 30  2  1  0  0  0  0
 30  9  1  0  0  0  0
 31 32  1  0  0  0  0
 31 50  2  0  0  0  0
 32 17  2  0  0  0  0
 33 69  2  0  0  0  0
 33 34  1  0  0  0  0
 35 27  1  0  0  0  0
 35  7  1  0  0  0  0
 36 28  2  0  0  0  0
 37 66  1  0  0  0  0
 38 20  1  0  0  0  0
 38 54  1  0  0  0  0
 39 41  1  0  0  0  0
 40 39  1  0  0  0  0
 43 39  1  0  0  0  0
 43 44  1  0  0  0  0
 43 45  1  0  0  0  0
 46 43  1  0  0  0  0
 47 30  1  0  0  0  0
 47  8  1  0  0  0  0
 48 49  1  0  0  0  0
 48 59  2  0  0  0  0
 50 51  1  0  0  0  0
 52 18  2  0  0  0  0
 53 52  1  0  0  0  0
 54 26  2  0  0  0  0
 55 56  1  0  0  0  0
 55 61  1  0  0  0  0
 55 57  1  0  0  0  0
 58 55  1  0  0  0  0
 59 60  1  0  0  0  0
 61 63  1  0  0  0  0
 62 61  1  0  0  0  0
 64 52  1  0  0  0  0
 64 77  2  0  0  0  0
 65 64  1  0  0  0  0
 66 42  1  0  0  0  0
 66 24  1  0  0  0  0
 67 75  2  0  0  0  0
 67 36  1  0  0  0  0
 68 67  1  0  0  0  0
 69 70  1  0  0  0  0
 71 72  1  1  0  0  0
 73 74  1  6  0  0  0
 73 16  1  0  0  0  0
 73 36  1  0  0  0  0
 73 71  1  0  0  0  0
 75 48  1  0  0  0  0
 76 75  1  0  0  0  0
 77 33  1  0  0  0  0
 78 77  1  0  0  0  0
M  CHG  1   5  -1
M  END
