1,2,5,6
 OpenBabel05122313063D

 72 73  0  0  1  0  0  0  0  0999 V2000
    1.7344   -0.8296    1.2887 O   0  5  0  0  0  0  0  0  0  0  0  0
   -1.4994   -0.8640   -1.1144 O   0  0  0  0  0  1  0  0  0  0  0  0
    7.1392   -1.0672    0.1084 O   0  0  0  0  0  0  0  0  0  0  0  0
   -6.8208   -1.6184    0.2752 O   0  0  0  0  0  0  0  0  0  0  0  0
    1.2458   -0.6759   -1.5966 N   0  0  0  0  0  2  0  0  0  0  0  0
   -1.0173   -0.7944    1.7763 N   0  0  0  0  0  2  0  0  0  0  0  0
    3.4405   -0.8453   -0.4580 C   0  0  0  0  0  0  0  0  0  0  0  0
    2.9868   -0.8817    0.9034 C   0  0  0  0  0  0  0  0  0  0  0  0
    3.9810   -0.9736    1.9271 C   0  0  0  0  0  0  0  0  0  0  0  0
    5.3313   -1.0334    1.6283 C   0  0  0  0  0  0  0  0  0  0  0  0
    5.7840   -1.0015    0.2803 C   0  0  0  0  0  0  0  0  0  0  0  0
    4.8432   -0.9061   -0.7405 C   0  0  0  0  0  3  0  0  0  0  0  0
    2.5582   -0.7190   -1.5808 C   0  0  0  0  0  0  0  0  0  0  0  0
    0.5992   -0.4359   -2.8955 C   0  0  0  0  0  0  0  0  0  0  0  0
    0.0071    0.9749   -3.0122 C   0  0  0  0  0  0  0  0  0  0  0  0
    1.0019    2.1136   -2.7834 C   0  0  0  0  0  0  0  0  0  0  0  0
    0.3773    3.5111   -2.9257 C   0  0  0  0  0  0  0  0  0  0  0  0
   -0.7580    3.8342   -1.9411 C   0  0  0  0  0  0  0  0  0  0  0  0
   -0.3432    3.8728   -0.4664 C   0  0  0  0  0  0  0  0  0  0  0  0
   -1.5099    4.1920    0.4766 C   0  0  0  0  0  0  0  0  0  0  0  0
   -1.1074    4.4890    1.9312 C   0  0  0  0  0  0  0  0  0  0  0  0
   -0.2347    3.4210    2.6056 C   0  0  0  0  0  0  0  0  0  0  0  0
   -0.8595    2.0243    2.6586 C   0  0  0  0  0  0  0  0  0  0  0  0
    0.1243    0.9596    3.1443 C   0  0  0  0  0  0  0  0  0  0  0  0
   -0.3965   -0.4851    3.0742 C   0  0  0  0  0  0  0  0  0  0  0  0
   -3.1917   -1.1090    0.6323 C   0  0  0  0  0  0  0  0  0  0  0  0
   -2.7432   -1.0442   -0.7336 C   0  0  1  0  0  3  0  0  0  0  0  0
   -3.7316   -1.1719   -1.7506 C   0  0  0  0  0  0  0  0  0  0  0  0
   -5.0792   -1.3638   -1.4559 C   0  0  0  0  0  0  0  0  0  0  0  0
   -5.5194   -1.4333   -0.1081 C   0  0  0  0  0  0  0  0  0  0  0  0
   -4.5740   -1.3008    0.9081 C   0  0  0  0  0  0  0  0  0  0  0  0
   -2.3205   -0.9395    1.7615 C   0  0  0  0  0  0  0  0  0  0  0  0
    7.6327   -1.0388   -1.2125 C   0  0  0  0  0  0  0  0  0  0  0  0
   -7.7985   -1.7505   -0.7332 C   0  0  0  0  0  0  0  0  0  0  0  0
    3.6306   -0.9990    2.9690 H   0  0  0  0  0  0  0  0  0  0  0  0
    6.0868   -1.1068    2.4248 H   0  0  0  0  0  0  0  0  0  0  0  0
    5.1532   -0.8731   -1.7944 H   0  0  0  0  0  0  0  0  0  0  0  0
    3.0583   -0.6381   -2.5659 H   0  0  0  0  0  0  0  0  0  0  0  0
   -0.2134   -1.1766   -3.0167 H   0  0  0  0  0  0  0  0  0  0  0  0
    1.3546   -0.6038   -3.6939 H   0  0  0  0  0  0  0  0  0  0  0  0
   -0.4417    1.0621   -4.0268 H   0  0  0  0  0  0  0  0  0  0  0  0
   -0.8336    1.0451   -2.2948 H   0  0  0  0  0  0  0  0  0  0  0  0
    1.8484    2.0221   -3.5006 H   0  0  0  0  0  0  0  0  0  0  0  0
    1.4525    2.0063   -1.7731 H   0  0  0  0  0  0  0  0  0  0  0  0
    1.1783    4.2746   -2.8124 H   0  0  0  0  0  0  0  0  0  0  0  0
   -0.0071    3.6276   -3.9634 H   0  0  0  0  0  0  0  0  0  0  0  0
   -1.1935    4.8203   -2.2156 H   0  0  0  0  0  0  0  0  0  0  0  0
   -1.5876    3.1034   -2.0658 H   0  0  0  0  0  0  0  0  0  0  0  0
    0.4639    4.6298   -0.3334 H   0  0  0  0  0  0  0  0  0  0  0  0
    0.1058    2.8963   -0.1800 H   0  0  0  0  0  0  0  0  0  0  0  0
   -2.0662    5.0709    0.0820 H   0  0  0  0  0  0  0  0  0  0  0  0
   -2.2358    3.3492    0.4447 H   0  0  0  0  0  0  0  0  0  0  0  0
   -2.0304    4.6456    2.5324 H   0  0  0  0  0  0  0  0  0  0  0  0
   -0.5604    5.4573    1.9602 H   0  0  0  0  0  0  0  0  0  0  0  0
    0.7372    3.3491    2.0688 H   0  0  0  0  0  0  0  0  0  0  0  0
    0.0224    3.7556    3.6347 H   0  0  0  0  0  0  0  0  0  0  0  0
   -1.1980    1.7423    1.6391 H   0  0  0  0  0  0  0  0  0  0  0  0
   -1.7764    2.0375    3.2915 H   0  0  0  0  0  0  0  0  0  0  0  0
    1.0483    1.0178    2.5350 H   0  0  0  0  0  0  0  0  0  0  0  0
    0.4283    1.1562    4.1960 H   0  0  0  0  0  0  0  0  0  0  0  0
    0.4493   -1.1813    3.2302 H   0  0  0  0  0  0  0  0  0  0  0  0
   -1.1542   -0.6638    3.8673 H   0  0  0  0  0  0  0  0  0  0  0  0
   -3.3903   -1.1178   -2.7945 H   0  0  0  0  0  0  0  0  0  0  0  0
   -5.7943   -1.4594   -2.2848 H   0  0  0  0  0  0  0  0  0  0  0  0
   -4.9208   -1.3452    1.9515 H   0  0  0  0  0  0  0  0  0  0  0  0
   -2.8275   -0.9096    2.7457 H   0  0  0  0  0  0  0  0  0  0  0  0
    7.2586   -1.8979   -1.8164 H   0  0  0  0  0  0  0  0  0  0  0  0
    8.7347   -1.1035   -1.1424 H   0  0  0  0  0  0  0  0  0  0  0  0
    7.3599   -0.0954   -1.7402 H   0  0  0  0  0  0  0  0  0  0  0  0
   -7.8651   -0.8436   -1.3779 H   0  0  0  0  0  0  0  0  0  0  0  0
   -8.7670   -1.8898   -0.2170 H   0  0  0  0  0  0  0  0  0  0  0  0
   -7.6130   -2.6335   -1.3876 H   0  0  0  0  0  0  0  0  0  0  0  0
  3 11  1  0  0  0  0
  5 13  1  0  0  0  0
  6 25  1  0  0  0  0
  7  8  1  0  0  0  0
  8  1  1  0  0  0  0
  8  9  2  0  0  0  0
  9 35  1  0  0  0  0
 10  9  1  0  0  0  0
 10 36  1  0  0  0  0
 11 10  2  0  0  0  0
 12  7  1  0  0  0  0
 12 11  1  0  0  0  0
 13  7  2  0  0  0  0
 14  5  1  0  0  0  0
 15 14  1  0  0  0  0
 15 16  1  0  0  0  0
 15 42  1  0  0  0  0
 16 44  1  0  0  0  0
 17 45  1  0  0  0  0
 17 16  1  0  0  0  0
 17 18  1  0  0  0  0
 18 19  1  0  0  0  0
 19 49  1  0  0  0  0
 19 50  1  0  0  0  0
 19 20  1  0  0  0  0
 20 21  1  0  0  0  0
 21 54  1  0  0  0  0
 21 53  1  0  0  0  0
 21 22  1  0  0  0  0
 22 23  1  0  0  0  0
 22 56  1  0  0  0  0
 23 24  1  0  0  0  0
 23 58  1  0  0  0  0
 24 60  1  0  0  0  0
 25 24  1  0  0  0  0
 25 61  1  0  0  0  0
 25 62  1  0  0  0  0
 26 31  1  0  0  0  0
 26 32  2  0  0  0  0
 27  2  1  1  0  0  0
 27 26  1  0  0  0  0
 28 29  2  0  0  0  0
 28 27  1  0  0  0  0
 29 30  1  0  0  0  0
 30  4  1  0  0  0  0
 30 31  2  0  0  0  0
 31 65  1  0  0  0  0
 32  6  1  0  0  0  0
 32 66  1  0  0  0  0
 33 68  1  0  0  0  0
 33  3  1  0  0  0  0
 34 71  1  0  0  0  0
 34  4  1  0  0  0  0
 37 12  1  0  0  0  0
 38 13  1  0  0  0  0
 39 14  1  0  0  0  0
 40 14  1  0  0  0  0
 41 15  1  0  0  0  0
 43 16  1  0  0  0  0
 46 17  1  0  0  0  0
 47 18  1  0  0  0  0
 48 18  1  0  0  0  0
 51 20  1  0  0  0  0
 52 20  1  0  0  0  0
 55 22  1  0  0  0  0
 57 23  1  0  0  0  0
 59 24  1  0  0  0  0
 63 28  1  0  0  0  0
 64 29  1  0  0  0  0
 67 33  1  0  0  0  0
 69 33  1  0  0  0  0
 70 34  1  0  0  0  0
 72 34  1  0  0  0  0
M  CHG  1   1  -1
M  END
