1,2,5,6
 OpenBabel05122313063D

 72 73  0  0  1  0  0  0  0  0999 V2000
    1.9586   -0.5579   -0.8655 O   0  0  0  0  0  1  0  0  0  0  0  0
   -1.7736   -0.9763    0.6178 O   0  5  0  0  0  0  0  0  0  0  0  0
    6.6067   -0.7773   -1.2547 O   0  0  0  0  0  0  0  0  0  0  0  0
   -6.3923   -1.6472    0.7989 O   0  0  0  0  0  0  0  0  0  0  0  0
   -0.5948   -0.3967   -1.9947 N   0  0  0  0  0  2  0  0  0  0  0  0
    0.7947   -1.1003    1.7626 N   0  0  0  0  0  2  0  0  0  0  0  0
    3.1913   -1.1571    1.1502 C   0  0  0  0  0  0  0  0  0  0  0  0
    3.0869   -0.7942   -0.2446 C   0  0  2  0  0  3  0  0  0  0  0  0
    4.2839   -0.6775   -0.9967 C   0  0  0  0  0  0  0  0  0  0  0  0
    5.5383   -0.9174   -0.4258 C   0  0  0  0  0  0  0  0  0  0  0  0
    5.6482   -1.2843    0.9454 C   0  0  0  0  0  0  0  0  0  0  0  0
    4.4841   -1.3917    1.6940 C   0  0  0  0  0  0  0  0  0  0  0  0
    2.0701   -1.2538    2.0334 C   0  0  0  0  0  0  0  0  0  0  0  0
    7.9047   -1.0120   -0.7412 C   0  0  0  0  0  0  0  0  0  0  0  0
   -0.1230   -1.1192    2.9154 C   0  0  0  0  0  0  0  0  0  0  0  0
   -0.2160    0.2475    3.6095 C   0  0  0  0  0  0  0  0  0  0  0  0
   -0.6781    1.4002    2.7145 C   0  0  0  0  0  0  0  0  0  0  0  0
   -0.7638    2.7329    3.4602 C   0  0  0  0  0  0  0  0  0  0  0  0
   -1.1914    3.9378    2.6098 C   0  0  0  0  0  0  0  0  0  0  0  0
   -0.2308    4.3162    1.4617 C   0  0  0  0  0  0  0  0  0  0  0  0
   -0.6106    3.7800    0.0749 C   0  0  0  0  0  0  0  0  0  0  0  0
    0.3733    4.2117   -1.0196 C   0  0  0  0  0  0  0  0  0  0  0  0
   -0.1208    3.9885   -2.4576 C   0  0  0  0  0  0  0  0  0  0  0  0
   -0.4791    2.5392   -2.8142 C   0  0  0  0  0  0  0  0  0  0  0  0
    0.7059    1.5731   -2.7715 C   0  0  0  0  0  0  0  0  0  0  0  0
    0.3286    0.1068   -3.0211 C   0  0  0  0  0  0  0  0  0  0  0  0
   -2.9769   -0.8396   -1.4971 C   0  0  0  0  0  0  0  0  0  0  0  0
   -2.8877   -1.0356   -0.0686 C   0  0  0  0  0  0  0  0  0  0  0  0
   -4.0842   -1.2998    0.6458 C   0  0  0  0  0  0  0  0  0  0  0  0
   -5.3233   -1.3836    0.0016 C   0  0  0  0  0  0  0  0  0  0  0  0
   -5.4178   -1.1976   -1.4065 C   0  0  0  0  0  0  0  0  0  0  0  0
   -4.2543   -0.9292   -2.1148 C   0  0  0  0  0  3  0  0  0  0  0  0
   -1.8591   -0.5103   -2.3280 C   0  0  0  0  0  0  0  0  0  0  0  0
   -7.6746   -1.7521    0.2090 C   0  0  0  0  0  0  0  0  0  0  0  0
    4.2186   -0.3971   -2.0564 H   0  0  0  0  0  0  0  0  0  0  0  0
    6.6218   -1.4753    1.4127 H   0  0  0  0  0  0  0  0  0  0  0  0
    4.5551   -1.6657    2.7590 H   0  0  0  0  0  0  0  0  0  0  0  0
    2.3222   -1.4737    3.0906 H   0  0  0  0  0  0  0  0  0  0  0  0
    8.0250   -2.0555   -0.3736 H   0  0  0  0  0  0  0  0  0  0  0  0
    8.1590   -0.3110    0.0850 H   0  0  0  0  0  0  0  0  0  0  0  0
    8.6060   -0.8452   -1.5799 H   0  0  0  0  0  0  0  0  0  0  0  0
   -1.1169   -1.4271    2.5458 H   0  0  0  0  0  0  0  0  0  0  0  0
    0.2346   -1.8818    3.6400 H   0  0  0  0  0  0  0  0  0  0  0  0
   -0.9109    0.1382    4.4719 H   0  0  0  0  0  0  0  0  0  0  0  0
    0.7769    0.4983    4.0484 H   0  0  0  0  0  0  0  0  0  0  0  0
    0.0239    1.4895    1.8581 H   0  0  0  0  0  0  0  0  0  0  0  0
   -1.6610    1.1476    2.2616 H   0  0  0  0  0  0  0  0  0  0  0  0
    0.2269    2.9547    3.9198 H   0  0  0  0  0  0  0  0  0  0  0  0
   -1.4701    2.6264    4.3143 H   0  0  0  0  0  0  0  0  0  0  0  0
   -2.2076    3.7548    2.1936 H   0  0  0  0  0  0  0  0  0  0  0  0
   -1.3031    4.8080    3.2907 H   0  0  0  0  0  0  0  0  0  0  0  0
   -0.1679    5.4240    1.3879 H   0  0  0  0  0  0  0  0  0  0  0  0
    0.8016    3.9840    1.7164 H   0  0  0  0  0  0  0  0  0  0  0  0
   -1.6305    4.1477   -0.1820 H   0  0  0  0  0  0  0  0  0  0  0  0
   -0.6887    2.6711    0.1010 H   0  0  0  0  0  0  0  0  0  0  0  0
    0.5951    5.2950   -0.8949 H   0  0  0  0  0  0  0  0  0  0  0  0
    1.3452    3.6939   -0.8611 H   0  0  0  0  0  0  0  0  0  0  0  0
    0.6513    4.3605   -3.1672 H   0  0  0  0  0  0  0  0  0  0  0  0
   -1.0179    4.6249   -2.6249 H   0  0  0  0  0  0  0  0  0  0  0  0
   -0.9361    2.5162   -3.8290 H   0  0  0  0  0  0  0  0  0  0  0  0
   -1.2708    2.1814   -2.1213 H   0  0  0  0  0  0  0  0  0  0  0  0
    1.2203    1.6238   -1.7907 H   0  0  0  0  0  0  0  0  0  0  0  0
    1.4623    1.8645   -3.5332 H   0  0  0  0  0  0  0  0  0  0  0  0
   -0.1565   -0.0035   -4.0156 H   0  0  0  0  0  0  0  0  0  0  0  0
    1.2425   -0.5140   -2.9992 H   0  0  0  0  0  0  0  0  0  0  0  0
   -4.0324   -1.4480    1.7327 H   0  0  0  0  0  0  0  0  0  0  0  0
   -6.3792   -1.2569   -1.9308 H   0  0  0  0  0  0  0  0  0  0  0  0
   -4.3138   -0.7734   -3.2040 H   0  0  0  0  0  0  0  0  0  0  0  0
   -2.1041   -0.3090   -3.3896 H   0  0  0  0  0  0  0  0  0  0  0  0
   -7.7243   -2.5776   -0.5357 H   0  0  0  0  0  0  0  0  0  0  0  0
   -7.9840   -0.8051   -0.2869 H   0  0  0  0  0  0  0  0  0  0  0  0
   -8.3793   -1.9708    1.0328 H   0  0  0  0  0  0  0  0  0  0  0  0
  3 14  1  0  0  0  0
  3 10  1  0  0  0  0
  6 13  1  0  0  0  0
  6 15  1  0  0  0  0
  7 12  1  0  0  0  0
  7 13  2  0  0  0  0
  8  1  1  1  0  0  0
  8  7  1  0  0  0  0
  9 10  2  0  0  0  0
  9  8  1  0  0  0  0
 10 11  1  0  0  0  0
 11 36  1  0  0  0  0
 11 12  2  0  0  0  0
 12 37  1  0  0  0  0
 13 38  1  0  0  0  0
 14 39  1  0  0  0  0
 14 40  1  0  0  0  0
 15 16  1  0  0  0  0
 15 43  1  0  0  0  0
 16 45  1  0  0  0  0
 16 44  1  0  0  0  0
 17 18  1  0  0  0  0
 17 16  1  0  0  0  0
 18 48  1  0  0  0  0
 18 49  1  0  0  0  0
 19 51  1  0  0  0  0
 19 18  1  0  0  0  0
 20 53  1  0  0  0  0
 20 19  1  0  0  0  0
 21 55  1  0  0  0  0
 21 20  1  0  0  0  0
 22 56  1  0  0  0  0
 22 57  1  0  0  0  0
 22 21  1  0  0  0  0
 23 22  1  0  0  0  0
 24 25  1  0  0  0  0
 24 23  1  0  0  0  0
 24 61  1  0  0  0  0
 25 62  1  0  0  0  0
 26 65  1  0  0  0  0
 26 25  1  0  0  0  0
 26  5  1  0  0  0  0
 27 28  1  0  0  0  0
 28  2  1  0  0  0  0
 28 29  2  0  0  0  0
 29 66  1  0  0  0  0
 30 29  1  0  0  0  0
 30  4  1  0  0  0  0
 31 30  2  0  0  0  0
 32 27  1  0  0  0  0
 32 31  1  0  0  0  0
 33  5  1  0  0  0  0
 33 27  2  0  0  0  0
 34  4  1  0  0  0  0
 34 72  1  0  0  0  0
 35  9  1  0  0  0  0
 41 14  1  0  0  0  0
 42 15  1  0  0  0  0
 46 17  1  0  0  0  0
 47 17  1  0  0  0  0
 50 19  1  0  0  0  0
 52 20  1  0  0  0  0
 54 21  1  0  0  0  0
 58 23  1  0  0  0  0
 59 23  1  0  0  0  0
 60 24  1  0  0  0  0
 63 25  1  0  0  0  0
 64 26  1  0  0  0  0
 67 31  1  0  0  0  0
 68 32  1  0  0  0  0
 69 33  1  0  0  0  0
 70 34  1  0  0  0  0
 71 34  1  0  0  0  0
M  CHG  1   2  -1
M  END
