1,13,23,36
 OpenBabel05122313063D

 40 41  0  0  1  0  0  0  0  0999 V2000
    1.0226   -0.9395   -1.2029 O   0  0  0  0  0  1  0  0  0  0  0  0
    2.0257   -1.3775   -0.5065 C   0  0  1  0  0  3  0  0  0  0  0  0
    2.4084   -2.7514   -0.6206 C   0  0  0  0  0  0  0  0  0  0  0  0
    1.8165   -3.3747   -1.3060 H   0  0  0  0  0  0  0  0  0  0  0  0
    3.4426   -3.2758    0.1441 C   0  0  0  0  0  0  0  0  0  0  0  0
    3.6860   -4.3471    0.0632 H   0  0  0  0  0  0  0  0  0  0  0  0
    4.1725   -2.4563    1.0394 C   0  0  0  0  0  0  0  0  0  0  0  0
    4.9701   -2.8841    1.6636 H   0  0  0  0  0  0  0  0  0  0  0  0
    3.8731   -1.1000    1.1140 C   0  0  0  0  0  0  0  0  0  0  0  0
    4.4493   -0.4643    1.8033 H   0  0  0  0  0  0  0  0  0  0  0  0
    2.8230   -0.5231    0.3477 C   0  0  0  0  0  0  0  0  0  0  0  0
    2.6269    0.9112    0.2412 C   0  0  0  0  0  0  0  0  0  0  0  0
    1.4790    1.4323   -0.1751 N   0  0  0  0  0  2  0  0  0  0  0  0
    1.4593    2.8630   -0.4943 C   0  0  0  0  0  0  0  0  0  0  0  0
    2.0769    3.0490   -1.4024 H   0  0  0  0  0  0  0  0  0  0  0  0
    1.9356    3.4393    0.3295 H   0  0  0  0  0  0  0  0  0  0  0  0
    0.0523    3.4076   -0.6848 C   0  0  0  0  0  0  0  0  0  0  0  0
   -0.3970    3.0516   -1.6355 H   0  0  0  0  0  0  0  0  0  0  0  0
    0.1121    4.5138   -0.7441 H   0  0  0  0  0  0  0  0  0  0  0  0
   -0.8453    2.9886    0.4751 C   0  0  0  0  0  0  0  0  0  0  0  0
   -0.2836    3.0782    1.4337 H   0  0  0  0  0  0  0  0  0  0  0  0
   -1.7291    3.6567    0.5512 H   0  0  0  0  0  0  0  0  0  0  0  0
   -1.2898    1.6067    0.2904 N   0  0  0  0  0  2  0  0  0  0  0  0
   -2.5487    1.3539    0.5903 C   0  0  0  0  0  0  0  0  0  0  0  0
   -3.1424    2.1954    1.0017 H   0  0  0  0  0  0  0  0  0  0  0  0
   -3.2416    0.1205    0.4276 C   0  0  0  0  0  0  0  0  0  0  0  0
   -4.5950    0.0011    0.8566 C   0  0  0  0  0  0  0  0  0  0  0  0
   -5.0702    0.8693    1.3420 H   0  0  0  0  0  0  0  0  0  0  0  0
   -5.3054   -1.1768    0.6740 C   0  0  0  0  0  0  0  0  0  0  0  0
   -6.3477   -1.2612    1.0134 H   0  0  0  0  0  0  0  0  0  0  0  0
   -4.6670   -2.2740    0.0370 C   0  0  0  0  0  0  0  0  0  0  0  0
   -5.2250   -3.2117   -0.1142 H   0  0  0  0  0  0  0  0  0  0  0  0
   -3.3523   -2.1895   -0.4019 C   0  0  0  0  0  0  0  0  0  0  0  0
   -2.8503   -3.0323   -0.8983 H   0  0  0  0  0  0  0  0  0  0  0  0
   -2.5893   -0.9916   -0.2189 C   0  0  1  0  0  3  0  0  0  0  0  0
   -1.3667   -0.9500   -0.6463 O   0  0  0  0  0  1  0  0  0  0  0  0
    3.8084    1.8192    0.4948 C   0  0  0  0  0  0  0  0  0  0  0  0
    4.0941    2.3489   -0.4383 H   0  0  0  0  0  0  0  0  0  0  0  0
    4.6906    1.2533    0.8334 H   0  0  0  0  0  0  0  0  0  0  0  0
    3.5758    2.6020    1.2464 H   0  0  0  0  0  0  0  0  0  0  0  0
  2  1  1  6  0  0  0
  2 11  1  0  0  0  0
  3  2  1  0  0  0  0
  3  5  2  0  0  0  0
  4  3  1  0  0  0  0
  5  7  1  0  0  0  0
  6  5  1  0  0  0  0
  7  9  2  0  0  0  0
  7  8  1  0  0  0  0
  9 10  1  0  0  0  0
 11  9  1  0  0  0  0
 12 11  2  0  0  0  0
 12 37  1  0  0  0  0
 13 12  1  0  0  0  0
 14 13  1  0  0  0  0
 14 16  1  0  0  0  0
 15 14  1  0  0  0  0
 17 14  1  0  0  0  0
 17 20  1  0  0  0  0
 18 17  1  0  0  0  0
 19 17  1  0  0  0  0
 20 22  1  0  0  0  0
 20 21  1  0  0  0  0
 23 20  1  0  0  0  0
 23 24  1  0  0  0  0
 24 25  1  0  0  0  0
 26 24  2  0  0  0  0
 26 27  1  0  0  0  0
 27 28  1  0  0  0  0
 29 27  2  0  0  0  0
 29 30  1  0  0  0  0
 31 29  1  0  0  0  0
 32 31  1  0  0  0  0
 33 35  1  0  0  0  0
 33 31  2  0  0  0  0
 34 33  1  0  0  0  0
 35 36  1  6  0  0  0
 35 26  1  0  0  0  0
 37 39  1  0  0  0  0
 37 40  1  0  0  0  0
 38 37  1  0  0  0  0
M  END
