1,3,5,6
 OpenBabel05122313063D

 22 21  0  0  0  0  0  0  0  0999 V2000
   -1.9500    0.3124    0.1453 O   0  5  0  0  0  0  0  0  0  0  0  0
   -3.5210   -1.2022   -0.4279 O   0  0  0  0  0  0  0  0  0  0  0  0
    1.8424    0.6186   -0.1896 O   0  5  0  0  0  0  0  0  0  0  0  0
    3.5666   -0.7620   -0.6578 O   0  0  0  0  0  0  0  0  0  0  0  0
    0.0393   -1.3727   -0.1550 N   0  0  0  0  0  0  0  0  0  0  0  0
    0.0825    0.3930    1.9034 N   0  0  0  0  0  0  0  0  0  0  0  0
   -1.2002   -1.7169   -0.8934 C   0  0  0  0  0  0  0  0  0  0  0  0
   -2.3589   -0.8358   -0.3567 C   0  0  0  0  0  0  0  0  0  0  0  0
    1.3225   -1.6379   -0.8453 C   0  0  0  0  0  0  0  0  0  0  0  0
    2.3735   -0.5396   -0.5311 C   0  0  0  0  0  0  0  0  0  0  0  0
    0.0018   -1.9113    1.2390 C   0  0  0  0  0  0  0  0  0  0  0  0
    0.6718   -0.9294    2.1918 C   0  0  0  0  0  0  0  0  0  0  0  0
   -1.0459   -1.4673   -1.9614 H   0  0  0  0  0  0  0  0  0  0  0  0
   -1.4548   -2.7942   -0.8120 H   0  0  0  0  0  0  0  0  0  0  0  0
   -0.8854    0.4896    2.2525 H   0  0  0  0  0  0  0  0  0  0  0  0
    0.6385    1.1870    2.2544 H   0  0  0  0  0  0  0  0  0  0  0  0
    1.1385   -1.6101   -1.9380 H   0  0  0  0  0  0  0  0  0  0  0  0
    1.7286   -2.6412   -0.6014 H   0  0  0  0  0  0  0  0  0  0  0  0
   -1.0638   -2.0303    1.5204 H   0  0  0  0  0  0  0  0  0  0  0  0
    0.4740   -2.9154    1.2789 H   0  0  0  0  0  0  0  0  0  0  0  0
    0.5211   -1.2379    3.2482 H   0  0  0  0  0  0  0  0  0  0  0  0
    1.7617   -0.8659    2.0101 H   0  0  0  0  0  0  0  0  0  0  0  0
  2  8  2  0  0  0  0
  4 10  2  0  0  0  0
  5 11  1  0  0  0  0
  6 12  1  0  0  0  0
  6 15  1  0  0  0  0
  6 16  1  0  0  0  0
  7 14  1  0  0  0  0
  7  8  1  0  0  0  0
  7  5  1  0  0  0  0
  8  1  1  0  0  0  0
  9 18  1  0  0  0  0
  9 10  1  0  0  0  0
  9  5  1  0  0  0  0
 10  3  1  0  0  0  0
 11 20  1  0  0  0  0
 11 19  1  0  0  0  0
 11 12  1  0  0  0  0
 12 21  1  0  0  0  0
 13  7  1  0  0  0  0
 17  9  1  0  0  0  0
 22 12  1  0  0  0  0
M  CHG  2   1  -1   3  -1
M  END
