1,2,3,4
 OpenBabel05122313063D

 32 33  0  0  0  0  0  0  0  0999 V2000
    1.5872   -0.5808   -1.0764 O   0  5  0  0  0  0  0  0  0  0  0  0
   -1.5870   -0.5808    1.0764 O   0  5  0  0  0  0  0  0  0  0  0  0
    0.9680    0.8843    1.0726 N   0  0  0  0  0  0  0  0  0  0  0  0
   -0.9682    0.8842   -1.0729 N   0  0  0  0  0  0  0  0  0  0  0  0
    0.1792    2.0959    0.7411 C   0  0  0  0  0  0  0  0  0  0  0  0
   -0.1794    2.0958   -0.7415 C   0  0  0  0  0  0  0  0  0  0  0  0
    2.3364    0.9317    0.5974 C   0  0  0  0  0  0  0  0  0  0  0  0
    2.5901    0.1490   -0.5550 C   0  0  0  0  0  0  0  0  0  0  0  0
    3.8784    0.1615   -1.1265 C   0  0  0  0  0  0  0  0  0  0  0  0
    4.8870    0.9359   -0.5374 C   0  0  0  0  0  0  0  0  0  0  0  0
    4.6343    1.7043    0.6136 C   0  0  0  0  0  0  0  0  0  0  0  0
    3.3490    1.7065    1.1781 C   0  0  0  0  0  0  0  0  0  0  0  0
   -2.3366    0.9315   -0.5974 C   0  0  0  0  0  0  0  0  0  0  0  0
   -2.5900    0.1489    0.5551 C   0  0  0  0  0  0  0  0  0  0  0  0
   -3.8783    0.1614    1.1268 C   0  0  0  0  0  0  0  0  0  0  0  0
   -4.8870    0.9358    0.5377 C   0  0  0  0  0  0  0  0  0  0  0  0
   -4.6345    1.7041   -0.6134 C   0  0  0  0  0  0  0  0  0  0  0  0
   -3.3493    1.7063   -1.1781 C   0  0  0  0  0  0  0  0  0  0  0  0
    0.9385    0.7118    2.0860 H   0  0  0  0  0  0  0  0  0  0  0  0
   -0.9388    0.7116   -2.0863 H   0  0  0  0  0  0  0  0  0  0  0  0
    0.7405    3.0237    0.9868 H   0  0  0  0  0  0  0  0  0  0  0  0
   -0.7445    2.0814    1.3544 H   0  0  0  0  0  0  0  0  0  0  0  0
   -0.7407    3.0236   -0.9874 H   0  0  0  0  0  0  0  0  0  0  0  0
    0.7443    2.0813   -1.3549 H   0  0  0  0  0  0  0  0  0  0  0  0
    4.0664   -0.4546   -2.0172 H   0  0  0  0  0  0  0  0  0  0  0  0
    5.8945    0.9337   -0.9805 H   0  0  0  0  0  0  0  0  0  0  0  0
    5.4379    2.2983    1.0722 H   0  0  0  0  0  0  0  0  0  0  0  0
    3.1324    2.3045    2.0777 H   0  0  0  0  0  0  0  0  0  0  0  0
   -4.0661   -0.4545    2.0175 H   0  0  0  0  0  0  0  0  0  0  0  0
   -5.8944    0.9336    0.9810 H   0  0  0  0  0  0  0  0  0  0  0  0
   -5.4382    2.2980   -1.0719 H   0  0  0  0  0  0  0  0  0  0  0  0
   -3.1328    2.3042   -2.0778 H   0  0  0  0  0  0  0  0  0  0  0  0
  1  8  1  0  0  0  0
  3 19  1  0  0  0  0
  4  6  1  0  0  0  0
  4 13  1  0  0  0  0
  5 21  1  0  0  0  0
  5  3  1  0  0  0  0
  5 22  1  0  0  0  0
  6  5  1  0  0  0  0
  7  3  1  0  0  0  0
  7 12  1  0  0  0  0
  8  7  2  0  0  0  0
  9  8  1  0  0  0  0
  9 10  2  0  0  0  0
 10 11  1  0  0  0  0
 11 27  1  0  0  0  0
 11 12  2  0  0  0  0
 12 28  1  0  0  0  0
 13 14  1  0  0  0  0
 14  2  1  0  0  0  0
 14 15  2  0  0  0  0
 15 29  1  0  0  0  0
 16 30  1  0  0  0  0
 16 15  1  0  0  0  0
 17 16  2  0  0  0  0
 18 17  1  0  0  0  0
 18 13  2  0  0  0  0
 20  4  1  0  0  0  0
 23  6  1  0  0  0  0
 24  6  1  0  0  0  0
 25  9  1  0  0  0  0
 26 10  1  0  0  0  0
 31 17  1  0  0  0  0
 32 18  1  0  0  0  0
M  CHG  2   1  -1   2  -1
M  END
