1,2,3,4
 OpenBabel05122313063D

 46 47  0  0  1  0  0  0  0  0999 V2000
    1.1915    1.7234    0.6989 N   0  0  0  0  0  2  0  0  0  0  0  0
   -1.1908    1.7240   -0.6983 N   0  0  0  0  0  2  0  0  0  0  0  0
    0.9932    0.3450   -1.6233 O   0  5  0  0  0  0  0  0  0  0  0  0
   -0.9931    0.3451    1.6235 O   0  5  0  0  0  0  0  0  0  0  0  0
    2.3061    0.3102   -1.6075 C   0  0  0  0  0  0  0  0  0  0  0  0
    2.9722   -0.2927   -2.7133 C   0  0  0  0  0  0  0  0  0  0  0  0
    2.3449   -0.6631   -3.5372 H   0  0  0  0  0  0  0  0  0  0  0  0
    4.3553   -0.4423   -2.7284 C   0  0  0  0  0  0  0  0  0  0  0  0
    4.8383   -0.9367   -3.5852 H   0  0  0  0  0  0  0  0  0  0  0  0
    5.1375    0.0189   -1.6464 C   0  0  0  0  0  0  0  0  0  0  0  0
    6.2279   -0.1186   -1.6470 H   0  0  0  0  0  0  0  0  0  0  0  0
    4.5139    0.6705   -0.5867 C   0  0  0  0  0  0  0  0  0  0  0  0
    5.1373    1.0494    0.2346 H   0  0  0  0  0  0  0  0  0  0  0  0
    3.1036    0.8518   -0.5359 C   0  0  0  0  0  0  0  0  0  0  0  0
    2.4911    1.7179    0.4709 C   0  0  1  0  0  3  0  0  0  0  0  0
    3.4262    2.6573    1.2002 C   0  0  0  0  0  0  0  0  0  0  0  0
    2.9231    3.3173    1.9227 H   0  0  0  0  0  0  0  0  0  0  0  0
    3.9926    3.2829    0.4832 H   0  0  0  0  0  0  0  0  0  0  0  0
    4.1743    2.0589    1.7586 H   0  0  0  0  0  0  0  0  0  0  0  0
    0.5626    2.8337    1.4329 C   0  0  0  0  0  0  0  0  0  0  0  0
    1.1112    3.0322    2.3758 H   0  0  0  0  0  0  0  0  0  0  0  0
   -0.4469    2.5042    1.7333 H   0  0  0  0  0  0  0  0  0  0  0  0
    0.5098    4.1111    0.5759 C   0  0  0  0  0  0  0  0  0  0  0  0
    0.2845    4.9678    1.2449 H   0  0  0  0  0  0  0  0  0  0  0  0
    1.5256    4.3042    0.1708 H   0  0  0  0  0  0  0  0  0  0  0  0
   -0.5083    4.1115   -0.5742 C   0  0  0  0  0  0  0  0  0  0  0  0
   -0.2827    4.9684   -1.2429 H   0  0  0  0  0  0  0  0  0  0  0  0
   -1.5240    4.3047   -0.1691 H   0  0  0  0  0  0  0  0  0  0  0  0
   -0.5615    2.8344   -1.4318 C   0  0  0  0  0  0  0  0  0  0  0  0
   -1.1100    3.0335   -2.3746 H   0  0  0  0  0  0  0  0  0  0  0  0
    0.4479    2.5048   -1.7323 H   0  0  0  0  0  0  0  0  0  0  0  0
   -2.4904    1.7188   -0.4704 C   0  0  2  0  0  3  0  0  0  0  0  0
   -3.4252    2.6589   -1.1993 C   0  0  0  0  0  0  0  0  0  0  0  0
   -2.9218    3.3192   -1.9214 H   0  0  0  0  0  0  0  0  0  0  0  0
   -3.9916    3.2841   -0.4820 H   0  0  0  0  0  0  0  0  0  0  0  0
   -4.1733    2.0610   -1.7583 H   0  0  0  0  0  0  0  0  0  0  0  0
   -3.1033    0.8523    0.5359 C   0  0  0  0  0  0  0  0  0  0  0  0
   -4.5136    0.6711    0.5862 C   0  0  0  0  0  0  0  0  0  0  0  0
   -5.1367    1.0504   -0.2351 H   0  0  0  0  0  0  0  0  0  0  0  0
   -5.1374    0.0189    1.6455 C   0  0  0  0  0  0  0  0  0  0  0  0
   -6.2278   -0.1186    1.6457 H   0  0  0  0  0  0  0  0  0  0  0  0
   -4.3556   -0.4427    2.7274 C   0  0  0  0  0  0  0  0  0  0  0  0
   -4.8388   -0.9376    3.5839 H   0  0  0  0  0  0  0  0  0  0  0  0
   -2.9724   -0.2931    2.7127 C   0  0  0  0  0  0  0  0  0  0  0  0
   -2.3454   -0.6640    3.5366 H   0  0  0  0  0  0  0  0  0  0  0  0
   -2.3061    0.3103    1.6074 C   0  0  0  0  0  0  0  0  0  0  0  0
  1 20  1  0  0  0  0
  3  5  1  0  0  0  0
  5 14  1  0  0  0  0
  6  5  2  0  0  0  0
  7  6  1  0  0  0  0
  8  6  1  0  0  0  0
  8 10  2  0  0  0  0
  9  8  1  0  0  0  0
 10 12  1  0  0  0  0
 11 10  1  0  0  0  0
 12 14  2  0  0  0  0
 12 13  1  0  0  0  0
 14 15  1  0  0  0  0
 15  1  1  6  0  0  0
 15 16  1  0  0  0  0
 16 19  1  0  0  0  0
 16 17  1  0  0  0  0
 18 16  1  0  0  0  0
 20 22  1  0  0  0  0
 20 21  1  0  0  0  0
 23 24  1  0  0  0  0
 23 20  1  0  0  0  0
 25 23  1  0  0  0  0
 26 28  1  0  0  0  0
 26 23  1  0  0  0  0
 27 26  1  0  0  0  0
 29  2  1  0  0  0  0
 29 26  1  0  0  0  0
 30 29  1  0  0  0  0
 31 29  1  0  0  0  0
 32  2  1  1  0  0  0
 32 37  1  0  0  0  0
 33 35  1  0  0  0  0
 33 32  1  0  0  0  0
 34 33  1  0  0  0  0
 36 33  1  0  0  0  0
 37 38  2  0  0  0  0
 37 46  1  0  0  0  0
 38 40  1  0  0  0  0
 39 38  1  0  0  0  0
 40 41  1  0  0  0  0
 40 42  2  0  0  0  0
 42 43  1  0  0  0  0
 44 42  1  0  0  0  0
 44 45  1  0  0  0  0
 46  4  1  0  0  0  0
 46 44  2  0  0  0  0
M  CHG  2   3  -1   4  -1
M  END
