1,13,21,33
 OpenBabel05122313063D

 51 52  0  0  1  0  0  0  0  0999 V2000
    1.3011    1.0822   -0.2378 O   0  0  0  0  0  1  0  0  0  0  0  0
    2.5768    1.0252   -0.0154 C   0  0  2  0  0  3  0  0  0  0  0  0
    3.2872    2.2861    0.0851 C   0  0  0  0  0  0  0  0  0  0  0  0
    4.6571    2.3087    0.3410 C   0  0  0  0  0  0  0  0  0  0  0  0
    5.1834    3.2694    0.4248 H   0  0  0  0  0  0  0  0  0  0  0  0
    5.3917    1.1018    0.4976 C   0  0  0  0  0  0  0  0  0  0  0  0
    6.4719    1.1489    0.6973 H   0  0  0  0  0  0  0  0  0  0  0  0
    4.7469   -0.1158    0.3928 C   0  0  0  0  0  0  0  0  0  0  0  0
    5.3065   -1.0579    0.5021 H   0  0  0  0  0  0  0  0  0  0  0  0
    3.3392   -0.1824    0.1345 C   0  0  0  0  0  0  0  0  0  0  0  0
    2.7539   -1.4761   -0.0117 C   0  0  0  0  0  0  0  0  0  0  0  0
    3.4714   -2.3179    0.0408 H   0  0  0  0  0  0  0  0  0  0  0  0
    1.4958   -1.8143   -0.2226 N   0  0  0  0  0  2  0  0  0  0  0  0
    1.2542   -3.2343   -0.4753 C   0  0  0  0  0  0  0  0  0  0  0  0
    2.1437   -3.8114   -0.1412 H   0  0  0  0  0  0  0  0  0  0  0  0
    1.1639   -3.3867   -1.5749 H   0  0  0  0  0  0  0  0  0  0  0  0
    0.0008   -3.8197    0.1968 C   0  0  0  0  0  0  0  0  0  0  0  0
   -1.2535   -3.2349   -0.4743 C   0  0  0  0  0  0  0  0  0  0  0  0
   -1.1642   -3.3878   -1.5738 H   0  0  0  0  0  0  0  0  0  0  0  0
   -2.1425   -3.8121   -0.1390 H   0  0  0  0  0  0  0  0  0  0  0  0
   -1.4953   -1.8148   -0.2219 N   0  0  0  0  0  2  0  0  0  0  0  0
   -2.7534   -1.4769   -0.0110 C   0  0  0  0  0  0  0  0  0  0  0  0
   -3.4707   -2.3189    0.0419 H   0  0  0  0  0  0  0  0  0  0  0  0
   -2.5772    1.0245   -0.0151 C   0  0  1  0  0  3  0  0  0  0  0  0
   -3.2880    2.2852    0.0850 C   0  0  0  0  0  0  0  0  0  0  0  0
   -4.6579    2.3073    0.3407 C   0  0  0  0  0  0  0  0  0  0  0  0
   -5.1846    3.2679    0.4243 H   0  0  0  0  0  0  0  0  0  0  0  0
   -5.3922    1.1003    0.4974 C   0  0  0  0  0  0  0  0  0  0  0  0
   -6.4724    1.1471    0.6970 H   0  0  0  0  0  0  0  0  0  0  0  0
   -4.7470   -0.1172    0.3930 C   0  0  0  0  0  0  0  0  0  0  0  0
   -5.3062   -1.0594    0.5024 H   0  0  0  0  0  0  0  0  0  0  0  0
   -3.3392   -0.1833    0.1349 C   0  0  0  0  0  0  0  0  0  0  0  0
   -1.3014    1.0819   -0.2373 O   0  0  0  0  0  1  0  0  0  0  0  0
    0.0013   -3.5626    1.7104 C   0  0  0  0  0  0  0  0  0  0  0  0
    0.0011   -2.4781    1.9360 H   0  0  0  0  0  0  0  0  0  0  0  0
    0.8981   -4.0126    2.1832 H   0  0  0  0  0  0  0  0  0  0  0  0
   -0.8947   -4.0132    2.1839 H   0  0  0  0  0  0  0  0  0  0  0  0
    0.0010   -5.3330   -0.0851 C   0  0  0  0  0  0  0  0  0  0  0  0
   -0.8939   -5.8163    0.3563 H   0  0  0  0  0  0  0  0  0  0  0  0
    0.8963   -5.8159    0.3558 H   0  0  0  0  0  0  0  0  0  0  0  0
    0.0007   -5.5465   -1.1743 H   0  0  0  0  0  0  0  0  0  0  0  0
    2.5009    3.3791   -0.0814 O   0  0  0  0  0  0  0  0  0  0  0  0
    3.1068    4.6492    0.0075 C   0  0  0  0  0  0  0  0  0  0  0  0
    3.8957    4.7907   -0.7670 H   0  0  0  0  0  0  0  0  0  0  0  0
    3.5634    4.8246    1.0091 H   0  0  0  0  0  0  0  0  0  0  0  0
    2.3043    5.3923   -0.1567 H   0  0  0  0  0  0  0  0  0  0  0  0
   -2.5020    3.3784   -0.0815 O   0  0  0  0  0  0  0  0  0  0  0  0
   -3.1083    4.6483    0.0069 C   0  0  0  0  0  0  0  0  0  0  0  0
   -2.3061    5.3916   -0.1575 H   0  0  0  0  0  0  0  0  0  0  0  0
   -3.5652    4.8239    1.0083 H   0  0  0  0  0  0  0  0  0  0  0  0
   -3.8972    4.7893   -0.7678 H   0  0  0  0  0  0  0  0  0  0  0  0
  2  1  1  6  0  0  0
  2  3  1  0  0  0  0
  2 10  1  0  0  0  0
  3  4  2  0  0  0  0
  4  5  1  0  0  0  0
  4  6  1  0  0  0  0
  6  7  1  0  0  0  0
  8  6  2  0  0  0  0
  8  9  1  0  0  0  0
 10  8  1  0  0  0  0
 11 12  1  0  0  0  0
 11 10  2  0  0  0  0
 13 11  1  0  0  0  0
 14 13  1  0  0  0  0
 14 15  1  0  0  0  0
 14 17  1  0  0  0  0
 16 14  1  0  0  0  0
 17 34  1  0  0  0  0
 18 21  1  0  0  0  0
 18 20  1  0  0  0  0
 18 17  1  0  0  0  0
 19 18  1  0  0  0  0
 21 22  1  0  0  0  0
 22 23  1  0  0  0  0
 22 32  2  0  0  0  0
 24 33  1  6  0  0  0
 24 25  1  0  0  0  0
 24 32  1  0  0  0  0
 25 26  2  0  0  0  0
 26 27  1  0  0  0  0
 26 28  1  0  0  0  0
 28 29  1  0  0  0  0
 30 28  2  0  0  0  0
 30 31  1  0  0  0  0
 32 30  1  0  0  0  0
 34 35  1  0  0  0  0
 34 36  1  0  0  0  0
 34 37  1  0  0  0  0
 38 17  1  0  0  0  0
 38 40  1  0  0  0  0
 38 39  1  0  0  0  0
 41 38  1  0  0  0  0
 42 43  1  0  0  0  0
 42  3  1  0  0  0  0
 43 45  1  0  0  0  0
 44 43  1  0  0  0  0
 46 43  1  0  0  0  0
 47 48  1  0  0  0  0
 47 25  1  0  0  0  0
 48 50  1  0  0  0  0
 49 48  1  0  0  0  0
 51 48  1  0  0  0  0
M  END
