1,2,3,4
 OpenBabel05122313063D

 70 72  0  0  1  0  0  0  0  0999 V2000
    0.4614    0.7962   -0.4726 O   0  5  0  0  0  0  0  0  0  0  0  0
   -1.7562   -0.9521   -0.6589 O   0  5  0  0  0  0  0  0  0  0  0  0
    2.2858   -0.9750   -1.2775 N   0  0  0  0  0  0  0  0  0  0  0  0
    0.5287   -1.6155    0.7814 N   0  0  0  0  0  2  0  0  0  0  0  0
    1.4026    1.7372   -0.5050 C   0  0  0  0  0  0  0  0  0  0  0  0
    1.2143    2.9755    0.2001 C   0  0  0  0  0  0  0  0  0  0  0  0
    2.2440    3.9302    0.1313 C   0  0  0  0  0  0  0  0  0  0  0  0
    3.4423    3.7069   -0.5657 C   0  0  0  0  0  0  0  0  0  0  0  0
    3.6301    2.4875   -1.2210 C   0  0  0  0  0  0  0  0  0  0  0  0
    2.6230    1.5080   -1.2099 C   0  0  0  0  0  0  0  0  0  0  0  0
    2.8432    0.2249   -1.9723 C   0  0  0  0  0  0  0  0  0  0  0  0
    2.8143   -1.1724    0.1038 C   0  0  1  0  0  0  0  0  0  0  0  0
    1.8940   -2.1203    0.9038 C   0  0  1  0  0  0  0  0  0  0  0  0
   -0.2818   -1.5172    1.7862 C   0  0  0  0  0  3  0  0  0  0  0  0
   -1.6638   -1.0703    1.7348 C   0  0  0  0  0  0  0  0  0  0  0  0
   -2.3355   -0.9080    2.9710 C   0  0  0  0  0  0  0  0  0  0  0  0
   -3.6621   -0.4953    3.0053 C   0  0  0  0  0  0  0  0  0  0  0  0
   -4.3455   -0.2652    1.7956 C   0  0  0  0  0  0  0  0  0  0  0  0
   -3.7451   -0.4225    0.5350 C   0  0  0  0  0  0  0  0  0  0  0  0
   -2.3684   -0.8125    0.5139 C   0  0  0  0  0  0  0  0  0  0  0  0
   -0.0628    3.2280    1.0233 C   0  0  0  0  0  0  0  0  0  0  0  0
   -0.1220    2.1971    2.1750 C   0  0  0  0  0  0  0  0  0  0  0  0
   -1.3161    3.0958    0.1278 C   0  0  0  0  0  0  0  0  0  0  0  0
   -0.0825    4.6346    1.6487 C   0  0  0  0  0  0  0  0  0  0  0  0
   -4.5302   -0.2055   -0.7735 C   0  0  0  0  0  0  0  0  0  0  0  0
   -5.9906    0.1973   -0.4954 C   0  0  0  0  0  0  0  0  0  0  0  0
   -4.5514   -1.5249   -1.5828 C   0  0  0  0  0  0  0  0  0  0  0  0
   -3.8868    0.9235   -1.6132 C   0  0  0  0  0  0  0  0  0  0  0  0
    4.2662   -1.6657    0.0997 C   0  0  0  0  0  0  0  0  0  0  0  0
    4.7901   -1.8709    1.5252 C   0  0  0  0  0  0  0  0  0  0  0  0
    3.8824   -2.8204    2.3121 C   0  0  0  0  0  0  0  0  0  0  0  0
    2.4321   -2.3218    2.3251 C   0  0  0  0  0  0  0  0  0  0  0  0
    2.1164    4.8890    0.6513 H   0  0  0  0  0  0  0  0  0  0  0  0
    4.2251    4.4791   -0.5842 H   0  0  0  0  0  0  0  0  0  0  0  0
    4.5690    2.2835   -1.7617 H   0  0  0  0  0  0  0  0  0  0  0  0
    2.5084   -1.8137   -1.8358 H   0  0  0  0  0  0  0  0  0  0  0  0
    2.7695   -0.1751    0.5902 H   0  0  0  0  0  0  0  0  0  0  0  0
    1.8934   -3.1043    0.3767 H   0  0  0  0  0  0  0  0  0  0  0  0
    0.0678   -1.7891    2.8032 H   0  0  0  0  0  0  0  0  0  0  0  0
   -1.7837   -1.1063    3.9034 H   0  0  0  0  0  0  0  0  0  0  0  0
   -4.1813   -0.3573    3.9646 H   0  0  0  0  0  0  0  0  0  0  0  0
   -5.3965    0.0480    1.8464 H   0  0  0  0  0  0  0  0  0  0  0  0
    0.7376    2.3325    2.8634 H   0  0  0  0  0  0  0  0  0  0  0  0
   -0.0989    1.1675    1.7782 H   0  0  0  0  0  0  0  0  0  0  0  0
   -1.0574    2.3188    2.7602 H   0  0  0  0  0  0  0  0  0  0  0  0
   -2.2341    3.2622    0.7296 H   0  0  0  0  0  0  0  0  0  0  0  0
   -1.3783    2.0949   -0.3324 H   0  0  0  0  0  0  0  0  0  0  0  0
   -1.2969    3.8495   -0.6856 H   0  0  0  0  0  0  0  0  0  0  0  0
    0.7622    4.7948    2.3493 H   0  0  0  0  0  0  0  0  0  0  0  0
   -1.0204    4.7649    2.2254 H   0  0  0  0  0  0  0  0  0  0  0  0
   -0.0510    5.4319    0.8785 H   0  0  0  0  0  0  0  0  0  0  0  0
    2.3481    0.2535   -2.9645 H   0  0  0  0  0  0  0  0  0  0  0  0
    3.9318    0.0855   -2.1441 H   0  0  0  0  0  0  0  0  0  0  0  0
   -6.5201    0.3341   -1.4592 H   0  0  0  0  0  0  0  0  0  0  0  0
   -6.0610    1.1550    0.0595 H   0  0  0  0  0  0  0  0  0  0  0  0
   -6.5384   -0.5795    0.0760 H   0  0  0  0  0  0  0  0  0  0  0  0
   -3.5319   -1.8565   -1.8517 H   0  0  0  0  0  0  0  0  0  0  0  0
   -5.1257   -1.3814   -2.5211 H   0  0  0  0  0  0  0  0  0  0  0  0
   -5.0406   -2.3338   -1.0028 H   0  0  0  0  0  0  0  0  0  0  0  0
   -2.8496    0.6858   -1.9104 H   0  0  0  0  0  0  0  0  0  0  0  0
   -3.8755    1.8769   -1.0483 H   0  0  0  0  0  0  0  0  0  0  0  0
   -4.4778    1.0815   -2.5386 H   0  0  0  0  0  0  0  0  0  0  0  0
    4.3160   -2.6287   -0.4585 H   0  0  0  0  0  0  0  0  0  0  0  0
    4.9064   -0.9417   -0.4436 H   0  0  0  0  0  0  0  0  0  0  0  0
    4.8342   -0.8867    2.0416 H   0  0  0  0  0  0  0  0  0  0  0  0
    5.8296   -2.2564    1.4953 H   0  0  0  0  0  0  0  0  0  0  0  0
    4.2487   -2.9386    3.3523 H   0  0  0  0  0  0  0  0  0  0  0  0
    3.9186   -3.8322    1.8508 H   0  0  0  0  0  0  0  0  0  0  0  0
    1.7899   -3.0420    2.8728 H   0  0  0  0  0  0  0  0  0  0  0  0
    2.3745   -1.3551    2.8736 H   0  0  0  0  0  0  0  0  0  0  0  0
  2 20  1  0  0  0  0
  3 12  1  0  0  0  0
  4 13  1  0  0  0  0
  4 14  1  0  0  0  0
  5  1  1  0  0  0  0
  5  6  1  0  0  0  0
  6 21  1  0  0  0  0
  7  6  2  0  0  0  0
  7 33  1  0  0  0  0
  8  7  1  0  0  0  0
  9 10  1  0  0  0  0
  9  8  2  0  0  0  0
 10  5  2  0  0  0  0
 11  3  1  0  0  0  0
 11 10  1  0  0  0  0
 12 37  1  1  0  0  0
 12 13  1  0  0  0  0
 13 38  1  6  0  0  0
 13 32  1  0  0  0  0
 14 39  1  0  0  0  0
 15 14  1  0  0  0  0
 15 16  1  0  0  0  0
 16 17  2  0  0  0  0
 16 40  1  0  0  0  0
 17 41  1  0  0  0  0
 18 42  1  0  0  0  0
 18 17  1  0  0  0  0
 19 18  2  0  0  0  0
 20 19  1  0  0  0  0
 20 15  2  0  0  0  0
 21 24  1  0  0  0  0
 21 22  1  0  0  0  0
 22 45  1  0  0  0  0
 22 43  1  0  0  0  0
 23 46  1  0  0  0  0
 23 21  1  0  0  0  0
 24 50  1  0  0  0  0
 24 49  1  0  0  0  0
 25 26  1  0  0  0  0
 25 19  1  0  0  0  0
 26 55  1  0  0  0  0
 26 56  1  0  0  0  0
 27 59  1  0  0  0  0
 27 25  1  0  0  0  0
 28 61  1  0  0  0  0
 28 25  1  0  0  0  0
 29 12  1  0  0  0  0
 29 30  1  0  0  0  0
 30 65  1  0  0  0  0
 30 31  1  0  0  0  0
 31 32  1  0  0  0  0
 31 67  1  0  0  0  0
 32 69  1  0  0  0  0
 32 70  1  0  0  0  0
 34  8  1  0  0  0  0
 35  9  1  0  0  0  0
 36  3  1  0  0  0  0
 44 22  1  0  0  0  0
 47 23  1  0  0  0  0
 48 23  1  0  0  0  0
 51 24  1  0  0  0  0
 52 11  1  0  0  0  0
 53 11  1  0  0  0  0
 54 26  1  0  0  0  0
 57 27  1  0  0  0  0
 58 27  1  0  0  0  0
 60 28  1  0  0  0  0
 62 28  1  0  0  0  0
 63 29  1  0  0  0  0
 64 29  1  0  0  0  0
 66 30  1  0  0  0  0
 68 31  1  0  0  0  0
M  CHG  2   1  -1   2  -1
M  END
