1,2,3,4
 OpenBabel05122313063D

 49 51  0  0  0  0  0  0  0  0999 V2000
   -1.2901   -1.1958   -0.1601 O   0  5  0  0  0  0  0  0  0  0  0  0
    1.2902   -1.1958   -0.1601 O   0  5  0  0  0  0  0  0  0  0  0  0
    0.0000    2.6127   -0.1244 N   0  0  0  0  0  2  0  0  0  0  0  0
   -2.0410    1.1674   -0.1637 N   0  0  0  0  0  2  0  0  0  0  0  0
   -3.0600    0.2675   -0.1659 N   0  0  0  0  0  0  0  0  0  0  0  0
    2.0410    1.1674   -0.1637 N   0  0  0  0  0  0  0  0  0  0  0  0
   -1.1841    3.3132   -0.0908 C   0  0  0  0  0  0  0  0  0  0  0  0
   -1.2078    4.7247   -0.0419 C   0  0  0  0  0  0  0  0  0  0  0  0
   -2.1754    5.2425   -0.0248 H   0  0  0  0  0  0  0  0  0  0  0  0
    0.0000    5.4327   -0.0193 C   0  0  0  0  0  0  0  0  0  0  0  0
    0.0000    6.5319    0.0147 H   0  0  0  0  0  0  0  0  0  0  0  0
    1.2078    4.7247   -0.0418 C   0  0  0  0  0  0  0  0  0  0  0  0
    2.1754    5.2425   -0.0248 H   0  0  0  0  0  0  0  0  0  0  0  0
    3.0600    0.2675   -0.1658 N   0  0  0  0  0  0  0  0  0  0  0  0
    1.1841    3.3132   -0.0909 C   0  0  0  0  0  0  0  0  0  0  0  0
   -2.3466    2.4647   -0.1125 C   0  0  0  0  0  0  0  0  0  0  0  0
   -3.7443    2.9896   -0.0875 C   0  0  0  0  0  0  0  0  0  0  0  0
   -4.4557    2.1462   -0.0930 H   0  0  0  0  0  0  0  0  0  0  0  0
   -3.9411    3.6354   -0.9699 H   0  0  0  0  0  0  0  0  0  0  0  0
   -3.9216    3.6120    0.8154 H   0  0  0  0  0  0  0  0  0  0  0  0
   -2.5616   -0.9665   -0.1599 C   0  0  0  0  0  0  0  0  0  0  0  0
   -3.4898   -2.1213   -0.1438 C   0  0  0  0  0  0  0  0  0  0  0  0
   -2.9647   -3.4310   -0.1523 C   0  0  0  0  0  0  0  0  0  0  0  0
   -1.8726   -3.5558   -0.1754 H   0  0  0  0  0  0  0  0  0  0  0  0
   -3.8272   -4.5346   -0.1359 C   0  0  0  0  0  0  0  0  0  0  0  0
   -3.4126   -5.5543   -0.1450 H   0  0  0  0  0  0  0  0  0  0  0  0
   -5.2187   -4.3421   -0.1114 C   0  0  0  0  0  0  0  0  0  0  0  0
   -5.8954   -5.2103   -0.1001 H   0  0  0  0  0  0  0  0  0  0  0  0
   -5.7462   -3.0389   -0.1043 C   0  0  0  0  0  0  0  0  0  0  0  0
   -6.8363   -2.8867   -0.0876 H   0  0  0  0  0  0  0  0  0  0  0  0
   -4.8888   -1.9323   -0.1204 C   0  0  0  0  0  0  0  0  0  0  0  0
   -5.2811   -0.9058   -0.1172 H   0  0  0  0  0  0  0  0  0  0  0  0
    2.3466    2.4647   -0.1125 C   0  0  0  0  0  0  0  0  0  0  0  0
    3.7443    2.9896   -0.0875 C   0  0  0  0  0  0  0  0  0  0  0  0
    4.4557    2.1462   -0.0941 H   0  0  0  0  0  0  0  0  0  0  0  0
    3.9219    3.6111    0.8159 H   0  0  0  0  0  0  0  0  0  0  0  0
    3.9407    3.6363   -0.9693 H   0  0  0  0  0  0  0  0  0  0  0  0
    2.5616   -0.9664   -0.1598 C   0  0  0  0  0  0  0  0  0  0  0  0
    3.4898   -2.1213   -0.1438 C   0  0  0  0  0  0  0  0  0  0  0  0
    4.8888   -1.9323   -0.1202 C   0  0  0  0  0  0  0  0  0  0  0  0
    5.2811   -0.9058   -0.1168 H   0  0  0  0  0  0  0  0  0  0  0  0
    5.7463   -3.0389   -0.1041 C   0  0  0  0  0  0  0  0  0  0  0  0
    6.8363   -2.8867   -0.0873 H   0  0  0  0  0  0  0  0  0  0  0  0
    5.2187   -4.3421   -0.1115 C   0  0  0  0  0  0  0  0  0  0  0  0
    5.8954   -5.2103   -0.1001 H   0  0  0  0  0  0  0  0  0  0  0  0
    3.8272   -4.5346   -0.1361 C   0  0  0  0  0  0  0  0  0  0  0  0
    3.4126   -5.5543   -0.1454 H   0  0  0  0  0  0  0  0  0  0  0  0
    2.9648   -3.4310   -0.1525 C   0  0  0  0  0  0  0  0  0  0  0  0
    1.8726   -3.5558   -0.1758 H   0  0  0  0  0  0  0  0  0  0  0  0
  1 21  1  0  0  0  0
  2 38  1  0  0  0  0
  3 15  1  0  0  0  0
  3  7  1  0  0  0  0
  4 16  1  0  0  0  0
  5  4  1  0  0  0  0
  5 21  2  0  0  0  0
  6 33  2  0  0  0  0
  7  8  1  0  0  0  0
  8  9  1  0  0  0  0
  8 10  2  0  0  0  0
 10 11  1  0  0  0  0
 12 13  1  0  0  0  0
 12 10  1  0  0  0  0
 14  6  1  0  0  0  0
 14 38  2  0  0  0  0
 15 12  2  0  0  0  0
 16  7  2  0  0  0  0
 16 17  1  0  0  0  0
 17 20  1  0  0  0  0
 18 17  1  0  0  0  0
 19 17  1  0  0  0  0
 21 22  1  0  0  0  0
 22 31  1  0  0  0  0
 23 22  2  0  0  0  0
 23 25  1  0  0  0  0
 24 23  1  0  0  0  0
 25 27  2  0  0  0  0
 26 25  1  0  0  0  0
 27 29  1  0  0  0  0
 27 28  1  0  0  0  0
 29 30  1  0  0  0  0
 31 32  1  0  0  0  0
 31 29  2  0  0  0  0
 33 15  1  0  0  0  0
 33 34  1  0  0  0  0
 34 36  1  0  0  0  0
 35 34  1  0  0  0  0
 37 34  1  0  0  0  0
 38 39  1  0  0  0  0
 39 40  1  0  0  0  0
 40 41  1  0  0  0  0
 40 42  2  0  0  0  0
 42 43  1  0  0  0  0
 44 42  1  0  0  0  0
 44 45  1  0  0  0  0
 46 44  2  0  0  0  0
 47 46  1  0  0  0  0
 48 39  2  0  0  0  0
 48 46  1  0  0  0  0
 49 48  1  0  0  0  0
M  CHG  2   1  -1   2  -1
M  END
