26,27,54,55
 OpenBabel05122313063D

 56 59  0  0  0  0  0  0  0  0999 V2000
   -2.7509    0.0191   -1.5874 C   0  0  0  0  0  0  0  0  0  0  0  0
   -3.8515   -0.6268   -2.2498 C   0  0  0  0  0  0  0  0  0  0  0  0
   -3.6348   -1.5994   -2.7152 H   0  0  0  0  0  0  0  0  0  0  0  0
   -5.1159   -0.0624   -2.3011 C   0  0  0  0  0  0  0  0  0  0  0  0
   -5.9264   -0.5980   -2.8212 H   0  0  0  0  0  0  0  0  0  0  0  0
   -5.3847    1.1951   -1.6958 C   0  0  0  0  0  0  0  0  0  0  0  0
   -6.3911    1.6348   -1.7442 H   0  0  0  0  0  0  0  0  0  0  0  0
   -4.3542    1.8540   -1.0472 C   0  0  0  0  0  0  0  0  0  0  0  0
   -4.5385    2.8318   -0.5715 H   0  0  0  0  0  0  0  0  0  0  0  0
   -3.0323    1.3125   -0.9671 C   0  0  0  0  0  0  0  0  0  0  0  0
   -2.0692    2.0976   -0.2632 C   0  0  0  0  0  3  0  0  0  0  0  0
   -2.4576    3.0585    0.1406 H   0  0  0  0  0  0  0  0  0  0  0  0
    0.0248    2.7001    0.6596 C   0  0  0  0  0  0  0  0  0  0  0  0
   -0.0819    4.1068    0.5740 C   0  0  0  0  0  0  0  0  0  0  0  0
   -0.8421    4.5471   -0.0877 H   0  0  0  0  0  0  0  0  0  0  0  0
    0.7904    4.9369    1.2892 C   0  0  0  0  0  0  0  0  0  0  0  0
    0.6932    6.0294    1.2013 H   0  0  0  0  0  0  0  0  0  0  0  0
    1.8016    4.3831    2.0919 C   0  0  0  0  0  0  0  0  0  0  0  0
    2.4965    5.0357    2.6405 H   0  0  0  0  0  0  0  0  0  0  0  0
    1.9429    2.9891    2.1677 C   0  0  0  0  0  0  0  0  0  0  0  0
    2.7454    2.5281    2.7626 H   0  0  0  0  0  0  0  0  0  0  0  0
    1.0661    2.1564    1.4613 C   0  0  0  0  0  0  0  0  0  0  0  0
    0.7572    0.0887    2.6463 C   0  0  0  0  0  0  0  0  0  0  0  0
    1.0664    0.6227    3.5728 H   0  0  0  0  0  0  0  0  0  0  0  0
    1.2636   -0.8969    2.6281 H   0  0  0  0  0  0  0  0  0  0  0  0
   -0.8085    1.8005   -0.0177 N   0  0  0  0  0  2  0  0  0  0  0  0
   -1.6020   -0.5644   -1.5812 O   0  5  0  0  0  0  0  0  0  0  0  0
    1.2268    0.7837    1.4857 O   0  0  0  0  0  0  0  0  0  0  0  0
    2.7509   -0.0191   -1.5874 C   0  0  0  0  0  0  0  0  0  0  0  0
    3.8516    0.6267   -2.2498 C   0  0  0  0  0  0  0  0  0  0  0  0
    3.6349    1.5994   -2.7152 H   0  0  0  0  0  0  0  0  0  0  0  0
    5.1160    0.0624   -2.3011 C   0  0  0  0  0  0  0  0  0  0  0  0
    5.9265    0.5979   -2.8211 H   0  0  0  0  0  0  0  0  0  0  0  0
    5.3847   -1.1952   -1.6958 C   0  0  0  0  0  0  0  0  0  0  0  0
    6.3911   -1.6348   -1.7441 H   0  0  0  0  0  0  0  0  0  0  0  0
    4.3543   -1.8540   -1.0471 C   0  0  0  0  0  0  0  0  0  0  0  0
    4.5385   -2.8318   -0.5714 H   0  0  0  0  0  0  0  0  0  0  0  0
    3.0323   -1.3125   -0.9670 C   0  0  0  0  0  0  0  0  0  0  0  0
    2.0693   -2.0976   -0.2632 C   0  0  0  0  0  3  0  0  0  0  0  0
    2.4576   -3.0585    0.1407 H   0  0  0  0  0  0  0  0  0  0  0  0
   -0.0248   -2.7000    0.6597 C   0  0  0  0  0  0  0  0  0  0  0  0
    0.0819   -4.1068    0.5741 C   0  0  0  0  0  0  0  0  0  0  0  0
    0.8422   -4.5472   -0.0876 H   0  0  0  0  0  0  0  0  0  0  0  0
   -0.7905   -4.9369    1.2893 C   0  0  0  0  0  0  0  0  0  0  0  0
   -0.6932   -6.0294    1.2015 H   0  0  0  0  0  0  0  0  0  0  0  0
   -1.8017   -4.3830    2.0919 C   0  0  0  0  0  0  0  0  0  0  0  0
   -2.4965   -5.0356    2.6405 H   0  0  0  0  0  0  0  0  0  0  0  0
   -1.9430   -2.9890    2.1677 C   0  0  0  0  0  0  0  0  0  0  0  0
   -2.7455   -2.5280    2.7625 H   0  0  0  0  0  0  0  0  0  0  0  0
   -1.0661   -2.1563    1.4613 C   0  0  0  0  0  0  0  0  0  0  0  0
   -0.7573   -0.0887    2.6463 C   0  0  0  0  0  0  0  0  0  0  0  0
   -1.0666   -0.6226    3.5727 H   0  0  0  0  0  0  0  0  0  0  0  0
   -1.2637    0.8969    2.6279 H   0  0  0  0  0  0  0  0  0  0  0  0
    0.8085   -1.8005   -0.0176 N   0  0  0  0  0  2  0  0  0  0  0  0
    1.6020    0.5644   -1.5813 O   0  5  0  0  0  0  0  0  0  0  0  0
   -1.2268   -0.7837    1.4856 O   0  0  0  0  0  0  0  0  0  0  0  0
  1 27  1  0  0  0  0
  1 10  1  0  0  0  0
  2  1  2  0  0  0  0
  3  2  1  0  0  0  0
  4  2  1  0  0  0  0
  4  6  2  0  0  0  0
  5  4  1  0  0  0  0
  6  8  1  0  0  0  0
  7  6  1  0  0  0  0
  8 10  2  0  0  0  0
  8  9  1  0  0  0  0
 10 11  1  0  0  0  0
 11 26  1  0  0  0  0
 11 12  1  0  0  0  0
 13 22  1  0  0  0  0
 14 13  2  0  0  0  0
 14 16  1  0  0  0  0
 15 14  1  0  0  0  0
 16 18  2  0  0  0  0
 17 16  1  0  0  0  0
 18 20  1  0  0  0  0
 18 19  1  0  0  0  0
 20 21  1  0  0  0  0
 22 28  1  0  0  0  0
 22 20  2  0  0  0  0
 23 24  1  0  0  0  0
 25 23  1  0  0  0  0
 26 13  1  0  0  0  0
 28 23  1  0  0  0  0
 29 55  1  0  0  0  0
 29 38  1  0  0  0  0
 30 29  2  0  0  0  0
 31 30  1  0  0  0  0
 32 30  1  0  0  0  0
 32 34  2  0  0  0  0
 33 32  1  0  0  0  0
 34 36  1  0  0  0  0
 35 34  1  0  0  0  0
 36 38  2  0  0  0  0
 36 37  1  0  0  0  0
 38 39  1  0  0  0  0
 39 54  1  0  0  0  0
 39 40  1  0  0  0  0
 41 50  1  0  0  0  0
 42 41  2  0  0  0  0
 42 44  1  0  0  0  0
 43 42  1  0  0  0  0
 44 46  2  0  0  0  0
 45 44  1  0  0  0  0
 46 48  1  0  0  0  0
 46 47  1  0  0  0  0
 48 49  1  0  0  0  0
 50 56  1  0  0  0  0
 50 48  2  0  0  0  0
 51 23  1  0  0  0  0
 51 52  1  0  0  0  0
 53 51  1  0  0  0  0
 54 41  1  0  0  0  0
 56 51  1  0  0  0  0
M  CHG  2  27  -1  55  -1
M  END
