3,4,5,6
 OpenBabel05122313063D

 54 57  0  0  1  0  0  0  0  0999 V2000
   -7.1127   -2.0761    0.3852 Cl  0  0  0  0  0  0  0  0  0  0  0  0
    7.1145   -2.0753   -0.3710 Cl  0  0  0  0  0  0  0  0  0  0  0  0
   -1.2330   -2.0950   -0.0213 O   0  0  0  0  0  1  0  0  0  0  0  0
    1.2332   -2.0948    0.0111 O   0  5  0  0  0  0  0  0  0  0  0  0
   -1.2874    0.6098   -0.1225 N   0  0  0  0  0  2  0  0  0  0  0  0
    1.2871    0.6102    0.1160 N   0  0  0  0  0  2  0  0  0  0  0  0
   -3.8389    2.1616   -1.5217 C   0  0  0  0  0  0  0  0  0  0  0  0
   -3.5225    1.5930   -2.4094 H   0  0  0  0  0  0  0  0  0  0  0  0
   -4.6274    3.3135   -1.6608 C   0  0  0  0  0  0  0  0  0  0  0  0
   -4.9263    3.6523   -2.6643 H   0  0  0  0  0  0  0  0  0  0  0  0
   -5.0391    4.0280   -0.5246 C   0  0  0  0  0  0  0  0  0  0  0  0
   -5.6598    4.9299   -0.6352 H   0  0  0  0  0  0  0  0  0  0  0  0
   -4.6634    3.5851    0.7536 C   0  0  0  0  0  0  0  0  0  0  0  0
   -4.9904    4.1372    1.6477 H   0  0  0  0  0  0  0  0  0  0  0  0
   -3.8749    2.4333    0.8967 C   0  0  0  0  0  0  0  0  0  0  0  0
   -3.5847    2.0774    1.8970 H   0  0  0  0  0  0  0  0  0  0  0  0
   -3.4535    1.7169   -0.2417 C   0  0  0  0  0  0  0  0  0  0  0  0
   -2.6063    0.4869   -0.0939 C   0  0  0  0  0  0  0  0  0  0  0  0
   -3.2778   -0.7825    0.0524 C   0  0  0  0  0  0  0  0  0  0  0  0
   -4.7006   -0.8292    0.1467 C   0  0  0  0  0  0  0  0  0  0  0  0
   -5.2786    0.1039    0.1260 H   0  0  0  0  0  0  0  0  0  0  0  0
   -5.3670   -2.0397    0.2647 C   0  0  0  0  0  0  0  0  0  0  0  0
   -4.6420   -3.2579    0.2852 C   0  0  0  0  0  0  0  0  0  0  0  0
   -5.1868   -4.2087    0.3765 H   0  0  0  0  0  0  0  0  0  0  0  0
   -3.2598   -3.2403    0.1890 C   0  0  0  0  0  0  0  0  0  0  0  0
   -2.6744   -4.1705    0.2004 H   0  0  0  0  0  0  0  0  0  0  0  0
   -2.5232   -2.0159    0.0725 C   0  0  1  0  0  3  0  0  0  0  0  0
    2.5238   -2.0155   -0.0776 C   0  0  0  0  0  0  0  0  0  0  0  0
    3.2609   -3.2397   -0.1933 C   0  0  0  0  0  0  0  0  0  0  0  0
    2.6754   -4.1699   -0.2085 H   0  0  0  0  0  0  0  0  0  0  0  0
    4.6434   -3.2572   -0.2836 C   0  0  0  0  0  0  0  0  0  0  0  0
    5.1886   -4.2079   -0.3742 H   0  0  0  0  0  0  0  0  0  0  0  0
    5.3683   -2.0391   -0.2580 C   0  0  0  0  0  0  0  0  0  0  0  0
    4.7014   -0.8287   -0.1411 C   0  0  0  0  0  3  0  0  0  0  0  0
    5.2794    0.1043   -0.1165 H   0  0  0  0  0  0  0  0  0  0  0  0
    3.2782   -0.7821   -0.0529 C   0  0  0  0  0  0  0  0  0  0  0  0
    2.6061    0.4872    0.0913 C   0  0  0  0  0  0  0  0  0  0  0  0
    3.4527    1.7174    0.2413 C   0  0  0  0  0  0  0  0  0  0  0  0
    3.8817    2.4307   -0.8962 C   0  0  0  0  0  0  0  0  0  0  0  0
    3.5980    2.0721   -1.8974 H   0  0  0  0  0  0  0  0  0  0  0  0
    4.6693    3.5828   -0.7511 C   0  0  0  0  0  0  0  0  0  0  0  0
    5.0021    4.1325   -1.6445 H   0  0  0  0  0  0  0  0  0  0  0  0
    5.0367    4.0291    0.5283 C   0  0  0  0  0  0  0  0  0  0  0  0
    5.6568    4.9312    0.6406 H   0  0  0  0  0  0  0  0  0  0  0  0
    4.6175    3.3176    1.6638 C   0  0  0  0  0  0  0  0  0  0  0  0
    4.9100    3.6590    2.6683 H   0  0  0  0  0  0  0  0  0  0  0  0
    3.8297    2.1655    1.5226 C   0  0  0  0  0  0  0  0  0  0  0  0
    3.5075    1.5994    2.4097 H   0  0  0  0  0  0  0  0  0  0  0  0
    0.6641    1.9171    0.3585 C   0  0  0  0  0  0  0  0  0  0  0  0
    1.3062    2.7556    0.0248 H   0  0  0  0  0  0  0  0  0  0  0  0
    0.4974    2.0384    1.4522 H   0  0  0  0  0  0  0  0  0  0  0  0
   -0.6646    1.9160   -0.3688 C   0  0  0  0  0  0  0  0  0  0  0  0
   -1.3067    2.7556   -0.0377 H   0  0  0  0  0  0  0  0  0  0  0  0
   -0.4979    2.0339   -1.4629 H   0  0  0  0  0  0  0  0  0  0  0  0
  2 33  1  0  0  0  0
  5 18  1  0  0  0  0
  6 49  1  0  0  0  0
  7 17  1  0  0  0  0
  8  7  1  0  0  0  0
  9  7  2  0  0  0  0
  9 11  1  0  0  0  0
 10  9  1  0  0  0  0
 11 13  2  0  0  0  0
 12 11  1  0  0  0  0
 13 15  1  0  0  0  0
 13 14  1  0  0  0  0
 15 16  1  0  0  0  0
 17 18  1  0  0  0  0
 17 15  2  0  0  0  0
 18 19  2  0  0  0  0
 19 27  1  0  0  0  0
 19 20  1  0  0  0  0
 20 22  2  0  0  0  0
 21 20  1  0  0  0  0
 22 23  1  0  0  0  0
 22  1  1  0  0  0  0
 23 24  1  0  0  0  0
 25 26  1  0  0  0  0
 25 23  2  0  0  0  0
 27  3  1  6  0  0  0
 27 25  1  0  0  0  0
 28 36  1  0  0  0  0
 28  4  1  0  0  0  0
 29 28  2  0  0  0  0
 30 29  1  0  0  0  0
 31 33  2  0  0  0  0
 31 29  1  0  0  0  0
 32 31  1  0  0  0  0
 33 34  1  0  0  0  0
 34 35  1  0  0  0  0
 34 36  1  0  0  0  0
 36 37  2  0  0  0  0
 37  6  1  0  0  0  0
 37 38  1  0  0  0  0
 38 47  1  0  0  0  0
 39 41  1  0  0  0  0
 39 38  2  0  0  0  0
 40 39  1  0  0  0  0
 41 43  2  0  0  0  0
 42 41  1  0  0  0  0
 43 44  1  0  0  0  0
 43 45  1  0  0  0  0
 45 46  1  0  0  0  0
 47 45  2  0  0  0  0
 47 48  1  0  0  0  0
 49 51  1  0  0  0  0
 50 49  1  0  0  0  0
 52  5  1  0  0  0  0
 52 53  1  0  0  0  0
 52 49  1  0  0  0  0
 54 52  1  0  0  0  0
M  CHG  1   4  -1
M  END
