21,22,23,24
 OpenBabel05122313063D

 26 26  0  0  0  0  0  0  0  0999 V2000
   -2.1996   -0.7508    0.0001 C   0  0  0  0  0  0  0  0  0  0  0  0
   -3.3327   -1.6338   -0.0001 C   0  0  0  0  0  0  0  0  0  0  0  0
   -3.1112   -2.7117    0.0000 H   0  0  0  0  0  0  0  0  0  0  0  0
   -4.6384   -1.1576   -0.0003 C   0  0  0  0  0  0  0  0  0  0  0  0
   -5.4757   -1.8752   -0.0005 H   0  0  0  0  0  0  0  0  0  0  0  0
   -4.9081    0.2351   -0.0004 C   0  0  0  0  0  0  0  0  0  0  0  0
   -5.9443    0.6055   -0.0006 H   0  0  0  0  0  0  0  0  0  0  0  0
   -3.8362    1.1227   -0.0002 C   0  0  0  0  0  3  0  0  0  0  0  0
   -4.0202    2.2110   -0.0003 H   0  0  0  0  0  0  0  0  0  0  0  0
   -2.4858    0.6763    0.0000 C   0  0  0  0  0  0  0  0  0  0  0  0
   -1.4282    1.6444    0.0003 C   0  0  0  0  0  0  0  0  0  0  0  0
   -1.7269    2.7140    0.0005 H   0  0  0  0  0  0  0  0  0  0  0  0
    0.8349    2.4545    0.0010 C   0  0  0  0  0  0  0  0  0  0  0  0
    0.7074    3.1043    0.8954 H   0  0  0  0  0  0  0  0  0  0  0  0
    0.7066    3.1061   -0.8920 H   0  0  0  0  0  0  0  0  0  0  0  0
    2.2663    1.8861   -0.0001 C   0  0  0  0  0  0  0  0  0  0  0  0
    3.3827   -0.3076   -0.0013 C   0  0  0  0  0  0  0  0  0  0  0  0
    4.0368   -0.1372    0.8854 H   0  0  0  0  0  0  0  0  0  0  0  0
    4.0345   -0.1386   -0.8900 H   0  0  0  0  0  0  0  0  0  0  0  0
    2.8941   -1.7730    0.0001 C   0  0  0  0  0  0  0  0  0  0  0  0
    2.2184    0.5409   -0.0005 N   0  0  0  0  0  2  0  0  0  0  0  0
   -0.1437    1.3653    0.0004 N   0  0  0  0  0  2  0  0  0  0  0  0
   -1.0100   -1.2578    0.0004 O   0  5  0  0  0  0  0  0  0  0  0  0
    1.5840   -1.8978    0.0000 O   0  5  0  0  0  0  0  0  0  0  0  0
    3.6801   -2.7184    0.0008 O   0  0  0  0  0  0  0  0  0  0  0  0
    3.2742    2.6112   -0.0003 O   0  0  0  0  0  0  0  0  0  0  0  0
  1 23  1  0  0  0  0
  2  3  1  0  0  0  0
  2  1  2  0  0  0  0
  4  2  1  0  0  0  0
  5  4  1  0  0  0  0
  6  4  2  0  0  0  0
  6  8  1  0  0  0  0
  7  6  1  0  0  0  0
  8 10  1  0  0  0  0
  9  8  1  0  0  0  0
 10  1  1  0  0  0  0
 10 11  2  0  0  0  0
 11 22  1  0  0  0  0
 11 12  1  0  0  0  0
 13 14  1  0  0  0  0
 15 13  1  0  0  0  0
 16 13  1  0  0  0  0
 17 21  1  0  0  0  0
 17 20  1  0  0  0  0
 17 18  1  0  0  0  0
 19 17  1  0  0  0  0
 20 25  2  0  0  0  0
 21 16  1  0  0  0  0
 22 13  1  0  0  0  0
 24 20  1  0  0  0  0
 26 16  2  0  0  0  0
M  CHG  2  23  -1  24  -1
M  END
