17,18,19,20
 OpenBabel05122313063D

 52 51  0  0  1  0  0  0  0  0999 V2000
   -2.4117   -0.5700    1.6460 F   0  0  0  0  0  0  0  0  0  0  0  0
   -3.8318    1.0575    1.1898 F   0  0  0  0  0  0  0  0  0  0  0  0
   -3.1377    0.7098   -1.5582 F   0  0  0  0  0  0  0  0  0  0  0  0
   -2.0644   -1.1222   -0.9584 F   0  0  0  0  0  0  0  0  0  0  0  0
   -4.2716   -2.1001    0.2713 F   0  0  0  0  0  0  0  0  0  0  0  0
   -4.4575   -1.6574   -1.8865 F   0  0  0  0  0  0  0  0  0  0  0  0
   -6.7306   -1.2111   -0.6659 F   0  0  0  0  0  0  0  0  0  0  0  0
   -5.8151    0.7408   -1.1473 F   0  0  0  0  0  0  0  0  0  0  0  0
    4.1241   -2.2141   -1.8008 F   0  0  0  0  0  0  0  0  0  0  0  0
    1.9214   -2.3769   -1.7806 F   0  0  0  0  0  0  0  0  0  0  0  0
    4.2752   -2.3011    0.8326 F   0  0  0  0  0  0  0  0  0  0  0  0
    3.1079   -3.9738   -0.0068 F   0  0  0  0  0  0  0  0  0  0  0  0
    2.1730   -3.2627    2.3227 F   0  0  0  0  0  0  0  0  0  0  0  0
    2.1788   -1.1160    1.8255 F   0  0  0  0  0  0  0  0  0  0  0  0
   -0.2798   -2.3546    1.9569 F   0  0  0  0  0  0  0  0  0  0  0  0
    0.2987   -3.6875    0.2896 F   0  0  0  0  0  0  0  0  0  0  0  0
   -0.4411    0.8093    0.2588 O   0  0  0  0  0  1  0  0  0  0  0  0
    1.6630   -0.0025   -0.7008 O   0  5  0  0  0  0  0  0  0  0  0  0
    0.5758    3.3494    0.4691 N   0  0  0  0  0  2  0  0  0  0  0  0
    2.7945    2.4741   -0.5189 N   0  0  0  0  0  2  0  0  0  0  0  0
   -1.5285    1.3814    0.6276 C   0  0  2  0  0  3  0  0  0  0  0  0
   -1.7109    2.7259    0.9254 C   0  0  0  0  0  0  0  0  0  0  0  0
   -2.7037    3.0666    1.2372 H   0  0  0  0  0  0  0  0  0  0  0  0
   -0.6439    3.6692    0.8942 C   0  0  0  0  0  0  0  0  0  0  0  0
    1.6819    4.2996    0.5731 C   0  0  0  0  0  0  0  0  0  0  0  0
    1.3526    5.3505    0.4448 H   0  0  0  0  0  0  0  0  0  0  0  0
    2.1441    4.2159    1.5839 H   0  0  0  0  0  0  0  0  0  0  0  0
    2.6997    3.9316   -0.4910 C   0  0  0  0  0  0  0  0  0  0  0  0
    3.6734    4.4174   -0.2785 H   0  0  0  0  0  0  0  0  0  0  0  0
    2.3556    4.2975   -1.4861 H   0  0  0  0  0  0  0  0  0  0  0  0
    3.9073    1.8630   -0.9196 C   0  0  1  0  0  3  0  0  0  0  0  0
    3.9822    0.4493   -1.0763 C   0  0  0  0  0  0  0  0  0  0  0  0
    4.9436   -0.0080   -1.3345 H   0  0  0  0  0  0  0  0  0  0  0  0
    2.8663   -0.3672   -0.9579 C   0  0  0  0  0  0  0  0  0  0  0  0
   -2.7048    0.4005    0.7466 C   0  0  0  0  0  0  0  0  0  0  0  0
   -3.0620   -0.2680   -0.6175 C   0  0  0  0  0  0  0  0  0  0  0  0
   -4.3848   -1.1036   -0.6497 C   0  0  0  0  0  0  0  0  0  0  0  0
   -5.7155   -0.3627   -0.3622 C   0  0  0  0  0  0  0  0  0  0  0  0
   -5.7857   -0.0712    0.7067 H   0  0  0  0  0  0  0  0  0  0  0  0
   -0.9355    5.0681    1.3893 C   0  0  0  0  0  0  0  0  0  0  0  0
   -0.3101    5.3204    2.2708 H   0  0  0  0  0  0  0  0  0  0  0  0
   -1.9953    5.1630    1.6834 H   0  0  0  0  0  0  0  0  0  0  0  0
   -0.7253    5.8301    0.6103 H   0  0  0  0  0  0  0  0  0  0  0  0
    5.1463    2.6678   -1.2419 C   0  0  0  0  0  0  0  0  0  0  0  0
    5.4747    3.2787   -0.3757 H   0  0  0  0  0  0  0  0  0  0  0  0
    4.9640    3.3659   -2.0853 H   0  0  0  0  0  0  0  0  0  0  0  0
    5.9787    2.0002   -1.5249 H   0  0  0  0  0  0  0  0  0  0  0  0
    2.9980   -1.8869   -1.1042 C   0  0  0  0  0  0  0  0  0  0  0  0
    3.0876   -2.6460    0.2587 C   0  0  0  0  0  0  0  0  0  0  0  0
    1.9728   -2.3671    1.3189 C   0  0  0  0  0  0  0  0  0  0  0  0
    0.5006   -2.4631    0.8490 C   0  0  0  0  0  0  0  0  0  0  0  0
    0.2441   -1.6577    0.1307 H   0  0  0  0  0  0  0  0  0  0  0  0
  3 36  1  0  0  0  0
  4 36  1  0  0  0  0
  6 37  1  0  0  0  0
  7 38  1  0  0  0  0
  8 38  1  0  0  0  0
  9 48  1  0  0  0  0
 10 48  1  0  0  0  0
 12 49  1  0  0  0  0
 16 51  1  0  0  0  0
 19 25  1  0  0  0  0
 19 24  1  0  0  0  0
 20 28  1  0  0  0  0
 21 17  1  1  0  0  0
 21 35  1  0  0  0  0
 21 22  1  0  0  0  0
 22 23  1  0  0  0  0
 24 22  2  0  0  0  0
 24 40  1  0  0  0  0
 25 27  1  0  0  0  0
 26 25  1  0  0  0  0
 28 29  1  0  0  0  0
 28 25  1  0  0  0  0
 30 28  1  0  0  0  0
 31 32  1  6  0  0  0
 31 20  1  0  0  0  0
 32 34  2  0  0  0  0
 33 32  1  0  0  0  0
 34 18  1  0  0  0  0
 35  2  1  0  0  0  0
 35  1  1  0  0  0  0
 36 35  1  0  0  0  0
 37 36  1  0  0  0  0
 37 38  1  0  0  0  0
 37  5  1  0  0  0  0
 38 39  1  0  0  0  0
 40 42  1  0  0  0  0
 40 41  1  0  0  0  0
 43 40  1  0  0  0  0
 44 31  1  0  0  0  0
 44 45  1  0  0  0  0
 46 44  1  0  0  0  0
 47 44  1  0  0  0  0
 48 34  1  0  0  0  0
 48 49  1  0  0  0  0
 49 11  1  0  0  0  0
 49 50  1  0  0  0  0
 50 14  1  0  0  0  0
 50 13  1  0  0  0  0
 51 50  1  0  0  0  0
 51 15  1  0  0  0  0
 52 51  1  0  0  0  0
M  CHG  1  18  -1
M  END
