1,2,13,15
 OpenBabel05122313063D

 32 32  0  0  0  0  0  0  0  0999 V2000
   -1.4243    0.9917    0.3863 N   0  0  0  0  0  0  0  0  0  0  0  0
    1.4241    0.9918    0.3863 N   0  0  0  0  0  0  0  0  0  0  0  0
   -1.3204    2.2501   -0.4248 C   0  0  0  0  0  0  0  0  0  0  0  0
   -0.0002    2.3694   -1.2033 C   0  0  0  0  0  0  0  0  0  0  0  0
    1.3201    2.2502   -0.4248 C   0  0  0  0  0  0  0  0  0  0  0  0
    1.2863    1.2446    1.8426 C   0  0  0  0  0  0  0  0  0  0  0  0
   -0.0001    1.9679    2.2300 C   0  0  0  0  0  0  0  0  0  0  0  0
   -1.2864    1.2447    1.8426 C   0  0  0  0  0  0  0  0  0  0  0  0
   -2.6844    0.2566    0.0965 C   0  0  0  0  0  0  0  0  0  0  0  0
   -2.5932   -0.3581   -1.3121 C   0  0  0  0  0  0  0  0  0  0  0  0
    2.6843    0.2569    0.0964 C   0  0  0  0  0  0  0  0  0  0  0  0
    2.5931   -0.3577   -1.3123 C   0  0  0  0  0  0  0  0  0  0  0  0
   -1.3766   -0.7362   -1.6148 O   0  5  0  0  0  0  0  0  0  0  0  0
   -3.5848   -0.4730   -2.0301 O   0  0  0  0  0  0  0  0  0  0  0  0
    1.3766   -0.7361   -1.6148 O   0  5  0  0  0  0  0  0  0  0  0  0
    3.5847   -0.4726   -2.0302 O   0  0  0  0  0  0  0  0  0  0  0  0
   -1.4862    3.1296    0.2356 H   0  0  0  0  0  0  0  0  0  0  0  0
   -2.1459    2.2442   -1.1638 H   0  0  0  0  0  0  0  0  0  0  0  0
   -0.0001    1.5891   -1.9979 H   0  0  0  0  0  0  0  0  0  0  0  0
   -0.0002    3.3454   -1.7372 H   0  0  0  0  0  0  0  0  0  0  0  0
    1.4857    3.1297    0.2357 H   0  0  0  0  0  0  0  0  0  0  0  0
    2.1456    2.2445   -1.1638 H   0  0  0  0  0  0  0  0  0  0  0  0
    1.3272    0.2393    2.3142 H   0  0  0  0  0  0  0  0  0  0  0  0
    2.1658    1.8437    2.1824 H   0  0  0  0  0  0  0  0  0  0  0  0
   -0.0001    3.0121    1.8448 H   0  0  0  0  0  0  0  0  0  0  0  0
   -0.0001    2.0678    3.3356 H   0  0  0  0  0  0  0  0  0  0  0  0
   -2.1660    1.8438    2.1823 H   0  0  0  0  0  0  0  0  0  0  0  0
   -1.3274    0.2393    2.3143 H   0  0  0  0  0  0  0  0  0  0  0  0
   -2.7232   -0.5840    0.8219 H   0  0  0  0  0  0  0  0  0  0  0  0
   -3.5775    0.9117    0.2014 H   0  0  0  0  0  0  0  0  0  0  0  0
    3.5774    0.9121    0.2014 H   0  0  0  0  0  0  0  0  0  0  0  0
    2.7232   -0.5838    0.8217 H   0  0  0  0  0  0  0  0  0  0  0  0
  1  8  1  0  0  0  0
  2  6  1  0  0  0  0
  3 17  1  0  0  0  0
  3  1  1  0  0  0  0
  4  3  1  0  0  0  0
  4  5  1  0  0  0  0
  5 21  1  0  0  0  0
  5  2  1  0  0  0  0
  6 24  1  0  0  0  0
  6  7  1  0  0  0  0
  6 23  1  0  0  0  0
  7 26  1  0  0  0  0
  8 27  1  0  0  0  0
  8  7  1  0  0  0  0
  8 28  1  0  0  0  0
  9 30  1  0  0  0  0
  9  1  1  0  0  0  0
  9 29  1  0  0  0  0
 10  9  1  0  0  0  0
 11 31  1  0  0  0  0
 11  2  1  0  0  0  0
 11 32  1  0  0  0  0
 12 11  1  0  0  0  0
 13 10  1  0  0  0  0
 14 10  2  0  0  0  0
 15 12  1  0  0  0  0
 16 12  2  0  0  0  0
 18  3  1  0  0  0  0
 19  4  1  0  0  0  0
 20  4  1  0  0  0  0
 22  5  1  0  0  0  0
 25  7  1  0  0  0  0
M  CHG  2  13  -1  15  -1
M  END
