3,4,5,6
 OpenBabel05122313063D

 44 46  0  0  0  0  0  0  0  0999 V2000
    1.3587    5.7307    0.0002 F   0  0  0  0  0  0  0  0  0  0  0  0
   -1.3587    5.7307    0.0005 F   0  0  0  0  0  0  0  0  0  0  0  0
    1.3686   -2.0996    0.0002 O   0  5  0  0  0  0  0  0  0  0  0  0
   -1.3686   -2.0996    0.0002 O   0  5  0  0  0  0  0  0  0  0  0  0
    1.3172    0.8580   -0.0001 N   0  0  0  0  0  2  0  0  0  0  0  0
   -1.3172    0.8580   -0.0001 N   0  0  0  0  0  2  0  0  0  0  0  0
    2.6532   -1.8899    0.0001 C   0  0  0  0  0  0  0  0  0  0  0  0
    0.7136    2.1334   -0.0001 C   0  0  0  0  0  0  0  0  0  0  0  0
   -0.7136    2.1334   -0.0001 C   0  0  0  0  0  0  0  0  0  0  0  0
    2.6287    0.6612   -0.0003 C   0  0  0  0  0  0  0  0  0  0  0  0
    3.2755    1.5562   -0.0007 H   0  0  0  0  0  0  0  0  0  0  0  0
   -2.6287    0.6612   -0.0007 C   0  0  0  0  0  0  0  0  0  0  0  0
   -3.2755    1.5562   -0.0013 H   0  0  0  0  0  0  0  0  0  0  0  0
   -2.6532   -1.8899    0.0002 C   0  0  0  0  0  0  0  0  0  0  0  0
    3.3062   -0.5898   -0.0002 C   0  0  0  0  0  0  0  0  0  0  0  0
   -3.3062   -0.5898   -0.0004 C   0  0  0  0  0  0  0  0  0  0  0  0
    4.8797   -2.9368    0.0002 C   0  0  0  0  0  0  0  0  0  0  0  0
    5.4886   -3.8558    0.0003 H   0  0  0  0  0  0  0  0  0  0  0  0
   -4.7407   -0.5390   -0.0007 C   0  0  0  0  0  3  0  0  0  0  0  0
   -5.2154    0.4564   -0.0012 H   0  0  0  0  0  0  0  0  0  0  0  0
    1.4101    3.3596   -0.0000 C   0  0  0  0  0  0  0  0  0  0  0  0
    2.5062    3.4126   -0.0001 H   0  0  0  0  0  0  0  0  0  0  0  0
    5.5413   -1.6699   -0.0002 C   0  0  0  0  0  0  0  0  0  0  0  0
    4.7407   -0.5390   -0.0004 C   0  0  0  0  0  3  0  0  0  0  0  0
    5.2154    0.4564   -0.0007 H   0  0  0  0  0  0  0  0  0  0  0  0
   -4.8797   -2.9368    0.0005 C   0  0  0  0  0  0  0  0  0  0  0  0
   -5.4886   -3.8558    0.0010 H   0  0  0  0  0  0  0  0  0  0  0  0
   -3.5010   -3.0443    0.0007 C   0  0  0  0  0  0  0  0  0  0  0  0
   -2.9989   -4.0222    0.0013 H   0  0  0  0  0  0  0  0  0  0  0  0
    3.5010   -3.0443    0.0003 C   0  0  0  0  0  0  0  0  0  0  0  0
    2.9989   -4.0222    0.0006 H   0  0  0  0  0  0  0  0  0  0  0  0
   -1.4101    3.3596    0.0002 C   0  0  0  0  0  0  0  0  0  0  0  0
   -2.5062    3.4126    0.0004 H   0  0  0  0  0  0  0  0  0  0  0  0
   -5.5413   -1.6699   -0.0002 C   0  0  0  0  0  0  0  0  0  0  0  0
   -0.7058    4.5606    0.0002 C   0  0  0  0  0  0  0  0  0  0  0  0
    0.7058    4.5606    0.0001 C   0  0  0  0  0  0  0  0  0  0  0  0
    7.0462   -1.5951   -0.0003 C   0  0  0  0  0  0  0  0  0  0  0  0
    7.4774   -2.0986    0.8908 H   0  0  0  0  0  0  0  0  0  0  0  0
    7.4031   -0.5470   -0.0010 H   0  0  0  0  0  0  0  0  0  0  0  0
    7.4773   -2.0998   -0.8908 H   0  0  0  0  0  0  0  0  0  0  0  0
   -7.0462   -1.5951   -0.0005 C   0  0  0  0  0  0  0  0  0  0  0  0
   -7.4031   -0.5470   -0.0009 H   0  0  0  0  0  0  0  0  0  0  0  0
   -7.4775   -2.0988    0.8904 H   0  0  0  0  0  0  0  0  0  0  0  0
   -7.4772   -2.0995   -0.8911 H   0  0  0  0  0  0  0  0  0  0  0  0
  5  8  1  0  0  0  0
  6  9  1  0  0  0  0
  7  3  1  0  0  0  0
  7 30  2  0  0  0  0
  8  9  2  0  0  0  0
  8 21  1  0  0  0  0
  9 32  1  0  0  0  0
 10 15  2  0  0  0  0
 10  5  1  0  0  0  0
 11 10  1  0  0  0  0
 12 16  2  0  0  0  0
 12  6  1  0  0  0  0
 13 12  1  0  0  0  0
 14  4  1  0  0  0  0
 14 28  2  0  0  0  0
 15  7  1  0  0  0  0
 16 14  1  0  0  0  0
 17 30  1  0  0  0  0
 17 18  1  0  0  0  0
 19 16  1  0  0  0  0
 19 34  1  0  0  0  0
 20 19  1  0  0  0  0
 21 36  2  0  0  0  0
 22 21  1  0  0  0  0
 23 17  2  0  0  0  0
 24 15  1  0  0  0  0
 24 23  1  0  0  0  0
 25 24  1  0  0  0  0
 26 28  1  0  0  0  0
 26 27  1  0  0  0  0
 28 29  1  0  0  0  0
 30 31  1  0  0  0  0
 32 35  2  0  0  0  0
 32 33  1  0  0  0  0
 34 26  2  0  0  0  0
 35  2  1  0  0  0  0
 36  1  1  0  0  0  0
 36 35  1  0  0  0  0
 37 23  1  0  0  0  0
 37 38  1  0  0  0  0
 39 37  1  0  0  0  0
 40 37  1  0  0  0  0
 41 34  1  0  0  0  0
 41 43  1  0  0  0  0
 42 41  1  0  0  0  0
 44 41  1  0  0  0  0
M  CHG  2   3  -1   4  -1
M  END
