1,2,4,6
 OpenBabel05122313063D

 63 62  0  0  1  0  0  0  0  0999 V2000
    2.2308   -1.0800    0.2691 O   0  0  0  0  0  1  0  0  0  0  0  0
   -2.1283   -1.1346    0.0263 O   0  0  0  0  0  1  0  0  0  0  0  0
   -3.6784    0.4914   -0.4664 N   0  0  0  0  0  0  0  0  0  0  0  0
    1.4137    0.9503    0.5022 N   0  0  0  0  0  2  0  0  0  0  0  0
    3.6678    0.5862   -0.3886 N   0  0  0  0  0  0  0  0  0  0  0  0
   -1.4056    0.9265    0.3247 N   0  0  0  0  0  2  0  0  0  0  0  0
   -1.3139    2.3486    0.5231 C   0  0  0  0  0  0  0  0  0  0  0  0
   -2.2149    2.7374    1.0529 H   0  0  0  0  0  0  0  0  0  0  0  0
   -1.2475    2.8995   -0.4482 H   0  0  0  0  0  0  0  0  0  0  0  0
    2.4629    0.2033    0.1346 C   0  0  2  0  0  3  0  0  0  0  0  0
   -4.7439   -0.5371   -0.5661 C   0  0  0  0  0  0  0  0  0  0  0  0
   -5.6493    0.0428   -0.8400 H   0  0  0  0  0  0  0  0  0  0  0  0
   -0.0899    4.2934    1.4793 C   0  0  0  0  0  0  0  0  0  0  0  0
   -1.0161    4.6388    1.9823 H   0  0  0  0  0  0  0  0  0  0  0  0
   -0.0403    4.7858    0.4852 H   0  0  0  0  0  0  0  0  0  0  0  0
    0.7710    4.6528    2.0791 H   0  0  0  0  0  0  0  0  0  0  0  0
    3.8768    1.9122   -1.0011 C   0  0  0  0  0  0  0  0  0  0  0  0
    2.9805    2.5026   -0.7602 H   0  0  0  0  0  0  0  0  0  0  0  0
    1.2275    2.3741    0.5975 C   0  0  0  0  0  0  0  0  0  0  0  0
    1.1665    2.8587   -0.4087 H   0  0  0  0  0  0  0  0  0  0  0  0
    2.0839    2.8468    1.1337 H   0  0  0  0  0  0  0  0  0  0  0  0
   -0.0709    2.7610    1.3544 C   0  0  0  0  0  0  0  0  0  0  0  0
   -3.9896    1.8376   -0.9815 C   0  0  0  0  0  0  0  0  0  0  0  0
   -3.0508    2.4100   -0.9197 H   0  0  0  0  0  0  0  0  0  0  0  0
   -2.4258    0.1415   -0.0343 C   0  0  2  0  0  3  0  0  0  0  0  0
    4.7308   -0.4290   -0.6023 C   0  0  0  0  0  0  0  0  0  0  0  0
    5.5736    0.1563   -1.0228 H   0  0  0  0  0  0  0  0  0  0  0  0
    4.3794   -1.5087   -1.6382 C   0  0  0  0  0  0  0  0  0  0  0  0
    3.6598   -2.2346   -1.2198 H   0  0  0  0  0  0  0  0  0  0  0  0
    5.3006   -2.0490   -1.9384 H   0  0  0  0  0  0  0  0  0  0  0  0
    3.9241   -1.0644   -2.5435 H   0  0  0  0  0  0  0  0  0  0  0  0
    5.2185   -1.0225    0.7245 C   0  0  0  0  0  0  0  0  0  0  0  0
    5.5318   -0.2221    1.4240 H   0  0  0  0  0  0  0  0  0  0  0  0
    6.0866   -1.6893    0.5488 H   0  0  0  0  0  0  0  0  0  0  0  0
    4.4162   -1.6149    1.2040 H   0  0  0  0  0  0  0  0  0  0  0  0
    3.9369    1.8253   -2.5331 C   0  0  0  0  0  0  0  0  0  0  0  0
    4.8305    1.2713   -2.8864 H   0  0  0  0  0  0  0  0  0  0  0  0
    3.9856    2.8441   -2.9682 H   0  0  0  0  0  0  0  0  0  0  0  0
    3.0304    1.3198   -2.9217 H   0  0  0  0  0  0  0  0  0  0  0  0
   -4.5094   -1.5656   -1.6817 C   0  0  0  0  0  0  0  0  0  0  0  0
   -4.3064   -1.0685   -2.6496 H   0  0  0  0  0  0  0  0  0  0  0  0
   -5.4104   -2.2012   -1.8025 H   0  0  0  0  0  0  0  0  0  0  0  0
   -3.6451   -2.2087   -1.4378 H   0  0  0  0  0  0  0  0  0  0  0  0
    5.0768    2.6474   -0.3924 C   0  0  0  0  0  0  0  0  0  0  0  0
    4.9744    2.7243    0.7085 H   0  0  0  0  0  0  0  0  0  0  0  0
    5.1466    3.6726   -0.8078 H   0  0  0  0  0  0  0  0  0  0  0  0
    6.0379    2.1390   -0.6130 H   0  0  0  0  0  0  0  0  0  0  0  0
   -0.1113    2.1178    2.7476 C   0  0  0  0  0  0  0  0  0  0  0  0
    0.7782    2.4120    3.3420 H   0  0  0  0  0  0  0  0  0  0  0  0
   -0.1302    1.0123    2.6733 H   0  0  0  0  0  0  0  0  0  0  0  0
   -1.0158    2.4458    3.3006 H   0  0  0  0  0  0  0  0  0  0  0  0
   -5.0351    2.5578   -0.1205 C   0  0  0  0  0  0  0  0  0  0  0  0
   -6.0172    2.0420   -0.1458 H   0  0  0  0  0  0  0  0  0  0  0  0
   -5.1955    3.5909   -0.4889 H   0  0  0  0  0  0  0  0  0  0  0  0
   -4.7063    2.6121    0.9365 H   0  0  0  0  0  0  0  0  0  0  0  0
   -5.0355   -1.1951    0.7880 C   0  0  0  0  0  0  0  0  0  0  0  0
   -4.1860   -1.8268    1.1088 H   0  0  0  0  0  0  0  0  0  0  0  0
   -5.9370   -1.8358    0.7127 H   0  0  0  0  0  0  0  0  0  0  0  0
   -5.2182   -0.4290    1.5676 H   0  0  0  0  0  0  0  0  0  0  0  0
   -4.3713    1.8085   -2.4689 C   0  0  0  0  0  0  0  0  0  0  0  0
   -3.5790    1.3148   -3.0650 H   0  0  0  0  0  0  0  0  0  0  0  0
   -4.4933    2.8444   -2.8446 H   0  0  0  0  0  0  0  0  0  0  0  0
   -5.3284    1.2780   -2.6485 H   0  0  0  0  0  0  0  0  0  0  0  0
  3 25  1  0  0  0  0
  4 19  1  0  0  0  0
  5 10  1  0  0  0  0
  6  7  1  0  0  0  0
  7  8  1  0  0  0  0
  7 22  1  0  0  0  0
  9  7  1  0  0  0  0
 10  1  1  6  0  0  0
 10  4  1  0  0  0  0
 11  3  1  0  0  0  0
 11 56  1  0  0  0  0
 12 11  1  0  0  0  0
 13 14  1  0  0  0  0
 13 16  1  0  0  0  0
 15 13  1  0  0  0  0
 17 18  1  0  0  0  0
 17 44  1  0  0  0  0
 17  5  1  0  0  0  0
 19 21  1  0  0  0  0
 19 22  1  0  0  0  0
 20 19  1  0  0  0  0
 22 13  1  0  0  0  0
 22 48  1  0  0  0  0
 23 24  1  0  0  0  0
 23  3  1  0  0  0  0
 23 52  1  0  0  0  0
 25  2  1  6  0  0  0
 25  6  1  0  0  0  0
 26  5  1  0  0  0  0
 26 32  1  0  0  0  0
 27 26  1  0  0  0  0
 28 29  1  0  0  0  0
 28 26  1  0  0  0  0
 30 28  1  0  0  0  0
 31 28  1  0  0  0  0
 32 35  1  0  0  0  0
 32 33  1  0  0  0  0
 34 32  1  0  0  0  0
 36 17  1  0  0  0  0
 37 36  1  0  0  0  0
 38 36  1  0  0  0  0
 39 36  1  0  0  0  0
 40 43  1  0  0  0  0
 40 11  1  0  0  0  0
 41 40  1  0  0  0  0
 42 40  1  0  0  0  0
 44 45  1  0  0  0  0
 46 44  1  0  0  0  0
 47 44  1  0  0  0  0
 48 51  1  0  0  0  0
 48 49  1  0  0  0  0
 50 48  1  0  0  0  0
 52 55  1  0  0  0  0
 53 52  1  0  0  0  0
 54 52  1  0  0  0  0
 56 57  1  0  0  0  0
 56 59  1  0  0  0  0
 58 56  1  0  0  0  0
 60 23  1  0  0  0  0
 61 60  1  0  0  0  0
 62 60  1  0  0  0  0
 63 60  1  0  0  0  0
M  END
