1,2,28,29
 OpenBabel05122313063D

 54 57  0  0  0  0  0  0  0  0999 V2000
   -1.4903    2.3441    0.0894 O   0  5  0  0  0  0  0  0  0  0  0  0
   -1.4813   -0.4021    0.3709 N   0  0  0  0  0  2  0  0  0  0  0  0
   -2.7213    2.2389   -0.3719 C   0  0  0  0  0  0  0  0  0  0  0  0
   -3.4349    3.3944   -0.7694 C   0  0  0  0  0  0  0  0  0  0  0  0
   -2.9229    4.3641   -0.6969 H   0  0  0  0  0  0  0  0  0  0  0  0
   -4.7397    3.2863   -1.2540 C   0  0  0  0  0  0  0  0  0  0  0  0
   -5.2727    4.1945   -1.5751 H   0  0  0  0  0  0  0  0  0  0  0  0
   -5.3836    2.0323   -1.3323 C   0  0  0  0  0  0  0  0  0  0  0  0
   -6.4137    1.9601   -1.7096 H   0  0  0  0  0  0  0  0  0  0  0  0
   -4.7041    0.8894   -0.9151 C   0  0  0  0  0  0  0  0  0  0  0  0
   -5.1986   -0.0943   -0.9510 H   0  0  0  0  0  0  0  0  0  0  0  0
   -3.3672    0.9587   -0.4472 C   0  0  0  0  0  0  0  0  0  0  0  0
   -2.7448   -0.2351    0.0769 C   0  0  0  0  0  3  0  0  0  0  0  0
   -3.4346   -1.0790    0.2881 H   0  0  0  0  0  0  0  0  0  0  0  0
   -1.1577   -1.5451    1.1599 C   0  0  0  0  0  0  0  0  0  0  0  0
   -0.2855   -2.5533    0.6853 C   0  0  0  0  0  0  0  0  0  0  0  0
   -0.0349   -3.6500    1.5356 C   0  0  0  0  0  0  0  0  0  0  0  0
    0.6298   -4.4488    1.1732 H   0  0  0  0  0  0  0  0  0  0  0  0
   -0.5985   -3.7395    2.8141 C   0  0  0  0  0  0  0  0  0  0  0  0
   -0.3644   -4.6049    3.4535 H   0  0  0  0  0  0  0  0  0  0  0  0
   -1.4552   -2.7308    3.2935 C   0  0  0  0  0  0  0  0  0  0  0  0
   -1.7272   -1.6454    2.4427 C   0  0  0  0  0  0  0  0  0  0  0  0
   -2.3669   -0.8199    2.7894 H   0  0  0  0  0  0  0  0  0  0  0  0
   -2.0326   -2.7768    4.6847 C   0  0  0  0  0  0  0  0  0  0  0  0
   -1.9823   -3.7958    5.1150 H   0  0  0  0  0  0  0  0  0  0  0  0
   -3.0902   -2.4450    4.6997 H   0  0  0  0  0  0  0  0  0  0  0  0
   -1.4726   -2.0989    5.3639 H   0  0  0  0  0  0  0  0  0  0  0  0
    1.4904    2.3440   -0.0892 O   0  5  0  0  0  0  0  0  0  0  0  0
    1.4813   -0.4022   -0.3709 N   0  0  0  0  0  2  0  0  0  0  0  0
    2.7214    2.2387    0.3720 C   0  0  0  0  0  0  0  0  0  0  0  0
    3.4351    3.3942    0.7695 C   0  0  0  0  0  0  0  0  0  0  0  0
    2.9231    4.3639    0.6971 H   0  0  0  0  0  0  0  0  0  0  0  0
    4.7399    3.2860    1.2540 C   0  0  0  0  0  0  0  0  0  0  0  0
    5.2730    4.1942    1.5751 H   0  0  0  0  0  0  0  0  0  0  0  0
    5.3838    2.0320    1.3323 C   0  0  0  0  0  0  0  0  0  0  0  0
    6.4139    1.9597    1.7096 H   0  0  0  0  0  0  0  0  0  0  0  0
    4.7042    0.8891    0.9151 C   0  0  0  0  0  0  0  0  0  0  0  0
    5.1987   -0.0946    0.9510 H   0  0  0  0  0  0  0  0  0  0  0  0
    3.3673    0.9585    0.4473 C   0  0  0  0  0  0  0  0  0  0  0  0
    2.7448   -0.2353   -0.0768 C   0  0  0  0  0  3  0  0  0  0  0  0
    3.4345   -1.0792   -0.2881 H   0  0  0  0  0  0  0  0  0  0  0  0
    1.1577   -1.5450   -1.1599 C   0  0  0  0  0  0  0  0  0  0  0  0
    0.2853   -2.5532   -0.6854 C   0  0  0  0  0  0  0  0  0  0  0  0
    0.0347   -3.6499   -1.5358 C   0  0  0  0  0  0  0  0  0  0  0  0
   -0.6301   -4.4487   -1.1735 H   0  0  0  0  0  0  0  0  0  0  0  0
    0.5983   -3.7394   -2.8143 C   0  0  0  0  0  0  0  0  0  0  0  0
    0.3641   -4.6047   -3.4538 H   0  0  0  0  0  0  0  0  0  0  0  0
    1.4550   -2.7307   -3.2936 C   0  0  0  0  0  0  0  0  0  0  0  0
    1.7272   -1.6453   -2.4428 C   0  0  0  0  0  0  0  0  0  0  0  0
    2.3668   -0.8198   -2.7894 H   0  0  0  0  0  0  0  0  0  0  0  0
    2.0325   -2.7766   -4.6849 C   0  0  0  0  0  0  0  0  0  0  0  0
    1.9821   -3.7955   -5.1152 H   0  0  0  0  0  0  0  0  0  0  0  0
    3.0901   -2.4449   -4.6998 H   0  0  0  0  0  0  0  0  0  0  0  0
    1.4725   -2.0986   -5.3640 H   0  0  0  0  0  0  0  0  0  0  0  0
  2 15  1  0  0  0  0
  3  1  1  0  0  0  0
  4  5  1  0  0  0  0
  4  3  2  0  0  0  0
  6  4  1  0  0  0  0
  7  6  1  0  0  0  0
  8  6  2  0  0  0  0
  8 10  1  0  0  0  0
  9  8  1  0  0  0  0
 10 12  2  0  0  0  0
 11 10  1  0  0  0  0
 12  3  1  0  0  0  0
 12 13  1  0  0  0  0
 13 14  1  0  0  0  0
 13  2  1  0  0  0  0
 15 22  1  0  0  0  0
 16 15  2  0  0  0  0
 16 17  1  0  0  0  0
 17 19  2  0  0  0  0
 18 17  1  0  0  0  0
 19 21  1  0  0  0  0
 19 20  1  0  0  0  0
 21 24  1  0  0  0  0
 22 23  1  0  0  0  0
 22 21  2  0  0  0  0
 24 26  1  0  0  0  0
 24 25  1  0  0  0  0
 24 27  1  0  0  0  0
 28 30  1  0  0  0  0
 29 40  1  0  0  0  0
 30 39  2  0  0  0  0
 30 31  1  0  0  0  0
 31 33  2  0  0  0  0
 32 31  1  0  0  0  0
 33 35  1  0  0  0  0
 33 34  1  0  0  0  0
 35 36  1  0  0  0  0
 37 38  1  0  0  0  0
 37 35  2  0  0  0  0
 39 37  1  0  0  0  0
 40 39  1  0  0  0  0
 41 40  1  0  0  0  0
 42 43  1  0  0  0  0
 42 29  1  0  0  0  0
 43 16  1  0  0  0  0
 44 45  1  0  0  0  0
 44 43  2  0  0  0  0
 46 44  1  0  0  0  0
 47 46  1  0  0  0  0
 48 46  2  0  0  0  0
 48 49  1  0  0  0  0
 49 42  2  0  0  0  0
 50 49  1  0  0  0  0
 51 48  1  0  0  0  0
 52 51  1  0  0  0  0
 53 51  1  0  0  0  0
 54 51  1  0  0  0  0
M  CHG  2   1  -1  28  -1
M  END
