1,2,7,8
 OpenBabel05122313063D

 52 55  0  0  1  0  0  0  0  0999 V2000
   -1.4471   -1.8414    0.7348 O   0  5  0  0  0  0  0  0  0  0  0  0
    1.5103   -1.8468   -0.1783 O   0  5  0  0  0  0  0  0  0  0  0  0
    1.3237    2.2393    2.3887 O   0  0  0  0  0  0  0  0  0  0  0  0
   -0.6269    3.2414    1.8407 O   0  0  0  0  0  0  0  0  0  0  0  0
   -2.6686    3.4310   -0.5957 O   0  0  0  0  0  0  0  0  0  0  0  0
   -0.6671    4.4158   -0.9488 O   0  0  0  0  0  0  0  0  0  0  0  0
    1.3950    0.9494    0.0318 N   0  0  0  0  0  2  0  0  0  0  0  0
   -1.2743    0.8322   -0.3067 N   0  0  0  0  0  2  0  0  0  0  0  0
   -2.5307    0.5815   -0.5996 C   0  0  0  0  0  3  0  0  0  0  0  0
   -4.7163   -0.5870   -0.5583 C   0  0  0  0  0  0  0  0  0  0  0  0
   -5.4928   -1.7773   -0.3315 C   0  0  0  0  0  0  0  0  0  0  0  0
   -3.5244   -2.9037    0.5905 C   0  0  0  0  0  0  0  0  0  0  0  0
   -6.8770   -1.8048   -0.6510 C   0  0  0  0  0  0  0  0  0  0  0  0
   -4.8517   -2.9226    0.2428 C   0  0  0  0  0  0  0  0  0  0  0  0
   -5.4150    0.5517   -1.0564 C   0  0  0  0  0  0  0  0  0  0  0  0
   -7.5172   -0.6860   -1.1685 C   0  0  0  0  0  0  0  0  0  0  0  0
   -6.7734    0.5014   -1.3578 C   0  0  0  0  0  0  0  0  0  0  0  0
    0.6991    2.2055    0.0732 C   0  0  1  0  0  0  0  0  0  0  0  0
   -0.6243    2.0558   -0.7415 C   0  0  2  0  0  0  0  0  0  0  0  0
    4.8609   -0.2526   -0.6303 C   0  0  0  0  0  0  0  0  0  0  0  0
    5.6083   -1.4472   -0.9214 C   0  0  0  0  0  0  0  0  0  0  0  0
    3.5717   -2.7932   -0.7181 C   0  0  0  0  0  0  0  0  0  0  0  0
    7.0078   -1.3810   -1.1521 C   0  0  0  0  0  0  0  0  0  0  0  0
    4.9173   -2.7033   -0.9636 C   0  0  0  0  0  0  0  0  0  0  0  0
    7.6912   -0.1721   -1.0956 C   0  0  0  0  0  0  0  0  0  0  0  0
    6.9719    1.0056   -0.7909 C   0  0  0  0  0  0  0  0  0  0  0  0
    5.5990    0.9639   -0.5601 C   0  0  0  0  0  0  0  0  0  0  0  0
    0.3640    2.6156    1.5191 C   0  0  0  0  0  0  0  0  0  0  0  0
   -1.4638    3.3432   -0.7083 C   0  0  0  0  0  0  0  0  0  0  0  0
    2.6679    0.8701   -0.2624 C   0  0  0  0  0  3  0  0  0  0  0  0
    3.4198   -0.3384   -0.4063 C   0  0  0  0  0  0  0  0  0  0  0  0
    2.7629   -1.6324   -0.4088 C   0  0  0  0  0  0  0  0  0  0  0  0
   -2.6911   -1.7445    0.3727 C   0  0  0  0  0  0  0  0  0  0  0  0
   -3.2876   -0.5845   -0.2458 C   0  0  0  0  0  0  0  0  0  0  0  0
    1.2940    3.0443   -0.3587 H   0  0  0  0  0  0  0  0  0  0  0  0
   -0.3017    1.9610   -1.8068 H   0  0  0  0  0  0  0  0  0  0  0  0
    3.2046    1.8254   -0.4426 H   0  0  0  0  0  0  0  0  0  0  0  0
   -3.0293   -3.7776    1.0390 H   0  0  0  0  0  0  0  0  0  0  0  0
   -7.2731    1.4062   -1.7367 H   0  0  0  0  0  0  0  0  0  0  0  0
   -3.0736    1.3424   -1.1811 H   0  0  0  0  0  0  0  0  0  0  0  0
   -4.8954    1.5122   -1.1778 H   0  0  0  0  0  0  0  0  0  0  0  0
    1.0162    2.5424    3.2713 H   0  0  0  0  0  0  0  0  0  0  0  0
    7.5003    1.9691   -0.7255 H   0  0  0  0  0  0  0  0  0  0  0  0
   -5.4556   -3.8289    0.4120 H   0  0  0  0  0  0  0  0  0  0  0  0
    7.5445   -2.3167   -1.3751 H   0  0  0  0  0  0  0  0  0  0  0  0
    3.0391   -3.7552   -0.7415 H   0  0  0  0  0  0  0  0  0  0  0  0
   -8.5897   -0.7160   -1.4117 H   0  0  0  0  0  0  0  0  0  0  0  0
    8.7757   -0.1317   -1.2753 H   0  0  0  0  0  0  0  0  0  0  0  0
   -1.2644    5.1950   -0.9313 H   0  0  0  0  0  0  0  0  0  0  0  0
   -7.4361   -2.7365   -0.4701 H   0  0  0  0  0  0  0  0  0  0  0  0
    5.0929    1.9043   -0.3010 H   0  0  0  0  0  0  0  0  0  0  0  0
    5.4997   -3.6105   -1.1933 H   0  0  0  0  0  0  0  0  0  0  0  0
  3 42  1  0  0  0  0
  6 49  1  0  0  0  0
  6 29  1  0  0  0  0
  7 18  1  0  0  0  0
  9  8  1  0  0  0  0
  9 34  1  0  0  0  0
 10 11  1  0  0  0  0
 10 34  1  0  0  0  0
 11 14  1  0  0  0  0
 12 38  1  0  0  0  0
 13 50  1  0  0  0  0
 13 11  2  0  0  0  0
 14 44  1  0  0  0  0
 14 12  2  0  0  0  0
 15 10  2  0  0  0  0
 16 13  1  0  0  0  0
 17 16  2  0  0  0  0
 17 15  1  0  0  0  0
 18 35  1  6  0  0  0
 18 28  1  0  0  0  0
 19 36  1  6  0  0  0
 19 29  1  0  0  0  0
 19  8  1  0  0  0  0
 19 18  1  0  0  0  0
 20 27  1  0  0  0  0
 20 31  1  0  0  0  0
 21 20  2  0  0  0  0
 22 32  1  0  0  0  0
 23 25  2  0  0  0  0
 23 21  1  0  0  0  0
 24 21  1  0  0  0  0
 24 22  2  0  0  0  0
 25 26  1  0  0  0  0
 26 43  1  0  0  0  0
 26 27  2  0  0  0  0
 27 51  1  0  0  0  0
 28  4  2  0  0  0  0
 28  3  1  0  0  0  0
 29  5  2  0  0  0  0
 30  7  1  0  0  0  0
 31 30  1  0  0  0  0
 32 31  2  0  0  0  0
 32  2  1  0  0  0  0
 33 12  1  0  0  0  0
 33  1  1  0  0  0  0
 34 33  2  0  0  0  0
 37 30  1  0  0  0  0
 39 17  1  0  0  0  0
 40  9  1  0  0  0  0
 41 15  1  0  0  0  0
 45 23  1  0  0  0  0
 46 22  1  0  0  0  0
 47 16  1  0  0  0  0
 48 25  1  0  0  0  0
 52 24  1  0  0  0  0
M  CHG  2   1  -1   2  -1
M  END
