1,2,5,6
 OpenBabel05122313063D

 40 42  0  0  1  0  0  0  0  0999 V2000
    1.2302   -1.4210    0.0013 O   0  5  0  0  0  0  0  0  0  0  0  0
   -1.2304   -1.4209   -0.0011 O   0  0  0  0  0  1  0  0  0  0  0  0
    2.5062   -3.6950    0.0021 O   0  0  0  0  0  0  0  0  0  0  0  0
   -2.5066   -3.6948   -0.0026 O   0  0  0  0  0  0  0  0  0  0  0  0
    1.2763    1.3240    0.0000 N   0  0  0  0  0  2  0  0  0  0  0  0
   -1.2762    1.3242   -0.0000 N   0  0  0  0  0  2  0  0  0  0  0  0
    2.5308   -1.3180    0.0005 C   0  0  0  0  0  0  0  0  0  0  0  0
    3.2492   -2.5673    0.0011 C   0  0  0  0  0  0  0  0  0  0  0  0
    4.6396   -2.5763    0.0004 C   0  0  0  0  0  0  0  0  0  0  0  0
    5.3673   -1.3540   -0.0008 C   0  0  0  0  0  0  0  0  0  0  0  0
    4.7061   -0.1380   -0.0012 C   0  0  0  0  0  3  0  0  0  0  0  0
    3.2722   -0.0938   -0.0005 C   0  0  0  0  0  0  0  0  0  0  0  0
    2.5911    1.1489   -0.0007 C   0  0  0  0  0  0  0  0  0  0  0  0
    0.7092    2.6184    0.0002 C   0  0  0  0  0  0  0  0  0  0  0  0
   -0.7089    2.6185   -0.0002 C   0  0  0  0  0  0  0  0  0  0  0  0
   -2.5911    1.1492    0.0009 C   0  0  0  0  0  0  0  0  0  0  0  0
   -3.2723   -0.0935    0.0007 C   0  0  0  0  0  0  0  0  0  0  0  0
   -4.7061   -0.1375    0.0015 C   0  0  0  0  0  0  0  0  0  0  0  0
   -5.3675   -1.3535    0.0010 C   0  0  0  0  0  0  0  0  0  0  0  0
   -4.6399   -2.5758   -0.0003 C   0  0  0  0  0  0  0  0  0  0  0  0
   -3.2495   -2.5669   -0.0012 C   0  0  0  0  0  0  0  0  0  0  0  0
   -2.5310   -1.3177   -0.0006 C   0  0  2  0  0  3  0  0  0  0  0  0
    1.4097    3.8414    0.0006 C   0  0  0  0  0  0  0  0  0  0  0  0
    0.7040    5.0494    0.0002 C   0  0  0  0  0  0  0  0  0  0  0  0
   -0.7031    5.0496   -0.0005 C   0  0  0  0  0  0  0  0  0  0  0  0
   -1.4091    3.8417   -0.0008 C   0  0  0  0  0  0  0  0  0  0  0  0
    5.1596   -3.5454    0.0007 H   0  0  0  0  0  0  0  0  0  0  0  0
    6.4665   -1.3853   -0.0013 H   0  0  0  0  0  0  0  0  0  0  0  0
    5.2658    0.8096   -0.0020 H   0  0  0  0  0  0  0  0  0  0  0  0
    3.2282    2.0507   -0.0014 H   0  0  0  0  0  0  0  0  0  0  0  0
   -3.2280    2.0510    0.0019 H   0  0  0  0  0  0  0  0  0  0  0  0
   -5.2658    0.8101    0.0026 H   0  0  0  0  0  0  0  0  0  0  0  0
   -6.4667   -1.3847    0.0016 H   0  0  0  0  0  0  0  0  0  0  0  0
   -5.1601   -3.5449   -0.0008 H   0  0  0  0  0  0  0  0  0  0  0  0
    2.5078    3.8622    0.0012 H   0  0  0  0  0  0  0  0  0  0  0  0
    1.2565    6.0004    0.0005 H   0  0  0  0  0  0  0  0  0  0  0  0
   -1.2554    6.0007   -0.0009 H   0  0  0  0  0  0  0  0  0  0  0  0
   -2.5071    3.8628   -0.0015 H   0  0  0  0  0  0  0  0  0  0  0  0
    1.5759   -3.3622    0.0022 H   0  0  0  0  0  0  0  0  0  0  0  0
   -1.5763   -3.3620   -0.0030 H   0  0  0  0  0  0  0  0  0  0  0  0
  3 39  1  0  0  0  0
  4 21  1  0  0  0  0
  5 14  1  0  0  0  0
  6 16  1  0  0  0  0
  7  8  2  0  0  0  0
  7  1  1  0  0  0  0
  8  3  1  0  0  0  0
  9 27  1  0  0  0  0
  9  8  1  0  0  0  0
 10  9  2  0  0  0  0
 11 10  1  0  0  0  0
 11 12  1  0  0  0  0
 12  7  1  0  0  0  0
 13 12  2  0  0  0  0
 13  5  1  0  0  0  0
 14 23  1  0  0  0  0
 15  6  1  0  0  0  0
 15 14  2  0  0  0  0
 16 31  1  0  0  0  0
 17 16  2  0  0  0  0
 17 18  1  0  0  0  0
 18 32  1  0  0  0  0
 19 18  2  0  0  0  0
 19 33  1  0  0  0  0
 20 19  1  0  0  0  0
 21 22  1  0  0  0  0
 21 20  2  0  0  0  0
 22  2  1  1  0  0  0
 22 17  1  0  0  0  0
 23 35  1  0  0  0  0
 24 36  1  0  0  0  0
 24 23  2  0  0  0  0
 25 24  1  0  0  0  0
 26 25  2  0  0  0  0
 26 15  1  0  0  0  0
 28 10  1  0  0  0  0
 29 11  1  0  0  0  0
 30 13  1  0  0  0  0
 34 20  1  0  0  0  0
 37 25  1  0  0  0  0
 38 26  1  0  0  0  0
 40  4  1  0  0  0  0
M  CHG  1   1  -1
M  END
