3,7,8,10
 OpenBabel05122313063D

 75 80  0  0  0  0  0  0  0  0999 V2000
   -5.3835   -1.3339   -0.1221 O   0  0  0  0  0  0  0  0  0  0  0  0
    0.7332   -1.2097    1.6728 O   0  0  0  0  0  0  0  0  0  0  0  0
   -1.4291    1.1252   -1.2669 O   0  5  0  0  0  0  0  0  0  0  0  0
   -7.1666   -2.5784    0.4499 O   0  0  0  0  0  0  0  0  0  0  0  0
   -0.7673    1.3928    1.6744 O   0  0  0  0  0  0  0  0  0  0  0  0
    5.3257    1.2002   -0.2736 O   0  0  0  0  0  0  0  0  0  0  0  0
    1.2466   -1.0863   -1.3212 O   0  5  0  0  0  0  0  0  0  0  0  0
   -1.3989   -1.4293    0.1233 N   0  0  0  0  0  2  0  0  0  0  0  0
   -3.3736   -0.1904   -0.6467 C   0  0  0  0  0  0  0  0  0  0  0  0
    1.3494    1.4799    0.0031 N   0  0  0  0  0  2  0  0  0  0  0  0
   -0.8477   -2.6182    0.6260 C   0  0  0  0  0  0  0  0  0  0  0  0
   -1.3390   -3.9077    0.3449 C   0  0  0  0  0  0  0  0  0  0  0  0
   -2.2043   -4.0151   -0.3256 H   0  0  0  0  0  0  0  0  0  0  0  0
    3.2591    0.1443   -0.7579 C   0  0  0  0  0  0  0  0  0  0  0  0
   -4.8072   -0.2375   -0.6688 C   0  0  0  0  0  0  0  0  0  0  0  0
    5.4261   -0.9601   -1.3275 C   0  0  0  0  0  0  0  0  0  0  0  0
    2.6354    1.3125   -0.2150 C   0  0  0  0  0  3  0  0  0  0  0  0
    3.3256    2.1333    0.0641 H   0  0  0  0  0  0  0  0  0  0  0  0
   -2.6942   -1.3111   -0.0682 C   0  0  0  0  0  3  0  0  0  0  0  0
   -3.3490   -2.1421    0.2596 H   0  0  0  0  0  0  0  0  0  0  0  0
   -2.7038    0.9720   -1.2209 C   0  0  0  0  0  0  0  0  0  0  0  0
   -0.2754    2.6418    1.3437 C   0  0  0  0  0  0  0  0  0  0  0  0
    0.3055   -2.4933    1.4511 C   0  0  0  0  0  0  0  0  0  0  0  0
   -0.7197   -5.0425    0.8887 C   0  0  0  0  0  0  0  0  0  0  0  0
   -1.1145   -6.0422    0.6556 H   0  0  0  0  0  0  0  0  0  0  0  0
    0.8462    2.7017    0.4743 C   0  0  0  0  0  0  0  0  0  0  0  0
    7.1730    2.3657    0.2610 O   0  0  0  0  0  0  0  0  0  0  0  0
    0.7609    5.1368    0.6009 C   0  0  0  0  0  0  0  0  0  0  0  0
    1.1601    6.1160    0.2976 H   0  0  0  0  0  0  0  0  0  0  0  0
    2.5258   -0.9987   -1.2946 C   0  0  0  0  0  0  0  0  0  0  0  0
    0.9269   -3.6269    1.9907 C   0  0  0  0  0  0  0  0  0  0  0  0
    1.8213   -3.5161    2.6198 H   0  0  0  0  0  0  0  0  0  0  0  0
    4.6929    0.1212   -0.7913 C   0  0  0  0  0  0  0  0  0  0  0  0
   -0.3475    5.0642    1.4611 C   0  0  0  0  0  0  0  0  0  0  0  0
   -0.8194    5.9844    1.8358 H   0  0  0  0  0  0  0  0  0  0  0  0
   -6.7933   -1.5465   -0.0649 C   0  0  0  0  0  0  0  0  0  0  0  0
    1.3489    3.9667    0.1033 C   0  0  0  0  0  0  0  0  0  0  0  0
    2.1894    4.0238   -0.6041 H   0  0  0  0  0  0  0  0  0  0  0  0
   -7.5879   -0.4818   -0.6364 C   0  0  0  0  0  0  0  0  0  0  0  0
   -8.6758   -0.6308   -0.5964 H   0  0  0  0  0  0  0  0  0  0  0  0
    3.3032   -2.0841   -1.8387 C   0  0  0  0  0  0  0  0  0  0  0  0
    2.7354   -2.9355   -2.2395 H   0  0  0  0  0  0  0  0  0  0  0  0
   -0.5143    0.9687    3.0290 C   0  0  0  0  0  0  0  0  0  0  0  0
   -1.1956    0.1108    3.1973 H   0  0  0  0  0  0  0  0  0  0  0  0
   -0.8167    1.7860    3.7179 H   0  0  0  0  0  0  0  0  0  0  0  0
   -0.8692    3.8137    1.8279 C   0  0  0  0  0  0  0  0  0  0  0  0
   -1.7481    3.7349    2.4849 H   0  0  0  0  0  0  0  0  0  0  0  0
    6.8705   -0.8866   -1.3131 C   0  0  0  0  0  0  0  0  0  0  0  0
    1.2799   -0.8719    2.9515 C   0  0  0  0  0  0  0  0  0  0  0  0
    2.3797   -1.0409    2.9578 H   0  0  0  0  0  0  0  0  0  0  0  0
    0.8270   -1.5452    3.7130 H   0  0  0  0  0  0  0  0  0  0  0  0
    4.6810   -2.0622   -1.8497 C   0  0  0  0  0  0  0  0  0  0  0  0
    5.2277   -2.9184   -2.2717 H   0  0  0  0  0  0  0  0  0  0  0  0
    0.4079   -4.9030    1.7112 C   0  0  0  0  0  0  0  0  0  0  0  0
    0.9012   -5.7919    2.1313 H   0  0  0  0  0  0  0  0  0  0  0  0
   -3.5370    2.0042   -1.7830 C   0  0  0  0  0  0  0  0  0  0  0  0
   -3.0142    2.8711   -2.2109 H   0  0  0  0  0  0  0  0  0  0  0  0
   -5.5975    0.7924   -1.2257 C   0  0  0  0  0  0  0  0  0  0  0  0
    7.4816    0.2274   -0.7815 C   0  0  0  0  0  0  0  0  0  0  0  0
    8.5758    0.3228   -0.7521 H   0  0  0  0  0  0  0  0  0  0  0  0
    0.9502    0.5826    3.2762 C   0  0  0  0  0  0  0  0  0  0  0  0
    1.1959    0.7440    4.3469 H   0  0  0  0  0  0  0  0  0  0  0  0
    1.6040    1.2765    2.7096 H   0  0  0  0  0  0  0  0  0  0  0  0
   -7.0363    0.6480   -1.1983 C   0  0  0  0  0  0  0  0  0  0  0  0
   -4.9124    1.9160   -1.7811 C   0  0  0  0  0  0  0  0  0  0  0  0
   -5.5033    2.7336   -2.2197 H   0  0  0  0  0  0  0  0  0  0  0  0
    7.6870   -2.0165   -1.8754 C   0  0  0  0  0  0  0  0  0  0  0  0
    8.7698   -1.8095   -1.7912 H   0  0  0  0  0  0  0  0  0  0  0  0
    7.4483   -2.1881   -2.9457 H   0  0  0  0  0  0  0  0  0  0  0  0
    7.4728   -2.9682   -1.3457 H   0  0  0  0  0  0  0  0  0  0  0  0
    6.7456    1.3429   -0.2292 C   0  0  0  0  0  0  0  0  0  0  0  0
   -7.9116    1.7227   -1.7803 C   0  0  0  0  0  0  0  0  0  0  0  0
   -8.9822    1.4648   -1.6819 H   0  0  0  0  0  0  0  0  0  0  0  0
   -7.6896    1.8801   -2.8564 H   0  0  0  0  0  0  0  0  0  0  0  0
   -7.7406    2.6960   -1.2749 H   0  0  0  0  0  0  0  0  0  0  0  0
  1 36  1  0  0  0  0
  2 49  1  0  0  0  0
  3 21  1  0  0  0  0
  5 43  1  0  0  0  0
  6 71  1  0  0  0  0
  7 30  1  0  0  0  0
  8 11  1  0  0  0  0
  9 19  1  0  0  0  0
 10 26  1  0  0  0  0
 11 23  1  0  0  0  0
 12 11  2  0  0  0  0
 12 24  1  0  0  0  0
 13 12  1  0  0  0  0
 14 17  1  0  0  0  0
 15  9  1  0  0  0  0
 15  1  1  0  0  0  0
 16 48  1  0  0  0  0
 16 33  2  0  0  0  0
 17 10  1  0  0  0  0
 17 18  1  0  0  0  0
 19  8  1  0  0  0  0
 19 20  1  0  0  0  0
 21  9  2  0  0  0  0
 22  5  1  0  0  0  0
 22 46  1  0  0  0  0
 23  2  1  0  0  0  0
 23 31  2  0  0  0  0
 24 54  2  0  0  0  0
 25 24  1  0  0  0  0
 26 22  2  0  0  0  0
 28 34  1  0  0  0  0
 29 28  1  0  0  0  0
 30 14  2  0  0  0  0
 31 32  1  0  0  0  0
 33 14  1  0  0  0  0
 33  6  1  0  0  0  0
 34 46  2  0  0  0  0
 34 35  1  0  0  0  0
 36  4  2  0  0  0  0
 37 26  1  0  0  0  0
 37 28  2  0  0  0  0
 38 37  1  0  0  0  0
 39 40  1  0  0  0  0
 39 36  1  0  0  0  0
 41 30  1  0  0  0  0
 42 41  1  0  0  0  0
 43 44  1  0  0  0  0
 43 61  1  0  0  0  0
 43 45  1  0  0  0  0
 46 47  1  0  0  0  0
 48 59  2  0  0  0  0
 49 50  1  0  0  0  0
 49 61  1  0  0  0  0
 49 51  1  0  0  0  0
 52 41  2  0  0  0  0
 52 16  1  0  0  0  0
 53 52  1  0  0  0  0
 54 31  1  0  0  0  0
 54 55  1  0  0  0  0
 56 65  2  0  0  0  0
 56 21  1  0  0  0  0
 57 56  1  0  0  0  0
 58 64  1  0  0  0  0
 58 15  2  0  0  0  0
 59 60  1  0  0  0  0
 59 71  1  0  0  0  0
 61 62  1  0  0  0  0
 63 61  1  0  0  0  0
 64 39  2  0  0  0  0
 65 58  1  0  0  0  0
 66 65  1  0  0  0  0
 67 68  1  0  0  0  0
 67 70  1  0  0  0  0
 67 48  1  0  0  0  0
 69 67  1  0  0  0  0
 71 27  2  0  0  0  0
 72 73  1  0  0  0  0
 72 75  1  0  0  0  0
 72 64  1  0  0  0  0
 74 72  1  0  0  0  0
M  CHG  2   3  -1   7  -1
M  END
