1,2,3,5
 OpenBabel05122313063D

 62 64  0  0  1  0  0  0  0  0999 V2000
    1.2919    0.2547    0.2810 N   0  0  0  0  0  2  0  0  0  0  0  0
   -1.4099   -2.6308   -0.2523 O   0  5  0  0  0  0  0  0  0  0  0  0
    1.4100   -2.6308    0.2518 O   0  0  0  0  0  1  0  0  0  0  0  0
   -5.5030   -1.9430   -0.9709 O   0  0  0  0  0  0  0  0  0  0  0  0
   -1.2920    0.2547   -0.2808 N   0  0  0  0  0  2  0  0  0  0  0  0
    5.5027   -1.9427    0.9716 O   0  0  0  0  0  0  0  0  0  0  0  0
    2.6713   -2.4439    0.3543 C   0  0  1  0  0  3  0  0  0  0  0  0
    0.6182    1.5530    0.4617 C   0  0  2  0  0  0  0  0  0  0  0  0
    0.2297    1.5742    1.5084 H   0  0  0  0  0  0  0  0  0  0  0  0
   -0.6183    1.5530   -0.4617 C   0  0  2  0  0  0  0  0  0  0  0  0
   -0.2298    1.5740   -1.5085 H   0  0  0  0  0  0  0  0  0  0  0  0
   -5.4700    0.2097   -0.0031 C   0  0  0  0  0  0  0  0  0  0  0  0
    5.4701    0.2098    0.0033 C   0  0  0  0  0  0  0  0  0  0  0  0
   -2.5870    0.0769   -0.3965 C   0  0  0  0  0  3  0  0  0  0  0  0
   -3.1956    0.9834   -0.5590 H   0  0  0  0  0  0  0  0  0  0  0  0
   -1.4735    2.8028   -0.2385 C   0  0  0  0  0  0  0  0  0  0  0  0
   -1.8943    2.7786    0.7909 H   0  0  0  0  0  0  0  0  0  0  0  0
   -2.3359    2.8151   -0.9354 H   0  0  0  0  0  0  0  0  0  0  0  0
    3.4685   -3.7205    0.4438 C   0  0  0  0  0  0  0  0  0  0  0  0
    2.7902   -4.5712    0.2521 H   0  0  0  0  0  0  0  0  0  0  0  0
    3.9328   -3.8089    1.4449 H   0  0  0  0  0  0  0  0  0  0  0  0
    4.3170   -3.7212   -0.2669 H   0  0  0  0  0  0  0  0  0  0  0  0
    0.6257    4.0674    0.4423 C   0  0  0  0  0  0  0  0  0  0  0  0
    0.3199    4.1296    1.5101 H   0  0  0  0  0  0  0  0  0  0  0  0
    1.2413    4.9680    0.2425 H   0  0  0  0  0  0  0  0  0  0  0  0
    6.6210    0.6491    0.6898 C   0  0  0  0  0  0  0  0  0  0  0  0
    6.9445    0.0819    1.5753 H   0  0  0  0  0  0  0  0  0  0  0  0
    3.3125   -1.1534    0.3777 C   0  0  0  0  0  0  0  0  0  0  0  0
    2.5869    0.0770    0.3964 C   0  0  0  0  0  0  0  0  0  0  0  0
    3.1955    0.9836    0.5585 H   0  0  0  0  0  0  0  0  0  0  0  0
   -3.3126   -1.1535   -0.3777 C   0  0  0  0  0  0  0  0  0  0  0  0
   -2.6713   -2.4440   -0.3544 C   0  0  0  0  0  0  0  0  0  0  0  0
    4.7890   -1.0515    0.4976 C   0  0  0  0  0  0  0  0  0  0  0  0
   -4.7891   -1.0516   -0.4972 C   0  0  0  0  0  0  0  0  0  0  0  0
    5.0721    0.8895   -1.1682 C   0  0  0  0  0  0  0  0  0  0  0  0
    4.2013    0.5288   -1.7372 H   0  0  0  0  0  0  0  0  0  0  0  0
    1.4733    2.8028    0.2384 C   0  0  0  0  0  0  0  0  0  0  0  0
    1.8941    2.7787   -0.7910 H   0  0  0  0  0  0  0  0  0  0  0  0
    2.3357    2.8152    0.9352 H   0  0  0  0  0  0  0  0  0  0  0  0
   -3.4685   -3.7206   -0.4438 C   0  0  0  0  0  0  0  0  0  0  0  0
   -2.7900   -4.5714   -0.2526 H   0  0  0  0  0  0  0  0  0  0  0  0
   -3.9333   -3.8089   -1.4446 H   0  0  0  0  0  0  0  0  0  0  0  0
   -4.3166   -3.7215    0.2674 H   0  0  0  0  0  0  0  0  0  0  0  0
   -5.0717    0.8898    1.1680 C   0  0  0  0  0  0  0  0  0  0  0  0
   -4.2008    0.5292    1.7370 H   0  0  0  0  0  0  0  0  0  0  0  0
   -0.6259    4.0673   -0.4424 C   0  0  0  0  0  0  0  0  0  0  0  0
   -0.3201    4.1295   -1.5103 H   0  0  0  0  0  0  0  0  0  0  0  0
   -1.2416    4.9680   -0.2427 H   0  0  0  0  0  0  0  0  0  0  0  0
    6.9210    2.4491   -0.9164 C   0  0  0  0  0  0  0  0  0  0  0  0
    7.4851    3.3246   -1.2727 H   0  0  0  0  0  0  0  0  0  0  0  0
    7.3319    1.7701    0.2440 C   0  0  0  0  0  0  0  0  0  0  0  0
    8.2186    2.1144    0.7981 H   0  0  0  0  0  0  0  0  0  0  0  0
   -6.6211    0.6489   -0.6895 C   0  0  0  0  0  0  0  0  0  0  0  0
   -6.9448    0.0815   -1.5747 H   0  0  0  0  0  0  0  0  0  0  0  0
   -5.7972    1.9995    1.6279 C   0  0  0  0  0  0  0  0  0  0  0  0
   -5.4879    2.5116    2.5520 H   0  0  0  0  0  0  0  0  0  0  0  0
   -6.9207    2.4494    0.9161 C   0  0  0  0  0  0  0  0  0  0  0  0
   -7.4846    3.3251    1.2723 H   0  0  0  0  0  0  0  0  0  0  0  0
   -7.3319    1.7700   -0.2439 C   0  0  0  0  0  0  0  0  0  0  0  0
   -8.2187    2.1142   -0.7979 H   0  0  0  0  0  0  0  0  0  0  0  0
    5.7977    1.9990   -1.6282 C   0  0  0  0  0  0  0  0  0  0  0  0
    5.4887    2.5108   -2.5526 H   0  0  0  0  0  0  0  0  0  0  0  0
  1 29  1  0  0  0  0
  1  8  1  0  0  0  0
  4 34  2  0  0  0  0
  7  3  1  6  0  0  0
  7 28  1  0  0  0  0
  7 19  1  0  0  0  0
  8  9  1  1  0  0  0
 10 11  1  6  0  0  0
 10  5  1  0  0  0  0
 10 16  1  0  0  0  0
 10  8  1  0  0  0  0
 12 44  1  0  0  0  0
 13 33  1  0  0  0  0
 13 26  1  0  0  0  0
 14 31  1  0  0  0  0
 14  5  1  0  0  0  0
 15 14  1  0  0  0  0
 16 17  1  0  0  0  0
 18 16  1  0  0  0  0
 19 21  1  0  0  0  0
 20 19  1  0  0  0  0
 22 19  1  0  0  0  0
 23 24  1  0  0  0  0
 25 23  1  0  0  0  0
 26 27  1  0  0  0  0
 28 29  2  0  0  0  0
 28 33  1  0  0  0  0
 29 30  1  0  0  0  0
 31 32  2  0  0  0  0
 32  2  1  0  0  0  0
 33  6  2  0  0  0  0
 34 31  1  0  0  0  0
 34 12  1  0  0  0  0
 35 13  2  0  0  0  0
 36 35  1  0  0  0  0
 37 23  1  0  0  0  0
 37  8  1  0  0  0  0
 37 39  1  0  0  0  0
 38 37  1  0  0  0  0
 40 32  1  0  0  0  0
 40 41  1  0  0  0  0
 40 43  1  0  0  0  0
 42 40  1  0  0  0  0
 44 55  2  0  0  0  0
 44 45  1  0  0  0  0
 46 48  1  0  0  0  0
 46 16  1  0  0  0  0
 46 23  1  0  0  0  0
 47 46  1  0  0  0  0
 49 51  1  0  0  0  0
 50 49  1  0  0  0  0
 51 26  2  0  0  0  0
 51 52  1  0  0  0  0
 53 59  1  0  0  0  0
 53 12  2  0  0  0  0
 54 53  1  0  0  0  0
 55 56  1  0  0  0  0
 57 58  1  0  0  0  0
 57 55  1  0  0  0  0
 59 57  2  0  0  0  0
 60 59  1  0  0  0  0
 61 35  1  0  0  0  0
 61 49  2  0  0  0  0
 62 61  1  0  0  0  0
M  CHG  1   2  -1
M  END
