1,2,3,4
 OpenBabel05122313063D

 41 43  0  0  1  0  0  0  0  0999 V2000
   -1.4772   -1.5893   -0.3441 O   0  0  0  0  0  1  0  0  0  0  0  0
    0.9625   -1.8740   -0.2692 O   0  0  0  0  0  1  0  0  0  0  0  0
   -1.3095    0.8725    0.8167 N   0  0  0  0  0  2  0  0  0  0  0  0
    1.3616    0.8126    0.0910 N   0  0  0  0  0  2  0  0  0  0  0  0
   -2.7633   -1.4385   -0.2824 C   0  0  1  0  0  3  0  0  0  0  0  0
   -3.6077   -2.4849   -0.7754 C   0  0  0  0  0  0  0  0  0  0  0  0
   -3.1123   -3.3738   -1.1914 H   0  0  0  0  0  0  0  0  0  0  0  0
   -4.9908   -2.3691   -0.7326 C   0  0  0  0  0  0  0  0  0  0  0  0
   -5.6104   -3.1900   -1.1270 H   0  0  0  0  0  0  0  0  0  0  0  0
   -5.6204   -1.2186   -0.1887 C   0  0  0  0  0  0  0  0  0  0  0  0
   -6.7169   -1.1464   -0.1593 H   0  0  0  0  0  0  0  0  0  0  0  0
   -4.8298   -0.1923    0.3082 C   0  0  0  0  0  0  0  0  0  0  0  0
   -5.2937    0.7088    0.7414 H   0  0  0  0  0  0  0  0  0  0  0  0
   -3.4080   -0.2715    0.2707 C   0  0  0  0  0  0  0  0  0  0  0  0
   -2.6232    0.7842    0.8183 C   0  0  0  0  0  0  0  0  0  0  0  0
   -3.1791    1.6054    1.3135 H   0  0  0  0  0  0  0  0  0  0  0  0
   -0.7179    2.0344    1.4968 C   0  0  0  0  0  0  0  0  0  0  0  0
   -0.0627    1.6609    2.3142 H   0  0  0  0  0  0  0  0  0  0  0  0
   -1.5117    2.6561    1.9600 H   0  0  0  0  0  0  0  0  0  0  0  0
    0.0846    2.8481    0.5224 C   0  0  0  0  0  0  0  0  0  0  0  0
   -0.1610    4.2053    0.2741 C   0  0  0  0  0  0  0  0  0  0  0  0
   -0.9688    4.7125    0.8249 H   0  0  0  0  0  0  0  0  0  0  0  0
    0.6110    4.9171   -0.6586 C   0  0  0  0  0  0  0  0  0  0  0  0
    0.4078    5.9820   -0.8446 H   0  0  0  0  0  0  0  0  0  0  0  0
    1.6274    4.2554   -1.3639 C   0  0  0  0  0  0  0  0  0  0  0  0
    2.2229    4.7964   -2.1147 H   0  0  0  0  0  0  0  0  0  0  0  0
    1.8771    2.8953   -1.1337 C   0  0  0  0  0  0  0  0  0  0  0  0
    2.6442    2.3647   -1.7165 H   0  0  0  0  0  0  0  0  0  0  0  0
    1.1187    2.1859   -0.1785 C   0  0  0  0  0  0  0  0  0  0  0  0
    2.6324    0.4327    0.1701 C   0  0  0  0  0  0  0  0  0  0  0  0
    3.3863    1.2427    0.2092 H   0  0  0  0  0  0  0  0  0  0  0  0
    3.1246   -0.8972    0.1882 C   0  0  0  0  0  0  0  0  0  0  0  0
    4.5192   -1.1340    0.3823 C   0  0  0  0  0  0  0  0  0  0  0  0
    5.1739   -0.2702    0.5817 H   0  0  0  0  0  0  0  0  0  0  0  0
    5.0452   -2.4140    0.3203 C   0  0  0  0  0  0  0  0  0  0  0  0
    6.1196   -2.5870    0.4755 H   0  0  0  0  0  0  0  0  0  0  0  0
    4.1760   -3.5047    0.0408 C   0  0  0  0  0  0  0  0  0  0  0  0
    4.5895   -4.5241   -0.0157 H   0  0  0  0  0  0  0  0  0  0  0  0
    2.8180   -3.3135   -0.1657 C   0  0  0  0  0  0  0  0  0  0  0  0
    2.1395   -4.1503   -0.3841 H   0  0  0  0  0  0  0  0  0  0  0  0
    2.2341   -2.0062   -0.0832 C   0  0  2  0  0  3  0  0  0  0  0  0
  3 15  1  0  0  0  0
  3 17  1  0  0  0  0
  4 30  1  0  0  0  0
  5  1  1  1  0  0  0
  5 14  1  0  0  0  0
  6  8  2  0  0  0  0
  6  5  1  0  0  0  0
  7  6  1  0  0  0  0
  8 10  1  0  0  0  0
  9  8  1  0  0  0  0
 10 11  1  0  0  0  0
 10 12  2  0  0  0  0
 12 13  1  0  0  0  0
 14 12  1  0  0  0  0
 14 15  2  0  0  0  0
 15 16  1  0  0  0  0
 17 19  1  0  0  0  0
 17 18  1  0  0  0  0
 20 17  1  0  0  0  0
 21 20  1  0  0  0  0
 21 22  1  0  0  0  0
 23 21  2  0  0  0  0
 24 23  1  0  0  0  0
 25 27  2  0  0  0  0
 25 23  1  0  0  0  0
 26 25  1  0  0  0  0
 27 29  1  0  0  0  0
 28 27  1  0  0  0  0
 29  4  1  0  0  0  0
 29 20  2  0  0  0  0
 30 32  2  0  0  0  0
 30 31  1  0  0  0  0
 32 33  1  0  0  0  0
 33 34  1  0  0  0  0
 35 33  2  0  0  0  0
 35 36  1  0  0  0  0
 37 35  1  0  0  0  0
 38 37  1  0  0  0  0
 39 41  1  0  0  0  0
 39 37  2  0  0  0  0
 40 39  1  0  0  0  0
 41  2  1  6  0  0  0
 41 32  1  0  0  0  0
M  END
