1,2,3,4
 OpenBabel05122313063D

 55 58  0  0  1  0  0  0  0  0999 V2000
    1.2444   -1.6212    0.0988 O   0  5  0  0  0  0  0  0  0  0  0  0
   -1.2444   -1.6212   -0.0979 O   0  5  0  0  0  0  0  0  0  0  0  0
    1.2488    1.0443    0.4982 N   0  0  0  0  0  2  0  0  0  0  0  0
   -1.2487    1.0442   -0.4979 N   0  0  0  0  0  2  0  0  0  0  0  0
    2.5334   -1.5260    0.0494 C   0  0  0  0  0  0  0  0  0  0  0  0
    3.2768   -2.7556   -0.0962 C   0  0  0  0  0  0  0  0  0  0  0  0
    2.6872   -3.6813   -0.1588 H   0  0  0  0  0  0  0  0  0  0  0  0
    4.6480   -2.7574   -0.1616 C   0  0  0  0  0  0  0  0  0  0  0  0
    5.1909   -3.7088   -0.2809 H   0  0  0  0  0  0  0  0  0  0  0  0
    5.4131   -1.5450   -0.0876 C   0  0  0  0  0  0  0  0  0  0  0  0
    6.8297   -1.5635   -0.1777 C   0  0  0  0  0  3  0  0  0  0  0  0
    7.3339   -2.5352   -0.2999 H   0  0  0  0  0  0  0  0  0  0  0  0
    7.5706   -0.3881   -0.1171 C   0  0  0  0  0  0  0  0  0  0  0  0
    8.6681   -0.4150   -0.1883 H   0  0  0  0  0  0  0  0  0  0  0  0
    6.8953    0.8458    0.0251 C   0  0  0  0  0  0  0  0  0  0  0  0
    7.4700    1.7842    0.0580 H   0  0  0  0  0  0  0  0  0  0  0  0
    5.5057    0.8903    0.1112 C   0  0  0  0  0  0  0  0  0  0  0  0
    5.0159    1.8718    0.1892 H   0  0  0  0  0  0  0  0  0  0  0  0
    4.7195   -0.2951    0.0737 C   0  0  0  0  0  0  0  0  0  0  0  0
    3.2695   -0.2971    0.1729 C   0  0  0  0  0  0  0  0  0  0  0  0
    2.5577    0.8859    0.5179 C   0  0  0  0  0  0  0  0  0  0  0  0
    3.1434    1.7449    0.8970 H   0  0  0  0  0  0  0  0  0  0  0  0
    0.6815    2.2658    1.0596 C   0  0  0  0  0  0  0  0  0  0  0  0
    1.4684    2.8497    1.5858 H   0  0  0  0  0  0  0  0  0  0  0  0
   -0.0692    1.9725    1.8222 H   0  0  0  0  0  0  0  0  0  0  0  0
    0.0000    3.1669    0.0002 C   0  0  0  0  0  0  0  0  0  0  0  0
   -0.6813    2.2658   -1.0593 C   0  0  0  0  0  0  0  0  0  0  0  0
   -1.4682    2.8497   -1.5856 H   0  0  0  0  0  0  0  0  0  0  0  0
    0.0694    1.9724   -1.8217 H   0  0  0  0  0  0  0  0  0  0  0  0
   -2.5576    0.8859   -0.5178 C   0  0  0  0  0  0  0  0  0  0  0  0
   -3.1432    1.7448   -0.8971 H   0  0  0  0  0  0  0  0  0  0  0  0
   -3.2695   -0.2971   -0.1729 C   0  0  0  0  0  0  0  0  0  0  0  0
   -4.7196   -0.2951   -0.0740 C   0  0  2  0  0  3  0  0  0  0  0  0
   -5.5057    0.8903   -0.1119 C   0  0  0  0  0  0  0  0  0  0  0  0
   -5.0159    1.8718   -0.1900 H   0  0  0  0  0  0  0  0  0  0  0  0
   -6.8954    0.8458   -0.0262 C   0  0  0  0  0  0  0  0  0  0  0  0
   -7.4700    1.7842   -0.0595 H   0  0  0  0  0  0  0  0  0  0  0  0
   -7.5707   -0.3880    0.1159 C   0  0  0  0  0  0  0  0  0  0  0  0
   -8.6682   -0.4149    0.1869 H   0  0  0  0  0  0  0  0  0  0  0  0
   -6.8298   -1.5635    0.1769 C   0  0  0  0  0  0  0  0  0  0  0  0
   -7.3340   -2.5352    0.2992 H   0  0  0  0  0  0  0  0  0  0  0  0
   -5.4132   -1.5450    0.0872 C   0  0  0  0  0  0  0  0  0  0  0  0
   -4.6481   -2.7574    0.1617 C   0  0  0  0  0  0  0  0  0  0  0  0
   -5.1910   -3.7088    0.2809 H   0  0  0  0  0  0  0  0  0  0  0  0
   -3.2769   -2.7555    0.0967 C   0  0  0  0  0  0  0  0  0  0  0  0
   -2.6872   -3.6812    0.1596 H   0  0  0  0  0  0  0  0  0  0  0  0
   -2.5334   -1.5260   -0.0489 C   0  0  0  0  0  0  0  0  0  0  0  0
    1.0444    4.0408   -0.7104 C   0  0  0  0  0  0  0  0  0  0  0  0
    1.8641    3.4212   -1.1298 H   0  0  0  0  0  0  0  0  0  0  0  0
    1.4897    4.7772   -0.0109 H   0  0  0  0  0  0  0  0  0  0  0  0
    0.5878    4.6063   -1.5489 H   0  0  0  0  0  0  0  0  0  0  0  0
   -1.0445    4.0406    0.7108 C   0  0  0  0  0  0  0  0  0  0  0  0
   -1.8641    3.4210    1.1301 H   0  0  0  0  0  0  0  0  0  0  0  0
   -1.4899    4.7770    0.0113 H   0  0  0  0  0  0  0  0  0  0  0  0
   -0.5879    4.6062    1.5493 H   0  0  0  0  0  0  0  0  0  0  0  0
  2 47  1  0  0  0  0
  3 21  1  0  0  0  0
  3 23  1  0  0  0  0
  5  1  1  0  0  0  0
  5 20  1  0  0  0  0
  6  5  2  0  0  0  0
  7  6  1  0  0  0  0
  8  6  1  0  0  0  0
  8 10  2  0  0  0  0
  9  8  1  0  0  0  0
 10 19  1  0  0  0  0
 11 13  1  0  0  0  0
 11 10  1  0  0  0  0
 12 11  1  0  0  0  0
 13 15  2  0  0  0  0
 14 13  1  0  0  0  0
 15 16  1  0  0  0  0
 15 17  1  0  0  0  0
 17 18  1  0  0  0  0
 19 17  2  0  0  0  0
 19 20  1  0  0  0  0
 20 21  2  0  0  0  0
 21 22  1  0  0  0  0
 23 24  1  0  0  0  0
 23 25  1  0  0  0  0
 26 52  1  0  0  0  0
 26 23  1  0  0  0  0
 27  4  1  0  0  0  0
 27 26  1  0  0  0  0
 28 27  1  0  0  0  0
 29 27  1  0  0  0  0
 30  4  1  0  0  0  0
 30 32  2  0  0  0  0
 31 30  1  0  0  0  0
 32 47  1  0  0  0  0
 33 32  1  1  0  0  0
 33 42  1  0  0  0  0
 34 33  1  0  0  0  0
 34 36  2  0  0  0  0
 35 34  1  0  0  0  0
 36 38  1  0  0  0  0
 37 36  1  0  0  0  0
 38 40  2  0  0  0  0
 38 39  1  0  0  0  0
 40 41  1  0  0  0  0
 42 43  2  0  0  0  0
 42 40  1  0  0  0  0
 43 44  1  0  0  0  0
 45 46  1  0  0  0  0
 45 43  1  0  0  0  0
 47 45  2  0  0  0  0
 48 50  1  0  0  0  0
 48 26  1  0  0  0  0
 49 48  1  0  0  0  0
 51 48  1  0  0  0  0
 52 53  1  0  0  0  0
 52 55  1  0  0  0  0
 54 52  1  0  0  0  0
M  CHG  2   1  -1   2  -1
M  END
