2,3,4,6
 OpenBabel05122313063D

 31 31  0  0  0  0  0  0  0  0999 V2000
    5.7200    0.4032    0.0158 Cl  0  0  0  0  0  0  0  0  0  0  0  0
    0.0467   -1.0917   -0.6458 O   0  5  0  0  0  0  0  0  0  0  0  0
   -3.1750    0.3902    0.6888 O   0  0  0  0  0  1  0  0  0  0  0  0
   -0.4580    0.7643    1.4072 N   0  0  0  0  0  0  0  0  0  0  0  0
   -1.1027    0.8158    2.2052 H   0  0  0  0  0  0  0  0  0  0  0  0
   -1.5644    1.2539   -1.2050 N   0  0  0  0  0  0  0  0  0  0  0  0
   -1.4199    0.9104   -2.1611 H   0  0  0  0  0  0  0  0  0  0  0  0
    1.3241   -0.7581   -0.4491 C   0  0  0  0  0  0  0  0  0  0  0  0
    2.2609   -1.0368   -1.4733 C   0  0  0  0  0  0  0  0  0  0  0  0
    1.8947   -1.5386   -2.3805 H   0  0  0  0  0  0  0  0  0  0  0  0
    3.6097   -0.6942   -1.3362 C   0  0  0  0  0  0  0  0  0  0  0  0
    4.3310   -0.9200   -2.1341 H   0  0  0  0  0  0  0  0  0  0  0  0
    4.0415   -0.0484   -0.1662 C   0  0  0  0  0  0  0  0  0  0  0  0
    3.1280    0.2438    0.8577 C   0  0  0  0  0  0  0  0  0  0  0  0
    3.4813    0.7526    1.7673 H   0  0  0  0  0  0  0  0  0  0  0  0
    1.7747   -0.1125    0.7380 C   0  0  0  0  0  0  0  0  0  0  0  0
    0.8132    0.1655    1.8665 C   0  0  0  0  0  0  0  0  0  0  0  0
    0.5369   -0.7813    2.3768 H   0  0  0  0  0  0  0  0  0  0  0  0
    1.3118    0.8206    2.6169 H   0  0  0  0  0  0  0  0  0  0  0  0
   -0.3539    2.0941    0.7770 C   0  0  0  0  0  0  0  0  0  0  0  0
    0.5729    2.6204    1.0946 H   0  0  0  0  0  0  0  0  0  0  0  0
   -1.2091    2.7033    1.1320 H   0  0  0  0  0  0  0  0  0  0  0  0
   -0.3879    2.0152   -0.7539 C   0  0  0  0  0  0  0  0  0  0  0  0
   -0.3786    3.0497   -1.1688 H   0  0  0  0  0  0  0  0  0  0  0  0
    0.5181    1.5030   -1.1283 H   0  0  0  0  0  0  0  0  0  0  0  0
   -2.8569    1.9673   -1.0838 C   0  0  0  0  0  0  0  0  0  0  0  0
   -3.2459    2.2749   -2.0774 H   0  0  0  0  0  0  0  0  0  0  0  0
   -2.6910    2.8954   -0.4999 H   0  0  0  0  0  0  0  0  0  0  0  0
   -3.8558    1.0614   -0.3423 C   0  0  0  0  0  0  0  0  0  0  0  0
   -4.6864    1.6684    0.0832 H   0  0  0  0  0  0  0  0  0  0  0  0
   -4.2935    0.3207   -1.0540 H   0  0  0  0  0  0  0  0  0  0  0  0
  2  8  1  0  0  0  0
  4 17  1  0  0  0  0
  4  5  1  0  0  0  0
  6 26  1  0  0  0  0
  6 23  1  0  0  0  0
  7  6  1  0  0  0  0
  8 16  1  0  0  0  0
  9 11  1  0  0  0  0
  9  8  2  0  0  0  0
 10  9  1  0  0  0  0
 11 13  2  0  0  0  0
 12 11  1  0  0  0  0
 13  1  1  0  0  0  0
 13 14  1  0  0  0  0
 14 15  1  0  0  0  0
 16 14  2  0  0  0  0
 16 17  1  0  0  0  0
 17 18  1  0  0  0  0
 17 19  1  0  0  0  0
 20 21  1  0  0  0  0
 20 22  1  0  0  0  0
 20  4  1  0  0  0  0
 23 20  1  0  0  0  0
 24 23  1  0  0  0  0
 25 23  1  0  0  0  0
 26 28  1  0  0  0  0
 26 29  1  0  0  0  0
 27 26  1  0  0  0  0
 29 30  1  0  0  0  0
 29  3  1  0  0  0  0
 31 29  1  0  0  0  0
M  CHG  1   2  -1
M  END
