1,2,3,5
 OpenBabel05122313063D

 31 31  0  0  0  0  0  0  0  0999 V2000
    0.7310   -0.7759    0.7396 O   0  5  0  0  0  0  0  0  0  0  0  0
   -2.5505    0.0752   -0.9495 O   0  0  0  0  0  1  0  0  0  0  0  0
    0.0525    1.2403   -0.9633 N   0  0  0  0  0  0  0  0  0  0  0  0
   -0.6233    1.5252   -1.6857 H   0  0  0  0  0  0  0  0  0  0  0  0
   -1.6393    0.9079    1.3107 N   0  0  0  0  0  0  0  0  0  0  0  0
   -1.1971    0.6899    2.2120 H   0  0  0  0  0  0  0  0  0  0  0  0
    2.0005   -0.4197    0.4812 C   0  0  0  0  0  0  0  0  0  0  0  0
    3.0019   -0.9021    1.3586 C   0  0  0  0  0  0  0  0  0  0  0  0
    2.6800   -1.5543    2.1834 H   0  0  0  0  0  0  0  0  0  0  0  0
    4.3466   -0.5710    1.1692 C   0  0  0  0  0  0  0  0  0  0  0  0
    5.1066   -0.9682    1.8596 H   0  0  0  0  0  0  0  0  0  0  0  0
    2.3761    0.4318   -0.5974 C   0  0  0  0  0  0  0  0  0  0  0  0
    1.3657    0.9774   -1.5826 C   0  0  0  0  0  0  0  0  0  0  0  0
    1.7804    1.9037   -2.0439 H   0  0  0  0  0  0  0  0  0  0  0  0
    1.1842    0.2460   -2.3975 H   0  0  0  0  0  0  0  0  0  0  0  0
    4.7238    0.2672    0.1065 C   0  0  0  0  0  0  0  0  0  0  0  0
    5.7784    0.5388   -0.0470 H   0  0  0  0  0  0  0  0  0  0  0  0
    3.7355    0.7640   -0.7528 C   0  0  0  0  0  0  0  0  0  0  0  0
    4.0196    1.4344   -1.5806 H   0  0  0  0  0  0  0  0  0  0  0  0
    0.0809    2.2291    0.1218 C   0  0  0  0  0  0  0  0  0  0  0  0
    0.3315    3.2508   -0.2472 H   0  0  0  0  0  0  0  0  0  0  0  0
    0.8909    1.9351    0.8200 H   0  0  0  0  0  0  0  0  0  0  0  0
   -1.2610    2.2525    0.8442 C   0  0  0  0  0  0  0  0  0  0  0  0
   -1.2345    2.9901    1.6768 H   0  0  0  0  0  0  0  0  0  0  0  0
   -2.0478    2.5990    0.1435 H   0  0  0  0  0  0  0  0  0  0  0  0
   -3.0914    0.6665    1.3511 C   0  0  0  0  0  0  0  0  0  0  0  0
   -3.6473    1.4674    1.8919 H   0  0  0  0  0  0  0  0  0  0  0  0
   -3.2411   -0.2899    1.8858 H   0  0  0  0  0  0  0  0  0  0  0  0
   -3.5798    0.5393   -0.1150 C   0  0  0  0  0  0  0  0  0  0  0  0
   -4.4537   -0.1525   -0.1457 H   0  0  0  0  0  0  0  0  0  0  0  0
   -3.9407    1.5241   -0.4978 H   0  0  0  0  0  0  0  0  0  0  0  0
  2 29  1  0  0  0  0
  3 20  1  0  0  0  0
  4  3  1  0  0  0  0
  5 26  1  0  0  0  0
  5  6  1  0  0  0  0
  7  1  1  0  0  0  0
  7  8  1  0  0  0  0
  8  9  1  0  0  0  0
 10  8  2  0  0  0  0
 10 11  1  0  0  0  0
 12  7  2  0  0  0  0
 13  3  1  0  0  0  0
 13 12  1  0  0  0  0
 14 13  1  0  0  0  0
 15 13  1  0  0  0  0
 16 10  1  0  0  0  0
 17 16  1  0  0  0  0
 18 12  1  0  0  0  0
 18 16  2  0  0  0  0
 19 18  1  0  0  0  0
 20 22  1  0  0  0  0
 20 23  1  0  0  0  0
 21 20  1  0  0  0  0
 23  5  1  0  0  0  0
 23 24  1  0  0  0  0
 25 23  1  0  0  0  0
 26 28  1  0  0  0  0
 26 27  1  0  0  0  0
 29 26  1  0  0  0  0
 30 29  1  0  0  0  0
 31 29  1  0  0  0  0
M  CHG  1   1  -1
M  END
