10,18,27,39
 OpenBabel05122313063D

 44 45  0  0  0  0  0  0  0  0999 V2000
   -3.0471    0.0178   -0.6981 C   0  0  0  0  0  0  0  0  0  0  0  0
   -2.2323    0.8707    0.1194 C   0  0  0  0  0  0  0  0  0  0  0  0
   -2.4610    2.2907    0.0541 C   0  0  0  0  0  0  0  0  0  0  0  0
   -3.3775    2.8083   -0.8699 C   0  0  0  0  0  0  0  0  0  0  0  0
   -3.5045    3.8957   -0.9615 H   0  0  0  0  0  0  0  0  0  0  0  0
   -4.1521    1.9483   -1.6850 C   0  0  0  0  0  0  0  0  0  0  0  0
   -4.8720    2.3827   -2.3937 H   0  0  0  0  0  0  0  0  0  0  0  0
   -4.0096    0.5686   -1.5856 C   0  0  0  0  0  3  0  0  0  0  0  0
   -4.6232   -0.1069   -2.2005 H   0  0  0  0  0  0  0  0  0  0  0  0
   -1.3170    0.4139    0.9392 O   0  5  0  0  0  0  0  0  0  0  0  0
   -1.7210    3.0187    0.9265 O   0  0  0  0  0  0  0  0  0  0  0  0
   -1.5973    4.4099    0.6925 C   0  0  0  0  0  0  0  0  0  0  0  0
   -1.1291    4.5910   -0.2992 H   0  0  0  0  0  0  0  0  0  0  0  0
   -0.9263    4.7968    1.4822 H   0  0  0  0  0  0  0  0  0  0  0  0
   -2.5743    4.9387    0.7657 H   0  0  0  0  0  0  0  0  0  0  0  0
   -2.9464   -1.4015   -0.4696 C   0  0  0  0  0  0  0  0  0  0  0  0
   -3.8108   -2.0639   -0.6537 H   0  0  0  0  0  0  0  0  0  0  0  0
   -1.8807   -1.9463    0.0600 N   0  0  0  0  0  2  0  0  0  0  0  0
   -2.0969   -3.2488    0.5053 O   0  0  0  0  0  0  0  0  0  0  0  0
   -0.9350   -3.7882    1.1360 C   0  0  0  0  0  0  0  0  0  0  0  0
   -1.3104   -4.5910    1.8024 H   0  0  0  0  0  0  0  0  0  0  0  0
   -0.4592   -3.0039    1.7691 H   0  0  0  0  0  0  0  0  0  0  0  0
    0.0169   -4.3801    0.1042 C   0  0  0  0  0  0  0  0  0  0  0  0
    0.9638   -4.7010    0.6013 H   0  0  0  0  0  0  0  0  0  0  0  0
   -0.4409   -5.2587   -0.3919 H   0  0  0  0  0  0  0  0  0  0  0  0
    0.2785   -3.4934   -0.9833 O   0  0  0  0  0  0  0  0  0  0  0  0
    0.8233   -2.2692   -0.5401 N   0  0  0  0  0  2  0  0  0  0  0  0
    2.0551   -2.1052   -0.9780 C   0  0  0  0  0  0  0  0  0  0  0  0
    2.4754   -2.9494   -1.5518 H   0  0  0  0  0  0  0  0  0  0  0  0
    2.8496   -0.9343   -0.7875 C   0  0  0  0  0  0  0  0  0  0  0  0
    2.3381    0.1548   -0.0149 C   0  0  0  0  0  0  0  0  0  0  0  0
    3.1653    1.3234    0.1422 C   0  0  0  0  0  0  0  0  0  0  0  0
    4.4184    1.3840   -0.4686 C   0  0  0  0  0  0  0  0  0  0  0  0
    5.0327    2.2893   -0.3679 H   0  0  0  0  0  0  0  0  0  0  0  0
    4.9138    0.2892   -1.2234 C   0  0  0  0  0  0  0  0  0  0  0  0
    5.9078    0.3610   -1.6877 H   0  0  0  0  0  0  0  0  0  0  0  0
    4.1466   -0.8535   -1.3795 C   0  0  0  0  0  3  0  0  0  0  0  0
    4.5167   -1.7062   -1.9687 H   0  0  0  0  0  0  0  0  0  0  0  0
    1.1595    0.1646    0.5504 O   0  5  0  0  0  0  0  0  0  0  0  0
    2.6014    2.3051    0.8926 O   0  0  0  0  0  0  0  0  0  0  0  0
    3.1611    3.6023    0.8151 C   0  0  0  0  0  0  0  0  0  0  0  0
    4.1844    3.6435    1.2522 H   0  0  0  0  0  0  0  0  0  0  0  0
    2.4961    4.2636    1.4012 H   0  0  0  0  0  0  0  0  0  0  0  0
    3.1934    3.9588   -0.2376 H   0  0  0  0  0  0  0  0  0  0  0  0
  1 16  2  0  0  0  0
  1  2  1  0  0  0  0
  2 10  1  0  0  0  0
  3  2  2  0  0  0  0
  3 11  1  0  0  0  0
  4  3  1  0  0  0  0
  5  4  1  0  0  0  0
  6  8  1  0  0  0  0
  6  4  2  0  0  0  0
  7  6  1  0  0  0  0
  8  1  1  0  0  0  0
  9  8  1  0  0  0  0
 12 15  1  0  0  0  0
 12 11  1  0  0  0  0
 12 14  1  0  0  0  0
 13 12  1  0  0  0  0
 16 18  1  0  0  0  0
 17 16  1  0  0  0  0
 18 19  1  0  0  0  0
 19 20  1  0  0  0  0
 20 22  1  0  0  0  0
 20 21  1  0  0  0  0
 23 24  1  0  0  0  0
 23 20  1  0  0  0  0
 25 23  1  0  0  0  0
 26 27  1  0  0  0  0
 26 23  1  0  0  0  0
 28 30  2  0  0  0  0
 28 27  1  0  0  0  0
 29 28  1  0  0  0  0
 30 31  1  0  0  0  0
 31 32  2  0  0  0  0
 31 39  1  0  0  0  0
 32 40  1  0  0  0  0
 33 34  1  0  0  0  0
 33 32  1  0  0  0  0
 35 33  2  0  0  0  0
 36 35  1  0  0  0  0
 37 35  1  0  0  0  0
 37 30  1  0  0  0  0
 38 37  1  0  0  0  0
 41 40  1  0  0  0  0
 41 42  1  0  0  0  0
 41 43  1  0  0  0  0
 44 41  1  0  0  0  0
M  CHG  2  10  -1  39  -1
M  END
