1,2,5,6
 OpenBabel05122313063D

 62 65  0  0  0  0  0  0  0  0999 V2000
   -1.4646   -1.9059    0.7235 O   0  5  0  0  0  0  0  0  0  0  0  0
    1.2323   -1.9682   -1.0274 O   0  5  0  0  0  0  0  0  0  0  0  0
   -6.9331   -1.4202   -0.1612 O   0  0  0  0  0  0  0  0  0  0  0  0
    6.7087   -2.4362   -0.2944 O   0  0  0  0  0  0  0  0  0  0  0  0
   -1.2704    0.5698   -0.8158 N   0  0  0  0  0  2  0  0  0  0  0  0
    1.3326    0.3114    0.7888 N   0  0  0  0  0  2  0  0  0  0  0  0
   -2.7355   -1.7495    0.4971 C   0  0  0  0  0  0  0  0  0  0  0  0
   -3.6526   -2.6978    1.0502 C   0  0  0  0  0  0  0  0  0  0  0  0
   -3.2153   -3.5139    1.6436 H   0  0  0  0  0  0  0  0  0  0  0  0
   -5.0267   -2.6220    0.8523 C   0  0  0  0  0  0  0  0  0  0  0  0
   -5.6701   -3.3919    1.3015 H   0  0  0  0  0  0  0  0  0  0  0  0
   -5.5929   -1.5690    0.0825 C   0  0  0  0  0  0  0  0  0  0  0  0
   -4.7394   -0.6143   -0.4619 C   0  0  0  0  0  0  0  0  0  0  0  0
   -5.1808    0.2067   -1.0479 H   0  0  0  0  0  0  0  0  0  0  0  0
   -3.3264   -0.6682   -0.2808 C   0  0  0  0  0  0  0  0  0  0  0  0
   -2.5740    0.4086   -0.8559 C   0  0  0  0  0  3  0  0  0  0  0  0
   -3.1701    1.2011   -1.3587 H   0  0  0  0  0  0  0  0  0  0  0  0
   -0.6657    1.6966   -1.4218 C   0  0  0  0  0  0  0  0  0  0  0  0
   -0.8149    1.9143   -2.8047 C   0  0  0  0  0  0  0  0  0  0  0  0
   -1.4036    1.1858   -3.3838 H   0  0  0  0  0  0  0  0  0  0  0  0
   -0.2181    3.0109   -3.4534 C   0  0  0  0  0  0  0  0  0  0  0  0
    0.5357    3.9044   -2.6691 C   0  0  0  0  0  0  0  0  0  0  0  0
    1.0174    4.7730   -3.1446 H   0  0  0  0  0  0  0  0  0  0  0  0
    0.6834    3.6994   -1.2912 C   0  0  0  0  0  0  0  0  0  0  0  0
    1.2709    4.4134   -0.6941 H   0  0  0  0  0  0  0  0  0  0  0  0
    0.1027    2.5965   -0.6316 C   0  0  0  0  0  0  0  0  0  0  0  0
    0.2264    2.5018    0.8536 C   0  0  0  0  0  0  0  0  0  0  0  0
   -0.2161    3.5845    1.6414 C   0  0  0  0  0  0  0  0  0  0  0  0
   -0.7065    4.4306    1.1362 H   0  0  0  0  0  0  0  0  0  0  0  0
   -0.0517    3.6086    3.0324 C   0  0  0  0  0  0  0  0  0  0  0  0
   -0.4239    4.4694    3.6094 H   0  0  0  0  0  0  0  0  0  0  0  0
    0.5803    2.5430    3.7009 C   0  0  0  0  0  0  0  0  0  0  0  0
    1.0386    1.4630    2.9245 C   0  0  0  0  0  0  0  0  0  0  0  0
    1.5274    0.6040    3.4104 H   0  0  0  0  0  0  0  0  0  0  0  0
    0.8713    1.4266    1.5268 C   0  0  0  0  0  0  0  0  0  0  0  0
    2.6074   -0.0164    0.7986 C   0  0  0  0  0  3  0  0  0  0  0  0
    3.2918    0.6330    1.3874 H   0  0  0  0  0  0  0  0  0  0  0  0
    3.2255   -1.0991    0.0963 C   0  0  0  0  0  0  0  0  0  0  0  0
    4.6427   -1.2404    0.2711 C   0  0  0  0  0  0  0  0  0  0  0  0
    5.1429   -0.5391    0.9545 H   0  0  0  0  0  0  0  0  0  0  0  0
    5.3614   -2.2218   -0.3994 C   0  0  0  0  0  0  0  0  0  0  0  0
    4.6670   -3.0949   -1.2852 C   0  0  0  0  0  0  0  0  0  0  0  0
    5.2534   -3.8637   -1.8111 H   0  0  0  0  0  0  0  0  0  0  0  0
    3.3029   -2.9810   -1.4773 C   0  0  0  0  0  0  0  0  0  0  0  0
    2.7665   -3.6564   -2.1595 H   0  0  0  0  0  0  0  0  0  0  0  0
    2.5096   -1.9952   -0.7972 C   0  0  0  0  0  0  0  0  0  0  0  0
   -0.3576    3.1933   -4.9434 C   0  0  0  0  0  0  0  0  0  0  0  0
    0.3641    2.5495   -5.4908 H   0  0  0  0  0  0  0  0  0  0  0  0
   -0.1610    4.2401   -5.2462 H   0  0  0  0  0  0  0  0  0  0  0  0
   -1.3705    2.9143   -5.2962 H   0  0  0  0  0  0  0  0  0  0  0  0
    0.7314    2.5324    5.2009 C   0  0  0  0  0  0  0  0  0  0  0  0
   -0.0822    1.9439    5.6770 H   0  0  0  0  0  0  0  0  0  0  0  0
    0.6874    3.5555    5.6225 H   0  0  0  0  0  0  0  0  0  0  0  0
    1.6891    2.0696    5.5123 H   0  0  0  0  0  0  0  0  0  0  0  0
   -7.8183   -2.3744    0.3821 C   0  0  0  0  0  0  0  0  0  0  0  0
   -8.8362   -2.0740    0.0695 H   0  0  0  0  0  0  0  0  0  0  0  0
   -7.7811   -2.4000    1.4959 H   0  0  0  0  0  0  0  0  0  0  0  0
   -7.6177   -3.4026    0.0011 H   0  0  0  0  0  0  0  0  0  0  0  0
    7.4376   -1.5915    0.5678 C   0  0  0  0  0  0  0  0  0  0  0  0
    8.4928   -1.9195    0.5191 H   0  0  0  0  0  0  0  0  0  0  0  0
    7.0846   -1.6668    1.6227 H   0  0  0  0  0  0  0  0  0  0  0  0
    7.3771   -0.5230    0.2553 H   0  0  0  0  0  0  0  0  0  0  0  0
  2 46  1  0  0  0  0
  3 12  1  0  0  0  0
  3 55  1  0  0  0  0
  4 59  1  0  0  0  0
  6 36  1  0  0  0  0
  6 35  1  0  0  0  0
  7  1  1  0  0  0  0
  7  8  1  0  0  0  0
  8  9  1  0  0  0  0
 10  8  2  0  0  0  0
 10 11  1  0  0  0  0
 12 10  1  0  0  0  0
 13 15  1  0  0  0  0
 13 12  2  0  0  0  0
 14 13  1  0  0  0  0
 15  7  2  0  0  0  0
 16  5  1  0  0  0  0
 16 15  1  0  0  0  0
 17 16  1  0  0  0  0
 18  5  1  0  0  0  0
 18 26  1  0  0  0  0
 19 18  2  0  0  0  0
 20 19  1  0  0  0  0
 21 19  1  0  0  0  0
 21 22  2  0  0  0  0
 22 24  1  0  0  0  0
 23 22  1  0  0  0  0
 24 25  1  0  0  0  0
 24 26  2  0  0  0  0
 26 27  1  0  0  0  0
 27 35  2  0  0  0  0
 27 28  1  0  0  0  0
 28 30  2  0  0  0  0
 29 28  1  0  0  0  0
 30 31  1  0  0  0  0
 30 32  1  0  0  0  0
 32 51  1  0  0  0  0
 33 34  1  0  0  0  0
 33 32  2  0  0  0  0
 35 33  1  0  0  0  0
 36 37  1  0  0  0  0
 38 39  1  0  0  0  0
 38 36  1  0  0  0  0
 39 40  1  0  0  0  0
 41  4  1  0  0  0  0
 41 39  2  0  0  0  0
 42 41  1  0  0  0  0
 43 42  1  0  0  0  0
 44 42  2  0  0  0  0
 44 46  1  0  0  0  0
 45 44  1  0  0  0  0
 46 38  2  0  0  0  0
 47 21  1  0  0  0  0
 48 47  1  0  0  0  0
 49 47  1  0  0  0  0
 50 47  1  0  0  0  0
 51 54  1  0  0  0  0
 51 53  1  0  0  0  0
 51 52  1  0  0  0  0
 55 57  1  0  0  0  0
 56 55  1  0  0  0  0
 58 55  1  0  0  0  0
 59 61  1  0  0  0  0
 60 59  1  0  0  0  0
 62 59  1  0  0  0  0
M  CHG  2   1  -1   2  -1
M  END
