1,2,4,5
 OpenBabel05122313063D

 41 42  0  0  1  0  0  0  0  0999 V2000
   -1.5864   -1.8418   -0.1048 O   0  5  0  0  0  0  0  0  0  0  0  0
    2.0752   -0.9365   -0.7391 O   0  5  0  0  0  0  0  0  0  0  0  0
    3.6562    2.9423   -0.9674 O   0  0  0  0  0  0  0  0  0  0  0  0
    0.4521   -0.7271    1.4506 N   0  0  0  0  0  2  0  0  0  0  0  0
   -0.3585    0.4224   -0.8750 N   0  0  0  0  0  0  0  0  0  0  0  0
   -0.1345    0.6811   -1.8465 H   0  0  0  0  0  0  0  0  0  0  0  0
    0.5293   -1.3793    2.6277 C   0  0  0  0  0  3  0  0  0  0  0  0
    0.5163   -2.4787    2.5620 H   0  0  0  0  0  0  0  0  0  0  0  0
    0.6211   -0.6968    3.8444 C   0  0  0  0  0  0  0  0  0  0  0  0
    0.6777   -1.2589    4.7870 H   0  0  0  0  0  0  0  0  0  0  0  0
    0.6306    0.7075    3.8266 C   0  0  0  0  0  0  0  0  0  0  0  0
    0.6899    1.2779    4.7658 H   0  0  0  0  0  0  0  0  0  0  0  0
    0.5560    1.3757    2.5996 C   0  0  0  0  0  0  0  0  0  0  0  0
    0.5581    2.4739    2.5485 H   0  0  0  0  0  0  0  0  0  0  0  0
    0.4714    0.6212    1.4174 C   0  0  0  0  0  0  0  0  0  0  0  0
    0.4671    1.2616    0.0382 C   0  0  1  0  0  0  0  0  0  0  0  0
    0.0047    2.2617    0.1378 H   0  0  0  0  0  0  0  0  0  0  0  0
   -1.7867    0.4680   -0.6298 C   0  0  0  0  0  0  0  0  0  0  0  0
   -2.3629   -0.7571   -0.2228 C   0  0  0  0  0  0  0  0  0  0  0  0
   -3.7460   -0.7929    0.0597 C   0  0  0  0  0  0  0  0  0  0  0  0
   -4.1953   -1.7446    0.3766 H   0  0  0  0  0  0  0  0  0  0  0  0
   -4.5108    0.3695   -0.0752 C   0  0  0  0  0  0  0  0  0  0  0  0
   -5.5896    0.3253    0.1442 H   0  0  0  0  0  0  0  0  0  0  0  0
   -3.9463    1.5992   -0.4883 C   0  0  0  0  0  0  0  0  0  0  0  0
   -2.5655    1.6267   -0.7581 C   0  0  0  0  0  0  0  0  0  0  0  0
   -2.0908    2.5666   -1.0857 H   0  0  0  0  0  0  0  0  0  0  0  0
    4.0360    0.2530   -1.2750 C   0  0  0  0  0  0  0  0  0  0  0  0
    4.3430   -0.7926   -1.4596 H   0  0  0  0  0  0  0  0  0  0  0  0
    4.6963    0.7362   -0.5296 H   0  0  0  0  0  0  0  0  0  0  0  0
    4.1523    0.8624   -2.1922 H   0  0  0  0  0  0  0  0  0  0  0  0
    2.6072    0.2637   -0.8111 C   0  0  0  0  0  0  0  0  0  0  0  0
    1.8861    1.4187   -0.4852 C   0  0  0  0  0  0  0  0  0  0  0  0
    2.4868    2.7596   -0.6135 C   0  0  0  0  0  0  0  0  0  0  0  0
    1.6177    3.9842   -0.3059 C   0  0  0  0  0  0  0  0  0  0  0  0
    1.3122    4.0206    0.7606 H   0  0  0  0  0  0  0  0  0  0  0  0
    0.6904    4.0099   -0.9160 H   0  0  0  0  0  0  0  0  0  0  0  0
    2.2195    4.8829   -0.5293 H   0  0  0  0  0  0  0  0  0  0  0  0
   -4.8049    2.8287   -0.6503 C   0  0  0  0  0  0  0  0  0  0  0  0
   -5.4214    3.0164    0.2529 H   0  0  0  0  0  0  0  0  0  0  0  0
   -5.5098    2.7210   -1.5021 H   0  0  0  0  0  0  0  0  0  0  0  0
   -4.1939    3.7330   -0.8375 H   0  0  0  0  0  0  0  0  0  0  0  0
  3 33  2  0  0  0  0
  4  7  1  0  0  0  0
  5 18  1  0  0  0  0
  5 16  1  0  0  0  0
  6  5  1  0  0  0  0
  7  9  1  0  0  0  0
  8  7  1  0  0  0  0
  9 10  1  0  0  0  0
 11  9  2  0  0  0  0
 11 12  1  0  0  0  0
 13 11  1  0  0  0  0
 14 13  1  0  0  0  0
 15  4  1  0  0  0  0
 15 13  2  0  0  0  0
 16 17  1  1  0  0  0
 16 15  1  0  0  0  0
 18 19  1  0  0  0  0
 19  1  1  0  0  0  0
 19 20  2  0  0  0  0
 20 21  1  0  0  0  0
 22 20  1  0  0  0  0
 22 23  1  0  0  0  0
 24 22  2  0  0  0  0
 25 18  2  0  0  0  0
 25 24  1  0  0  0  0
 26 25  1  0  0  0  0
 27 31  1  0  0  0  0
 27 29  1  0  0  0  0
 28 27  1  0  0  0  0
 30 27  1  0  0  0  0
 31  2  1  0  0  0  0
 31 32  2  0  0  0  0
 32 16  1  0  0  0  0
 33 32  1  0  0  0  0
 33 34  1  0  0  0  0
 34 35  1  0  0  0  0
 36 34  1  0  0  0  0
 37 34  1  0  0  0  0
 38 24  1  0  0  0  0
 38 39  1  0  0  0  0
 40 38  1  0  0  0  0
 41 38  1  0  0  0  0
M  CHG  2   1  -1   2  -1
M  END
