1,2,5,6
 OpenBabel05122313063D

 51 52  0  0  1  0  0  0  0  0999 V2000
    1.2484   -0.9842    0.0361 O   0  0  0  0  0  1  0  0  0  0  0  0
   -1.2483   -0.9844   -0.0371 O   0  5  0  0  0  0  0  0  0  0  0  0
    2.5820   -3.1884   -0.4124 O   0  0  0  0  0  0  0  0  0  0  0  0
   -2.5815   -3.1888    0.4116 O   0  0  0  0  0  0  0  0  0  0  0  0
    1.2321    1.6900    0.5435 N   0  0  0  0  0  2  0  0  0  0  0  0
   -1.2325    1.6899   -0.5436 N   0  0  0  0  0  2  0  0  0  0  0  0
    2.5368   -0.8764    0.0486 C   0  0  2  0  0  3  0  0  0  0  0  0
    3.3237   -2.0743   -0.1836 C   0  0  0  0  0  0  0  0  0  0  0  0
    4.7168   -2.0211   -0.1724 C   0  0  0  0  0  0  0  0  0  0  0  0
    5.3005   -2.9325   -0.3615 H   0  0  0  0  0  0  0  0  0  0  0  0
    5.4044   -0.8035    0.0863 C   0  0  0  0  0  0  0  0  0  0  0  0
    6.5040   -0.7966    0.0952 H   0  0  0  0  0  0  0  0  0  0  0  0
    4.6890    0.3543    0.3299 C   0  0  0  0  0  0  0  0  0  0  0  0
    5.2064    1.3031    0.5418 H   0  0  0  0  0  0  0  0  0  0  0  0
    3.2598    0.3413    0.3066 C   0  0  0  0  0  0  0  0  0  0  0  0
    2.5355    1.5254    0.6310 C   0  0  0  0  0  0  0  0  0  0  0  0
    3.1232    2.3771    1.0298 H   0  0  0  0  0  0  0  0  0  0  0  0
    0.6440    2.9135    1.0807 C   0  0  0  0  0  0  0  0  0  0  0  0
    1.4105    3.4977    1.6359 H   0  0  0  0  0  0  0  0  0  0  0  0
   -0.1337    2.6184    1.8150 H   0  0  0  0  0  0  0  0  0  0  0  0
   -0.0002    3.8143   -0.0003 C   0  0  0  0  0  0  0  0  0  0  0  0
   -0.6447    2.9133   -1.0811 C   0  0  0  0  0  0  0  0  0  0  0  0
   -1.4113    3.4974   -1.6362 H   0  0  0  0  0  0  0  0  0  0  0  0
    0.1328    2.6182   -1.8156 H   0  0  0  0  0  0  0  0  0  0  0  0
   -2.5359    1.5252   -0.6304 C   0  0  0  0  0  0  0  0  0  0  0  0
   -3.1239    2.3769   -1.0289 H   0  0  0  0  0  0  0  0  0  0  0  0
   -3.2600    0.3410   -0.3058 C   0  0  0  0  0  0  0  0  0  0  0  0
   -4.6892    0.3540   -0.3281 C   0  0  0  0  0  3  0  0  0  0  0  0
   -5.2067    1.3027   -0.5395 H   0  0  0  0  0  0  0  0  0  0  0  0
   -5.4043   -0.8040   -0.0845 C   0  0  0  0  0  0  0  0  0  0  0  0
   -6.5039   -0.7972   -0.0926 H   0  0  0  0  0  0  0  0  0  0  0  0
   -4.7165   -2.0216    0.1734 C   0  0  0  0  0  0  0  0  0  0  0  0
   -5.3000   -2.9332    0.3626 H   0  0  0  0  0  0  0  0  0  0  0  0
   -3.3233   -2.0747    0.1836 C   0  0  0  0  0  0  0  0  0  0  0  0
   -2.5367   -0.8767   -0.0486 C   0  0  0  0  0  0  0  0  0  0  0  0
    1.0675    4.6882   -0.6754 C   0  0  0  0  0  0  0  0  0  0  0  0
    1.9003    4.0685   -1.0674 H   0  0  0  0  0  0  0  0  0  0  0  0
    1.4898    5.4238    0.0391 H   0  0  0  0  0  0  0  0  0  0  0  0
    0.6389    5.2547   -1.5280 H   0  0  0  0  0  0  0  0  0  0  0  0
   -1.0677    4.6886    0.6746 C   0  0  0  0  0  0  0  0  0  0  0  0
   -1.4899    5.4241   -0.0401 H   0  0  0  0  0  0  0  0  0  0  0  0
   -0.6390    5.2553    1.5270 H   0  0  0  0  0  0  0  0  0  0  0  0
   -1.9006    4.0692    1.0668 H   0  0  0  0  0  0  0  0  0  0  0  0
    3.2645   -4.3984   -0.6520 C   0  0  0  0  0  0  0  0  0  0  0  0
    2.4892   -5.1715   -0.8083 H   0  0  0  0  0  0  0  0  0  0  0  0
    3.9037   -4.6956    0.2115 H   0  0  0  0  0  0  0  0  0  0  0  0
    3.9080   -4.3425   -1.5604 H   0  0  0  0  0  0  0  0  0  0  0  0
   -3.2637   -4.3990    0.6510 C   0  0  0  0  0  0  0  0  0  0  0  0
   -2.4882   -5.1721    0.8065 H   0  0  0  0  0  0  0  0  0  0  0  0
   -3.9035   -4.6958   -0.2121 H   0  0  0  0  0  0  0  0  0  0  0  0
   -3.9066   -4.3436    1.5600 H   0  0  0  0  0  0  0  0  0  0  0  0
  3  8  1  0  0  0  0
  4 48  1  0  0  0  0
  5 16  1  0  0  0  0
  5 18  1  0  0  0  0
  7  1  1  1  0  0  0
  7 15  1  0  0  0  0
  8  9  2  0  0  0  0
  8  7  1  0  0  0  0
  9 11  1  0  0  0  0
 10  9  1  0  0  0  0
 11 12  1  0  0  0  0
 11 13  2  0  0  0  0
 13 14  1  0  0  0  0
 15 13  1  0  0  0  0
 15 16  2  0  0  0  0
 16 17  1  0  0  0  0
 18 19  1  0  0  0  0
 18 20  1  0  0  0  0
 21 40  1  0  0  0  0
 21 18  1  0  0  0  0
 22  6  1  0  0  0  0
 22 21  1  0  0  0  0
 23 22  1  0  0  0  0
 24 22  1  0  0  0  0
 25  6  1  0  0  0  0
 25 27  2  0  0  0  0
 26 25  1  0  0  0  0
 27 35  1  0  0  0  0
 28 27  1  0  0  0  0
 28 30  1  0  0  0  0
 29 28  1  0  0  0  0
 30 32  2  0  0  0  0
 31 30  1  0  0  0  0
 32 34  1  0  0  0  0
 32 33  1  0  0  0  0
 34  4  1  0  0  0  0
 35  2  1  0  0  0  0
 35 34  2  0  0  0  0
 36 21  1  0  0  0  0
 36 38  1  0  0  0  0
 37 36  1  0  0  0  0
 39 36  1  0  0  0  0
 40 43  1  0  0  0  0
 40 42  1  0  0  0  0
 41 40  1  0  0  0  0
 44  3  1  0  0  0  0
 44 46  1  0  0  0  0
 45 44  1  0  0  0  0
 47 44  1  0  0  0  0
 48 49  1  0  0  0  0
 48 51  1  0  0  0  0
 50 48  1  0  0  0  0
M  CHG  1   2  -1
M  END
