1,2,4,5
 OpenBabel05122313063D

 34 34  0  0  1  0  0  0  0  0999 V2000
    2.6061    0.1089    1.1108 O   0  0  0  0  0  1  0  0  0  0  0  0
   -0.1075   -1.0626   -1.3037 O   0  5  0  0  0  0  0  0  0  0  0  0
   -4.1929   -1.4295   -0.4276 O   0  0  0  0  0  0  0  0  0  0  0  0
    0.4878    1.4079   -0.3940 N   0  0  0  0  0  2  0  0  0  0  0  0
    0.0516   -0.5461    1.4427 N   0  0  0  0  0  0  0  0  0  0  0  0
   -0.2230   -1.5231    1.6122 H   0  0  0  0  0  0  0  0  0  0  0  0
    0.9202    2.4604   -1.1159 C   0  0  0  0  0  3  0  0  0  0  0  0
    1.8737    2.3086   -1.6466 H   0  0  0  0  0  0  0  0  0  0  0  0
    0.1993    3.6567   -1.1841 C   0  0  0  0  0  0  0  0  0  0  0  0
    0.5840    4.4979   -1.7776 H   0  0  0  0  0  0  0  0  0  0  0  0
   -1.0107    3.7513   -0.4773 C   0  0  0  0  0  0  0  0  0  0  0  0
   -1.6009    4.6798   -0.5003 H   0  0  0  0  0  0  0  0  0  0  0  0
   -1.4575    2.6499    0.2616 C   0  0  0  0  0  0  0  0  0  0  0  0
   -2.4023    2.6874    0.8230 H   0  0  0  0  0  0  0  0  0  0  0  0
   -0.6803    1.4789    0.2782 C   0  0  0  0  0  0  0  0  0  0  0  0
   -1.1374    0.2105    0.9879 C   0  0  1  0  0  0  0  0  0  0  0  0
   -1.7467    0.5173    1.8610 H   0  0  0  0  0  0  0  0  0  0  0  0
    0.7681    0.0200    2.6045 C   0  0  0  0  0  0  0  0  0  0  0  0
    0.3725   -0.3636    3.5705 H   0  0  0  0  0  0  0  0  0  0  0  0
    0.6192    1.1189    2.5881 H   0  0  0  0  0  0  0  0  0  0  0  0
    2.2567   -0.2802    2.4153 C   0  0  0  0  0  0  0  0  0  0  0  0
    2.8700    0.2803    3.1553 H   0  0  0  0  0  0  0  0  0  0  0  0
    2.4508   -1.3721    2.5590 H   0  0  0  0  0  0  0  0  0  0  0  0
   -2.1179   -1.9768   -2.1279 C   0  0  0  0  0  0  0  0  0  0  0  0
   -1.3963   -2.2731   -2.9111 H   0  0  0  0  0  0  0  0  0  0  0  0
   -2.9546   -1.3914   -2.5545 H   0  0  0  0  0  0  0  0  0  0  0  0
   -2.5971   -2.8702   -1.6821 H   0  0  0  0  0  0  0  0  0  0  0  0
   -1.3904   -1.1889   -1.0751 C   0  0  0  0  0  0  0  0  0  0  0  0
   -2.0015   -0.6268    0.0563 C   0  0  0  0  0  0  0  0  0  0  0  0
   -3.4388   -0.8000    0.3229 C   0  0  0  0  0  0  0  0  0  0  0  0
   -4.0306   -0.1820    1.5961 C   0  0  0  0  0  0  0  0  0  0  0  0
   -3.5186   -0.5338    2.5162 H   0  0  0  0  0  0  0  0  0  0  0  0
   -5.0940   -0.4765    1.6434 H   0  0  0  0  0  0  0  0  0  0  0  0
   -3.9721    0.9267    1.5888 H   0  0  0  0  0  0  0  0  0  0  0  0
  1 21  1  0  0  0  0
  2 28  1  0  0  0  0
  3 30  2  0  0  0  0
  4 15  1  0  0  0  0
  5  6  1  0  0  0  0
  5 18  1  0  0  0  0
  7  4  1  0  0  0  0
  8  7  1  0  0  0  0
  9  7  1  0  0  0  0
  9 11  2  0  0  0  0
 10  9  1  0  0  0  0
 11 13  1  0  0  0  0
 12 11  1  0  0  0  0
 13 15  2  0  0  0  0
 13 14  1  0  0  0  0
 15 16  1  0  0  0  0
 16  5  1  0  0  0  0
 16 17  1  1  0  0  0
 18 19  1  0  0  0  0
 20 18  1  0  0  0  0
 21 23  1  0  0  0  0
 21 18  1  0  0  0  0
 21 22  1  0  0  0  0
 24 27  1  0  0  0  0
 24 28  1  0  0  0  0
 25 24  1  0  0  0  0
 26 24  1  0  0  0  0
 28 29  2  0  0  0  0
 29 30  1  0  0  0  0
 29 16  1  0  0  0  0
 30 31  1  0  0  0  0
 31 33  1  0  0  0  0
 31 32  1  0  0  0  0
 34 31  1  0  0  0  0
M  CHG  1   2  -1
M  END
