1,2,27,45
 OpenBabel05122313063D

 49 52  0  0  0  0  0  0  0  0999 V2000
    1.1409   -0.8501    0.9459 O   0  5  0  0  0  0  0  0  0  0  0  0
    1.4790    1.5613   -0.5903 N   0  0  0  0  0  2  0  0  0  0  0  0
    3.2529   -0.0237    0.0435 C   0  0  0  0  0  0  0  0  0  0  0  0
    2.4223   -0.9401    0.7988 C   0  0  0  0  0  0  0  0  0  0  0  0
    3.0849   -2.0204    1.4979 C   0  0  0  0  0  0  0  0  0  0  0  0
    2.4347   -2.6732    2.0983 H   0  0  0  0  0  0  0  0  0  0  0  0
    4.4369   -2.2315    1.4048 C   0  0  0  0  0  0  0  0  0  0  0  0
    4.9025   -3.0741    1.9415 H   0  0  0  0  0  0  0  0  0  0  0  0
    5.2773   -1.3877    0.6054 C   0  0  0  0  0  0  0  0  0  0  0  0
    6.6698   -1.6376    0.4891 C   0  0  0  0  0  0  0  0  0  0  0  0
    7.0955   -2.4926    1.0380 H   0  0  0  0  0  0  0  0  0  0  0  0
    7.4824   -0.8314   -0.3007 C   0  0  0  0  0  0  0  0  0  0  0  0
    8.5602   -1.0350   -0.3849 H   0  0  0  0  0  0  0  0  0  0  0  0
    6.9011    0.2431   -1.0114 C   0  0  0  0  0  0  0  0  0  0  0  0
    7.5280    0.8734   -1.6607 H   0  0  0  0  0  0  0  0  0  0  0  0
    5.5356    0.5037   -0.9172 C   0  0  0  0  0  0  0  0  0  0  0  0
    5.1152    1.3194   -1.5228 H   0  0  0  0  0  0  0  0  0  0  0  0
    4.6804   -0.2813   -0.0926 C   0  0  0  0  0  0  0  0  0  0  0  0
    2.7382    1.2327   -0.4148 C   0  0  0  0  0  3  0  0  0  0  0  0
    3.4866    2.0383   -0.5828 H   0  0  0  0  0  0  0  0  0  0  0  0
    1.1197    2.9648   -0.7312 C   0  0  0  0  0  0  0  0  0  0  0  0
    2.0381    3.5878   -0.8327 H   0  0  0  0  0  0  0  0  0  0  0  0
    0.5201    3.1052   -1.6590 H   0  0  0  0  0  0  0  0  0  0  0  0
    0.3018    3.4419    0.4887 C   0  0  0  0  0  0  0  0  0  0  0  0
    0.3690    4.5481    0.5534 H   0  0  0  0  0  0  0  0  0  0  0  0
    0.7842    3.0437    1.4073 H   0  0  0  0  0  0  0  0  0  0  0  0
   -1.2121   -0.8602   -1.1011 O   0  5  0  0  0  0  0  0  0  0  0  0
   -2.4838   -0.9343   -0.8866 C   0  0  0  0  0  0  0  0  0  0  0  0
   -3.2598    0.0086   -0.1057 C   0  0  0  0  0  0  0  0  0  0  0  0
   -4.6754   -0.2474    0.1389 C   0  0  0  0  0  0  0  0  0  0  0  0
   -5.3184   -1.3658   -0.4959 C   0  0  0  0  0  0  0  0  0  0  0  0
   -4.5362   -2.2262   -1.3365 C   0  0  0  0  0  0  0  0  0  0  0  0
   -3.1927   -2.0238   -1.5223 C   0  0  0  0  0  0  0  0  0  0  0  0
   -2.5845   -2.6919   -2.1494 H   0  0  0  0  0  0  0  0  0  0  0  0
   -5.0395   -3.0762   -1.8250 H   0  0  0  0  0  0  0  0  0  0  0  0
   -6.6990   -1.6138   -0.2787 C   0  0  0  0  0  0  0  0  0  0  0  0
   -7.1608   -2.4778   -0.7823 H   0  0  0  0  0  0  0  0  0  0  0  0
   -7.4553   -0.7953    0.5533 C   0  0  0  0  0  0  0  0  0  0  0  0
   -8.5242   -0.9978    0.7163 H   0  0  0  0  0  0  0  0  0  0  0  0
   -6.8267    0.2900    1.2041 C   0  0  0  0  0  0  0  0  0  0  0  0
   -7.4066    0.9301    1.8866 H   0  0  0  0  0  0  0  0  0  0  0  0
   -5.4716    0.5498    1.0088 C   0  0  0  0  0  0  0  0  0  0  0  0
   -5.0118    1.3754    1.5708 H   0  0  0  0  0  0  0  0  0  0  0  0
   -2.7205    1.2772    0.2796 C   0  0  0  0  0  3  0  0  0  0  0  0
   -1.4581    1.6487    0.3103 N   0  0  0  0  0  2  0  0  0  0  0  0
   -1.1862    3.0818    0.4661 C   0  0  0  0  0  0  0  0  0  0  0  0
   -1.6670    3.4638    1.3966 H   0  0  0  0  0  0  0  0  0  0  0  0
   -1.6647    3.6320   -0.3773 H   0  0  0  0  0  0  0  0  0  0  0  0
   -3.4720    2.0601    0.5205 H   0  0  0  0  0  0  0  0  0  0  0  0
  2 19  1  0  0  0  0
  3  4  1  0  0  0  0
  4  1  1  0  0  0  0
  4  5  2  0  0  0  0
  5  6  1  0  0  0  0
  7  5  1  0  0  0  0
  7  8  1  0  0  0  0
  9  7  2  0  0  0  0
 10  9  1  0  0  0  0
 10 11  1  0  0  0  0
 12 10  2  0  0  0  0
 13 12  1  0  0  0  0
 14 16  2  0  0  0  0
 14 12  1  0  0  0  0
 15 14  1  0  0  0  0
 16 18  1  0  0  0  0
 17 16  1  0  0  0  0
 18  3  2  0  0  0  0
 18  9  1  0  0  0  0
 19  3  1  0  0  0  0
 20 19  1  0  0  0  0
 21  2  1  0  0  0  0
 21 24  1  0  0  0  0
 22 21  1  0  0  0  0
 23 21  1  0  0  0  0
 24 25  1  0  0  0  0
 24 26  1  0  0  0  0
 27 28  1  0  0  0  0
 28 29  1  0  0  0  0
 29 30  2  0  0  0  0
 29 44  1  0  0  0  0
 30 42  1  0  0  0  0
 31 36  1  0  0  0  0
 31 30  1  0  0  0  0
 32 31  2  0  0  0  0
 33 32  1  0  0  0  0
 33 28  2  0  0  0  0
 34 33  1  0  0  0  0
 35 32  1  0  0  0  0
 36 38  2  0  0  0  0
 37 36  1  0  0  0  0
 38 39  1  0  0  0  0
 38 40  1  0  0  0  0
 40 41  1  0  0  0  0
 42 40  2  0  0  0  0
 42 43  1  0  0  0  0
 44 45  1  0  0  0  0
 44 49  1  0  0  0  0
 45 46  1  0  0  0  0
 46 24  1  0  0  0  0
 46 47  1  0  0  0  0
 48 46  1  0  0  0  0
M  CHG  2   1  -1  27  -1
M  END
