1,2,3,4
 OpenBabel05122313063D

 74 77  0  0  1  0  0  0  0  0999 V2000
    0.8622    0.9117   -1.4239 O   0  5  0  0  0  0  0  0  0  0  0  0
   -1.5781    1.2520   -1.6012 O   0  5  0  0  0  0  0  0  0  0  0  0
    0.4954   -1.7403   -0.7852 N   0  0  0  0  0  2  0  0  0  0  0  0
   -2.0377   -1.3917   -1.0843 N   0  0  0  0  0  2  0  0  0  0  0  0
   -0.3093   -2.8969   -0.3947 C   0  0  0  0  0  0  0  0  0  0  0  0
    0.1826   -3.8614   -0.6387 H   0  0  0  0  0  0  0  0  0  0  0  0
   -0.4874   -2.8841    0.7067 H   0  0  0  0  0  0  0  0  0  0  0  0
   -1.6358   -2.7942   -1.1228 C   0  0  0  0  0  0  0  0  0  0  0  0
   -2.3794   -3.4690   -0.6541 H   0  0  0  0  0  0  0  0  0  0  0  0
   -1.5065   -3.1087   -2.1844 H   0  0  0  0  0  0  0  0  0  0  0  0
    1.8209   -1.7437   -0.6326 C   0  0  1  0  0  3  0  0  0  0  0  0
    2.6259   -0.6106   -0.8990 C   0  0  0  0  0  0  0  0  0  0  0  0
    3.7094   -0.7023   -0.7664 H   0  0  0  0  0  0  0  0  0  0  0  0
    2.1084    0.6398   -1.2544 C   0  0  0  0  0  0  0  0  0  0  0  0
   -3.3152   -1.0241   -1.0252 C   0  0  2  0  0  3  0  0  0  0  0  0
   -3.7252    0.3299   -1.1344 C   0  0  0  0  0  0  0  0  0  0  0  0
   -4.7933    0.5563   -1.0233 H   0  0  0  0  0  0  0  0  0  0  0  0
   -2.8458    1.3769   -1.4420 C   0  0  0  0  0  0  0  0  0  0  0  0
    2.4960   -3.0213   -0.1232 C   0  0  0  0  0  0  0  0  0  0  0  0
    2.0042   -3.3089    0.8312 H   0  0  0  0  0  0  0  0  0  0  0  0
    2.2730   -3.8453   -0.8351 H   0  0  0  0  0  0  0  0  0  0  0  0
    3.9869   -2.9372    0.0922 C   0  0  0  0  0  0  0  0  0  0  0  0
    4.8864   -3.3421   -0.9133 C   0  0  0  0  0  0  0  0  0  0  0  0
    4.4914   -3.7433   -1.8603 H   0  0  0  0  0  0  0  0  0  0  0  0
    6.2726   -3.2336   -0.7241 C   0  0  0  0  0  0  0  0  0  0  0  0
    6.9605   -3.5566   -1.5204 H   0  0  0  0  0  0  0  0  0  0  0  0
    6.7803   -2.7151    0.4773 C   0  0  0  0  0  0  0  0  0  0  0  0
    7.8672   -2.6292    0.6275 H   0  0  0  0  0  0  0  0  0  0  0  0
    5.8935   -2.3089    1.4877 C   0  0  0  0  0  0  0  0  0  0  0  0
    6.2830   -1.9013    2.4330 H   0  0  0  0  0  0  0  0  0  0  0  0
    4.5090   -2.4206    1.2954 C   0  0  0  0  0  0  0  0  0  0  0  0
    3.8167   -2.0908    2.0860 H   0  0  0  0  0  0  0  0  0  0  0  0
    3.0392    1.8369   -1.3667 C   0  0  0  0  0  0  0  0  0  0  0  0
    4.0409    1.5143   -1.7100 H   0  0  0  0  0  0  0  0  0  0  0  0
    2.6138    2.5215   -2.1296 H   0  0  0  0  0  0  0  0  0  0  0  0
    3.1575    2.5546   -0.0319 C   0  0  0  0  0  0  0  0  0  0  0  0
    4.4157    2.7817    0.5578 C   0  0  0  0  0  0  0  0  0  0  0  0
    5.3252    2.4368    0.0403 H   0  0  0  0  0  0  0  0  0  0  0  0
    4.5220    3.4413    1.7930 C   0  0  0  0  0  0  0  0  0  0  0  0
    5.5150    3.6125    2.2369 H   0  0  0  0  0  0  0  0  0  0  0  0
    3.3674    3.8782    2.4598 C   0  0  0  0  0  0  0  0  0  0  0  0
    3.4492    4.3948    3.4284 H   0  0  0  0  0  0  0  0  0  0  0  0
    2.1067    3.6478    1.8838 C   0  0  0  0  0  0  0  0  0  0  0  0
    1.1912    3.9815    2.3968 H   0  0  0  0  0  0  0  0  0  0  0  0
    2.0016    2.9903    0.6501 C   0  0  0  0  0  0  0  0  0  0  0  0
    1.0121    2.7952    0.2099 H   0  0  0  0  0  0  0  0  0  0  0  0
   -4.4019   -2.0663   -0.8013 C   0  0  0  0  0  0  0  0  0  0  0  0
   -4.3657   -2.8395   -1.5976 H   0  0  0  0  0  0  0  0  0  0  0  0
   -5.3832   -1.5624   -0.9165 H   0  0  0  0  0  0  0  0  0  0  0  0
   -4.3454   -2.7395    0.5614 C   0  0  0  0  0  0  0  0  0  0  0  0
   -3.9090   -2.0315    1.6996 C   0  0  0  0  0  0  0  0  0  0  0  0
   -3.5824   -0.9853    1.5922 H   0  0  0  0  0  0  0  0  0  0  0  0
   -3.8802   -2.6503    2.9583 C   0  0  0  0  0  0  0  0  0  0  0  0
   -3.5343   -2.0827    3.8358 H   0  0  0  0  0  0  0  0  0  0  0  0
   -4.2882   -3.9863    3.1009 C   0  0  0  0  0  0  0  0  0  0  0  0
   -4.2626   -4.4714    4.0884 H   0  0  0  0  0  0  0  0  0  0  0  0
   -4.7253   -4.7000    1.9742 C   0  0  0  0  0  0  0  0  0  0  0  0
   -5.0441   -5.7489    2.0738 H   0  0  0  0  0  0  0  0  0  0  0  0
   -4.7508   -4.0803    0.7155 C   0  0  0  0  0  0  0  0  0  0  0  0
   -5.0886   -4.6474   -0.1673 H   0  0  0  0  0  0  0  0  0  0  0  0
   -3.3729    2.7962   -1.6242 C   0  0  0  0  0  0  0  0  0  0  0  0
   -3.0825    3.1183   -2.6471 H   0  0  0  0  0  0  0  0  0  0  0  0
   -4.4782    2.7947   -1.5734 H   0  0  0  0  0  0  0  0  0  0  0  0
   -2.7981    3.7638   -0.6092 C   0  0  0  0  0  0  0  0  0  0  0  0
   -1.4504    4.1718   -0.6911 C   0  0  0  0  0  0  0  0  0  0  0  0
   -0.8196    3.7713   -1.4985 H   0  0  0  0  0  0  0  0  0  0  0  0
   -0.9141    5.0533    0.2587 C   0  0  0  0  0  0  0  0  0  0  0  0
    0.1389    5.3632    0.1803 H   0  0  0  0  0  0  0  0  0  0  0  0
   -1.7123    5.5342    1.3101 C   0  0  0  0  0  0  0  0  0  0  0  0
   -1.2897    6.2285    2.0527 H   0  0  0  0  0  0  0  0  0  0  0  0
   -3.0516    5.1262    1.4058 C   0  0  0  0  0  0  0  0  0  0  0  0
   -3.6854    5.4961    2.2265 H   0  0  0  0  0  0  0  0  0  0  0  0
   -3.5878    4.2464    0.4522 C   0  0  0  0  0  0  0  0  0  0  0  0
   -4.6401    3.9289    0.5300 H   0  0  0  0  0  0  0  0  0  0  0  0
  1 14  1  0  0  0  0
  2 18  1  0  0  0  0
  3 11  1  0  0  0  0
  3  5  1  0  0  0  0
  4 15  1  0  0  0  0
  5  7  1  0  0  0  0
  6  5  1  0  0  0  0
  8  4  1  0  0  0  0
  8  9  1  0  0  0  0
  8  5  1  0  0  0  0
 10  8  1  0  0  0  0
 11 12  1  1  0  0  0
 11 19  1  0  0  0  0
 12 13  1  0  0  0  0
 14 12  2  0  0  0  0
 15 16  1  1  0  0  0
 15 47  1  0  0  0  0
 16 17  1  0  0  0  0
 18 16  2  0  0  0  0
 19 22  1  0  0  0  0
 19 20  1  0  0  0  0
 21 19  1  0  0  0  0
 22 31  1  0  0  0  0
 23 25  1  0  0  0  0
 23 22  2  0  0  0  0
 24 23  1  0  0  0  0
 25 27  2  0  0  0  0
 26 25  1  0  0  0  0
 27 28  1  0  0  0  0
 27 29  1  0  0  0  0
 29 30  1  0  0  0  0
 31 29  2  0  0  0  0
 31 32  1  0  0  0  0
 33 14  1  0  0  0  0
 33 36  1  0  0  0  0
 34 33  1  0  0  0  0
 35 33  1  0  0  0  0
 36 37  2  0  0  0  0
 36 45  1  0  0  0  0
 37 39  1  0  0  0  0
 38 37  1  0  0  0  0
 39 40  1  0  0  0  0
 39 41  2  0  0  0  0
 41 42  1  0  0  0  0
 43 44  1  0  0  0  0
 43 41  1  0  0  0  0
 45 43  2  0  0  0  0
 46 45  1  0  0  0  0
 47 50  1  0  0  0  0
 48 47  1  0  0  0  0
 49 47  1  0  0  0  0
 50 59  2  0  0  0  0
 50 51  1  0  0  0  0
 51 53  2  0  0  0  0
 52 51  1  0  0  0  0
 53 55  1  0  0  0  0
 53 54  1  0  0  0  0
 55 56  1  0  0  0  0
 57 58  1  0  0  0  0
 57 55  2  0  0  0  0
 59 57  1  0  0  0  0
 60 59  1  0  0  0  0
 61 63  1  0  0  0  0
 61 18  1  0  0  0  0
 61 64  1  0  0  0  0
 62 61  1  0  0  0  0
 64 73  1  0  0  0  0
 65 64  2  0  0  0  0
 65 67  1  0  0  0  0
 66 65  1  0  0  0  0
 67 69  2  0  0  0  0
 68 67  1  0  0  0  0
 69 71  1  0  0  0  0
 69 70  1  0  0  0  0
 71 72  1  0  0  0  0
 73 74  1  0  0  0  0
 73 71  2  0  0  0  0
M  CHG  2   1  -1   2  -1
M  END
