1,13,26,38
 OpenBabel05122313063D

 50 51  0  0  0  0  0  0  0  0999 V2000
   -1.7804   -0.6895    0.9618 O   0  5  0  0  0  0  0  0  0  0  0  0
   -3.0935    0.8799   -0.3196 C   0  0  0  0  0  0  0  0  0  0  0  0
   -2.9365   -0.3398    0.3870 C   0  0  0  0  0  0  0  0  0  0  0  0
   -4.0176   -1.2626    0.4837 C   0  0  0  0  0  0  0  0  0  0  0  0
   -5.2391   -0.9443   -0.1280 C   0  0  0  0  0  0  0  0  0  0  0  0
   -6.0868   -1.6412   -0.0565 H   0  0  0  0  0  0  0  0  0  0  0  0
   -5.3890    0.2586   -0.8364 C   0  0  0  0  0  0  0  0  0  0  0  0
   -4.3242    1.1625   -0.9386 C   0  0  0  0  0  0  0  0  0  0  0  0
   -4.4564    2.0981   -1.5015 H   0  0  0  0  0  0  0  0  0  0  0  0
   -1.9802    1.8951   -0.3899 C   0  0  0  0  0  0  0  0  0  0  0  0
   -2.2248    2.6367   -1.1862 H   0  0  0  0  0  0  0  0  0  0  0  0
   -1.9056    2.4513    0.5677 H   0  0  0  0  0  0  0  0  0  0  0  0
   -0.6229    1.3363   -0.6452 N   0  0  0  0  0  0  0  0  0  0  0  0
   -0.6010    0.4645   -1.8393 C   0  0  0  0  0  0  0  0  0  0  0  0
   -0.5922    1.0750   -2.7724 H   0  0  0  0  0  0  0  0  0  0  0  0
   -1.5451   -0.1150   -1.8521 H   0  0  0  0  0  0  0  0  0  0  0  0
   -3.8184   -2.5368    1.2565 C   0  0  0  0  0  0  0  0  0  0  0  0
   -4.7445   -3.1408    1.2868 H   0  0  0  0  0  0  0  0  0  0  0  0
   -3.4964   -2.3208    2.2959 H   0  0  0  0  0  0  0  0  0  0  0  0
   -3.0096   -3.1540    0.8130 H   0  0  0  0  0  0  0  0  0  0  0  0
   -6.9144    0.6280   -1.6057 Cl  0  0  0  0  0  0  0  0  0  0  0  0
    0.3120    2.4674   -0.7931 C   0  0  0  0  0  0  0  0  0  0  0  0
    1.3286    2.1060   -1.0238 H   0  0  0  0  0  0  0  0  0  0  0  0
    0.3576    3.0306    0.1571 H   0  0  0  0  0  0  0  0  0  0  0  0
   -0.0278    3.1469   -1.6088 H   0  0  0  0  0  0  0  0  0  0  0  0
    1.7806    0.6974    0.9553 O   0  5  0  0  0  0  0  0  0  0  0  0
    3.0927   -0.8820   -0.3150 C   0  0  0  0  0  0  0  0  0  0  0  0
    2.9366    0.3425    0.3835 C   0  0  0  0  0  0  0  0  0  0  0  0
    4.0186    1.2648    0.4745 C   0  0  0  0  0  0  0  0  0  0  0  0
    5.2400    0.9414   -0.1344 C   0  0  0  0  0  0  0  0  0  0  0  0
    6.0884    1.6379   -0.0672 H   0  0  0  0  0  0  0  0  0  0  0  0
    5.3891   -0.2663   -0.8348 C   0  0  0  0  0  0  0  0  0  0  0  0
    4.3234   -1.1698   -0.9316 C   0  0  0  0  0  0  0  0  0  0  0  0
    4.4550   -2.1093   -1.4882 H   0  0  0  0  0  0  0  0  0  0  0  0
    1.9787   -1.8969   -0.3791 C   0  0  0  0  0  0  0  0  0  0  0  0
    2.2225   -2.6432   -1.1711 H   0  0  0  0  0  0  0  0  0  0  0  0
    1.9042   -2.4474    0.5818 H   0  0  0  0  0  0  0  0  0  0  0  0
    0.6216   -1.3389   -0.6372 N   0  0  0  0  0  0  0  0  0  0  0  0
    0.5997   -0.4743   -1.8365 C   0  0  0  0  0  0  0  0  0  0  0  0
    0.5907   -1.0906   -2.7659 H   0  0  0  0  0  0  0  0  0  0  0  0
    1.5437    0.1050   -1.8530 H   0  0  0  0  0  0  0  0  0  0  0  0
    3.8202    2.5443    1.2388 C   0  0  0  0  0  0  0  0  0  0  0  0
    4.7465    3.1483    1.2644 H   0  0  0  0  0  0  0  0  0  0  0  0
    3.4989    2.3355    2.2799 H   0  0  0  0  0  0  0  0  0  0  0  0
    3.0112    3.1587    0.7917 H   0  0  0  0  0  0  0  0  0  0  0  0
    6.9144   -0.6422   -1.6011 Cl  0  0  0  0  0  0  0  0  0  0  0  0
   -0.3139   -2.4703   -0.7778 C   0  0  0  0  0  0  0  0  0  0  0  0
   -1.3305   -2.1099   -1.0103 H   0  0  0  0  0  0  0  0  0  0  0  0
   -0.3594   -3.0278    0.1758 H   0  0  0  0  0  0  0  0  0  0  0  0
    0.0251   -3.1549   -1.5895 H   0  0  0  0  0  0  0  0  0  0  0  0
  2  3  1  0  0  0  0
  3  4  2  0  0  0  0
  3  1  1  0  0  0  0
  4 17  1  0  0  0  0
  5  6  1  0  0  0  0
  5  4  1  0  0  0  0
  7  5  2  0  0  0  0
  8  7  1  0  0  0  0
  8  2  2  0  0  0  0
  9  8  1  0  0  0  0
 10  2  1  0  0  0  0
 10 12  1  0  0  0  0
 11 10  1  0  0  0  0
 13 10  1  0  0  0  0
 14 39  1  0  0  0  0
 14 13  1  0  0  0  0
 15 14  1  0  0  0  0
 16 14  1  0  0  0  0
 17 18  1  0  0  0  0
 17 19  1  0  0  0  0
 20 17  1  0  0  0  0
 21  7  1  0  0  0  0
 22 13  1  0  0  0  0
 22 24  1  0  0  0  0
 23 22  1  0  0  0  0
 25 22  1  0  0  0  0
 27 28  1  0  0  0  0
 28 29  2  0  0  0  0
 28 26  1  0  0  0  0
 29 42  1  0  0  0  0
 30 31  1  0  0  0  0
 30 29  1  0  0  0  0
 32 30  2  0  0  0  0
 33 32  1  0  0  0  0
 33 27  2  0  0  0  0
 34 33  1  0  0  0  0
 35 27  1  0  0  0  0
 35 37  1  0  0  0  0
 36 35  1  0  0  0  0
 38 35  1  0  0  0  0
 39 38  1  0  0  0  0
 40 39  1  0  0  0  0
 41 39  1  0  0  0  0
 42 43  1  0  0  0  0
 42 44  1  0  0  0  0
 45 42  1  0  0  0  0
 46 32  1  0  0  0  0
 47 38  1  0  0  0  0
 47 49  1  0  0  0  0
 48 47  1  0  0  0  0
 50 47  1  0  0  0  0
M  CHG  2   1  -1  26  -1
M  END
