1,2,7,8
 OpenBabel05122313063D

 52 53  0  0  1  0  0  0  0  0999 V2000
   -1.2442   -0.8802   -0.0462 O   0  0  0  0  0  1  0  0  0  0  0  0
    1.2447   -0.8794    0.0485 O   0  5  0  0  0  0  0  0  0  0  0  0
   -1.4100   -3.3529   -0.8068 O   0  0  0  0  0  0  0  0  0  0  0  0
   -3.4287   -4.3204   -0.7346 O   0  0  0  0  0  0  0  0  0  0  0  0
    1.4122   -3.3519    0.8090 O   0  0  0  0  0  0  0  0  0  0  0  0
    3.4310   -4.3188    0.7343 O   0  0  0  0  0  0  0  0  0  0  0  0
   -1.2396    1.8384    0.2635 N   0  0  0  0  0  2  0  0  0  0  0  0
    1.2386    1.8389   -0.2633 N   0  0  0  0  0  2  0  0  0  0  0  0
   -2.7340   -3.3300   -0.5912 C   0  0  0  0  0  0  0  0  0  0  0  0
   -3.3336   -1.9937   -0.2020 C   0  0  0  0  0  0  0  0  0  0  0  0
   -2.5532   -0.8096    0.0109 C   0  0  2  0  0  3  0  0  0  0  0  0
   -3.2431    0.4245    0.2789 C   0  0  0  0  0  0  0  0  0  0  0  0
   -4.6597    0.4316    0.3969 C   0  0  0  0  0  0  0  0  0  0  0  0
   -5.3993   -0.7344    0.2326 C   0  0  0  0  0  0  0  0  0  0  0  0
   -4.7256   -1.9326   -0.0764 C   0  0  0  0  0  0  0  0  0  0  0  0
   -2.5314    1.6597    0.4064 C   0  0  0  0  0  0  0  0  0  0  0  0
   -0.6178    3.1775    0.4870 C   0  0  0  0  0  0  0  0  0  0  0  0
   -1.5828    4.3347    0.1960 C   0  0  0  0  0  0  0  0  0  0  0  0
   -0.1671    3.2395    1.9595 C   0  0  0  0  0  0  0  0  0  0  0  0
    0.1655    3.2404   -1.9587 C   0  0  0  0  0  0  0  0  0  0  0  0
    1.5809    4.3353   -0.1947 C   0  0  0  0  0  0  0  0  0  0  0  0
    0.6162    3.1779   -0.4863 C   0  0  0  0  0  0  0  0  0  0  0  0
    2.5302    1.6606   -0.4075 C   0  0  0  0  0  0  0  0  0  0  0  0
    3.2425    0.4257   -0.2805 C   0  0  0  0  0  0  0  0  0  0  0  0
    4.6590    0.4333   -0.4006 C   0  0  0  0  0  3  0  0  0  0  0  0
    5.3993   -0.7323   -0.2366 C   0  0  0  0  0  0  0  0  0  0  0  0
    4.7264   -1.9306    0.0743 C   0  0  0  0  0  0  0  0  0  0  0  0
    3.3347   -1.9921    0.2019 C   0  0  0  0  0  0  0  0  0  0  0  0
    2.5535   -0.8084   -0.0107 C   0  0  0  0  0  0  0  0  0  0  0  0
    2.7361   -3.3283    0.5931 C   0  0  0  0  0  0  0  0  0  0  0  0
    1.0472   -2.4452    0.6055 H   0  0  0  0  0  0  0  0  0  0  0  0
   -5.1640    1.3869    0.6146 H   0  0  0  0  0  0  0  0  0  0  0  0
   -6.4943   -0.7207    0.3282 H   0  0  0  0  0  0  0  0  0  0  0  0
   -5.2681   -2.8768   -0.2403 H   0  0  0  0  0  0  0  0  0  0  0  0
   -3.1508    2.5443    0.6396 H   0  0  0  0  0  0  0  0  0  0  0  0
   -1.0307    5.2937    0.1859 H   0  0  0  0  0  0  0  0  0  0  0  0
   -2.3503    4.4261    0.9888 H   0  0  0  0  0  0  0  0  0  0  0  0
   -2.0971    4.2201   -0.7768 H   0  0  0  0  0  0  0  0  0  0  0  0
    0.6013    2.4720    2.1743 H   0  0  0  0  0  0  0  0  0  0  0  0
   -1.0351    3.0502    2.6206 H   0  0  0  0  0  0  0  0  0  0  0  0
    0.2418    4.2371    2.2105 H   0  0  0  0  0  0  0  0  0  0  0  0
   -0.6026    2.4726   -2.1739 H   0  0  0  0  0  0  0  0  0  0  0  0
   -0.2438    4.2379   -2.2093 H   0  0  0  0  0  0  0  0  0  0  0  0
    1.0336    3.0518   -2.6199 H   0  0  0  0  0  0  0  0  0  0  0  0
    1.0284    5.2941   -0.1839 H   0  0  0  0  0  0  0  0  0  0  0  0
    2.0953    4.2202    0.7779 H   0  0  0  0  0  0  0  0  0  0  0  0
    2.3483    4.4275   -0.9875 H   0  0  0  0  0  0  0  0  0  0  0  0
    3.1490    2.5454   -0.6416 H   0  0  0  0  0  0  0  0  0  0  0  0
    5.1626    1.3886   -0.6196 H   0  0  0  0  0  0  0  0  0  0  0  0
    6.4941   -0.7183   -0.3338 H   0  0  0  0  0  0  0  0  0  0  0  0
    5.2695   -2.8744    0.2380 H   0  0  0  0  0  0  0  0  0  0  0  0
   -1.0455   -2.4462   -0.6030 H   0  0  0  0  0  0  0  0  0  0  0  0
  3 52  1  0  0  0  0
  3  9  1  0  0  0  0
  4  9  2  0  0  0  0
  7 16  1  0  0  0  0
  7 17  1  0  0  0  0
  9 10  1  0  0  0  0
 10 15  2  0  0  0  0
 10 11  1  0  0  0  0
 11  1  1  6  0  0  0
 11 12  1  0  0  0  0
 12 13  1  0  0  0  0
 12 16  2  0  0  0  0
 13 32  1  0  0  0  0
 14 33  1  0  0  0  0
 14 13  2  0  0  0  0
 15 14  1  0  0  0  0
 16 35  1  0  0  0  0
 17 19  1  0  0  0  0
 18 17  1  0  0  0  0
 18 37  1  0  0  0  0
 19 39  1  0  0  0  0
 19 41  1  0  0  0  0
 19 40  1  0  0  0  0
 20 22  1  0  0  0  0
 21 45  1  0  0  0  0
 21 46  1  0  0  0  0
 22  8  1  0  0  0  0
 22 21  1  0  0  0  0
 22 17  1  0  0  0  0
 23 24  2  0  0  0  0
 23  8  1  0  0  0  0
 24 29  1  0  0  0  0
 25 24  1  0  0  0  0
 25 26  1  0  0  0  0
 26 27  2  0  0  0  0
 27 28  1  0  0  0  0
 27 51  1  0  0  0  0
 28 30  1  0  0  0  0
 29  2  1  0  0  0  0
 29 28  2  0  0  0  0
 30  6  2  0  0  0  0
 30  5  1  0  0  0  0
 31  5  1  0  0  0  0
 34 15  1  0  0  0  0
 36 18  1  0  0  0  0
 38 18  1  0  0  0  0
 42 20  1  0  0  0  0
 43 20  1  0  0  0  0
 44 20  1  0  0  0  0
 47 21  1  0  0  0  0
 48 23  1  0  0  0  0
 49 25  1  0  0  0  0
 50 26  1  0  0  0  0
M  CHG  1   2  -1
M  END
