1,2,5,6
 OpenBabel05122313063D

 48 49  0  0  1  0  0  0  0  0999 V2000
    1.2258   -1.2198   -0.1092 O   0  5  0  0  0  0  0  0  0  0  0  0
   -1.2258   -1.2199    0.1064 O   0  0  0  0  0  1  0  0  0  0  0  0
    6.7338   -1.3154    0.2538 O   0  0  0  0  0  0  0  0  0  0  0  0
   -6.7341   -1.3152   -0.2510 O   0  0  0  0  0  0  0  0  0  0  0  0
    1.2859    1.4752   -0.2152 N   0  0  0  0  0  2  0  0  0  0  0  0
   -1.2857    1.4751    0.2142 N   0  0  0  0  0  2  0  0  0  0  0  0
    2.5188   -1.1311   -0.0358 C   0  0  0  0  0  0  0  0  0  0  0  0
    3.2488   -2.3565    0.1287 C   0  0  0  0  0  0  0  0  0  0  0  0
    2.6521   -3.2777    0.1900 H   0  0  0  0  0  0  0  0  0  0  0  0
    4.6271   -2.3826    0.2119 C   0  0  0  0  0  0  0  0  0  0  0  0
    5.1754   -3.3273    0.3440 H   0  0  0  0  0  0  0  0  0  0  0  0
    5.3764   -1.1760    0.1354 C   0  0  0  0  0  0  0  0  0  0  0  0
    4.7073    0.0306   -0.0439 C   0  0  0  0  0  3  0  0  0  0  0  0
    5.2831    0.9624   -0.0797 H   0  0  0  0  0  0  0  0  0  0  0  0
    3.2785    0.0913   -0.1407 C   0  0  0  0  0  0  0  0  0  0  0  0
    2.6031    1.3534   -0.3486 C   0  0  0  0  0  0  0  0  0  0  0  0
    0.6392    2.7726   -0.4098 C   0  0  0  0  0  0  0  0  0  0  0  0
    0.3945    2.9138   -1.4881 H   0  0  0  0  0  0  0  0  0  0  0  0
    1.2804    3.6215   -0.0981 H   0  0  0  0  0  0  0  0  0  0  0  0
   -0.6391    2.7727    0.4083 C   0  0  0  0  0  0  0  0  0  0  0  0
   -0.3944    2.9144    1.4866 H   0  0  0  0  0  0  0  0  0  0  0  0
   -1.2804    3.6214    0.0962 H   0  0  0  0  0  0  0  0  0  0  0  0
   -2.6028    1.3533    0.3486 C   0  0  0  0  0  0  0  0  0  0  0  0
   -3.2784    0.0913    0.1408 C   0  0  0  0  0  0  0  0  0  0  0  0
   -4.7073    0.0307    0.0454 C   0  0  0  0  0  0  0  0  0  0  0  0
   -5.2831    0.9624    0.0824 H   0  0  0  0  0  0  0  0  0  0  0  0
   -5.3766   -1.1758   -0.1340 C   0  0  0  0  0  0  0  0  0  0  0  0
   -4.6273   -2.3823   -0.2121 C   0  0  0  0  0  0  0  0  0  0  0  0
   -5.1758   -3.3270   -0.3443 H   0  0  0  0  0  0  0  0  0  0  0  0
   -3.2490   -2.3563   -0.1302 C   0  0  0  0  0  0  0  0  0  0  0  0
   -2.6523   -3.2775   -0.1928 H   0  0  0  0  0  0  0  0  0  0  0  0
   -2.5189   -1.1311    0.0343 C   0  0  2  0  0  3  0  0  0  0  0  0
    7.5227   -0.1515    0.1700 C   0  0  0  0  0  0  0  0  0  0  0  0
    8.5765   -0.4716    0.2742 H   0  0  0  0  0  0  0  0  0  0  0  0
    7.2859    0.5750    0.9824 H   0  0  0  0  0  0  0  0  0  0  0  0
    7.3993    0.3689   -0.8087 H   0  0  0  0  0  0  0  0  0  0  0  0
    3.4172    2.5717   -0.7338 C   0  0  0  0  0  0  0  0  0  0  0  0
    2.9003    3.1719   -1.5065 H   0  0  0  0  0  0  0  0  0  0  0  0
    4.3972    2.2834   -1.1486 H   0  0  0  0  0  0  0  0  0  0  0  0
    3.6015    3.2379    0.1365 H   0  0  0  0  0  0  0  0  0  0  0  0
   -3.4167    2.5715    0.7345 C   0  0  0  0  0  0  0  0  0  0  0  0
   -2.8988    3.1720    1.5064 H   0  0  0  0  0  0  0  0  0  0  0  0
   -4.3960    2.2831    1.1508 H   0  0  0  0  0  0  0  0  0  0  0  0
   -3.6024    3.2374   -0.1356 H   0  0  0  0  0  0  0  0  0  0  0  0
   -7.5230   -0.1514   -0.1657 C   0  0  0  0  0  0  0  0  0  0  0  0
   -8.5769   -0.4714   -0.2690 H   0  0  0  0  0  0  0  0  0  0  0  0
   -7.2870    0.5757   -0.9779 H   0  0  0  0  0  0  0  0  0  0  0  0
   -7.3985    0.3684    0.8132 H   0  0  0  0  0  0  0  0  0  0  0  0
  1  7  1  0  0  0  0
  4 45  1  0  0  0  0
  4 27  1  0  0  0  0
  6 23  1  0  0  0  0
  6 20  1  0  0  0  0
  7  8  2  0  0  0  0
  8  9  1  0  0  0  0
  8 10  1  0  0  0  0
 10 11  1  0  0  0  0
 12 10  2  0  0  0  0
 12  3  1  0  0  0  0
 13 12  1  0  0  0  0
 14 13  1  0  0  0  0
 15 13  1  0  0  0  0
 15  7  1  0  0  0  0
 16  5  1  0  0  0  0
 16 15  2  0  0  0  0
 17  5  1  0  0  0  0
 17 19  1  0  0  0  0
 17 20  1  0  0  0  0
 18 17  1  0  0  0  0
 20 21  1  0  0  0  0
 22 20  1  0  0  0  0
 23 41  1  0  0  0  0
 24 23  2  0  0  0  0
 25 26  1  0  0  0  0
 25 24  1  0  0  0  0
 27 25  2  0  0  0  0
 28 27  1  0  0  0  0
 28 30  2  0  0  0  0
 29 28  1  0  0  0  0
 30 32  1  0  0  0  0
 31 30  1  0  0  0  0
 32  2  1  1  0  0  0
 32 24  1  0  0  0  0
 33  3  1  0  0  0  0
 33 34  1  0  0  0  0
 33 35  1  0  0  0  0
 36 33  1  0  0  0  0
 37 16  1  0  0  0  0
 37 40  1  0  0  0  0
 38 37  1  0  0  0  0
 39 37  1  0  0  0  0
 41 43  1  0  0  0  0
 41 42  1  0  0  0  0
 44 41  1  0  0  0  0
 45 48  1  0  0  0  0
 46 45  1  0  0  0  0
 47 45  1  0  0  0  0
M  CHG  1   1  -1
M  END
