1,13,21,33
 OpenBabel05122313063D

 53 57  0  0  1  0  0  0  0  0999 V2000
    1.3115   -1.5903    0.3423 O   0  5  0  0  0  0  0  0  0  0  0  0
    2.6016   -1.5546    0.2659 C   0  0  0  0  0  0  0  0  0  0  0  0
    3.3151   -2.7407    0.6748 C   0  0  0  0  0  0  0  0  0  0  0  0
    4.6859   -2.7932    0.6326 C   0  0  0  0  0  0  0  0  0  0  0  0
    5.4751   -1.6808    0.1844 C   0  0  0  0  0  0  0  0  0  0  0  0
    6.8929   -1.7534    0.1619 C   0  0  0  0  0  0  0  0  0  0  0  0
    7.6626   -0.6763   -0.2628 C   0  0  0  0  0  0  0  0  0  0  0  0
    7.0161    0.5125   -0.6714 C   0  0  0  0  0  0  0  0  0  0  0  0
    5.6267    0.6085   -0.6564 C   0  0  0  0  0  0  0  0  0  0  0  0
    4.8084   -0.4786   -0.2407 C   0  0  2  0  0  3  0  0  0  0  0  0
    3.3539   -0.4318   -0.2151 C   0  0  0  0  0  0  0  0  0  0  0  0
    2.6449    0.6917   -0.7202 C   0  0  0  0  0  0  0  0  0  0  0  0
    1.3399    0.8899   -0.7029 N   0  0  0  0  0  2  0  0  0  0  0  0
    0.8424    2.1083   -1.3570 C   0  0  0  0  0  0  0  0  0  0  0  0
    0.1255    2.9745   -0.3609 C   0  0  0  0  0  0  0  0  0  0  0  0
    0.4846    4.3035   -0.1003 C   0  0  0  0  0  0  0  0  0  0  0  0
   -0.2207    5.0666    0.8449 C   0  0  0  0  0  0  0  0  0  0  0  0
   -1.2855    4.4845    1.5489 C   0  0  0  0  0  0  0  0  0  0  0  0
   -1.6480    3.1518    1.3076 C   0  0  0  0  0  0  0  0  0  0  0  0
   -0.9542    2.3916    0.3422 C   0  0  0  0  0  0  0  0  0  0  0  0
   -1.3087    1.0485    0.0557 N   0  0  0  0  0  2  0  0  0  0  0  0
   -2.6095    0.7712   -0.0204 C   0  0  0  0  0  0  0  0  0  0  0  0
   -3.2134   -0.5072   -0.0263 C   0  0  0  0  0  0  0  0  0  0  0  0
   -4.6430   -0.6615   -0.2605 C   0  0  1  0  0  3  0  0  0  0  0  0
   -5.4812    0.3949   -0.7088 C   0  0  0  0  0  0  0  0  0  0  0  0
   -6.8486    0.2061   -0.9024 C   0  0  0  0  0  0  0  0  0  0  0  0
   -7.4426   -1.0545   -0.6695 C   0  0  0  0  0  0  0  0  0  0  0  0
   -6.6445   -2.1141   -0.2497 C   0  0  0  0  0  0  0  0  0  0  0  0
   -5.2510   -1.9453   -0.0418 C   0  0  0  0  0  0  0  0  0  0  0  0
   -4.4257   -3.0440    0.3798 C   0  0  0  0  0  0  0  0  0  0  0  0
   -3.0726   -2.9096    0.5640 C   0  0  0  0  0  0  0  0  0  0  0  0
   -2.4104   -1.6456    0.3390 C   0  0  0  0  0  0  0  0  0  0  0  0
   -1.1352   -1.6040    0.5158 O   0  5  0  0  0  0  0  0  0  0  0  0
    2.7062   -3.5876    1.0216 H   0  0  0  0  0  0  0  0  0  0  0  0
    5.2109   -3.7073    0.9533 H   0  0  0  0  0  0  0  0  0  0  0  0
    7.3740   -2.6874    0.4925 H   0  0  0  0  0  0  0  0  0  0  0  0
    8.7605   -0.7439   -0.2755 H   0  0  0  0  0  0  0  0  0  0  0  0
    7.6140    1.3765   -0.9998 H   0  0  0  0  0  0  0  0  0  0  0  0
    5.1674    1.5588   -0.9641 H   0  0  0  0  0  0  0  0  0  0  0  0
    3.2389    1.4814   -1.2150 H   0  0  0  0  0  0  0  0  0  0  0  0
    0.1462    1.8081   -2.1711 H   0  0  0  0  0  0  0  0  0  0  0  0
    1.6813    2.6662   -1.8222 H   0  0  0  0  0  0  0  0  0  0  0  0
    1.3272    4.7489   -0.6526 H   0  0  0  0  0  0  0  0  0  0  0  0
    0.0710    6.1090    1.0405 H   0  0  0  0  0  0  0  0  0  0  0  0
   -1.8309    5.0657    2.3077 H   0  0  0  0  0  0  0  0  0  0  0  0
   -2.4537    2.6801    1.8892 H   0  0  0  0  0  0  0  0  0  0  0  0
   -3.2785    1.6501   -0.0443 H   0  0  0  0  0  0  0  0  0  0  0  0
   -5.0500    1.3816   -0.9318 H   0  0  0  0  0  0  0  0  0  0  0  0
   -7.4669    1.0475   -1.2509 H   0  0  0  0  0  0  0  0  0  0  0  0
   -8.5218   -1.1972   -0.8283 H   0  0  0  0  0  0  0  0  0  0  0  0
   -7.0844   -3.1083   -0.0735 H   0  0  0  0  0  0  0  0  0  0  0  0
   -4.9078   -4.0206    0.5471 H   0  0  0  0  0  0  0  0  0  0  0  0
   -2.4366   -3.7502    0.8756 H   0  0  0  0  0  0  0  0  0  0  0  0
  2  1  1  0  0  0  0
  2  3  2  0  0  0  0
  3 34  1  0  0  0  0
  4  3  1  0  0  0  0
  4 35  1  0  0  0  0
  5  4  2  0  0  0  0
  6  5  1  0  0  0  0
  6 36  1  0  0  0  0
  7  6  2  0  0  0  0
  8  9  2  0  0  0  0
  8  7  1  0  0  0  0
 10  9  1  1  0  0  0
 10 11  1  0  0  0  0
 10  5  1  0  0  0  0
 11  2  1  0  0  0  0
 12 13  1  0  0  0  0
 12 11  2  0  0  0  0
 14 13  1  0  0  0  0
 14 15  1  0  0  0  0
 15 16  2  0  0  0  0
 15 20  1  0  0  0  0
 16 17  1  0  0  0  0
 17 44  1  0  0  0  0
 17 18  2  0  0  0  0
 18 45  1  0  0  0  0
 19 18  1  0  0  0  0
 19 46  1  0  0  0  0
 20 19  2  0  0  0  0
 21 20  1  0  0  0  0
 22 21  1  0  0  0  0
 23 22  2  0  0  0  0
 23 32  1  0  0  0  0
 24 25  1  6  0  0  0
 24 29  1  0  0  0  0
 24 23  1  0  0  0  0
 26 25  2  0  0  0  0
 26 27  1  0  0  0  0
 27 28  2  0  0  0  0
 28 51  1  0  0  0  0
 28 29  1  0  0  0  0
 29 30  2  0  0  0  0
 30 52  1  0  0  0  0
 30 31  1  0  0  0  0
 31 53  1  0  0  0  0
 32 33  1  0  0  0  0
 32 31  2  0  0  0  0
 37  7  1  0  0  0  0
 38  8  1  0  0  0  0
 39  9  1  0  0  0  0
 40 12  1  0  0  0  0
 41 14  1  0  0  0  0
 42 14  1  0  0  0  0
 43 16  1  0  0  0  0
 47 22  1  0  0  0  0
 48 25  1  0  0  0  0
 49 26  1  0  0  0  0
 50 27  1  0  0  0  0
M  CHG  2   1  -1  33  -1
M  END
