1,2,3,4
 OpenBabel05122313063D

 74 75  0  0  1  0  0  0  0  0999 V2000
   -0.5445    2.3759   -0.5014 O   0  0  0  0  0  1  0  0  0  0  0  0
   -2.8479   -0.9160   -0.5815 O   0  5  0  0  0  0  0  0  0  0  0  0
   -0.7129    0.1799   -2.2316 N   0  0  0  0  0  2  0  0  0  0  0  0
   -2.5768    1.2165    1.2367 N   0  0  0  0  0  2  0  0  0  0  0  0
   -2.3885    2.3667    1.8306 C   0  0  0  0  0  0  0  0  0  0  0  0
   -2.9613    2.5362    2.7663 H   0  0  0  0  0  0  0  0  0  0  0  0
   -3.4276    0.2423    1.9356 C   0  0  0  0  0  0  0  0  0  0  0  0
   -3.8959   -0.4054    1.1725 H   0  0  0  0  0  0  0  0  0  0  0  0
   -4.2298    0.7929    2.4727 H   0  0  0  0  0  0  0  0  0  0  0  0
   -0.9553   -0.9329   -2.8739 C   0  0  0  0  0  0  0  0  0  0  0  0
   -0.3546   -1.1122   -3.7895 H   0  0  0  0  0  0  0  0  0  0  0  0
   -0.6283    3.3810    0.3248 C   0  0  1  0  0  3  0  0  0  0  0  0
   -2.7874   -1.9070   -1.4274 C   0  0  0  0  0  0  0  0  0  0  0  0
    0.3540    1.0394   -2.7530 C   0  0  0  0  0  0  0  0  0  0  0  0
    0.0365    2.0921   -2.6341 H   0  0  0  0  0  0  0  0  0  0  0  0
    0.4836    0.8343   -3.8386 H   0  0  0  0  0  0  0  0  0  0  0  0
    0.1970    5.6215    0.9186 C   0  0  0  0  0  0  0  0  0  0  0  0
    0.8713    6.4660    0.7056 H   0  0  0  0  0  0  0  0  0  0  0  0
   -1.8960   -1.9697   -2.5584 C   0  0  0  0  0  0  0  0  0  0  0  0
   -1.5216    3.4465    1.4546 C   0  0  0  0  0  0  0  0  0  0  0  0
   -3.6744   -3.0109   -1.2239 C   0  0  0  0  0  0  0  0  0  0  0  0
   -4.3541   -2.9574   -0.3611 H   0  0  0  0  0  0  0  0  0  0  0  0
   -2.8075   -4.1644   -3.1949 C   0  0  0  0  0  0  0  0  0  0  0  0
   -2.8192   -5.0325   -3.8690 H   0  0  0  0  0  0  0  0  0  0  0  0
    4.9113   -1.6424    1.1771 C   0  0  0  0  0  0  0  0  0  0  0  0
    0.4483   -3.0249    2.6721 C   0  0  0  0  0  0  0  0  0  0  0  0
    0.0347   -3.7450    1.9304 H   0  0  0  0  0  0  0  0  0  0  0  0
    1.0681   -2.3129    2.0836 H   0  0  0  0  0  0  0  0  0  0  0  0
    5.5895   -0.7612    0.6408 C   0  0  0  0  0  0  0  0  0  0  0  0
    1.6808    0.8288   -2.0167 C   0  0  0  0  0  0  0  0  0  0  0  0
    2.0125   -0.2212   -2.1670 H   0  0  0  0  0  0  0  0  0  0  0  0
    1.5026    0.9575   -0.9290 H   0  0  0  0  0  0  0  0  0  0  0  0
   -0.6982   -2.2537    3.3299 C   0  0  0  0  0  0  0  0  0  0  0  0
   -1.3486   -2.9526    3.9042 H   0  0  0  0  0  0  0  0  0  0  0  0
   -0.2782   -1.5474    4.0819 H   0  0  0  0  0  0  0  0  0  0  0  0
   -1.9368   -3.1060   -3.4173 C   0  0  0  0  0  3  0  0  0  0  0  0
   -1.2475   -3.1302   -4.2769 H   0  0  0  0  0  0  0  0  0  0  0  0
   -2.6332   -0.6124    2.9366 C   0  0  0  0  0  0  0  0  0  0  0  0
   -3.3597   -1.2583    3.4780 H   0  0  0  0  0  0  0  0  0  0  0  0
   -2.1885    0.0601    3.7053 H   0  0  0  0  0  0  0  0  0  0  0  0
    4.1161    1.6413   -1.7891 C   0  0  0  0  0  0  0  0  0  0  0  0
    4.7739    2.4929   -2.0734 H   0  0  0  0  0  0  0  0  0  0  0  0
    3.9680    1.7215   -0.6895 H   0  0  0  0  0  0  0  0  0  0  0  0
    2.7574    1.8133   -2.4814 C   0  0  0  0  0  0  0  0  0  0  0  0
    2.3877    2.8471   -2.3042 H   0  0  0  0  0  0  0  0  0  0  0  0
    2.8956    1.7256   -3.5837 H   0  0  0  0  0  0  0  0  0  0  0  0
    3.4574   -3.4688    2.3255 C   0  0  0  0  0  0  0  0  0  0  0  0
   -3.6812   -4.1040   -2.0818 C   0  0  0  0  0  0  0  0  0  0  0  0
   -4.3792   -4.9342   -1.8897 H   0  0  0  0  0  0  0  0  0  0  0  0
   -1.5345   -1.4751    2.3134 C   0  0  0  0  0  0  0  0  0  0  0  0
   -1.9869   -2.1743    1.5783 H   0  0  0  0  0  0  0  0  0  0  0  0
   -0.8578   -0.8248    1.7157 H   0  0  0  0  0  0  0  0  0  0  0  0
    2.5766   -4.4274    2.9803 C   0  0  0  0  0  0  0  0  0  0  0  0
    3.1554   -5.0064    3.7340 H   0  0  0  0  0  0  0  0  0  0  0  0
    2.2272   -5.1733    2.2300 H   0  0  0  0  0  0  0  0  0  0  0  0
    0.2311    4.5018    0.0968 C   0  0  0  0  0  0  0  0  0  0  0  0
    0.9167    4.4417   -0.7612 H   0  0  0  0  0  0  0  0  0  0  0  0
    4.8332    0.3281   -2.1255 C   0  0  0  0  0  0  0  0  0  0  0  0
    4.8722    0.2125   -3.2313 H   0  0  0  0  0  0  0  0  0  0  0  0
    4.2429   -0.5342   -1.7470 H   0  0  0  0  0  0  0  0  0  0  0  0
   -1.5249    4.6121    2.2749 C   0  0  0  0  0  0  0  0  0  0  0  0
   -2.2150    4.6385    3.1339 H   0  0  0  0  0  0  0  0  0  0  0  0
    6.2605    0.2241   -1.5767 C   0  0  0  0  0  0  0  0  0  0  0  0
    6.8834    1.0507   -1.9834 H   0  0  0  0  0  0  0  0  0  0  0  0
    6.7209   -0.7220   -1.9305 H   0  0  0  0  0  0  0  0  0  0  0  0
    1.3529   -3.7672    3.6561 C   0  0  0  0  0  0  0  0  0  0  0  0
    0.7786   -4.5562    4.1883 H   0  0  0  0  0  0  0  0  0  0  0  0
    1.7144   -3.0619    4.4354 H   0  0  0  0  0  0  0  0  0  0  0  0
   -0.6889    5.6910    2.0218 C   0  0  0  0  0  0  0  0  0  0  0  0
   -0.7090    6.5801    2.6678 H   0  0  0  0  0  0  0  0  0  0  0  0
    6.3631    0.2722   -0.0336 C   0  0  0  0  0  0  0  0  0  0  0  0
    7.4319    0.1860    0.2641 H   0  0  0  0  0  0  0  0  0  0  0  0
    6.0331    1.2694    0.3355 H   0  0  0  0  0  0  0  0  0  0  0  0
    4.1509   -2.6031    1.7837 C   0  0  0  0  0  0  0  0  0  0  0  0
  4  5  1  0  0  0  0
  4  7  1  0  0  0  0
  5  6  1  0  0  0  0
  7  9  1  0  0  0  0
  7 38  1  0  0  0  0
  8  7  1  0  0  0  0
 10 19  2  0  0  0  0
 10  3  1  0  0  0  0
 11 10  1  0  0  0  0
 12  1  1  1  0  0  0
 12 20  1  0  0  0  0
 13 21  2  0  0  0  0
 13  2  1  0  0  0  0
 14 15  1  0  0  0  0
 14  3  1  0  0  0  0
 14 30  1  0  0  0  0
 16 14  1  0  0  0  0
 17 69  1  0  0  0  0
 18 17  1  0  0  0  0
 19 13  1  0  0  0  0
 20  5  2  0  0  0  0
 20 61  1  0  0  0  0
 21 22  1  0  0  0  0
 23 48  2  0  0  0  0
 24 23  1  0  0  0  0
 25 74  1  0  0  0  0
 26 33  1  0  0  0  0
 26 66  1  0  0  0  0
 27 26  1  0  0  0  0
 28 26  1  0  0  0  0
 29 25  3  0  0  0  0
 30 32  1  0  0  0  0
 31 30  1  0  0  0  0
 33 34  1  0  0  0  0
 33 35  1  0  0  0  0
 36 23  1  0  0  0  0
 36 19  1  0  0  0  0
 37 36  1  0  0  0  0
 38 39  1  0  0  0  0
 38 40  1  0  0  0  0
 41 43  1  0  0  0  0
 42 41  1  0  0  0  0
 44 45  1  0  0  0  0
 44 30  1  0  0  0  0
 44 41  1  0  0  0  0
 46 44  1  0  0  0  0
 47 53  1  0  0  0  0
 48 49  1  0  0  0  0
 48 21  1  0  0  0  0
 50 38  1  0  0  0  0
 50 33  1  0  0  0  0
 51 50  1  0  0  0  0
 52 50  1  0  0  0  0
 53 66  1  0  0  0  0
 53 54  1  0  0  0  0
 55 53  1  0  0  0  0
 56 12  1  0  0  0  0
 56 17  2  0  0  0  0
 57 56  1  0  0  0  0
 58 41  1  0  0  0  0
 58 60  1  0  0  0  0
 58 63  1  0  0  0  0
 59 58  1  0  0  0  0
 61 62  1  0  0  0  0
 63 71  1  0  0  0  0
 64 63  1  0  0  0  0
 65 63  1  0  0  0  0
 66 67  1  0  0  0  0
 66 68  1  0  0  0  0
 69 61  2  0  0  0  0
 69 70  1  0  0  0  0
 71 72  1  0  0  0  0
 71 73  1  0  0  0  0
 71 29  1  0  0  0  0
 74 47  3  0  0  0  0
M  CHG  1   2  -1
M  END
