1,2,4,5
 OpenBabel05122313063D

 41 42  0  0  1  0  0  0  0  0999 V2000
    1.7751   -1.0928   -0.5260 O   0  0  0  0  0  1  0  0  0  0  0  0
   -0.6498   -0.9663   -0.7481 O   0  0  0  0  0  1  0  0  0  0  0  0
   -6.0105   -1.2785    0.5618 O   0  0  0  0  0  0  0  0  0  0  0  0
    1.9672    1.4667    0.4080 N   0  0  0  0  0  2  0  0  0  0  0  0
   -0.7151    1.7207   -0.3606 N   0  0  0  0  0  2  0  0  0  0  0  0
   -0.4223    3.1206   -0.7161 C   0  0  0  0  0  0  0  0  0  0  0  0
   -1.0396    3.7841   -0.0680 H   0  0  0  0  0  0  0  0  0  0  0  0
   -0.7535    3.3040   -1.7619 H   0  0  0  0  0  0  0  0  0  0  0  0
    1.0443    3.5031   -0.5660 C   0  0  0  0  0  0  0  0  0  0  0  0
    1.1174    4.6086   -0.5151 H   0  0  0  0  0  0  0  0  0  0  0  0
    1.6381    3.1796   -1.4460 H   0  0  0  0  0  0  0  0  0  0  0  0
    1.6505    2.8688    0.6813 C   0  0  0  0  0  0  0  0  0  0  0  0
    2.5721    3.4061    0.9895 H   0  0  0  0  0  0  0  0  0  0  0  0
    0.9313    2.9303    1.5288 H   0  0  0  0  0  0  0  0  0  0  0  0
    3.1964    1.0817    0.6928 C   0  0  0  0  0  0  0  0  0  0  0  0
    3.8585    1.8417    1.1547 H   0  0  0  0  0  0  0  0  0  0  0  0
    3.7777   -0.1995    0.4737 C   0  0  0  0  0  0  0  0  0  0  0  0
    5.1287   -0.4424    0.8551 C   0  0  0  0  0  0  0  0  0  0  0  0
    5.6949    0.3750    1.3310 H   0  0  0  0  0  0  0  0  0  0  0  0
    5.7265   -1.6753    0.6352 C   0  0  0  0  0  0  0  0  0  0  0  0
    6.7691   -1.8542    0.9343 H   0  0  0  0  0  0  0  0  0  0  0  0
    4.9704   -2.7058    0.0161 C   0  0  0  0  0  0  0  0  0  0  0  0
    5.4379   -3.6870   -0.1630 H   0  0  0  0  0  0  0  0  0  0  0  0
    3.6511   -2.5045   -0.3674 C   0  0  0  0  0  0  0  0  0  0  0  0
    3.0576   -3.2968   -0.8456 H   0  0  0  0  0  0  0  0  0  0  0  0
    3.0051   -1.2442   -0.1521 C   0  0  2  0  0  3  0  0  0  0  0  0
   -1.9075   -0.9661   -0.4401 C   0  0  2  0  0  3  0  0  0  0  0  0
   -2.6455   -2.1947   -0.5107 C   0  0  0  0  0  0  0  0  0  0  0  0
   -2.0977   -3.0933   -0.8280 H   0  0  0  0  0  0  0  0  0  0  0  0
   -3.9838   -2.2485   -0.1661 C   0  0  0  0  0  0  0  0  0  0  0  0
   -4.5401   -3.1974   -0.2017 H   0  0  0  0  0  0  0  0  0  0  0  0
   -4.6935   -1.0820    0.2470 C   0  0  0  0  0  0  0  0  0  0  0  0
   -4.0248    0.1364    0.2895 C   0  0  0  0  0  0  0  0  0  0  0  0
   -4.5409    1.0632    0.5773 H   0  0  0  0  0  0  0  0  0  0  0  0
   -2.6371    0.2134   -0.0513 C   0  0  0  0  0  0  0  0  0  0  0  0
   -1.9974    1.4792   -0.1443 C   0  0  0  0  0  0  0  0  0  0  0  0
   -2.6626    2.3659   -0.0847 H   0  0  0  0  0  0  0  0  0  0  0  0
   -6.7586   -0.1539    0.9657 C   0  0  0  0  0  0  0  0  0  0  0  0
   -6.3398    0.3174    1.8853 H   0  0  0  0  0  0  0  0  0  0  0  0
   -7.7827   -0.5121    1.1811 H   0  0  0  0  0  0  0  0  0  0  0  0
   -6.8088    0.6231    0.1677 H   0  0  0  0  0  0  0  0  0  0  0  0
  3 38  1  0  0  0  0
  4 12  1  0  0  0  0
  4 15  1  0  0  0  0
  5 36  1  0  0  0  0
  6  9  1  0  0  0  0
  6  5  1  0  0  0  0
  6  7  1  0  0  0  0
  8  6  1  0  0  0  0
  9 10  1  0  0  0  0
  9 12  1  0  0  0  0
 11  9  1  0  0  0  0
 12 13  1  0  0  0  0
 12 14  1  0  0  0  0
 15 16  1  0  0  0  0
 17 15  2  0  0  0  0
 17 18  1  0  0  0  0
 18 19  1  0  0  0  0
 20 18  2  0  0  0  0
 20 21  1  0  0  0  0
 22 20  1  0  0  0  0
 23 22  1  0  0  0  0
 24 26  1  0  0  0  0
 24 22  2  0  0  0  0
 25 24  1  0  0  0  0
 26  1  1  6  0  0  0
 26 17  1  0  0  0  0
 27  2  1  6  0  0  0
 27 35  1  0  0  0  0
 28 27  1  0  0  0  0
 28 30  2  0  0  0  0
 29 28  1  0  0  0  0
 30 32  1  0  0  0  0
 31 30  1  0  0  0  0
 32 33  2  0  0  0  0
 32  3  1  0  0  0  0
 33 34  1  0  0  0  0
 35 33  1  0  0  0  0
 36 37  1  0  0  0  0
 36 35  2  0  0  0  0
 38 40  1  0  0  0  0
 38 39  1  0  0  0  0
 41 38  1  0  0  0  0
M  END
