2,5,7,9
 OpenBabel05122313063D

 45 46  0  0  1  0  0  0  0  0999 V2000
    3.1927    4.1362    1.2186 O   0  0  0  0  0  0  0  0  0  0  0  0
    2.0297   -0.6187    1.4325 O   0  5  0  0  0  0  0  0  0  0  0  0
    4.1833   -1.1545    0.9948 O   0  0  0  0  0  0  0  0  0  0  0  0
   -0.9541   -4.2982   -0.7273 O   0  5  0  0  0  0  0  0  0  0  0  0
   -0.6636   -2.4263    0.5201 O   0  0  0  0  0  0  0  0  0  0  0  0
   -2.2921    2.3764   -1.0138 N   0  0  0  0  0  0  0  0  0  0  0  0
   -1.2886    0.6168   -0.1008 N   0  0  0  0  0  2  0  0  0  0  0  0
    1.3116    1.4676   -0.6630 N   0  0  0  0  0  0  0  0  0  0  0  0
    1.3195   -1.5102   -1.1420 N   0  0  0  0  0  0  0  0  0  0  0  0
   -1.1060    1.7293   -0.7999 C   0  0  1  0  0  3  0  0  0  0  0  0
    0.2292    2.1471   -1.3559 C   0  0  0  0  0  0  0  0  0  0  0  0
    1.8758    2.2387    0.4541 C   0  0  0  0  0  0  0  0  0  0  0  0
    2.8065    3.4005    0.0759 C   0  0  0  0  0  0  0  0  0  0  0  0
    2.2821    0.7820   -1.5230 C   0  0  0  0  0  0  0  0  0  0  0  0
    1.7231   -0.5094   -2.1374 C   0  0  0  0  0  0  0  0  0  0  0  0
    2.4716   -2.0920   -0.4206 C   0  0  0  0  0  0  0  0  0  0  0  0
    2.9802   -1.2174    0.7597 C   0  0  0  0  0  0  0  0  0  0  0  0
    0.3927   -2.5391   -1.6490 C   0  0  0  0  0  0  0  0  0  0  0  0
   -0.4795   -3.1876   -0.5256 C   0  0  0  0  0  0  0  0  0  0  0  0
   -2.6540    0.5021    0.1447 C   0  0  0  0  0  0  0  0  0  0  0  0
   -3.3811   -0.5068    0.7995 C   0  0  0  0  0  0  0  0  0  0  0  0
   -4.7671   -0.3354    0.8813 C   0  0  0  0  0  0  0  0  0  0  0  0
   -5.4127    0.7984    0.3288 C   0  0  0  0  0  0  0  0  0  0  0  0
   -4.6999    1.8021   -0.3408 C   0  0  0  0  0  0  0  0  0  0  0  0
   -3.3109    1.6273   -0.4262 C   0  0  0  0  0  0  0  0  0  0  0  0
   -2.4038    3.2569   -1.5169 H   0  0  0  0  0  0  0  0  0  0  0  0
    3.6722    3.5221    1.8060 H   0  0  0  0  0  0  0  0  0  0  0  0
    0.3196    3.2593   -1.3205 H   0  0  0  0  0  0  0  0  0  0  0  0
    0.2449    1.8836   -2.4373 H   0  0  0  0  0  0  0  0  0  0  0  0
    1.0337    2.6433    1.0556 H   0  0  0  0  0  0  0  0  0  0  0  0
    2.4051    1.5183    1.1145 H   0  0  0  0  0  0  0  0  0  0  0  0
    2.2891    4.1214   -0.5953 H   0  0  0  0  0  0  0  0  0  0  0  0
    3.6856    3.0130   -0.4962 H   0  0  0  0  0  0  0  0  0  0  0  0
    3.1738    0.5496   -0.9079 H   0  0  0  0  0  0  0  0  0  0  0  0
    2.6445    1.4281   -2.3598 H   0  0  0  0  0  0  0  0  0  0  0  0
    2.4869   -0.9219   -2.8402 H   0  0  0  0  0  0  0  0  0  0  0  0
    0.8278   -0.2723   -2.7513 H   0  0  0  0  0  0  0  0  0  0  0  0
    2.1416   -3.0544    0.0217 H   0  0  0  0  0  0  0  0  0  0  0  0
    3.3197   -2.3087   -1.1068 H   0  0  0  0  0  0  0  0  0  0  0  0
    0.9133   -3.3477   -2.2073 H   0  0  0  0  0  0  0  0  0  0  0  0
   -0.3137   -2.0525   -2.3553 H   0  0  0  0  0  0  0  0  0  0  0  0
   -2.8626   -1.3943    1.1885 H   0  0  0  0  0  0  0  0  0  0  0  0
   -5.3746   -1.1045    1.3805 H   0  0  0  0  0  0  0  0  0  0  0  0
   -6.5052    0.8901    0.4192 H   0  0  0  0  0  0  0  0  0  0  0  0
   -5.2079    2.6735   -0.7783 H   0  0  0  0  0  0  0  0  0  0  0  0
  1 27  1  0  0  0  0
  4 19  1  0  0  0  0
  6 10  1  0  0  0  0
  6 25  1  0  0  0  0
  7 20  1  0  0  0  0
  8 12  1  0  0  0  0
  9 16  1  0  0  0  0
 10 11  1  6  0  0  0
 10  7  1  0  0  0  0
 11 28  1  0  0  0  0
 11  8  1  0  0  0  0
 12 30  1  0  0  0  0
 12 31  1  0  0  0  0
 13 12  1  0  0  0  0
 13  1  1  0  0  0  0
 14 34  1  0  0  0  0
 14  8  1  0  0  0  0
 15 14  1  0  0  0  0
 15  9  1  0  0  0  0
 16 38  1  0  0  0  0
 16 17  1  0  0  0  0
 17  3  2  0  0  0  0
 17  2  1  0  0  0  0
 18  9  1  0  0  0  0
 18 19  1  0  0  0  0
 19  5  2  0  0  0  0
 20 21  1  0  0  0  0
 21 22  2  0  0  0  0
 21 42  1  0  0  0  0
 22 43  1  0  0  0  0
 23 44  1  0  0  0  0
 23 22  1  0  0  0  0
 24 23  2  0  0  0  0
 25 24  1  0  0  0  0
 25 20  2  0  0  0  0
 26  6  1  0  0  0  0
 29 11  1  0  0  0  0
 32 13  1  0  0  0  0
 33 13  1  0  0  0  0
 35 14  1  0  0  0  0
 36 15  1  0  0  0  0
 37 15  1  0  0  0  0
 39 16  1  0  0  0  0
 40 18  1  0  0  0  0
 41 18  1  0  0  0  0
 45 24  1  0  0  0  0
M  CHG  2   2  -1   4  -1
M  END
