1,2,3,4
 OpenBabel05122313063D

 43 44  0  0  1  0  0  0  0  0999 V2000
    1.2447   -1.6445    0.0004 O   0  5  0  0  0  0  0  0  0  0  0  0
   -1.2447   -1.6446    0.0003 O   0  0  0  0  0  1  0  0  0  0  0  0
    1.2514    1.0352   -0.5000 N   0  0  0  0  0  2  0  0  0  0  0  0
   -1.2515    1.0353    0.4999 N   0  0  0  0  0  2  0  0  0  0  0  0
    2.5373   -1.5459    0.0379 C   0  0  0  0  0  0  0  0  0  0  0  0
    3.3125   -2.7243    0.2888 C   0  0  0  0  0  0  0  0  0  0  0  0
    4.6995   -2.6780    0.3337 C   0  0  0  0  0  0  0  0  0  0  0  0
    5.4063   -1.4670    0.1120 C   0  0  0  0  0  0  0  0  0  0  0  0
    4.6874   -0.3105   -0.1550 C   0  0  0  0  0  3  0  0  0  0  0  0
    3.2634   -0.3152   -0.1885 C   0  0  0  0  0  0  0  0  0  0  0  0
    2.5567    0.8732   -0.5381 C   0  0  0  0  0  0  0  0  0  0  0  0
    0.6827    2.2592   -1.0575 C   0  0  0  0  0  0  0  0  0  0  0  0
    0.0000    3.1595   -0.0000 C   0  0  0  0  0  0  0  0  0  0  0  0
   -0.6828    2.2592    1.0575 C   0  0  0  0  0  0  0  0  0  0  0  0
    1.0425    4.0338    0.7132 C   0  0  0  0  0  0  0  0  0  0  0  0
   -1.0424    4.0339   -0.7132 C   0  0  0  0  0  0  0  0  0  0  0  0
   -2.5568    0.8732    0.5382 C   0  0  0  0  0  0  0  0  0  0  0  0
   -3.2634   -0.3153    0.1885 C   0  0  0  0  0  0  0  0  0  0  0  0
   -4.6874   -0.3106    0.1548 C   0  0  0  0  0  0  0  0  0  0  0  0
   -5.4063   -1.4670   -0.1125 C   0  0  0  0  0  0  0  0  0  0  0  0
   -4.6994   -2.6780   -0.3340 C   0  0  0  0  0  0  0  0  0  0  0  0
   -3.3124   -2.7243   -0.2889 C   0  0  0  0  0  0  0  0  0  0  0  0
   -2.5373   -1.5459   -0.0377 C   0  0  2  0  0  3  0  0  0  0  0  0
    2.7586   -3.6599    0.4518 H   0  0  0  0  0  0  0  0  0  0  0  0
    5.2610   -3.6028    0.5409 H   0  0  0  0  0  0  0  0  0  0  0  0
    6.5051   -1.4499    0.1440 H   0  0  0  0  0  0  0  0  0  0  0  0
    5.2123    0.6401   -0.3446 H   0  0  0  0  0  0  0  0  0  0  0  0
    3.1595    1.7250   -0.9142 H   0  0  0  0  0  0  0  0  0  0  0  0
   -0.0680    1.9631   -1.8190 H   0  0  0  0  0  0  0  0  0  0  0  0
    1.4682    2.8436   -1.5850 H   0  0  0  0  0  0  0  0  0  0  0  0
    0.0678    1.9631    1.8190 H   0  0  0  0  0  0  0  0  0  0  0  0
   -1.4683    2.8437    1.5849 H   0  0  0  0  0  0  0  0  0  0  0  0
    0.5829    4.6006    1.5492 H   0  0  0  0  0  0  0  0  0  0  0  0
    1.4901    4.7693    0.0142 H   0  0  0  0  0  0  0  0  0  0  0  0
    1.8607    3.4149    1.1358 H   0  0  0  0  0  0  0  0  0  0  0  0
   -1.4899    4.7694   -0.0142 H   0  0  0  0  0  0  0  0  0  0  0  0
   -1.8607    3.4151   -1.1359 H   0  0  0  0  0  0  0  0  0  0  0  0
   -0.5827    4.6007   -1.5493 H   0  0  0  0  0  0  0  0  0  0  0  0
   -3.1595    1.7249    0.9143 H   0  0  0  0  0  0  0  0  0  0  0  0
   -5.2123    0.6400    0.3442 H   0  0  0  0  0  0  0  0  0  0  0  0
   -6.5050   -1.4499   -0.1446 H   0  0  0  0  0  0  0  0  0  0  0  0
   -5.2609   -3.6029   -0.5415 H   0  0  0  0  0  0  0  0  0  0  0  0
   -2.7585   -3.6599   -0.4518 H   0  0  0  0  0  0  0  0  0  0  0  0
  1  5  1  0  0  0  0
  4 17  1  0  0  0  0
  4 14  1  0  0  0  0
  5  6  2  0  0  0  0
  6  7  1  0  0  0  0
  6 24  1  0  0  0  0
  7 25  1  0  0  0  0
  8 26  1  0  0  0  0
  8  7  2  0  0  0  0
  9  8  1  0  0  0  0
 10  9  1  0  0  0  0
 10  5  1  0  0  0  0
 11  3  1  0  0  0  0
 11 10  2  0  0  0  0
 12  3  1  0  0  0  0
 12 13  1  0  0  0  0
 13 15  1  0  0  0  0
 13 14  1  0  0  0  0
 14 32  1  0  0  0  0
 14 31  1  0  0  0  0
 15 35  1  0  0  0  0
 15 33  1  0  0  0  0
 16 36  1  0  0  0  0
 16 13  1  0  0  0  0
 17 39  1  0  0  0  0
 18 17  2  0  0  0  0
 19 18  1  0  0  0  0
 19 40  1  0  0  0  0
 20 19  2  0  0  0  0
 21 22  2  0  0  0  0
 21 20  1  0  0  0  0
 22 23  1  0  0  0  0
 23  2  1  1  0  0  0
 23 18  1  0  0  0  0
 27  9  1  0  0  0  0
 28 11  1  0  0  0  0
 29 12  1  0  0  0  0
 30 12  1  0  0  0  0
 34 15  1  0  0  0  0
 37 16  1  0  0  0  0
 38 16  1  0  0  0  0
 41 20  1  0  0  0  0
 42 21  1  0  0  0  0
 43 22  1  0  0  0  0
M  CHG  1   1  -1
M  END
