1,3,24,26
 OpenBabel05122313063D

 46 48  0  0  1  0  0  0  0  0999 V2000
    1.2309    0.0389    0.1745 O   0  5  0  0  0  0  0  0  0  0  0  0
    3.3421   -3.5536   -0.1112 O   0  0  0  0  0  0  0  0  0  0  0  0
    1.2684    2.7297    0.1241 N   0  0  0  0  0  2  0  0  0  0  0  0
    1.3461   -2.5887    0.4847 N   0  0  0  0  0  0  0  0  0  0  0  0
    0.8841   -1.6768    0.6056 H   0  0  0  0  0  0  0  0  0  0  0  0
    2.5329    0.0711    0.0704 C   0  0  0  0  0  0  0  0  0  0  0  0
    3.2604    1.3171   -0.0064 C   0  0  0  0  0  0  0  0  0  0  0  0
    4.6776    1.3062   -0.1224 C   0  0  0  0  0  3  0  0  0  0  0  0
    5.2105    2.2694   -0.1731 H   0  0  0  0  0  0  0  0  0  0  0  0
    5.3785    0.1074   -0.1723 C   0  0  0  0  0  0  0  0  0  0  0  0
    6.4735    0.1038   -0.2704 H   0  0  0  0  0  0  0  0  0  0  0  0
    4.6684   -1.1089   -0.0907 C   0  0  0  0  0  0  0  0  0  0  0  0
    5.1833   -2.0815   -0.1332 H   0  0  0  0  0  0  0  0  0  0  0  0
    3.2775   -1.1606    0.0454 C   0  0  0  0  0  0  0  0  0  0  0  0
    2.6628   -2.5477    0.1188 C   0  0  0  0  0  0  0  0  0  0  0  0
    0.5577   -3.8026    0.5312 C   0  0  0  0  0  0  0  0  0  0  0  0
    0.1005   -3.9125    1.5392 H   0  0  0  0  0  0  0  0  0  0  0  0
    1.2497   -4.6523    0.3679 H   0  0  0  0  0  0  0  0  0  0  0  0
    2.5716    2.5691    0.0790 C   0  0  0  0  0  0  0  0  0  0  0  0
    3.1972    3.4830    0.1249 H   0  0  0  0  0  0  0  0  0  0  0  0
    0.6749    4.0492    0.3542 C   0  0  0  0  0  0  0  0  0  0  0  0
    1.3365    4.8648   -0.0077 H   0  0  0  0  0  0  0  0  0  0  0  0
    0.5253    4.1876    1.4480 H   0  0  0  0  0  0  0  0  0  0  0  0
   -1.2309    0.0389   -0.1745 O   0  0  0  0  0  1  0  0  0  0  0  0
   -3.3421   -3.5536    0.1113 O   0  0  0  0  0  0  0  0  0  0  0  0
   -1.2684    2.7297   -0.1241 N   0  0  0  0  0  2  0  0  0  0  0  0
   -1.3461   -2.5888   -0.4847 N   0  0  0  0  0  0  0  0  0  0  0  0
   -0.8841   -1.6768   -0.6056 H   0  0  0  0  0  0  0  0  0  0  0  0
   -2.5329    0.0711   -0.0705 C   0  0  1  0  0  3  0  0  0  0  0  0
   -3.2604    1.3171    0.0064 C   0  0  0  0  0  0  0  0  0  0  0  0
   -4.6776    1.3063    0.1225 C   0  0  0  0  0  0  0  0  0  0  0  0
   -5.2105    2.2694    0.1731 H   0  0  0  0  0  0  0  0  0  0  0  0
   -5.3785    0.1074    0.1723 C   0  0  0  0  0  0  0  0  0  0  0  0
   -6.4735    0.1038    0.2704 H   0  0  0  0  0  0  0  0  0  0  0  0
   -4.6684   -1.1089    0.0907 C   0  0  0  0  0  0  0  0  0  0  0  0
   -5.1833   -2.0815    0.1332 H   0  0  0  0  0  0  0  0  0  0  0  0
   -3.2775   -1.1605   -0.0454 C   0  0  0  0  0  0  0  0  0  0  0  0
   -2.6628   -2.5477   -0.1188 C   0  0  0  0  0  0  0  0  0  0  0  0
   -0.5577   -3.8026   -0.5312 C   0  0  0  0  0  0  0  0  0  0  0  0
   -0.1005   -3.9126   -1.5392 H   0  0  0  0  0  0  0  0  0  0  0  0
   -1.2498   -4.6523   -0.3679 H   0  0  0  0  0  0  0  0  0  0  0  0
   -2.5716    2.5691   -0.0790 C   0  0  0  0  0  0  0  0  0  0  0  0
   -3.1972    3.4830   -0.1248 H   0  0  0  0  0  0  0  0  0  0  0  0
   -0.6749    4.0492   -0.3542 C   0  0  0  0  0  0  0  0  0  0  0  0
   -1.3365    4.8648    0.0077 H   0  0  0  0  0  0  0  0  0  0  0  0
   -0.5253    4.1876   -1.4480 H   0  0  0  0  0  0  0  0  0  0  0  0
  2 15  2  0  0  0  0
  3 21  1  0  0  0  0
  4 16  1  0  0  0  0
  4  5  1  0  0  0  0
  6  1  1  0  0  0  0
  7  6  1  0  0  0  0
  7 19  2  0  0  0  0
  8  7  1  0  0  0  0
  9  8  1  0  0  0  0
 10  8  1  0  0  0  0
 10 12  2  0  0  0  0
 11 10  1  0  0  0  0
 12 14  1  0  0  0  0
 13 12  1  0  0  0  0
 14  6  2  0  0  0  0
 14 15  1  0  0  0  0
 15  4  1  0  0  0  0
 16 17  1  0  0  0  0
 18 16  1  0  0  0  0
 19  3  1  0  0  0  0
 19 20  1  0  0  0  0
 21 23  1  0  0  0  0
 22 21  1  0  0  0  0
 26 42  1  0  0  0  0
 27 38  1  0  0  0  0
 28 27  1  0  0  0  0
 29 24  1  6  0  0  0
 29 37  1  0  0  0  0
 29 30  1  0  0  0  0
 30 31  1  0  0  0  0
 31 33  2  0  0  0  0
 31 32  1  0  0  0  0
 33 34  1  0  0  0  0
 35 36  1  0  0  0  0
 35 33  1  0  0  0  0
 37 35  2  0  0  0  0
 38 37  1  0  0  0  0
 38 25  2  0  0  0  0
 39 27  1  0  0  0  0
 39 41  1  0  0  0  0
 39 16  1  0  0  0  0
 40 39  1  0  0  0  0
 42 30  2  0  0  0  0
 43 42  1  0  0  0  0
 44 26  1  0  0  0  0
 44 45  1  0  0  0  0
 44 21  1  0  0  0  0
 46 44  1  0  0  0  0
M  CHG  1   1  -1
M  END
