1,2,3,4
 OpenBabel05122313063D

 51 52  0  0  1  0  0  0  0  0999 V2000
   -1.2221    0.4912    0.5304 O   0  5  0  0  0  0  0  0  0  0  0  0
    1.2581    0.3926    0.5293 O   0  5  0  0  0  0  0  0  0  0  0  0
   -1.5337   -2.1173   -0.3794 N   0  0  0  0  0  2  0  0  0  0  0  0
    1.3613   -2.2316   -0.3820 N   0  0  0  0  0  2  0  0  0  0  0  0
   -2.0842    3.0637    0.7720 C   0  0  0  0  0  0  0  0  0  0  0  0
   -1.0571    2.7817    1.0431 H   0  0  0  0  0  0  0  0  0  0  0  0
   -2.5530    4.3651    0.9852 C   0  0  0  0  0  0  0  0  0  0  0  0
   -1.8861    5.1230    1.4230 H   0  0  0  0  0  0  0  0  0  0  0  0
   -3.8725    4.7030    0.6429 C   0  0  0  0  0  0  0  0  0  0  0  0
   -4.2431    5.7255    0.8103 H   0  0  0  0  0  0  0  0  0  0  0  0
   -4.7214    3.7285    0.0918 C   0  0  0  0  0  0  0  0  0  0  0  0
   -5.7594    3.9849   -0.1674 H   0  0  0  0  0  0  0  0  0  0  0  0
   -4.2550    2.4259   -0.1221 C   0  0  0  0  0  0  0  0  0  0  0  0
   -4.9418    1.6729   -0.5336 H   0  0  0  0  0  0  0  0  0  0  0  0
   -2.9254    2.0772    0.2070 C   0  0  0  0  0  0  0  0  0  0  0  0
   -2.3704    0.7137   -0.0224 C   0  0  0  0  0  0  0  0  0  0  0  0
   -3.0547   -0.2505   -0.7759 C   0  0  0  0  0  0  0  0  0  0  0  0
   -3.9993    0.0298   -1.2531 H   0  0  0  0  0  0  0  0  0  0  0  0
   -2.6897   -1.6202   -0.8375 C   0  0  2  0  0  3  0  0  0  0  0  0
   -3.7181   -2.5593   -1.4294 C   0  0  0  0  0  0  0  0  0  0  0  0
   -3.2810   -3.1946   -2.2265 H   0  0  0  0  0  0  0  0  0  0  0  0
   -4.5658   -1.9947   -1.8543 H   0  0  0  0  0  0  0  0  0  0  0  0
   -4.1230   -3.2510   -0.6615 H   0  0  0  0  0  0  0  0  0  0  0  0
   -1.4104   -3.5751   -0.3288 C   0  0  0  0  0  0  0  0  0  0  0  0
   -1.4265   -3.9972   -1.3630 H   0  0  0  0  0  0  0  0  0  0  0  0
   -2.2987   -4.0059    0.1827 H   0  0  0  0  0  0  0  0  0  0  0  0
   -0.1604   -4.0804    0.3685 C   0  0  0  0  0  0  0  0  0  0  0  0
   -0.2042   -5.1885    0.3676 H   0  0  0  0  0  0  0  0  0  0  0  0
   -0.1462   -3.7764    1.4320 H   0  0  0  0  0  0  0  0  0  0  0  0
    1.1230   -3.6750   -0.3333 C   0  0  0  0  0  0  0  0  0  0  0  0
    1.9763   -4.1758    0.1741 H   0  0  0  0  0  0  0  0  0  0  0  0
    1.1016   -4.0953   -1.3682 H   0  0  0  0  0  0  0  0  0  0  0  0
    2.5516   -1.8266   -0.8427 C   0  0  2  0  0  3  0  0  0  0  0  0
    3.5012   -2.8434   -1.4379 C   0  0  0  0  0  0  0  0  0  0  0  0
    3.0131   -3.4413   -2.2344 H   0  0  0  0  0  0  0  0  0  0  0  0
    3.8522   -3.5659   -0.6717 H   0  0  0  0  0  0  0  0  0  0  0  0
    4.3898   -2.3473   -1.8647 H   0  0  0  0  0  0  0  0  0  0  0  0
    3.0238   -0.4902   -0.7809 C   0  0  0  0  0  0  0  0  0  0  0  0
    3.9873   -0.2858   -1.2585 H   0  0  0  0  0  0  0  0  0  0  0  0
    2.4196    0.5243   -0.0249 C   0  0  0  0  0  0  0  0  0  0  0  0
    3.0818    1.8388    0.2068 C   0  0  0  0  0  0  0  0  0  0  0  0
    4.4283    2.0883   -0.1431 C   0  0  0  0  0  0  0  0  0  0  0  0
    5.0481    1.2902   -0.5753 H   0  0  0  0  0  0  0  0  0  0  0  0
    4.9969    3.3491    0.0743 C   0  0  0  0  0  0  0  0  0  0  0  0
    6.0467    3.5281   -0.2019 H   0  0  0  0  0  0  0  0  0  0  0  0
    4.2351    4.3797    0.6502 C   0  0  0  0  0  0  0  0  0  0  0  0
    4.6861    5.3688    0.8206 H   0  0  0  0  0  0  0  0  0  0  0  0
    2.8998    4.1401    1.0133 C   0  0  0  0  0  0  0  0  0  0  0  0
    2.3008    4.9420    1.4706 H   0  0  0  0  0  0  0  0  0  0  0  0
    2.3287    2.8809    0.7959 C   0  0  0  0  0  0  0  0  0  0  0  0
    1.2879    2.6754    1.0828 H   0  0  0  0  0  0  0  0  0  0  0  0
  3 24  1  0  0  0  0
  4 30  1  0  0  0  0
  5  7  1  0  0  0  0
  5  6  1  0  0  0  0
  7  8  1  0  0  0  0
  9 10  1  0  0  0  0
  9  7  2  0  0  0  0
 11  9  1  0  0  0  0
 12 11  1  0  0  0  0
 13 11  2  0  0  0  0
 13 15  1  0  0  0  0
 14 13  1  0  0  0  0
 15  5  2  0  0  0  0
 16 15  1  0  0  0  0
 16  1  1  0  0  0  0
 17 16  2  0  0  0  0
 18 17  1  0  0  0  0
 19 17  1  1  0  0  0
 19  3  1  0  0  0  0
 20 19  1  0  0  0  0
 20 23  1  0  0  0  0
 21 20  1  0  0  0  0
 22 20  1  0  0  0  0
 24 26  1  0  0  0  0
 24 27  1  0  0  0  0
 25 24  1  0  0  0  0
 27 29  1  0  0  0  0
 28 27  1  0  0  0  0
 30 31  1  0  0  0  0
 30 27  1  0  0  0  0
 32 30  1  0  0  0  0
 33 38  1  1  0  0  0
 33  4  1  0  0  0  0
 34 33  1  0  0  0  0
 34 36  1  0  0  0  0
 35 34  1  0  0  0  0
 37 34  1  0  0  0  0
 38 40  2  0  0  0  0
 39 38  1  0  0  0  0
 40 41  1  0  0  0  0
 40  2  1  0  0  0  0
 41 50  1  0  0  0  0
 42 44  1  0  0  0  0
 42 41  2  0  0  0  0
 43 42  1  0  0  0  0
 44 46  2  0  0  0  0
 45 44  1  0  0  0  0
 46 47  1  0  0  0  0
 46 48  1  0  0  0  0
 48 49  1  0  0  0  0
 50 48  2  0  0  0  0
 50 51  1  0  0  0  0
M  CHG  2   1  -1   2  -1
M  END
