1,4,7,8
 OpenBabel05122313063D

 66 69  0  0  0  0  0  0  0  0999 V2000
   -1.3822    0.0958    0.1694 O   0  5  0  0  0  0  0  0  0  0  0  0
   -0.8428    2.4503    1.0573 O   0  0  0  0  0  0  0  0  0  0  0  0
   -0.9096    1.4643    0.9036 H   0  0  0  0  0  0  0  0  0  0  0  0
    1.3355   -0.2746   -0.1166 O   0  5  0  0  0  0  0  0  0  0  0  0
    1.7692    1.0373    2.0376 O   0  0  0  0  0  0  0  0  0  0  0  0
    1.4911    0.4005    1.3137 H   0  0  0  0  0  0  0  0  0  0  0  0
   -1.8383   -2.8271    0.0331 N   0  0  0  0  0  0  0  0  0  0  0  0
    1.0063   -3.1949   -0.0772 N   0  0  0  0  0  0  0  0  0  0  0  0
   -2.7755   -2.3256    1.0940 C   0  0  0  0  0  0  0  0  0  0  0  0
   -2.1583   -2.2188    2.0128 H   0  0  0  0  0  0  0  0  0  0  0  0
   -3.5453   -3.1074    1.2856 H   0  0  0  0  0  0  0  0  0  0  0  0
   -3.4611   -1.0378    0.7208 C   0  0  0  0  0  0  0  0  0  0  0  0
   -2.7111    0.1028    0.2971 C   0  0  0  0  0  0  0  0  0  0  0  0
   -3.3987    1.3213   -0.0260 C   0  0  0  0  0  0  0  0  0  0  0  0
   -4.8028    1.3453    0.1080 C   0  0  0  0  0  0  0  0  0  0  0  0
   -5.3250    2.2887   -0.1109 H   0  0  0  0  0  0  0  0  0  0  0  0
   -5.5399    0.2242    0.5132 C   0  0  0  0  0  0  0  0  0  0  0  0
   -6.6343    0.2813    0.6038 H   0  0  0  0  0  0  0  0  0  0  0  0
   -4.8641   -0.9647    0.8071 C   0  0  0  0  0  0  0  0  0  0  0  0
   -5.4262   -1.8576    1.1257 H   0  0  0  0  0  0  0  0  0  0  0  0
   -2.6970    2.5319   -0.5329 C   0  0  0  0  0  0  0  0  0  0  0  0
   -1.4937    3.0513    0.0418 C   0  0  0  0  0  0  0  0  0  0  0  0
   -0.9694    4.2779   -0.4265 C   0  0  0  0  0  0  0  0  0  0  0  0
   -0.0388    4.6341    0.0398 H   0  0  0  0  0  0  0  0  0  0  0  0
   -1.5991    4.9898   -1.4495 C   0  0  0  0  0  0  0  0  0  0  0  0
   -1.1653    5.9391   -1.8005 H   0  0  0  0  0  0  0  0  0  0  0  0
   -2.7682    4.4811   -2.0434 C   0  0  0  0  0  0  0  0  0  0  0  0
   -3.2595    5.0196   -2.8674 H   0  0  0  0  0  0  0  0  0  0  0  0
   -3.2978    3.2723   -1.5808 C   0  0  0  0  0  0  0  0  0  0  0  0
   -4.2065    2.8649   -2.0509 H   0  0  0  0  0  0  0  0  0  0  0  0
   -1.2313   -4.1408    0.3919 C   0  0  0  0  0  0  0  0  0  0  0  0
   -1.9382   -4.9723    0.1717 H   0  0  0  0  0  0  0  0  0  0  0  0
   -1.0551   -4.1382    1.4858 H   0  0  0  0  0  0  0  0  0  0  0  0
    0.0827   -4.3320   -0.3604 C   0  0  0  0  0  0  0  0  0  0  0  0
   -0.0962   -4.3527   -1.4535 H   0  0  0  0  0  0  0  0  0  0  0  0
    0.5594   -5.2997   -0.0868 H   0  0  0  0  0  0  0  0  0  0  0  0
    1.9841   -2.9714   -1.1906 C   0  0  0  0  0  0  0  0  0  0  0  0
    1.3681   -2.7504   -2.0903 H   0  0  0  0  0  0  0  0  0  0  0  0
    2.5305   -3.9237   -1.3798 H   0  0  0  0  0  0  0  0  0  0  0  0
    2.9878   -1.8804   -0.9152 C   0  0  0  0  0  0  0  0  0  0  0  0
    2.5969   -0.5977   -0.4215 C   0  0  0  0  0  0  0  0  0  0  0  0
    3.5921    0.4209   -0.2309 C   0  0  0  0  0  0  0  0  0  0  0  0
    4.9290    0.1124   -0.5561 C   0  0  0  0  0  0  0  0  0  0  0  0
    5.6914    0.8873   -0.3865 H   0  0  0  0  0  0  0  0  0  0  0  0
    5.3140   -1.1448   -1.0409 C   0  0  0  0  0  0  0  0  0  0  0  0
    6.3698   -1.3559   -1.2643 H   0  0  0  0  0  0  0  0  0  0  0  0
    4.3414   -2.1349   -1.2089 C   0  0  0  0  0  0  0  0  0  0  0  0
    4.6273   -3.1338   -1.5770 H   0  0  0  0  0  0  0  0  0  0  0  0
    3.2660    1.7866    0.2656 C   0  0  0  0  0  0  0  0  0  0  0  0
    2.4201    2.0312    1.3914 C   0  0  0  0  0  0  0  0  0  0  0  0
    2.2682    3.3464    1.8802 C   0  0  0  0  0  0  0  0  0  0  0  0
    1.5944    3.4878    2.7365 H   0  0  0  0  0  0  0  0  0  0  0  0
    2.9220    4.4209    1.2725 C   0  0  0  0  0  0  0  0  0  0  0  0
    2.7808    5.4395    1.6667 H   0  0  0  0  0  0  0  0  0  0  0  0
    3.7357    4.2028    0.1459 C   0  0  0  0  0  0  0  0  0  0  0  0
    4.2334    5.0447   -0.3578 H   0  0  0  0  0  0  0  0  0  0  0  0
    3.8992    2.9006   -0.3372 C   0  0  0  0  0  0  0  0  0  0  0  0
    4.5253    2.7263   -1.2261 H   0  0  0  0  0  0  0  0  0  0  0  0
   -2.5172   -2.8933   -1.2825 C   0  0  0  0  0  0  0  0  0  0  0  0
   -3.3924   -3.5787   -1.2267 H   0  0  0  0  0  0  0  0  0  0  0  0
   -2.8719   -1.8852   -1.5603 H   0  0  0  0  0  0  0  0  0  0  0  0
   -1.8143   -3.2552   -2.0538 H   0  0  0  0  0  0  0  0  0  0  0  0
    1.7054   -3.3866    1.2164 C   0  0  0  0  0  0  0  0  0  0  0  0
    0.9675   -3.5475    2.0227 H   0  0  0  0  0  0  0  0  0  0  0  0
    2.3019   -2.4868    1.4486 H   0  0  0  0  0  0  0  0  0  0  0  0
    2.3868   -4.2642    1.1542 H   0  0  0  0  0  0  0  0  0  0  0  0
  1 13  1  0  0  0  0
  3  2  1  0  0  0  0
  6  5  1  0  0  0  0
  7 31  1  0  0  0  0
  7  9  1  0  0  0  0
  8 63  1  0  0  0  0
  9 11  1  0  0  0  0
  9 10  1  0  0  0  0
 12 19  1  0  0  0  0
 12  9  1  0  0  0  0
 13 12  2  0  0  0  0
 14 15  2  0  0  0  0
 14 13  1  0  0  0  0
 15 17  1  0  0  0  0
 16 15  1  0  0  0  0
 17 18  1  0  0  0  0
 17 19  2  0  0  0  0
 19 20  1  0  0  0  0
 21 14  1  0  0  0  0
 21 22  1  0  0  0  0
 22  2  1  0  0  0  0
 23 24  1  0  0  0  0
 23 22  2  0  0  0  0
 25 23  1  0  0  0  0
 26 25  1  0  0  0  0
 27 29  1  0  0  0  0
 27 25  2  0  0  0  0
 28 27  1  0  0  0  0
 29 21  2  0  0  0  0
 30 29  1  0  0  0  0
 31 33  1  0  0  0  0
 32 31  1  0  0  0  0
 34 36  1  0  0  0  0
 34  8  1  0  0  0  0
 34 31  1  0  0  0  0
 35 34  1  0  0  0  0
 37 40  1  0  0  0  0
 37  8  1  0  0  0  0
 38 37  1  0  0  0  0
 39 37  1  0  0  0  0
 40 41  1  0  0  0  0
 41 42  2  0  0  0  0
 41  4  1  0  0  0  0
 42 49  1  0  0  0  0
 43 44  1  0  0  0  0
 43 42  1  0  0  0  0
 45 43  2  0  0  0  0
 46 45  1  0  0  0  0
 47 45  1  0  0  0  0
 47 40  2  0  0  0  0
 48 47  1  0  0  0  0
 49 50  1  0  0  0  0
 50 51  2  0  0  0  0
 50  5  1  0  0  0  0
 51 52  1  0  0  0  0
 53 54  1  0  0  0  0
 53 51  1  0  0  0  0
 55 53  2  0  0  0  0
 56 55  1  0  0  0  0
 57 55  1  0  0  0  0
 57 49  2  0  0  0  0
 58 57  1  0  0  0  0
 59 60  1  0  0  0  0
 59  7  1  0  0  0  0
 61 59  1  0  0  0  0
 62 59  1  0  0  0  0
 63 65  1  0  0  0  0
 63 64  1  0  0  0  0
 66 63  1  0  0  0  0
M  CHG  2   1  -1   4  -1
M  END
