1,2,7,8
 OpenBabel05122313063D

 64 65  0  0  0  0  0  0  0  0999 V2000
    0.2657   -1.9080   -0.7094 N   0  0  0  0  0  2  0  0  0  0  0  0
    1.8393    0.3115   -0.3392 O   0  5  0  0  0  0  0  0  0  0  0  0
   -0.3163   -1.4763    2.1175 N   0  0  0  0  0  0  0  0  0  0  0  0
    0.5995   -1.9355    2.1932 H   0  0  0  0  0  0  0  0  0  0  0  0
   -4.1993   -1.4281   -0.2442 O   0  0  0  0  0  0  0  0  0  0  0  0
    4.1992    1.4269   -0.2426 O   0  0  0  0  0  0  0  0  0  0  0  0
   -0.2648    1.9053   -0.7123 N   0  0  0  0  0  2  0  0  0  0  0  0
   -1.8389   -0.3140   -0.3435 O   0  5  0  0  0  0  0  0  0  0  0  0
    1.4283   -2.4751   -0.9320 C   0  0  0  0  0  0  0  0  0  0  0  0
    1.4282   -3.5686   -1.1245 H   0  0  0  0  0  0  0  0  0  0  0  0
    2.7207   -1.8550   -0.9353 C   0  0  0  0  0  0  0  0  0  0  0  0
    3.8816   -2.6315   -1.2211 C   0  0  0  0  0  3  0  0  0  0  0  0
    3.7567   -3.6976   -1.4678 H   0  0  0  0  0  0  0  0  0  0  0  0
    5.1433   -2.0583   -1.1837 C   0  0  0  0  0  0  0  0  0  0  0  0
    6.0385   -2.6573   -1.4047 H   0  0  0  0  0  0  0  0  0  0  0  0
    5.2874   -0.6849   -0.8542 C   0  0  0  0  0  0  0  0  0  0  0  0
    6.2931   -0.2433   -0.8256 H   0  0  0  0  0  0  0  0  0  0  0  0
    4.1695    0.0999   -0.5716 C   0  0  0  0  0  0  0  0  0  0  0  0
    5.4566    2.0654   -0.1892 C   0  0  0  0  0  0  0  0  0  0  0  0
    6.1248    1.6060    0.5748 H   0  0  0  0  0  0  0  0  0  0  0  0
    5.2642    3.1187    0.0887 H   0  0  0  0  0  0  0  0  0  0  0  0
    5.9784    2.0396   -1.1732 H   0  0  0  0  0  0  0  0  0  0  0  0
    2.8411   -0.4674   -0.6106 C   0  0  0  0  0  0  0  0  0  0  0  0
   -0.8695   -2.8405   -0.6069 C   0  0  0  0  0  0  0  0  0  0  0  0
   -0.7124   -3.6678   -1.3332 H   0  0  0  0  0  0  0  0  0  0  0  0
   -1.7944   -2.3024   -0.8765 H   0  0  0  0  0  0  0  0  0  0  0  0
   -1.0253   -3.4402    0.7992 C   0  0  0  0  0  0  0  0  0  0  0  0
   -0.0935   -3.9912    1.0681 H   0  0  0  0  0  0  0  0  0  0  0  0
   -1.8292   -4.2054    0.7511 H   0  0  0  0  0  0  0  0  0  0  0  0
   -1.3721   -2.4488    1.9096 C   0  0  0  0  0  0  0  0  0  0  0  0
   -2.2936   -1.8994    1.6193 H   0  0  0  0  0  0  0  0  0  0  0  0
   -1.6192   -3.0319    2.8399 H   0  0  0  0  0  0  0  0  0  0  0  0
   -0.5177   -0.5611    3.2197 C   0  0  0  0  0  0  0  0  0  0  0  0
   -0.5088   -1.0607    4.2270 H   0  0  0  0  0  0  0  0  0  0  0  0
   -1.5355   -0.1206    3.1164 H   0  0  0  0  0  0  0  0  0  0  0  0
    0.5145    0.5688    3.2194 C   0  0  0  0  0  0  0  0  0  0  0  0
    0.5048    1.0696    4.2263 H   0  0  0  0  0  0  0  0  0  0  0  0
    1.5323    0.1282    3.1176 H   0  0  0  0  0  0  0  0  0  0  0  0
    0.3140    1.4826    2.1159 N   0  0  0  0  0  0  0  0  0  0  0  0
   -0.6014    1.9427    2.1907 H   0  0  0  0  0  0  0  0  0  0  0  0
    1.3707    2.4538    1.9063 C   0  0  0  0  0  0  0  0  0  0  0  0
    2.2921    1.9028    1.6185 H   0  0  0  0  0  0  0  0  0  0  0  0
    1.6174    3.0395    2.8351 H   0  0  0  0  0  0  0  0  0  0  0  0
    1.0257    3.4419    0.7925 C   0  0  0  0  0  0  0  0  0  0  0  0
    1.8301    4.2065    0.7427 H   0  0  0  0  0  0  0  0  0  0  0  0
    0.0939    3.9944    1.0588 H   0  0  0  0  0  0  0  0  0  0  0  0
    0.8708    2.8378   -0.6118 C   0  0  0  0  0  0  0  0  0  0  0  0
    0.7147    3.6628   -1.3409 H   0  0  0  0  0  0  0  0  0  0  0  0
    1.7956    2.2984   -0.8788 H   0  0  0  0  0  0  0  0  0  0  0  0
   -1.4272    2.4727   -0.9353 C   0  0  0  0  0  0  0  0  0  0  0  0
   -1.4267    3.5660   -1.1292 H   0  0  0  0  0  0  0  0  0  0  0  0
   -2.7200    1.8533   -0.9374 C   0  0  0  0  0  0  0  0  0  0  0  0
   -2.8406    0.4656   -0.6131 C   0  0  0  0  0  0  0  0  0  0  0  0
   -4.1693   -0.1011   -0.5730 C   0  0  0  0  0  0  0  0  0  0  0  0
   -5.4569   -2.0662   -0.1898 C   0  0  0  0  0  0  0  0  0  0  0  0
   -6.1242   -1.6065    0.5748 H   0  0  0  0  0  0  0  0  0  0  0  0
   -5.2647   -3.1196    0.0877 H   0  0  0  0  0  0  0  0  0  0  0  0
   -5.9795   -2.0399   -1.1734 H   0  0  0  0  0  0  0  0  0  0  0  0
   -5.2870    0.6842   -0.8544 C   0  0  0  0  0  0  0  0  0  0  0  0
   -6.2930    0.2432   -0.8250 H   0  0  0  0  0  0  0  0  0  0  0  0
   -5.1427    2.0577   -1.1838 C   0  0  0  0  0  0  0  0  0  0  0  0
   -6.0378    2.6571   -1.4039 H   0  0  0  0  0  0  0  0  0  0  0  0
   -3.8808    2.6304   -1.2222 C   0  0  0  0  0  3  0  0  0  0  0  0
   -3.7555    3.6965   -1.4687 H   0  0  0  0  0  0  0  0  0  0  0  0
  1 24  1  0  0  0  0
  3  4  1  0  0  0  0
  3 33  1  0  0  0  0
  5 55  1  0  0  0  0
  6 19  1  0  0  0  0
  7 47  1  0  0  0  0
  9  1  1  0  0  0  0
 10  9  1  0  0  0  0
 11  9  2  0  0  0  0
 11 23  1  0  0  0  0
 12 14  1  0  0  0  0
 12 11  1  0  0  0  0
 13 12  1  0  0  0  0
 14 16  2  0  0  0  0
 15 14  1  0  0  0  0
 16 17  1  0  0  0  0
 16 18  1  0  0  0  0
 18  6  1  0  0  0  0
 19 21  1  0  0  0  0
 19 20  1  0  0  0  0
 22 19  1  0  0  0  0
 23 18  2  0  0  0  0
 23  2  1  0  0  0  0
 24 27  1  0  0  0  0
 25 24  1  0  0  0  0
 26 24  1  0  0  0  0
 27 28  1  0  0  0  0
 27 30  1  0  0  0  0
 29 27  1  0  0  0  0
 30  3  1  0  0  0  0
 30 32  1  0  0  0  0
 31 30  1  0  0  0  0
 33 34  1  0  0  0  0
 35 33  1  0  0  0  0
 36 33  1  0  0  0  0
 36 37  1  0  0  0  0
 38 36  1  0  0  0  0
 39 40  1  0  0  0  0
 39 36  1  0  0  0  0
 41 39  1  0  0  0  0
 41 43  1  0  0  0  0
 42 41  1  0  0  0  0
 44 46  1  0  0  0  0
 44 41  1  0  0  0  0
 45 44  1  0  0  0  0
 47 44  1  0  0  0  0
 48 47  1  0  0  0  0
 49 47  1  0  0  0  0
 50  7  1  0  0  0  0
 51 50  1  0  0  0  0
 52 50  2  0  0  0  0
 52 53  1  0  0  0  0
 53 54  2  0  0  0  0
 53  8  1  0  0  0  0
 54  5  1  0  0  0  0
 55 57  1  0  0  0  0
 55 56  1  0  0  0  0
 58 55  1  0  0  0  0
 59 60  1  0  0  0  0
 59 54  1  0  0  0  0
 61 59  2  0  0  0  0
 62 61  1  0  0  0  0
 63 61  1  0  0  0  0
 63 52  1  0  0  0  0
 64 63  1  0  0  0  0
M  CHG  2   2  -1   8  -1
M  END
