1,2,6,7
 OpenBabel05122313063D

 60 63  0  0  1  0  0  0  0  0999 V2000
    1.0739   -1.8650   -0.1938 O   0  5  0  0  0  0  0  0  0  0  0  0
    1.1596    0.8123    0.1042 N   0  0  0  0  0  2  0  0  0  0  0  0
    0.5193    2.2733    1.9810 C   0  0  0  0  0  0  0  0  0  0  0  0
   -0.0208    3.2222    2.2289 H   0  0  0  0  0  0  0  0  0  0  0  0
   -0.0839    1.4245    2.3885 H   0  0  0  0  0  0  0  0  0  0  0  0
   -1.4435   -1.7865   -0.2596 O   0  5  0  0  0  0  0  0  0  0  0  0
   -1.3672    0.8970   -0.0805 N   0  0  0  0  0  2  0  0  0  0  0  0
    0.6168    2.1286    0.4605 C   0  0  2  0  0  0  0  0  0  0  0  0
    1.2736    2.9375    0.0755 H   0  0  0  0  0  0  0  0  0  0  0  0
   -0.7467    2.2167   -0.2260 C   0  0  1  0  0  0  0  0  0  0  0  0
   -1.3726    3.0030    0.2513 H   0  0  0  0  0  0  0  0  0  0  0  0
    1.8235    2.2751    2.5059 O   0  0  0  0  0  0  0  0  0  0  0  0
    0.0020    3.8284   -1.8193 O   0  0  0  0  0  0  0  0  0  0  0  0
   -0.6039    2.5629   -1.7142 C   0  0  0  0  0  0  0  0  0  0  0  0
    0.0059    1.7679   -2.2118 H   0  0  0  0  0  0  0  0  0  0  0  0
   -1.6154    2.5499   -2.1917 H   0  0  0  0  0  0  0  0  0  0  0  0
    1.8705    2.1232    3.9060 C   0  0  0  0  0  0  0  0  0  0  0  0
    2.9364    2.1120    4.2049 H   0  0  0  0  0  0  0  0  0  0  0  0
    1.3962    1.1679    4.2363 H   0  0  0  0  0  0  0  0  0  0  0  0
    1.3601    2.9628    4.4375 H   0  0  0  0  0  0  0  0  0  0  0  0
    0.2766    4.2014   -3.1509 C   0  0  0  0  0  0  0  0  0  0  0  0
    0.7608    5.1967   -3.1276 H   0  0  0  0  0  0  0  0  0  0  0  0
   -0.6532    4.2715   -3.7658 H   0  0  0  0  0  0  0  0  0  0  0  0
    0.9641    3.4788   -3.6532 H   0  0  0  0  0  0  0  0  0  0  0  0
    2.4660    0.6376    0.1031 C   0  0  0  0  0  0  0  0  0  0  0  0
    3.0698    1.5406    0.2929 H   0  0  0  0  0  0  0  0  0  0  0  0
    3.1410   -0.5995   -0.0926 C   0  0  0  0  0  0  0  0  0  0  0  0
    2.3674   -1.8054   -0.2209 C   0  0  0  0  0  0  0  0  0  0  0  0
    3.0683   -3.0574   -0.3797 C   0  0  0  0  0  0  0  0  0  0  0  0
    2.4465   -3.9595   -0.4691 H   0  0  0  0  0  0  0  0  0  0  0  0
    4.4392   -3.1092   -0.4152 C   0  0  0  0  0  0  0  0  0  0  0  0
    4.9500   -4.0780   -0.5370 H   0  0  0  0  0  0  0  0  0  0  0  0
    6.6627   -2.0037   -0.3437 C   0  0  0  0  0  3  0  0  0  0  0  0
    7.1296   -2.9938   -0.4669 H   0  0  0  0  0  0  0  0  0  0  0  0
    7.4488   -0.8623   -0.2357 C   0  0  0  0  0  0  0  0  0  0  0  0
    8.5460   -0.9329   -0.2712 H   0  0  0  0  0  0  0  0  0  0  0  0
    6.8187    0.3941   -0.0822 C   0  0  0  0  0  0  0  0  0  0  0  0
    7.4288    1.3066    0.0011 H   0  0  0  0  0  0  0  0  0  0  0  0
    5.4305    0.4941   -0.0375 C   0  0  0  0  0  0  0  0  0  0  0  0
    4.9844    1.4922    0.0759 H   0  0  0  0  0  0  0  0  0  0  0  0
    4.5955   -0.6539   -0.1399 C   0  0  0  0  0  0  0  0  0  0  0  0
    5.2454   -1.9277   -0.2997 C   0  0  0  0  0  0  0  0  0  0  0  0
   -2.6822    0.7982   -0.0330 C   0  0  0  0  0  0  0  0  0  0  0  0
   -3.2375    1.7540   -0.0146 H   0  0  0  0  0  0  0  0  0  0  0  0
   -3.4282   -0.4118   -0.0203 C   0  0  0  0  0  0  0  0  0  0  0  0
   -2.7272   -1.6623   -0.1647 C   0  0  0  0  0  0  0  0  0  0  0  0
   -3.5028   -2.8790   -0.2243 C   0  0  0  0  0  0  0  0  0  0  0  0
   -2.9378   -3.8140   -0.3466 H   0  0  0  0  0  0  0  0  0  0  0  0
   -4.8714   -2.8599   -0.1304 C   0  0  0  0  0  0  0  0  0  0  0  0
   -5.4392   -3.8030   -0.1781 H   0  0  0  0  0  0  0  0  0  0  0  0
   -7.0192   -1.6419    0.1417 C   0  0  0  0  0  0  0  0  0  0  0  0
   -7.5434   -2.6092    0.0887 H   0  0  0  0  0  0  0  0  0  0  0  0
   -7.7341   -0.4613    0.3102 C   0  0  0  0  0  0  0  0  0  0  0  0
   -8.8310   -0.4780    0.3914 H   0  0  0  0  0  0  0  0  0  0  0  0
   -7.0314    0.7630    0.3815 C   0  0  0  0  0  0  0  0  0  0  0  0
   -7.5837    1.7048    0.5222 H   0  0  0  0  0  0  0  0  0  0  0  0
   -5.6425    0.7934    0.2811 C   0  0  0  0  0  0  0  0  0  0  0  0
   -5.1388    1.7678    0.3555 H   0  0  0  0  0  0  0  0  0  0  0  0
   -4.8801   -0.3941    0.0991 C   0  0  2  0  0  3  0  0  0  0  0  0
   -5.6034   -1.6362    0.0358 C   0  0  0  0  0  0  0  0  0  0  0  0
  2  8  1  0  0  0  0
  3  4  1  0  0  0  0
  3  5  1  0  0  0  0
  3 12  1  0  0  0  0
  6 46  1  0  0  0  0
  7 43  1  0  0  0  0
  8  9  1  6  0  0  0
  8  3  1  0  0  0  0
 10  7  1  0  0  0  0
 10 11  1  1  0  0  0
 10  8  1  0  0  0  0
 12 17  1  0  0  0  0
 13 14  1  0  0  0  0
 14 10  1  0  0  0  0
 15 14  1  0  0  0  0
 16 14  1  0  0  0  0
 17 18  1  0  0  0  0
 17 19  1  0  0  0  0
 17 20  1  0  0  0  0
 21 22  1  0  0  0  0
 21 13  1  0  0  0  0
 23 21  1  0  0  0  0
 24 21  1  0  0  0  0
 25  2  1  0  0  0  0
 25 26  1  0  0  0  0
 27 25  2  0  0  0  0
 28  1  1  0  0  0  0
 28 27  1  0  0  0  0
 29 28  2  0  0  0  0
 30 29  1  0  0  0  0
 31 29  1  0  0  0  0
 31 42  2  0  0  0  0
 32 31  1  0  0  0  0
 33 42  1  0  0  0  0
 33 35  1  0  0  0  0
 34 33  1  0  0  0  0
 35 37  2  0  0  0  0
 36 35  1  0  0  0  0
 37 39  1  0  0  0  0
 37 38  1  0  0  0  0
 39 40  1  0  0  0  0
 41 27  1  0  0  0  0
 41 39  2  0  0  0  0
 42 41  1  0  0  0  0
 43 45  2  0  0  0  0
 43 44  1  0  0  0  0
 46 45  1  0  0  0  0
 47 46  2  0  0  0  0
 47 49  1  0  0  0  0
 48 47  1  0  0  0  0
 49 60  2  0  0  0  0
 50 49  1  0  0  0  0
 51 53  2  0  0  0  0
 52 51  1  0  0  0  0
 53 55  1  0  0  0  0
 53 54  1  0  0  0  0
 55 56  1  0  0  0  0
 57 58  1  0  0  0  0
 57 55  2  0  0  0  0
 59 45  1  1  0  0  0
 59 57  1  0  0  0  0
 60 59  1  0  0  0  0
 60 51  1  0  0  0  0
M  CHG  2   1  -1   6  -1
M  END
