1,2,3,4
 OpenBabel05122313063D

 59 64  0  0  1  0  0  0  0  0999 V2000
    3.6887    1.8468   -0.3847 O   0  5  0  0  0  0  0  0  0  0  0  0
    4.5353   -0.4203    0.0381 O   0  0  0  0  0  1  0  0  0  0  0  0
    1.9774   -1.3876    0.2430 N   0  0  0  0  0  2  0  0  0  0  0  0
    1.0994    0.9651   -0.1978 N   0  0  0  0  0  2  0  0  0  0  0  0
   -6.5025   -0.0418    0.0736 N   0  0  0  0  0  0  0  0  0  0  0  0
    3.1781    3.0148   -0.6013 C   0  0  0  0  0  0  0  0  0  0  0  0
    4.0611    4.1232   -0.8177 C   0  0  0  0  0  0  0  0  0  0  0  0
    5.1399    3.9141   -0.7870 H   0  0  0  0  0  0  0  0  0  0  0  0
    3.5676    5.3968   -1.0539 C   0  0  0  0  0  0  0  0  0  0  0  0
    4.2741    6.2261   -1.2161 H   0  0  0  0  0  0  0  0  0  0  0  0
    2.1683    5.6539   -1.0910 C   0  0  0  0  0  0  0  0  0  0  0  0
    1.7969    6.6711   -1.2800 H   0  0  0  0  0  0  0  0  0  0  0  0
    1.2857    4.6079   -0.8865 C   0  0  0  0  0  3  0  0  0  0  0  0
    0.1980    4.7828   -0.9109 H   0  0  0  0  0  0  0  0  0  0  0  0
    1.7533    3.2792   -0.6397 C   0  0  0  0  0  0  0  0  0  0  0  0
    4.9147   -1.6354    0.2637 C   0  0  1  0  0  3  0  0  0  0  0  0
    4.0009   -2.7403    0.4788 C   0  0  0  0  0  0  0  0  0  0  0  0
    4.5194   -4.0509    0.7204 C   0  0  0  0  0  0  0  0  0  0  0  0
    3.8046   -4.8742    0.8808 H   0  0  0  0  0  0  0  0  0  0  0  0
    5.8820   -4.2901    0.7542 C   0  0  0  0  0  0  0  0  0  0  0  0
    6.2685   -5.3021    0.9410 H   0  0  0  0  0  0  0  0  0  0  0  0
    6.7809   -3.2069    0.5438 C   0  0  0  0  0  0  0  0  0  0  0  0
    7.8663   -3.3923    0.5699 H   0  0  0  0  0  0  0  0  0  0  0  0
    6.3188   -1.9219    0.3064 C   0  0  0  0  0  0  0  0  0  0  0  0
    7.0044   -1.0784    0.1425 H   0  0  0  0  0  0  0  0  0  0  0  0
    0.8149    2.2388   -0.4355 C   0  0  0  0  0  0  0  0  0  0  0  0
   -0.2500    2.5289   -0.4802 H   0  0  0  0  0  0  0  0  0  0  0  0
    2.5995   -2.5405    0.4534 C   0  0  0  0  0  0  0  0  0  0  0  0
    1.9771   -3.4366    0.6264 H   0  0  0  0  0  0  0  0  0  0  0  0
    0.5703   -1.3016    0.2403 C   0  0  0  0  0  0  0  0  0  0  0  0
    0.0805    0.0077   -0.0047 C   0  0  0  0  0  0  0  0  0  0  0  0
   -1.3060    0.2438   -0.0363 C   0  0  0  0  0  0  0  0  0  0  0  0
   -1.7051    1.2480   -0.2317 H   0  0  0  0  0  0  0  0  0  0  0  0
   -2.2174   -0.8079    0.1704 C   0  0  0  0  0  0  0  0  0  0  0  0
   -1.7174   -2.1095    0.4127 C   0  0  0  0  0  0  0  0  0  0  0  0
   -2.4243   -2.9338    0.5857 H   0  0  0  0  0  0  0  0  0  0  0  0
   -0.3422   -2.3546    0.4507 C   0  0  0  0  0  0  0  0  0  0  0  0
    0.0107   -3.3753    0.6510 H   0  0  0  0  0  0  0  0  0  0  0  0
   -3.6818   -0.5476    0.1387 C   0  0  0  0  0  0  0  0  0  0  0  0
   -4.2899    0.2930    1.1100 C   0  0  0  0  0  0  0  0  0  0  0  0
   -3.5691    0.9027    2.1892 C   0  0  0  0  0  0  0  0  0  0  0  0
   -2.4925    0.7041    2.2899 H   0  0  0  0  0  0  0  0  0  0  0  0
   -4.2129    1.7176    3.1012 C   0  0  0  0  0  0  0  0  0  0  0  0
   -3.6431    2.1737    3.9249 H   0  0  0  0  0  0  0  0  0  0  0  0
   -5.6151    1.9659    2.9922 C   0  0  0  0  0  0  0  0  0  0  0  0
   -6.1089    2.6202    3.7268 H   0  0  0  0  0  0  0  0  0  0  0  0
   -6.3502    1.3791    1.9822 C   0  0  0  0  0  0  0  0  0  0  0  0
   -7.4334    1.5351    1.8761 H   0  0  0  0  0  0  0  0  0  0  0  0
   -5.7246    0.5211    1.0170 C   0  0  0  0  0  0  0  0  0  0  0  0
   -5.9271   -0.8476   -0.8384 C   0  0  0  0  0  0  0  0  0  0  0  0
   -6.7670   -1.4409   -1.8390 C   0  0  0  0  0  0  0  0  0  0  0  0
   -7.8406   -1.2102   -1.7837 H   0  0  0  0  0  0  0  0  0  0  0  0
   -6.2358   -2.2528   -2.8207 C   0  0  0  0  0  0  0  0  0  0  0  0
   -6.8920   -2.6993   -3.5834 H   0  0  0  0  0  0  0  0  0  0  0  0
   -4.8314   -2.5083   -2.8636 C   0  0  0  0  0  0  0  0  0  0  0  0
   -4.4189   -3.1401   -3.6647 H   0  0  0  0  0  0  0  0  0  0  0  0
   -3.9870   -1.9620   -1.9155 C   0  0  0  0  0  0  0  0  0  0  0  0
   -2.9051   -2.1517   -1.9636 H   0  0  0  0  0  0  0  0  0  0  0  0
   -4.5001   -1.1325   -0.8648 C   0  0  0  0  0  0  0  0  0  0  0  0
  3 28  1  0  0  0  0
  4 31  1  0  0  0  0
  5 49  1  0  0  0  0
  6  1  1  0  0  0  0
  7  8  1  0  0  0  0
  7  6  2  0  0  0  0
  9  7  1  0  0  0  0
 10  9  1  0  0  0  0
 11  9  2  0  0  0  0
 11 13  1  0  0  0  0
 12 11  1  0  0  0  0
 13 15  1  0  0  0  0
 14 13  1  0  0  0  0
 15  6  1  0  0  0  0
 15 26  2  0  0  0  0
 16  2  1  6  0  0  0
 16 24  1  0  0  0  0
 16 17  1  0  0  0  0
 17 18  1  0  0  0  0
 18 20  2  0  0  0  0
 18 19  1  0  0  0  0
 20 21  1  0  0  0  0
 22 23  1  0  0  0  0
 22 20  1  0  0  0  0
 24 22  2  0  0  0  0
 25 24  1  0  0  0  0
 26  4  1  0  0  0  0
 27 26  1  0  0  0  0
 28 17  2  0  0  0  0
 28 29  1  0  0  0  0
 30  3  1  0  0  0  0
 30 37  1  0  0  0  0
 31 30  2  0  0  0  0
 32 31  1  0  0  0  0
 32 34  2  0  0  0  0
 33 32  1  0  0  0  0
 34 35  1  0  0  0  0
 35 37  2  0  0  0  0
 35 36  1  0  0  0  0
 37 38  1  0  0  0  0
 39 34  1  0  0  0  0
 39 40  1  0  0  0  0
 40 41  1  0  0  0  0
 41 42  1  0  0  0  0
 41 43  2  0  0  0  0
 43 44  1  0  0  0  0
 45 43  1  0  0  0  0
 45 46  1  0  0  0  0
 47 45  2  0  0  0  0
 48 47  1  0  0  0  0
 49 40  2  0  0  0  0
 49 47  1  0  0  0  0
 50  5  2  0  0  0  0
 51 52  1  0  0  0  0
 51 50  1  0  0  0  0
 53 51  2  0  0  0  0
 54 53  1  0  0  0  0
 55 53  1  0  0  0  0
 55 57  2  0  0  0  0
 56 55  1  0  0  0  0
 57 59  1  0  0  0  0
 58 57  1  0  0  0  0
 59 50  1  0  0  0  0
 59 39  2  0  0  0  0
M  CHG  1   1  -1
M  END
