1,2,5,8
 OpenBabel05122313063D

 57 58  0  0  0  0  0  0  0  0999 V2000
   -2.3182   -1.9398   -0.4753 N   0  0  0  0  0  2  0  0  0  0  0  0
    0.9527   -2.3404   -0.1270 N   0  0  0  0  0  2  0  0  0  0  0  0
   -1.6502    0.3039    0.9126 O   0  0  0  0  0  0  0  0  0  0  0  0
   -1.9590   -1.9032    3.7196 O   0  5  0  0  0  0  0  0  0  0  0  0
   -0.5598   -1.8411    1.9601 O   0  0  0  0  0  0  0  0  0  0  0  0
   -1.8210    2.9241    1.1420 O   0  0  0  0  0  0  0  0  0  0  0  0
    1.6922    0.5434    0.5513 O   0  0  0  0  0  0  0  0  0  0  0  0
   -0.0867   -0.2105   -1.3958 O   0  5  0  0  0  0  0  0  0  0  0  0
    0.0918    1.7962   -2.3869 O   0  0  0  0  0  0  0  0  0  0  0  0
    3.6787    2.3276    0.6532 O   0  0  0  0  0  0  0  0  0  0  0  0
   -2.3598   -0.2377    2.0634 C   0  0  0  0  0  0  0  0  0  0  0  0
   -3.3571   -0.5968    1.7393 H   0  0  0  0  0  0  0  0  0  0  0  0
   -2.4798    0.5705    2.8117 H   0  0  0  0  0  0  0  0  0  0  0  0
   -1.5832   -1.4184    2.6603 C   0  0  0  0  0  0  0  0  0  0  0  0
    1.0171    1.5846   -0.1922 C   0  0  0  0  0  0  0  0  0  0  0  0
    1.7170    2.3829   -0.4974 H   0  0  0  0  0  0  0  0  0  0  0  0
    0.2708    2.0115    0.5062 H   0  0  0  0  0  0  0  0  0  0  0  0
    0.2986    1.0423   -1.4399 C   0  0  0  0  0  0  0  0  0  0  0  0
   -2.9678   -1.1526   -1.2722 C   0  0  0  0  0  3  0  0  0  0  0  0
   -3.4352   -1.5388   -2.2105 H   0  0  0  0  0  0  0  0  0  0  0  0
   -2.2086   -3.3371   -0.8420 C   0  0  0  0  0  0  0  0  0  0  0  0
   -2.9056   -3.5975   -1.6762 H   0  0  0  0  0  0  0  0  0  0  0  0
   -2.5013   -3.9478    0.0412 H   0  0  0  0  0  0  0  0  0  0  0  0
   -0.7881   -3.7457   -1.2658 C   0  0  0  0  0  0  0  0  0  0  0  0
   -0.8436   -4.8061   -1.5909 H   0  0  0  0  0  0  0  0  0  0  0  0
   -0.4794   -3.1551   -2.1541 H   0  0  0  0  0  0  0  0  0  0  0  0
    0.3106   -3.6559   -0.1910 C   0  0  0  0  0  0  0  0  0  0  0  0
   -0.1108   -3.8521    0.8179 H   0  0  0  0  0  0  0  0  0  0  0  0
    1.0912   -4.4230   -0.3928 H   0  0  0  0  0  0  0  0  0  0  0  0
    2.2172   -2.2591   -0.4145 C   0  0  0  0  0  3  0  0  0  0  0  0
    2.6934   -3.2132   -0.7253 H   0  0  0  0  0  0  0  0  0  0  0  0
   -2.4413    0.9733   -0.0137 C   0  0  0  0  0  0  0  0  0  0  0  0
   -2.5115    2.3814    0.1018 C   0  0  0  0  0  0  0  0  0  0  0  0
   -3.2679    3.1129   -0.8328 C   0  0  0  0  0  0  0  0  0  0  0  0
   -3.3363    4.2058   -0.7606 H   0  0  0  0  0  0  0  0  0  0  0  0
   -3.9324    2.4376   -1.8704 C   0  0  0  0  0  0  0  0  0  0  0  0
   -4.5141    3.0174   -2.6020 H   0  0  0  0  0  0  0  0  0  0  0  0
   -3.8476    1.0504   -1.9886 C   0  0  0  0  0  0  0  0  0  0  0  0
   -4.3484    0.5294   -2.8184 H   0  0  0  0  0  0  0  0  0  0  0  0
   -3.1015    0.2860   -1.0600 C   0  0  0  0  0  0  0  0  0  0  0  0
   -1.8030    4.3362    1.2690 C   0  0  0  0  0  0  0  0  0  0  0  0
   -1.1752    4.5592    2.1510 H   0  0  0  0  0  0  0  0  0  0  0  0
   -2.8232    4.7468    1.4370 H   0  0  0  0  0  0  0  0  0  0  0  0
   -1.3602    4.8217    0.3715 H   0  0  0  0  0  0  0  0  0  0  0  0
    2.9153    0.1700    0.0897 C   0  0  0  0  0  0  0  0  0  0  0  0
    3.9923    1.1074    0.1425 C   0  0  0  0  0  0  0  0  0  0  0  0
    5.2755    0.7440   -0.2993 C   0  0  0  0  0  0  0  0  0  0  0  0
    6.0988    1.4694   -0.2642 H   0  0  0  0  0  0  0  0  0  0  0  0
    5.5152   -0.5600   -0.7656 C   0  0  0  0  0  0  0  0  0  0  0  0
    6.5231   -0.8406   -1.1041 H   0  0  0  0  0  0  0  0  0  0  0  0
    4.4836   -1.4920   -0.7836 C   0  0  0  0  0  0  0  0  0  0  0  0
    4.6747   -2.5185   -1.1307 H   0  0  0  0  0  0  0  0  0  0  0  0
    3.1656   -1.1530   -0.3633 C   0  0  0  0  0  0  0  0  0  0  0  0
    4.6970    3.3073    0.7412 C   0  0  0  0  0  0  0  0  0  0  0  0
    4.2261    4.2047    1.1826 H   0  0  0  0  0  0  0  0  0  0  0  0
    5.1085    3.5686   -0.2592 H   0  0  0  0  0  0  0  0  0  0  0  0
    5.5315    2.9758    1.3985 H   0  0  0  0  0  0  0  0  0  0  0  0
  3 11  1  0  0  0  0
  5 14  2  0  0  0  0
  6 41  1  0  0  0  0
  9 18  2  0  0  0  0
 10 54  1  0  0  0  0
 11 14  1  0  0  0  0
 11 13  1  0  0  0  0
 12 11  1  0  0  0  0
 14  4  1  0  0  0  0
 15 17  1  0  0  0  0
 15  7  1  0  0  0  0
 16 15  1  0  0  0  0
 18  8  1  0  0  0  0
 18 15  1  0  0  0  0
 19 40  1  0  0  0  0
 19  1  1  0  0  0  0
 20 19  1  0  0  0  0
 21  1  1  0  0  0  0
 21 23  1  0  0  0  0
 22 21  1  0  0  0  0
 24 21  1  0  0  0  0
 24 27  1  0  0  0  0
 25 24  1  0  0  0  0
 26 24  1  0  0  0  0
 27  2  1  0  0  0  0
 27 28  1  0  0  0  0
 29 27  1  0  0  0  0
 30 53  1  0  0  0  0
 30  2  1  0  0  0  0
 31 30  1  0  0  0  0
 32 33  1  0  0  0  0
 32  3  1  0  0  0  0
 33  6  1  0  0  0  0
 34 35  1  0  0  0  0
 34 33  2  0  0  0  0
 36 34  1  0  0  0  0
 37 36  1  0  0  0  0
 38 36  2  0  0  0  0
 38 40  1  0  0  0  0
 39 38  1  0  0  0  0
 40 32  2  0  0  0  0
 41 43  1  0  0  0  0
 41 42  1  0  0  0  0
 44 41  1  0  0  0  0
 45 46  1  0  0  0  0
 45  7  1  0  0  0  0
 46 10  1  0  0  0  0
 47 48  1  0  0  0  0
 47 46  2  0  0  0  0
 49 47  1  0  0  0  0
 50 49  1  0  0  0  0
 51 49  2  0  0  0  0
 51 53  1  0  0  0  0
 52 51  1  0  0  0  0
 53 45  2  0  0  0  0
 54 55  1  0  0  0  0
 54 57  1  0  0  0  0
 56 54  1  0  0  0  0
M  CHG  2   4  -1   8  -1
M  END
