41,42,45,46
 OpenBabel05122313063D

 51 52  0  0  1  0  0  0  0  0999 V2000
   -2.7442    1.0704   -0.1078 C   0  0  0  0  0  0  0  0  0  0  0  0
   -3.4622    1.9065    0.0183 H   0  0  0  0  0  0  0  0  0  0  0  0
    2.5650   -1.4264   -0.2915 C   0  0  2  0  0  3  0  0  0  0  0  0
    4.7111   -0.3185    0.3208 C   0  0  0  0  0  0  0  0  0  0  0  0
    5.2499    0.6170    0.5274 H   0  0  0  0  0  0  0  0  0  0  0  0
    2.7441    1.0705   -0.1073 C   0  0  0  0  0  0  0  0  0  0  0  0
    3.4621    1.9066    0.0191 H   0  0  0  0  0  0  0  0  0  0  0  0
   -3.3185   -0.2313   -0.0107 C   0  0  0  0  0  0  0  0  0  0  0  0
    3.3185   -0.2312   -0.0104 C   0  0  0  0  0  0  0  0  0  0  0  0
   -0.0002    3.4032    0.1546 C   0  0  0  0  0  0  0  0  0  0  0  0
   -4.7111   -0.3186    0.3206 C   0  0  0  0  0  0  0  0  0  0  0  0
   -5.2499    0.6169    0.5271 H   0  0  0  0  0  0  0  0  0  0  0  0
    1.2563    2.8481   -0.5402 C   0  0  0  0  0  0  0  0  0  0  0  0
    1.1681    3.0520   -1.6320 H   0  0  0  0  0  0  0  0  0  0  0  0
    2.1433    3.4155   -0.1797 H   0  0  0  0  0  0  0  0  0  0  0  0
    3.2766   -2.6723   -0.2441 C   0  0  0  0  0  0  0  0  0  0  0  0
    2.7043   -3.5835   -0.4686 H   0  0  0  0  0  0  0  0  0  0  0  0
   -0.0002    4.9277   -0.0550 C   0  0  0  0  0  0  0  0  0  0  0  0
   -0.8954    5.3900    0.4078 H   0  0  0  0  0  0  0  0  0  0  0  0
   -0.0000    5.1919   -1.1331 H   0  0  0  0  0  0  0  0  0  0  0  0
    0.8948    5.3901    0.4081 H   0  0  0  0  0  0  0  0  0  0  0  0
   -0.0005    3.0722    1.6534 C   0  0  0  0  0  0  0  0  0  0  0  0
   -0.0004    1.9776    1.8238 H   0  0  0  0  0  0  0  0  0  0  0  0
   -0.8972    3.4974    2.1489 H   0  0  0  0  0  0  0  0  0  0  0  0
    0.8958    3.4976    2.1493 H   0  0  0  0  0  0  0  0  0  0  0  0
   -1.2562    2.8480   -0.5409 C   0  0  0  0  0  0  0  0  0  0  0  0
   -2.1435    3.4155   -0.1811 H   0  0  0  0  0  0  0  0  0  0  0  0
   -1.1674    3.0516   -1.6327 H   0  0  0  0  0  0  0  0  0  0  0  0
    4.6188   -2.7288    0.0809 C   0  0  0  0  0  0  0  0  0  0  0  0
    5.1521   -3.6906    0.1228 H   0  0  0  0  0  0  0  0  0  0  0  0
   -4.6187   -2.7289    0.0811 C   0  0  0  0  0  0  0  0  0  0  0  0
   -5.1519   -3.6908    0.1232 H   0  0  0  0  0  0  0  0  0  0  0  0
    5.3590   -1.5466    0.3740 C   0  0  0  0  0  0  0  0  0  0  0  0
   -5.3588   -1.5467    0.3741 C   0  0  0  0  0  0  0  0  0  0  0  0
   -3.2765   -2.6724   -0.2440 C   0  0  0  0  0  0  0  0  0  0  0  0
   -2.7041   -3.5836   -0.4685 H   0  0  0  0  0  0  0  0  0  0  0  0
   -7.4519   -0.5979    0.9759 C   0  0  0  0  0  0  0  0  0  0  0  0
   -8.4743   -0.9546    1.2019 H   0  0  0  0  0  0  0  0  0  0  0  0
   -7.4986    0.1071    0.1133 H   0  0  0  0  0  0  0  0  0  0  0  0
   -7.0600   -0.0421    1.8596 H   0  0  0  0  0  0  0  0  0  0  0  0
   -1.3032   -1.4564   -0.5918 O   0  0  0  0  0  1  0  0  0  0  0  0
    1.3032   -1.4564   -0.5914 O   0  0  0  0  0  1  0  0  0  0  0  0
   -6.6777   -1.7392    0.6843 O   0  0  0  0  0  0  0  0  0  0  0  0
    6.6779   -1.7391    0.6840 O   0  0  0  0  0  0  0  0  0  0  0  0
   -1.4980    1.4232   -0.3486 N   0  0  0  0  0  2  0  0  0  0  0  0
    1.4980    1.4233   -0.3481 N   0  0  0  0  0  2  0  0  0  0  0  0
   -2.5649   -1.4265   -0.2917 C   0  0  1  0  0  3  0  0  0  0  0  0
    7.4520   -0.5977    0.9758 C   0  0  0  0  0  0  0  0  0  0  0  0
    8.4744   -0.9543    1.2017 H   0  0  0  0  0  0  0  0  0  0  0  0
    7.0601   -0.0421    1.8596 H   0  0  0  0  0  0  0  0  0  0  0  0
    7.4986    0.1074    0.1133 H   0  0  0  0  0  0  0  0  0  0  0  0
  1  8  2  0  0  0  0
  1  2  1  0  0  0  0
  3 42  1  6  0  0  0
  3 16  1  0  0  0  0
  3  9  1  0  0  0  0
  4 33  2  0  0  0  0
  4  5  1  0  0  0  0
  6  9  2  0  0  0  0
  6  7  1  0  0  0  0
  8 11  1  0  0  0  0
  9  4  1  0  0  0  0
 10 22  1  0  0  0  0
 11 34  2  0  0  0  0
 11 12  1  0  0  0  0
 13 46  1  0  0  0  0
 13 15  1  0  0  0  0
 13 10  1  0  0  0  0
 14 13  1  0  0  0  0
 16 29  2  0  0  0  0
 17 16  1  0  0  0  0
 18 10  1  0  0  0  0
 18 19  1  0  0  0  0
 18 21  1  0  0  0  0
 20 18  1  0  0  0  0
 22 23  1  0  0  0  0
 22 24  1  0  0  0  0
 22 25  1  0  0  0  0
 26 45  1  0  0  0  0
 26 27  1  0  0  0  0
 26 10  1  0  0  0  0
 28 26  1  0  0  0  0
 29 30  1  0  0  0  0
 29 33  1  0  0  0  0
 31 32  1  0  0  0  0
 31 34  1  0  0  0  0
 33 44  1  0  0  0  0
 34 43  1  0  0  0  0
 35 31  2  0  0  0  0
 36 35  1  0  0  0  0
 37 38  1  0  0  0  0
 37 40  1  0  0  0  0
 39 37  1  0  0  0  0
 43 37  1  0  0  0  0
 44 48  1  0  0  0  0
 45  1  1  0  0  0  0
 46  6  1  0  0  0  0
 47 41  1  6  0  0  0
 47 35  1  0  0  0  0
 47  8  1  0  0  0  0
 48 49  1  0  0  0  0
 48 50  1  0  0  0  0
 51 48  1  0  0  0  0
M  END
