3,4,5,6
 OpenBabel05122313063D

 38 40  0  0  1  0  0  0  0  0999 V2000
    7.2463   -1.1589    0.0002 Cl  0  0  0  0  0  0  0  0  0  0  0  0
   -7.2463   -1.1589    0.0002 Cl  0  0  0  0  0  0  0  0  0  0  0  0
    1.3668   -1.6712   -0.0000 O   0  0  0  0  0  1  0  0  0  0  0  0
   -1.3668   -1.6712   -0.0001 O   0  0  0  0  0  1  0  0  0  0  0  0
    1.3151    1.2883    0.0000 N   0  0  0  0  0  2  0  0  0  0  0  0
   -1.3151    1.2883    0.0001 N   0  0  0  0  0  2  0  0  0  0  0  0
    2.6506   -1.4644   -0.0001 C   0  0  2  0  0  3  0  0  0  0  0  0
    3.4941   -2.6230   -0.0002 C   0  0  0  0  0  0  0  0  0  0  0  0
    2.9894   -3.5995   -0.0004 H   0  0  0  0  0  0  0  0  0  0  0  0
    4.8744   -2.5302   -0.0001 C   0  0  0  0  0  0  0  0  0  0  0  0
    5.4977   -3.4361   -0.0003 H   0  0  0  0  0  0  0  0  0  0  0  0
    5.5024   -1.2547    0.0001 C   0  0  0  0  0  0  0  0  0  0  0  0
    4.7344   -0.1049    0.0002 C   0  0  0  0  0  0  0  0  0  0  0  0
    5.2292    0.8774    0.0004 H   0  0  0  0  0  0  0  0  0  0  0  0
    3.3026   -0.1628    0.0001 C   0  0  0  0  0  0  0  0  0  0  0  0
    2.6246    1.0913    0.0002 C   0  0  0  0  0  0  0  0  0  0  0  0
    3.2721    1.9851    0.0004 H   0  0  0  0  0  0  0  0  0  0  0  0
    0.7133    2.5697   -0.0000 C   0  0  0  0  0  0  0  0  0  0  0  0
    1.4081    3.7955   -0.0001 C   0  0  0  0  0  0  0  0  0  0  0  0
    2.5062    3.8142   -0.0002 H   0  0  0  0  0  0  0  0  0  0  0  0
    0.7037    5.0035   -0.0002 C   0  0  0  0  0  0  0  0  0  0  0  0
    1.2565    5.9541   -0.0003 H   0  0  0  0  0  0  0  0  0  0  0  0
   -0.7037    5.0035   -0.0002 C   0  0  0  0  0  0  0  0  0  0  0  0
   -1.2565    5.9541   -0.0003 H   0  0  0  0  0  0  0  0  0  0  0  0
   -1.4081    3.7955   -0.0001 C   0  0  0  0  0  0  0  0  0  0  0  0
   -2.5062    3.8142   -0.0001 H   0  0  0  0  0  0  0  0  0  0  0  0
   -0.7133    2.5697    0.0000 C   0  0  0  0  0  0  0  0  0  0  0  0
   -2.6246    1.0913    0.0003 C   0  0  0  0  0  0  0  0  0  0  0  0
   -3.2721    1.9851    0.0005 H   0  0  0  0  0  0  0  0  0  0  0  0
   -3.3026   -0.1628    0.0002 C   0  0  0  0  0  0  0  0  0  0  0  0
   -4.7344   -0.1049    0.0003 C   0  0  0  0  0  0  0  0  0  0  0  0
   -5.2292    0.8774    0.0005 H   0  0  0  0  0  0  0  0  0  0  0  0
   -5.5024   -1.2547    0.0001 C   0  0  0  0  0  0  0  0  0  0  0  0
   -4.8744   -2.5302   -0.0002 C   0  0  0  0  0  0  0  0  0  0  0  0
   -5.4977   -3.4361   -0.0004 H   0  0  0  0  0  0  0  0  0  0  0  0
   -3.4941   -2.6230   -0.0003 C   0  0  0  0  0  0  0  0  0  0  0  0
   -2.9894   -3.5995   -0.0006 H   0  0  0  0  0  0  0  0  0  0  0  0
   -2.6506   -1.4644   -0.0001 C   0  0  2  0  0  3  0  0  0  0  0  0
  5 16  1  0  0  0  0
  6 28  1  0  0  0  0
  7  3  1  1  0  0  0
  7 15  1  0  0  0  0
  8 10  2  0  0  0  0
  8  7  1  0  0  0  0
  9  8  1  0  0  0  0
 10 12  1  0  0  0  0
 11 10  1  0  0  0  0
 12  1  1  0  0  0  0
 12 13  2  0  0  0  0
 13 14  1  0  0  0  0
 15 16  2  0  0  0  0
 15 13  1  0  0  0  0
 16 17  1  0  0  0  0
 18  5  1  0  0  0  0
 18 27  1  0  0  0  0
 19 18  2  0  0  0  0
 20 19  1  0  0  0  0
 21 23  2  0  0  0  0
 21 19  1  0  0  0  0
 22 21  1  0  0  0  0
 23 25  1  0  0  0  0
 24 23  1  0  0  0  0
 25 27  2  0  0  0  0
 26 25  1  0  0  0  0
 27  6  1  0  0  0  0
 28 29  1  0  0  0  0
 30 28  2  0  0  0  0
 30 31  1  0  0  0  0
 31 32  1  0  0  0  0
 33  2  1  0  0  0  0
 33 31  2  0  0  0  0
 34 33  1  0  0  0  0
 35 34  1  0  0  0  0
 36 34  2  0  0  0  0
 36 38  1  0  0  0  0
 37 36  1  0  0  0  0
 38  4  1  1  0  0  0
 38 30  1  0  0  0  0
M  END
