1,2,3,5
 OpenBabel05122313063D

 46 47  0  0  1  0  0  0  0  0999 V2000
    1.3107   -1.3779   -1.7729 O   0  5  0  0  0  0  0  0  0  0  0  0
   -0.1731    1.0672    1.0988 O   0  5  0  0  0  0  0  0  0  0  0  0
    1.9139   -1.0445    1.0257 N   0  0  0  0  0  0  0  0  0  0  0  0
    1.7163   -0.6210    1.9442 H   0  0  0  0  0  0  0  0  0  0  0  0
    1.9057    1.3741   -0.8535 N   0  0  0  0  0  0  0  0  0  0  0  0
    2.4273    1.0157   -1.6677 H   0  0  0  0  0  0  0  0  0  0  0  0
    3.0843   -5.6508    2.1471 N   0  0  0  0  0  0  0  0  0  0  0  0
    1.5405    6.1422   -1.8397 N   0  0  0  0  0  0  0  0  0  0  0  0
    3.0868   -0.3528    0.4515 C   0  0  2  0  0  0  0  0  0  0  0  0
    3.9492   -0.3993    1.1574 H   0  0  0  0  0  0  0  0  0  0  0  0
    2.7471    1.1723    0.3438 C   0  0  2  0  0  0  0  0  0  0  0  0
    3.7373    1.6691    0.2122 H   0  0  0  0  0  0  0  0  0  0  0  0
    0.7038    1.6374    1.8992 C   0  0  0  0  0  0  0  0  0  0  0  0
    0.2638    2.2088    3.1335 C   0  0  0  0  0  0  0  0  0  0  0  0
   -0.8122    2.1346    3.3549 H   0  0  0  0  0  0  0  0  0  0  0  0
    1.1391    2.8263    4.0275 C   0  0  0  0  0  0  0  0  0  0  0  0
    0.7471    3.2473    4.9670 H   0  0  0  0  0  0  0  0  0  0  0  0
    2.5132    2.9168    3.7354 C   0  0  0  0  0  0  0  0  0  0  0  0
    3.2089    3.4076    4.4311 H   0  0  0  0  0  0  0  0  0  0  0  0
    2.9742    2.3797    2.5280 C   0  0  0  0  0  0  0  0  0  0  0  0
    4.0461    2.4554    2.2749 H   0  0  0  0  0  0  0  0  0  0  0  0
    2.1169    1.7440    1.6051 C   0  0  0  0  0  0  0  0  0  0  0  0
    3.5425   -0.9664   -0.8636 C   0  0  0  0  0  0  0  0  0  0  0  0
    2.6199   -1.4254   -1.8813 C   0  0  0  0  0  0  0  0  0  0  0  0
    3.2033   -1.9734   -3.0676 C   0  0  0  0  0  0  0  0  0  0  0  0
    2.5022   -2.3336   -3.8359 H   0  0  0  0  0  0  0  0  0  0  0  0
    4.5825   -2.0509   -3.2575 C   0  0  0  0  0  0  0  0  0  0  0  0
    4.9772   -2.4792   -4.1927 H   0  0  0  0  0  0  0  0  0  0  0  0
    5.4701   -1.5906   -2.2656 C   0  0  0  0  0  0  0  0  0  0  0  0
    6.5588   -1.6539   -2.4056 H   0  0  0  0  0  0  0  0  0  0  0  0
    4.9331   -1.0637   -1.0859 C   0  0  0  0  0  0  0  0  0  0  0  0
    5.6127   -0.7131   -0.2894 H   0  0  0  0  0  0  0  0  0  0  0  0
    1.9809   -2.4981    1.1214 C   0  0  0  0  0  0  0  0  0  0  0  0
    1.9013   -2.9222    0.1011 H   0  0  0  0  0  0  0  0  0  0  0  0
    1.0902   -2.8387    1.6893 H   0  0  0  0  0  0  0  0  0  0  0  0
    3.2528   -3.0470    1.8135 C   0  0  0  0  0  0  0  0  0  0  0  0
    4.1461   -2.8104    1.1973 H   0  0  0  0  0  0  0  0  0  0  0  0
    3.3963   -2.5629    2.8041 H   0  0  0  0  0  0  0  0  0  0  0  0
    3.1851   -4.4922    2.0058 C   0  0  0  0  0  0  0  0  0  0  0  0
    1.4281    2.7288   -1.0983 C   0  0  0  0  0  0  0  0  0  0  0  0
    0.7041    2.9985   -0.3044 H   0  0  0  0  0  0  0  0  0  0  0  0
    0.8786    2.7256   -2.0620 H   0  0  0  0  0  0  0  0  0  0  0  0
    2.5389    3.8073   -1.1534 C   0  0  0  0  0  0  0  0  0  0  0  0
    3.0278    3.8954   -0.1600 H   0  0  0  0  0  0  0  0  0  0  0  0
    3.3257    3.5172   -1.8835 H   0  0  0  0  0  0  0  0  0  0  0  0
    2.0092    5.1143   -1.5295 C   0  0  0  0  0  0  0  0  0  0  0  0
  2 13  1  0  0  0  0
  3 33  1  0  0  0  0
  3  4  1  0  0  0  0
  5 11  1  0  0  0  0
  6  5  1  0  0  0  0
  8 46  3  0  0  0  0
  9  3  1  0  0  0  0
  9 10  1  1  0  0  0
 11 12  1  6  0  0  0
 11  9  1  0  0  0  0
 11 22  1  0  0  0  0
 13 14  1  0  0  0  0
 14 15  1  0  0  0  0
 14 16  2  0  0  0  0
 16 17  1  0  0  0  0
 18 16  1  0  0  0  0
 18 19  1  0  0  0  0
 20 18  2  0  0  0  0
 21 20  1  0  0  0  0
 22 13  2  0  0  0  0
 22 20  1  0  0  0  0
 23  9  1  0  0  0  0
 24  1  1  0  0  0  0
 24 23  2  0  0  0  0
 25 24  1  0  0  0  0
 26 25  1  0  0  0  0
 27 25  2  0  0  0  0
 27 29  1  0  0  0  0
 28 27  1  0  0  0  0
 29 31  2  0  0  0  0
 30 29  1  0  0  0  0
 31 23  1  0  0  0  0
 31 32  1  0  0  0  0
 33 35  1  0  0  0  0
 33 36  1  0  0  0  0
 34 33  1  0  0  0  0
 36 39  1  0  0  0  0
 36 38  1  0  0  0  0
 37 36  1  0  0  0  0
 39  7  3  0  0  0  0
 40  5  1  0  0  0  0
 40 41  1  0  0  0  0
 42 40  1  0  0  0  0
 43 40  1  0  0  0  0
 43 44  1  0  0  0  0
 45 43  1  0  0  0  0
 46 43  1  0  0  0  0
M  CHG  2   1  -1   2  -1
M  END
