1,2,3,4
 OpenBabel05122313063D

 62 65  0  0  1  0  0  0  0  0999 V2000
    1.9653   -2.0213    0.1289 O   0  5  0  0  0  0  0  0  0  0  0  0
   -1.0349    0.0171   -0.6493 N   0  0  0  0  0  2  0  0  0  0  0  0
   -0.4732   -2.5249    0.1745 O   0  5  0  0  0  0  0  0  0  0  0  0
    1.4451    0.5614   -0.4985 N   0  0  0  0  0  2  0  0  0  0  0  0
    2.7565    0.6836   -0.5334 C   0  0  0  0  0  0  0  0  0  0  0  0
    3.1651    1.7007   -0.6985 H   0  0  0  0  0  0  0  0  0  0  0  0
   -1.7616   -2.6905    0.1934 C   0  0  0  0  0  0  0  0  0  0  0  0
    7.3782   -0.9884   -0.3813 O   0  0  0  0  0  0  0  0  0  0  0  0
    3.6877   -0.3774   -0.3563 C   0  0  0  0  0  0  0  0  0  0  0  0
    3.2149   -1.6976   -0.0158 C   0  0  0  0  0  0  0  0  0  0  0  0
   -0.6979    1.3324   -1.2333 C   0  0  2  0  0  0  0  0  0  0  0  0
    5.0886   -0.1139   -0.4834 C   0  0  0  0  0  3  0  0  0  0  0  0
    5.4007    0.9082   -0.7399 H   0  0  0  0  0  0  0  0  0  0  0  0
    0.4220    2.3721    0.8469 C   0  0  0  0  0  0  0  0  0  0  0  0
    0.6192    1.7724   -0.5371 C   0  0  1  0  0  0  0  0  0  0  0  0
   -2.7204   -1.6877   -0.1969 C   0  0  0  0  0  0  0  0  0  0  0  0
   -1.7884    2.3836   -1.2202 C   0  0  0  0  0  0  0  0  0  0  0  0
   -5.9024   -3.5868    0.3197 O   0  0  0  0  0  0  0  0  0  0  0  0
   -4.1232   -1.9690   -0.1661 C   0  0  0  0  0  3  0  0  0  0  0  0
   -4.8152   -1.1730   -0.4752 H   0  0  0  0  0  0  0  0  0  0  0  0
    6.0204   -1.1266   -0.2844 C   0  0  0  0  0  0  0  0  0  0  0  0
   -2.2824   -0.4035   -0.6307 C   0  0  0  0  0  0  0  0  0  0  0  0
   -3.0615    0.3008   -0.9774 H   0  0  0  0  0  0  0  0  0  0  0  0
    4.2118   -2.7093    0.1855 C   0  0  0  0  0  0  0  0  0  0  0  0
    3.8574   -3.7161    0.4482 H   0  0  0  0  0  0  0  0  0  0  0  0
    0.2726    1.5583    1.9870 C   0  0  0  0  0  0  0  0  0  0  0  0
    0.3687    0.4656    1.8846 H   0  0  0  0  0  0  0  0  0  0  0  0
   -2.5098    2.6993   -0.0481 C   0  0  0  0  0  0  0  0  0  0  0  0
   -2.3129    2.1450    0.8808 H   0  0  0  0  0  0  0  0  0  0  0  0
    5.5606   -2.4329    0.0538 C   0  0  0  0  0  0  0  0  0  0  0  0
    6.3174   -3.2167    0.2085 H   0  0  0  0  0  0  0  0  0  0  0  0
   -2.0613    3.1068   -2.3969 C   0  0  0  0  0  0  0  0  0  0  0  0
   -1.5103    2.8613   -3.3191 H   0  0  0  0  0  0  0  0  0  0  0  0
   -4.5879   -3.2125    0.2486 C   0  0  0  0  0  0  0  0  0  0  0  0
    0.3237    3.7692    0.9879 C   0  0  0  0  0  0  0  0  0  0  0  0
    0.4355    4.4123    0.1005 H   0  0  0  0  0  0  0  0  0  0  0  0
   -2.2845   -3.9577    0.6149 C   0  0  0  0  0  0  0  0  0  0  0  0
   -1.5570   -4.7258    0.9140 H   0  0  0  0  0  0  0  0  0  0  0  0
   -3.6451   -4.2066    0.6409 C   0  0  0  0  0  0  0  0  0  0  0  0
   -4.0365   -5.1830    0.9644 H   0  0  0  0  0  0  0  0  0  0  0  0
   -6.8715   -2.6368   -0.0624 C   0  0  0  0  0  0  0  0  0  0  0  0
   -7.8587   -3.1203    0.0612 H   0  0  0  0  0  0  0  0  0  0  0  0
   -6.7534   -2.3242   -1.1261 H   0  0  0  0  0  0  0  0  0  0  0  0
   -6.8349   -1.7229    0.5752 H   0  0  0  0  0  0  0  0  0  0  0  0
   -3.7323    4.4359   -1.2380 C   0  0  0  0  0  0  0  0  0  0  0  0
   -4.4900    5.2342   -1.2435 H   0  0  0  0  0  0  0  0  0  0  0  0
    7.8819    0.2875   -0.7069 C   0  0  0  0  0  0  0  0  0  0  0  0
    8.9840    0.1975   -0.7371 H   0  0  0  0  0  0  0  0  0  0  0  0
    7.6031    1.0532    0.0540 H   0  0  0  0  0  0  0  0  0  0  0  0
    7.5212    0.6373   -1.7022 H   0  0  0  0  0  0  0  0  0  0  0  0
   -0.0979    3.5279    3.3690 C   0  0  0  0  0  0  0  0  0  0  0  0
   -0.3007    3.9774    4.3530 H   0  0  0  0  0  0  0  0  0  0  0  0
   -3.4756    3.7144   -0.0604 C   0  0  0  0  0  0  0  0  0  0  0  0
   -4.0286    3.9482    0.8619 H   0  0  0  0  0  0  0  0  0  0  0  0
    0.0652    4.3458    2.2400 C   0  0  0  0  0  0  0  0  0  0  0  0
   -0.0103    5.4398    2.3334 H   0  0  0  0  0  0  0  0  0  0  0  0
   -3.0221    4.1300   -2.4084 C   0  0  0  0  0  0  0  0  0  0  0  0
   -3.2202    4.6849   -3.3379 H   0  0  0  0  0  0  0  0  0  0  0  0
    0.0113    2.1337    3.2388 C   0  0  0  0  0  0  0  0  0  0  0  0
   -0.1036    1.4857    4.1210 H   0  0  0  0  0  0  0  0  0  0  0  0
    1.1010    2.5407   -1.1801 H   0  0  0  0  0  0  0  0  0  0  0  0
   -0.4192    1.1459   -2.2952 H   0  0  0  0  0  0  0  0  0  0  0  0
  2 22  1  0  0  0  0
  3  7  1  0  0  0  0
  5  4  1  0  0  0  0
  5  9  2  0  0  0  0
  6  5  1  0  0  0  0
  7 37  2  0  0  0  0
  8 21  1  0  0  0  0
  9 10  1  0  0  0  0
 10  1  1  0  0  0  0
 10 24  2  0  0  0  0
 11 62  1  6  0  0  0
 11 17  1  0  0  0  0
 11  2  1  0  0  0  0
 11 15  1  0  0  0  0
 12  9  1  0  0  0  0
 12 21  1  0  0  0  0
 13 12  1  0  0  0  0
 14 35  2  0  0  0  0
 14 26  1  0  0  0  0
 15 61  1  6  0  0  0
 15  4  1  0  0  0  0
 15 14  1  0  0  0  0
 16 19  1  0  0  0  0
 16  7  1  0  0  0  0
 17 28  1  0  0  0  0
 19 34  1  0  0  0  0
 20 19  1  0  0  0  0
 21 30  2  0  0  0  0
 22 16  2  0  0  0  0
 23 22  1  0  0  0  0
 24 25  1  0  0  0  0
 26 59  2  0  0  0  0
 27 26  1  0  0  0  0
 28 29  1  0  0  0  0
 30 24  1  0  0  0  0
 30 31  1  0  0  0  0
 32 17  2  0  0  0  0
 33 32  1  0  0  0  0
 34 18  1  0  0  0  0
 34 39  2  0  0  0  0
 35 55  1  0  0  0  0
 36 35  1  0  0  0  0
 37 39  1  0  0  0  0
 37 38  1  0  0  0  0
 39 40  1  0  0  0  0
 41 42  1  0  0  0  0
 41 18  1  0  0  0  0
 41 44  1  0  0  0  0
 43 41  1  0  0  0  0
 45 53  1  0  0  0  0
 46 45  1  0  0  0  0
 47  8  1  0  0  0  0
 47 49  1  0  0  0  0
 48 47  1  0  0  0  0
 50 47  1  0  0  0  0
 51 52  1  0  0  0  0
 53 28  2  0  0  0  0
 53 54  1  0  0  0  0
 55 56  1  0  0  0  0
 55 51  2  0  0  0  0
 57 32  1  0  0  0  0
 57 45  2  0  0  0  0
 58 57  1  0  0  0  0
 59 51  1  0  0  0  0
 59 60  1  0  0  0  0
M  CHG  2   1  -1   3  -1
M  END
