1,3,10,11
 OpenBabel05122313063D

 60 65  0  0  1  0  0  0  0  0999 V2000
    3.1667    1.3134   -0.3229 O   0  5  0  0  0  0  0  0  0  0  0  0
   -1.7879   -0.0536    0.7414 C   0  0  0  0  0  0  0  0  0  0  0  0
    3.1662   -1.3140    0.3254 O   0  0  0  0  0  1  0  0  0  0  0  0
    1.7727    3.3102   -0.4747 C   0  0  0  0  0  0  0  0  0  0  0  0
   -3.8631   -1.0214   -3.7199 C   0  0  0  0  0  0  0  0  0  0  0  0
   -2.8375   -0.3951   -2.9534 C   0  0  0  0  0  0  0  0  0  0  0  0
   -4.8278   -1.8088   -3.1109 C   0  0  0  0  0  0  0  0  0  0  0  0
   -1.7878    0.0539   -0.7414 C   0  0  0  0  0  0  0  0  0  0  0  0
   -2.8133   -0.5809   -1.5217 C   0  0  0  0  0  0  0  0  0  0  0  0
    0.3092   -1.3386    0.6655 N   0  0  0  0  0  2  0  0  0  0  0  0
    0.3097    1.3383   -0.6655 N   0  0  0  0  0  2  0  0  0  0  0  0
   -3.8191    1.4035    0.9279 C   0  0  0  0  0  0  0  0  0  0  0  0
   -1.8289   -0.4045    3.5619 C   0  0  0  0  0  0  0  0  0  0  0  0
    3.0272   -2.6038    0.3000 C   0  0  1  0  0  3  0  0  0  0  0  0
   -0.8250   -0.9749    2.8020 C   0  0  0  0  0  0  0  0  0  0  0  0
    4.1474   -4.7880    0.1117 C   0  0  0  0  0  0  0  0  0  0  0  0
   -2.8375    0.3956    2.9533 C   0  0  0  0  0  0  0  0  0  0  0  0
    4.2065   -3.4024    0.1324 C   0  0  0  0  0  0  0  0  0  0  0  0
   -2.8132    0.5815    1.5216 C   0  0  0  0  0  0  0  0  0  0  0  0
   -3.8630    1.0222    3.7198 C   0  0  0  0  0  0  0  0  0  0  0  0
   -4.7989    2.0043    1.7038 C   0  0  0  0  0  0  0  0  0  0  0  0
    1.7717   -3.3107    0.4741 C   0  0  0  0  0  0  0  0  0  0  0  0
   -3.8195   -1.4025   -0.9279 C   0  0  0  0  0  0  0  0  0  0  0  0
    2.9167   -5.4766    0.2783 C   0  0  0  0  0  0  0  0  0  0  0  0
    0.5575   -2.6278    0.7837 C   0  0  0  0  0  0  0  0  0  0  0  0
    3.0280    2.6033   -0.2992 C   0  0  0  0  0  0  0  0  0  0  0  0
    4.2074    3.4017   -0.1320 C   0  0  0  0  0  0  0  0  0  0  0  0
    0.5584    2.6274   -0.7843 C   0  0  0  0  0  0  0  0  0  0  0  0
   -0.7924   -0.7935    1.3873 C   0  0  0  0  0  0  0  0  0  0  0  0
   -4.7995   -2.0030   -1.7039 C   0  0  0  0  0  0  0  0  0  0  0  0
   -0.8244    0.9747   -2.8020 C   0  0  0  0  0  0  0  0  0  0  0  0
   -1.8285    0.4046   -3.5620 C   0  0  0  0  0  0  0  0  0  0  0  0
    4.1486    4.7874   -0.1129 C   0  0  0  0  0  0  0  0  0  0  0  0
   -4.8274    1.8100    3.1108 C   0  0  0  0  0  0  0  0  0  0  0  0
   -0.7920    0.7934   -1.3873 C   0  0  0  0  0  0  0  0  0  0  0  0
    1.7609    4.7380   -0.4714 C   0  0  0  0  0  3  0  0  0  0  0  0
    2.9181    5.4761   -0.2808 C   0  0  0  0  0  0  0  0  0  0  0  0
    1.7596   -4.7385    0.4693 C   0  0  0  0  0  0  0  0  0  0  0  0
   -3.8704   -0.8701   -4.8106 H   0  0  0  0  0  0  0  0  0  0  0  0
   -5.6135   -2.2877   -3.7144 H   0  0  0  0  0  0  0  0  0  0  0  0
   -3.8036    1.5606   -0.1598 H   0  0  0  0  0  0  0  0  0  0  0  0
   -1.8457   -0.5459    4.6535 H   0  0  0  0  0  0  0  0  0  0  0  0
   -0.0179   -1.5546    3.2734 H   0  0  0  0  0  0  0  0  0  0  0  0
    5.0757   -5.3629   -0.0339 H   0  0  0  0  0  0  0  0  0  0  0  0
    5.1563   -2.8626    0.0099 H   0  0  0  0  0  0  0  0  0  0  0  0
   -3.8704    0.8708    4.8105 H   0  0  0  0  0  0  0  0  0  0  0  0
   -5.5605    2.6387    1.2256 H   0  0  0  0  0  0  0  0  0  0  0  0
   -3.8041   -1.5595    0.1597 H   0  0  0  0  0  0  0  0  0  0  0  0
    2.8861   -6.5753    0.2656 H   0  0  0  0  0  0  0  0  0  0  0  0
   -0.2631   -3.2459    1.1999 H   0  0  0  0  0  0  0  0  0  0  0  0
    5.1571    2.8619   -0.0085 H   0  0  0  0  0  0  0  0  0  0  0  0
   -0.2619    3.2455   -1.2008 H   0  0  0  0  0  0  0  0  0  0  0  0
   -5.5613   -2.6371   -1.2257 H   0  0  0  0  0  0  0  0  0  0  0  0
   -0.0171    1.5541   -3.2735 H   0  0  0  0  0  0  0  0  0  0  0  0
   -1.8451    0.5459   -4.6536 H   0  0  0  0  0  0  0  0  0  0  0  0
    5.0770    5.3623    0.0325 H   0  0  0  0  0  0  0  0  0  0  0  0
   -5.6129    2.2892    3.7143 H   0  0  0  0  0  0  0  0  0  0  0  0
    0.7964    5.2489   -0.6232 H   0  0  0  0  0  0  0  0  0  0  0  0
    2.8878    6.5748   -0.2693 H   0  0  0  0  0  0  0  0  0  0  0  0
    0.7949   -5.2493    0.6201 H   0  0  0  0  0  0  0  0  0  0  0  0
  1 26  1  0  0  0  0
  2 29  2  0  0  0  0
  2 19  1  0  0  0  0
  4 36  1  0  0  0  0
  4 26  1  0  0  0  0
  5  7  2  0  0  0  0
  5  6  1  0  0  0  0
  6  9  1  0  0  0  0
  7 30  1  0  0  0  0
  8  2  1  0  0  0  0
  9 23  1  0  0  0  0
  9  8  2  0  0  0  0
 10 25  1  0  0  0  0
 10 29  1  0  0  0  0
 12 19  2  0  0  0  0
 12 21  1  0  0  0  0
 13 42  1  0  0  0  0
 14  3  1  1  0  0  0
 14 22  1  0  0  0  0
 15 43  1  0  0  0  0
 15 13  2  0  0  0  0
 16 18  2  0  0  0  0
 16 24  1  0  0  0  0
 17 13  1  0  0  0  0
 17 20  2  0  0  0  0
 18 14  1  0  0  0  0
 19 17  1  0  0  0  0
 20 46  1  0  0  0  0
 21 34  2  0  0  0  0
 22 25  2  0  0  0  0
 23 48  1  0  0  0  0
 24 38  2  0  0  0  0
 25 50  1  0  0  0  0
 26 27  2  0  0  0  0
 27 33  1  0  0  0  0
 27 51  1  0  0  0  0
 28 11  1  0  0  0  0
 28  4  2  0  0  0  0
 29 15  1  0  0  0  0
 30 53  1  0  0  0  0
 30 23  2  0  0  0  0
 31 35  2  0  0  0  0
 32  6  2  0  0  0  0
 32 31  1  0  0  0  0
 33 56  1  0  0  0  0
 34 57  1  0  0  0  0
 34 20  1  0  0  0  0
 35  8  1  0  0  0  0
 35 11  1  0  0  0  0
 36 37  1  0  0  0  0
 37 59  1  0  0  0  0
 37 33  2  0  0  0  0
 38 22  1  0  0  0  0
 38 60  1  0  0  0  0
 39  5  1  0  0  0  0
 40  7  1  0  0  0  0
 41 12  1  0  0  0  0
 44 16  1  0  0  0  0
 45 18  1  0  0  0  0
 47 21  1  0  0  0  0
 49 24  1  0  0  0  0
 52 28  1  0  0  0  0
 54 31  1  0  0  0  0
 55 32  1  0  0  0  0
 58 36  1  0  0  0  0
M  CHG  1   1  -1
M  END
