3,4,5,6
 OpenBabel05122313063D

 56 58  0  0  1  0  0  0  0  0999 V2000
    7.1551    0.0079   -0.1165 Br  0  0  0  0  0  0  0  0  0  0  0  0
   -7.3629    0.1645   -0.3454 Br  0  0  0  0  0  0  0  0  0  0  0  0
    1.1401    0.1247   -0.7364 O   0  0  0  0  0  1  0  0  0  0  0  0
   -1.3021    0.2731   -0.4223 O   0  0  0  0  0  1  0  0  0  0  0  0
    1.1136   -2.5425   -0.2706 N   0  0  0  0  0  2  0  0  0  0  0  0
   -1.3425   -2.1583    0.8252 N   0  0  0  0  0  2  0  0  0  0  0  0
    1.1765    2.6174   -0.0242 N   0  3  0  0  0  0  0  0  0  0  0  0
    2.4445    0.0505   -0.5774 C   0  0  2  0  0  3  0  0  0  0  0  0
    3.1961    1.2673   -0.5977 C   0  0  0  0  0  0  0  0  0  0  0  0
    4.5855    1.2380   -0.4432 C   0  0  0  0  0  0  0  0  0  0  0  0
    5.1586    2.1775   -0.4444 H   0  0  0  0  0  0  0  0  0  0  0  0
    5.2688    0.0109   -0.2972 C   0  0  0  0  0  0  0  0  0  0  0  0
    4.5564   -1.1882   -0.2817 C   0  0  0  0  0  0  0  0  0  0  0  0
    5.0890   -2.1435   -0.1659 H   0  0  0  0  0  0  0  0  0  0  0  0
    3.1433   -1.1846   -0.3945 C   0  0  0  0  0  0  0  0  0  0  0  0
    2.4121   -2.4252   -0.3911 C   0  0  0  0  0  0  0  0  0  0  0  0
    3.0002   -3.3547   -0.5243 H   0  0  0  0  0  0  0  0  0  0  0  0
    0.5110   -3.8722   -0.4219 C   0  0  0  0  0  0  0  0  0  0  0  0
    1.2759   -4.6019   -0.7593 H   0  0  0  0  0  0  0  0  0  0  0  0
   -0.2412   -3.7946   -1.2333 H   0  0  0  0  0  0  0  0  0  0  0  0
   -0.1627   -4.3552    0.8694 C   0  0  0  0  0  0  0  0  0  0  0  0
    0.5688   -4.8833    1.5138 H   0  0  0  0  0  0  0  0  0  0  0  0
   -0.9452   -5.0918    0.5980 H   0  0  0  0  0  0  0  0  0  0  0  0
   -0.7680   -3.2027    1.6793 C   0  0  0  0  0  0  0  0  0  0  0  0
   -1.5388   -3.5871    2.3791 H   0  0  0  0  0  0  0  0  0  0  0  0
    0.0203   -2.7280    2.2997 H   0  0  0  0  0  0  0  0  0  0  0  0
   -2.6315   -1.9211    0.9014 C   0  0  0  0  0  0  0  0  0  0  0  0
   -3.2279   -2.5853    1.5576 H   0  0  0  0  0  0  0  0  0  0  0  0
   -3.3351   -0.8732    0.2292 C   0  0  0  0  0  0  0  0  0  0  0  0
   -4.7576   -0.8611    0.2587 C   0  0  0  0  0  0  0  0  0  0  0  0
   -5.2933   -1.6692    0.7784 H   0  0  0  0  0  0  0  0  0  0  0  0
   -5.4669    0.1527   -0.3743 C   0  0  0  0  0  0  0  0  0  0  0  0
   -4.7694    1.1811   -1.0539 C   0  0  0  0  0  0  0  0  0  0  0  0
   -5.3360    1.9676   -1.5734 H   0  0  0  0  0  0  0  0  0  0  0  0
   -3.3781    1.1961   -1.0746 C   0  0  0  0  0  0  0  0  0  0  0  0
   -2.8402    1.9816   -1.6242 H   0  0  0  0  0  0  0  0  0  0  0  0
   -2.6130    0.1845   -0.4252 C   0  0  1  0  0  3  0  0  0  0  0  0
    2.4546    2.5591   -0.8245 C   0  0  0  0  0  0  0  0  0  0  0  0
    2.1425    2.6563   -1.8861 H   0  0  0  0  0  0  0  0  0  0  0  0
    3.0723    3.4407   -0.5641 H   0  0  0  0  0  0  0  0  0  0  0  0
    1.4098    2.5387    1.4593 C   0  0  0  0  0  0  0  0  0  0  0  0
    2.0626    1.6638    1.6401 H   0  0  0  0  0  0  0  0  0  0  0  0
    1.9733    3.4520    1.7447 H   0  0  0  0  0  0  0  0  0  0  0  0
    0.0817    2.4372    2.2003 C   0  0  0  0  0  0  0  0  0  0  0  0
    0.2921    2.3703    3.2864 H   0  0  0  0  0  0  0  0  0  0  0  0
   -0.4161    1.4876    1.9049 H   0  0  0  0  0  0  0  0  0  0  0  0
   -0.8215    3.6319    1.8756 C   0  0  0  0  0  0  0  0  0  0  0  0
   -1.8039    3.5229    2.3758 H   0  0  0  0  0  0  0  0  0  0  0  0
   -0.3644    4.5639    2.2752 H   0  0  0  0  0  0  0  0  0  0  0  0
   -1.0145    3.7487    0.3600 C   0  0  0  0  0  0  0  0  0  0  0  0
   -1.5881    4.6591    0.0943 H   0  0  0  0  0  0  0  0  0  0  0  0
   -1.5997    2.8807   -0.0050 H   0  0  0  0  0  0  0  0  0  0  0  0
    0.3153    3.7916   -0.3875 C   0  0  0  0  0  0  0  0  0  0  0  0
    0.1718    3.7613   -1.4853 H   0  0  0  0  0  0  0  0  0  0  0  0
    0.8985    4.7041   -0.1412 H   0  0  0  0  0  0  0  0  0  0  0  0
    0.6984    1.7020   -0.3075 H   0  0  0  0  0  0  0  0  0  0  0  0
  6 27  1  0  0  0  0
  6 24  1  0  0  0  0
  7 41  1  0  0  0  0
  8  3  1  6  0  0  0
  8 15  1  0  0  0  0
  9  8  1  0  0  0  0
  9 10  2  0  0  0  0
 10 12  1  0  0  0  0
 11 10  1  0  0  0  0
 12 13  2  0  0  0  0
 12  1  1  0  0  0  0
 13 14  1  0  0  0  0
 15 16  2  0  0  0  0
 15 13  1  0  0  0  0
 16  5  1  0  0  0  0
 17 16  1  0  0  0  0
 18  5  1  0  0  0  0
 18 21  1  0  0  0  0
 19 18  1  0  0  0  0
 20 18  1  0  0  0  0
 21 22  1  0  0  0  0
 21 24  1  0  0  0  0
 23 21  1  0  0  0  0
 24 26  1  0  0  0  0
 24 25  1  0  0  0  0
 27 28  1  0  0  0  0
 29 30  1  0  0  0  0
 29 27  2  0  0  0  0
 30 31  1  0  0  0  0
 32  2  1  0  0  0  0
 32 30  2  0  0  0  0
 33 32  1  0  0  0  0
 34 33  1  0  0  0  0
 35 33  2  0  0  0  0
 35 37  1  0  0  0  0
 36 35  1  0  0  0  0
 37  4  1  1  0  0  0
 37 29  1  0  0  0  0
 38  9  1  0  0  0  0
 38 40  1  0  0  0  0
 38  7  1  0  0  0  0
 39 38  1  0  0  0  0
 41 42  1  0  0  0  0
 41 43  1  0  0  0  0
 41 44  1  0  0  0  0
 44 45  1  0  0  0  0
 46 44  1  0  0  0  0
 47 44  1  0  0  0  0
 47 49  1  0  0  0  0
 47 48  1  0  0  0  0
 50 47  1  0  0  0  0
 51 50  1  0  0  0  0
 52 50  1  0  0  0  0
 53 55  1  0  0  0  0
 53  7  1  0  0  0  0
 53 50  1  0  0  0  0
 54 53  1  0  0  0  0
 56  7  1  0  0  0  0
M  CHG  1   7   1
M  END
