1,2,5,6
 OpenBabel05122313063D

 36 36  0  0  0  0  0  0  0  0999 V2000
   -1.1548    0.2801   -1.0418 O   0  5  0  0  0  0  0  0  0  0  0  0
    1.4942   -2.0167    0.6308 O   0  0  0  0  0  1  0  0  0  0  0  0
    4.2425    2.4016   -0.6937 O   0  0  0  0  0  0  0  0  0  0  0  0
    4.3588    1.9796   -1.5654 H   0  0  0  0  0  0  0  0  0  0  0  0
   -0.4279   -0.1267    1.4967 N   0  0  0  0  0  2  0  0  0  0  0  0
    1.9158    0.6006    0.2382 N   0  0  0  0  0  0  0  0  0  0  0  0
   -2.3720    0.4950   -0.5776 C   0  0  0  0  0  0  0  0  0  0  0  0
   -3.4117    0.8280   -1.4856 C   0  0  0  0  0  0  0  0  0  0  0  0
   -3.1606    0.8626   -2.5551 H   0  0  0  0  0  0  0  0  0  0  0  0
   -4.7062    1.0684   -1.0277 C   0  0  0  0  0  0  0  0  0  0  0  0
   -5.5002    1.2967   -1.7557 H   0  0  0  0  0  0  0  0  0  0  0  0
   -5.0147    1.0266    0.3518 C   0  0  0  0  0  0  0  0  0  0  0  0
   -6.0393    1.2237    0.6981 H   0  0  0  0  0  0  0  0  0  0  0  0
   -4.0021    0.7461    1.2635 C   0  0  0  0  0  0  0  0  0  0  0  0
   -4.2134    0.7338    2.3449 H   0  0  0  0  0  0  0  0  0  0  0  0
   -2.6817    0.4623    0.8267 C   0  0  0  0  0  0  0  0  0  0  0  0
   -1.6115    0.3337    1.7809 C   0  0  0  0  0  3  0  0  0  0  0  0
   -1.7995    0.7257    2.8058 H   0  0  0  0  0  0  0  0  0  0  0  0
    0.6887    0.1266    2.3835 C   0  0  0  0  0  0  0  0  0  0  0  0
    1.1690   -0.8346    2.6459 H   0  0  0  0  0  0  0  0  0  0  0  0
    0.3676    0.6299    3.3228 H   0  0  0  0  0  0  0  0  0  0  0  0
    1.6595    1.0540    1.6203 C   0  0  0  0  0  0  0  0  0  0  0  0
    2.6068    1.1724    2.1938 H   0  0  0  0  0  0  0  0  0  0  0  0
    1.1842    2.0540    1.5667 H   0  0  0  0  0  0  0  0  0  0  0  0
    3.1010   -0.2737    0.1150 C   0  0  0  0  0  0  0  0  0  0  0  0
    3.2447   -0.4566   -0.9674 H   0  0  0  0  0  0  0  0  0  0  0  0
    4.0212    0.2123    0.5082 H   0  0  0  0  0  0  0  0  0  0  0  0
    2.8230   -1.6085    0.8180 C   0  0  0  0  0  0  0  0  0  0  0  0
    3.5195   -2.3836    0.4228 H   0  0  0  0  0  0  0  0  0  0  0  0
    3.0340   -1.5284    1.9127 H   0  0  0  0  0  0  0  0  0  0  0  0
    1.8679    1.6896   -0.7582 C   0  0  0  0  0  0  0  0  0  0  0  0
    0.8433    2.1187   -0.7386 H   0  0  0  0  0  0  0  0  0  0  0  0
    1.9665    1.2085   -1.7550 H   0  0  0  0  0  0  0  0  0  0  0  0
    2.8906    2.8172   -0.6027 C   0  0  0  0  0  0  0  0  0  0  0  0
    2.7897    3.2994    0.3931 H   0  0  0  0  0  0  0  0  0  0  0  0
    2.6386    3.6064   -1.3548 H   0  0  0  0  0  0  0  0  0  0  0  0
  1  7  1  0  0  0  0
  2 28  1  0  0  0  0
  3 34  1  0  0  0  0
  4  3  1  0  0  0  0
  5 17  1  0  0  0  0
  5 19  1  0  0  0  0
  6 22  1  0  0  0  0
  7 16  1  0  0  0  0
  8 10  1  0  0  0  0
  8  7  2  0  0  0  0
  9  8  1  0  0  0  0
 10 12  2  0  0  0  0
 11 10  1  0  0  0  0
 12 13  1  0  0  0  0
 12 14  1  0  0  0  0
 14 15  1  0  0  0  0
 16 14  2  0  0  0  0
 16 17  1  0  0  0  0
 17 18  1  0  0  0  0
 19 20  1  0  0  0  0
 19 21  1  0  0  0  0
 22 23  1  0  0  0  0
 22 19  1  0  0  0  0
 24 22  1  0  0  0  0
 25  6  1  0  0  0  0
 25 27  1  0  0  0  0
 25 28  1  0  0  0  0
 26 25  1  0  0  0  0
 28 30  1  0  0  0  0
 29 28  1  0  0  0  0
 31 32  1  0  0  0  0
 31 34  1  0  0  0  0
 31  6  1  0  0  0  0
 33 31  1  0  0  0  0
 34 35  1  0  0  0  0
 36 34  1  0  0  0  0
M  CHG  1   1  -1
M  END
