1,2,26,27
 OpenBabel05122313063D

 49 50  0  0  1  0  0  0  0  0999 V2000
   -1.2447   -1.5362    0.0112 O   0  0  0  0  0  1  0  0  0  0  0  0
   -1.2477    1.1444    0.5090 N   0  0  0  0  0  2  0  0  0  0  0  0
   -2.5377   -1.4331   -0.0160 C   0  0  1  0  0  3  0  0  0  0  0  0
   -3.3217   -2.6075   -0.2573 C   0  0  0  0  0  0  0  0  0  0  0  0
   -2.7760   -3.5474   -0.4230 H   0  0  0  0  0  0  0  0  0  0  0  0
   -4.7069   -2.5552   -0.2905 C   0  0  0  0  0  0  0  0  0  0  0  0
   -5.2702   -3.4818   -0.4912 H   0  0  0  0  0  0  0  0  0  0  0  0
   -5.4315   -1.3465   -0.0674 C   0  0  0  0  0  0  0  0  0  0  0  0
   -4.6876   -0.2002    0.1903 C   0  0  0  0  0  0  0  0  0  0  0  0
   -5.2068    0.7541    0.3823 H   0  0  0  0  0  0  0  0  0  0  0  0
   -3.2623   -0.2052    0.2133 C   0  0  0  0  0  0  0  0  0  0  0  0
   -6.9385   -1.3384   -0.1072 C   0  0  0  0  0  0  0  0  0  0  0  0
   -7.3228   -1.6458   -1.1033 H   0  0  0  0  0  0  0  0  0  0  0  0
   -7.3463   -0.3324    0.1127 H   0  0  0  0  0  0  0  0  0  0  0  0
   -7.3707   -2.0459    0.6321 H   0  0  0  0  0  0  0  0  0  0  0  0
   -2.5536    0.9829    0.5567 C   0  0  0  0  0  0  0  0  0  0  0  0
   -3.1528    1.8356    0.9361 H   0  0  0  0  0  0  0  0  0  0  0  0
   -0.6748    2.3680    1.0624 C   0  0  0  0  0  0  0  0  0  0  0  0
    0.0817    2.0724    1.8183 H   0  0  0  0  0  0  0  0  0  0  0  0
   -1.4563    2.9526    1.5958 H   0  0  0  0  0  0  0  0  0  0  0  0
   -0.0000    3.2686    0.0000 C   0  0  0  0  0  0  0  0  0  0  0  0
   -1.0478    4.1429   -0.7052 C   0  0  0  0  0  0  0  0  0  0  0  0
   -1.8692    3.5237   -1.1212 H   0  0  0  0  0  0  0  0  0  0  0  0
   -0.5947    4.7094   -1.5450 H   0  0  0  0  0  0  0  0  0  0  0  0
   -1.4901    4.8785   -0.0030 H   0  0  0  0  0  0  0  0  0  0  0  0
    1.2447   -1.5362   -0.0111 O   0  5  0  0  0  0  0  0  0  0  0  0
    1.2477    1.1444   -0.5090 N   0  0  0  0  0  2  0  0  0  0  0  0
    2.5377   -1.4331    0.0161 C   0  0  0  0  0  0  0  0  0  0  0  0
    3.3218   -2.6075    0.2573 C   0  0  0  0  0  0  0  0  0  0  0  0
    2.7760   -3.5474    0.4231 H   0  0  0  0  0  0  0  0  0  0  0  0
    4.7069   -2.5552    0.2904 C   0  0  0  0  0  0  0  0  0  0  0  0
    5.2703   -3.4817    0.4912 H   0  0  0  0  0  0  0  0  0  0  0  0
    5.4315   -1.3465    0.0673 C   0  0  0  0  0  0  0  0  0  0  0  0
    4.6876   -0.2001   -0.1904 C   0  0  0  0  0  3  0  0  0  0  0  0
    5.2068    0.7541   -0.3825 H   0  0  0  0  0  0  0  0  0  0  0  0
    3.2623   -0.2052   -0.2133 C   0  0  0  0  0  0  0  0  0  0  0  0
    6.9386   -1.3384    0.1070 C   0  0  0  0  0  0  0  0  0  0  0  0
    7.3228   -1.6455    1.1032 H   0  0  0  0  0  0  0  0  0  0  0  0
    7.3463   -0.3325   -0.1132 H   0  0  0  0  0  0  0  0  0  0  0  0
    7.3707   -2.0461   -0.6321 H   0  0  0  0  0  0  0  0  0  0  0  0
    2.5535    0.9829   -0.5567 C   0  0  0  0  0  0  0  0  0  0  0  0
    3.1528    1.8356   -0.9361 H   0  0  0  0  0  0  0  0  0  0  0  0
    0.6748    2.3679   -1.0624 C   0  0  0  0  0  0  0  0  0  0  0  0
   -0.0818    2.0724   -1.8183 H   0  0  0  0  0  0  0  0  0  0  0  0
    1.4562    2.9525   -1.5958 H   0  0  0  0  0  0  0  0  0  0  0  0
    1.0478    4.1429    0.7052 C   0  0  0  0  0  0  0  0  0  0  0  0
    1.8692    3.5237    1.1212 H   0  0  0  0  0  0  0  0  0  0  0  0
    0.5948    4.7094    1.5450 H   0  0  0  0  0  0  0  0  0  0  0  0
    1.4901    4.8785    0.0030 H   0  0  0  0  0  0  0  0  0  0  0  0
  2 16  1  0  0  0  0
  2 18  1  0  0  0  0
  3  1  1  1  0  0  0
  3 11  1  0  0  0  0
  4  3  1  0  0  0  0
  5  4  1  0  0  0  0
  6  4  2  0  0  0  0
  6  8  1  0  0  0  0
  7  6  1  0  0  0  0
  8  9  2  0  0  0  0
  9 11  1  0  0  0  0
  9 10  1  0  0  0  0
 11 16  2  0  0  0  0
 12  8  1  0  0  0  0
 12 14  1  0  0  0  0
 12 15  1  0  0  0  0
 13 12  1  0  0  0  0
 16 17  1  0  0  0  0
 18 20  1  0  0  0  0
 18 19  1  0  0  0  0
 21 46  1  0  0  0  0
 21 18  1  0  0  0  0
 22 25  1  0  0  0  0
 22 21  1  0  0  0  0
 23 22  1  0  0  0  0
 24 22  1  0  0  0  0
 26 28  1  0  0  0  0
 28 29  2  0  0  0  0
 29 31  1  0  0  0  0
 29 30  1  0  0  0  0
 31 32  1  0  0  0  0
 33 37  1  0  0  0  0
 33 31  2  0  0  0  0
 34 33  1  0  0  0  0
 35 34  1  0  0  0  0
 36 34  1  0  0  0  0
 36 28  1  0  0  0  0
 37 38  1  0  0  0  0
 39 37  1  0  0  0  0
 40 37  1  0  0  0  0
 41 27  1  0  0  0  0
 41 36  2  0  0  0  0
 42 41  1  0  0  0  0
 43 27  1  0  0  0  0
 43 21  1  0  0  0  0
 44 43  1  0  0  0  0
 45 43  1  0  0  0  0
 46 47  1  0  0  0  0
 46 48  1  0  0  0  0
 49 46  1  0  0  0  0
M  CHG  1  26  -1
M  END
