30,31,32,33
 OpenBabel05122313063D

 33 34  0  0  1  0  0  0  0  0999 V2000
   -0.7090    2.8997   -0.3942 C   0  0  0  0  0  0  0  0  0  0  0  0
   -2.6163    1.4500   -0.2282 C   0  0  0  0  0  0  0  0  0  0  0  0
   -3.3164    0.2134   -0.1332 C   0  0  0  0  0  0  0  0  0  0  0  0
   -4.7481    0.1952   -0.1078 C   0  0  0  0  0  3  0  0  0  0  0  0
   -5.3826   -0.9877    0.1907 C   0  0  0  0  0  3  0  0  0  0  0  0
   -4.7275   -2.2302    0.1516 C   0  0  0  0  0  0  0  0  0  0  0  0
   -3.3319   -2.2477    0.1540 C   0  0  0  0  0  0  0  0  0  0  0  0
   -2.5853   -1.0312    0.0344 C   0  0  0  0  0  0  0  0  0  0  0  0
    0.5936    2.9109    0.3929 C   0  0  0  0  0  0  0  0  0  0  0  0
    2.5174    1.4800    0.2136 C   0  0  0  0  0  0  0  0  0  0  0  0
    3.2290    0.2518    0.0883 C   0  0  0  0  0  0  0  0  0  0  0  0
    4.6531    0.2465    0.1040 C   0  0  0  0  0  0  0  0  0  0  0  0
    5.3697   -0.9360   -0.0204 C   0  0  0  0  0  0  0  0  0  0  0  0
    4.6712   -2.1638   -0.1676 C   0  0  0  0  0  0  0  0  0  0  0  0
    3.2837   -2.1975   -0.1886 C   0  0  0  0  0  0  0  0  0  0  0  0
    2.5128   -0.9992   -0.0588 C   0  0  1  0  0  3  0  0  0  0  0  0
   -1.4001    3.7096   -0.0760 H   0  0  0  0  0  0  0  0  0  0  0  0
   -3.2201    2.3691   -0.3656 H   0  0  0  0  0  0  0  0  0  0  0  0
   -5.2873    1.1543   -0.2188 H   0  0  0  0  0  0  0  0  0  0  0  0
   -5.2842   -3.1828    0.1933 H   0  0  0  0  0  0  0  0  0  0  0  0
   -2.7586   -3.1812    0.2647 H   0  0  0  0  0  0  0  0  0  0  0  0
   -0.4969    3.0351   -1.4777 H   0  0  0  0  0  0  0  0  0  0  0  0
    1.2730    3.7291    0.0707 H   0  0  0  0  0  0  0  0  0  0  0  0
    0.3785    3.0491    1.4754 H   0  0  0  0  0  0  0  0  0  0  0  0
    3.1123    2.4059    0.3421 H   0  0  0  0  0  0  0  0  0  0  0  0
    5.1808    1.2073    0.2174 H   0  0  0  0  0  0  0  0  0  0  0  0
    6.4692   -0.9241   -0.0058 H   0  0  0  0  0  0  0  0  0  0  0  0
    5.2380   -3.1027   -0.2660 H   0  0  0  0  0  0  0  0  0  0  0  0
    2.7263   -3.1386   -0.3004 H   0  0  0  0  0  0  0  0  0  0  0  0
   -1.2999    1.5732   -0.1846 N   0  0  0  0  0  2  0  0  0  0  0  0
    1.2002    1.5914    0.1903 N   0  0  0  0  0  2  0  0  0  0  0  0
    1.2154   -1.0839   -0.0779 O   0  0  0  0  0  1  0  0  0  0  0  0
   -1.2886   -1.0917    0.0710 O   0  5  0  0  0  0  0  0  0  0  0  0
  1 30  1  0  0  0  0
  1 17  1  0  0  0  0
  1  9  1  0  0  0  0
  2 30  1  0  0  0  0
  2  3  2  0  0  0  0
  3  4  1  0  0  0  0
  3  8  1  0  0  0  0
  4  5  1  0  0  0  0
  6  7  1  0  0  0  0
  6  5  2  0  0  0  0
  6 20  1  0  0  0  0
  7 21  1  0  0  0  0
  8 33  1  0  0  0  0
  8  7  2  0  0  0  0
  9 24  1  0  0  0  0
 10 25  1  0  0  0  0
 11 12  1  0  0  0  0
 11 10  2  0  0  0  0
 12 26  1  0  0  0  0
 13 27  1  0  0  0  0
 13 12  2  0  0  0  0
 14 13  1  0  0  0  0
 15 14  2  0  0  0  0
 15 16  1  0  0  0  0
 16 32  1  1  0  0  0
 16 11  1  0  0  0  0
 18  2  1  0  0  0  0
 19  4  1  0  0  0  0
 22  1  1  0  0  0  0
 23  9  1  0  0  0  0
 28 14  1  0  0  0  0
 29 15  1  0  0  0  0
 31 10  1  0  0  0  0
 31  9  1  0  0  0  0
M  CHG  1  33  -1
M  END
