3,6,9,10
 OpenBabel05122313063D

 54 55  0  0  0  0  0  0  0  0999 V2000
   -3.7411   -2.3791    0.4558 O   0  0  0  0  0  0  0  0  0  0  0  0
   -1.8940   -0.2260    1.0855 O   0  0  0  0  0  0  0  0  0  0  0  0
    0.7347   -0.1915    1.4769 O   0  5  0  0  0  0  0  0  0  0  0  0
    0.7446   -2.3131    2.2508 O   0  0  0  0  0  0  0  0  0  0  0  0
   -0.7445   -2.3138   -2.2496 O   0  5  0  0  0  0  0  0  0  0  0  0
   -0.7342   -0.1915   -1.4777 O   0  0  0  0  0  0  0  0  0  0  0  0
    1.8944   -0.2261   -1.0862 O   0  0  0  0  0  0  0  0  0  0  0  0
    3.7419   -2.3790   -0.4562 O   0  0  0  0  0  0  0  0  0  0  0  0
   -1.2956    2.4452    0.4480 N   0  0  0  0  0  2  0  0  0  0  0  0
    1.2953    2.4450   -0.4483 N   0  0  0  0  0  2  0  0  0  0  0  0
   -3.5947   -3.1653   -0.7400 C   0  0  0  0  0  0  0  0  0  0  0  0
   -3.3796   -4.1967   -0.4035 H   0  0  0  0  0  0  0  0  0  0  0  0
   -2.7546   -2.7933   -1.3698 H   0  0  0  0  0  0  0  0  0  0  0  0
   -4.5345   -3.1722   -1.3351 H   0  0  0  0  0  0  0  0  0  0  0  0
   -4.0602   -1.0657    0.2578 C   0  0  0  0  0  0  0  0  0  0  0  0
   -5.3451   -0.7199   -0.1944 C   0  0  0  0  0  0  0  0  0  0  0  0
   -6.0518   -1.5428   -0.3800 H   0  0  0  0  0  0  0  0  0  0  0  0
   -5.7338    0.6146   -0.3842 C   0  0  0  0  0  0  0  0  0  0  0  0
   -6.7510    0.8556   -0.7237 H   0  0  0  0  0  0  0  0  0  0  0  0
   -4.8068    1.6233   -0.1351 C   0  0  0  0  0  0  0  0  0  0  0  0
   -5.0758    2.6788   -0.2949 H   0  0  0  0  0  0  0  0  0  0  0  0
   -3.4906    1.3221    0.2988 C   0  0  0  0  0  0  0  0  0  0  0  0
   -3.1142   -0.0400    0.5474 C   0  0  0  0  0  0  0  0  0  0  0  0
   -1.3119   -1.5075    1.4242 C   0  0  0  0  0  0  0  0  0  0  0  0
   -1.3774   -2.2039    0.5678 H   0  0  0  0  0  0  0  0  0  0  0  0
   -1.8501   -1.9570    2.2798 H   0  0  0  0  0  0  0  0  0  0  0  0
    0.1802   -1.3257    1.7711 C   0  0  0  0  0  0  0  0  0  0  0  0
   -2.5907    2.4581    0.4106 C   0  0  0  0  0  3  0  0  0  0  0  0
   -3.1048    3.4473    0.4163 H   0  0  0  0  0  0  0  0  0  0  0  0
   -0.5589    3.6950    0.5286 C   0  0  0  0  0  0  0  0  0  0  0  0
   -0.0924    3.7585    1.5373 H   0  0  0  0  0  0  0  0  0  0  0  0
   -1.2166    4.5847    0.3993 H   0  0  0  0  0  0  0  0  0  0  0  0
    0.5586    3.6948   -0.5294 C   0  0  0  0  0  0  0  0  0  0  0  0
    0.0921    3.7579   -1.5382 H   0  0  0  0  0  0  0  0  0  0  0  0
    1.2163    4.5846   -0.4005 H   0  0  0  0  0  0  0  0  0  0  0  0
    2.5905    2.4581   -0.4105 C   0  0  0  0  0  3  0  0  0  0  0  0
    3.1045    3.4473   -0.4163 H   0  0  0  0  0  0  0  0  0  0  0  0
   -0.1800   -1.3261   -1.7708 C   0  0  0  0  0  0  0  0  0  0  0  0
    1.3122   -1.5077   -1.4239 C   0  0  0  0  0  0  0  0  0  0  0  0
    1.3776   -2.2035   -0.5670 H   0  0  0  0  0  0  0  0  0  0  0  0
    1.8502   -1.9579   -2.2792 H   0  0  0  0  0  0  0  0  0  0  0  0
    3.1144   -0.0400   -0.5474 C   0  0  0  0  0  0  0  0  0  0  0  0
    3.4905    1.3221   -0.2984 C   0  0  0  0  0  0  0  0  0  0  0  0
    4.8064    1.6234    0.1359 C   0  0  0  0  0  0  0  0  0  0  0  0
    5.0752    2.6790    0.2961 H   0  0  0  0  0  0  0  0  0  0  0  0
    5.7335    0.6149    0.3852 C   0  0  0  0  0  0  0  0  0  0  0  0
    6.7506    0.8560    0.7252 H   0  0  0  0  0  0  0  0  0  0  0  0
    5.3452   -0.7196    0.1950 C   0  0  0  0  0  0  0  0  0  0  0  0
    6.0518   -1.5425    0.3807 H   0  0  0  0  0  0  0  0  0  0  0  0
    4.0605   -1.0656   -0.2578 C   0  0  0  0  0  0  0  0  0  0  0  0
    3.5942   -3.1651    0.7395 C   0  0  0  0  0  0  0  0  0  0  0  0
    3.3777   -4.1962    0.4029 H   0  0  0  0  0  0  0  0  0  0  0  0
    2.7547   -2.7921    1.3694 H   0  0  0  0  0  0  0  0  0  0  0  0
    4.5340   -3.1734    1.3346 H   0  0  0  0  0  0  0  0  0  0  0  0
  2 24  1  0  0  0  0
  3 27  1  0  0  0  0
  5 38  1  0  0  0  0
  7 42  1  0  0  0  0
  8 50  1  0  0  0  0
  8 51  1  0  0  0  0
  9 30  1  0  0  0  0
 10 36  1  0  0  0  0
 11 12  1  0  0  0  0
 11  1  1  0  0  0  0
 13 11  1  0  0  0  0
 14 11  1  0  0  0  0
 15  1  1  0  0  0  0
 15 23  1  0  0  0  0
 16 15  2  0  0  0  0
 17 16  1  0  0  0  0
 18 16  1  0  0  0  0
 18 20  2  0  0  0  0
 19 18  1  0  0  0  0
 20 22  1  0  0  0  0
 21 20  1  0  0  0  0
 22 28  1  0  0  0  0
 22 23  2  0  0  0  0
 23  2  1  0  0  0  0
 24 27  1  0  0  0  0
 24 26  1  0  0  0  0
 25 24  1  0  0  0  0
 27  4  2  0  0  0  0
 28 29  1  0  0  0  0
 28  9  1  0  0  0  0
 30 31  1  0  0  0  0
 32 30  1  0  0  0  0
 33 10  1  0  0  0  0
 33 35  1  0  0  0  0
 33 30  1  0  0  0  0
 34 33  1  0  0  0  0
 36 43  1  0  0  0  0
 37 36  1  0  0  0  0
 38  6  2  0  0  0  0
 38 39  1  0  0  0  0
 39  7  1  0  0  0  0
 39 40  1  0  0  0  0
 41 39  1  0  0  0  0
 42 43  2  0  0  0  0
 42 50  1  0  0  0  0
 43 44  1  0  0  0  0
 44 45  1  0  0  0  0
 44 46  2  0  0  0  0
 46 47  1  0  0  0  0
 48 49  1  0  0  0  0
 48 46  1  0  0  0  0
 50 48  2  0  0  0  0
 51 54  1  0  0  0  0
 51 53  1  0  0  0  0
 52 51  1  0  0  0  0
M  CHG  2   3  -1   5  -1
M  END
