3,4,5,6
 OpenBabel05122313063D

 64 65  0  0  0  0  0  0  0  0999 V2000
    6.9297    0.8751   -0.9120 Cl  0  0  0  0  0  0  0  0  0  0  0  0
   -6.9301   -0.8746   -0.9119 Cl  0  0  0  0  0  0  0  0  0  0  0  0
    1.8956    0.6791   -0.8336 O   0  5  0  0  0  0  0  0  0  0  0  0
   -1.8961   -0.6787   -0.8323 O   0  5  0  0  0  0  0  0  0  0  0  0
    0.5925   -1.9483   -0.7867 N   0  0  0  0  0  2  0  0  0  0  0  0
   -0.5929    1.9488   -0.7856 N   0  0  0  0  0  2  0  0  0  0  0  0
    3.0239   -1.4800   -0.8620 C   0  0  0  0  0  0  0  0  0  0  0  0
    2.9870   -0.0399   -0.8540 C   0  0  0  0  0  0  0  0  0  0  0  0
    4.2266    0.6667   -0.8681 C   0  0  0  0  0  0  0  0  0  0  0  0
    5.4336   -0.0221   -0.8952 C   0  0  0  0  0  0  0  0  0  0  0  0
    5.4890   -1.4379   -0.9086 C   0  0  0  0  0  0  0  0  0  0  0  0
    4.2893   -2.1334   -0.8915 C   0  0  0  0  0  3  0  0  0  0  0  0
   -3.0243    1.4804   -0.8606 C   0  0  0  0  0  0  0  0  0  0  0  0
   -2.9874    0.0404   -0.8529 C   0  0  0  0  0  0  0  0  0  0  0  0
   -4.2271   -0.6662   -0.8674 C   0  0  0  0  0  0  0  0  0  0  0  0
   -5.4341    0.0227   -0.8945 C   0  0  0  0  0  0  0  0  0  0  0  0
   -5.4895    1.4384   -0.9076 C   0  0  0  0  0  0  0  0  0  0  0  0
   -4.2897    2.1340   -0.8901 C   0  0  0  0  0  3  0  0  0  0  0  0
    1.8536   -2.3078   -0.8236 C   0  0  0  0  0  0  0  0  0  0  0  0
   -1.8540    2.3082   -0.8220 C   0  0  0  0  0  0  0  0  0  0  0  0
   -0.4034   -3.0254   -0.6561 C   0  0  0  0  0  0  0  0  0  0  0  0
   -0.9847   -3.1113    0.7608 C   0  0  0  0  0  0  0  0  0  0  0  0
    0.0291   -3.4311    1.8622 C   0  0  0  0  0  0  0  0  0  0  0  0
   -0.5149   -3.1941    3.2817 C   0  0  0  0  0  0  0  0  0  0  0  0
   -0.9161   -1.7396    3.5778 C   0  0  0  0  0  0  0  0  0  0  0  0
    0.2347   -0.7298    3.5102 C   0  0  0  0  0  0  0  0  0  0  0  0
   -0.2328    0.7279    3.5106 C   0  0  0  0  0  0  0  0  0  0  0  0
    0.9180    1.7377    3.5783 C   0  0  0  0  0  0  0  0  0  0  0  0
    0.5165    3.1923    3.2830 C   0  0  0  0  0  0  0  0  0  0  0  0
   -0.0282    3.4300    1.8639 C   0  0  0  0  0  0  0  0  0  0  0  0
    0.9850    3.1106    0.7619 C   0  0  0  0  0  0  0  0  0  0  0  0
    0.4031    3.0257   -0.6547 C   0  0  0  0  0  0  0  0  0  0  0  0
    4.1999    1.7641   -0.8589 H   0  0  0  0  0  0  0  0  0  0  0  0
    6.4578   -1.9529   -0.9302 H   0  0  0  0  0  0  0  0  0  0  0  0
    4.3047   -3.2350   -0.8974 H   0  0  0  0  0  0  0  0  0  0  0  0
   -4.2004   -1.7635   -0.8584 H   0  0  0  0  0  0  0  0  0  0  0  0
   -6.4582    1.9535   -0.9292 H   0  0  0  0  0  0  0  0  0  0  0  0
   -4.3051    3.2355   -0.8958 H   0  0  0  0  0  0  0  0  0  0  0  0
    2.0513   -3.3975   -0.8152 H   0  0  0  0  0  0  0  0  0  0  0  0
   -2.0516    3.3980   -0.8130 H   0  0  0  0  0  0  0  0  0  0  0  0
    0.0823   -3.9845   -0.9386 H   0  0  0  0  0  0  0  0  0  0  0  0
   -1.2222   -2.8224   -1.3706 H   0  0  0  0  0  0  0  0  0  0  0  0
   -1.7907   -3.8773    0.7490 H   0  0  0  0  0  0  0  0  0  0  0  0
   -1.4856   -2.1454    0.9643 H   0  0  0  0  0  0  0  0  0  0  0  0
    0.9384   -2.8089    1.7178 H   0  0  0  0  0  0  0  0  0  0  0  0
    0.3702   -4.4856    1.7675 H   0  0  0  0  0  0  0  0  0  0  0  0
    0.2522   -3.5187    4.0186 H   0  0  0  0  0  0  0  0  0  0  0  0
   -1.3955   -3.8527    3.4492 H   0  0  0  0  0  0  0  0  0  0  0  0
   -1.7128   -1.4218    2.8695 H   0  0  0  0  0  0  0  0  0  0  0  0
   -1.3866   -1.6909    4.5839 H   0  0  0  0  0  0  0  0  0  0  0  0
    0.8259   -0.8912    2.5818 H   0  0  0  0  0  0  0  0  0  0  0  0
    0.9390   -0.9098    4.3537 H   0  0  0  0  0  0  0  0  0  0  0  0
   -0.9369    0.9074    4.3544 H   0  0  0  0  0  0  0  0  0  0  0  0
   -0.8243    0.8897    2.5824 H   0  0  0  0  0  0  0  0  0  0  0  0
    1.7144    1.4203    2.8695 H   0  0  0  0  0  0  0  0  0  0  0  0
    1.3889    1.6886    4.5841 H   0  0  0  0  0  0  0  0  0  0  0  0
   -0.2503    3.5165    4.0204 H   0  0  0  0  0  0  0  0  0  0  0  0
    1.3971    3.8509    3.4504 H   0  0  0  0  0  0  0  0  0  0  0  0
   -0.3691    4.4846    1.7698 H   0  0  0  0  0  0  0  0  0  0  0  0
   -0.9376    2.8080    1.7196 H   0  0  0  0  0  0  0  0  0  0  0  0
    1.7913    3.8763    0.7502 H   0  0  0  0  0  0  0  0  0  0  0  0
    1.4857    2.1444    0.9645 H   0  0  0  0  0  0  0  0  0  0  0  0
   -0.0828    3.9850   -0.9364 H   0  0  0  0  0  0  0  0  0  0  0  0
    1.2215    2.8232   -1.3698 H   0  0  0  0  0  0  0  0  0  0  0  0
  1 10  1  0  0  0  0
  2 16  1  0  0  0  0
  5 21  1  0  0  0  0
  6 32  1  0  0  0  0
  7  8  1  0  0  0  0
  7 19  2  0  0  0  0
  8  3  1  0  0  0  0
  9 33  1  0  0  0  0
  9  8  2  0  0  0  0
 10  9  1  0  0  0  0
 11 10  2  0  0  0  0
 11 12  1  0  0  0  0
 12  7  1  0  0  0  0
 13 14  1  0  0  0  0
 13 20  2  0  0  0  0
 14  4  1  0  0  0  0
 15 36  1  0  0  0  0
 15 14  2  0  0  0  0
 16 15  1  0  0  0  0
 17 16  2  0  0  0  0
 17 18  1  0  0  0  0
 18 13  1  0  0  0  0
 19 39  1  0  0  0  0
 19  5  1  0  0  0  0
 20 40  1  0  0  0  0
 20  6  1  0  0  0  0
 21 22  1  0  0  0  0
 22 44  1  0  0  0  0
 22 23  1  0  0  0  0
 23 24  1  0  0  0  0
 24 48  1  0  0  0  0
 24 25  1  0  0  0  0
 24 47  1  0  0  0  0
 25 50  1  0  0  0  0
 26 27  1  0  0  0  0
 26 25  1  0  0  0  0
 26 52  1  0  0  0  0
 27 28  1  0  0  0  0
 27 53  1  0  0  0  0
 28 56  1  0  0  0  0
 29 58  1  0  0  0  0
 29 28  1  0  0  0  0
 29 57  1  0  0  0  0
 30 29  1  0  0  0  0
 31 62  1  0  0  0  0
 31 30  1  0  0  0  0
 32 31  1  0  0  0  0
 34 11  1  0  0  0  0
 35 12  1  0  0  0  0
 37 17  1  0  0  0  0
 38 18  1  0  0  0  0
 41 21  1  0  0  0  0
 42 21  1  0  0  0  0
 43 22  1  0  0  0  0
 45 23  1  0  0  0  0
 46 23  1  0  0  0  0
 49 25  1  0  0  0  0
 51 26  1  0  0  0  0
 54 27  1  0  0  0  0
 55 28  1  0  0  0  0
 59 30  1  0  0  0  0
 60 30  1  0  0  0  0
 61 31  1  0  0  0  0
 63 32  1  0  0  0  0
 64 32  1  0  0  0  0
M  CHG  2   3  -1   4  -1
M  END
