3,4,5,6
 OpenBabel05122313063D

 61 62  0  0  1  0  0  0  0  0999 V2000
   -6.8970   -1.0984   -1.3979 Cl  0  0  0  0  0  0  0  0  0  0  0  0
    6.7039   -1.9665    0.8090 Cl  0  0  0  0  0  0  0  0  0  0  0  0
   -1.9413   -0.3835   -0.8233 O   0  0  0  0  0  1  0  0  0  0  0  0
    1.7986   -0.8276    0.6295 O   0  5  0  0  0  0  0  0  0  0  0  0
   -0.7514   -0.8846    1.7958 N   0  0  0  0  0  2  0  0  0  0  0  0
    0.6141   -0.1527   -1.9576 N   0  0  0  0  0  2  0  0  0  0  0  0
   -3.1269   -1.1468    1.1671 C   0  0  0  0  0  0  0  0  0  0  0  0
   -3.0402   -0.7526   -0.2170 C   0  0  1  0  0  3  0  0  0  0  0  0
   -4.2407   -0.7398   -0.9877 C   0  0  0  0  0  0  0  0  0  0  0  0
   -5.4527   -1.1152   -0.4191 C   0  0  0  0  0  0  0  0  0  0  0  0
   -5.5543   -1.5124    0.9368 C   0  0  0  0  0  0  0  0  0  0  0  0
   -4.3956   -1.5125    1.6996 C   0  0  0  0  0  0  0  0  0  0  0  0
    2.9639   -0.7761   -1.5140 C   0  0  0  0  0  0  0  0  0  0  0  0
    2.8830   -0.9728   -0.0877 C   0  0  0  0  0  0  0  0  0  0  0  0
    4.0743   -1.3360    0.6084 C   0  0  0  0  0  0  0  0  0  0  0  0
    5.2713   -1.5108   -0.0766 C   0  0  0  0  0  0  0  0  0  0  0  0
    5.3667   -1.3296   -1.4783 C   0  0  0  0  0  0  0  0  0  0  0  0
    4.2178   -0.9614   -2.1629 C   0  0  0  0  0  3  0  0  0  0  0  0
   -2.0120   -1.1145    2.0698 C   0  0  0  0  0  0  0  0  0  0  0  0
    1.8620   -0.3282   -2.3170 C   0  0  0  0  0  0  0  0  0  0  0  0
    0.1671   -0.6917    2.9267 C   0  0  0  0  0  0  0  0  0  0  0  0
    0.6019    0.7778    3.0517 C   0  0  0  0  0  0  0  0  0  0  0  0
   -0.5621    1.7701    3.0867 C   0  0  0  0  0  0  0  0  0  0  0  0
   -0.1401    3.2424    3.1866 C   0  0  0  0  0  0  0  0  0  0  0  0
    0.7448    3.7608    2.0419 C   0  0  0  0  0  0  0  0  0  0  0  0
    0.1735    3.5803    0.6286 C   0  0  0  0  0  0  0  0  0  0  0  0
    0.9641    4.3756   -0.4174 C   0  0  0  0  0  0  0  0  0  0  0  0
    0.5016    4.2537   -1.8777 C   0  0  0  0  0  0  0  0  0  0  0  0
    0.6918    2.8582   -2.5087 C   0  0  0  0  0  0  0  0  0  0  0  0
   -0.5538    1.9665   -2.4913 C   0  0  0  0  0  0  0  0  0  0  0  0
   -0.2870    0.5126   -2.9089 C   0  0  0  0  0  0  0  0  0  0  0  0
   -4.1800   -0.4334   -2.0400 H   0  0  0  0  0  0  0  0  0  0  0  0
   -6.5261   -1.8005    1.3574 H   0  0  0  0  0  0  0  0  0  0  0  0
   -4.4491   -1.8027    2.7610 H   0  0  0  0  0  0  0  0  0  0  0  0
    4.0173   -1.4805    1.6951 H   0  0  0  0  0  0  0  0  0  0  0  0
    6.3267   -1.4727   -1.9904 H   0  0  0  0  0  0  0  0  0  0  0  0
    4.2676   -0.8004   -3.2516 H   0  0  0  0  0  0  0  0  0  0  0  0
   -2.2606   -1.2781    3.1369 H   0  0  0  0  0  0  0  0  0  0  0  0
    2.1107   -0.0778   -3.3672 H   0  0  0  0  0  0  0  0  0  0  0  0
    1.0589   -1.3256    2.7652 H   0  0  0  0  0  0  0  0  0  0  0  0
   -0.3471   -1.0250    3.8542 H   0  0  0  0  0  0  0  0  0  0  0  0
    1.2179    0.8704    3.9731 H   0  0  0  0  0  0  0  0  0  0  0  0
    1.2763    1.0049    2.2018 H   0  0  0  0  0  0  0  0  0  0  0  0
   -1.2343    1.5269    3.9402 H   0  0  0  0  0  0  0  0  0  0  0  0
   -1.1785    1.6330    2.1725 H   0  0  0  0  0  0  0  0  0  0  0  0
   -1.0606    3.8650    3.2355 H   0  0  0  0  0  0  0  0  0  0  0  0
    0.3899    3.4103    4.1503 H   0  0  0  0  0  0  0  0  0  0  0  0
    0.9346    4.8430    2.2172 H   0  0  0  0  0  0  0  0  0  0  0  0
    1.7471    3.2794    2.0861 H   0  0  0  0  0  0  0  0  0  0  0  0
   -0.8926    3.9037    0.6085 H   0  0  0  0  0  0  0  0  0  0  0  0
    0.1681    2.4989    0.3647 H   0  0  0  0  0  0  0  0  0  0  0  0
    0.9434    5.4500   -0.1275 H   0  0  0  0  0  0  0  0  0  0  0  0
    2.0356    4.0754   -0.3603 H   0  0  0  0  0  0  0  0  0  0  0  0
    1.0717    4.9981   -2.4722 H   0  0  0  0  0  0  0  0  0  0  0  0
   -0.5647    4.5624   -1.9614 H   0  0  0  0  0  0  0  0  0  0  0  0
    1.5241    2.3449   -1.9781 H   0  0  0  0  0  0  0  0  0  0  0  0
    1.0325    2.9631   -3.5622 H   0  0  0  0  0  0  0  0  0  0  0  0
   -1.0162    1.9536   -1.4835 H   0  0  0  0  0  0  0  0  0  0  0  0
   -1.3246    2.3812   -3.1766 H   0  0  0  0  0  0  0  0  0  0  0  0
   -1.2406   -0.0453   -2.9282 H   0  0  0  0  0  0  0  0  0  0  0  0
    0.1735    0.4762   -3.9203 H   0  0  0  0  0  0  0  0  0  0  0  0
  1 10  1  0  0  0  0
  5 19  1  0  0  0  0
  5 21  1  0  0  0  0
  7 12  1  0  0  0  0
  7 19  2  0  0  0  0
  8  3  1  1  0  0  0
  8  7  1  0  0  0  0
  9 10  2  0  0  0  0
  9  8  1  0  0  0  0
 10 11  1  0  0  0  0
 11 33  1  0  0  0  0
 11 12  2  0  0  0  0
 12 34  1  0  0  0  0
 13 14  1  0  0  0  0
 14 15  2  0  0  0  0
 14  4  1  0  0  0  0
 15 35  1  0  0  0  0
 16 15  1  0  0  0  0
 16  2  1  0  0  0  0
 17 16  2  0  0  0  0
 18 13  1  0  0  0  0
 18 17  1  0  0  0  0
 19 38  1  0  0  0  0
 20  6  1  0  0  0  0
 20 13  2  0  0  0  0
 21 22  1  0  0  0  0
 21 41  1  0  0  0  0
 22 23  1  0  0  0  0
 22 42  1  0  0  0  0
 23 24  1  0  0  0  0
 23 44  1  0  0  0  0
 24 46  1  0  0  0  0
 24 47  1  0  0  0  0
 25 49  1  0  0  0  0
 25 48  1  0  0  0  0
 25 24  1  0  0  0  0
 26 25  1  0  0  0  0
 27 53  1  0  0  0  0
 27 52  1  0  0  0  0
 27 26  1  0  0  0  0
 28 27  1  0  0  0  0
 29 30  1  0  0  0  0
 29 56  1  0  0  0  0
 29 28  1  0  0  0  0
 30 58  1  0  0  0  0
 31 30  1  0  0  0  0
 31  6  1  0  0  0  0
 32  9  1  0  0  0  0
 36 17  1  0  0  0  0
 37 18  1  0  0  0  0
 39 20  1  0  0  0  0
 40 21  1  0  0  0  0
 43 22  1  0  0  0  0
 45 23  1  0  0  0  0
 50 26  1  0  0  0  0
 51 26  1  0  0  0  0
 54 28  1  0  0  0  0
 55 28  1  0  0  0  0
 57 29  1  0  0  0  0
 59 30  1  0  0  0  0
 60 31  1  0  0  0  0
 61 31  1  0  0  0  0
M  CHG  1   4  -1
M  END
