1,3,8,11
 OpenBabel05122313063D

 45 46  0  0  1  0  0  0  0  0999 V2000
    1.3590   -0.9713    0.0001 O   0  5  0  0  0  0  0  0  0  0  0  0
    5.1891    0.7632   -0.0002 O   0  0  0  0  0  0  0  0  0  0  0  0
   -1.3707   -0.9466   -0.0001 O   0  0  0  0  0  1  0  0  0  0  0  0
   -5.1917    0.7654   -0.0012 O   0  0  0  0  0  0  0  0  0  0  0  0
   -6.1379    1.0015   -0.0026 H   0  0  0  0  0  0  0  0  0  0  0  0
    2.6408    0.9287    0.0000 N   0  0  0  0  0  0  0  0  0  0  0  0
    4.2434    1.1496   -0.0001 H   0  0  0  0  0  0  0  0  0  0  0  0
    1.4003    1.5091   -0.0001 N   0  0  0  0  0  2  0  0  0  0  0  0
   -2.5379    0.9680    0.0008 N   0  0  0  0  0  0  0  0  0  0  0  0
   -3.4155    1.5018   -0.0008 H   0  0  0  0  0  0  0  0  0  0  0  0
   -1.3028    1.5640    0.0006 N   0  0  0  0  0  2  0  0  0  0  0  0
    2.5331   -0.3999    0.0000 C   0  0  0  0  0  0  0  0  0  0  0  0
    3.7597   -1.2041   -0.0001 C   0  0  0  0  0  0  0  0  0  0  0  0
    5.0447   -0.5679   -0.0002 C   0  0  0  0  0  0  0  0  0  0  0  0
    6.2021   -1.3808   -0.0003 C   0  0  0  0  0  0  0  0  0  0  0  0
    7.1800   -0.8777   -0.0004 H   0  0  0  0  0  0  0  0  0  0  0  0
    6.0959   -2.7739   -0.0003 C   0  0  0  0  0  0  0  0  0  0  0  0
    7.0128   -3.3839   -0.0004 H   0  0  0  0  0  0  0  0  0  0  0  0
    4.8334   -3.4018   -0.0002 C   0  0  0  0  0  0  0  0  0  0  0  0
    4.7572   -4.4990   -0.0002 H   0  0  0  0  0  0  0  0  0  0  0  0
    3.6802   -2.6146   -0.0001 C   0  0  0  0  0  0  0  0  0  0  0  0
    2.6773   -3.0659   -0.0000 H   0  0  0  0  0  0  0  0  0  0  0  0
    1.3134    2.8494    0.0001 C   0  0  2  0  0  3  0  0  0  0  0  0
    0.0618    3.5142    0.0001 C   0  0  0  0  0  0  0  0  0  0  0  0
    0.0887    4.6115   -0.0001 H   0  0  0  0  0  0  0  0  0  0  0  0
   -1.2034    2.9130    0.0002 C   0  0  0  0  0  0  0  0  0  0  0  0
    2.5942    3.6405    0.0003 C   0  0  0  0  0  0  0  0  0  0  0  0
    3.2117    3.3893    0.8875 H   0  0  0  0  0  0  0  0  0  0  0  0
    2.3873    4.7259    0.0004 H   0  0  0  0  0  0  0  0  0  0  0  0
    3.2119    3.3895   -0.8867 H   0  0  0  0  0  0  0  0  0  0  0  0
   -2.4619    3.7416   -0.0000 C   0  0  0  0  0  0  0  0  0  0  0  0
   -3.0891    3.5415   -0.8970 H   0  0  0  0  0  0  0  0  0  0  0  0
   -2.2159    4.8181   -0.0002 H   0  0  0  0  0  0  0  0  0  0  0  0
   -3.0893    3.5417    0.8969 H   0  0  0  0  0  0  0  0  0  0  0  0
   -2.5231   -0.3831    0.0001 C   0  0  2  0  0  3  0  0  0  0  0  0
   -3.7627   -1.1670    0.0002 C   0  0  0  0  0  0  0  0  0  0  0  0
   -5.0678   -0.6021   -0.0007 C   0  0  0  0  0  0  0  0  0  0  0  0
   -6.1989   -1.4327   -0.0007 C   0  0  0  0  0  0  0  0  0  0  0  0
   -7.2019   -0.9747   -0.0013 H   0  0  0  0  0  0  0  0  0  0  0  0
   -6.0563   -2.8273    0.0000 C   0  0  0  0  0  0  0  0  0  0  0  0
   -6.9539   -3.4632   -0.0000 H   0  0  0  0  0  0  0  0  0  0  0  0
   -4.7738   -3.4018    0.0008 C   0  0  0  0  0  0  0  0  0  0  0  0
   -4.6555   -4.4949    0.0015 H   0  0  0  0  0  0  0  0  0  0  0  0
   -3.6464   -2.5774    0.0009 C   0  0  0  0  0  0  0  0  0  0  0  0
   -2.6294   -2.9948    0.0015 H   0  0  0  0  0  0  0  0  0  0  0  0
  2  7  1  0  0  0  0
  4 37  1  0  0  0  0
  5  4  1  0  0  0  0
  8  6  1  0  0  0  0
 10  9  1  0  0  0  0
 11  9  1  0  0  0  0
 12  6  2  0  0  0  0
 12  1  1  0  0  0  0
 13 21  1  0  0  0  0
 13 12  1  0  0  0  0
 14  2  1  0  0  0  0
 14 13  2  0  0  0  0
 15 14  1  0  0  0  0
 16 15  1  0  0  0  0
 17 15  2  0  0  0  0
 17 19  1  0  0  0  0
 18 17  1  0  0  0  0
 19 20  1  0  0  0  0
 19 21  2  0  0  0  0
 21 22  1  0  0  0  0
 23  8  1  6  0  0  0
 23 27  1  0  0  0  0
 24 23  1  0  0  0  0
 24 26  2  0  0  0  0
 25 24  1  0  0  0  0
 26 11  1  0  0  0  0
 27 29  1  0  0  0  0
 27 28  1  0  0  0  0
 30 27  1  0  0  0  0
 31 26  1  0  0  0  0
 31 34  1  0  0  0  0
 32 31  1  0  0  0  0
 33 31  1  0  0  0  0
 35  3  1  1  0  0  0
 35 36  1  0  0  0  0
 35  9  1  0  0  0  0
 36 44  1  0  0  0  0
 37 38  1  0  0  0  0
 37 36  2  0  0  0  0
 38 40  2  0  0  0  0
 39 38  1  0  0  0  0
 40 42  1  0  0  0  0
 41 40  1  0  0  0  0
 42 44  2  0  0  0  0
 42 43  1  0  0  0  0
 44 45  1  0  0  0  0
M  CHG  1   1  -1
M  END
