1,2,42,43
 OpenBabel05122313063D

 82 83  0  0  1  0  0  0  0  0999 V2000
   -1.2695   -0.0494    0.0039 O   0  0  0  0  0  1  0  0  0  0  0  0
   -1.2500    2.6506    0.2110 N   0  0  0  0  0  2  0  0  0  0  0  0
   -2.5702    0.0350   -0.0016 C   0  0  2  0  0  3  0  0  0  0  0  0
   -3.3662   -1.1632   -0.1784 C   0  0  0  0  0  0  0  0  0  0  0  0
   -4.7537   -1.0399   -0.1285 C   0  0  0  0  0  0  0  0  0  0  0  0
   -5.4619    0.1812    0.0703 C   0  0  0  0  0  0  0  0  0  0  0  0
   -4.6964    1.3296    0.2044 C   0  0  0  0  0  0  0  0  0  0  0  0
   -3.2726    1.2849    0.1625 C   0  0  0  0  0  0  0  0  0  0  0  0
   -2.5544    2.5106    0.2811 C   0  0  0  0  0  0  0  0  0  0  0  0
   -0.6378    3.9648    0.4140 C   0  0  0  0  0  0  0  0  0  0  0  0
   -2.6855   -2.5188   -0.4370 C   0  0  0  0  0  0  0  0  0  0  0  0
   -1.7782   -2.8855    0.7597 C   0  0  0  0  0  0  0  0  0  0  0  0
   -1.8504   -2.4227   -1.7364 C   0  0  0  0  0  0  0  0  0  0  0  0
   -3.7085   -3.6545   -0.6188 C   0  0  0  0  0  0  0  0  0  0  0  0
   -6.9981    0.1682    0.1152 C   0  0  0  0  0  0  0  0  0  0  0  0
   -7.5775    1.5762    0.3321 C   0  0  0  0  0  0  0  0  0  0  0  0
   -7.4671   -0.7369    1.2772 C   0  0  0  0  0  0  0  0  0  0  0  0
   -7.5464   -0.3843   -1.2204 C   0  0  0  0  0  0  0  0  0  0  0  0
   -5.3496   -1.9536   -0.2567 H   0  0  0  0  0  0  0  0  0  0  0  0
   -5.1697    2.3126    0.3435 H   0  0  0  0  0  0  0  0  0  0  0  0
   -3.1542    3.4290    0.4426 H   0  0  0  0  0  0  0  0  0  0  0  0
   -1.3272    4.7862    0.1237 H   0  0  0  0  0  0  0  0  0  0  0  0
   -0.3855    4.0895    1.4909 H   0  0  0  0  0  0  0  0  0  0  0  0
   -2.3771   -2.9792    1.6888 H   0  0  0  0  0  0  0  0  0  0  0  0
   -1.2769   -3.8584    0.5752 H   0  0  0  0  0  0  0  0  0  0  0  0
   -1.0002   -2.1188    0.9162 H   0  0  0  0  0  0  0  0  0  0  0  0
   -1.0932   -1.6213   -1.6642 H   0  0  0  0  0  0  0  0  0  0  0  0
   -1.3257   -3.3817   -1.9266 H   0  0  0  0  0  0  0  0  0  0  0  0
   -2.5070   -2.2117   -2.6052 H   0  0  0  0  0  0  0  0  0  0  0  0
   -4.3838   -3.4768   -1.4807 H   0  0  0  0  0  0  0  0  0  0  0  0
   -3.1689   -4.6037   -0.8107 H   0  0  0  0  0  0  0  0  0  0  0  0
   -4.3317   -3.8050    0.2864 H   0  0  0  0  0  0  0  0  0  0  0  0
   -7.2355    2.0176    1.2902 H   0  0  0  0  0  0  0  0  0  0  0  0
   -7.2950    2.2675   -0.4876 H   0  0  0  0  0  0  0  0  0  0  0  0
   -8.6848    1.5295    0.3623 H   0  0  0  0  0  0  0  0  0  0  0  0
   -8.5756   -0.7727    1.3219 H   0  0  0  0  0  0  0  0  0  0  0  0
   -7.1021   -1.7768    1.1607 H   0  0  0  0  0  0  0  0  0  0  0  0
   -7.0934   -0.3566    2.2494 H   0  0  0  0  0  0  0  0  0  0  0  0
   -8.6559   -0.4133   -1.2048 H   0  0  0  0  0  0  0  0  0  0  0  0
   -7.2286    0.2519   -2.0711 H   0  0  0  0  0  0  0  0  0  0  0  0
   -7.1871   -1.4139   -1.4182 H   0  0  0  0  0  0  0  0  0  0  0  0
    1.2695   -0.0494   -0.0039 O   0  5  0  0  0  0  0  0  0  0  0  0
    1.2501    2.6506   -0.2111 N   0  0  0  0  0  2  0  0  0  0  0  0
    2.5703    0.0350    0.0016 C   0  0  0  0  0  0  0  0  0  0  0  0
    3.3662   -1.1633    0.1784 C   0  0  0  0  0  0  0  0  0  0  0  0
    4.7537   -1.0400    0.1285 C   0  0  0  0  0  0  0  0  0  0  0  0
    5.4619    0.1811   -0.0703 C   0  0  0  0  0  0  0  0  0  0  0  0
    4.6965    1.3296   -0.2044 C   0  0  0  0  0  3  0  0  0  0  0  0
    3.2727    1.2849   -0.1625 C   0  0  0  0  0  0  0  0  0  0  0  0
    2.5545    2.5105   -0.2811 C   0  0  0  0  0  0  0  0  0  0  0  0
    0.6378    3.9648   -0.4140 C   0  0  0  0  0  0  0  0  0  0  0  0
    2.6855   -2.5187    0.4370 C   0  0  0  0  0  0  0  0  0  0  0  0
    1.7782   -2.8854   -0.7597 C   0  0  0  0  0  0  0  0  0  0  0  0
    1.8502   -2.4225    1.7363 C   0  0  0  0  0  0  0  0  0  0  0  0
    3.7083   -3.6546    0.6190 C   0  0  0  0  0  0  0  0  0  0  0  0
    6.9981    0.1682   -0.1151 C   0  0  0  0  0  0  0  0  0  0  0  0
    7.5775    1.5761   -0.3321 C   0  0  0  0  0  0  0  0  0  0  0  0
    7.4671   -0.7369   -1.2771 C   0  0  0  0  0  0  0  0  0  0  0  0
    7.5464   -0.3844    1.2204 C   0  0  0  0  0  0  0  0  0  0  0  0
    5.3496   -1.9536    0.2568 H   0  0  0  0  0  0  0  0  0  0  0  0
    5.1698    2.3126   -0.3435 H   0  0  0  0  0  0  0  0  0  0  0  0
    3.1543    3.4290   -0.4426 H   0  0  0  0  0  0  0  0  0  0  0  0
    1.3273    4.7862   -0.1237 H   0  0  0  0  0  0  0  0  0  0  0  0
    0.3856    4.0895   -1.4910 H   0  0  0  0  0  0  0  0  0  0  0  0
    2.3772   -2.9793   -1.6888 H   0  0  0  0  0  0  0  0  0  0  0  0
    1.2768   -3.8582   -0.5753 H   0  0  0  0  0  0  0  0  0  0  0  0
    1.0003   -2.1187   -0.9164 H   0  0  0  0  0  0  0  0  0  0  0  0
    1.0931   -1.6210    1.6640 H   0  0  0  0  0  0  0  0  0  0  0  0
    1.3254   -3.3814    1.9265 H   0  0  0  0  0  0  0  0  0  0  0  0
    2.5068   -2.2115    2.6051 H   0  0  0  0  0  0  0  0  0  0  0  0
    4.3836   -3.4769    1.4809 H   0  0  0  0  0  0  0  0  0  0  0  0
    3.1686   -4.6037    0.8108 H   0  0  0  0  0  0  0  0  0  0  0  0
    4.3316   -3.8052   -0.2862 H   0  0  0  0  0  0  0  0  0  0  0  0
    7.2356    2.0175   -1.2901 H   0  0  0  0  0  0  0  0  0  0  0  0
    7.2950    2.2675    0.4877 H   0  0  0  0  0  0  0  0  0  0  0  0
    8.6848    1.5294   -0.3623 H   0  0  0  0  0  0  0  0  0  0  0  0
    8.5757   -0.7728   -1.3218 H   0  0  0  0  0  0  0  0  0  0  0  0
    7.1021   -1.7769   -1.1607 H   0  0  0  0  0  0  0  0  0  0  0  0
    7.0934   -0.3566   -2.2493 H   0  0  0  0  0  0  0  0  0  0  0  0
    8.6559   -0.4134    1.2049 H   0  0  0  0  0  0  0  0  0  0  0  0
    7.2286    0.2519    2.0711 H   0  0  0  0  0  0  0  0  0  0  0  0
    7.1871   -1.4140    1.4182 H   0  0  0  0  0  0  0  0  0  0  0  0
  2  9  1  0  0  0  0
  2 10  1  0  0  0  0
  3  1  1  6  0  0  0
  3  8  1  0  0  0  0
  4  5  2  0  0  0  0
  4  3  1  0  0  0  0
  5  6  1  0  0  0  0
  6 15  1  0  0  0  0
  6  7  2  0  0  0  0
  7 20  1  0  0  0  0
  8  7  1  0  0  0  0
  8  9  2  0  0  0  0
  9 21  1  0  0  0  0
 10 23  1  0  0  0  0
 11  4  1  0  0  0  0
 11 12  1  0  0  0  0
 12 26  1  0  0  0  0
 12 24  1  0  0  0  0
 13 27  1  0  0  0  0
 13 11  1  0  0  0  0
 14 11  1  0  0  0  0
 14 32  1  0  0  0  0
 15 16  1  0  0  0  0
 15 17  1  0  0  0  0
 16 35  1  0  0  0  0
 16 33  1  0  0  0  0
 17 36  1  0  0  0  0
 17 38  1  0  0  0  0
 18 39  1  0  0  0  0
 18 15  1  0  0  0  0
 19  5  1  0  0  0  0
 22 10  1  0  0  0  0
 25 12  1  0  0  0  0
 28 13  1  0  0  0  0
 29 13  1  0  0  0  0
 30 14  1  0  0  0  0
 31 14  1  0  0  0  0
 34 16  1  0  0  0  0
 37 17  1  0  0  0  0
 40 18  1  0  0  0  0
 41 18  1  0  0  0  0
 42 44  1  0  0  0  0
 44 45  2  0  0  0  0
 45 52  1  0  0  0  0
 46 45  1  0  0  0  0
 46 60  1  0  0  0  0
 47 46  2  0  0  0  0
 48 49  1  0  0  0  0
 48 47  1  0  0  0  0
 49 44  1  0  0  0  0
 50 43  1  0  0  0  0
 50 49  2  0  0  0  0
 51 43  1  0  0  0  0
 51 63  1  0  0  0  0
 51 10  1  0  0  0  0
 52 55  1  0  0  0  0
 52 54  1  0  0  0  0
 53 66  1  0  0  0  0
 53 52  1  0  0  0  0
 54 69  1  0  0  0  0
 54 70  1  0  0  0  0
 55 72  1  0  0  0  0
 55 71  1  0  0  0  0
 56 47  1  0  0  0  0
 56 59  1  0  0  0  0
 57 56  1  0  0  0  0
 57 75  1  0  0  0  0
 58 78  1  0  0  0  0
 58 56  1  0  0  0  0
 59 82  1  0  0  0  0
 59 81  1  0  0  0  0
 61 48  1  0  0  0  0
 62 50  1  0  0  0  0
 64 51  1  0  0  0  0
 65 53  1  0  0  0  0
 67 53  1  0  0  0  0
 68 54  1  0  0  0  0
 73 55  1  0  0  0  0
 74 57  1  0  0  0  0
 76 57  1  0  0  0  0
 77 58  1  0  0  0  0
 79 58  1  0  0  0  0
 80 59  1  0  0  0  0
M  CHG  1  42  -1
M  END
