1,2,3,4
 OpenBabel05122313063D

 54 57  0  0  1  0  0  0  0  0999 V2000
    3.0146    0.7763   -0.5455 O   0  5  0  0  0  0  0  0  0  0  0  0
    0.9890    2.1731    0.3994 O   0  5  0  0  0  0  0  0  0  0  0  0
    1.0200   -1.0826   -0.2541 N   0  0  0  0  0  2  0  0  0  0  0  0
   -0.8052    0.5780   -0.7295 N   0  0  0  0  0  2  0  0  0  0  0  0
    3.8527   -0.1706   -0.2443 C   0  0  0  0  0  0  0  0  0  0  0  0
    5.2521    0.1188   -0.2115 C   0  0  0  0  0  0  0  0  0  0  0  0
    5.5555    1.1481   -0.4509 H   0  0  0  0  0  0  0  0  0  0  0  0
    6.1760   -0.8637    0.1098 C   0  0  0  0  0  0  0  0  0  0  0  0
    7.2487   -0.6168    0.1292 H   0  0  0  0  0  0  0  0  0  0  0  0
    5.7550   -2.1892    0.4118 C   0  0  0  0  0  0  0  0  0  0  0  0
    6.4996   -2.9588    0.6626 H   0  0  0  0  0  0  0  0  0  0  0  0
    4.4069   -2.5051    0.3862 C   0  0  0  0  0  0  0  0  0  0  0  0
    4.0705   -3.5286    0.6167 H   0  0  0  0  0  0  0  0  0  0  0  0
    3.4200   -1.5222    0.0636 C   0  0  0  0  0  0  0  0  0  0  0  0
    2.0509   -1.8846    0.0400 C   0  0  0  0  0  3  0  0  0  0  0  0
    1.8046   -2.9353    0.2861 H   0  0  0  0  0  0  0  0  0  0  0  0
   -0.3274   -1.6962   -0.2307 C   0  0  1  0  0  0  0  0  0  0  0  0
   -0.2846   -2.7019   -0.7001 H   0  0  0  0  0  0  0  0  0  0  0  0
   -0.8422   -1.8452    1.1882 C   0  0  0  0  0  0  0  0  0  0  0  0
   -1.5560   -3.0014    1.5565 C   0  0  0  0  0  0  0  0  0  0  0  0
   -1.6965   -3.8075    0.8192 H   0  0  0  0  0  0  0  0  0  0  0  0
   -2.1055   -3.1236    2.8414 C   0  0  0  0  0  0  0  0  0  0  0  0
   -2.6630   -4.0325    3.1141 H   0  0  0  0  0  0  0  0  0  0  0  0
   -1.9445   -2.0878    3.7748 C   0  0  0  0  0  0  0  0  0  0  0  0
   -2.3757   -2.1804    4.7832 H   0  0  0  0  0  0  0  0  0  0  0  0
   -1.2191   -0.9379    3.4207 C   0  0  0  0  0  0  0  0  0  0  0  0
   -1.0780   -0.1267    4.1510 H   0  0  0  0  0  0  0  0  0  0  0  0
   -0.6667   -0.8173    2.1377 C   0  0  0  0  0  0  0  0  0  0  0  0
   -0.0893    0.0786    1.8657 H   0  0  0  0  0  0  0  0  0  0  0  0
   -1.1845   -0.7803   -1.1511 C   0  0  1  0  0  0  0  0  0  0  0  0
   -0.7472   -0.8874   -2.1674 H   0  0  0  0  0  0  0  0  0  0  0  0
   -2.6553   -1.1258   -1.2362 C   0  0  0  0  0  0  0  0  0  0  0  0
   -3.1715   -1.5430   -2.4799 C   0  0  0  0  0  0  0  0  0  0  0  0
   -2.4978   -1.5852   -3.3505 H   0  0  0  0  0  0  0  0  0  0  0  0
   -4.5206   -1.9001   -2.6220 C   0  0  0  0  0  0  0  0  0  0  0  0
   -4.9001   -2.2259   -3.6023 H   0  0  0  0  0  0  0  0  0  0  0  0
   -5.3822   -1.8354   -1.5167 C   0  0  0  0  0  0  0  0  0  0  0  0
   -6.4422   -2.1118   -1.6237 H   0  0  0  0  0  0  0  0  0  0  0  0
   -4.8853   -1.4110   -0.2740 C   0  0  0  0  0  0  0  0  0  0  0  0
   -5.5545   -1.3543    0.5979 H   0  0  0  0  0  0  0  0  0  0  0  0
   -3.5349   -1.0605   -0.1313 C   0  0  0  0  0  0  0  0  0  0  0  0
   -3.1660   -0.7325    0.8503 H   0  0  0  0  0  0  0  0  0  0  0  0
   -1.6893    1.4863   -0.4452 C   0  0  0  0  0  3  0  0  0  0  0  0
   -2.7627    1.2663   -0.5996 H   0  0  0  0  0  0  0  0  0  0  0  0
   -1.3547    2.7585    0.1537 C   0  0  0  0  0  0  0  0  0  0  0  0
   -2.3656    3.7179    0.3942 C   0  0  0  0  0  0  0  0  0  0  0  0
   -3.3869    3.5040    0.0405 H   0  0  0  0  0  0  0  0  0  0  0  0
   -2.0870    4.9085    1.0697 C   0  0  0  0  0  0  0  0  0  0  0  0
   -2.8808    5.6494    1.2419 H   0  0  0  0  0  0  0  0  0  0  0  0
   -0.7783    5.1421    1.5364 C   0  0  0  0  0  0  0  0  0  0  0  0
   -0.5464    6.0740    2.0751 H   0  0  0  0  0  0  0  0  0  0  0  0
    0.2372    4.2040    1.3246 C   0  0  0  0  0  0  0  0  0  0  0  0
    1.2635    4.3730    1.6804 H   0  0  0  0  0  0  0  0  0  0  0  0
   -0.0226    3.0080    0.6124 C   0  0  0  0  0  0  0  0  0  0  0  0
  1  5  1  0  0  0  0
  2 54  1  0  0  0  0
  3 17  1  0  0  0  0
  3 15  1  0  0  0  0
  4 43  1  0  0  0  0
  5  6  2  0  0  0  0
  5 14  1  0  0  0  0
  6  8  1  0  0  0  0
  7  6  1  0  0  0  0
  8  9  1  0  0  0  0
  8 10  2  0  0  0  0
 10 11  1  0  0  0  0
 12 10  1  0  0  0  0
 12 13  1  0  0  0  0
 14 12  2  0  0  0  0
 15 14  1  0  0  0  0
 15 16  1  0  0  0  0
 17 18  1  6  0  0  0
 17 19  1  0  0  0  0
 19 20  2  0  0  0  0
 19 28  1  0  0  0  0
 20 22  1  0  0  0  0
 21 20  1  0  0  0  0
 22 23  1  0  0  0  0
 22 24  2  0  0  0  0
 24 25  1  0  0  0  0
 26 24  1  0  0  0  0
 26 27  1  0  0  0  0
 28 26  2  0  0  0  0
 29 28  1  0  0  0  0
 30 31  1  6  0  0  0
 30  4  1  0  0  0  0
 30 17  1  0  0  0  0
 32 30  1  0  0  0  0
 32 41  1  0  0  0  0
 33 32  2  0  0  0  0
 34 33  1  0  0  0  0
 35 33  1  0  0  0  0
 35 37  2  0  0  0  0
 36 35  1  0  0  0  0
 37 39  1  0  0  0  0
 38 37  1  0  0  0  0
 39 41  2  0  0  0  0
 39 40  1  0  0  0  0
 41 42  1  0  0  0  0
 43 45  1  0  0  0  0
 44 43  1  0  0  0  0
 45 46  2  0  0  0  0
 45 54  1  0  0  0  0
 46 48  1  0  0  0  0
 47 46  1  0  0  0  0
 48 49  1  0  0  0  0
 48 50  2  0  0  0  0
 50 51  1  0  0  0  0
 52 50  1  0  0  0  0
 52 53  1  0  0  0  0
 54 52  2  0  0  0  0
M  CHG  2   1  -1   2  -1
M  END
