1,9,13
 OpenBabel05122313063D

 61 63  0  0  0  0  0  0  0  0999 V2000
   -0.0092   -1.4883   -0.0418 N   0  0  0  0  0  0  0  0  0  0  0  0
   -1.0449    1.6852    1.8494 C   0  0  0  0  0  0  0  0  0  0  0  0
   -0.9181    1.7274    2.9587 H   0  0  0  0  0  0  0  0  0  0  0  0
   -1.8529    0.9654    1.6220 H   0  0  0  0  0  0  0  0  0  0  0  0
    0.2286    1.2185    1.2445 N   0  0  0  0  0  0  0  0  0  0  0  0
   -1.4181    3.0775    1.3478 C   0  0  0  0  0  0  0  0  0  0  0  0
   -1.6096    3.0426    0.2505 H   0  0  0  0  0  0  0  0  0  0  0  0
   -2.3450    3.4126    1.8555 H   0  0  0  0  0  0  0  0  0  0  0  0
    1.9233    0.4644   -1.0058 O   0  5  0  0  0  0  0  0  0  0  0  0
    0.8042    3.6437    1.0177 C   0  0  0  0  0  0  0  0  0  0  0  0
    1.5706    4.3927    1.3008 H   0  0  0  0  0  0  0  0  0  0  0  0
    0.6843    3.6540   -0.0891 H   0  0  0  0  0  0  0  0  0  0  0  0
   -1.8773    0.5461   -0.7708 O   0  5  0  0  0  0  0  0  0  0  0  0
    1.2638    2.2630    1.4736 C   0  0  0  0  0  0  0  0  0  0  0  0
    2.1807    1.9645    0.9314 H   0  0  0  0  0  0  0  0  0  0  0  0
    1.4973    2.3000    2.5652 H   0  0  0  0  0  0  0  0  0  0  0  0
   -0.4074    4.0218    1.6561 O   0  0  0  0  0  0  0  0  0  0  0  0
    0.6822   -0.0346    1.8846 C   0  0  0  0  0  0  0  0  0  0  0  0
    0.5805    0.0474    2.9938 H   0  0  0  0  0  0  0  0  0  0  0  0
    1.7604   -0.1530    1.6742 H   0  0  0  0  0  0  0  0  0  0  0  0
   -0.0816   -1.2678    1.4200 C   0  0  0  0  0  0  0  0  0  0  0  0
    0.3032   -2.1595    1.9668 H   0  0  0  0  0  0  0  0  0  0  0  0
   -1.1537   -1.1715    1.6846 H   0  0  0  0  0  0  0  0  0  0  0  0
    1.1938   -2.2661   -0.4564 C   0  0  0  0  0  0  0  0  0  0  0  0
    1.1049   -2.3816   -1.5571 H   0  0  0  0  0  0  0  0  0  0  0  0
    1.1245   -3.2873   -0.0127 H   0  0  0  0  0  0  0  0  0  0  0  0
    2.5417   -1.6843   -0.1266 C   0  0  0  0  0  0  0  0  0  0  0  0
    2.8544   -0.3560   -0.5037 C   0  0  0  0  0  0  0  0  0  0  0  0
    4.1710    0.1510   -0.3208 C   0  0  0  0  0  0  0  0  0  0  0  0
    4.4951    1.5435   -0.7882 C   0  0  0  0  0  0  0  0  0  0  0  0
    3.8939    2.3094   -0.2542 H   0  0  0  0  0  0  0  0  0  0  0  0
    4.2485    1.6680   -1.8626 H   0  0  0  0  0  0  0  0  0  0  0  0
    5.5656    1.7795   -0.6387 H   0  0  0  0  0  0  0  0  0  0  0  0
    5.1297   -0.6836    0.2739 C   0  0  0  0  0  0  0  0  0  0  0  0
    6.1500   -0.2896    0.4143 H   0  0  0  0  0  0  0  0  0  0  0  0
    4.8368   -1.9971    0.6961 C   0  0  0  0  0  0  0  0  0  0  0  0
    5.8976   -2.8574    1.3363 C   0  0  0  0  0  0  0  0  0  0  0  0
    5.4856   -3.8268    1.6779 H   0  0  0  0  0  0  0  0  0  0  0  0
    6.3553   -2.3555    2.2142 H   0  0  0  0  0  0  0  0  0  0  0  0
    6.7243   -3.0766    0.6276 H   0  0  0  0  0  0  0  0  0  0  0  0
    3.5323   -2.4756    0.4807 C   0  0  0  0  0  0  0  0  0  0  0  0
    3.2760   -3.5048    0.7824 H   0  0  0  0  0  0  0  0  0  0  0  0
   -1.1871   -2.2712   -0.5218 C   0  0  0  0  0  0  0  0  0  0  0  0
   -1.0724   -2.3456   -1.6227 H   0  0  0  0  0  0  0  0  0  0  0  0
   -1.1223   -3.3064   -0.1115 H   0  0  0  0  0  0  0  0  0  0  0  0
   -2.5356   -1.6987   -0.1780 C   0  0  0  0  0  0  0  0  0  0  0  0
   -2.8184   -0.3259   -0.3796 C   0  0  0  0  0  0  0  0  0  0  0  0
   -4.1316    0.1748   -0.1479 C   0  0  0  0  0  0  0  0  0  0  0  0
   -4.4239    1.6275   -0.4060 C   0  0  0  0  0  0  0  0  0  0  0  0
   -5.5121    1.8268   -0.3857 H   0  0  0  0  0  0  0  0  0  0  0  0
   -4.0164    1.9469   -1.3862 H   0  0  0  0  0  0  0  0  0  0  0  0
   -3.9455    2.2825    0.3516 H   0  0  0  0  0  0  0  0  0  0  0  0
   -5.1189   -0.7152    0.2985 C   0  0  0  0  0  0  0  0  0  0  0  0
   -6.1360   -0.3243    0.4682 H   0  0  0  0  0  0  0  0  0  0  0  0
   -4.8588   -2.0809    0.5360 C   0  0  0  0  0  0  0  0  0  0  0  0
   -5.9501   -3.0025    1.0203 C   0  0  0  0  0  0  0  0  0  0  0  0
   -5.5634   -4.0188    1.2296 H   0  0  0  0  0  0  0  0  0  0  0  0
   -6.7604   -3.1014    0.2670 H   0  0  0  0  0  0  0  0  0  0  0  0
   -6.4235   -2.6216    1.9492 H   0  0  0  0  0  0  0  0  0  0  0  0
   -3.5564   -2.5461    0.2919 C   0  0  0  0  0  0  0  0  0  0  0  0
   -3.3218   -3.6104    0.4599 H   0  0  0  0  0  0  0  0  0  0  0  0
  1 21  1  0  0  0  0
  2  3  1  0  0  0  0
  4  2  1  0  0  0  0
  5 14  1  0  0  0  0
  5  2  1  0  0  0  0
  5 18  1  0  0  0  0
  6 17  1  0  0  0  0
  6  2  1  0  0  0  0
  6  8  1  0  0  0  0
  7  6  1  0  0  0  0
  9 28  1  0  0  0  0
 10 11  1  0  0  0  0
 10 14  1  0  0  0  0
 10 17  1  0  0  0  0
 12 10  1  0  0  0  0
 13 47  1  0  0  0  0
 14 16  1  0  0  0  0
 15 14  1  0  0  0  0
 18 19  1  0  0  0  0
 20 18  1  0  0  0  0
 21 23  1  0  0  0  0
 21 18  1  0  0  0  0
 21 22  1  0  0  0  0
 24 27  1  0  0  0  0
 24  1  1  0  0  0  0
 24 26  1  0  0  0  0
 25 24  1  0  0  0  0
 27 41  1  0  0  0  0
 28 29  1  0  0  0  0
 28 27  2  0  0  0  0
 29 34  2  0  0  0  0
 30 33  1  0  0  0  0
 30 29  1  0  0  0  0
 30 31  1  0  0  0  0
 32 30  1  0  0  0  0
 34 35  1  0  0  0  0
 34 36  1  0  0  0  0
 36 37  1  0  0  0  0
 37 38  1  0  0  0  0
 37 39  1  0  0  0  0
 40 37  1  0  0  0  0
 41 36  2  0  0  0  0
 41 42  1  0  0  0  0
 43 46  1  0  0  0  0
 43 45  1  0  0  0  0
 43  1  1  0  0  0  0
 44 43  1  0  0  0  0
 46 60  1  0  0  0  0
 47 46  2  0  0  0  0
 47 48  1  0  0  0  0
 48 53  2  0  0  0  0
 49 50  1  0  0  0  0
 49 48  1  0  0  0  0
 49 52  1  0  0  0  0
 51 49  1  0  0  0  0
 53 54  1  0  0  0  0
 53 55  1  0  0  0  0
 55 56  1  0  0  0  0
 56 57  1  0  0  0  0
 56 59  1  0  0  0  0
 58 56  1  0  0  0  0
 60 61  1  0  0  0  0
 60 55  2  0  0  0  0
M  CHG  2   9  -1  13  -1
M  END
