2,4,5,6
 OpenBabel05122313063D

 34 33  0  0  0  0  0  0  0  0999 V2000
    1.1742   -0.7938   -3.5022 O   0  5  0  0  0  0  0  0  0  0  0  0
    0.2032    0.4616   -1.9019 O   0  0  0  0  0  0  0  0  0  0  0  0
   -1.1728   -0.8261    3.4946 O   0  5  0  0  0  0  0  0  0  0  0  0
   -0.2035    0.4453    1.9059 O   0  0  0  0  0  0  0  0  0  0  0  0
    1.4485   -0.9411    0.1014 N   0  0  0  0  0  0  0  0  0  0  0  0
   -1.4495   -0.9392   -0.1094 N   0  0  0  0  0  0  0  0  0  0  0  0
    0.6522   -2.1525    0.3784 C   0  0  0  0  0  0  0  0  0  0  0  0
   -0.6539   -2.1487   -0.3966 C   0  0  0  0  0  0  0  0  0  0  0  0
    2.0347   -0.9483   -1.2580 C   0  0  0  0  0  0  0  0  0  0  0  0
    1.0679   -0.4107   -2.3353 C   0  0  0  0  0  0  0  0  0  0  0  0
   -2.0358   -0.9576    1.2498 C   0  0  0  0  0  0  0  0  0  0  0  0
   -1.0677   -0.4314    2.3315 C   0  0  0  0  0  0  0  0  0  0  0  0
    2.4602   -0.7179    1.1708 C   0  0  0  0  0  0  0  0  0  0  0  0
    3.4623   -1.8554    1.3696 C   0  0  0  0  0  0  0  0  0  0  0  0
   -2.4610   -0.7065   -1.1769 C   0  0  0  0  0  0  0  0  0  0  0  0
   -3.4639   -1.8416   -1.3852 C   0  0  0  0  0  0  0  0  0  0  0  0
    0.4510   -2.1880    1.4680 H   0  0  0  0  0  0  0  0  0  0  0  0
    1.2219   -3.0754    0.1192 H   0  0  0  0  0  0  0  0  0  0  0  0
   -1.2243   -3.0734   -0.1454 H   0  0  0  0  0  0  0  0  0  0  0  0
   -0.4526   -2.1750   -1.4864 H   0  0  0  0  0  0  0  0  0  0  0  0
    2.3980   -1.9561   -1.5563 H   0  0  0  0  0  0  0  0  0  0  0  0
    2.8834   -0.2387   -1.2526 H   0  0  0  0  0  0  0  0  0  0  0  0
   -2.4010   -1.9673    1.5390 H   0  0  0  0  0  0  0  0  0  0  0  0
   -2.8830   -0.2462    1.2505 H   0  0  0  0  0  0  0  0  0  0  0  0
    1.8915   -0.5058    2.0985 H   0  0  0  0  0  0  0  0  0  0  0  0
    2.9924    0.2122    0.8993 H   0  0  0  0  0  0  0  0  0  0  0  0
    4.2005   -1.5599    2.1423 H   0  0  0  0  0  0  0  0  0  0  0  0
    2.9848   -2.7941    1.7181 H   0  0  0  0  0  0  0  0  0  0  0  0
    4.0268   -2.0809    0.4411 H   0  0  0  0  0  0  0  0  0  0  0  0
   -1.8921   -0.4870   -2.1028 H   0  0  0  0  0  0  0  0  0  0  0  0
   -2.9925    0.2217   -0.8976 H   0  0  0  0  0  0  0  0  0  0  0  0
   -4.2019   -1.5391   -2.1553 H   0  0  0  0  0  0  0  0  0  0  0  0
   -2.9870   -2.7777   -1.7415 H   0  0  0  0  0  0  0  0  0  0  0  0
   -4.0285   -2.0745   -0.4585 H   0  0  0  0  0  0  0  0  0  0  0  0
  1 10  1  0  0  0  0
  4 12  2  0  0  0  0
  5  7  1  0  0  0  0
  5 13  1  0  0  0  0
  6 11  1  0  0  0  0
  7 17  1  0  0  0  0
  8 19  1  0  0  0  0
  8  6  1  0  0  0  0
  8  7  1  0  0  0  0
  9 22  1  0  0  0  0
  9  5  1  0  0  0  0
 10  2  2  0  0  0  0
 10  9  1  0  0  0  0
 11 24  1  0  0  0  0
 11 23  1  0  0  0  0
 11 12  1  0  0  0  0
 12  3  1  0  0  0  0
 13 14  1  0  0  0  0
 13 25  1  0  0  0  0
 14 28  1  0  0  0  0
 14 27  1  0  0  0  0
 15 31  1  0  0  0  0
 15  6  1  0  0  0  0
 16 15  1  0  0  0  0
 16 34  1  0  0  0  0
 18  7  1  0  0  0  0
 20  8  1  0  0  0  0
 21  9  1  0  0  0  0
 26 13  1  0  0  0  0
 29 14  1  0  0  0  0
 30 15  1  0  0  0  0
 32 16  1  0  0  0  0
 33 16  1  0  0  0  0
M  CHG  2   1  -1   3  -1
M  END
