1,2,4,5
 OpenBabel05122313063D

 40 41  0  0  1  0  0  0  0  0999 V2000
    1.0486   -1.5141   -1.6802 O   0  5  0  0  0  0  0  0  0  0  0  0
   -1.0492   -1.5091    1.6847 O   0  5  0  0  0  0  0  0  0  0  0  0
   -3.0814   -2.0597    2.5315 O   0  0  0  0  0  0  0  0  0  0  0  0
    2.2528   -0.1061    0.3229 N   0  0  0  0  0  2  0  0  0  0  0  0
   -2.2527   -0.1068   -0.3226 N   0  0  0  0  0  2  0  0  0  0  0  0
    0.4862    1.6526    1.4334 N   0  0  0  0  0  0  0  0  0  0  0  0
   -0.3107    1.7475    2.0718 H   0  0  0  0  0  0  0  0  0  0  0  0
    3.0805   -2.0671   -2.5259 O   0  0  0  0  0  0  0  0  0  0  0  0
    0.5701    2.7817    0.5078 C   0  0  0  0  0  0  0  0  0  0  0  0
    1.5393    2.7045   -0.0313 H   0  0  0  0  0  0  0  0  0  0  0  0
    0.5864    3.7677    1.0327 H   0  0  0  0  0  0  0  0  0  0  0  0
    4.1346    0.8609    1.4137 C   0  0  0  0  0  0  0  0  0  0  0  0
    4.5417    1.5214    2.1941 H   0  0  0  0  0  0  0  0  0  0  0  0
   -0.4857    1.6486   -1.4377 N   0  0  0  0  0  0  0  0  0  0  0  0
    0.3113    1.7416   -2.0762 H   0  0  0  0  0  0  0  0  0  0  0  0
   -2.3417   -1.5242    1.7009 C   0  0  0  0  0  0  0  0  0  0  0  0
   -2.7479    0.6865   -1.2845 C   0  0  1  0  0  3  0  0  0  0  0  0
   -4.1342    0.8572   -1.4168 C   0  0  0  0  0  0  0  0  0  0  0  0
   -4.5410    1.5154   -2.1992 H   0  0  0  0  0  0  0  0  0  0  0  0
    2.7483    0.6899    1.2823 C   0  0  1  0  0  3  0  0  0  0  0  0
    3.0367   -0.7393   -0.5640 C   0  0  0  0  0  0  0  0  0  0  0  0
    4.9835    0.1767    0.5237 C   0  0  0  0  0  0  0  0  0  0  0  0
    6.0750    0.2904    0.6128 H   0  0  0  0  0  0  0  0  0  0  0  0
    2.3411   -1.5294   -1.6965 C   0  0  0  0  0  0  0  0  0  0  0  0
   -1.7117    1.3564   -2.1786 C   0  0  0  0  0  0  0  0  0  0  0  0
   -1.4461    0.6533   -2.9973 H   0  0  0  0  0  0  0  0  0  0  0  0
   -2.1677    2.2565   -2.6570 H   0  0  0  0  0  0  0  0  0  0  0  0
   -4.4355   -0.6241    0.4866 C   0  0  0  0  0  0  0  0  0  0  0  0
   -5.0381   -1.1592    1.2337 H   0  0  0  0  0  0  0  0  0  0  0  0
   -4.9834    0.1756   -0.5252 C   0  0  0  0  0  0  0  0  0  0  0  0
   -6.0749    0.2890   -0.6149 H   0  0  0  0  0  0  0  0  0  0  0  0
    1.7124    1.3624    2.1748 C   0  0  0  0  0  0  0  0  0  0  0  0
    1.4469    0.6617    2.9956 H   0  0  0  0  0  0  0  0  0  0  0  0
    2.1686    2.2639    2.6505 H   0  0  0  0  0  0  0  0  0  0  0  0
   -3.0369   -0.7373    0.5659 C   0  0  0  0  0  0  0  0  0  0  0  0
    4.4353   -0.6259   -0.4855 C   0  0  0  0  0  0  0  0  0  0  0  0
    5.0377   -1.1631   -1.2312 H   0  0  0  0  0  0  0  0  0  0  0  0
   -0.5696    2.7802   -0.5153 C   0  0  0  0  0  0  0  0  0  0  0  0
   -1.5389    2.7045    0.0240 H   0  0  0  0  0  0  0  0  0  0  0  0
   -0.5859    3.7648   -1.0430 H   0  0  0  0  0  0  0  0  0  0  0  0
  2 16  1  0  0  0  0
  4 20  1  0  0  0  0
  5 35  1  0  0  0  0
  6  7  1  0  0  0  0
  6 32  1  0  0  0  0
  8 24  2  0  0  0  0
  9 11  1  0  0  0  0
  9  6  1  0  0  0  0
 10  9  1  0  0  0  0
 12 13  1  0  0  0  0
 14 38  1  0  0  0  0
 15 14  1  0  0  0  0
 16  3  2  0  0  0  0
 17 25  1  1  0  0  0
 17  5  1  0  0  0  0
 18 17  1  0  0  0  0
 18 30  2  0  0  0  0
 19 18  1  0  0  0  0
 20 12  1  0  0  0  0
 20 32  1  6  0  0  0
 21 36  2  0  0  0  0
 21  4  1  0  0  0  0
 22 23  1  0  0  0  0
 22 12  2  0  0  0  0
 24  1  1  0  0  0  0
 24 21  1  0  0  0  0
 25 14  1  0  0  0  0
 26 25  1  0  0  0  0
 27 25  1  0  0  0  0
 28 35  2  0  0  0  0
 28 29  1  0  0  0  0
 30 28  1  0  0  0  0
 31 30  1  0  0  0  0
 32 34  1  0  0  0  0
 32 33  1  0  0  0  0
 35 16  1  0  0  0  0
 36 22  1  0  0  0  0
 37 36  1  0  0  0  0
 38 39  1  0  0  0  0
 38  9  1  0  0  0  0
 40 38  1  0  0  0  0
M  CHG  2   1  -1   2  -1
M  END
