1,2,7,8
 OpenBabel05122313063D

 50 51  0  0  1  0  0  0  0  0999 V2000
   -1.2545    0.7486    0.0689 O   0  5  0  0  0  0  0  0  0  0  0  0
    1.2545    0.7486   -0.0688 O   0  0  0  0  0  1  0  0  0  0  0  0
   -5.4819    2.9463   -0.1114 O   0  0  0  0  0  0  0  0  0  0  0  0
   -5.2937   -1.8109    0.0518 O   0  0  0  0  0  0  0  0  0  0  0  0
    5.2937   -1.8109   -0.0516 O   0  0  0  0  0  0  0  0  0  0  0  0
    5.4819    2.9463    0.1114 O   0  0  0  0  0  0  0  0  0  0  0  0
   -1.2584   -1.9625    0.1574 N   0  0  0  0  0  2  0  0  0  0  0  0
    1.2584   -1.9625   -0.1575 N   0  0  0  0  0  2  0  0  0  0  0  0
   -2.5473    0.6618    0.0352 C   0  0  0  0  0  0  0  0  0  0  0  0
   -3.2991    1.8759   -0.0206 C   0  0  0  0  0  0  0  0  0  0  0  0
   -2.7227    2.8079   -0.0376 H   0  0  0  0  0  0  0  0  0  0  0  0
   -4.6918    1.8407   -0.0541 C   0  0  0  0  0  0  0  0  0  0  0  0
   -5.4117    0.6108   -0.0318 C   0  0  0  0  0  0  0  0  0  0  0  0
   -6.5057    0.6578   -0.0632 H   0  0  0  0  0  0  0  0  0  0  0  0
   -4.7024   -0.5821    0.0252 C   0  0  1  0  0  3  0  0  0  0  0  0
   -3.2639   -0.5952    0.0627 C   0  0  0  0  0  0  0  0  0  0  0  0
   -2.5687   -1.8280    0.1587 C   0  0  0  0  0  0  0  0  0  0  0  0
   -3.1809   -2.7443    0.2512 H   0  0  0  0  0  0  0  0  0  0  0  0
   -0.6574   -3.2770    0.3823 C   0  0  0  0  0  0  0  0  0  0  0  0
   -1.3337   -4.0966    0.0567 H   0  0  0  0  0  0  0  0  0  0  0  0
   -0.4567   -3.4086    1.4697 H   0  0  0  0  0  0  0  0  0  0  0  0
    0.6574   -3.2769   -0.3824 C   0  0  0  0  0  0  0  0  0  0  0  0
    1.3337   -4.0966   -0.0569 H   0  0  0  0  0  0  0  0  0  0  0  0
    0.4567   -3.4086   -1.4698 H   0  0  0  0  0  0  0  0  0  0  0  0
    2.5687   -1.8280   -0.1587 C   0  0  0  0  0  0  0  0  0  0  0  0
    3.1809   -2.7443   -0.2511 H   0  0  0  0  0  0  0  0  0  0  0  0
    3.2639   -0.5952   -0.0627 C   0  0  0  0  0  0  0  0  0  0  0  0
    4.7024   -0.5821   -0.0252 C   0  0  0  0  0  0  0  0  0  0  0  0
    5.4117    0.6108    0.0319 C   0  0  0  0  0  0  0  0  0  0  0  0
    6.5057    0.6578    0.0633 H   0  0  0  0  0  0  0  0  0  0  0  0
    4.6918    1.8407    0.0541 C   0  0  0  0  0  0  0  0  0  0  0  0
    3.2991    1.8759    0.0206 C   0  0  0  0  0  0  0  0  0  0  0  0
    2.7227    2.8079    0.0376 H   0  0  0  0  0  0  0  0  0  0  0  0
    2.5473    0.6618   -0.0351 C   0  0  1  0  0  3  0  0  0  0  0  0
   -4.8557    4.2159   -0.1382 C   0  0  0  0  0  0  0  0  0  0  0  0
   -5.6682    4.9647   -0.1841 H   0  0  0  0  0  0  0  0  0  0  0  0
   -4.1996    4.3332   -1.0292 H   0  0  0  0  0  0  0  0  0  0  0  0
   -4.2455    4.3940    0.7751 H   0  0  0  0  0  0  0  0  0  0  0  0
   -6.7063   -1.8774    0.0371 C   0  0  0  0  0  0  0  0  0  0  0  0
   -6.9708   -2.9506    0.0711 H   0  0  0  0  0  0  0  0  0  0  0  0
   -7.1300   -1.4270   -0.8881 H   0  0  0  0  0  0  0  0  0  0  0  0
   -7.1523   -1.3632    0.9175 H   0  0  0  0  0  0  0  0  0  0  0  0
    6.7063   -1.8774   -0.0371 C   0  0  0  0  0  0  0  0  0  0  0  0
    6.9708   -2.9506   -0.0712 H   0  0  0  0  0  0  0  0  0  0  0  0
    7.1301   -1.4270    0.8881 H   0  0  0  0  0  0  0  0  0  0  0  0
    7.1523   -1.3632   -0.9175 H   0  0  0  0  0  0  0  0  0  0  0  0
    4.8557    4.2159    0.1381 C   0  0  0  0  0  0  0  0  0  0  0  0
    5.6682    4.9647    0.1840 H   0  0  0  0  0  0  0  0  0  0  0  0
    4.1996    4.3333    1.0291 H   0  0  0  0  0  0  0  0  0  0  0  0
    4.2456    4.3939   -0.7751 H   0  0  0  0  0  0  0  0  0  0  0  0
  3 12  1  0  0  0  0
  5 43  1  0  0  0  0
  5 28  1  0  0  0  0
  6 47  1  0  0  0  0
  7 17  1  0  0  0  0
  7 19  1  0  0  0  0
  9 16  1  0  0  0  0
  9  1  1  0  0  0  0
 10  9  2  0  0  0  0
 11 10  1  0  0  0  0
 12 13  2  0  0  0  0
 12 10  1  0  0  0  0
 13 15  1  0  0  0  0
 14 13  1  0  0  0  0
 15  4  1  1  0  0  0
 15 16  1  0  0  0  0
 16 17  2  0  0  0  0
 17 18  1  0  0  0  0
 19 21  1  0  0  0  0
 20 19  1  0  0  0  0
 22  8  1  0  0  0  0
 22 23  1  0  0  0  0
 22 19  1  0  0  0  0
 24 22  1  0  0  0  0
 25  8  1  0  0  0  0
 25 27  2  0  0  0  0
 26 25  1  0  0  0  0
 27 34  1  0  0  0  0
 27 28  1  0  0  0  0
 28 29  2  0  0  0  0
 29 31  1  0  0  0  0
 29 30  1  0  0  0  0
 31  6  1  0  0  0  0
 32 33  1  0  0  0  0
 32 31  2  0  0  0  0
 34  2  1  6  0  0  0
 34 32  1  0  0  0  0
 35  3  1  0  0  0  0
 35 38  1  0  0  0  0
 36 35  1  0  0  0  0
 37 35  1  0  0  0  0
 39  4  1  0  0  0  0
 39 40  1  0  0  0  0
 39 42  1  0  0  0  0
 41 39  1  0  0  0  0
 43 45  1  0  0  0  0
 44 43  1  0  0  0  0
 46 43  1  0  0  0  0
 47 48  1  0  0  0  0
 47 49  1  0  0  0  0
 50 47  1  0  0  0  0
M  CHG  1   1  -1
M  END
