1,2,5,6
 OpenBabel05122313063D

 45 46  0  0  1  0  0  0  0  0999 V2000
    1.3537    0.5342    0.0571 O   0  0  0  0  0  1  0  0  0  0  0  0
   -1.1333    0.7260   -0.0582 O   0  5  0  0  0  0  0  0  0  0  0  0
    2.8299    2.6855   -0.0776 O   0  0  0  0  0  0  0  0  0  0  0  0
   -2.2677    3.0765    0.0769 O   0  0  0  0  0  0  0  0  0  0  0  0
    1.1604   -2.1626    0.1685 N   0  0  0  0  0  2  0  0  0  0  0  0
   -1.3562   -1.9925   -0.1621 N   0  0  0  0  0  2  0  0  0  0  0  0
    3.5903    3.8702   -0.1496 C   0  0  0  0  0  0  0  0  0  0  0  0
   -2.8409    4.3624    0.1482 C   0  0  0  0  0  0  0  0  0  0  0  0
    2.6316    0.3383    0.0278 C   0  0  1  0  0  3  0  0  0  0  0  0
    3.4959    1.5030   -0.0442 C   0  0  0  0  0  0  0  0  0  0  0  0
    4.8821    1.3574   -0.0764 C   0  0  0  0  0  0  0  0  0  0  0  0
    5.4877    0.0714   -0.0345 C   0  0  0  0  0  0  0  0  0  0  0  0
    4.6985   -1.0612    0.0394 C   0  0  0  0  0  0  0  0  0  0  0  0
    3.2734   -0.9504    0.0707 C   0  0  0  0  0  0  0  0  0  0  0  0
    2.4751   -2.1264    0.1719 C   0  0  0  0  0  0  0  0  0  0  0  0
    0.4635   -3.4243    0.3885 C   0  0  0  0  0  0  0  0  0  0  0  0
   -0.8461   -3.3623   -0.3928 C   0  0  1  0  0  0  0  0  0  0  0  0
   -1.7938   -4.5034   -0.0346 C   0  0  0  0  0  0  0  0  0  0  0  0
   -2.6468   -1.7390   -0.1713 C   0  0  0  0  0  0  0  0  0  0  0  0
   -3.2517   -0.4513   -0.0707 C   0  0  0  0  0  0  0  0  0  0  0  0
   -4.6775   -0.3457   -0.0425 C   0  0  0  0  0  3  0  0  0  0  0  0
   -5.2883    0.8923    0.0304 C   0  0  0  0  0  0  0  0  0  0  0  0
   -4.4967    2.0729    0.0734 C   0  0  0  0  0  0  0  0  0  0  0  0
   -3.1045    2.0080    0.0429 C   0  0  0  0  0  0  0  0  0  0  0  0
   -2.4256    0.7263   -0.0278 C   0  0  0  0  0  0  0  0  0  0  0  0
    5.5244    2.2469   -0.1344 H   0  0  0  0  0  0  0  0  0  0  0  0
    6.5841   -0.0091   -0.0598 H   0  0  0  0  0  0  0  0  0  0  0  0
    5.1525   -2.0638    0.0764 H   0  0  0  0  0  0  0  0  0  0  0  0
    3.0093   -3.0925    0.2733 H   0  0  0  0  0  0  0  0  0  0  0  0
    0.2333   -3.5374    1.4731 H   0  0  0  0  0  0  0  0  0  0  0  0
    1.0839   -4.2929    0.0783 H   0  0  0  0  0  0  0  0  0  0  0  0
   -0.5899   -3.4286   -1.4760 H   0  0  0  0  0  0  0  0  0  0  0  0
   -2.6842   -4.5347   -0.6916 H   0  0  0  0  0  0  0  0  0  0  0  0
   -2.1357   -4.4254    1.0176 H   0  0  0  0  0  0  0  0  0  0  0  0
   -1.2693   -5.4717   -0.1562 H   0  0  0  0  0  0  0  0  0  0  0  0
   -3.3412   -2.5927   -0.2767 H   0  0  0  0  0  0  0  0  0  0  0  0
   -5.2773   -1.2687   -0.0800 H   0  0  0  0  0  0  0  0  0  0  0  0
   -6.3844    0.9770    0.0540 H   0  0  0  0  0  0  0  0  0  0  0  0
   -4.9981    3.0488    0.1304 H   0  0  0  0  0  0  0  0  0  0  0  0
    2.8678    4.7074   -0.1662 H   0  0  0  0  0  0  0  0  0  0  0  0
    4.2134    3.9115   -1.0730 H   0  0  0  0  0  0  0  0  0  0  0  0
    4.2627    3.9896    0.7315 H   0  0  0  0  0  0  0  0  0  0  0  0
   -2.0005    5.0812    0.1657 H   0  0  0  0  0  0  0  0  0  0  0  0
   -3.4516    4.4971    1.0709 H   0  0  0  0  0  0  0  0  0  0  0  0
   -3.4867    4.5816   -0.7335 H   0  0  0  0  0  0  0  0  0  0  0  0
  2 25  1  0  0  0  0
  3 10  1  0  0  0  0
  4  8  1  0  0  0  0
  5 15  1  0  0  0  0
  5 16  1  0  0  0  0
  7  3  1  0  0  0  0
  7 42  1  0  0  0  0
  8 43  1  0  0  0  0
  8 44  1  0  0  0  0
  9  1  1  1  0  0  0
  9 14  1  0  0  0  0
 10  9  1  0  0  0  0
 11 10  2  0  0  0  0
 11 12  1  0  0  0  0
 12 13  2  0  0  0  0
 13 14  1  0  0  0  0
 13 28  1  0  0  0  0
 14 15  2  0  0  0  0
 15 29  1  0  0  0  0
 16 30  1  0  0  0  0
 17 32  1  6  0  0  0
 17  6  1  0  0  0  0
 17 18  1  0  0  0  0
 17 16  1  0  0  0  0
 18 34  1  0  0  0  0
 19  6  1  0  0  0  0
 19 20  2  0  0  0  0
 20 21  1  0  0  0  0
 20 25  1  0  0  0  0
 21 22  1  0  0  0  0
 22 38  1  0  0  0  0
 22 23  2  0  0  0  0
 23 39  1  0  0  0  0
 24 23  1  0  0  0  0
 24  4  1  0  0  0  0
 25 24  2  0  0  0  0
 26 11  1  0  0  0  0
 27 12  1  0  0  0  0
 31 16  1  0  0  0  0
 33 18  1  0  0  0  0
 35 18  1  0  0  0  0
 36 19  1  0  0  0  0
 37 21  1  0  0  0  0
 40  7  1  0  0  0  0
 41  7  1  0  0  0  0
 45  8  1  0  0  0  0
M  CHG  1   2  -1
M  END
