47,48,49,50
 OpenBabel05122313063D

 50 52  0  0  1  0  0  0  0  0999 V2000
    2.0650   -2.4291    2.4609 Br  0  0  0  0  0  0  0  0  0  0  0  0
    5.6916   -1.6994   -1.8915 Br  0  0  0  0  0  0  0  0  0  0  0  0
   -1.9160   -2.8695    1.6774 Br  0  0  0  0  0  0  0  0  0  0  0  0
   -6.2984   -1.6091   -1.7689 Br  0  0  0  0  0  0  0  0  0  0  0  0
    2.7686    0.7610   -0.1608 C   0  0  0  0  0  0  0  0  0  0  0  0
    2.1795   -0.0570    0.8658 C   0  0  0  0  0  0  0  0  0  0  0  0
    2.7855   -1.3368    1.0885 C   0  0  0  0  0  0  0  0  0  0  0  0
    3.8304   -1.8098    0.2947 C   0  0  0  0  0  0  0  0  0  0  0  0
    4.2428   -2.8122    0.4730 H   0  0  0  0  0  0  0  0  0  0  0  0
    4.3353   -1.0009   -0.7463 C   0  0  0  0  0  0  0  0  0  0  0  0
    3.8368    0.2827   -0.9555 C   0  0  0  0  0  3  0  0  0  0  0  0
    4.2584    0.9222   -1.7447 H   0  0  0  0  0  0  0  0  0  0  0  0
    2.3298    2.1279   -0.2884 C   0  0  0  0  0  0  0  0  0  0  0  0
    3.0405    2.8018   -0.7965 H   0  0  0  0  0  0  0  0  0  0  0  0
    1.0202    4.1114    0.1824 C   0  0  2  0  0  0  0  0  0  0  0  0
   -0.2248    4.4229   -0.7306 C   0  0  0  0  0  0  0  0  0  0  0  0
   -1.3941    3.9591    0.1821 C   0  0  2  0  0  0  0  0  0  0  0  0
   -2.3459    4.4255   -0.1530 H   0  0  0  0  0  0  0  0  0  0  0  0
   -1.0012    4.4056    1.6101 C   0  0  0  0  0  0  0  0  0  0  0  0
   -1.4601    5.3890    1.8324 H   0  0  0  0  0  0  0  0  0  0  0  0
   -1.3672    3.6817    2.3624 H   0  0  0  0  0  0  0  0  0  0  0  0
    0.5409    4.4884    1.6173 C   0  0  0  0  0  0  0  0  0  0  0  0
    0.9831    3.7986    2.3606 H   0  0  0  0  0  0  0  0  0  0  0  0
    0.8904    5.5096    1.8659 H   0  0  0  0  0  0  0  0  0  0  0  0
    2.2767    4.8926   -0.2092 C   0  0  0  0  0  0  0  0  0  0  0  0
    3.1344    4.6184    0.4367 H   0  0  0  0  0  0  0  0  0  0  0  0
    2.0966    5.9738   -0.0723 H   0  0  0  0  0  0  0  0  0  0  0  0
    2.5689    4.7374   -1.2673 H   0  0  0  0  0  0  0  0  0  0  0  0
   -0.1874    3.6984   -2.0800 C   0  0  0  0  0  0  0  0  0  0  0  0
   -0.1354    2.5988   -1.9678 H   0  0  0  0  0  0  0  0  0  0  0  0
    0.6873    4.0313   -2.6763 H   0  0  0  0  0  0  0  0  0  0  0  0
   -1.0945    3.9416   -2.6710 H   0  0  0  0  0  0  0  0  0  0  0  0
   -0.3781    5.9371   -0.9645 C   0  0  0  0  0  0  0  0  0  0  0  0
   -1.3534    6.1411   -1.4509 H   0  0  0  0  0  0  0  0  0  0  0  0
    0.4103    6.3207   -1.6406 H   0  0  0  0  0  0  0  0  0  0  0  0
   -0.3419    6.5267   -0.0271 H   0  0  0  0  0  0  0  0  0  0  0  0
   -3.1145    0.6573   -0.2357 C   0  0  0  0  0  0  0  0  0  0  0  0
   -2.3750   -0.2696    0.5770 C   0  0  0  0  0  0  0  0  0  0  0  0
   -2.8835   -1.6087    0.6370 C   0  0  0  0  0  0  0  0  0  0  0  0
   -4.0293   -2.0030   -0.0517 C   0  0  0  0  0  0  0  0  0  0  0  0
   -4.3768   -3.0429    0.0123 H   0  0  0  0  0  0  0  0  0  0  0  0
   -4.7327   -1.0590   -0.8328 C   0  0  0  0  0  0  0  0  0  0  0  0
   -4.2905    0.2576   -0.9186 C   0  0  0  0  0  3  0  0  0  0  0  0
   -4.8444    0.9921   -1.5211 H   0  0  0  0  0  0  0  0  0  0  0  0
   -2.7018    2.0320   -0.2714 C   0  0  0  0  0  0  0  0  0  0  0  0
   -3.4364    2.7609   -0.6679 H   0  0  0  0  0  0  0  0  0  0  0  0
    1.2207    2.6363    0.1831 N   0  0  0  0  0  2  0  0  0  0  0  0
   -1.5579    2.5085    0.1490 N   0  0  0  0  0  2  0  0  0  0  0  0
    1.1643    0.3393    1.5643 O   0  5  0  0  0  0  0  0  0  0  0  0
   -1.3104    0.0588    1.2434 O   0  5  0  0  0  0  0  0  0  0  0  0
  2 10  1  0  0  0  0
  4 42  1  0  0  0  0
  5  6  1  0  0  0  0
  6  7  2  0  0  0  0
  6 49  1  0  0  0  0
  7  1  1  0  0  0  0
  8  9  1  0  0  0  0
  8  7  1  0  0  0  0
 10  8  2  0  0  0  0
 11 10  1  0  0  0  0
 11  5  1  0  0  0  0
 12 11  1  0  0  0  0
 13  5  2  0  0  0  0
 13 47  1  0  0  0  0
 14 13  1  0  0  0  0
 15 47  1  6  0  0  0
 15 22  1  0  0  0  0
 16 17  1  0  0  0  0
 16 15  1  0  0  0  0
 17 18  1  6  0  0  0
 17 19  1  0  0  0  0
 19 22  1  0  0  0  0
 19 20  1  0  0  0  0
 19 21  1  0  0  0  0
 22 24  1  0  0  0  0
 22 23  1  0  0  0  0
 25 27  1  0  0  0  0
 25 15  1  0  0  0  0
 25 26  1  0  0  0  0
 28 25  1  0  0  0  0
 29 30  1  0  0  0  0
 29 16  1  0  0  0  0
 31 29  1  0  0  0  0
 32 29  1  0  0  0  0
 33 16  1  0  0  0  0
 33 36  1  0  0  0  0
 34 33  1  0  0  0  0
 35 33  1  0  0  0  0
 37 38  1  0  0  0  0
 38 39  2  0  0  0  0
 38 50  1  0  0  0  0
 39  3  1  0  0  0  0
 40 41  1  0  0  0  0
 40 39  1  0  0  0  0
 42 40  2  0  0  0  0
 43 42  1  0  0  0  0
 43 37  1  0  0  0  0
 44 43  1  0  0  0  0
 45 37  2  0  0  0  0
 45 48  1  0  0  0  0
 46 45  1  0  0  0  0
 48 17  1  0  0  0  0
M  CHG  2  49  -1  50  -1
M  END
