1,2,3,4
 OpenBabel05122313063D

 62 68  0  0  0  0  0  0  0  0999 V2000
    1.3726   -3.3364    0.2198 O   0  5  0  0  0  0  0  0  0  0  0  0
   -1.3727   -3.3364    0.2197 O   0  5  0  0  0  0  0  0  0  0  0  0
    1.3239   -0.4280   -0.0184 N   0  0  0  0  0  2  0  0  0  0  0  0
   -1.3239   -0.4280   -0.0185 N   0  0  0  0  0  2  0  0  0  0  0  0
    2.6601   -3.1356    0.0997 C   0  0  0  0  0  0  0  0  0  0  0  0
    3.4523   -4.3299    0.1302 C   0  0  0  0  0  0  0  0  0  0  0  0
    2.8953   -5.2678    0.2658 H   0  0  0  0  0  0  0  0  0  0  0  0
    4.8274   -4.3120   -0.0167 C   0  0  0  0  0  0  0  0  0  0  0  0
    5.3936   -5.2561    0.0049 H   0  0  0  0  0  0  0  0  0  0  0  0
    5.4987   -3.0802   -0.2071 C   0  0  0  0  0  0  0  0  0  0  0  0
    6.5886   -3.0495   -0.3480 H   0  0  0  0  0  0  0  0  0  0  0  0
    4.7640   -1.9052   -0.2206 C   0  0  0  0  0  0  0  0  0  0  0  0
    5.3142   -0.9711   -0.3897 H   0  0  0  0  0  0  0  0  0  0  0  0
    3.3426   -1.8598   -0.0540 C   0  0  0  0  0  0  0  0  0  0  0  0
    2.6827   -0.5522   -0.0455 C   0  0  0  0  0  0  0  0  0  0  0  0
    3.4375    0.6652   -0.0457 C   0  0  0  0  0  0  0  0  0  0  0  0
    4.5289    0.6060    0.0197 H   0  0  0  0  0  0  0  0  0  0  0  0
    2.8686    1.9330   -0.0663 C   0  0  0  0  0  0  0  0  0  0  0  0
    1.4345    2.0320   -0.1071 C   0  0  0  0  0  0  0  0  0  0  0  0
    0.7168    0.8094   -0.0551 C   0  0  0  0  0  0  0  0  0  0  0  0
   -0.7168    0.8094   -0.0551 C   0  0  0  0  0  0  0  0  0  0  0  0
   -1.4346    2.0320   -0.1070 C   0  0  0  0  0  0  0  0  0  0  0  0
   -0.6915    3.2489   -0.2281 C   0  0  0  0  0  0  0  0  0  0  0  0
   -1.2395    4.1940   -0.3410 H   0  0  0  0  0  0  0  0  0  0  0  0
    0.6915    3.2489   -0.2281 C   0  0  0  0  0  0  0  0  0  0  0  0
    1.2395    4.1940   -0.3411 H   0  0  0  0  0  0  0  0  0  0  0  0
   -2.8687    1.9330   -0.0660 C   0  0  0  0  0  0  0  0  0  0  0  0
   -3.4375    0.6652   -0.0456 C   0  0  0  0  0  0  0  0  0  0  0  0
   -4.5289    0.6059    0.0200 H   0  0  0  0  0  0  0  0  0  0  0  0
   -2.6827   -0.5522   -0.0457 C   0  0  0  0  0  0  0  0  0  0  0  0
   -3.3426   -1.8598   -0.0547 C   0  0  0  0  0  0  0  0  0  0  0  0
   -2.6601   -3.1356    0.0993 C   0  0  0  0  0  0  0  0  0  0  0  0
   -3.4523   -4.3298    0.1296 C   0  0  0  0  0  0  0  0  0  0  0  0
   -2.8955   -5.2678    0.2655 H   0  0  0  0  0  0  0  0  0  0  0  0
   -4.8274   -4.3119   -0.0179 C   0  0  0  0  0  0  0  0  0  0  0  0
   -5.3936   -5.2560    0.0035 H   0  0  0  0  0  0  0  0  0  0  0  0
   -5.4986   -3.0801   -0.2088 C   0  0  0  0  0  0  0  0  0  0  0  0
   -6.5884   -3.0494   -0.3503 H   0  0  0  0  0  0  0  0  0  0  0  0
   -4.7638   -1.9052   -0.2220 C   0  0  0  0  0  0  0  0  0  0  0  0
   -5.3139   -0.9710   -0.3915 H   0  0  0  0  0  0  0  0  0  0  0  0
    3.7453    3.1307   -0.0359 C   0  0  0  0  0  0  0  0  0  0  0  0
    4.8339    3.2362   -0.9303 C   0  0  0  0  0  0  0  0  0  0  0  0
    4.9929    2.4442   -1.6779 H   0  0  0  0  0  0  0  0  0  0  0  0
    5.6884    4.3465   -0.8899 C   0  0  0  0  0  0  0  0  0  0  0  0
    6.5251    4.4168   -1.6014 H   0  0  0  0  0  0  0  0  0  0  0  0
    5.4746    5.3676    0.0493 C   0  0  0  0  0  0  0  0  0  0  0  0
    6.1460    6.2388    0.0818 H   0  0  0  0  0  0  0  0  0  0  0  0
    4.4014    5.2704    0.9495 C   0  0  0  0  0  0  0  0  0  0  0  0
    4.2361    6.0599    1.6982 H   0  0  0  0  0  0  0  0  0  0  0  0
    3.5420    4.1639    0.9074 C   0  0  0  0  0  0  0  0  0  0  0  0
    2.7185    4.0800    1.6322 H   0  0  0  0  0  0  0  0  0  0  0  0
   -3.7453    3.1307   -0.0353 C   0  0  0  0  0  0  0  0  0  0  0  0
   -3.5418    4.1637    0.9081 C   0  0  0  0  0  0  0  0  0  0  0  0
   -2.7181    4.0797    1.6327 H   0  0  0  0  0  0  0  0  0  0  0  0
   -4.4012    5.2702    0.9506 C   0  0  0  0  0  0  0  0  0  0  0  0
   -4.2357    6.0597    1.6993 H   0  0  0  0  0  0  0  0  0  0  0  0
   -5.4745    5.3675    0.0507 C   0  0  0  0  0  0  0  0  0  0  0  0
   -6.1460    6.2387    0.0834 H   0  0  0  0  0  0  0  0  0  0  0  0
   -5.6886    4.3466   -0.8887 C   0  0  0  0  0  0  0  0  0  0  0  0
   -6.5255    4.4170   -1.5999 H   0  0  0  0  0  0  0  0  0  0  0  0
   -4.8341    3.2363   -0.9293 C   0  0  0  0  0  0  0  0  0  0  0  0
   -4.9933    2.4444   -1.6770 H   0  0  0  0  0  0  0  0  0  0  0  0
  5  6  1  0  0  0  0
  5  1  1  0  0  0  0
  6  7  1  0  0  0  0
  8  9  1  0  0  0  0
  8  6  2  0  0  0  0
 10  8  1  0  0  0  0
 11 10  1  0  0  0  0
 12 10  2  0  0  0  0
 12 14  1  0  0  0  0
 13 12  1  0  0  0  0
 14 15  1  0  0  0  0
 14  5  2  0  0  0  0
 15  3  1  0  0  0  0
 16 15  2  0  0  0  0
 16 17  1  0  0  0  0
 18 16  1  0  0  0  0
 18 41  1  0  0  0  0
 19 18  2  0  0  0  0
 19 20  1  0  0  0  0
 20  3  1  0  0  0  0
 21 20  2  0  0  0  0
 21  4  1  0  0  0  0
 22 27  2  0  0  0  0
 22 21  1  0  0  0  0
 23 22  1  0  0  0  0
 24 23  1  0  0  0  0
 25 23  2  0  0  0  0
 25 19  1  0  0  0  0
 26 25  1  0  0  0  0
 27 28  1  0  0  0  0
 27 52  1  0  0  0  0
 28 29  1  0  0  0  0
 30 28  2  0  0  0  0
 30  4  1  0  0  0  0
 31 30  1  0  0  0  0
 31 32  1  0  0  0  0
 32 33  2  0  0  0  0
 32  2  1  0  0  0  0
 33 34  1  0  0  0  0
 35 36  1  0  0  0  0
 35 33  1  0  0  0  0
 37 35  2  0  0  0  0
 38 37  1  0  0  0  0
 39 37  1  0  0  0  0
 39 31  2  0  0  0  0
 40 39  1  0  0  0  0
 41 50  1  0  0  0  0
 42 44  1  0  0  0  0
 42 41  2  0  0  0  0
 43 42  1  0  0  0  0
 44 46  2  0  0  0  0
 45 44  1  0  0  0  0
 46 47  1  0  0  0  0
 46 48  1  0  0  0  0
 48 49  1  0  0  0  0
 50 48  2  0  0  0  0
 50 51  1  0  0  0  0
 52 53  1  0  0  0  0
 53 55  2  0  0  0  0
 53 54  1  0  0  0  0
 55 56  1  0  0  0  0
 57 58  1  0  0  0  0
 57 55  1  0  0  0  0
 59 57  2  0  0  0  0
 60 59  1  0  0  0  0
 61 59  1  0  0  0  0
 61 52  2  0  0  0  0
 62 61  1  0  0  0  0
M  CHG  2   1  -1   2  -1
M  END
