1,4,19,25
 OpenBabel05122313063D

 25 26  0  0  0  0  0  0  0  0999 V2000
   -2.1998   -0.4377    0.6892 N   0  0  0  0  0  2  0  0  0  0  0  0
   -2.7379   -1.3124   -0.1907 C   0  0  0  0  0  0  0  0  0  0  0  0
   -1.9474   -1.5497   -1.3916 C   0  0  0  0  0  0  0  0  0  0  0  0
   -0.8078   -0.9184   -1.5165 O   0  5  0  0  0  0  0  0  0  0  0  0
   -2.4970   -2.4500   -2.3291 C   0  0  0  0  0  0  0  0  0  0  0  0
   -1.9287   -2.6590   -3.2479 H   0  0  0  0  0  0  0  0  0  0  0  0
   -3.7437   -3.0793   -2.0947 C   0  0  0  0  0  0  0  0  0  0  0  0
   -4.1275   -3.7799   -2.8538 H   0  0  0  0  0  0  0  0  0  0  0  0
   -4.5004   -2.8485   -0.9438 C   0  0  0  0  0  3  0  0  0  0  0  0
   -5.4665   -3.3514   -0.7876 H   0  0  0  0  0  0  0  0  0  0  0  0
   -4.0057   -1.9479    0.0375 C   0  0  0  0  0  0  0  0  0  0  0  0
   -4.6624   -1.6005    1.2579 C   0  0  0  0  0  0  0  0  0  0  0  0
   -5.6349   -2.0641    1.4903 H   0  0  0  0  0  0  0  0  0  0  0  0
   -4.0984   -0.6904    2.1393 C   0  0  0  0  0  0  0  0  0  0  0  0
   -4.6090   -0.4156    3.0740 H   0  0  0  0  0  0  0  0  0  0  0  0
   -2.8368   -0.0954    1.8260 C   0  0  0  0  0  0  0  0  0  0  0  0
   -2.1764    0.9036    2.6478 C   0  0  0  0  0  3  0  0  0  0  0  0
   -2.6183    1.2570    3.5977 H   0  0  0  0  0  0  0  0  0  0  0  0
   -1.0397    1.3947    2.2018 N   0  0  0  0  0  2  0  0  0  0  0  0
   -0.3929    2.3397    2.8824 N   0  0  0  0  0  0  0  0  0  0  0  0
    0.7372    2.7016    2.2097 C   0  0  0  0  0  0  0  0  0  0  0  0
    1.4617    3.6978    2.8047 N   0  0  0  0  0  0  0  0  0  0  0  0
    1.2206    3.9471    3.7628 H   0  0  0  0  0  0  0  0  0  0  0  0
    2.4113    3.8543    2.4740 H   0  0  0  0  0  0  0  0  0  0  0  0
    1.1388    2.2156    1.0946 O   0  5  0  0  0  0  0  0  0  0  0  0
  1 16  1  0  0  0  0
  2 11  1  0  0  0  0
  2  1  1  0  0  0  0
  3  2  2  0  0  0  0
  4  3  1  0  0  0  0
  5  7  2  0  0  0  0
  5  3  1  0  0  0  0
  6  5  1  0  0  0  0
  7  9  1  0  0  0  0
  8  7  1  0  0  0  0
  9 10  1  0  0  0  0
  9 11  1  0  0  0  0
 11 12  2  0  0  0  0
 12 13  1  0  0  0  0
 12 14  1  0  0  0  0
 14 15  1  0  0  0  0
 16 14  2  0  0  0  0
 16 17  1  0  0  0  0
 17 18  1  0  0  0  0
 19 17  1  0  0  0  0
 19 20  1  0  0  0  0
 21 22  1  0  0  0  0
 21 20  2  0  0  0  0
 22 23  1  0  0  0  0
 24 22  1  0  0  0  0
 25 21  1  0  0  0  0
M  CHG  2   4  -1  25  -1
M  END
