5,6,7,8
 OpenBabel05122313063D

 40 41  0  0  0  0  0  0  0  0999 V2000
   -1.4740   -3.8280   -0.1662 Cl  0  0  0  0  0  0  0  0  0  0  0  0
   -6.3433   -1.5755   -1.0325 Cl  0  0  0  0  0  0  0  0  0  0  0  0
    3.7090   -3.0755   -0.7213 Cl  0  0  0  0  0  0  0  0  0  0  0  0
    7.7487    0.5315   -0.2314 Cl  0  0  0  0  0  0  0  0  0  0  0  0
   -0.4524   -1.1471   -0.7882 O   0  5  0  0  0  0  0  0  0  0  0  0
    1.9851   -0.7557   -0.3323 O   0  5  0  0  0  0  0  0  0  0  0  0
   -0.7261    1.4914   -1.4693 N   0  0  0  0  0  2  0  0  0  0  0  0
    1.4735    1.8736    0.1440 N   0  0  0  0  0  2  0  0  0  0  0  0
   -1.7422   -1.2038   -0.8787 C   0  0  0  0  0  0  0  0  0  0  0  0
   -2.4304   -2.4359   -0.5956 C   0  0  0  0  0  0  0  0  0  0  0  0
   -3.8178   -2.5450   -0.6395 C   0  0  0  0  0  0  0  0  0  0  0  0
   -4.2976   -3.4998   -0.3866 H   0  0  0  0  0  0  0  0  0  0  0  0
   -4.5978   -1.4278   -1.0139 C   0  0  0  0  0  0  0  0  0  0  0  0
   -3.9880   -0.2272   -1.3542 C   0  0  0  0  0  0  0  0  0  0  0  0
   -4.5913    0.6401   -1.6568 H   0  0  0  0  0  0  0  0  0  0  0  0
   -2.5771   -0.0998   -1.2781 C   0  0  0  0  0  0  0  0  0  0  0  0
   -1.9703    1.1369   -1.6770 C   0  0  0  0  0  3  0  0  0  0  0  0
   -2.6185    1.8498   -2.2202 H   0  0  0  0  0  0  0  0  0  0  0  0
   -0.3099    2.7710   -2.0828 C   0  0  0  0  0  0  0  0  0  0  0  0
   -0.8681    2.8901   -3.0347 H   0  0  0  0  0  0  0  0  0  0  0  0
    0.7634    2.6933   -2.3483 H   0  0  0  0  0  0  0  0  0  0  0  0
   -0.5728    3.9836   -1.1825 C   0  0  0  0  0  0  0  0  0  0  0  0
   -0.5745    4.8905   -1.8232 H   0  0  0  0  0  0  0  0  0  0  0  0
   -1.5976    3.8855   -0.7600 H   0  0  0  0  0  0  0  0  0  0  0  0
    0.4473    4.1713   -0.0617 C   0  0  0  0  0  0  0  0  0  0  0  0
    1.4260    4.5009   -0.4777 H   0  0  0  0  0  0  0  0  0  0  0  0
    0.1040    4.9901    0.6050 H   0  0  0  0  0  0  0  0  0  0  0  0
    0.6882    2.9366    0.8109 C   0  0  0  0  0  0  0  0  0  0  0  0
    1.2364    3.2358    1.7289 H   0  0  0  0  0  0  0  0  0  0  0  0
   -0.2622    2.4849    1.1547 H   0  0  0  0  0  0  0  0  0  0  0  0
    2.7769    1.9345    0.2834 C   0  0  0  0  0  3  0  0  0  0  0  0
    3.1917    2.8324    0.7849 H   0  0  0  0  0  0  0  0  0  0  0  0
    3.7182    0.9134   -0.0739 C   0  0  0  0  0  0  0  0  0  0  0  0
    5.1100    1.1986   -0.0377 C   0  0  0  0  0  0  0  0  0  0  0  0
    5.4522    2.2245    0.1606 H   0  0  0  0  0  0  0  0  0  0  0  0
    6.0362    0.1856   -0.2501 C   0  0  0  0  0  0  0  0  0  0  0  0
    5.6037   -1.1438   -0.4703 C   0  0  0  0  0  0  0  0  0  0  0  0
    6.3369   -1.9469   -0.6236 H   0  0  0  0  0  0  0  0  0  0  0  0
    4.2441   -1.4381   -0.4826 C   0  0  0  0  0  0  0  0  0  0  0  0
    3.2357   -0.4240   -0.3180 C   0  0  0  0  0  0  0  0  0  0  0  0
  2 13  1  0  0  0  0
  3 39  1  0  0  0  0
  6 40  1  0  0  0  0
  8 31  1  0  0  0  0
  8 28  1  0  0  0  0
  9  5  1  0  0  0  0
  9 10  1  0  0  0  0
 10  1  1  0  0  0  0
 11 10  2  0  0  0  0
 11 12  1  0  0  0  0
 13 11  1  0  0  0  0
 14 16  1  0  0  0  0
 14 13  2  0  0  0  0
 15 14  1  0  0  0  0
 16  9  2  0  0  0  0
 17  7  1  0  0  0  0
 17 16  1  0  0  0  0
 18 17  1  0  0  0  0
 19  7  1  0  0  0  0
 19 22  1  0  0  0  0
 20 19  1  0  0  0  0
 21 19  1  0  0  0  0
 22 24  1  0  0  0  0
 22 25  1  0  0  0  0
 23 22  1  0  0  0  0
 25 27  1  0  0  0  0
 25 28  1  0  0  0  0
 26 25  1  0  0  0  0
 28 30  1  0  0  0  0
 28 29  1  0  0  0  0
 31 32  1  0  0  0  0
 33 34  1  0  0  0  0
 33 31  1  0  0  0  0
 34 35  1  0  0  0  0
 36  4  1  0  0  0  0
 36 34  2  0  0  0  0
 37 36  1  0  0  0  0
 38 37  1  0  0  0  0
 39 37  2  0  0  0  0
 39 40  1  0  0  0  0
 40 33  2  0  0  0  0
M  CHG  2   5  -1   6  -1
M  END
