2,3,21,33
 OpenBabel05122313063D

 37 38  0  0  0  0  0  0  0  0999 V2000
    6.4271   -1.9559   -1.0649 Cl  0  0  0  0  0  0  0  0  0  0  0  0
    1.3011   -0.2364    1.2914 O   0  5  0  0  0  0  0  0  0  0  0  0
    1.4090    1.9931   -0.2438 N   0  0  0  0  0  2  0  0  0  0  0  0
    2.4335   -0.5913    0.7567 C   0  0  0  0  0  0  0  0  0  0  0  0
    3.0614   -1.8091    1.1579 C   0  0  0  0  0  0  0  0  0  0  0  0
    2.5500   -2.4189    1.9164 H   0  0  0  0  0  0  0  0  0  0  0  0
    4.2686   -2.2183    0.6002 C   0  0  0  0  0  0  0  0  0  0  0  0
    4.7326   -3.1665    0.9084 H   0  0  0  0  0  0  0  0  0  0  0  0
    4.9137   -1.4196   -0.3754 C   0  0  0  0  0  0  0  0  0  0  0  0
    4.3485   -0.2126   -0.7742 C   0  0  0  0  0  3  0  0  0  0  0  0
    4.8631    0.4151   -1.5167 H   0  0  0  0  0  0  0  0  0  0  0  0
    3.1099    0.2135   -0.2260 C   0  0  0  0  0  0  0  0  0  0  0  0
    2.5944    1.5116   -0.5457 C   0  0  0  0  0  0  0  0  0  0  0  0
    3.2942    2.1975   -1.0645 H   0  0  0  0  0  0  0  0  0  0  0  0
    1.2330    3.4298   -0.4582 C   0  0  0  0  0  0  0  0  0  0  0  0
    2.0991    3.8277   -1.0303 H   0  0  0  0  0  0  0  0  0  0  0  0
    1.2509    3.9237    0.5397 H   0  0  0  0  0  0  0  0  0  0  0  0
   -0.0700    3.7761   -1.1596 C   0  0  0  0  0  0  0  0  0  0  0  0
   -0.0906    4.8710   -1.3379 H   0  0  0  0  0  0  0  0  0  0  0  0
   -0.1187    3.2774   -2.1506 H   0  0  0  0  0  0  0  0  0  0  0  0
   -1.1634   -0.5085    1.0072 O   0  5  0  0  0  0  0  0  0  0  0  0
   -2.3579   -0.7809    0.5476 C   0  0  0  0  0  0  0  0  0  0  0  0
   -2.9433   -2.0493    0.8342 C   0  0  0  0  0  0  0  0  0  0  0  0
   -2.3550   -2.7591    1.4331 H   0  0  0  0  0  0  0  0  0  0  0  0
   -4.2072   -2.3848    0.3632 C   0  0  0  0  0  0  0  0  0  0  0  0
   -4.6401   -3.3718    0.5812 H   0  0  0  0  0  0  0  0  0  0  0  0
   -4.9533   -1.4575   -0.4048 C   0  0  0  0  0  0  0  0  0  0  0  0
   -6.5415   -1.8999   -0.9847 Cl  0  0  0  0  0  0  0  0  0  0  0  0
   -4.4270   -0.2028   -0.6857 C   0  0  0  0  0  3  0  0  0  0  0  0
   -5.0149    0.5211   -1.2692 H   0  0  0  0  0  0  0  0  0  0  0  0
   -3.1305    0.1517   -0.2228 C   0  0  0  0  0  0  0  0  0  0  0  0
   -2.6437    1.4783   -0.4473 C   0  0  0  0  0  0  0  0  0  0  0  0
   -1.4444    1.9489   -0.1873 N   0  0  0  0  0  2  0  0  0  0  0  0
   -1.2841    3.3965   -0.3258 C   0  0  0  0  0  0  0  0  0  0  0  0
   -2.2066    3.8284   -0.7703 H   0  0  0  0  0  0  0  0  0  0  0  0
   -1.1825    3.8277    0.6956 H   0  0  0  0  0  0  0  0  0  0  0  0
   -3.3818    2.1991   -0.8534 H   0  0  0  0  0  0  0  0  0  0  0  0
  1  9  1  0  0  0  0
  4  5  2  0  0  0  0
  4  2  1  0  0  0  0
  5  6  1  0  0  0  0
  7  8  1  0  0  0  0
  7  5  1  0  0  0  0
  9  7  2  0  0  0  0
 10  9  1  0  0  0  0
 10 12  1  0  0  0  0
 11 10  1  0  0  0  0
 12  4  1  0  0  0  0
 13  3  1  0  0  0  0
 13 12  2  0  0  0  0
 14 13  1  0  0  0  0
 15  3  1  0  0  0  0
 15 17  1  0  0  0  0
 16 15  1  0  0  0  0
 18 15  1  0  0  0  0
 18 34  1  0  0  0  0
 19 18  1  0  0  0  0
 20 18  1  0  0  0  0
 22 23  2  0  0  0  0
 22 21  1  0  0  0  0
 23 24  1  0  0  0  0
 25 26  1  0  0  0  0
 25 23  1  0  0  0  0
 27 25  2  0  0  0  0
 28 27  1  0  0  0  0
 29 27  1  0  0  0  0
 29 31  1  0  0  0  0
 30 29  1  0  0  0  0
 31 22  1  0  0  0  0
 32 31  2  0  0  0  0
 32 33  1  0  0  0  0
 34 33  1  0  0  0  0
 34 36  1  0  0  0  0
 35 34  1  0  0  0  0
 37 32  1  0  0  0  0
M  CHG  2   2  -1  21  -1
M  END
