1,2,23,24
 OpenBabel05122313063D

 43 45  0  0  1  0  0  0  0  0999 V2000
   -0.3648    1.1671   -1.3068 N   0  0  0  0  0  2  0  0  0  0  0  0
    1.0932    0.3344    0.8227 N   0  0  0  0  0  2  0  0  0  0  0  0
   -1.1301    1.5566   -2.3256 C   0  0  0  0  0  0  0  0  0  0  0  0
   -1.9820    0.9046   -2.5816 H   0  0  0  0  0  0  0  0  0  0  0  0
   -0.8740    2.7395   -3.0557 C   0  0  0  0  0  0  0  0  0  0  0  0
   -1.5329    3.0213   -3.8896 H   0  0  0  0  0  0  0  0  0  0  0  0
    0.2221    3.5205   -2.7046 C   0  0  0  0  0  0  0  0  0  0  0  0
    0.4545    4.4438   -3.2586 H   0  0  0  0  0  0  0  0  0  0  0  0
    1.0652    3.1293   -1.6298 C   0  0  0  0  0  0  0  0  0  0  0  0
    2.2163    3.8578   -1.2073 C   0  0  0  0  0  3  0  0  0  0  0  0
    2.4784    4.7931   -1.7238 H   0  0  0  0  0  0  0  0  0  0  0  0
    3.0060    3.3610   -0.1802 C   0  0  0  0  0  0  0  0  0  0  0  0
    3.9233    3.8990    0.1096 H   0  0  0  0  0  0  0  0  0  0  0  0
    2.7017    2.1516    0.4954 C   0  0  0  0  0  0  0  0  0  0  0  0
    3.6461    1.5340    1.4737 C   0  0  1  0  0  0  0  0  0  0  0  0
    4.2316    2.3008    2.0173 H   0  0  0  0  0  0  0  0  0  0  0  0
    2.9444    0.5749    2.3615 C   0  0  0  0  0  0  0  0  0  0  0  0
    3.4324    0.2510    3.2918 H   0  0  0  0  0  0  0  0  0  0  0  0
    1.7919   -0.0403    1.9380 C   0  0  0  0  0  0  0  0  0  0  0  0
    1.3462   -0.8782    2.4994 H   0  0  0  0  0  0  0  0  0  0  0  0
    1.5198    1.4424    0.1604 C   0  0  0  0  0  0  0  0  0  0  0  0
    0.7137    1.9165   -0.9417 C   0  0  0  0  0  0  0  0  0  0  0  0
   -0.0737   -2.4739    1.0136 O   0  5  0  0  0  0  0  0  0  0  0  0
    0.2337   -2.2345   -1.1806 O   0  5  0  0  0  0  0  0  0  0  0  0
    0.4080   -2.8851   -0.0910 C   0  0  0  0  0  3  0  0  0  0  0  0
    1.3066   -4.1119   -0.0965 C   0  0  0  0  0  0  0  0  0  0  0  0
    1.4279   -4.4656   -1.1396 H   0  0  0  0  0  0  0  0  0  0  0  0
    0.8259   -4.9131    0.5011 H   0  0  0  0  0  0  0  0  0  0  0  0
    2.6781   -3.7652    0.5185 C   0  0  0  0  0  0  0  0  0  0  0  0
    3.2910   -4.6915    0.5812 H   0  0  0  0  0  0  0  0  0  0  0  0
    2.5133   -3.4273    1.5649 H   0  0  0  0  0  0  0  0  0  0  0  0
    3.4432   -2.6836   -0.2502 C   0  0  0  0  0  0  0  0  0  0  0  0
    3.6190   -3.0220   -1.2960 H   0  0  0  0  0  0  0  0  0  0  0  0
    2.8072   -1.7787   -0.3447 H   0  0  0  0  0  0  0  0  0  0  0  0
    4.7771   -2.3027    0.4000 C   0  0  0  0  0  0  0  0  0  0  0  0
    4.5938   -1.9755    1.4472 H   0  0  0  0  0  0  0  0  0  0  0  0
    5.4370   -3.1961    0.4622 H   0  0  0  0  0  0  0  0  0  0  0  0
    5.5339   -1.1764   -0.3346 C   0  0  0  0  0  0  0  0  0  0  0  0
    5.7232   -1.4582   -1.3895 H   0  0  0  0  0  0  0  0  0  0  0  0
    6.5028   -0.9875    0.1697 H   0  0  0  0  0  0  0  0  0  0  0  0
    4.6973    0.0970   -0.3343 C   0  0  0  0  0  0  0  0  0  0  0  0
    3.9743    0.4233   -1.2621 O   0  0  0  0  0  0  0  0  0  0  0  0
    4.8256    0.7487    0.8407 O   0  0  0  0  0  0  0  0  0  0  0  0
  1 22  1  0  0  0  0
  2 19  1  0  0  0  0
  3  1  1  0  0  0  0
  4  3  1  0  0  0  0
  5  7  1  0  0  0  0
  5  3  2  0  0  0  0
  6  5  1  0  0  0  0
  7  9  2  0  0  0  0
  8  7  1  0  0  0  0
  9 10  1  0  0  0  0
  9 22  1  0  0  0  0
 10 12  1  0  0  0  0
 11 10  1  0  0  0  0
 12 13  1  0  0  0  0
 12 14  2  0  0  0  0
 14 15  1  0  0  0  0
 15 16  1  1  0  0  0
 15 17  1  0  0  0  0
 17 18  1  0  0  0  0
 19 17  2  0  0  0  0
 19 20  1  0  0  0  0
 21 14  1  0  0  0  0
 21  2  1  0  0  0  0
 22 21  2  0  0  0  0
 24 25  1  0  0  0  0
 25 23  1  0  0  0  0
 26 25  1  0  0  0  0
 26 28  1  0  0  0  0
 26 29  1  0  0  0  0
 27 26  1  0  0  0  0
 29 30  1  0  0  0  0
 29 31  1  0  0  0  0
 32 35  1  0  0  0  0
 32 29  1  0  0  0  0
 33 32  1  0  0  0  0
 34 32  1  0  0  0  0
 35 37  1  0  0  0  0
 35 36  1  0  0  0  0
 38 41  1  0  0  0  0
 38 40  1  0  0  0  0
 38 35  1  0  0  0  0
 39 38  1  0  0  0  0
 41 43  1  0  0  0  0
 42 41  2  0  0  0  0
 43 15  1  0  0  0  0
M  CHG  2  23  -1  24  -1
M  END
