8,26,42,60
 OpenBabel05122313063D

 68 74  0  0  1  0  0  0  0  0999 V2000
    5.0436   -1.4337   -0.4507 C   0  0  0  0  0  0  0  0  0  0  0  0
    4.9578   -2.8421   -0.6736 C   0  0  0  0  0  0  0  0  0  0  0  0
    5.8867   -3.4134   -0.8164 H   0  0  0  0  0  0  0  0  0  0  0  0
    3.7334   -3.4680   -0.6724 C   0  0  0  0  0  0  0  0  0  0  0  0
    3.6673   -4.5604   -0.8078 H   0  0  0  0  0  0  0  0  0  0  0  0
    2.5227   -2.7374   -0.4830 C   0  0  0  0  0  0  0  0  0  0  0  0
    2.5587   -1.2939   -0.3351 C   0  0  0  0  0  0  0  0  0  0  0  0
    1.4773   -0.5959   -0.2339 O   0  5  0  0  0  0  0  0  0  0  0  0
    3.8670   -0.6325   -0.2779 C   0  0  0  0  0  0  0  0  0  0  0  0
    4.0246    0.7976   -0.0170 C   0  0  0  0  0  0  0  0  0  0  0  0
    2.9425    1.7154    0.1514 C   0  0  0  0  0  0  0  0  0  0  0  0
    1.9221    1.3469    0.0128 H   0  0  0  0  0  0  0  0  0  0  0  0
    3.1586    3.0563    0.4645 C   0  0  0  0  0  0  0  0  0  0  0  0
    2.2891    3.7199    0.5863 H   0  0  0  0  0  0  0  0  0  0  0  0
    4.4667    3.5705    0.6024 C   0  0  0  0  0  0  0  0  0  0  0  0
    4.6272    4.6316    0.8472 H   0  0  0  0  0  0  0  0  0  0  0  0
    5.5468    2.7196    0.4069 C   0  0  0  0  0  0  0  0  0  0  0  0
    6.5788    3.0964    0.4887 H   0  0  0  0  0  0  0  0  0  0  0  0
    5.3575    1.3452    0.0985 C   0  0  0  0  0  0  0  0  0  0  0  0
    6.4972    0.5014   -0.1012 C   0  0  0  0  0  0  0  0  0  0  0  0
    7.5012    0.9483   -0.0260 H   0  0  0  0  0  0  0  0  0  0  0  0
    6.3440   -0.8327   -0.3767 C   0  0  0  0  0  0  0  0  0  0  0  0
    7.2226   -1.4786   -0.5286 H   0  0  0  0  0  0  0  0  0  0  0  0
    1.3189   -3.5235   -0.4049 C   0  0  0  0  0  3  0  0  0  0  0  0
    1.4930   -4.6171   -0.5051 H   0  0  0  0  0  0  0  0  0  0  0  0
    0.1034   -3.0937   -0.2059 N   0  0  0  0  0  2  0  0  0  0  0  0
   -1.0500   -3.9737   -0.0739 C   0  0  2  0  0  0  0  0  0  0  0  0
   -1.3748   -3.9081    0.9953 H   0  0  0  0  0  0  0  0  0  0  0  0
   -0.8504   -5.4545   -0.4112 C   0  0  0  0  0  0  0  0  0  0  0  0
   -0.0408   -5.8828    0.2155 H   0  0  0  0  0  0  0  0  0  0  0  0
   -0.5164   -5.5452   -1.4690 H   0  0  0  0  0  0  0  0  0  0  0  0
   -2.1462   -6.2481   -0.2040 C   0  0  0  0  0  0  0  0  0  0  0  0
   -1.9877   -7.3121   -0.4756 H   0  0  0  0  0  0  0  0  0  0  0  0
   -2.4105   -6.2384    0.8770 H   0  0  0  0  0  0  0  0  0  0  0  0
   -3.9667    2.9820   -0.3897 C   0  0  0  0  0  0  0  0  0  0  0  0
   -5.0421    2.0572   -0.2054 C   0  0  0  0  0  0  0  0  0  0  0  0
   -6.0515    2.4507   -0.0146 H   0  0  0  0  0  0  0  0  0  0  0  0
   -4.8138    0.7047   -0.3017 C   0  0  0  0  0  0  0  0  0  0  0  0
   -5.6494   -0.0091   -0.2071 H   0  0  0  0  0  0  0  0  0  0  0  0
   -3.5002    0.1843   -0.5037 C   0  0  0  0  0  0  0  0  0  0  0  0
   -2.3661    1.0870   -0.6447 C   0  0  0  0  0  0  0  0  0  0  0  0
   -1.1617    0.6494   -0.7623 O   0  5  0  0  0  0  0  0  0  0  0  0
   -2.6370    2.5302   -0.6722 C   0  0  0  0  0  0  0  0  0  0  0  0
   -1.6031    3.5215   -0.9544 C   0  0  0  0  0  0  0  0  0  0  0  0
   -0.2766    3.1992   -1.3729 C   0  0  0  0  0  0  0  0  0  0  0  0
   -0.0071    2.1434   -1.4736 H   0  0  0  0  0  0  0  0  0  0  0  0
    0.6573    4.1906   -1.6648 C   0  0  0  0  0  0  0  0  0  0  0  0
    1.6634    3.8937   -1.9970 H   0  0  0  0  0  0  0  0  0  0  0  0
    0.3329    5.5600   -1.5333 C   0  0  0  0  0  0  0  0  0  0  0  0
    1.0830    6.3344   -1.7552 H   0  0  0  0  0  0  0  0  0  0  0  0
   -0.9490    5.9135   -1.1328 C   0  0  0  0  0  0  0  0  0  0  0  0
   -1.2344    6.9734   -1.0380 H   0  0  0  0  0  0  0  0  0  0  0  0
   -1.9322    4.9250   -0.8555 C   0  0  0  0  0  0  0  0  0  0  0  0
   -3.2622    5.3220   -0.5036 C   0  0  0  0  0  0  0  0  0  0  0  0
   -3.4861    6.3977   -0.4251 H   0  0  0  0  0  0  0  0  0  0  0  0
   -4.2440    4.3864   -0.2974 C   0  0  0  0  0  0  0  0  0  0  0  0
   -5.2727    4.6971   -0.0566 H   0  0  0  0  0  0  0  0  0  0  0  0
   -3.3873   -1.2439   -0.6378 C   0  0  0  0  0  3  0  0  0  0  0  0
   -4.3601   -1.7695   -0.7670 H   0  0  0  0  0  0  0  0  0  0  0  0
   -2.2801   -1.9375   -0.6275 N   0  0  0  0  0  2  0  0  0  0  0  0
   -2.2222   -3.3666   -0.9041 C   0  0  2  0  0  0  0  0  0  0  0  0
   -1.9177   -3.4743   -1.9747 H   0  0  0  0  0  0  0  0  0  0  0  0
   -3.5120   -4.1689   -0.6936 C   0  0  0  0  0  0  0  0  0  0  0  0
   -3.8411   -4.0477    0.3632 H   0  0  0  0  0  0  0  0  0  0  0  0
   -4.3259   -3.7605   -1.3275 H   0  0  0  0  0  0  0  0  0  0  0  0
   -3.3043   -5.6544   -1.0124 C   0  0  0  0  0  0  0  0  0  0  0  0
   -4.2409   -6.2183   -0.8230 H   0  0  0  0  0  0  0  0  0  0  0  0
   -3.0878   -5.7660   -2.0981 H   0  0  0  0  0  0  0  0  0  0  0  0
  1 22  2  0  0  0  0
  1  9  1  0  0  0  0
  2  4  2  0  0  0  0
  2  1  1  0  0  0  0
  3  2  1  0  0  0  0
  4  6  1  0  0  0  0
  5  4  1  0  0  0  0
  6 24  1  0  0  0  0
  6  7  2  0  0  0  0
  7  9  1  0  0  0  0
  7  8  1  0  0  0  0
  9 10  2  0  0  0  0
 10 19  1  0  0  0  0
 10 11  1  0  0  0  0
 11 13  2  0  0  0  0
 12 11  1  0  0  0  0
 13 14  1  0  0  0  0
 13 15  1  0  0  0  0
 15 16  1  0  0  0  0
 17 18  1  0  0  0  0
 17 15  2  0  0  0  0
 19 17  1  0  0  0  0
 20 21  1  0  0  0  0
 20 19  2  0  0  0  0
 22 20  1  0  0  0  0
 23 22  1  0  0  0  0
 24 26  1  0  0  0  0
 25 24  1  0  0  0  0
 26 27  1  0  0  0  0
 27 28  1  1  0  0  0
 29 32  1  0  0  0  0
 29 27  1  0  0  0  0
 29 30  1  0  0  0  0
 31 29  1  0  0  0  0
 32 34  1  0  0  0  0
 33 32  1  0  0  0  0
 35 56  1  0  0  0  0
 35 36  2  0  0  0  0
 36 37  1  0  0  0  0
 38 39  1  0  0  0  0
 38 36  1  0  0  0  0
 40 38  2  0  0  0  0
 41 40  1  0  0  0  0
 42 41  1  0  0  0  0
 43 41  2  0  0  0  0
 43 35  1  0  0  0  0
 44 53  1  0  0  0  0
 44 43  1  0  0  0  0
 45 44  2  0  0  0  0
 46 45  1  0  0  0  0
 47 49  2  0  0  0  0
 47 45  1  0  0  0  0
 48 47  1  0  0  0  0
 49 51  1  0  0  0  0
 50 49  1  0  0  0  0
 51 52  1  0  0  0  0
 51 53  2  0  0  0  0
 53 54  1  0  0  0  0
 54 55  1  0  0  0  0
 54 56  2  0  0  0  0
 56 57  1  0  0  0  0
 58 60  1  0  0  0  0
 58 40  1  0  0  0  0
 59 58  1  0  0  0  0
 61 62  1  6  0  0  0
 61 63  1  0  0  0  0
 61 60  1  0  0  0  0
 61 27  1  0  0  0  0
 63 64  1  0  0  0  0
 65 63  1  0  0  0  0
 66 67  1  0  0  0  0
 66 63  1  0  0  0  0
 66 32  1  0  0  0  0
 68 66  1  0  0  0  0
M  CHG  2   8  -1  42  -1
M  END
