1,2,8,9
 OpenBabel05122313063D

 69 70  0  0  1  0  0  0  0  0999 V2000
   -2.7469    0.2807   -0.4753 O   0  0  0  0  0  1  0  0  0  0  0  0
    0.8915   -1.2038   -1.3511 O   0  5  0  0  0  0  0  0  0  0  0  0
    1.7572   -3.9567    0.9407 O   0  0  0  0  0  0  0  0  0  0  0  0
    3.3063   -1.5195    1.6003 O   0  0  0  0  0  0  0  0  0  0  0  0
    2.9763    1.1056    2.6700 O   0  0  0  0  0  0  0  0  0  0  0  0
    0.7416    3.9693    2.5207 O   0  0  0  0  0  0  0  0  0  0  0  0
   -0.5054    3.9699   -0.3457 O   0  0  0  0  0  0  0  0  0  0  0  0
   -1.3438   -2.2651   -0.0728 N   0  0  0  0  0  2  0  0  0  0  0  0
   -0.4623    1.3498   -1.7004 N   0  0  0  0  0  2  0  0  0  0  0  0
   -3.6598   -1.7104    0.6017 C   0  0  0  0  0  0  0  0  0  0  0  0
   -3.7216   -0.3491    0.1329 C   0  0  2  0  0  3  0  0  0  0  0  0
   -4.9362    0.3725    0.3421 C   0  0  0  0  0  0  0  0  0  0  0  0
   -6.0279   -0.2113    0.9730 C   0  0  0  0  0  0  0  0  0  0  0  0
   -5.9722   -1.5497    1.4329 C   0  0  0  0  0  0  0  0  0  0  0  0
   -4.8027   -2.2729    1.2430 C   0  0  0  0  0  0  0  0  0  0  0  0
    1.9365    0.8775   -2.0647 C   0  0  0  0  0  0  0  0  0  0  0  0
    1.9399   -0.5254   -1.7339 C   0  0  0  0  0  0  0  0  0  0  0  0
    3.1731   -1.2387   -1.8395 C   0  0  0  0  0  0  0  0  0  0  0  0
    4.3438   -0.5972   -2.2228 C   0  0  0  0  0  0  0  0  0  0  0  0
    4.3518    0.7876   -2.5286 C   0  0  0  0  0  0  0  0  0  0  0  0
    3.1605    1.4970   -2.4549 C   0  0  0  0  0  3  0  0  0  0  0  0
   -2.5030   -2.5499    0.4704 C   0  0  0  0  0  0  0  0  0  0  0  0
    0.7519    1.6880   -2.0661 C   0  0  0  0  0  0  0  0  0  0  0  0
   -0.3060   -3.3000   -0.0220 C   0  0  0  0  0  0  0  0  0  0  0  0
    0.7057   -3.0151    1.0874 C   0  0  0  0  0  0  0  0  0  0  0  0
    2.7789   -3.8447    1.9113 C   0  0  0  0  0  0  0  0  0  0  0  0
    3.8536   -2.8175    1.5800 C   0  0  0  0  0  0  0  0  0  0  0  0
    4.2698   -0.4957    1.4652 C   0  0  0  0  0  0  0  0  0  0  0  0
    3.5754    0.8477    1.4157 C   0  0  0  0  0  0  0  0  0  0  0  0
    2.4812    2.4137    2.8264 C   0  0  0  0  0  0  0  0  0  0  0  0
    1.1622    2.6824    2.0954 C   0  0  0  0  0  0  0  0  0  0  0  0
   -0.5503    4.3632    2.1191 C   0  0  0  0  0  0  0  0  0  0  0  0
   -0.6218    4.9238    0.6971 C   0  0  0  0  0  0  0  0  0  0  0  0
   -1.6717    3.1946   -0.5517 C   0  0  0  0  0  0  0  0  0  0  0  0
   -1.5028    2.3778   -1.8248 C   0  0  0  0  0  0  0  0  0  0  0  0
   -4.9718    1.4105   -0.0197 H   0  0  0  0  0  0  0  0  0  0  0  0
   -6.9474    0.3780    1.1151 H   0  0  0  0  0  0  0  0  0  0  0  0
   -6.8388   -2.0064    1.9314 H   0  0  0  0  0  0  0  0  0  0  0  0
   -4.7364   -3.3154    1.5942 H   0  0  0  0  0  0  0  0  0  0  0  0
    3.1514   -2.3075   -1.5825 H   0  0  0  0  0  0  0  0  0  0  0  0
    5.2793   -1.1754   -2.2864 H   0  0  0  0  0  0  0  0  0  0  0  0
    5.2834    1.2878   -2.8289 H   0  0  0  0  0  0  0  0  0  0  0  0
    3.1403    2.5705   -2.7027 H   0  0  0  0  0  0  0  0  0  0  0  0
   -2.6114   -3.5715    0.8851 H   0  0  0  0  0  0  0  0  0  0  0  0
    0.8835    2.7258   -2.4261 H   0  0  0  0  0  0  0  0  0  0  0  0
    0.2386   -3.3111   -0.9831 H   0  0  0  0  0  0  0  0  0  0  0  0
   -0.7755   -4.2935    0.1346 H   0  0  0  0  0  0  0  0  0  0  0  0
    1.0765   -1.9728    1.0045 H   0  0  0  0  0  0  0  0  0  0  0  0
    0.2170   -3.1242    2.0888 H   0  0  0  0  0  0  0  0  0  0  0  0
    3.2686   -4.8401    1.9781 H   0  0  0  0  0  0  0  0  0  0  0  0
    2.3489   -3.6081    2.9147 H   0  0  0  0  0  0  0  0  0  0  0  0
    4.6786   -2.9170    2.3325 H   0  0  0  0  0  0  0  0  0  0  0  0
    4.2970   -3.0460    0.5776 H   0  0  0  0  0  0  0  0  0  0  0  0
    4.8618   -0.6243    0.5268 H   0  0  0  0  0  0  0  0  0  0  0  0
    4.9820   -0.5156    2.3278 H   0  0  0  0  0  0  0  0  0  0  0  0
    4.3344    1.6318    1.1672 H   0  0  0  0  0  0  0  0  0  0  0  0
    2.8299    0.8404    0.5865 H   0  0  0  0  0  0  0  0  0  0  0  0
    3.2337    3.1772    2.5054 H   0  0  0  0  0  0  0  0  0  0  0  0
    2.3016    2.5645    3.9111 H   0  0  0  0  0  0  0  0  0  0  0  0
    1.2818    2.6358    0.9885 H   0  0  0  0  0  0  0  0  0  0  0  0
    0.4165    1.8977    2.3765 H   0  0  0  0  0  0  0  0  0  0  0  0
   -0.8581    5.1764    2.8123 H   0  0  0  0  0  0  0  0  0  0  0  0
   -1.2830    3.5287    2.2497 H   0  0  0  0  0  0  0  0  0  0  0  0
   -1.5761    5.5001    0.5867 H   0  0  0  0  0  0  0  0  0  0  0  0
    0.2220    5.6326    0.5635 H   0  0  0  0  0  0  0  0  0  0  0  0
   -2.5651    3.8580   -0.6736 H   0  0  0  0  0  0  0  0  0  0  0  0
   -1.8812    2.5067    0.2978 H   0  0  0  0  0  0  0  0  0  0  0  0
   -2.4630    1.8806   -2.0482 H   0  0  0  0  0  0  0  0  0  0  0  0
   -1.2436    3.0610   -2.6602 H   0  0  0  0  0  0  0  0  0  0  0  0
  3 25  1  0  0  0  0
  3 26  1  0  0  0  0
  5 30  1  0  0  0  0
  7 33  1  0  0  0  0
  8 24  1  0  0  0  0
  8 22  1  0  0  0  0
 10 15  1  0  0  0  0
 11  1  1  6  0  0  0
 11 12  1  0  0  0  0
 11 10  1  0  0  0  0
 12 13  2  0  0  0  0
 13 37  1  0  0  0  0
 13 14  1  0  0  0  0
 14 38  1  0  0  0  0
 15 14  2  0  0  0  0
 15 39  1  0  0  0  0
 16 17  1  0  0  0  0
 17  2  1  0  0  0  0
 18 17  2  0  0  0  0
 18 40  1  0  0  0  0
 19 18  1  0  0  0  0
 20 21  1  0  0  0  0
 20 19  2  0  0  0  0
 21 16  1  0  0  0  0
 22 10  2  0  0  0  0
 22 44  1  0  0  0  0
 23 16  2  0  0  0  0
 23  9  1  0  0  0  0
 24 47  1  0  0  0  0
 24 25  1  0  0  0  0
 25 49  1  0  0  0  0
 26 50  1  0  0  0  0
 26 51  1  0  0  0  0
 27  4  1  0  0  0  0
 27 26  1  0  0  0  0
 27 52  1  0  0  0  0
 28  4  1  0  0  0  0
 28 55  1  0  0  0  0
 29 28  1  0  0  0  0
 29  5  1  0  0  0  0
 30 59  1  0  0  0  0
 31 61  1  0  0  0  0
 31  6  1  0  0  0  0
 31 30  1  0  0  0  0
 32 63  1  0  0  0  0
 32  6  1  0  0  0  0
 32 62  1  0  0  0  0
 33 32  1  0  0  0  0
 34  7  1  0  0  0  0
 34 67  1  0  0  0  0
 35  9  1  0  0  0  0
 35 34  1  0  0  0  0
 36 12  1  0  0  0  0
 41 19  1  0  0  0  0
 42 20  1  0  0  0  0
 43 21  1  0  0  0  0
 45 23  1  0  0  0  0
 46 24  1  0  0  0  0
 48 25  1  0  0  0  0
 53 27  1  0  0  0  0
 54 28  1  0  0  0  0
 56 29  1  0  0  0  0
 57 29  1  0  0  0  0
 58 30  1  0  0  0  0
 60 31  1  0  0  0  0
 64 33  1  0  0  0  0
 65 33  1  0  0  0  0
 66 34  1  0  0  0  0
 68 35  1  0  0  0  0
 69 35  1  0  0  0  0
M  CHG  1   2  -1
M  END
