1,2,3,4
 OpenBabel05122313063D

 60 65  0  0  1  0  0  0  0  0999 V2000
   -1.4205   -0.0817   -0.6926 O   0  0  0  0  0  1  0  0  0  0  0  0
    1.8283    0.2513   -1.2429 O   0  0  0  0  0  1  0  0  0  0  0  0
   -0.6875   -2.8914   -0.0213 N   0  0  0  0  0  2  0  0  0  0  0  0
    1.9614   -2.3629   -0.0278 N   0  0  0  0  0  2  0  0  0  0  0  0
   -2.8238   -1.9108   -0.3092 N   0  0  0  0  0  0  0  0  0  0  0  0
    3.5674   -0.6118    0.0117 N   0  0  0  0  0  0  0  0  0  0  0  0
    0.1358   -3.9547    0.0350 C   0  0  2  0  0  3  0  0  0  0  0  0
   -0.3658   -5.2646   -0.0376 C   0  0  0  0  0  0  0  0  0  0  0  0
   -1.7512   -5.4384   -0.1882 C   0  0  0  0  0  0  0  0  0  0  0  0
   -2.5880   -4.3249   -0.2798 C   0  0  0  0  0  0  0  0  0  0  0  0
   -1.9997   -3.0411   -0.2069 C   0  0  0  0  0  0  0  0  0  0  0  0
   -2.5538   -0.5783   -0.5317 C   0  0  2  0  0  3  0  0  0  0  0  0
   -3.7593    0.2949   -0.5961 C   0  0  0  0  0  0  0  0  0  0  0  0
   -4.8627   -0.1318   -1.3435 C   0  0  0  0  0  0  0  0  0  0  0  0
   -6.0194    0.6716   -1.4633 C   0  0  0  0  0  0  0  0  0  0  0  0
   -6.0712    1.9012   -0.8230 C   0  0  0  0  0  0  0  0  0  0  0  0
   -4.9752    2.3760   -0.0468 C   0  0  0  0  0  0  0  0  0  0  0  0
   -5.0453    3.6314    0.6268 C   0  0  0  0  0  0  0  0  0  0  0  0
   -3.9861    4.0864    1.3954 C   0  0  0  0  0  0  0  0  0  0  0  0
   -2.8125    3.2978    1.5156 C   0  0  0  0  0  0  0  0  0  0  0  0
   -2.7058    2.0763    0.8643 C   0  0  0  0  0  0  0  0  0  0  0  0
   -3.7775    1.5750    0.0692 C   0  0  0  0  0  0  0  0  0  0  0  0
    1.5875   -3.6406    0.2067 C   0  0  2  0  0  3  0  0  0  0  0  0
    2.5218   -4.5937    0.6431 C   0  0  0  0  0  0  0  0  0  0  0  0
    3.8496   -4.1891    0.8520 C   0  0  0  0  0  0  0  0  0  0  0  0
    4.2129   -2.8611    0.6311 C   0  0  0  0  0  0  0  0  0  0  0  0
    3.2205   -1.9568    0.1855 C   0  0  0  0  0  0  0  0  0  0  0  0
    2.8984    0.4196   -0.6262 C   0  0  1  0  0  3  0  0  0  0  0  0
    3.5525    1.7488   -0.5462 C   0  0  0  0  0  0  0  0  0  0  0  0
    4.9476    1.8326   -0.6522 C   0  0  0  0  0  0  0  0  0  0  0  0
    5.6130    3.0769   -0.6222 C   0  0  0  0  0  0  0  0  0  0  0  0
    4.8756    4.2448   -0.4823 C   0  0  0  0  0  0  0  0  0  0  0  0
    3.4565    4.2145   -0.3702 C   0  0  0  0  0  0  0  0  0  0  0  0
    2.7136    5.4226   -0.2192 C   0  0  0  0  0  0  0  0  0  0  0  0
    1.3330    5.3972   -0.1069 C   0  0  0  0  0  0  0  0  0  0  0  0
    0.6475    4.1559   -0.1320 C   0  0  0  0  0  0  0  0  0  0  0  0
    1.3380    2.9593   -0.2751 C   0  0  0  0  0  0  0  0  0  0  0  0
    2.7576    2.9486   -0.4076 C   0  0  0  0  0  0  0  0  0  0  0  0
    0.3008   -6.1356   -0.0006 H   0  0  0  0  0  0  0  0  0  0  0  0
   -2.1764   -6.4503   -0.2526 H   0  0  0  0  0  0  0  0  0  0  0  0
   -3.6728   -4.4398   -0.4203 H   0  0  0  0  0  0  0  0  0  0  0  0
   -3.8209   -2.1035   -0.1879 H   0  0  0  0  0  0  0  0  0  0  0  0
   -4.8200   -1.0883   -1.8883 H   0  0  0  0  0  0  0  0  0  0  0  0
   -6.8668    0.3206   -2.0696 H   0  0  0  0  0  0  0  0  0  0  0  0
   -6.9681    2.5337   -0.9088 H   0  0  0  0  0  0  0  0  0  0  0  0
   -5.9646    4.2288    0.5302 H   0  0  0  0  0  0  0  0  0  0  0  0
   -4.0545    5.0525    1.9168 H   0  0  0  0  0  0  0  0  0  0  0  0
   -1.9755    3.6528    2.1356 H   0  0  0  0  0  0  0  0  0  0  0  0
   -1.7826    1.4938    0.9534 H   0  0  0  0  0  0  0  0  0  0  0  0
    2.2173   -5.6276    0.8486 H   0  0  0  0  0  0  0  0  0  0  0  0
    4.6001   -4.9136    1.1999 H   0  0  0  0  0  0  0  0  0  0  0  0
    5.2446   -2.5171    0.7952 H   0  0  0  0  0  0  0  0  0  0  0  0
    4.4285   -0.3303    0.4864 H   0  0  0  0  0  0  0  0  0  0  0  0
    5.5430    0.9201   -0.8162 H   0  0  0  0  0  0  0  0  0  0  0  0
    6.7070    3.1149   -0.7243 H   0  0  0  0  0  0  0  0  0  0  0  0
    5.3837    5.2212   -0.4626 H   0  0  0  0  0  0  0  0  0  0  0  0
    3.2617    6.3766   -0.1919 H   0  0  0  0  0  0  0  0  0  0  0  0
    0.7689    6.3349    0.0045 H   0  0  0  0  0  0  0  0  0  0  0  0
   -0.4489    4.1342   -0.0397 H   0  0  0  0  0  0  0  0  0  0  0  0
    0.7814    2.0160   -0.2963 H   0  0  0  0  0  0  0  0  0  0  0  0
  3  7  1  0  0  0  0
  4 27  1  0  0  0  0
  5 11  1  0  0  0  0
  5 42  1  0  0  0  0
  6 27  1  0  0  0  0
  6 53  1  0  0  0  0
  7  8  1  1  0  0  0
  7 23  1  0  0  0  0
  8 39  1  0  0  0  0
  9  8  2  0  0  0  0
 10 11  2  0  0  0  0
 10  9  1  0  0  0  0
 11  3  1  0  0  0  0
 12  1  1  6  0  0  0
 12  5  1  0  0  0  0
 13 12  1  0  0  0  0
 13 22  1  0  0  0  0
 14 13  2  0  0  0  0
 15 14  1  0  0  0  0
 15 16  2  0  0  0  0
 16 17  1  0  0  0  0
 17 22  2  0  0  0  0
 17 18  1  0  0  0  0
 18 19  2  0  0  0  0
 19 20  1  0  0  0  0
 19 47  1  0  0  0  0
 20 48  1  0  0  0  0
 21 49  1  0  0  0  0
 21 20  2  0  0  0  0
 22 21  1  0  0  0  0
 23  4  1  1  0  0  0
 23 24  1  0  0  0  0
 24 50  1  0  0  0  0
 24 25  2  0  0  0  0
 25 51  1  0  0  0  0
 26 52  1  0  0  0  0
 26 25  1  0  0  0  0
 27 26  2  0  0  0  0
 28  2  1  6  0  0  0
 28 29  1  0  0  0  0
 28  6  1  0  0  0  0
 29 38  1  0  0  0  0
 30 31  1  0  0  0  0
 30 29  2  0  0  0  0
 31 32  2  0  0  0  0
 32 56  1  0  0  0  0
 32 33  1  0  0  0  0
 33 34  1  0  0  0  0
 34 57  1  0  0  0  0
 34 35  2  0  0  0  0
 35 58  1  0  0  0  0
 36 35  1  0  0  0  0
 36 59  1  0  0  0  0
 37 36  2  0  0  0  0
 38 33  2  0  0  0  0
 38 37  1  0  0  0  0
 40  9  1  0  0  0  0
 41 10  1  0  0  0  0
 43 14  1  0  0  0  0
 44 15  1  0  0  0  0
 45 16  1  0  0  0  0
 46 18  1  0  0  0  0
 54 30  1  0  0  0  0
 55 31  1  0  0  0  0
 60 37  1  0  0  0  0
M  END
