1,2,3,4
 OpenBabel05122313063D

 44 46  0  0  1  0  0  0  0  0999 V2000
   -1.2279   -1.6028    0.0002 O   0  5  0  0  0  0  0  0  0  0  0  0
    1.2279   -1.6028   -0.0001 O   0  0  0  0  0  1  0  0  0  0  0  0
   -1.2741    1.1408    0.0000 N   0  0  0  0  0  2  0  0  0  0  0  0
    1.2741    1.1408    0.0001 N   0  0  0  0  0  2  0  0  0  0  0  0
   -3.2607   -0.2863    0.0000 C   0  0  0  0  0  0  0  0  0  0  0  0
   -2.5189   -1.5287    0.0001 C   0  0  0  0  0  0  0  0  0  0  0  0
   -3.2818   -2.7424    0.0000 C   0  0  0  0  0  0  0  0  0  0  0  0
   -2.7181   -3.6863    0.0000 H   0  0  0  0  0  0  0  0  0  0  0  0
   -4.6657   -2.7197   -0.0000 C   0  0  0  0  0  0  0  0  0  0  0  0
   -5.2155   -3.6755   -0.0001 H   0  0  0  0  0  0  0  0  0  0  0  0
   -5.4114   -1.4989   -0.0000 C   0  0  0  0  0  0  0  0  0  0  0  0
   -4.6910   -0.3133    0.0000 C   0  0  0  0  0  3  0  0  0  0  0  0
   -5.2271    0.6505   -0.0000 H   0  0  0  0  0  0  0  0  0  0  0  0
   -2.5886    0.9599    0.0001 C   0  0  0  0  0  0  0  0  0  0  0  0
   -3.2308    1.8586    0.0001 H   0  0  0  0  0  0  0  0  0  0  0  0
   -0.7098    2.4344   -0.0000 C   0  0  0  0  0  0  0  0  0  0  0  0
   -1.4095    3.6581   -0.0001 C   0  0  0  0  0  0  0  0  0  0  0  0
   -2.5078    3.6783   -0.0002 H   0  0  0  0  0  0  0  0  0  0  0  0
   -0.7036    4.8664   -0.0001 C   0  0  0  0  0  0  0  0  0  0  0  0
   -1.2559    5.8176   -0.0002 H   0  0  0  0  0  0  0  0  0  0  0  0
    0.7036    4.8664   -0.0001 C   0  0  0  0  0  0  0  0  0  0  0  0
    1.2559    5.8176   -0.0001 H   0  0  0  0  0  0  0  0  0  0  0  0
    1.4096    3.6581    0.0000 C   0  0  0  0  0  0  0  0  0  0  0  0
    2.5078    3.6783    0.0001 H   0  0  0  0  0  0  0  0  0  0  0  0
    0.7098    2.4344    0.0000 C   0  0  0  0  0  0  0  0  0  0  0  0
    2.5886    0.9599    0.0001 C   0  0  0  0  0  0  0  0  0  0  0  0
    3.2308    1.8586    0.0002 H   0  0  0  0  0  0  0  0  0  0  0  0
    3.2607   -0.2863    0.0001 C   0  0  0  0  0  0  0  0  0  0  0  0
    2.5189   -1.5287   -0.0001 C   0  0  1  0  0  3  0  0  0  0  0  0
    3.2818   -2.7424   -0.0002 C   0  0  0  0  0  0  0  0  0  0  0  0
    2.7181   -3.6863   -0.0002 H   0  0  0  0  0  0  0  0  0  0  0  0
    4.6657   -2.7197   -0.0001 C   0  0  0  0  0  0  0  0  0  0  0  0
    5.2155   -3.6755   -0.0002 H   0  0  0  0  0  0  0  0  0  0  0  0
    5.4114   -1.4989   -0.0000 C   0  0  0  0  0  0  0  0  0  0  0  0
    4.6910   -0.3133    0.0001 C   0  0  0  0  0  0  0  0  0  0  0  0
    5.2271    0.6505    0.0002 H   0  0  0  0  0  0  0  0  0  0  0  0
   -6.9181   -1.5285   -0.0001 C   0  0  0  0  0  0  0  0  0  0  0  0
   -7.3462   -0.5073   -0.0003 H   0  0  0  0  0  0  0  0  0  0  0  0
   -7.3144   -2.0606    0.8908 H   0  0  0  0  0  0  0  0  0  0  0  0
   -7.3143   -2.0611   -0.8907 H   0  0  0  0  0  0  0  0  0  0  0  0
    6.9181   -1.5285   -0.0000 C   0  0  0  0  0  0  0  0  0  0  0  0
    7.3462   -0.5073    0.0004 H   0  0  0  0  0  0  0  0  0  0  0  0
    7.3144   -2.0605   -0.8910 H   0  0  0  0  0  0  0  0  0  0  0  0
    7.3143   -2.0612    0.8905 H   0  0  0  0  0  0  0  0  0  0  0  0
  3 14  1  0  0  0  0
  4 26  1  0  0  0  0
  5 14  2  0  0  0  0
  5  6  1  0  0  0  0
  6  1  1  0  0  0  0
  7  6  2  0  0  0  0
  8  7  1  0  0  0  0
  9 11  2  0  0  0  0
  9  7  1  0  0  0  0
 10  9  1  0  0  0  0
 11 12  1  0  0  0  0
 12  5  1  0  0  0  0
 13 12  1  0  0  0  0
 14 15  1  0  0  0  0
 16  3  1  0  0  0  0
 16 25  1  0  0  0  0
 17 16  2  0  0  0  0
 18 17  1  0  0  0  0
 19 17  1  0  0  0  0
 19 21  2  0  0  0  0
 20 19  1  0  0  0  0
 21 23  1  0  0  0  0
 22 21  1  0  0  0  0
 23 25  2  0  0  0  0
 23 24  1  0  0  0  0
 25  4  1  0  0  0  0
 26 27  1  0  0  0  0
 28 35  1  0  0  0  0
 28 26  2  0  0  0  0
 29  2  1  1  0  0  0
 29 28  1  0  0  0  0
 30 32  2  0  0  0  0
 30 29  1  0  0  0  0
 31 30  1  0  0  0  0
 32 34  1  0  0  0  0
 33 32  1  0  0  0  0
 34 35  2  0  0  0  0
 35 36  1  0  0  0  0
 37 11  1  0  0  0  0
 37 39  1  0  0  0  0
 38 37  1  0  0  0  0
 40 37  1  0  0  0  0
 41 34  1  0  0  0  0
 41 42  1  0  0  0  0
 41 44  1  0  0  0  0
 43 41  1  0  0  0  0
M  CHG  1   1  -1
M  END
