1,3,4,5
 OpenBabel05122313063D

 39 40  0  0  1  0  0  0  0  0999 V2000
   -1.1472    2.1716   -1.6356 N   0  0  0  0  0  0  0  0  0  0  0  0
   -2.1318    2.3127   -1.9067 H   0  0  0  0  0  0  0  0  0  0  0  0
    0.6217    0.3167   -2.4804 N   0  0  0  0  0  2  0  0  0  0  0  0
    0.4374    0.6390    0.3071 O   0  5  0  0  0  0  0  0  0  0  0  0
   -0.2787   -1.7920   -0.6465 O   0  5  0  0  0  0  0  0  0  0  0  0
    3.1487    0.1597    1.5665 Br  0  0  0  0  0  0  0  0  0  0  0  0
    3.5062    5.8350    0.9246 Br  0  0  0  0  0  0  0  0  0  0  0  0
    5.4616   -3.7599   -0.8719 Br  0  0  0  0  0  0  0  0  0  0  0  0
    0.1537   -4.0804    1.1955 Br  0  0  0  0  0  0  0  0  0  0  0  0
    1.0715    1.7710    0.4352 C   0  0  0  0  0  0  0  0  0  0  0  0
    2.3856    1.8092    1.0042 C   0  0  0  0  0  0  0  0  0  0  0  0
    3.1063    2.9966    1.1597 C   0  0  0  0  0  0  0  0  0  0  0  0
    4.1139    2.9761    1.5961 H   0  0  0  0  0  0  0  0  0  0  0  0
    2.5275    4.2072    0.7410 C   0  0  0  0  0  0  0  0  0  0  0  0
    1.2383    4.2259    0.1935 C   0  0  0  0  0  0  0  0  0  0  0  0
    0.7874    5.1818   -0.1138 H   0  0  0  0  0  0  0  0  0  0  0  0
    0.5086    3.0319    0.0522 C   0  0  0  0  0  0  0  0  0  0  0  0
   -0.9079    3.0650   -0.4502 C   0  0  0  0  0  0  0  0  0  0  0  0
   -1.6190    2.7348    0.3316 H   0  0  0  0  0  0  0  0  0  0  0  0
   -1.1784    4.1082   -0.7232 H   0  0  0  0  0  0  0  0  0  0  0  0
   -0.2608    2.5783   -2.7959 C   0  0  2  0  0  0  0  0  0  0  0  0
    0.5716    3.1485   -2.3360 H   0  0  0  0  0  0  0  0  0  0  0  0
   -1.0179    3.4637   -3.7787 C   0  0  0  0  0  0  0  0  0  0  0  0
   -1.8715    2.9149   -4.2301 H   0  0  0  0  0  0  0  0  0  0  0  0
   -0.3563    3.7920   -4.6049 H   0  0  0  0  0  0  0  0  0  0  0  0
   -1.4079    4.3753   -3.2834 H   0  0  0  0  0  0  0  0  0  0  0  0
    0.3631    1.3442   -3.4720 C   0  0  0  0  0  0  0  0  0  0  0  0
   -0.3447    0.9309   -4.2263 H   0  0  0  0  0  0  0  0  0  0  0  0
    1.2905    1.6390   -4.0119 H   0  0  0  0  0  0  0  0  0  0  0  0
    1.7028   -0.4093   -2.4698 C   0  0  0  0  0  3  0  0  0  0  0  0
    2.5032   -0.1525   -3.1947 H   0  0  0  0  0  0  0  0  0  0  0  0
    1.9682   -1.5270   -1.5995 C   0  0  0  0  0  0  0  0  0  0  0  0
    3.2959   -2.0380   -1.6325 C   0  0  0  0  0  0  0  0  0  0  0  0
    4.0347   -1.5573   -2.2902 H   0  0  0  0  0  0  0  0  0  0  0  0
    3.6710   -3.1104   -0.8369 C   0  0  0  0  0  0  0  0  0  0  0  0
    2.7260   -3.7308    0.0116 C   0  0  0  0  0  0  0  0  0  0  0  0
    3.0176   -4.5783    0.6464 H   0  0  0  0  0  0  0  0  0  0  0  0
    1.4199   -3.2566    0.0418 C   0  0  0  0  0  0  0  0  0  0  0  0
    0.9661   -2.1393   -0.7465 C   0  0  0  0  0  0  0  0  0  0  0  0
  1 18  1  0  0  0  0
  2  1  1  0  0  0  0
  3 30  1  0  0  0  0
  4 10  1  0  0  0  0
  8 35  1  0  0  0  0
 10 11  1  0  0  0  0
 11 12  2  0  0  0  0
 11  6  1  0  0  0  0
 12 13  1  0  0  0  0
 14  7  1  0  0  0  0
 14 12  1  0  0  0  0
 15 14  2  0  0  0  0
 16 15  1  0  0  0  0
 17 15  1  0  0  0  0
 17 10  2  0  0  0  0
 18 17  1  0  0  0  0
 18 19  1  0  0  0  0
 20 18  1  0  0  0  0
 21 22  1  1  0  0  0
 21  1  1  0  0  0  0
 23 26  1  0  0  0  0
 23 21  1  0  0  0  0
 24 23  1  0  0  0  0
 25 23  1  0  0  0  0
 27 21  1  0  0  0  0
 27  3  1  0  0  0  0
 28 27  1  0  0  0  0
 29 27  1  0  0  0  0
 30 32  1  0  0  0  0
 31 30  1  0  0  0  0
 32 39  1  0  0  0  0
 33 32  2  0  0  0  0
 33 35  1  0  0  0  0
 34 33  1  0  0  0  0
 35 36  2  0  0  0  0
 36 38  1  0  0  0  0
 36 37  1  0  0  0  0
 38  9  1  0  0  0  0
 39  5  1  0  0  0  0
 39 38  2  0  0  0  0
M  CHG  2   4  -1   5  -1
M  END
