1,2,3,6
 OpenBabel05122313063D

 49 51  0  0  1  0  0  0  0  0999 V2000
   -1.1016   -1.8423    0.0002 O   0  5  0  0  0  0  0  0  0  0  0  0
    1.3535   -1.7456   -0.0004 O   0  0  0  0  0  1  0  0  0  0  0  0
    1.2915    0.9932   -0.0001 N   0  0  0  0  0  2  0  0  0  0  0  0
   -6.6190   -2.1019    0.0001 O   0  0  0  0  0  0  0  0  0  0  0  0
    6.8748   -1.5700    0.0003 O   0  0  0  0  0  0  0  0  0  0  0  0
   -1.2553    0.8942    0.0000 N   0  0  0  0  0  2  0  0  0  0  0  0
   -0.7416    2.2073    0.0000 C   0  0  0  0  0  0  0  0  0  0  0  0
   -3.1878   -0.6089    0.0001 C   0  0  0  0  0  0  0  0  0  0  0  0
   -5.2657   -1.9129    0.0001 C   0  0  0  0  0  0  0  0  0  0  0  0
    4.8266   -2.7427   -0.0002 C   0  0  0  0  0  0  0  0  0  0  0  0
    5.4386   -3.6573   -0.0003 H   0  0  0  0  0  0  0  0  0  0  0  0
   -3.1049   -3.0661    0.0002 C   0  0  0  0  0  0  0  0  0  0  0  0
   -2.5010   -3.9845    0.0002 H   0  0  0  0  0  0  0  0  0  0  0  0
   -2.3952   -1.8180    0.0001 C   0  0  0  0  0  0  0  0  0  0  0  0
   -4.6207   -0.6837    0.0001 C   0  0  0  0  0  3  0  0  0  0  0  0
   -5.1863    0.2586    0.0000 H   0  0  0  0  0  0  0  0  0  0  0  0
    3.4471   -2.8077   -0.0004 C   0  0  0  0  0  0  0  0  0  0  0  0
    2.9175   -3.7708   -0.0006 H   0  0  0  0  0  0  0  0  0  0  0  0
    7.6013   -0.3607    0.0001 C   0  0  0  0  0  0  0  0  0  0  0  0
    8.6733   -0.6328   -0.0002 H   0  0  0  0  0  0  0  0  0  0  0  0
    7.3843    0.2551   -0.9033 H   0  0  0  0  0  0  0  0  0  0  0  0
    7.3848    0.2552    0.9037 H   0  0  0  0  0  0  0  0  0  0  0  0
    1.3180    3.5157   -0.0002 C   0  0  0  0  0  0  0  0  0  0  0  0
    2.4143    3.5866   -0.0004 H   0  0  0  0  0  0  0  0  0  0  0  0
    0.5617    4.6898   -0.0002 C   0  0  0  0  0  0  0  0  0  0  0  0
    1.0779    5.6624   -0.0003 H   0  0  0  0  0  0  0  0  0  0  0  0
    5.5106   -1.4885    0.0001 C   0  0  0  0  0  0  0  0  0  0  0  0
    4.7708   -0.3138    0.0003 C   0  0  0  0  0  0  0  0  0  0  0  0
    5.2605    0.6701    0.0005 H   0  0  0  0  0  0  0  0  0  0  0  0
   -1.4889    3.4029    0.0001 C   0  0  0  0  0  0  0  0  0  0  0  0
   -2.5877    3.3737    0.0003 H   0  0  0  0  0  0  0  0  0  0  0  0
    3.3367   -0.3521    0.0001 C   0  0  0  0  0  0  0  0  0  0  0  0
    0.6754    2.2607   -0.0001 C   0  0  0  0  0  0  0  0  0  0  0  0
    2.6416   -1.6194   -0.0002 C   0  0  1  0  0  3  0  0  0  0  0  0
   -2.5633    0.6611    0.0001 C   0  0  0  0  0  0  0  0  0  0  0  0
   -3.2381    1.5355    0.0001 H   0  0  0  0  0  0  0  0  0  0  0  0
   -0.8532    4.6541    0.0000 C   0  0  0  0  0  0  0  0  0  0  0  0
   -7.4388   -0.9538   -0.0001 C   0  0  0  0  0  0  0  0  0  0  0  0
   -8.4859   -1.3098   -0.0003 H   0  0  0  0  0  0  0  0  0  0  0  0
   -7.2715   -0.3228    0.9033 H   0  0  0  0  0  0  0  0  0  0  0  0
   -7.2713   -0.3229   -0.9037 H   0  0  0  0  0  0  0  0  0  0  0  0
    2.6135    0.8649    0.0001 C   0  0  0  0  0  0  0  0  0  0  0  0
    3.2163    1.7905    0.0004 H   0  0  0  0  0  0  0  0  0  0  0  0
   -4.4850   -3.1097    0.0001 C   0  0  0  0  0  0  0  0  0  0  0  0
   -5.0233   -4.0695    0.0002 H   0  0  0  0  0  0  0  0  0  0  0  0
   -1.6490    5.9347    0.0001 C   0  0  0  0  0  0  0  0  0  0  0  0
   -2.7390    5.7411    0.0003 H   0  0  0  0  0  0  0  0  0  0  0  0
   -1.4151    6.5547   -0.8907 H   0  0  0  0  0  0  0  0  0  0  0  0
   -1.4148    6.5547    0.8908 H   0  0  0  0  0  0  0  0  0  0  0  0
  3 42  1  0  0  0  0
  4  9  1  0  0  0  0
  6 35  1  0  0  0  0
  7  6  1  0  0  0  0
  7 30  1  0  0  0  0
  8 14  1  0  0  0  0
  9 44  2  0  0  0  0
 10 27  1  0  0  0  0
 11 10  1  0  0  0  0
 12 13  1  0  0  0  0
 14  1  1  0  0  0  0
 14 12  2  0  0  0  0
 15  8  1  0  0  0  0
 15  9  1  0  0  0  0
 16 15  1  0  0  0  0
 17 34  1  0  0  0  0
 17 10  2  0  0  0  0
 18 17  1  0  0  0  0
 19  5  1  0  0  0  0
 19 22  1  0  0  0  0
 20 19  1  0  0  0  0
 21 19  1  0  0  0  0
 23 25  2  0  0  0  0
 23 33  1  0  0  0  0
 24 23  1  0  0  0  0
 25 37  1  0  0  0  0
 26 25  1  0  0  0  0
 27 28  2  0  0  0  0
 27  5  1  0  0  0  0
 28 29  1  0  0  0  0
 30 31  1  0  0  0  0
 32 42  2  0  0  0  0
 32 28  1  0  0  0  0
 33  3  1  0  0  0  0
 33  7  2  0  0  0  0
 34  2  1  6  0  0  0
 34 32  1  0  0  0  0
 35 36  1  0  0  0  0
 35  8  2  0  0  0  0
 37 46  1  0  0  0  0
 37 30  2  0  0  0  0
 38  4  1  0  0  0  0
 38 40  1  0  0  0  0
 39 38  1  0  0  0  0
 41 38  1  0  0  0  0
 42 43  1  0  0  0  0
 44 12  1  0  0  0  0
 44 45  1  0  0  0  0
 46 47  1  0  0  0  0
 46 49  1  0  0  0  0
 48 46  1  0  0  0  0
M  CHG  1   1  -1
M  END
