3,4,5,6
 OpenBabel05122313063D

 45 46  0  0  0  0  0  0  0  0999 V2000
   -3.5177    5.1648    0.1819 Br  0  0  0  0  0  0  0  0  0  0  0  0
    7.4955    0.7931   -0.0328 Br  0  0  0  0  0  0  0  0  0  0  0  0
   -1.0423   -0.5803    2.1090 N   0  0  0  0  0  2  0  0  0  0  0  0
    1.6418   -1.0385    2.2999 N   0  0  0  0  0  2  0  0  0  0  0  0
    0.7955    0.9780    0.8331 O   0  5  0  0  0  0  0  0  0  0  0  0
    1.7660   -1.0985   -0.4615 O   0  5  0  0  0  0  0  0  0  0  0  0
    1.3485    3.1639   -0.5111 O   0  0  0  0  0  0  0  0  0  0  0  0
    3.1591   -0.7326   -2.6936 O   0  0  0  0  0  0  0  0  0  0  0  0
   -0.1638    1.8478    0.7207 C   0  0  0  0  0  0  0  0  0  0  0  0
    0.1005    3.0733    0.0024 C   0  0  0  0  0  0  0  0  0  0  0  0
   -0.9007    4.0367   -0.1400 C   0  0  0  0  0  0  0  0  0  0  0  0
   -0.7177    4.9529   -0.7156 H   0  0  0  0  0  0  0  0  0  0  0  0
   -2.1763    3.8405    0.4500 C   0  0  0  0  0  0  0  0  0  0  0  0
   -2.4572    2.7057    1.1911 C   0  0  0  0  0  0  0  0  0  0  0  0
   -3.4422    2.5642    1.6576 H   0  0  0  0  0  0  0  0  0  0  0  0
   -1.4595    1.6953    1.3164 C   0  0  0  0  0  0  0  0  0  0  0  0
   -1.7206    0.5425    2.1204 C   0  0  0  0  0  3  0  0  0  0  0  0
   -2.5688    0.6090    2.8303 H   0  0  0  0  0  0  0  0  0  0  0  0
   -1.3309   -1.5924    3.1263 C   0  0  0  0  0  0  0  0  0  0  0  0
   -1.9524   -2.3989    2.6837 H   0  0  0  0  0  0  0  0  0  0  0  0
   -1.9404   -1.1211    3.9254 H   0  0  0  0  0  0  0  0  0  0  0  0
   -0.0406   -2.1797    3.7275 C   0  0  0  0  0  0  0  0  0  0  0  0
    0.2475   -3.1175    3.2137 H   0  0  0  0  0  0  0  0  0  0  0  0
   -0.2282   -2.4509    4.7854 H   0  0  0  0  0  0  0  0  0  0  0  0
    1.1305   -1.2030    3.6662 C   0  0  0  0  0  0  0  0  0  0  0  0
    0.8064   -0.2023    4.0299 H   0  0  0  0  0  0  0  0  0  0  0  0
    1.9532   -1.5424    4.3295 H   0  0  0  0  0  0  0  0  0  0  0  0
    2.9094   -0.7623    2.1579 C   0  0  0  0  0  3  0  0  0  0  0  0
    3.5239   -0.7257    3.0804 H   0  0  0  0  0  0  0  0  0  0  0  0
    3.6217   -0.4880    0.9338 C   0  0  0  0  0  0  0  0  0  0  0  0
    4.9734   -0.0550    1.0239 C   0  0  0  0  0  0  0  0  0  0  0  0
    5.4330    0.0951    2.0109 H   0  0  0  0  0  0  0  0  0  0  0  0
    5.6995    0.1877   -0.1355 C   0  0  0  0  0  0  0  0  0  0  0  0
    5.1208   -0.0214   -1.4089 C   0  0  0  0  0  0  0  0  0  0  0  0
    5.7252    0.1669   -2.3049 H   0  0  0  0  0  0  0  0  0  0  0  0
    3.7985   -0.4644   -1.5119 C   0  0  0  0  0  0  0  0  0  0  0  0
    3.0114   -0.6813   -0.3370 C   0  0  0  0  0  0  0  0  0  0  0  0
    1.6958    4.3409   -1.2191 C   0  0  0  0  0  0  0  0  0  0  0  0
    2.7502    4.2197   -1.5274 H   0  0  0  0  0  0  0  0  0  0  0  0
    1.6058    5.2470   -0.5796 H   0  0  0  0  0  0  0  0  0  0  0  0
    1.0641    4.4785   -2.1255 H   0  0  0  0  0  0  0  0  0  0  0  0
    3.8362   -0.4013   -3.9006 C   0  0  0  0  0  0  0  0  0  0  0  0
    3.1375   -0.6258   -4.7279 H   0  0  0  0  0  0  0  0  0  0  0  0
    4.7619   -1.0030   -4.0335 H   0  0  0  0  0  0  0  0  0  0  0  0
    4.0974    0.6782   -3.9344 H   0  0  0  0  0  0  0  0  0  0  0  0
  1 13  1  0  0  0  0
  3 17  1  0  0  0  0
  3 19  1  0  0  0  0
  4 25  1  0  0  0  0
  6 37  1  0  0  0  0
  7 10  1  0  0  0  0
  8 36  1  0  0  0  0
  9  5  1  0  0  0  0
  9 16  1  0  0  0  0
 10  9  2  0  0  0  0
 11 10  1  0  0  0  0
 11 13  2  0  0  0  0
 12 11  1  0  0  0  0
 13 14  1  0  0  0  0
 14 16  2  0  0  0  0
 14 15  1  0  0  0  0
 16 17  1  0  0  0  0
 17 18  1  0  0  0  0
 19 22  1  0  0  0  0
 19 21  1  0  0  0  0
 20 19  1  0  0  0  0
 22 24  1  0  0  0  0
 23 22  1  0  0  0  0
 25 22  1  0  0  0  0
 25 26  1  0  0  0  0
 25 27  1  0  0  0  0
 28  4  1  0  0  0  0
 28 29  1  0  0  0  0
 30 31  1  0  0  0  0
 30 28  1  0  0  0  0
 31 32  1  0  0  0  0
 33  2  1  0  0  0  0
 33 31  2  0  0  0  0
 34 33  1  0  0  0  0
 35 34  1  0  0  0  0
 36 34  2  0  0  0  0
 36 37  1  0  0  0  0
 37 30  2  0  0  0  0
 38 40  1  0  0  0  0
 38  7  1  0  0  0  0
 39 38  1  0  0  0  0
 41 38  1  0  0  0  0
 42  8  1  0  0  0  0
 43 42  1  0  0  0  0
 44 42  1  0  0  0  0
 45 42  1  0  0  0  0
M  CHG  2   5  -1   6  -1
M  END
