2,5,6,16
 OpenBabel05122313063D

 49 50  0  0  1  0  0  0  0  0999 V2000
   -1.3303   -1.7617   -1.8979 C   0  0  0  0  0  0  0  0  0  0  0  0
    1.5279    1.0704    0.0693 O   0  5  0  0  0  0  0  0  0  0  0  0
   -0.0208   -1.7706   -2.2634 O   0  0  0  0  0  0  0  0  0  0  0  0
   -1.7585   -2.4336   -0.7199 C   0  0  0  0  0  0  0  0  0  0  0  0
    2.7193   -1.4422    0.1300 N   0  0  0  0  0  2  0  0  0  0  0  0
    0.7771   -0.7125   -1.7065 C   0  0  0  0  0  3  0  0  0  0  0  0
    0.3249    0.2707   -1.9794 H   0  0  0  0  0  0  0  0  0  0  0  0
    1.7686   -0.8065   -2.1926 H   0  0  0  0  0  0  0  0  0  0  0  0
   -3.1457   -2.4883   -0.4396 C   0  0  0  0  0  0  0  0  0  0  0  0
   -3.4855   -3.0159    0.4660 H   0  0  0  0  0  0  0  0  0  0  0  0
   -4.1026   -1.8607   -1.2545 C   0  0  0  0  0  0  0  0  0  0  0  0
   -3.6446   -1.1843   -2.4070 C   0  0  0  0  0  0  0  0  0  0  0  0
   -4.3728   -0.6939   -3.0724 H   0  0  0  0  0  0  0  0  0  0  0  0
   -2.2829   -1.1383   -2.7246 C   0  0  0  0  0  0  0  0  0  0  0  0
   -1.9246   -0.6334   -3.6336 H   0  0  0  0  0  0  0  0  0  0  0  0
    0.3517   -2.5084    0.4509 N   0  0  0  0  0  2  0  0  0  0  0  0
    3.8335   -0.8110   -0.1837 C   0  0  2  0  0  3  0  0  0  0  0  0
    2.8989    2.8854   -0.4265 C   0  0  0  0  0  0  0  0  0  0  0  0
    2.0085    3.5139   -0.2782 H   0  0  0  0  0  0  0  0  0  0  0  0
    4.1199    3.4343   -0.7800 C   0  0  0  0  0  0  0  0  0  0  0  0
    4.2036    4.5255   -0.9136 H   0  0  0  0  0  0  0  0  0  0  0  0
    5.2660    2.6173   -0.9769 C   0  0  0  0  0  0  0  0  0  0  0  0
    6.5891    3.2270   -1.3657 C   0  0  0  0  0  0  0  0  0  0  0  0
    6.5202    3.7760   -2.3293 H   0  0  0  0  0  0  0  0  0  0  0  0
    7.3767    2.4559   -1.4759 H   0  0  0  0  0  0  0  0  0  0  0  0
    6.9407    3.9594   -0.6079 H   0  0  0  0  0  0  0  0  0  0  0  0
   -5.5686   -1.8814   -0.9006 C   0  0  0  0  0  0  0  0  0  0  0  0
   -5.7953   -2.6494   -0.1361 H   0  0  0  0  0  0  0  0  0  0  0  0
   -6.1981   -2.0855   -1.7900 H   0  0  0  0  0  0  0  0  0  0  0  0
   -5.8972   -0.9019   -0.4902 H   0  0  0  0  0  0  0  0  0  0  0  0
    5.1119    1.2455   -0.7904 C   0  0  0  0  0  0  0  0  0  0  0  0
    6.0017    0.6168   -0.9328 H   0  0  0  0  0  0  0  0  0  0  0  0
    2.7238    1.4756   -0.2450 C   0  0  0  0  0  0  0  0  0  0  0  0
    2.7106   -2.8746    0.4355 C   0  0  0  0  0  0  0  0  0  0  0  0
    3.5715   -3.1730    1.0671 H   0  0  0  0  0  0  0  0  0  0  0  0
    2.7588   -3.4620   -0.5104 H   0  0  0  0  0  0  0  0  0  0  0  0
    5.1367   -1.5747   -0.3015 C   0  0  0  0  0  0  0  0  0  0  0  0
    5.0149   -2.6636   -0.1901 H   0  0  0  0  0  0  0  0  0  0  0  0
    5.8668   -1.2279    0.4575 H   0  0  0  0  0  0  0  0  0  0  0  0
    5.5933   -1.3943   -1.2942 H   0  0  0  0  0  0  0  0  0  0  0  0
   -1.0899   -4.5058    0.6350 C   0  0  0  0  0  0  0  0  0  0  0  0
   -0.4480   -5.2514    0.1190 H   0  0  0  0  0  0  0  0  0  0  0  0
   -2.1362   -4.7714    0.4043 H   0  0  0  0  0  0  0  0  0  0  0  0
   -0.9248   -4.6196    1.7249 H   0  0  0  0  0  0  0  0  0  0  0  0
   -0.7707   -3.1089    0.1519 C   0  0  2  0  0  3  0  0  0  0  0  0
    1.4162   -3.1962    1.1741 C   0  0  0  0  0  0  0  0  0  0  0  0
    1.4519   -2.7500    2.1915 H   0  0  0  0  0  0  0  0  0  0  0  0
    1.2695   -4.2918    1.2394 H   0  0  0  0  0  0  0  0  0  0  0  0
    3.8780    0.6270   -0.4243 C   0  0  0  0  0  0  0  0  0  0  0  0
  1  4  1  0  0  0  0
  3  1  1  0  0  0  0
  3  6  1  0  0  0  0
  4  9  2  0  0  0  0
  4 45  1  0  0  0  0
  5 34  1  0  0  0  0
  7  6  1  0  0  0  0
  8  6  1  0  0  0  0
  9 10  1  0  0  0  0
 11 27  1  0  0  0  0
 11  9  1  0  0  0  0
 12 11  2  0  0  0  0
 13 12  1  0  0  0  0
 14 12  1  0  0  0  0
 14  1  2  0  0  0  0
 15 14  1  0  0  0  0
 16 46  1  0  0  0  0
 17  5  1  1  0  0  0
 18 19  1  0  0  0  0
 18 33  1  0  0  0  0
 20 18  2  0  0  0  0
 21 20  1  0  0  0  0
 22 31  2  0  0  0  0
 22 20  1  0  0  0  0
 23 22  1  0  0  0  0
 23 26  1  0  0  0  0
 24 23  1  0  0  0  0
 25 23  1  0  0  0  0
 27 30  1  0  0  0  0
 27 28  1  0  0  0  0
 29 27  1  0  0  0  0
 31 49  1  0  0  0  0
 32 31  1  0  0  0  0
 33  2  1  0  0  0  0
 34 35  1  0  0  0  0
 34 46  1  0  0  0  0
 36 34  1  0  0  0  0
 37 38  1  0  0  0  0
 37 17  1  0  0  0  0
 37 39  1  0  0  0  0
 40 37  1  0  0  0  0
 41 44  1  0  0  0  0
 42 41  1  0  0  0  0
 43 41  1  0  0  0  0
 45 16  1  6  0  0  0
 45 41  1  0  0  0  0
 46 48  1  0  0  0  0
 46 47  1  0  0  0  0
 49 33  2  0  0  0  0
 49 17  1  0  0  0  0
M  CHG  1   2  -1
M  END
