2,3,5
 OpenBabel05122313063D

 61 61  0  0  1  0  0  0  0  0999 V2000
    1.4179    2.3590   -0.3887 Si  0  0  0  0  0  0  0  0  0  0  0  0
   -0.0644    1.4578   -0.7580 N   0  0  0  0  0  2  0  0  0  0  0  0
   -1.4869    0.1815    0.3979 N   0  0  0  0  0  2  0  0  0  0  0  0
   -2.0352    2.5217    0.0886 N   0  0  0  0  0  0  0  0  0  0  0  0
   -0.5868   -2.0848    0.9222 O   0  0  0  0  0  1  0  0  0  0  0  0
    2.2700    0.9421    0.5284 C   0  0  1  0  0  3  0  0  0  0  0  0
    1.7118    0.4741    1.7888 C   0  0  0  0  0  0  0  0  0  0  0  0
    2.0444   -0.9035    1.9460 C   0  0  0  0  0  0  0  0  0  0  0  0
    2.7863   -1.3163    0.7857 C   0  0  0  0  0  0  0  0  0  0  0  0
    2.9537   -0.1800   -0.0693 C   0  0  0  0  0  0  0  0  0  0  0  0
    0.9307    1.2999    2.7763 C   0  0  0  0  0  0  0  0  0  0  0  0
    1.5364    2.1420    3.1711 H   0  0  0  0  0  0  0  0  0  0  0  0
    0.6094    0.6865    3.6398 H   0  0  0  0  0  0  0  0  0  0  0  0
    0.0106    1.7391    2.3381 H   0  0  0  0  0  0  0  0  0  0  0  0
    1.7055   -1.8078    3.0927 C   0  0  0  0  0  0  0  0  0  0  0  0
    2.6195   -2.2469    3.5450 H   0  0  0  0  0  0  0  0  0  0  0  0
    1.0560   -2.6427    2.7547 H   0  0  0  0  0  0  0  0  0  0  0  0
    1.1604   -1.2717    3.8931 H   0  0  0  0  0  0  0  0  0  0  0  0
    3.3550   -2.6909    0.5785 C   0  0  0  0  0  0  0  0  0  0  0  0
    4.3092   -2.8245    1.1348 H   0  0  0  0  0  0  0  0  0  0  0  0
    3.5684   -2.8931   -0.4893 H   0  0  0  0  0  0  0  0  0  0  0  0
    2.6609   -3.4779    0.9369 H   0  0  0  0  0  0  0  0  0  0  0  0
    3.7710   -0.1869   -1.3312 C   0  0  0  0  0  0  0  0  0  0  0  0
    3.4462    0.5841   -2.0515 H   0  0  0  0  0  0  0  0  0  0  0  0
    3.7216   -1.1662   -1.8464 H   0  0  0  0  0  0  0  0  0  0  0  0
    4.8417    0.0109   -1.1051 H   0  0  0  0  0  0  0  0  0  0  0  0
    2.2292    2.8990   -2.0050 C   0  0  0  0  0  0  0  0  0  0  0  0
    3.2821    3.2107   -1.8494 H   0  0  0  0  0  0  0  0  0  0  0  0
    1.6737    3.7682   -2.4147 H   0  0  0  0  0  0  0  0  0  0  0  0
    2.2104    2.1015   -2.7725 H   0  0  0  0  0  0  0  0  0  0  0  0
    1.1830    3.9152    0.6683 C   0  0  0  0  0  0  0  0  0  0  0  0
    0.8916    4.7757    0.0325 H   0  0  0  0  0  0  0  0  0  0  0  0
    2.1401    4.1729    1.1674 H   0  0  0  0  0  0  0  0  0  0  0  0
    0.4153    3.7885    1.4547 H   0  0  0  0  0  0  0  0  0  0  0  0
   -1.2478    1.4021   -0.0895 C   0  0  1  0  0  3  0  0  0  0  0  0
   -3.0119    2.6223    1.1511 C   0  0  0  0  0  0  0  0  0  0  0  0
   -2.8458    1.8245    1.8951 H   0  0  0  0  0  0  0  0  0  0  0  0
   -4.0608    2.5521    0.7827 H   0  0  0  0  0  0  0  0  0  0  0  0
   -2.8995    3.6005    1.6678 H   0  0  0  0  0  0  0  0  0  0  0  0
   -1.9274    3.6625   -0.7980 C   0  0  0  0  0  0  0  0  0  0  0  0
   -1.2154    3.4250   -1.6088 H   0  0  0  0  0  0  0  0  0  0  0  0
   -1.5739    4.5721   -0.2641 H   0  0  0  0  0  0  0  0  0  0  0  0
   -2.9185    3.8935   -1.2492 H   0  0  0  0  0  0  0  0  0  0  0  0
   -2.5722   -0.6498    0.8727 C   0  0  1  0  0  0  0  0  0  0  0  0
   -3.2069   -0.1399    1.6359 H   0  0  0  0  0  0  0  0  0  0  0  0
   -3.5638   -1.1331   -0.2507 C   0  0  0  0  0  0  0  0  0  0  0  0
   -4.7479   -1.8482    0.4269 C   0  0  0  0  0  0  0  0  0  0  0  0
   -5.4859   -2.1789   -0.3325 H   0  0  0  0  0  0  0  0  0  0  0  0
   -5.2735   -1.1764    1.1381 H   0  0  0  0  0  0  0  0  0  0  0  0
   -4.4241   -2.7486    0.9867 H   0  0  0  0  0  0  0  0  0  0  0  0
   -2.8832   -2.0873   -1.2461 C   0  0  0  0  0  0  0  0  0  0  0  0
   -3.6011   -2.3840   -2.0386 H   0  0  0  0  0  0  0  0  0  0  0  0
   -2.5209   -3.0098   -0.7526 H   0  0  0  0  0  0  0  0  0  0  0  0
   -2.0090   -1.6079   -1.7313 H   0  0  0  0  0  0  0  0  0  0  0  0
   -4.1103    0.0793   -1.0243 C   0  0  0  0  0  0  0  0  0  0  0  0
   -4.8414   -0.2542   -1.7891 H   0  0  0  0  0  0  0  0  0  0  0  0
   -3.3038    0.6267   -1.5505 H   0  0  0  0  0  0  0  0  0  0  0  0
   -4.6360    0.7891   -0.3529 H   0  0  0  0  0  0  0  0  0  0  0  0
   -1.7989   -1.8127    1.5792 C   0  0  0  0  0  0  0  0  0  0  0  0
   -1.5996   -1.5069    2.6364 H   0  0  0  0  0  0  0  0  0  0  0  0
   -2.4273   -2.7312    1.6304 H   0  0  0  0  0  0  0  0  0  0  0  0
  1 31  1  0  0  0  0
  2  1  1  0  0  0  0
  3 44  1  0  0  0  0
  4 36  1  0  0  0  0
  5 59  1  0  0  0  0
  6  1  1  6  0  0  0
  6  7  1  0  0  0  0
  7  8  2  0  0  0  0
  7 11  1  0  0  0  0
  8 15  1  0  0  0  0
  9  8  1  0  0  0  0
 10  6  1  0  0  0  0
 10  9  2  0  0  0  0
 11 12  1  0  0  0  0
 11 13  1  0  0  0  0
 14 11  1  0  0  0  0
 15 16  1  0  0  0  0
 15 18  1  0  0  0  0
 17 15  1  0  0  0  0
 19  9  1  0  0  0  0
 19 22  1  0  0  0  0
 19 20  1  0  0  0  0
 21 19  1  0  0  0  0
 23 26  1  0  0  0  0
 23 10  1  0  0  0  0
 24 23  1  0  0  0  0
 25 23  1  0  0  0  0
 27 28  1  0  0  0  0
 27  1  1  0  0  0  0
 29 27  1  0  0  0  0
 30 27  1  0  0  0  0
 31 33  1  0  0  0  0
 31 34  1  0  0  0  0
 32 31  1  0  0  0  0
 35  2  1  1  0  0  0
 35  4  1  0  0  0  0
 35  3  1  0  0  0  0
 36 39  1  0  0  0  0
 36 37  1  0  0  0  0
 38 36  1  0  0  0  0
 40 42  1  0  0  0  0
 40  4  1  0  0  0  0
 41 40  1  0  0  0  0
 43 40  1  0  0  0  0
 44 59  1  0  0  0  0
 44 45  1  1  0  0  0
 46 47  1  0  0  0  0
 46 44  1  0  0  0  0
 47 50  1  0  0  0  0
 47 49  1  0  0  0  0
 48 47  1  0  0  0  0
 51 53  1  0  0  0  0
 51 46  1  0  0  0  0
 52 51  1  0  0  0  0
 54 51  1  0  0  0  0
 55 58  1  0  0  0  0
 55 46  1  0  0  0  0
 56 55  1  0  0  0  0
 57 55  1  0  0  0  0
 59 61  1  0  0  0  0
 59 60  1  0  0  0  0
M  END
