1,10
 OpenBabel05122313053D

 56 59  0  0  1  0  0  0  0  0999 V2000
   -1.5732    0.1128    0.3731 P   0  0  0  0  0  0  0  0  0  0  0  0
   -2.3508    1.8100    0.2263 C   0  0  0  0  0  0  0  0  0  0  0  0
   -1.6537    2.4292    0.8386 H   0  0  0  0  0  0  0  0  0  0  0  0
   -0.7412   -1.7580   -2.0854 C   0  0  1  0  0  3  0  0  0  0  0  0
   -0.9444    0.6181    3.0485 C   0  0  0  0  0  0  0  0  0  0  0  0
    0.1010    0.6742    2.6654 H   0  0  0  0  0  0  0  0  0  0  0  0
   -1.3667    1.6411    2.9633 H   0  0  0  0  0  0  0  0  0  0  0  0
   -2.9698   -2.8619   -2.1621 C   0  0  0  0  0  0  0  0  0  0  0  0
   -2.5745   -3.4646   -2.9934 H   0  0  0  0  0  0  0  0  0  0  0  0
   -0.2188   -0.5086   -2.5340 C   0  0  0  0  0  3  0  0  0  0  0  0
   -0.9005    0.3467   -2.6478 H   0  0  0  0  0  0  0  0  0  0  0  0
   -2.2616    2.3174   -1.2237 C   0  0  0  0  0  0  0  0  0  0  0  0
   -1.2204    2.2017   -1.5938 H   0  0  0  0  0  0  0  0  0  0  0  0
   -2.8994    1.6758   -1.8728 H   0  0  0  0  0  0  0  0  0  0  0  0
   -1.7321   -0.3691    2.1669 C   0  0  0  0  0  0  0  0  0  0  0  0
   -2.8076   -0.3310    2.4501 H   0  0  0  0  0  0  0  0  0  0  0  0
   -1.2176   -1.8096    2.3458 C   0  0  0  0  0  0  0  0  0  0  0  0
   -1.8265   -2.5115    1.7391 H   0  0  0  0  0  0  0  0  0  0  0  0
   -0.1812   -1.8558    1.9412 H   0  0  0  0  0  0  0  0  0  0  0  0
   -3.9756   -1.3200   -0.0654 C   0  0  0  0  0  0  0  0  0  0  0  0
   -4.3708   -0.7478    0.7858 H   0  0  0  0  0  0  0  0  0  0  0  0
   -0.4047   -1.2518    4.6796 C   0  0  0  0  0  0  0  0  0  0  0  0
    0.6645   -1.2854    4.3696 H   0  0  0  0  0  0  0  0  0  0  0  0
   -0.4305   -1.5566    5.7458 H   0  0  0  0  0  0  0  0  0  0  0  0
   -2.7170    3.7787   -1.3373 C   0  0  0  0  0  0  0  0  0  0  0  0
   -1.9991    4.4250   -0.7825 H   0  0  0  0  0  0  0  0  0  0  0  0
   -2.6797    4.1056   -2.3971 H   0  0  0  0  0  0  0  0  0  0  0  0
   -2.1367   -1.8803   -1.5782 C   0  0  0  0  0  0  0  0  0  0  0  0
   -0.9311    0.1788    4.5198 C   0  0  0  0  0  0  0  0  0  0  0  0
   -0.3237    0.8904    5.1163 H   0  0  0  0  0  0  0  0  0  0  0  0
   -1.9657    0.2366    4.9253 H   0  0  0  0  0  0  0  0  0  0  0  0
    0.0769   -2.9032   -2.1910 C   0  0  0  0  0  0  0  0  0  0  0  0
   -0.3183   -3.8732   -1.8531 H   0  0  0  0  0  0  0  0  0  0  0  0
    1.1005   -0.4297   -3.0369 C   0  0  0  0  0  0  0  0  0  0  0  0
    1.4778    0.5339   -3.4104 H   0  0  0  0  0  0  0  0  0  0  0  0
   -4.2830   -3.0619   -1.7209 C   0  0  0  0  0  0  0  0  0  0  0  0
   -4.9119   -3.8256   -2.2021 H   0  0  0  0  0  0  0  0  0  0  0  0
   -1.2091   -2.2335    3.8199 C   0  0  0  0  0  0  0  0  0  0  0  0
   -2.2564   -2.2790    4.1929 H   0  0  0  0  0  0  0  0  0  0  0  0
   -0.8026   -3.2620    3.9124 H   0  0  0  0  0  0  0  0  0  0  0  0
   -3.7700    1.9934    0.7852 C   0  0  0  0  0  0  0  0  0  0  0  0
   -4.4752    1.3670    0.1982 H   0  0  0  0  0  0  0  0  0  0  0  0
   -3.8288    1.6480    1.8386 H   0  0  0  0  0  0  0  0  0  0  0  0
   -4.1237    3.9754   -0.7595 C   0  0  0  0  0  0  0  0  0  0  0  0
   -4.8563    3.4223   -1.3888 H   0  0  0  0  0  0  0  0  0  0  0  0
   -4.4155    5.0443   -0.8096 H   0  0  0  0  0  0  0  0  0  0  0  0
   -4.7888   -2.2909   -0.6637 C   0  0  0  0  0  0  0  0  0  0  0  0
   -5.8142   -2.4497   -0.2985 H   0  0  0  0  0  0  0  0  0  0  0  0
   -2.6569   -1.0858   -0.5141 C   0  0  0  0  0  0  0  0  0  0  0  0
   -4.2108    3.4627    0.6830 C   0  0  0  0  0  0  0  0  0  0  0  0
   -5.2431    3.5726    1.0740 H   0  0  0  0  0  0  0  0  0  0  0  0
   -3.5609    4.0852    1.3381 H   0  0  0  0  0  0  0  0  0  0  0  0
    1.9017   -1.5813   -3.1190 C   0  0  0  0  0  0  0  0  0  0  0  0
    2.9231   -1.5142   -3.5212 H   0  0  0  0  0  0  0  0  0  0  0  0
    1.3819   -2.8170   -2.7060 C   0  0  0  0  0  0  0  0  0  0  0  0
    1.9966   -3.7262   -2.7844 H   0  0  0  0  0  0  0  0  0  0  0  0
  1 15  1  0  0  0  0
  2  1  1  0  0  0  0
  2 41  1  0  0  0  0
  2  3  1  0  0  0  0
  4 28  1  6  0  0  0
  5 29  1  0  0  0  0
  6  5  1  0  0  0  0
  7  5  1  0  0  0  0
  8 36  2  0  0  0  0
  8 28  1  0  0  0  0
  9  8  1  0  0  0  0
 10  4  1  0  0  0  0
 11 10  1  0  0  0  0
 12  2  1  0  0  0  0
 13 12  1  0  0  0  0
 14 12  1  0  0  0  0
 15 17  1  0  0  0  0
 15 16  1  0  0  0  0
 15  5  1  0  0  0  0
 17 38  1  0  0  0  0
 18 17  1  0  0  0  0
 19 17  1  0  0  0  0
 20 21  1  0  0  0  0
 22 24  1  0  0  0  0
 23 22  1  0  0  0  0
 25 12  1  0  0  0  0
 25 26  1  0  0  0  0
 25 44  1  0  0  0  0
 27 25  1  0  0  0  0
 28 49  2  0  0  0  0
 29 22  1  0  0  0  0
 29 31  1  0  0  0  0
 29 30  1  0  0  0  0
 32  4  1  0  0  0  0
 32 33  1  0  0  0  0
 34 10  1  0  0  0  0
 35 34  1  0  0  0  0
 36 47  1  0  0  0  0
 37 36  1  0  0  0  0
 38 40  1  0  0  0  0
 38 39  1  0  0  0  0
 38 22  1  0  0  0  0
 41 43  1  0  0  0  0
 42 41  1  0  0  0  0
 44 50  1  0  0  0  0
 45 44  1  0  0  0  0
 46 44  1  0  0  0  0
 47 48  1  0  0  0  0
 47 20  2  0  0  0  0
 49 20  1  0  0  0  0
 49  1  1  0  0  0  0
 50 41  1  0  0  0  0
 50 51  1  0  0  0  0
 50 52  1  0  0  0  0
 53 34  2  0  0  0  0
 53 55  1  0  0  0  0
 54 53  1  0  0  0  0
 55 32  2  0  0  0  0
 56 55  1  0  0  0  0
M  END
