3,4
 OpenBabel05122313053D

 56 60  0  0  0  0  0  0  0  0999 V2000
    0.1412   -0.2317    2.3131 N   0  0  0  0  0  0  0  0  0  0  0  0
    1.5082    0.2547    0.7051 N   0  0  0  0  0  0  0  0  0  0  0  0
   -2.3621    0.1328    0.5015 P   0  0  0  0  0  0  0  0  0  0  0  0
    0.3678   -0.4379    0.9806 C   0  0  0  0  0  2  0  0  0  0  0  0
    1.1306    0.5717    2.8677 C   0  0  0  0  0  0  0  0  0  0  0  0
    1.1541    0.8290    3.9307 H   0  0  0  0  0  0  0  0  0  0  0  0
    1.9974    0.8739    1.8471 C   0  0  0  0  0  0  0  0  0  0  0  0
    2.9244    1.4534    1.8343 H   0  0  0  0  0  0  0  0  0  0  0  0
   -1.1129   -0.6470    2.9355 C   0  0  0  0  0  0  0  0  0  0  0  0
   -1.0211   -0.5107    4.0307 H   0  0  0  0  0  0  0  0  0  0  0  0
   -1.2478   -1.7276    2.7298 H   0  0  0  0  0  0  0  0  0  0  0  0
   -2.3065    0.1444    2.3779 C   0  0  0  0  0  0  0  0  0  0  0  0
   -2.3202    1.1902    2.7480 H   0  0  0  0  0  0  0  0  0  0  0  0
   -3.2509   -0.3317    2.7078 H   0  0  0  0  0  0  0  0  0  0  0  0
   -4.1589    0.1563    0.1548 C   0  0  0  0  0  0  0  0  0  0  0  0
   -4.8770    1.3686    0.2318 C   0  0  0  0  0  0  0  0  0  0  0  0
   -4.3470    2.3150    0.4207 H   0  0  0  0  0  0  0  0  0  0  0  0
   -6.2682    1.3668    0.0561 C   0  0  0  0  0  0  0  0  0  0  0  0
   -6.8271    2.3132    0.1132 H   0  0  0  0  0  0  0  0  0  0  0  0
   -6.9432    0.1610   -0.1966 C   0  0  0  0  0  0  0  0  0  0  0  0
   -8.0347    0.1627   -0.3397 H   0  0  0  0  0  0  0  0  0  0  0  0
   -6.2259   -1.0428   -0.2786 C   0  0  0  0  0  0  0  0  0  0  0  0
   -6.7513   -1.9854   -0.4945 H   0  0  0  0  0  0  0  0  0  0  0  0
   -4.8332   -1.0535   -0.1064 C   0  0  0  0  0  0  0  0  0  0  0  0
   -4.2518   -1.9804   -0.2280 H   0  0  0  0  0  0  0  0  0  0  0  0
   -1.7463    1.7673   -0.0675 C   0  0  0  0  0  0  0  0  0  0  0  0
   -0.9851    2.6358    0.7373 C   0  0  0  0  0  0  0  0  0  0  0  0
   -0.8235    2.4199    1.8035 H   0  0  0  0  0  0  0  0  0  0  0  0
   -0.3916    3.7794    0.1769 C   0  0  0  0  0  0  0  0  0  0  0  0
    0.2077    4.4474    0.8140 H   0  0  0  0  0  0  0  0  0  0  0  0
   -0.5597    4.0662   -1.1859 C   0  0  0  0  0  0  0  0  0  0  0  0
   -0.0944    4.9626   -1.6231 H   0  0  0  0  0  0  0  0  0  0  0  0
   -1.3219    3.2024   -1.9928 C   0  0  0  0  0  0  0  0  0  0  0  0
   -1.4514    3.4173   -3.0642 H   0  0  0  0  0  0  0  0  0  0  0  0
   -1.9054    2.0544   -1.4425 C   0  0  0  0  0  0  0  0  0  0  0  0
   -2.4689    1.3567   -2.0825 H   0  0  0  0  0  0  0  0  0  0  0  0
    2.0322    0.4427   -0.6639 C   0  0  0  0  0  0  0  0  0  0  0  0
    1.3989    1.2092   -1.1559 H   0  0  0  0  0  0  0  0  0  0  0  0
    1.8654   -0.5242   -1.1851 H   0  0  0  0  0  0  0  0  0  0  0  0
    3.4751    0.8720   -0.6636 C   0  0  0  0  0  0  0  0  0  0  0  0
    3.8011    2.1912   -0.9665 C   0  0  0  0  0  0  0  0  0  0  0  0
    2.9936    2.8938   -1.2281 H   0  0  0  0  0  0  0  0  0  0  0  0
    5.1463    2.6436   -0.9409 C   0  0  0  0  0  0  0  0  0  0  0  0
    5.3744    3.6904   -1.1922 H   0  0  0  0  0  0  0  0  0  0  0  0
    6.1634    1.7690   -0.5947 C   0  0  0  0  0  0  0  0  0  0  0  0
    7.2098    2.1113   -0.5645 H   0  0  0  0  0  0  0  0  0  0  0  0
    5.8801    0.4081   -0.2745 C   0  0  0  0  0  0  0  0  0  0  0  0
    4.5139   -0.0604   -0.3165 C   0  0  0  0  0  0  0  0  0  0  0  0
    4.2465   -1.4298   -0.0136 C   0  0  0  0  0  0  0  0  0  0  0  0
    3.2174   -1.8223   -0.0731 H   0  0  0  0  0  0  0  0  0  0  0  0
    5.2816   -2.2904    0.3254 C   0  0  0  0  0  0  0  0  0  0  0  0
    5.0561   -3.3448    0.5457 H   0  0  0  0  0  0  0  0  0  0  0  0
    6.6231   -1.8286    0.3786 C   0  0  0  0  0  0  0  0  0  0  0  0
    7.4317   -2.5248    0.6490 H   0  0  0  0  0  0  0  0  0  0  0  0
    6.9150   -0.5062    0.0805 C   0  0  0  0  0  0  0  0  0  0  0  0
    7.9537   -0.1413    0.1089 H   0  0  0  0  0  0  0  0  0  0  0  0
  1  5  1  0  0  0  0
  1  9  1  0  0  0  0
  2  4  1  0  0  0  0
  2  7  1  0  0  0  0
  3 12  1  0  0  0  0
  4  1  1  0  0  0  0
  5  6  1  0  0  0  0
  7  5  2  0  0  0  0
  8  7  1  0  0  0  0
  9 10  1  0  0  0  0
 11  9  1  0  0  0  0
 12 14  1  0  0  0  0
 12 13  1  0  0  0  0
 12  9  1  0  0  0  0
 15 16  1  0  0  0  0
 15  3  1  0  0  0  0
 16 17  1  0  0  0  0
 18 19  1  0  0  0  0
 18 16  2  0  0  0  0
 20 18  1  0  0  0  0
 21 20  1  0  0  0  0
 22 20  2  0  0  0  0
 22 24  1  0  0  0  0
 23 22  1  0  0  0  0
 24 15  2  0  0  0  0
 25 24  1  0  0  0  0
 26  3  1  0  0  0  0
 26 27  1  0  0  0  0
 27 28  1  0  0  0  0
 29 27  2  0  0  0  0
 29 30  1  0  0  0  0
 31 29  1  0  0  0  0
 32 31  1  0  0  0  0
 33 35  1  0  0  0  0
 33 31  2  0  0  0  0
 34 33  1  0  0  0  0
 35 26  2  0  0  0  0
 36 35  1  0  0  0  0
 37 40  1  0  0  0  0
 37  2  1  0  0  0  0
 38 37  1  0  0  0  0
 39 37  1  0  0  0  0
 40 48  1  0  0  0  0
 41 43  1  0  0  0  0
 41 40  2  0  0  0  0
 42 41  1  0  0  0  0
 43 45  2  0  0  0  0
 44 43  1  0  0  0  0
 45 46  1  0  0  0  0
 45 47  1  0  0  0  0
 47 55  1  0  0  0  0
 48 47  2  0  0  0  0
 48 49  1  0  0  0  0
 49 51  2  0  0  0  0
 50 49  1  0  0  0  0
 51 53  1  0  0  0  0
 51 52  1  0  0  0  0
 53 54  1  0  0  0  0
 55 56  1  0  0  0  0
 55 53  2  0  0  0  0
M  END
