1,3
 OpenBabel05122313053D

 36 38  0  0  0  0  0  0  0  0999 V2000
   -1.6287    0.7224    0.2032 P   0  0  0  0  0  0  0  0  0  0  0  0
   -3.1383   -0.0641   -0.4297 C   0  0  0  0  0  0  0  0  0  0  0  0
   -2.5865   -1.3140   -0.8142 C   0  0  0  0  0  3  0  0  0  0  0  0
   -3.4409   -2.2913   -1.3454 C   0  0  0  0  0  0  0  0  0  0  0  0
   -4.8202   -2.0156   -1.4887 C   0  0  0  0  0  0  0  0  0  0  0  0
   -5.3321   -0.7561   -1.0908 C   0  0  0  0  0  0  0  0  0  0  0  0
   -4.5004    0.2382   -0.5504 C   0  0  0  0  0  0  0  0  0  0  0  0
   -5.7374   -3.0643   -2.0692 C   0  0  0  0  0  0  0  0  0  0  0  0
   -1.3180    2.3213   -0.6292 C   0  0  0  0  0  0  0  0  0  0  0  0
   -1.8955    2.5590   -1.8934 C   0  0  0  0  0  0  0  0  0  0  0  0
   -1.5798    3.7283   -2.6011 C   0  0  0  0  0  0  0  0  0  0  0  0
   -0.6848    4.6643   -2.0577 C   0  0  0  0  0  0  0  0  0  0  0  0
   -0.1034    4.4282   -0.8015 C   0  0  0  0  0  0  0  0  0  0  0  0
   -0.4163    3.2624   -0.0896 C   0  0  0  0  0  0  0  0  0  0  0  0
   -1.8052    1.0759    1.9907 C   0  0  0  0  0  0  0  0  0  0  0  0
   -1.5531    0.0170    2.8860 C   0  0  0  0  0  0  0  0  0  0  0  0
   -1.7338    0.2053    4.2624 C   0  0  0  0  0  0  0  0  0  0  0  0
   -2.1623    1.4490    4.7536 C   0  0  0  0  0  0  0  0  0  0  0  0
   -2.4193    2.5043    3.8634 C   0  0  0  0  0  0  0  0  0  0  0  0
   -2.2466    2.3212    2.4830 C   0  0  0  0  0  0  0  0  0  0  0  0
   -3.0281   -3.2677   -1.6465 H   0  0  0  0  0  0  0  0  0  0  0  0
   -6.4101   -0.5592   -1.2051 H   0  0  0  0  0  0  0  0  0  0  0  0
   -4.9104    1.2107   -0.2357 H   0  0  0  0  0  0  0  0  0  0  0  0
   -5.6520   -4.0214   -1.5145 H   0  0  0  0  0  0  0  0  0  0  0  0
   -5.4711   -3.2853   -3.1243 H   0  0  0  0  0  0  0  0  0  0  0  0
   -6.7978   -2.7462   -2.0460 H   0  0  0  0  0  0  0  0  0  0  0  0
   -2.5902    1.8187   -2.3195 H   0  0  0  0  0  0  0  0  0  0  0  0
   -2.0384    3.9092   -3.5852 H   0  0  0  0  0  0  0  0  0  0  0  0
   -0.4383    5.5804   -2.6161 H   0  0  0  0  0  0  0  0  0  0  0  0
    0.6063    5.1529   -0.3750 H   0  0  0  0  0  0  0  0  0  0  0  0
    0.0441    3.0798    0.8920 H   0  0  0  0  0  0  0  0  0  0  0  0
   -1.2051   -0.9488    2.4859 H   0  0  0  0  0  0  0  0  0  0  0  0
   -1.5263   -0.6231    4.9559 H   0  0  0  0  0  0  0  0  0  0  0  0
   -2.2966    1.5979    5.8359 H   0  0  0  0  0  0  0  0  0  0  0  0
   -2.7615    3.4783    4.2455 H   0  0  0  0  0  0  0  0  0  0  0  0
   -2.4547    3.1491    1.7887 H   0  0  0  0  0  0  0  0  0  0  0  0
  1 15  1  0  0  0  0
  2  1  1  0  0  0  0
  3  2  2  0  0  0  0
  4  3  1  0  0  0  0
  5  4  2  0  0  0  0
  5  6  1  0  0  0  0
  6  7  2  0  0  0  0
  7  2  1  0  0  0  0
  7 23  1  0  0  0  0
  8 26  1  0  0  0  0
  8 24  1  0  0  0  0
  8  5  1  0  0  0  0
  9 14  1  0  0  0  0
  9  1  1  0  0  0  0
 10  9  2  0  0  0  0
 11 12  2  0  0  0  0
 11 10  1  0  0  0  0
 12 13  1  0  0  0  0
 13 30  1  0  0  0  0
 13 14  2  0  0  0  0
 14 31  1  0  0  0  0
 15 20  2  0  0  0  0
 15 16  1  0  0  0  0
 16 17  2  0  0  0  0
 17 18  1  0  0  0  0
 17 33  1  0  0  0  0
 18 34  1  0  0  0  0
 19 35  1  0  0  0  0
 19 18  2  0  0  0  0
 20 19  1  0  0  0  0
 21  4  1  0  0  0  0
 22  6  1  0  0  0  0
 25  8  1  0  0  0  0
 27 10  1  0  0  0  0
 28 11  1  0  0  0  0
 29 12  1  0  0  0  0
 32 16  1  0  0  0  0
 36 20  1  0  0  0  0
M  END
