1,11
 OpenBabel05122313053D

 37 37  0  0  0  0  0  0  0  0999 V2000
    1.2027    0.8323    0.0311 P   0  0  0  0  0  0  0  0  0  0  0  0
    2.5309   -0.4567    0.0969 C   0  0  0  0  0  0  0  0  0  0  0  0
    1.9749   -1.7593    0.1732 C   0  0  0  0  0  0  0  0  0  0  0  0
    2.8362   -2.8753    0.1371 C   0  0  0  0  0  0  0  0  0  0  0  0
    2.4026   -3.8874    0.1713 H   0  0  0  0  0  0  0  0  0  0  0  0
    4.2219   -2.7010    0.0689 C   0  0  0  0  0  0  0  0  0  0  0  0
    4.8896   -3.5758    0.0300 H   0  0  0  0  0  0  0  0  0  0  0  0
    4.7649   -1.4078    0.0641 C   0  0  0  0  0  0  0  0  0  0  0  0
    5.8580   -1.2738    0.0340 H   0  0  0  0  0  0  0  0  0  0  0  0
    3.9404   -0.2655    0.0929 C   0  0  0  0  0  0  0  0  0  0  0  0
    0.4887   -1.9290    0.3631 C   0  0  0  0  0  3  0  0  0  0  0  0
    0.3171   -2.1115    1.4494 H   0  0  0  0  0  0  0  0  0  0  0  0
    0.1532   -2.8507   -0.1626 H   0  0  0  0  0  0  0  0  0  0  0  0
    4.6102    1.0872    0.1747 C   0  0  0  0  0  0  0  0  0  0  0  0
    4.7036    1.4141    1.2331 H   0  0  0  0  0  0  0  0  0  0  0  0
    4.0629    1.8829   -0.3610 H   0  0  0  0  0  0  0  0  0  0  0  0
    5.6369    1.0447   -0.2385 H   0  0  0  0  0  0  0  0  0  0  0  0
    1.5278    1.8028    1.6188 C   0  0  0  0  0  0  0  0  0  0  0  0
    2.6009    2.0841    1.5681 H   0  0  0  0  0  0  0  0  0  0  0  0
    1.3190    0.8649    2.8110 C   0  0  0  0  0  0  0  0  0  0  0  0
    1.4995    1.3999    3.7666 H   0  0  0  0  0  0  0  0  0  0  0  0
    2.0041   -0.0049    2.7666 H   0  0  0  0  0  0  0  0  0  0  0  0
    0.2830    0.4721    2.8171 H   0  0  0  0  0  0  0  0  0  0  0  0
    0.6966    3.0823    1.7235 C   0  0  0  0  0  0  0  0  0  0  0  0
   -0.3839    2.8645    1.6181 H   0  0  0  0  0  0  0  0  0  0  0  0
    0.9697    3.8273    0.9509 H   0  0  0  0  0  0  0  0  0  0  0  0
    0.8487    3.5605    2.7140 H   0  0  0  0  0  0  0  0  0  0  0  0
    1.6582    2.0828   -1.3234 C   0  0  0  0  0  0  0  0  0  0  0  0
    2.3400    2.8137   -0.8332 H   0  0  0  0  0  0  0  0  0  0  0  0
    0.3940    2.8252   -1.7750 C   0  0  0  0  0  0  0  0  0  0  0  0
    0.6478    3.5734   -2.5549 H   0  0  0  0  0  0  0  0  0  0  0  0
   -0.1082    3.3548   -0.9443 H   0  0  0  0  0  0  0  0  0  0  0  0
   -0.3391    2.1089   -2.1968 H   0  0  0  0  0  0  0  0  0  0  0  0
    2.3777    1.4589   -2.5257 C   0  0  0  0  0  0  0  0  0  0  0  0
    1.7016    0.7850   -3.0835 H   0  0  0  0  0  0  0  0  0  0  0  0
    3.2685    0.8693   -2.2389 H   0  0  0  0  0  0  0  0  0  0  0  0
    2.7048    2.2604   -3.2211 H   0  0  0  0  0  0  0  0  0  0  0  0
  1  2  1  0  0  0  0
  1 18  1  0  0  0  0
  2  3  1  0  0  0  0
  3 11  1  0  0  0  0
  4  5  1  0  0  0  0
  4  3  2  0  0  0  0
  6  4  1  0  0  0  0
  7  6  1  0  0  0  0
  8  6  2  0  0  0  0
  8 10  1  0  0  0  0
  9  8  1  0  0  0  0
 10  2  2  0  0  0  0
 10 14  1  0  0  0  0
 11 12  1  0  0  0  0
 13 11  1  0  0  0  0
 14 15  1  0  0  0  0
 16 14  1  0  0  0  0
 17 14  1  0  0  0  0
 18 24  1  0  0  0  0
 18 20  1  0  0  0  0
 19 18  1  0  0  0  0
 20 23  1  0  0  0  0
 20 21  1  0  0  0  0
 22 20  1  0  0  0  0
 24 27  1  0  0  0  0
 25 24  1  0  0  0  0
 26 24  1  0  0  0  0
 28 29  1  0  0  0  0
 28  1  1  0  0  0  0
 30 28  1  0  0  0  0
 30 32  1  0  0  0  0
 31 30  1  0  0  0  0
 33 30  1  0  0  0  0
 34 36  1  0  0  0  0
 34 28  1  0  0  0  0
 35 34  1  0  0  0  0
 37 34  1  0  0  0  0
M  END
