1,2
 OpenBabel05122313053D

 45 48  0  0  1  0  0  0  0  0999 V2000
    0.3166    1.0580   -0.1079 P   0  0  0  0  0  0  0  0  0  0  0  0
   -1.2693   -1.1754   -0.1764 C   0  0  0  0  0  3  0  0  0  0  0  0
   -1.9456   -2.3651    0.2268 C   0  0  0  0  0  0  0  0  0  0  0  0
   -1.3463   -3.2268    0.5544 H   0  0  0  0  0  0  0  0  0  0  0  0
   -3.3278   -2.4450    0.1904 C   0  0  0  0  0  0  0  0  0  0  0  0
   -3.8385   -3.3687    0.5078 H   0  0  0  0  0  0  0  0  0  0  0  0
   -4.1203   -1.3478   -0.2569 C   0  0  0  0  0  0  0  0  0  0  0  0
   -5.5430   -1.4148   -0.2954 C   0  0  0  0  0  0  0  0  0  0  0  0
   -6.0319   -2.3452    0.0346 H   0  0  0  0  0  0  0  0  0  0  0  0
   -6.3016   -0.3403   -0.7362 C   0  0  0  0  0  0  0  0  0  0  0  0
   -7.3998   -0.4085   -0.7605 H   0  0  0  0  0  0  0  0  0  0  0  0
   -5.6564    0.8512   -1.1586 C   0  0  0  0  0  0  0  0  0  0  0  0
   -6.2579    1.7037   -1.5097 H   0  0  0  0  0  0  0  0  0  0  0  0
   -4.2716    0.9486   -1.1344 C   0  0  0  0  0  0  0  0  0  0  0  0
   -3.7937    1.8802   -1.4708 H   0  0  0  0  0  0  0  0  0  0  0  0
   -3.4583   -0.1370   -0.6847 C   0  0  0  0  0  0  0  0  0  0  0  0
   -2.0230   -0.0754   -0.6283 C   0  0  0  0  0  0  0  0  0  0  0  0
   -1.2760    1.1660   -1.0785 C   0  0  2  0  0  0  0  0  0  0  0  0
   -1.8033    2.0978   -0.7820 H   0  0  0  0  0  0  0  0  0  0  0  0
   -1.0048    1.1774   -2.5917 C   0  0  0  0  0  0  0  0  0  0  0  0
   -0.3927    0.2992   -2.8801 H   0  0  0  0  0  0  0  0  0  0  0  0
   -0.4756    2.0970   -2.9110 H   0  0  0  0  0  0  0  0  0  0  0  0
   -1.9652    1.1134   -3.1413 H   0  0  0  0  0  0  0  0  0  0  0  0
    1.4999    2.2326   -0.8657 C   0  0  0  0  0  0  0  0  0  0  0  0
    2.7477    1.7796   -1.3351 C   0  0  0  0  0  0  0  0  0  0  0  0
    3.0274    0.7256   -1.1827 H   0  0  0  0  0  0  0  0  0  0  0  0
    3.6282    2.6840   -1.9520 C   0  0  0  0  0  0  0  0  0  0  0  0
    4.6060    2.3305   -2.3133 H   0  0  0  0  0  0  0  0  0  0  0  0
    3.2670    4.0307   -2.1070 C   0  0  0  0  0  0  0  0  0  0  0  0
    3.9582    4.7347   -2.5951 H   0  0  0  0  0  0  0  0  0  0  0  0
    2.0234    4.4847   -1.6334 C   0  0  0  0  0  0  0  0  0  0  0  0
    1.7404    5.5421   -1.7490 H   0  0  0  0  0  0  0  0  0  0  0  0
    1.1428    3.5913   -1.0096 C   0  0  0  0  0  0  0  0  0  0  0  0
    0.1744    3.9511   -0.6271 H   0  0  0  0  0  0  0  0  0  0  0  0
   -0.0444    1.8033    1.5318 C   0  0  0  0  0  0  0  0  0  0  0  0
   -1.3180    1.6717    2.1253 C   0  0  0  0  0  0  0  0  0  0  0  0
   -2.1224    1.1379    1.5977 H   0  0  0  0  0  0  0  0  0  0  0  0
   -1.5564    2.2089    3.3986 C   0  0  0  0  0  0  0  0  0  0  0  0
   -2.5547    2.1065    3.8504 H   0  0  0  0  0  0  0  0  0  0  0  0
   -0.5302    2.8669    4.0954 C   0  0  0  0  0  0  0  0  0  0  0  0
   -0.7212    3.2834    5.0961 H   0  0  0  0  0  0  0  0  0  0  0  0
    0.7412    2.9885    3.5129 C   0  0  0  0  0  0  0  0  0  0  0  0
    1.5513    3.5002    4.0545 H   0  0  0  0  0  0  0  0  0  0  0  0
    0.9858    2.4606    2.2369 C   0  0  0  0  0  0  0  0  0  0  0  0
    1.9829    2.5631    1.7822 H   0  0  0  0  0  0  0  0  0  0  0  0
  1 35  1  0  0  0  0
  2  3  1  0  0  0  0
  3  4  1  0  0  0  0
  5  3  2  0  0  0  0
  5  6  1  0  0  0  0
  7  5  1  0  0  0  0
  8  7  1  0  0  0  0
  8  9  1  0  0  0  0
 10  8  2  0  0  0  0
 11 10  1  0  0  0  0
 12 14  2  0  0  0  0
 12 10  1  0  0  0  0
 13 12  1  0  0  0  0
 14 16  1  0  0  0  0
 15 14  1  0  0  0  0
 16 17  1  0  0  0  0
 16  7  2  0  0  0  0
 17  2  2  0  0  0  0
 18 19  1  1  0  0  0
 18 17  1  0  0  0  0
 18  1  1  0  0  0  0
 20 18  1  0  0  0  0
 21 20  1  0  0  0  0
 22 20  1  0  0  0  0
 23 20  1  0  0  0  0
 24  1  1  0  0  0  0
 25 26  1  0  0  0  0
 25 24  2  0  0  0  0
 27 25  1  0  0  0  0
 28 27  1  0  0  0  0
 29 27  2  0  0  0  0
 29 31  1  0  0  0  0
 30 29  1  0  0  0  0
 31 33  2  0  0  0  0
 32 31  1  0  0  0  0
 33 24  1  0  0  0  0
 33 34  1  0  0  0  0
 35 36  2  0  0  0  0
 35 44  1  0  0  0  0
 36 38  1  0  0  0  0
 37 36  1  0  0  0  0
 38 39  1  0  0  0  0
 38 40  2  0  0  0  0
 40 41  1  0  0  0  0
 42 43  1  0  0  0  0
 42 40  1  0  0  0  0
 44 42  2  0  0  0  0
 45 44  1  0  0  0  0
M  END
