1,2
 OpenBabel05122313053D

 24 23  0  0  0  0  0  0  0  0999 V2000
   -3.0163    0.1677   -0.6908 P   0  0  0  0  0  0  0  0  0  0  0  0
   -2.3832    1.8259   -0.5625 C   0  0  0  0  0  3  0  0  0  0  0  0
   -3.4905   -0.2455   -2.4598 C   0  0  0  0  0  0  0  0  0  0  0  0
   -2.2925    0.0203   -3.3779 C   0  0  0  0  0  0  0  0  0  0  0  0
   -4.7555    0.4792   -2.9304 C   0  0  0  0  0  0  0  0  0  0  0  0
   -4.5513   -0.1476    0.3398 C   0  0  0  0  0  0  0  0  0  0  0  0
   -4.3253    0.3505    1.7694 C   0  0  0  0  0  0  0  0  0  0  0  0
   -4.9013   -1.6401    0.3045 C   0  0  0  0  0  0  0  0  0  0  0  0
   -2.2417    2.3790   -1.5107 H   0  0  0  0  0  0  0  0  0  0  0  0
   -2.7912    2.4771    0.2337 H   0  0  0  0  0  0  0  0  0  0  0  0
   -3.6805   -1.3426   -2.4463 H   0  0  0  0  0  0  0  0  0  0  0  0
   -1.3767   -0.4736   -2.9956 H   0  0  0  0  0  0  0  0  0  0  0  0
   -2.4985   -0.3475   -4.4047 H   0  0  0  0  0  0  0  0  0  0  0  0
   -2.0750    1.1057   -3.4456 H   0  0  0  0  0  0  0  0  0  0  0  0
   -4.6214    1.5790   -2.8703 H   0  0  0  0  0  0  0  0  0  0  0  0
   -4.9836    0.2224   -3.9868 H   0  0  0  0  0  0  0  0  0  0  0  0
   -5.6456    0.2127   -2.3261 H   0  0  0  0  0  0  0  0  0  0  0  0
   -5.3767    0.4373   -0.1218 H   0  0  0  0  0  0  0  0  0  0  0  0
   -4.1220    1.4388    1.8000 H   0  0  0  0  0  0  0  0  0  0  0  0
   -5.2213    0.1523    2.3943 H   0  0  0  0  0  0  0  0  0  0  0  0
   -3.4572   -0.1631    2.2306 H   0  0  0  0  0  0  0  0  0  0  0  0
   -5.7870   -1.8502    0.9401 H   0  0  0  0  0  0  0  0  0  0  0  0
   -5.1344   -1.9968   -0.7192 H   0  0  0  0  0  0  0  0  0  0  0  0
   -4.0566   -2.2498    0.6893 H   0  0  0  0  0  0  0  0  0  0  0  0
  1  2  1  0  0  0  0
  1  6  1  0  0  0  0
  2 10  1  0  0  0  0
  3 11  1  0  0  0  0
  3  1  1  0  0  0  0
  4 12  1  0  0  0  0
  4  3  1  0  0  0  0
  5 15  1  0  0  0  0
  5  3  1  0  0  0  0
  5 17  1  0  0  0  0
  6  7  1  0  0  0  0
  7 19  1  0  0  0  0
  7 21  1  0  0  0  0
  7 20  1  0  0  0  0
  8  6  1  0  0  0  0
  8 24  1  0  0  0  0
  8 22  1  0  0  0  0
  9  2  1  0  0  0  0
 13  4  1  0  0  0  0
 14  4  1  0  0  0  0
 16  5  1  0  0  0  0
 18  6  1  0  0  0  0
 23  8  1  0  0  0  0
M  END
