1,7
 OpenBabel05122313053D

 47 47  0  0  1  0  0  0  0  0999 V2000
    1.0538    0.9100   -0.0509 P   0  0  0  0  0  0  0  0  0  0  0  0
   -1.5477    0.0491   -0.0758 N   0  0  0  0  0  0  0  0  0  0  0  0
   -1.6294    2.2404   -0.0615 N   0  0  0  0  0  0  0  0  0  0  0  0
   -0.7836    1.1725   -0.0643 C   0  0  1  0  0  3  0  0  0  0  0  0
   -2.9005    0.3939   -0.0462 C   0  0  0  0  0  0  0  0  0  0  0  0
   -2.9324    1.7780   -0.0426 C   0  0  0  0  0  0  0  0  0  0  0  0
   -0.9175   -1.2912   -0.2250 C   0  0  0  0  0  3  0  0  0  0  0  0
   -4.0733   -0.5678    0.0194 C   0  0  0  0  0  0  0  0  0  0  0  0
   -4.0240   -1.3505    1.3529 C   0  0  0  0  0  0  0  0  0  0  0  0
   -4.0667   -1.5435   -1.1790 C   0  0  0  0  0  0  0  0  0  0  0  0
   -5.3795    0.2505   -0.0230 C   0  0  0  0  0  0  0  0  0  0  0  0
   -1.2678    3.6492   -0.0922 C   0  0  0  0  0  0  0  0  0  0  0  0
    1.7588    1.7019    1.4853 C   0  0  0  0  0  0  0  0  0  0  0  0
    1.1127    1.0626    2.7192 C   0  0  0  0  0  0  0  0  0  0  0  0
    1.8115    3.2277    1.5574 C   0  0  0  0  0  0  0  0  0  0  0  0
    1.6553    1.8593   -1.5518 C   0  0  0  0  0  0  0  0  0  0  0  0
    1.0465    1.2050   -2.7985 C   0  0  0  0  0  0  0  0  0  0  0  0
    3.1891    1.8570   -1.5892 C   0  0  0  0  0  0  0  0  0  0  0  0
   -3.7808    2.4673   -0.0256 H   0  0  0  0  0  0  0  0  0  0  0  0
   -1.1511   -1.6494   -1.2475 H   0  0  0  0  0  0  0  0  0  0  0  0
   -1.3596   -1.9869    0.5105 H   0  0  0  0  0  0  0  0  0  0  0  0
   -4.8909   -2.0386    1.4137 H   0  0  0  0  0  0  0  0  0  0  0  0
   -4.0683   -0.6608    2.2194 H   0  0  0  0  0  0  0  0  0  0  0  0
   -3.1045   -1.9588    1.4434 H   0  0  0  0  0  0  0  0  0  0  0  0
   -3.1975   -2.2255   -1.1587 H   0  0  0  0  0  0  0  0  0  0  0  0
   -4.9835   -2.1658   -1.1495 H   0  0  0  0  0  0  0  0  0  0  0  0
   -4.0571   -0.9940   -2.1418 H   0  0  0  0  0  0  0  0  0  0  0  0
   -5.4562    0.9500    0.8340 H   0  0  0  0  0  0  0  0  0  0  0  0
   -5.4697    0.8306   -0.9637 H   0  0  0  0  0  0  0  0  0  0  0  0
   -6.2466   -0.4360    0.0317 H   0  0  0  0  0  0  0  0  0  0  0  0
   -1.5543    4.1443    0.8563 H   0  0  0  0  0  0  0  0  0  0  0  0
   -1.7849    4.1485   -0.9342 H   0  0  0  0  0  0  0  0  0  0  0  0
   -0.1792    3.7456   -0.2306 H   0  0  0  0  0  0  0  0  0  0  0  0
    2.7889    1.2806    1.3923 H   0  0  0  0  0  0  0  0  0  0  0  0
    1.6252    1.4138    3.6382 H   0  0  0  0  0  0  0  0  0  0  0  0
    0.0383    1.3323    2.8088 H   0  0  0  0  0  0  0  0  0  0  0  0
    1.1956   -0.0417    2.6759 H   0  0  0  0  0  0  0  0  0  0  0  0
    2.4895    3.5349    2.3807 H   0  0  0  0  0  0  0  0  0  0  0  0
    0.8188    3.6658    1.7866 H   0  0  0  0  0  0  0  0  0  0  0  0
    2.1984    3.6949    0.6296 H   0  0  0  0  0  0  0  0  0  0  0  0
    1.2858    2.9065   -1.4666 H   0  0  0  0  0  0  0  0  0  0  0  0
   -0.0633    1.2096   -2.7801 H   0  0  0  0  0  0  0  0  0  0  0  0
    1.3738    1.7450   -3.7105 H   0  0  0  0  0  0  0  0  0  0  0  0
    1.3767    0.1492   -2.8777 H   0  0  0  0  0  0  0  0  0  0  0  0
    3.5366    2.2857   -2.5518 H   0  0  0  0  0  0  0  0  0  0  0  0
    3.5815    0.8243   -1.4788 H   0  0  0  0  0  0  0  0  0  0  0  0
    3.6282    2.4612   -0.7708 H   0  0  0  0  0  0  0  0  0  0  0  0
  1 13  1  0  0  0  0
  2  4  1  0  0  0  0
  2  5  1  0  0  0  0
  3  6  1  0  0  0  0
  4  3  1  0  0  0  0
  4  1  1  1  0  0  0
  5  6  2  0  0  0  0
  5  8  1  0  0  0  0
  6 19  1  0  0  0  0
  7  2  1  0  0  0  0
  7 21  1  0  0  0  0
  8  9  1  0  0  0  0
  9 22  1  0  0  0  0
  9 24  1  0  0  0  0
  9 23  1  0  0  0  0
 10 25  1  0  0  0  0
 10 26  1  0  0  0  0
 10  8  1  0  0  0  0
 11  8  1  0  0  0  0
 11 30  1  0  0  0  0
 11 28  1  0  0  0  0
 12  3  1  0  0  0  0
 12 31  1  0  0  0  0
 13 15  1  0  0  0  0
 13 14  1  0  0  0  0
 14 36  1  0  0  0  0
 14 35  1  0  0  0  0
 15 39  1  0  0  0  0
 15 38  1  0  0  0  0
 16 41  1  0  0  0  0
 16  1  1  0  0  0  0
 17 42  1  0  0  0  0
 17 16  1  0  0  0  0
 18 16  1  0  0  0  0
 18 46  1  0  0  0  0
 18 47  1  0  0  0  0
 20  7  1  0  0  0  0
 27 10  1  0  0  0  0
 29 11  1  0  0  0  0
 32 12  1  0  0  0  0
 33 12  1  0  0  0  0
 34 13  1  0  0  0  0
 37 14  1  0  0  0  0
 40 15  1  0  0  0  0
 43 17  1  0  0  0  0
 44 17  1  0  0  0  0
 45 18  1  0  0  0  0
M  END
