1,7
 OpenBabel05122313053D

 52 55  0  0  1  0  0  0  0  0999 V2000
   -1.7930   -1.0234    0.2626 P   0  0  0  0  0  0  0  0  0  0  0  0
   -0.2729   -3.1800   -0.5348 C   0  0  0  0  0  0  0  0  0  0  0  0
    0.9929   -2.2883    1.4474 C   0  0  0  0  0  3  0  0  0  0  0  0
    0.0747   -2.4499    2.0337 H   0  0  0  0  0  0  0  0  0  0  0  0
   -2.4908   -1.2354    1.9500 C   0  0  0  0  0  0  0  0  0  0  0  0
    2.1260   -2.3658   -2.1244 N   0  0  0  0  0  0  0  0  0  0  0  0
    0.9151   -2.4384    0.0204 C   0  0  1  0  0  3  0  0  0  0  0  0
    2.1504   -2.3543   -0.7464 C   0  0  0  0  0  0  0  0  0  0  0  0
   -1.6033   -2.6919   -0.4588 C   0  0  0  0  0  0  0  0  0  0  0  0
   -2.0585   -0.3474    2.9582 C   0  0  0  0  0  0  0  0  0  0  0  0
   -1.3159    0.4305    2.7228 H   0  0  0  0  0  0  0  0  0  0  0  0
    2.2177   -2.1418    2.1176 C   0  0  0  0  0  0  0  0  0  0  0  0
    2.2382   -2.0311    3.2096 H   0  0  0  0  0  0  0  0  0  0  0  0
   -3.0796   -0.1431   -0.6916 C   0  0  0  0  0  0  0  0  0  0  0  0
   -3.8409    0.8592   -0.0557 C   0  0  0  0  0  0  0  0  0  0  0  0
   -3.7854    0.9834    1.0363 H   0  0  0  0  0  0  0  0  0  0  0  0
   -4.7053    1.5751   -2.2139 C   0  0  0  0  0  0  0  0  0  0  0  0
   -5.3257    2.2593   -2.8115 H   0  0  0  0  0  0  0  0  0  0  0  0
    3.3998   -2.1640    1.3656 C   0  0  0  0  0  0  0  0  0  0  0  0
    4.3729   -2.0715    1.8711 H   0  0  0  0  0  0  0  0  0  0  0  0
   -0.0647   -4.4563   -1.1007 C   0  0  0  0  0  0  0  0  0  0  0  0
    0.9614   -4.8479   -1.1631 H   0  0  0  0  0  0  0  0  0  0  0  0
   -2.6787   -3.4562   -0.9547 C   0  0  0  0  0  0  0  0  0  0  0  0
   -3.6987   -3.0431   -0.9234 H   0  0  0  0  0  0  0  0  0  0  0  0
   -3.1468   -0.2886   -2.0925 C   0  0  0  0  0  0  0  0  0  0  0  0
   -2.5375   -1.0534   -2.5966 H   0  0  0  0  0  0  0  0  0  0  0  0
    3.3723   -2.2649   -0.0298 C   0  0  0  0  0  0  0  0  0  0  0  0
    4.3211   -2.2207   -0.5773 H   0  0  0  0  0  0  0  0  0  0  0  0
    3.3782   -2.3739   -2.8620 C   0  0  0  0  0  0  0  0  0  0  0  0
    3.8981   -1.3887   -2.8164 H   0  0  0  0  0  0  0  0  0  0  0  0
    3.1696   -2.6070   -3.9226 H   0  0  0  0  0  0  0  0  0  0  0  0
    4.0618   -3.1561   -2.4771 H   0  0  0  0  0  0  0  0  0  0  0  0
   -4.6481    1.7152   -0.8182 C   0  0  0  0  0  0  0  0  0  0  0  0
   -5.2271    2.5059   -0.3179 H   0  0  0  0  0  0  0  0  0  0  0  0
   -2.4484   -4.7155   -1.5241 C   0  0  0  0  0  0  0  0  0  0  0  0
   -3.2888   -5.3037   -1.9216 H   0  0  0  0  0  0  0  0  0  0  0  0
   -2.5734   -0.4620    4.2591 C   0  0  0  0  0  0  0  0  0  0  0  0
   -2.2338    0.2355    5.0395 H   0  0  0  0  0  0  0  0  0  0  0  0
   -3.4273   -2.2429    2.2585 C   0  0  0  0  0  0  0  0  0  0  0  0
   -3.7562   -2.9506    1.4834 H   0  0  0  0  0  0  0  0  0  0  0  0
   -3.5072   -1.4645    4.5626 C   0  0  0  0  0  0  0  0  0  0  0  0
   -3.9041   -1.5572    5.5850 H   0  0  0  0  0  0  0  0  0  0  0  0
   -3.9618    0.5664   -2.8470 C   0  0  0  0  0  0  0  0  0  0  0  0
   -4.0003    0.4563   -3.9410 H   0  0  0  0  0  0  0  0  0  0  0  0
   -1.1363   -5.2134   -1.5920 C   0  0  0  0  0  0  0  0  0  0  0  0
   -0.9449   -6.2027   -2.0347 H   0  0  0  0  0  0  0  0  0  0  0  0
   -3.9306   -2.3558    3.5623 C   0  0  0  0  0  0  0  0  0  0  0  0
   -4.6574   -3.1475    3.7996 H   0  0  0  0  0  0  0  0  0  0  0  0
    0.9565   -1.8967   -2.8587 C   0  0  0  0  0  0  0  0  0  0  0  0
    0.3142   -2.7251   -3.2281 H   0  0  0  0  0  0  0  0  0  0  0  0
    1.2914   -1.2909   -3.7222 H   0  0  0  0  0  0  0  0  0  0  0  0
    0.3477   -1.2276   -2.2178 H   0  0  0  0  0  0  0  0  0  0  0  0
  1  5  1  0  0  0  0
  2  9  1  0  0  0  0
  3  4  1  0  0  0  0
  3 12  1  0  0  0  0
  5 39  2  0  0  0  0
  5 10  1  0  0  0  0
  6  8  1  0  0  0  0
  7  2  1  1  0  0  0
  7  3  1  0  0  0  0
  8 27  2  0  0  0  0
  8  7  1  0  0  0  0
  9  1  1  0  0  0  0
 10 37  2  0  0  0  0
 11 10  1  0  0  0  0
 12 13  1  0  0  0  0
 14 15  1  0  0  0  0
 14  1  1  0  0  0  0
 15 16  1  0  0  0  0
 17 33  1  0  0  0  0
 18 17  1  0  0  0  0
 19 20  1  0  0  0  0
 19 12  2  0  0  0  0
 21  2  2  0  0  0  0
 22 21  1  0  0  0  0
 23 24  1  0  0  0  0
 23  9  2  0  0  0  0
 25 14  2  0  0  0  0
 26 25  1  0  0  0  0
 27 19  1  0  0  0  0
 28 27  1  0  0  0  0
 29 30  1  0  0  0  0
 29 32  1  0  0  0  0
 29  6  1  0  0  0  0
 31 29  1  0  0  0  0
 33 34  1  0  0  0  0
 33 15  2  0  0  0  0
 35 23  1  0  0  0  0
 36 35  1  0  0  0  0
 37 41  1  0  0  0  0
 37 38  1  0  0  0  0
 39 47  1  0  0  0  0
 40 39  1  0  0  0  0
 41 42  1  0  0  0  0
 43 17  2  0  0  0  0
 43 25  1  0  0  0  0
 44 43  1  0  0  0  0
 45 35  2  0  0  0  0
 45 21  1  0  0  0  0
 46 45  1  0  0  0  0
 47 48  1  0  0  0  0
 47 41  2  0  0  0  0
 49 52  1  0  0  0  0
 49  6  1  0  0  0  0
 50 49  1  0  0  0  0
 51 49  1  0  0  0  0
M  END
