1,2
 OpenBabel05122313053D

 50 50  0  0  0  0  0  0  0  0999 V2000
    1.7525   -1.0128   -0.1925 P   0  0  0  0  0  0  0  0  0  0  0  0
   -1.0435   -1.4241   -0.5628 C   0  0  0  0  0  2  0  0  0  0  0  0
   -0.2909   -2.2708   -1.3727 N   0  0  0  0  0  0  0  0  0  0  0  0
   -0.9874   -3.4008   -1.7518 C   0  0  0  0  0  0  0  0  0  0  0  0
   -0.5663   -4.1621   -2.4144 H   0  0  0  0  0  0  0  0  0  0  0  0
   -2.2138   -3.3059   -1.1651 C   0  0  0  0  0  0  0  0  0  0  0  0
   -3.0573   -3.9936   -1.2192 H   0  0  0  0  0  0  0  0  0  0  0  0
   -2.2546   -2.1142   -0.4333 N   0  0  0  0  0  0  0  0  0  0  0  0
   -3.3466   -1.9635    0.6002 C   0  0  0  0  0  0  0  0  0  0  0  0
   -2.8827   -2.6869    1.8791 C   0  0  0  0  0  0  0  0  0  0  0  0
   -2.5686   -3.7269    1.6587 H   0  0  0  0  0  0  0  0  0  0  0  0
   -3.7130   -2.7209    2.6129 H   0  0  0  0  0  0  0  0  0  0  0  0
   -2.0382   -2.1364    2.3379 H   0  0  0  0  0  0  0  0  0  0  0  0
   -4.6391   -2.6119    0.0634 C   0  0  0  0  0  0  0  0  0  0  0  0
   -4.5901   -3.7173    0.0163 H   0  0  0  0  0  0  0  0  0  0  0  0
   -4.8991   -2.2204   -0.9403 H   0  0  0  0  0  0  0  0  0  0  0  0
   -5.4674   -2.3596    0.7525 H   0  0  0  0  0  0  0  0  0  0  0  0
   -3.6582   -0.5069    0.9313 C   0  0  0  0  0  0  0  0  0  0  0  0
   -4.4528   -0.4940    1.7028 H   0  0  0  0  0  0  0  0  0  0  0  0
   -4.0313    0.0409    0.0466 H   0  0  0  0  0  0  0  0  0  0  0  0
   -2.7713   -0.0015    1.3470 H   0  0  0  0  0  0  0  0  0  0  0  0
    1.1288   -2.0753   -1.6124 C   0  0  0  0  0  0  0  0  0  0  0  0
    1.2844   -1.4796   -2.5344 H   0  0  0  0  0  0  0  0  0  0  0  0
    1.6230   -3.0629   -1.7059 H   0  0  0  0  0  0  0  0  0  0  0  0
    3.4620   -0.3969   -0.8820 C   0  0  0  0  0  0  0  0  0  0  0  0
    4.0902   -1.4430   -1.8254 C   0  0  0  0  0  0  0  0  0  0  0  0
    5.0930   -1.0803   -2.1380 H   0  0  0  0  0  0  0  0  0  0  0  0
    3.4950   -1.5710   -2.7500 H   0  0  0  0  0  0  0  0  0  0  0  0
    4.2289   -2.4343   -1.3586 H   0  0  0  0  0  0  0  0  0  0  0  0
    3.2538    0.8992   -1.6848 C   0  0  0  0  0  0  0  0  0  0  0  0
    2.9909    1.7467   -1.0276 H   0  0  0  0  0  0  0  0  0  0  0  0
    2.4525    0.8138   -2.4422 H   0  0  0  0  0  0  0  0  0  0  0  0
    4.2098    1.1515   -2.1921 H   0  0  0  0  0  0  0  0  0  0  0  0
    4.4406   -0.0743    0.2616 C   0  0  0  0  0  0  0  0  0  0  0  0
    4.7799   -0.9683    0.8166 H   0  0  0  0  0  0  0  0  0  0  0  0
    4.0065    0.6459    0.9825 H   0  0  0  0  0  0  0  0  0  0  0  0
    5.3434    0.4030   -0.1760 H   0  0  0  0  0  0  0  0  0  0  0  0
    2.1189   -2.3150    1.1921 C   0  0  0  0  0  0  0  0  0  0  0  0
    3.2060   -3.3381    0.8254 C   0  0  0  0  0  0  0  0  0  0  0  0
    3.2616   -4.0984    1.6341 H   0  0  0  0  0  0  0  0  0  0  0  0
    4.2138   -2.8922    0.7319 H   0  0  0  0  0  0  0  0  0  0  0  0
    2.9764   -3.8837   -0.1126 H   0  0  0  0  0  0  0  0  0  0  0  0
    2.4931   -1.5829    2.4961 C   0  0  0  0  0  0  0  0  0  0  0  0
    1.6794   -0.8952    2.7996 H   0  0  0  0  0  0  0  0  0  0  0  0
    3.4410   -1.0213    2.4239 H   0  0  0  0  0  0  0  0  0  0  0  0
    2.6161   -2.3369    3.3035 H   0  0  0  0  0  0  0  0  0  0  0  0
    0.8075   -3.0813    1.4508 C   0  0  0  0  0  0  0  0  0  0  0  0
    0.5022   -3.7147    0.5951 H   0  0  0  0  0  0  0  0  0  0  0  0
   -0.0121   -2.3827    1.6967 H   0  0  0  0  0  0  0  0  0  0  0  0
    0.9600   -3.7535    2.3223 H   0  0  0  0  0  0  0  0  0  0  0  0
  1 38  1  0  0  0  0
  2  8  1  0  0  0  0
  3  2  1  0  0  0  0
  4  3  1  0  0  0  0
  4  6  2  0  0  0  0
  5  4  1  0  0  0  0
  6  8  1  0  0  0  0
  7  6  1  0  0  0  0
  8  9  1  0  0  0  0
  9 18  1  0  0  0  0
  9 10  1  0  0  0  0
 10 13  1  0  0  0  0
 10 12  1  0  0  0  0
 11 10  1  0  0  0  0
 14  9  1  0  0  0  0
 14 17  1  0  0  0  0
 15 14  1  0  0  0  0
 16 14  1  0  0  0  0
 18 21  1  0  0  0  0
 18 19  1  0  0  0  0
 20 18  1  0  0  0  0
 22  3  1  0  0  0  0
 22  1  1  0  0  0  0
 23 22  1  0  0  0  0
 24 22  1  0  0  0  0
 25  1  1  0  0  0  0
 25 34  1  0  0  0  0
 26 29  1  0  0  0  0
 26 25  1  0  0  0  0
 27 26  1  0  0  0  0
 28 26  1  0  0  0  0
 30 31  1  0  0  0  0
 30 25  1  0  0  0  0
 32 30  1  0  0  0  0
 33 30  1  0  0  0  0
 34 35  1  0  0  0  0
 34 36  1  0  0  0  0
 37 34  1  0  0  0  0
 38 47  1  0  0  0  0
 38 43  1  0  0  0  0
 39 38  1  0  0  0  0
 39 40  1  0  0  0  0
 41 39  1  0  0  0  0
 42 39  1  0  0  0  0
 43 44  1  0  0  0  0
 43 46  1  0  0  0  0
 45 43  1  0  0  0  0
 47 49  1  0  0  0  0
 47 50  1  0  0  0  0
 48 47  1  0  0  0  0
M  END
