1,2
 OpenBabel05122313053D

 25 25  0  0  0  0  0  0  0  0999 V2000
    0.9945   -1.9690   -0.0005 P   0  0  0  0  0  0  0  0  0  0  0  0
    1.8939    0.3588    0.0001 C   0  0  0  0  0  3  0  0  0  0  0  0
    2.4856   -0.9352    0.0003 C   0  0  0  0  0  0  0  0  0  0  0  0
    1.0537   -3.0637   -1.4881 C   0  0  0  0  0  0  0  0  0  0  0  0
    1.0526   -3.0651    1.4861 C   0  0  0  0  0  0  0  0  0  0  0  0
    2.7854    1.4457    0.0002 C   0  0  0  0  0  0  0  0  0  0  0  0
    3.8656   -1.1671    0.0006 C   0  0  0  0  0  0  0  0  0  0  0  0
    0.9469   -2.2507   -2.7781 C   0  0  0  0  0  0  0  0  0  0  0  0
    1.9999   -3.6421   -1.4358 H   0  0  0  0  0  0  0  0  0  0  0  0
    0.2069   -3.7736   -1.3910 H   0  0  0  0  0  0  0  0  0  0  0  0
    0.9383   -2.2535    2.7764 C   0  0  0  0  0  0  0  0  0  0  0  0
    0.2090   -3.7782    1.3857 H   0  0  0  0  0  0  0  0  0  0  0  0
    2.0012   -3.6398    1.4364 H   0  0  0  0  0  0  0  0  0  0  0  0
    2.1871    3.0970   -0.0003 Cl  0  0  0  0  0  0  0  0  0  0  0  0
    4.1884    1.2546    0.0006 C   0  0  0  0  0  0  0  0  0  0  0  0
    4.4917   -2.7947    0.0005 Cl  0  0  0  0  0  0  0  0  0  0  0  0
    4.7374   -0.0572    0.0008 C   0  0  0  0  0  0  0  0  0  0  0  0
   -0.0067   -1.6852   -2.8065 H   0  0  0  0  0  0  0  0  0  0  0  0
    0.9838   -2.9126   -3.6663 H   0  0  0  0  0  0  0  0  0  0  0  0
    1.7748   -1.5182   -2.8646 H   0  0  0  0  0  0  0  0  0  0  0  0
   -0.0177   -1.6920    2.8020 H   0  0  0  0  0  0  0  0  0  0  0  0
    0.9751   -2.9159    3.6643 H   0  0  0  0  0  0  0  0  0  0  0  0
    1.7629   -1.5176    2.8661 H   0  0  0  0  0  0  0  0  0  0  0  0
    5.2671    2.6105    0.0007 Cl  0  0  0  0  0  0  0  0  0  0  0  0
    6.4514   -0.2906    0.0011 Cl  0  0  0  0  0  0  0  0  0  0  0  0
  1  3  1  0  0  0  0
  1  5  1  0  0  0  0
  2  6  2  0  0  0  0
  2  3  1  0  0  0  0
  3  7  2  0  0  0  0
  4  9  1  0  0  0  0
  4 10  1  0  0  0  0
  4  1  1  0  0  0  0
  5 11  1  0  0  0  0
  6 15  1  0  0  0  0
  7 17  1  0  0  0  0
  8  4  1  0  0  0  0
 11 21  1  0  0  0  0
 11 23  1  0  0  0  0
 11 22  1  0  0  0  0
 12  5  1  0  0  0  0
 13  5  1  0  0  0  0
 14  6  1  0  0  0  0
 15 24  1  0  0  0  0
 15 17  2  0  0  0  0
 16  7  1  0  0  0  0
 17 25  1  0  0  0  0
 18  8  1  0  0  0  0
 19  8  1  0  0  0  0
 20  8  1  0  0  0  0
M  END
