3,4
 OpenBabel05122313053D

 56 59  0  0  0  0  0  0  0  0999 V2000
    0.3728   -1.4145    2.3004 N   0  0  0  0  0  0  0  0  0  0  0  0
    2.2251   -0.6283    1.4925 N   0  0  0  0  0  0  0  0  0  0  0  0
   -1.8269    0.0860    0.3973 P   0  0  0  0  0  0  0  0  0  0  0  0
    0.9408   -0.9557    1.1426 C   0  0  0  0  0  2  0  0  0  0  0  0
    1.2762   -1.3725    3.3569 C   0  0  0  0  0  0  0  0  0  0  0  0
    1.0141   -1.7020    4.3665 H   0  0  0  0  0  0  0  0  0  0  0  0
    2.4463   -0.8809    2.8444 C   0  0  0  0  0  0  0  0  0  0  0  0
    3.4130   -0.6779    3.3133 H   0  0  0  0  0  0  0  0  0  0  0  0
   -1.0597   -1.6685    2.4349 C   0  0  0  0  0  0  0  0  0  0  0  0
   -1.2347   -2.0708    3.4514 H   0  0  0  0  0  0  0  0  0  0  0  0
   -1.3583   -2.4489    1.7049 H   0  0  0  0  0  0  0  0  0  0  0  0
   -1.8485   -0.3709    2.2141 C   0  0  0  0  0  0  0  0  0  0  0  0
   -1.3811    0.4443    2.8031 H   0  0  0  0  0  0  0  0  0  0  0  0
   -2.8992   -0.4891    2.5448 H   0  0  0  0  0  0  0  0  0  0  0  0
    3.2106    0.0007    0.6486 C   0  0  0  0  0  0  0  0  0  0  0  0
    3.0257    1.3514    0.2859 C   0  0  0  0  0  0  0  0  0  0  0  0
    4.0217    1.9533   -0.5049 C   0  0  0  0  0  0  0  0  0  0  0  0
    3.8925    3.0062   -0.8026 H   0  0  0  0  0  0  0  0  0  0  0  0
    5.1675    1.2549   -0.9208 C   0  0  0  0  0  0  0  0  0  0  0  0
    5.3127   -0.0872   -0.5212 C   0  0  0  0  0  0  0  0  0  0  0  0
    6.1992   -0.6550   -0.8460 H   0  0  0  0  0  0  0  0  0  0  0  0
    4.3474   -0.7424    0.2587 C   0  0  0  0  0  0  0  0  0  0  0  0
    1.7992    2.1261    0.6902 C   0  0  0  0  0  0  0  0  0  0  0  0
    1.9697    3.2157    0.6021 H   0  0  0  0  0  0  0  0  0  0  0  0
    1.4834    1.9048    1.7298 H   0  0  0  0  0  0  0  0  0  0  0  0
    0.9386    1.8645    0.0367 H   0  0  0  0  0  0  0  0  0  0  0  0
    4.4755   -2.2042    0.5907 C   0  0  0  0  0  0  0  0  0  0  0  0
    5.4340   -2.6118    0.2187 H   0  0  0  0  0  0  0  0  0  0  0  0
    3.6421   -2.7491    0.0962 H   0  0  0  0  0  0  0  0  0  0  0  0
    4.4142   -2.4092    1.6788 H   0  0  0  0  0  0  0  0  0  0  0  0
    6.2005    1.9096   -1.8024 C   0  0  0  0  0  0  0  0  0  0  0  0
    7.2291    1.6054   -1.5226 H   0  0  0  0  0  0  0  0  0  0  0  0
    6.1397    3.0143   -1.7557 H   0  0  0  0  0  0  0  0  0  0  0  0
    6.0530    1.6147   -2.8635 H   0  0  0  0  0  0  0  0  0  0  0  0
   -2.1156    1.8967    0.3620 C   0  0  0  0  0  0  0  0  0  0  0  0
   -2.6141    2.6103    1.4725 C   0  0  0  0  0  0  0  0  0  0  0  0
   -2.8643    2.0920    2.4100 H   0  0  0  0  0  0  0  0  0  0  0  0
   -2.8011    3.9992    1.3903 C   0  0  0  0  0  0  0  0  0  0  0  0
   -3.1891    4.5493    2.2611 H   0  0  0  0  0  0  0  0  0  0  0  0
   -2.4948    4.6817    0.2031 C   0  0  0  0  0  0  0  0  0  0  0  0
   -2.6400    5.7711    0.1420 H   0  0  0  0  0  0  0  0  0  0  0  0
   -2.0027    3.9722   -0.9049 C   0  0  0  0  0  0  0  0  0  0  0  0
   -1.7613    4.5031   -1.8382 H   0  0  0  0  0  0  0  0  0  0  0  0
   -1.8097    2.5857   -0.8322 C   0  0  0  0  0  0  0  0  0  0  0  0
   -1.4268    2.0129   -1.6952 H   0  0  0  0  0  0  0  0  0  0  0  0
   -3.3884   -0.6967   -0.1758 C   0  0  0  0  0  0  0  0  0  0  0  0
   -3.3356   -1.9689   -0.7796 C   0  0  0  0  0  0  0  0  0  0  0  0
   -2.3580   -2.4234   -1.0024 H   0  0  0  0  0  0  0  0  0  0  0  0
   -4.5255   -2.6230   -1.1307 C   0  0  0  0  0  0  0  0  0  0  0  0
   -4.4796   -3.6134   -1.6082 H   0  0  0  0  0  0  0  0  0  0  0  0
   -5.7661   -2.0084   -0.8974 C   0  0  0  0  0  0  0  0  0  0  0  0
   -6.6972   -2.5194   -1.1862 H   0  0  0  0  0  0  0  0  0  0  0  0
   -5.8184   -0.7343   -0.3095 C   0  0  0  0  0  0  0  0  0  0  0  0
   -6.7884   -0.2426   -0.1396 H   0  0  0  0  0  0  0  0  0  0  0  0
   -4.6328   -0.0778    0.0542 C   0  0  0  0  0  0  0  0  0  0  0  0
   -4.6766    0.9269    0.5029 H   0  0  0  0  0  0  0  0  0  0  0  0
  1  9  1  0  0  0  0
  1  5  1  0  0  0  0
  2  7  1  0  0  0  0
  3 12  1  0  0  0  0
  4  2  1  0  0  0  0
  4  1  1  0  0  0  0
  5  6  1  0  0  0  0
  7  8  1  0  0  0  0
  7  5  2  0  0  0  0
  9 10  1  0  0  0  0
 11  9  1  0  0  0  0
 12  9  1  0  0  0  0
 12 14  1  0  0  0  0
 12 13  1  0  0  0  0
 15  2  1  0  0  0  0
 16 15  1  0  0  0  0
 16 23  1  0  0  0  0
 17 16  2  0  0  0  0
 18 17  1  0  0  0  0
 19 20  2  0  0  0  0
 19 17  1  0  0  0  0
 20 22  1  0  0  0  0
 21 20  1  0  0  0  0
 22 27  1  0  0  0  0
 22 15  2  0  0  0  0
 23 25  1  0  0  0  0
 24 23  1  0  0  0  0
 26 23  1  0  0  0  0
 27 30  1  0  0  0  0
 28 27  1  0  0  0  0
 29 27  1  0  0  0  0
 31 33  1  0  0  0  0
 31 32  1  0  0  0  0
 31 19  1  0  0  0  0
 34 31  1  0  0  0  0
 35  3  1  0  0  0  0
 35 36  1  0  0  0  0
 36 37  1  0  0  0  0
 38 36  2  0  0  0  0
 38 39  1  0  0  0  0
 40 38  1  0  0  0  0
 41 40  1  0  0  0  0
 42 44  1  0  0  0  0
 42 40  2  0  0  0  0
 43 42  1  0  0  0  0
 44 35  2  0  0  0  0
 45 44  1  0  0  0  0
 46 55  1  0  0  0  0
 46  3  1  0  0  0  0
 47 46  2  0  0  0  0
 48 47  1  0  0  0  0
 49 51  2  0  0  0  0
 49 47  1  0  0  0  0
 50 49  1  0  0  0  0
 51 53  1  0  0  0  0
 52 51  1  0  0  0  0
 53 54  1  0  0  0  0
 53 55  2  0  0  0  0
 55 56  1  0  0  0  0
M  END
