1,4
 OpenBabel05122313053D

 74 79  0  0  0  0  0  0  0  0999 V2000
    1.5377   -1.0713    0.9509 P   0  0  0  0  0  0  0  0  0  0  0  0
    1.6502    1.8521    0.3845 P   0  0  0  0  0  4  0  0  0  0  0  0
   -0.5530    1.2432    1.9662 O   0  0  0  0  0  0  0  0  0  0  0  0
    0.0746    1.3301   -0.3152 C   0  0  0  0  0  3  0  0  0  0  0  0
   -0.2116    1.8973   -1.2204 H   0  0  0  0  0  0  0  0  0  0  0  0
   -0.9335    1.2024    0.7759 C   0  0  0  0  0  0  0  0  0  0  0  0
   -2.3744    0.9748    0.4694 C   0  0  0  0  0  0  0  0  0  0  0  0
   -2.9046    0.9528   -0.8378 C   0  0  0  0  0  0  0  0  0  0  0  0
   -2.2435    1.0506   -1.7132 H   0  0  0  0  0  0  0  0  0  0  0  0
   -4.2698    0.7309   -1.0391 C   0  0  0  0  0  0  0  0  0  0  0  0
   -4.6533    0.6762   -2.0686 H   0  0  0  0  0  0  0  0  0  0  0  0
   -5.1507    0.5220    0.0476 C   0  0  0  0  0  0  0  0  0  0  0  0
   -4.6065    0.5430    1.3555 C   0  0  0  0  0  0  0  0  0  0  0  0
   -5.2724    0.4076    2.2210 H   0  0  0  0  0  0  0  0  0  0  0  0
   -3.2457    0.7664    1.5626 C   0  0  0  0  0  0  0  0  0  0  0  0
   -2.8164    0.7896    2.5748 H   0  0  0  0  0  0  0  0  0  0  0  0
   -6.5973    0.2829   -0.1742 C   0  0  0  0  0  0  0  0  0  0  0  0
   -7.2810    0.9032   -1.2456 C   0  0  0  0  0  0  0  0  0  0  0  0
   -6.7350    1.5916   -1.9078 H   0  0  0  0  0  0  0  0  0  0  0  0
   -8.6480    0.6790   -1.4547 C   0  0  0  0  0  0  0  0  0  0  0  0
   -9.1605    1.1800   -2.2901 H   0  0  0  0  0  0  0  0  0  0  0  0
   -9.3643   -0.1737   -0.5995 C   0  0  0  0  0  0  0  0  0  0  0  0
  -10.4376   -0.3515   -0.7652 H   0  0  0  0  0  0  0  0  0  0  0  0
   -8.6998   -0.7992    0.4676 C   0  0  0  0  0  0  0  0  0  0  0  0
   -9.2492   -1.4784    1.1373 H   0  0  0  0  0  0  0  0  0  0  0  0
   -7.3335   -0.5724    0.6783 C   0  0  0  0  0  0  0  0  0  0  0  0
   -6.8173   -1.0900    1.5007 H   0  0  0  0  0  0  0  0  0  0  0  0
    1.6681    3.5033    1.1705 C   0  0  0  0  0  0  0  0  0  0  0  0
    1.1526    3.6922    2.4716 C   0  0  0  0  0  0  0  0  0  0  0  0
    0.7456    2.8368    3.0274 H   0  0  0  0  0  0  0  0  0  0  0  0
    1.1204    4.9790    3.0264 C   0  0  0  0  0  0  0  0  0  0  0  0
    0.7196    5.1207    4.0413 H   0  0  0  0  0  0  0  0  0  0  0  0
    1.5850    6.0818    2.2918 C   0  0  0  0  0  0  0  0  0  0  0  0
    1.5551    7.0897    2.7326 H   0  0  0  0  0  0  0  0  0  0  0  0
    2.0817    5.8984    0.9919 C   0  0  0  0  0  0  0  0  0  0  0  0
    2.4404    6.7598    0.4089 H   0  0  0  0  0  0  0  0  0  0  0  0
    2.1253    4.6149    0.4293 C   0  0  0  0  0  0  0  0  0  0  0  0
    2.5203    4.4767   -0.5881 H   0  0  0  0  0  0  0  0  0  0  0  0
    2.9410    1.8904   -0.8984 C   0  0  0  0  0  0  0  0  0  0  0  0
    4.2579    2.2101   -0.4962 C   0  0  0  0  0  0  0  0  0  0  0  0
    4.4699    2.4916    0.5475 H   0  0  0  0  0  0  0  0  0  0  0  0
    5.3029    2.1709   -1.4280 C   0  0  0  0  0  0  0  0  0  0  0  0
    6.3278    2.4138   -1.1097 H   0  0  0  0  0  0  0  0  0  0  0  0
    5.0396    1.8170   -2.7631 C   0  0  0  0  0  0  0  0  0  0  0  0
    5.8629    1.7770   -3.4924 H   0  0  0  0  0  0  0  0  0  0  0  0
    3.7303    1.5141   -3.1641 C   0  0  0  0  0  0  0  0  0  0  0  0
    3.5149    1.2308   -4.2050 H   0  0  0  0  0  0  0  0  0  0  0  0
    2.6745    1.5485   -2.2387 C   0  0  0  0  0  0  0  0  0  0  0  0
    1.6593    1.2697   -2.5705 H   0  0  0  0  0  0  0  0  0  0  0  0
    2.1926    0.5828    1.5946 C   0  0  0  0  0  0  0  0  0  0  0  0
    1.7662    0.8040    2.5880 H   0  0  0  0  0  0  0  0  0  0  0  0
    3.2983    0.5676    1.6420 H   0  0  0  0  0  0  0  0  0  0  0  0
    3.0676   -2.0730    0.8636 C   0  0  0  0  0  0  0  0  0  0  0  0
    3.1906   -3.3048    1.5320 C   0  0  0  0  0  0  0  0  0  0  0  0
    2.3611   -3.6828    2.1468 H   0  0  0  0  0  0  0  0  0  0  0  0
    4.3696   -4.0546    1.3991 C   0  0  0  0  0  0  0  0  0  0  0  0
    4.4610   -5.0190    1.9211 H   0  0  0  0  0  0  0  0  0  0  0  0
    5.4209   -3.5852    0.5974 C   0  0  0  0  0  0  0  0  0  0  0  0
    6.3415   -4.1791    0.4925 H   0  0  0  0  0  0  0  0  0  0  0  0
    5.2913   -2.3625   -0.0826 C   0  0  0  0  0  0  0  0  0  0  0  0
    6.1046   -1.9971   -0.7276 H   0  0  0  0  0  0  0  0  0  0  0  0
    4.1172   -1.6097    0.0426 C   0  0  0  0  0  0  0  0  0  0  0  0
    4.0082   -0.6698   -0.5208 H   0  0  0  0  0  0  0  0  0  0  0  0
    0.5284   -1.7336    2.3226 C   0  0  0  0  0  0  0  0  0  0  0  0
    0.9931   -1.7343    3.6540 C   0  0  0  0  0  0  0  0  0  0  0  0
    2.0056   -1.3708    3.8911 H   0  0  0  0  0  0  0  0  0  0  0  0
    0.1646   -2.2059    4.6816 C   0  0  0  0  0  0  0  0  0  0  0  0
    0.5272   -2.2057    5.7207 H   0  0  0  0  0  0  0  0  0  0  0  0
   -1.1263   -2.6758    4.3844 C   0  0  0  0  0  0  0  0  0  0  0  0
   -1.7762   -3.0407    5.1943 H   0  0  0  0  0  0  0  0  0  0  0  0
   -1.5860   -2.6812    3.0585 C   0  0  0  0  0  0  0  0  0  0  0  0
   -2.5961   -3.0477    2.8223 H   0  0  0  0  0  0  0  0  0  0  0  0
   -0.7616   -2.2129    2.0246 C   0  0  0  0  0  0  0  0  0  0  0  0
   -1.1076   -2.2135    0.9788 H   0  0  0  0  0  0  0  0  0  0  0  0
  1 50  1  0  0  0  0
  1 64  1  0  0  0  0
  2 28  1  0  0  0  0
  2 50  1  0  0  0  0
  4  2  1  0  0  0  0
  4  6  1  0  0  0  0
  5  4  1  0  0  0  0
  6  3  2  0  0  0  0
  7  6  1  0  0  0  0
  7 15  1  0  0  0  0
  8  7  2  0  0  0  0
  9  8  1  0  0  0  0
 10  8  1  0  0  0  0
 10 12  2  0  0  0  0
 11 10  1  0  0  0  0
 12 13  1  0  0  0  0
 13 15  2  0  0  0  0
 13 14  1  0  0  0  0
 15 16  1  0  0  0  0
 17 12  1  0  0  0  0
 17 26  1  0  0  0  0
 18 17  2  0  0  0  0
 19 18  1  0  0  0  0
 20 18  1  0  0  0  0
 20 22  2  0  0  0  0
 21 20  1  0  0  0  0
 22 24  1  0  0  0  0
 23 22  1  0  0  0  0
 24 26  2  0  0  0  0
 24 25  1  0  0  0  0
 26 27  1  0  0  0  0
 28 29  1  0  0  0  0
 29 31  2  0  0  0  0
 29 30  1  0  0  0  0
 31 32  1  0  0  0  0
 33 34  1  0  0  0  0
 33 31  1  0  0  0  0
 35 33  2  0  0  0  0
 36 35  1  0  0  0  0
 37 35  1  0  0  0  0
 37 28  2  0  0  0  0
 38 37  1  0  0  0  0
 39 40  1  0  0  0  0
 39  2  1  0  0  0  0
 40 41  1  0  0  0  0
 42 43  1  0  0  0  0
 42 40  2  0  0  0  0
 44 42  1  0  0  0  0
 45 44  1  0  0  0  0
 46 44  2  0  0  0  0
 46 48  1  0  0  0  0
 47 46  1  0  0  0  0
 48 39  2  0  0  0  0
 49 48  1  0  0  0  0
 50 52  1  0  0  0  0
 50 51  1  0  0  0  0
 53  1  1  0  0  0  0
 53 54  1  0  0  0  0
 54 55  1  0  0  0  0
 56 54  2  0  0  0  0
 56 57  1  0  0  0  0
 58 56  1  0  0  0  0
 59 58  1  0  0  0  0
 60 62  1  0  0  0  0
 60 58  2  0  0  0  0
 61 60  1  0  0  0  0
 62 53  2  0  0  0  0
 63 62  1  0  0  0  0
 64 65  1  0  0  0  0
 65 66  1  0  0  0  0
 65 67  2  0  0  0  0
 67 68  1  0  0  0  0
 69 67  1  0  0  0  0
 69 70  1  0  0  0  0
 71 69  2  0  0  0  0
 72 71  1  0  0  0  0
 73 64  2  0  0  0  0
 73 71  1  0  0  0  0
 74 73  1  0  0  0  0
M  END
