1,45
 OpenBabel05122313053D

 48 51  0  0  1  0  0  0  0  0999 V2000
    0.6276   -0.0798    0.0128 P   0  0  0  0  0  0  0  0  0  0  0  0
    2.0447   -1.1409   -0.4649 C   0  0  0  0  0  0  0  0  0  0  0  0
    1.1354    0.7845    1.5512 C   0  0  0  0  0  0  0  0  0  0  0  0
    0.6888    0.2557    2.7801 C   0  0  0  0  0  0  0  0  0  0  0  0
    0.0696   -0.6559    2.7796 H   0  0  0  0  0  0  0  0  0  0  0  0
    1.8657   -2.0203   -1.5527 C   0  0  0  0  0  0  0  0  0  0  0  0
    0.8784   -2.1004   -2.0335 H   0  0  0  0  0  0  0  0  0  0  0  0
    1.0584    0.8811    3.9799 C   0  0  0  0  0  0  0  0  0  0  0  0
    0.7087    0.4663    4.9373 H   0  0  0  0  0  0  0  0  0  0  0  0
    1.8673    2.0292    3.9619 C   0  0  0  0  0  0  0  0  0  0  0  0
    2.1499    2.5191    4.9062 H   0  0  0  0  0  0  0  0  0  0  0  0
    3.2894   -1.0690    0.1849 C   0  0  0  0  0  0  0  0  0  0  0  0
    3.4255   -0.3972    1.0451 H   0  0  0  0  0  0  0  0  0  0  0  0
    1.9551    1.9323    1.5331 C   0  0  0  0  0  0  0  0  0  0  0  0
    2.3064    2.3456    0.5753 H   0  0  0  0  0  0  0  0  0  0  0  0
    2.3186    2.5517    2.7388 C   0  0  0  0  0  0  0  0  0  0  0  0
    2.9565    3.4485    2.7217 H   0  0  0  0  0  0  0  0  0  0  0  0
    2.9343   -2.8084   -1.9956 C   0  0  0  0  0  0  0  0  0  0  0  0
    2.7890   -3.4984   -2.8403 H   0  0  0  0  0  0  0  0  0  0  0  0
    4.1812   -2.7341   -1.3502 C   0  0  0  0  0  0  0  0  0  0  0  0
    5.0168   -3.3625   -1.6937 H   0  0  0  0  0  0  0  0  0  0  0  0
    4.3551   -1.8691   -0.2601 C   0  0  0  0  0  0  0  0  0  0  0  0
    5.3258   -1.8177    0.2559 H   0  0  0  0  0  0  0  0  0  0  0  0
    0.7234    1.2430   -1.2862 C   0  0  0  0  0  0  0  0  0  0  0  0
   -0.3942    3.0763   -2.4701 C   0  0  0  0  0  0  0  0  0  0  0  0
   -1.3041    3.6721   -2.6327 H   0  0  0  0  0  0  0  0  0  0  0  0
   -0.4177    2.0467   -1.5186 C   0  0  0  0  0  0  0  0  0  0  0  0
   -3.1356    0.4561    0.2473 C   0  0  0  0  0  3  0  0  0  0  0  0
   -3.9470   -0.2719    0.3628 H   0  0  0  0  0  0  0  0  0  0  0  0
    1.9109    2.5169   -2.9956 C   0  0  0  0  0  0  0  0  0  0  0  0
    2.8267    2.6953   -3.5789 H   0  0  0  0  0  0  0  0  0  0  0  0
   -2.6116    0.0448   -2.3121 C   0  0  0  0  0  0  0  0  0  0  0  0
   -3.1585   -0.9137   -2.2338 H   0  0  0  0  0  0  0  0  0  0  0  0
   -1.6799   -0.1308   -2.8860 H   0  0  0  0  0  0  0  0  0  0  0  0
   -3.2306    0.7766   -2.8754 H   0  0  0  0  0  0  0  0  0  0  0  0
    0.7772    3.3170   -3.2045 C   0  0  0  0  0  0  0  0  0  0  0  0
    0.7984    4.1234   -3.9527 H   0  0  0  0  0  0  0  0  0  0  0  0
   -1.2134    3.5921    0.9240 C   0  0  0  0  0  0  0  0  0  0  0  0
   -0.1321    3.4126    1.0990 H   0  0  0  0  0  0  0  0  0  0  0  0
   -1.6592    3.9291    1.8774 H   0  0  0  0  0  0  0  0  0  0  0  0
   -1.2957    4.4152    0.1852 H   0  0  0  0  0  0  0  0  0  0  0  0
   -2.8516    1.5677    1.0902 C   0  0  0  0  0  0  0  0  0  0  0  0
   -3.2954    1.7759    2.0695 H   0  0  0  0  0  0  0  0  0  0  0  0
   -1.5940    1.7671   -0.7654 N   0  0  0  0  0  0  0  0  0  0  0  0
   -2.3208    0.5511   -0.9252 C   0  0  1  0  0  3  0  0  0  0  0  0
   -1.8989    2.3553    0.4534 C   0  0  0  0  0  0  0  0  0  0  0  0
    1.8843    1.4818   -2.0470 C   0  0  0  0  0  0  0  0  0  0  0  0
    2.7730    0.8519   -1.8929 H   0  0  0  0  0  0  0  0  0  0  0  0
  1  3  1  0  0  0  0
  2  1  1  0  0  0  0
  2 12  1  0  0  0  0
  3  4  1  0  0  0  0
  4  8  2  0  0  0  0
  5  4  1  0  0  0  0
  6  2  2  0  0  0  0
  7  6  1  0  0  0  0
  8  9  1  0  0  0  0
 10  8  1  0  0  0  0
 10 11  1  0  0  0  0
 12 13  1  0  0  0  0
 14  3  2  0  0  0  0
 14 16  1  0  0  0  0
 15 14  1  0  0  0  0
 16 10  2  0  0  0  0
 17 16  1  0  0  0  0
 18  6  1  0  0  0  0
 18 20  2  0  0  0  0
 19 18  1  0  0  0  0
 20 22  1  0  0  0  0
 21 20  1  0  0  0  0
 22 12  2  0  0  0  0
 22 23  1  0  0  0  0
 24  1  1  0  0  0  0
 25 27  2  0  0  0  0
 26 25  1  0  0  0  0
 27 24  1  0  0  0  0
 27 44  1  0  0  0  0
 28 29  1  0  0  0  0
 28 42  1  0  0  0  0
 30 47  1  0  0  0  0
 31 30  1  0  0  0  0
 32 33  1  0  0  0  0
 34 32  1  0  0  0  0
 35 32  1  0  0  0  0
 36 30  2  0  0  0  0
 36 25  1  0  0  0  0
 37 36  1  0  0  0  0
 38 39  1  0  0  0  0
 38 40  1  0  0  0  0
 41 38  1  0  0  0  0
 42 43  1  0  0  0  0
 44 46  1  0  0  0  0
 45 32  1  6  0  0  0
 45 44  1  0  0  0  0
 45 28  1  0  0  0  0
 46 38  1  0  0  0  0
 46 42  2  0  0  0  0
 47 48  1  0  0  0  0
 47 24  2  0  0  0  0
M  END
