1,7
 OpenBabel05122313053D

 64 64  0  0  0  0  0  0  0  0999 V2000
   -0.9057   -1.4050    0.3579 P   0  0  0  0  0  0  0  0  0  0  0  0
    6.5909   -0.0494    0.5711 F   0  0  0  0  0  0  0  0  0  0  0  0
    6.2966    0.7939   -1.4261 F   0  0  0  0  0  0  0  0  0  0  0  0
    6.1839   -1.3620   -1.1213 F   0  0  0  0  0  0  0  0  0  0  0  0
    0.1974    0.0060    0.3202 N   0  0  0  0  0  0  0  0  0  0  0  0
   -0.4852    2.2947    0.2739 N   0  0  0  0  0  0  0  0  0  0  0  0
   -0.7397    1.0085    0.0086 C   0  0  0  0  0  2  0  0  0  0  0  0
    2.1468    0.4902   -1.0750 C   0  0  0  0  0  0  0  0  0  0  0  0
    3.5274    0.4515   -1.2951 C   0  0  0  0  0  0  0  0  0  0  0  0
    4.3869   -0.0543   -0.3042 C   0  0  0  0  0  0  0  0  0  0  0  0
    3.8554   -0.5060    0.9169 C   0  0  0  0  0  0  0  0  0  0  0  0
    2.4764   -0.4592    1.1430 C   0  0  0  0  0  0  0  0  0  0  0  0
    1.6082    0.0286    0.1453 C   0  0  0  0  0  0  0  0  0  0  0  0
   -0.2467   -2.7524   -0.7945 C   0  0  0  0  0  0  0  0  0  0  0  0
   -1.2102   -3.9478   -0.6460 C   0  0  0  0  0  0  0  0  0  0  0  0
    1.2067   -3.1821   -0.5299 C   0  0  0  0  0  0  0  0  0  0  0  0
   -0.3768   -2.1724   -2.2169 C   0  0  0  0  0  0  0  0  0  0  0  0
   -1.1118   -1.9203    2.1753 C   0  0  0  0  0  0  0  0  0  0  0  0
   -0.0188   -2.8500    2.7217 C   0  0  0  0  0  0  0  0  0  0  0  0
   -2.4907   -2.6104    2.2697 C   0  0  0  0  0  0  0  0  0  0  0  0
   -1.1564   -0.6052    2.9751 C   0  0  0  0  0  0  0  0  0  0  0  0
    0.6827    2.7194    1.1054 C   0  0  0  0  0  0  0  0  0  0  0  0
    1.7503    3.5098    0.3365 C   0  0  0  0  0  0  0  0  0  0  0  0
    0.2561    3.4308    2.3940 C   0  0  0  0  0  0  0  0  0  0  0  0
   -1.5693    3.2656   -0.0881 C   0  0  0  0  0  0  0  0  0  0  0  0
   -1.0612    4.6065   -0.6096 C   0  0  0  0  0  0  0  0  0  0  0  0
   -2.6285    3.4060    1.0109 C   0  0  0  0  0  0  0  0  0  0  0  0
    5.8699   -0.1634   -0.5697 C   0  0  0  0  0  0  0  0  0  0  0  0
    1.4658    0.8661   -1.8524 H   0  0  0  0  0  0  0  0  0  0  0  0
    3.9435    0.8105   -2.2472 H   0  0  0  0  0  0  0  0  0  0  0  0
    4.5303   -0.8818    1.6990 H   0  0  0  0  0  0  0  0  0  0  0  0
    2.0614   -0.7945    2.1031 H   0  0  0  0  0  0  0  0  0  0  0  0
   -2.2680   -3.6237   -0.7453 H   0  0  0  0  0  0  0  0  0  0  0  0
   -0.9906   -4.6707   -1.4594 H   0  0  0  0  0  0  0  0  0  0  0  0
   -1.0732   -4.4804    0.3155 H   0  0  0  0  0  0  0  0  0  0  0  0
    1.3819   -3.5085    0.5115 H   0  0  0  0  0  0  0  0  0  0  0  0
    1.4312   -4.0471   -1.1893 H   0  0  0  0  0  0  0  0  0  0  0  0
    1.9333   -2.3860   -0.7746 H   0  0  0  0  0  0  0  0  0  0  0  0
    0.2245   -1.2512   -2.3466 H   0  0  0  0  0  0  0  0  0  0  0  0
   -0.0027   -2.9267   -2.9407 H   0  0  0  0  0  0  0  0  0  0  0  0
   -1.4321   -1.9385   -2.4595 H   0  0  0  0  0  0  0  0  0  0  0  0
   -0.2273   -3.0538    3.7932 H   0  0  0  0  0  0  0  0  0  0  0  0
   -0.0047   -3.8264    2.2007 H   0  0  0  0  0  0  0  0  0  0  0  0
    0.9952   -2.4102    2.6603 H   0  0  0  0  0  0  0  0  0  0  0  0
   -3.2855   -2.0244    1.7667 H   0  0  0  0  0  0  0  0  0  0  0  0
   -2.4857   -3.6151    1.8081 H   0  0  0  0  0  0  0  0  0  0  0  0
   -2.7489   -2.7324    3.3425 H   0  0  0  0  0  0  0  0  0  0  0  0
   -1.4216   -0.8371    4.0272 H   0  0  0  0  0  0  0  0  0  0  0  0
   -0.1830   -0.0757    2.9730 H   0  0  0  0  0  0  0  0  0  0  0  0
   -1.9261    0.0840    2.5716 H   0  0  0  0  0  0  0  0  0  0  0  0
    1.1523    1.7748    1.4270 H   0  0  0  0  0  0  0  0  0  0  0  0
    1.4677    4.5679    0.1916 H   0  0  0  0  0  0  0  0  0  0  0  0
    2.6985    3.4897    0.9102 H   0  0  0  0  0  0  0  0  0  0  0  0
    1.9515    3.0659   -0.6557 H   0  0  0  0  0  0  0  0  0  0  0  0
   -0.4848    2.8351    2.9607 H   0  0  0  0  0  0  0  0  0  0  0  0
    1.1522    3.5647    3.0328 H   0  0  0  0  0  0  0  0  0  0  0  0
   -0.1692    4.4344    2.2060 H   0  0  0  0  0  0  0  0  0  0  0  0
   -2.0899    2.7679   -0.9317 H   0  0  0  0  0  0  0  0  0  0  0  0
   -1.9307    5.1526   -1.0260 H   0  0  0  0  0  0  0  0  0  0  0  0
   -0.6146    5.2538    0.1720 H   0  0  0  0  0  0  0  0  0  0  0  0
   -0.3288    4.4803   -1.4304 H   0  0  0  0  0  0  0  0  0  0  0  0
   -2.9014    2.4099    1.4123 H   0  0  0  0  0  0  0  0  0  0  0  0
   -2.3253    4.0675    1.8452 H   0  0  0  0  0  0  0  0  0  0  0  0
   -3.5474    3.8209    0.5527 H   0  0  0  0  0  0  0  0  0  0  0  0
  1 18  1  0  0  0  0
  3 28  1  0  0  0  0
  4 28  1  0  0  0  0
  5  1  1  0  0  0  0
  6 22  1  0  0  0  0
  7  6  1  0  0  0  0
  7  5  1  0  0  0  0
  8 13  1  0  0  0  0
  9  8  2  0  0  0  0
  9 10  1  0  0  0  0
 10 11  2  0  0  0  0
 11 12  1  0  0  0  0
 11 31  1  0  0  0  0
 12 32  1  0  0  0  0
 13  5  1  0  0  0  0
 13 12  2  0  0  0  0
 14 15  1  0  0  0  0
 14 16  1  0  0  0  0
 14  1  1  0  0  0  0
 15 35  1  0  0  0  0
 16 36  1  0  0  0  0
 17 14  1  0  0  0  0
 18 20  1  0  0  0  0
 18 19  1  0  0  0  0
 18 21  1  0  0  0  0
 19 42  1  0  0  0  0
 20 47  1  0  0  0  0
 21 48  1  0  0  0  0
 22 51  1  0  0  0  0
 22 24  1  0  0  0  0
 23 53  1  0  0  0  0
 23 22  1  0  0  0  0
 24 55  1  0  0  0  0
 24 56  1  0  0  0  0
 25  6  1  0  0  0  0
 25 27  1  0  0  0  0
 26 25  1  0  0  0  0
 26 60  1  0  0  0  0
 27 62  1  0  0  0  0
 27 63  1  0  0  0  0
 28 10  1  0  0  0  0
 28  2  1  0  0  0  0
 29  8  1  0  0  0  0
 30  9  1  0  0  0  0
 33 15  1  0  0  0  0
 34 15  1  0  0  0  0
 37 16  1  0  0  0  0
 38 16  1  0  0  0  0
 39 17  1  0  0  0  0
 40 17  1  0  0  0  0
 41 17  1  0  0  0  0
 43 19  1  0  0  0  0
 44 19  1  0  0  0  0
 45 20  1  0  0  0  0
 46 20  1  0  0  0  0
 49 21  1  0  0  0  0
 50 21  1  0  0  0  0
 52 23  1  0  0  0  0
 54 23  1  0  0  0  0
 57 24  1  0  0  0  0
 58 25  1  0  0  0  0
 59 26  1  0  0  0  0
 61 26  1  0  0  0  0
 64 27  1  0  0  0  0
M  END
