1,5
 OpenBabel05122313053D

 65 65  0  0  0  0  0  0  0  0999 V2000
    0.6484   -1.3902    0.3315 P   0  0  0  0  0  0  0  0  0  0  0  0
   -6.0848   -0.5969   -0.4581 O   0  0  0  0  0  0  0  0  0  0  0  0
   -0.5505   -0.0683    0.2978 N   0  0  0  0  0  0  0  0  0  0  0  0
   -0.0430    2.2679    0.2800 N   0  0  0  0  0  0  0  0  0  0  0  0
    0.3128    1.0033    0.0211 C   0  0  0  0  0  2  0  0  0  0  0  0
   -2.8144   -0.6331    1.1370 C   0  0  0  0  0  0  0  0  0  0  0  0
   -4.1830   -0.7777    0.9115 C   0  0  0  0  0  0  0  0  0  0  0  0
   -4.7452   -0.4225   -0.3365 C   0  0  0  0  0  0  0  0  0  0  0  0
   -3.9051    0.0821   -1.3521 C   0  0  0  0  0  0  0  0  0  0  0  0
   -2.5281    0.2104   -1.1190 C   0  0  0  0  0  0  0  0  0  0  0  0
   -1.9654   -0.1456    0.1204 C   0  0  0  0  0  0  0  0  0  0  0  0
    0.8612   -1.9169    2.1449 C   0  0  0  0  0  0  0  0  0  0  0  0
   -0.1911   -2.9079    2.6632 C   0  0  0  0  0  0  0  0  0  0  0  0
    2.2735   -2.5322    2.2551 C   0  0  0  0  0  0  0  0  0  0  0  0
    0.8238   -0.6109    2.9603 C   0  0  0  0  0  0  0  0  0  0  0  0
    0.1090   -2.7697   -0.8443 C   0  0  0  0  0  0  0  0  0  0  0  0
    0.2272   -2.1676   -2.2585 C   0  0  0  0  0  0  0  0  0  0  0  0
   -1.3176   -3.2968   -0.6095 C   0  0  0  0  0  0  0  0  0  0  0  0
    1.1453   -3.9014   -0.6911 C   0  0  0  0  0  0  0  0  0  0  0  0
   -1.2492    2.5981    1.0977 C   0  0  0  0  0  0  0  0  0  0  0  0
   -2.3775    3.2772    0.3095 C   0  0  0  0  0  0  0  0  0  0  0  0
   -0.8993    3.3630    2.3787 C   0  0  0  0  0  0  0  0  0  0  0  0
    0.9622    3.3205   -0.0743 C   0  0  0  0  0  0  0  0  0  0  0  0
    1.9907    3.5601    1.0367 C   0  0  0  0  0  0  0  0  0  0  0  0
    0.3516    4.6091   -0.6183 C   0  0  0  0  0  0  0  0  0  0  0  0
   -6.7017   -0.2592   -1.6886 C   0  0  0  0  0  0  0  0  0  0  0  0
   -2.3905   -0.8957    2.1164 H   0  0  0  0  0  0  0  0  0  0  0  0
   -4.8531   -1.1603    1.6945 H   0  0  0  0  0  0  0  0  0  0  0  0
   -4.3092    0.3677   -2.3320 H   0  0  0  0  0  0  0  0  0  0  0  0
   -1.8696    0.5872   -1.9156 H   0  0  0  0  0  0  0  0  0  0  0  0
   -0.1365   -3.8818    2.1401 H   0  0  0  0  0  0  0  0  0  0  0  0
   -1.2260   -2.5252    2.5744 H   0  0  0  0  0  0  0  0  0  0  0  0
    0.0013   -3.1034    3.7394 H   0  0  0  0  0  0  0  0  0  0  0  0
    2.3280   -3.5346    1.7919 H   0  0  0  0  0  0  0  0  0  0  0  0
    2.5261   -2.6432    3.3306 H   0  0  0  0  0  0  0  0  0  0  0  0
    3.0413   -1.9025    1.7625 H   0  0  0  0  0  0  0  0  0  0  0  0
    1.5623    0.1223    2.5763 H   0  0  0  0  0  0  0  0  0  0  0  0
    1.0840   -0.8416    4.0140 H   0  0  0  0  0  0  0  0  0  0  0  0
   -0.1755   -0.1326    2.9475 H   0  0  0  0  0  0  0  0  0  0  0  0
   -0.4306   -1.2865   -2.3907 H   0  0  0  0  0  0  0  0  0  0  0  0
    1.2694   -1.8614   -2.4764 H   0  0  0  0  0  0  0  0  0  0  0  0
   -0.0816   -2.9372   -2.9971 H   0  0  0  0  0  0  0  0  0  0  0  0
   -1.4788   -3.6678    0.4192 H   0  0  0  0  0  0  0  0  0  0  0  0
   -2.0904   -2.5384   -0.8317 H   0  0  0  0  0  0  0  0  0  0  0  0
   -1.4820   -4.1524   -1.2987 H   0  0  0  0  0  0  0  0  0  0  0  0
    2.1810   -3.5068   -0.7645 H   0  0  0  0  0  0  0  0  0  0  0  0
    1.0251   -4.4543    0.2613 H   0  0  0  0  0  0  0  0  0  0  0  0
    0.9898   -4.6270   -1.5170 H   0  0  0  0  0  0  0  0  0  0  0  0
   -1.6355    1.6199    1.4279 H   0  0  0  0  0  0  0  0  0  0  0  0
   -3.3212    3.1944    0.8854 H   0  0  0  0  0  0  0  0  0  0  0  0
   -2.5399    2.7867   -0.6678 H   0  0  0  0  0  0  0  0  0  0  0  0
   -2.1830    4.3508    0.1341 H   0  0  0  0  0  0  0  0  0  0  0  0
   -0.1137    2.8434    2.9597 H   0  0  0  0  0  0  0  0  0  0  0  0
   -1.8095    3.4253    3.0087 H   0  0  0  0  0  0  0  0  0  0  0  0
   -0.5626    4.3978    2.1799 H   0  0  0  0  0  0  0  0  0  0  0  0
    1.5367    2.8614   -0.9046 H   0  0  0  0  0  0  0  0  0  0  0  0
    2.3373    2.5937    1.4534 H   0  0  0  0  0  0  0  0  0  0  0  0
    2.8797    4.0423    0.5853 H   0  0  0  0  0  0  0  0  0  0  0  0
    1.6235    4.2039    1.8591 H   0  0  0  0  0  0  0  0  0  0  0  0
   -0.1629    5.2226    0.1490 H   0  0  0  0  0  0  0  0  0  0  0  0
   -0.3540    4.4122   -1.4488 H   0  0  0  0  0  0  0  0  0  0  0  0
    1.1779    5.2242   -1.0264 H   0  0  0  0  0  0  0  0  0  0  0  0
   -7.7785   -0.4773   -1.5680 H   0  0  0  0  0  0  0  0  0  0  0  0
   -6.5754    0.8195   -1.9316 H   0  0  0  0  0  0  0  0  0  0  0  0
   -6.3013   -0.8657   -2.5313 H   0  0  0  0  0  0  0  0  0  0  0  0
  1 12  1  0  0  0  0
  2  8  1  0  0  0  0
  3  1  1  0  0  0  0
  4 20  1  0  0  0  0
  5  4  1  0  0  0  0
  5  3  1  0  0  0  0
  6 27  1  0  0  0  0
  7  6  1  0  0  0  0
  7 28  1  0  0  0  0
  8  7  2  0  0  0  0
  9 10  2  0  0  0  0
  9  8  1  0  0  0  0
 10 11  1  0  0  0  0
 11  3  1  0  0  0  0
 11  6  2  0  0  0  0
 12 14  1  0  0  0  0
 12 13  1  0  0  0  0
 12 15  1  0  0  0  0
 13 33  1  0  0  0  0
 14 35  1  0  0  0  0
 15 38  1  0  0  0  0
 16 19  1  0  0  0  0
 16 18  1  0  0  0  0
 16  1  1  0  0  0  0
 17 16  1  0  0  0  0
 18 43  1  0  0  0  0
 19 47  1  0  0  0  0
 20 49  1  0  0  0  0
 20 22  1  0  0  0  0
 21 50  1  0  0  0  0
 21 20  1  0  0  0  0
 22 53  1  0  0  0  0
 22 54  1  0  0  0  0
 23  4  1  0  0  0  0
 23 24  1  0  0  0  0
 24 57  1  0  0  0  0
 24 59  1  0  0  0  0
 25 23  1  0  0  0  0
 25 60  1  0  0  0  0
 26 63  1  0  0  0  0
 26  2  1  0  0  0  0
 29  9  1  0  0  0  0
 30 10  1  0  0  0  0
 31 13  1  0  0  0  0
 32 13  1  0  0  0  0
 34 14  1  0  0  0  0
 36 14  1  0  0  0  0
 37 15  1  0  0  0  0
 39 15  1  0  0  0  0
 40 17  1  0  0  0  0
 41 17  1  0  0  0  0
 42 17  1  0  0  0  0
 44 18  1  0  0  0  0
 45 18  1  0  0  0  0
 46 19  1  0  0  0  0
 48 19  1  0  0  0  0
 51 21  1  0  0  0  0
 52 21  1  0  0  0  0
 55 22  1  0  0  0  0
 56 23  1  0  0  0  0
 58 24  1  0  0  0  0
 61 25  1  0  0  0  0
 62 25  1  0  0  0  0
 64 26  1  0  0  0  0
 65 26  1  0  0  0  0
M  END
