2,3
 OpenBabel05122313053D

 25 26  0  0  0  0  0  0  0  0999 V2000
    1.8253   -3.1619   -1.5946 Cl  0  0  0  0  0  0  0  0  0  0  0  0
    1.9651   -0.2752   -0.1877 P   0  0  0  0  0  0  0  0  0  0  0  0
    1.2393   -1.7779   -0.8089 C   0  0  0  0  0  2  0  0  0  0  0  0
    3.2338   -0.6061    1.0818 C   0  0  0  0  0  0  0  0  0  0  0  0
    2.8177   -1.2341    2.2751 C   0  0  0  0  0  0  0  0  0  0  0  0
    3.7566   -1.5158    3.2764 C   0  0  0  0  0  0  0  0  0  0  0  0
    5.1048   -1.1619    3.0981 C   0  0  0  0  0  0  0  0  0  0  0  0
    5.5153   -0.5268    1.9148 C   0  0  0  0  0  0  0  0  0  0  0  0
    4.5845   -0.2471    0.9028 C   0  0  0  0  0  0  0  0  0  0  0  0
    2.6986    0.8029   -1.4578 C   0  0  0  0  0  0  0  0  0  0  0  0
    3.1706    0.2837   -2.6805 C   0  0  0  0  0  0  0  0  0  0  0  0
    3.7101    1.1537   -3.6398 C   0  0  0  0  0  0  0  0  0  0  0  0
    3.7826    2.5324   -3.3812 C   0  0  0  0  0  0  0  0  0  0  0  0
    3.3096    3.0476   -2.1628 C   0  0  0  0  0  0  0  0  0  0  0  0
    2.7607    2.1886   -1.2004 C   0  0  0  0  0  0  0  0  0  0  0  0
    1.7558   -1.4972    2.4084 H   0  0  0  0  0  0  0  0  0  0  0  0
    3.4318   -2.0081    4.2054 H   0  0  0  0  0  0  0  0  0  0  0  0
    5.8390   -1.3783    3.8888 H   0  0  0  0  0  0  0  0  0  0  0  0
    6.5706   -0.2471    1.7760 H   0  0  0  0  0  0  0  0  0  0  0  0
    4.9042    0.2502   -0.0254 H   0  0  0  0  0  0  0  0  0  0  0  0
    3.1095   -0.7969   -2.8787 H   0  0  0  0  0  0  0  0  0  0  0  0
    4.0758    0.7509   -4.5964 H   0  0  0  0  0  0  0  0  0  0  0  0
    4.2046    3.2110   -4.1380 H   0  0  0  0  0  0  0  0  0  0  0  0
    3.3536    4.1287   -1.9621 H   0  0  0  0  0  0  0  0  0  0  0  0
    2.3716    2.5984   -0.2551 H   0  0  0  0  0  0  0  0  0  0  0  0
  1  3  1  0  0  0  0
  2  4  1  0  0  0  0
  3  2  1  0  0  0  0
  4  5  1  0  0  0  0
  5 16  1  0  0  0  0
  5  6  2  0  0  0  0
  6 17  1  0  0  0  0
  7  6  1  0  0  0  0
  7 18  1  0  0  0  0
  8  7  2  0  0  0  0
  9  4  2  0  0  0  0
  9  8  1  0  0  0  0
 10 15  1  0  0  0  0
 10  2  1  0  0  0  0
 11 10  2  0  0  0  0
 12 13  2  0  0  0  0
 12 11  1  0  0  0  0
 13 14  1  0  0  0  0
 14 24  1  0  0  0  0
 14 15  2  0  0  0  0
 15 25  1  0  0  0  0
 19  8  1  0  0  0  0
 20  9  1  0  0  0  0
 21 11  1  0  0  0  0
 22 12  1  0  0  0  0
 23 13  1  0  0  0  0
M  END
