1,2
 OpenBabel05122313053D

 34 34  0  0  0  0  0  0  0  0999 V2000
    1.5662    1.9041   -0.3286 P   0  0  0  0  0  0  0  0  0  0  0  0
   -1.2167    1.6831   -0.5950 C   0  0  0  0  0  3  0  0  0  0  0  0
   -2.5240    1.6694   -0.0638 C   0  0  0  0  0  0  0  0  0  0  0  0
   -2.8803    0.7954    0.4991 H   0  0  0  0  0  0  0  0  0  0  0  0
   -3.3809    2.7754   -0.1921 C   0  0  0  0  0  0  0  0  0  0  0  0
   -4.3919    2.7289    0.2421 H   0  0  0  0  0  0  0  0  0  0  0  0
   -2.9467    3.9325   -0.8561 C   0  0  0  0  0  0  0  0  0  0  0  0
   -3.6173    4.7979   -0.9689 H   0  0  0  0  0  0  0  0  0  0  0  0
   -1.6320    3.9921   -1.3419 C   0  0  0  0  0  0  0  0  0  0  0  0
   -1.2633    4.9166   -1.8152 H   0  0  0  0  0  0  0  0  0  0  0  0
   -0.7615    2.8934   -1.2004 C   0  0  0  0  0  0  0  0  0  0  0  0
    0.7050    3.0062   -1.5553 C   0  0  0  0  0  0  0  0  0  0  0  0
    1.0735    4.0528   -1.5369 H   0  0  0  0  0  0  0  0  0  0  0  0
    0.9274    2.5859   -2.5608 H   0  0  0  0  0  0  0  0  0  0  0  0
    3.2827    1.5649   -0.9791 C   0  0  0  0  0  0  0  0  0  0  0  0
    3.7613    0.9798   -0.1644 H   0  0  0  0  0  0  0  0  0  0  0  0
    4.0832    2.8492   -1.2243 C   0  0  0  0  0  0  0  0  0  0  0  0
    5.1090    2.5971   -1.5651 H   0  0  0  0  0  0  0  0  0  0  0  0
    4.1805    3.4722   -0.3132 H   0  0  0  0  0  0  0  0  0  0  0  0
    3.6177    3.4715   -2.0165 H   0  0  0  0  0  0  0  0  0  0  0  0
    3.2155    0.6614   -2.2159 C   0  0  0  0  0  0  0  0  0  0  0  0
    2.6757    1.1460   -3.0561 H   0  0  0  0  0  0  0  0  0  0  0  0
    2.7135   -0.2940   -1.9740 H   0  0  0  0  0  0  0  0  0  0  0  0
    4.2421    0.4327   -2.5689 H   0  0  0  0  0  0  0  0  0  0  0  0
    1.7934    2.9216    1.2258 C   0  0  0  0  0  0  0  0  0  0  0  0
    2.2191    3.8909    0.8797 H   0  0  0  0  0  0  0  0  0  0  0  0
    0.4445    3.1826    1.9088 C   0  0  0  0  0  0  0  0  0  0  0  0
   -0.0441    2.2267    2.1854 H   0  0  0  0  0  0  0  0  0  0  0  0
   -0.2614    3.7399    1.2644 H   0  0  0  0  0  0  0  0  0  0  0  0
    0.6084    3.7717    2.8348 H   0  0  0  0  0  0  0  0  0  0  0  0
    2.7821    2.2357    2.1789 C   0  0  0  0  0  0  0  0  0  0  0  0
    2.8506    2.8186    3.1205 H   0  0  0  0  0  0  0  0  0  0  0  0
    3.8049    2.1712    1.7574 H   0  0  0  0  0  0  0  0  0  0  0  0
    2.4478    1.2086    2.4325 H   0  0  0  0  0  0  0  0  0  0  0  0
  1 25  1  0  0  0  0
  2  3  1  0  0  0  0
  3  4  1  0  0  0  0
  5  3  2  0  0  0  0
  5  6  1  0  0  0  0
  7  5  1  0  0  0  0
  8  7  1  0  0  0  0
  9 11  1  0  0  0  0
  9  7  2  0  0  0  0
 10  9  1  0  0  0  0
 11  2  2  0  0  0  0
 12 13  1  0  0  0  0
 12 11  1  0  0  0  0
 12  1  1  0  0  0  0
 14 12  1  0  0  0  0
 15  1  1  0  0  0  0
 15 16  1  0  0  0  0
 17 15  1  0  0  0  0
 17 19  1  0  0  0  0
 18 17  1  0  0  0  0
 20 17  1  0  0  0  0
 21 23  1  0  0  0  0
 21 15  1  0  0  0  0
 22 21  1  0  0  0  0
 24 21  1  0  0  0  0
 25 27  1  0  0  0  0
 25 31  1  0  0  0  0
 26 25  1  0  0  0  0
 27 28  1  0  0  0  0
 27 30  1  0  0  0  0
 29 27  1  0  0  0  0
 31 34  1  0  0  0  0
 31 32  1  0  0  0  0
 33 31  1  0  0  0  0
M  END
