1
 OpenBabel05122313053D

 72 76  0  0  1  0  0  0  0  0999 V2000
    2.1765   -0.9007   -0.1115 P   0  0  0  0  0  0  0  0  0  0  0  0
    0.5988    0.0980    1.8599 N   0  0  0  0  0  0  0  0  0  0  0  0
    0.3523    0.3187    3.1680 N   0  0  0  0  0  0  0  0  0  0  0  0
   -2.5089    0.9025    0.4489 N   0  0  0  0  0  0  0  0  0  0  0  0
   -1.9329    2.1487    0.3961 N   0  0  0  0  0  0  0  0  0  0  0  0
    1.3849   -0.2513    3.8102 C   0  0  0  0  0  0  0  0  0  0  0  0
    1.4327   -0.2098    4.9062 H   0  0  0  0  0  0  0  0  0  0  0  0
    2.2978   -0.8513    2.9088 C   0  0  0  0  0  0  0  0  0  0  0  0
    3.2186   -1.3891    3.1499 H   0  0  0  0  0  0  0  0  0  0  0  0
    1.7561   -0.6114    1.6388 C   0  0  0  0  0  0  0  0  0  0  0  0
   -0.6561    1.9855    0.6964 C   0  0  0  0  0  0  0  0  0  0  0  0
   -0.3443    0.5625    0.8827 C   0  0  2  0  0  3  0  0  0  0  0  0
   -1.6329   -0.0842    0.7408 C   0  0  2  0  0  3  0  0  0  0  0  0
    2.3991   -2.7956   -0.2783 C   0  0  0  0  0  0  0  0  0  0  0  0
    0.9812   -3.3543   -0.4969 C   0  0  0  0  0  0  0  0  0  0  0  0
    1.0377   -4.4619   -0.5548 H   0  0  0  0  0  0  0  0  0  0  0  0
    0.5396   -2.9731   -1.4375 H   0  0  0  0  0  0  0  0  0  0  0  0
    0.3033   -3.0971    0.3400 H   0  0  0  0  0  0  0  0  0  0  0  0
    3.2812   -3.1285   -1.4932 C   0  0  0  0  0  0  0  0  0  0  0  0
    3.2517   -4.2273   -1.6512 H   0  0  0  0  0  0  0  0  0  0  0  0
    4.3402   -2.8473   -1.3323 H   0  0  0  0  0  0  0  0  0  0  0  0
    2.9049   -2.6346   -2.4091 H   0  0  0  0  0  0  0  0  0  0  0  0
    2.9976   -3.4186    0.9941 C   0  0  0  0  0  0  0  0  0  0  0  0
    3.1371   -4.5052    0.8119 H   0  0  0  0  0  0  0  0  0  0  0  0
    2.3226   -3.3111    1.8638 H   0  0  0  0  0  0  0  0  0  0  0  0
    3.9876   -2.9992    1.2572 H   0  0  0  0  0  0  0  0  0  0  0  0
    3.7945    0.0946   -0.3435 C   0  0  0  0  0  0  0  0  0  0  0  0
    3.4531    1.5253    0.1086 C   0  0  0  0  0  0  0  0  0  0  0  0
    4.3431    2.1705   -0.0447 H   0  0  0  0  0  0  0  0  0  0  0  0
    3.1806    1.5782    1.1795 H   0  0  0  0  0  0  0  0  0  0  0  0
    2.6197    1.9551   -0.4824 H   0  0  0  0  0  0  0  0  0  0  0  0
    4.9283   -0.4735    0.5243 C   0  0  0  0  0  0  0  0  0  0  0  0
    5.8166    0.1846    0.4170 H   0  0  0  0  0  0  0  0  0  0  0  0
    5.2335   -1.4895    0.2077 H   0  0  0  0  0  0  0  0  0  0  0  0
    4.6652   -0.4948    1.5995 H   0  0  0  0  0  0  0  0  0  0  0  0
    4.2195    0.1324   -1.8205 C   0  0  0  0  0  0  0  0  0  0  0  0
    5.0791    0.8297   -1.9103 H   0  0  0  0  0  0  0  0  0  0  0  0
    3.4015    0.4862   -2.4751 H   0  0  0  0  0  0  0  0  0  0  0  0
    4.5455   -0.8539   -2.1966 H   0  0  0  0  0  0  0  0  0  0  0  0
   -3.9063    0.7904    0.1730 C   0  0  0  0  0  0  0  0  0  0  0  0
   -4.4477    1.5349   -0.8879 C   0  0  0  0  0  0  0  0  0  0  0  0
   -3.7725    2.1485   -1.4978 H   0  0  0  0  0  0  0  0  0  0  0  0
   -5.8203    1.4428   -1.1501 C   0  0  0  0  0  0  0  0  0  0  0  0
   -6.2502    2.0176   -1.9840 H   0  0  0  0  0  0  0  0  0  0  0  0
   -6.6414    0.6149   -0.3667 C   0  0  0  0  0  0  0  0  0  0  0  0
   -7.7180    0.5426   -0.5827 H   0  0  0  0  0  0  0  0  0  0  0  0
   -6.0881   -0.1170    0.6960 C   0  0  0  0  0  0  0  0  0  0  0  0
   -6.7285   -0.7559    1.3221 H   0  0  0  0  0  0  0  0  0  0  0  0
   -4.7181   -0.0274    0.9777 C   0  0  0  0  0  0  0  0  0  0  0  0
   -4.2824   -0.5790    1.8218 H   0  0  0  0  0  0  0  0  0  0  0  0
    0.2839    3.1203    0.7085 C   0  0  0  0  0  0  0  0  0  0  0  0
    0.3791    3.9327   -0.4417 C   0  0  0  0  0  0  0  0  0  0  0  0
   -0.2492    3.6901   -1.3118 H   0  0  0  0  0  0  0  0  0  0  0  0
    1.2910    4.9962   -0.4708 C   0  0  0  0  0  0  0  0  0  0  0  0
    1.3722    5.6204   -1.3735 H   0  0  0  0  0  0  0  0  0  0  0  0
    2.1047    5.2597    0.6442 C   0  0  0  0  0  0  0  0  0  0  0  0
    2.8205    6.0955    0.6181 H   0  0  0  0  0  0  0  0  0  0  0  0
    2.0027    4.4582    1.7928 C   0  0  0  0  0  0  0  0  0  0  0  0
    2.6323    4.6698    2.6705 H   0  0  0  0  0  0  0  0  0  0  0  0
    1.0981    3.3872    1.8283 C   0  0  0  0  0  0  0  0  0  0  0  0
    1.0047    2.7594    2.7267 H   0  0  0  0  0  0  0  0  0  0  0  0
   -1.9544   -1.5172    0.8286 C   0  0  0  0  0  0  0  0  0  0  0  0
   -2.5056   -2.1767   -0.2926 C   0  0  0  0  0  0  0  0  0  0  0  0
   -2.6783   -1.6026   -1.2161 H   0  0  0  0  0  0  0  0  0  0  0  0
   -2.7740   -3.5486   -0.2248 C   0  0  0  0  0  0  0  0  0  0  0  0
   -3.1905   -4.0640   -1.1031 H   0  0  0  0  0  0  0  0  0  0  0  0
   -2.4996   -4.2679    0.9517 C   0  0  0  0  0  0  0  0  0  0  0  0
   -2.7113   -5.3469    0.9982 H   0  0  0  0  0  0  0  0  0  0  0  0
   -1.9490   -3.6127    2.0645 C   0  0  0  0  0  0  0  0  0  0  0  0
   -1.7318   -4.1746    2.9853 H   0  0  0  0  0  0  0  0  0  0  0  0
   -1.6709   -2.2385    2.0079 C   0  0  0  0  0  0  0  0  0  0  0  0
   -1.2455   -1.7134    2.8760 H   0  0  0  0  0  0  0  0  0  0  0  0
  1 10  1  0  0  0  0
  2  3  1  0  0  0  0
  3  6  2  0  0  0  0
  4 13  1  0  0  0  0
  5  4  1  0  0  0  0
  5 11  2  0  0  0  0
  6  7  1  0  0  0  0
  8  9  1  0  0  0  0
  8  6  1  0  0  0  0
 10  2  1  0  0  0  0
 10  8  2  0  0  0  0
 11 51  1  0  0  0  0
 11 12  1  0  0  0  0
 12  2  1  1  0  0  0
 13 62  1  6  0  0  0
 13 12  1  0  0  0  0
 14  1  1  0  0  0  0
 14 23  1  0  0  0  0
 15 14  1  0  0  0  0
 15 18  1  0  0  0  0
 16 15  1  0  0  0  0
 17 15  1  0  0  0  0
 19 21  1  0  0  0  0
 19 14  1  0  0  0  0
 20 19  1  0  0  0  0
 22 19  1  0  0  0  0
 23 26  1  0  0  0  0
 23 25  1  0  0  0  0
 24 23  1  0  0  0  0
 27  1  1  0  0  0  0
 27 28  1  0  0  0  0
 27 32  1  0  0  0  0
 28 30  1  0  0  0  0
 29 28  1  0  0  0  0
 31 28  1  0  0  0  0
 32 35  1  0  0  0  0
 33 32  1  0  0  0  0
 34 32  1  0  0  0  0
 36 27  1  0  0  0  0
 37 36  1  0  0  0  0
 38 36  1  0  0  0  0
 39 36  1  0  0  0  0
 40  4  1  0  0  0  0
 40 49  1  0  0  0  0
 41 40  2  0  0  0  0
 42 41  1  0  0  0  0
 43 41  1  0  0  0  0
 43 45  2  0  0  0  0
 44 43  1  0  0  0  0
 45 47  1  0  0  0  0
 46 45  1  0  0  0  0
 47 49  2  0  0  0  0
 47 48  1  0  0  0  0
 49 50  1  0  0  0  0
 51 60  1  0  0  0  0
 52 51  2  0  0  0  0
 53 52  1  0  0  0  0
 54 52  1  0  0  0  0
 54 56  2  0  0  0  0
 55 54  1  0  0  0  0
 56 58  1  0  0  0  0
 57 56  1  0  0  0  0
 58 60  2  0  0  0  0
 58 59  1  0  0  0  0
 60 61  1  0  0  0  0
 62 71  1  0  0  0  0
 63 65  1  0  0  0  0
 63 62  2  0  0  0  0
 64 63  1  0  0  0  0
 65 67  2  0  0  0  0
 66 65  1  0  0  0  0
 67 68  1  0  0  0  0
 67 69  1  0  0  0  0
 69 70  1  0  0  0  0
 71 69  2  0  0  0  0
 71 72  1  0  0  0  0
M  END
