1,4
 OpenBabel05122313053D

 49 52  0  0  0  0  0  0  0  0999 V2000
    1.1888    0.4095    0.3455 P   0  0  0  0  0  0  0  0  0  0  0  0
   -1.8672   -0.0475    1.4024 N   0  0  0  0  0  0  0  0  0  0  0  0
   -2.8906   -0.3168   -0.5195 N   0  0  0  0  0  0  0  0  0  0  0  0
   -1.7032   -0.5263    0.1261 C   0  0  0  0  0  2  0  0  0  0  0  0
   -3.8041    0.3073    0.3296 C   0  0  0  0  0  0  0  0  0  0  0  0
   -5.1259    0.7358    0.1386 C   0  0  0  0  0  0  0  0  0  0  0  0
   -5.6381    0.6041   -0.8244 H   0  0  0  0  0  0  0  0  0  0  0  0
   -5.7673    1.3437    1.2278 C   0  0  0  0  0  0  0  0  0  0  0  0
   -6.8045    1.6914    1.1141 H   0  0  0  0  0  0  0  0  0  0  0  0
   -5.1110    1.5191    2.4661 C   0  0  0  0  0  0  0  0  0  0  0  0
   -5.6469    1.9999    3.2975 H   0  0  0  0  0  0  0  0  0  0  0  0
   -3.7884    1.0926    2.6599 C   0  0  0  0  0  0  0  0  0  0  0  0
   -3.2845    1.2313    3.6268 H   0  0  0  0  0  0  0  0  0  0  0  0
   -3.1460    0.4853    1.5717 C   0  0  0  0  0  0  0  0  0  0  0  0
   -0.7549    0.1212    2.3310 C   0  0  0  0  0  0  0  0  0  0  0  0
   -0.2681   -0.8625    2.4925 H   0  0  0  0  0  0  0  0  0  0  0  0
   -1.1693    0.4516    3.3022 H   0  0  0  0  0  0  0  0  0  0  0  0
    0.2394    1.1526    1.7792 C   0  0  0  0  0  0  0  0  0  0  0  0
    0.9584    1.4662    2.5614 H   0  0  0  0  0  0  0  0  0  0  0  0
   -0.3175    2.0465    1.4318 H   0  0  0  0  0  0  0  0  0  0  0  0
    1.7217    1.8344   -0.6753 C   0  0  0  0  0  0  0  0  0  0  0  0
    1.7339    3.1572   -0.1840 C   0  0  0  0  0  0  0  0  0  0  0  0
    1.4193    3.3788    0.8467 H   0  0  0  0  0  0  0  0  0  0  0  0
    2.1558    4.2101   -1.0109 C   0  0  0  0  0  0  0  0  0  0  0  0
    2.1618    5.2397   -0.6220 H   0  0  0  0  0  0  0  0  0  0  0  0
    2.5682    3.9496   -2.3268 C   0  0  0  0  0  0  0  0  0  0  0  0
    2.8968    4.7772   -2.9737 H   0  0  0  0  0  0  0  0  0  0  0  0
    2.5600    2.6328   -2.8158 C   0  0  0  0  0  0  0  0  0  0  0  0
    2.8833    2.4243   -3.8469 H   0  0  0  0  0  0  0  0  0  0  0  0
    2.1380    1.5743   -1.9993 C   0  0  0  0  0  0  0  0  0  0  0  0
    2.1351    0.5327   -2.3645 H   0  0  0  0  0  0  0  0  0  0  0  0
    2.6926   -0.2040    1.2066 C   0  0  0  0  0  0  0  0  0  0  0  0
    2.7415   -1.5479    1.6278 C   0  0  0  0  0  0  0  0  0  0  0  0
    1.9359   -2.2390    1.3361 H   0  0  0  0  0  0  0  0  0  0  0  0
    3.8364   -2.0042    2.3758 C   0  0  0  0  0  0  0  0  0  0  0  0
    3.8737   -3.0562    2.6965 H   0  0  0  0  0  0  0  0  0  0  0  0
    4.8900   -1.1316    2.6919 C   0  0  0  0  0  0  0  0  0  0  0  0
    5.7540   -1.4968    3.2678 H   0  0  0  0  0  0  0  0  0  0  0  0
    4.8485    0.2035    2.2595 C   0  0  0  0  0  0  0  0  0  0  0  0
    5.6799    0.8865    2.4916 H   0  0  0  0  0  0  0  0  0  0  0  0
    3.7513    0.6707    1.5200 C   0  0  0  0  0  0  0  0  0  0  0  0
    3.7284    1.7148    1.1715 H   0  0  0  0  0  0  0  0  0  0  0  0
   -3.1211   -0.5635   -1.9472 C   0  0  0  0  0  0  0  0  0  0  0  0
   -4.2094   -0.7238   -2.0775 H   0  0  0  0  0  0  0  0  0  0  0  0
   -2.6062   -1.5179   -2.1828 H   0  0  0  0  0  0  0  0  0  0  0  0
   -2.6075    0.5825   -2.8136 C   0  0  0  0  0  0  0  0  0  0  0  0
   -3.0935    1.5470   -2.5604 H   0  0  0  0  0  0  0  0  0  0  0  0
   -2.8046    0.3638   -3.8815 H   0  0  0  0  0  0  0  0  0  0  0  0
   -1.5111    0.6960   -2.6880 H   0  0  0  0  0  0  0  0  0  0  0  0
  1 32  1  0  0  0  0
  1 18  1  0  0  0  0
  2 14  1  0  0  0  0
  2 15  1  0  0  0  0
  3  4  1  0  0  0  0
  3  5  1  0  0  0  0
  4  2  1  0  0  0  0
  5 14  1  0  0  0  0
  6  5  2  0  0  0  0
  6  8  1  0  0  0  0
  7  6  1  0  0  0  0
  8 10  2  0  0  0  0
  9  8  1  0  0  0  0
 10 12  1  0  0  0  0
 10 11  1  0  0  0  0
 12 13  1  0  0  0  0
 14 12  2  0  0  0  0
 15 16  1  0  0  0  0
 15 17  1  0  0  0  0
 18 15  1  0  0  0  0
 18 19  1  0  0  0  0
 20 18  1  0  0  0  0
 21 22  1  0  0  0  0
 21  1  1  0  0  0  0
 22 23  1  0  0  0  0
 24 25  1  0  0  0  0
 24 22  2  0  0  0  0
 26 24  1  0  0  0  0
 27 26  1  0  0  0  0
 28 26  2  0  0  0  0
 28 30  1  0  0  0  0
 29 28  1  0  0  0  0
 30 21  2  0  0  0  0
 31 30  1  0  0  0  0
 32 41  2  0  0  0  0
 32 33  1  0  0  0  0
 33 35  2  0  0  0  0
 34 33  1  0  0  0  0
 35 37  1  0  0  0  0
 35 36  1  0  0  0  0
 37 38  1  0  0  0  0
 39 40  1  0  0  0  0
 39 37  2  0  0  0  0
 41 39  1  0  0  0  0
 42 41  1  0  0  0  0
 43  3  1  0  0  0  0
 44 43  1  0  0  0  0
 45 43  1  0  0  0  0
 46 49  1  0  0  0  0
 46 47  1  0  0  0  0
 46 43  1  0  0  0  0
 48 46  1  0  0  0  0
M  END
