1,8
 OpenBabel05122313053D

 37 39  0  0  0  0  0  0  0  0999 V2000
    1.9095   -0.4096   -0.8511 P   0  0  0  0  0  0  0  0  0  0  0  0
   -1.1522   -3.3138   -1.0214 N   0  0  0  0  0  0  0  0  0  0  0  0
    0.7288   -2.6278   -1.8364 N   0  0  0  0  0  0  0  0  0  0  0  0
   -2.4247   -3.3886   -0.3112 C   0  0  0  0  0  0  0  0  0  0  0  0
   -2.2951   -3.0726    0.7386 H   0  0  0  0  0  0  0  0  0  0  0  0
   -2.7883   -4.4310   -0.3413 H   0  0  0  0  0  0  0  0  0  0  0  0
   -3.1732   -2.7232   -0.7803 H   0  0  0  0  0  0  0  0  0  0  0  0
   -0.3267   -2.2227   -1.0457 C   0  0  0  0  0  2  0  0  0  0  0  0
   -0.6319   -4.3600   -1.7753 C   0  0  0  0  0  0  0  0  0  0  0  0
   -1.1479   -5.3194   -1.8784 H   0  0  0  0  0  0  0  0  0  0  0  0
    0.5603   -3.9278   -2.2931 C   0  0  0  0  0  0  0  0  0  0  0  0
    1.2856   -4.4300   -2.9399 H   0  0  0  0  0  0  0  0  0  0  0  0
    1.8554   -1.7598   -2.1505 C   0  0  0  0  0  0  0  0  0  0  0  0
    1.7114   -1.2692   -3.1358 H   0  0  0  0  0  0  0  0  0  0  0  0
    2.7920   -2.3494   -2.1907 H   0  0  0  0  0  0  0  0  0  0  0  0
    2.8535    0.9271   -1.6626 C   0  0  0  0  0  0  0  0  0  0  0  0
    4.1126    0.6625   -2.2458 C   0  0  0  0  0  0  0  0  0  0  0  0
    4.5467   -0.3488   -2.2022 H   0  0  0  0  0  0  0  0  0  0  0  0
    4.8242    1.6976   -2.8660 C   0  0  0  0  0  0  0  0  0  0  0  0
    5.8035    1.4907   -3.3229 H   0  0  0  0  0  0  0  0  0  0  0  0
    4.2935    2.9995   -2.8947 C   0  0  0  0  0  0  0  0  0  0  0  0
    4.8587    3.8104   -3.3780 H   0  0  0  0  0  0  0  0  0  0  0  0
    3.0515    3.2677   -2.3000 C   0  0  0  0  0  0  0  0  0  0  0  0
    2.6417    4.2887   -2.3094 H   0  0  0  0  0  0  0  0  0  0  0  0
    2.3276    2.2342   -1.6842 C   0  0  0  0  0  0  0  0  0  0  0  0
    1.3610    2.4403   -1.2030 H   0  0  0  0  0  0  0  0  0  0  0  0
    3.0336   -1.0460    0.4457 C   0  0  0  0  0  0  0  0  0  0  0  0
    3.2616   -2.4231    0.6392 C   0  0  0  0  0  0  0  0  0  0  0  0
    2.8286   -3.1686   -0.0450 H   0  0  0  0  0  0  0  0  0  0  0  0
    4.0420   -2.8604    1.7211 C   0  0  0  0  0  0  0  0  0  0  0  0
    4.2264   -3.9362    1.8602 H   0  0  0  0  0  0  0  0  0  0  0  0
    4.5829   -1.9310    2.6221 C   0  0  0  0  0  0  0  0  0  0  0  0
    5.1941   -2.2766    3.4690 H   0  0  0  0  0  0  0  0  0  0  0  0
    4.3465   -0.5583    2.4391 C   0  0  0  0  0  0  0  0  0  0  0  0
    4.7720    0.1738    3.1416 H   0  0  0  0  0  0  0  0  0  0  0  0
    3.5754   -0.1140    1.3566 C   0  0  0  0  0  0  0  0  0  0  0  0
    3.3979    0.9636    1.2132 H   0  0  0  0  0  0  0  0  0  0  0  0
  1 27  1  0  0  0  0
  2  4  1  0  0  0  0
  3  8  1  0  0  0  0
  4  5  1  0  0  0  0
  6  4  1  0  0  0  0
  7  4  1  0  0  0  0
  8  2  1  0  0  0  0
  9  2  1  0  0  0  0
 10  9  1  0  0  0  0
 11  3  1  0  0  0  0
 11  9  2  0  0  0  0
 12 11  1  0  0  0  0
 13  3  1  0  0  0  0
 13  1  1  0  0  0  0
 14 13  1  0  0  0  0
 15 13  1  0  0  0  0
 16  1  1  0  0  0  0
 17 18  1  0  0  0  0
 17 16  2  0  0  0  0
 19 17  1  0  0  0  0
 20 19  1  0  0  0  0
 21 19  2  0  0  0  0
 21 23  1  0  0  0  0
 22 21  1  0  0  0  0
 23 25  2  0  0  0  0
 24 23  1  0  0  0  0
 25 16  1  0  0  0  0
 25 26  1  0  0  0  0
 27 28  2  0  0  0  0
 27 36  1  0  0  0  0
 28 30  1  0  0  0  0
 29 28  1  0  0  0  0
 30 31  1  0  0  0  0
 30 32  2  0  0  0  0
 32 33  1  0  0  0  0
 34 32  1  0  0  0  0
 34 35  1  0  0  0  0
 36 34  2  0  0  0  0
 37 36  1  0  0  0  0
M  END
