2,3
 OpenBabel05122313053D

 73 73  0  0  0  0  0  0  0  0999 V2000
   -2.3755   -0.2848   -0.1008 P   0  0  0  0  0  0  0  0  0  0  0  0
    2.2218   -0.7070    0.1043 P   0  0  0  0  0  0  0  0  0  0  0  0
    0.0900    1.2802   -0.0403 C   0  0  0  0  0  3  0  0  0  0  0  0
   -1.0048    2.1049   -0.4081 C   0  0  0  0  0  0  0  0  0  0  0  0
   -0.8766    3.5017   -0.4318 C   0  0  0  0  0  0  0  0  0  0  0  0
   -1.7155    4.1545   -0.7179 H   0  0  0  0  0  0  0  0  0  0  0  0
    0.3508    4.1095   -0.0973 C   0  0  0  0  0  0  0  0  0  0  0  0
    1.4492    3.3082    0.2669 C   0  0  0  0  0  0  0  0  0  0  0  0
    2.4126    3.7625    0.5385 H   0  0  0  0  0  0  0  0  0  0  0  0
    1.3115    1.9034    0.2975 C   0  0  0  0  0  0  0  0  0  0  0  0
   -2.3020    1.4394   -0.8145 C   0  0  0  0  0  0  0  0  0  0  0  0
   -2.3137    1.2954   -1.9176 H   0  0  0  0  0  0  0  0  0  0  0  0
   -3.1983    2.0424   -0.5611 H   0  0  0  0  0  0  0  0  0  0  0  0
    2.4667    1.0318    0.7411 C   0  0  0  0  0  0  0  0  0  0  0  0
    2.4573    0.9389    1.8500 H   0  0  0  0  0  0  0  0  0  0  0  0
    3.4582    1.4471    0.4640 H   0  0  0  0  0  0  0  0  0  0  0  0
    0.3763    5.4775   -0.1559 O   0  0  0  0  0  0  0  0  0  0  0  0
    1.5821    6.1329    0.1673 C   0  0  0  0  0  0  0  0  0  0  0  0
    2.4147    5.8413   -0.5141 H   0  0  0  0  0  0  0  0  0  0  0  0
    1.9031    5.9306    1.2153 H   0  0  0  0  0  0  0  0  0  0  0  0
    1.3934    7.2174    0.0555 H   0  0  0  0  0  0  0  0  0  0  0  0
   -3.2259   -0.0610    1.6056 C   0  0  0  0  0  0  0  0  0  0  0  0
   -2.4978    1.0984    2.3158 C   0  0  0  0  0  0  0  0  0  0  0  0
   -1.4044    0.9295    2.3537 H   0  0  0  0  0  0  0  0  0  0  0  0
   -2.8773    1.1662    3.3575 H   0  0  0  0  0  0  0  0  0  0  0  0
   -2.6784    2.0755    1.8277 H   0  0  0  0  0  0  0  0  0  0  0  0
   -4.7199    0.2854    1.5106 C   0  0  0  0  0  0  0  0  0  0  0  0
   -4.9094    1.1738    0.8751 H   0  0  0  0  0  0  0  0  0  0  0  0
   -5.0964    0.5256    2.5278 H   0  0  0  0  0  0  0  0  0  0  0  0
   -5.3286   -0.5572    1.1300 H   0  0  0  0  0  0  0  0  0  0  0  0
   -3.0339   -1.3422    2.4367 C   0  0  0  0  0  0  0  0  0  0  0  0
   -3.4463   -1.1782    3.4550 H   0  0  0  0  0  0  0  0  0  0  0  0
   -1.9603   -1.5932    2.5315 H   0  0  0  0  0  0  0  0  0  0  0  0
   -3.5550   -2.2148    2.0002 H   0  0  0  0  0  0  0  0  0  0  0  0
   -3.5117   -1.2327   -1.3180 C   0  0  0  0  0  0  0  0  0  0  0  0
   -4.7541   -0.4246   -1.7380 C   0  0  0  0  0  0  0  0  0  0  0  0
   -5.3324   -1.0178   -2.4783 H   0  0  0  0  0  0  0  0  0  0  0  0
   -4.4806    0.5292   -2.2310 H   0  0  0  0  0  0  0  0  0  0  0  0
   -5.4318   -0.1964   -0.8976 H   0  0  0  0  0  0  0  0  0  0  0  0
   -3.9228   -2.5724   -0.6844 C   0  0  0  0  0  0  0  0  0  0  0  0
   -4.4267   -3.2017   -1.4484 H   0  0  0  0  0  0  0  0  0  0  0  0
   -4.6322   -2.4427    0.1559 H   0  0  0  0  0  0  0  0  0  0  0  0
   -3.0384   -3.1302   -0.3153 H   0  0  0  0  0  0  0  0  0  0  0  0
   -2.6835   -1.5263   -2.5837 C   0  0  0  0  0  0  0  0  0  0  0  0
   -2.2950   -0.6030   -3.0582 H   0  0  0  0  0  0  0  0  0  0  0  0
   -3.3361   -2.0379   -3.3229 H   0  0  0  0  0  0  0  0  0  0  0  0
   -1.8157   -2.1734   -2.3636 H   0  0  0  0  0  0  0  0  0  0  0  0
    3.1656   -1.7930    1.3701 C   0  0  0  0  0  0  0  0  0  0  0  0
    2.2960   -1.8789    2.6392 C   0  0  0  0  0  0  0  0  0  0  0  0
    2.8448   -2.4674    3.4051 H   0  0  0  0  0  0  0  0  0  0  0  0
    1.3265   -2.3689    2.4379 H   0  0  0  0  0  0  0  0  0  0  0  0
    2.0783   -0.8815    3.0709 H   0  0  0  0  0  0  0  0  0  0  0  0
    4.5333   -1.2065    1.7672 C   0  0  0  0  0  0  0  0  0  0  0  0
    4.9953   -1.8647    2.5339 H   0  0  0  0  0  0  0  0  0  0  0  0
    4.4365   -0.2005    2.2211 H   0  0  0  0  0  0  0  0  0  0  0  0
    5.2409   -1.1376    0.9233 H   0  0  0  0  0  0  0  0  0  0  0  0
    3.3276   -3.2107    0.7960 C   0  0  0  0  0  0  0  0  0  0  0  0
    2.3574   -3.6131    0.4406 H   0  0  0  0  0  0  0  0  0  0  0  0
    3.7058   -3.8885    1.5904 H   0  0  0  0  0  0  0  0  0  0  0  0
    4.0512   -3.2481   -0.0413 H   0  0  0  0  0  0  0  0  0  0  0  0
    3.1003   -0.7175   -1.6034 C   0  0  0  0  0  0  0  0  0  0  0  0
    2.5968    0.5232   -2.3687 C   0  0  0  0  0  0  0  0  0  0  0  0
    2.9845    0.4761   -3.4085 H   0  0  0  0  0  0  0  0  0  0  0  0
    2.9515    1.4712   -1.9200 H   0  0  0  0  0  0  0  0  0  0  0  0
    1.4911    0.5550   -2.4102 H   0  0  0  0  0  0  0  0  0  0  0  0
    4.6323   -0.6466   -1.5111 C   0  0  0  0  0  0  0  0  0  0  0  0
    4.9808    0.2200   -0.9139 H   0  0  0  0  0  0  0  0  0  0  0  0
    5.0469   -0.5254   -2.5346 H   0  0  0  0  0  0  0  0  0  0  0  0
    5.0764   -1.5679   -1.0881 H   0  0  0  0  0  0  0  0  0  0  0  0
    2.6756   -1.9769   -2.3795 C   0  0  0  0  0  0  0  0  0  0  0  0
    3.0321   -2.9102   -1.9046 H   0  0  0  0  0  0  0  0  0  0  0  0
    3.1054   -1.9341   -3.4028 H   0  0  0  0  0  0  0  0  0  0  0  0
    1.5737   -2.0323   -2.4658 H   0  0  0  0  0  0  0  0  0  0  0  0
  1 22  1  0  0  0  0
  2 14  1  0  0  0  0
  2 48  1  0  0  0  0
  3 10  1  0  0  0  0
  4  3  2  0  0  0  0
  5  4  1  0  0  0  0
  5  7  2  0  0  0  0
  6  5  1  0  0  0  0
  7  8  1  0  0  0  0
  8 10  2  0  0  0  0
  8  9  1  0  0  0  0
 10 14  1  0  0  0  0
 11 13  1  0  0  0  0
 11  4  1  0  0  0  0
 11  1  1  0  0  0  0
 12 11  1  0  0  0  0
 14 15  1  0  0  0  0
 16 14  1  0  0  0  0
 17  7  1  0  0  0  0
 17 18  1  0  0  0  0
 18 20  1  0  0  0  0
 19 18  1  0  0  0  0
 21 18  1  0  0  0  0
 22 23  1  0  0  0  0
 22 31  1  0  0  0  0
 23 24  1  0  0  0  0
 23 25  1  0  0  0  0
 26 23  1  0  0  0  0
 27 22  1  0  0  0  0
 27 29  1  0  0  0  0
 28 27  1  0  0  0  0
 30 27  1  0  0  0  0
 31 33  1  0  0  0  0
 31 32  1  0  0  0  0
 34 31  1  0  0  0  0
 35 40  1  0  0  0  0
 35  1  1  0  0  0  0
 36 35  1  0  0  0  0
 36 39  1  0  0  0  0
 37 36  1  0  0  0  0
 38 36  1  0  0  0  0
 40 43  1  0  0  0  0
 40 42  1  0  0  0  0
 41 40  1  0  0  0  0
 44 47  1  0  0  0  0
 44 35  1  0  0  0  0
 45 44  1  0  0  0  0
 46 44  1  0  0  0  0
 48 53  1  0  0  0  0
 48 49  1  0  0  0  0
 49 52  1  0  0  0  0
 49 50  1  0  0  0  0
 51 49  1  0  0  0  0
 53 55  1  0  0  0  0
 53 54  1  0  0  0  0
 56 53  1  0  0  0  0
 57 48  1  0  0  0  0
 57 59  1  0  0  0  0
 58 57  1  0  0  0  0
 60 57  1  0  0  0  0
 61 66  1  0  0  0  0
 61  2  1  0  0  0  0
 62 64  1  0  0  0  0
 62 61  1  0  0  0  0
 63 62  1  0  0  0  0
 65 62  1  0  0  0  0
 66 69  1  0  0  0  0
 66 67  1  0  0  0  0
 68 66  1  0  0  0  0
 70 71  1  0  0  0  0
 70 61  1  0  0  0  0
 72 70  1  0  0  0  0
 73 70  1  0  0  0  0
M  END
