1,2
 OpenBabel05122313053D

 30 31  0  0  0  0  0  0  0  0999 V2000
   -1.0456   -0.0835   -0.7772 P   0  0  0  0  0  0  0  0  0  0  0  0
    1.2151    0.6271   -2.0662 C   0  0  0  0  0  3  0  0  0  0  0  0
    2.1563    1.1011   -2.4182 H   0  0  0  0  0  0  0  0  0  0  0  0
    0.2708    0.4357   -3.0264 C   0  0  0  0  0  0  0  0  0  0  0  0
    0.4318    0.7360   -4.0793 H   0  0  0  0  0  0  0  0  0  0  0  0
   -1.0379   -0.1984   -2.6518 C   0  0  0  0  0  0  0  0  0  0  0  0
   -1.1023   -1.2697   -2.9499 H   0  0  0  0  0  0  0  0  0  0  0  0
   -1.9244    0.3036   -3.0941 H   0  0  0  0  0  0  0  0  0  0  0  0
   -2.1900   -1.4619   -0.2814 C   0  0  0  0  0  0  0  0  0  0  0  0
   -3.1712   -1.2903    0.7211 C   0  0  0  0  0  0  0  0  0  0  0  0
   -3.3659   -0.2855    1.1257 H   0  0  0  0  0  0  0  0  0  0  0  0
   -3.9130   -2.3813    1.2008 C   0  0  0  0  0  0  0  0  0  0  0  0
   -4.6684   -2.2217    1.9860 H   0  0  0  0  0  0  0  0  0  0  0  0
   -3.7015   -3.6669    0.6793 C   0  0  0  0  0  0  0  0  0  0  0  0
   -4.2842   -4.5221    1.0540 H   0  0  0  0  0  0  0  0  0  0  0  0
   -2.7425   -3.8497   -0.3318 C   0  0  0  0  0  0  0  0  0  0  0  0
   -2.5731   -4.8509   -0.7578 H   0  0  0  0  0  0  0  0  0  0  0  0
   -1.9921   -2.7620   -0.7990 C   0  0  0  0  0  0  0  0  0  0  0  0
   -1.2281   -2.9295   -1.5724 H   0  0  0  0  0  0  0  0  0  0  0  0
   -2.2094    1.3550   -0.5034 C   0  0  0  0  0  0  0  0  0  0  0  0
   -3.4675    1.4503   -1.1337 C   0  0  0  0  0  0  0  0  0  0  0  0
   -3.8126    0.6413   -1.7974 H   0  0  0  0  0  0  0  0  0  0  0  0
   -4.2919    2.5626   -0.9095 C   0  0  0  0  0  0  0  0  0  0  0  0
   -5.2699    2.6299   -1.4113 H   0  0  0  0  0  0  0  0  0  0  0  0
   -3.8749    3.5893   -0.0439 C   0  0  0  0  0  0  0  0  0  0  0  0
   -4.5241    4.4612    0.1302 H   0  0  0  0  0  0  0  0  0  0  0  0
   -2.6299    3.4966    0.5969 C   0  0  0  0  0  0  0  0  0  0  0  0
   -2.2975    4.2947    1.2793 H   0  0  0  0  0  0  0  0  0  0  0  0
   -1.8056    2.3850    0.3600 C   0  0  0  0  0  0  0  0  0  0  0  0
   -0.8185    2.2811    0.8350 H   0  0  0  0  0  0  0  0  0  0  0  0
  1 20  1  0  0  0  0
  1  9  1  0  0  0  0
  3  2  1  0  0  0  0
  4  6  1  0  0  0  0
  4  2  2  0  0  0  0
  5  4  1  0  0  0  0
  6  1  1  0  0  0  0
  7  6  1  0  0  0  0
  8  6  1  0  0  0  0
  9 10  1  0  0  0  0
 10 11  1  0  0  0  0
 10 12  2  0  0  0  0
 12 13  1  0  0  0  0
 14 15  1  0  0  0  0
 14 12  1  0  0  0  0
 16 14  2  0  0  0  0
 17 16  1  0  0  0  0
 18 16  1  0  0  0  0
 18  9  2  0  0  0  0
 19 18  1  0  0  0  0
 20 29  1  0  0  0  0
 21 23  1  0  0  0  0
 21 20  2  0  0  0  0
 22 21  1  0  0  0  0
 23 25  2  0  0  0  0
 24 23  1  0  0  0  0
 25 26  1  0  0  0  0
 25 27  1  0  0  0  0
 27 28  1  0  0  0  0
 29 27  2  0  0  0  0
 29 30  1  0  0  0  0
M  END
