1,2
 OpenBabel05122313053D

 49 49  0  0  0  0  0  0  0  0999 V2000
   -0.9790   -1.3663   -0.3318 P   0  0  0  0  0  0  0  0  0  0  0  0
   -0.4634    1.4697   -1.1146 C   0  0  0  0  0  3  0  0  0  0  0  0
   -1.8574    1.7543   -0.6707 C   0  0  0  0  0  0  0  0  0  0  0  0
   -2.2016    3.0178   -0.1519 C   0  0  0  0  0  0  0  0  0  0  0  0
   -3.5079    3.3136    0.2707 C   0  0  0  0  0  0  0  0  0  0  0  0
   -4.4802    2.3033    0.1463 C   0  0  0  0  0  0  0  0  0  0  0  0
   -4.1812    1.0238   -0.3600 C   0  0  0  0  0  0  0  0  0  0  0  0
   -2.8476    0.7397   -0.7500 C   0  0  0  0  0  0  0  0  0  0  0  0
   -3.8765    4.6756    0.8016 C   0  0  0  0  0  0  0  0  0  0  0  0
   -5.2916    0.0068   -0.4754 C   0  0  0  0  0  0  0  0  0  0  0  0
   -2.4136   -0.6069   -1.2704 C   0  0  0  0  0  0  0  0  0  0  0  0
   -1.7868   -2.1147    1.2477 C   0  0  0  0  0  0  0  0  0  0  0  0
   -0.3440   -2.7528   -1.5072 C   0  0  0  0  0  0  0  0  0  0  0  0
   -0.7950   -3.0626    1.9431 C   0  0  0  0  0  0  0  0  0  0  0  0
   -2.1356   -0.9549    2.2028 C   0  0  0  0  0  0  0  0  0  0  0  0
   -3.0925   -2.8734    0.9414 C   0  0  0  0  0  0  0  0  0  0  0  0
    1.0131   -3.2650   -0.9880 C   0  0  0  0  0  0  0  0  0  0  0  0
   -0.1299   -2.1156   -2.8971 C   0  0  0  0  0  0  0  0  0  0  0  0
   -1.3201   -3.9307   -1.6575 C   0  0  0  0  0  0  0  0  0  0  0  0
    0.1361    2.4049   -1.1090 H   0  0  0  0  0  0  0  0  0  0  0  0
   -0.4291    1.0572   -2.1473 H   0  0  0  0  0  0  0  0  0  0  0  0
   -1.4261    3.8003   -0.0945 H   0  0  0  0  0  0  0  0  0  0  0  0
   -5.5178    2.5201    0.4478 H   0  0  0  0  0  0  0  0  0  0  0  0
   -4.5140    5.2264    0.0780 H   0  0  0  0  0  0  0  0  0  0  0  0
   -2.9813    5.2970    0.9967 H   0  0  0  0  0  0  0  0  0  0  0  0
   -4.4558    4.6007    1.7441 H   0  0  0  0  0  0  0  0  0  0  0  0
   -5.2863   -0.5154   -1.4535 H   0  0  0  0  0  0  0  0  0  0  0  0
   -6.2805    0.4896   -0.3628 H   0  0  0  0  0  0  0  0  0  0  0  0
   -5.2275   -0.7740    0.3124 H   0  0  0  0  0  0  0  0  0  0  0  0
   -2.0294   -0.5035   -2.3053 H   0  0  0  0  0  0  0  0  0  0  0  0
   -3.2384   -1.3410   -1.3070 H   0  0  0  0  0  0  0  0  0  0  0  0
   -1.1952   -3.3350    2.9421 H   0  0  0  0  0  0  0  0  0  0  0  0
    0.1937   -2.5886    2.0880 H   0  0  0  0  0  0  0  0  0  0  0  0
   -0.6481   -4.0050    1.3816 H   0  0  0  0  0  0  0  0  0  0  0  0
   -2.7579   -0.1777    1.7175 H   0  0  0  0  0  0  0  0  0  0  0  0
   -1.2299   -0.4642    2.6040 H   0  0  0  0  0  0  0  0  0  0  0  0
   -2.7085   -1.3642    3.0611 H   0  0  0  0  0  0  0  0  0  0  0  0
   -3.4854   -3.2842    1.8948 H   0  0  0  0  0  0  0  0  0  0  0  0
   -2.9600   -3.7221    0.2504 H   0  0  0  0  0  0  0  0  0  0  0  0
   -3.8760   -2.2093    0.5333 H   0  0  0  0  0  0  0  0  0  0  0  0
    0.9367   -3.7419    0.0059 H   0  0  0  0  0  0  0  0  0  0  0  0
    1.7593   -2.4530   -0.9209 H   0  0  0  0  0  0  0  0  0  0  0  0
    1.3978   -4.0293   -1.6954 H   0  0  0  0  0  0  0  0  0  0  0  0
    0.4149   -2.8449   -3.5326 H   0  0  0  0  0  0  0  0  0  0  0  0
    0.4823   -1.1960   -2.8491 H   0  0  0  0  0  0  0  0  0  0  0  0
   -1.0846   -1.8951   -3.4126 H   0  0  0  0  0  0  0  0  0  0  0  0
   -0.9377   -4.6024   -2.4550 H   0  0  0  0  0  0  0  0  0  0  0  0
   -2.3353   -3.6092   -1.9630 H   0  0  0  0  0  0  0  0  0  0  0  0
   -1.4009   -4.5381   -0.7365 H   0  0  0  0  0  0  0  0  0  0  0  0
  1 12  1  0  0  0  0
  2 20  1  0  0  0  0
  2  3  1  0  0  0  0
  3  4  1  0  0  0  0
  4 22  1  0  0  0  0
  4  5  2  0  0  0  0
  5  9  1  0  0  0  0
  6  5  1  0  0  0  0
  6 23  1  0  0  0  0
  7  6  2  0  0  0  0
  8  3  2  0  0  0  0
  8  7  1  0  0  0  0
  9 25  1  0  0  0  0
  9 26  1  0  0  0  0
 10 28  1  0  0  0  0
 10  7  1  0  0  0  0
 10 29  1  0  0  0  0
 11  8  1  0  0  0  0
 11  1  1  0  0  0  0
 12 14  1  0  0  0  0
 12 15  1  0  0  0  0
 13 17  1  0  0  0  0
 13  1  1  0  0  0  0
 14 33  1  0  0  0  0
 14 32  1  0  0  0  0
 15 36  1  0  0  0  0
 15 37  1  0  0  0  0
 16 12  1  0  0  0  0
 16 38  1  0  0  0  0
 17 42  1  0  0  0  0
 17 41  1  0  0  0  0
 18 45  1  0  0  0  0
 18 13  1  0  0  0  0
 19 13  1  0  0  0  0
 19 49  1  0  0  0  0
 21  2  1  0  0  0  0
 24  9  1  0  0  0  0
 27 10  1  0  0  0  0
 30 11  1  0  0  0  0
 31 11  1  0  0  0  0
 34 14  1  0  0  0  0
 35 15  1  0  0  0  0
 39 16  1  0  0  0  0
 40 16  1  0  0  0  0
 43 17  1  0  0  0  0
 44 18  1  0  0  0  0
 46 18  1  0  0  0  0
 47 19  1  0  0  0  0
 48 19  1  0  0  0  0
M  END
