1,2
 OpenBabel05122313053D

 40 40  0  0  0  0  0  0  0  0999 V2000
    1.9928    0.2423   -0.0935 P   0  0  0  0  0  0  0  0  0  0  0  0
   -0.0171   -1.4500    1.1535 C   0  0  0  0  0  3  0  0  0  0  0  0
   -0.9066   -2.5118    1.3943 C   0  0  0  0  0  0  0  0  0  0  0  0
   -1.7875   -2.6446    0.7512 H   0  0  0  0  0  0  0  0  0  0  0  0
   -0.6719   -3.4322    2.4297 C   0  0  0  0  0  0  0  0  0  0  0  0
   -1.3847   -4.2544    2.5983 H   0  0  0  0  0  0  0  0  0  0  0  0
    0.4695   -3.3129    3.2353 C   0  0  0  0  0  0  0  0  0  0  0  0
    0.6582   -4.0323    4.0463 H   0  0  0  0  0  0  0  0  0  0  0  0
    1.3839   -2.2787    2.9864 C   0  0  0  0  0  0  0  0  0  0  0  0
    2.2968   -2.1941    3.5978 H   0  0  0  0  0  0  0  0  0  0  0  0
    1.1574   -1.3485    1.9549 C   0  0  0  0  0  0  0  0  0  0  0  0
    2.1562   -0.2411    1.6838 C   0  0  0  0  0  0  0  0  0  0  0  0
    3.1949   -0.5277    1.9432 H   0  0  0  0  0  0  0  0  0  0  0  0
    1.9095    0.6715    2.2705 H   0  0  0  0  0  0  0  0  0  0  0  0
    3.0818   -0.9799   -1.0798 C   0  0  0  0  0  0  0  0  0  0  0  0
    2.7308   -0.9144   -2.5789 C   0  0  0  0  0  0  0  0  0  0  0  0
    3.3473   -1.6751   -3.1037 H   0  0  0  0  0  0  0  0  0  0  0  0
    2.9484    0.0676   -3.0332 H   0  0  0  0  0  0  0  0  0  0  0  0
    1.6612   -1.1607   -2.7183 H   0  0  0  0  0  0  0  0  0  0  0  0
    2.7719   -2.4008   -0.5650 C   0  0  0  0  0  0  0  0  0  0  0  0
    1.7018   -2.6405   -0.7084 H   0  0  0  0  0  0  0  0  0  0  0  0
    3.0540   -2.5481    0.4952 H   0  0  0  0  0  0  0  0  0  0  0  0
    3.3720   -3.1111   -1.1722 H   0  0  0  0  0  0  0  0  0  0  0  0
    4.5765   -0.6884   -0.8582 C   0  0  0  0  0  0  0  0  0  0  0  0
    5.1546   -1.5008   -1.3465 H   0  0  0  0  0  0  0  0  0  0  0  0
    4.8627   -0.6858    0.2135 H   0  0  0  0  0  0  0  0  0  0  0  0
    4.9027    0.2639   -1.3173 H   0  0  0  0  0  0  0  0  0  0  0  0
    2.5992    2.0387   -0.2748 C   0  0  0  0  0  0  0  0  0  0  0  0
    2.8172    2.3490   -1.7666 C   0  0  0  0  0  0  0  0  0  0  0  0
    1.9070    2.0869   -2.3431 H   0  0  0  0  0  0  0  0  0  0  0  0
    3.6903    1.8197   -2.1923 H   0  0  0  0  0  0  0  0  0  0  0  0
    3.0040    3.4381   -1.8747 H   0  0  0  0  0  0  0  0  0  0  0  0
    1.5121    2.9911    0.2456 C   0  0  0  0  0  0  0  0  0  0  0  0
    1.9088    4.0265    0.1878 H   0  0  0  0  0  0  0  0  0  0  0  0
    1.2226    2.7950    1.2954 H   0  0  0  0  0  0  0  0  0  0  0  0
    0.6052    2.9277   -0.3790 H   0  0  0  0  0  0  0  0  0  0  0  0
    3.8806    2.2582    0.5525 C   0  0  0  0  0  0  0  0  0  0  0  0
    4.1945    3.3157    0.4253 H   0  0  0  0  0  0  0  0  0  0  0  0
    4.7257    1.6220    0.2375 H   0  0  0  0  0  0  0  0  0  0  0  0
    3.7068    2.1006    1.6357 H   0  0  0  0  0  0  0  0  0  0  0  0
  1 12  1  0  0  0  0
  2  3  2  0  0  0  0
  2 11  1  0  0  0  0
  3  5  1  0  0  0  0
  4  3  1  0  0  0  0
  5  6  1  0  0  0  0
  5  7  2  0  0  0  0
  7  8  1  0  0  0  0
  9  7  1  0  0  0  0
  9 10  1  0  0  0  0
 11  9  2  0  0  0  0
 12 13  1  0  0  0  0
 12 11  1  0  0  0  0
 12 14  1  0  0  0  0
 15 24  1  0  0  0  0
 15 20  1  0  0  0  0
 15  1  1  0  0  0  0
 16 15  1  0  0  0  0
 17 16  1  0  0  0  0
 18 16  1  0  0  0  0
 19 16  1  0  0  0  0
 20 22  1  0  0  0  0
 21 20  1  0  0  0  0
 23 20  1  0  0  0  0
 24 26  1  0  0  0  0
 25 24  1  0  0  0  0
 27 24  1  0  0  0  0
 28  1  1  0  0  0  0
 28 33  1  0  0  0  0
 28 37  1  0  0  0  0
 29 28  1  0  0  0  0
 30 29  1  0  0  0  0
 31 29  1  0  0  0  0
 32 29  1  0  0  0  0
 33 35  1  0  0  0  0
 34 33  1  0  0  0  0
 36 33  1  0  0  0  0
 37 40  1  0  0  0  0
 38 37  1  0  0  0  0
 39 37  1  0  0  0  0
M  END
