1
 OpenBabel05122313053D

 76 78  0  0  1  0  0  0  0  0999 V2000
   -0.2555   -0.0680   -1.1540 P   0  0  0  0  0  0  0  0  0  0  0  0
   -1.0055    1.3244   -2.0990 C   0  0  0  0  0  0  0  0  0  0  0  0
   -2.1070    1.2442   -2.1612 H   0  0  0  0  0  0  0  0  0  0  0  0
   -0.5696    1.2975   -3.1171 H   0  0  0  0  0  0  0  0  0  0  0  0
   -0.7167    2.2819   -1.6257 H   0  0  0  0  0  0  0  0  0  0  0  0
   -1.0883   -1.5304   -1.9052 C   0  0  0  0  0  0  0  0  0  0  0  0
   -0.8145   -2.4395   -1.3375 H   0  0  0  0  0  0  0  0  0  0  0  0
   -0.6832   -1.6351   -2.9313 H   0  0  0  0  0  0  0  0  0  0  0  0
   -2.1881   -1.4218   -1.9493 H   0  0  0  0  0  0  0  0  0  0  0  0
   -0.8548    0.0981    0.5900 C   0  0  0  0  0  0  0  0  0  0  0  0
   -2.1989    0.1539    1.0549 C   0  0  0  0  0  0  0  0  0  0  0  0
   -2.4325    0.3167    2.4360 C   0  0  0  0  0  0  0  0  0  0  0  0
   -3.4725    0.3605    2.7925 H   0  0  0  0  0  0  0  0  0  0  0  0
   -1.3741    0.4198    3.3482 C   0  0  0  0  0  0  0  0  0  0  0  0
   -1.5812    0.5467    4.4216 H   0  0  0  0  0  0  0  0  0  0  0  0
   -0.0559    0.3515    2.8880 C   0  0  0  0  0  0  0  0  0  0  0  0
    0.7880    0.4176    3.5913 H   0  0  0  0  0  0  0  0  0  0  0  0
    0.2163    0.1908    1.5126 C   0  0  0  0  0  0  0  0  0  0  0  0
   -3.3961    0.0379    0.1562 C   0  0  0  0  0  0  0  0  0  0  0  0
   -3.9494   -1.2469   -0.1085 C   0  0  0  0  0  0  0  0  0  0  0  0
   -5.0852   -1.3351   -0.9362 C   0  0  0  0  0  0  0  0  0  0  0  0
   -5.5196   -2.3207   -1.1579 H   0  0  0  0  0  0  0  0  0  0  0  0
   -5.6712   -0.1865   -1.4814 C   0  0  0  0  0  0  0  0  0  0  0  0
   -6.5551   -0.2751   -2.1315 H   0  0  0  0  0  0  0  0  0  0  0  0
   -5.1387    1.0749   -1.1918 C   0  0  0  0  0  0  0  0  0  0  0  0
   -5.6152    1.9724   -1.6126 H   0  0  0  0  0  0  0  0  0  0  0  0
   -4.0051    1.2127   -0.3672 C   0  0  0  0  0  0  0  0  0  0  0  0
   -3.3666   -2.5040    0.5357 C   0  0  0  0  0  0  0  0  0  0  0  0
   -2.2920   -2.3030    0.7329 H   0  0  0  0  0  0  0  0  0  0  0  0
   -4.0385   -2.7719    1.8965 C   0  0  0  0  0  0  0  0  0  0  0  0
   -3.9147   -1.9190    2.5901 H   0  0  0  0  0  0  0  0  0  0  0  0
   -3.6012   -3.6700    2.3793 H   0  0  0  0  0  0  0  0  0  0  0  0
   -5.1262   -2.9482    1.7650 H   0  0  0  0  0  0  0  0  0  0  0  0
   -3.4551   -3.7573   -0.3476 C   0  0  0  0  0  0  0  0  0  0  0  0
   -4.5015   -4.1089   -0.4593 H   0  0  0  0  0  0  0  0  0  0  0  0
   -2.8851   -4.5890    0.1135 H   0  0  0  0  0  0  0  0  0  0  0  0
   -3.0472   -3.5843   -1.3625 H   0  0  0  0  0  0  0  0  0  0  0  0
   -3.4920    2.6030    0.0053 C   0  0  0  0  0  0  0  0  0  0  0  0
   -2.4185    2.4965    0.2696 H   0  0  0  0  0  0  0  0  0  0  0  0
   -4.2232    3.1264    1.2571 C   0  0  0  0  0  0  0  0  0  0  0  0
   -5.3114    3.2204    1.0607 H   0  0  0  0  0  0  0  0  0  0  0  0
   -3.8395    4.1265    1.5459 H   0  0  0  0  0  0  0  0  0  0  0  0
   -4.0933    2.4496    2.1225 H   0  0  0  0  0  0  0  0  0  0  0  0
   -3.5988    3.6329   -1.1293 C   0  0  0  0  0  0  0  0  0  0  0  0
   -3.1428    3.2691   -2.0705 H   0  0  0  0  0  0  0  0  0  0  0  0
   -3.0845    4.5719   -0.8412 H   0  0  0  0  0  0  0  0  0  0  0  0
   -4.6541    3.8986   -1.3454 H   0  0  0  0  0  0  0  0  0  0  0  0
    1.6805    0.0978    1.1453 C   0  0  2  0  0  3  0  0  0  0  0  0
    2.3198   -1.1960    1.1967 C   0  0  1  0  0  3  0  0  0  0  0  0
    3.6891   -1.2658    1.5489 C   0  0  0  0  0  0  0  0  0  0  0  0
    4.1711   -2.2518    1.6260 H   0  0  0  0  0  0  0  0  0  0  0  0
    4.4285   -0.1117    1.8090 C   0  0  0  0  0  0  0  0  0  0  0  0
    5.4857   -0.1916    2.1037 H   0  0  0  0  0  0  0  0  0  0  0  0
    3.8342    1.1569    1.6662 C   0  0  0  0  0  0  0  0  0  0  0  0
    4.4438    2.0612    1.8146 H   0  0  0  0  0  0  0  0  0  0  0  0
    2.4844    1.2861    1.3214 C   0  0  0  0  0  0  0  0  0  0  0  0
    1.4937   -2.4798    1.1292 C   0  0  0  0  0  0  0  0  0  0  0  0
    0.4780   -2.1953    0.7846 H   0  0  0  0  0  0  0  0  0  0  0  0
    1.3392   -3.1064    2.5261 C   0  0  0  0  0  0  0  0  0  0  0  0
    2.3222   -3.4160    2.9373 H   0  0  0  0  0  0  0  0  0  0  0  0
    0.6916   -4.0064    2.4819 H   0  0  0  0  0  0  0  0  0  0  0  0
    0.8836   -2.3916    3.2404 H   0  0  0  0  0  0  0  0  0  0  0  0
    2.0549   -3.4804    0.1093 C   0  0  0  0  0  0  0  0  0  0  0  0
    2.1350   -3.0014   -0.8881 H   0  0  0  0  0  0  0  0  0  0  0  0
    1.3972   -4.3707    0.0333 H   0  0  0  0  0  0  0  0  0  0  0  0
    3.0654   -3.8378    0.3961 H   0  0  0  0  0  0  0  0  0  0  0  0
    1.8480    2.6618    1.1559 C   0  0  0  0  0  0  0  0  0  0  0  0
    0.7720    2.4957    0.9358 H   0  0  0  0  0  0  0  0  0  0  0  0
    1.9308    3.5035    2.4388 C   0  0  0  0  0  0  0  0  0  0  0  0
    1.4456    2.9892    3.2926 H   0  0  0  0  0  0  0  0  0  0  0  0
    1.4276    4.4821    2.2977 H   0  0  0  0  0  0  0  0  0  0  0  0
    2.9838    3.7083    2.7221 H   0  0  0  0  0  0  0  0  0  0  0  0
    2.4498    3.3975   -0.0539 C   0  0  0  0  0  0  0  0  0  0  0  0
    3.5288    3.6079    0.0969 H   0  0  0  0  0  0  0  0  0  0  0  0
    1.9351    4.3663   -0.2218 H   0  0  0  0  0  0  0  0  0  0  0  0
    2.3555    2.7700   -0.9643 H   0  0  0  0  0  0  0  0  0  0  0  0
  1 10  1  0  0  0  0
  2  5  1  0  0  0  0
  2  1  1  0  0  0  0
  3  2  1  0  0  0  0
  4  2  1  0  0  0  0
  6  7  1  0  0  0  0
  6  1  1  0  0  0  0
  8  6  1  0  0  0  0
  9  6  1  0  0  0  0
 10 11  2  0  0  0  0
 10 18  1  0  0  0  0
 11 12  1  0  0  0  0
 12 13  1  0  0  0  0
 12 14  2  0  0  0  0
 14 15  1  0  0  0  0
 16 14  1  0  0  0  0
 16 17  1  0  0  0  0
 18 16  2  0  0  0  0
 19 11  1  0  0  0  0
 20 19  1  0  0  0  0
 20 28  1  0  0  0  0
 21 20  2  0  0  0  0
 22 21  1  0  0  0  0
 23 25  2  0  0  0  0
 23 21  1  0  0  0  0
 24 23  1  0  0  0  0
 25 27  1  0  0  0  0
 26 25  1  0  0  0  0
 27 38  1  0  0  0  0
 27 19  2  0  0  0  0
 28 29  1  0  0  0  0
 28 30  1  0  0  0  0
 30 32  1  0  0  0  0
 30 31  1  0  0  0  0
 33 30  1  0  0  0  0
 34 36  1  0  0  0  0
 34 28  1  0  0  0  0
 35 34  1  0  0  0  0
 37 34  1  0  0  0  0
 38 39  1  0  0  0  0
 38 40  1  0  0  0  0
 40 42  1  0  0  0  0
 40 43  1  0  0  0  0
 41 40  1  0  0  0  0
 44 46  1  0  0  0  0
 44 38  1  0  0  0  0
 45 44  1  0  0  0  0
 47 44  1  0  0  0  0
 48 49  1  0  0  0  0
 48 56  1  0  0  0  0
 48 18  1  1  0  0  0
 49 57  1  1  0  0  0
 49 50  1  0  0  0  0
 50 51  1  0  0  0  0
 50 52  2  0  0  0  0
 52 53  1  0  0  0  0
 54 52  1  0  0  0  0
 54 55  1  0  0  0  0
 56 54  2  0  0  0  0
 57 59  1  0  0  0  0
 58 57  1  0  0  0  0
 59 60  1  0  0  0  0
 59 62  1  0  0  0  0
 61 59  1  0  0  0  0
 63 66  1  0  0  0  0
 63 57  1  0  0  0  0
 64 63  1  0  0  0  0
 65 63  1  0  0  0  0
 67 56  1  0  0  0  0
 67 69  1  0  0  0  0
 68 67  1  0  0  0  0
 69 72  1  0  0  0  0
 69 70  1  0  0  0  0
 71 69  1  0  0  0  0
 73 74  1  0  0  0  0
 73 67  1  0  0  0  0
 75 73  1  0  0  0  0
 76 73  1  0  0  0  0
M  END
