1,2
 OpenBabel05122313053D

 30 29  0  0  1  0  0  0  0  0999 V2000
   -2.0858   -1.3505   -0.0337 P   0  0  0  0  0  0  0  0  0  0  0  0
    0.1291   -2.5536   -0.4452 C   0  0  0  0  0  3  0  0  0  0  0  0
    0.2710   -2.7264   -1.5344 H   0  0  0  0  0  0  0  0  0  0  0  0
    0.9275   -3.1047    0.0952 H   0  0  0  0  0  0  0  0  0  0  0  0
   -1.2716   -3.0369    0.0028 C   0  0  2  0  0  0  0  0  0  0  0  0
   -1.2123   -3.2332    1.0953 H   0  0  0  0  0  0  0  0  0  0  0  0
   -1.8827   -4.2381   -0.7117 C   0  0  0  0  0  0  0  0  0  0  0  0
   -1.9845   -4.0725   -1.8037 H   0  0  0  0  0  0  0  0  0  0  0  0
   -2.8847   -4.5015   -0.3137 H   0  0  0  0  0  0  0  0  0  0  0  0
   -1.2298   -5.1266   -0.5783 H   0  0  0  0  0  0  0  0  0  0  0  0
   -3.2185   -1.2388    1.4500 C   0  0  0  0  0  0  0  0  0  0  0  0
   -2.5273   -1.6338    2.2276 H   0  0  0  0  0  0  0  0  0  0  0  0
   -4.4587   -2.1323    1.3658 C   0  0  0  0  0  0  0  0  0  0  0  0
   -4.9990   -2.1286    2.3363 H   0  0  0  0  0  0  0  0  0  0  0  0
   -4.1961   -3.1849    1.1379 H   0  0  0  0  0  0  0  0  0  0  0  0
   -5.1769   -1.7871    0.5934 H   0  0  0  0  0  0  0  0  0  0  0  0
   -3.5224    0.2136    1.8360 C   0  0  0  0  0  0  0  0  0  0  0  0
   -4.1631    0.7318    1.0950 H   0  0  0  0  0  0  0  0  0  0  0  0
   -2.5833    0.7901    1.9440 H   0  0  0  0  0  0  0  0  0  0  0  0
   -4.0515    0.2429    2.8118 H   0  0  0  0  0  0  0  0  0  0  0  0
   -3.1541   -1.2894   -1.5791 C   0  0  0  0  0  0  0  0  0  0  0  0
   -3.7692   -2.2153   -1.5224 H   0  0  0  0  0  0  0  0  0  0  0  0
   -2.2896   -1.3586   -2.8435 C   0  0  0  0  0  0  0  0  0  0  0  0
   -2.9362   -1.4403   -3.7422 H   0  0  0  0  0  0  0  0  0  0  0  0
   -1.5959   -2.2207   -2.8394 H   0  0  0  0  0  0  0  0  0  0  0  0
   -1.6669   -0.4479   -2.9491 H   0  0  0  0  0  0  0  0  0  0  0  0
   -4.0957   -0.0790   -1.6184 C   0  0  0  0  0  0  0  0  0  0  0  0
   -3.5372    0.8758   -1.5473 H   0  0  0  0  0  0  0  0  0  0  0  0
   -4.8406   -0.0962   -0.8005 H   0  0  0  0  0  0  0  0  0  0  0  0
   -4.6564   -0.0683   -2.5772 H   0  0  0  0  0  0  0  0  0  0  0  0
  1  5  1  0  0  0  0
  1 11  1  0  0  0  0
  2  5  1  0  0  0  0
  2  4  1  0  0  0  0
  3  2  1  0  0  0  0
  5  6  1  1  0  0  0
  7 10  1  0  0  0  0
  7  9  1  0  0  0  0
  7  5  1  0  0  0  0
  8  7  1  0  0  0  0
 11 17  1  0  0  0  0
 11 12  1  0  0  0  0
 13 11  1  0  0  0  0
 13 14  1  0  0  0  0
 15 13  1  0  0  0  0
 16 13  1  0  0  0  0
 17 19  1  0  0  0  0
 17 20  1  0  0  0  0
 18 17  1  0  0  0  0
 21 22  1  0  0  0  0
 21  1  1  0  0  0  0
 23 25  1  0  0  0  0
 23 21  1  0  0  0  0
 24 23  1  0  0  0  0
 26 23  1  0  0  0  0
 27 21  1  0  0  0  0
 27 28  1  0  0  0  0
 27 29  1  0  0  0  0
 30 27  1  0  0  0  0
M  END
