1,2,67
 OpenBabel05122313063D

 67 71  0  0  0  0  0  0  0  0999 V2000
   -1.0647    1.2371   -0.1085 P   0  0  0  0  0  0  0  0  0  0  0  0
    0.2597   -1.5250    0.0757 P   0  0  0  0  0  0  0  0  0  0  0  0
   -2.6618    0.6451   -0.7685 C   0  0  0  0  0  0  0  0  0  0  0  0
   -3.4291   -0.2713   -0.0213 C   0  0  0  0  0  0  0  0  0  0  0  0
   -3.0617   -0.5884    0.9677 H   0  0  0  0  0  0  0  0  0  0  0  0
   -4.6263   -0.7770   -0.5480 C   0  0  0  0  0  0  0  0  0  0  0  0
   -5.2136   -1.5018    0.0353 H   0  0  0  0  0  0  0  0  0  0  0  0
   -5.0702   -0.3631   -1.8136 C   0  0  0  0  0  0  0  0  0  0  0  0
   -6.0094   -0.7620   -2.2263 H   0  0  0  0  0  0  0  0  0  0  0  0
   -4.3160    0.5639   -2.5536 C   0  0  0  0  0  0  0  0  0  0  0  0
   -4.6646    0.8938   -3.5444 H   0  0  0  0  0  0  0  0  0  0  0  0
   -3.1147    1.0682   -2.0363 C   0  0  0  0  0  0  0  0  0  0  0  0
   -2.5215    1.7921   -2.6164 H   0  0  0  0  0  0  0  0  0  0  0  0
   -1.0247    3.0351   -0.3793 C   0  0  0  0  0  0  0  0  0  0  0  0
    0.0732    3.6778   -0.9907 C   0  0  0  0  0  0  0  0  0  0  0  0
    0.9219    3.0822   -1.3572 H   0  0  0  0  0  0  0  0  0  0  0  0
    0.0786    5.0740   -1.1283 C   0  0  0  0  0  0  0  0  0  0  0  0
    0.9382    5.5668   -1.6075 H   0  0  0  0  0  0  0  0  0  0  0  0
   -1.0050    5.8381   -0.6666 C   0  0  0  0  0  0  0  0  0  0  0  0
   -0.9962    6.9329   -0.7786 H   0  0  0  0  0  0  0  0  0  0  0  0
   -2.1015    5.2013   -0.0616 C   0  0  0  0  0  0  0  0  0  0  0  0
   -2.9530    5.7950    0.3043 H   0  0  0  0  0  0  0  0  0  0  0  0
   -2.1128    3.8077    0.0863 C   0  0  0  0  0  0  0  0  0  0  0  0
   -2.9711    3.3101    0.5638 H   0  0  0  0  0  0  0  0  0  0  0  0
    1.9654    0.8334   -0.7430 C   0  0  0  0  0  0  0  0  0  0  0  0
    2.7620    1.6298    0.1294 C   0  0  0  0  0  0  0  0  0  0  0  0
    4.0556    2.0147   -0.2713 C   0  0  0  0  0  0  0  0  0  0  0  0
    4.6613    2.6245    0.4194 H   0  0  0  0  0  0  0  0  0  0  0  0
    4.5965    1.6546   -1.5174 C   0  0  0  0  0  0  0  0  0  0  0  0
    3.7917    0.8928   -2.3820 C   0  0  0  0  0  0  0  0  0  0  0  0
    4.1818    0.6089   -3.3736 H   0  0  0  0  0  0  0  0  0  0  0  0
    2.4996    0.4766   -2.0178 C   0  0  0  0  0  0  0  0  0  0  0  0
    1.6913   -0.3446   -2.9940 C   0  0  0  0  0  0  0  0  0  0  0  0
    1.5450   -1.3815   -2.6222 H   0  0  0  0  0  0  0  0  0  0  0  0
    2.1924   -0.4077   -3.9793 H   0  0  0  0  0  0  0  0  0  0  0  0
    0.6793    0.0851   -3.1485 H   0  0  0  0  0  0  0  0  0  0  0  0
    2.2508    2.1000    1.4667 C   0  0  0  0  0  0  0  0  0  0  0  0
    1.4670    2.8779    1.3453 H   0  0  0  0  0  0  0  0  0  0  0  0
    3.0622    2.5341    2.0819 H   0  0  0  0  0  0  0  0  0  0  0  0
    1.7643    1.2755    2.0342 H   0  0  0  0  0  0  0  0  0  0  0  0
    5.9998    2.0480   -1.9042 C   0  0  0  0  0  0  0  0  0  0  0  0
    6.0869    2.2359   -2.9931 H   0  0  0  0  0  0  0  0  0  0  0  0
    6.7222    1.2398   -1.6571 H   0  0  0  0  0  0  0  0  0  0  0  0
    6.3329    2.9581   -1.3674 H   0  0  0  0  0  0  0  0  0  0  0  0
    1.7798   -2.5177    0.0366 C   0  0  0  0  0  0  0  0  0  0  0  0
    2.9175   -2.0314    0.7178 C   0  0  0  0  0  0  0  0  0  0  0  0
    2.8537   -1.0875    1.2789 H   0  0  0  0  0  0  0  0  0  0  0  0
    4.1206   -2.7475    0.6701 C   0  0  0  0  0  0  0  0  0  0  0  0
    5.0050   -2.3569    1.1958 H   0  0  0  0  0  0  0  0  0  0  0  0
    4.1969   -3.9592   -0.0370 C   0  0  0  0  0  0  0  0  0  0  0  0
    5.1419   -4.5225   -0.0663 H   0  0  0  0  0  0  0  0  0  0  0  0
    3.0625   -4.4527   -0.7010 C   0  0  0  0  0  0  0  0  0  0  0  0
    3.1159   -5.4034   -1.2533 H   0  0  0  0  0  0  0  0  0  0  0  0
    1.8567   -3.7363   -0.6699 C   0  0  0  0  0  0  0  0  0  0  0  0
    0.9708   -4.1210   -1.1980 H   0  0  0  0  0  0  0  0  0  0  0  0
   -1.7340   -3.4809    0.1212 C   0  0  0  0  0  0  0  0  0  0  0  0
   -1.3967   -3.6567    1.1544 H   0  0  0  0  0  0  0  0  0  0  0  0
   -1.0888   -2.5014   -0.6637 C   0  0  0  0  0  0  0  0  0  0  0  0
   -1.5354   -2.2564   -1.9785 C   0  0  0  0  0  0  0  0  0  0  0  0
   -1.0408   -1.4847   -2.5846 H   0  0  0  0  0  0  0  0  0  0  0  0
   -2.6210   -2.9769   -2.4970 C   0  0  0  0  0  0  0  0  0  0  0  0
   -2.9766   -2.7667   -3.5168 H   0  0  0  0  0  0  0  0  0  0  0  0
   -3.2569   -3.9537   -1.7148 C   0  0  0  0  0  0  0  0  0  0  0  0
   -4.1103   -4.5161   -2.1234 H   0  0  0  0  0  0  0  0  0  0  0  0
   -2.8094   -4.2085   -0.4075 C   0  0  0  0  0  0  0  0  0  0  0  0
   -3.3094   -4.9710    0.2089 H   0  0  0  0  0  0  0  0  0  0  0  0
    0.5246    0.2776   -0.4154 B   0  0  0  0  0  0  0  0  0  0  0  0
  3  1  1  0  0  0  0
  3  4  1  0  0  0  0
  4  5  1  0  0  0  0
  6  4  2  0  0  0  0
  6  7  1  0  0  0  0
  8  6  1  0  0  0  0
  9  8  1  0  0  0  0
 10 12  1  0  0  0  0
 10  8  2  0  0  0  0
 11 10  1  0  0  0  0
 12  3  2  0  0  0  0
 13 12  1  0  0  0  0
 14  1  1  0  0  0  0
 14 23  1  0  0  0  0
 15 14  2  0  0  0  0
 16 15  1  0  0  0  0
 17 15  1  0  0  0  0
 17 19  2  0  0  0  0
 18 17  1  0  0  0  0
 19 21  1  0  0  0  0
 20 19  1  0  0  0  0
 21 23  2  0  0  0  0
 21 22  1  0  0  0  0
 23 24  1  0  0  0  0
 25 67  1  0  0  0  0
 25 26  1  0  0  0  0
 26 37  1  0  0  0  0
 27 26  2  0  0  0  0
 27 28  1  0  0  0  0
 29 27  1  0  0  0  0
 30 32  1  0  0  0  0
 30 29  2  0  0  0  0
 31 30  1  0  0  0  0
 32 25  2  0  0  0  0
 33 34  1  0  0  0  0
 33 32  1  0  0  0  0
 35 33  1  0  0  0  0
 36 33  1  0  0  0  0
 37 40  1  0  0  0  0
 37 39  1  0  0  0  0
 38 37  1  0  0  0  0
 41 43  1  0  0  0  0
 41 29  1  0  0  0  0
 41 44  1  0  0  0  0
 42 41  1  0  0  0  0
 45  2  1  0  0  0  0
 45 46  1  0  0  0  0
 46 47  1  0  0  0  0
 48 46  2  0  0  0  0
 48 49  1  0  0  0  0
 50 48  1  0  0  0  0
 51 50  1  0  0  0  0
 52 54  1  0  0  0  0
 52 50  2  0  0  0  0
 53 52  1  0  0  0  0
 54 45  2  0  0  0  0
 55 54  1  0  0  0  0
 56 57  1  0  0  0  0
 58  2  1  0  0  0  0
 58 56  2  0  0  0  0
 59 58  1  0  0  0  0
 60 59  1  0  0  0  0
 61 59  2  0  0  0  0
 61 63  1  0  0  0  0
 62 61  1  0  0  0  0
 63 65  2  0  0  0  0
 64 63  1  0  0  0  0
 65 56  1  0  0  0  0
 65 66  1  0  0  0  0
 67  1  1  0  0  0  0
 67  2  1  0  0  0  0
M  END
