1,2,78
 OpenBabel05122313063D

 78 84  0  0  0  0  0  0  0  0999 V2000
    2.0687    0.8000   -0.0021 P   0  0  0  0  0  0  0  0  0  0  0  0
   -2.4096   -0.0025   -0.0013 P   0  0  0  0  0  0  0  0  0  0  0  0
    2.4406   -5.5246   -1.0251 F   0  0  0  0  0  0  0  0  0  0  0  0
    3.6279    3.0005   -0.8803 C   0  0  0  0  0  0  0  0  0  0  0  0
    4.4652    2.2918   -0.9715 H   0  0  0  0  0  0  0  0  0  0  0  0
   -1.4798   -1.9944    3.4023 C   0  0  0  0  0  0  0  0  0  0  0  0
   -0.5641   -2.3481    3.9011 H   0  0  0  0  0  0  0  0  0  0  0  0
   -0.0265   -3.1168    0.1437 C   0  0  0  0  0  0  0  0  0  0  0  0
   -1.1074   -2.9290    0.0422 H   0  0  0  0  0  0  0  0  0  0  0  0
   -3.0242    1.7100    0.1873 C   0  0  0  0  0  0  0  0  0  0  0  0
   -3.2284    3.9267   -0.7891 C   0  0  0  0  0  0  0  0  0  0  0  0
   -3.0681    4.6137   -1.6340 H   0  0  0  0  0  0  0  0  0  0  0  0
    2.3622    2.5445   -0.4642 C   0  0  0  0  0  0  0  0  0  0  0  0
    2.1727    0.7245    1.8223 C   0  0  0  0  0  0  0  0  0  0  0  0
    5.3293   -1.7726   -2.0366 C   0  0  0  0  0  0  0  0  0  0  0  0
    6.0810   -2.4091   -2.5279 H   0  0  0  0  0  0  0  0  0  0  0  0
   -3.7631   -2.3501   -3.0816 C   0  0  0  0  0  0  0  0  0  0  0  0
   -3.3250   -3.0712   -3.7878 H   0  0  0  0  0  0  0  0  0  0  0  0
    1.1155    0.0524    3.8723 C   0  0  0  0  0  0  0  0  0  0  0  0
    0.3143   -0.4612    4.4238 H   0  0  0  0  0  0  0  0  0  0  0  0
    3.1857   -0.6191   -2.0976 C   0  0  0  0  0  0  0  0  0  0  0  0
    2.2526   -0.3454   -2.6219 H   0  0  0  0  0  0  0  0  0  0  0  0
    4.1543   -1.4188   -2.7205 C   0  0  0  0  0  0  0  0  0  0  0  0
    3.9836   -1.7767   -3.7470 H   0  0  0  0  0  0  0  0  0  0  0  0
   -3.4970   -0.7781   -1.2463 C   0  0  0  0  0  0  0  0  0  0  0  0
   -3.8454   -1.2714    2.0897 C   0  0  0  0  0  0  0  0  0  0  0  0
   -4.7669   -1.0175    1.5430 H   0  0  0  0  0  0  0  0  0  0  0  0
    1.8960   -4.4714   -0.3819 C   0  0  0  0  0  0  0  0  0  0  0  0
   -2.7228   -2.3609    3.9361 C   0  0  0  0  0  0  0  0  0  0  0  0
   -2.7653   -2.9594    4.8595 H   0  0  0  0  0  0  0  0  0  0  0  0
    0.7577   -2.2380    0.9389 C   0  0  0  0  0  0  0  0  0  0  0  0
   -3.9145   -1.9951    3.2852 C   0  0  0  0  0  0  0  0  0  0  0  0
   -4.8902   -2.2950    3.6963 H   0  0  0  0  0  0  0  0  0  0  0  0
    1.2811    3.4461   -0.3785 C   0  0  0  0  0  0  0  0  0  0  0  0
    0.2848    3.0802   -0.0836 H   0  0  0  0  0  0  0  0  0  0  0  0
    3.8123    4.3567   -1.1927 C   0  0  0  0  0  0  0  0  0  0  0  0
    4.8012    4.7106   -1.5215 H   0  0  0  0  0  0  0  0  0  0  0  0
   -4.0190    3.5154    1.4757 C   0  0  0  0  0  0  0  0  0  0  0  0
   -4.4807    3.8783    2.4065 H   0  0  0  0  0  0  0  0  0  0  0  0
    3.1464    1.4449    2.5388 C   0  0  0  0  0  0  0  0  0  0  0  0
    3.9071    2.0327    2.0008 H   0  0  0  0  0  0  0  0  0  0  0  0
   -1.3660   -1.2274    2.2150 C   0  0  0  0  0  0  0  0  0  0  0  0
   -4.8712   -0.4692   -1.3096 C   0  0  0  0  0  0  0  0  0  0  0  0
   -5.2973    0.2906   -0.6360 H   0  0  0  0  0  0  0  0  0  0  0  0
   -2.9395   -1.7095   -2.1449 C   0  0  0  0  0  0  0  0  0  0  0  0
   -1.8571   -1.9066   -2.1235 H   0  0  0  0  0  0  0  0  0  0  0  0
   -2.8206    2.5907   -0.8997 C   0  0  0  0  0  0  0  0  0  0  0  0
   -2.3148    2.2274   -1.8122 H   0  0  0  0  0  0  0  0  0  0  0  0
   -2.5867   -0.8906    1.5771 C   0  0  0  0  0  0  0  0  0  0  0  0
    3.4015   -0.1742   -0.7757 C   0  0  0  0  0  0  0  0  0  0  0  0
   -5.6880   -1.1148   -2.2492 C   0  0  0  0  0  0  0  0  0  0  0  0
   -6.7605   -0.8731   -2.2989 H   0  0  0  0  0  0  0  0  0  0  0  0
    3.1088    1.4562    3.9407 C   0  0  0  0  0  0  0  0  0  0  0  0
    3.8577    2.0265    4.5107 H   0  0  0  0  0  0  0  0  0  0  0  0
   -3.8292    4.3902    0.3949 C   0  0  0  0  0  0  0  0  0  0  0  0
   -4.1444    5.4417    0.4772 H   0  0  0  0  0  0  0  0  0  0  0  0
    1.1306   -0.0075    2.4604 C   0  0  0  0  0  0  0  0  0  0  0  0
   -5.1355   -2.0581   -3.1313 C   0  0  0  0  0  0  0  0  0  0  0  0
   -5.7776   -2.5584   -3.8722 H   0  0  0  0  0  0  0  0  0  0  0  0
    0.5248   -4.2175   -0.5224 C   0  0  0  0  0  0  0  0  0  0  0  0
   -0.0868   -4.8854   -1.1464 H   0  0  0  0  0  0  0  0  0  0  0  0
    2.0823    0.7644    4.6017 C   0  0  0  0  0  0  0  0  0  0  0  0
    2.0246    0.7897    5.7012 H   0  0  0  0  0  0  0  0  0  0  0  0
    2.1302   -2.5617    1.0708 C   0  0  0  0  0  0  0  0  0  0  0  0
    2.7734   -1.9323    1.7036 H   0  0  0  0  0  0  0  0  0  0  0  0
    5.5440   -1.3210   -0.7243 C   0  0  0  0  0  0  0  0  0  0  0  0
    6.4632   -1.5997   -0.1868 H   0  0  0  0  0  0  0  0  0  0  0  0
    2.7065   -3.6627    0.4208 C   0  0  0  0  0  0  0  0  0  0  0  0
    3.7767   -3.8962    0.5172 H   0  0  0  0  0  0  0  0  0  0  0  0
    1.4736    4.7980   -0.6890 C   0  0  0  0  0  0  0  0  0  0  0  0
    0.6249    5.4957   -0.6260 H   0  0  0  0  0  0  0  0  0  0  0  0
    2.7387    5.2554   -1.0949 C   0  0  0  0  0  0  0  0  0  0  0  0
    2.8855    6.3167   -1.3469 H   0  0  0  0  0  0  0  0  0  0  0  0
   -3.6148    2.1739    1.3779 C   0  0  0  0  0  0  0  0  0  0  0  0
   -3.7488    1.4894    2.2290 H   0  0  0  0  0  0  0  0  0  0  0  0
    4.5808   -0.5229   -0.0894 C   0  0  0  0  0  0  0  0  0  0  0  0
    4.7345   -0.1905    0.9487 H   0  0  0  0  0  0  0  0  0  0  0  0
    0.1006   -0.9191    1.5963 B   0  0  0  0  0  0  0  0  0  0  0  0
  1 14  1  0  0  0  0
  2 10  1  0  0  0  0
  2 49  1  0  0  0  0
  3 28  1  0  0  0  0
  4 13  1  0  0  0  0
  5  4  1  0  0  0  0
  6  7  1  0  0  0  0
  6 29  1  0  0  0  0
  8 31  1  0  0  0  0
  9  8  1  0  0  0  0
 10 74  1  0  0  0  0
 11 55  2  0  0  0  0
 12 11  1  0  0  0  0
 13 34  2  0  0  0  0
 13  1  1  0  0  0  0
 14 57  2  0  0  0  0
 14 40  1  0  0  0  0
 15 66  1  0  0  0  0
 16 15  1  0  0  0  0
 17 45  1  0  0  0  0
 18 17  1  0  0  0  0
 19 20  1  0  0  0  0
 19 62  2  0  0  0  0
 21 50  2  0  0  0  0
 22 21  1  0  0  0  0
 23 21  1  0  0  0  0
 23 15  2  0  0  0  0
 24 23  1  0  0  0  0
 25  2  1  0  0  0  0
 26 32  1  0  0  0  0
 27 26  1  0  0  0  0
 28 68  2  0  0  0  0
 29 30  1  0  0  0  0
 31 64  2  0  0  0  0
 31 78  1  0  0  0  0
 32 33  1  0  0  0  0
 32 29  2  0  0  0  0
 34 35  1  0  0  0  0
 36 72  1  0  0  0  0
 36  4  2  0  0  0  0
 37 36  1  0  0  0  0
 38 39  1  0  0  0  0
 40 53  2  0  0  0  0
 41 40  1  0  0  0  0
 42  6  2  0  0  0  0
 43 25  1  0  0  0  0
 43 44  1  0  0  0  0
 45 46  1  0  0  0  0
 45 25  2  0  0  0  0
 47 11  1  0  0  0  0
 47 10  2  0  0  0  0
 48 47  1  0  0  0  0
 49 26  2  0  0  0  0
 49 42  1  0  0  0  0
 50 76  1  0  0  0  0
 50  1  1  0  0  0  0
 51 43  2  0  0  0  0
 52 51  1  0  0  0  0
 53 54  1  0  0  0  0
 53 62  1  0  0  0  0
 55 56  1  0  0  0  0
 55 38  1  0  0  0  0
 57 19  1  0  0  0  0
 58 17  2  0  0  0  0
 58 51  1  0  0  0  0
 59 58  1  0  0  0  0
 60 28  1  0  0  0  0
 60  8  2  0  0  0  0
 61 60  1  0  0  0  0
 62 63  1  0  0  0  0
 64 65  1  0  0  0  0
 66 67  1  0  0  0  0
 66 76  2  0  0  0  0
 68 69  1  0  0  0  0
 68 64  1  0  0  0  0
 70 71  1  0  0  0  0
 70 34  1  0  0  0  0
 72 70  2  0  0  0  0
 73 72  1  0  0  0  0
 74 38  2  0  0  0  0
 74 75  1  0  0  0  0
 76 77  1  0  0  0  0
 78 42  1  0  0  0  0
 78 57  1  0  0  0  0
M  END
