1,2,24,25,26
 OpenBabel05122313063D

 51 52  0  0  0  0  0  0  0  0999 V2000
    1.0487   -1.2250   -1.0492 S   0  0  0  0  0  1  0  0  0  0  0  0
   -1.3162   -0.0312    1.4914 S   0  0  0  0  0  1  0  0  0  0  0  0
    2.6975   -1.4612   -0.5401 C   0  0  0  0  0  0  0  0  0  0  0  0
    3.4524   -2.4669   -1.1990 C   0  0  0  0  0  0  0  0  0  0  0  0
    4.7849   -2.7103   -0.8709 C   0  0  0  0  0  0  0  0  0  0  0  0
    5.4113   -1.9602    0.1512 C   0  0  0  0  0  0  0  0  0  0  0  0
    4.6870   -0.9776    0.8163 C   0  0  0  0  0  0  0  0  0  0  0  0
    3.3278   -0.6915    0.4903 C   0  0  0  0  0  0  0  0  0  0  0  0
    2.6784    0.3338    1.2565 C   0  0  0  0  0  3  0  0  0  0  0  0
   -2.5301   -1.1630    0.9783 C   0  0  0  0  0  0  0  0  0  0  0  0
   -3.2406   -1.8628    1.9921 C   0  0  0  0  0  0  0  0  0  0  0  0
   -4.2405   -2.7811    1.6800 C   0  0  0  0  0  0  0  0  0  0  0  0
   -4.5850   -3.0392    0.3322 C   0  0  0  0  0  0  0  0  0  0  0  0
   -3.9148   -2.3545   -0.6758 C   0  0  0  0  0  0  0  0  0  0  0  0
   -2.8854   -1.4143   -0.3897 C   0  0  0  0  0  0  0  0  0  0  0  0
   -2.3079   -0.7003   -1.4956 C   0  0  0  0  0  3  0  0  0  0  0  0
    0.7287    3.1764   -1.0029 C   0  0  0  0  0  0  0  0  0  0  0  0
    1.1031    1.7193    2.2804 C   0  0  0  0  0  0  0  0  0  0  0  0
    0.6358    3.1300    1.9382 C   0  0  0  0  0  0  0  0  0  0  0  0
   -0.5910    3.2049    1.0421 C   0  0  0  0  0  0  0  0  0  0  0  0
   -1.6730    2.7591   -1.0433 C   0  0  0  0  0  0  0  0  0  0  0  0
   -1.6314    2.2946   -2.5018 C   0  0  0  0  0  0  0  0  0  0  0  0
   -1.0268    0.8877   -2.6780 C   0  0  0  0  0  0  0  0  0  0  0  0
    1.4659    0.8603    1.1329 N   0  0  0  0  0  2  0  0  0  0  0  0
   -0.4108    2.5739   -0.2859 N   0  0  0  0  0  0  0  0  0  0  0  0
   -1.2716    0.1052   -1.4749 N   0  0  0  0  0  2  0  0  0  0  0  0
    2.9527   -3.0576   -1.9821 H   0  0  0  0  0  0  0  0  0  0  0  0
    5.3443   -3.4954   -1.4026 H   0  0  0  0  0  0  0  0  0  0  0  0
    6.4592   -2.1560    0.4229 H   0  0  0  0  0  0  0  0  0  0  0  0
    5.1630   -0.3939    1.6212 H   0  0  0  0  0  0  0  0  0  0  0  0
    3.2943    0.7183    2.0937 H   0  0  0  0  0  0  0  0  0  0  0  0
   -2.9691   -1.6718    3.0416 H   0  0  0  0  0  0  0  0  0  0  0  0
   -4.7592   -3.3132    2.4926 H   0  0  0  0  0  0  0  0  0  0  0  0
   -5.3721   -3.7666    0.0857 H   0  0  0  0  0  0  0  0  0  0  0  0
   -4.1779   -2.5307   -1.7316 H   0  0  0  0  0  0  0  0  0  0  0  0
   -2.8220   -0.8316   -2.4706 H   0  0  0  0  0  0  0  0  0  0  0  0
    0.8507    2.7035   -1.9931 H   0  0  0  0  0  0  0  0  0  0  0  0
    1.6636    3.0032   -0.4439 H   0  0  0  0  0  0  0  0  0  0  0  0
    0.5838    4.2736   -1.1462 H   0  0  0  0  0  0  0  0  0  0  0  0
    0.2987    1.1929    2.8420 H   0  0  0  0  0  0  0  0  0  0  0  0
    1.9686    1.7967    2.9731 H   0  0  0  0  0  0  0  0  0  0  0  0
    0.3731    3.6321    2.8926 H   0  0  0  0  0  0  0  0  0  0  0  0
    1.4756    3.7194    1.5134 H   0  0  0  0  0  0  0  0  0  0  0  0
   -0.8834    4.2747    0.9010 H   0  0  0  0  0  0  0  0  0  0  0  0
   -1.4422    2.6806    1.5248 H   0  0  0  0  0  0  0  0  0  0  0  0
   -2.4449    2.1903   -0.4874 H   0  0  0  0  0  0  0  0  0  0  0  0
   -1.9656    3.8362   -1.0139 H   0  0  0  0  0  0  0  0  0  0  0  0
   -1.0913    3.0216   -3.1430 H   0  0  0  0  0  0  0  0  0  0  0  0
   -2.6831    2.2935   -2.8561 H   0  0  0  0  0  0  0  0  0  0  0  0
   -1.4583    0.3952   -3.5790 H   0  0  0  0  0  0  0  0  0  0  0  0
    0.0722    0.9346   -2.8282 H   0  0  0  0  0  0  0  0  0  0  0  0
  1  3  1  0  0  0  0
  3  8  1  0  0  0  0
  4  5  1  0  0  0  0
  4  3  2  0  0  0  0
  5  6  2  0  0  0  0
  6 29  1  0  0  0  0
  6  7  1  0  0  0  0
  7 30  1  0  0  0  0
  8  7  2  0  0  0  0
  8  9  1  0  0  0  0
  9 31  1  0  0  0  0
 10  2  1  0  0  0  0
 10 11  1  0  0  0  0
 11 32  1  0  0  0  0
 12 11  2  0  0  0  0
 12 33  1  0  0  0  0
 13 12  1  0  0  0  0
 14 15  1  0  0  0  0
 14 13  2  0  0  0  0
 15 10  2  0  0  0  0
 16 26  1  0  0  0  0
 16 15  1  0  0  0  0
 17 38  1  0  0  0  0
 17 25  1  0  0  0  0
 18 40  1  0  0  0  0
 18 41  1  0  0  0  0
 19 18  1  0  0  0  0
 19 42  1  0  0  0  0
 20 45  1  0  0  0  0
 20 19  1  0  0  0  0
 21 47  1  0  0  0  0
 21 46  1  0  0  0  0
 21 25  1  0  0  0  0
 22 21  1  0  0  0  0
 23 22  1  0  0  0  0
 23 26  1  0  0  0  0
 24  9  1  0  0  0  0
 24 18  1  0  0  0  0
 25 20  1  0  0  0  0
 27  4  1  0  0  0  0
 28  5  1  0  0  0  0
 34 13  1  0  0  0  0
 35 14  1  0  0  0  0
 36 16  1  0  0  0  0
 37 17  1  0  0  0  0
 39 17  1  0  0  0  0
 43 19  1  0  0  0  0
 44 20  1  0  0  0  0
 48 22  1  0  0  0  0
 49 22  1  0  0  0  0
 50 23  1  0  0  0  0
 51 23  1  0  0  0  0
M  END
