1,2,3,4,5
 OpenBabel05122313063D

 40 39  0  0  1  0  0  0  0  0999 V2000
    0.6576    1.7593   -1.3644 S   0  0  0  0  0  1  0  0  0  0  0  0
   -0.6544   -2.2487    0.1476 S   0  0  0  0  0  1  0  0  0  0  0  0
    1.8470   -0.5337   -0.1906 N   0  0  0  0  0  2  0  0  0  0  0  0
   -0.1531    0.5975    1.8293 N   0  0  0  0  0  0  0  0  0  0  0  0
   -1.8367    0.2635   -0.5517 N   0  0  0  0  0  2  0  0  0  0  0  0
    2.2019    0.9978   -1.9809 C   0  0  0  0  0  0  0  0  0  0  0  0
    2.7344    0.0441   -0.9590 C   0  0  2  0  0  3  0  0  0  0  0  0
    4.2222   -0.1933   -0.8888 C   0  0  0  0  0  0  0  0  0  0  0  0
    2.2740   -1.3938    0.9133 C   0  0  0  0  0  0  0  0  0  0  0  0
    1.6209   -1.0334    2.2735 C   0  0  0  0  0  0  0  0  0  0  0  0
    1.1515    0.4181    2.4448 C   0  0  0  0  0  0  0  0  0  0  0  0
   -0.7150    1.9356    1.8508 C   0  0  0  0  0  0  0  0  0  0  0  0
   -2.1265    1.9653    1.2586 C   0  0  0  0  0  0  0  0  0  0  0  0
   -2.2531    1.6302   -0.2398 C   0  0  0  0  0  0  0  0  0  0  0  0
   -2.6981   -0.7012   -0.7478 C   0  0  1  0  0  3  0  0  0  0  0  0
   -2.1067   -2.0633   -0.9522 C   0  0  0  0  0  0  0  0  0  0  0  0
   -4.1947   -0.5774   -0.7637 C   0  0  0  0  0  0  0  0  0  0  0  0
   -0.8166   -0.1116    2.1707 H   0  0  0  0  0  0  0  0  0  0  0  0
    2.9611    1.7724   -2.2225 H   0  0  0  0  0  0  0  0  0  0  0  0
    2.0112    0.4352   -2.9268 H   0  0  0  0  0  0  0  0  0  0  0  0
    4.4821   -1.2638   -0.7735 H   0  0  0  0  0  0  0  0  0  0  0  0
    4.6786    0.3548   -0.0353 H   0  0  0  0  0  0  0  0  0  0  0  0
    4.7067    0.1810   -1.8102 H   0  0  0  0  0  0  0  0  0  0  0  0
    3.3756   -1.3492    1.0224 H   0  0  0  0  0  0  0  0  0  0  0  0
    2.0014   -2.4373    0.6483 H   0  0  0  0  0  0  0  0  0  0  0  0
    2.3568   -1.2736    3.0680 H   0  0  0  0  0  0  0  0  0  0  0  0
    0.7479   -1.6963    2.4504 H   0  0  0  0  0  0  0  0  0  0  0  0
    1.1465    0.6809    3.5342 H   0  0  0  0  0  0  0  0  0  0  0  0
    1.8582    1.1253    1.9548 H   0  0  0  0  0  0  0  0  0  0  0  0
   -0.0433    2.5863    1.2451 H   0  0  0  0  0  0  0  0  0  0  0  0
   -0.7520    2.3672    2.8855 H   0  0  0  0  0  0  0  0  0  0  0  0
   -2.5421    2.9839    1.4061 H   0  0  0  0  0  0  0  0  0  0  0  0
   -2.7845    1.2775    1.8376 H   0  0  0  0  0  0  0  0  0  0  0  0
   -3.3028    1.8096   -0.5508 H   0  0  0  0  0  0  0  0  0  0  0  0
   -1.6195    2.3157   -0.8398 H   0  0  0  0  0  0  0  0  0  0  0  0
   -2.8562   -2.8592   -0.7571 H   0  0  0  0  0  0  0  0  0  0  0  0
   -1.8000   -2.1585   -2.0212 H   0  0  0  0  0  0  0  0  0  0  0  0
   -4.6146   -1.0505    0.1510 H   0  0  0  0  0  0  0  0  0  0  0  0
   -4.6076   -1.1428   -1.6246 H   0  0  0  0  0  0  0  0  0  0  0  0
   -4.5693    0.4606   -0.8134 H   0  0  0  0  0  0  0  0  0  0  0  0
  3  9  1  0  0  0  0
  4 12  1  0  0  0  0
  4 18  1  0  0  0  0
  4 11  1  0  0  0  0
  5 14  1  0  0  0  0
  6  1  1  0  0  0  0
  6  7  1  0  0  0  0
  7  8  1  0  0  0  0
  7  3  1  6  0  0  0
  8 21  1  0  0  0  0
  8 22  1  0  0  0  0
  9 24  1  0  0  0  0
  9 10  1  0  0  0  0
 10 11  1  0  0  0  0
 10 27  1  0  0  0  0
 10 26  1  0  0  0  0
 11 28  1  0  0  0  0
 12 31  1  0  0  0  0
 13 32  1  0  0  0  0
 13 33  1  0  0  0  0
 13 12  1  0  0  0  0
 14 13  1  0  0  0  0
 15  5  1  1  0  0  0
 16 36  1  0  0  0  0
 16 15  1  0  0  0  0
 16  2  1  0  0  0  0
 17 15  1  0  0  0  0
 17 38  1  0  0  0  0
 19  6  1  0  0  0  0
 20  6  1  0  0  0  0
 23  8  1  0  0  0  0
 25  9  1  0  0  0  0
 29 11  1  0  0  0  0
 30 12  1  0  0  0  0
 34 14  1  0  0  0  0
 35 14  1  0  0  0  0
 37 16  1  0  0  0  0
 39 17  1  0  0  0  0
 40 17  1  0  0  0  0
M  END
