2,5,6,7
 OpenBabel05122313063D

 70 74  0  0  1  0  0  0  0  0999 V2000
    2.2522    1.9582   -2.4360 O   0  0  0  0  0  0  0  0  0  0  0  0
    0.8398   -1.3211    1.9925 O   0  5  0  0  0  0  0  0  0  0  0  0
   -0.2763   -3.0258    2.9626 O   0  0  0  0  0  0  0  0  0  0  0  0
    1.2432    4.4512    0.9437 N   0  0  0  0  0  0  0  0  0  0  0  0
    2.6462    0.1751    0.7237 N   0  0  0  0  0  0  0  0  0  0  0  0
    0.7164    1.0640   -0.8925 N   0  0  0  0  0  2  0  0  0  0  0  0
   -1.0383   -0.6038    0.4248 N   0  0  0  0  0  2  0  0  0  0  0  0
    0.4433    2.0901    2.2514 C   0  0  0  0  0  0  0  0  0  0  0  0
   -0.4723    3.1203    2.0108 C   0  0  0  0  0  0  0  0  0  0  0  0
   -0.0261    4.2696    1.3339 C   0  0  0  0  0  0  0  0  0  0  0  0
    2.1134    3.4569    1.1848 C   0  0  0  0  0  0  0  0  0  0  0  0
    1.7740    2.2422    1.8073 C   0  0  0  0  0  0  0  0  0  0  0  0
    2.7455    1.0923    1.9066 C   0  0  0  0  0  0  0  0  0  0  0  0
    3.4504   -1.0950    0.9192 C   0  0  0  0  0  0  0  0  0  0  0  0
    4.5994   -1.0129   -0.0841 C   0  0  0  0  0  0  0  0  0  0  0  0
    3.9460   -0.2860   -1.2594 C   0  0  0  0  0  0  0  0  0  0  0  0
    3.1169    0.7970   -0.5556 C   0  0  1  0  0  0  0  0  0  0  0  0
    1.9743    1.3443   -1.4065 C   0  0  0  0  0  0  0  0  0  0  0  0
   -0.4205    1.7463   -1.3051 C   0  0  2  0  0  3  0  0  0  0  0  0
   -0.3357    2.9350   -2.0902 C   0  0  0  0  0  0  0  0  0  0  0  0
   -1.4612    3.6880   -2.4100 C   0  0  0  0  0  0  0  0  0  0  0  0
   -2.7450    3.2871   -1.9906 C   0  0  0  0  0  0  0  0  0  0  0  0
   -2.8662    2.1152   -1.2552 C   0  0  0  0  0  0  0  0  0  0  0  0
   -1.7391    1.3201   -0.8956 C   0  0  0  0  0  0  0  0  0  0  0  0
   -1.9947    0.1007   -0.1428 C   0  0  0  0  0  0  0  0  0  0  0  0
   -3.4162   -0.3629   -0.0073 C   0  0  0  0  0  0  0  0  0  0  0  0
   -4.1149   -0.1647    1.2012 C   0  0  0  0  0  0  0  0  0  0  0  0
   -5.4415   -0.6011    1.3318 C   0  0  0  0  0  0  0  0  0  0  0  0
   -6.0813   -1.2414    0.2585 C   0  0  0  0  0  0  0  0  0  0  0  0
   -5.3933   -1.4360   -0.9496 C   0  0  0  0  0  0  0  0  0  0  0  0
   -4.0684   -0.9951   -1.0846 C   0  0  0  0  0  0  0  0  0  0  0  0
   -1.2964   -1.8855    1.0916 C   0  0  1  0  0  0  0  0  0  0  0  0
   -1.3018   -3.0670    0.0873 C   0  0  0  0  0  0  0  0  0  0  0  0
   -0.0169   -3.2131   -0.6915 C   0  0  0  0  0  0  0  0  0  0  0  0
    0.1675   -2.5426   -1.9187 C   0  0  0  0  0  0  0  0  0  0  0  0
    1.3605   -2.6818   -2.6431 C   0  0  0  0  0  0  0  0  0  0  0  0
    2.3955   -3.4911   -2.1453 C   0  0  0  0  0  0  0  0  0  0  0  0
    2.2325   -4.1471   -0.9142 C   0  0  0  0  0  0  0  0  0  0  0  0
    1.0362   -4.0083   -0.1933 C   0  0  0  0  0  0  0  0  0  0  0  0
   -0.1893   -2.1249    2.1384 C   0  0  0  0  0  0  0  0  0  0  0  0
    3.7941    1.4571    1.9944 H   0  0  0  0  0  0  0  0  0  0  0  0
    0.1441    1.1724    2.7807 H   0  0  0  0  0  0  0  0  0  0  0  0
    2.5064    0.4728    2.7917 H   0  0  0  0  0  0  0  0  0  0  0  0
   -1.5213    3.0360    2.3311 H   0  0  0  0  0  0  0  0  0  0  0  0
    3.7622   -1.1780    1.9758 H   0  0  0  0  0  0  0  0  0  0  0  0
   -0.7344    5.0841    1.0990 H   0  0  0  0  0  0  0  0  0  0  0  0
    2.7900   -1.9549    0.7039 H   0  0  0  0  0  0  0  0  0  0  0  0
    3.1554    3.6317    0.8560 H   0  0  0  0  0  0  0  0  0  0  0  0
    4.9849   -2.0171   -0.3485 H   0  0  0  0  0  0  0  0  0  0  0  0
    5.4457   -0.4187    0.3211 H   0  0  0  0  0  0  0  0  0  0  0  0
    3.2703   -0.9753   -1.8043 H   0  0  0  0  0  0  0  0  0  0  0  0
    4.6490    0.1575   -1.9879 H   0  0  0  0  0  0  0  0  0  0  0  0
    3.7786    1.6609   -0.3260 H   0  0  0  0  0  0  0  0  0  0  0  0
    0.6519    3.2531   -2.4362 H   0  0  0  0  0  0  0  0  0  0  0  0
   -1.3327    4.6110   -2.9963 H   0  0  0  0  0  0  0  0  0  0  0  0
   -3.6351    3.8824   -2.2405 H   0  0  0  0  0  0  0  0  0  0  0  0
   -3.8607    1.7869   -0.9242 H   0  0  0  0  0  0  0  0  0  0  0  0
   -3.6112    0.3409    2.0396 H   0  0  0  0  0  0  0  0  0  0  0  0
   -5.9786   -0.4394    2.2785 H   0  0  0  0  0  0  0  0  0  0  0  0
   -7.1211   -1.5859    0.3628 H   0  0  0  0  0  0  0  0  0  0  0  0
   -5.8923   -1.9317   -1.7959 H   0  0  0  0  0  0  0  0  0  0  0  0
   -3.5316   -1.1307   -2.0360 H   0  0  0  0  0  0  0  0  0  0  0  0
   -2.2768   -1.8808    1.6067 H   0  0  0  0  0  0  0  0  0  0  0  0
   -1.4903   -3.9750    0.6943 H   0  0  0  0  0  0  0  0  0  0  0  0
   -2.1596   -2.9363   -0.6025 H   0  0  0  0  0  0  0  0  0  0  0  0
   -0.6392   -1.9064   -2.3154 H   0  0  0  0  0  0  0  0  0  0  0  0
    1.4817   -2.1550   -3.6018 H   0  0  0  0  0  0  0  0  0  0  0  0
    3.3280   -3.6111   -2.7179 H   0  0  0  0  0  0  0  0  0  0  0  0
    3.0394   -4.7814   -0.5156 H   0  0  0  0  0  0  0  0  0  0  0  0
    0.9100   -4.5171    0.7751 H   0  0  0  0  0  0  0  0  0  0  0  0
  1 18  2  0  0  0  0
  2 40  1  0  0  0  0
  4 11  2  0  0  0  0
  4 10  1  0  0  0  0
  5 14  1  0  0  0  0
  5 13  1  0  0  0  0
  7 32  1  0  0  0  0
  8 42  1  0  0  0  0
  9  8  1  0  0  0  0
  9 44  1  0  0  0  0
 10  9  2  0  0  0  0
 11 12  1  0  0  0  0
 12 13  1  0  0  0  0
 12  8  2  0  0  0  0
 13 41  1  0  0  0  0
 13 43  1  0  0  0  0
 14 45  1  0  0  0  0
 15 50  1  0  0  0  0
 15 14  1  0  0  0  0
 16 17  1  0  0  0  0
 16 15  1  0  0  0  0
 17 53  1  1  0  0  0
 17  5  1  0  0  0  0
 18  6  1  0  0  0  0
 18 17  1  0  0  0  0
 19 24  1  0  0  0  0
 19  6  1  1  0  0  0
 20 19  1  0  0  0  0
 21 20  2  0  0  0  0
 21 22  1  0  0  0  0
 22 23  2  0  0  0  0
 23 57  1  0  0  0  0
 23 24  1  0  0  0  0
 24 25  2  0  0  0  0
 25 26  1  0  0  0  0
 25  7  1  0  0  0  0
 26 27  1  0  0  0  0
 27 28  2  0  0  0  0
 27 58  1  0  0  0  0
 28 59  1  0  0  0  0
 29 60  1  0  0  0  0
 29 28  1  0  0  0  0
 30 29  2  0  0  0  0
 31 30  1  0  0  0  0
 31 26  2  0  0  0  0
 32 63  1  1  0  0  0
 32 40  1  0  0  0  0
 33 64  1  0  0  0  0
 33 32  1  0  0  0  0
 34 39  1  0  0  0  0
 34 33  1  0  0  0  0
 35 34  2  0  0  0  0
 36 37  2  0  0  0  0
 36 35  1  0  0  0  0
 37 38  1  0  0  0  0
 38 69  1  0  0  0  0
 38 39  2  0  0  0  0
 39 70  1  0  0  0  0
 40  3  2  0  0  0  0
 46 10  1  0  0  0  0
 47 14  1  0  0  0  0
 48 11  1  0  0  0  0
 49 15  1  0  0  0  0
 51 16  1  0  0  0  0
 52 16  1  0  0  0  0
 54 20  1  0  0  0  0
 55 21  1  0  0  0  0
 56 22  1  0  0  0  0
 61 30  1  0  0  0  0
 62 31  1  0  0  0  0
 65 33  1  0  0  0  0
 66 35  1  0  0  0  0
 67 36  1  0  0  0  0
 68 37  1  0  0  0  0
M  CHG  1   2  -1
M  END
