2,3,4,6
 OpenBabel05122313063D

 55 57  0  0  0  0  0  0  0  0999 V2000
    3.8312    0.3925    0.9254 N   0  0  0  0  0  0  0  0  0  0  0  0
   -0.3442    2.0666   -1.0482 N   0  0  0  0  0  2  0  0  0  0  0  0
    0.9437   -0.7356    1.1257 N   0  0  0  0  0  2  0  0  0  0  0  0
    1.9116    0.7486   -1.0982 N   0  0  0  0  0  0  0  0  0  0  0  0
    0.0425   -1.4084   -1.6273 O   0  0  0  0  0  0  0  0  0  0  0  0
   -1.3154    0.3706    0.8577 O   0  5  0  0  0  0  0  0  0  0  0  0
   -2.4085    1.0862    0.7899 C   0  0  0  0  0  0  0  0  0  0  0  0
   -3.5027    0.7266    1.6318 C   0  0  0  0  0  0  0  0  0  0  0  0
   -4.6917    1.4455    1.6045 C   0  0  0  0  0  0  0  0  0  0  0  0
   -4.8573    2.5643    0.7480 C   0  0  0  0  0  0  0  0  0  0  0  0
   -3.8105    2.9412   -0.0783 C   0  0  0  0  0  3  0  0  0  0  0  0
   -2.5781    2.2218   -0.0826 C   0  0  0  0  0  0  0  0  0  0  0  0
   -1.5236    2.6399   -0.9428 C   0  0  0  0  0  0  0  0  0  0  0  0
    0.6197    2.5748   -2.0316 C   0  0  0  0  0  0  0  0  0  0  0  0
    1.9958    2.1636   -1.5363 C   0  0  0  0  0  0  0  0  0  0  0  0
    1.9988   -0.2154   -2.2206 C   0  0  0  0  0  0  0  0  0  0  0  0
    1.4475   -1.5775   -1.8487 C   0  0  0  0  0  0  0  0  0  0  0  0
   -0.6264   -2.4192   -0.9819 C   0  0  0  0  0  0  0  0  0  0  0  0
   -1.5583   -3.1613   -1.7177 C   0  0  0  0  0  0  0  0  0  0  0  0
   -2.2783   -4.1990   -1.1076 C   0  0  0  0  0  0  0  0  0  0  0  0
   -2.0564   -4.5133    0.2442 C   0  0  0  0  0  0  0  0  0  0  0  0
   -1.1343   -3.7679    0.9811 C   0  0  0  0  0  0  0  0  0  0  0  0
   -0.4208   -2.6847    0.4031 C   0  0  0  0  0  0  0  0  0  0  0  0
    0.4317   -1.9214    1.2985 C   0  0  0  0  0  3  0  0  0  0  0  0
    1.7839   -0.2167    2.2125 C   0  0  0  0  0  0  0  0  0  0  0  0
    3.2815   -0.4493    1.9885 C   0  0  0  0  0  0  0  0  0  0  0  0
    4.4960    1.6390    1.3382 C   0  0  0  0  0  0  0  0  0  0  0  0
    5.2918    0.4819    0.8400 C   0  0  0  0  0  0  0  0  0  0  0  0
    4.5293    1.8581    2.4199 H   0  0  0  0  0  0  0  0  0  0  0  0
    4.3295    2.5176    0.6939 H   0  0  0  0  0  0  0  0  0  0  0  0
   -3.9163    3.8062   -0.7520 H   0  0  0  0  0  0  0  0  0  0  0  0
    5.7169    0.4915   -0.1769 H   0  0  0  0  0  0  0  0  0  0  0  0
    5.8753   -0.0920    1.5810 H   0  0  0  0  0  0  0  0  0  0  0  0
    3.4482   -1.5122    1.7119 H   0  0  0  0  0  0  0  0  0  0  0  0
    3.8120   -0.2794    2.9563 H   0  0  0  0  0  0  0  0  0  0  0  0
    1.5798    0.8670    2.3321 H   0  0  0  0  0  0  0  0  0  0  0  0
    1.5035   -0.7104    3.1683 H   0  0  0  0  0  0  0  0  0  0  0  0
   -2.6058   -5.3375    0.7208 H   0  0  0  0  0  0  0  0  0  0  0  0
   -5.5195    1.1390    2.2625 H   0  0  0  0  0  0  0  0  0  0  0  0
   -5.8038    3.1227    0.7418 H   0  0  0  0  0  0  0  0  0  0  0  0
   -3.3692   -0.1408    2.2938 H   0  0  0  0  0  0  0  0  0  0  0  0
   -1.7143    3.5288   -1.5764 H   0  0  0  0  0  0  0  0  0  0  0  0
    0.5415    3.6759   -2.1522 H   0  0  0  0  0  0  0  0  0  0  0  0
    0.6323   -2.4238    2.2697 H   0  0  0  0  0  0  0  0  0  0  0  0
    1.6139   -2.2950   -2.6820 H   0  0  0  0  0  0  0  0  0  0  0  0
    1.9502   -1.9804   -0.9429 H   0  0  0  0  0  0  0  0  0  0  0  0
    1.4155    0.1707   -3.0805 H   0  0  0  0  0  0  0  0  0  0  0  0
    3.0552   -0.3192   -2.5526 H   0  0  0  0  0  0  0  0  0  0  0  0
    2.7009    0.5542   -0.4090 H   0  0  0  0  0  0  0  0  0  0  0  0
    0.4072    2.1236   -3.0268 H   0  0  0  0  0  0  0  0  0  0  0  0
    2.7804    2.3063   -2.3113 H   0  0  0  0  0  0  0  0  0  0  0  0
   -0.9689   -3.9986    2.0452 H   0  0  0  0  0  0  0  0  0  0  0  0
   -3.0052   -4.7767   -1.6977 H   0  0  0  0  0  0  0  0  0  0  0  0
   -1.6989   -2.9122   -2.7791 H   0  0  0  0  0  0  0  0  0  0  0  0
    2.2708    2.7678   -0.6495 H   0  0  0  0  0  0  0  0  0  0  0  0
  1 27  1  0  0  0  0
  1 26  1  0  0  0  0
  2 13  1  0  0  0  0
  3 24  1  0  0  0  0
  3 25  1  0  0  0  0
  4 49  1  0  0  0  0
  5 18  1  0  0  0  0
  7  6  1  0  0  0  0
  7  8  2  0  0  0  0
  8 41  1  0  0  0  0
  9  8  1  0  0  0  0
  9 39  1  0  0  0  0
 10  9  2  0  0  0  0
 11 10  1  0  0  0  0
 12 11  1  0  0  0  0
 12  7  1  0  0  0  0
 13 12  2  0  0  0  0
 14 15  1  0  0  0  0
 14  2  1  0  0  0  0
 15  4  1  0  0  0  0
 15 55  1  0  0  0  0
 16 17  1  0  0  0  0
 16  4  1  0  0  0  0
 17  5  1  0  0  0  0
 17 46  1  0  0  0  0
 18 23  1  0  0  0  0
 19 20  1  0  0  0  0
 19 18  2  0  0  0  0
 20 21  2  0  0  0  0
 21 38  1  0  0  0  0
 21 22  1  0  0  0  0
 22 52  1  0  0  0  0
 23 22  2  0  0  0  0
 23 24  1  0  0  0  0
 24 44  1  0  0  0  0
 25 36  1  0  0  0  0
 25 37  1  0  0  0  0
 26 25  1  0  0  0  0
 26 35  1  0  0  0  0
 27 29  1  0  0  0  0
 28  1  1  0  0  0  0
 28 27  1  0  0  0  0
 28 33  1  0  0  0  0
 30 27  1  0  0  0  0
 31 11  1  0  0  0  0
 32 28  1  0  0  0  0
 34 26  1  0  0  0  0
 40 10  1  0  0  0  0
 42 13  1  0  0  0  0
 43 14  1  0  0  0  0
 45 17  1  0  0  0  0
 47 16  1  0  0  0  0
 48 16  1  0  0  0  0
 50 14  1  0  0  0  0
 51 15  1  0  0  0  0
 53 20  1  0  0  0  0
 54 19  1  0  0  0  0
M  CHG  1   6  -1
M  END
