1,2,3,4
 OpenBabel05122313063D

 50 53  0  0  0  0  0  0  0  0999 V2000
   -1.8874    0.1347    0.6333 O   0  5  0  0  0  0  0  0  0  0  0  0
   -0.6816   -2.1481    0.0840 N   0  0  0  0  0  2  0  0  0  0  0  0
    1.8307   -1.5872    0.0950 N   0  0  0  0  0  2  0  0  0  0  0  0
    1.1593    1.2162    1.0037 N   0  0  0  0  0  2  0  0  0  0  0  0
    0.1135   -3.2171   -0.1528 C   0  0  0  0  0  0  0  0  0  0  0  0
   -0.5126   -4.4750   -0.4054 C   0  0  0  0  0  0  0  0  0  0  0  0
    0.1043   -5.3639   -0.6005 H   0  0  0  0  0  0  0  0  0  0  0  0
   -1.9008   -4.5578   -0.4084 C   0  0  0  0  0  0  0  0  0  0  0  0
   -2.3866   -5.5254   -0.6073 H   0  0  0  0  0  0  0  0  0  0  0  0
   -2.7263   -3.4099   -0.1551 C   0  0  0  0  0  0  0  0  0  0  0  0
   -4.1364   -3.3483   -0.1201 C   0  0  0  0  0  0  0  0  0  0  0  0
   -4.7375   -4.2492   -0.3083 H   0  0  0  0  0  0  0  0  0  0  0  0
   -4.7570   -2.1152    0.1610 C   0  0  0  0  0  0  0  0  0  0  0  0
   -5.8581   -2.0821    0.1828 H   0  0  0  0  0  0  0  0  0  0  0  0
   -4.0598   -0.9173    0.4211 C   0  0  0  0  0  0  0  0  0  0  0  0
   -4.5990    0.0152    0.6410 H   0  0  0  0  0  0  0  0  0  0  0  0
   -2.6415   -0.9010    0.4020 C   0  0  0  0  0  0  0  0  0  0  0  0
   -2.0223   -2.1834    0.0978 C   0  0  0  0  0  0  0  0  0  0  0  0
    1.5149   -2.8540   -0.1406 C   0  0  0  0  0  0  0  0  0  0  0  0
    2.3004   -3.6022   -0.3426 H   0  0  0  0  0  0  0  0  0  0  0  0
    3.1288   -1.0573   -0.0378 C   0  0  0  0  0  0  0  0  0  0  0  0
    4.0841   -1.6863   -0.8706 C   0  0  0  0  0  0  0  0  0  0  0  0
    3.8078   -2.5901   -1.4321 H   0  0  0  0  0  0  0  0  0  0  0  0
    5.3590   -1.1396   -1.0352 C   0  0  0  0  0  0  0  0  0  0  0  0
    6.0831   -1.6336   -1.7000 H   0  0  0  0  0  0  0  0  0  0  0  0
    5.6910    0.0583   -0.3832 C   0  0  0  0  0  0  0  0  0  0  0  0
    6.6821    0.5130   -0.5288 H   0  0  0  0  0  0  0  0  0  0  0  0
    4.7407    0.6944    0.4273 C   0  0  0  0  0  0  0  0  0  0  0  0
    4.9881    1.6496    0.9149 H   0  0  0  0  0  0  0  0  0  0  0  0
    3.4541    0.1650    0.6216 C   0  0  0  0  0  0  0  0  0  0  0  0
    2.4867    0.9016    1.5399 C   0  0  0  0  0  0  0  0  0  0  0  0
    2.3198    0.3042    2.4621 H   0  0  0  0  0  0  0  0  0  0  0  0
    2.9721    1.8494    1.8553 H   0  0  0  0  0  0  0  0  0  0  0  0
    1.2458    2.3695   -0.2397 S   0  0  0  0  0  0  0  0  0  0  0  0
    1.6369    1.7651   -1.5457 O   0  0  0  0  0  0  0  0  0  0  0  0
    2.0350    3.5194    0.2736 O   0  0  0  0  0  0  0  0  0  0  0  0
   -0.4889    2.8176   -0.3447 C   0  0  0  0  0  0  0  0  0  0  0  0
   -1.2136    2.4711   -1.4906 C   0  0  0  0  0  0  0  0  0  0  0  0
   -0.6957    1.9656   -2.3182 H   0  0  0  0  0  0  0  0  0  0  0  0
   -2.5819    2.7679   -1.5414 C   0  0  0  0  0  0  0  0  0  0  0  0
   -3.1631    2.4938   -2.4361 H   0  0  0  0  0  0  0  0  0  0  0  0
   -3.2302    3.3997   -0.4616 C   0  0  0  0  0  0  0  0  0  0  0  0
   -4.7159    3.6521   -0.4939 C   0  0  0  0  0  0  0  0  0  0  0  0
   -4.9925    4.5560    0.0839 H   0  0  0  0  0  0  0  0  0  0  0  0
   -5.2676    2.7974   -0.0444 H   0  0  0  0  0  0  0  0  0  0  0  0
   -5.0899    3.7720   -1.5297 H   0  0  0  0  0  0  0  0  0  0  0  0
   -2.4633    3.7566    0.6691 C   0  0  0  0  0  0  0  0  0  0  0  0
   -2.9535    4.2619    1.5163 H   0  0  0  0  0  0  0  0  0  0  0  0
   -1.0959    3.4718    0.7360 C   0  0  0  0  0  0  0  0  0  0  0  0
   -0.4961    3.7393    1.6175 H   0  0  0  0  0  0  0  0  0  0  0  0
  2 18  1  0  0  0  0
  4 31  1  0  0  0  0
  5 19  2  0  0  0  0
  5  2  1  0  0  0  0
  6  5  1  0  0  0  0
  7  6  1  0  0  0  0
  8  6  2  0  0  0  0
  8 10  1  0  0  0  0
  9  8  1  0  0  0  0
 10 11  2  0  0  0  0
 10 18  1  0  0  0  0
 11 13  1  0  0  0  0
 12 11  1  0  0  0  0
 13 14  1  0  0  0  0
 13 15  2  0  0  0  0
 15 16  1  0  0  0  0
 17 15  1  0  0  0  0
 17  1  1  0  0  0  0
 18 17  2  0  0  0  0
 19  3  1  0  0  0  0
 20 19  1  0  0  0  0
 21  3  1  0  0  0  0
 21 30  1  0  0  0  0
 22 21  2  0  0  0  0
 23 22  1  0  0  0  0
 24 22  1  0  0  0  0
 24 26  2  0  0  0  0
 25 24  1  0  0  0  0
 26 28  1  0  0  0  0
 27 26  1  0  0  0  0
 28 30  2  0  0  0  0
 28 29  1  0  0  0  0
 30 31  1  0  0  0  0
 31 33  1  0  0  0  0
 31 32  1  0  0  0  0
 34 36  2  0  0  0  0
 34  4  1  0  0  0  0
 35 34  2  0  0  0  0
 37 34  1  0  0  0  0
 37 49  1  0  0  0  0
 38 37  2  0  0  0  0
 39 38  1  0  0  0  0
 40 38  1  0  0  0  0
 40 42  2  0  0  0  0
 41 40  1  0  0  0  0
 42 47  1  0  0  0  0
 43 42  1  0  0  0  0
 43 45  1  0  0  0  0
 43 44  1  0  0  0  0
 46 43  1  0  0  0  0
 47 49  2  0  0  0  0
 47 48  1  0  0  0  0
 49 50  1  0  0  0  0
M  CHG  1   1  -1
M  END
