1,2,3,4
 OpenBabel05122313063D

 31 31  0  0  1  0  0  0  0  0999 V2000
    0.5359    1.6798    0.0055 O   0  0  0  0  0  1  0  0  0  0  0  0
    1.5335   -0.9212   -0.0281 N   0  0  0  0  0  2  0  0  0  0  0  0
   -0.8626   -1.7284    0.0978 N   0  0  0  0  0  2  0  0  0  0  0  0
   -1.8937    0.5300   -0.0166 N   0  0  0  0  0  0  0  0  0  0  0  0
    2.0461    3.4859    0.1363 C   0  0  0  0  0  0  0  0  0  0  0  0
    1.7870    1.9993    0.0607 C   0  0  2  0  0  3  0  0  0  0  0  0
    2.8561    1.0908    0.0440 C   0  0  0  0  0  0  0  0  0  0  0  0
    2.7241   -0.3213   -0.0442 C   0  0  0  0  0  0  0  0  0  0  0  0
    3.9866   -1.1449   -0.1754 C   0  0  0  0  0  0  0  0  0  0  0  0
    1.3978   -2.3645   -0.2642 C   0  0  0  0  0  0  0  0  0  0  0  0
    0.0661   -2.8095    0.3420 C   0  0  0  0  0  0  0  0  0  0  0  0
   -2.1841   -1.7847    0.0760 C   0  0  0  0  0  3  0  0  0  0  0  0
   -2.8135   -0.5184   -0.0140 C   0  0  0  0  0  3  0  0  0  0  0  0
   -4.1281    0.0123   -0.0874 C   0  0  0  0  0  0  0  0  0  0  0  0
   -3.9768    1.4111   -0.1330 C   0  0  0  0  0  0  0  0  0  0  0  0
   -2.5823    1.6856   -0.0881 C   0  0  0  0  0  0  0  0  0  0  0  0
    1.5798    3.9894   -0.7354 H   0  0  0  0  0  0  0  0  0  0  0  0
    1.5586    3.9026    1.0417 H   0  0  0  0  0  0  0  0  0  0  0  0
    3.1244    3.7272    0.1619 H   0  0  0  0  0  0  0  0  0  0  0  0
    3.8740    1.5005    0.0746 H   0  0  0  0  0  0  0  0  0  0  0  0
    4.0732   -1.8930    0.6402 H   0  0  0  0  0  0  0  0  0  0  0  0
    4.0034   -1.7068   -1.1327 H   0  0  0  0  0  0  0  0  0  0  0  0
    4.8813   -0.4982   -0.1431 H   0  0  0  0  0  0  0  0  0  0  0  0
    1.3976   -2.5623   -1.3614 H   0  0  0  0  0  0  0  0  0  0  0  0
    2.2367   -2.9453    0.1727 H   0  0  0  0  0  0  0  0  0  0  0  0
    0.1903   -2.9547    1.4406 H   0  0  0  0  0  0  0  0  0  0  0  0
   -0.2825   -3.7745   -0.0886 H   0  0  0  0  0  0  0  0  0  0  0  0
   -2.7226   -2.7475    0.1386 H   0  0  0  0  0  0  0  0  0  0  0  0
   -5.0642   -0.5585   -0.1016 H   0  0  0  0  0  0  0  0  0  0  0  0
   -4.7767    2.1591   -0.1931 H   0  0  0  0  0  0  0  0  0  0  0  0
   -2.0561    2.6485   -0.1053 H   0  0  0  0  0  0  0  0  0  0  0  0
  3 11  1  0  0  0  0
  4 13  1  0  0  0  0
  5 19  1  0  0  0  0
  5 18  1  0  0  0  0
  6  1  1  6  0  0  0
  6  5  1  0  0  0  0
  7  6  1  0  0  0  0
  7 20  1  0  0  0  0
  8  2  1  0  0  0  0
  8  7  2  0  0  0  0
  9 23  1  0  0  0  0
  9  8  1  0  0  0  0
  9 21  1  0  0  0  0
 10  2  1  0  0  0  0
 10 25  1  0  0  0  0
 10 11  1  0  0  0  0
 11 26  1  0  0  0  0
 12  3  1  0  0  0  0
 12 28  1  0  0  0  0
 13 12  1  0  0  0  0
 14 13  1  0  0  0  0
 15 16  1  0  0  0  0
 15 14  2  0  0  0  0
 16  4  2  0  0  0  0
 17  5  1  0  0  0  0
 22  9  1  0  0  0  0
 24 10  1  0  0  0  0
 27 11  1  0  0  0  0
 29 14  1  0  0  0  0
 30 15  1  0  0  0  0
 31 16  1  0  0  0  0
M  END
