1,2,3,27
 OpenBabel05122313063D

 40 42  0  0  0  0  0  0  0  0999 V2000
   -1.0296   -0.0027   -1.8338 O   0  5  0  0  0  0  0  0  0  0  0  0
   -0.7882   -0.0004    0.9929 N   0  0  0  0  0  0  0  0  0  0  0  0
    1.5914    1.7050   -0.4418 N   0  0  0  0  0  2  0  0  0  0  0  0
    1.0115    2.6276    0.3638 N   0  0  0  0  0  0  0  0  0  0  0  0
   -0.5336    1.2280    1.7564 C   0  0  0  0  0  0  0  0  0  0  0  0
   -0.3545    2.4451    0.8345 C   0  0  0  0  0  0  0  0  0  0  0  0
    1.8761    3.6406    0.6675 C   0  0  0  0  0  3  0  0  0  0  0  0
    3.0768    3.3654    0.0147 C   0  0  0  0  0  0  0  0  0  0  0  0
    2.8472    2.1467   -0.6608 C   0  0  0  0  0  0  0  0  0  0  0  0
   -2.1081   -0.0018   -1.1172 C   0  0  0  0  0  0  0  0  0  0  0  0
   -2.0905   -0.0005    0.3290 C   0  0  0  0  0  0  0  0  0  0  0  0
   -3.2797    0.0002    1.0804 C   0  0  0  0  0  0  0  0  0  0  0  0
   -4.5334    0.0000    0.4563 C   0  0  0  0  0  0  0  0  0  0  0  0
   -4.5807   -0.0011   -0.9555 C   0  0  0  0  0  0  0  0  0  0  0  0
   -3.4144   -0.0019   -1.7175 C   0  0  0  0  0  0  0  0  0  0  0  0
    0.3885    1.0934    2.3605 H   0  0  0  0  0  0  0  0  0  0  0  0
   -1.3637    1.4477    2.4707 H   0  0  0  0  0  0  0  0  0  0  0  0
   -1.0305    2.3434   -0.0405 H   0  0  0  0  0  0  0  0  0  0  0  0
   -0.6256    3.3735    1.3715 H   0  0  0  0  0  0  0  0  0  0  0  0
    1.5695    4.4734    1.3093 H   0  0  0  0  0  0  0  0  0  0  0  0
    3.9885    3.9708    0.0231 H   0  0  0  0  0  0  0  0  0  0  0  0
    3.5211    1.5647   -1.2995 H   0  0  0  0  0  0  0  0  0  0  0  0
   -3.2240    0.0010    2.1830 H   0  0  0  0  0  0  0  0  0  0  0  0
   -5.4569    0.0007    1.0536 H   0  0  0  0  0  0  0  0  0  0  0  0
   -5.5576   -0.0012   -1.4662 H   0  0  0  0  0  0  0  0  0  0  0  0
   -3.4520   -0.0028   -2.8177 H   0  0  0  0  0  0  0  0  0  0  0  0
    1.5936   -1.7034   -0.4407 N   0  0  0  0  0  2  0  0  0  0  0  0
   -0.5333   -1.2290    1.7559 C   0  0  0  0  0  0  0  0  0  0  0  0
    1.0137   -2.6269    0.3638 N   0  0  0  0  0  0  0  0  0  0  0  0
    2.8500   -2.1440   -0.6588 C   0  0  0  0  0  3  0  0  0  0  0  0
   -0.3528   -2.4455    0.8334 C   0  0  0  0  0  0  0  0  0  0  0  0
    0.3884   -1.0942    2.3607 H   0  0  0  0  0  0  0  0  0  0  0  0
   -1.3638   -1.4496    2.4695 H   0  0  0  0  0  0  0  0  0  0  0  0
    1.8788   -3.6394    0.6677 C   0  0  0  0  0  0  0  0  0  0  0  0
    3.0799   -3.3629    0.0162 C   0  0  0  0  0  0  0  0  0  0  0  0
    3.5240   -1.5610   -1.2965 H   0  0  0  0  0  0  0  0  0  0  0  0
   -1.0280   -2.3437   -0.0421 H   0  0  0  0  0  0  0  0  0  0  0  0
   -0.6238   -3.3744    1.3696 H   0  0  0  0  0  0  0  0  0  0  0  0
    1.5722   -4.4728    1.3088 H   0  0  0  0  0  0  0  0  0  0  0  0
    3.9921   -3.9675    0.0251 H   0  0  0  0  0  0  0  0  0  0  0  0
  1 10  1  0  0  0  0
  2 28  1  0  0  0  0
  2  5  1  0  0  0  0
  3  4  1  0  0  0  0
  4  7  1  0  0  0  0
  4  6  1  0  0  0  0
  5 16  1  0  0  0  0
  5 17  1  0  0  0  0
  6 19  1  0  0  0  0
  6  5  1  0  0  0  0
  7 20  1  0  0  0  0
  8 21  1  0  0  0  0
  8  7  1  0  0  0  0
  9  3  1  0  0  0  0
  9  8  2  0  0  0  0
 10 11  1  0  0  0  0
 11  2  1  0  0  0  0
 11 12  2  0  0  0  0
 12 23  1  0  0  0  0
 13 24  1  0  0  0  0
 13 12  1  0  0  0  0
 14 13  2  0  0  0  0
 15 10  2  0  0  0  0
 15 14  1  0  0  0  0
 18  6  1  0  0  0  0
 22  9  1  0  0  0  0
 25 14  1  0  0  0  0
 26 15  1  0  0  0  0
 27 29  1  0  0  0  0
 28 32  1  0  0  0  0
 28 33  1  0  0  0  0
 29 34  1  0  0  0  0
 29 31  1  0  0  0  0
 30 27  1  0  0  0  0
 30 35  1  0  0  0  0
 31 38  1  0  0  0  0
 31 28  1  0  0  0  0
 34 39  1  0  0  0  0
 35 40  1  0  0  0  0
 35 34  2  0  0  0  0
 36 30  1  0  0  0  0
 37 31  1  0  0  0  0
M  CHG  1   1  -1
M  END
