2,5,6,7
 OpenBabel05122313063D

 71 74  0  0  1  0  0  0  0  0999 V2000
   -0.8271    0.0888   -2.6215 F   0  0  0  0  0  0  0  0  0  0  0  0
    0.1403   -2.4285   -0.8212 O   0  5  0  0  0  0  0  0  0  0  0  0
    2.2166   -3.0026   -1.4728 O   0  0  0  0  0  0  0  0  0  0  0  0
   -3.9382    0.1198    2.1581 O   0  0  0  0  0  0  0  0  0  0  0  0
    0.7597   -0.1959    0.2087 N   0  0  0  0  0  2  0  0  0  0  0  0
   -1.8485    0.1226    1.0551 N   0  0  0  0  0  2  0  0  0  0  0  0
   -2.4694   -2.0644   -0.3128 N   0  0  0  0  0  0  0  0  0  0  0  0
    1.4443   -2.2574   -0.8837 C   0  0  0  0  0  0  0  0  0  0  0  0
    1.9244   -1.0454   -0.0708 C   0  0  2  0  0  0  0  0  0  0  0  0
    2.6730   -0.4968   -0.6731 H   0  0  0  0  0  0  0  0  0  0  0  0
    0.8736    1.1065    0.3645 C   0  0  0  0  0  0  0  0  0  0  0  0
    2.2042    1.7416    0.0812 C   0  0  0  0  0  0  0  0  0  0  0  0
    3.0627    2.1447    1.1219 C   0  0  0  0  0  0  0  0  0  0  0  0
    2.7400    2.0222    2.1668 H   0  0  0  0  0  0  0  0  0  0  0  0
    4.3175    2.6992    0.8268 C   0  0  0  0  0  0  0  0  0  0  0  0
    4.9857    3.0044    1.6461 H   0  0  0  0  0  0  0  0  0  0  0  0
    4.7220    2.8590   -0.5075 C   0  0  0  0  0  0  0  0  0  0  0  0
    5.7088    3.2883   -0.7367 H   0  0  0  0  0  0  0  0  0  0  0  0
    3.8643    2.4703   -1.5500 C   0  0  0  0  0  0  0  0  0  0  0  0
    4.1749    2.5976   -2.5979 H   0  0  0  0  0  0  0  0  0  0  0  0
    2.6105    1.9141   -1.2588 C   0  0  0  0  0  0  0  0  0  0  0  0
    1.9347    1.5963   -2.0683 H   0  0  0  0  0  0  0  0  0  0  0  0
   -0.2268    1.9606    0.7899 C   0  0  0  0  0  0  0  0  0  0  0  0
    0.0083    3.3647    0.8123 C   0  0  0  0  0  3  0  0  0  0  0  0
    0.9731    3.7353    0.4414 H   0  0  0  0  0  0  0  0  0  0  0  0
   -0.9329    4.2711    1.2870 C   0  0  0  0  0  0  0  0  0  0  0  0
   -0.7178    5.3496    1.2835 H   0  0  0  0  0  0  0  0  0  0  0  0
   -2.1468    3.7724    1.7951 C   0  0  0  0  0  0  0  0  0  0  0  0
   -2.9000    4.4617    2.2078 H   0  0  0  0  0  0  0  0  0  0  0  0
   -2.4235    2.4076    1.7785 C   0  0  0  0  0  0  0  0  0  0  0  0
   -3.3705    2.0275    2.1723 H   0  0  0  0  0  0  0  0  0  0  0  0
   -1.5096    1.4591    1.2290 C   0  0  0  0  0  0  0  0  0  0  0  0
   -3.0828   -0.3880    1.4314 C   0  0  0  0  0  0  0  0  0  0  0  0
   -3.3421   -1.7796    0.8605 C   0  0  2  0  0  0  0  0  0  0  0  0
   -4.4119   -1.8120    0.5571 H   0  0  0  0  0  0  0  0  0  0  0  0
   -3.0433   -2.9233    1.8746 C   0  0  0  0  0  0  0  0  0  0  0  0
   -3.9914   -3.4088    2.1745 H   0  0  0  0  0  0  0  0  0  0  0  0
   -2.5773   -2.5263    2.7965 H   0  0  0  0  0  0  0  0  0  0  0  0
   -2.1124   -3.8973    1.1205 C   0  0  0  0  0  0  0  0  0  0  0  0
   -1.0488   -3.7133    1.3718 H   0  0  0  0  0  0  0  0  0  0  0  0
   -2.3320   -4.9604    1.3369 H   0  0  0  0  0  0  0  0  0  0  0  0
   -2.3343   -3.5476   -0.3443 C   0  0  0  0  0  0  0  0  0  0  0  0
   -1.4975   -3.8249   -1.0091 H   0  0  0  0  0  0  0  0  0  0  0  0
   -3.2898   -3.9765   -0.7264 H   0  0  0  0  0  0  0  0  0  0  0  0
   -2.9530   -1.5346   -1.6253 C   0  0  0  0  0  0  0  0  0  0  0  0
   -3.9594   -1.9702   -1.8222 H   0  0  0  0  0  0  0  0  0  0  0  0
   -2.2486   -1.9236   -2.3850 H   0  0  0  0  0  0  0  0  0  0  0  0
   -3.0251   -0.0296   -1.7090 C   0  0  0  0  0  0  0  0  0  0  0  0
   -1.9383    0.7288   -2.1875 C   0  0  0  0  0  0  0  0  0  0  0  0
   -1.9501    2.1254   -2.2168 C   0  0  0  0  0  0  0  0  0  0  0  0
   -1.0605    2.6599   -2.5782 H   0  0  0  0  0  0  0  0  0  0  0  0
   -3.0910    2.8061   -1.7700 C   0  0  0  0  0  0  0  0  0  0  0  0
   -3.1024    3.9057   -1.7716 H   0  0  0  0  0  0  0  0  0  0  0  0
   -4.2036    2.0842   -1.3118 C   0  0  0  0  0  0  0  0  0  0  0  0
   -5.1004    2.6128   -0.9586 H   0  0  0  0  0  0  0  0  0  0  0  0
   -4.1669    0.6831   -1.2922 C   0  0  0  0  0  0  0  0  0  0  0  0
   -5.0382    0.1214   -0.9221 H   0  0  0  0  0  0  0  0  0  0  0  0
    2.5971   -1.5119    1.2433 C   0  0  0  0  0  0  0  0  0  0  0  0
    2.6566   -0.6389    1.9287 H   0  0  0  0  0  0  0  0  0  0  0  0
    1.9274   -2.2498    1.7338 H   0  0  0  0  0  0  0  0  0  0  0  0
    3.9964   -2.0975    1.0196 C   0  0  0  0  0  0  0  0  0  0  0  0
    4.2977   -2.6682    1.9242 H   0  0  0  0  0  0  0  0  0  0  0  0
    3.9543   -2.8232    0.1813 H   0  0  0  0  0  0  0  0  0  0  0  0
    5.0583   -1.0226    0.7239 C   0  0  0  0  0  0  0  0  0  0  0  0
    4.7568   -0.4063   -0.1502 H   0  0  0  0  0  0  0  0  0  0  0  0
    5.0995   -0.3206    1.5890 H   0  0  0  0  0  0  0  0  0  0  0  0
    6.4274   -1.5887    0.4809 C   0  0  0  0  0  0  0  0  0  0  0  0
    6.8489   -2.2016    1.3008 H   0  0  0  0  0  0  0  0  0  0  0  0
    7.1505   -1.4206   -0.6394 C   0  0  0  0  0  0  0  0  0  0  0  0
    6.7632   -0.8262   -1.4844 H   0  0  0  0  0  0  0  0  0  0  0  0
    8.1490   -1.8696   -0.7576 H   0  0  0  0  0  0  0  0  0  0  0  0
  1 49  1  0  0  0  0
  3  8  2  0  0  0  0
  5 11  1  0  0  0  0
  6 32  1  0  0  0  0
  6 33  1  0  0  0  0
  7 34  1  0  0  0  0
  8  2  1  0  0  0  0
  8  9  1  0  0  0  0
  9 10  1  6  0  0  0
  9  5  1  0  0  0  0
  9 58  1  0  0  0  0
 11 23  2  0  0  0  0
 12 11  1  0  0  0  0
 12 13  1  0  0  0  0
 13 14  1  0  0  0  0
 15 13  2  0  0  0  0
 15 16  1  0  0  0  0
 17 15  1  0  0  0  0
 18 17  1  0  0  0  0
 19 21  1  0  0  0  0
 19 17  2  0  0  0  0
 20 19  1  0  0  0  0
 21 12  2  0  0  0  0
 22 21  1  0  0  0  0
 23 24  1  0  0  0  0
 23 32  1  0  0  0  0
 24 26  1  0  0  0  0
 25 24  1  0  0  0  0
 26 28  2  0  0  0  0
 27 26  1  0  0  0  0
 28 29  1  0  0  0  0
 30 28  1  0  0  0  0
 30 31  1  0  0  0  0
 32 30  2  0  0  0  0
 33  4  2  0  0  0  0
 34 35  1  6  0  0  0
 34 33  1  0  0  0  0
 34 36  1  0  0  0  0
 36 37  1  0  0  0  0
 36 38  1  0  0  0  0
 39 41  1  0  0  0  0
 39 40  1  0  0  0  0
 39 36  1  0  0  0  0
 42  7  1  0  0  0  0
 42 39  1  0  0  0  0
 43 42  1  0  0  0  0
 44 42  1  0  0  0  0
 45  7  1  0  0  0  0
 46 45  1  0  0  0  0
 47 45  1  0  0  0  0
 48 45  1  0  0  0  0
 48 56  1  0  0  0  0
 49 48  2  0  0  0  0
 50 49  1  0  0  0  0
 50 52  2  0  0  0  0
 51 50  1  0  0  0  0
 52 54  1  0  0  0  0
 53 52  1  0  0  0  0
 54 56  2  0  0  0  0
 54 55  1  0  0  0  0
 56 57  1  0  0  0  0
 58 60  1  0  0  0  0
 58 59  1  0  0  0  0
 61 58  1  0  0  0  0
 61 62  1  0  0  0  0
 63 61  1  0  0  0  0
 64 61  1  0  0  0  0
 64 66  1  0  0  0  0
 65 64  1  0  0  0  0
 67 64  1  0  0  0  0
 67 68  1  0  0  0  0
 69 67  2  0  0  0  0
 70 69  1  0  0  0  0
 71 69  1  0  0  0  0
M  CHG  1   2  -1
M  END
