1,6,7,8
 OpenBabel05122313063D

 70 74  0  0  1  0  0  0  0  0999 V2000
    1.1670   -0.3429   -2.1662 O   0  5  0  0  0  0  0  0  0  0  0  0
    1.9118    1.4129   -3.3736 O   0  0  0  0  0  0  0  0  0  0  0  0
   -0.3822   -2.9183    2.6542 O   0  0  0  0  0  0  0  0  0  0  0  0
    4.4471    0.0134    1.9616 O   0  0  0  0  0  0  0  0  0  0  0  0
    5.5461    1.8675    2.3418 O   0  0  0  0  0  0  0  0  0  0  0  0
    0.8163   -2.6406   -0.7803 N   0  0  0  0  0  0  0  0  0  0  0  0
   -0.6016   -1.2622    1.0025 N   0  0  0  0  0  2  0  0  0  0  0  0
   -0.1522    1.0173   -0.4649 N   0  0  0  0  0  2  0  0  0  0  0  0
    4.7864    1.1661    1.6787 N   0  0  0  0  0  0  0  0  0  0  0  0
    2.2586   -2.7865   -1.1545 C   0  0  0  0  0  0  0  0  0  0  0  0
    2.9837   -2.7393    0.1829 C   0  0  0  0  0  0  0  0  0  0  0  0
    2.0860   -3.6172    1.0617 C   0  0  0  0  0  0  0  0  0  0  0  0
    0.6576   -3.3109    0.5543 C   0  0  1  0  0  0  0  0  0  0  0  0
   -0.1624   -2.4673    1.5312 C   0  0  0  0  0  0  0  0  0  0  0  0
   -1.6745   -0.5682    1.5447 C   0  0  2  0  0  3  0  0  0  0  0  0
   -2.5482   -1.1689    2.4997 C   0  0  0  0  0  0  0  0  0  0  0  0
   -3.6984   -0.5285    2.9499 C   0  0  0  0  0  0  0  0  0  0  0  0
   -4.0330    0.7633    2.4979 C   0  0  0  0  0  0  0  0  0  0  0  0
   -3.1787    1.3939    1.6026 C   0  0  0  0  0  0  0  0  0  0  0  0
   -1.9962    0.7702    1.1094 C   0  0  0  0  0  0  0  0  0  0  0  0
   -1.1591    1.5407    0.2038 C   0  0  0  0  0  0  0  0  0  0  0  0
    0.7277    1.8375   -1.3084 C   0  0  2  0  0  0  0  0  0  0  0  0
    1.3141    0.9392   -2.4159 C   0  0  0  0  0  0  0  0  0  0  0  0
    1.8947    2.4494   -0.5030 C   0  0  0  0  0  0  0  0  0  0  0  0
    2.8103    1.4013    0.0899 C   0  0  1  0  0  0  0  0  0  0  0  0
    3.9489    0.8383   -0.7098 C   0  0  0  0  0  0  0  0  0  0  0  0
    4.2368    1.7680    0.4443 C   0  0  2  0  0  0  0  0  0  0  0  0
   -0.0993   -3.1542   -1.8482 C   0  0  0  0  0  0  0  0  0  0  0  0
   -1.5357   -2.7460   -1.6107 C   0  0  0  0  0  0  0  0  0  0  0  0
   -2.3900   -3.5108   -0.7964 C   0  0  0  0  0  0  0  0  0  0  0  0
   -3.6682   -3.0389   -0.4565 C   0  0  0  0  0  0  0  0  0  0  0  0
   -4.1118   -1.8007   -0.9424 C   0  0  0  0  0  0  0  0  0  0  0  0
   -3.2830   -1.0486   -1.7908 C   0  0  0  0  0  0  0  0  0  0  0  0
   -2.0046   -1.5170   -2.1242 C   0  0  0  0  0  0  0  0  0  0  0  0
   -1.4725    2.9979    0.0216 C   0  0  0  0  0  0  0  0  0  0  0  0
   -1.0787    3.9431    0.9893 C   0  0  0  0  0  0  0  0  0  0  0  0
   -1.3689    5.3037    0.8075 C   0  0  0  0  0  0  0  0  0  0  0  0
   -2.0616    5.7303   -0.3366 C   0  0  0  0  0  0  0  0  0  0  0  0
   -2.4675    4.7915   -1.2986 C   0  0  0  0  0  0  0  0  0  0  0  0
   -2.1741    3.4314   -1.1221 C   0  0  0  0  0  0  0  0  0  0  0  0
    2.3987   -3.7825   -1.6347 H   0  0  0  0  0  0  0  0  0  0  0  0
    2.5215   -1.9958   -1.8806 H   0  0  0  0  0  0  0  0  0  0  0  0
    3.0264   -1.7027    0.5746 H   0  0  0  0  0  0  0  0  0  0  0  0
    4.0248   -3.1090    0.1136 H   0  0  0  0  0  0  0  0  0  0  0  0
    2.3221   -4.6880    0.8999 H   0  0  0  0  0  0  0  0  0  0  0  0
    2.1669   -3.4191    2.1470 H   0  0  0  0  0  0  0  0  0  0  0  0
    0.0852   -4.2550    0.4374 H   0  0  0  0  0  0  0  0  0  0  0  0
   -2.2913   -2.1624    2.8786 H   0  0  0  0  0  0  0  0  0  0  0  0
   -4.3491   -1.0490    3.6697 H   0  0  0  0  0  0  0  0  0  0  0  0
   -4.9427    1.2701    2.8509 H   0  0  0  0  0  0  0  0  0  0  0  0
   -3.4188    2.4059    1.2502 H   0  0  0  0  0  0  0  0  0  0  0  0
    0.1674    2.6684   -1.7787 H   0  0  0  0  0  0  0  0  0  0  0  0
    2.4595    3.0917   -1.2099 H   0  0  0  0  0  0  0  0  0  0  0  0
    1.4835    3.1059    0.2914 H   0  0  0  0  0  0  0  0  0  0  0  0
    2.3456    0.7053    0.8101 H   0  0  0  0  0  0  0  0  0  0  0  0
    4.2159   -0.2160   -0.5514 H   0  0  0  0  0  0  0  0  0  0  0  0
    4.1109    1.2315   -1.7249 H   0  0  0  0  0  0  0  0  0  0  0  0
    4.6266    2.7838    0.2966 H   0  0  0  0  0  0  0  0  0  0  0  0
    0.0045   -4.2619   -1.9006 H   0  0  0  0  0  0  0  0  0  0  0  0
    0.2690   -2.7205   -2.7976 H   0  0  0  0  0  0  0  0  0  0  0  0
   -2.0488   -4.4826   -0.4062 H   0  0  0  0  0  0  0  0  0  0  0  0
   -4.3163   -3.6390    0.1994 H   0  0  0  0  0  0  0  0  0  0  0  0
   -5.1049   -1.4203   -0.6604 H   0  0  0  0  0  0  0  0  0  0  0  0
   -3.6340   -0.0847   -2.1900 H   0  0  0  0  0  0  0  0  0  0  0  0
   -1.3529   -0.9295   -2.7882 H   0  0  0  0  0  0  0  0  0  0  0  0
   -0.5520    3.6025    1.8938 H   0  0  0  0  0  0  0  0  0  0  0  0
   -1.0551    6.0347    1.5678 H   0  0  0  0  0  0  0  0  0  0  0  0
   -2.2901    6.7975   -0.4771 H   0  0  0  0  0  0  0  0  0  0  0  0
   -3.0172    5.1197   -2.1936 H   0  0  0  0  0  0  0  0  0  0  0  0
   -2.4933    2.6912   -1.8723 H   0  0  0  0  0  0  0  0  0  0  0  0
  2 23  2  0  0  0  0
  6 13  1  0  0  0  0
  7 14  1  0  0  0  0
  8 21  1  0  0  0  0
  9  4  2  0  0  0  0
  9  5  2  0  0  0  0
 10  6  1  0  0  0  0
 10 11  1  0  0  0  0
 11 43  1  0  0  0  0
 11 12  1  0  0  0  0
 12 46  1  0  0  0  0
 13 47  1  6  0  0  0
 13 12  1  0  0  0  0
 13 14  1  0  0  0  0
 14  3  2  0  0  0  0
 15  7  1  6  0  0  0
 15 16  1  0  0  0  0
 16 48  1  0  0  0  0
 16 17  2  0  0  0  0
 17 49  1  0  0  0  0
 18 50  1  0  0  0  0
 18 17  1  0  0  0  0
 19 18  2  0  0  0  0
 20 15  1  0  0  0  0
 20 19  1  0  0  0  0
 21 20  2  0  0  0  0
 22 52  1  6  0  0  0
 22 24  1  0  0  0  0
 22  8  1  0  0  0  0
 23  1  1  0  0  0  0
 23 22  1  0  0  0  0
 24 25  1  0  0  0  0
 24 54  1  0  0  0  0
 25 27  1  0  0  0  0
 25 55  1  1  0  0  0
 26 56  1  0  0  0  0
 26 25  1  0  0  0  0
 26 27  1  0  0  0  0
 27 58  1  6  0  0  0
 27  9  1  0  0  0  0
 28 29  1  0  0  0  0
 28  6  1  0  0  0  0
 29 30  1  0  0  0  0
 30 31  2  0  0  0  0
 30 61  1  0  0  0  0
 31 62  1  0  0  0  0
 32 63  1  0  0  0  0
 32 31  1  0  0  0  0
 33 32  2  0  0  0  0
 34 33  1  0  0  0  0
 34 29  2  0  0  0  0
 35 21  1  0  0  0  0
 35 36  1  0  0  0  0
 36 66  1  0  0  0  0
 37 36  2  0  0  0  0
 37 67  1  0  0  0  0
 38 37  1  0  0  0  0
 39 40  1  0  0  0  0
 39 38  2  0  0  0  0
 40 35  2  0  0  0  0
 41 10  1  0  0  0  0
 42 10  1  0  0  0  0
 44 11  1  0  0  0  0
 45 12  1  0  0  0  0
 51 19  1  0  0  0  0
 53 24  1  0  0  0  0
 57 26  1  0  0  0  0
 59 28  1  0  0  0  0
 60 28  1  0  0  0  0
 64 33  1  0  0  0  0
 65 34  1  0  0  0  0
 68 38  1  0  0  0  0
 69 39  1  0  0  0  0
 70 40  1  0  0  0  0
M  CHG  1   1  -1
M  END
