2,4,5,6
 OpenBabel05122313063D

 61 64  0  0  1  0  0  0  0  0999 V2000
   -0.7864   -4.1360    1.4590 O   0  5  0  0  0  0  0  0  0  0  0  0
    0.6833   -2.5071    0.9374 O   0  0  0  0  0  0  0  0  0  0  0  0
    2.8025    1.8219   -2.0855 O   0  0  0  0  0  0  0  0  0  0  0  0
   -0.9994   -0.9290   -0.1225 N   0  0  0  0  0  2  0  0  0  0  0  0
    1.0627    0.7061   -0.9466 N   0  0  0  0  0  2  0  0  0  0  0  0
    2.7810   -1.0221    0.1512 N   0  0  0  0  0  0  0  0  0  0  0  0
   -0.5074   -3.0734    0.9245 C   0  0  0  0  0  0  0  0  0  0  0  0
   -1.5370   -2.2817    0.0944 C   0  0  2  0  0  0  0  0  0  0  0  0
   -2.4844   -2.2426    0.6673 H   0  0  0  0  0  0  0  0  0  0  0  0
   -1.7785    0.1159   -0.2972 C   0  0  0  0  0  0  0  0  0  0  0  0
   -1.2683    1.4444   -0.6093 C   0  0  0  0  0  0  0  0  0  0  0  0
   -2.1925    2.5261   -0.5558 C   0  0  0  0  0  0  0  0  0  0  0  0
   -3.2222    2.3142   -0.2379 H   0  0  0  0  0  0  0  0  0  0  0  0
   -1.8347    3.8288   -0.8829 C   0  0  0  0  0  0  0  0  0  0  0  0
   -2.5725    4.6416   -0.8193 H   0  0  0  0  0  0  0  0  0  0  0  0
   -0.5175    4.0729   -1.3143 C   0  0  0  0  0  0  0  0  0  0  0  0
   -0.2080    5.0901   -1.6014 H   0  0  0  0  0  0  0  0  0  0  0  0
    0.4167    3.0428   -1.3837 C   0  0  0  0  0  0  0  0  0  0  0  0
    1.4338    3.2409   -1.7337 H   0  0  0  0  0  0  0  0  0  0  0  0
    0.0984    1.7063   -0.9975 C   0  0  1  0  0  3  0  0  0  0  0  0
    2.3587    0.8999   -1.3992 C   0  0  0  0  0  0  0  0  0  0  0  0
    3.3063   -0.2283   -0.9980 C   0  0  2  0  0  0  0  0  0  0  0  0
    4.2692    0.2514   -0.7179 H   0  0  0  0  0  0  0  0  0  0  0  0
    3.5390   -1.2599   -2.1423 C   0  0  0  0  0  0  0  0  0  0  0  0
    4.6066   -1.2527   -2.4351 H   0  0  0  0  0  0  0  0  0  0  0  0
    2.9541   -0.9987   -3.0446 H   0  0  0  0  0  0  0  0  0  0  0  0
    3.1366   -2.6200   -1.5405 C   0  0  0  0  0  0  0  0  0  0  0  0
    2.0727   -2.8539   -1.7506 H   0  0  0  0  0  0  0  0  0  0  0  0
    3.7483   -3.4608   -1.9201 H   0  0  0  0  0  0  0  0  0  0  0  0
    3.3081   -2.4023   -0.0447 C   0  0  0  0  0  0  0  0  0  0  0  0
    2.7386   -3.1009    0.5940 H   0  0  0  0  0  0  0  0  0  0  0  0
    4.3852   -2.4135    0.2434 H   0  0  0  0  0  0  0  0  0  0  0  0
    3.1176   -0.4860    1.5049 C   0  0  0  0  0  0  0  0  0  0  0  0
    2.8646   -1.2933    2.2191 H   0  0  0  0  0  0  0  0  0  0  0  0
    4.2162   -0.3078    1.5503 H   0  0  0  0  0  0  0  0  0  0  0  0
    2.3468    0.7663    1.8493 C   0  0  0  0  0  0  0  0  0  0  0  0
    1.0646    0.6555    2.4293 C   0  0  0  0  0  0  0  0  0  0  0  0
    0.6842   -0.3391    2.7086 H   0  0  0  0  0  0  0  0  0  0  0  0
    0.2812    1.7980    2.6425 C   0  0  0  0  0  0  0  0  0  0  0  0
   -0.7214    1.6998    3.0857 H   0  0  0  0  0  0  0  0  0  0  0  0
    0.7697    3.0651    2.2840 C   0  0  0  0  0  0  0  0  0  0  0  0
    0.1453    3.9589    2.4301 H   0  0  0  0  0  0  0  0  0  0  0  0
    2.0520    3.1857    1.7297 C   0  0  0  0  0  0  0  0  0  0  0  0
    2.4402    4.1751    1.4461 H   0  0  0  0  0  0  0  0  0  0  0  0
    2.8385    2.0413    1.5192 C   0  0  0  0  0  0  0  0  0  0  0  0
    3.8373    2.1422    1.0665 H   0  0  0  0  0  0  0  0  0  0  0  0
   -3.2644   -0.0579   -0.1687 C   0  0  0  0  0  0  0  0  0  0  0  0
   -4.0802   -0.1358   -1.3146 C   0  0  0  0  0  0  0  0  0  0  0  0
   -3.6199   -0.0540   -2.3108 H   0  0  0  0  0  0  0  0  0  0  0  0
   -5.4671   -0.3039   -1.1847 C   0  0  0  0  0  0  0  0  0  0  0  0
   -6.0957   -0.3668   -2.0857 H   0  0  0  0  0  0  0  0  0  0  0  0
   -6.0514   -0.3869    0.0890 C   0  0  0  0  0  0  0  0  0  0  0  0
   -7.1395   -0.5170    0.1894 H   0  0  0  0  0  0  0  0  0  0  0  0
   -5.2449   -0.2991    1.2350 C   0  0  0  0  0  0  0  0  0  0  0  0
   -5.6983   -0.3578    2.2359 H   0  0  0  0  0  0  0  0  0  0  0  0
   -3.8576   -0.1368    1.1081 C   0  0  0  0  0  0  0  0  0  0  0  0
   -3.2217   -0.0651    2.0041 H   0  0  0  0  0  0  0  0  0  0  0  0
   -1.7945   -3.0071   -1.2321 C   0  0  0  0  0  0  0  0  0  0  0  0
   -2.5938   -2.5064   -1.8125 H   0  0  0  0  0  0  0  0  0  0  0  0
   -2.1031   -4.0473   -1.0124 H   0  0  0  0  0  0  0  0  0  0  0  0
   -0.8705   -3.0304   -1.8447 H   0  0  0  0  0  0  0  0  0  0  0  0
  3 21  2  0  0  0  0
  4  8  1  0  0  0  0
  6 33  1  0  0  0  0
  7  2  2  0  0  0  0
  7  1  1  0  0  0  0
  8  9  1  1  0  0  0
  8  7  1  0  0  0  0
 10 47  1  0  0  0  0
 10  4  1  0  0  0  0
 11 12  1  0  0  0  0
 11 10  2  0  0  0  0
 12 13  1  0  0  0  0
 14 15  1  0  0  0  0
 14 12  2  0  0  0  0
 16 14  1  0  0  0  0
 17 16  1  0  0  0  0
 18 16  2  0  0  0  0
 18 20  1  0  0  0  0
 19 18  1  0  0  0  0
 20  5  1  1  0  0  0
 20 11  1  0  0  0  0
 21 22  1  0  0  0  0
 21  5  1  0  0  0  0
 22 23  1  1  0  0  0
 22  6  1  0  0  0  0
 24 27  1  0  0  0  0
 24 22  1  0  0  0  0
 25 24  1  0  0  0  0
 26 24  1  0  0  0  0
 27 30  1  0  0  0  0
 28 27  1  0  0  0  0
 29 27  1  0  0  0  0
 30  6  1  0  0  0  0
 30 32  1  0  0  0  0
 30 31  1  0  0  0  0
 33 35  1  0  0  0  0
 33 36  1  0  0  0  0
 33 34  1  0  0  0  0
 36 37  1  0  0  0  0
 37 39  2  0  0  0  0
 37 38  1  0  0  0  0
 39 40  1  0  0  0  0
 41 42  1  0  0  0  0
 41 39  1  0  0  0  0
 43 41  2  0  0  0  0
 44 43  1  0  0  0  0
 45 43  1  0  0  0  0
 45 36  2  0  0  0  0
 46 45  1  0  0  0  0
 47 56  1  0  0  0  0
 48 50  1  0  0  0  0
 48 47  2  0  0  0  0
 49 48  1  0  0  0  0
 50 52  2  0  0  0  0
 51 50  1  0  0  0  0
 52 53  1  0  0  0  0
 52 54  1  0  0  0  0
 54 55  1  0  0  0  0
 56 54  2  0  0  0  0
 56 57  1  0  0  0  0
 58 60  1  0  0  0  0
 58  8  1  0  0  0  0
 59 58  1  0  0  0  0
 61 58  1  0  0  0  0
M  CHG  1   1  -1
M  END
