1,4,5,6
 OpenBabel05122313063D

 55 56  0  0  1  0  0  0  0  0999 V2000
   -2.2719    0.9765   -0.5132 O   0  0  0  0  0  1  0  0  0  0  0  0
    3.1495    2.9428    1.7895 O   0  0  0  0  0  0  0  0  0  0  0  0
    2.3457   -1.7251    1.6166 O   0  0  0  0  0  0  0  0  0  0  0  0
   -1.1262   -1.1039    0.8278 N   0  0  0  0  0  2  0  0  0  0  0  0
    1.1095    0.0786    0.7968 N   0  0  0  0  0  2  0  0  0  0  0  0
    0.0087    2.1619   -0.6325 N   0  0  0  0  0  2  0  0  0  0  0  0
   -0.0134    4.2089   -1.4263 N   0  0  0  0  0  0  0  0  0  0  0  0
   -0.3645    5.1201   -1.7253 H   0  0  0  0  0  0  0  0  0  0  0  0
    1.3129    1.9894    2.7744 N   0  0  0  0  0  0  0  0  0  0  0  0
    1.2832    2.6879    3.5178 H   0  0  0  0  0  0  0  0  0  0  0  0
    0.5895    1.2733    2.7118 H   0  0  0  0  0  0  0  0  0  0  0  0
    2.3630   -2.8305   -0.9440 N   0  0  0  0  0  0  0  0  0  0  0  0
    2.3424   -2.9756    0.0798 H   0  0  0  0  0  0  0  0  0  0  0  0
    4.2920   -1.7476   -0.3231 N   0  0  0  0  0  0  0  0  0  0  0  0
    3.8644   -1.6832    0.6321 H   0  0  0  0  0  0  0  0  0  0  0  0
    5.2193   -1.3717   -0.5169 H   0  0  0  0  0  0  0  0  0  0  0  0
    3.6672   -1.8006   -2.5903 N   0  0  0  0  0  4  0  0  0  0  0  0
    4.4511   -1.2103   -2.8635 H   0  0  0  0  0  0  0  0  0  0  0  0
    3.1563   -2.2814   -3.3299 H   0  0  0  0  0  0  0  0  0  0  0  0
   -3.4039    0.3460   -0.3390 C   0  0  2  0  0  3  0  0  0  0  0  0
   -4.5951    0.9069   -0.8887 C   0  0  0  0  0  0  0  0  0  0  0  0
   -4.5061    1.8466   -1.4527 H   0  0  0  0  0  0  0  0  0  0  0  0
   -5.8266    0.2873   -0.7112 C   0  0  0  0  0  0  0  0  0  0  0  0
   -6.7276    0.7505   -1.1421 H   0  0  0  0  0  0  0  0  0  0  0  0
   -5.9435   -0.9270    0.0132 C   0  0  0  0  0  0  0  0  0  0  0  0
   -6.9256   -1.4022    0.1444 H   0  0  0  0  0  0  0  0  0  0  0  0
   -4.8023   -1.5041    0.5474 C   0  0  0  0  0  0  0  0  0  0  0  0
   -4.8670   -2.4500    1.1084 H   0  0  0  0  0  0  0  0  0  0  0  0
   -3.5217   -0.8955    0.3849 C   0  0  0  0  0  0  0  0  0  0  0  0
   -2.3678   -1.5372    0.9150 C   0  0  0  0  0  0  0  0  0  0  0  0
   -2.5356   -2.5009    1.4348 H   0  0  0  0  0  0  0  0  0  0  0  0
   -0.0542   -1.9383    1.3830 C   0  0  2  0  0  0  0  0  0  0  0  0
   -0.2176   -2.0696    2.4782 H   0  0  0  0  0  0  0  0  0  0  0  0
    1.2637   -1.1700    1.2734 C   0  0  0  0  0  0  0  0  0  0  0  0
    2.2695    0.9552    0.7536 C   0  0  1  0  0  0  0  0  0  0  0  0
    3.1693    0.3476    0.9798 H   0  0  0  0  0  0  0  0  0  0  0  0
    2.4530    1.6013   -0.6279 C   0  0  0  0  0  0  0  0  0  0  0  0
    3.3959    2.1787   -0.6168 H   0  0  0  0  0  0  0  0  0  0  0  0
    2.5330    0.8035   -1.3986 H   0  0  0  0  0  0  0  0  0  0  0  0
    1.3168    2.5216   -0.9246 C   0  0  0  0  0  0  0  0  0  0  0  0
    1.3105    3.8126   -1.4193 C   0  0  0  0  0  0  0  0  0  0  0  0
    2.1263    4.4663   -1.7404 H   0  0  0  0  0  0  0  0  0  0  0  0
   -0.7766    3.1982   -0.9450 C   0  0  0  0  0  3  0  0  0  0  0  0
   -1.8654    3.2082   -0.8432 H   0  0  0  0  0  0  0  0  0  0  0  0
    2.2830    2.0750    1.8291 C   0  0  0  0  0  0  0  0  0  0  0  0
    0.0181   -3.3553    0.7744 C   0  0  0  0  0  0  0  0  0  0  0  0
    0.9288   -3.8268    1.2037 H   0  0  0  0  0  0  0  0  0  0  0  0
   -0.8182   -3.9642    1.1722 H   0  0  0  0  0  0  0  0  0  0  0  0
   -0.0106   -3.4757   -0.7600 C   0  0  0  0  0  0  0  0  0  0  0  0
   -1.0061   -3.1707   -1.1422 H   0  0  0  0  0  0  0  0  0  0  0  0
    0.1043   -4.5495   -1.0151 H   0  0  0  0  0  0  0  0  0  0  0  0
    1.0277   -2.6527   -1.5303 C   0  0  0  0  0  0  0  0  0  0  0  0
    1.0234   -2.9716   -2.5933 H   0  0  0  0  0  0  0  0  0  0  0  0
    0.7522   -1.5735   -1.4951 H   0  0  0  0  0  0  0  0  0  0  0  0
    3.4523   -2.1219   -1.2977 C   0  0  0  0  0  0  0  0  0  0  0  0
  2 45  2  0  0  0  0
  4 30  1  0  0  0  0
  4 32  1  0  0  0  0
  5 34  1  0  0  0  0
  7 41  1  0  0  0  0
  7 43  1  0  0  0  0
  8  7  1  0  0  0  0
  9 10  1  0  0  0  0
 11  9  1  0  0  0  0
 12 13  1  0  0  0  0
 14 15  1  0  0  0  0
 16 14  1  0  0  0  0
 17 55  2  0  0  0  0
 18 17  1  0  0  0  0
 19 17  1  0  0  0  0
 20  1  1  1  0  0  0
 20 29  1  0  0  0  0
 21 23  2  0  0  0  0
 21 20  1  0  0  0  0
 22 21  1  0  0  0  0
 23 25  1  0  0  0  0
 24 23  1  0  0  0  0
 25 26  1  0  0  0  0
 25 27  2  0  0  0  0
 27 28  1  0  0  0  0
 29 27  1  0  0  0  0
 29 30  2  0  0  0  0
 30 31  1  0  0  0  0
 32 33  1  1  0  0  0
 34 32  1  0  0  0  0
 34  3  2  0  0  0  0
 35  5  1  0  0  0  0
 35 36  1  1  0  0  0
 35 45  1  0  0  0  0
 37 38  1  0  0  0  0
 37 35  1  0  0  0  0
 39 37  1  0  0  0  0
 40  6  1  0  0  0  0
 40 37  1  0  0  0  0
 41 40  2  0  0  0  0
 42 41  1  0  0  0  0
 43 44  1  0  0  0  0
 43  6  1  0  0  0  0
 45  9  1  0  0  0  0
 46 48  1  0  0  0  0
 46 47  1  0  0  0  0
 46 32  1  0  0  0  0
 49 46  1  0  0  0  0
 50 49  1  0  0  0  0
 51 49  1  0  0  0  0
 52 54  1  0  0  0  0
 52 12  1  0  0  0  0
 52 49  1  0  0  0  0
 53 52  1  0  0  0  0
 55 12  1  0  0  0  0
 55 14  1  0  0  0  0
M  END
