2,3,5,6
 OpenBabel05122313063D

 43 43  0  0  1  0  0  0  0  0999 V2000
   -4.4181   -1.2878    0.0214 S   0  0  0  0  0  0  0  0  0  0  0  0
    1.5240    0.4119   -0.0065 O   0  0  0  0  0  1  0  0  0  0  0  0
   -0.5510   -1.3680    0.0188 N   0  0  0  0  0  2  0  0  0  0  0  0
   -1.8381   -1.8034    0.0338 N   0  0  0  0  0  0  0  0  0  0  0  0
   -2.2186    0.5032    0.0032 N   0  0  0  0  0  2  0  0  0  0  0  0
   -0.1032    2.2722   -0.0927 N   0  0  0  0  0  2  0  0  0  0  0  0
    0.8818    2.5637   -0.1465 H   0  0  0  0  0  0  0  0  0  0  0  0
   -2.6937   -0.8075    0.0230 C   0  0  0  0  0  0  0  0  0  0  0  0
   -2.9682    1.6519    0.0075 C   0  0  2  0  0  3  0  0  0  0  0  0
   -2.3935    2.9233   -0.0431 C   0  0  0  0  0  0  0  0  0  0  0  0
   -3.0859    3.7755   -0.0373 H   0  0  0  0  0  0  0  0  0  0  0  0
   -1.0048    3.2293   -0.1042 C   0  0  0  0  0  0  0  0  0  0  0  0
    2.2756   -0.6467   -0.0027 C   0  0  2  0  0  3  0  0  0  0  0  0
    1.7808   -1.9606    0.0196 C   0  0  0  0  0  0  0  0  0  0  0  0
    2.4982   -2.7882    0.0636 H   0  0  0  0  0  0  0  0  0  0  0  0
    0.4108   -2.3061    0.0326 C   0  0  0  0  0  0  0  0  0  0  0  0
   -4.2469   -3.0936    0.0167 C   0  0  0  0  0  0  0  0  0  0  0  0
   -5.2856   -3.4779    0.0125 H   0  0  0  0  0  0  0  0  0  0  0  0
   -3.7087   -3.4397    0.9181 H   0  0  0  0  0  0  0  0  0  0  0  0
   -3.7031   -3.4347   -0.8834 H   0  0  0  0  0  0  0  0  0  0  0  0
   -4.4776    1.6152    0.0708 C   0  0  0  0  0  0  0  0  0  0  0  0
   -4.9133    1.1005   -0.8094 H   0  0  0  0  0  0  0  0  0  0  0  0
   -4.8769    2.6447    0.0977 H   0  0  0  0  0  0  0  0  0  0  0  0
   -4.8378    1.0811    0.9729 H   0  0  0  0  0  0  0  0  0  0  0  0
   -0.5809    4.6765   -0.1880 C   0  0  0  0  0  0  0  0  0  0  0  0
    0.5210    4.7803   -0.1695 H   0  0  0  0  0  0  0  0  0  0  0  0
   -1.0016    5.2587    0.6571 H   0  0  0  0  0  0  0  0  0  0  0  0
   -0.9593    5.1414   -1.1219 H   0  0  0  0  0  0  0  0  0  0  0  0
   -0.0009   -3.7532    0.0671 C   0  0  0  0  0  0  0  0  0  0  0  0
   -0.6347   -3.9962   -0.8096 H   0  0  0  0  0  0  0  0  0  0  0  0
   -0.6282   -3.9575    0.9582 H   0  0  0  0  0  0  0  0  0  0  0  0
    0.8837   -4.4153    0.0781 H   0  0  0  0  0  0  0  0  0  0  0  0
    3.7417   -0.3767    0.0080 C   0  0  0  0  0  0  0  0  0  0  0  0
    4.6945   -1.3392   -0.3961 C   0  0  0  0  0  0  0  0  0  0  0  0
    4.3602   -2.3216   -0.7600 H   0  0  0  0  0  0  0  0  0  0  0  0
    6.0637   -1.0447   -0.3718 C   0  0  0  0  0  0  0  0  0  0  0  0
    6.7896   -1.8048   -0.6989 H   0  0  0  0  0  0  0  0  0  0  0  0
    6.5104    0.2161    0.0572 C   0  0  0  0  0  0  0  0  0  0  0  0
    7.5867    0.4452    0.0764 H   0  0  0  0  0  0  0  0  0  0  0  0
    5.5730    1.1830    0.4563 C   0  0  0  0  0  0  0  0  0  0  0  0
    5.9138    2.1734    0.7953 H   0  0  0  0  0  0  0  0  0  0  0  0
    4.2039    0.8914    0.4275 C   0  0  0  0  0  0  0  0  0  0  0  0
    3.4613    1.6383    0.7414 H   0  0  0  0  0  0  0  0  0  0  0  0
  1  8  1  0  0  0  0
  3 16  1  0  0  0  0
  3  4  1  0  0  0  0
  5  9  1  0  0  0  0
  5  8  1  0  0  0  0
  7  6  1  0  0  0  0
  8  4  2  0  0  0  0
  9 10  1  1  0  0  0
  9 21  1  0  0  0  0
 10 11  1  0  0  0  0
 12  6  1  0  0  0  0
 12 10  2  0  0  0  0
 13  2  1  1  0  0  0
 13 33  1  0  0  0  0
 13 14  1  0  0  0  0
 14 16  2  0  0  0  0
 14 15  1  0  0  0  0
 16 29  1  0  0  0  0
 17  1  1  0  0  0  0
 17 19  1  0  0  0  0
 18 17  1  0  0  0  0
 20 17  1  0  0  0  0
 21 23  1  0  0  0  0
 21 24  1  0  0  0  0
 22 21  1  0  0  0  0
 25 26  1  0  0  0  0
 25 12  1  0  0  0  0
 25 27  1  0  0  0  0
 28 25  1  0  0  0  0
 29 32  1  0  0  0  0
 29 31  1  0  0  0  0
 30 29  1  0  0  0  0
 33 42  1  0  0  0  0
 34 36  1  0  0  0  0
 34 33  2  0  0  0  0
 35 34  1  0  0  0  0
 36 38  2  0  0  0  0
 37 36  1  0  0  0  0
 38 39  1  0  0  0  0
 38 40  1  0  0  0  0
 40 41  1  0  0  0  0
 42 40  2  0  0  0  0
 42 43  1  0  0  0  0
M  END
