1,2,5,6
 OpenBabel05122313063D

 44 47  0  0  0  0  0  0  0  0999 V2000
   -3.1307    1.7715   -0.3457 O   0  5  0  0  0  0  0  0  0  0  0  0
   -0.8282   -1.1932   -0.3355 N   0  0  0  0  0  2  0  0  0  0  0  0
    2.8066   -1.4962   -0.0631 N   0  0  0  0  0  0  0  0  0  0  0  0
    3.0369    1.2624    0.1632 N   0  0  0  0  0  0  0  0  0  0  0  0
   -0.5665    1.5960   -0.1912 N   0  0  0  0  0  2  0  0  0  0  0  0
   -3.3645   -0.8944   -0.4038 N   0  0  0  0  0  2  0  0  0  0  0  0
    0.4936   -1.5569   -0.3079 C   0  0  0  0  0  0  0  0  0  0  0  0
    1.6959   -0.7409   -0.1246 C   0  0  0  0  0  0  0  0  0  0  0  0
    4.0172   -0.9374    0.1105 C   0  0  0  0  0  0  0  0  0  0  0  0
    4.1382    0.4923    0.2350 C   0  0  0  0  0  0  0  0  0  0  0  0
    1.8242    0.7150   -0.0137 C   0  0  0  0  0  0  0  0  0  0  0  0
    0.7788    1.7412   -0.0868 C   0  0  0  0  0  0  0  0  0  0  0  0
   -1.1184    2.8842   -0.2165 C   0  0  0  0  0  0  0  0  0  0  0  0
   -0.0838    3.8612   -0.1307 C   0  0  0  0  0  0  0  0  0  0  0  0
   -0.2170    4.9492   -0.1307 H   0  0  0  0  0  0  0  0  0  0  0  0
    1.1013    3.1502   -0.0465 C   0  0  0  0  0  0  0  0  0  0  0  0
    2.1231    3.5290    0.0357 H   0  0  0  0  0  0  0  0  0  0  0  0
   -2.5133    2.8984   -0.3050 C   0  0  0  0  0  0  0  0  0  0  0  0
   -3.1139    3.8299   -0.3419 H   0  0  0  0  0  0  0  0  0  0  0  0
    5.4262    1.0775    0.4282 C   0  0  0  0  0  0  0  0  0  0  0  0
    5.4875    2.1717    0.5214 H   0  0  0  0  0  0  0  0  0  0  0  0
    6.5465    0.2652    0.4907 C   0  0  0  0  0  0  0  0  0  0  0  0
    7.5417    0.7112    0.6392 H   0  0  0  0  0  0  0  0  0  0  0  0
    6.4280   -1.1520    0.3635 C   0  0  0  0  0  0  0  0  0  0  0  0
    7.3346   -1.7741    0.4161 H   0  0  0  0  0  0  0  0  0  0  0  0
    5.1917   -1.7481    0.1767 C   0  0  0  0  0  0  0  0  0  0  0  0
    5.0731   -2.8370    0.0775 H   0  0  0  0  0  0  0  0  0  0  0  0
    0.5783   -2.9825   -0.4636 C   0  0  0  0  0  0  0  0  0  0  0  0
    1.5234   -3.5308   -0.4711 H   0  0  0  0  0  0  0  0  0  0  0  0
   -0.7166   -3.4788   -0.5859 C   0  0  0  0  0  0  0  0  0  0  0  0
   -1.0263   -4.5218   -0.7190 H   0  0  0  0  0  0  0  0  0  0  0  0
   -1.5729   -2.3528   -0.5004 C   0  0  0  0  0  0  0  0  0  0  0  0
   -2.9729   -2.1470   -0.5187 C   0  0  0  0  0  0  0  0  0  0  0  0
   -3.7026   -2.9715   -0.6106 H   0  0  0  0  0  0  0  0  0  0  0  0
   -4.7709   -0.5441   -0.2947 C   0  0  0  0  0  0  0  0  0  0  0  0
   -5.3837   -1.4007   -0.6576 H   0  0  0  0  0  0  0  0  0  0  0  0
   -4.9680    0.3236   -0.9543 H   0  0  0  0  0  0  0  0  0  0  0  0
   -5.1725   -0.1840    1.1445 C   0  0  0  0  0  0  0  0  0  0  0  0
   -4.5905    0.7108    1.4478 H   0  0  0  0  0  0  0  0  0  0  0  0
   -6.2387    0.1294    1.1238 H   0  0  0  0  0  0  0  0  0  0  0  0
   -4.9711   -1.3177    2.1480 C   0  0  0  0  0  0  0  0  0  0  0  0
   -5.5487   -2.2230    1.8638 H   0  0  0  0  0  0  0  0  0  0  0  0
   -5.3003   -1.0183    3.1629 H   0  0  0  0  0  0  0  0  0  0  0  0
   -3.9038   -1.6107    2.2194 H   0  0  0  0  0  0  0  0  0  0  0  0
  1 18  1  0  0  0  0
  2  7  1  0  0  0  0
  3  9  2  0  0  0  0
  4 10  2  0  0  0  0
  5 12  1  0  0  0  0
  6 35  1  0  0  0  0
  7  8  2  0  0  0  0
  8  3  1  0  0  0  0
  8 11  1  0  0  0  0
  9 26  1  0  0  0  0
  9 10  1  0  0  0  0
 10 20  1  0  0  0  0
 11  4  1  0  0  0  0
 12 16  1  0  0  0  0
 12 11  2  0  0  0  0
 13  5  1  0  0  0  0
 13 14  1  0  0  0  0
 14 15  1  0  0  0  0
 14 16  2  0  0  0  0
 16 17  1  0  0  0  0
 18 13  2  0  0  0  0
 19 18  1  0  0  0  0
 20 22  2  0  0  0  0
 20 21  1  0  0  0  0
 22 23  1  0  0  0  0
 24 25  1  0  0  0  0
 24 22  1  0  0  0  0
 26 24  2  0  0  0  0
 27 26  1  0  0  0  0
 28  7  1  0  0  0  0
 29 28  1  0  0  0  0
 30 32  1  0  0  0  0
 30 28  2  0  0  0  0
 31 30  1  0  0  0  0
 32  2  1  0  0  0  0
 33 32  2  0  0  0  0
 33  6  1  0  0  0  0
 34 33  1  0  0  0  0
 35 38  1  0  0  0  0
 36 35  1  0  0  0  0
 37 35  1  0  0  0  0
 38 39  1  0  0  0  0
 38 41  1  0  0  0  0
 40 38  1  0  0  0  0
 41 44  1  0  0  0  0
 41 43  1  0  0  0  0
 42 41  1  0  0  0  0
M  CHG  1   1  -1
M  END
