1,2,3,4
 OpenBabel05122313063D

 53 56  0  0  1  0  0  0  0  0999 V2000
   -2.4276    0.7374   -0.5986 O   0  5  0  0  0  0  0  0  0  0  0  0
    1.1607    0.8426    0.2034 N   0  0  0  0  0  2  0  0  0  0  0  0
   -0.5570    2.6355   -0.0095 N   0  0  0  0  0  2  0  0  0  0  0  0
   -0.4207   -1.0736   -0.0414 N   0  0  0  0  0  2  0  0  0  0  0  0
    3.6674   -2.4814   -0.3289 O   0  0  0  0  0  0  0  0  0  0  0  0
    4.3159   -3.1644   -0.5807 H   0  0  0  0  0  0  0  0  0  0  0  0
    2.8658    2.2484    0.9500 O   0  0  0  0  0  0  0  0  0  0  0  0
    1.7102    2.0304    0.5603 C   0  0  0  0  0  0  0  0  0  0  0  0
   -3.1485   -0.3210   -0.8623 C   0  0  0  0  0  0  0  0  0  0  0  0
    1.8905   -0.4047    0.1239 C   0  0  1  0  0  0  0  0  0  0  0  0
    2.7610   -0.3930    0.8134 H   0  0  0  0  0  0  0  0  0  0  0  0
    0.8683   -1.4663    0.5740 C   0  0  1  0  0  0  0  0  0  0  0  0
    1.1587   -2.4785    0.2259 H   0  0  0  0  0  0  0  0  0  0  0  0
   -1.3387   -1.9739   -0.2938 C   0  0  0  0  0  0  0  0  0  0  0  0
   -1.0741   -3.0351   -0.1299 H   0  0  0  0  0  0  0  0  0  0  0  0
    2.4157   -0.7023   -1.2757 C   0  0  0  0  0  0  0  0  0  0  0  0
   -0.1247   -2.5717    2.4753 N   0  0  0  0  0  0  0  0  0  0  0  0
    0.6577    3.0975    0.4021 C   0  0  1  0  0  3  0  0  0  0  0  0
    0.6712   -1.5586    2.0888 C   0  0  0  0  0  0  0  0  0  0  0  0
    3.3198   -1.7766   -1.4499 C   0  0  0  0  0  0  0  0  0  0  0  0
   -5.3211   -1.2203   -1.5834 C   0  0  0  0  0  0  0  0  0  0  0  0
   -6.3559   -1.0369   -1.9132 H   0  0  0  0  0  0  0  0  0  0  0  0
   -4.4987   -0.1380   -1.2922 C   0  0  0  0  0  0  0  0  0  0  0  0
   -4.8614    0.8963   -1.3844 H   0  0  0  0  0  0  0  0  0  0  0  0
   -3.5429   -2.7634   -1.0416 C   0  0  0  0  0  3  0  0  0  0  0  0
   -3.1545   -3.7888   -0.9331 H   0  0  0  0  0  0  0  0  0  0  0  0
   -2.6689   -1.6810   -0.7391 C   0  0  0  0  0  0  0  0  0  0  0  0
    3.8203   -2.0901   -2.7255 C   0  0  0  0  0  0  0  0  0  0  0  0
    4.5293   -2.9273   -2.8395 H   0  0  0  0  0  0  0  0  0  0  0  0
    2.0272    0.0324   -2.4050 C   0  0  0  0  0  0  0  0  0  0  0  0
    1.3315    0.8718   -2.2580 H   0  0  0  0  0  0  0  0  0  0  0  0
    1.2483   -0.6570    3.0037 C   0  0  0  0  0  0  0  0  0  0  0  0
    1.8930    0.1665    2.6655 H   0  0  0  0  0  0  0  0  0  0  0  0
   -0.1644    5.3613    0.4328 C   0  0  0  0  0  0  0  0  0  0  0  0
   -0.0169    6.4382    0.6045 H   0  0  0  0  0  0  0  0  0  0  0  0
    0.8869    4.4558    0.6340 C   0  0  0  0  0  0  0  0  0  0  0  0
    1.8920    4.7545    0.9660 H   0  0  0  0  0  0  0  0  0  0  0  0
   -1.5753    3.4979   -0.2014 C   0  0  0  0  0  0  0  0  0  0  0  0
   -2.5222    3.0371   -0.5236 H   0  0  0  0  0  0  0  0  0  0  0  0
    0.9787   -0.8307    4.3693 C   0  0  0  0  0  0  0  0  0  0  0  0
    1.4133   -0.1413    5.1093 H   0  0  0  0  0  0  0  0  0  0  0  0
   -4.8497   -2.5508   -1.4603 C   0  0  0  0  0  0  0  0  0  0  0  0
   -5.5095   -3.3996   -1.6903 H   0  0  0  0  0  0  0  0  0  0  0  0
   -1.4126    4.8726    0.0085 C   0  0  0  0  0  0  0  0  0  0  0  0
   -2.2624    5.5494   -0.1601 H   0  0  0  0  0  0  0  0  0  0  0  0
    3.4182   -1.3401   -3.8412 C   0  0  0  0  0  0  0  0  0  0  0  0
    3.8156   -1.5928   -4.8358 H   0  0  0  0  0  0  0  0  0  0  0  0
    2.5189   -0.2761   -3.6838 C   0  0  0  0  0  0  0  0  0  0  0  0
    2.2010    0.3166   -4.5540 H   0  0  0  0  0  0  0  0  0  0  0  0
   -0.3774   -2.7286    3.7813 C   0  0  0  0  0  0  0  0  0  0  0  0
   -1.0356   -3.5722    4.0565 H   0  0  0  0  0  0  0  0  0  0  0  0
    0.1493   -1.8854    4.7735 C   0  0  0  0  0  0  0  0  0  0  0  0
   -0.0884   -2.0545    5.8342 H   0  0  0  0  0  0  0  0  0  0  0  0
  2  8  1  0  0  0  0
  3 18  1  0  0  0  0
  4 12  1  0  0  0  0
  6  5  1  0  0  0  0
  8  7  2  0  0  0  0
  9 27  1  0  0  0  0
  9  1  1  0  0  0  0
 10  2  1  0  0  0  0
 10 12  1  0  0  0  0
 10 11  1  1  0  0  0
 12 13  1  6  0  0  0
 12 19  1  0  0  0  0
 14 15  1  0  0  0  0
 14  4  1  0  0  0  0
 16 10  1  0  0  0  0
 17 50  1  0  0  0  0
 18  8  1  6  0  0  0
 18 36  1  0  0  0  0
 19 17  2  0  0  0  0
 19 32  1  0  0  0  0
 20 16  1  0  0  0  0
 20  5  1  0  0  0  0
 21 42  2  0  0  0  0
 21 23  1  0  0  0  0
 22 21  1  0  0  0  0
 23  9  2  0  0  0  0
 24 23  1  0  0  0  0
 25 26  1  0  0  0  0
 25 27  1  0  0  0  0
 27 14  2  0  0  0  0
 28 20  2  0  0  0  0
 29 28  1  0  0  0  0
 30 31  1  0  0  0  0
 30 16  2  0  0  0  0
 32 40  2  0  0  0  0
 33 32  1  0  0  0  0
 34 35  1  0  0  0  0
 34 36  2  0  0  0  0
 36 37  1  0  0  0  0
 38  3  1  0  0  0  0
 38 44  2  0  0  0  0
 39 38  1  0  0  0  0
 40 52  1  0  0  0  0
 40 41  1  0  0  0  0
 42 25  1  0  0  0  0
 43 42  1  0  0  0  0
 44 34  1  0  0  0  0
 45 44  1  0  0  0  0
 46 48  2  0  0  0  0
 46 28  1  0  0  0  0
 47 46  1  0  0  0  0
 48 30  1  0  0  0  0
 49 48  1  0  0  0  0
 50 51  1  0  0  0  0
 50 52  2  0  0  0  0
 52 53  1  0  0  0  0
M  CHG  1   1  -1
M  END
