1,2,3,5
 OpenBabel05122313063D

 77 82  0  0  1  0  0  0  0  0999 V2000
   -3.0195   -0.8265    0.1385 N   0  0  0  0  0  0  0  0  0  0  0  0
   -1.3731    1.1920    0.4922 N   0  0  0  0  0  2  0  0  0  0  0  0
    0.6039   -0.2279   -0.7568 N   0  0  0  0  0  2  0  0  0  0  0  0
   -2.8714    2.1770    2.0329 O   0  0  0  0  0  0  0  0  0  0  0  0
   -1.0207   -2.1304   -1.2000 O   0  5  0  0  0  0  0  0  0  0  0  0
    0.5439   -3.5552   -1.9995 O   0  0  0  0  0  0  0  0  0  0  0  0
   -3.3167   -2.2512    0.4365 C   0  0  0  0  0  0  0  0  0  0  0  0
   -2.9847   -2.8781   -0.4108 H   0  0  0  0  0  0  0  0  0  0  0  0
   -4.4135   -2.3575    0.5846 H   0  0  0  0  0  0  0  0  0  0  0  0
   -2.5520   -2.5107    1.7363 C   0  0  0  0  0  0  0  0  0  0  0  0
   -3.0483   -3.2876    2.3485 H   0  0  0  0  0  0  0  0  0  0  0  0
   -1.5333   -2.8750    1.5011 H   0  0  0  0  0  0  0  0  0  0  0  0
   -2.4976   -1.1328    2.4505 C   0  0  0  0  0  0  0  0  0  0  0  0
   -1.4525   -0.8420    2.6754 H   0  0  0  0  0  0  0  0  0  0  0  0
   -3.0533   -1.1196    3.4069 H   0  0  0  0  0  0  0  0  0  0  0  0
   -3.1339   -0.1350    1.4520 C   0  0  1  0  0  0  0  0  0  0  0  0
   -4.2007    0.0305    1.7096 H   0  0  0  0  0  0  0  0  0  0  0  0
   -2.4496    1.2279    1.3674 C   0  0  0  0  0  0  0  0  0  0  0  0
   -0.6344    2.3202    0.1357 C   0  0  0  0  0  0  0  0  0  0  0  0
   -1.0600    3.6352    0.4819 C   0  0  0  0  0  0  0  0  0  0  0  0
   -1.9503    3.7318    1.1110 H   0  0  0  0  0  0  0  0  0  0  0  0
   -0.3780    4.7687    0.0404 C   0  0  0  0  0  0  0  0  0  0  0  0
   -0.7619    5.7621    0.3203 H   0  0  0  0  0  0  0  0  0  0  0  0
    0.7736    4.6534   -0.7576 C   0  0  0  0  0  0  0  0  0  0  0  0
    1.3029    5.5451   -1.1234 H   0  0  0  0  0  0  0  0  0  0  0  0
    1.2405    3.3806   -1.0711 C   0  0  0  0  0  3  0  0  0  0  0  0
    2.1457    3.2739   -1.6833 H   0  0  0  0  0  0  0  0  0  0  0  0
    0.5850    2.1983   -0.6301 C   0  0  0  0  0  0  0  0  0  0  0  0
    1.2241    0.9184   -0.9338 C   0  0  0  0  0  0  0  0  0  0  0  0
    2.6227    0.9225   -1.4716 C   0  0  0  0  0  0  0  0  0  0  0  0
    3.6982    1.3764   -0.6832 C   0  0  0  0  0  0  0  0  0  0  0  0
    3.5049    1.7347    0.3381 H   0  0  0  0  0  0  0  0  0  0  0  0
    5.0051    1.3470   -1.1883 C   0  0  0  0  0  0  0  0  0  0  0  0
    5.8395    1.6785   -0.5531 H   0  0  0  0  0  0  0  0  0  0  0  0
    5.2499    0.8777   -2.4879 C   0  0  0  0  0  0  0  0  0  0  0  0
    6.2778    0.8505   -2.8799 H   0  0  0  0  0  0  0  0  0  0  0  0
    4.1806    0.4414   -3.2864 C   0  0  0  0  0  0  0  0  0  0  0  0
    4.3644    0.0796   -4.3092 H   0  0  0  0  0  0  0  0  0  0  0  0
    2.8726    0.4614   -2.7815 C   0  0  0  0  0  0  0  0  0  0  0  0
    2.0326    0.1195   -3.4054 H   0  0  0  0  0  0  0  0  0  0  0  0
    1.2509   -1.5356   -0.8540 C   0  0  2  0  0  0  0  0  0  0  0  0
    2.1598   -1.5104   -1.4827 H   0  0  0  0  0  0  0  0  0  0  0  0
    0.2155   -2.5163   -1.4471 C   0  0  0  0  0  0  0  0  0  0  0  0
   -3.8301   -0.2386   -0.9749 C   0  0  0  0  0  0  0  0  0  0  0  0
   -3.5899   -0.8412   -1.8726 H   0  0  0  0  0  0  0  0  0  0  0  0
   -3.4407    0.7840   -1.1450 H   0  0  0  0  0  0  0  0  0  0  0  0
   -5.3225   -0.1953   -0.7344 C   0  0  0  0  0  0  0  0  0  0  0  0
   -6.1579   -1.2367   -1.1866 C   0  0  0  0  0  0  0  0  0  0  0  0
   -5.7180   -2.0779   -1.7457 H   0  0  0  0  0  0  0  0  0  0  0  0
   -7.5393   -1.2045   -0.9436 C   0  0  0  0  0  0  0  0  0  0  0  0
   -8.1789   -2.0229   -1.3074 H   0  0  0  0  0  0  0  0  0  0  0  0
   -8.1040   -0.1268   -0.2434 C   0  0  0  0  0  0  0  0  0  0  0  0
   -9.1877   -0.0993   -0.0533 H   0  0  0  0  0  0  0  0  0  0  0  0
   -7.2833    0.9203    0.2057 C   0  0  0  0  0  0  0  0  0  0  0  0
   -7.7211    1.7720    0.7480 H   0  0  0  0  0  0  0  0  0  0  0  0
   -5.9028    0.8879   -0.0405 C   0  0  0  0  0  0  0  0  0  0  0  0
   -5.2642    1.7141    0.3121 H   0  0  0  0  0  0  0  0  0  0  0  0
    1.6228   -2.0598    0.5627 C   0  0  0  0  0  0  0  0  0  0  0  0
    0.6779   -2.1614    1.1345 H   0  0  0  0  0  0  0  0  0  0  0  0
    2.0274   -3.0815    0.4234 H   0  0  0  0  0  0  0  0  0  0  0  0
    2.5708   -1.1763    1.3302 C   0  0  0  0  0  0  0  0  0  0  0  0
    2.0574   -0.2224    2.2071 C   0  0  0  0  0  0  0  0  0  0  0  0
    0.9651   -0.1363    2.3194 H   0  0  0  0  0  0  0  0  0  0  0  0
    2.9037    0.6428    2.9472 C   0  0  0  0  0  0  0  0  0  0  0  0
    2.4591    1.3815    3.6308 H   0  0  0  0  0  0  0  0  0  0  0  0
    4.2795    0.5524    2.8093 C   0  0  0  0  0  0  0  0  0  0  0  0
    4.9469    1.2139    3.3834 H   0  0  0  0  0  0  0  0  0  0  0  0
    4.8566   -0.3885    1.9061 C   0  0  0  0  0  0  0  0  0  0  0  0
    6.2673   -0.4639    1.7140 C   0  0  0  0  0  0  0  0  0  0  0  0
    6.9143    0.2017    2.3068 H   0  0  0  0  0  0  0  0  0  0  0  0
    6.8175   -1.3435    0.7943 C   0  0  0  0  0  0  0  0  0  0  0  0
    7.9080   -1.3845    0.6510 H   0  0  0  0  0  0  0  0  0  0  0  0
    5.9724   -2.1944    0.0349 C   0  0  0  0  0  0  0  0  0  0  0  0
    6.4113   -2.8882   -0.6979 H   0  0  0  0  0  0  0  0  0  0  0  0
    4.5967   -2.1595    0.2116 C   0  0  0  0  0  0  0  0  0  0  0  0
    3.9625   -2.8282   -0.3874 H   0  0  0  0  0  0  0  0  0  0  0  0
    3.9945   -1.2624    1.1438 C   0  0  0  0  0  0  0  0  0  0  0  0
  1  7  1  0  0  0  0
  1 16  1  0  0  0  0
  2 18  1  0  0  0  0
  6 43  2  0  0  0  0
  7  9  1  0  0  0  0
  7 10  1  0  0  0  0
  8  7  1  0  0  0  0
 10 11  1  0  0  0  0
 10 13  1  0  0  0  0
 12 10  1  0  0  0  0
 13 14  1  0  0  0  0
 13 15  1  0  0  0  0
 16 17  1  1  0  0  0
 16 13  1  0  0  0  0
 18 16  1  0  0  0  0
 18  4  2  0  0  0  0
 19 20  2  0  0  0  0
 19  2  1  0  0  0  0
 20 21  1  0  0  0  0
 22 23  1  0  0  0  0
 22 20  1  0  0  0  0
 24 22  2  0  0  0  0
 25 24  1  0  0  0  0
 26 24  1  0  0  0  0
 26 28  1  0  0  0  0
 27 26  1  0  0  0  0
 28 19  1  0  0  0  0
 29  3  1  0  0  0  0
 29 28  2  0  0  0  0
 30 29  1  0  0  0  0
 30 31  1  0  0  0  0
 31 32  1  0  0  0  0
 33 31  2  0  0  0  0
 33 34  1  0  0  0  0
 35 33  1  0  0  0  0
 36 35  1  0  0  0  0
 37 39  1  0  0  0  0
 37 35  2  0  0  0  0
 38 37  1  0  0  0  0
 39 30  2  0  0  0  0
 40 39  1  0  0  0  0
 41 42  1  6  0  0  0
 41  3  1  0  0  0  0
 41 58  1  0  0  0  0
 43  5  1  0  0  0  0
 43 41  1  0  0  0  0
 44 47  1  0  0  0  0
 44  1  1  0  0  0  0
 45 44  1  0  0  0  0
 46 44  1  0  0  0  0
 47 56  1  0  0  0  0
 48 50  1  0  0  0  0
 48 47  2  0  0  0  0
 49 48  1  0  0  0  0
 50 52  2  0  0  0  0
 51 50  1  0  0  0  0
 52 53  1  0  0  0  0
 52 54  1  0  0  0  0
 54 55  1  0  0  0  0
 56 54  2  0  0  0  0
 56 57  1  0  0  0  0
 58 59  1  0  0  0  0
 58 61  1  0  0  0  0
 60 58  1  0  0  0  0
 61 62  1  0  0  0  0
 62 63  1  0  0  0  0
 62 64  2  0  0  0  0
 64 65  1  0  0  0  0
 66 64  1  0  0  0  0
 66 67  1  0  0  0  0
 68 66  2  0  0  0  0
 69 68  1  0  0  0  0
 69 70  1  0  0  0  0
 71 69  2  0  0  0  0
 72 71  1  0  0  0  0
 73 75  2  0  0  0  0
 73 71  1  0  0  0  0
 74 73  1  0  0  0  0
 75 77  1  0  0  0  0
 76 75  1  0  0  0  0
 77 61  2  0  0  0  0
 77 68  1  0  0  0  0
M  CHG  1   5  -1
M  END
