1,29,41,56
 OpenBabel05122313063D

 79 82  0  0  1  0  0  0  0  0999 V2000
   -2.8682   -2.1381   -0.2807 N   0  0  0  0  0  0  0  0  0  0  0  0
   -2.4941   -3.5665   -0.4851 C   0  0  0  0  0  0  0  0  0  0  0  0
   -3.4356   -4.1492   -0.6119 H   0  0  0  0  0  0  0  0  0  0  0  0
   -1.8761   -3.6522   -1.3968 H   0  0  0  0  0  0  0  0  0  0  0  0
   -1.7707   -3.9486    0.8020 C   0  0  0  0  0  0  0  0  0  0  0  0
   -0.6942   -3.7164    0.7078 H   0  0  0  0  0  0  0  0  0  0  0  0
   -1.8604   -5.0320    1.0104 H   0  0  0  0  0  0  0  0  0  0  0  0
   -2.4294   -3.0721    1.8955 C   0  0  0  0  0  0  0  0  0  0  0  0
   -1.6628   -2.5306    2.4823 H   0  0  0  0  0  0  0  0  0  0  0  0
   -3.0392   -3.6558    2.6104 H   0  0  0  0  0  0  0  0  0  0  0  0
   -3.3356   -2.0685    1.1301 C   0  0  1  0  0  0  0  0  0  0  0  0
   -4.4017   -2.3797    1.1918 H   0  0  0  0  0  0  0  0  0  0  0  0
   -3.8546   -1.6912   -1.3125 C   0  0  0  0  0  0  0  0  0  0  0  0
   -3.4595   -2.0563   -2.2803 H   0  0  0  0  0  0  0  0  0  0  0  0
   -4.8225   -2.2059   -1.1161 H   0  0  0  0  0  0  0  0  0  0  0  0
   -4.0376   -0.1937   -1.3692 C   0  0  0  0  0  0  0  0  0  0  0  0
   -3.1458    0.5870   -2.1360 C   0  0  0  0  0  0  0  0  0  0  0  0
   -2.3808    0.0855   -2.7489 H   0  0  0  0  0  0  0  0  0  0  0  0
   -3.2306    1.9858   -2.1166 C   0  0  0  0  0  0  0  0  0  0  0  0
   -2.5249    2.5862   -2.7108 H   0  0  0  0  0  0  0  0  0  0  0  0
   -4.2105    2.6220   -1.3365 C   0  0  0  0  0  0  0  0  0  0  0  0
   -4.2633    3.7204   -1.3046 H   0  0  0  0  0  0  0  0  0  0  0  0
   -5.1148    1.8524   -0.5911 C   0  0  0  0  0  0  0  0  0  0  0  0
   -5.8831    2.3443    0.0235 H   0  0  0  0  0  0  0  0  0  0  0  0
   -5.0320    0.4505   -0.6129 C   0  0  0  0  0  0  0  0  0  0  0  0
   -5.7312   -0.1469   -0.0073 H   0  0  0  0  0  0  0  0  0  0  0  0
   -3.2306   -0.6535    1.6875 C   0  0  0  0  0  0  0  0  0  0  0  0
   -3.9651   -0.3193    2.6182 O   0  0  0  0  0  0  0  0  0  0  0  0
   -2.2282    0.0779    1.0641 N   0  0  0  0  0  2  0  0  0  0  0  0
   -2.0408    1.4339    1.2925 C   0  0  0  0  0  0  0  0  0  0  0  0
   -2.9342    2.1955    2.1057 C   0  0  0  0  0  0  0  0  0  0  0  0
   -3.7344    1.6550    2.6190 H   0  0  0  0  0  0  0  0  0  0  0  0
   -2.8154    3.5760    2.2389 C   0  0  0  0  0  0  0  0  0  0  0  0
   -3.5488    4.1136    2.8601 H   0  0  0  0  0  0  0  0  0  0  0  0
   -1.7839    4.2821    1.5911 C   0  0  0  0  0  0  0  0  0  0  0  0
   -1.6948    5.3740    1.6861 H   0  0  0  0  0  0  0  0  0  0  0  0
   -0.8616    3.5629    0.8414 C   0  0  0  0  0  3  0  0  0  0  0  0
   -0.0368    4.0947    0.3482 H   0  0  0  0  0  0  0  0  0  0  0  0
   -0.9448    2.1501    0.6791 C   0  0  0  0  0  0  0  0  0  0  0  0
    0.1167    1.5067   -0.0773 C   0  0  0  0  0  0  0  0  0  0  0  0
    0.0700    0.2449   -0.4527 N   0  0  0  0  0  2  0  0  0  0  0  0
    1.3208    2.3231   -0.4512 C   0  0  0  0  0  0  0  0  0  0  0  0
    1.4690    2.7944   -1.7721 C   0  0  0  0  0  0  0  0  0  0  0  0
    0.6779    2.5896   -2.5102 H   0  0  0  0  0  0  0  0  0  0  0  0
    2.6130    3.5169   -2.1416 C   0  0  0  0  0  0  0  0  0  0  0  0
    2.7200    3.8788   -3.1752 H   0  0  0  0  0  0  0  0  0  0  0  0
    3.6186    3.7754   -1.1959 C   0  0  0  0  0  0  0  0  0  0  0  0
    4.5185    4.3370   -1.4881 H   0  0  0  0  0  0  0  0  0  0  0  0
    3.4692    3.3224    0.1242 C   0  0  0  0  0  0  0  0  0  0  0  0
    4.2500    3.5268    0.8714 H   0  0  0  0  0  0  0  0  0  0  0  0
    2.3240    2.6036    0.4976 C   0  0  0  0  0  0  0  0  0  0  0  0
    2.2010    2.2537    1.5338 H   0  0  0  0  0  0  0  0  0  0  0  0
    1.1973   -0.3932   -1.1486 C   0  0  2  0  0  0  0  0  0  0  0  0
    1.6486    0.3295   -1.8527 H   0  0  0  0  0  0  0  0  0  0  0  0
    0.6436   -1.5597   -1.9953 C   0  0  0  0  0  0  0  0  0  0  0  0
   -0.5957   -1.8683   -1.6975 O   0  5  0  0  0  0  0  0  0  0  0  0
    1.3226   -2.1099   -2.8542 O   0  0  0  0  0  0  0  0  0  0  0  0
    2.3550   -0.8040   -0.1977 C   0  0  2  0  0  0  0  0  0  0  0  0
    2.6345    0.1023    0.3757 H   0  0  0  0  0  0  0  0  0  0  0  0
    3.6247   -1.2733   -0.9568 C   0  0  2  0  0  0  0  0  0  0  0  0
    3.4727   -2.3078   -1.3191 H   0  0  0  0  0  0  0  0  0  0  0  0
    4.8504   -1.3155   -0.0470 C   0  0  0  0  0  0  0  0  0  0  0  0
    5.6775   -2.2038   -0.0299 O   0  0  0  0  0  0  0  0  0  0  0  0
    4.9527   -0.1799    0.6956 O   0  0  0  0  0  0  0  0  0  0  0  0
    1.9445   -1.8336    0.8537 C   0  0  0  0  0  0  0  0  0  0  0  0
    2.9769   -2.1316    1.6843 F   0  0  0  0  0  0  0  0  0  0  0  0
    1.5363   -3.0048    0.3007 F   0  0  0  0  0  0  0  0  0  0  0  0
    0.9343   -1.3907    1.6473 F   0  0  0  0  0  0  0  0  0  0  0  0
    3.9712   -0.3893   -2.1705 C   0  0  0  0  0  0  0  0  0  0  0  0
    3.2325   -0.5597   -2.9762 H   0  0  0  0  0  0  0  0  0  0  0  0
    4.9663   -0.6750   -2.5644 H   0  0  0  0  0  0  0  0  0  0  0  0
    4.0021    0.6849   -1.8967 H   0  0  0  0  0  0  0  0  0  0  0  0
    6.0800   -0.1154    1.5914 C   0  0  0  0  0  0  0  0  0  0  0  0
    7.0080   -0.3283    1.0204 H   0  0  0  0  0  0  0  0  0  0  0  0
    5.9768   -0.9242    2.3462 H   0  0  0  0  0  0  0  0  0  0  0  0
    6.0962    1.2589    2.2278 C   0  0  0  0  0  0  0  0  0  0  0  0
    6.9380    1.3373    2.9439 H   0  0  0  0  0  0  0  0  0  0  0  0
    5.1548    1.4538    2.7798 H   0  0  0  0  0  0  0  0  0  0  0  0
    6.2203    2.0492    1.4608 H   0  0  0  0  0  0  0  0  0  0  0  0
  1 11  1  0  0  0  0
  2  1  1  0  0  0  0
  2  5  1  0  0  0  0
  3  2  1  0  0  0  0
  4  2  1  0  0  0  0
  5  7  1  0  0  0  0
  5  8  1  0  0  0  0
  6  5  1  0  0  0  0
  8  9  1  0  0  0  0
  8 10  1  0  0  0  0
 11 12  1  1  0  0  0
 11 27  1  0  0  0  0
 11  8  1  0  0  0  0
 13 15  1  0  0  0  0
 13  1  1  0  0  0  0
 14 13  1  0  0  0  0
 16 13  1  0  0  0  0
 16 25  1  0  0  0  0
 17 19  1  0  0  0  0
 17 16  2  0  0  0  0
 18 17  1  0  0  0  0
 19 21  2  0  0  0  0
 20 19  1  0  0  0  0
 21 22  1  0  0  0  0
 21 23  1  0  0  0  0
 23 24  1  0  0  0  0
 25 23  2  0  0  0  0
 25 26  1  0  0  0  0
 27 28  2  0  0  0  0
 29 30  1  0  0  0  0
 29 27  1  0  0  0  0
 30 31  2  0  0  0  0
 31 33  1  0  0  0  0
 31 32  1  0  0  0  0
 33 34  1  0  0  0  0
 35 36  1  0  0  0  0
 35 33  2  0  0  0  0
 37 35  1  0  0  0  0
 38 37  1  0  0  0  0
 39 37  1  0  0  0  0
 39 30  1  0  0  0  0
 40 39  2  0  0  0  0
 41 40  1  0  0  0  0
 42 40  1  0  0  0  0
 42 51  1  0  0  0  0
 43 42  2  0  0  0  0
 44 43  1  0  0  0  0
 45 43  1  0  0  0  0
 45 47  2  0  0  0  0
 46 45  1  0  0  0  0
 47 49  1  0  0  0  0
 48 47  1  0  0  0  0
 49 51  2  0  0  0  0
 49 50  1  0  0  0  0
 51 52  1  0  0  0  0
 53 54  1  6  0  0  0
 53 41  1  0  0  0  0
 53 58  1  0  0  0  0
 55 56  1  0  0  0  0
 55 53  1  0  0  0  0
 57 55  2  0  0  0  0
 58 59  1  1  0  0  0
 58 65  1  0  0  0  0
 60 61  1  6  0  0  0
 60 58  1  0  0  0  0
 60 62  1  0  0  0  0
 62 63  2  0  0  0  0
 62 64  1  0  0  0  0
 64 73  1  0  0  0  0
 65 68  1  0  0  0  0
 65 66  1  0  0  0  0
 67 65  1  0  0  0  0
 69 72  1  0  0  0  0
 69 60  1  0  0  0  0
 70 69  1  0  0  0  0
 71 69  1  0  0  0  0
 73 76  1  0  0  0  0
 73 75  1  0  0  0  0
 74 73  1  0  0  0  0
 76 78  1  0  0  0  0
 76 77  1  0  0  0  0
 79 76  1  0  0  0  0
M  CHG  1  56  -1
M  END
