2,3,4,6
 OpenBabel05122313063D

 43 45  0  0  1  0  0  0  0  0999 V2000
    2.4622   -3.5968    0.6598 Br  0  0  0  0  0  0  0  0  0  0  0  0
    0.6521    0.0699   -0.1008 N   0  0  0  0  0  2  0  0  0  0  0  0
   -1.7348    1.4125    0.2022 N   0  0  0  0  0  2  0  0  0  0  0  0
   -2.9908   -0.7777   -0.2157 N   0  0  0  0  0  2  0  0  0  0  0  0
    0.0989   -3.9890   -1.2577 O   0  5  0  0  0  0  0  0  0  0  0  0
   -0.8499   -1.9724   -1.0673 O   0  0  0  0  0  0  0  0  0  0  0  0
   -3.6052    2.3659    1.2846 O   0  0  0  0  0  0  0  0  0  0  0  0
    0.1042   -2.8417   -0.8258 C   0  0  0  0  0  0  0  0  0  0  0  0
    1.2280   -2.3125    0.0247 C   0  0  0  0  0  0  0  0  0  0  0  0
    1.4649   -1.0001    0.3007 C   0  0  0  0  0  0  0  0  0  0  0  0
    2.3665   -0.7337    0.8737 H   0  0  0  0  0  0  0  0  0  0  0  0
    1.1897    1.2920   -0.1450 C   0  0  0  0  0  0  0  0  0  0  0  0
    0.4080    2.5054   -0.2910 C   0  0  0  0  0  0  0  0  0  0  0  0
    1.0953    3.7000   -0.6573 C   0  0  0  0  0  3  0  0  0  0  0  0
    2.1607    3.6298   -0.9139 H   0  0  0  0  0  0  0  0  0  0  0  0
    0.4580    4.9329   -0.7133 C   0  0  0  0  0  0  0  0  0  0  0  0
    1.0139    5.8330   -1.0124 H   0  0  0  0  0  0  0  0  0  0  0  0
   -0.9078    5.0034   -0.3753 C   0  0  0  0  0  0  0  0  0  0  0  0
   -1.4335    5.9706   -0.3958 H   0  0  0  0  0  0  0  0  0  0  0  0
   -1.6194    3.8587   -0.0250 C   0  0  0  0  0  0  0  0  0  0  0  0
   -2.6765    3.9311    0.2487 H   0  0  0  0  0  0  0  0  0  0  0  0
   -1.0073    2.5713   -0.0153 C   0  0  0  0  0  0  0  0  0  0  0  0
   -3.0250    1.4363    0.7205 C   0  0  0  0  0  0  0  0  0  0  0  0
   -3.7271    0.1388    0.4543 C   0  0  1  0  0  3  0  0  0  0  0  0
   -5.0606   -0.0879    0.8035 C   0  0  0  0  0  0  0  0  0  0  0  0
   -5.5915    0.7036    1.3515 H   0  0  0  0  0  0  0  0  0  0  0  0
   -5.6511   -1.3033    0.4284 C   0  0  0  0  0  0  0  0  0  0  0  0
   -6.6992   -1.5192    0.6841 H   0  0  0  0  0  0  0  0  0  0  0  0
   -4.8832   -2.2387   -0.2837 C   0  0  0  0  0  0  0  0  0  0  0  0
   -5.3090   -3.2001   -0.6047 H   0  0  0  0  0  0  0  0  0  0  0  0
   -3.5466   -1.9485   -0.5890 C   0  0  0  0  0  0  0  0  0  0  0  0
   -2.8722   -2.6354   -1.1246 H   0  0  0  0  0  0  0  0  0  0  0  0
    2.6738    1.4274   -0.0254 C   0  0  0  0  0  0  0  0  0  0  0  0
    3.5174    0.8310   -0.9884 C   0  0  0  0  0  0  0  0  0  0  0  0
    3.0724    0.2678   -1.8224 H   0  0  0  0  0  0  0  0  0  0  0  0
    4.9085    0.9628   -0.8866 C   0  0  0  0  0  0  0  0  0  0  0  0
    5.5566    0.5036   -1.6479 H   0  0  0  0  0  0  0  0  0  0  0  0
    5.4727    1.6743    0.1849 C   0  0  0  0  0  0  0  0  0  0  0  0
    6.5659    1.7700    0.2676 H   0  0  0  0  0  0  0  0  0  0  0  0
    4.6404    2.2633    1.1504 C   0  0  0  0  0  0  0  0  0  0  0  0
    5.0789    2.8181    1.9935 H   0  0  0  0  0  0  0  0  0  0  0  0
    3.2472    2.1500    1.0428 C   0  0  0  0  0  0  0  0  0  0  0  0
    2.5903    2.6178    1.7911 H   0  0  0  0  0  0  0  0  0  0  0  0
  2 10  1  0  0  0  0
  3 23  1  0  0  0  0
  4 24  1  0  0  0  0
  5  8  1  0  0  0  0
  6  8  2  0  0  0  0
  8  9  1  0  0  0  0
  9 10  2  0  0  0  0
  9  1  1  0  0  0  0
 10 11  1  0  0  0  0
 12  2  1  0  0  0  0
 12 33  1  0  0  0  0
 13 12  2  0  0  0  0
 13 22  1  0  0  0  0
 14 13  1  0  0  0  0
 15 14  1  0  0  0  0
 16 14  1  0  0  0  0
 16 18  2  0  0  0  0
 17 16  1  0  0  0  0
 18 20  1  0  0  0  0
 19 18  1  0  0  0  0
 20 22  2  0  0  0  0
 20 21  1  0  0  0  0
 22  3  1  0  0  0  0
 23  7  2  0  0  0  0
 24 23  1  6  0  0  0
 24 25  1  0  0  0  0
 25 26  1  0  0  0  0
 27 28  1  0  0  0  0
 27 25  2  0  0  0  0
 29 27  1  0  0  0  0
 30 29  1  0  0  0  0
 31 29  2  0  0  0  0
 31  4  1  0  0  0  0
 32 31  1  0  0  0  0
 33 42  1  0  0  0  0
 34 36  1  0  0  0  0
 34 33  2  0  0  0  0
 35 34  1  0  0  0  0
 36 38  2  0  0  0  0
 37 36  1  0  0  0  0
 38 39  1  0  0  0  0
 38 40  1  0  0  0  0
 40 41  1  0  0  0  0
 42 40  2  0  0  0  0
 42 43  1  0  0  0  0
M  CHG  1   5  -1
M  END
