1,5,6,7
 OpenBabel05122313063D

 35 36  0  0  1  0  0  0  0  0999 V2000
    0.2205   -1.6304   -0.7497 N   0  0  0  0  0  0  0  0  0  0  0  0
    0.6371   -2.6874    2.7881 N   0  0  0  0  0  0  0  0  0  0  0  0
    0.6934   -2.2377    3.7047 H   0  0  0  0  0  0  0  0  0  0  0  0
    0.7681   -3.6963    2.7298 H   0  0  0  0  0  0  0  0  0  0  0  0
    1.9233    0.2745   -0.0157 N   0  0  0  0  0  2  0  0  0  0  0  0
   -1.8677   -0.2413    0.0061 N   0  0  0  0  0  2  0  0  0  0  0  0
    0.2084   -0.6927    1.7896 O   0  0  0  0  0  1  0  0  0  0  0  0
    0.2088   -2.6229    0.3616 C   0  0  0  0  0  0  0  0  0  0  0  0
    0.9761   -3.4114    0.2090 H   0  0  0  0  0  0  0  0  0  0  0  0
   -0.7770   -3.1330    0.3806 H   0  0  0  0  0  0  0  0  0  0  0  0
    0.3749   -1.9306    1.7080 C   0  0  2  0  0  3  0  0  0  0  0  0
    1.5176   -1.5968   -1.4761 C   0  0  0  0  0  0  0  0  0  0  0  0
    1.3229   -1.1161   -2.4568 H   0  0  0  0  0  0  0  0  0  0  0  0
    1.9134   -2.6155   -1.6830 H   0  0  0  0  0  0  0  0  0  0  0  0
    2.5037   -0.7547   -0.7028 C   0  0  1  0  0  3  0  0  0  0  0  0
    3.8889   -0.9406   -0.7194 C   0  0  0  0  0  0  0  0  0  0  0  0
    4.3225   -1.7837   -1.2773 H   0  0  0  0  0  0  0  0  0  0  0  0
    4.7077   -0.0344   -0.0241 C   0  0  0  0  0  0  0  0  0  0  0  0
    5.8005   -0.1556   -0.0267 H   0  0  0  0  0  0  0  0  0  0  0  0
    4.1027    1.0193    0.6789 C   0  0  0  0  0  0  0  0  0  0  0  0
    4.7046    1.7468    1.2420 H   0  0  0  0  0  0  0  0  0  0  0  0
    2.7096    1.1391    0.6693 C   0  0  0  0  0  0  0  0  0  0  0  0
    2.1702    1.9299    1.2124 H   0  0  0  0  0  0  0  0  0  0  0  0
   -0.9769   -1.7623   -1.6314 C   0  0  0  0  0  0  0  0  0  0  0  0
   -1.1262   -2.8011   -1.9998 H   0  0  0  0  0  0  0  0  0  0  0  0
   -0.8029   -1.0921   -2.4965 H   0  0  0  0  0  0  0  0  0  0  0  0
   -2.1709   -1.2515   -0.8637 C   0  0  2  0  0  3  0  0  0  0  0  0
   -3.4732   -1.7375   -1.0040 C   0  0  0  0  0  0  0  0  0  0  0  0
   -3.6802   -2.5530   -1.7123 H   0  0  0  0  0  0  0  0  0  0  0  0
   -4.5007   -1.1706   -0.2303 C   0  0  0  0  0  0  0  0  0  0  0  0
   -5.5356   -1.5285   -0.3296 H   0  0  0  0  0  0  0  0  0  0  0  0
   -4.1764   -0.1546    0.6803 C   0  0  0  0  0  0  0  0  0  0  0  0
   -4.9445    0.3061    1.3174 H   0  0  0  0  0  0  0  0  0  0  0  0
   -2.8500    0.2774    0.7781 C   0  0  0  0  0  0  0  0  0  0  0  0
   -2.5387    1.0573    1.4873 H   0  0  0  0  0  0  0  0  0  0  0  0
  1  8  1  0  0  0  0
  2  3  1  0  0  0  0
  4  2  1  0  0  0  0
  5 22  1  0  0  0  0
  6 34  1  0  0  0  0
  8 10  1  0  0  0  0
  8 11  1  0  0  0  0
  9  8  1  0  0  0  0
 11  7  1  1  0  0  0
 11  2  1  0  0  0  0
 12  1  1  0  0  0  0
 13 12  1  0  0  0  0
 14 12  1  0  0  0  0
 15 12  1  6  0  0  0
 15  5  1  0  0  0  0
 16 15  1  0  0  0  0
 16 18  2  0  0  0  0
 17 16  1  0  0  0  0
 18 20  1  0  0  0  0
 19 18  1  0  0  0  0
 20 21  1  0  0  0  0
 22 20  2  0  0  0  0
 22 23  1  0  0  0  0
 24  1  1  0  0  0  0
 25 24  1  0  0  0  0
 26 24  1  0  0  0  0
 27 24  1  6  0  0  0
 27  6  1  0  0  0  0
 28 27  1  0  0  0  0
 28 30  2  0  0  0  0
 29 28  1  0  0  0  0
 30 32  1  0  0  0  0
 31 30  1  0  0  0  0
 32 34  2  0  0  0  0
 32 33  1  0  0  0  0
 34 35  1  0  0  0  0
M  END
