1,6,7,8
 OpenBabel05122313063D

 71 75  0  0  1  0  0  0  0  0999 V2000
   -0.5844   -1.1684   -2.4784 O   0  5  0  0  0  0  0  0  0  0  0  0
    1.0113   -2.4122   -3.5011 O   0  0  0  0  0  0  0  0  0  0  0  0
    1.9965   -1.8617    1.7262 O   0  0  0  0  0  0  0  0  0  0  0  0
    0.1127   -3.1019    1.4227 O   0  0  0  0  0  0  0  0  0  0  0  0
   -2.7497    0.2611    2.5928 O   0  0  0  0  0  0  0  0  0  0  0  0
    0.9425   -0.3144   -0.6339 N   0  0  0  0  0  2  0  0  0  0  0  0
   -1.1743    0.4333    0.8643 N   0  0  0  0  0  2  0  0  0  0  0  0
   -2.8231   -0.5679   -0.9724 N   0  0  0  0  0  0  0  0  0  0  0  0
    0.6006   -1.7303   -2.5727 C   0  0  0  0  0  0  0  0  0  0  0  0
    1.4186   -1.4973   -1.2963 C   0  0  2  0  0  0  0  0  0  0  0  0
    1.5055   -2.8031   -0.4378 C   0  0  1  0  0  0  0  0  0  0  0  0
    1.0031   -3.6821   -0.8682 H   0  0  0  0  0  0  0  0  0  0  0  0
    2.7173   -2.2082   -1.1021 C   0  0  0  0  0  0  0  0  0  0  0  0
    3.4725   -1.7814   -0.4297 H   0  0  0  0  0  0  0  0  0  0  0  0
    3.0759   -2.7161   -2.0108 H   0  0  0  0  0  0  0  0  0  0  0  0
    1.2833   -2.5508    1.0137 C   0  0  0  0  0  0  0  0  0  0  0  0
   -0.3116   -2.7698    2.7697 C   0  0  0  0  0  0  0  0  0  0  0  0
   -1.4074   -2.9264    2.7538 H   0  0  0  0  0  0  0  0  0  0  0  0
   -0.1115   -1.6941    2.9475 H   0  0  0  0  0  0  0  0  0  0  0  0
    0.3646   -3.6433    3.8117 C   0  0  0  0  0  0  0  0  0  0  0  0
   -0.0502   -3.4180    4.8148 H   0  0  0  0  0  0  0  0  0  0  0  0
    1.4537   -3.4479    3.8374 H   0  0  0  0  0  0  0  0  0  0  0  0
    0.1965   -4.7184    3.6012 H   0  0  0  0  0  0  0  0  0  0  0  0
    1.6565    0.5864    0.0097 C   0  0  0  0  0  0  0  0  0  0  0  0
    1.0221    1.5512    0.9009 C   0  0  0  0  0  0  0  0  0  0  0  0
   -0.3173    1.3789    1.4105 C   0  0  0  0  0  0  0  0  0  0  0  0
   -0.7516    2.2733    2.4308 C   0  0  0  0  0  0  0  0  0  0  0  0
   -1.7369    2.1048    2.8774 H   0  0  0  0  0  0  0  0  0  0  0  0
    0.0342    3.3457    2.8445 C   0  0  0  0  0  0  0  0  0  0  0  0
   -0.3578    4.0273    3.6155 H   0  0  0  0  0  0  0  0  0  0  0  0
    1.3047    3.5716    2.2799 C   0  0  0  0  0  0  0  0  0  0  0  0
    1.9164    4.4318    2.5884 H   0  0  0  0  0  0  0  0  0  0  0  0
    1.7846    2.6698    1.3361 C   0  0  0  0  0  3  0  0  0  0  0  0
    2.7829    2.8188    0.9032 H   0  0  0  0  0  0  0  0  0  0  0  0
    3.1311    0.6569   -0.2029 C   0  0  0  0  0  0  0  0  0  0  0  0
    4.0344    0.5006    0.8691 C   0  0  0  0  0  0  0  0  0  0  0  0
    3.6388    0.2930    1.8729 H   0  0  0  0  0  0  0  0  0  0  0  0
    5.4148    0.5621    0.6355 C   0  0  0  0  0  0  0  0  0  0  0  0
    6.1157    0.4244    1.4727 H   0  0  0  0  0  0  0  0  0  0  0  0
    5.9043    0.7918   -0.6616 C   0  0  0  0  0  0  0  0  0  0  0  0
    6.9891    0.8414   -0.8406 H   0  0  0  0  0  0  0  0  0  0  0  0
    5.0078    0.9555   -1.7297 C   0  0  0  0  0  0  0  0  0  0  0  0
    5.3861    1.1363   -2.7471 H   0  0  0  0  0  0  0  0  0  0  0  0
    3.6261    0.8839   -1.5035 C   0  0  0  0  0  0  0  0  0  0  0  0
    2.9175    1.0011   -2.3375 H   0  0  0  0  0  0  0  0  0  0  0  0
   -2.3936    0.1054    1.4239 C   0  0  0  0  0  0  0  0  0  0  0  0
   -3.3830   -0.5020    0.4224 C   0  0  2  0  0  0  0  0  0  0  0  0
   -4.2693    0.1674    0.4447 H   0  0  0  0  0  0  0  0  0  0  0  0
   -3.7984   -1.9500    0.7809 C   0  0  0  0  0  0  0  0  0  0  0  0
   -3.5277   -2.1848    1.8279 H   0  0  0  0  0  0  0  0  0  0  0  0
   -4.8980   -2.0598    0.6946 H   0  0  0  0  0  0  0  0  0  0  0  0
   -3.0993   -2.8127   -0.2785 C   0  0  0  0  0  0  0  0  0  0  0  0
   -2.0375   -2.9963   -0.0107 H   0  0  0  0  0  0  0  0  0  0  0  0
   -3.5880   -3.7934   -0.4358 H   0  0  0  0  0  0  0  0  0  0  0  0
   -3.1820   -1.9174   -1.5066 C   0  0  0  0  0  0  0  0  0  0  0  0
   -2.4915   -2.1696   -2.3323 H   0  0  0  0  0  0  0  0  0  0  0  0
   -4.2266   -1.8818   -1.8943 H   0  0  0  0  0  0  0  0  0  0  0  0
   -3.2558    0.5340   -1.8841 C   0  0  0  0  0  0  0  0  0  0  0  0
   -4.3667    0.6109   -1.8534 H   0  0  0  0  0  0  0  0  0  0  0  0
   -2.9560    0.2196   -2.9028 H   0  0  0  0  0  0  0  0  0  0  0  0
   -2.6014    1.8506   -1.5358 C   0  0  0  0  0  0  0  0  0  0  0  0
   -1.3244    2.1499   -2.0599 C   0  0  0  0  0  0  0  0  0  0  0  0
   -0.8723    1.4702   -2.7987 H   0  0  0  0  0  0  0  0  0  0  0  0
   -0.6374    3.2979   -1.6412 C   0  0  0  0  0  0  0  0  0  0  0  0
    0.3630    3.5144   -2.0451 H   0  0  0  0  0  0  0  0  0  0  0  0
   -1.2173    4.1635   -0.6991 C   0  0  0  0  0  0  0  0  0  0  0  0
   -0.6667    5.0506   -0.3529 H   0  0  0  0  0  0  0  0  0  0  0  0
   -2.4957    3.8872   -0.1943 C   0  0  0  0  0  0  0  0  0  0  0  0
   -2.9567    4.5632    0.5412 H   0  0  0  0  0  0  0  0  0  0  0  0
   -3.1853    2.7380   -0.6153 C   0  0  0  0  0  0  0  0  0  0  0  0
   -4.1858    2.5223   -0.2077 H   0  0  0  0  0  0  0  0  0  0  0  0
  2  9  2  0  0  0  0
  4 17  1  0  0  0  0
  6 24  1  0  0  0  0
  7 26  1  0  0  0  0
  7 46  1  0  0  0  0
  8 47  1  0  0  0  0
  9  1  1  0  0  0  0
 10  9  1  6  0  0  0
 10 13  1  0  0  0  0
 10  6  1  0  0  0  0
 10 11  1  0  0  0  0
 11 12  1  6  0  0  0
 11 16  1  0  0  0  0
 13 11  1  0  0  0  0
 13 14  1  0  0  0  0
 15 13  1  0  0  0  0
 16  4  1  0  0  0  0
 16  3  2  0  0  0  0
 17 19  1  0  0  0  0
 17 20  1  0  0  0  0
 18 17  1  0  0  0  0
 20 22  1  0  0  0  0
 20 21  1  0  0  0  0
 23 20  1  0  0  0  0
 24 25  2  0  0  0  0
 25 33  1  0  0  0  0
 25 26  1  0  0  0  0
 26 27  2  0  0  0  0
 27 29  1  0  0  0  0
 27 28  1  0  0  0  0
 29 30  1  0  0  0  0
 31 32  1  0  0  0  0
 31 29  2  0  0  0  0
 33 31  1  0  0  0  0
 34 33  1  0  0  0  0
 35 24  1  0  0  0  0
 35 36  1  0  0  0  0
 36 37  1  0  0  0  0
 38 36  2  0  0  0  0
 38 39  1  0  0  0  0
 40 38  1  0  0  0  0
 41 40  1  0  0  0  0
 42 44  1  0  0  0  0
 42 40  2  0  0  0  0
 43 42  1  0  0  0  0
 44 35  2  0  0  0  0
 45 44  1  0  0  0  0
 46  5  2  0  0  0  0
 47 48  1  6  0  0  0
 47 49  1  0  0  0  0
 47 46  1  0  0  0  0
 49 50  1  0  0  0  0
 51 49  1  0  0  0  0
 52 53  1  0  0  0  0
 52 49  1  0  0  0  0
 54 52  1  0  0  0  0
 55  8  1  0  0  0  0
 55 52  1  0  0  0  0
 56 55  1  0  0  0  0
 57 55  1  0  0  0  0
 58 59  1  0  0  0  0
 58 61  1  0  0  0  0
 58  8  1  0  0  0  0
 60 58  1  0  0  0  0
 61 70  1  0  0  0  0
 62 64  1  0  0  0  0
 62 61  2  0  0  0  0
 63 62  1  0  0  0  0
 64 66  2  0  0  0  0
 65 64  1  0  0  0  0
 66 67  1  0  0  0  0
 66 68  1  0  0  0  0
 68 69  1  0  0  0  0
 70 71  1  0  0  0  0
 70 68  2  0  0  0  0
M  CHG  1   1  -1
M  END
