1,4,5,6
 OpenBabel05122313063D

 72 75  0  0  1  0  0  0  0  0999 V2000
   -0.9831    1.0925    2.1928 O   0  5  0  0  0  0  0  0  0  0  0  0
   -0.0663    2.9434    3.0654 O   0  0  0  0  0  0  0  0  0  0  0  0
   -2.6021   -1.7070   -2.4313 O   0  0  0  0  0  0  0  0  0  0  0  0
    0.9005    0.5098    0.5742 N   0  0  0  0  0  2  0  0  0  0  0  0
   -0.9598   -0.9630   -0.9101 N   0  0  0  0  0  2  0  0  0  0  0  0
   -2.7860   -0.4312    0.9505 N   0  0  0  0  0  0  0  0  0  0  0  0
   -0.9215    4.3368   -2.5459 N   0  0  0  0  0  0  0  0  0  0  0  0
   -2.0961    4.1158   -2.2610 N   0  0  0  0  0  4  0  0  0  0  0  0
   -3.2299    3.9244   -2.1473 N   0  0  0  0  0  2  0  0  0  0  0  0
   -0.0374    1.9909    2.2962 C   0  0  0  0  0  0  0  0  0  0  0  0
    1.1760    1.7696    1.3370 C   0  0  2  0  0  0  0  0  0  0  0  0
    1.2135    2.9744    0.3634 C   0  0  0  0  0  0  0  0  0  0  0  0
    1.2126    3.8774    1.0098 H   0  0  0  0  0  0  0  0  0  0  0  0
    2.1814    2.9639   -0.1796 H   0  0  0  0  0  0  0  0  0  0  0  0
    0.0551    3.0401   -0.6306 C   0  0  0  0  0  0  0  0  0  0  0  0
    0.0670    2.1545   -1.3003 H   0  0  0  0  0  0  0  0  0  0  0  0
   -0.9103    3.0027   -0.0800 H   0  0  0  0  0  0  0  0  0  0  0  0
    0.0934    4.3096   -1.4836 C   0  0  0  0  0  0  0  0  0  0  0  0
   -0.0077    5.2130   -0.8383 H   0  0  0  0  0  0  0  0  0  0  0  0
    1.0671    4.3995   -2.0046 H   0  0  0  0  0  0  0  0  0  0  0  0
    2.4193    1.8008    2.2420 C   0  0  0  0  0  0  0  0  0  0  0  0
    2.2530    2.6343    2.9521 H   0  0  0  0  0  0  0  0  0  0  0  0
    2.5136    0.8660    2.8265 H   0  0  0  0  0  0  0  0  0  0  0  0
    3.3595    1.9826    1.6948 H   0  0  0  0  0  0  0  0  0  0  0  0
    1.8016   -0.1604   -0.1184 C   0  0  0  0  0  0  0  0  0  0  0  0
    3.2601    0.2008   -0.0588 C   0  0  0  0  0  0  0  0  0  0  0  0
    3.8116    1.0959   -0.9946 C   0  0  0  0  0  0  0  0  0  0  0  0
    3.1648    1.5362   -1.7682 H   0  0  0  0  0  0  0  0  0  0  0  0
    5.1782    1.4128   -0.9511 C   0  0  0  0  0  0  0  0  0  0  0  0
    5.5974    2.1223   -1.6805 H   0  0  0  0  0  0  0  0  0  0  0  0
    6.0092    0.8181    0.0109 C   0  0  0  0  0  0  0  0  0  0  0  0
    7.0807    1.0659    0.0439 H   0  0  0  0  0  0  0  0  0  0  0  0
    5.4718   -0.1075    0.9208 C   0  0  0  0  0  0  0  0  0  0  0  0
    6.1216   -0.5899    1.6664 H   0  0  0  0  0  0  0  0  0  0  0  0
    4.1057   -0.4177    0.8840 C   0  0  0  0  0  0  0  0  0  0  0  0
    3.6805   -1.1413    1.5959 H   0  0  0  0  0  0  0  0  0  0  0  0
    1.4788   -1.2717   -1.0149 C   0  0  0  0  0  0  0  0  0  0  0  0
    0.1439   -1.5902   -1.4648 C   0  0  0  0  0  0  0  0  0  0  0  0
    0.0096   -2.6079   -2.4579 C   0  0  0  0  0  0  0  0  0  0  0  0
   -0.9933   -2.8067   -2.8458 H   0  0  0  0  0  0  0  0  0  0  0  0
    1.0998   -3.3371   -2.9194 C   0  0  0  0  0  0  0  0  0  0  0  0
    0.9337   -4.1289   -3.6666 H   0  0  0  0  0  0  0  0  0  0  0  0
    2.3962   -3.0706   -2.4413 C   0  0  0  0  0  0  0  0  0  0  0  0
    3.2639   -3.6449   -2.7972 H   0  0  0  0  0  0  0  0  0  0  0  0
    2.5669   -2.0409   -1.5250 C   0  0  0  0  0  3  0  0  0  0  0  0
    3.5808   -1.8095   -1.1771 H   0  0  0  0  0  0  0  0  0  0  0  0
   -2.2500   -1.1869   -1.3720 C   0  0  0  0  0  0  0  0  0  0  0  0
   -3.3239   -0.6764   -0.4196 C   0  0  2  0  0  0  0  0  0  0  0  0
   -4.1095   -1.4624   -0.3791 H   0  0  0  0  0  0  0  0  0  0  0  0
   -3.9506    0.6747   -0.8746 C   0  0  0  0  0  0  0  0  0  0  0  0
   -3.4591    1.0716   -1.7824 H   0  0  0  0  0  0  0  0  0  0  0  0
   -5.0164    0.5215   -1.1300 H   0  0  0  0  0  0  0  0  0  0  0  0
   -3.7920    1.6153    0.3346 C   0  0  0  0  0  0  0  0  0  0  0  0
   -2.8774    2.2330    0.2397 H   0  0  0  0  0  0  0  0  0  0  0  0
   -4.6445    2.3093    0.4574 H   0  0  0  0  0  0  0  0  0  0  0  0
   -3.6337    0.6634    1.5083 C   0  0  0  0  0  0  0  0  0  0  0  0
   -4.6141    0.2231    1.8045 H   0  0  0  0  0  0  0  0  0  0  0  0
   -3.1333    1.0999    2.3905 H   0  0  0  0  0  0  0  0  0  0  0  0
   -2.7835   -1.6204    1.8571 C   0  0  0  0  0  0  0  0  0  0  0  0
   -2.5987   -1.2227    2.8739 H   0  0  0  0  0  0  0  0  0  0  0  0
   -3.8014   -2.0729    1.8421 H   0  0  0  0  0  0  0  0  0  0  0  0
   -1.7313   -2.6462    1.5100 C   0  0  0  0  0  0  0  0  0  0  0  0
   -0.4306   -2.5185    2.0429 C   0  0  0  0  0  0  0  0  0  0  0  0
   -0.2210   -1.7170    2.7681 H   0  0  0  0  0  0  0  0  0  0  0  0
    0.5869   -3.3995    1.6520 C   0  0  0  0  0  0  0  0  0  0  0  0
    1.5997   -3.2853    2.0675 H   0  0  0  0  0  0  0  0  0  0  0  0
    0.3179   -4.4221    0.7276 C   0  0  0  0  0  0  0  0  0  0  0  0
    1.1220   -5.0993    0.4036 H   0  0  0  0  0  0  0  0  0  0  0  0
   -0.9771   -4.5690    0.2103 C   0  0  0  0  0  0  0  0  0  0  0  0
   -1.1942   -5.3666   -0.5154 H   0  0  0  0  0  0  0  0  0  0  0  0
   -1.9977   -3.6890    0.6055 C   0  0  0  0  0  0  0  0  0  0  0  0
   -3.0085   -3.8014    0.1832 H   0  0  0  0  0  0  0  0  0  0  0  0
  1 10  1  0  0  0  0
  3 47  2  0  0  0  0
  6 56  1  0  0  0  0
  6 59  1  0  0  0  0
  7  8  2  0  0  0  0
  7 18  1  0  0  0  0
  8  9  2  0  0  0  0
 10  2  2  0  0  0  0
 11  4  1  6  0  0  0
 11 21  1  0  0  0  0
 11 10  1  0  0  0  0
 12 13  1  0  0  0  0
 12 11  1  0  0  0  0
 14 12  1  0  0  0  0
 15 17  1  0  0  0  0
 15 12  1  0  0  0  0
 16 15  1  0  0  0  0
 18 19  1  0  0  0  0
 18 15  1  0  0  0  0
 20 18  1  0  0  0  0
 21 23  1  0  0  0  0
 21 22  1  0  0  0  0
 24 21  1  0  0  0  0
 25 26  1  0  0  0  0
 25  4  1  0  0  0  0
 26 35  1  0  0  0  0
 27 29  1  0  0  0  0
 27 26  2  0  0  0  0
 28 27  1  0  0  0  0
 29 31  2  0  0  0  0
 30 29  1  0  0  0  0
 31 32  1  0  0  0  0
 31 33  1  0  0  0  0
 33 34  1  0  0  0  0
 35 33  2  0  0  0  0
 35 36  1  0  0  0  0
 37 25  2  0  0  0  0
 38 37  1  0  0  0  0
 38  5  1  0  0  0  0
 39 38  2  0  0  0  0
 40 39  1  0  0  0  0
 41 39  1  0  0  0  0
 41 43  2  0  0  0  0
 42 41  1  0  0  0  0
 43 45  1  0  0  0  0
 44 43  1  0  0  0  0
 45 46  1  0  0  0  0
 45 37  1  0  0  0  0
 47  5  1  0  0  0  0
 47 48  1  0  0  0  0
 48 49  1  1  0  0  0
 48  6  1  0  0  0  0
 50 48  1  0  0  0  0
 50 53  1  0  0  0  0
 51 50  1  0  0  0  0
 52 50  1  0  0  0  0
 53 55  1  0  0  0  0
 53 56  1  0  0  0  0
 54 53  1  0  0  0  0
 56 57  1  0  0  0  0
 56 58  1  0  0  0  0
 59 60  1  0  0  0  0
 61 59  1  0  0  0  0
 62 59  1  0  0  0  0
 62 63  1  0  0  0  0
 63 64  1  0  0  0  0
 65 63  2  0  0  0  0
 65 66  1  0  0  0  0
 67 65  1  0  0  0  0
 68 67  1  0  0  0  0
 69 71  1  0  0  0  0
 69 67  2  0  0  0  0
 70 69  1  0  0  0  0
 71 62  2  0  0  0  0
 72 71  1  0  0  0  0
M  CHG  1   1  -1
M  END
