1,14,21,24
 OpenBabel05122313063D

 33 32  0  0  1  0  0  0  0  0999 V2000
    1.1919   -1.6085    0.0306 O   0  0  0  0  0  1  0  0  0  0  0  0
    2.4749   -1.4921    0.0903 C   0  0  2  0  0  3  0  0  0  0  0  0
    3.1834   -0.2770    0.0594 C   0  0  0  0  0  0  0  0  0  0  0  0
    4.2797   -0.3253    0.0951 H   0  0  0  0  0  0  0  0  0  0  0  0
    2.5905    1.0085   -0.0379 C   0  0  0  0  0  0  0  0  0  0  0  0
    3.2165   -2.8051    0.1923 C   0  0  0  0  0  0  0  0  0  0  0  0
    2.9352   -3.4554   -0.6609 H   0  0  0  0  0  0  0  0  0  0  0  0
    2.8988   -3.3388    1.1116 H   0  0  0  0  0  0  0  0  0  0  0  0
    4.3140   -2.6737    0.2085 H   0  0  0  0  0  0  0  0  0  0  0  0
    3.5047    2.2083   -0.1587 C   0  0  0  0  0  0  0  0  0  0  0  0
    3.3334    2.7499   -1.1126 H   0  0  0  0  0  0  0  0  0  0  0  0
    4.5651    1.9014   -0.1246 H   0  0  0  0  0  0  0  0  0  0  0  0
    3.3308    2.9371    0.6607 H   0  0  0  0  0  0  0  0  0  0  0  0
    1.2661    1.1739   -0.0348 N   0  0  0  0  0  2  0  0  0  0  0  0
    0.6551    2.4869   -0.2591 C   0  0  0  0  0  0  0  0  0  0  0  0
    0.6243    2.7031   -1.3527 H   0  0  0  0  0  0  0  0  0  0  0  0
    1.2275    3.3115    0.2168 H   0  0  0  0  0  0  0  0  0  0  0  0
   -0.7722    2.4448    0.2960 C   0  0  0  0  0  0  0  0  0  0  0  0
   -0.7520    2.6374    1.3954 H   0  0  0  0  0  0  0  0  0  0  0  0
   -1.4038    3.2373   -0.1639 H   0  0  0  0  0  0  0  0  0  0  0  0
   -1.2706    1.1120    0.0400 N   0  0  0  0  0  2  0  0  0  0  0  0
   -2.5336    0.7050    0.0472 C   0  0  0  0  0  0  0  0  0  0  0  0
   -2.6963   -0.7107   -0.0543 C   0  0  0  0  0  0  0  0  0  0  0  0
   -1.4907   -1.3678   -0.0768 N   0  0  0  0  0  2  0  0  0  0  0  0
   -1.4134   -2.6042   -0.1625 O   0  0  0  0  0  1  0  0  0  0  0  0
   -3.6844    1.6603    0.1819 C   0  0  0  0  0  0  0  0  0  0  0  0
   -3.6219    2.4731   -0.5710 H   0  0  0  0  0  0  0  0  0  0  0  0
   -3.6794    2.1457    1.1814 H   0  0  0  0  0  0  0  0  0  0  0  0
   -4.6547    1.1480    0.0567 H   0  0  0  0  0  0  0  0  0  0  0  0
   -3.9842   -1.4682   -0.1342 C   0  0  0  0  0  0  0  0  0  0  0  0
   -3.7388   -2.5464   -0.1694 H   0  0  0  0  0  0  0  0  0  0  0  0
   -4.5703   -1.2168   -1.0440 H   0  0  0  0  0  0  0  0  0  0  0  0
   -4.6375   -1.2878    0.7456 H   0  0  0  0  0  0  0  0  0  0  0  0
  2  1  1  6  0  0  0
  2  6  1  0  0  0  0
  3  2  1  0  0  0  0
  3  4  1  0  0  0  0
  5 14  1  0  0  0  0
  5  3  2  0  0  0  0
  6  9  1  0  0  0  0
  6  8  1  0  0  0  0
  7  6  1  0  0  0  0
 10 12  1  0  0  0  0
 10  5  1  0  0  0  0
 10 13  1  0  0  0  0
 11 10  1  0  0  0  0
 15 14  1  0  0  0  0
 15 17  1  0  0  0  0
 15 18  1  0  0  0  0
 16 15  1  0  0  0  0
 18 19  1  0  0  0  0
 20 18  1  0  0  0  0
 21 22  1  0  0  0  0
 21 18  1  0  0  0  0
 22 26  1  0  0  0  0
 23 22  2  0  0  0  0
 24 23  1  0  0  0  0
 25 24  1  0  0  0  0
 26 28  1  0  0  0  0
 27 26  1  0  0  0  0
 29 26  1  0  0  0  0
 30 23  1  0  0  0  0
 30 33  1  0  0  0  0
 31 30  1  0  0  0  0
 32 30  1  0  0  0  0
M  END
