2,5,6,8
 OpenBabel05122313063D

 75 80  0  0  1  0  0  0  0  0999 V2000
    6.7320    0.1036    0.4158 Br  0  0  0  0  0  0  0  0  0  0  0  0
    0.4126    0.2055   -2.2392 O   0  5  0  0  0  0  0  0  0  0  0  0
   -0.4031   -3.2520    2.1848 O   0  0  0  0  0  0  0  0  0  0  0  0
    0.9160    2.2503   -3.0556 O   0  0  0  0  0  0  0  0  0  0  0  0
    0.5393   -2.2815   -1.1677 N   0  0  0  0  0  0  0  0  0  0  0  0
   -1.0101   -1.4227    0.8231 N   0  0  0  0  0  2  0  0  0  0  0  0
    1.0871    2.2580    0.6910 N   0  0  0  0  0  0  0  0  0  0  0  0
   -1.2444    0.9871   -0.4775 N   0  0  0  0  0  2  0  0  0  0  0  0
   -0.5891    2.0934   -1.1787 C   0  0  1  0  0  0  0  0  0  0  0  0
   -1.3218    2.7596   -1.6778 H   0  0  0  0  0  0  0  0  0  0  0  0
   -3.1109    2.4432    0.0550 C   0  0  0  0  0  0  0  0  0  0  0  0
    2.3983    1.8739    0.4413 C   0  0  0  0  0  0  0  0  0  0  0  0
    0.2169    2.9875   -0.2068 C   0  0  0  0  0  0  0  0  0  0  0  0
    0.8176    3.6820   -0.8275 H   0  0  0  0  0  0  0  0  0  0  0  0
   -0.4823    3.5923    0.4033 H   0  0  0  0  0  0  0  0  0  0  0  0
   -2.1947   -1.0695    1.4500 C   0  0  2  0  0  3  0  0  0  0  0  0
    3.2187    2.1034   -0.6782 C   0  0  0  0  0  0  0  0  0  0  0  0
    2.8478    2.6287   -1.5701 H   0  0  0  0  0  0  0  0  0  0  0  0
    0.3269    1.5127   -2.2735 C   0  0  0  0  0  0  0  0  0  0  0  0
   -2.3693    1.1455    0.1916 C   0  0  0  0  0  0  0  0  0  0  0  0
   -3.1298    3.3866    1.1022 C   0  0  0  0  0  0  0  0  0  0  0  0
   -2.6131    3.1573    2.0467 H   0  0  0  0  0  0  0  0  0  0  0  0
    4.5155    1.5798   -0.6533 C   0  0  0  0  0  0  0  0  0  0  0  0
    5.1818    1.7216   -1.5151 H   0  0  0  0  0  0  0  0  0  0  0  0
    1.8876   -2.1438   -1.7923 C   0  0  0  0  0  0  0  0  0  0  0  0
    1.8263   -1.4398   -2.6411 H   0  0  0  0  0  0  0  0  0  0  0  0
    2.2018   -3.1503   -2.1543 H   0  0  0  0  0  0  0  0  0  0  0  0
    2.8520    1.1228    1.5783 C   0  0  0  0  0  0  0  0  0  0  0  0
   -2.7931   -1.8878    2.4569 C   0  0  0  0  0  0  0  0  0  0  0  0
   -2.2239   -2.7532    2.8083 H   0  0  0  0  0  0  0  0  0  0  0  0
   -0.2867   -2.5564    1.1758 C   0  0  0  0  0  0  0  0  0  0  0  0
   -1.8381   -2.9687   -1.6507 C   0  0  0  0  0  0  0  0  0  0  0  0
    0.7946   -2.9091    0.1612 C   0  0  2  0  0  0  0  0  0  0  0  0
    0.7926   -4.0167    0.0592 H   0  0  0  0  0  0  0  0  0  0  0  0
   -0.3881   -3.0383   -2.0649 C   0  0  0  0  0  0  0  0  0  0  0  0
   -0.0383   -4.0946   -2.1122 H   0  0  0  0  0  0  0  0  0  0  0  0
   -0.2643   -2.5908   -3.0701 H   0  0  0  0  0  0  0  0  0  0  0  0
   -2.9181    0.1232    1.0646 C   0  0  0  0  0  0  0  0  0  0  0  0
    4.1679    0.6073    1.5860 C   0  0  0  0  0  0  0  0  0  0  0  0
    4.5440    0.0224    2.4370 H   0  0  0  0  0  0  0  0  0  0  0  0
   -4.0617   -1.6231    2.9640 C   0  0  0  0  0  0  0  0  0  0  0  0
   -4.4838   -2.3055    3.7183 H   0  0  0  0  0  0  0  0  0  0  0  0
   -4.8049   -0.5122    2.5198 C   0  0  0  0  0  0  0  0  0  0  0  0
   -5.8154   -0.3130    2.9049 H   0  0  0  0  0  0  0  0  0  0  0  0
   -2.3923   -3.9123   -0.7678 C   0  0  0  0  0  0  0  0  0  0  0  0
   -1.7771   -4.7519   -0.4085 H   0  0  0  0  0  0  0  0  0  0  0  0
   -4.2199    0.3475    1.5990 C   0  0  0  0  0  0  0  0  0  0  0  0
   -4.7739    1.2341    1.2628 H   0  0  0  0  0  0  0  0  0  0  0  0
    0.7040    1.7450    1.9229 C   0  0  0  0  0  0  0  0  0  0  0  0
   -0.3115    1.9187    2.2960 H   0  0  0  0  0  0  0  0  0  0  0  0
   -3.8032    2.7277   -1.1404 C   0  0  0  0  0  0  0  0  0  0  0  0
   -3.8006    1.9855   -1.9537 H   0  0  0  0  0  0  0  0  0  0  0  0
    4.9700    0.8429    0.4678 C   0  0  0  0  0  0  0  0  0  0  0  0
   -3.8150    4.6012    0.9495 C   0  0  0  0  0  0  0  0  0  0  0  0
   -3.8203    5.3320    1.7721 H   0  0  0  0  0  0  0  0  0  0  0  0
   -2.6415   -1.8994   -2.1010 C   0  0  0  0  0  0  0  0  0  0  0  0
   -2.2185   -1.1688   -2.8082 H   0  0  0  0  0  0  0  0  0  0  0  0
    1.7515    1.0524    2.5011 C   0  0  0  0  0  0  0  0  0  0  0  0
    1.7339    0.5534    3.4756 H   0  0  0  0  0  0  0  0  0  0  0  0
    2.7569   -1.6609   -0.6438 C   0  0  0  0  0  0  0  0  0  0  0  0
    2.6210   -0.5701   -0.5252 H   0  0  0  0  0  0  0  0  0  0  0  0
    3.8345   -1.8396   -0.8182 H   0  0  0  0  0  0  0  0  0  0  0  0
   -4.4965    4.8804   -0.2459 C   0  0  0  0  0  0  0  0  0  0  0  0
   -5.0357    5.8323   -0.3638 H   0  0  0  0  0  0  0  0  0  0  0  0
   -4.4940    3.9394   -1.2880 C   0  0  0  0  0  0  0  0  0  0  0  0
   -5.0341    4.1494   -2.2234 H   0  0  0  0  0  0  0  0  0  0  0  0
    2.2085   -2.4137    0.5855 C   0  0  0  0  0  0  0  0  0  0  0  0
    2.1509   -1.7529    1.4712 H   0  0  0  0  0  0  0  0  0  0  0  0
    2.8372   -3.2812    0.8621 H   0  0  0  0  0  0  0  0  0  0  0  0
   -3.9613   -1.7629   -1.6502 C   0  0  0  0  0  0  0  0  0  0  0  0
   -4.5761   -0.9194   -1.9998 H   0  0  0  0  0  0  0  0  0  0  0  0
   -3.7130   -3.7725   -0.3116 C   0  0  0  0  0  0  0  0  0  0  0  0
   -4.1262   -4.5051    0.3974 H   0  0  0  0  0  0  0  0  0  0  0  0
   -4.4980   -2.6953   -0.7472 C   0  0  0  0  0  0  0  0  0  0  0  0
   -5.5266   -2.5758   -0.3761 H   0  0  0  0  0  0  0  0  0  0  0  0
  1 53  1  0  0  0  0
  4 19  2  0  0  0  0
  5 33  1  0  0  0  0
  6 31  1  0  0  0  0
  7 49  1  0  0  0  0
  8 20  1  0  0  0  0
  9 10  1  6  0  0  0
  9  8  1  0  0  0  0
  9 13  1  0  0  0  0
 11 20  1  0  0  0  0
 11 21  1  0  0  0  0
 12  7  1  0  0  0  0
 12 28  1  0  0  0  0
 13 15  1  0  0  0  0
 13  7  1  0  0  0  0
 14 13  1  0  0  0  0
 16  6  1  6  0  0  0
 16 29  1  0  0  0  0
 17 23  1  0  0  0  0
 17 12  2  0  0  0  0
 18 17  1  0  0  0  0
 19  2  1  0  0  0  0
 19  9  1  0  0  0  0
 20 38  2  0  0  0  0
 21 22  1  0  0  0  0
 23 53  2  0  0  0  0
 24 23  1  0  0  0  0
 25  5  1  0  0  0  0
 25 60  1  0  0  0  0
 26 25  1  0  0  0  0
 27 25  1  0  0  0  0
 28 39  2  0  0  0  0
 28 58  1  0  0  0  0
 29 30  1  0  0  0  0
 29 41  2  0  0  0  0
 31  3  2  0  0  0  0
 32 45  1  0  0  0  0
 33 34  1  6  0  0  0
 33 67  1  0  0  0  0
 33 31  1  0  0  0  0
 35 32  1  0  0  0  0
 35  5  1  0  0  0  0
 36 35  1  0  0  0  0
 37 35  1  0  0  0  0
 38 16  1  0  0  0  0
 38 47  1  0  0  0  0
 39 40  1  0  0  0  0
 41 42  1  0  0  0  0
 43 44  1  0  0  0  0
 43 41  1  0  0  0  0
 45 46  1  0  0  0  0
 45 72  2  0  0  0  0
 47 43  2  0  0  0  0
 48 47  1  0  0  0  0
 49 50  1  0  0  0  0
 49 58  2  0  0  0  0
 51 11  2  0  0  0  0
 52 51  1  0  0  0  0
 53 39  1  0  0  0  0
 54 21  2  0  0  0  0
 54 55  1  0  0  0  0
 56 32  2  0  0  0  0
 56 70  1  0  0  0  0
 57 56  1  0  0  0  0
 58 59  1  0  0  0  0
 60 61  1  0  0  0  0
 60 67  1  0  0  0  0
 62 60  1  0  0  0  0
 63 54  1  0  0  0  0
 64 63  1  0  0  0  0
 65 51  1  0  0  0  0
 65 63  2  0  0  0  0
 66 65  1  0  0  0  0
 67 69  1  0  0  0  0
 67 68  1  0  0  0  0
 70 74  2  0  0  0  0
 71 70  1  0  0  0  0
 72 73  1  0  0  0  0
 74 75  1  0  0  0  0
 74 72  1  0  0  0  0
M  CHG  1   2  -1
M  END
