2,4,5,6
 OpenBabel05122313063D

 68 72  0  0  1  0  0  0  0  0999 V2000
    2.7100    2.0947   -2.0960 O   0  0  0  0  0  0  0  0  0  0  0  0
    0.8873   -1.6569    1.7751 O   0  5  0  0  0  0  0  0  0  0  0  0
   -0.3708   -3.3353    2.6091 O   0  0  0  0  0  0  0  0  0  0  0  0
   -0.9202   -0.6267    0.3071 N   0  0  0  0  0  2  0  0  0  0  0  0
    0.9981    0.9663   -0.9118 N   0  0  0  0  0  2  0  0  0  0  0  0
    2.8078   -0.1166    0.7354 N   0  0  0  0  0  0  0  0  0  0  0  0
   -0.4782   -3.2627   -0.9575 N   0  0  0  0  0  0  0  0  0  0  0  0
    1.5331   -3.9958   -1.6086 N   0  0  0  0  0  0  0  0  0  0  0  0
    2.3082    1.2734   -1.2707 C   0  0  0  0  0  0  0  0  0  0  0  0
    3.3257    0.3928   -0.5591 C   0  0  2  0  0  0  0  0  0  0  0  0
    4.2491    0.9916   -0.3946 H   0  0  0  0  0  0  0  0  0  0  0  0
    3.6343   -0.8806   -1.3733 C   0  0  0  0  0  0  0  0  0  0  0  0
    2.7381   -1.1644   -1.9595 H   0  0  0  0  0  0  0  0  0  0  0  0
    4.4542   -0.6906   -2.0904 H   0  0  0  0  0  0  0  0  0  0  0  0
    3.9482   -1.9751   -0.3280 C   0  0  0  0  0  0  0  0  0  0  0  0
    3.3353   -2.8750   -0.5299 H   0  0  0  0  0  0  0  0  0  0  0  0
    5.0113   -2.2831   -0.3574 H   0  0  0  0  0  0  0  0  0  0  0  0
    3.6161   -1.3427    1.0301 C   0  0  0  0  0  0  0  0  0  0  0  0
    4.5414   -1.0069    1.5499 H   0  0  0  0  0  0  0  0  0  0  0  0
    3.0353   -1.9878    1.7139 H   0  0  0  0  0  0  0  0  0  0  0  0
    2.8919    0.8416    1.8848 C   0  0  0  0  0  0  0  0  0  0  0  0
    3.9389    1.2169    1.9424 H   0  0  0  0  0  0  0  0  0  0  0  0
    2.6909    0.2371    2.7902 H   0  0  0  0  0  0  0  0  0  0  0  0
    1.9114    1.9877    1.8077 C   0  0  0  0  0  0  0  0  0  0  0  0
    2.2354    3.1813    1.1384 C   0  0  0  0  0  0  0  0  0  0  0  0
    3.2402    3.3122    0.7082 H   0  0  0  0  0  0  0  0  0  0  0  0
    1.2739    4.1918    0.9754 C   0  0  0  0  0  0  0  0  0  0  0  0
    1.5337    5.1084    0.4255 H   0  0  0  0  0  0  0  0  0  0  0  0
   -0.0162    4.0267    1.4992 C   0  0  0  0  0  0  0  0  0  0  0  0
   -0.7744    4.8110    1.3573 H   0  0  0  0  0  0  0  0  0  0  0  0
   -0.3381    2.8529    2.2007 C   0  0  0  0  0  0  0  0  0  0  0  0
   -1.3458    2.7247    2.6250 H   0  0  0  0  0  0  0  0  0  0  0  0
    0.6188    1.8409    2.3555 C   0  0  0  0  0  0  0  0  0  0  0  0
    0.3681    0.9182    2.9013 H   0  0  0  0  0  0  0  0  0  0  0  0
   -0.2140   -2.3585    1.8873 C   0  0  0  0  0  0  0  0  0  0  0  0
   -1.3330   -1.8844    0.9377 C   0  0  2  0  0  0  0  0  0  0  0  0
   -2.2618   -1.7601    1.5296 H   0  0  0  0  0  0  0  0  0  0  0  0
   -1.6102   -3.0032   -0.0881 C   0  0  0  0  0  0  0  0  0  0  0  0
   -1.8372   -3.9179    0.4944 H   0  0  0  0  0  0  0  0  0  0  0  0
   -2.4914   -2.7526   -0.7089 H   0  0  0  0  0  0  0  0  0  0  0  0
   -0.2052   -2.6425   -2.1651 C   0  0  0  0  0  0  0  0  0  0  0  0
   -0.9051   -1.9355   -2.6224 H   0  0  0  0  0  0  0  0  0  0  0  0
    1.0366   -3.1215   -2.5530 C   0  0  0  0  0  0  0  0  0  0  0  0
    1.5898   -2.8868   -3.4713 H   0  0  0  0  0  0  0  0  0  0  0  0
    0.6074   -4.0561   -0.6627 C   0  0  0  0  0  0  0  0  0  0  0  0
    0.6536   -4.6361    0.2686 H   0  0  0  0  0  0  0  0  0  0  0  0
   -1.8013    0.2277   -0.1748 C   0  0  0  0  0  0  0  0  0  0  0  0
   -3.2622   -0.0520    0.0357 C   0  0  0  0  0  0  0  0  0  0  0  0
   -3.8534    0.2102    1.2887 C   0  0  0  0  0  0  0  0  0  0  0  0
   -3.2371    0.6325    2.0976 H   0  0  0  0  0  0  0  0  0  0  0  0
   -5.2140   -0.0575    1.4997 C   0  0  0  0  0  0  0  0  0  0  0  0
   -5.6661    0.1529    2.4806 H   0  0  0  0  0  0  0  0  0  0  0  0
   -5.9963   -0.5909    0.4628 C   0  0  0  0  0  0  0  0  0  0  0  0
   -7.0630   -0.8029    0.6300 H   0  0  0  0  0  0  0  0  0  0  0  0
   -5.4160   -0.8465   -0.7897 C   0  0  0  0  0  0  0  0  0  0  0  0
   -6.0268   -1.2559   -1.6084 H   0  0  0  0  0  0  0  0  0  0  0  0
   -4.0563   -0.5747   -1.0045 C   0  0  0  0  0  0  0  0  0  0  0  0
   -3.6036   -0.7539   -1.9920 H   0  0  0  0  0  0  0  0  0  0  0  0
   -1.4305    1.4321   -0.8968 C   0  0  0  0  0  0  0  0  0  0  0  0
   -0.0803    1.7399   -1.3191 C   0  0  1  0  0  3  0  0  0  0  0  0
    0.0858    2.9013   -2.1357 C   0  0  0  0  0  0  0  0  0  0  0  0
    1.0922    3.1168   -2.5049 H   0  0  0  0  0  0  0  0  0  0  0  0
   -0.9727    3.7523   -2.4391 C   0  0  0  0  0  0  0  0  0  0  0  0
   -0.7750    4.6445   -3.0538 H   0  0  0  0  0  0  0  0  0  0  0  0
   -2.2731    3.4901   -1.9684 C   0  0  0  0  0  0  0  0  0  0  0  0
   -3.1091    4.1679   -2.1942 H   0  0  0  0  0  0  0  0  0  0  0  0
   -2.4831    2.3358   -1.2259 C   0  0  0  0  0  0  0  0  0  0  0  0
   -3.4960    2.1040   -0.8715 H   0  0  0  0  0  0  0  0  0  0  0  0
  1  9  2  0  0  0  0
  2 35  1  0  0  0  0
  4 36  1  0  0  0  0
  6 18  1  0  0  0  0
  6 21  1  0  0  0  0
  7 45  1  0  0  0  0
  7 38  1  0  0  0  0
  8 45  2  0  0  0  0
  9  5  1  0  0  0  0
  9 10  1  0  0  0  0
 10 11  1  1  0  0  0
 10  6  1  0  0  0  0
 12 10  1  0  0  0  0
 12 15  1  0  0  0  0
 13 12  1  0  0  0  0
 14 12  1  0  0  0  0
 15 18  1  0  0  0  0
 16 15  1  0  0  0  0
 17 15  1  0  0  0  0
 18 19  1  0  0  0  0
 18 20  1  0  0  0  0
 21 22  1  0  0  0  0
 21 23  1  0  0  0  0
 24 21  1  0  0  0  0
 24 33  1  0  0  0  0
 25 24  2  0  0  0  0
 26 25  1  0  0  0  0
 27 25  1  0  0  0  0
 27 29  2  0  0  0  0
 28 27  1  0  0  0  0
 29 31  1  0  0  0  0
 30 29  1  0  0  0  0
 31 33  2  0  0  0  0
 31 32  1  0  0  0  0
 33 34  1  0  0  0  0
 35  3  2  0  0  0  0
 36 37  1  1  0  0  0
 36 35  1  0  0  0  0
 38 39  1  0  0  0  0
 38 36  1  0  0  0  0
 40 38  1  0  0  0  0
 41  7  1  0  0  0  0
 42 41  1  0  0  0  0
 43 41  2  0  0  0  0
 43  8  1  0  0  0  0
 44 43  1  0  0  0  0
 45 46  1  0  0  0  0
 47 48  1  0  0  0  0
 47  4  1  0  0  0  0
 48 49  1  0  0  0  0
 49 51  2  0  0  0  0
 49 50  1  0  0  0  0
 51 52  1  0  0  0  0
 53 54  1  0  0  0  0
 53 51  1  0  0  0  0
 55 53  2  0  0  0  0
 56 55  1  0  0  0  0
 57 55  1  0  0  0  0
 57 48  2  0  0  0  0
 58 57  1  0  0  0  0
 59 47  2  0  0  0  0
 60  5  1  1  0  0  0
 60 59  1  0  0  0  0
 61 60  1  0  0  0  0
 62 61  1  0  0  0  0
 63 61  2  0  0  0  0
 63 65  1  0  0  0  0
 64 63  1  0  0  0  0
 65 67  2  0  0  0  0
 66 65  1  0  0  0  0
 67 59  1  0  0  0  0
 67 68  1  0  0  0  0
M  CHG  1   2  -1
M  END
