1,4,5,6
 OpenBabel05122313063D

 37 38  0  0  0  0  0  0  0  0999 V2000
    0.5782    0.6347   -0.0994 O   0  5  0  0  0  0  0  0  0  0  0  0
    2.1720   -3.3064   -0.1969 O   0  0  0  0  0  0  0  0  0  0  0  0
    2.1196    2.7185    0.0095 O   0  0  0  0  0  0  0  0  0  0  0  0
    0.2605   -2.0667   -0.0700 N   0  0  0  0  0  2  0  0  0  0  0  0
   -2.2067   -1.6544    0.1505 N   0  0  0  0  0  2  0  0  0  0  0  0
   -2.0742    0.8160   -0.0089 N   0  0  0  0  0  2  0  0  0  0  0  0
    1.8681    0.3676   -0.0268 C   0  0  0  0  0  0  0  0  0  0  0  0
    2.7516    1.5066    0.0306 C   0  0  0  0  0  0  0  0  0  0  0  0
    4.1358    1.3260    0.1024 C   0  0  0  0  0  0  0  0  0  0  0  0
    4.6807    0.0222    0.1153 C   0  0  0  0  0  0  0  0  0  0  0  0
    3.8415   -1.0870    0.0559 C   0  0  0  0  0  0  0  0  0  0  0  0
    2.4376   -0.9359   -0.0087 C   0  0  0  0  0  0  0  0  0  0  0  0
    1.6316   -2.1893   -0.0994 C   0  0  0  0  0  0  0  0  0  0  0  0
   -0.5148   -3.2915   -0.2697 C   0  0  0  0  0  0  0  0  0  0  0  0
   -1.8939   -3.0632    0.3502 C   0  0  0  0  0  0  0  0  0  0  0  0
   -3.4025   -1.1004    0.1469 C   0  0  0  0  0  0  0  0  0  0  0  0
   -3.3695    0.3387    0.0420 C   0  0  0  0  0  0  0  0  0  0  0  0
   -4.4661    1.2235    0.0076 C   0  0  0  0  0  0  0  0  0  0  0  0
   -4.2236    2.5972   -0.0773 C   0  0  0  0  0  0  0  0  0  0  0  0
   -2.8927    3.0632   -0.1251 C   0  0  0  0  0  0  0  0  0  0  0  0
   -1.8421    2.1411   -0.0887 C   0  0  0  0  0  0  0  0  0  0  0  0
    2.9211    3.8779    0.0608 C   0  0  0  0  0  0  0  0  0  0  0  0
    4.8072    2.1943    0.1482 H   0  0  0  0  0  0  0  0  0  0  0  0
    5.7720   -0.1060    0.1699 H   0  0  0  0  0  0  0  0  0  0  0  0
    4.2269   -2.1170    0.0529 H   0  0  0  0  0  0  0  0  0  0  0  0
   -0.6206   -3.5163   -1.3568 H   0  0  0  0  0  0  0  0  0  0  0  0
    0.0176   -4.1556    0.1780 H   0  0  0  0  0  0  0  0  0  0  0  0
   -1.8484   -3.2463    1.4462 H   0  0  0  0  0  0  0  0  0  0  0  0
   -2.6833   -3.7203   -0.0750 H   0  0  0  0  0  0  0  0  0  0  0  0
   -4.3324   -1.6858    0.2433 H   0  0  0  0  0  0  0  0  0  0  0  0
   -5.4894    0.8230    0.0493 H   0  0  0  0  0  0  0  0  0  0  0  0
   -5.0634    3.3070   -0.1055 H   0  0  0  0  0  0  0  0  0  0  0  0
   -2.6690    4.1372   -0.1899 H   0  0  0  0  0  0  0  0  0  0  0  0
   -0.7736    2.4174   -0.1195 H   0  0  0  0  0  0  0  0  0  0  0  0
    3.5238    3.9287    0.9968 H   0  0  0  0  0  0  0  0  0  0  0  0
    3.6172    3.9437   -0.8068 H   0  0  0  0  0  0  0  0  0  0  0  0
    2.2310    4.7423    0.0324 H   0  0  0  0  0  0  0  0  0  0  0  0
  1  7  1  0  0  0  0
  2 13  2  0  0  0  0
  3  8  1  0  0  0  0
  3 22  1  0  0  0  0
  5 15  1  0  0  0  0
  6 17  1  0  0  0  0
  7 12  2  0  0  0  0
  7  8  1  0  0  0  0
  8  9  2  0  0  0  0
  9 10  1  0  0  0  0
  9 23  1  0  0  0  0
 10 24  1  0  0  0  0
 11 10  2  0  0  0  0
 12 11  1  0  0  0  0
 13  4  1  0  0  0  0
 13 12  1  0  0  0  0
 14  4  1  0  0  0  0
 14 27  1  0  0  0  0
 14 15  1  0  0  0  0
 15 28  1  0  0  0  0
 16  5  1  0  0  0  0
 16 30  1  0  0  0  0
 17 16  2  0  0  0  0
 18 17  1  0  0  0  0
 18 31  1  0  0  0  0
 19 18  2  0  0  0  0
 20 21  2  0  0  0  0
 20 19  1  0  0  0  0
 21  6  1  0  0  0  0
 22 35  1  0  0  0  0
 25 11  1  0  0  0  0
 26 14  1  0  0  0  0
 29 15  1  0  0  0  0
 32 19  1  0  0  0  0
 33 20  1  0  0  0  0
 34 21  1  0  0  0  0
 36 22  1  0  0  0  0
 37 22  1  0  0  0  0
M  CHG  1   1  -1
M  END
