1,2,7,8
 OpenBabel05122313063D

 42 44  0  0  0  0  0  0  0  0999 V2000
    0.0151   -1.9345    0.0411 O   0  5  0  0  0  0  0  0  0  0  0  0
   -0.1116    1.7046   -0.1071 N   0  0  0  0  0  2  0  0  0  0  0  0
    0.9298   -3.9466    0.1306 O   0  0  0  0  0  0  0  0  0  0  0  0
   -1.2715    2.3433   -0.1302 N   0  0  0  0  0  0  0  0  0  0  0  0
   -3.5854    1.5668   -0.1051 N   0  0  0  0  0  0  0  0  0  0  0  0
    2.1465    1.4780   -0.1011 N   0  0  0  0  0  0  0  0  0  0  0  0
    1.8088    0.2146   -0.0497 N   0  0  0  0  0  2  0  0  0  0  0  0
   -1.9277    0.0629   -0.0464 N   0  0  0  0  0  2  0  0  0  0  0  0
    1.2509    3.8204   -0.1614 C   0  0  0  0  0  0  0  0  0  0  0  0
    0.4809    4.1862   -0.8767 H   0  0  0  0  0  0  0  0  0  0  0  0
    0.9132    4.4190    1.2190 C   0  0  0  0  0  0  0  0  0  0  0  0
   -0.1042    4.1241    1.5417 H   0  0  0  0  0  0  0  0  0  0  0  0
    0.9551    5.5263    1.1801 H   0  0  0  0  0  0  0  0  0  0  0  0
    1.6395    4.0732    1.9826 H   0  0  0  0  0  0  0  0  0  0  0  0
   -3.3738   -2.0157    0.0331 C   0  0  0  0  0  0  0  0  0  0  0  0
   -2.5336   -2.7237    0.0618 H   0  0  0  0  0  0  0  0  0  0  0  0
    2.4737   -2.1376    0.0412 C   0  0  0  0  0  0  0  0  0  0  0  0
    1.1002    2.3225   -0.1346 C   0  0  0  0  0  0  0  0  0  0  0  0
   -4.7163   -2.4135    0.0472 C   0  0  0  0  0  0  0  0  0  0  0  0
   -4.9574   -3.4861    0.0887 H   0  0  0  0  0  0  0  0  0  0  0  0
    4.1816   -0.3657   -0.0436 C   0  0  0  0  0  0  0  0  0  0  0  0
    4.4092    0.7069   -0.0899 H   0  0  0  0  0  0  0  0  0  0  0  0
   -4.1914    0.3125   -0.0578 C   0  0  0  0  0  0  0  0  0  0  0  0
    1.0680   -2.7256    0.0743 C   0  0  0  0  0  0  0  0  0  0  0  0
   -5.7752   -1.4735    0.0097 C   0  0  0  0  0  0  0  0  0  0  0  0
   -6.8147   -1.8329    0.0226 H   0  0  0  0  0  0  0  0  0  0  0  0
    5.1908   -1.3265   -0.0110 C   0  0  0  0  0  0  0  0  0  0  0  0
    6.2440   -1.0070   -0.0318 H   0  0  0  0  0  0  0  0  0  0  0  0
   -3.1168   -0.6346   -0.0204 C   0  0  0  0  0  0  0  0  0  0  0  0
    2.8174   -0.7552   -0.0179 C   0  0  0  0  0  0  0  0  0  0  0  0
    4.8642   -2.6945    0.0480 C   0  0  0  0  0  0  0  0  0  0  0  0
    5.6578   -3.4559    0.0739 H   0  0  0  0  0  0  0  0  0  0  0  0
    3.5198   -3.0795    0.0732 C   0  0  0  0  0  0  0  0  0  0  0  0
    3.2199   -4.1366    0.1191 H   0  0  0  0  0  0  0  0  0  0  0  0
   -5.5320   -0.0923   -0.0435 C   0  0  0  0  0  0  0  0  0  0  0  0
   -6.3567    0.6345   -0.0723 H   0  0  0  0  0  0  0  0  0  0  0  0
    2.6392    4.2465   -0.6477 C   0  0  0  0  0  0  0  0  0  0  0  0
    2.8694    3.8253   -1.6460 H   0  0  0  0  0  0  0  0  0  0  0  0
    3.4257    3.8974    0.0502 H   0  0  0  0  0  0  0  0  0  0  0  0
    2.6986    5.3511   -0.7119 H   0  0  0  0  0  0  0  0  0  0  0  0
   -2.2287    1.3810   -0.0968 C   0  0  0  0  0  0  0  0  0  0  0  0
   -4.0461    2.4754   -0.1400 H   0  0  0  0  0  0  0  0  0  0  0  0
  1 24  1  0  0  0  0
  4  2  1  0  0  0  0
  4 41  2  0  0  0  0
  5 41  1  0  0  0  0
  5 23  1  0  0  0  0
  6  7  1  0  0  0  0
  7 30  1  0  0  0  0
  8 29  1  0  0  0  0
  9 18  1  0  0  0  0
  9 11  1  0  0  0  0
 10  9  1  0  0  0  0
 11 12  1  0  0  0  0
 11 14  1  0  0  0  0
 13 11  1  0  0  0  0
 15 19  1  0  0  0  0
 15 16  1  0  0  0  0
 17 33  1  0  0  0  0
 17 24  1  0  0  0  0
 18  2  1  0  0  0  0
 18  6  2  0  0  0  0
 19 20  1  0  0  0  0
 21 30  1  0  0  0  0
 21 27  2  0  0  0  0
 22 21  1  0  0  0  0
 23 35  2  0  0  0  0
 23 29  1  0  0  0  0
 24  3  2  0  0  0  0
 25 26  1  0  0  0  0
 25 19  2  0  0  0  0
 27 31  1  0  0  0  0
 28 27  1  0  0  0  0
 29 15  2  0  0  0  0
 30 17  2  0  0  0  0
 31 33  2  0  0  0  0
 31 32  1  0  0  0  0
 33 34  1  0  0  0  0
 35 25  1  0  0  0  0
 36 35  1  0  0  0  0
 37  9  1  0  0  0  0
 37 39  1  0  0  0  0
 38 37  1  0  0  0  0
 40 37  1  0  0  0  0
 41  8  1  0  0  0  0
 42  5  1  0  0  0  0
M  CHG  1   1  -1
M  END
