4,5,6,10
 OpenBabel05122313063D

 74 79  0  0  1  0  0  0  0  0999 V2000
   -3.3868   -0.1270   -2.3391 Cl  0  0  0  0  0  0  0  0  0  0  0  0
   -4.7599   -2.1061   -0.2587 Cl  0  0  0  0  0  0  0  0  0  0  0  0
   -5.0333    0.5550    2.6681 Cl  0  0  0  0  0  0  0  0  0  0  0  0
    0.3466    1.1533   -0.7411 N   0  0  0  0  0  2  0  0  0  0  0  0
    0.3313   -1.1891    0.6963 N   0  0  0  0  0  2  0  0  0  0  0  0
    1.8866   -2.2905   -1.1535 N   0  0  0  0  0  0  0  0  0  0  0  0
    5.0913    1.3358    0.7131 N   0  0  0  0  0  0  0  0  0  0  0  0
    6.0769    1.0790    0.6819 H   0  0  0  0  0  0  0  0  0  0  0  0
    4.5384    0.1773    2.7565 N   0  0  0  0  0  0  0  0  0  0  0  0
    1.9364    0.1095   -2.4209 O   0  5  0  0  0  0  0  0  0  0  0  0
    2.6181    2.0312   -3.3831 O   0  0  0  0  0  0  0  0  0  0  0  0
    0.8449   -2.8448    2.2862 O   0  0  0  0  0  0  0  0  0  0  0  0
    0.9561   -3.0232   -2.0634 C   0  0  0  0  0  0  0  0  0  0  0  0
    1.2464   -4.0984   -2.0741 H   0  0  0  0  0  0  0  0  0  0  0  0
    1.1317   -2.6083   -3.0748 H   0  0  0  0  0  0  0  0  0  0  0  0
   -0.4970   -2.8658   -1.6871 C   0  0  0  0  0  0  0  0  0  0  0  0
   -1.2172   -1.7551   -2.1685 C   0  0  0  0  0  0  0  0  0  0  0  0
   -0.7551   -1.0588   -2.8829 H   0  0  0  0  0  0  0  0  0  0  0  0
   -2.5306   -1.5173   -1.7416 C   0  0  0  0  0  0  0  0  0  0  0  0
   -3.1480   -2.3971   -0.8236 C   0  0  0  0  0  0  0  0  0  0  0  0
   -2.4382   -3.5153   -0.3604 C   0  0  0  0  0  0  0  0  0  0  0  0
   -2.9267   -4.1922    0.3535 H   0  0  0  0  0  0  0  0  0  0  0  0
   -1.1256   -3.7484   -0.7927 C   0  0  0  0  0  0  0  0  0  0  0  0
   -0.5804   -4.6219   -0.4048 H   0  0  0  0  0  0  0  0  0  0  0  0
    3.2693   -2.2516   -1.7135 C   0  0  0  0  0  0  0  0  0  0  0  0
    3.2890   -1.5642   -2.5781 H   0  0  0  0  0  0  0  0  0  0  0  0
    3.5484   -3.2822   -2.0342 H   0  0  0  0  0  0  0  0  0  0  0  0
    4.0975   -1.7978   -0.5240 C   0  0  0  0  0  0  0  0  0  0  0  0
    3.9524   -0.7089   -0.3841 H   0  0  0  0  0  0  0  0  0  0  0  0
    5.1804   -1.9808   -0.6618 H   0  0  0  0  0  0  0  0  0  0  0  0
    3.4957   -2.5942    0.6461 C   0  0  0  0  0  0  0  0  0  0  0  0
    3.5478   -2.0513    1.6075 H   0  0  0  0  0  0  0  0  0  0  0  0
    4.0271   -3.5557    0.7839 H   0  0  0  0  0  0  0  0  0  0  0  0
    2.0248   -2.8710    0.2202 C   0  0  1  0  0  0  0  0  0  0  0  0
    1.8424   -3.9675    0.1855 H   0  0  0  0  0  0  0  0  0  0  0  0
    0.9929   -2.3004    1.1914 C   0  0  0  0  0  0  0  0  0  0  0  0
   -0.8421   -0.7079    1.2537 C   0  0  0  0  0  0  0  0  0  0  0  0
   -1.5535   -1.4326    2.2578 C   0  0  0  0  0  0  0  0  0  0  0  0
   -1.0781   -2.3262    2.6739 H   0  0  0  0  0  0  0  0  0  0  0  0
   -2.8155   -1.0483    2.6969 C   0  0  0  0  0  0  0  0  0  0  0  0
   -3.3480   -1.6517    3.4458 H   0  0  0  0  0  0  0  0  0  0  0  0
   -3.4223    0.1071    2.1685 C   0  0  0  0  0  0  0  0  0  0  0  0
   -2.7357    0.8845    1.2460 C   0  0  0  0  0  3  0  0  0  0  0  0
   -3.2100    1.7915    0.8526 H   0  0  0  0  0  0  0  0  0  0  0  0
   -1.4391    0.5207    0.7873 C   0  0  0  0  0  0  0  0  0  0  0  0
   -0.7653    1.4557   -0.1047 C   0  0  0  0  0  0  0  0  0  0  0  0
   -1.3512    2.8286   -0.2608 C   0  0  0  0  0  0  0  0  0  0  0  0
   -2.0079    3.1901   -1.4551 C   0  0  0  0  0  0  0  0  0  0  0  0
   -2.1011    2.4486   -2.2624 H   0  0  0  0  0  0  0  0  0  0  0  0
   -2.5524    4.4744   -1.6000 C   0  0  0  0  0  0  0  0  0  0  0  0
   -3.0676    4.7450   -2.5339 H   0  0  0  0  0  0  0  0  0  0  0  0
   -2.4443    5.4092   -0.5582 C   0  0  0  0  0  0  0  0  0  0  0  0
   -2.8709    6.4168   -0.6747 H   0  0  0  0  0  0  0  0  0  0  0  0
   -1.7971    5.0530    0.6355 C   0  0  0  0  0  0  0  0  0  0  0  0
   -1.7150    5.7789    1.4584 H   0  0  0  0  0  0  0  0  0  0  0  0
   -1.2570    3.7675    0.7866 C   0  0  0  0  0  0  0  0  0  0  0  0
   -0.7621    3.4824    1.7276 H   0  0  0  0  0  0  0  0  0  0  0  0
    1.1079    2.1516   -1.5013 C   0  0  2  0  0  0  0  0  0  0  0  0
    0.4283    2.8496   -2.0292 H   0  0  0  0  0  0  0  0  0  0  0  0
    1.9612    1.4193   -2.5520 C   0  0  0  0  0  0  0  0  0  0  0  0
    2.0332    3.0036   -0.5946 C   0  0  0  0  0  0  0  0  0  0  0  0
    2.5251    3.7239   -1.2783 H   0  0  0  0  0  0  0  0  0  0  0  0
    1.3985    3.5899    0.1013 H   0  0  0  0  0  0  0  0  0  0  0  0
    3.0746    2.2333    0.1602 C   0  0  0  0  0  0  0  0  0  0  0  0
    4.4056    2.0949   -0.2177 C   0  0  0  0  0  0  0  0  0  0  0  0
    4.9062    2.4937   -1.1074 H   0  0  0  0  0  0  0  0  0  0  0  0
    4.2214    0.9457    1.7120 C   0  0  0  0  0  0  0  0  0  0  0  0
    2.9327    1.4980    1.3959 C   0  0  0  0  0  0  0  0  0  0  0  0
    1.8932    1.1972    2.2998 C   0  0  0  0  0  0  0  0  0  0  0  0
    0.8678    1.5600    2.1393 H   0  0  0  0  0  0  0  0  0  0  0  0
    2.1976    0.3912    3.4022 C   0  0  0  0  0  0  0  0  0  0  0  0
    1.4129    0.1042    4.1164 H   0  0  0  0  0  0  0  0  0  0  0  0
    3.5168   -0.0888    3.5874 C   0  0  0  0  0  0  0  0  0  0  0  0
    3.7471   -0.7319    4.4543 H   0  0  0  0  0  0  0  0  0  0  0  0
  1 19  1  0  0  0  0
  4 46  1  0  0  0  0
  5 36  1  0  0  0  0
  5 37  1  0  0  0  0
  6 34  1  0  0  0  0
  7 67  1  0  0  0  0
  8  7  1  0  0  0  0
  9 73  1  0  0  0  0
 11 60  2  0  0  0  0
 13 16  1  0  0  0  0
 13  6  1  0  0  0  0
 14 13  1  0  0  0  0
 15 13  1  0  0  0  0
 16 23  1  0  0  0  0
 17 19  1  0  0  0  0
 17 16  2  0  0  0  0
 18 17  1  0  0  0  0
 19 20  2  0  0  0  0
 20 21  1  0  0  0  0
 20  2  1  0  0  0  0
 21 22  1  0  0  0  0
 23 24  1  0  0  0  0
 23 21  2  0  0  0  0
 25  6  1  0  0  0  0
 25 28  1  0  0  0  0
 26 25  1  0  0  0  0
 27 25  1  0  0  0  0
 28 29  1  0  0  0  0
 28 31  1  0  0  0  0
 30 28  1  0  0  0  0
 31 33  1  0  0  0  0
 31 32  1  0  0  0  0
 34 35  1  6  0  0  0
 34 31  1  0  0  0  0
 34 36  1  0  0  0  0
 36 12  2  0  0  0  0
 37 38  2  0  0  0  0
 38 39  1  0  0  0  0
 38 40  1  0  0  0  0
 40 41  1  0  0  0  0
 42  3  1  0  0  0  0
 42 40  2  0  0  0  0
 43 42  1  0  0  0  0
 44 43  1  0  0  0  0
 45 43  1  0  0  0  0
 45 37  1  0  0  0  0
 46 45  2  0  0  0  0
 47 46  1  0  0  0  0
 47 56  1  0  0  0  0
 48 47  2  0  0  0  0
 49 48  1  0  0  0  0
 50 48  1  0  0  0  0
 50 52  2  0  0  0  0
 51 50  1  0  0  0  0
 52 54  1  0  0  0  0
 53 52  1  0  0  0  0
 54 56  2  0  0  0  0
 54 55  1  0  0  0  0
 56 57  1  0  0  0  0
 58 59  1  6  0  0  0
 58  4  1  0  0  0  0
 58 61  1  0  0  0  0
 60 10  1  0  0  0  0
 60 58  1  0  0  0  0
 61 63  1  0  0  0  0
 61 64  1  0  0  0  0
 62 61  1  0  0  0  0
 64 68  1  0  0  0  0
 65 64  2  0  0  0  0
 65  7  1  0  0  0  0
 66 65  1  0  0  0  0
 67  9  2  0  0  0  0
 68 67  1  0  0  0  0
 68 69  2  0  0  0  0
 69 71  1  0  0  0  0
 70 69  1  0  0  0  0
 71 73  2  0  0  0  0
 71 72  1  0  0  0  0
 73 74  1  0  0  0  0
M  CHG  1  10  -1
M  END
