1,2,3,4
 OpenBabel05122313063D

 44 47  0  0  0  0  0  0  0  0999 V2000
   -0.1794   -1.6678   -0.5197 O   0  5  0  0  0  0  0  0  0  0  0  0
    0.1689    0.9829    0.0314 N   0  0  0  0  0  2  0  0  0  0  0  0
    2.7049    0.2632    0.7854 N   0  0  0  0  0  2  0  0  0  0  0  0
    2.3698   -2.0482   -0.0973 N   0  0  0  0  0  0  0  0  0  0  0  0
   -1.4466   -1.4391   -0.3827 C   0  0  0  0  0  0  0  0  0  0  0  0
   -2.3466   -2.5264   -0.6786 C   0  0  0  0  0  0  0  0  0  0  0  0
   -1.8913   -3.4703   -1.0108 H   0  0  0  0  0  0  0  0  0  0  0  0
   -3.7046   -2.3856   -0.5352 C   0  0  0  0  0  0  0  0  0  0  0  0
   -4.3714   -3.2339   -0.7580 H   0  0  0  0  0  0  0  0  0  0  0  0
   -4.2965   -1.1576   -0.0836 C   0  0  0  0  0  0  0  0  0  0  0  0
   -5.7010   -1.0414    0.0862 C   0  0  0  0  0  3  0  0  0  0  0  0
   -6.3310   -1.9148   -0.1449 H   0  0  0  0  0  0  0  0  0  0  0  0
   -6.2752    0.1424    0.5373 C   0  0  0  0  0  0  0  0  0  0  0  0
   -7.3648    0.2208    0.6665 H   0  0  0  0  0  0  0  0  0  0  0  0
   -5.4406    1.2413    0.8413 C   0  0  0  0  0  0  0  0  0  0  0  0
   -5.8816    2.1775    1.2164 H   0  0  0  0  0  0  0  0  0  0  0  0
   -4.0587    1.1499    0.6850 C   0  0  0  0  0  0  0  0  0  0  0  0
   -3.4410    2.0158    0.9636 H   0  0  0  0  0  0  0  0  0  0  0  0
   -3.4426   -0.0381    0.2059 C   0  0  0  0  0  0  0  0  0  0  0  0
   -2.0040   -0.1714    0.0090 C   0  0  0  0  0  0  0  0  0  0  0  0
   -1.1615    0.9666    0.0716 C   0  0  0  0  0  0  0  0  0  0  0  0
   -1.6503    1.9558    0.1184 H   0  0  0  0  0  0  0  0  0  0  0  0
    0.8016    2.2276   -0.2318 C   0  0  0  0  0  0  0  0  0  0  0  0
    0.2405    3.1373   -1.1562 C   0  0  0  0  0  0  0  0  0  0  0  0
   -0.6652    2.8490   -1.7096 H   0  0  0  0  0  0  0  0  0  0  0  0
    0.8489    4.3750   -1.4032 C   0  0  0  0  0  0  0  0  0  0  0  0
    0.3972    5.0660   -2.1308 H   0  0  0  0  0  0  0  0  0  0  0  0
    2.0399    4.7165   -0.7467 C   0  0  0  0  0  0  0  0  0  0  0  0
    2.5295    5.6814   -0.9445 H   0  0  0  0  0  0  0  0  0  0  0  0
    2.6180    3.8032    0.1491 C   0  0  0  0  0  0  0  0  0  0  0  0
    3.5616    4.0553    0.6584 H   0  0  0  0  0  0  0  0  0  0  0  0
    2.0167    2.5651    0.4169 C   0  0  0  0  0  0  0  0  0  0  0  0
    2.6229    1.5814    1.3836 C   0  0  0  0  0  0  0  0  0  0  0  0
    3.6269    1.9297    1.7082 H   0  0  0  0  0  0  0  0  0  0  0  0
    1.9861    1.5180    2.2982 H   0  0  0  0  0  0  0  0  0  0  0  0
    3.7978   -0.4816    0.8514 C   0  0  0  0  0  3  0  0  0  0  0  0
    4.7252   -0.0850    1.3026 H   0  0  0  0  0  0  0  0  0  0  0  0
    3.6645   -1.7917    0.3393 C   0  0  0  0  0  3  0  0  0  0  0  0
    4.4610   -2.9503    0.1494 C   0  0  0  0  0  0  0  0  0  0  0  0
    5.5236   -3.0614    0.3958 H   0  0  0  0  0  0  0  0  0  0  0  0
    3.6060   -3.9147   -0.4167 C   0  0  0  0  0  0  0  0  0  0  0  0
    3.8669   -4.9405   -0.7036 H   0  0  0  0  0  0  0  0  0  0  0  0
    2.3236   -3.3159   -0.5510 C   0  0  0  0  0  0  0  0  0  0  0  0
    1.3893   -3.7364   -0.9424 H   0  0  0  0  0  0  0  0  0  0  0  0
  1  5  1  0  0  0  0
  2 21  1  0  0  0  0
  3 36  1  0  0  0  0
  3 33  1  0  0  0  0
  4 38  1  0  0  0  0
  5 20  1  0  0  0  0
  6  8  1  0  0  0  0
  6  5  2  0  0  0  0
  7  6  1  0  0  0  0
  8 10  2  0  0  0  0
  9  8  1  0  0  0  0
 10 11  1  0  0  0  0
 10 19  1  0  0  0  0
 11 13  1  0  0  0  0
 12 11  1  0  0  0  0
 13 14  1  0  0  0  0
 13 15  2  0  0  0  0
 15 16  1  0  0  0  0
 17 15  1  0  0  0  0
 17 18  1  0  0  0  0
 19 17  2  0  0  0  0
 20 21  2  0  0  0  0
 20 19  1  0  0  0  0
 21 22  1  0  0  0  0
 23  2  1  0  0  0  0
 23 32  1  0  0  0  0
 24 23  2  0  0  0  0
 25 24  1  0  0  0  0
 26 24  1  0  0  0  0
 26 28  2  0  0  0  0
 27 26  1  0  0  0  0
 28 30  1  0  0  0  0
 29 28  1  0  0  0  0
 30 32  2  0  0  0  0
 30 31  1  0  0  0  0
 32 33  1  0  0  0  0
 33 34  1  0  0  0  0
 33 35  1  0  0  0  0
 36 37  1  0  0  0  0
 38 36  1  0  0  0  0
 39 38  1  0  0  0  0
 39 40  1  0  0  0  0
 41 39  2  0  0  0  0
 42 41  1  0  0  0  0
 43 41  1  0  0  0  0
 43  4  2  0  0  0  0
 44 43  1  0  0  0  0
M  CHG  1   1  -1
M  END
