34,35,36,37
 OpenBabel05122313063D

 38 38  0  0  1  0  0  0  0  0999 V2000
   -2.6392    1.8649   -0.0007 C   0  0  0  0  0  0  0  0  0  0  0  0
   -2.6739    2.9613    0.0176 H   0  0  0  0  0  0  0  0  0  0  0  0
   -3.8395    1.1914    0.0603 C   0  0  0  0  0  0  0  0  0  0  0  0
   -4.7990    1.7229    0.1124 H   0  0  0  0  0  0  0  0  0  0  0  0
   -3.8475   -0.2341    0.0617 C   0  0  0  0  0  0  0  0  0  0  0  0
   -2.6383   -0.9346    0.0079 C   0  0  0  0  0  0  0  0  0  0  0  0
   -2.5952   -2.0303    0.0044 H   0  0  0  0  0  0  0  0  0  0  0  0
   -1.3962   -0.2498   -0.0582 C   0  0  2  0  0  3  0  0  0  0  0  0
   -1.3709    1.1974   -0.0610 C   0  0  0  0  0  0  0  0  0  0  0  0
   -0.1376    1.9416   -0.0847 C   0  0  0  0  0  0  0  0  0  0  0  0
   -0.1547    3.4516   -0.1573 C   0  0  0  0  0  0  0  0  0  0  0  0
    0.1181    3.9018    0.8208 H   0  0  0  0  0  0  0  0  0  0  0  0
   -1.1406    3.8485   -0.4417 H   0  0  0  0  0  0  0  0  0  0  0  0
    0.5732    3.8204   -0.9057 H   0  0  0  0  0  0  0  0  0  0  0  0
    2.2964    2.1316   -0.0061 C   0  0  0  0  0  0  0  0  0  0  0  0
    2.2087    3.0423    0.6198 H   0  0  0  0  0  0  0  0  0  0  0  0
    2.5552    2.4765   -1.0355 H   0  0  0  0  0  0  0  0  0  0  0  0
    3.4019    1.2424    0.5441 C   0  0  0  0  0  0  0  0  0  0  0  0
    4.4092    1.6907    0.4051 H   0  0  0  0  0  0  0  0  0  0  0  0
    3.2477    1.0605    1.6264 H   0  0  0  0  0  0  0  0  0  0  0  0
    4.0065   -1.2248    0.4033 C   0  0  0  0  0  0  0  0  0  0  0  0
    3.8616   -1.2231    1.5032 H   0  0  0  0  0  0  0  0  0  0  0  0
    5.0987   -1.1616    0.2093 H   0  0  0  0  0  0  0  0  0  0  0  0
    3.3848   -2.4695   -0.2220 C   0  0  0  0  0  0  0  0  0  0  0  0
    3.6027   -2.4996   -1.3093 H   0  0  0  0  0  0  0  0  0  0  0  0
    3.7992   -3.3986    0.2208 H   0  0  0  0  0  0  0  0  0  0  0  0
   -5.1604   -2.2258    0.1249 C   0  0  0  0  0  0  0  0  0  0  0  0
   -4.7307   -2.6654   -0.8010 H   0  0  0  0  0  0  0  0  0  0  0  0
   -6.2384   -2.4611    0.1743 H   0  0  0  0  0  0  0  0  0  0  0  0
   -4.6484   -2.6621    1.0096 H   0  0  0  0  0  0  0  0  0  0  0  0
    3.5418    0.0645   -1.1407 H   0  0  0  0  0  0  0  0  0  0  0  0
    1.6070   -2.7044    0.8693 H   0  0  0  0  0  0  0  0  0  0  0  0
    1.3859   -2.9087   -0.7432 H   0  0  0  0  0  0  0  0  0  0  0  0
    1.0539    1.3421   -0.0240 N   0  0  0  0  0  2  0  0  0  0  0  0
    3.2708   -0.0602   -0.1495 N   0  0  0  0  0  0  0  0  0  0  0  0
    1.9141   -2.3549   -0.0524 N   0  0  0  0  0  0  0  0  0  0  0  0
   -0.3258   -1.0115   -0.1274 O   0  0  0  0  0  1  0  0  0  0  0  0
   -5.0628   -0.8066    0.1179 O   0  0  0  0  0  0  0  0  0  0  0  0
  1  2  1  0  0  0  0
  1  3  2  0  0  0  0
  3  5  1  0  0  0  0
  3  4  1  0  0  0  0
  5 38  1  0  0  0  0
  6  5  2  0  0  0  0
  7  6  1  0  0  0  0
  8 37  1  6  0  0  0
  8  6  1  0  0  0  0
  9  8  1  0  0  0  0
  9  1  1  0  0  0  0
 10  9  2  0  0  0  0
 10 34  1  0  0  0  0
 11 10  1  0  0  0  0
 11 12  1  0  0  0  0
 13 11  1  0  0  0  0
 14 11  1  0  0  0  0
 15 18  1  0  0  0  0
 15 16  1  0  0  0  0
 17 15  1  0  0  0  0
 18 20  1  0  0  0  0
 19 18  1  0  0  0  0
 21 22  1  0  0  0  0
 23 21  1  0  0  0  0
 24 36  1  0  0  0  0
 24 26  1  0  0  0  0
 24 21  1  0  0  0  0
 25 24  1  0  0  0  0
 27 29  1  0  0  0  0
 27 30  1  0  0  0  0
 28 27  1  0  0  0  0
 31 35  1  0  0  0  0
 33 36  1  0  0  0  0
 34 15  1  0  0  0  0
 35 21  1  0  0  0  0
 35 18  1  0  0  0  0
 36 32  1  0  0  0  0
 38 27  1  0  0  0  0
M  END
