2,6,7,8
 OpenBabel05122313063D

 75 79  0  0  1  0  0  0  0  0999 V2000
   -6.2941   -2.3104    0.0407 Br  0  0  0  0  0  0  0  0  0  0  0  0
    0.2057   -1.6923    1.1149 O   0  5  0  0  0  0  0  0  0  0  0  0
   -1.8279   -1.1812    1.9429 O   0  0  0  0  0  0  0  0  0  0  0  0
    4.7655   -1.2735   -2.2667 O   0  0  0  0  0  0  0  0  0  0  0  0
   -7.2090    0.5419    0.1286 O   0  0  0  0  0  0  0  0  0  0  0  0
    0.6535    0.5789    0.0766 N   0  0  0  0  0  2  0  0  0  0  0  0
    3.0293   -0.3672   -0.9532 N   0  0  0  0  0  2  0  0  0  0  0  0
    2.4469   -2.7611    0.0853 N   0  0  0  0  0  0  0  0  0  0  0  0
   -0.8515   -0.9150    1.2586 C   0  0  0  0  0  0  0  0  0  0  0  0
   -0.7611    0.3582    0.3995 C   0  0  2  0  0  0  0  0  0  0  0  0
   -1.1824    1.2070    0.9698 H   0  0  0  0  0  0  0  0  0  0  0  0
   -1.6025    0.1940   -0.8986 C   0  0  0  0  0  0  0  0  0  0  0  0
   -1.2898    0.9962   -1.5972 H   0  0  0  0  0  0  0  0  0  0  0  0
   -1.3346   -0.7724   -1.3742 H   0  0  0  0  0  0  0  0  0  0  0  0
   -3.0862    0.2940   -0.6505 C   0  0  0  0  0  0  0  0  0  0  0  0
   -3.8775   -0.8548   -0.4553 C   0  0  0  0  0  0  0  0  0  0  0  0
   -3.4212   -1.8539   -0.4886 H   0  0  0  0  0  0  0  0  0  0  0  0
   -5.2471   -0.7447   -0.2032 C   0  0  0  0  0  0  0  0  0  0  0  0
   -5.8762    0.5234   -0.1207 C   0  0  0  0  0  0  0  0  0  0  0  0
   -5.0791    1.6717   -0.3048 C   0  0  0  0  0  0  0  0  0  0  0  0
   -5.5319    2.6707   -0.2482 H   0  0  0  0  0  0  0  0  0  0  0  0
   -3.7067    1.5532   -0.5663 C   0  0  0  0  0  0  0  0  0  0  0  0
   -3.1064    2.4665   -0.7050 H   0  0  0  0  0  0  0  0  0  0  0  0
   -7.8593    1.7934    0.2282 C   0  0  0  0  0  0  0  0  0  0  0  0
   -8.9226    1.5748    0.4380 H   0  0  0  0  0  0  0  0  0  0  0  0
   -7.7892    2.3748   -0.7189 H   0  0  0  0  0  0  0  0  0  0  0  0
   -7.4461    2.4111    1.0572 H   0  0  0  0  0  0  0  0  0  0  0  0
    1.1331    1.7801   -0.1695 C   0  0  0  0  0  0  0  0  0  0  0  0
    2.5143    2.0151   -0.5642 C   0  0  0  0  0  0  0  0  0  0  0  0
    3.4111    0.9689   -0.9969 C   0  0  1  0  0  3  0  0  0  0  0  0
    4.7113    1.3684   -1.4282 C   0  0  0  0  0  0  0  0  0  0  0  0
    5.3830    0.5921   -1.8054 H   0  0  0  0  0  0  0  0  0  0  0  0
    5.1298    2.6953   -1.3771 C   0  0  0  0  0  0  0  0  0  0  0  0
    6.1528    2.9420   -1.7018 H   0  0  0  0  0  0  0  0  0  0  0  0
    4.2688    3.7101   -0.9181 C   0  0  0  0  0  0  0  0  0  0  0  0
    4.5992    4.7579   -0.8714 H   0  0  0  0  0  0  0  0  0  0  0  0
    2.9794    3.3606   -0.5350 C   0  0  0  0  0  0  0  0  0  0  0  0
    2.2896    4.1410   -0.1859 H   0  0  0  0  0  0  0  0  0  0  0  0
    0.2160    2.9636   -0.0519 C   0  0  0  0  0  0  0  0  0  0  0  0
   -0.2857    3.5849   -1.2133 C   0  0  0  0  0  0  0  0  0  0  0  0
    0.0320    3.2180   -2.2010 H   0  0  0  0  0  0  0  0  0  0  0  0
   -1.1777    4.6633   -1.1110 C   0  0  0  0  0  0  0  0  0  0  0  0
   -1.5671    5.1374   -2.0246 H   0  0  0  0  0  0  0  0  0  0  0  0
   -1.5697    5.1363    0.1515 C   0  0  0  0  0  0  0  0  0  0  0  0
   -2.2695    5.9818    0.2314 H   0  0  0  0  0  0  0  0  0  0  0  0
   -1.0598    4.5330    1.3125 C   0  0  0  0  0  0  0  0  0  0  0  0
   -1.3567    4.9048    2.3046 H   0  0  0  0  0  0  0  0  0  0  0  0
   -0.1715    3.4523    1.2126 C   0  0  0  0  0  0  0  0  0  0  0  0
    0.2287    2.9774    2.1216 H   0  0  0  0  0  0  0  0  0  0  0  0
    3.8021   -1.3768   -1.5060 C   0  0  0  0  0  0  0  0  0  0  0  0
    3.3250   -2.7760   -1.1224 C   0  0  2  0  0  0  0  0  0  0  0  0
    4.2381   -3.3759   -0.9189 H   0  0  0  0  0  0  0  0  0  0  0  0
    2.4814   -3.4557   -2.2421 C   0  0  0  0  0  0  0  0  0  0  0  0
    2.3893   -2.8022   -3.1302 H   0  0  0  0  0  0  0  0  0  0  0  0
    2.9863   -4.3836   -2.5737 H   0  0  0  0  0  0  0  0  0  0  0  0
    1.1267   -3.7720   -1.5817 C   0  0  0  0  0  0  0  0  0  0  0  0
    0.4076   -2.9385   -1.7217 H   0  0  0  0  0  0  0  0  0  0  0  0
    0.6562   -4.6935   -1.9750 H   0  0  0  0  0  0  0  0  0  0  0  0
    1.4812   -3.8804   -0.1064 C   0  0  0  0  0  0  0  0  0  0  0  0
    0.6330   -3.7488    0.5891 H   0  0  0  0  0  0  0  0  0  0  0  0
    2.0047   -4.8406    0.1107 H   0  0  0  0  0  0  0  0  0  0  0  0
    3.1614   -2.8589    1.3941 C   0  0  0  0  0  0  0  0  0  0  0  0
    2.3778   -3.0577    2.1504 H   0  0  0  0  0  0  0  0  0  0  0  0
    3.8471   -3.7360    1.3571 H   0  0  0  0  0  0  0  0  0  0  0  0
    3.9090   -1.5945    1.7452 C   0  0  0  0  0  0  0  0  0  0  0  0
    3.2361   -0.5549    2.4225 C   0  0  0  0  0  0  0  0  0  0  0  0
    2.2054   -0.7193    2.7723 H   0  0  0  0  0  0  0  0  0  0  0  0
    3.8708    0.6751    2.6439 C   0  0  0  0  0  0  0  0  0  0  0  0
    3.3336    1.4823    3.1646 H   0  0  0  0  0  0  0  0  0  0  0  0
    5.1860    0.8805    2.1962 C   0  0  0  0  0  0  0  0  0  0  0  0
    5.6761    1.8533    2.3506 H   0  0  0  0  0  0  0  0  0  0  0  0
    5.8700   -0.1559    1.5448 C   0  0  0  0  0  0  0  0  0  0  0  0
    6.9008   -0.0018    1.1927 H   0  0  0  0  0  0  0  0  0  0  0  0
    5.2352   -1.3893    1.3258 C   0  0  0  0  0  0  0  0  0  0  0  0
    5.7732   -2.1927    0.7987 H   0  0  0  0  0  0  0  0  0  0  0  0
  2  9  1  0  0  0  0
  4 50  2  0  0  0  0
  5 24  1  0  0  0  0
  6 10  1  0  0  0  0
  8 62  1  0  0  0  0
  9  3  2  0  0  0  0
 10 11  1  1  0  0  0
 10  9  1  0  0  0  0
 12 15  1  0  0  0  0
 12 10  1  0  0  0  0
 13 12  1  0  0  0  0
 14 12  1  0  0  0  0
 15 22  2  0  0  0  0
 15 16  1  0  0  0  0
 16 18  2  0  0  0  0
 17 16  1  0  0  0  0
 18 19  1  0  0  0  0
 18  1  1  0  0  0  0
 19  5  1  0  0  0  0
 20 21  1  0  0  0  0
 20 19  2  0  0  0  0
 22 20  1  0  0  0  0
 23 22  1  0  0  0  0
 24 25  1  0  0  0  0
 24 27  1  0  0  0  0
 26 24  1  0  0  0  0
 28 39  1  0  0  0  0
 28  6  1  0  0  0  0
 29 37  1  0  0  0  0
 29 28  2  0  0  0  0
 30  7  1  1  0  0  0
 30 29  1  0  0  0  0
 31 33  2  0  0  0  0
 31 30  1  0  0  0  0
 32 31  1  0  0  0  0
 33 35  1  0  0  0  0
 34 33  1  0  0  0  0
 35 36  1  0  0  0  0
 35 37  2  0  0  0  0
 37 38  1  0  0  0  0
 39 48  1  0  0  0  0
 40 42  1  0  0  0  0
 40 39  2  0  0  0  0
 41 40  1  0  0  0  0
 42 44  2  0  0  0  0
 43 42  1  0  0  0  0
 44 45  1  0  0  0  0
 44 46  1  0  0  0  0
 46 47  1  0  0  0  0
 48 46  2  0  0  0  0
 48 49  1  0  0  0  0
 50 51  1  0  0  0  0
 50  7  1  0  0  0  0
 51 52  1  1  0  0  0
 51  8  1  0  0  0  0
 53 56  1  0  0  0  0
 53 51  1  0  0  0  0
 54 53  1  0  0  0  0
 55 53  1  0  0  0  0
 56 59  1  0  0  0  0
 57 56  1  0  0  0  0
 58 56  1  0  0  0  0
 59  8  1  0  0  0  0
 59 61  1  0  0  0  0
 59 60  1  0  0  0  0
 62 65  1  0  0  0  0
 62 63  1  0  0  0  0
 64 62  1  0  0  0  0
 65 66  1  0  0  0  0
 66 68  2  0  0  0  0
 66 67  1  0  0  0  0
 68 69  1  0  0  0  0
 70 71  1  0  0  0  0
 70 68  1  0  0  0  0
 72 70  2  0  0  0  0
 73 72  1  0  0  0  0
 74 72  1  0  0  0  0
 74 65  2  0  0  0  0
 75 74  1  0  0  0  0
M  CHG  1   2  -1
M  END
