2,5,6,7
 OpenBabel05122313063D

 61 64  0  0  1  0  0  0  0  0999 V2000
   -0.3363    4.3201   -1.7772 F   0  0  0  0  0  0  0  0  0  0  0  0
   -0.5822   -2.5488   -1.1608 O   0  5  0  0  0  0  0  0  0  0  0  0
    0.9354   -4.0681   -1.8500 O   0  0  0  0  0  0  0  0  0  0  0  0
   -2.7957    1.3593    2.3350 O   0  0  0  0  0  0  0  0  0  0  0  0
    1.0579   -1.0341    0.0469 N   0  0  0  0  0  2  0  0  0  0  0  0
   -1.0452    0.4313    1.0555 N   0  0  0  0  0  2  0  0  0  0  0  0
   -2.7216   -1.2435   -0.1764 N   0  0  0  0  0  0  0  0  0  0  0  0
    0.6259   -3.0760   -1.2080 C   0  0  0  0  0  0  0  0  0  0  0  0
    1.6346   -2.3424   -0.3014 C   0  0  2  0  0  0  0  0  0  0  0  0
    2.5794   -2.2194   -0.8666 H   0  0  0  0  0  0  0  0  0  0  0  0
    1.8033    0.0130    0.3249 C   0  0  0  0  0  0  0  0  0  0  0  0
    1.2472    1.2911    0.7485 C   0  0  0  0  0  0  0  0  0  0  0  0
   -0.1231    1.4659    1.1690 C   0  0  0  0  0  0  0  0  0  0  0  0
   -0.4945    2.7580    1.6467 C   0  0  0  0  0  0  0  0  0  0  0  0
   -1.5141    2.8872    2.0211 H   0  0  0  0  0  0  0  0  0  0  0  0
    0.3913    3.8322    1.6296 C   0  0  0  0  0  0  0  0  0  0  0  0
    0.0396    4.8160    1.9774 H   0  0  0  0  0  0  0  0  0  0  0  0
    1.7130    3.6743    1.1730 C   0  0  0  0  0  0  0  0  0  0  0  0
    2.4111    4.5232    1.1495 H   0  0  0  0  0  0  0  0  0  0  0  0
    2.1248    2.4125    0.7620 C   0  0  0  0  0  3  0  0  0  0  0  0
    3.1587    2.2673    0.4208 H   0  0  0  0  0  0  0  0  0  0  0  0
   -2.3348    0.5252    1.5543 C   0  0  0  0  0  0  0  0  0  0  0  0
   -3.2426   -0.6029    1.0671 C   0  0  2  0  0  0  0  0  0  0  0  0
   -4.2379   -0.1485    0.8706 H   0  0  0  0  0  0  0  0  0  0  0  0
   -3.3811   -1.7608    2.1006 C   0  0  0  0  0  0  0  0  0  0  0  0
   -2.7613   -1.5746    2.9982 H   0  0  0  0  0  0  0  0  0  0  0  0
   -4.4322   -1.8286    2.4412 H   0  0  0  0  0  0  0  0  0  0  0  0
   -2.9578   -3.0314    1.3373 C   0  0  0  0  0  0  0  0  0  0  0  0
   -1.8807   -3.2502    1.4874 H   0  0  0  0  0  0  0  0  0  0  0  0
   -3.5293   -3.9298    1.6397 H   0  0  0  0  0  0  0  0  0  0  0  0
   -3.1877   -2.6577   -0.1195 C   0  0  0  0  0  0  0  0  0  0  0  0
   -2.6133   -3.2580   -0.8477 H   0  0  0  0  0  0  0  0  0  0  0  0
   -4.2725   -2.6825   -0.3760 H   0  0  0  0  0  0  0  0  0  0  0  0
   -3.1224   -0.5787   -1.4545 C   0  0  0  0  0  0  0  0  0  0  0  0
   -4.2314   -0.4740   -1.4635 H   0  0  0  0  0  0  0  0  0  0  0  0
   -2.8319   -1.2798   -2.2607 H   0  0  0  0  0  0  0  0  0  0  0  0
   -2.4478    0.7555   -1.6556 C   0  0  0  0  0  0  0  0  0  0  0  0
   -1.1583    0.8066   -2.2296 C   0  0  0  0  0  0  0  0  0  0  0  0
   -0.7085   -0.1142   -2.6313 H   0  0  0  0  0  0  0  0  0  0  0  0
   -0.4448    2.0099   -2.2861 C   0  0  0  0  0  0  0  0  0  0  0  0
    0.5659    2.0653   -2.7142 H   0  0  0  0  0  0  0  0  0  0  0  0
   -1.0315    3.1694   -1.7624 C   0  0  0  0  0  0  0  0  0  0  0  0
   -2.3209    3.1582   -1.2214 C   0  0  0  0  0  0  0  0  0  0  0  0
   -2.7486    4.0892   -0.8247 H   0  0  0  0  0  0  0  0  0  0  0  0
   -3.0230    1.9445   -1.1735 C   0  0  0  0  0  0  0  0  0  0  0  0
   -4.0272    1.9248   -0.7228 H   0  0  0  0  0  0  0  0  0  0  0  0
    1.9158   -3.1873    0.9471 C   0  0  0  0  0  0  0  0  0  0  0  0
    2.7012   -2.7224    1.5745 H   0  0  0  0  0  0  0  0  0  0  0  0
    2.2547   -4.1914    0.6266 H   0  0  0  0  0  0  0  0  0  0  0  0
    0.9944   -3.2980    1.5540 H   0  0  0  0  0  0  0  0  0  0  0  0
    3.2950   -0.1009    0.1990 C   0  0  0  0  0  0  0  0  0  0  0  0
    3.9053   -0.0578   -1.0714 C   0  0  0  0  0  0  0  0  0  0  0  0
    3.2785    0.0649   -1.9683 H   0  0  0  0  0  0  0  0  0  0  0  0
    5.2988   -0.1626   -1.1908 C   0  0  0  0  0  0  0  0  0  0  0  0
    5.7656   -0.1252   -2.1866 H   0  0  0  0  0  0  0  0  0  0  0  0
    6.0945   -0.3146   -0.0440 C   0  0  0  0  0  0  0  0  0  0  0  0
    7.1875   -0.3994   -0.1388 H   0  0  0  0  0  0  0  0  0  0  0  0
    5.4929   -0.3533    1.2238 C   0  0  0  0  0  0  0  0  0  0  0  0
    6.1128   -0.4668    2.1259 H   0  0  0  0  0  0  0  0  0  0  0  0
    4.0997   -0.2424    1.3467 C   0  0  0  0  0  0  0  0  0  0  0  0
    3.6252   -0.2560    2.3396 H   0  0  0  0  0  0  0  0  0  0  0  0
  1 42  1  0  0  0  0
  3  8  2  0  0  0  0
  5 11  1  0  0  0  0
  6 13  1  0  0  0  0
  6 22  1  0  0  0  0
  7 31  1  0  0  0  0
  7 23  1  0  0  0  0
  8  2  1  0  0  0  0
  8  9  1  0  0  0  0
  9 10  1  6  0  0  0
  9  5  1  0  0  0  0
  9 47  1  0  0  0  0
 11 12  2  0  0  0  0
 12 20  1  0  0  0  0
 12 13  1  0  0  0  0
 13 14  2  0  0  0  0
 14 15  1  0  0  0  0
 16 14  1  0  0  0  0
 16 17  1  0  0  0  0
 18 16  2  0  0  0  0
 19 18  1  0  0  0  0
 20 18  1  0  0  0  0
 21 20  1  0  0  0  0
 22  4  2  0  0  0  0
 23 24  1  6  0  0  0
 23 22  1  0  0  0  0
 23 25  1  0  0  0  0
 25 27  1  0  0  0  0
 25 26  1  0  0  0  0
 28 29  1  0  0  0  0
 28 30  1  0  0  0  0
 28 25  1  0  0  0  0
 31 28  1  0  0  0  0
 32 31  1  0  0  0  0
 33 31  1  0  0  0  0
 34  7  1  0  0  0  0
 35 34  1  0  0  0  0
 36 34  1  0  0  0  0
 37 34  1  0  0  0  0
 37 45  1  0  0  0  0
 38 37  2  0  0  0  0
 39 38  1  0  0  0  0
 40 38  1  0  0  0  0
 40 42  2  0  0  0  0
 41 40  1  0  0  0  0
 42 43  1  0  0  0  0
 43 45  2  0  0  0  0
 43 44  1  0  0  0  0
 45 46  1  0  0  0  0
 47 50  1  0  0  0  0
 47 48  1  0  0  0  0
 49 47  1  0  0  0  0
 51 11  1  0  0  0  0
 51 60  1  0  0  0  0
 52 51  2  0  0  0  0
 53 52  1  0  0  0  0
 54 52  1  0  0  0  0
 54 56  2  0  0  0  0
 55 54  1  0  0  0  0
 56 58  1  0  0  0  0
 57 56  1  0  0  0  0
 58 60  2  0  0  0  0
 58 59  1  0  0  0  0
 60 61  1  0  0  0  0
M  CHG  1   2  -1
M  END
