4,9,10,11
 OpenBabel05122313063D

 72 76  0  0  1  0  0  0  0  0999 V2000
   -3.5135   -3.6618    2.1840 Cl  0  0  0  0  0  0  0  0  0  0  0  0
   -3.1379   -0.6254    3.0952 Cl  0  0  0  0  0  0  0  0  0  0  0  0
   -5.2511    1.4435    0.9990 O   0  0  0  0  0  0  0  0  0  0  0  0
   -1.2591   -0.7460   -2.4412 O   0  5  0  0  0  0  0  0  0  0  0  0
    0.8440   -1.2894   -3.0442 O   0  0  0  0  0  0  0  0  0  0  0  0
    3.4694    1.0604   -0.4867 O   0  0  0  0  0  0  0  0  0  0  0  0
    4.2704   -3.1033   -0.6043 O   0  0  0  0  0  0  0  0  0  0  0  0
    6.3119   -2.3205   -1.2173 O   0  0  0  0  0  0  0  0  0  0  0  0
   -3.6008   -0.8405   -1.1379 N   0  0  0  0  0  2  0  0  0  0  0  0
   -3.2344    1.5368   -0.2349 N   0  0  0  0  0  2  0  0  0  0  0  0
   -0.6197    1.3390   -1.0995 N   0  0  0  0  0  2  0  0  0  0  0  0
    4.7304   -0.7948   -0.7673 N   0  0  0  0  0  0  0  0  0  0  0  0
   -3.6502   -2.0713   -1.6868 C   0  0  0  0  0  3  0  0  0  0  0  0
   -2.8408   -2.3023   -2.3956 H   0  0  0  0  0  0  0  0  0  0  0  0
   -4.6666   -2.9704   -1.3390 C   0  0  0  0  0  0  0  0  0  0  0  0
   -4.6825   -3.9685   -1.7993 H   0  0  0  0  0  0  0  0  0  0  0  0
   -5.6363   -2.5871   -0.3992 C   0  0  0  0  0  0  0  0  0  0  0  0
   -6.4306   -3.2871   -0.1011 H   0  0  0  0  0  0  0  0  0  0  0  0
   -5.5724   -1.3025    0.1593 C   0  0  0  0  0  0  0  0  0  0  0  0
   -6.2887   -0.9245    0.9020 H   0  0  0  0  0  0  0  0  0  0  0  0
   -4.5369   -0.4558   -0.2393 C   0  0  0  0  0  0  0  0  0  0  0  0
   -4.3918    0.9523    0.2630 C   0  0  0  0  0  0  0  0  0  0  0  0
   -2.9519    2.8915   -0.0915 C   0  0  0  0  0  0  0  0  0  0  0  0
   -3.9606    3.8207    0.2979 C   0  0  0  0  0  0  0  0  0  0  0  0
   -4.9516    3.4266    0.5427 H   0  0  0  0  0  0  0  0  0  0  0  0
   -3.7114    5.1889    0.3788 C   0  0  0  0  0  0  0  0  0  0  0  0
   -4.5320    5.8645    0.6655 H   0  0  0  0  0  0  0  0  0  0  0  0
   -2.4342    5.7031    0.0962 C   0  0  0  0  0  0  0  0  0  0  0  0
   -2.2320    6.7826    0.1487 H   0  0  0  0  0  0  0  0  0  0  0  0
   -1.4207    4.8141   -0.2493 C   0  0  0  0  0  3  0  0  0  0  0  0
   -0.4246    5.2186   -0.4693 H   0  0  0  0  0  0  0  0  0  0  0  0
   -1.6301    3.4119   -0.3515 C   0  0  0  0  0  0  0  0  0  0  0  0
   -0.4690    2.5756   -0.6807 C   0  0  0  0  0  0  0  0  0  0  0  0
    0.9110    3.1767   -0.5340 C   0  0  0  0  0  0  0  0  0  0  0  0
    1.7167    2.4234   -0.4877 H   0  0  0  0  0  0  0  0  0  0  0  0
    0.9672    3.7978    0.3789 H   0  0  0  0  0  0  0  0  0  0  0  0
    1.1290    3.8439   -1.3954 H   0  0  0  0  0  0  0  0  0  0  0  0
    0.5109    0.4545   -1.3975 C   0  0  2  0  0  0  0  0  0  0  0  0
    1.3688    1.0090   -1.8212 H   0  0  0  0  0  0  0  0  0  0  0  0
    0.0421   -0.6060   -2.4123 C   0  0  0  0  0  0  0  0  0  0  0  0
    1.0047   -0.2737   -0.0936 C   0  0  1  0  0  0  0  0  0  0  0  0
    1.2325    0.5328    0.6336 H   0  0  0  0  0  0  0  0  0  0  0  0
   -0.0950   -1.1416    0.4940 C   0  0  0  0  0  0  0  0  0  0  0  0
   -0.2848   -2.4777    0.0858 C   0  0  0  0  0  0  0  0  0  0  0  0
    0.3818   -2.9274   -0.6631 H   0  0  0  0  0  0  0  0  0  0  0  0
   -1.3349   -3.2431    0.6055 C   0  0  0  0  0  0  0  0  0  0  0  0
   -1.4811   -4.2851    0.2887 H   0  0  0  0  0  0  0  0  0  0  0  0
   -2.2211   -2.6916    1.5446 C   0  0  0  0  0  0  0  0  0  0  0  0
   -2.0464   -1.3540    1.9589 C   0  0  0  0  0  0  0  0  0  0  0  0
   -0.9904   -0.5937    1.4320 C   0  0  0  0  0  0  0  0  0  0  0  0
   -0.8780    0.4463    1.7696 H   0  0  0  0  0  0  0  0  0  0  0  0
    2.2941   -1.0583   -0.3636 C   0  0  0  0  0  0  0  0  0  0  0  0
    2.4952   -1.7900    0.4443 H   0  0  0  0  0  0  0  0  0  0  0  0
    2.1935   -1.6680   -1.2872 H   0  0  0  0  0  0  0  0  0  0  0  0
    3.5028   -0.1689   -0.5282 C   0  0  0  0  0  0  0  0  0  0  0  0
    5.0084   -2.1780   -0.8389 C   0  0  0  0  0  0  0  0  0  0  0  0
    6.8597   -1.0449   -1.5957 C   0  0  0  0  0  0  0  0  0  0  0  0
    6.8219   -0.9566   -2.7021 H   0  0  0  0  0  0  0  0  0  0  0  0
    7.9113   -0.9991   -1.2585 H   0  0  0  0  0  0  0  0  0  0  0  0
    5.9613    0.0030   -0.9088 C   0  0  2  0  0  0  0  0  0  0  0  0
    5.7524    0.8639   -1.5718 H   0  0  0  0  0  0  0  0  0  0  0  0
    6.4691    0.5134    0.4303 C   0  0  0  0  0  0  0  0  0  0  0  0
    6.3260    1.8719    0.7650 C   0  0  0  0  0  0  0  0  0  0  0  0
    5.8414    2.5526    0.0492 H   0  0  0  0  0  0  0  0  0  0  0  0
    6.7741    2.3498    2.0055 C   0  0  0  0  0  0  0  0  0  0  0  0
    6.6576    3.4152    2.2555 H   0  0  0  0  0  0  0  0  0  0  0  0
    7.3634    1.4708    2.9272 C   0  0  0  0  0  0  0  0  0  0  0  0
    7.7136    1.8446    3.9012 H   0  0  0  0  0  0  0  0  0  0  0  0
    7.5032    0.1115    2.6034 C   0  0  0  0  0  0  0  0  0  0  0  0
    7.9627   -0.5834    3.3225 H   0  0  0  0  0  0  0  0  0  0  0  0
    7.0591   -0.3655    1.3620 C   0  0  0  0  0  0  0  0  0  0  0  0
    7.1723   -1.4340    1.1191 H   0  0  0  0  0  0  0  0  0  0  0  0
  4 40  1  0  0  0  0
  5 40  2  0  0  0  0
  8 56  1  0  0  0  0
  9 21  1  0  0  0  0
 10 23  1  0  0  0  0
 10 22  1  0  0  0  0
 11 33  1  0  0  0  0
 12 55  1  0  0  0  0
 13 15  1  0  0  0  0
 13  9  1  0  0  0  0
 14 13  1  0  0  0  0
 15 17  2  0  0  0  0
 16 15  1  0  0  0  0
 17 18  1  0  0  0  0
 17 19  1  0  0  0  0
 19 20  1  0  0  0  0
 21 19  2  0  0  0  0
 21 22  1  0  0  0  0
 22  3  2  0  0  0  0
 23 24  2  0  0  0  0
 24 26  1  0  0  0  0
 24 25  1  0  0  0  0
 26 27  1  0  0  0  0
 28 29  1  0  0  0  0
 28 26  2  0  0  0  0
 30 28  1  0  0  0  0
 31 30  1  0  0  0  0
 32 30  1  0  0  0  0
 32 23  1  0  0  0  0
 33 34  1  0  0  0  0
 33 32  2  0  0  0  0
 34 35  1  0  0  0  0
 34 36  1  0  0  0  0
 37 34  1  0  0  0  0
 38 39  1  6  0  0  0
 38 11  1  0  0  0  0
 38 41  1  0  0  0  0
 40 38  1  0  0  0  0
 41 43  1  0  0  0  0
 41 42  1  1  0  0  0
 43 50  1  0  0  0  0
 44 43  2  0  0  0  0
 44 46  1  0  0  0  0
 45 44  1  0  0  0  0
 46 48  2  0  0  0  0
 47 46  1  0  0  0  0
 48 49  1  0  0  0  0
 48  1  1  0  0  0  0
 49  2  1  0  0  0  0
 50 51  1  0  0  0  0
 50 49  2  0  0  0  0
 52 41  1  0  0  0  0
 52 53  1  0  0  0  0
 54 52  1  0  0  0  0
 55  6  2  0  0  0  0
 55 52  1  0  0  0  0
 56 12  1  0  0  0  0
 56  7  2  0  0  0  0
 57 59  1  0  0  0  0
 57  8  1  0  0  0  0
 57 60  1  0  0  0  0
 58 57  1  0  0  0  0
 60 61  1  6  0  0  0
 60 12  1  0  0  0  0
 60 62  1  0  0  0  0
 62 63  2  0  0  0  0
 62 71  1  0  0  0  0
 63 65  1  0  0  0  0
 64 63  1  0  0  0  0
 65 66  1  0  0  0  0
 65 67  2  0  0  0  0
 67 68  1  0  0  0  0
 69 67  1  0  0  0  0
 69 70  1  0  0  0  0
 71 69  2  0  0  0  0
 72 71  1  0  0  0  0
M  CHG  1   4  -1
M  END
