1,2,3,5
 OpenBabel05122313063D

 56 59  0  0  1  0  0  0  0  0999 V2000
   -0.1156    0.0870   -0.1825 N   0  0  0  0  0  2  0  0  0  0  0  0
    2.4446    1.0412    0.2056 N   0  0  0  0  0  2  0  0  0  0  0  0
    3.3461   -1.3339   -0.0990 N   0  0  0  0  0  2  0  0  0  0  0  0
   -0.1904   -4.0049   -1.2768 O   0  5  0  0  0  0  0  0  0  0  0  0
    1.0884   -2.1943   -1.0329 O   0  0  0  0  0  0  0  0  0  0  0  0
    4.3982    1.7174    1.3481 O   0  0  0  0  0  0  0  0  0  0  0  0
   -0.0250   -2.8610   -0.8434 C   0  0  0  0  0  0  0  0  0  0  0  0
   -1.1124   -2.1715   -0.0683 C   0  0  0  0  0  0  0  0  0  0  0  0
   -1.1122   -0.8350    0.1811 C   0  0  0  0  0  0  0  0  0  0  0  0
   -1.9830   -0.4006    0.6972 H   0  0  0  0  0  0  0  0  0  0  0  0
   -0.4452    1.3783   -0.2437 C   0  0  0  0  0  0  0  0  0  0  0  0
    0.5243    2.4507   -0.3827 C   0  0  0  0  0  0  0  0  0  0  0  0
    0.0462    3.7307   -0.7880 C   0  0  0  0  0  3  0  0  0  0  0  0
   -1.0116    3.8263   -1.0674 H   0  0  0  0  0  0  0  0  0  0  0  0
    0.8760    4.8433   -0.8547 C   0  0  0  0  0  0  0  0  0  0  0  0
    0.4789    5.8139   -1.1850 H   0  0  0  0  0  0  0  0  0  0  0  0
    2.2283    4.7007   -0.4874 C   0  0  0  0  0  0  0  0  0  0  0  0
    2.9044    5.5692   -0.5175 H   0  0  0  0  0  0  0  0  0  0  0  0
    2.7370    3.4654   -0.0933 C   0  0  0  0  0  0  0  0  0  0  0  0
    3.7858    3.3733    0.2058 H   0  0  0  0  0  0  0  0  0  0  0  0
    1.9228    2.2959   -0.0671 C   0  0  0  0  0  0  0  0  0  0  0  0
    3.6982    0.8752    0.7813 C   0  0  0  0  0  0  0  0  0  0  0  0
    4.1916   -0.5263    0.5821 C   0  0  2  0  0  3  0  0  0  0  0  0
    5.4549   -0.9523    0.9999 C   0  0  0  0  0  0  0  0  0  0  0  0
    6.0824   -0.2382    1.5521 H   0  0  0  0  0  0  0  0  0  0  0  0
    5.8570   -2.2581    0.6839 C   0  0  0  0  0  0  0  0  0  0  0  0
    6.8447   -2.6306    0.9941 H   0  0  0  0  0  0  0  0  0  0  0  0
    4.9794   -3.0807   -0.0407 C   0  0  0  0  0  0  0  0  0  0  0  0
    5.2582   -4.1074   -0.3177 H   0  0  0  0  0  0  0  0  0  0  0  0
    3.7217   -2.5899   -0.4164 C   0  0  0  0  0  0  0  0  0  0  0  0
    2.9678   -3.1747   -0.9673 H   0  0  0  0  0  0  0  0  0  0  0  0
   -1.8885    1.7592   -0.1439 C   0  0  0  0  0  0  0  0  0  0  0  0
   -2.8138    1.3131   -1.1124 C   0  0  0  0  0  0  0  0  0  0  0  0
   -2.4646    0.6851   -1.9454 H   0  0  0  0  0  0  0  0  0  0  0  0
   -4.1661    1.6610   -1.0089 C   0  0  0  0  0  0  0  0  0  0  0  0
   -4.8787    1.3056   -1.7670 H   0  0  0  0  0  0  0  0  0  0  0  0
   -4.6134    2.4415    0.0690 C   0  0  0  0  0  0  0  0  0  0  0  0
   -5.6795    2.6993    0.1563 H   0  0  0  0  0  0  0  0  0  0  0  0
   -3.6998    2.8875    1.0370 C   0  0  0  0  0  0  0  0  0  0  0  0
   -4.0464    3.4974    1.8849 H   0  0  0  0  0  0  0  0  0  0  0  0
   -2.3416    2.5579    0.9277 C   0  0  0  0  0  0  0  0  0  0  0  0
   -1.6199    2.9101    1.6797 H   0  0  0  0  0  0  0  0  0  0  0  0
   -2.2643   -3.0526    0.3672 C   0  0  0  0  0  0  0  0  0  0  0  0
   -2.2985   -3.8868   -0.3635 H   0  0  0  0  0  0  0  0  0  0  0  0
   -2.0031   -3.5250    1.3410 H   0  0  0  0  0  0  0  0  0  0  0  0
   -3.5970   -2.3514    0.4706 C   0  0  0  0  0  0  0  0  0  0  0  0
   -4.4093   -2.1993   -0.6727 C   0  0  0  0  0  0  0  0  0  0  0  0
   -4.0731   -2.6305   -1.6290 H   0  0  0  0  0  0  0  0  0  0  0  0
   -5.6335   -1.5197   -0.6009 C   0  0  0  0  0  0  0  0  0  0  0  0
   -6.2594   -1.4241   -1.5019 H   0  0  0  0  0  0  0  0  0  0  0  0
   -6.0634   -0.9654    0.6159 C   0  0  0  0  0  0  0  0  0  0  0  0
   -7.0235   -0.4302    0.6731 H   0  0  0  0  0  0  0  0  0  0  0  0
   -5.2630   -1.1034    1.7597 C   0  0  0  0  0  0  0  0  0  0  0  0
   -5.5922   -0.6748    2.7187 H   0  0  0  0  0  0  0  0  0  0  0  0
   -4.0430   -1.7947    1.6863 C   0  0  0  0  0  0  0  0  0  0  0  0
   -3.4236   -1.9102    2.5904 H   0  0  0  0  0  0  0  0  0  0  0  0
  1  9  1  0  0  0  0
  2 22  1  0  0  0  0
  3 23  1  0  0  0  0
  4  7  1  0  0  0  0
  5  7  2  0  0  0  0
  7  8  1  0  0  0  0
  8  9  2  0  0  0  0
  8 43  1  0  0  0  0
  9 10  1  0  0  0  0
 11  1  1  0  0  0  0
 11 32  1  0  0  0  0
 12 11  2  0  0  0  0
 12 21  1  0  0  0  0
 13 12  1  0  0  0  0
 14 13  1  0  0  0  0
 15 13  1  0  0  0  0
 15 17  2  0  0  0  0
 16 15  1  0  0  0  0
 17 19  1  0  0  0  0
 18 17  1  0  0  0  0
 19 21  2  0  0  0  0
 19 20  1  0  0  0  0
 21  2  1  0  0  0  0
 22  6  2  0  0  0  0
 23 22  1  6  0  0  0
 23 24  1  0  0  0  0
 24 25  1  0  0  0  0
 26 27  1  0  0  0  0
 26 24  2  0  0  0  0
 28 26  1  0  0  0  0
 29 28  1  0  0  0  0
 30  3  1  0  0  0  0
 30 28  2  0  0  0  0
 31 30  1  0  0  0  0
 32 41  1  0  0  0  0
 33 35  1  0  0  0  0
 33 32  2  0  0  0  0
 34 33  1  0  0  0  0
 35 37  2  0  0  0  0
 36 35  1  0  0  0  0
 37 38  1  0  0  0  0
 37 39  1  0  0  0  0
 39 40  1  0  0  0  0
 41 39  2  0  0  0  0
 41 42  1  0  0  0  0
 43 46  1  0  0  0  0
 43 45  1  0  0  0  0
 44 43  1  0  0  0  0
 46 55  1  0  0  0  0
 47 49  1  0  0  0  0
 47 46  2  0  0  0  0
 48 47  1  0  0  0  0
 49 51  2  0  0  0  0
 50 49  1  0  0  0  0
 51 52  1  0  0  0  0
 51 53  1  0  0  0  0
 53 54  1  0  0  0  0
 55 53  2  0  0  0  0
 55 56  1  0  0  0  0
M  CHG  1   4  -1
M  END
