1,2,3,4
 OpenBabel05122313063D

 70 75  0  0  1  0  0  0  0  0999 V2000
    0.6055    3.0256    0.4798 O   0  5  0  0  0  0  0  0  0  0  0  0
    1.6361    0.8611   -0.4274 N   0  0  0  0  0  2  0  0  0  0  0  0
   -1.9163    2.1580   -0.0548 N   0  0  0  0  0  0  0  0  0  0  0  0
   -0.8624    0.0527   -1.2642 N   0  0  0  0  0  2  0  0  0  0  0  0
    2.5250    3.9006    1.2722 O   0  0  0  0  0  0  0  0  0  0  0  0
   -2.8165   -0.3037   -2.5363 O   0  0  0  0  0  0  0  0  0  0  0  0
   -1.0701   -2.3400   -1.7873 C   0  0  0  0  0  0  0  0  0  0  0  0
   -2.1198   -2.1799   -2.0495 H   0  0  0  0  0  0  0  0  0  0  0  0
    4.2487   -0.5330   -1.8730 C   0  0  0  0  0  0  0  0  0  0  0  0
    3.7526   -0.2218   -2.8049 H   0  0  0  0  0  0  0  0  0  0  0  0
   -2.1192    0.3566   -1.7664 C   0  0  0  0  0  0  0  0  0  0  0  0
    1.9128    3.0482    0.6462 C   0  0  0  0  0  0  0  0  0  0  0  0
    4.1187   -1.0840    0.4940 C   0  0  0  0  0  0  0  0  0  0  0  0
    3.5159   -1.1955    1.4074 H   0  0  0  0  0  0  0  0  0  0  0  0
    2.0172   -0.3638   -0.7211 C   0  0  0  0  0  0  0  0  0  0  0  0
    3.4866   -0.6733   -0.6969 C   0  0  0  0  0  0  0  0  0  0  0  0
   -0.2970   -1.2079   -1.3939 C   0  0  2  0  0  3  0  0  0  0  0  0
   -2.4812    1.5806    1.2142 C   0  0  0  0  0  0  0  0  0  0  0  0
   -2.1245    2.2405    2.0258 H   0  0  0  0  0  0  0  0  0  0  0  0
   -3.5845    1.6984    1.1787 H   0  0  0  0  0  0  0  0  0  0  0  0
   -2.6008    1.7281   -1.3081 C   0  0  2  0  0  0  0  0  0  0  0  0
   -3.6970    1.6589   -1.1370 H   0  0  0  0  0  0  0  0  0  0  0  0
   -2.0801    0.1515    1.4996 C   0  0  0  0  0  0  0  0  0  0  0  0
   -1.7271    4.0240   -1.5012 C   0  0  0  0  0  0  0  0  0  0  0  0
   -0.6293    4.1042   -1.6197 H   0  0  0  0  0  0  0  0  0  0  0  0
   -2.1688    5.0018   -1.7733 H   0  0  0  0  0  0  0  0  0  0  0  0
    5.6267   -0.7962   -1.8569 C   0  0  0  0  0  0  0  0  0  0  0  0
    6.2143   -0.6850   -2.7807 H   0  0  0  0  0  0  0  0  0  0  0  0
    1.0958   -1.4283   -1.0907 C   0  0  0  0  0  0  0  0  0  0  0  0
    0.8304   -3.8402   -1.5204 C   0  0  0  0  0  0  0  0  0  0  0  0
    1.2648   -4.8498   -1.5606 H   0  0  0  0  0  0  0  0  0  0  0  0
   -2.0378    3.6433   -0.0587 C   0  0  0  0  0  0  0  0  0  0  0  0
   -1.3327    4.0720    0.6751 H   0  0  0  0  0  0  0  0  0  0  0  0
   -3.0858    3.9044    0.2170 H   0  0  0  0  0  0  0  0  0  0  0  0
    6.2532   -1.2028   -0.6683 C   0  0  0  0  0  0  0  0  0  0  0  0
    7.3341   -1.4092   -0.6571 H   0  0  0  0  0  0  0  0  0  0  0  0
   -0.5242   -3.6194   -1.8353 C   0  0  0  0  0  0  0  0  0  0  0  0
   -1.1725   -4.4625   -2.1209 H   0  0  0  0  0  0  0  0  0  0  0  0
   -2.4242   -2.2989    1.2556 C   0  0  0  0  0  0  0  0  0  0  0  0
    1.6187   -2.7501   -1.1697 C   0  0  0  0  0  0  0  0  0  0  0  0
    2.6804   -2.9046   -0.9352 H   0  0  0  0  0  0  0  0  0  0  0  0
    0.0324    0.9456    2.6147 C   0  0  0  0  0  0  0  0  0  0  0  0
   -0.2688    1.9958    2.5244 H   0  0  0  0  0  0  0  0  0  0  0  0
   -2.9041   -0.9349    1.0898 C   0  0  0  0  0  0  0  0  0  0  0  0
    2.6163    1.8859   -0.0618 C   0  0  0  0  0  0  0  0  0  0  0  0
    3.1115    2.2858   -0.9745 H   0  0  0  0  0  0  0  0  0  0  0  0
    3.4229    1.4863    0.5822 H   0  0  0  0  0  0  0  0  0  0  0  0
   -4.1971   -0.7680    0.4900 C   0  0  0  0  0  0  0  0  0  0  0  0
   -4.6085    0.2409    0.3565 H   0  0  0  0  0  0  0  0  0  0  0  0
   -0.3582   -1.4663    2.2812 C   0  0  0  0  0  0  0  0  0  0  0  0
   -0.8261   -0.0994    2.1314 C   0  0  0  0  0  0  0  0  0  0  0  0
   -2.2961    2.8529   -2.3368 C   0  0  0  0  0  0  0  0  0  0  0  0
   -1.5713    2.5037   -3.0969 H   0  0  0  0  0  0  0  0  0  0  0  0
   -3.2237    3.1255   -2.8746 H   0  0  0  0  0  0  0  0  0  0  0  0
    5.4963   -1.3480    0.5054 C   0  0  0  0  0  0  0  0  0  0  0  0
    5.9822   -1.6699    1.4390 H   0  0  0  0  0  0  0  0  0  0  0  0
    1.2583    0.6698    3.1918 C   0  0  0  0  0  0  0  0  0  0  0  0
    1.8868    1.5020    3.5432 H   0  0  0  0  0  0  0  0  0  0  0  0
   -4.9496   -1.8472    0.0694 C   0  0  0  0  0  0  0  0  0  0  0  0
   -5.9335   -1.6764   -0.3921 H   0  0  0  0  0  0  0  0  0  0  0  0
   -3.2305   -3.3928    0.8022 C   0  0  0  0  0  0  0  0  0  0  0  0
   -2.8359   -4.4129    0.9266 H   0  0  0  0  0  0  0  0  0  0  0  0
   -1.1635   -2.5247    1.8299 C   0  0  0  0  0  0  0  0  0  0  0  0
   -0.7916   -3.5575    1.9172 H   0  0  0  0  0  0  0  0  0  0  0  0
    1.7129   -0.6753    3.3248 C   0  0  0  0  0  0  0  0  0  0  0  0
    2.6871   -0.8790    3.7952 H   0  0  0  0  0  0  0  0  0  0  0  0
    0.9207   -1.7148    2.8784 C   0  0  0  0  0  0  0  0  0  0  0  0
    1.2531   -2.7598    2.9760 H   0  0  0  0  0  0  0  0  0  0  0  0
   -4.4618   -3.1785    0.2183 C   0  0  0  0  0  0  0  0  0  0  0  0
   -5.0693   -4.0267   -0.1308 H   0  0  0  0  0  0  0  0  0  0  0  0
  1 12  1  0  0  0  0
  2 45  1  0  0  0  0
  3 18  1  0  0  0  0
  6 11  2  0  0  0  0
  7 17  1  0  0  0  0
  8  7  1  0  0  0  0
  9 27  2  0  0  0  0
  9 16  1  0  0  0  0
 10  9  1  0  0  0  0
 11 21  1  0  0  0  0
 11  4  1  0  0  0  0
 12  5  2  0  0  0  0
 13 55  1  0  0  0  0
 13 14  1  0  0  0  0
 15 16  1  0  0  0  0
 15  2  1  0  0  0  0
 16 13  2  0  0  0  0
 17  4  1  1  0  0  0
 17 29  1  0  0  0  0
 18 23  1  0  0  0  0
 18 19  1  0  0  0  0
 20 18  1  0  0  0  0
 21 22  1  1  0  0  0
 21  3  1  0  0  0  0
 23 51  1  0  0  0  0
 24 32  1  0  0  0  0
 25 24  1  0  0  0  0
 26 24  1  0  0  0  0
 27 35  1  0  0  0  0
 28 27  1  0  0  0  0
 29 15  2  0  0  0  0
 30 40  2  0  0  0  0
 31 30  1  0  0  0  0
 32  3  1  0  0  0  0
 32 34  1  0  0  0  0
 32 33  1  0  0  0  0
 35 36  1  0  0  0  0
 35 55  2  0  0  0  0
 37  7  2  0  0  0  0
 37 30  1  0  0  0  0
 38 37  1  0  0  0  0
 39 63  2  0  0  0  0
 40 29  1  0  0  0  0
 40 41  1  0  0  0  0
 42 57  1  0  0  0  0
 43 42  1  0  0  0  0
 44 39  1  0  0  0  0
 44 23  2  0  0  0  0
 45 47  1  0  0  0  0
 45 12  1  0  0  0  0
 46 45  1  0  0  0  0
 48 44  1  0  0  0  0
 49 48  1  0  0  0  0
 50 67  2  0  0  0  0
 51 50  1  0  0  0  0
 51 42  2  0  0  0  0
 52 24  1  0  0  0  0
 52 21  1  0  0  0  0
 53 52  1  0  0  0  0
 54 52  1  0  0  0  0
 55 56  1  0  0  0  0
 57 65  2  0  0  0  0
 57 58  1  0  0  0  0
 59 69  1  0  0  0  0
 59 48  2  0  0  0  0
 60 59  1  0  0  0  0
 61 62  1  0  0  0  0
 61 39  1  0  0  0  0
 63 64  1  0  0  0  0
 63 50  1  0  0  0  0
 65 66  1  0  0  0  0
 67 68  1  0  0  0  0
 67 65  1  0  0  0  0
 69 61  2  0  0  0  0
 70 69  1  0  0  0  0
M  CHG  1   1  -1
M  END
