1,4,5,6
 OpenBabel05122313063D

 74 78  0  0  1  0  0  0  0  0999 V2000
   -0.8097   -1.4132   -1.9615 O   0  5  0  0  0  0  0  0  0  0  0  0
    0.4204   -3.1258   -2.7461 O   0  0  0  0  0  0  0  0  0  0  0  0
   -2.7277    1.8147    2.2500 O   0  0  0  0  0  0  0  0  0  0  0  0
   -2.7222    0.2857   -1.0501 N   0  0  0  0  0  0  0  0  0  0  0  0
   -1.0071    1.0637    0.8285 N   0  0  0  0  0  2  0  0  0  0  0  0
    0.9241   -0.4766   -0.3755 N   0  0  0  0  0  2  0  0  0  0  0  0
   -3.5223   -0.8799   -1.5274 C   0  0  0  0  0  0  0  0  0  0  0  0
   -3.7777   -1.6616   -0.2511 C   0  0  0  0  0  0  0  0  0  0  0  0
   -4.0847   -0.5620    0.7788 C   0  0  0  0  0  0  0  0  0  0  0  0
   -3.3458    0.6992    0.2452 C   0  0  1  0  0  0  0  0  0  0  0  0
   -2.3199    1.2624    1.2274 C   0  0  0  0  0  0  0  0  0  0  0  0
    0.0526    1.7828    1.3581 C   0  0  2  0  0  3  0  0  0  0  0  0
   -0.1495    2.8729    2.2580 C   0  0  0  0  0  0  0  0  0  0  0  0
    0.8941    3.7065    2.6488 C   0  0  0  0  0  0  0  0  0  0  0  0
    2.2071    3.4887    2.1880 C   0  0  0  0  0  0  0  0  0  0  0  0
    2.4489    2.3916    1.3703 C   0  0  0  0  0  0  0  0  0  0  0  0
    1.4135    1.5057    0.9558 C   0  0  0  0  0  0  0  0  0  0  0  0
    1.7987    0.3349    0.1835 C   0  0  0  0  0  0  0  0  0  0  0  0
    1.3168   -1.7705   -0.9436 C   0  0  2  0  0  0  0  0  0  0  0  0
    0.2631   -2.1732   -1.9911 C   0  0  0  0  0  0  0  0  0  0  0  0
    1.4556   -2.8438    0.1883 C   0  0  2  0  0  0  0  0  0  0  0  0
    2.1264   -4.1095   -0.3555 C   0  0  0  0  0  0  0  0  0  0  0  0
    0.1429   -3.0840    0.9166 C   0  0  0  0  0  0  0  0  0  0  0  0
   -0.7282   -4.1318    0.5558 C   0  0  0  0  0  0  0  0  0  0  0  0
   -1.9164   -4.3549    1.2697 C   0  0  0  0  0  0  0  0  0  0  0  0
   -2.2633   -3.5253    2.3480 C   0  0  0  0  0  0  0  0  0  0  0  0
   -1.4180   -2.4612    2.7012 C   0  0  0  0  0  0  0  0  0  0  0  0
   -0.2271   -2.2472    1.9919 C   0  0  0  0  0  0  0  0  0  0  0  0
    3.2615    0.0367    0.0253 C   0  0  0  0  0  0  0  0  0  0  0  0
    3.8877    0.2636   -1.2178 C   0  0  0  0  0  0  0  0  0  0  0  0
    5.2506   -0.0208   -1.3874 C   0  0  0  0  0  0  0  0  0  0  0  0
    5.9998   -0.5393   -0.3191 C   0  0  0  0  0  0  0  0  0  0  0  0
    5.3843   -0.7613    0.9231 C   0  0  0  0  0  0  0  0  0  0  0  0
    4.0233   -0.4695    1.0974 C   0  0  0  0  0  0  0  0  0  0  0  0
   -2.6589    1.3531   -2.0958 C   0  0  0  0  0  0  0  0  0  0  0  0
   -1.6514    2.4390   -1.8046 C   0  0  0  0  0  0  0  0  0  0  0  0
   -1.9959    3.5706   -1.0442 C   0  0  0  0  0  0  0  0  0  0  0  0
   -1.0220    4.5199   -0.6944 C   0  0  0  0  0  0  0  0  0  0  0  0
    0.3048    4.3547   -1.1168 C   0  0  0  0  0  0  0  0  0  0  0  0
    0.6525    3.2423   -1.9006 C   0  0  0  0  0  0  0  0  0  0  0  0
   -0.3186    2.2921   -2.2439 C   0  0  0  0  0  0  0  0  0  0  0  0
   -2.9429   -1.4275   -2.2920 H   0  0  0  0  0  0  0  0  0  0  0  0
   -4.4718   -0.4955   -1.9679 H   0  0  0  0  0  0  0  0  0  0  0  0
   -4.5971   -2.3979   -0.3587 H   0  0  0  0  0  0  0  0  0  0  0  0
   -2.8612   -2.2190    0.0224 H   0  0  0  0  0  0  0  0  0  0  0  0
   -5.1716   -0.3580    0.8356 H   0  0  0  0  0  0  0  0  0  0  0  0
   -3.7457   -0.8232    1.7988 H   0  0  0  0  0  0  0  0  0  0  0  0
   -4.0784    1.5168    0.0664 H   0  0  0  0  0  0  0  0  0  0  0  0
   -1.1652    3.0458    2.6259 H   0  0  0  0  0  0  0  0  0  0  0  0
    0.6766    4.5497    3.3230 H   0  0  0  0  0  0  0  0  0  0  0  0
    3.0303    4.1560    2.4820 H   0  0  0  0  0  0  0  0  0  0  0  0
    3.4720    2.1927    1.0241 H   0  0  0  0  0  0  0  0  0  0  0  0
    2.3023   -1.7056   -1.4464 H   0  0  0  0  0  0  0  0  0  0  0  0
    2.1462   -2.3841    0.9264 H   0  0  0  0  0  0  0  0  0  0  0  0
    1.5851   -4.5057   -1.2354 H   0  0  0  0  0  0  0  0  0  0  0  0
    2.1773   -4.8904    0.4285 H   0  0  0  0  0  0  0  0  0  0  0  0
    3.1599   -3.8786   -0.6840 H   0  0  0  0  0  0  0  0  0  0  0  0
   -0.4734   -4.7822   -0.2932 H   0  0  0  0  0  0  0  0  0  0  0  0
   -2.5781   -5.1849    0.9781 H   0  0  0  0  0  0  0  0  0  0  0  0
   -3.1935   -3.7042    2.9087 H   0  0  0  0  0  0  0  0  0  0  0  0
   -1.6810   -1.7950    3.5372 H   0  0  0  0  0  0  0  0  0  0  0  0
    0.4371   -1.4200    2.2869 H   0  0  0  0  0  0  0  0  0  0  0  0
    3.2953    0.6685   -2.0530 H   0  0  0  0  0  0  0  0  0  0  0  0
    5.7296    0.1625   -2.3610 H   0  0  0  0  0  0  0  0  0  0  0  0
    7.0679   -0.7671   -0.4540 H   0  0  0  0  0  0  0  0  0  0  0  0
    5.9685   -1.1617    1.7653 H   0  0  0  0  0  0  0  0  0  0  0  0
    3.5422   -0.6262    2.0749 H   0  0  0  0  0  0  0  0  0  0  0  0
   -3.6803    1.7818   -2.2155 H   0  0  0  0  0  0  0  0  0  0  0  0
   -2.3914    0.8355   -3.0375 H   0  0  0  0  0  0  0  0  0  0  0  0
   -3.0338    3.7025   -0.7001 H   0  0  0  0  0  0  0  0  0  0  0  0
   -1.3013    5.3884   -0.0797 H   0  0  0  0  0  0  0  0  0  0  0  0
    1.0722    5.0878   -0.8275 H   0  0  0  0  0  0  0  0  0  0  0  0
    1.6917    3.1112   -2.2387 H   0  0  0  0  0  0  0  0  0  0  0  0
   -0.0464    1.4171   -2.8546 H   0  0  0  0  0  0  0  0  0  0  0  0
  2 20  2  0  0  0  0
  4 10  1  0  0  0  0
  5 11  1  0  0  0  0
  6 18  1  0  0  0  0
  7  4  1  0  0  0  0
  7  8  1  0  0  0  0
  8 45  1  0  0  0  0
  8  9  1  0  0  0  0
  9 46  1  0  0  0  0
  9 47  1  0  0  0  0
 10 48  1  6  0  0  0
 10  9  1  0  0  0  0
 10 11  1  0  0  0  0
 11  3  2  0  0  0  0
 12  5  1  6  0  0  0
 12 13  1  0  0  0  0
 13 49  1  0  0  0  0
 13 14  2  0  0  0  0
 14 50  1  0  0  0  0
 15 51  1  0  0  0  0
 15 14  1  0  0  0  0
 16 15  2  0  0  0  0
 17 12  1  0  0  0  0
 17 16  1  0  0  0  0
 18 17  2  0  0  0  0
 19 53  1  6  0  0  0
 19  6  1  0  0  0  0
 19 21  1  0  0  0  0
 20  1  1  0  0  0  0
 20 19  1  0  0  0  0
 21 23  1  0  0  0  0
 21 54  1  1  0  0  0
 22 21  1  0  0  0  0
 22 56  1  0  0  0  0
 23 28  1  0  0  0  0
 24 23  2  0  0  0  0
 24 25  1  0  0  0  0
 25 26  2  0  0  0  0
 26 27  1  0  0  0  0
 26 60  1  0  0  0  0
 27 61  1  0  0  0  0
 28 62  1  0  0  0  0
 28 27  2  0  0  0  0
 29 18  1  0  0  0  0
 29 34  1  0  0  0  0
 30 29  2  0  0  0  0
 31 30  1  0  0  0  0
 31 32  2  0  0  0  0
 32 33  1  0  0  0  0
 33 34  2  0  0  0  0
 33 66  1  0  0  0  0
 34 67  1  0  0  0  0
 35 36  1  0  0  0  0
 35  4  1  0  0  0  0
 36 37  1  0  0  0  0
 37 70  1  0  0  0  0
 37 38  2  0  0  0  0
 38 71  1  0  0  0  0
 39 72  1  0  0  0  0
 39 38  1  0  0  0  0
 40 39  2  0  0  0  0
 41 40  1  0  0  0  0
 41 36  2  0  0  0  0
 42  7  1  0  0  0  0
 43  7  1  0  0  0  0
 44  8  1  0  0  0  0
 52 16  1  0  0  0  0
 55 22  1  0  0  0  0
 57 22  1  0  0  0  0
 58 24  1  0  0  0  0
 59 25  1  0  0  0  0
 63 30  1  0  0  0  0
 64 31  1  0  0  0  0
 65 32  1  0  0  0  0
 68 35  1  0  0  0  0
 69 35  1  0  0  0  0
 73 40  1  0  0  0  0
 74 41  1  0  0  0  0
M  CHG  1   1  -1
M  END
