1,6,7,8
 OpenBabel05122313063D

 65 68  0  0  1  0  0  0  0  0999 V2000
   -0.3368   -2.2389    1.3391 O   0  5  0  0  0  0  0  0  0  0  0  0
    1.3925   -3.5504    1.9499 O   0  0  0  0  0  0  0  0  0  0  0  0
   -3.1367    1.2006   -2.2403 O   0  0  0  0  0  0  0  0  0  0  0  0
    0.9130   -2.8697   -1.5134 O   0  0  0  0  0  0  0  0  0  0  0  0
    1.1297   -3.3725   -2.3193 H   0  0  0  0  0  0  0  0  0  0  0  0
   -2.6505   -1.3251    0.2737 N   0  0  0  0  0  0  0  0  0  0  0  0
   -1.2464    0.5776   -0.9676 N   0  0  0  0  0  2  0  0  0  0  0  0
    1.0371   -0.5096    0.0973 N   0  0  0  0  0  2  0  0  0  0  0  0
   -2.8913   -2.7948    0.2826 C   0  0  0  0  0  0  0  0  0  0  0  0
   -3.9763   -2.9675    0.4733 H   0  0  0  0  0  0  0  0  0  0  0  0
   -2.2889   -3.2549    1.0866 H   0  0  0  0  0  0  0  0  0  0  0  0
   -2.4896   -3.2248   -1.1225 C   0  0  0  0  0  0  0  0  0  0  0  0
   -2.9752   -4.1752   -1.4170 H   0  0  0  0  0  0  0  0  0  0  0  0
   -1.3920   -3.3713   -1.1548 H   0  0  0  0  0  0  0  0  0  0  0  0
   -2.9109   -2.0337   -2.0165 C   0  0  0  0  0  0  0  0  0  0  0  0
   -3.8221   -2.2453   -2.6078 H   0  0  0  0  0  0  0  0  0  0  0  0
   -2.1091   -1.7652   -2.7309 H   0  0  0  0  0  0  0  0  0  0  0  0
   -3.1872   -0.8578   -1.0349 C   0  0  2  0  0  0  0  0  0  0  0  0
   -4.2802   -0.6696   -0.9511 H   0  0  0  0  0  0  0  0  0  0  0  0
   -2.5286    0.4464   -1.4786 C   0  0  0  0  0  0  0  0  0  0  0  0
   -0.5035    1.7448   -1.0848 C   0  0  1  0  0  3  0  0  0  0  0  0
   -1.0565    2.9421   -1.6302 C   0  0  0  0  0  0  0  0  0  0  0  0
   -2.0693    2.8892   -2.0403 H   0  0  0  0  0  0  0  0  0  0  0  0
   -0.3530    4.1439   -1.6318 C   0  0  0  0  0  0  0  0  0  0  0  0
   -0.8397    5.0431   -2.0411 H   0  0  0  0  0  0  0  0  0  0  0  0
    0.9545    4.2203   -1.1157 C   0  0  0  0  0  0  0  0  0  0  0  0
    1.5068    5.1712   -1.1045 H   0  0  0  0  0  0  0  0  0  0  0  0
    1.5462    3.0564   -0.6379 C   0  0  0  0  0  0  0  0  0  0  0  0
    2.5754    3.0915   -0.2552 H   0  0  0  0  0  0  0  0  0  0  0  0
    0.8637    1.8078   -0.6189 C   0  0  0  0  0  0  0  0  0  0  0  0
    1.6128    0.6418   -0.1705 C   0  0  0  0  0  0  0  0  0  0  0  0
    1.7936   -1.7290    0.3968 C   0  0  1  0  0  0  0  0  0  0  0  0
    2.7489   -1.5052    0.9097 H   0  0  0  0  0  0  0  0  0  0  0  0
    0.9236   -2.6065    1.3266 C   0  0  0  0  0  0  0  0  0  0  0  0
    2.1461   -2.4791   -0.9087 C   0  0  1  0  0  0  0  0  0  0  0  0
    2.6674   -1.7358   -1.5612 H   0  0  0  0  0  0  0  0  0  0  0  0
    3.0708   -3.6670   -0.6643 C   0  0  0  0  0  0  0  0  0  0  0  0
    3.2715   -4.1958   -1.6197 H   0  0  0  0  0  0  0  0  0  0  0  0
    2.6189   -4.3682    0.0627 H   0  0  0  0  0  0  0  0  0  0  0  0
    4.0456   -3.3282   -0.2592 H   0  0  0  0  0  0  0  0  0  0  0  0
   -3.2295   -0.6677    1.4835 C   0  0  0  0  0  0  0  0  0  0  0  0
   -4.3399   -0.6880    1.3987 H   0  0  0  0  0  0  0  0  0  0  0  0
   -2.9365   -1.3060    2.3395 H   0  0  0  0  0  0  0  0  0  0  0  0
   -2.7262    0.7391    1.7016 C   0  0  0  0  0  0  0  0  0  0  0  0
   -1.4925    0.9397    2.3581 C   0  0  0  0  0  0  0  0  0  0  0  0
   -0.9556    0.0728    2.7734 H   0  0  0  0  0  0  0  0  0  0  0  0
   -0.9547    2.2285    2.4771 C   0  0  0  0  0  0  0  0  0  0  0  0
    0.0128    2.3738    2.9812 H   0  0  0  0  0  0  0  0  0  0  0  0
   -1.6443    3.3322    1.9484 C   0  0  0  0  0  0  0  0  0  0  0  0
   -1.2113    4.3408    2.0234 H   0  0  0  0  0  0  0  0  0  0  0  0
   -2.8795    3.1425    1.3130 C   0  0  0  0  0  0  0  0  0  0  0  0
   -3.4222    4.0021    0.8926 H   0  0  0  0  0  0  0  0  0  0  0  0
   -3.4197    1.8513    1.1946 C   0  0  0  0  0  0  0  0  0  0  0  0
   -4.3787    1.7060    0.6733 H   0  0  0  0  0  0  0  0  0  0  0  0
    3.1004    0.7636   -0.0152 C   0  0  0  0  0  0  0  0  0  0  0  0
    3.6717    0.8358    1.2721 C   0  0  0  0  0  0  0  0  0  0  0  0
    3.0146    0.8177    2.1553 H   0  0  0  0  0  0  0  0  0  0  0  0
    5.0626    0.9330    1.4251 C   0  0  0  0  0  0  0  0  0  0  0  0
    5.4980    0.9912    2.4340 H   0  0  0  0  0  0  0  0  0  0  0  0
    5.8957    0.9551    0.2951 C   0  0  0  0  0  0  0  0  0  0  0  0
    6.9870    1.0280    0.4161 H   0  0  0  0  0  0  0  0  0  0  0  0
    5.3326    0.8897   -0.9894 C   0  0  0  0  0  0  0  0  0  0  0  0
    5.9811    0.9129   -1.8782 H   0  0  0  0  0  0  0  0  0  0  0  0
    3.9413    0.7994   -1.1454 C   0  0  0  0  0  0  0  0  0  0  0  0
    3.4941    0.7637   -2.1503 H   0  0  0  0  0  0  0  0  0  0  0  0
  3 20  2  0  0  0  0
  4 35  1  0  0  0  0
  5  4  1  0  0  0  0
  6  9  1  0  0  0  0
  6 41  1  0  0  0  0
  8 32  1  0  0  0  0
  9 10  1  0  0  0  0
  9 11  1  0  0  0  0
 12  9  1  0  0  0  0
 13 12  1  0  0  0  0
 14 12  1  0  0  0  0
 15 12  1  0  0  0  0
 15 18  1  0  0  0  0
 16 15  1  0  0  0  0
 17 15  1  0  0  0  0
 18 19  1  1  0  0  0
 18  6  1  0  0  0  0
 20 18  1  0  0  0  0
 20  7  1  0  0  0  0
 21  7  1  1  0  0  0
 21 30  1  0  0  0  0
 22 21  1  0  0  0  0
 23 22  1  0  0  0  0
 24 22  2  0  0  0  0
 24 26  1  0  0  0  0
 25 24  1  0  0  0  0
 26 27  1  0  0  0  0
 26 28  2  0  0  0  0
 28 30  1  0  0  0  0
 28 29  1  0  0  0  0
 30 31  2  0  0  0  0
 31 55  1  0  0  0  0
 31  8  1  0  0  0  0
 32 33  1  1  0  0  0
 32 34  1  0  0  0  0
 34  1  1  0  0  0  0
 34  2  2  0  0  0  0
 35 36  1  6  0  0  0
 35 37  1  0  0  0  0
 35 32  1  0  0  0  0
 37 40  1  0  0  0  0
 37 39  1  0  0  0  0
 38 37  1  0  0  0  0
 41 44  1  0  0  0  0
 41 43  1  0  0  0  0
 42 41  1  0  0  0  0
 44 45  1  0  0  0  0
 45 47  2  0  0  0  0
 45 46  1  0  0  0  0
 47 48  1  0  0  0  0
 49 50  1  0  0  0  0
 49 47  1  0  0  0  0
 51 49  2  0  0  0  0
 52 51  1  0  0  0  0
 53 51  1  0  0  0  0
 53 44  2  0  0  0  0
 54 53  1  0  0  0  0
 55 56  1  0  0  0  0
 56 58  2  0  0  0  0
 56 57  1  0  0  0  0
 58 59  1  0  0  0  0
 60 61  1  0  0  0  0
 60 58  1  0  0  0  0
 62 60  2  0  0  0  0
 63 62  1  0  0  0  0
 64 62  1  0  0  0  0
 64 55  2  0  0  0  0
 65 64  1  0  0  0  0
M  CHG  1   1  -1
M  END
