7,22,26,46
 OpenBabel05122313063D

 74 78  0  0  1  0  0  0  0  0999 V2000
    0.1561   -2.7770    2.9890 O   0  5  0  0  0  0  0  0  0  0  0  0
    1.7227    2.9817   -2.0910 O   0  0  0  0  0  0  0  0  0  0  0  0
    4.6896   -2.4911   -2.0346 F   0  0  0  0  0  0  0  0  0  0  0  0
    0.1038   -1.9200    2.1128 C   0  0  0  0  0  0  0  0  0  0  0  0
    1.0573   -2.3386   -1.8085 C   0  0  0  0  0  0  0  0  0  0  0  0
    0.2040   -1.9439   -2.3818 H   0  0  0  0  0  0  0  0  0  0  0  0
    0.9394   -0.9139    1.9952 O   0  0  0  0  0  0  0  0  0  0  0  0
   -0.5888   -3.1136   -0.0370 C   0  0  2  0  0  0  0  0  0  0  0  0
   -1.2776   -2.9570   -0.8932 H   0  0  0  0  0  0  0  0  0  0  0  0
    1.5511    2.1580   -1.1903 C   0  0  0  0  0  0  0  0  0  0  0  0
    2.7487    1.8009   -0.3179 C   0  0  1  0  0  0  0  0  0  0  0  0
    3.2517    2.7557   -0.0474 H   0  0  0  0  0  0  0  0  0  0  0  0
   -0.8460    1.7981   -1.3825 C   0  0  0  0  0  0  0  0  0  0  0  0
   -2.0321    1.0390   -1.0516 C   0  0  0  0  0  0  0  0  0  0  0  0
    3.2409   -3.3124   -0.3444 C   0  0  0  0  0  0  0  0  0  0  0  0
    4.1125   -3.6826    0.2142 H   0  0  0  0  0  0  0  0  0  0  0  0
   -0.9338   -1.9713    0.9771 C   0  0  2  0  0  0  0  0  0  0  0  0
   -1.9258   -2.2079    1.4083 H   0  0  0  0  0  0  0  0  0  0  0  0
   -3.4467    2.6506   -2.2733 C   0  0  0  0  0  0  0  0  0  0  0  0
   -4.4441    2.9824   -2.5964 H   0  0  0  0  0  0  0  0  0  0  0  0
    3.4318   -2.6721   -1.5734 C   0  0  0  0  0  0  0  0  0  0  0  0
    0.3990    1.4539   -0.8668 N   0  0  0  0  0  2  0  0  0  0  0  0
   -2.2878    3.3609   -2.6379 C   0  0  0  0  0  0  0  0  0  0  0  0
   -2.3647    4.2645   -3.2627 H   0  0  0  0  0  0  0  0  0  0  0  0
   -2.0168   -0.2043   -0.2962 C   0  0  0  0  0  0  0  0  0  0  0  0
    2.3710    1.0554    0.9177 N   0  0  0  0  0  0  0  0  0  0  0  0
   -3.2916   -0.9934   -0.1987 C   0  0  0  0  0  0  0  0  0  0  0  0
   -4.0705   -0.9265    0.9749 C   0  0  0  0  0  0  0  0  0  0  0  0
   -3.7416   -0.2805    1.8036 H   0  0  0  0  0  0  0  0  0  0  0  0
   -3.3010    1.5028   -1.5046 C   0  0  0  0  0  3  0  0  0  0  0  0
   -4.1932    0.9267   -1.2257 H   0  0  0  0  0  0  0  0  0  0  0  0
    2.3539   -2.1855   -2.3209 C   0  0  0  0  0  0  0  0  0  0  0  0
    2.5394   -1.6906   -3.2849 H   0  0  0  0  0  0  0  0  0  0  0  0
   -1.0282    2.9421   -2.2183 C   0  0  0  0  0  0  0  0  0  0  0  0
   -0.1344    3.4962   -2.5181 H   0  0  0  0  0  0  0  0  0  0  0  0
   -0.8998   -4.4827    0.5797 C   0  0  0  0  0  0  0  0  0  0  0  0
   -0.5906   -5.2976   -0.1039 H   0  0  0  0  0  0  0  0  0  0  0  0
   -1.9889   -4.5770    0.7651 H   0  0  0  0  0  0  0  0  0  0  0  0
   -0.3895   -4.6084    1.5538 H   0  0  0  0  0  0  0  0  0  0  0  0
    0.8419    2.7631    1.9236 C   0  0  0  0  0  0  0  0  0  0  0  0
    3.4840    0.0617    1.1989 C   0  0  0  0  0  0  0  0  0  0  0  0
    3.8509    0.2055    2.2329 H   0  0  0  0  0  0  0  0  0  0  0  0
    3.0584   -0.9560    1.1429 H   0  0  0  0  0  0  0  0  0  0  0  0
    0.8673    4.0053    1.2646 C   0  0  0  0  0  0  0  0  0  0  0  0
    1.8288    4.4379    0.9475 H   0  0  0  0  0  0  0  0  0  0  0  0
   -0.9437   -0.6636    0.3126 N   0  0  0  0  0  2  0  0  0  0  0  0
    0.8246   -2.9800   -0.5751 C   0  0  0  0  0  0  0  0  0  0  0  0
    1.9361   -3.4671    0.1449 C   0  0  0  0  0  0  0  0  0  0  0  0
    1.7834   -3.9547    1.1184 H   0  0  0  0  0  0  0  0  0  0  0  0
   -0.4014    2.2354    2.3359 C   0  0  0  0  0  0  0  0  0  0  0  0
   -0.4242    1.2774    2.8771 H   0  0  0  0  0  0  0  0  0  0  0  0
   -1.5588    4.1388    1.3607 C   0  0  0  0  0  0  0  0  0  0  0  0
   -2.4957    4.6616    1.1170 H   0  0  0  0  0  0  0  0  0  0  0  0
   -5.6652   -2.4980    0.0253 C   0  0  0  0  0  0  0  0  0  0  0  0
   -6.5899   -3.0878    0.1137 H   0  0  0  0  0  0  0  0  0  0  0  0
   -3.7198   -1.8103   -1.2636 C   0  0  0  0  0  0  0  0  0  0  0  0
   -3.1270   -1.8448   -2.1902 H   0  0  0  0  0  0  0  0  0  0  0  0
   -1.5925    2.9182    2.0553 C   0  0  0  0  0  0  0  0  0  0  0  0
   -2.5564    2.4916    2.3721 H   0  0  0  0  0  0  0  0  0  0  0  0
    4.5554    0.3110    0.1332 C   0  0  0  0  0  0  0  0  0  0  0  0
    5.3034    1.0505    0.4879 H   0  0  0  0  0  0  0  0  0  0  0  0
    5.0959   -0.6158   -0.1394 H   0  0  0  0  0  0  0  0  0  0  0  0
   -0.3268    4.6864    0.9764 C   0  0  0  0  0  0  0  0  0  0  0  0
   -0.2920    5.6449    0.4376 H   0  0  0  0  0  0  0  0  0  0  0  0
   -4.8987   -2.5627   -1.1490 C   0  0  0  0  0  0  0  0  0  0  0  0
   -5.2221   -3.2006   -1.9853 H   0  0  0  0  0  0  0  0  0  0  0  0
   -5.2519   -1.6743    1.0848 C   0  0  0  0  0  0  0  0  0  0  0  0
   -5.8525   -1.6141    2.0048 H   0  0  0  0  0  0  0  0  0  0  0  0
    3.7548    0.8915   -1.0322 C   0  0  0  0  0  0  0  0  0  0  0  0
    3.2078    0.0867   -1.5627 H   0  0  0  0  0  0  0  0  0  0  0  0
    4.3507    1.4534   -1.7744 H   0  0  0  0  0  0  0  0  0  0  0  0
    2.0942    1.9358    2.1005 C   0  0  0  0  0  0  0  0  0  0  0  0
    2.9844    2.5819    2.2756 H   0  0  0  0  0  0  0  0  0  0  0  0
    1.9744    1.2521    2.9619 H   0  0  0  0  0  0  0  0  0  0  0  0
  2 10  2  0  0  0  0
  3 21  1  0  0  0  0
  4  1  1  0  0  0  0
  5 47  1  0  0  0  0
  6  5  1  0  0  0  0
  7  4  2  0  0  0  0
  8  9  1  6  0  0  0
  8 36  1  0  0  0  0
  8 17  1  0  0  0  0
 10 22  1  0  0  0  0
 10 11  1  0  0  0  0
 11 12  1  1  0  0  0
 11 26  1  0  0  0  0
 13 14  1  0  0  0  0
 13 22  1  0  0  0  0
 14 25  2  0  0  0  0
 15 48  1  0  0  0  0
 15 16  1  0  0  0  0
 17 18  1  1  0  0  0
 17  4  1  0  0  0  0
 19 30  1  0  0  0  0
 20 19  1  0  0  0  0
 21 15  2  0  0  0  0
 23 19  2  0  0  0  0
 23 34  1  0  0  0  0
 24 23  1  0  0  0  0
 25 27  1  0  0  0  0
 25 46  1  0  0  0  0
 26 41  1  0  0  0  0
 26 72  1  0  0  0  0
 27 28  1  0  0  0  0
 28 67  2  0  0  0  0
 28 29  1  0  0  0  0
 30 31  1  0  0  0  0
 30 14  1  0  0  0  0
 32  5  2  0  0  0  0
 32 21  1  0  0  0  0
 33 32  1  0  0  0  0
 34 13  2  0  0  0  0
 35 34  1  0  0  0  0
 36 38  1  0  0  0  0
 36 39  1  0  0  0  0
 37 36  1  0  0  0  0
 40 72  1  0  0  0  0
 40 50  1  0  0  0  0
 41 42  1  0  0  0  0
 43 41  1  0  0  0  0
 44 40  2  0  0  0  0
 45 44  1  0  0  0  0
 46 17  1  0  0  0  0
 47  8  1  0  0  0  0
 47 48  2  0  0  0  0
 48 49  1  0  0  0  0
 50 51  1  0  0  0  0
 52 58  1  0  0  0  0
 53 52  1  0  0  0  0
 54 55  1  0  0  0  0
 54 67  1  0  0  0  0
 56 65  1  0  0  0  0
 56 27  2  0  0  0  0
 57 56  1  0  0  0  0
 58 50  2  0  0  0  0
 58 59  1  0  0  0  0
 60 61  1  0  0  0  0
 60 41  1  0  0  0  0
 62 60  1  0  0  0  0
 63 44  1  0  0  0  0
 63 52  2  0  0  0  0
 64 63  1  0  0  0  0
 65 54  2  0  0  0  0
 66 65  1  0  0  0  0
 67 68  1  0  0  0  0
 69 11  1  0  0  0  0
 69 60  1  0  0  0  0
 70 69  1  0  0  0  0
 71 69  1  0  0  0  0
 72 73  1  0  0  0  0
 72 74  1  0  0  0  0
M  CHG  1   1  -1
M  END
