1,3
 OpenBabel05122313063D

 23 24  0  0  1  0  0  0  0  0999 V2000
    1.4738    1.5910    1.5157 Si  0  0  0  0  0  3  0  0  0  0  0  0
    2.9543    1.4559    0.4055 N   0  0  0  0  0  0  0  0  0  0  0  0
    1.6900    0.0928   -1.1075 N   0  0  0  0  0  2  0  0  0  0  0  0
    4.2427    1.9719    0.4172 C   0  0  0  0  0  0  0  0  0  0  0  0
    4.5790    2.5836    1.2631 H   0  0  0  0  0  0  0  0  0  0  0  0
    4.9403    1.6010   -0.7251 C   0  0  0  0  0  0  0  0  0  0  0  0
    5.9751    1.8663   -0.9688 H   0  0  0  0  0  0  0  0  0  0  0  0
    4.0391    0.8034   -1.5100 C   0  0  0  0  0  0  0  0  0  0  0  0
    2.8192    0.7487   -0.7551 C   0  0  2  0  0  3  0  0  0  0  0  0
    1.7472   -0.5519   -2.2955 C   0  0  0  0  0  0  0  0  0  0  0  0
    0.8410   -1.0892   -2.6019 H   0  0  0  0  0  0  0  0  0  0  0  0
    2.8930   -0.5611   -3.1173 C   0  0  0  0  0  0  0  0  0  0  0  0
    2.8486   -1.1171   -4.0646 H   0  0  0  0  0  0  0  0  0  0  0  0
    4.0609    0.1139   -2.7369 C   0  0  0  0  0  0  0  0  0  0  0  0
    4.9573    0.1014   -3.3752 H   0  0  0  0  0  0  0  0  0  0  0  0
    2.1471    1.2203    3.2523 C   0  0  0  0  0  0  0  0  0  0  0  0
    2.5900    0.2068    3.3177 H   0  0  0  0  0  0  0  0  0  0  0  0
    1.3226    1.2756    3.9936 H   0  0  0  0  0  0  0  0  0  0  0  0
    2.9203    1.9567    3.5555 H   0  0  0  0  0  0  0  0  0  0  0  0
    1.0541    3.4452    1.5041 C   0  0  0  0  0  0  0  0  0  0  0  0
    1.9067    4.0646    1.8522 H   0  0  0  0  0  0  0  0  0  0  0  0
    0.1934    3.6430    2.1769 H   0  0  0  0  0  0  0  0  0  0  0  0
    0.7661    3.7825    0.4885 H   0  0  0  0  0  0  0  0  0  0  0  0
  1 16  1  0  0  0  0
  2  4  1  0  0  0  0
  2  1  1  0  0  0  0
  3  9  1  0  0  0  0
  4  5  1  0  0  0  0
  6  4  2  0  0  0  0
  7  6  1  0  0  0  0
  8  6  1  0  0  0  0
  9  8  1  1  0  0  0
  9  2  1  0  0  0  0
 10  3  1  0  0  0  0
 11 10  1  0  0  0  0
 12 14  1  0  0  0  0
 12 10  2  0  0  0  0
 13 12  1  0  0  0  0
 14  8  2  0  0  0  0
 15 14  1  0  0  0  0
 16 17  1  0  0  0  0
 16 19  1  0  0  0  0
 16 18  1  0  0  0  0
 20  1  1  0  0  0  0
 20 21  1  0  0  0  0
 20 22  1  0  0  0  0
 23 20  1  0  0  0  0
M  END
