1,2
 OpenBabel05122313063D

 34 36  0  0  0  0  0  0  0  0999 V2000
    0.0390    0.0777   -2.0489 Se  0  0  0  0  0  1  0  0  0  0  0  0
    0.8118    1.5720    0.7386 N   0  0  0  0  0  2  0  0  0  0  0  0
   -1.0594   -0.0868   -0.1883 P   0  0  0  0  0  4  0  0  0  0  0  0
    1.3608    2.5847    1.4454 C   0  0  0  0  0  3  0  0  0  0  0  0
    2.4565    2.6667    1.3607 H   0  0  0  0  0  0  0  0  0  0  0  0
    0.5800    3.4180    2.2574 C   0  0  0  0  0  0  0  0  0  0  0  0
    1.0659    4.2364    2.8076 H   0  0  0  0  0  0  0  0  0  0  0  0
   -0.7998    3.1935    2.3575 C   0  0  0  0  0  0  0  0  0  0  0  0
   -1.4310    3.8336    2.9917 H   0  0  0  0  0  0  0  0  0  0  0  0
   -1.3654    2.1298    1.6357 C   0  0  0  0  0  0  0  0  0  0  0  0
   -2.4411    1.9078    1.6850 H   0  0  0  0  0  0  0  0  0  0  0  0
   -0.5258    1.3467    0.8355 C   0  0  0  0  0  0  0  0  0  0  0  0
   -0.6829   -1.5671    0.8084 C   0  0  0  0  0  0  0  0  0  0  0  0
   -1.2465   -1.6909    2.0965 C   0  0  0  0  0  0  0  0  0  0  0  0
   -1.9285   -0.9194    2.4870 H   0  0  0  0  0  0  0  0  0  0  0  0
   -0.9217   -2.8013    2.8874 C   0  0  0  0  0  0  0  0  0  0  0  0
   -1.3543   -2.9003    3.8942 H   0  0  0  0  0  0  0  0  0  0  0  0
   -0.0349   -3.7758    2.3986 C   0  0  0  0  0  0  0  0  0  0  0  0
    0.2272   -4.6405    3.0268 H   0  0  0  0  0  0  0  0  0  0  0  0
    0.5301   -3.6414    1.1211 C   0  0  0  0  0  0  0  0  0  0  0  0
    1.2435   -4.3899    0.7465 H   0  0  0  0  0  0  0  0  0  0  0  0
    0.2126   -2.5360    0.3178 C   0  0  0  0  0  0  0  0  0  0  0  0
    0.6947   -2.4032   -0.6646 H   0  0  0  0  0  0  0  0  0  0  0  0
   -2.8684    0.0433   -0.3794 C   0  0  0  0  0  0  0  0  0  0  0  0
   -3.3890    1.2229   -0.9566 C   0  0  0  0  0  0  0  0  0  0  0  0
   -2.7086    2.0396   -1.2443 H   0  0  0  0  0  0  0  0  0  0  0  0
   -4.7672    1.3413   -1.1764 C   0  0  0  0  0  0  0  0  0  0  0  0
   -5.1716    2.2621   -1.6228 H   0  0  0  0  0  0  0  0  0  0  0  0
   -5.6278    0.2824   -0.8392 C   0  0  0  0  0  0  0  0  0  0  0  0
   -6.7095    0.3760   -1.0182 H   0  0  0  0  0  0  0  0  0  0  0  0
   -5.1087   -0.8975   -0.2846 C   0  0  0  0  0  0  0  0  0  0  0  0
   -5.7802   -1.7316   -0.0317 H   0  0  0  0  0  0  0  0  0  0  0  0
   -3.7301   -1.0230   -0.0539 C   0  0  0  0  0  0  0  0  0  0  0  0
   -3.3235   -1.9503    0.3752 H   0  0  0  0  0  0  0  0  0  0  0  0
  1  3  1  0  0  0  0
  2 12  1  0  0  0  0
  2  4  1  0  0  0  0
  3 13  1  0  0  0  0
  3 12  1  0  0  0  0
  4  6  1  0  0  0  0
  5  4  1  0  0  0  0
  6  8  2  0  0  0  0
  6  7  1  0  0  0  0
  8  9  1  0  0  0  0
 10 11  1  0  0  0  0
 10  8  1  0  0  0  0
 12 10  2  0  0  0  0
 13 14  1  0  0  0  0
 14 15  1  0  0  0  0
 14 16  2  0  0  0  0
 16 17  1  0  0  0  0
 18 16  1  0  0  0  0
 18 19  1  0  0  0  0
 20 18  2  0  0  0  0
 21 20  1  0  0  0  0
 22 13  2  0  0  0  0
 22 20  1  0  0  0  0
 23 22  1  0  0  0  0
 24  3  1  0  0  0  0
 24 33  1  0  0  0  0
 25 24  2  0  0  0  0
 26 25  1  0  0  0  0
 27 25  1  0  0  0  0
 27 29  2  0  0  0  0
 28 27  1  0  0  0  0
 29 31  1  0  0  0  0
 30 29  1  0  0  0  0
 31 33  2  0  0  0  0
 31 32  1  0  0  0  0
 33 34  1  0  0  0  0
M  END
