2,6
 OpenBabel05122313063D

 62 66  0  0  0  0  0  0  0  0999 V2000
   -3.2801    0.0760    2.3334 Se  0  0  0  0  0  1  0  0  0  0  0  0
    1.1138   -1.2847   -1.8359 Se  0  0  0  0  0  1  0  0  0  0  0  0
   -2.5391    0.6715    0.4354 P   0  0  0  0  0  4  0  0  0  0  0  0
   -0.1332   -1.2073   -0.0804 P   0  0  0  0  0  4  0  0  0  0  0  0
   -0.8373    0.3838    0.1132 N   0  0  0  0  0  0  0  0  0  0  0  0
    2.3106    1.0570    0.9345 N   0  0  0  0  0  2  0  0  0  0  0  0
    3.1991    1.0759    1.9471 C   0  0  0  0  0  3  0  0  0  0  0  0
    4.1504    0.5511    1.7468 H   0  0  0  0  0  0  0  0  0  0  0  0
    2.9233    1.7061    3.1659 C   0  0  0  0  0  0  0  0  0  0  0  0
    3.6762    1.6979    3.9667 H   0  0  0  0  0  0  0  0  0  0  0  0
    1.6841    2.3395    3.3314 C   0  0  0  0  0  0  0  0  0  0  0  0
    1.4363    2.8524    4.2730 H   0  0  0  0  0  0  0  0  0  0  0  0
    0.7601    2.3010    2.2802 C   0  0  0  0  0  0  0  0  0  0  0  0
   -0.2314    2.7673    2.3730 H   0  0  0  0  0  0  0  0  0  0  0  0
    1.1009    1.6427    1.0880 C   0  0  0  0  0  0  0  0  0  0  0  0
    0.1143    1.5126   -0.0493 C   0  0  0  0  0  0  0  0  0  0  0  0
    0.6664    1.4072   -1.0100 H   0  0  0  0  0  0  0  0  0  0  0  0
   -0.4714    2.4441   -0.1290 H   0  0  0  0  0  0  0  0  0  0  0  0
   -2.7258    2.4911    0.1901 C   0  0  0  0  0  0  0  0  0  0  0  0
   -2.8279    3.3127    1.3305 C   0  0  0  0  0  0  0  0  0  0  0  0
   -2.8266    2.8382    2.3256 H   0  0  0  0  0  0  0  0  0  0  0  0
   -2.9603    4.7009    1.1881 C   0  0  0  0  0  0  0  0  0  0  0  0
   -3.0390    5.3355    2.0837 H   0  0  0  0  0  0  0  0  0  0  0  0
   -3.0038    5.2773   -0.0917 C   0  0  0  0  0  0  0  0  0  0  0  0
   -3.1103    6.3669   -0.2032 H   0  0  0  0  0  0  0  0  0  0  0  0
   -2.9228    4.4597   -1.2299 C   0  0  0  0  0  0  0  0  0  0  0  0
   -2.9681    4.9043   -2.2353 H   0  0  0  0  0  0  0  0  0  0  0  0
   -2.7863    3.0704   -1.0949 C   0  0  0  0  0  0  0  0  0  0  0  0
   -2.7294    2.4421   -1.9945 H   0  0  0  0  0  0  0  0  0  0  0  0
   -3.3797   -0.0884   -1.0046 C   0  0  0  0  0  0  0  0  0  0  0  0
   -2.7801   -0.0449   -2.2817 C   0  0  0  0  0  0  0  0  0  0  0  0
   -1.7584    0.3472   -2.4056 H   0  0  0  0  0  0  0  0  0  0  0  0
   -3.4677   -0.5617   -3.3884 C   0  0  0  0  0  0  0  0  0  0  0  0
   -2.9969   -0.5315   -4.3825 H   0  0  0  0  0  0  0  0  0  0  0  0
   -4.7389   -1.1364   -3.2229 C   0  0  0  0  0  0  0  0  0  0  0  0
   -5.2722   -1.5492   -4.0927 H   0  0  0  0  0  0  0  0  0  0  0  0
   -5.3226   -1.1979   -1.9475 C   0  0  0  0  0  0  0  0  0  0  0  0
   -6.3107   -1.6634   -1.8140 H   0  0  0  0  0  0  0  0  0  0  0  0
   -4.6480   -0.6704   -0.8365 C   0  0  0  0  0  0  0  0  0  0  0  0
   -5.0839   -0.7178    0.1740 H   0  0  0  0  0  0  0  0  0  0  0  0
   -1.4805   -2.4362   -0.1768 C   0  0  0  0  0  0  0  0  0  0  0  0
   -2.0970   -2.9176    0.9956 C   0  0  0  0  0  0  0  0  0  0  0  0
   -1.7832   -2.5520    1.9815 H   0  0  0  0  0  0  0  0  0  0  0  0
   -3.1251   -3.8667    0.8983 C   0  0  0  0  0  0  0  0  0  0  0  0
   -3.6103   -4.2326    1.8151 H   0  0  0  0  0  0  0  0  0  0  0  0
   -3.5305   -4.3433   -0.3566 C   0  0  0  0  0  0  0  0  0  0  0  0
   -4.3396   -5.0862   -0.4274 H   0  0  0  0  0  0  0  0  0  0  0  0
   -2.8934   -3.8864   -1.5230 C   0  0  0  0  0  0  0  0  0  0  0  0
   -3.1970   -4.2689   -2.5085 H   0  0  0  0  0  0  0  0  0  0  0  0
   -1.8649   -2.9421   -1.4354 C   0  0  0  0  0  0  0  0  0  0  0  0
   -1.3501   -2.5909   -2.3416 H   0  0  0  0  0  0  0  0  0  0  0  0
    0.7853   -1.5525    1.4580 C   0  0  0  0  0  0  0  0  0  0  0  0
    0.3134   -1.0653    2.6946 C   0  0  0  0  0  0  0  0  0  0  0  0
   -0.6078   -0.4604    2.7400 H   0  0  0  0  0  0  0  0  0  0  0  0
    1.0299   -1.3535    3.8641 C   0  0  0  0  0  0  0  0  0  0  0  0
    0.6648   -0.9723    4.8299 H   0  0  0  0  0  0  0  0  0  0  0  0
    2.2136   -2.1091    3.8017 C   0  0  0  0  0  0  0  0  0  0  0  0
    2.7800   -2.3190    4.7219 H   0  0  0  0  0  0  0  0  0  0  0  0
    2.6836   -2.5808    2.5667 C   0  0  0  0  0  0  0  0  0  0  0  0
    3.6268   -3.1425    2.5027 H   0  0  0  0  0  0  0  0  0  0  0  0
    1.9701   -2.3096    1.3905 C   0  0  0  0  0  0  0  0  0  0  0  0
    2.3597   -2.6443    0.4177 H   0  0  0  0  0  0  0  0  0  0  0  0
  2  4  1  0  0  0  0
  3  1  1  0  0  0  0
  4  5  1  0  0  0  0
  4 52  1  0  0  0  0
  5  3  1  0  0  0  0
  6 15  1  0  0  0  0
  6  7  1  0  0  0  0
  7  9  1  0  0  0  0
  8  7  1  0  0  0  0
  9 11  2  0  0  0  0
  9 10  1  0  0  0  0
 11 12  1  0  0  0  0
 13 14  1  0  0  0  0
 13 11  1  0  0  0  0
 15 13  2  0  0  0  0
 16  5  1  0  0  0  0
 16 15  1  0  0  0  0
 17 16  1  0  0  0  0
 18 16  1  0  0  0  0
 19  3  1  0  0  0  0
 19 20  1  0  0  0  0
 20 21  1  0  0  0  0
 22 20  2  0  0  0  0
 22 23  1  0  0  0  0
 24 22  1  0  0  0  0
 25 24  1  0  0  0  0
 26 28  1  0  0  0  0
 26 24  2  0  0  0  0
 27 26  1  0  0  0  0
 28 19  2  0  0  0  0
 29 28  1  0  0  0  0
 30 39  1  0  0  0  0
 30  3  1  0  0  0  0
 31 30  2  0  0  0  0
 32 31  1  0  0  0  0
 33 35  2  0  0  0  0
 33 31  1  0  0  0  0
 34 33  1  0  0  0  0
 35 37  1  0  0  0  0
 36 35  1  0  0  0  0
 37 38  1  0  0  0  0
 37 39  2  0  0  0  0
 39 40  1  0  0  0  0
 41  4  1  0  0  0  0
 41 42  1  0  0  0  0
 42 43  1  0  0  0  0
 44 42  2  0  0  0  0
 44 45  1  0  0  0  0
 46 44  1  0  0  0  0
 47 46  1  0  0  0  0
 48 50  1  0  0  0  0
 48 46  2  0  0  0  0
 49 48  1  0  0  0  0
 50 41  2  0  0  0  0
 51 50  1  0  0  0  0
 52 53  1  0  0  0  0
 53 54  1  0  0  0  0
 53 55  2  0  0  0  0
 55 56  1  0  0  0  0
 57 55  1  0  0  0  0
 57 58  1  0  0  0  0
 59 57  2  0  0  0  0
 60 59  1  0  0  0  0
 61 52  2  0  0  0  0
 61 59  1  0  0  0  0
 62 61  1  0  0  0  0
M  END
