1,2,3
 OpenBabel05122313063D

 26 27  0  0  0  0  0  0  0  0999 V2000
   -1.1892    2.8033   -0.0077 Se  0  0  0  0  0  1  0  0  0  0  0  0
    1.2101   -0.9191    0.0352 O   0  5  0  0  0  0  0  0  0  0  0  0
    1.7133    1.9834    0.0655 N   0  0  0  0  0  2  0  0  0  0  0  0
    1.6256    3.3468    0.0921 N   0  0  0  0  0  0  0  0  0  0  0  0
    0.4227    3.8528    0.0558 C   0  0  0  0  0  0  0  0  0  0  0  0
    3.4057    0.1517    0.0413 C   0  0  0  0  0  0  0  0  0  0  0  0
    0.2754    5.2151    0.0109 N   0  0  0  0  0  0  0  0  0  0  0  0
    2.9472    1.5065    0.0655 C   0  0  0  0  0  0  0  0  0  0  0  0
    3.7021    2.3085    0.0822 H   0  0  0  0  0  0  0  0  0  0  0  0
    5.3518   -1.4378    0.0033 C   0  0  0  0  0  0  0  0  0  0  0  0
    3.0670   -2.3048   -0.0093 C   0  0  0  0  0  0  0  0  0  0  0  0
    2.3427   -3.1321   -0.0308 H   0  0  0  0  0  0  0  0  0  0  0  0
    5.8233    0.9537    0.0512 C   0  0  0  0  0  0  0  0  0  0  0  0
    5.5089    2.0056    0.0731 H   0  0  0  0  0  0  0  0  0  0  0  0
    2.5138   -0.9743    0.0235 C   0  0  0  0  0  0  0  0  0  0  0  0
    4.4212   -2.5256   -0.0183 C   0  0  0  0  0  0  0  0  0  0  0  0
    4.8153   -3.5541   -0.0443 H   0  0  0  0  0  0  0  0  0  0  0  0
    6.7511   -1.6850   -0.0053 C   0  0  0  0  0  3  0  0  0  0  0  0
    7.0942   -2.7316   -0.0281 H   0  0  0  0  0  0  0  0  0  0  0  0
    7.6685   -0.6426    0.0141 C   0  0  0  0  0  0  0  0  0  0  0  0
    8.7497   -0.8458    0.0073 H   0  0  0  0  0  0  0  0  0  0  0  0
    4.8503   -0.0875    0.0325 C   0  0  0  0  0  0  0  0  0  0  0  0
    7.1895    0.6872    0.0427 C   0  0  0  0  0  0  0  0  0  0  0  0
    7.9014    1.5267    0.0583 H   0  0  0  0  0  0  0  0  0  0  0  0
   -0.6180    5.6092    0.3004 H   0  0  0  0  0  0  0  0  0  0  0  0
    1.1088    5.7648    0.2275 H   0  0  0  0  0  0  0  0  0  0  0  0
  1  5  1  0  0  0  0
  3  4  1  0  0  0  0
  5  4  2  0  0  0  0
  6  8  2  0  0  0  0
  7  5  1  0  0  0  0
  7 26  1  0  0  0  0
  7 25  1  0  0  0  0
  8  3  1  0  0  0  0
  8  9  1  0  0  0  0
 10 22  1  0  0  0  0
 11 15  2  0  0  0  0
 12 11  1  0  0  0  0
 13 14  1  0  0  0  0
 15  2  1  0  0  0  0
 15  6  1  0  0  0  0
 16 11  1  0  0  0  0
 16 10  2  0  0  0  0
 17 16  1  0  0  0  0
 18 10  1  0  0  0  0
 18 20  1  0  0  0  0
 19 18  1  0  0  0  0
 20 23  2  0  0  0  0
 21 20  1  0  0  0  0
 22  6  1  0  0  0  0
 22 13  2  0  0  0  0
 23 13  1  0  0  0  0
 23 24  1  0  0  0  0
M  CHG  1   2  -1
M  END
