9,12,14,17
 OpenBabel05122313063D

 34 36  0  0  1  0  0  0  0  0999 V2000
   -1.4651   -0.0000    1.1425 B   0  0  1  0  0  0  0  0  0  0  0  0
   -1.7411   -0.0001    2.7584 C   0  0  0  0  0  0  0  0  0  0  0  0
   -2.8772   -0.0000    0.3310 C   0  0  0  0  0  0  0  0  0  0  0  0
   -3.5480    1.2005   -0.0052 C   0  0  0  0  0  0  0  0  0  0  0  0
   -4.8036    1.2103   -0.6353 C   0  0  0  0  0  0  0  0  0  0  0  0
   -5.4411    0.0000   -0.9564 C   0  0  0  0  0  0  0  0  0  0  0  0
   -4.8037   -1.2103   -0.6353 C   0  0  0  0  0  0  0  0  0  0  0  0
   -3.5480   -1.2005   -0.0052 C   0  0  0  0  0  0  0  0  0  0  0  0
    0.6619    1.7119    1.4089 C   0  0  0  0  0  3  0  0  0  0  0  0
    1.5305    2.4516    0.5395 C   0  0  0  0  0  0  0  0  0  0  0  0
    0.9567    2.4266   -0.7554 C   0  0  0  0  0  0  0  0  0  0  0  0
   -0.2559    1.6670   -0.6738 C   0  0  0  0  0  3  0  0  0  0  0  0
   -0.4768    1.2323    0.6788 C   0  0  1  0  0  3  0  0  0  0  0  0
   -0.2559   -1.6669   -0.6739 C   0  0  0  0  0  3  0  0  0  0  0  0
    0.9567   -2.4265   -0.7555 C   0  0  0  0  0  0  0  0  0  0  0  0
    1.5305   -2.4516    0.5393 C   0  0  0  0  0  0  0  0  0  0  0  0
    0.6619   -1.7119    1.4088 C   0  0  0  0  0  3  0  0  0  0  0  0
   -0.4768   -1.2323    0.6788 C   0  0  1  0  0  3  0  0  0  0  0  0
   -0.8061   -0.0001    3.3637 H   0  0  0  0  0  0  0  0  0  0  0  0
   -2.3249   -0.8941    3.0703 H   0  0  0  0  0  0  0  0  0  0  0  0
   -2.3249    0.8940    3.0703 H   0  0  0  0  0  0  0  0  0  0  0  0
   -3.0595    2.1607    0.2342 H   0  0  0  0  0  0  0  0  0  0  0  0
   -5.2894    2.1696   -0.8823 H   0  0  0  0  0  0  0  0  0  0  0  0
   -6.4238    0.0000   -1.4557 H   0  0  0  0  0  0  0  0  0  0  0  0
   -5.2894   -2.1696   -0.8824 H   0  0  0  0  0  0  0  0  0  0  0  0
   -3.0596   -2.1607    0.2342 H   0  0  0  0  0  0  0  0  0  0  0  0
    0.8567    1.5109    2.4711 H   0  0  0  0  0  0  0  0  0  0  0  0
    2.4894    2.9073    0.8148 H   0  0  0  0  0  0  0  0  0  0  0  0
    1.3908    2.8605   -1.6642 H   0  0  0  0  0  0  0  0  0  0  0  0
   -0.9164    1.4311   -1.5197 H   0  0  0  0  0  0  0  0  0  0  0  0
   -0.9164   -1.4309   -1.5198 H   0  0  0  0  0  0  0  0  0  0  0  0
    1.3907   -2.8604   -1.6644 H   0  0  0  0  0  0  0  0  0  0  0  0
    2.4894   -2.9073    0.8146 H   0  0  0  0  0  0  0  0  0  0  0  0
    0.8567   -1.5111    2.4711 H   0  0  0  0  0  0  0  0  0  0  0  0
  1  2  1  1  0  0  0
  2 20  1  0  0  0  0
  2 21  1  0  0  0  0
  2 19  1  0  0  0  0
  3  1  1  0  0  0  0
  4 22  1  0  0  0  0
  4  3  1  0  0  0  0
  5  4  2  0  0  0  0
  6  7  2  0  0  0  0
  6  5  1  0  0  0  0
  7  8  1  0  0  0  0
  8 26  1  0  0  0  0
  8  3  2  0  0  0  0
  9 27  1  0  0  0  0
 10 28  1  0  0  0  0
 10  9  1  0  0  0  0
 11 12  1  0  0  0  0
 11 10  2  0  0  0  0
 12 13  1  0  0  0  0
 13  1  1  6  0  0  0
 13  9  1  0  0  0  0
 14 18  1  0  0  0  0
 15 14  1  0  0  0  0
 15 16  2  0  0  0  0
 16 33  1  0  0  0  0
 16 17  1  0  0  0  0
 17 34  1  0  0  0  0
 18  1  1  6  0  0  0
 18 17  1  0  0  0  0
 23  5  1  0  0  0  0
 24  6  1  0  0  0  0
 25  7  1  0  0  0  0
 29 11  1  0  0  0  0
 30 12  1  0  0  0  0
 31 14  1  0  0  0  0
 32 15  1  0  0  0  0
M  END
