1,6,34,43
 OpenBabel05122313063D

 64 65  0  0  1  0  0  0  0  0999 V2000
   -0.2355    1.6957   -1.5200 C   0  0  0  0  0  3  0  0  0  0  0  0
   -0.4563    2.9261   -0.6210 C   0  0  0  0  0  0  0  0  0  0  0  0
   -1.3246    1.4696   -2.5695 C   0  0  0  0  0  0  0  0  0  0  0  0
   -2.6337    1.0376   -1.8881 C   0  0  0  0  0  0  0  0  0  0  0  0
   -2.2904    0.1277   -0.7423 C   0  0  1  0  0  3  0  0  0  0  0  0
   -1.7798   -1.2093   -0.8700 C   0  0  1  0  0  3  0  0  0  0  0  0
   -1.5651   -1.7232    0.4545 C   0  0  1  0  0  3  0  0  0  0  0  0
   -1.8845   -0.6860    1.3843 C   0  0  0  0  0  0  0  0  0  0  0  0
   -2.3821    0.4369    0.6491 C   0  0  0  0  0  0  0  0  0  0  0  0
   -1.7028   -1.9655   -2.1669 C   0  0  0  0  0  0  0  0  0  0  0  0
   -1.6681   -3.0592   -1.9990 H   0  0  0  0  0  0  0  0  0  0  0  0
   -0.8210   -1.6942   -2.7823 H   0  0  0  0  0  0  0  0  0  0  0  0
   -2.5978   -1.7579   -2.7894 H   0  0  0  0  0  0  0  0  0  0  0  0
   -1.3668   -3.1582    0.8459 C   0  0  0  0  0  0  0  0  0  0  0  0
   -1.1574   -3.8050   -0.0238 H   0  0  0  0  0  0  0  0  0  0  0  0
   -2.2964   -3.5399    1.3210 H   0  0  0  0  0  0  0  0  0  0  0  0
   -0.5523   -3.3040    1.5798 H   0  0  0  0  0  0  0  0  0  0  0  0
   -1.9022   -0.8015    2.8783 C   0  0  0  0  0  0  0  0  0  0  0  0
   -2.9436   -0.8952    3.2583 H   0  0  0  0  0  0  0  0  0  0  0  0
   -1.4647    0.0935    3.3663 H   0  0  0  0  0  0  0  0  0  0  0  0
   -1.3461   -1.6894    3.2354 H   0  0  0  0  0  0  0  0  0  0  0  0
   -3.1039    1.5942    1.2682 C   0  0  0  0  0  0  0  0  0  0  0  0
   -4.0266    1.2320    1.7710 H   0  0  0  0  0  0  0  0  0  0  0  0
   -3.4106    2.3461    0.5169 H   0  0  0  0  0  0  0  0  0  0  0  0
   -2.5069    2.1186    2.0425 H   0  0  0  0  0  0  0  0  0  0  0  0
    0.7246    1.8326   -2.0530 H   0  0  0  0  0  0  0  0  0  0  0  0
   -1.5112    2.9710   -0.2797 H   0  0  0  0  0  0  0  0  0  0  0  0
   -0.3015    3.8657   -1.2068 H   0  0  0  0  0  0  0  0  0  0  0  0
   -0.9963    0.6643   -3.2621 H   0  0  0  0  0  0  0  0  0  0  0  0
   -1.4891    2.3692   -3.2138 H   0  0  0  0  0  0  0  0  0  0  0  0
   -3.3218    0.5384   -2.6048 H   0  0  0  0  0  0  0  0  0  0  0  0
   -3.1824    1.9210   -1.5045 H   0  0  0  0  0  0  0  0  0  0  0  0
    0.4562    2.9261    0.6210 C   0  0  0  0  0  0  0  0  0  0  0  0
    0.2354    1.6957    1.5200 C   0  0  0  0  0  3  0  0  0  0  0  0
    2.2904    0.1277    0.7423 C   0  0  0  0  0  0  0  0  0  0  0  0
    2.6336    1.0377    1.8881 C   0  0  0  0  0  0  0  0  0  0  0  0
    1.3245    1.4697    2.5694 C   0  0  0  0  0  0  0  0  0  0  0  0
   -0.7246    1.8326    2.0530 H   0  0  0  0  0  0  0  0  0  0  0  0
    0.9963    0.6644    3.2621 H   0  0  0  0  0  0  0  0  0  0  0  0
    1.4891    2.3693    3.2138 H   0  0  0  0  0  0  0  0  0  0  0  0
    3.3218    0.5385    2.6048 H   0  0  0  0  0  0  0  0  0  0  0  0
    3.1823    1.9211    1.5045 H   0  0  0  0  0  0  0  0  0  0  0  0
    1.7798   -1.2093    0.8701 C   0  0  1  0  0  3  0  0  0  0  0  0
    1.5651   -1.7231   -0.4545 C   0  0  0  0  0  0  0  0  0  0  0  0
    1.7028   -1.9654    2.1669 C   0  0  0  0  0  0  0  0  0  0  0  0
    1.6681   -3.0591    1.9990 H   0  0  0  0  0  0  0  0  0  0  0  0
    0.8210   -1.6942    2.7823 H   0  0  0  0  0  0  0  0  0  0  0  0
    2.5979   -1.7579    2.7894 H   0  0  0  0  0  0  0  0  0  0  0  0
    1.8845   -0.6860   -1.3843 C   0  0  0  0  0  0  0  0  0  0  0  0
    2.3821    0.4369   -0.6491 C   0  0  0  0  0  0  0  0  0  0  0  0
    1.9022   -0.8015   -2.8783 C   0  0  0  0  0  0  0  0  0  0  0  0
    2.9436   -0.8952   -3.2583 H   0  0  0  0  0  0  0  0  0  0  0  0
    1.4647    0.0935   -3.3663 H   0  0  0  0  0  0  0  0  0  0  0  0
    1.3461   -1.6894   -3.2354 H   0  0  0  0  0  0  0  0  0  0  0  0
    3.1039    1.5942   -1.2682 C   0  0  0  0  0  0  0  0  0  0  0  0
    4.0267    1.2320   -1.7710 H   0  0  0  0  0  0  0  0  0  0  0  0
    3.4105    2.3462   -0.5169 H   0  0  0  0  0  0  0  0  0  0  0  0
    2.5069    2.1186   -2.0425 H   0  0  0  0  0  0  0  0  0  0  0  0
    1.3668   -3.1581   -0.8459 C   0  0  0  0  0  0  0  0  0  0  0  0
    1.1575   -3.8050    0.0238 H   0  0  0  0  0  0  0  0  0  0  0  0
    2.2964   -3.5399   -1.3210 H   0  0  0  0  0  0  0  0  0  0  0  0
    0.5523   -3.3040   -1.5798 H   0  0  0  0  0  0  0  0  0  0  0  0
    1.5111    2.9711    0.2797 H   0  0  0  0  0  0  0  0  0  0  0  0
    0.3015    3.8657    1.2068 H   0  0  0  0  0  0  0  0  0  0  0  0
  1  2  1  0  0  0  0
  2 27  1  0  0  0  0
  2 33  1  0  0  0  0
  3  4  1  0  0  0  0
  3  1  1  0  0  0  0
  4 32  1  0  0  0  0
  5  4  1  6  0  0  0
  5  9  1  0  0  0  0
  6 10  1  1  0  0  0
  6  5  1  0  0  0  0
  6  7  1  0  0  0  0
  7 14  1  1  0  0  0
  7  8  1  0  0  0  0
  8 18  1  0  0  0  0
  9 22  1  0  0  0  0
  9  8  2  0  0  0  0
 10 11  1  0  0  0  0
 12 10  1  0  0  0  0
 13 10  1  0  0  0  0
 14 16  1  0  0  0  0
 14 17  1  0  0  0  0
 15 14  1  0  0  0  0
 18 21  1  0  0  0  0
 18 19  1  0  0  0  0
 18 20  1  0  0  0  0
 22 23  1  0  0  0  0
 22 25  1  0  0  0  0
 24 22  1  0  0  0  0
 26  1  1  0  0  0  0
 28  2  1  0  0  0  0
 29  3  1  0  0  0  0
 30  3  1  0  0  0  0
 31  4  1  0  0  0  0
 33 64  1  0  0  0  0
 33 34  1  0  0  0  0
 34 38  1  0  0  0  0
 34 37  1  0  0  0  0
 35 43  1  0  0  0  0
 35 36  1  0  0  0  0
 36 37  1  0  0  0  0
 36 41  1  0  0  0  0
 37 40  1  0  0  0  0
 37 39  1  0  0  0  0
 42 36  1  0  0  0  0
 43 45  1  6  0  0  0
 44 43  1  0  0  0  0
 45 47  1  0  0  0  0
 45 48  1  0  0  0  0
 46 45  1  0  0  0  0
 49 50  1  0  0  0  0
 49 44  2  0  0  0  0
 50 35  2  0  0  0  0
 51 49  1  0  0  0  0
 52 51  1  0  0  0  0
 53 51  1  0  0  0  0
 54 51  1  0  0  0  0
 55 50  1  0  0  0  0
 55 57  1  0  0  0  0
 56 55  1  0  0  0  0
 58 55  1  0  0  0  0
 59 44  1  0  0  0  0
 59 60  1  0  0  0  0
 61 59  1  0  0  0  0
 62 59  1  0  0  0  0
 63 33  1  0  0  0  0
M  END
