2,5,7,10
 OpenBabel05122313063D

 36 37  0  0  1  0  0  0  0  0999 V2000
   -1.0136    1.3897    0.0657 C   0  0  2  0  0  3  0  0  0  0  0  0
   -0.3700    1.5341    1.3398 C   0  0  0  0  0  3  0  0  0  0  0  0
    0.8503    2.2546    1.1605 C   0  0  0  0  0  0  0  0  0  0  0  0
    0.9960    2.5304   -0.2196 C   0  0  0  0  0  0  0  0  0  0  0  0
   -0.1395    1.9879   -0.8977 C   0  0  0  0  0  3  0  0  0  0  0  0
   -1.0058   -1.3851   -0.1144 C   0  0  2  0  0  3  0  0  0  0  0  0
   -0.3713   -1.4671   -1.4012 C   0  0  0  0  0  3  0  0  0  0  0  0
    0.8483   -2.1956   -1.2667 C   0  0  0  0  0  0  0  0  0  0  0  0
    1.0065   -2.5361    0.0981 C   0  0  0  0  0  0  0  0  0  0  0  0
   -0.1276   -2.0344    0.8091 C   0  0  0  0  0  3  0  0  0  0  0  0
   -2.3744   -0.7801    0.2009 C   0  0  0  0  0  0  0  0  0  0  0  0
   -2.3869    0.7741   -0.2065 C   0  0  0  0  0  0  0  0  0  0  0  0
   -2.6843   -0.9838    1.6979 C   0  0  0  0  0  0  0  0  0  0  0  0
   -3.4375   -1.5859   -0.5802 C   0  0  0  0  0  0  0  0  0  0  0  0
   -2.7496    0.9784   -1.6922 C   0  0  0  0  0  0  0  0  0  0  0  0
   -3.4316    1.5716    0.6074 C   0  0  0  0  0  0  0  0  0  0  0  0
   -0.7531    1.1870    2.3060 H   0  0  0  0  0  0  0  0  0  0  0  0
    1.5683    2.4998    1.9507 H   0  0  0  0  0  0  0  0  0  0  0  0
    1.8475    3.0283   -0.6964 H   0  0  0  0  0  0  0  0  0  0  0  0
   -0.3055    2.0339   -1.9795 H   0  0  0  0  0  0  0  0  0  0  0  0
   -0.7627   -1.0749   -2.3464 H   0  0  0  0  0  0  0  0  0  0  0  0
    1.5607   -2.4018   -2.0729 H   0  0  0  0  0  0  0  0  0  0  0  0
    1.8627   -3.0542    0.5444 H   0  0  0  0  0  0  0  0  0  0  0  0
   -0.2819   -2.1305    1.8890 H   0  0  0  0  0  0  0  0  0  0  0  0
   -2.6255   -2.0606    1.9497 H   0  0  0  0  0  0  0  0  0  0  0  0
   -1.9823   -0.4497    2.3650 H   0  0  0  0  0  0  0  0  0  0  0  0
   -3.7092   -0.6486    1.9413 H   0  0  0  0  0  0  0  0  0  0  0  0
   -3.4510   -2.6330   -0.2174 H   0  0  0  0  0  0  0  0  0  0  0  0
   -4.4516   -1.1633   -0.4254 H   0  0  0  0  0  0  0  0  0  0  0  0
   -3.2354   -1.6168   -1.6666 H   0  0  0  0  0  0  0  0  0  0  0  0
   -2.6930    2.0549   -1.9462 H   0  0  0  0  0  0  0  0  0  0  0  0
   -2.0790    0.4392   -2.3863 H   0  0  0  0  0  0  0  0  0  0  0  0
   -3.7849    0.6487   -1.8968 H   0  0  0  0  0  0  0  0  0  0  0  0
   -3.4645    2.6185    0.2451 H   0  0  0  0  0  0  0  0  0  0  0  0
   -4.4464    1.1410    0.4834 H   0  0  0  0  0  0  0  0  0  0  0  0
   -3.1977    1.6047    1.6872 H   0  0  0  0  0  0  0  0  0  0  0  0
  1 12  1  1  0  0  0
  1  2  1  0  0  0  0
  2 17  1  0  0  0  0
  3  2  1  0  0  0  0
  3 18  1  0  0  0  0
  4  3  2  0  0  0  0
  5  4  1  0  0  0  0
  5  1  1  0  0  0  0
  6 11  1  6  0  0  0
  6 10  1  0  0  0  0
  7  8  1  0  0  0  0
  7  6  1  0  0  0  0
  8  9  2  0  0  0  0
  9 23  1  0  0  0  0
  9 10  1  0  0  0  0
 10 24  1  0  0  0  0
 11 13  1  0  0  0  0
 12 11  1  0  0  0  0
 12 16  1  0  0  0  0
 13 27  1  0  0  0  0
 13 25  1  0  0  0  0
 13 26  1  0  0  0  0
 14 29  1  0  0  0  0
 14 28  1  0  0  0  0
 14 11  1  0  0  0  0
 15 12  1  0  0  0  0
 16 36  1  0  0  0  0
 19  4  1  0  0  0  0
 20  5  1  0  0  0  0
 21  7  1  0  0  0  0
 22  8  1  0  0  0  0
 30 14  1  0  0  0  0
 31 15  1  0  0  0  0
 32 15  1  0  0  0  0
 33 15  1  0  0  0  0
 34 16  1  0  0  0  0
 35 16  1  0  0  0  0
M  END
