1,2
 OpenBabel05122313063D

 29 28  0  0  0  0  0  0  0  0999 V2000
   -0.3598    1.2157   -1.6875 S   0  0  0  0  0  1  0  0  0  0  0  0
    2.0904   -0.0740    0.0231 P   0  0  0  0  0  0  0  0  0  0  0  0
    2.8344    1.2790   -0.6456 O   0  0  0  0  0  0  0  0  0  0  0  0
    2.8322   -1.3897   -1.0725 C   0  0  0  0  0  0  0  0  0  0  0  0
    3.9328   -1.2811   -0.9623 H   0  0  0  0  0  0  0  0  0  0  0  0
    3.0309   -0.1609    1.6390 C   0  0  0  0  0  0  0  0  0  0  0  0
    2.6689   -1.0893    2.1308 H   0  0  0  0  0  0  0  0  0  0  0  0
    2.0583    2.4579   -0.8796 C   0  0  0  0  0  0  0  0  0  0  0  0
    2.8022    3.2503   -1.1104 H   0  0  0  0  0  0  0  0  0  0  0  0
    1.5031    2.7583    0.0396 H   0  0  0  0  0  0  0  0  0  0  0  0
    1.0844    2.3010   -2.0339 C   0  0  0  0  0  0  0  0  0  0  0  0
    1.6315    1.9212   -2.9234 H   0  0  0  0  0  0  0  0  0  0  0  0
    0.6768    3.3003   -2.2941 H   0  0  0  0  0  0  0  0  0  0  0  0
    2.4059   -2.7848   -0.6008 C   0  0  0  0  0  0  0  0  0  0  0  0
    1.3061   -2.9085   -0.6787 H   0  0  0  0  0  0  0  0  0  0  0  0
    2.6963   -2.9870    0.4503 H   0  0  0  0  0  0  0  0  0  0  0  0
    2.8816   -3.5625   -1.2333 H   0  0  0  0  0  0  0  0  0  0  0  0
    2.4571   -1.1283   -2.5352 C   0  0  0  0  0  0  0  0  0  0  0  0
    2.8506   -1.9412   -3.1801 H   0  0  0  0  0  0  0  0  0  0  0  0
    2.8850   -0.1702   -2.8865 H   0  0  0  0  0  0  0  0  0  0  0  0
    1.3563   -1.0701   -2.6634 H   0  0  0  0  0  0  0  0  0  0  0  0
    4.5505   -0.2234    1.4637 C   0  0  0  0  0  0  0  0  0  0  0  0
    4.9049    0.6254    0.8443 H   0  0  0  0  0  0  0  0  0  0  0  0
    4.8842   -1.1649    0.9844 H   0  0  0  0  0  0  0  0  0  0  0  0
    5.0543   -0.1592    2.4508 H   0  0  0  0  0  0  0  0  0  0  0  0
    2.6017    1.0424    2.4910 C   0  0  0  0  0  0  0  0  0  0  0  0
    3.0163    0.9639    3.5171 H   0  0  0  0  0  0  0  0  0  0  0  0
    1.4979    1.1150    2.5654 H   0  0  0  0  0  0  0  0  0  0  0  0
    2.9761    1.9875    2.0472 H   0  0  0  0  0  0  0  0  0  0  0  0
  2  6  1  0  0  0  0
  3  2  1  0  0  0  0
  4  5  1  0  0  0  0
  4 14  1  0  0  0  0
  4  2  1  0  0  0  0
  6  7  1  0  0  0  0
  6 26  1  0  0  0  0
  8  3  1  0  0  0  0
  8 10  1  0  0  0  0
  9  8  1  0  0  0  0
 11  1  1  0  0  0  0
 11  8  1  0  0  0  0
 12 11  1  0  0  0  0
 13 11  1  0  0  0  0
 14 16  1  0  0  0  0
 15 14  1  0  0  0  0
 17 14  1  0  0  0  0
 18  4  1  0  0  0  0
 19 18  1  0  0  0  0
 20 18  1  0  0  0  0
 21 18  1  0  0  0  0
 22  6  1  0  0  0  0
 22 25  1  0  0  0  0
 23 22  1  0  0  0  0
 24 22  1  0  0  0  0
 26 28  1  0  0  0  0
 26 27  1  0  0  0  0
 29 26  1  0  0  0  0
M  END
