1,2
 OpenBabel05122313063D

 45 48  0  0  0  0  0  0  0  0999 V2000
    1.8125   -1.4654    0.3169 P   0  0  0  0  0  0  0  0  0  0  0  0
    1.4114    1.1521   -1.5507 S   0  0  0  0  0  0  0  0  0  0  0  0
    3.0678    0.6966   -0.9949 C   0  0  0  0  0  0  0  0  0  0  0  0
    3.2804   -0.4649   -0.2198 C   0  0  0  0  0  0  0  0  0  0  0  0
    4.6006   -0.7986    0.1209 C   0  0  0  0  0  0  0  0  0  0  0  0
    4.8713   -1.8732    0.8706 F   0  0  0  0  0  0  0  0  0  0  0  0
    5.6882   -0.0078   -0.2920 C   0  0  0  0  0  0  0  0  0  0  0  0
    6.9308   -0.3362    0.0518 F   0  0  0  0  0  0  0  0  0  0  0  0
    5.4587    1.1439   -1.0643 C   0  0  0  0  0  0  0  0  0  0  0  0
    6.4833    1.8941   -1.4583 F   0  0  0  0  0  0  0  0  0  0  0  0
    4.1442    1.4836   -1.4290 C   0  0  0  0  0  0  0  0  0  0  0  0
    3.9426    2.5758   -2.1700 F   0  0  0  0  0  0  0  0  0  0  0  0
    1.2034    2.7460   -0.7542 C   0  0  0  0  0  0  0  0  0  0  0  0
    1.4136    2.9473    0.6208 C   0  0  0  0  0  0  0  0  0  0  0  0
    1.8741    1.9567    1.3934 F   0  0  0  0  0  0  0  0  0  0  0  0
    1.0981    4.1832    1.2038 C   0  0  0  0  0  0  0  0  0  0  0  0
    1.2935    4.3516    2.5150 F   0  0  0  0  0  0  0  0  0  0  0  0
    0.5820    5.2237    0.4243 C   0  0  0  0  0  0  0  0  0  0  0  0
    0.3337    6.1890    0.8854 H   0  0  0  0  0  0  0  0  0  0  0  0
    0.3760    5.0238   -0.9438 C   0  0  0  0  0  0  0  0  0  0  0  0
   -0.1149    6.0071   -1.7038 F   0  0  0  0  0  0  0  0  0  0  0  0
    0.6886    3.7910   -1.5433 C   0  0  0  0  0  0  0  0  0  0  0  0
    0.4828    3.6199   -2.8477 F   0  0  0  0  0  0  0  0  0  0  0  0
    2.0201   -3.1178   -0.4465 C   0  0  0  0  0  0  0  0  0  0  0  0
    1.2309   -3.4148   -1.5763 C   0  0  0  0  0  0  0  0  0  0  0  0
    0.5010   -2.6740   -1.9357 H   0  0  0  0  0  0  0  0  0  0  0  0
    1.3535   -4.6626   -2.2042 C   0  0  0  0  0  0  0  0  0  0  0  0
    0.7268   -4.8922   -3.0788 H   0  0  0  0  0  0  0  0  0  0  0  0
    2.2544   -5.6160   -1.7054 C   0  0  0  0  0  0  0  0  0  0  0  0
    2.3450   -6.5974   -2.1955 H   0  0  0  0  0  0  0  0  0  0  0  0
    3.0317   -5.3250   -0.5714 C   0  0  0  0  0  0  0  0  0  0  0  0
    3.7297   -6.0765   -0.1726 H   0  0  0  0  0  0  0  0  0  0  0  0
    2.9179   -4.0802    0.0626 C   0  0  0  0  0  0  0  0  0  0  0  0
    3.5178   -3.8606    0.9564 H   0  0  0  0  0  0  0  0  0  0  0  0
    1.9978   -1.6940    2.1153 C   0  0  0  0  0  0  0  0  0  0  0  0
    2.6536   -0.7351    2.9134 C   0  0  0  0  0  0  0  0  0  0  0  0
    3.1365    0.1363    2.4486 H   0  0  0  0  0  0  0  0  0  0  0  0
    2.6757   -0.8855    4.3060 C   0  0  0  0  0  0  0  0  0  0  0  0
    3.1933   -0.1377    4.9253 H   0  0  0  0  0  0  0  0  0  0  0  0
    2.0349   -1.9801    4.9093 C   0  0  0  0  0  0  0  0  0  0  0  0
    2.0511   -2.0920    6.0038 H   0  0  0  0  0  0  0  0  0  0  0  0
    1.3680   -2.9265    4.1162 C   0  0  0  0  0  0  0  0  0  0  0  0
    0.8559   -3.7798    4.5852 H   0  0  0  0  0  0  0  0  0  0  0  0
    1.3453   -2.7895    2.7208 C   0  0  0  0  0  0  0  0  0  0  0  0
    0.8130   -3.5262    2.1015 H   0  0  0  0  0  0  0  0  0  0  0  0
  1 35  1  0  0  0  0
  2  3  1  0  0  0  0
  2 13  1  0  0  0  0
  3  4  1  0  0  0  0
  4  5  2  0  0  0  0
  4  1  1  0  0  0  0
  5  6  1  0  0  0  0
  7  8  1  0  0  0  0
  7  5  1  0  0  0  0
  9  7  2  0  0  0  0
 10  9  1  0  0  0  0
 11  9  1  0  0  0  0
 11  3  2  0  0  0  0
 12 11  1  0  0  0  0
 13 14  1  0  0  0  0
 14 16  2  0  0  0  0
 14 15  1  0  0  0  0
 16 17  1  0  0  0  0
 18 19  1  0  0  0  0
 18 16  1  0  0  0  0
 20 18  2  0  0  0  0
 21 20  1  0  0  0  0
 22 20  1  0  0  0  0
 22 13  2  0  0  0  0
 23 22  1  0  0  0  0
 24 33  1  0  0  0  0
 24  1  1  0  0  0  0
 25 24  2  0  0  0  0
 26 25  1  0  0  0  0
 27 29  2  0  0  0  0
 27 25  1  0  0  0  0
 28 27  1  0  0  0  0
 29 31  1  0  0  0  0
 30 29  1  0  0  0  0
 31 32  1  0  0  0  0
 31 33  2  0  0  0  0
 33 34  1  0  0  0  0
 35 44  2  0  0  0  0
 35 36  1  0  0  0  0
 36 38  2  0  0  0  0
 37 36  1  0  0  0  0
 38 40  1  0  0  0  0
 38 39  1  0  0  0  0
 40 41  1  0  0  0  0
 42 43  1  0  0  0  0
 42 40  2  0  0  0  0
 44 42  1  0  0  0  0
 45 44  1  0  0  0  0
M  END
