1,2
 OpenBabel05122313063D

 16 15  0  0  0  0  0  0  0  0999 V2000
    0.2788   -0.3506   -2.4362 S   0  0  0  0  0  1  0  0  0  0  0  0
   -2.5140    0.3494   -0.9314 P   0  0  0  0  0  0  0  0  0  0  0  0
   -1.3015   -0.1158   -3.3950 C   0  0  0  0  0  0  0  0  0  0  0  0
   -2.2706    0.8393   -2.7146 C   0  0  0  0  0  0  0  0  0  0  0  0
   -3.7872   -0.9864   -1.0590 C   0  0  0  0  0  0  0  0  0  0  0  0
   -3.5601    1.7380   -0.3000 C   0  0  0  0  0  0  0  0  0  0  0  0
   -1.0022    0.2519   -4.3976 H   0  0  0  0  0  0  0  0  0  0  0  0
   -1.7500   -1.1228   -3.5357 H   0  0  0  0  0  0  0  0  0  0  0  0
   -3.2514    0.8809   -3.2369 H   0  0  0  0  0  0  0  0  0  0  0  0
   -1.8453    1.8653   -2.6926 H   0  0  0  0  0  0  0  0  0  0  0  0
   -3.3502   -1.8635   -1.5709 H   0  0  0  0  0  0  0  0  0  0  0  0
   -4.0792   -1.3060   -0.0389 H   0  0  0  0  0  0  0  0  0  0  0  0
   -4.6860   -0.6250   -1.5982 H   0  0  0  0  0  0  0  0  0  0  0  0
   -4.4318    1.9032   -0.9646 H   0  0  0  0  0  0  0  0  0  0  0  0
   -3.9195    1.4926    0.7185 H   0  0  0  0  0  0  0  0  0  0  0  0
   -2.9462    2.6557   -0.2365 H   0  0  0  0  0  0  0  0  0  0  0  0
  2  6  1  0  0  0  0
  3  4  1  0  0  0  0
  3  1  1  0  0  0  0
  4 10  1  0  0  0  0
  4  2  1  0  0  0  0
  5  2  1  0  0  0  0
  5 12  1  0  0  0  0
  6 16  1  0  0  0  0
  6 15  1  0  0  0  0
  7  3  1  0  0  0  0
  8  3  1  0  0  0  0
  9  4  1  0  0  0  0
 11  5  1  0  0  0  0
 13  5  1  0  0  0  0
 14  6  1  0  0  0  0
M  END
