1,2
 OpenBabel05122313063D

 38 40  0  0  0  0  0  0  0  0999 V2000
    2.4179    1.0372    0.6527 S   0  0  0  0  0  0  0  0  0  0  0  0
   -0.5488    0.0396    0.0516 P   0  0  0  0  0  0  0  0  0  0  0  0
   -0.2841    1.7706    0.6363 C   0  0  0  0  0  0  0  0  0  0  0  0
    1.0462    2.2158    0.7858 C   0  0  0  0  0  0  0  0  0  0  0  0
    1.3201    3.5411    1.1651 C   0  0  0  0  0  0  0  0  0  0  0  0
    2.3618    3.8686    1.3037 H   0  0  0  0  0  0  0  0  0  0  0  0
    0.2594    4.4297    1.3938 C   0  0  0  0  0  0  0  0  0  0  0  0
    0.4728    5.4667    1.6934 H   0  0  0  0  0  0  0  0  0  0  0  0
   -1.0692    3.9883    1.2750 C   0  0  0  0  0  0  0  0  0  0  0  0
   -1.9001    4.6791    1.4819 H   0  0  0  0  0  0  0  0  0  0  0  0
   -1.3405    2.6640    0.9019 C   0  0  0  0  0  0  0  0  0  0  0  0
   -2.3806    2.3133    0.8179 H   0  0  0  0  0  0  0  0  0  0  0  0
   -2.0099   -0.5706    0.9603 C   0  0  0  0  0  0  0  0  0  0  0  0
   -3.3187   -0.3339    0.4943 C   0  0  0  0  0  0  0  0  0  0  0  0
   -3.4778    0.1823   -0.4651 H   0  0  0  0  0  0  0  0  0  0  0  0
   -4.4157   -0.7796    1.2474 C   0  0  0  0  0  0  0  0  0  0  0  0
   -5.4382   -0.5985    0.8827 H   0  0  0  0  0  0  0  0  0  0  0  0
   -4.2081   -1.4649    2.4549 C   0  0  0  0  0  0  0  0  0  0  0  0
   -5.0703   -1.8198    3.0397 H   0  0  0  0  0  0  0  0  0  0  0  0
   -2.9023   -1.7137    2.9096 C   0  0  0  0  0  0  0  0  0  0  0  0
   -2.7393   -2.2688    3.8455 H   0  0  0  0  0  0  0  0  0  0  0  0
   -1.8007   -1.2737    2.1636 C   0  0  0  0  0  0  0  0  0  0  0  0
   -0.7737   -1.4925    2.4933 H   0  0  0  0  0  0  0  0  0  0  0  0
   -1.0840    0.2181   -1.6953 C   0  0  0  0  0  0  0  0  0  0  0  0
   -1.2448   -0.9707   -2.4418 C   0  0  0  0  0  0  0  0  0  0  0  0
   -1.0241   -1.9410   -1.9646 H   0  0  0  0  0  0  0  0  0  0  0  0
   -1.6450   -0.8977   -3.7822 C   0  0  0  0  0  0  0  0  0  0  0  0
   -1.7682   -1.8255   -4.3611 H   0  0  0  0  0  0  0  0  0  0  0  0
   -1.8728    0.3491   -4.3896 C   0  0  0  0  0  0  0  0  0  0  0  0
   -2.1813    0.4003   -5.4449 H   0  0  0  0  0  0  0  0  0  0  0  0
   -1.6957    1.5298   -3.6528 C   0  0  0  0  0  0  0  0  0  0  0  0
   -1.8640    2.5088   -4.1268 H   0  0  0  0  0  0  0  0  0  0  0  0
   -1.3011    1.4696   -2.3063 C   0  0  0  0  0  0  0  0  0  0  0  0
   -1.1626    2.3996   -1.7358 H   0  0  0  0  0  0  0  0  0  0  0  0
    3.1608    1.5042   -0.9547 C   0  0  0  0  0  0  0  0  0  0  0  0
    2.3876    1.5064   -1.7444 H   0  0  0  0  0  0  0  0  0  0  0  0
    3.8971    0.6966   -1.1355 H   0  0  0  0  0  0  0  0  0  0  0  0
    3.6567    2.4890   -0.8623 H   0  0  0  0  0  0  0  0  0  0  0  0
  1  4  1  0  0  0  0
  2  3  1  0  0  0  0
  2 13  1  0  0  0  0
  3  4  2  0  0  0  0
  3 11  1  0  0  0  0
  4  5  1  0  0  0  0
  5  6  1  0  0  0  0
  5  7  2  0  0  0  0
  7  8  1  0  0  0  0
  9  7  1  0  0  0  0
  9 10  1  0  0  0  0
 11  9  2  0  0  0  0
 12 11  1  0  0  0  0
 13 22  1  0  0  0  0
 14 13  2  0  0  0  0
 14 16  1  0  0  0  0
 15 14  1  0  0  0  0
 16 18  2  0  0  0  0
 17 16  1  0  0  0  0
 18 20  1  0  0  0  0
 18 19  1  0  0  0  0
 20 21  1  0  0  0  0
 22 23  1  0  0  0  0
 22 20  2  0  0  0  0
 24  2  1  0  0  0  0
 25 26  1  0  0  0  0
 25 24  2  0  0  0  0
 27 25  1  0  0  0  0
 28 27  1  0  0  0  0
 29 27  2  0  0  0  0
 29 31  1  0  0  0  0
 30 29  1  0  0  0  0
 31 33  2  0  0  0  0
 32 31  1  0  0  0  0
 33 34  1  0  0  0  0
 33 24  1  0  0  0  0
 35 38  1  0  0  0  0
 35  1  1  0  0  0  0
 36 35  1  0  0  0  0
 37 35  1  0  0  0  0
M  END
