1,2
 OpenBabel05122313063D

 56 57  0  0  1  0  0  0  0  0999 V2000
    2.3044   -0.1008   -0.0686 S   0  0  0  0  0  0  0  0  0  0  0  0
   -1.0825   -0.0005   -0.1984 P   0  0  0  0  0  0  0  0  0  0  0  0
    2.5458   -1.8525   -0.7706 C   0  0  0  0  0  0  0  0  0  0  0  0
   -2.2629    1.3871    0.0121 C   0  0  0  0  0  0  0  0  0  0  0  0
   -2.8695    3.4868    1.0784 C   0  0  0  0  0  0  0  0  0  0  0  0
   -3.9446    3.6280    0.1867 C   0  0  0  0  0  0  0  0  0  0  0  0
   -3.3429    1.5288   -0.8835 C   0  0  0  0  0  0  0  0  0  0  0  0
   -2.0274    2.3678    0.9961 C   0  0  0  0  0  0  0  0  0  0  0  0
   -0.3848    0.3629   -1.6842 O   0  0  0  0  0  0  0  0  0  0  0  0
    4.4513    1.6739   -1.6568 C   0  0  0  0  0  0  0  0  0  0  0  0
   -2.6410   -2.2685    0.2969 C   0  0  0  0  0  0  0  0  0  0  0  0
    1.9794    0.9894   -1.5521 C   0  0  2  0  0  0  0  0  0  0  0  0
   -2.0744   -1.4470   -0.6999 C   0  0  0  0  0  0  0  0  0  0  0  0
   -2.2738   -1.7456   -2.0649 C   0  0  0  0  0  0  0  0  0  0  0  0
    3.0047    2.1554   -1.4995 C   0  0  0  0  0  0  0  0  0  0  0  0
   -3.4105   -3.3788   -0.0783 C   0  0  0  0  0  0  0  0  0  0  0  0
    0.5203    1.4825   -1.6438 C   0  0  1  0  0  0  0  0  0  0  0  0
    3.7534   -1.8087   -1.7124 C   0  0  0  0  0  0  0  0  0  0  0  0
    1.2962   -2.3659   -1.4788 C   0  0  0  0  0  0  0  0  0  0  0  0
   -4.1816    2.6485   -0.7928 C   0  0  0  0  0  0  0  0  0  0  0  0
   -3.0443   -2.8606   -2.4260 C   0  0  0  0  0  0  0  0  0  0  0  0
    2.8642   -2.6993    0.4683 C   0  0  0  0  0  0  0  0  0  0  0  0
    2.8447    3.0217   -0.2406 C   0  0  0  0  0  0  0  0  0  0  0  0
    0.2318    2.3224   -2.8832 C   0  0  0  0  0  0  0  0  0  0  0  0
   -3.6140   -3.6767   -1.4356 C   0  0  0  0  0  0  0  0  0  0  0  0
   -2.6881    4.2482    1.8517 H   0  0  0  0  0  0  0  0  0  0  0  0
   -4.6075    4.5037    0.2586 H   0  0  0  0  0  0  0  0  0  0  0  0
   -3.5329    0.7569   -1.6451 H   0  0  0  0  0  0  0  0  0  0  0  0
   -1.1985    2.2325    1.7074 H   0  0  0  0  0  0  0  0  0  0  0  0
    5.1394    2.5411   -1.7086 H   0  0  0  0  0  0  0  0  0  0  0  0
    4.5890    1.0769   -2.5807 H   0  0  0  0  0  0  0  0  0  0  0  0
    4.7601    1.0511   -0.7931 H   0  0  0  0  0  0  0  0  0  0  0  0
   -2.4648   -2.0264    1.3580 H   0  0  0  0  0  0  0  0  0  0  0  0
    2.1785    0.3559   -2.4417 H   0  0  0  0  0  0  0  0  0  0  0  0
   -1.8144   -1.1090   -2.8341 H   0  0  0  0  0  0  0  0  0  0  0  0
    2.7774    2.7863   -2.3865 H   0  0  0  0  0  0  0  0  0  0  0  0
   -3.8507   -4.0198    0.7004 H   0  0  0  0  0  0  0  0  0  0  0  0
    0.3022    2.0926   -0.7379 H   0  0  0  0  0  0  0  0  0  0  0  0
    3.9752   -2.8428   -2.0486 H   0  0  0  0  0  0  0  0  0  0  0  0
    4.6543   -1.4130   -1.2054 H   0  0  0  0  0  0  0  0  0  0  0  0
    3.5635   -1.2044   -2.6214 H   0  0  0  0  0  0  0  0  0  0  0  0
    1.5062   -3.3742   -1.8936 H   0  0  0  0  0  0  0  0  0  0  0  0
    0.9782   -1.7092   -2.3104 H   0  0  0  0  0  0  0  0  0  0  0  0
    0.4500   -2.4620   -0.7724 H   0  0  0  0  0  0  0  0  0  0  0  0
   -5.0295    2.7543   -1.4865 H   0  0  0  0  0  0  0  0  0  0  0  0
   -3.1980   -3.0942   -3.4906 H   0  0  0  0  0  0  0  0  0  0  0  0
    3.0814   -3.7362    0.1377 H   0  0  0  0  0  0  0  0  0  0  0  0
    2.0140   -2.7217    1.1773 H   0  0  0  0  0  0  0  0  0  0  0  0
    3.7415   -2.3100    1.0200 H   0  0  0  0  0  0  0  0  0  0  0  0
    1.8417    3.4874   -0.1661 H   0  0  0  0  0  0  0  0  0  0  0  0
    3.5902    3.8413   -0.2409 H   0  0  0  0  0  0  0  0  0  0  0  0
    3.0065    2.4221    0.6800 H   0  0  0  0  0  0  0  0  0  0  0  0
   -0.8471    2.5692   -2.9025 H   0  0  0  0  0  0  0  0  0  0  0  0
    0.4782    1.7587   -3.8060 H   0  0  0  0  0  0  0  0  0  0  0  0
    0.8023    3.2701   -2.8818 H   0  0  0  0  0  0  0  0  0  0  0  0
   -4.2161   -4.5520   -1.7237 H   0  0  0  0  0  0  0  0  0  0  0  0
  2  4  1  0  0  0  0
  3  1  1  0  0  0  0
  3 22  1  0  0  0  0
  4  8  1  0  0  0  0
  5 26  1  0  0  0  0
  6 27  1  0  0  0  0
  6  5  1  0  0  0  0
  7 20  1  0  0  0  0
  7  4  2  0  0  0  0
  8  5  2  0  0  0  0
  8 29  1  0  0  0  0
  9 17  1  0  0  0  0
  9  2  1  0  0  0  0
 10 15  1  0  0  0  0
 10 32  1  0  0  0  0
 11 33  1  0  0  0  0
 12 34  1  6  0  0  0
 12 15  1  0  0  0  0
 12  1  1  0  0  0  0
 13  2  1  0  0  0  0
 13 11  2  0  0  0  0
 14 13  1  0  0  0  0
 15 23  1  0  0  0  0
 16 11  1  0  0  0  0
 16 37  1  0  0  0  0
 17 12  1  0  0  0  0
 17 38  1  1  0  0  0
 18 40  1  0  0  0  0
 18  3  1  0  0  0  0
 19 44  1  0  0  0  0
 19  3  1  0  0  0  0
 20  6  2  0  0  0  0
 21 14  2  0  0  0  0
 21 25  1  0  0  0  0
 22 49  1  0  0  0  0
 22 48  1  0  0  0  0
 23 50  1  0  0  0  0
 23 52  1  0  0  0  0
 24 55  1  0  0  0  0
 24 17  1  0  0  0  0
 25 16  2  0  0  0  0
 28  7  1  0  0  0  0
 30 10  1  0  0  0  0
 31 10  1  0  0  0  0
 35 14  1  0  0  0  0
 36 15  1  0  0  0  0
 39 18  1  0  0  0  0
 41 18  1  0  0  0  0
 42 19  1  0  0  0  0
 43 19  1  0  0  0  0
 45 20  1  0  0  0  0
 46 21  1  0  0  0  0
 47 22  1  0  0  0  0
 51 23  1  0  0  0  0
 53 24  1  0  0  0  0
 54 24  1  0  0  0  0
 56 25  1  0  0  0  0
M  END
