1,4
 OpenBabel05122313063D

 63 67  0  0  0  0  0  0  0  0999 V2000
   -0.0894   -1.4101   -2.0142 S   0  0  0  0  0  1  0  0  0  0  0  0
    0.7325   -1.5008   -0.1659 P   0  0  0  0  0  4  0  0  0  0  0  0
    0.8198    0.0543    0.5978 N   0  0  0  0  0  0  0  0  0  0  0  0
   -0.5664    1.0766    0.1434 P   0  0  0  0  0  0  0  0  0  0  0  0
   -0.2609   -2.5320    0.9647 C   0  0  0  0  0  0  0  0  0  0  0  0
    0.0421   -2.5497    2.3432 C   0  0  0  0  0  0  0  0  0  0  0  0
    0.8586   -1.9312    2.7443 H   0  0  0  0  0  0  0  0  0  0  0  0
   -0.7250   -3.3335    3.2164 C   0  0  0  0  0  0  0  0  0  0  0  0
   -0.4893   -3.3434    4.2913 H   0  0  0  0  0  0  0  0  0  0  0  0
   -1.8002   -4.0891    2.7201 C   0  0  0  0  0  0  0  0  0  0  0  0
   -2.4099   -4.6935    3.4086 H   0  0  0  0  0  0  0  0  0  0  0  0
   -2.1072   -4.0595    1.3510 C   0  0  0  0  0  0  0  0  0  0  0  0
   -2.9646   -4.6277    0.9612 H   0  0  0  0  0  0  0  0  0  0  0  0
   -1.3418   -3.2856    0.4669 C   0  0  0  0  0  0  0  0  0  0  0  0
   -1.6137   -3.2288   -0.5993 H   0  0  0  0  0  0  0  0  0  0  0  0
    2.4380   -2.1494   -0.2154 C   0  0  0  0  0  0  0  0  0  0  0  0
    3.2147   -2.3058    0.9508 C   0  0  0  0  0  0  0  0  0  0  0  0
    2.8077   -2.0473    1.9369 H   0  0  0  0  0  0  0  0  0  0  0  0
    4.5308   -2.7798    0.8557 C   0  0  0  0  0  0  0  0  0  0  0  0
    5.1344   -2.8904    1.7688 H   0  0  0  0  0  0  0  0  0  0  0  0
    5.0746   -3.1085   -0.3956 C   0  0  0  0  0  0  0  0  0  0  0  0
    6.1071   -3.4828   -0.4656 H   0  0  0  0  0  0  0  0  0  0  0  0
    4.2992   -2.9623   -1.5574 C   0  0  0  0  0  0  0  0  0  0  0  0
    4.7186   -3.2247   -2.5402 H   0  0  0  0  0  0  0  0  0  0  0  0
    2.9859   -2.4806   -1.4704 C   0  0  0  0  0  0  0  0  0  0  0  0
    2.3779   -2.3491   -2.3788 H   0  0  0  0  0  0  0  0  0  0  0  0
   -1.1638    1.7051    1.7477 C   0  0  0  0  0  0  0  0  0  0  0  0
   -1.2872    0.8018    2.8220 C   0  0  0  0  0  0  0  0  0  0  0  0
   -0.9664   -0.2421    2.6942 H   0  0  0  0  0  0  0  0  0  0  0  0
   -1.8404    1.2279    4.0361 C   0  0  0  0  0  0  0  0  0  0  0  0
   -1.9353    0.5171    4.8710 H   0  0  0  0  0  0  0  0  0  0  0  0
   -2.2878    2.5519    4.1802 C   0  0  0  0  0  0  0  0  0  0  0  0
   -2.7260    2.8851    5.1332 H   0  0  0  0  0  0  0  0  0  0  0  0
   -2.1926    3.4441    3.1012 C   0  0  0  0  0  0  0  0  0  0  0  0
   -2.5621    4.4755    3.2032 H   0  0  0  0  0  0  0  0  0  0  0  0
   -1.6393    3.0237    1.8826 C   0  0  0  0  0  0  0  0  0  0  0  0
   -1.5893    3.7186    1.0322 H   0  0  0  0  0  0  0  0  0  0  0  0
    0.2047    2.4974   -0.7131 C   0  0  0  0  0  0  0  0  0  0  0  0
    0.9979    3.4470   -0.0345 C   0  0  0  0  0  0  0  0  0  0  0  0
    1.1118    3.3953    1.0582 H   0  0  0  0  0  0  0  0  0  0  0  0
    1.6487    4.4568   -0.7589 C   0  0  0  0  0  0  0  0  0  0  0  0
    2.2703    5.1936   -0.2279 H   0  0  0  0  0  0  0  0  0  0  0  0
    1.5066    4.5267   -2.1546 C   0  0  0  0  0  0  0  0  0  0  0  0
    2.0140    5.3246   -2.7187 H   0  0  0  0  0  0  0  0  0  0  0  0
    0.7093    3.5871   -2.8300 C   0  0  0  0  0  0  0  0  0  0  0  0
    0.5874    3.6476   -3.9221 H   0  0  0  0  0  0  0  0  0  0  0  0
    0.0601    2.5724   -2.1134 C   0  0  0  0  0  0  0  0  0  0  0  0
   -0.5643    1.8216   -2.6238 H   0  0  0  0  0  0  0  0  0  0  0  0
    2.0548    0.6387    1.0138 C   0  0  0  0  0  0  0  0  0  0  0  0
    3.0285    0.9845    0.0341 C   0  0  0  0  0  0  0  0  0  0  0  0
    4.2332    1.5905    0.4351 C   0  0  0  0  0  0  0  0  0  0  0  0
    4.9948    1.8570   -0.3098 H   0  0  0  0  0  0  0  0  0  0  0  0
    4.4555    1.8663    1.7941 C   0  0  0  0  0  0  0  0  0  0  0  0
    5.3997    2.3450    2.0953 H   0  0  0  0  0  0  0  0  0  0  0  0
    3.4929    1.5438    2.7621 C   0  0  0  0  0  0  0  0  0  0  0  0
    3.6713    1.7703    3.8232 H   0  0  0  0  0  0  0  0  0  0  0  0
    2.2957    0.9260    2.3661 C   0  0  0  0  0  0  0  0  0  0  0  0
    1.5158    0.6736    3.0988 H   0  0  0  0  0  0  0  0  0  0  0  0
    2.6897    0.6848   -1.2384 O   0  0  0  0  0  0  0  0  0  0  0  0
    3.5682    1.0274   -2.2952 C   0  0  0  0  0  0  0  0  0  0  0  0
    3.0540    0.7230   -3.2248 H   0  0  0  0  0  0  0  0  0  0  0  0
    4.5347    0.4830   -2.2123 H   0  0  0  0  0  0  0  0  0  0  0  0
    3.7545    2.1227   -2.3244 H   0  0  0  0  0  0  0  0  0  0  0  0
  1  2  1  0  0  0  0
  2  3  1  0  0  0  0
  2  5  1  0  0  0  0
  3 49  1  0  0  0  0
  4  3  1  0  0  0  0
  4 27  1  0  0  0  0
  5  6  1  0  0  0  0
  6  7  1  0  0  0  0
  6  8  2  0  0  0  0
  8  9  1  0  0  0  0
 10  8  1  0  0  0  0
 10 11  1  0  0  0  0
 12 10  2  0  0  0  0
 13 12  1  0  0  0  0
 14  5  2  0  0  0  0
 14 12  1  0  0  0  0
 15 14  1  0  0  0  0
 16  2  1  0  0  0  0
 16 17  1  0  0  0  0
 17 18  1  0  0  0  0
 19 17  2  0  0  0  0
 19 20  1  0  0  0  0
 21 19  1  0  0  0  0
 22 21  1  0  0  0  0
 23 25  1  0  0  0  0
 23 21  2  0  0  0  0
 24 23  1  0  0  0  0
 25 16  2  0  0  0  0
 26 25  1  0  0  0  0
 27 36  2  0  0  0  0
 27 28  1  0  0  0  0
 28 30  2  0  0  0  0
 29 28  1  0  0  0  0
 30 32  1  0  0  0  0
 30 31  1  0  0  0  0
 32 33  1  0  0  0  0
 34 35  1  0  0  0  0
 34 32  2  0  0  0  0
 36 34  1  0  0  0  0
 37 36  1  0  0  0  0
 38 39  1  0  0  0  0
 38  4  1  0  0  0  0
 39 40  1  0  0  0  0
 41 42  1  0  0  0  0
 41 39  2  0  0  0  0
 43 41  1  0  0  0  0
 44 43  1  0  0  0  0
 45 43  2  0  0  0  0
 45 47  1  0  0  0  0
 46 45  1  0  0  0  0
 47 38  2  0  0  0  0
 48 47  1  0  0  0  0
 49 57  1  0  0  0  0
 50 51  1  0  0  0  0
 50 49  2  0  0  0  0
 51 53  2  0  0  0  0
 52 51  1  0  0  0  0
 53 54  1  0  0  0  0
 53 55  1  0  0  0  0
 55 56  1  0  0  0  0
 57 55  2  0  0  0  0
 57 58  1  0  0  0  0
 59 50  1  0  0  0  0
 60 62  1  0  0  0  0
 60 59  1  0  0  0  0
 61 60  1  0  0  0  0
 63 60  1  0  0  0  0
M  END
