1,2
 OpenBabel05122313063D

 57 60  0  0  1  0  0  0  0  0999 V2000
   -1.8045   -1.0415    0.5439 S   0  0  0  0  0  0  0  0  0  0  0  0
    1.4296    0.1379    0.2805 P   0  0  0  0  0  0  0  0  0  0  0  0
    1.3490   -0.4679    2.0051 C   0  0  2  0  0  0  0  0  0  0  0  0
    2.1528   -0.0036    2.6038 H   0  0  0  0  0  0  0  0  0  0  0  0
    1.0113   -1.9074    2.4002 C   0  0  0  0  0  0  0  0  0  0  0  0
    0.0604   -0.7762    2.7527 C   0  0  2  0  0  0  0  0  0  0  0  0
    0.1091   -0.4897    3.8195 H   0  0  0  0  0  0  0  0  0  0  0  0
   -1.3418   -0.4953    2.2515 C   0  0  0  0  0  0  0  0  0  0  0  0
   -1.5454    0.5916    2.3203 H   0  0  0  0  0  0  0  0  0  0  0  0
   -2.0777   -1.0103    2.9025 H   0  0  0  0  0  0  0  0  0  0  0  0
    0.6907   -2.9689    1.3603 C   0  0  0  0  0  0  0  0  0  0  0  0
   -0.0090   -3.7224    1.7759 H   0  0  0  0  0  0  0  0  0  0  0  0
    1.6231   -3.4951    1.0706 H   0  0  0  0  0  0  0  0  0  0  0  0
    0.2474   -2.5664    0.4297 H   0  0  0  0  0  0  0  0  0  0  0  0
    1.8326   -2.4645    3.5546 C   0  0  0  0  0  0  0  0  0  0  0  0
    2.8026   -2.8568    3.1857 H   0  0  0  0  0  0  0  0  0  0  0  0
    1.2948   -3.2999    4.0495 H   0  0  0  0  0  0  0  0  0  0  0  0
    2.0459   -1.6934    4.3222 H   0  0  0  0  0  0  0  0  0  0  0  0
   -3.3160   -0.0689    0.3491 C   0  0  0  0  0  0  0  0  0  0  0  0
   -4.5185   -0.8208    0.3434 C   0  0  0  0  0  0  0  0  0  0  0  0
   -5.7318   -0.1139    0.2482 C   0  0  0  0  0  0  0  0  0  0  0  0
   -6.6760   -0.6798    0.2434 H   0  0  0  0  0  0  0  0  0  0  0  0
   -5.7474    1.2817    0.1440 C   0  0  0  0  0  0  0  0  0  0  0  0
   -6.7057    1.8176    0.0693 H   0  0  0  0  0  0  0  0  0  0  0  0
   -4.5437    1.9947    0.1094 C   0  0  0  0  0  0  0  0  0  0  0  0
   -4.5553    3.0893   -0.0079 H   0  0  0  0  0  0  0  0  0  0  0  0
   -3.2982    1.3415    0.1995 C   0  0  0  0  0  0  0  0  0  0  0  0
   -4.5189   -2.3277    0.3702 C   0  0  0  0  0  0  0  0  0  0  0  0
   -3.9930   -2.7378    1.2561 H   0  0  0  0  0  0  0  0  0  0  0  0
   -3.9892   -2.7152   -0.5254 H   0  0  0  0  0  0  0  0  0  0  0  0
   -5.5535   -2.7199    0.3673 H   0  0  0  0  0  0  0  0  0  0  0  0
   -2.0348    2.1444    0.0602 C   0  0  0  0  0  0  0  0  0  0  0  0
   -1.4551    1.8047   -0.8278 H   0  0  0  0  0  0  0  0  0  0  0  0
   -1.3492    2.0511    0.9257 H   0  0  0  0  0  0  0  0  0  0  0  0
   -2.2629    3.2191   -0.0663 H   0  0  0  0  0  0  0  0  0  0  0  0
    1.5316    1.9601    0.4735 C   0  0  0  0  0  0  0  0  0  0  0  0
    1.3080    2.6002    1.7097 C   0  0  0  0  0  0  0  0  0  0  0  0
    1.1133    2.0093    2.6163 H   0  0  0  0  0  0  0  0  0  0  0  0
    1.3214    4.0023    1.7886 C   0  0  0  0  0  0  0  0  0  0  0  0
    1.1443    4.4952    2.7567 H   0  0  0  0  0  0  0  0  0  0  0  0
    1.5586    4.7703    0.6390 C   0  0  0  0  0  0  0  0  0  0  0  0
    1.5678    5.8690    0.7029 H   0  0  0  0  0  0  0  0  0  0  0  0
    1.7778    4.1336   -0.5948 C   0  0  0  0  0  0  0  0  0  0  0  0
    1.9546    4.7320   -1.5013 H   0  0  0  0  0  0  0  0  0  0  0  0
    1.7597    2.7358   -0.6847 C   0  0  0  0  0  0  0  0  0  0  0  0
    1.8907    2.2275   -1.6545 H   0  0  0  0  0  0  0  0  0  0  0  0
    3.1142   -0.4154   -0.1916 C   0  0  0  0  0  0  0  0  0  0  0  0
    4.2453    0.2806    0.2770 C   0  0  0  0  0  0  0  0  0  0  0  0
    4.1215    1.2139    0.8484 H   0  0  0  0  0  0  0  0  0  0  0  0
    5.5313   -0.2089    0.0009 C   0  0  0  0  0  0  0  0  0  0  0  0
    6.4139    0.3413    0.3612 H   0  0  0  0  0  0  0  0  0  0  0  0
    5.6897   -1.3918   -0.7380 C   0  0  0  0  0  0  0  0  0  0  0  0
    6.6990   -1.7724   -0.9572 H   0  0  0  0  0  0  0  0  0  0  0  0
    4.5608   -2.0825   -1.2089 C   0  0  0  0  0  0  0  0  0  0  0  0
    4.6827   -3.0006   -1.8031 H   0  0  0  0  0  0  0  0  0  0  0  0
    3.2732   -1.5955   -0.9441 C   0  0  0  0  0  0  0  0  0  0  0  0
    2.3868   -2.1101   -1.3428 H   0  0  0  0  0  0  0  0  0  0  0  0
  1  8  1  0  0  0  0
  2 36  1  0  0  0  0
  2  3  1  0  0  0  0
  3  5  1  0  0  0  0
  3  4  1  1  0  0  0
  3  6  1  0  0  0  0
  5  6  1  0  0  0  0
  5 15  1  0  0  0  0
  6  7  1  1  0  0  0
  8  9  1  0  0  0  0
  8  6  1  0  0  0  0
  8 10  1  0  0  0  0
 11 12  1  0  0  0  0
 11  5  1  0  0  0  0
 13 11  1  0  0  0  0
 14 11  1  0  0  0  0
 15 17  1  0  0  0  0
 15 18  1  0  0  0  0
 16 15  1  0  0  0  0
 19  1  1  0  0  0  0
 20 19  1  0  0  0  0
 20 28  1  0  0  0  0
 21 20  2  0  0  0  0
 22 21  1  0  0  0  0
 23 21  1  0  0  0  0
 24 23  1  0  0  0  0
 25 23  2  0  0  0  0
 25 27  1  0  0  0  0
 26 25  1  0  0  0  0
 27 19  2  0  0  0  0
 28 29  1  0  0  0  0
 30 28  1  0  0  0  0
 31 28  1  0  0  0  0
 32 27  1  0  0  0  0
 32 34  1  0  0  0  0
 33 32  1  0  0  0  0
 35 32  1  0  0  0  0
 36 37  1  0  0  0  0
 37 39  2  0  0  0  0
 37 38  1  0  0  0  0
 39 40  1  0  0  0  0
 41 42  1  0  0  0  0
 41 39  1  0  0  0  0
 43 41  2  0  0  0  0
 44 43  1  0  0  0  0
 45 43  1  0  0  0  0
 45 36  2  0  0  0  0
 46 45  1  0  0  0  0
 47 48  1  0  0  0  0
 47  2  1  0  0  0  0
 48 49  1  0  0  0  0
 50 48  2  0  0  0  0
 50 51  1  0  0  0  0
 52 50  1  0  0  0  0
 53 52  1  0  0  0  0
 54 56  1  0  0  0  0
 54 52  2  0  0  0  0
 55 54  1  0  0  0  0
 56 47  2  0  0  0  0
 57 56  1  0  0  0  0
M  END
