1,2
 OpenBabel05122313063D

 54 56  0  0  1  0  0  0  0  0999 V2000
   -1.3294    0.0639    0.0773 P   0  0  0  0  0  0  0  0  0  0  0  0
    1.7475    0.2477    0.8134 S   0  0  0  0  0  0  0  0  0  0  0  0
   -0.9704    1.8023   -0.4961 C   0  0  0  0  0  0  0  0  0  0  0  0
    0.2279    2.5682    0.1170 C   0  0  2  0  0  0  0  0  0  0  0  0
    1.5744    1.8465   -0.0972 C   0  0  0  0  0  0  0  0  0  0  0  0
    0.0189    2.9193    1.5986 C   0  0  0  0  0  0  0  0  0  0  0  0
    0.3328    3.8996   -0.6632 C   0  0  0  0  0  0  0  0  0  0  0  0
    0.5388    3.6417   -2.0321 O   0  0  0  0  0  0  0  0  0  0  0  0
    0.6188    4.8069   -2.8176 C   0  0  0  0  0  0  0  0  0  0  0  0
   -2.8045   -0.3665   -0.9432 C   0  0  0  0  0  0  0  0  0  0  0  0
   -3.7384   -1.2881   -0.4240 C   0  0  0  0  0  0  0  0  0  0  0  0
   -4.8019   -1.7429   -1.2143 C   0  0  0  0  0  0  0  0  0  0  0  0
   -4.9441   -1.2906   -2.5359 C   0  0  0  0  0  0  0  0  0  0  0  0
   -4.0107   -0.3862   -3.0637 C   0  0  0  0  0  0  0  0  0  0  0  0
   -2.9432    0.0714   -2.2756 C   0  0  0  0  0  0  0  0  0  0  0  0
   -2.0962    0.3680    1.7367 C   0  0  0  0  0  0  0  0  0  0  0  0
   -3.3155    1.0714    1.8411 C   0  0  0  0  0  0  0  0  0  0  0  0
   -3.8598    1.3645    3.0992 C   0  0  0  0  0  0  0  0  0  0  0  0
   -3.1932    0.9585    4.2678 C   0  0  0  0  0  0  0  0  0  0  0  0
   -1.9820    0.2576    4.1711 C   0  0  0  0  0  0  0  0  0  0  0  0
   -1.4358   -0.0360    2.9114 C   0  0  0  0  0  0  0  0  0  0  0  0
    3.5088   -0.0132    0.5278 C   0  0  0  0  0  0  0  0  0  0  0  0
    4.3433   -0.1109    1.6539 C   0  0  0  0  0  0  0  0  0  0  0  0
    5.7166   -0.3463    1.4804 C   0  0  0  0  0  0  0  0  0  0  0  0
    6.2518   -0.4689    0.1893 C   0  0  0  0  0  0  0  0  0  0  0  0
    5.4112   -0.3657   -0.9320 C   0  0  0  0  0  0  0  0  0  0  0  0
    4.0367   -0.1475   -0.7686 C   0  0  0  0  0  0  0  0  0  0  0  0
   -1.8947    2.4018   -0.3556 H   0  0  0  0  0  0  0  0  0  0  0  0
   -0.7906    1.7312   -1.5871 H   0  0  0  0  0  0  0  0  0  0  0  0
    1.7405    1.6621   -1.1751 H   0  0  0  0  0  0  0  0  0  0  0  0
    2.3963    2.4875    0.2822 H   0  0  0  0  0  0  0  0  0  0  0  0
    0.0674    2.0219    2.2411 H   0  0  0  0  0  0  0  0  0  0  0  0
   -0.9695    3.3930    1.7622 H   0  0  0  0  0  0  0  0  0  0  0  0
    0.8057    3.6211    1.9447 H   0  0  0  0  0  0  0  0  0  0  0  0
    1.1737    4.5095   -0.2440 H   0  0  0  0  0  0  0  0  0  0  0  0
   -0.6070    4.4882   -0.5049 H   0  0  0  0  0  0  0  0  0  0  0  0
   -0.3177    5.4137   -2.7620 H   0  0  0  0  0  0  0  0  0  0  0  0
    0.7773    4.4935   -3.8673 H   0  0  0  0  0  0  0  0  0  0  0  0
    1.4686    5.4628   -2.5080 H   0  0  0  0  0  0  0  0  0  0  0  0
   -3.6271   -1.6576    0.6069 H   0  0  0  0  0  0  0  0  0  0  0  0
   -5.5210   -2.4632   -0.7958 H   0  0  0  0  0  0  0  0  0  0  0  0
   -5.7776   -1.6510   -3.1574 H   0  0  0  0  0  0  0  0  0  0  0  0
   -4.1073   -0.0345   -4.1021 H   0  0  0  0  0  0  0  0  0  0  0  0
   -2.2114    0.7626   -2.7175 H   0  0  0  0  0  0  0  0  0  0  0  0
   -3.8501    1.3808    0.9293 H   0  0  0  0  0  0  0  0  0  0  0  0
   -4.8133    1.9102    3.1684 H   0  0  0  0  0  0  0  0  0  0  0  0
   -3.6230    1.1861    5.2552 H   0  0  0  0  0  0  0  0  0  0  0  0
   -1.4556   -0.0674    5.0813 H   0  0  0  0  0  0  0  0  0  0  0  0
   -0.4810   -0.5743    2.8407 H   0  0  0  0  0  0  0  0  0  0  0  0
    3.9108   -0.0047    2.6601 H   0  0  0  0  0  0  0  0  0  0  0  0
    6.3703   -0.4314    2.3616 H   0  0  0  0  0  0  0  0  0  0  0  0
    7.3283   -0.6524    0.0545 H   0  0  0  0  0  0  0  0  0  0  0  0
    5.8261   -0.4727   -1.9455 H   0  0  0  0  0  0  0  0  0  0  0  0
    3.3735   -0.1005   -1.6444 H   0  0  0  0  0  0  0  0  0  0  0  0
  1 16  1  0  0  0  0
  3 28  1  0  0  0  0
  3  1  1  0  0  0  0
  3  4  1  0  0  0  0
  4  7  1  6  0  0  0
  4  6  1  0  0  0  0
  5  4  1  0  0  0  0
  5 31  1  0  0  0  0
  5  2  1  0  0  0  0
  6 33  1  0  0  0  0
  6 34  1  0  0  0  0
  6 32  1  0  0  0  0
  7 36  1  0  0  0  0
  7 35  1  0  0  0  0
  8  7  1  0  0  0  0
  9 37  1  0  0  0  0
  9 39  1  0  0  0  0
  9  8  1  0  0  0  0
 10 11  1  0  0  0  0
 10  1  1  0  0  0  0
 11 40  1  0  0  0  0
 12 41  1  0  0  0  0
 12 11  2  0  0  0  0
 13 12  1  0  0  0  0
 14 13  2  0  0  0  0
 14 15  1  0  0  0  0
 15 10  2  0  0  0  0
 16 17  2  0  0  0  0
 16 21  1  0  0  0  0
 17 18  1  0  0  0  0
 18 46  1  0  0  0  0
 18 19  2  0  0  0  0
 19 47  1  0  0  0  0
 20 19  1  0  0  0  0
 20 48  1  0  0  0  0
 21 20  2  0  0  0  0
 22  2  1  0  0  0  0
 22 23  1  0  0  0  0
 23 50  1  0  0  0  0
 24 23  2  0  0  0  0
 24 51  1  0  0  0  0
 25 24  1  0  0  0  0
 26 27  1  0  0  0  0
 26 25  2  0  0  0  0
 27 22  2  0  0  0  0
 29  3  1  0  0  0  0
 30  5  1  0  0  0  0
 38  9  1  0  0  0  0
 42 13  1  0  0  0  0
 43 14  1  0  0  0  0
 44 15  1  0  0  0  0
 45 17  1  0  0  0  0
 49 21  1  0  0  0  0
 52 25  1  0  0  0  0
 53 26  1  0  0  0  0
 54 27  1  0  0  0  0
M  END
