1,2
 OpenBabel05122313063D

 37 38  0  0  0  0  0  0  0  0999 V2000
   -2.2724   -0.1130    1.6522 S   0  0  0  0  0  0  0  0  0  0  0  0
   -0.5760   -2.2681   -0.4048 P   0  0  0  0  0  0  0  0  0  0  0  0
   -2.4859   -1.9422    1.6755 C   0  0  0  0  0  0  0  0  0  0  0  0
   -1.9751    0.2405    3.4293 C   0  0  0  0  0  0  0  0  0  0  0  0
   -2.2918   -2.5337    0.2770 C   0  0  0  0  0  0  0  0  0  0  0  0
   -0.7186   -2.7940   -2.1521 C   0  0  0  0  0  0  0  0  0  0  0  0
    0.4885   -3.5149    0.4142 C   0  0  0  0  0  0  0  0  0  0  0  0
   -3.5065   -2.1662    2.0472 H   0  0  0  0  0  0  0  0  0  0  0  0
   -1.7561   -2.3678    2.3958 H   0  0  0  0  0  0  0  0  0  0  0  0
   -1.5366    1.6897    3.6007 C   0  0  0  0  0  0  0  0  0  0  0  0
   -1.2015   -0.4661    3.7939 H   0  0  0  0  0  0  0  0  0  0  0  0
   -2.9163    0.0356    3.9794 H   0  0  0  0  0  0  0  0  0  0  0  0
   -2.5439   -3.6145    0.2748 H   0  0  0  0  0  0  0  0  0  0  0  0
   -2.9768   -2.0544   -0.4537 H   0  0  0  0  0  0  0  0  0  0  0  0
   -1.0079   -1.8062   -3.1169 C   0  0  0  0  0  0  0  0  0  0  0  0
   -0.5576   -4.1374   -2.5475 C   0  0  0  0  0  0  0  0  0  0  0  0
   -0.0000   -4.5547    1.2308 C   0  0  0  0  0  0  0  0  0  0  0  0
    1.8832   -3.3740    0.2363 C   0  0  0  0  0  0  0  0  0  0  0  0
   -1.3620    1.9085    4.6727 H   0  0  0  0  0  0  0  0  0  0  0  0
   -2.3005    2.3995    3.2269 H   0  0  0  0  0  0  0  0  0  0  0  0
   -0.5992    1.8934    3.0442 H   0  0  0  0  0  0  0  0  0  0  0  0
   -1.1544   -2.1641   -4.4649 C   0  0  0  0  0  0  0  0  0  0  0  0
   -1.1102   -0.7528   -2.8076 H   0  0  0  0  0  0  0  0  0  0  0  0
   -0.6954   -4.4864   -3.8992 C   0  0  0  0  0  0  0  0  0  0  0  0
   -0.3154   -4.9084   -1.7999 H   0  0  0  0  0  0  0  0  0  0  0  0
    0.8932   -5.4378    1.8596 C   0  0  0  0  0  0  0  0  0  0  0  0
   -1.0809   -4.6905    1.3835 H   0  0  0  0  0  0  0  0  0  0  0  0
    2.7699   -4.2675    0.8511 C   0  0  0  0  0  0  0  0  0  0  0  0
    2.2737   -2.5527   -0.3857 H   0  0  0  0  0  0  0  0  0  0  0  0
   -0.9962   -3.5036   -4.8565 C   0  0  0  0  0  0  0  0  0  0  0  0
   -1.3826   -1.3912   -5.2142 H   0  0  0  0  0  0  0  0  0  0  0  0
   -0.5657   -5.5347   -4.2075 H   0  0  0  0  0  0  0  0  0  0  0  0
    2.2764   -5.2980    1.6696 C   0  0  0  0  0  0  0  0  0  0  0  0
    0.5024   -6.2448    2.4972 H   0  0  0  0  0  0  0  0  0  0  0  0
    3.8535   -4.1536    0.6979 H   0  0  0  0  0  0  0  0  0  0  0  0
   -1.1015   -3.7829   -5.9155 H   0  0  0  0  0  0  0  0  0  0  0  0
    2.9728   -5.9941    2.1605 H   0  0  0  0  0  0  0  0  0  0  0  0
  1  3  1  0  0  0  0
  1  4  1  0  0  0  0
  2  5  1  0  0  0  0
  2  7  1  0  0  0  0
  3  8  1  0  0  0  0
  3  9  1  0  0  0  0
  4 10  1  0  0  0  0
  4 11  1  0  0  0  0
  4 12  1  0  0  0  0
  5  3  1  0  0  0  0
  6  2  1  0  0  0  0
  7 17  1  0  0  0  0
 10 19  1  0  0  0  0
 13  5  1  0  0  0  0
 14  5  1  0  0  0  0
 15 23  1  0  0  0  0
 15  6  2  0  0  0  0
 16  6  1  0  0  0  0
 16 25  1  0  0  0  0
 17 27  1  0  0  0  0
 17 26  2  0  0  0  0
 18  7  2  0  0  0  0
 18 28  1  0  0  0  0
 20 10  1  0  0  0  0
 21 10  1  0  0  0  0
 22 15  1  0  0  0  0
 24 16  2  0  0  0  0
 26 34  1  0  0  0  0
 28 33  2  0  0  0  0
 29 18  1  0  0  0  0
 30 22  2  0  0  0  0
 30 24  1  0  0  0  0
 31 22  1  0  0  0  0
 32 24  1  0  0  0  0
 33 26  1  0  0  0  0
 33 37  1  0  0  0  0
 35 28  1  0  0  0  0
 36 30  1  0  0  0  0
M  END
