1,2
 OpenBabel05122313063D

 42 44  0  0  0  0  0  0  0  0999 V2000
   -1.9448    1.8757   -0.3370 S   0  0  0  0  0  0  0  0  0  0  0  0
    0.6898    0.1395   -0.0233 P   0  0  0  0  0  0  0  0  0  0  0  0
   -1.2631   -1.3439    2.0369 S   0  0  0  0  0  0  0  0  0  0  0  0
    2.6681   -1.6625    0.9244 C   0  0  0  0  0  0  0  0  0  0  0  0
    3.3614   -1.1489    0.2423 H   0  0  0  0  0  0  0  0  0  0  0  0
    3.9081    2.2215   -1.6263 C   0  0  0  0  0  0  0  0  0  0  0  0
    4.4762    3.1405   -1.4164 H   0  0  0  0  0  0  0  0  0  0  0  0
    3.1116   -2.7508    1.6896 C   0  0  0  0  0  0  0  0  0  0  0  0
    4.1579   -3.0819    1.6108 H   0  0  0  0  0  0  0  0  0  0  0  0
    2.2219   -3.4160    2.5469 C   0  0  0  0  0  0  0  0  0  0  0  0
    2.5668   -4.2711    3.1478 H   0  0  0  0  0  0  0  0  0  0  0  0
    1.3286   -1.2360    1.0078 C   0  0  0  0  0  0  0  0  0  0  0  0
    0.4321   -1.8995    1.8823 C   0  0  0  0  0  0  0  0  0  0  0  0
    2.8474    1.8549   -0.7830 C   0  0  0  0  0  0  0  0  0  0  0  0
    2.5910    2.4904    0.0768 H   0  0  0  0  0  0  0  0  0  0  0  0
    0.8915   -2.9841    2.6508 C   0  0  0  0  0  0  0  0  0  0  0  0
    0.1924   -3.4844    3.3376 H   0  0  0  0  0  0  0  0  0  0  0  0
    3.4997    0.2611   -3.0041 C   0  0  0  0  0  0  0  0  0  0  0  0
    3.7456   -0.3594   -3.8790 H   0  0  0  0  0  0  0  0  0  0  0  0
    2.1122    0.6820   -1.0488 C   0  0  0  0  0  0  0  0  0  0  0  0
    4.2393    1.4245   -2.7326 C   0  0  0  0  0  0  0  0  0  0  0  0
    5.0708    1.7163   -3.3920 H   0  0  0  0  0  0  0  0  0  0  0  0
    0.3844    1.5137    1.1632 C   0  0  0  0  0  0  0  0  0  0  0  0
    1.2630    1.8171    2.2214 C   0  0  0  0  0  0  0  0  0  0  0  0
    2.1594    1.1963    2.3745 H   0  0  0  0  0  0  0  0  0  0  0  0
   -0.7832    2.2841    0.9925 C   0  0  0  0  0  0  0  0  0  0  0  0
    2.4333   -0.1101   -2.1744 C   0  0  0  0  0  0  0  0  0  0  0  0
    1.8265   -1.0051   -2.3940 H   0  0  0  0  0  0  0  0  0  0  0  0
   -0.1662    3.6659    2.8899 C   0  0  0  0  0  0  0  0  0  0  0  0
   -0.3832    4.5094    3.5622 H   0  0  0  0  0  0  0  0  0  0  0  0
   -1.0501    3.3716    1.8412 C   0  0  0  0  0  0  0  0  0  0  0  0
   -1.9523    3.9828    1.6893 H   0  0  0  0  0  0  0  0  0  0  0  0
    0.9858    2.8862    3.0853 C   0  0  0  0  0  0  0  0  0  0  0  0
    1.6703    3.1109    3.9166 H   0  0  0  0  0  0  0  0  0  0  0  0
   -3.4282    1.4635    0.6525 C   0  0  0  0  0  0  0  0  0  0  0  0
   -3.1363    0.7766    1.4681 H   0  0  0  0  0  0  0  0  0  0  0  0
   -4.0863    0.9493   -0.0766 H   0  0  0  0  0  0  0  0  0  0  0  0
   -3.8875    2.3933    1.0366 H   0  0  0  0  0  0  0  0  0  0  0  0
   -2.1387   -2.7084    1.1838 C   0  0  0  0  0  0  0  0  0  0  0  0
   -1.6266   -2.9263    0.2254 H   0  0  0  0  0  0  0  0  0  0  0  0
   -3.1535   -2.3277    0.9592 H   0  0  0  0  0  0  0  0  0  0  0  0
   -2.2014   -3.6034    1.8319 H   0  0  0  0  0  0  0  0  0  0  0  0
  1 35  1  0  0  0  0
  1 26  1  0  0  0  0
  2 12  1  0  0  0  0
  2 23  1  0  0  0  0
  4 12  2  0  0  0  0
  4  8  1  0  0  0  0
  5  4  1  0  0  0  0
  6  7  1  0  0  0  0
  6 14  1  0  0  0  0
  8 10  2  0  0  0  0
  9  8  1  0  0  0  0
 10 16  1  0  0  0  0
 10 11  1  0  0  0  0
 12 13  1  0  0  0  0
 13  3  1  0  0  0  0
 13 16  2  0  0  0  0
 14 15  1  0  0  0  0
 16 17  1  0  0  0  0
 18 21  1  0  0  0  0
 18 27  2  0  0  0  0
 19 18  1  0  0  0  0
 20 14  2  0  0  0  0
 20  2  1  0  0  0  0
 21  6  2  0  0  0  0
 22 21  1  0  0  0  0
 23 24  1  0  0  0  0
 24 25  1  0  0  0  0
 24 33  2  0  0  0  0
 26 23  2  0  0  0  0
 26 31  1  0  0  0  0
 27 20  1  0  0  0  0
 28 27  1  0  0  0  0
 29 33  1  0  0  0  0
 29 30  1  0  0  0  0
 31 29  2  0  0  0  0
 32 31  1  0  0  0  0
 33 34  1  0  0  0  0
 35 38  1  0  0  0  0
 35 36  1  0  0  0  0
 37 35  1  0  0  0  0
 39 42  1  0  0  0  0
 39  3  1  0  0  0  0
 40 39  1  0  0  0  0
 41 39  1  0  0  0  0
M  END
