1,4
 OpenBabel05122313063D

 38 40  0  0  0  0  0  0  0  0999 V2000
    0.0957   -1.6595   -1.7041 S   0  0  0  0  0  1  0  0  0  0  0  0
    0.2067   -4.7815   -0.7191 S   0  0  0  0  0  0  0  0  0  0  0  0
    0.9153   -3.6163   -0.9556 H   0  0  0  0  0  0  0  0  0  0  0  0
   -2.2044    0.4538   -0.5251 P   0  0  0  0  0  0  0  0  0  0  0  0
   -2.6732   -2.0098   -1.6575 C   0  0  0  0  0  0  0  0  0  0  0  0
   -1.3953   -2.6008   -1.4452 C   0  0  0  0  0  0  0  0  0  0  0  0
   -1.3282   -3.9715   -1.0424 C   0  0  0  0  0  0  0  0  0  0  0  0
   -3.4130    0.0132    0.7764 C   0  0  0  0  0  0  0  0  0  0  0  0
   -2.5355    2.1899   -0.9986 C   0  0  0  0  0  0  0  0  0  0  0  0
   -2.5206   -4.7075   -0.8763 C   0  0  0  0  0  0  0  0  0  0  0  0
   -2.4576   -5.7619   -0.5671 H   0  0  0  0  0  0  0  0  0  0  0  0
   -3.7680   -4.1090   -1.0829 C   0  0  0  0  0  0  0  0  0  0  0  0
   -4.6869   -4.6975   -0.9407 H   0  0  0  0  0  0  0  0  0  0  0  0
   -3.8459   -2.7620   -1.4603 C   0  0  0  0  0  0  0  0  0  0  0  0
   -4.8244   -2.2807   -1.6089 H   0  0  0  0  0  0  0  0  0  0  0  0
   -4.8014    0.1570    0.5668 C   0  0  0  0  0  0  0  0  0  0  0  0
   -5.1777    0.5978   -0.3694 H   0  0  0  0  0  0  0  0  0  0  0  0
   -5.7072   -0.2580    1.5523 C   0  0  0  0  0  0  0  0  0  0  0  0
   -6.7888   -0.1429    1.3845 H   0  0  0  0  0  0  0  0  0  0  0  0
   -5.2352   -0.8234    2.7491 C   0  0  0  0  0  0  0  0  0  0  0  0
   -5.9488   -1.1515    3.5202 H   0  0  0  0  0  0  0  0  0  0  0  0
   -3.8563   -0.9726    2.9592 C   0  0  0  0  0  0  0  0  0  0  0  0
   -3.4840   -1.4182    3.8937 H   0  0  0  0  0  0  0  0  0  0  0  0
   -2.9454   -0.5571    1.9760 C   0  0  0  0  0  0  0  0  0  0  0  0
   -1.8608   -0.6775    2.1271 H   0  0  0  0  0  0  0  0  0  0  0  0
   -3.3470    3.0509   -0.2333 C   0  0  0  0  0  0  0  0  0  0  0  0
   -3.8437    2.6777    0.6739 H   0  0  0  0  0  0  0  0  0  0  0  0
   -3.5043    4.3915   -0.6185 C   0  0  0  0  0  0  0  0  0  0  0  0
   -4.1325    5.0609   -0.0115 H   0  0  0  0  0  0  0  0  0  0  0  0
   -2.8540    4.8805   -1.7614 C   0  0  0  0  0  0  0  0  0  0  0  0
   -2.9706    5.9349   -2.0532 H   0  0  0  0  0  0  0  0  0  0  0  0
   -2.0386    4.0265   -2.5220 C   0  0  0  0  0  0  0  0  0  0  0  0
   -1.5121    4.4108   -3.4084 H   0  0  0  0  0  0  0  0  0  0  0  0
   -1.8745    2.6891   -2.1419 C   0  0  0  0  0  0  0  0  0  0  0  0
   -1.2057    2.0326   -2.7210 H   0  0  0  0  0  0  0  0  0  0  0  0
   -2.7636   -0.5536   -2.0008 C   0  0  0  0  0  0  0  0  0  0  0  0
   -3.7924   -0.2508   -2.2769 H   0  0  0  0  0  0  0  0  0  0  0  0
   -2.0612   -0.2849   -2.8170 H   0  0  0  0  0  0  0  0  0  0  0  0
  1  6  1  0  0  0  0
  3  2  1  0  0  0  0
  4  8  1  0  0  0  0
  5 14  2  0  0  0  0
  5  6  1  0  0  0  0
  6  7  2  0  0  0  0
  7 10  1  0  0  0  0
  7  2  1  0  0  0  0
  8 24  1  0  0  0  0
  9  4  1  0  0  0  0
  9 26  1  0  0  0  0
 10 11  1  0  0  0  0
 12 13  1  0  0  0  0
 12 10  2  0  0  0  0
 14 12  1  0  0  0  0
 15 14  1  0  0  0  0
 16  8  2  0  0  0  0
 16 18  1  0  0  0  0
 17 16  1  0  0  0  0
 18 20  2  0  0  0  0
 19 18  1  0  0  0  0
 20 22  1  0  0  0  0
 20 21  1  0  0  0  0
 22 23  1  0  0  0  0
 24 25  1  0  0  0  0
 24 22  2  0  0  0  0
 26 27  1  0  0  0  0
 28 26  2  0  0  0  0
 28 29  1  0  0  0  0
 30 28  1  0  0  0  0
 31 30  1  0  0  0  0
 32 34  1  0  0  0  0
 32 30  2  0  0  0  0
 33 32  1  0  0  0  0
 34  9  2  0  0  0  0
 35 34  1  0  0  0  0
 36  5  1  0  0  0  0
 36  4  1  0  0  0  0
 37 36  1  0  0  0  0
 38 36  1  0  0  0  0
M  END
