1,3
 OpenBabel05122313063D

 68 73  0  0  0  0  0  0  0  0999 V2000
    2.0653    0.0232   -0.2682 P   0  0  0  0  0  0  0  0  0  0  0  0
   -2.3083    0.2065   -0.2420 P   0  0  0  0  0  4  0  0  0  0  0  0
   -0.9666   -0.0876   -1.7605 S   0  0  0  0  0  1  0  0  0  0  0  0
   -0.1027    0.3944    1.7275 O   0  0  0  0  0  0  0  0  0  0  0  0
    4.6563    0.8142   -1.0833 C   0  0  0  0  0  0  0  0  0  0  0  0
    4.3450    1.8311   -0.8001 H   0  0  0  0  0  0  0  0  0  0  0  0
    5.9404    0.5985   -1.6034 C   0  0  0  0  0  0  0  0  0  0  0  0
    6.6331    1.4467   -1.7142 H   0  0  0  0  0  0  0  0  0  0  0  0
    6.3354   -0.6927   -1.9901 C   0  0  0  0  0  0  0  0  0  0  0  0
    7.3413   -0.8594   -2.4051 H   0  0  0  0  0  0  0  0  0  0  0  0
    5.4431   -1.7670   -1.8523 C   0  0  0  0  0  0  0  0  0  0  0  0
    5.7454   -2.7801   -2.1581 H   0  0  0  0  0  0  0  0  0  0  0  0
    4.1585   -1.5620   -1.3260 C   0  0  0  0  0  0  0  0  0  0  0  0
    3.4612   -2.4028   -1.1905 H   0  0  0  0  0  0  0  0  0  0  0  0
    3.7606   -0.2683   -0.9343 C   0  0  0  0  0  0  0  0  0  0  0  0
    1.5982    1.8607   -2.3172 C   0  0  0  0  0  0  0  0  0  0  0  0
    1.6623    0.9709   -2.9629 H   0  0  0  0  0  0  0  0  0  0  0  0
    1.3890    3.1235   -2.8842 C   0  0  0  0  0  0  0  0  0  0  0  0
    1.2856    3.2207   -3.9755 H   0  0  0  0  0  0  0  0  0  0  0  0
    1.3104    4.2619   -2.0619 C   0  0  0  0  0  0  0  0  0  0  0  0
    1.1500    5.2550   -2.5089 H   0  0  0  0  0  0  0  0  0  0  0  0
    1.4390    4.1265   -0.6725 C   0  0  0  0  0  0  0  0  0  0  0  0
    1.3751    5.0111   -0.0209 H   0  0  0  0  0  0  0  0  0  0  0  0
    1.6471    2.8600   -0.1000 C   0  0  0  0  0  0  0  0  0  0  0  0
    1.7491    2.7677    0.9906 H   0  0  0  0  0  0  0  0  0  0  0  0
    1.7353    1.7205   -0.9191 C   0  0  0  0  0  0  0  0  0  0  0  0
    2.2909    0.3388    1.5329 C   0  0  0  0  0  0  0  0  0  0  0  0
    3.5531    0.4775    2.1392 C   0  0  0  0  0  0  0  0  0  0  0  0
    4.4586    0.3241    1.5344 H   0  0  0  0  0  0  0  0  0  0  0  0
    3.6616    0.8036    3.4993 C   0  0  0  0  0  0  0  0  0  0  0  0
    4.6563    0.8992    3.9590 H   0  0  0  0  0  0  0  0  0  0  0  0
    2.5060    1.0171    4.2670 C   0  0  0  0  0  0  0  0  0  0  0  0
    2.5879    1.2927    5.3291 H   0  0  0  0  0  0  0  0  0  0  0  0
    1.2388    0.8766    3.6821 C   0  0  0  0  0  0  0  0  0  0  0  0
    0.3183    1.0355    4.2620 H   0  0  0  0  0  0  0  0  0  0  0  0
    1.1403    0.5181    2.3301 C   0  0  0  0  0  0  0  0  0  0  0  0
   -0.9025   -0.6905    2.0177 C   0  0  0  0  0  0  0  0  0  0  0  0
   -0.5989   -1.6344    3.0088 C   0  0  0  0  0  0  0  0  0  0  0  0
    0.3448   -1.5618    3.5634 H   0  0  0  0  0  0  0  0  0  0  0  0
   -1.4805   -2.6978    3.2435 C   0  0  0  0  0  0  0  0  0  0  0  0
   -1.2222   -3.4441    4.0094 H   0  0  0  0  0  0  0  0  0  0  0  0
   -2.6638   -2.8288    2.5044 C   0  0  0  0  0  0  0  0  0  0  0  0
   -3.3487   -3.6682    2.6887 H   0  0  0  0  0  0  0  0  0  0  0  0
   -2.9454   -1.9106    1.4868 C   0  0  0  0  0  0  0  0  0  0  0  0
   -3.8412   -2.0385    0.8646 H   0  0  0  0  0  0  0  0  0  0  0  0
   -2.0707   -0.8377    1.2274 C   0  0  0  0  0  0  0  0  0  0  0  0
   -2.8919    2.2534    1.5903 C   0  0  0  0  0  0  0  0  0  0  0  0
   -3.2443    1.4464    2.2515 H   0  0  0  0  0  0  0  0  0  0  0  0
   -2.9659    3.5914    2.0023 C   0  0  0  0  0  0  0  0  0  0  0  0
   -3.3827    3.8367    2.9909 H   0  0  0  0  0  0  0  0  0  0  0  0
   -2.5049    4.6147    1.1566 C   0  0  0  0  0  0  0  0  0  0  0  0
   -2.5642    5.6643    1.4828 H   0  0  0  0  0  0  0  0  0  0  0  0
   -1.9585    4.2989   -0.0972 C   0  0  0  0  0  0  0  0  0  0  0  0
   -1.5787    5.0954   -0.7539 H   0  0  0  0  0  0  0  0  0  0  0  0
   -1.8736    2.9626   -0.5146 C   0  0  0  0  0  0  0  0  0  0  0  0
   -1.4112    2.6997   -1.4790 H   0  0  0  0  0  0  0  0  0  0  0  0
   -2.3510    1.9423    0.3260 C   0  0  0  0  0  0  0  0  0  0  0  0
   -5.0762    0.6648   -0.6683 C   0  0  0  0  0  0  0  0  0  0  0  0
   -4.9597    1.5897   -0.0843 H   0  0  0  0  0  0  0  0  0  0  0  0
   -6.3286    0.3191   -1.1993 C   0  0  0  0  0  0  0  0  0  0  0  0
   -7.1933    0.9781   -1.0291 H   0  0  0  0  0  0  0  0  0  0  0  0
   -6.4750   -0.8591   -1.9483 C   0  0  0  0  0  0  0  0  0  0  0  0
   -7.4588   -1.1255   -2.3642 H   0  0  0  0  0  0  0  0  0  0  0  0
   -5.3681   -1.6954   -2.1733 C   0  0  0  0  0  0  0  0  0  0  0  0
   -5.4823   -2.6193   -2.7601 H   0  0  0  0  0  0  0  0  0  0  0  0
   -4.1084   -1.3569   -1.6603 C   0  0  0  0  0  0  0  0  0  0  0  0
   -3.2275   -2.0043   -1.8266 H   0  0  0  0  0  0  0  0  0  0  0  0
   -3.9700   -0.1755   -0.8988 C   0  0  0  0  0  0  0  0  0  0  0  0
  1 27  1  0  0  0  0
  2 57  1  0  0  0  0
  2 46  1  0  0  0  0
  3  2  1  0  0  0  0
  4 37  1  0  0  0  0
  4 36  1  0  0  0  0
  5 15  1  0  0  0  0
  5  6  1  0  0  0  0
  7  5  2  0  0  0  0
  8  7  1  0  0  0  0
  9 11  2  0  0  0  0
  9  7  1  0  0  0  0
 10  9  1  0  0  0  0
 11 13  1  0  0  0  0
 12 11  1  0  0  0  0
 13 14  1  0  0  0  0
 13 15  2  0  0  0  0
 15  1  1  0  0  0  0
 16 26  1  0  0  0  0
 17 16  1  0  0  0  0
 18 16  2  0  0  0  0
 18 20  1  0  0  0  0
 19 18  1  0  0  0  0
 20 22  2  0  0  0  0
 21 20  1  0  0  0  0
 22 24  1  0  0  0  0
 22 23  1  0  0  0  0
 24 25  1  0  0  0  0
 26  1  1  0  0  0  0
 26 24  2  0  0  0  0
 27 28  2  0  0  0  0
 27 36  1  0  0  0  0
 28 30  1  0  0  0  0
 29 28  1  0  0  0  0
 30 31  1  0  0  0  0
 30 32  2  0  0  0  0
 32 33  1  0  0  0  0
 34 35  1  0  0  0  0
 34 32  1  0  0  0  0
 36 34  2  0  0  0  0
 37 38  1  0  0  0  0
 38 40  2  0  0  0  0
 38 39  1  0  0  0  0
 40 41  1  0  0  0  0
 42 43  1  0  0  0  0
 42 40  1  0  0  0  0
 44 42  2  0  0  0  0
 45 44  1  0  0  0  0
 46 44  1  0  0  0  0
 46 37  2  0  0  0  0
 47 49  1  0  0  0  0
 47 48  1  0  0  0  0
 49 50  1  0  0  0  0
 51 52  1  0  0  0  0
 51 49  2  0  0  0  0
 53 51  1  0  0  0  0
 54 53  1  0  0  0  0
 55 53  2  0  0  0  0
 55 57  1  0  0  0  0
 56 55  1  0  0  0  0
 57 47  2  0  0  0  0
 58 59  1  0  0  0  0
 60 61  1  0  0  0  0
 60 58  2  0  0  0  0
 62 60  1  0  0  0  0
 63 62  1  0  0  0  0
 64 62  2  0  0  0  0
 64 66  1  0  0  0  0
 65 64  1  0  0  0  0
 66 68  2  0  0  0  0
 67 66  1  0  0  0  0
 68 58  1  0  0  0  0
 68  2  1  0  0  0  0
M  END
