1,5
 OpenBabel05122313063D

 48 51  0  0  0  0  0  0  0  0999 V2000
   -0.9360    0.3148   -0.3118 P   0  0  0  0  0  0  0  0  0  0  0  0
   -0.1336   -0.6710   -1.6890 C   0  0  0  0  0  0  0  0  0  0  0  0
    0.0962   -2.1010   -1.3051 C   0  0  0  0  0  0  0  0  0  0  0  0
    0.9901   -2.4714   -0.2660 C   0  0  0  0  0  0  0  0  0  0  0  0
    1.8616   -1.2941    0.7810 S   0  0  0  0  0  0  0  0  0  0  0  0
    2.9266   -0.3982   -0.3771 C   0  0  0  0  0  0  0  0  0  0  0  0
    3.3968    0.8635    0.0348 C   0  0  0  0  0  0  0  0  0  0  0  0
    4.2552    1.5770   -0.8139 C   0  0  0  0  0  0  0  0  0  0  0  0
    4.6419    1.0418   -2.0545 C   0  0  0  0  0  0  0  0  0  0  0  0
    4.1797   -0.2254   -2.4422 C   0  0  0  0  0  0  0  0  0  0  0  0
    3.3257   -0.9582   -1.6022 C   0  0  0  0  0  0  0  0  0  0  0  0
    1.1663   -3.8213    0.0913 C   0  0  0  0  0  0  0  0  0  0  0  0
    0.4535   -4.8267   -0.5758 C   0  0  0  0  0  0  0  0  0  0  0  0
   -0.4405   -4.4780   -1.5985 C   0  0  0  0  0  0  0  0  0  0  0  0
   -0.6129   -3.1324   -1.9520 C   0  0  0  0  0  0  0  0  0  0  0  0
   -2.6151   -0.4004   -0.1808 C   0  0  0  0  0  0  0  0  0  0  0  0
   -3.1234   -0.7350    1.0896 C   0  0  0  0  0  0  0  0  0  0  0  0
   -4.3918   -1.3251    1.1992 C   0  0  0  0  0  0  0  0  0  0  0  0
   -5.1558   -1.5802    0.0501 C   0  0  0  0  0  0  0  0  0  0  0  0
   -4.6547   -1.2394   -1.2175 C   0  0  0  0  0  0  0  0  0  0  0  0
   -3.3874   -0.6516   -1.3352 C   0  0  0  0  0  0  0  0  0  0  0  0
   -1.0944    1.9681   -1.0772 C   0  0  0  0  0  0  0  0  0  0  0  0
    0.0870    2.6176   -1.4940 C   0  0  0  0  0  0  0  0  0  0  0  0
    0.0194    3.9012   -2.0511 C   0  0  0  0  0  0  0  0  0  0  0  0
   -1.2207    4.5486   -2.1810 C   0  0  0  0  0  0  0  0  0  0  0  0
   -2.3927    3.9114   -1.7455 C   0  0  0  0  0  0  0  0  0  0  0  0
   -2.3341    2.6242   -1.1903 C   0  0  0  0  0  0  0  0  0  0  0  0
    0.8198   -0.1449   -1.8988 H   0  0  0  0  0  0  0  0  0  0  0  0
   -0.7629   -0.5972   -2.5964 H   0  0  0  0  0  0  0  0  0  0  0  0
    3.0850    1.2670    1.0131 H   0  0  0  0  0  0  0  0  0  0  0  0
    4.6214    2.5654   -0.4978 H   0  0  0  0  0  0  0  0  0  0  0  0
    5.3085    1.6119   -2.7187 H   0  0  0  0  0  0  0  0  0  0  0  0
    4.4850   -0.6547   -3.4085 H   0  0  0  0  0  0  0  0  0  0  0  0
    2.9644   -1.9525   -1.9039 H   0  0  0  0  0  0  0  0  0  0  0  0
    1.8654   -4.0718    0.9030 H   0  0  0  0  0  0  0  0  0  0  0  0
    0.5960   -5.8798   -0.2920 H   0  0  0  0  0  0  0  0  0  0  0  0
   -1.0117   -5.2573   -2.1246 H   0  0  0  0  0  0  0  0  0  0  0  0
   -1.3218   -2.8623   -2.7498 H   0  0  0  0  0  0  0  0  0  0  0  0
   -2.5260   -0.5028    1.9844 H   0  0  0  0  0  0  0  0  0  0  0  0
   -4.7854   -1.5833    2.1938 H   0  0  0  0  0  0  0  0  0  0  0  0
   -6.1502   -2.0433    0.1407 H   0  0  0  0  0  0  0  0  0  0  0  0
   -5.2551   -1.4306   -2.1199 H   0  0  0  0  0  0  0  0  0  0  0  0
   -3.0081   -0.3760   -2.3315 H   0  0  0  0  0  0  0  0  0  0  0  0
    1.0676    2.1332   -1.3575 H   0  0  0  0  0  0  0  0  0  0  0  0
    0.9436    4.4042   -2.3732 H   0  0  0  0  0  0  0  0  0  0  0  0
   -1.2711    5.5598   -2.6124 H   0  0  0  0  0  0  0  0  0  0  0  0
   -3.3632    4.4236   -1.8289 H   0  0  0  0  0  0  0  0  0  0  0  0
   -3.2502    2.1332   -0.8317 H   0  0  0  0  0  0  0  0  0  0  0  0
  1 16  1  0  0  0  0
  2  3  1  0  0  0  0
  2  1  1  0  0  0  0
  3  4  1  0  0  0  0
  4 12  2  0  0  0  0
  4  5  1  0  0  0  0
  6  7  1  0  0  0  0
  6  5  1  0  0  0  0
  7 30  1  0  0  0  0
  8 31  1  0  0  0  0
  8  7  2  0  0  0  0
  9  8  1  0  0  0  0
 10  9  2  0  0  0  0
 10 11  1  0  0  0  0
 11  6  2  0  0  0  0
 12 35  1  0  0  0  0
 13 36  1  0  0  0  0
 13 12  1  0  0  0  0
 14 13  2  0  0  0  0
 15 14  1  0  0  0  0
 15  3  2  0  0  0  0
 16 17  1  0  0  0  0
 17 18  2  0  0  0  0
 17 39  1  0  0  0  0
 18 40  1  0  0  0  0
 19 41  1  0  0  0  0
 19 18  1  0  0  0  0
 20 19  2  0  0  0  0
 21 20  1  0  0  0  0
 21 16  2  0  0  0  0
 22  1  1  0  0  0  0
 23 44  1  0  0  0  0
 23 22  2  0  0  0  0
 24 23  1  0  0  0  0
 25 24  2  0  0  0  0
 25 26  1  0  0  0  0
 26 27  2  0  0  0  0
 27 22  1  0  0  0  0
 27 48  1  0  0  0  0
 28  2  1  0  0  0  0
 29  2  1  0  0  0  0
 32  9  1  0  0  0  0
 33 10  1  0  0  0  0
 34 11  1  0  0  0  0
 37 14  1  0  0  0  0
 38 15  1  0  0  0  0
 42 20  1  0  0  0  0
 43 21  1  0  0  0  0
 45 24  1  0  0  0  0
 46 25  1  0  0  0  0
 47 26  1  0  0  0  0
M  END
