1,2
 OpenBabel05122313063D

 50 52  0  0  0  0  0  0  0  0999 V2000
    2.3524    0.2163    0.3452 S   0  0  0  0  0  0  0  0  0  0  0  0
   -1.0111    0.0510   -0.2356 P   0  0  0  0  0  0  0  0  0  0  0  0
   -0.1717    0.9825   -1.6269 C   0  0  0  0  0  0  0  0  0  0  0  0
    0.7662    2.0641   -1.1734 C   0  0  0  0  0  0  0  0  0  0  0  0
    0.5312    3.3964   -1.5734 C   0  0  0  0  0  0  0  0  0  0  0  0
    1.3611    4.4496   -1.1682 C   0  0  0  0  0  0  0  0  0  0  0  0
    2.4558    4.1923   -0.3310 C   0  0  0  0  0  0  0  0  0  0  0  0
    2.7098    2.8788    0.0832 C   0  0  0  0  0  0  0  0  0  0  0  0
    1.8854    1.8153   -0.3377 C   0  0  0  0  0  0  0  0  0  0  0  0
    3.2993   -0.7058   -1.0770 C   0  0  0  0  0  0  0  0  0  0  0  0
    2.4578   -1.8789   -1.5794 C   0  0  0  0  0  0  0  0  0  0  0  0
    4.5600   -1.2112   -0.3653 C   0  0  0  0  0  0  0  0  0  0  0  0
    3.6337    0.2849   -2.1881 C   0  0  0  0  0  0  0  0  0  0  0  0
   -2.1551   -1.0205   -1.1897 C   0  0  0  0  0  0  0  0  0  0  0  0
   -3.4253   -0.5638   -1.5906 C   0  0  0  0  0  0  0  0  0  0  0  0
   -4.2425   -1.3815   -2.3865 C   0  0  0  0  0  0  0  0  0  0  0  0
   -3.7953   -2.6509   -2.7849 C   0  0  0  0  0  0  0  0  0  0  0  0
   -2.5308   -3.1089   -2.3795 C   0  0  0  0  0  0  0  0  0  0  0  0
   -1.7125   -2.3013   -1.5781 C   0  0  0  0  0  0  0  0  0  0  0  0
   -2.0453    1.2841    0.6385 C   0  0  0  0  0  0  0  0  0  0  0  0
   -2.4933    2.4694    0.0181 C   0  0  0  0  0  0  0  0  0  0  0  0
   -3.2883    3.3796    0.7306 C   0  0  0  0  0  0  0  0  0  0  0  0
   -3.6422    3.1123    2.0623 C   0  0  0  0  0  0  0  0  0  0  0  0
   -3.2015    1.9310    2.6805 C   0  0  0  0  0  0  0  0  0  0  0  0
   -2.4034    1.0176    1.9774 C   0  0  0  0  0  0  0  0  0  0  0  0
   -0.9461    1.3882   -2.3071 H   0  0  0  0  0  0  0  0  0  0  0  0
    0.3548    0.1806   -2.1839 H   0  0  0  0  0  0  0  0  0  0  0  0
   -0.3269    3.6053   -2.2313 H   0  0  0  0  0  0  0  0  0  0  0  0
    1.1465    5.4749   -1.5047 H   0  0  0  0  0  0  0  0  0  0  0  0
    3.1109    5.0103    0.0032 H   0  0  0  0  0  0  0  0  0  0  0  0
    3.5576    2.6563    0.7483 H   0  0  0  0  0  0  0  0  0  0  0  0
    3.0507   -2.4469   -2.3278 H   0  0  0  0  0  0  0  0  0  0  0  0
    1.5228   -1.5465   -2.0711 H   0  0  0  0  0  0  0  0  0  0  0  0
    2.1981   -2.5614   -0.7460 H   0  0  0  0  0  0  0  0  0  0  0  0
    5.1560   -1.8232   -1.0749 H   0  0  0  0  0  0  0  0  0  0  0  0
    5.1904   -0.3707   -0.0137 H   0  0  0  0  0  0  0  0  0  0  0  0
    4.2834   -1.8382    0.5057 H   0  0  0  0  0  0  0  0  0  0  0  0
    4.2631   -0.2371   -2.9391 H   0  0  0  0  0  0  0  0  0  0  0  0
    2.7312    0.6627   -2.7065 H   0  0  0  0  0  0  0  0  0  0  0  0
    4.2062    1.1559   -1.8143 H   0  0  0  0  0  0  0  0  0  0  0  0
   -3.7853    0.4247   -1.2670 H   0  0  0  0  0  0  0  0  0  0  0  0
   -5.2389   -1.0257   -2.6897 H   0  0  0  0  0  0  0  0  0  0  0  0
   -4.4404   -3.2921   -3.4046 H   0  0  0  0  0  0  0  0  0  0  0  0
   -2.1848   -4.1111   -2.6739 H   0  0  0  0  0  0  0  0  0  0  0  0
   -0.7388   -2.6713   -1.2223 H   0  0  0  0  0  0  0  0  0  0  0  0
   -2.2272    2.6929   -1.0244 H   0  0  0  0  0  0  0  0  0  0  0  0
   -3.6305    4.3042    0.2413 H   0  0  0  0  0  0  0  0  0  0  0  0
   -4.2631    3.8294    2.6206 H   0  0  0  0  0  0  0  0  0  0  0  0
   -3.4776    1.7164    3.7238 H   0  0  0  0  0  0  0  0  0  0  0  0
   -2.0610    0.0813    2.4479 H   0  0  0  0  0  0  0  0  0  0  0  0
  2 20  1  0  0  0  0
  3  4  1  0  0  0  0
  3  2  1  0  0  0  0
  4  9  1  0  0  0  0
  5  4  2  0  0  0  0
  5  6  1  0  0  0  0
  6  7  2  0  0  0  0
  7 30  1  0  0  0  0
  7  8  1  0  0  0  0
  8 31  1  0  0  0  0
  9  8  2  0  0  0  0
  9  1  1  0  0  0  0
 10 12  1  0  0  0  0
 10  1  1  0  0  0  0
 11 10  1  0  0  0  0
 11 34  1  0  0  0  0
 12 36  1  0  0  0  0
 12 37  1  0  0  0  0
 13 40  1  0  0  0  0
 13 10  1  0  0  0  0
 14  2  1  0  0  0  0
 15 41  1  0  0  0  0
 15 14  2  0  0  0  0
 16 15  1  0  0  0  0
 17 16  2  0  0  0  0
 17 18  1  0  0  0  0
 18 19  2  0  0  0  0
 19 45  1  0  0  0  0
 19 14  1  0  0  0  0
 20 25  1  0  0  0  0
 21 20  2  0  0  0  0
 21 22  1  0  0  0  0
 22 23  2  0  0  0  0
 23 48  1  0  0  0  0
 23 24  1  0  0  0  0
 24 49  1  0  0  0  0
 25 50  1  0  0  0  0
 25 24  2  0  0  0  0
 26  3  1  0  0  0  0
 27  3  1  0  0  0  0
 28  5  1  0  0  0  0
 29  6  1  0  0  0  0
 32 11  1  0  0  0  0
 33 11  1  0  0  0  0
 35 12  1  0  0  0  0
 38 13  1  0  0  0  0
 39 13  1  0  0  0  0
 42 16  1  0  0  0  0
 43 17  1  0  0  0  0
 44 18  1  0  0  0  0
 46 21  1  0  0  0  0
 47 22  1  0  0  0  0
M  END
