1,12
 OpenBabel05122313063D

 34 35  0  0  1  0  0  0  0  0999 V2000
   -1.5075    0.3825    2.1048 S   0  0  0  0  0  1  0  0  0  0  0  0
    0.1634    0.5707    1.8008 C   0  0  2  0  0  3  0  0  0  0  0  0
    1.0451    1.1513    2.6246 N   0  0  0  0  0  0  0  0  0  0  0  0
    0.5955    1.7033    3.8997 C   0  0  0  0  0  0  0  0  0  0  0  0
    1.2806    2.5153    4.2076 H   0  0  0  0  0  0  0  0  0  0  0  0
    0.5798    0.9208    4.6881 H   0  0  0  0  0  0  0  0  0  0  0  0
   -0.4341    2.0979    3.7856 H   0  0  0  0  0  0  0  0  0  0  0  0
    2.4687    1.2539    2.3289 C   0  0  0  0  0  0  0  0  0  0  0  0
    3.0605    0.7670    3.1318 H   0  0  0  0  0  0  0  0  0  0  0  0
    2.7685    2.3206    2.2649 H   0  0  0  0  0  0  0  0  0  0  0  0
    2.6981    0.7691    1.3659 H   0  0  0  0  0  0  0  0  0  0  0  0
    0.3590   -0.0289    0.0470 P   0  0  0  0  0  0  0  0  0  0  0  0
    1.3963    1.1635   -0.8684 C   0  0  0  0  0  0  0  0  0  0  0  0
    2.7042    0.8604   -1.2967 C   0  0  0  0  0  0  0  0  0  0  0  0
    3.1397   -0.1276   -1.0810 H   0  0  0  0  0  0  0  0  0  0  0  0
    3.4393    1.8175   -2.0122 C   0  0  0  0  0  0  0  0  0  0  0  0
    4.4576    1.5792   -2.3547 H   0  0  0  0  0  0  0  0  0  0  0  0
    2.8738    3.0705   -2.2990 C   0  0  0  0  0  0  0  0  0  0  0  0
    3.4516    3.8168   -2.8650 H   0  0  0  0  0  0  0  0  0  0  0  0
    1.5647    3.3662   -1.8823 C   0  0  0  0  0  0  0  0  0  0  0  0
    1.1134    4.3395   -2.1264 H   0  0  0  0  0  0  0  0  0  0  0  0
    0.8183    2.4124   -1.1776 C   0  0  0  0  0  0  0  0  0  0  0  0
   -0.2231    2.6181   -0.8824 H   0  0  0  0  0  0  0  0  0  0  0  0
    1.2374   -1.6237    0.0754 C   0  0  0  0  0  0  0  0  0  0  0  0
    1.9864   -2.0988    1.1705 C   0  0  0  0  0  0  0  0  0  0  0  0
    2.0716   -1.5039    2.0915 H   0  0  0  0  0  0  0  0  0  0  0  0
    2.6084   -3.3544    1.0949 C   0  0  0  0  0  0  0  0  0  0  0  0
    3.1868   -3.7293    1.9527 H   0  0  0  0  0  0  0  0  0  0  0  0
    2.4872   -4.1311   -0.0681 C   0  0  0  0  0  0  0  0  0  0  0  0
    2.9770   -5.1151   -0.1236 H   0  0  0  0  0  0  0  0  0  0  0  0
    1.7259   -3.6631   -1.1526 C   0  0  0  0  0  0  0  0  0  0  0  0
    1.6097   -4.2822   -2.0548 H   0  0  0  0  0  0  0  0  0  0  0  0
    1.0885   -2.4170   -1.0850 C   0  0  0  0  0  0  0  0  0  0  0  0
    0.4419   -2.0571   -1.9050 H   0  0  0  0  0  0  0  0  0  0  0  0
  2  1  1  6  0  0  0
  2  3  1  0  0  0  0
  3  4  1  0  0  0  0
  4  5  1  0  0  0  0
  4  6  1  0  0  0  0
  7  4  1  0  0  0  0
  8  3  1  0  0  0  0
  8  9  1  0  0  0  0
 10  8  1  0  0  0  0
 11  8  1  0  0  0  0
 12 24  1  0  0  0  0
 12  2  1  0  0  0  0
 13 12  1  0  0  0  0
 14 15  1  0  0  0  0
 14 13  2  0  0  0  0
 16 14  1  0  0  0  0
 17 16  1  0  0  0  0
 18 16  2  0  0  0  0
 18 20  1  0  0  0  0
 19 18  1  0  0  0  0
 20 22  2  0  0  0  0
 21 20  1  0  0  0  0
 22 23  1  0  0  0  0
 22 13  1  0  0  0  0
 24 25  1  0  0  0  0
 25 26  1  0  0  0  0
 27 25  2  0  0  0  0
 27 28  1  0  0  0  0
 29 27  1  0  0  0  0
 30 29  1  0  0  0  0
 31 33  1  0  0  0  0
 31 29  2  0  0  0  0
 32 31  1  0  0  0  0
 33 24  2  0  0  0  0
 34 33  1  0  0  0  0
M  END
