1,2
 OpenBabel05122313063D

 55 57  0  0  0  0  0  0  0  0999 V2000
    0.5438    1.6194   -1.2626 S   0  0  0  0  0  1  0  0  0  0  0  0
   -0.5461   -0.5846    0.2761 P   0  0  0  0  0  0  0  0  0  0  0  0
    2.1764   -0.1662    0.1496 N   0  0  0  0  0  0  0  0  0  0  0  0
    1.0241    0.2400   -0.2369 C   0  0  0  0  0  0  0  0  0  0  0  0
   -0.4663   -2.3455   -0.3105 C   0  0  0  0  0  0  0  0  0  0  0  0
    0.6358   -3.1698    0.3807 C   0  0  0  0  0  0  0  0  0  0  0  0
    0.7012   -4.5953   -0.1872 C   0  0  0  0  0  0  0  0  0  0  0  0
    0.8704   -4.5928   -1.7112 C   0  0  0  0  0  0  0  0  0  0  0  0
   -0.2462   -3.7887   -2.3882 C   0  0  0  0  0  0  0  0  0  0  0  0
   -0.3125   -2.3557   -1.8445 C   0  0  0  0  0  0  0  0  0  0  0  0
   -0.5307   -0.5757    2.1291 C   0  0  0  0  0  0  0  0  0  0  0  0
   -1.7231   -1.3564    2.7093 C   0  0  0  0  0  0  0  0  0  0  0  0
   -1.7338   -1.2919    4.2438 C   0  0  0  0  0  0  0  0  0  0  0  0
   -1.7108    0.1559    4.7493 C   0  0  0  0  0  0  0  0  0  0  0  0
   -0.5170    0.9265    4.1718 C   0  0  0  0  0  0  0  0  0  0  0  0
   -0.5032    0.8776    2.6382 C   0  0  0  0  0  0  0  0  0  0  0  0
    3.3698    0.5635   -0.2552 C   0  0  0  0  0  0  0  0  0  0  0  0
    4.5582   -0.3998   -0.3853 C   0  0  0  0  0  0  0  0  0  0  0  0
    5.8550    0.3440   -0.7253 C   0  0  0  0  0  0  0  0  0  0  0  0
    6.1543    1.4465    0.2993 C   0  0  0  0  0  0  0  0  0  0  0  0
    4.9711    2.4139    0.4370 C   0  0  0  0  0  0  0  0  0  0  0  0
    3.6721    1.6721    0.7736 C   0  0  0  0  0  0  0  0  0  0  0  0
   -1.4641   -2.7746   -0.0571 H   0  0  0  0  0  0  0  0  0  0  0  0
    0.4602   -3.2074    1.4759 H   0  0  0  0  0  0  0  0  0  0  0  0
    1.6059   -2.6473    0.2375 H   0  0  0  0  0  0  0  0  0  0  0  0
   -0.2352   -5.1386    0.0745 H   0  0  0  0  0  0  0  0  0  0  0  0
    1.5304   -5.1517    0.2977 H   0  0  0  0  0  0  0  0  0  0  0  0
    1.8538   -4.1389   -1.9683 H   0  0  0  0  0  0  0  0  0  0  0  0
    0.8921   -5.6319   -2.1009 H   0  0  0  0  0  0  0  0  0  0  0  0
   -0.1014   -3.7652   -3.4884 H   0  0  0  0  0  0  0  0  0  0  0  0
   -1.2224   -4.2943   -2.2112 H   0  0  0  0  0  0  0  0  0  0  0  0
    0.6209   -1.8148   -2.1152 H   0  0  0  0  0  0  0  0  0  0  0  0
   -1.1458   -1.7916   -2.3140 H   0  0  0  0  0  0  0  0  0  0  0  0
    0.4247   -1.0705    2.4162 H   0  0  0  0  0  0  0  0  0  0  0  0
   -1.6996   -2.4142    2.3729 H   0  0  0  0  0  0  0  0  0  0  0  0
   -2.6674   -0.9196    2.3126 H   0  0  0  0  0  0  0  0  0  0  0  0
   -2.6211   -1.8308    4.6371 H   0  0  0  0  0  0  0  0  0  0  0  0
   -0.8412   -1.8307    4.6337 H   0  0  0  0  0  0  0  0  0  0  0  0
   -2.6541    0.6632    4.4454 H   0  0  0  0  0  0  0  0  0  0  0  0
   -1.6881    0.1770    5.8588 H   0  0  0  0  0  0  0  0  0  0  0  0
   -0.5307    1.9823    4.5135 H   0  0  0  0  0  0  0  0  0  0  0  0
    0.4285    0.4844    4.5587 H   0  0  0  0  0  0  0  0  0  0  0  0
   -1.3924    1.4161    2.2391 H   0  0  0  0  0  0  0  0  0  0  0  0
    0.3873    1.4034    2.2371 H   0  0  0  0  0  0  0  0  0  0  0  0
    3.2015    1.0622   -1.2430 H   0  0  0  0  0  0  0  0  0  0  0  0
    4.6672   -0.9402    0.5813 H   0  0  0  0  0  0  0  0  0  0  0  0
    4.3265   -1.1685   -1.1523 H   0  0  0  0  0  0  0  0  0  0  0  0
    5.7613    0.8018   -1.7360 H   0  0  0  0  0  0  0  0  0  0  0  0
    6.7017   -0.3715   -0.7868 H   0  0  0  0  0  0  0  0  0  0  0  0
    7.0757    1.9985    0.0180 H   0  0  0  0  0  0  0  0  0  0  0  0
    6.3589    0.9778    1.2885 H   0  0  0  0  0  0  0  0  0  0  0  0
    5.1822    3.1809    1.2117 H   0  0  0  0  0  0  0  0  0  0  0  0
    4.8367    2.9663   -0.5198 H   0  0  0  0  0  0  0  0  0  0  0  0
    3.7505    1.1975    1.7772 H   0  0  0  0  0  0  0  0  0  0  0  0
    2.8130    2.3739    0.8102 H   0  0  0  0  0  0  0  0  0  0  0  0
  1  4  1  0  0  0  0
  2 11  1  0  0  0  0
  4  3  2  0  0  0  0
  4  2  1  0  0  0  0
  5 23  1  0  0  0  0
  5  2  1  0  0  0  0
  5  6  1  0  0  0  0
  6 24  1  0  0  0  0
  7 26  1  0  0  0  0
  7 27  1  0  0  0  0
  7  6  1  0  0  0  0
  8  7  1  0  0  0  0
  9 31  1  0  0  0  0
  9 10  1  0  0  0  0
  9  8  1  0  0  0  0
 10  5  1  0  0  0  0
 11 34  1  0  0  0  0
 11 16  1  0  0  0  0
 11 12  1  0  0  0  0
 12 13  1  0  0  0  0
 13 38  1  0  0  0  0
 13 37  1  0  0  0  0
 13 14  1  0  0  0  0
 14 40  1  0  0  0  0
 15 41  1  0  0  0  0
 15 42  1  0  0  0  0
 15 14  1  0  0  0  0
 16 15  1  0  0  0  0
 17  3  1  0  0  0  0
 17 22  1  0  0  0  0
 18 17  1  0  0  0  0
 18 46  1  0  0  0  0
 19 18  1  0  0  0  0
 19 20  1  0  0  0  0
 20 21  1  0  0  0  0
 20 51  1  0  0  0  0
 21 22  1  0  0  0  0
 21 52  1  0  0  0  0
 22 55  1  0  0  0  0
 22 54  1  0  0  0  0
 25  6  1  0  0  0  0
 28  8  1  0  0  0  0
 29  8  1  0  0  0  0
 30  9  1  0  0  0  0
 32 10  1  0  0  0  0
 33 10  1  0  0  0  0
 35 12  1  0  0  0  0
 36 12  1  0  0  0  0
 39 14  1  0  0  0  0
 43 16  1  0  0  0  0
 44 16  1  0  0  0  0
 45 17  1  0  0  0  0
 47 18  1  0  0  0  0
 48 19  1  0  0  0  0
 49 19  1  0  0  0  0
 50 20  1  0  0  0  0
 53 21  1  0  0  0  0
M  END
