2,3
 OpenBabel05122313063D

 65 70  0  0  0  0  0  0  0  0999 V2000
   -0.7025   -1.3724   -0.7032 P   0  0  0  0  0  4  0  0  0  0  0  0
    0.8992    0.7171    0.5546 P   0  0  0  0  0  0  0  0  0  0  0  0
    0.0960   -0.9804   -2.5062 S   0  0  0  0  0  1  0  0  0  0  0  0
   -0.7296   -0.0148    0.3775 N   0  0  0  0  0  0  0  0  0  0  0  0
   -1.9660    0.4279    0.9551 C   0  0  0  0  0  0  0  0  0  0  0  0
   -2.2355    0.2010    2.3029 C   0  0  0  0  0  0  0  0  0  0  0  0
   -1.4825   -0.3088    2.9189 H   0  0  0  0  0  0  0  0  0  0  0  0
   -3.4661    0.6021    2.8799 C   0  0  0  0  0  0  0  0  0  0  0  0
   -3.6479    0.4137    3.9486 H   0  0  0  0  0  0  0  0  0  0  0  0
   -4.4397    1.2052    2.0994 C   0  0  0  0  0  0  0  0  0  0  0  0
   -5.4044    1.5036    2.5377 H   0  0  0  0  0  0  0  0  0  0  0  0
   -5.1996    2.0659   -0.1095 C   0  0  0  0  0  0  0  0  0  0  0  0
   -6.1603    2.3499    0.3474 H   0  0  0  0  0  0  0  0  0  0  0  0
   -4.9592    2.3109   -1.4525 C   0  0  0  0  0  0  0  0  0  0  0  0
   -5.7299    2.7924   -2.0731 H   0  0  0  0  0  0  0  0  0  0  0  0
   -3.7137    1.9466   -2.0288 C   0  0  0  0  0  0  0  0  0  0  0  0
   -3.5205    2.1501   -3.0928 H   0  0  0  0  0  0  0  0  0  0  0  0
   -2.7346    1.3337   -1.2606 C   0  0  0  0  0  0  0  0  0  0  0  0
   -1.7765    1.0471   -1.7211 H   0  0  0  0  0  0  0  0  0  0  0  0
   -2.9516    1.0668    0.1235 C   0  0  0  0  0  0  0  0  0  0  0  0
   -4.2116    1.4481    0.7137 C   0  0  0  0  0  0  0  0  0  0  0  0
    0.1666   -2.7209    0.1685 C   0  0  0  0  0  0  0  0  0  0  0  0
    0.8234   -3.7078   -0.5916 C   0  0  0  0  0  0  0  0  0  0  0  0
    0.8688   -3.5996   -1.6862 H   0  0  0  0  0  0  0  0  0  0  0  0
    1.4390   -4.7873    0.0542 C   0  0  0  0  0  0  0  0  0  0  0  0
    1.9700   -5.5455   -0.5400 H   0  0  0  0  0  0  0  0  0  0  0  0
    1.3923   -4.8921    1.4544 C   0  0  0  0  0  0  0  0  0  0  0  0
    1.8819   -5.7390    1.9587 H   0  0  0  0  0  0  0  0  0  0  0  0
    0.7341   -3.9109    2.2119 C   0  0  0  0  0  0  0  0  0  0  0  0
    0.7119   -3.9778    3.3098 H   0  0  0  0  0  0  0  0  0  0  0  0
    0.1226   -2.8227    1.5730 C   0  0  0  0  0  0  0  0  0  0  0  0
   -0.3626   -2.0373    2.1684 H   0  0  0  0  0  0  0  0  0  0  0  0
   -2.4441   -1.9119   -0.8334 C   0  0  0  0  0  0  0  0  0  0  0  0
   -3.1318   -1.7353   -2.0487 C   0  0  0  0  0  0  0  0  0  0  0  0
   -2.6023   -1.2987   -2.9090 H   0  0  0  0  0  0  0  0  0  0  0  0
   -4.4800   -2.1061   -2.1471 C   0  0  0  0  0  0  0  0  0  0  0  0
   -5.0156   -1.9636   -3.0974 H   0  0  0  0  0  0  0  0  0  0  0  0
   -5.1446   -2.6476   -1.0357 C   0  0  0  0  0  0  0  0  0  0  0  0
   -6.2058   -2.9291   -1.1127 H   0  0  0  0  0  0  0  0  0  0  0  0
   -4.4547   -2.8387    0.1726 C   0  0  0  0  0  0  0  0  0  0  0  0
   -4.9703   -3.2723    1.0424 H   0  0  0  0  0  0  0  0  0  0  0  0
   -3.1040   -2.4806    0.2753 C   0  0  0  0  0  0  0  0  0  0  0  0
   -2.5671   -2.6420    1.2205 H   0  0  0  0  0  0  0  0  0  0  0  0
    0.6346    2.5131    0.8595 C   0  0  0  0  0  0  0  0  0  0  0  0
    1.6315    3.1885    1.6007 C   0  0  0  0  0  0  0  0  0  0  0  0
    2.4561    2.6252    2.0612 H   0  0  0  0  0  0  0  0  0  0  0  0
    1.5884    4.5823    1.7391 C   0  0  0  0  0  0  0  0  0  0  0  0
    2.3758    5.0931    2.3135 H   0  0  0  0  0  0  0  0  0  0  0  0
    0.5520    5.3210    1.1463 C   0  0  0  0  0  0  0  0  0  0  0  0
    0.5176    6.4152    1.2596 H   0  0  0  0  0  0  0  0  0  0  0  0
   -0.4297    4.6569    0.3970 C   0  0  0  0  0  0  0  0  0  0  0  0
   -1.2394    5.2243   -0.0861 H   0  0  0  0  0  0  0  0  0  0  0  0
   -0.3838    3.2636    0.2426 C   0  0  0  0  0  0  0  0  0  0  0  0
   -1.1425    2.7727   -0.3757 H   0  0  0  0  0  0  0  0  0  0  0  0
    1.4697    0.1684    2.2287 C   0  0  0  0  0  0  0  0  0  0  0  0
    0.8868    0.6711    3.4135 C   0  0  0  0  0  0  0  0  0  0  0  0
    0.1154    1.4532    3.3566 H   0  0  0  0  0  0  0  0  0  0  0  0
    1.3053    0.1944    4.6636 C   0  0  0  0  0  0  0  0  0  0  0  0
    0.8456    0.5918    5.5815 H   0  0  0  0  0  0  0  0  0  0  0  0
    2.3206   -0.7750    4.7455 C   0  0  0  0  0  0  0  0  0  0  0  0
    2.6529   -1.1421    5.7287 H   0  0  0  0  0  0  0  0  0  0  0  0
    2.9210   -1.2577    3.5733 C   0  0  0  0  0  0  0  0  0  0  0  0
    3.7259   -2.0059    3.6281 H   0  0  0  0  0  0  0  0  0  0  0  0
    2.4968   -0.7878    2.3206 C   0  0  0  0  0  0  0  0  0  0  0  0
    2.9627   -1.1679    1.4022 H   0  0  0  0  0  0  0  0  0  0  0  0
  1 22  1  0  0  0  0
  1  4  1  0  0  0  0
  2 44  1  0  0  0  0
  2 55  1  0  0  0  0
  3  1  1  0  0  0  0
  4  2  1  0  0  0  0
  4  5  1  0  0  0  0
  5  6  1  0  0  0  0
  6  8  2  0  0  0  0
  6  7  1  0  0  0  0
  8  9  1  0  0  0  0
 10 11  1  0  0  0  0
 10  8  1  0  0  0  0
 12 13  1  0  0  0  0
 12 21  1  0  0  0  0
 14 12  2  0  0  0  0
 15 14  1  0  0  0  0
 16 14  1  0  0  0  0
 16 18  2  0  0  0  0
 17 16  1  0  0  0  0
 18 20  1  0  0  0  0
 19 18  1  0  0  0  0
 20 21  1  0  0  0  0
 20  5  2  0  0  0  0
 21 10  2  0  0  0  0
 22 31  1  0  0  0  0
 23 25  1  0  0  0  0
 23 22  2  0  0  0  0
 24 23  1  0  0  0  0
 25 27  2  0  0  0  0
 26 25  1  0  0  0  0
 27 28  1  0  0  0  0
 27 29  1  0  0  0  0
 29 30  1  0  0  0  0
 31 32  1  0  0  0  0
 31 29  2  0  0  0  0
 33  1  1  0  0  0  0
 33 42  1  0  0  0  0
 34 33  2  0  0  0  0
 35 34  1  0  0  0  0
 36 34  1  0  0  0  0
 36 38  2  0  0  0  0
 37 36  1  0  0  0  0
 38 40  1  0  0  0  0
 39 38  1  0  0  0  0
 40 42  2  0  0  0  0
 40 41  1  0  0  0  0
 42 43  1  0  0  0  0
 44 45  1  0  0  0  0
 45 47  2  0  0  0  0
 45 46  1  0  0  0  0
 47 48  1  0  0  0  0
 49 50  1  0  0  0  0
 49 47  1  0  0  0  0
 51 49  2  0  0  0  0
 52 51  1  0  0  0  0
 53 51  1  0  0  0  0
 53 44  2  0  0  0  0
 54 53  1  0  0  0  0
 55 64  2  0  0  0  0
 55 56  1  0  0  0  0
 56 58  2  0  0  0  0
 57 56  1  0  0  0  0
 58 60  1  0  0  0  0
 58 59  1  0  0  0  0
 60 61  1  0  0  0  0
 62 63  1  0  0  0  0
 62 60  2  0  0  0  0
 64 62  1  0  0  0  0
 65 64  1  0  0  0  0
M  END
