1,2
 OpenBabel05122313063D

 37 38  0  0  0  0  0  0  0  0999 V2000
   -2.7841   -0.0100    1.2456 S   0  0  0  0  0  0  0  0  0  0  0  0
    0.6342    0.0996    0.5062 P   0  0  0  0  0  0  0  0  0  0  0  0
   -2.0030    0.6014    2.7972 C   0  0  0  0  0  0  0  0  0  0  0  0
   -2.7893    1.2099    3.2897 H   0  0  0  0  0  0  0  0  0  0  0  0
   -1.8744   -0.3178    3.4058 H   0  0  0  0  0  0  0  0  0  0  0  0
   -0.6884    1.3730    2.7038 C   0  0  0  0  0  0  0  0  0  0  0  0
   -0.4962    1.8108    3.7073 H   0  0  0  0  0  0  0  0  0  0  0  0
   -0.7936    2.2397    2.0163 H   0  0  0  0  0  0  0  0  0  0  0  0
    0.5189    0.5127    2.3102 C   0  0  0  0  0  0  0  0  0  0  0  0
    0.4961   -0.4658    2.8345 H   0  0  0  0  0  0  0  0  0  0  0  0
    1.4734    0.9940    2.6061 H   0  0  0  0  0  0  0  0  0  0  0  0
   -3.4027    1.5554    0.5419 C   0  0  0  0  0  0  0  0  0  0  0  0
   -4.1619    1.9852    1.2242 H   0  0  0  0  0  0  0  0  0  0  0  0
   -3.8614    1.2493   -0.4173 H   0  0  0  0  0  0  0  0  0  0  0  0
   -2.5777    2.2684    0.3554 H   0  0  0  0  0  0  0  0  0  0  0  0
    1.1430    1.6775   -0.2963 C   0  0  0  0  0  0  0  0  0  0  0  0
    1.0601    1.7634   -1.7039 C   0  0  0  0  0  0  0  0  0  0  0  0
    0.6954    0.8918   -2.2733 H   0  0  0  0  0  0  0  0  0  0  0  0
    1.4472    2.9411   -2.3580 C   0  0  0  0  0  0  0  0  0  0  0  0
    1.3813    2.9955   -3.4551 H   0  0  0  0  0  0  0  0  0  0  0  0
    1.9088    4.0452   -1.6230 C   0  0  0  0  0  0  0  0  0  0  0  0
    2.2050    4.9703   -2.1406 H   0  0  0  0  0  0  0  0  0  0  0  0
    1.9894    3.9666   -0.2246 C   0  0  0  0  0  0  0  0  0  0  0  0
    2.3508    4.8270    0.3590 H   0  0  0  0  0  0  0  0  0  0  0  0
    1.6108    2.7884    0.4383 C   0  0  0  0  0  0  0  0  0  0  0  0
    1.6901    2.7489    1.5344 H   0  0  0  0  0  0  0  0  0  0  0  0
    2.1104   -0.9863    0.4792 C   0  0  0  0  0  0  0  0  0  0  0  0
    3.4098   -0.4434    0.4757 C   0  0  0  0  0  0  0  0  0  0  0  0
    3.5534    0.6461    0.4086 H   0  0  0  0  0  0  0  0  0  0  0  0
    4.5225   -1.2963    0.5390 C   0  0  0  0  0  0  0  0  0  0  0  0
    5.5374   -0.8706    0.5276 H   0  0  0  0  0  0  0  0  0  0  0  0
    4.3411   -2.6865    0.6072 C   0  0  0  0  0  0  0  0  0  0  0  0
    5.2154   -3.3536    0.6513 H   0  0  0  0  0  0  0  0  0  0  0  0
    3.0446   -3.2273    0.6053 C   0  0  0  0  0  0  0  0  0  0  0  0
    2.9003   -4.3175    0.6416 H   0  0  0  0  0  0  0  0  0  0  0  0
    1.9285   -2.3824    0.5344 C   0  0  0  0  0  0  0  0  0  0  0  0
    0.9110   -2.7998    0.4932 H   0  0  0  0  0  0  0  0  0  0  0  0
  1  3  1  0  0  0  0
  2  9  1  0  0  0  0
  3  4  1  0  0  0  0
  3  5  1  0  0  0  0
  6  3  1  0  0  0  0
  6  7  1  0  0  0  0
  8  6  1  0  0  0  0
  9 11  1  0  0  0  0
  9  6  1  0  0  0  0
  9 10  1  0  0  0  0
 12 13  1  0  0  0  0
 12  1  1  0  0  0  0
 14 12  1  0  0  0  0
 15 12  1  0  0  0  0
 16 25  1  0  0  0  0
 16  2  1  0  0  0  0
 17 16  2  0  0  0  0
 18 17  1  0  0  0  0
 19 17  1  0  0  0  0
 19 21  2  0  0  0  0
 20 19  1  0  0  0  0
 21 23  1  0  0  0  0
 22 21  1  0  0  0  0
 23 24  1  0  0  0  0
 23 25  2  0  0  0  0
 25 26  1  0  0  0  0
 27  2  1  0  0  0  0
 27 36  1  0  0  0  0
 28 27  2  0  0  0  0
 28 30  1  0  0  0  0
 29 28  1  0  0  0  0
 30 32  2  0  0  0  0
 31 30  1  0  0  0  0
 32 33  1  0  0  0  0
 34 32  1  0  0  0  0
 34 35  1  0  0  0  0
 36 34  2  0  0  0  0
 37 36  1  0  0  0  0
M  END
