1,3
 OpenBabel05122313063D

 53 57  0  0  1  0  0  0  0  0999 V2000
    1.2790    0.1816   -0.1225 P   0  0  1  0  0  0  0  0  0  0  0  0
   -2.0421   -0.0753   -0.1951 P   0  0  2  0  0  4  0  0  0  0  0  0
   -1.3215   -1.2149   -1.7129 S   0  0  0  0  0  1  0  0  0  0  0  0
    1.1227    1.1423    1.4979 C   0  0  1  0  0  0  0  0  0  0  0  0
    1.6750    0.7126    2.3511 H   0  0  0  0  0  0  0  0  0  0  0  0
    1.5608    2.5272    1.0474 C   0  0  0  0  0  0  0  0  0  0  0  0
    1.0295    2.8164   -0.1764 C   0  0  0  0  0  0  0  0  0  0  0  0
    0.2118    1.6377   -0.6884 C   0  0  2  0  0  0  0  0  0  0  0  0
   -0.0639    1.6640   -1.7580 H   0  0  0  0  0  0  0  0  0  0  0  0
   -1.0047    1.4219    0.2494 C   0  0  2  0  0  0  0  0  0  0  0  0
   -1.6779    2.3016    0.2211 H   0  0  0  0  0  0  0  0  0  0  0  0
   -0.4481    1.1547    1.6986 C   0  0  1  0  0  0  0  0  0  0  0  0
   -1.0028   -0.1785    2.2157 C   0  0  0  0  0  0  0  0  0  0  0  0
   -1.9132   -0.8175    1.4323 C   0  0  0  0  0  0  0  0  0  0  0  0
   -2.3507   -1.8013    1.6558 H   0  0  0  0  0  0  0  0  0  0  0  0
    2.4750    3.3548    1.8898 C   0  0  0  0  0  0  0  0  0  0  0  0
    2.6807    4.3460    1.4426 H   0  0  0  0  0  0  0  0  0  0  0  0
    3.4481    2.8330    2.0223 H   0  0  0  0  0  0  0  0  0  0  0  0
    2.0611    3.5129    2.9088 H   0  0  0  0  0  0  0  0  0  0  0  0
    1.1938    4.0492   -1.0031 C   0  0  0  0  0  0  0  0  0  0  0  0
    1.7893    4.8257   -0.4866 H   0  0  0  0  0  0  0  0  0  0  0  0
    0.2108    4.4920   -1.2733 H   0  0  0  0  0  0  0  0  0  0  0  0
    1.7064    3.8095   -1.9605 H   0  0  0  0  0  0  0  0  0  0  0  0
   -0.8698    2.2754    2.6689 C   0  0  0  0  0  0  0  0  0  0  0  0
   -1.9733    2.2965    2.7760 H   0  0  0  0  0  0  0  0  0  0  0  0
   -0.5370    3.2615    2.2916 H   0  0  0  0  0  0  0  0  0  0  0  0
   -0.4328    2.1233    3.6756 H   0  0  0  0  0  0  0  0  0  0  0  0
   -0.4434   -0.7776    3.4631 C   0  0  0  0  0  0  0  0  0  0  0  0
   -1.1211   -1.5367    3.8956 H   0  0  0  0  0  0  0  0  0  0  0  0
   -0.1918   -0.0240    4.2348 H   0  0  0  0  0  0  0  0  0  0  0  0
    0.4977   -1.3069    3.1707 H   0  0  0  0  0  0  0  0  0  0  0  0
    2.9433    0.4825   -0.8051 C   0  0  0  0  0  0  0  0  0  0  0  0
    4.0945    0.1941   -0.0438 C   0  0  0  0  0  0  0  0  0  0  0  0
    3.9839   -0.2236    0.9672 H   0  0  0  0  0  0  0  0  0  0  0  0
    5.3651    0.4012   -0.6001 C   0  0  0  0  0  0  0  0  0  0  0  0
    6.2616    0.1764   -0.0027 H   0  0  0  0  0  0  0  0  0  0  0  0
    5.4962    0.8784   -1.9142 C   0  0  0  0  0  0  0  0  0  0  0  0
    6.4959    1.0344   -2.3470 H   0  0  0  0  0  0  0  0  0  0  0  0
    4.3500    1.1422   -2.6810 C   0  0  0  0  0  0  0  0  0  0  0  0
    4.4475    1.5015   -3.7167 H   0  0  0  0  0  0  0  0  0  0  0  0
    3.0754    0.9427   -2.1313 C   0  0  0  0  0  0  0  0  0  0  0  0
    2.1806    1.1382   -2.7421 H   0  0  0  0  0  0  0  0  0  0  0  0
   -3.7380    0.4895   -0.5497 C   0  0  0  0  0  0  0  0  0  0  0  0
   -4.2742    0.3891   -1.8469 C   0  0  0  0  0  0  0  0  0  0  0  0
   -3.6737   -0.0663   -2.6499 H   0  0  0  0  0  0  0  0  0  0  0  0
   -5.5721    0.8571   -2.0995 C   0  0  0  0  0  0  0  0  0  0  0  0
   -5.9935    0.7756   -3.1126 H   0  0  0  0  0  0  0  0  0  0  0  0
   -6.3333    1.4199   -1.0624 C   0  0  0  0  0  0  0  0  0  0  0  0
   -7.3529    1.7819   -1.2635 H   0  0  0  0  0  0  0  0  0  0  0  0
   -5.8000    1.5139    0.2339 C   0  0  0  0  0  0  0  0  0  0  0  0
   -6.4007    1.9448    1.0490 H   0  0  0  0  0  0  0  0  0  0  0  0
   -4.5034    1.0486    0.4944 C   0  0  0  0  0  0  0  0  0  0  0  0
   -4.0869    1.1043    1.5129 H   0  0  0  0  0  0  0  0  0  0  0  0
  1 32  1  6  0  0  0
  1  4  1  0  0  0  0
  2  3  1  6  0  0  0
  2 10  1  0  0  0  0
  2 14  1  0  0  0  0
  4 12  1  0  0  0  0
  4  5  1  1  0  0  0
  6  4  1  0  0  0  0
  6 16  1  0  0  0  0
  7  6  2  0  0  0  0
  8  9  1  6  0  0  0
  8  7  1  0  0  0  0
  8  1  1  0  0  0  0
  8 10  1  0  0  0  0
 10 11  1  1  0  0  0
 10 12  1  0  0  0  0
 12 13  1  0  0  0  0
 12 24  1  1  0  0  0
 13 28  1  0  0  0  0
 14 15  1  0  0  0  0
 14 13  2  0  0  0  0
 16 18  1  0  0  0  0
 16 19  1  0  0  0  0
 17 16  1  0  0  0  0
 20 21  1  0  0  0  0
 20  7  1  0  0  0  0
 22 20  1  0  0  0  0
 23 20  1  0  0  0  0
 24 25  1  0  0  0  0
 24 27  1  0  0  0  0
 26 24  1  0  0  0  0
 28 29  1  0  0  0  0
 28 30  1  0  0  0  0
 31 28  1  0  0  0  0
 32 33  1  0  0  0  0
 33 34  1  0  0  0  0
 35 33  2  0  0  0  0
 35 36  1  0  0  0  0
 37 35  1  0  0  0  0
 38 37  1  0  0  0  0
 39 41  1  0  0  0  0
 39 37  2  0  0  0  0
 40 39  1  0  0  0  0
 41 32  2  0  0  0  0
 42 41  1  0  0  0  0
 43  2  1  0  0  0  0
 43 52  1  0  0  0  0
 44 43  2  0  0  0  0
 45 44  1  0  0  0  0
 46 44  1  0  0  0  0
 46 48  2  0  0  0  0
 47 46  1  0  0  0  0
 48 50  1  0  0  0  0
 49 48  1  0  0  0  0
 50 52  2  0  0  0  0
 50 51  1  0  0  0  0
 52 53  1  0  0  0  0
M  END
