7,13,15
 OpenBabel05122313063D

 25 25  0  0  0  0  0  0  0  0999 V2000
    2.7967    0.2008   -1.7940 S   0  0  0  0  0  0  0  0  0  0  0  0
    4.1475    1.3675    0.2286 F   0  0  0  0  0  0  0  0  0  0  0  0
    5.0023    1.7525   -1.7443 F   0  0  0  0  0  0  0  0  0  0  0  0
    5.2672   -0.2000   -0.8056 F   0  0  0  0  0  0  0  0  0  0  0  0
    3.2500   -0.2755   -3.1133 O   0  0  0  0  0  0  0  0  0  0  0  0
    1.9396    1.4223   -1.6853 O   0  0  0  0  0  0  0  0  0  0  0  0
    2.2195   -0.9654   -0.8455 N   0  0  0  0  0  2  0  0  0  0  0  0
    4.4078    0.8245   -0.9909 C   0  0  0  0  0  0  0  0  0  0  0  0
    2.7552   -2.3241   -1.0833 C   0  0  0  0  0  0  0  0  0  0  0  0
    3.5440   -2.8108    0.1532 C   0  0  0  0  0  0  0  0  0  0  0  0
    2.7499   -2.4160    1.3802 C   0  0  0  0  0  3  0  0  0  0  0  0
    3.1713   -1.3026    2.1872 C   0  0  0  0  0  3  0  0  0  0  0  0
    2.2121   -0.6717    3.0432 C   0  0  0  0  0  3  0  0  0  0  0  0
    0.8781   -1.1811    3.2054 C   0  0  0  0  0  3  0  0  0  0  0  0
    0.5002   -2.3097    2.4213 C   0  0  0  0  0  3  0  0  0  0  0  0
    1.4332   -2.9623    1.5535 C   0  0  0  0  0  3  0  0  0  0  0  0
    1.8797   -2.9817   -1.2595 H   0  0  0  0  0  0  0  0  0  0  0  0
    3.3808   -2.3426   -1.9975 H   0  0  0  0  0  0  0  0  0  0  0  0
    3.6792   -3.9109    0.1052 H   0  0  0  0  0  0  0  0  0  0  0  0
    4.5446   -2.3404    0.1874 H   0  0  0  0  0  0  0  0  0  0  0  0
    4.1643   -0.8563    2.0397 H   0  0  0  0  0  0  0  0  0  0  0  0
    2.4944    0.2634    3.5551 H   0  0  0  0  0  0  0  0  0  0  0  0
    0.1501   -0.6677    3.8489 H   0  0  0  0  0  0  0  0  0  0  0  0
   -0.5498   -2.6374    2.4132 H   0  0  0  0  0  0  0  0  0  0  0  0
    1.0740   -3.7532    0.8846 H   0  0  0  0  0  0  0  0  0  0  0  0
  1  6  2  0  0  0  0
  1  8  1  0  0  0  0
  1  7  1  0  0  0  0
  3  8  1  0  0  0  0
  5  1  2  0  0  0  0
  8  4  1  0  0  0  0
  8  2  1  0  0  0  0
  9  7  1  0  0  0  0
  9 10  1  0  0  0  0
 10 20  1  0  0  0  0
 10 11  1  0  0  0  0
 11 16  1  0  0  0  0
 11 12  1  0  0  0  0
 12 13  1  0  0  0  0
 13 14  1  0  0  0  0
 13 22  1  0  0  0  0
 14 23  1  0  0  0  0
 15 14  1  0  0  0  0
 16 15  1  0  0  0  0
 17  9  1  0  0  0  0
 18  9  1  0  0  0  0
 19 10  1  0  0  0  0
 21 12  1  0  0  0  0
 24 15  1  0  0  0  0
 25 16  1  0  0  0  0
M  END
