1,10,12,15
 OpenBabel05122313063D

 49 51  0  0  1  0  0  0  0  0999 V2000
    0.2306   -0.2005   -0.5270 N   0  0  0  0  0  2  0  0  0  0  0  0
    0.8808   -0.9336   -0.8213 H   0  0  0  0  0  0  0  0  0  0  0  0
   -0.1626    1.7905    0.6482 N   0  0  0  0  0  0  0  0  0  0  0  0
    1.9743    1.2693    0.4106 N   0  0  0  0  0  0  0  0  0  0  0  0
    0.6976    0.8463    0.1109 C   0  0  1  0  0  3  0  0  0  0  0  0
    0.5750    2.8025    1.2694 C   0  0  0  0  0  0  0  0  0  0  0  0
    0.0940    3.6551    1.7555 H   0  0  0  0  0  0  0  0  0  0  0  0
    1.8958    2.4796    1.1277 C   0  0  0  0  0  0  0  0  0  0  0  0
    2.7988    2.9862    1.4776 H   0  0  0  0  0  0  0  0  0  0  0  0
   -1.5696    1.4964    0.5465 C   0  0  2  0  0  3  0  0  0  0  0  0
   -2.1908    0.7267    1.6013 C   0  0  1  0  0  3  0  0  0  0  0  0
   -3.3779   -0.0167    1.2287 C   0  0  0  0  0  3  0  0  0  0  0  0
   -3.7526   -0.7633    1.9461 H   0  0  0  0  0  0  0  0  0  0  0  0
   -3.9836    0.0528   -0.0626 C   0  0  1  0  0  3  0  0  0  0  0  0
   -3.3542    0.9114   -1.0396 C   0  0  0  0  0  3  0  0  0  0  0  0
   -3.7216    0.8806   -2.0771 H   0  0  0  0  0  0  0  0  0  0  0  0
   -2.1816    1.6784   -0.7715 C   0  0  2  0  0  3  0  0  0  0  0  0
   -1.5507    0.4906    2.9390 C   0  0  0  0  0  0  0  0  0  0  0  0
   -2.2083    0.8427    3.7601 H   0  0  0  0  0  0  0  0  0  0  0  0
   -0.5770    1.0069    3.0276 H   0  0  0  0  0  0  0  0  0  0  0  0
   -1.3757   -0.6002    3.0625 H   0  0  0  0  0  0  0  0  0  0  0  0
   -5.1377   -0.8251   -0.4556 C   0  0  0  0  0  0  0  0  0  0  0  0
   -5.2996   -1.6224    0.2941 H   0  0  0  0  0  0  0  0  0  0  0  0
   -4.9232   -1.3122   -1.4283 H   0  0  0  0  0  0  0  0  0  0  0  0
   -6.0761   -0.2394   -0.5525 H   0  0  0  0  0  0  0  0  0  0  0  0
   -1.4993    2.4843   -1.8413 C   0  0  0  0  0  0  0  0  0  0  0  0
   -0.4452    2.1687   -1.9774 H   0  0  0  0  0  0  0  0  0  0  0  0
   -1.5004    3.5653   -1.5881 H   0  0  0  0  0  0  0  0  0  0  0  0
   -2.0141    2.3527   -2.8108 H   0  0  0  0  0  0  0  0  0  0  0  0
    3.1388    0.4716    0.1690 C   0  0  0  0  0  0  0  0  0  0  0  0
    4.0412    0.8630   -0.8456 C   0  0  0  0  0  0  0  0  0  0  0  0
    5.1662    0.0517   -1.0695 C   0  0  0  0  0  0  0  0  0  0  0  0
    5.8811    0.3420   -1.8560 H   0  0  0  0  0  0  0  0  0  0  0  0
    5.3927   -1.1248   -0.3296 C   0  0  0  0  0  0  0  0  0  0  0  0
    4.4644   -1.4795    0.6669 C   0  0  0  0  0  0  0  0  0  0  0  0
    4.6308   -2.3939    1.2585 H   0  0  0  0  0  0  0  0  0  0  0  0
    3.3264   -0.6998    0.9425 C   0  0  0  0  0  0  0  0  0  0  0  0
    3.7876    2.1018   -1.6659 C   0  0  0  0  0  0  0  0  0  0  0  0
    2.7596    2.1032   -2.0832 H   0  0  0  0  0  0  0  0  0  0  0  0
    4.5029    2.1755   -2.5063 H   0  0  0  0  0  0  0  0  0  0  0  0
    3.8818    3.0275   -1.0602 H   0  0  0  0  0  0  0  0  0  0  0  0
    6.5823   -2.0037   -0.6221 C   0  0  0  0  0  0  0  0  0  0  0  0
    6.9370   -2.5270    0.2874 H   0  0  0  0  0  0  0  0  0  0  0  0
    7.4269   -1.4242   -1.0431 H   0  0  0  0  0  0  0  0  0  0  0  0
    6.3188   -2.7865   -1.3656 H   0  0  0  0  0  0  0  0  0  0  0  0
    2.3425   -1.1001    2.0103 C   0  0  0  0  0  0  0  0  0  0  0  0
    1.4022   -1.5170    1.5811 H   0  0  0  0  0  0  0  0  0  0  0  0
    2.0429   -0.2324    2.6328 H   0  0  0  0  0  0  0  0  0  0  0  0
    2.7746   -1.8714    2.6750 H   0  0  0  0  0  0  0  0  0  0  0  0
  2  1  1  0  0  0  0
  3  6  1  0  0  0  0
  4  8  1  0  0  0  0
  5  1  1  1  0  0  0
  5  4  1  0  0  0  0
  5  3  1  0  0  0  0
  6  7  1  0  0  0  0
  8  6  2  0  0  0  0
  8  9  1  0  0  0  0
 10  3  1  6  0  0  0
 10 11  1  0  0  0  0
 11 18  1  6  0  0  0
 12 11  1  0  0  0  0
 12 13  1  0  0  0  0
 14 22  1  6  0  0  0
 14 12  1  0  0  0  0
 15 17  1  0  0  0  0
 15 14  1  0  0  0  0
 16 15  1  0  0  0  0
 17 26  1  6  0  0  0
 17 10  1  0  0  0  0
 18 20  1  0  0  0  0
 18 21  1  0  0  0  0
 18 19  1  0  0  0  0
 22 23  1  0  0  0  0
 24 22  1  0  0  0  0
 25 22  1  0  0  0  0
 26 28  1  0  0  0  0
 27 26  1  0  0  0  0
 29 26  1  0  0  0  0
 30  4  1  0  0  0  0
 30 37  1  0  0  0  0
 31 30  2  0  0  0  0
 32 31  1  0  0  0  0
 32 34  2  0  0  0  0
 33 32  1  0  0  0  0
 34 35  1  0  0  0  0
 35 37  2  0  0  0  0
 35 36  1  0  0  0  0
 37 46  1  0  0  0  0
 38 41  1  0  0  0  0
 38 31  1  0  0  0  0
 39 38  1  0  0  0  0
 40 38  1  0  0  0  0
 42 34  1  0  0  0  0
 42 43  1  0  0  0  0
 44 42  1  0  0  0  0
 45 42  1  0  0  0  0
 46 48  1  0  0  0  0
 46 49  1  0  0  0  0
 47 46  1  0  0  0  0
M  END
