1,13,26
 OpenBabel05122313063D

 70 74  0  0  1  0  0  0  0  0999 V2000
    0.1158   -0.5602   -1.0338 O   0  5  0  0  0  0  0  0  0  0  0  0
   -1.0294   -0.9067   -0.6580 C   0  0  0  0  0  0  0  0  0  0  0  0
   -2.2599   -0.1264   -0.6140 C   0  0  0  0  0  0  0  0  0  0  0  0
   -3.2167   -0.8978    0.0475 C   0  0  2  0  0  3  0  0  0  0  0  0
   -2.5903   -2.1492    0.6364 C   0  0  0  0  0  0  0  0  0  0  0  0
   -3.2580   -3.0314    0.5701 H   0  0  0  0  0  0  0  0  0  0  0  0
   -2.3653   -1.9899    1.7153 H   0  0  0  0  0  0  0  0  0  0  0  0
   -1.2637   -2.3106   -0.1573 C   0  0  1  0  0  0  0  0  0  0  0  0
   -1.4984   -3.1990   -1.4052 C   0  0  0  0  0  0  0  0  0  0  0  0
   -2.4084   -2.8798   -1.9503 H   0  0  0  0  0  0  0  0  0  0  0  0
   -1.6218   -4.2559   -1.0946 H   0  0  0  0  0  0  0  0  0  0  0  0
   -0.6247   -3.1389   -2.0826 H   0  0  0  0  0  0  0  0  0  0  0  0
   -0.0388   -2.7988    0.5956 C   0  0  0  0  0  3  0  0  0  0  0  0
    0.0237   -3.8997    0.6362 H   0  0  0  0  0  0  0  0  0  0  0  0
    0.6951   -2.1259    1.6019 C   0  0  2  0  0  3  0  0  0  0  0  0
    1.3983   -2.9571    2.6545 C   0  0  0  0  0  0  0  0  0  0  0  0
    2.3115   -2.4656    3.0416 H   0  0  0  0  0  0  0  0  0  0  0  0
    1.6912   -3.9505    2.2646 H   0  0  0  0  0  0  0  0  0  0  0  0
    0.7097   -3.1101    3.5161 H   0  0  0  0  0  0  0  0  0  0  0  0
    0.4669   -0.6720    1.9906 C   0  0  0  0  0  0  0  0  0  0  0  0
   -0.5301   -0.3283    1.6347 H   0  0  0  0  0  0  0  0  0  0  0  0
    0.4138   -0.5539    3.0969 H   0  0  0  0  0  0  0  0  0  0  0  0
    1.4900    0.2919    1.4336 C   0  0  1  0  0  3  0  0  0  0  0  0
    2.5885   -0.1357    0.7112 C   0  0  2  0  0  3  0  0  0  0  0  0
    4.0707   -2.0264    1.2541 O   0  0  0  0  0  0  0  0  0  0  0  0
    3.0712   -1.6287    0.7010 C   0  0  0  0  0  3  0  0  0  0  0  0
   -2.3326    1.2615   -1.1082 C   0  0  0  0  0  0  0  0  0  0  0  0
   -3.0924    2.2431   -0.4271 C   0  0  0  0  0  0  0  0  0  0  0  0
   -3.6744    1.9570    0.4610 H   0  0  0  0  0  0  0  0  0  0  0  0
   -3.0917    3.5743   -0.8584 C   0  0  0  0  0  0  0  0  0  0  0  0
   -3.6859    4.3236   -0.3132 H   0  0  0  0  0  0  0  0  0  0  0  0
   -2.3282    3.9565   -1.9751 C   0  0  0  0  0  0  0  0  0  0  0  0
   -2.3242    5.0047   -2.3100 H   0  0  0  0  0  0  0  0  0  0  0  0
   -1.5637    2.9954   -2.6531 C   0  0  0  0  0  0  0  0  0  0  0  0
   -0.9567    3.2867   -3.5236 H   0  0  0  0  0  0  0  0  0  0  0  0
   -1.5609    1.6604   -2.2241 C   0  0  0  0  0  0  0  0  0  0  0  0
   -0.9459    0.9167   -2.7488 H   0  0  0  0  0  0  0  0  0  0  0  0
   -4.6502   -0.6394    0.1879 C   0  0  0  0  0  0  0  0  0  0  0  0
   -5.3801    0.0611   -0.8074 C   0  0  0  0  0  0  0  0  0  0  0  0
   -4.8550    0.4324   -1.6985 H   0  0  0  0  0  0  0  0  0  0  0  0
   -6.7577    0.2580   -0.6766 C   0  0  0  0  0  0  0  0  0  0  0  0
   -7.3076    0.7932   -1.4654 H   0  0  0  0  0  0  0  0  0  0  0  0
   -7.4418   -0.2304    0.4511 C   0  0  0  0  0  0  0  0  0  0  0  0
   -8.5254   -0.0687    0.5533 H   0  0  0  0  0  0  0  0  0  0  0  0
   -6.7372   -0.9346    1.4403 C   0  0  0  0  0  0  0  0  0  0  0  0
   -7.2659   -1.3243    2.3232 H   0  0  0  0  0  0  0  0  0  0  0  0
   -5.3596   -1.1475    1.3055 C   0  0  0  0  0  0  0  0  0  0  0  0
   -4.8171   -1.6981    2.0883 H   0  0  0  0  0  0  0  0  0  0  0  0
    1.2318    1.7326    1.6892 C   0  0  0  0  0  0  0  0  0  0  0  0
    2.2645    2.5688    2.1752 C   0  0  0  0  0  0  0  0  0  0  0  0
    3.2621    2.1425    2.3520 H   0  0  0  0  0  0  0  0  0  0  0  0
    2.0249    3.9231    2.4337 C   0  0  0  0  0  0  0  0  0  0  0  0
    2.8399    4.5547    2.8184 H   0  0  0  0  0  0  0  0  0  0  0  0
    0.7548    4.4766    2.1984 C   0  0  0  0  0  0  0  0  0  0  0  0
    0.5726    5.5450    2.3898 H   0  0  0  0  0  0  0  0  0  0  0  0
   -0.2782    3.6585    1.7169 C   0  0  0  0  0  0  0  0  0  0  0  0
   -1.2745    4.0785    1.5121 H   0  0  0  0  0  0  0  0  0  0  0  0
   -0.0454    2.2970    1.4793 C   0  0  0  0  0  0  0  0  0  0  0  0
   -0.8593    1.6783    1.0778 H   0  0  0  0  0  0  0  0  0  0  0  0
    3.4897    0.8073   -0.0093 C   0  0  0  0  0  0  0  0  0  0  0  0
    4.8853    0.7843    0.1971 C   0  0  0  0  0  0  0  0  0  0  0  0
    5.3072    0.0558    0.9045 H   0  0  0  0  0  0  0  0  0  0  0  0
    5.7168    1.6774   -0.4951 C   0  0  0  0  0  0  0  0  0  0  0  0
    6.8034    1.6548   -0.3205 H   0  0  0  0  0  0  0  0  0  0  0  0
    5.1702    2.5924   -1.4082 C   0  0  0  0  0  0  0  0  0  0  0  0
    5.8257    3.2899   -1.9518 H   0  0  0  0  0  0  0  0  0  0  0  0
    3.7833    2.6047   -1.6350 C   0  0  0  0  0  0  0  0  0  0  0  0
    3.3487    3.3084   -2.3614 H   0  0  0  0  0  0  0  0  0  0  0  0
    2.9484    1.7187   -0.9448 C   0  0  0  0  0  0  0  0  0  0  0  0
    1.8637    1.7122   -1.1285 H   0  0  0  0  0  0  0  0  0  0  0  0
  1  2  1  0  0  0  0
  2  3  2  0  0  0  0
  2  8  1  0  0  0  0
  3  4  1  0  0  0  0
  4 38  1  6  0  0  0
  4  5  1  0  0  0  0
  5  7  1  0  0  0  0
  6  5  1  0  0  0  0
  8 13  1  1  0  0  0
  8  5  1  0  0  0  0
  9 11  1  0  0  0  0
  9  8  1  0  0  0  0
 10  9  1  0  0  0  0
 12  9  1  0  0  0  0
 13 14  1  0  0  0  0
 15 13  1  1  0  0  0
 15 20  1  0  0  0  0
 15 16  1  0  0  0  0
 16 17  1  0  0  0  0
 16 19  1  0  0  0  0
 18 16  1  0  0  0  0
 20 22  1  0  0  0  0
 21 20  1  0  0  0  0
 23 49  1  0  0  0  0
 23 20  1  6  0  0  0
 24 26  1  1  0  0  0
 24 23  1  0  0  0  0
 26 25  2  0  0  0  0
 27  3  1  0  0  0  0
 27 28  1  0  0  0  0
 28 29  1  0  0  0  0
 30 28  2  0  0  0  0
 30 31  1  0  0  0  0
 32 30  1  0  0  0  0
 33 32  1  0  0  0  0
 34 36  1  0  0  0  0
 34 32  2  0  0  0  0
 35 34  1  0  0  0  0
 36 27  2  0  0  0  0
 37 36  1  0  0  0  0
 38 47  1  0  0  0  0
 39 41  1  0  0  0  0
 39 38  2  0  0  0  0
 40 39  1  0  0  0  0
 41 43  2  0  0  0  0
 42 41  1  0  0  0  0
 43 44  1  0  0  0  0
 43 45  1  0  0  0  0
 45 46  1  0  0  0  0
 47 45  2  0  0  0  0
 47 48  1  0  0  0  0
 49 50  1  0  0  0  0
 50 51  1  0  0  0  0
 50 52  2  0  0  0  0
 52 53  1  0  0  0  0
 54 55  1  0  0  0  0
 54 52  1  0  0  0  0
 56 54  2  0  0  0  0
 57 56  1  0  0  0  0
 58 49  2  0  0  0  0
 58 56  1  0  0  0  0
 59 58  1  0  0  0  0
 60 61  1  0  0  0  0
 60 24  1  0  0  0  0
 61 62  1  0  0  0  0
 63 64  1  0  0  0  0
 63 61  2  0  0  0  0
 65 63  1  0  0  0  0
 66 65  1  0  0  0  0
 67 65  2  0  0  0  0
 67 69  1  0  0  0  0
 68 67  1  0  0  0  0
 69 60  2  0  0  0  0
 70 69  1  0  0  0  0
M  CHG  1   1  -1
M  END
