1,6,13
 OpenBabel05122313063D

 52 54  0  0  1  0  0  0  0  0999 V2000
    0.1592    1.7390   -0.6081 O   0  5  0  0  0  0  0  0  0  0  0  0
   -2.4555   -1.6664   -1.1954 C   0  0  0  0  0  0  0  0  0  0  0  0
   -2.9634   -0.4221   -1.7164 C   0  0  0  0  0  0  0  0  0  0  0  0
   -1.9063    0.1938   -2.4772 C   0  0  0  0  0  0  0  0  0  0  0  0
   -0.7545   -0.6445   -2.4100 C   0  0  0  0  0  0  0  0  0  0  0  0
   -1.0781   -1.7747   -1.5729 C   0  0  1  0  0  3  0  0  0  0  0  0
   -3.2720   -2.7551   -0.5634 C   0  0  0  0  0  0  0  0  0  0  0  0
   -4.3967    0.0299   -1.7137 C   0  0  0  0  0  0  0  0  0  0  0  0
   -1.9836    1.4905   -3.2296 C   0  0  0  0  0  0  0  0  0  0  0  0
    0.5344   -0.3861   -3.1315 C   0  0  0  0  0  0  0  0  0  0  0  0
   -0.0723   -2.7988   -1.1031 C   0  0  0  0  0  0  0  0  0  0  0  0
    1.0797   -2.1242   -0.3512 C   0  0  2  0  0  3  0  0  0  0  0  0
    0.8998   -0.7739   -0.0755 C   0  0  0  0  0  2  0  0  0  0  0  0
    1.8798    0.2737    0.0745 C   0  0  0  0  0  0  0  0  0  0  0  0
    1.4469    1.5573   -0.2551 C   0  0  0  0  0  0  0  0  0  0  0  0
    2.3121    2.7536   -0.3182 C   0  0  0  0  0  0  0  0  0  0  0  0
    3.6368    2.7594    0.1821 C   0  0  0  0  0  0  0  0  0  0  0  0
    4.4266    3.9117    0.1047 C   0  0  0  0  0  0  0  0  0  0  0  0
    3.9141    5.0888   -0.4693 C   0  0  0  0  0  0  0  0  0  0  0  0
    2.5999    5.0992   -0.9633 C   0  0  0  0  0  0  0  0  0  0  0  0
    1.8067    3.9470   -0.8866 C   0  0  0  0  0  0  0  0  0  0  0  0
    2.3062   -2.9029   -0.1054 C   0  0  0  0  0  0  0  0  0  0  0  0
    3.2301   -2.5147    0.9042 C   0  0  0  0  0  0  0  0  0  0  0  0
    4.3984   -3.2426    1.1502 C   0  0  0  0  0  0  0  0  0  0  0  0
    4.6882   -4.4001    0.4067 C   0  0  0  0  0  0  0  0  0  0  0  0
    3.7803   -4.8200   -0.5776 C   0  0  0  0  0  0  0  0  0  0  0  0
    2.6096   -4.0908   -0.8245 C   0  0  0  0  0  0  0  0  0  0  0  0
   -3.7297   -3.3877   -1.3550 H   0  0  0  0  0  0  0  0  0  0  0  0
   -2.6614   -3.4229    0.0714 H   0  0  0  0  0  0  0  0  0  0  0  0
   -4.1030   -2.3663    0.0540 H   0  0  0  0  0  0  0  0  0  0  0  0
   -4.8699   -0.1579   -2.7022 H   0  0  0  0  0  0  0  0  0  0  0  0
   -4.9978   -0.5060   -0.9570 H   0  0  0  0  0  0  0  0  0  0  0  0
   -4.5012    1.1161   -1.5126 H   0  0  0  0  0  0  0  0  0  0  0  0
   -2.0696    1.3147   -4.3239 H   0  0  0  0  0  0  0  0  0  0  0  0
   -2.8611    2.0947   -2.9265 H   0  0  0  0  0  0  0  0  0  0  0  0
   -1.0730    2.1029   -3.0674 H   0  0  0  0  0  0  0  0  0  0  0  0
    0.3715   -0.4111   -4.2302 H   0  0  0  0  0  0  0  0  0  0  0  0
    0.9492    0.6114   -2.8808 H   0  0  0  0  0  0  0  0  0  0  0  0
    1.3040   -1.1364   -2.8752 H   0  0  0  0  0  0  0  0  0  0  0  0
    0.3329   -3.3403   -1.9870 H   0  0  0  0  0  0  0  0  0  0  0  0
   -0.5683   -3.5872   -0.4943 H   0  0  0  0  0  0  0  0  0  0  0  0
    2.9575    0.0921    0.2200 H   0  0  0  0  0  0  0  0  0  0  0  0
    4.0474    1.8520    0.6482 H   0  0  0  0  0  0  0  0  0  0  0  0
    5.4532    3.8949    0.5019 H   0  0  0  0  0  0  0  0  0  0  0  0
    4.5368    5.9945   -0.5259 H   0  0  0  0  0  0  0  0  0  0  0  0
    2.1883    6.0164   -1.4126 H   0  0  0  0  0  0  0  0  0  0  0  0
    0.7759    3.9434   -1.2684 H   0  0  0  0  0  0  0  0  0  0  0  0
    2.9991   -1.6384    1.5242 H   0  0  0  0  0  0  0  0  0  0  0  0
    5.0868   -2.9110    1.9432 H   0  0  0  0  0  0  0  0  0  0  0  0
    5.6056   -4.9754    0.6027 H   0  0  0  0  0  0  0  0  0  0  0  0
    3.9846   -5.7300   -1.1630 H   0  0  0  0  0  0  0  0  0  0  0  0
    1.9229   -4.4480   -1.6050 H   0  0  0  0  0  0  0  0  0  0  0  0
  1 15  1  0  0  0  0
  2  7  1  0  0  0  0
  3  8  1  0  0  0  0
  3  2  2  0  0  0  0
  4  5  2  0  0  0  0
  4  3  1  0  0  0  0
  5  6  1  0  0  0  0
  6  2  1  0  0  0  0
  6 11  1  1  0  0  0
  7 30  1  0  0  0  0
  7 29  1  0  0  0  0
  8 33  1  0  0  0  0
  8 32  1  0  0  0  0
  9 36  1  0  0  0  0
  9 35  1  0  0  0  0
  9  4  1  0  0  0  0
 10 38  1  0  0  0  0
 10 39  1  0  0  0  0
 10  5  1  0  0  0  0
 11 41  1  0  0  0  0
 11 12  1  0  0  0  0
 12 22  1  0  0  0  0
 12 13  1  6  0  0  0
 13 14  1  0  0  0  0
 14 42  1  0  0  0  0
 15 14  2  0  0  0  0
 16 15  1  0  0  0  0
 16 17  1  0  0  0  0
 17 43  1  0  0  0  0
 18 17  2  0  0  0  0
 18 44  1  0  0  0  0
 19 18  1  0  0  0  0
 20 21  1  0  0  0  0
 20 19  2  0  0  0  0
 21 16  2  0  0  0  0
 22 23  1  0  0  0  0
 23 24  2  0  0  0  0
 23 48  1  0  0  0  0
 24 49  1  0  0  0  0
 25 50  1  0  0  0  0
 25 24  1  0  0  0  0
 26 25  2  0  0  0  0
 27 26  1  0  0  0  0
 27 22  2  0  0  0  0
 28  7  1  0  0  0  0
 31  8  1  0  0  0  0
 34  9  1  0  0  0  0
 37 10  1  0  0  0  0
 40 11  1  0  0  0  0
 45 19  1  0  0  0  0
 46 20  1  0  0  0  0
 47 21  1  0  0  0  0
 51 26  1  0  0  0  0
 52 27  1  0  0  0  0
M  CHG  1   1  -1
M  END
