1,2,5
 OpenBabel05122313063D

 19 19  0  0  1  0  0  0  0  0999 V2000
    0.6834   -1.4686   -0.3056 O   0  0  0  0  0  1  0  0  0  0  0  0
    0.4134    1.7195   -0.9361 C   0  0  0  0  0  3  0  0  0  0  0  0
   -0.7800    2.1265   -0.2624 C   0  0  0  0  0  0  0  0  0  0  0  0
   -0.6136    1.8527    1.1186 C   0  0  0  0  0  0  0  0  0  0  0  0
    0.6785    1.2710    1.3005 C   0  0  0  0  0  3  0  0  0  0  0  0
    1.3318    1.2073    0.0289 C   0  0  1  0  0  3  0  0  0  0  0  0
    2.7114    0.6725   -0.2467 C   0  0  0  0  0  0  0  0  0  0  0  0
    2.9439   -0.7617    0.2568 C   0  0  0  0  0  0  0  0  0  0  0  0
    2.0451   -1.7825   -0.4363 C   0  0  0  0  0  0  0  0  0  0  0  0
    0.5797    1.7493   -2.0201 H   0  0  0  0  0  0  0  0  0  0  0  0
   -1.6840    2.5179   -0.7426 H   0  0  0  0  0  0  0  0  0  0  0  0
   -1.3662    1.9942    1.9022 H   0  0  0  0  0  0  0  0  0  0  0  0
    1.0804    0.9024    2.2524 H   0  0  0  0  0  0  0  0  0  0  0  0
    3.4529    1.3479    0.2311 H   0  0  0  0  0  0  0  0  0  0  0  0
    2.9053    0.7211   -1.3388 H   0  0  0  0  0  0  0  0  0  0  0  0
    4.0016   -1.0522    0.0865 H   0  0  0  0  0  0  0  0  0  0  0  0
    2.7747   -0.8122    1.3540 H   0  0  0  0  0  0  0  0  0  0  0  0
    2.2937   -1.8411   -1.5222 H   0  0  0  0  0  0  0  0  0  0  0  0
    2.2107   -2.7961   -0.0068 H   0  0  0  0  0  0  0  0  0  0  0  0
  2  3  1  0  0  0  0
  2  6  1  0  0  0  0
  3  4  2  0  0  0  0
  4  5  1  0  0  0  0
  4 12  1  0  0  0  0
  5 13  1  0  0  0  0
  6  7  1  6  0  0  0
  6  5  1  0  0  0  0
  7 14  1  0  0  0  0
  7  8  1  0  0  0  0
  8 17  1  0  0  0  0
  9  1  1  0  0  0  0
  9 19  1  0  0  0  0
  9  8  1  0  0  0  0
 10  2  1  0  0  0  0
 11  3  1  0  0  0  0
 15  7  1  0  0  0  0
 16  8  1  0  0  0  0
 18  9  1  0  0  0  0
M  END
