1,2,11,26
 OpenBabel05122313063D

 53 54  0  0  1  0  0  0  0  0999 V2000
   -1.4124    1.9008    1.1899 S   0  0  0  0  0  0  0  0  0  0  0  0
    1.4054    1.9029   -1.1904 S   0  0  0  0  0  0  0  0  0  0  0  0
   -2.6390   -0.8315   -0.3260 N   0  0  1  0  0  0  0  0  0  0  0  0
   -3.0090   -1.7389    0.7686 C   0  0  0  0  0  0  0  0  0  0  0  0
   -3.9388   -2.3078    0.5258 H   0  0  0  0  0  0  0  0  0  0  0  0
   -3.2359   -1.1390    1.6696 H   0  0  0  0  0  0  0  0  0  0  0  0
   -1.8956   -2.7378    1.1354 C   0  0  0  0  0  0  0  0  0  0  0  0
   -2.2985   -3.4502    1.8871 H   0  0  0  0  0  0  0  0  0  0  0  0
   -1.6256   -3.3519    0.2484 H   0  0  0  0  0  0  0  0  0  0  0  0
   -0.6861   -2.1092    1.6631 C   0  0  0  0  0  2  0  0  0  0  0  0
    0.3243   -1.5865    2.1338 C   0  0  0  0  0  2  0  0  0  0  0  0
    1.6160   -1.1024    2.6213 C   0  0  0  0  0  0  0  0  0  0  0  0
    1.8381   -1.5547    3.6121 H   0  0  0  0  0  0  0  0  0  0  0  0
    1.5824   -0.0039    2.7896 H   0  0  0  0  0  0  0  0  0  0  0  0
    2.7536   -1.4686    1.6457 C   0  0  0  0  0  0  0  0  0  0  0  0
    3.7340   -1.2301    2.1213 H   0  0  0  0  0  0  0  0  0  0  0  0
    2.7364   -2.5671    1.5072 H   0  0  0  0  0  0  0  0  0  0  0  0
    2.6424   -0.8242    0.3263 N   0  0  2  0  0  0  0  0  0  0  0  0
    3.0150   -1.7321   -0.7671 C   0  0  0  0  0  0  0  0  0  0  0  0
    3.9464   -2.2981   -0.5235 H   0  0  0  0  0  0  0  0  0  0  0  0
    3.2403   -1.1328   -1.6688 H   0  0  0  0  0  0  0  0  0  0  0  0
    1.9044   -2.7346   -1.1325 C   0  0  0  0  0  0  0  0  0  0  0  0
    2.3094   -3.4471   -1.8831 H   0  0  0  0  0  0  0  0  0  0  0  0
    1.6361   -3.3483   -0.2446 H   0  0  0  0  0  0  0  0  0  0  0  0
    0.6932   -2.1103   -1.6611 C   0  0  0  0  0  2  0  0  0  0  0  0
   -0.3187   -1.5909   -2.1323 C   0  0  0  0  0  2  0  0  0  0  0  0
   -1.6117   -1.1108   -2.6205 C   0  0  0  0  0  0  0  0  0  0  0  0
   -1.8326   -1.5651   -3.6107 H   0  0  0  0  0  0  0  0  0  0  0  0
   -1.5808   -0.0124   -2.7905 H   0  0  0  0  0  0  0  0  0  0  0  0
   -2.7484   -1.4783   -1.6445 C   0  0  0  0  0  0  0  0  0  0  0  0
   -3.7293   -1.2431   -2.1205 H   0  0  0  0  0  0  0  0  0  0  0  0
   -2.7283   -2.5766   -1.5042 H   0  0  0  0  0  0  0  0  0  0  0  0
   -3.3773    0.4347   -0.2972 C   0  0  0  0  0  0  0  0  0  0  0  0
   -4.4829    0.2570   -0.3493 H   0  0  0  0  0  0  0  0  0  0  0  0
   -3.1167    0.9993   -1.2163 H   0  0  0  0  0  0  0  0  0  0  0  0
   -3.1252    1.3218    0.9228 C   0  0  0  0  0  0  0  0  0  0  0  0
   -3.3922    0.8113    1.8690 H   0  0  0  0  0  0  0  0  0  0  0  0
   -3.7759    2.2179    0.8628 H   0  0  0  0  0  0  0  0  0  0  0  0
   -1.2913    3.1730   -0.1331 C   0  0  0  0  0  0  0  0  0  0  0  0
   -1.3341    2.6703   -1.1216 H   0  0  0  0  0  0  0  0  0  0  0  0
   -2.1758    3.8360   -0.0465 H   0  0  0  0  0  0  0  0  0  0  0  0
   -0.0054    3.9922   -0.0007 C   0  0  0  0  0  0  0  0  0  0  0  0
    0.0612    4.6548   -0.8889 H   0  0  0  0  0  0  0  0  0  0  0  0
   -0.0733    4.6550    0.8872 H   0  0  0  0  0  0  0  0  0  0  0  0
    1.2821    3.1756    0.1319 C   0  0  0  0  0  0  0  0  0  0  0  0
    1.3260    2.6735    1.1207 H   0  0  0  0  0  0  0  0  0  0  0  0
    2.1653    3.8402    0.0448 H   0  0  0  0  0  0  0  0  0  0  0  0
    3.1202    1.3291   -0.9254 C   0  0  0  0  0  0  0  0  0  0  0  0
    3.3871    0.8180   -1.8714 H   0  0  0  0  0  0  0  0  0  0  0  0
    3.7684    2.2271   -0.8676 H   0  0  0  0  0  0  0  0  0  0  0  0
    3.3767    0.4442    0.2953 C   0  0  0  0  0  0  0  0  0  0  0  0
    4.4829    0.2701    0.3463 H   0  0  0  0  0  0  0  0  0  0  0  0
    3.1154    1.0090    1.2141 H   0  0  0  0  0  0  0  0  0  0  0  0
  2 48  1  0  0  0  0
  2 45  1  0  0  0  0
  3 30  1  6  0  0  0
  3 33  1  0  0  0  0
  3  4  1  0  0  0  0
  4  7  1  0  0  0  0
  4  6  1  0  0  0  0
  5  4  1  0  0  0  0
  7 10  1  0  0  0  0
  7  8  1  0  0  0  0
  9  7  1  0  0  0  0
 10 11  1  0  0  0  0
 11 12  1  0  0  0  0
 12 14  1  0  0  0  0
 12 13  1  0  0  0  0
 15 16  1  0  0  0  0
 15 12  1  0  0  0  0
 17 15  1  0  0  0  0
 18 19  1  6  0  0  0
 18 15  1  0  0  0  0
 19 20  1  0  0  0  0
 21 19  1  0  0  0  0
 22 19  1  0  0  0  0
 22 24  1  0  0  0  0
 23 22  1  0  0  0  0
 25 22  1  0  0  0  0
 26 25  1  0  0  0  0
 27 26  1  0  0  0  0
 27 30  1  0  0  0  0
 28 27  1  0  0  0  0
 29 27  1  0  0  0  0
 30 32  1  0  0  0  0
 31 30  1  0  0  0  0
 33 36  1  0  0  0  0
 34 33  1  0  0  0  0
 35 33  1  0  0  0  0
 36  1  1  0  0  0  0
 36 37  1  0  0  0  0
 38 36  1  0  0  0  0
 39 41  1  0  0  0  0
 39 42  1  0  0  0  0
 39  1  1  0  0  0  0
 40 39  1  0  0  0  0
 42 45  1  0  0  0  0
 42 44  1  0  0  0  0
 43 42  1  0  0  0  0
 45 46  1  0  0  0  0
 47 45  1  0  0  0  0
 48 50  1  0  0  0  0
 48 51  1  0  0  0  0
 49 48  1  0  0  0  0
 51 18  1  0  0  0  0
 51 52  1  0  0  0  0
 51 53  1  0  0  0  0
M  END
