3,5
 OpenBabel05122313053D

 10  9  0  0  0  0  0  0  0  0999 V2000
   -4.3110    1.2953   -0.4197 O   0  5  0  0  0  0  0  0  0  0  0  0
   -3.3618   -0.7525   -0.2683 O   0  0  0  0  0  0  0  0  0  0  0  0
   -2.0840    1.1048   -0.1000 O   0  0  0  0  0  0  0  0  0  0  0  0
   -3.3146    0.6225   -0.2714 C   0  0  0  0  0  0  0  0  0  0  0  0
   -2.0999   -1.3685    0.0204 C   0  0  0  0  0  3  0  0  0  0  0  0
   -2.1438   -1.9686    1.4179 C   0  0  0  0  0  0  0  0  0  0  0  0
   -1.9428   -2.1449   -0.7657 H   0  0  0  0  0  0  0  0  0  0  0  0
   -1.2148   -2.5204    1.6676 H   0  0  0  0  0  0  0  0  0  0  0  0
   -3.0012   -2.6717    1.5154 H   0  0  0  0  0  0  0  0  0  0  0  0
   -2.2823   -1.1747    2.1798 H   0  0  0  0  0  0  0  0  0  0  0  0
  1  4  1  0  0  0  0
  2  5  1  0  0  0  0
  4  2  1  0  0  0  0
  4  3  2  0  0  0  0
  5  6  1  0  0  0  0
  6  9  1  0  0  0  0
  6  8  1  0  0  0  0
  6 10  1  0  0  0  0
  7  5  1  0  0  0  0
M  CHG  1   1  -1
M  END
