1,16
 OpenBabel05122313053D

 62 64  0  0  1  0  0  0  0  0999 V2000
   -0.0312    1.3175    0.0575 O   0  5  0  0  0  0  0  0  0  0  0  0
   -1.2017    0.6335    0.0653 C   0  0  0  0  0  0  0  0  0  0  0  0
   -1.0932   -0.7682    0.2391 C   0  0  0  0  0  0  0  0  0  0  0  0
   -2.2388   -1.5751    0.2536 C   0  0  0  0  0  0  0  0  0  0  0  0
   -3.5123   -1.0000    0.0847 C   0  0  0  0  0  0  0  0  0  0  0  0
   -3.5838    0.4017   -0.0821 C   0  0  0  0  0  0  0  0  0  0  0  0
   -2.4669    1.2581   -0.0920 C   0  0  0  0  0  0  0  0  0  0  0  0
    0.3063   -1.2203    0.4181 C   0  0  0  0  0  0  0  0  0  0  0  0
    0.9801   -1.2664    1.6753 C   0  0  0  0  0  0  0  0  0  0  0  0
    2.3918   -1.3601    1.4430 C   0  0  0  0  0  0  0  0  0  0  0  0
    2.5987   -1.4834    0.0143 C   0  0  0  0  0  0  0  0  0  0  0  0
    3.7839   -1.6556   -0.7813 C   0  0  0  0  0  0  0  0  0  0  0  0
    3.6126   -1.6843   -2.1626 C   0  0  0  0  0  0  0  0  0  0  0  0
    2.3441   -1.5359   -2.7847 C   0  0  0  0  0  0  0  0  0  0  0  0
    1.1687   -1.3702   -2.0574 C   0  0  0  0  0  0  0  0  0  0  0  0
    1.2954   -1.3777   -0.6285 C   0  0  2  0  0  3  0  0  0  0  0  0
   -4.8077   -1.8317    0.0793 C   0  0  0  0  0  0  0  0  0  0  0  0
   -5.7298   -1.3522    1.2235 C   0  0  0  0  0  0  0  0  0  0  0  0
   -5.5278   -1.6450   -1.2757 C   0  0  0  0  0  0  0  0  0  0  0  0
   -4.5308   -3.3318    0.2775 C   0  0  0  0  0  0  0  0  0  0  0  0
   -2.5899    2.7839   -0.2374 C   0  0  0  0  0  0  0  0  0  0  0  0
   -4.0541    3.2308   -0.3904 C   0  0  0  0  0  0  0  0  0  0  0  0
   -2.0049    3.4586    1.0266 C   0  0  0  0  0  0  0  0  0  0  0  0
   -1.8106    3.2502   -1.4892 C   0  0  0  0  0  0  0  0  0  0  0  0
    0.3254   -1.1083    3.0128 C   0  0  0  0  0  0  0  0  0  0  0  0
    3.4155   -1.4420    2.5376 C   0  0  0  0  0  0  0  0  0  0  0  0
    5.1497   -1.8192   -0.1703 C   0  0  0  0  0  0  0  0  0  0  0  0
   -0.1643   -1.2149   -2.7353 C   0  0  0  0  0  0  0  0  0  0  0  0
   -2.1148   -2.6571    0.3937 H   0  0  0  0  0  0  0  0  0  0  0  0
   -4.5766    0.8545   -0.2047 H   0  0  0  0  0  0  0  0  0  0  0  0
    4.4990   -1.8318   -2.7999 H   0  0  0  0  0  0  0  0  0  0  0  0
    2.2866   -1.5601   -3.8844 H   0  0  0  0  0  0  0  0  0  0  0  0
   -5.9973   -0.2824    1.1150 H   0  0  0  0  0  0  0  0  0  0  0  0
   -5.2350   -1.4772    2.2079 H   0  0  0  0  0  0  0  0  0  0  0  0
   -6.6736   -1.9361    1.2342 H   0  0  0  0  0  0  0  0  0  0  0  0
   -4.8855   -1.9837   -2.1140 H   0  0  0  0  0  0  0  0  0  0  0  0
   -5.7889   -0.5839   -1.4595 H   0  0  0  0  0  0  0  0  0  0  0  0
   -6.4687   -2.2333   -1.3016 H   0  0  0  0  0  0  0  0  0  0  0  0
   -5.4852   -3.8958    0.2671 H   0  0  0  0  0  0  0  0  0  0  0  0
   -4.0340   -3.5342    1.2478 H   0  0  0  0  0  0  0  0  0  0  0  0
   -3.8914   -3.7431   -0.5295 H   0  0  0  0  0  0  0  0  0  0  0  0
   -4.5287    2.7993   -1.2952 H   0  0  0  0  0  0  0  0  0  0  0  0
   -4.0948    4.3343   -0.4871 H   0  0  0  0  0  0  0  0  0  0  0  0
   -4.6680    2.9518    0.4898 H   0  0  0  0  0  0  0  0  0  0  0  0
   -2.5765    3.1592    1.9286 H   0  0  0  0  0  0  0  0  0  0  0  0
   -2.0661    4.5629    0.9335 H   0  0  0  0  0  0  0  0  0  0  0  0
   -0.9449    3.1815    1.1807 H   0  0  0  0  0  0  0  0  0  0  0  0
   -0.7354    3.0090   -1.4002 H   0  0  0  0  0  0  0  0  0  0  0  0
   -1.9088    4.3486   -1.6138 H   0  0  0  0  0  0  0  0  0  0  0  0
   -2.2072    2.7650   -2.4047 H   0  0  0  0  0  0  0  0  0  0  0  0
   -0.7539   -0.8927    2.8970 H   0  0  0  0  0  0  0  0  0  0  0  0
    0.7870   -0.2766    3.5836 H   0  0  0  0  0  0  0  0  0  0  0  0
    0.4274   -2.0323    3.6195 H   0  0  0  0  0  0  0  0  0  0  0  0
    3.0136   -1.0182    3.4765 H   0  0  0  0  0  0  0  0  0  0  0  0
    4.3369   -0.8804    2.3013 H   0  0  0  0  0  0  0  0  0  0  0  0
    3.7035   -2.4969    2.7361 H   0  0  0  0  0  0  0  0  0  0  0  0
    5.9027   -2.0465   -0.9492 H   0  0  0  0  0  0  0  0  0  0  0  0
    5.1738   -2.6360    0.5788 H   0  0  0  0  0  0  0  0  0  0  0  0
    5.4800   -0.8975    0.3528 H   0  0  0  0  0  0  0  0  0  0  0  0
   -0.0635   -1.3201   -3.8326 H   0  0  0  0  0  0  0  0  0  0  0  0
   -0.6173   -0.2243   -2.5223 H   0  0  0  0  0  0  0  0  0  0  0  0
   -0.8978   -1.9631   -2.3731 H   0  0  0  0  0  0  0  0  0  0  0  0
  1  2  1  0  0  0  0
  2  3  1  0  0  0  0
  3  4  2  0  0  0  0
  3  8  1  0  0  0  0
  4 29  1  0  0  0  0
  5  4  1  0  0  0  0
  6  5  2  0  0  0  0
  7  6  1  0  0  0  0
  7  2  2  0  0  0  0
  8  9  2  0  0  0  0
  9 25  1  0  0  0  0
 10  9  1  0  0  0  0
 10 26  1  0  0  0  0
 11 10  2  0  0  0  0
 12 27  1  0  0  0  0
 12 11  1  0  0  0  0
 13 12  2  0  0  0  0
 14 13  1  0  0  0  0
 14 15  2  0  0  0  0
 16 15  1  6  0  0  0
 16 11  1  0  0  0  0
 16  8  1  0  0  0  0
 17  5  1  0  0  0  0
 17 20  1  0  0  0  0
 17 18  1  0  0  0  0
 18 35  1  0  0  0  0
 18 34  1  0  0  0  0
 19 17  1  0  0  0  0
 20 40  1  0  0  0  0
 21  7  1  0  0  0  0
 21 23  1  0  0  0  0
 22 21  1  0  0  0  0
 22 44  1  0  0  0  0
 23 47  1  0  0  0  0
 23 45  1  0  0  0  0
 24 48  1  0  0  0  0
 24 21  1  0  0  0  0
 25 52  1  0  0  0  0
 25 53  1  0  0  0  0
 26 56  1  0  0  0  0
 26 54  1  0  0  0  0
 27 59  1  0  0  0  0
 27 58  1  0  0  0  0
 28 61  1  0  0  0  0
 28 62  1  0  0  0  0
 28 15  1  0  0  0  0
 30  6  1  0  0  0  0
 31 13  1  0  0  0  0
 32 14  1  0  0  0  0
 33 18  1  0  0  0  0
 36 19  1  0  0  0  0
 37 19  1  0  0  0  0
 38 19  1  0  0  0  0
 39 20  1  0  0  0  0
 41 20  1  0  0  0  0
 42 22  1  0  0  0  0
 43 22  1  0  0  0  0
 46 23  1  0  0  0  0
 49 24  1  0  0  0  0
 50 24  1  0  0  0  0
 51 25  1  0  0  0  0
 55 26  1  0  0  0  0
 57 27  1  0  0  0  0
 60 28  1  0  0  0  0
M  CHG  1   1  -1
M  END
