4,7
 OpenBabel05122313053D

 37 37  0  0  1  0  0  0  0  0999 V2000
   -0.8634   -1.9861   -0.8656 S   0  0  0  0  0  0  0  0  0  0  0  0
    0.3521   -1.4604   -1.5198 O   0  0  0  0  0  0  0  0  0  0  0  0
   -1.2197   -3.4190   -0.9416 O   0  0  0  0  0  0  0  0  0  0  0  0
    0.2297    2.1063    0.5699 O   0  5  0  0  0  0  0  0  0  0  0  0
   -1.3871    3.0968    1.7530 O   0  0  0  0  0  0  0  0  0  0  0  0
   -0.7516   -1.6130    0.8447 N   0  0  0  0  0  0  0  0  0  0  0  0
   -0.4725   -0.2505    1.0704 C   0  0  0  0  0  2  0  0  0  0  0  0
   -1.2541    0.6670    1.7316 C   0  0  1  0  0  3  0  0  0  0  0  0
   -0.8140    2.0666    1.4033 C   0  0  0  0  0  0  0  0  0  0  0  0
   -2.5307    0.4901    2.5405 C   0  0  0  0  0  0  0  0  0  0  0  0
   -2.6790   -0.5875    2.7333 H   0  0  0  0  0  0  0  0  0  0  0  0
   -2.4098    1.1801    3.9137 C   0  0  0  0  0  0  0  0  0  0  0  0
   -1.5525    0.7747    4.4891 H   0  0  0  0  0  0  0  0  0  0  0  0
   -2.2574    2.2683    3.7836 H   0  0  0  0  0  0  0  0  0  0  0  0
   -3.3316    1.0186    4.5103 H   0  0  0  0  0  0  0  0  0  0  0  0
   -3.7665    0.9873    1.7668 C   0  0  0  0  0  0  0  0  0  0  0  0
   -4.6850    0.8581    2.3771 H   0  0  0  0  0  0  0  0  0  0  0  0
   -3.6580    2.0620    1.5223 H   0  0  0  0  0  0  0  0  0  0  0  0
   -3.8994    0.4270    0.8199 H   0  0  0  0  0  0  0  0  0  0  0  0
   -2.2555   -0.9956   -1.3915 C   0  0  0  0  0  0  0  0  0  0  0  0
   -3.5135   -1.6017   -1.5218 C   0  0  0  0  0  0  0  0  0  0  0  0
   -3.6093   -2.6874   -1.3771 H   0  0  0  0  0  0  0  0  0  0  0  0
   -2.0819    0.3869   -1.5830 C   0  0  0  0  0  0  0  0  0  0  0  0
   -1.0928    0.8487   -1.4533 H   0  0  0  0  0  0  0  0  0  0  0  0
   -3.1994    1.1638   -1.9050 C   0  0  0  0  0  0  0  0  0  0  0  0
   -3.0739    2.2495   -2.0382 H   0  0  0  0  0  0  0  0  0  0  0  0
   -4.6172   -0.8027   -1.8513 C   0  0  0  0  0  0  0  0  0  0  0  0
   -5.6082   -1.2696   -1.9638 H   0  0  0  0  0  0  0  0  0  0  0  0
   -4.4819    0.5885   -2.0398 C   0  0  0  0  0  0  0  0  0  0  0  0
   -5.6779    1.4541   -2.3381 C   0  0  0  0  0  0  0  0  0  0  0  0
   -5.4539    2.1998   -3.1271 H   0  0  0  0  0  0  0  0  0  0  0  0
   -6.5504    0.8546   -2.6617 H   0  0  0  0  0  0  0  0  0  0  0  0
   -5.9795    2.0242   -1.4332 H   0  0  0  0  0  0  0  0  0  0  0  0
   -1.6003   -2.4566    1.6881 C   0  0  0  0  0  0  0  0  0  0  0  0
   -1.4064   -3.5154    1.4356 H   0  0  0  0  0  0  0  0  0  0  0  0
   -1.3185   -2.2753    2.7425 H   0  0  0  0  0  0  0  0  0  0  0  0
   -2.6882   -2.2574    1.5677 H   0  0  0  0  0  0  0  0  0  0  0  0
  1  6  1  0  0  0  0
  2  1  2  0  0  0  0
  3  1  2  0  0  0  0
  4  9  1  0  0  0  0
  6  7  1  0  0  0  0
  6 34  1  0  0  0  0
  8  7  1  6  0  0  0
  8 10  1  0  0  0  0
  9  8  1  0  0  0  0
  9  5  2  0  0  0  0
 10 11  1  0  0  0  0
 10 12  1  0  0  0  0
 12 13  1  0  0  0  0
 12 15  1  0  0  0  0
 14 12  1  0  0  0  0
 16 17  1  0  0  0  0
 16 10  1  0  0  0  0
 18 16  1  0  0  0  0
 19 16  1  0  0  0  0
 20  1  1  0  0  0  0
 21 20  1  0  0  0  0
 21 22  1  0  0  0  0
 23 24  1  0  0  0  0
 23 20  2  0  0  0  0
 25 23  1  0  0  0  0
 26 25  1  0  0  0  0
 27 21  2  0  0  0  0
 28 27  1  0  0  0  0
 29 25  2  0  0  0  0
 29 27  1  0  0  0  0
 30 29  1  0  0  0  0
 30 33  1  0  0  0  0
 31 30  1  0  0  0  0
 32 30  1  0  0  0  0
 34 36  1  0  0  0  0
 35 34  1  0  0  0  0
 37 34  1  0  0  0  0
M  CHG  1   4  -1
M  END
