1,7
 OpenBabel05122313053D

 29 28  0  0  1  0  0  0  0  0999 V2000
    0.7161   -1.1048   -1.5005 O   0  5  0  0  0  0  0  0  0  0  0  0
    0.5006   -3.2880   -1.8595 O   0  0  0  0  0  0  0  0  0  0  0  0
   -3.5738    0.9904   -0.4670 O   0  0  0  0  0  0  0  0  0  0  0  0
   -3.9027   -1.1248    0.2677 O   0  0  0  0  0  0  0  0  0  0  0  0
   -1.1040    2.0400   -2.1060 O   0  0  0  0  0  0  0  0  0  0  0  0
   -1.4172    2.8269    0.0114 O   0  0  0  0  0  0  0  0  0  0  0  0
   -0.7430    0.5736   -0.2288 C   0  0  0  0  0  2  0  0  0  0  0  0
   -1.6631   -0.3574    0.1666 C   0  0  2  0  0  3  0  0  0  0  0  0
   -1.2620   -1.6521    0.7787 C   0  0  0  0  0  0  0  0  0  0  0  0
   -0.3388   -2.4968    0.2235 C   0  0  0  0  0  0  0  0  0  0  0  0
    0.3045   -2.3057   -1.1383 C   0  0  0  0  0  0  0  0  0  0  0  0
   -0.0024   -3.8128    0.8848 C   0  0  0  0  0  0  0  0  0  0  0  0
   -1.9057   -2.0169    2.1013 C   0  0  0  0  0  0  0  0  0  0  0  0
   -3.1094   -0.0593   -0.0404 C   0  0  0  0  0  0  0  0  0  0  0  0
   -5.2996   -0.9255    0.0464 C   0  0  0  0  0  0  0  0  0  0  0  0
   -1.1332    1.8377   -0.9072 C   0  0  0  0  0  0  0  0  0  0  0  0
   -2.0138    4.0027   -0.5461 C   0  0  0  0  0  0  0  0  0  0  0  0
    0.5924   -3.6652    1.8145 H   0  0  0  0  0  0  0  0  0  0  0  0
   -0.9113   -4.3757    1.1835 H   0  0  0  0  0  0  0  0  0  0  0  0
    0.5727   -4.4457    0.1850 H   0  0  0  0  0  0  0  0  0  0  0  0
   -2.5260   -1.1929    2.4989 H   0  0  0  0  0  0  0  0  0  0  0  0
   -2.5598   -2.9098    2.0110 H   0  0  0  0  0  0  0  0  0  0  0  0
   -1.1307   -2.2643    2.8580 H   0  0  0  0  0  0  0  0  0  0  0  0
   -5.6855   -0.0859    0.6604 H   0  0  0  0  0  0  0  0  0  0  0  0
   -5.5020   -0.6905   -1.0183 H   0  0  0  0  0  0  0  0  0  0  0  0
   -5.7941   -1.8712    0.3327 H   0  0  0  0  0  0  0  0  0  0  0  0
   -3.0285    3.7565   -0.9197 H   0  0  0  0  0  0  0  0  0  0  0  0
   -2.0775    4.7403    0.2746 H   0  0  0  0  0  0  0  0  0  0  0  0
   -1.4108    4.4005   -1.3872 H   0  0  0  0  0  0  0  0  0  0  0  0
  1 11  1  0  0  0  0
  2 11  2  0  0  0  0
  3 14  2  0  0  0  0
  5 16  2  0  0  0  0
  8  7  1  6  0  0  0
  8  9  1  0  0  0  0
  9 13  1  0  0  0  0
 10  9  2  0  0  0  0
 10 12  1  0  0  0  0
 11 10  1  0  0  0  0
 12 19  1  0  0  0  0
 12 18  1  0  0  0  0
 13 21  1  0  0  0  0
 13 23  1  0  0  0  0
 14  8  1  0  0  0  0
 14  4  1  0  0  0  0
 15  4  1  0  0  0  0
 15 26  1  0  0  0  0
 15 24  1  0  0  0  0
 16  7  1  0  0  0  0
 16  6  1  0  0  0  0
 17  6  1  0  0  0  0
 17 28  1  0  0  0  0
 20 12  1  0  0  0  0
 22 13  1  0  0  0  0
 25 15  1  0  0  0  0
 27 17  1  0  0  0  0
 29 17  1  0  0  0  0
M  CHG  1   1  -1
M  END
