1,10
 OpenBabel05122313053D

 25 27  0  0  1  0  0  0  0  0999 V2000
   -0.0168   -2.1726   -0.3876 O   0  5  0  0  0  0  0  0  0  0  0  0
    1.6480   -3.6575   -0.6047 O   0  0  0  0  0  0  0  0  0  0  0  0
    3.1075   -1.3122    0.7550 C   0  0  2  0  0  0  0  0  0  0  0  0
    4.1481   -0.1564    0.6645 C   0  0  1  0  0  0  0  0  0  0  0  0
    4.7724    0.1218   -0.6767 C   0  0  0  0  0  0  0  0  0  0  0  0
    4.4570    1.3455   -1.1482 C   0  0  0  0  0  0  0  0  0  0  0  0
    3.5973    2.1326   -0.1882 C   0  0  0  0  0  0  0  0  0  0  0  0
    3.2874    1.1331    0.9536 C   0  0  1  0  0  0  0  0  0  0  0  0
    1.8467    0.5476    1.0688 C   0  0  1  0  0  0  0  0  0  0  0  0
    1.3655    0.0141   -0.2991 C   0  0  0  0  0  3  0  0  0  0  0  0
    2.1938   -1.2803   -0.4922 C   0  0  2  0  0  0  0  0  0  0  0  0
    2.1490   -0.7625    1.8329 C   0  0  0  0  0  0  0  0  0  0  0  0
    1.2721   -2.4994   -0.5135 C   0  0  0  0  0  0  0  0  0  0  0  0
    3.5427   -2.3138    0.9359 H   0  0  0  0  0  0  0  0  0  0  0  0
    4.9282   -0.3214    1.4407 H   0  0  0  0  0  0  0  0  0  0  0  0
    5.4090   -0.6058   -1.2041 H   0  0  0  0  0  0  0  0  0  0  0  0
    4.7968    1.7525   -2.1141 H   0  0  0  0  0  0  0  0  0  0  0  0
    4.1406    3.0283    0.1873 H   0  0  0  0  0  0  0  0  0  0  0  0
    2.6815    2.5322   -0.6812 H   0  0  0  0  0  0  0  0  0  0  0  0
    3.5539    1.5742    1.9355 H   0  0  0  0  0  0  0  0  0  0  0  0
    1.1461    1.2406    1.5777 H   0  0  0  0  0  0  0  0  0  0  0  0
    1.5011    0.7294   -1.1385 H   0  0  0  0  0  0  0  0  0  0  0  0
    2.7910   -1.2839   -1.4268 H   0  0  0  0  0  0  0  0  0  0  0  0
    2.6420   -0.5897    2.8118 H   0  0  0  0  0  0  0  0  0  0  0  0
    1.2526   -1.3965    1.9855 H   0  0  0  0  0  0  0  0  0  0  0  0
  2 13  2  0  0  0  0
  3 14  1  1  0  0  0
  3 12  1  0  0  0  0
  4  3  1  0  0  0  0
  4  8  1  0  0  0  0
  4 15  1  1  0  0  0
  5  4  1  0  0  0  0
  6  5  2  0  0  0  0
  6  7  1  0  0  0  0
  7 18  1  0  0  0  0
  7  8  1  0  0  0  0
  8  9  1  0  0  0  0
  8 20  1  1  0  0  0
  9 21  1  1  0  0  0
  9 12  1  0  0  0  0
 10  9  1  0  0  0  0
 11 23  1  6  0  0  0
 11 10  1  0  0  0  0
 11  3  1  0  0  0  0
 12 25  1  0  0  0  0
 12 24  1  0  0  0  0
 13 11  1  0  0  0  0
 13  1  1  0  0  0  0
 16  5  1  0  0  0  0
 17  6  1  0  0  0  0
 19  7  1  0  0  0  0
 22 10  1  0  0  0  0
M  CHG  1   1  -1
M  END
