2,5
 OpenBabel05122313053D

 19 18  0  0  0  0  0  0  0  0999 V2000
    2.6455    0.0102   -0.4078 Si  0  0  0  0  0  0  0  0  0  0  0  0
    0.4190   -0.2060    1.6054 O   0  0  0  0  0  1  0  0  0  0  0  0
    1.5892   -0.7392    2.1719 C   0  0  0  0  0  0  0  0  0  0  0  0
    2.5743   -1.1921    1.0863 C   0  0  0  0  0  0  0  0  0  0  0  0
    1.0335   -0.0696   -1.3895 C   0  0  0  0  0  3  0  0  0  0  0  0
    3.0124    1.7542    0.2495 C   0  0  0  0  0  0  0  0  0  0  0  0
    4.1159   -0.5372   -1.4832 C   0  0  0  0  0  0  0  0  0  0  0  0
    2.0681    0.0417    2.8103 H   0  0  0  0  0  0  0  0  0  0  0  0
    1.3184   -1.5813    2.8544 H   0  0  0  0  0  0  0  0  0  0  0  0
    3.5922   -1.3024    1.5194 H   0  0  0  0  0  0  0  0  0  0  0  0
    2.2917   -2.1960    0.6977 H   0  0  0  0  0  0  0  0  0  0  0  0
    1.0451    0.7333   -2.1576 H   0  0  0  0  0  0  0  0  0  0  0  0
    1.0665   -1.0318   -1.9444 H   0  0  0  0  0  0  0  0  0  0  0  0
    2.2282    2.0945    0.9544 H   0  0  0  0  0  0  0  0  0  0  0  0
    3.9837    1.7717    0.7862 H   0  0  0  0  0  0  0  0  0  0  0  0
    3.0756    2.4917   -0.5776 H   0  0  0  0  0  0  0  0  0  0  0  0
    3.9805   -1.5790   -1.8411 H   0  0  0  0  0  0  0  0  0  0  0  0
    4.2133    0.1126   -2.3776 H   0  0  0  0  0  0  0  0  0  0  0  0
    5.0730   -0.4912   -0.9225 H   0  0  0  0  0  0  0  0  0  0  0  0
  1  6  1  0  0  0  0
  1  4  1  0  0  0  0
  2  3  1  0  0  0  0
  3  8  1  0  0  0  0
  3  9  1  0  0  0  0
  4 10  1  0  0  0  0
  4  3  1  0  0  0  0
  5  1  1  0  0  0  0
  6 15  1  0  0  0  0
  6 14  1  0  0  0  0
  7 19  1  0  0  0  0
  7  1  1  0  0  0  0
 11  4  1  0  0  0  0
 12  5  1  0  0  0  0
 13  5  1  0  0  0  0
 16  6  1  0  0  0  0
 17  7  1  0  0  0  0
 18  7  1  0  0  0  0
M  END
