1,25
 OpenBabel05122313053D

 26 27  0  0  1  0  0  0  0  0999 V2000
   -3.1719   -0.1547    0.3840 O   0  0  0  0  0  1  0  0  0  0  0  0
   -4.5571    1.1489    1.6511 N   0  0  0  0  0  0  0  0  0  0  0  0
   -4.5809    1.7481    2.4785 H   0  0  0  0  0  0  0  0  0  0  0  0
   -6.8988    1.7073    1.5108 C   0  0  0  0  0  0  0  0  0  0  0  0
   -6.7797    2.3026    2.4310 H   0  0  0  0  0  0  0  0  0  0  0  0
   -5.7899    1.0269    0.9683 C   0  0  0  0  0  0  0  0  0  0  0  0
   -5.9538    0.2691   -0.2118 C   0  0  0  0  0  0  0  0  0  0  0  0
   -5.0980   -0.2636   -0.6428 H   0  0  0  0  0  0  0  0  0  0  0  0
   -8.3366    0.8835   -0.2886 C   0  0  0  0  0  0  0  0  0  0  0  0
   -9.6821    0.7918   -0.9621 C   0  0  0  0  0  0  0  0  0  0  0  0
  -10.0653   -0.2503   -0.9550 H   0  0  0  0  0  0  0  0  0  0  0  0
   -9.6235    1.1027   -2.0258 H   0  0  0  0  0  0  0  0  0  0  0  0
  -10.4351    1.4308   -0.4618 H   0  0  0  0  0  0  0  0  0  0  0  0
   -2.1905    0.9790    2.2661 C   0  0  2  0  0  0  0  0  0  0  0  0
   -2.4871    0.9460    3.3391 H   0  0  0  0  0  0  0  0  0  0  0  0
   -8.1498    1.6343    0.8884 C   0  0  0  0  0  0  0  0  0  0  0  0
   -9.0018    2.1750    1.3293 H   0  0  0  0  0  0  0  0  0  0  0  0
   -7.2148    0.2107   -0.8161 C   0  0  0  0  0  0  0  0  0  0  0  0
   -7.3261   -0.3841   -1.7365 H   0  0  0  0  0  0  0  0  0  0  0  0
   -3.3458    0.6046    1.3701 C   0  0  2  0  0  3  0  0  0  0  0  0
   -1.4166    2.2287    1.8392 C   0  0  0  0  0  0  0  0  0  0  0  0
   -1.7121    3.2882    1.7866 H   0  0  0  0  0  0  0  0  0  0  0  0
   -0.2848    1.5316    1.5482 C   0  0  0  0  0  0  0  0  0  0  0  0
    0.7128    1.8252    1.1880 H   0  0  0  0  0  0  0  0  0  0  0  0
   -0.8671    0.1988    1.8936 C   0  0  0  0  0  3  0  0  0  0  0  0
   -0.3880   -0.3826    2.7067 H   0  0  0  0  0  0  0  0  0  0  0  0
  2  3  1  0  0  0  0
  4  5  1  0  0  0  0
  6  4  1  0  0  0  0
  6  2  1  0  0  0  0
  7  6  2  0  0  0  0
  8  7  1  0  0  0  0
  9 16  1  0  0  0  0
 10 11  1  0  0  0  0
 10 13  1  0  0  0  0
 10  9  1  0  0  0  0
 12 10  1  0  0  0  0
 14 15  1  1  0  0  0
 16 17  1  0  0  0  0
 16  4  2  0  0  0  0
 18  9  2  0  0  0  0
 18  7  1  0  0  0  0
 19 18  1  0  0  0  0
 20  1  1  6  0  0  0
 20  2  1  0  0  0  0
 20 14  1  0  0  0  0
 21 14  1  0  0  0  0
 22 21  1  0  0  0  0
 23 21  2  0  0  0  0
 23 25  1  0  0  0  0
 24 23  1  0  0  0  0
 25 14  1  0  0  0  0
 25 26  1  0  0  0  0
M  END
