1,7
 OpenBabel05122313053D

 20 19  0  0  0  0  0  0  0  0999 V2000
   -0.7712    0.0733   -1.2953 O   0  0  0  0  0  1  0  0  0  0  0  0
   -2.0741   -0.0077   -0.8445 C   0  0  0  0  0  0  0  0  0  0  0  0
   -2.7386   -1.3645   -1.1466 C   0  0  0  0  0  0  0  0  0  0  0  0
   -2.8858    1.1422   -1.4586 C   0  0  0  0  0  0  0  0  0  0  0  0
   -2.0058    0.1295    0.6740 N   0  0  0  0  0  0  0  0  0  0  0  0
   -3.2136    0.4682    1.4238 C   0  0  0  0  0  0  0  0  0  0  0  0
   -0.8222   -0.1302    1.1988 C   0  0  0  0  0  2  0  0  0  0  0  0
   -0.6417   -0.0728    2.6869 C   0  0  0  0  0  0  0  0  0  0  0  0
   -3.7977   -1.4060   -0.8234 H   0  0  0  0  0  0  0  0  0  0  0  0
   -2.1868   -2.1821   -0.6481 H   0  0  0  0  0  0  0  0  0  0  0  0
   -2.7082   -1.5310   -2.2401 H   0  0  0  0  0  0  0  0  0  0  0  0
   -2.4754    2.1270   -1.1643 H   0  0  0  0  0  0  0  0  0  0  0  0
   -3.9599    1.1043   -1.1945 H   0  0  0  0  0  0  0  0  0  0  0  0
   -2.8041    1.0572   -2.5586 H   0  0  0  0  0  0  0  0  0  0  0  0
   -3.3606    1.5674    1.4566 H   0  0  0  0  0  0  0  0  0  0  0  0
   -3.1631    0.0803    2.4560 H   0  0  0  0  0  0  0  0  0  0  0  0
   -4.0918    0.0163    0.9268 H   0  0  0  0  0  0  0  0  0  0  0  0
   -1.0419    0.8664    3.1236 H   0  0  0  0  0  0  0  0  0  0  0  0
    0.4229   -0.1593    2.9643 H   0  0  0  0  0  0  0  0  0  0  0  0
   -1.1859   -0.9109    3.1757 H   0  0  0  0  0  0  0  0  0  0  0  0
  1  2  1  0  0  0  0
  2  5  1  0  0  0  0
  3  2  1  0  0  0  0
  3  9  1  0  0  0  0
  3 10  1  0  0  0  0
  4 13  1  0  0  0  0
  4 12  1  0  0  0  0
  4  2  1  0  0  0  0
  5  7  1  0  0  0  0
  5  6  1  0  0  0  0
  6 15  1  0  0  0  0
  6 16  1  0  0  0  0
  7  8  1  0  0  0  0
  8 19  1  0  0  0  0
  8 18  1  0  0  0  0
  8 20  1  0  0  0  0
 11  3  1  0  0  0  0
 14  4  1  0  0  0  0
 17  6  1  0  0  0  0
M  END
