1,2
 OpenBabel05122313053D

 45 47  0  0  1  0  0  0  0  0999 V2000
    0.8558    0.2230    0.1543 O   0  5  0  0  0  0  0  0  0  0  0  0
   -1.3061    0.6332   -1.4481 C   0  0  1  0  0  3  0  0  0  0  0  0
   -2.1486    1.5850   -0.8006 C   0  0  0  0  0  3  0  0  0  0  0  0
   -2.9553    1.3415   -0.1007 H   0  0  0  0  0  0  0  0  0  0  0  0
   -1.7011    2.8943   -1.1520 C   0  0  0  0  0  0  0  0  0  0  0  0
   -2.1152    3.8364   -0.7724 H   0  0  0  0  0  0  0  0  0  0  0  0
   -0.5945    2.7581   -2.0377 C   0  0  0  0  0  0  0  0  0  0  0  0
    0.0028    3.5770   -2.4538 H   0  0  0  0  0  0  0  0  0  0  0  0
   -0.3408    1.3688   -2.2123 C   0  0  0  0  0  3  0  0  0  0  0  0
    0.4913    0.9262   -2.7750 H   0  0  0  0  0  0  0  0  0  0  0  0
    1.0188   -1.0049   -0.3903 C   0  0  0  0  0  0  0  0  0  0  0  0
    2.2395   -1.7089   -0.1557 C   0  0  0  0  0  0  0  0  0  0  0  0
    2.3603   -2.9784   -0.7504 C   0  0  0  0  0  0  0  0  0  0  0  0
    3.2825   -3.5541   -0.6005 H   0  0  0  0  0  0  0  0  0  0  0  0
    1.3401   -3.5391   -1.5336 C   0  0  0  0  0  0  0  0  0  0  0  0
    1.4767   -4.5345   -1.9816 H   0  0  0  0  0  0  0  0  0  0  0  0
    0.1505   -2.8345   -1.7341 C   0  0  0  0  0  0  0  0  0  0  0  0
   -0.6649   -3.2735   -2.3303 H   0  0  0  0  0  0  0  0  0  0  0  0
   -0.0321   -1.5634   -1.1648 C   0  0  0  0  0  0  0  0  0  0  0  0
   -2.3816   -1.3003   -0.2481 C   0  0  0  0  0  0  0  0  0  0  0  0
   -3.6982   -1.6416   -0.6116 C   0  0  0  0  0  0  0  0  0  0  0  0
   -3.9852   -1.6300   -1.6755 H   0  0  0  0  0  0  0  0  0  0  0  0
   -4.6448   -1.9930    0.3634 C   0  0  0  0  0  0  0  0  0  0  0  0
   -5.6685   -2.2612    0.0608 H   0  0  0  0  0  0  0  0  0  0  0  0
   -4.2838   -2.0033    1.7193 C   0  0  0  0  0  0  0  0  0  0  0  0
   -5.0233   -2.2773    2.4868 H   0  0  0  0  0  0  0  0  0  0  0  0
   -2.9725   -1.6648    2.0907 C   0  0  0  0  0  0  0  0  0  0  0  0
   -2.6802   -1.6668    3.1516 H   0  0  0  0  0  0  0  0  0  0  0  0
   -2.0269   -1.3190    1.1152 C   0  0  0  0  0  0  0  0  0  0  0  0
   -1.0053   -1.0533    1.4208 H   0  0  0  0  0  0  0  0  0  0  0  0
   -1.3839   -0.8738   -1.3241 C   0  0  1  0  0  0  0  0  0  0  0  0
   -1.7938   -1.2322   -2.2934 H   0  0  0  0  0  0  0  0  0  0  0  0
    3.3653   -1.1053    0.7058 C   0  0  0  0  0  0  0  0  0  0  0  0
    2.8390   -0.7997    2.1295 C   0  0  0  0  0  0  0  0  0  0  0  0
    2.0214   -0.0567    2.1229 H   0  0  0  0  0  0  0  0  0  0  0  0
    3.6618   -0.3957    2.7544 H   0  0  0  0  0  0  0  0  0  0  0  0
    2.4657   -1.7244    2.6151 H   0  0  0  0  0  0  0  0  0  0  0  0
    4.5496   -2.0800    0.8502 C   0  0  0  0  0  0  0  0  0  0  0  0
    4.2512   -3.0312    1.3356 H   0  0  0  0  0  0  0  0  0  0  0  0
    5.3294   -1.6133    1.4844 H   0  0  0  0  0  0  0  0  0  0  0  0
    5.0173   -2.3179   -0.1266 H   0  0  0  0  0  0  0  0  0  0  0  0
    3.8989    0.1853    0.0404 C   0  0  0  0  0  0  0  0  0  0  0  0
    4.2888   -0.0315   -0.9751 H   0  0  0  0  0  0  0  0  0  0  0  0
    4.7327    0.6019    0.6424 H   0  0  0  0  0  0  0  0  0  0  0  0
    3.1254    0.9698   -0.0433 H   0  0  0  0  0  0  0  0  0  0  0  0
  2 31  1  1  0  0  0
  2  3  1  0  0  0  0
  3  4  1  0  0  0  0
  5  3  1  0  0  0  0
  5  6  1  0  0  0  0
  7  5  2  0  0  0  0
  8  7  1  0  0  0  0
  9  7  1  0  0  0  0
  9  2  1  0  0  0  0
 10  9  1  0  0  0  0
 11 12  1  0  0  0  0
 11  1  1  0  0  0  0
 12 33  1  0  0  0  0
 13 14  1  0  0  0  0
 13 12  2  0  0  0  0
 15 13  1  0  0  0  0
 16 15  1  0  0  0  0
 17 15  2  0  0  0  0
 17 19  1  0  0  0  0
 18 17  1  0  0  0  0
 19 11  2  0  0  0  0
 20 29  1  0  0  0  0
 21 20  2  0  0  0  0
 21 23  1  0  0  0  0
 22 21  1  0  0  0  0
 23 25  2  0  0  0  0
 24 23  1  0  0  0  0
 25 27  1  0  0  0  0
 25 26  1  0  0  0  0
 27 28  1  0  0  0  0
 29 30  1  0  0  0  0
 29 27  2  0  0  0  0
 31 32  1  6  0  0  0
 31 19  1  0  0  0  0
 31 20  1  0  0  0  0
 33 38  1  0  0  0  0
 33 34  1  0  0  0  0
 34 37  1  0  0  0  0
 34 36  1  0  0  0  0
 35 34  1  0  0  0  0
 38 39  1  0  0  0  0
 38 40  1  0  0  0  0
 41 38  1  0  0  0  0
 42 44  1  0  0  0  0
 42 33  1  0  0  0  0
 43 42  1  0  0  0  0
 45 42  1  0  0  0  0
M  CHG  1   1  -1
M  END
