1,2
 OpenBabel05122313053D

 57 59  0  0  1  0  0  0  0  0999 V2000
    1.3884   -0.7811    0.4018 O   0  5  0  0  0  0  0  0  0  0  0  0
    1.0145    1.8068   -0.3542 C   0  0  2  0  0  3  0  0  0  0  0  0
    1.3501    1.2127   -1.6148 C   0  0  0  0  0  3  0  0  0  0  0  0
    0.7279    0.4874   -2.1553 H   0  0  0  0  0  0  0  0  0  0  0  0
    2.6638    1.6272   -1.9692 C   0  0  0  0  0  0  0  0  0  0  0  0
    3.1507    2.4780   -0.9351 C   0  0  0  0  0  0  0  0  0  0  0  0
    2.1274    2.6036    0.0490 C   0  0  0  0  0  3  0  0  0  0  0  0
    0.0553   -0.9749    0.2740 C   0  0  0  0  0  0  0  0  0  0  0  0
   -0.4588   -2.3005    0.1626 C   0  0  0  0  0  0  0  0  0  0  0  0
   -1.8501   -2.4276    0.0169 C   0  0  0  0  0  0  0  0  0  0  0  0
   -2.7365   -1.3315   -0.0232 C   0  0  0  0  0  0  0  0  0  0  0  0
   -2.1867   -0.0464    0.1030 C   0  0  0  0  0  0  0  0  0  0  0  0
   -0.8058    0.1542    0.2547 C   0  0  0  0  0  0  0  0  0  0  0  0
   -1.2500    2.6643    0.3033 C   0  0  0  0  0  0  0  0  0  0  0  0
   -1.5915    3.1454   -0.9759 C   0  0  0  0  0  0  0  0  0  0  0  0
   -2.5734    4.1349   -1.1278 C   0  0  0  0  0  0  0  0  0  0  0  0
   -3.2270    4.6604   -0.0011 C   0  0  0  0  0  0  0  0  0  0  0  0
   -2.8901    4.1911    1.2777 C   0  0  0  0  0  0  0  0  0  0  0  0
   -1.9071    3.2002    1.4264 C   0  0  0  0  0  0  0  0  0  0  0  0
   -0.2225    1.5524    0.4779 C   0  0  2  0  0  0  0  0  0  0  0  0
    0.4688   -3.5308    0.1870 C   0  0  0  0  0  0  0  0  0  0  0  0
   -4.2459   -1.5716   -0.1964 C   0  0  0  0  0  0  0  0  0  0  0  0
    1.2843   -3.5564    1.5020 C   0  0  0  0  0  0  0  0  0  0  0  0
    1.9259   -2.6635    1.6105 H   0  0  0  0  0  0  0  0  0  0  0  0
    1.9375   -4.4530    1.5217 H   0  0  0  0  0  0  0  0  0  0  0  0
    0.6085   -3.6075    2.3799 H   0  0  0  0  0  0  0  0  0  0  0  0
    1.4182   -3.4869   -1.0336 C   0  0  0  0  0  0  0  0  0  0  0  0
    2.0800   -2.6021   -1.0222 H   0  0  0  0  0  0  0  0  0  0  0  0
    0.8380   -3.4794   -1.9792 H   0  0  0  0  0  0  0  0  0  0  0  0
    2.0670   -4.3872   -1.0402 H   0  0  0  0  0  0  0  0  0  0  0  0
   -0.3306   -4.8454    0.1106 C   0  0  0  0  0  0  0  0  0  0  0  0
   -0.9075   -4.9310   -0.8324 H   0  0  0  0  0  0  0  0  0  0  0  0
   -1.0337   -4.9562    0.9608 H   0  0  0  0  0  0  0  0  0  0  0  0
    0.3722   -5.7014    0.1461 H   0  0  0  0  0  0  0  0  0  0  0  0
   -5.0415   -0.2546   -0.2089 C   0  0  0  0  0  0  0  0  0  0  0  0
   -6.1214   -0.4692   -0.3379 H   0  0  0  0  0  0  0  0  0  0  0  0
   -4.7303    0.4083   -1.0414 H   0  0  0  0  0  0  0  0  0  0  0  0
   -4.9234    0.3085    0.7387 H   0  0  0  0  0  0  0  0  0  0  0  0
   -4.4928   -2.3043   -1.5350 C   0  0  0  0  0  0  0  0  0  0  0  0
   -5.5765   -2.4950   -1.6791 H   0  0  0  0  0  0  0  0  0  0  0  0
   -3.9713   -3.2814   -1.5716 H   0  0  0  0  0  0  0  0  0  0  0  0
   -4.1327   -1.6972   -2.3902 H   0  0  0  0  0  0  0  0  0  0  0  0
   -4.7612   -2.4433    0.9714 C   0  0  0  0  0  0  0  0  0  0  0  0
   -5.8488   -2.6348    0.8622 H   0  0  0  0  0  0  0  0  0  0  0  0
   -4.5955   -1.9383    1.9445 H   0  0  0  0  0  0  0  0  0  0  0  0
   -4.2491   -3.4253    1.0097 H   0  0  0  0  0  0  0  0  0  0  0  0
    3.2278    1.2945   -2.8476 H   0  0  0  0  0  0  0  0  0  0  0  0
    4.1513    2.9246   -0.8830 H   0  0  0  0  0  0  0  0  0  0  0  0
    2.2052    3.1550    0.9927 H   0  0  0  0  0  0  0  0  0  0  0  0
   -2.2693   -3.4375   -0.0746 H   0  0  0  0  0  0  0  0  0  0  0  0
   -2.8358    0.8372    0.0916 H   0  0  0  0  0  0  0  0  0  0  0  0
   -1.0815    2.7380   -1.8622 H   0  0  0  0  0  0  0  0  0  0  0  0
   -2.8287    4.5010   -2.1339 H   0  0  0  0  0  0  0  0  0  0  0  0
   -3.9962    5.4384   -0.1204 H   0  0  0  0  0  0  0  0  0  0  0  0
   -3.3935    4.6000    2.1670 H   0  0  0  0  0  0  0  0  0  0  0  0
   -1.6476    2.8289    2.4307 H   0  0  0  0  0  0  0  0  0  0  0  0
    0.1119    1.5879    1.5397 H   0  0  0  0  0  0  0  0  0  0  0  0
  2  7  1  0  0  0  0
  2 20  1  1  0  0  0
  3  2  1  0  0  0  0
  4  3  1  0  0  0  0
  5  3  1  0  0  0  0
  5  6  2  0  0  0  0
  6 48  1  0  0  0  0
  6  7  1  0  0  0  0
  7 49  1  0  0  0  0
  8  1  1  0  0  0  0
  9 21  1  0  0  0  0
  9  8  2  0  0  0  0
 10  9  1  0  0  0  0
 11 10  2  0  0  0  0
 11 12  1  0  0  0  0
 12 13  2  0  0  0  0
 13  8  1  0  0  0  0
 13 20  1  0  0  0  0
 14 20  1  0  0  0  0
 14 19  1  0  0  0  0
 15 14  2  0  0  0  0
 16 15  1  0  0  0  0
 16 17  2  0  0  0  0
 17 18  1  0  0  0  0
 18 19  2  0  0  0  0
 18 55  1  0  0  0  0
 19 56  1  0  0  0  0
 20 57  1  1  0  0  0
 21 23  1  0  0  0  0
 22 11  1  0  0  0  0
 22 43  1  0  0  0  0
 23 25  1  0  0  0  0
 23 24  1  0  0  0  0
 23 26  1  0  0  0  0
 27 28  1  0  0  0  0
 27 21  1  0  0  0  0
 29 27  1  0  0  0  0
 30 27  1  0  0  0  0
 31 34  1  0  0  0  0
 31 21  1  0  0  0  0
 31 33  1  0  0  0  0
 32 31  1  0  0  0  0
 35 22  1  0  0  0  0
 35 38  1  0  0  0  0
 36 35  1  0  0  0  0
 37 35  1  0  0  0  0
 39 22  1  0  0  0  0
 40 39  1  0  0  0  0
 41 39  1  0  0  0  0
 42 39  1  0  0  0  0
 43 46  1  0  0  0  0
 43 45  1  0  0  0  0
 44 43  1  0  0  0  0
 47  5  1  0  0  0  0
 50 10  1  0  0  0  0
 51 12  1  0  0  0  0
 52 15  1  0  0  0  0
 53 16  1  0  0  0  0
 54 17  1  0  0  0  0
M  CHG  1   1  -1
M  END
