1,12
 OpenBabel05122313053D

 28 28  0  0  0  0  0  0  0  0999 V2000
   -2.7529   -0.8853   -1.1785 O   0  0  0  0  0  1  0  0  0  0  0  0
   -3.6511   -1.7215   -0.5008 C   0  0  0  0  0  0  0  0  0  0  0  0
   -4.4478   -2.0603   -1.2046 H   0  0  0  0  0  0  0  0  0  0  0  0
   -4.1718   -1.1935    0.3424 H   0  0  0  0  0  0  0  0  0  0  0  0
   -1.6938   -2.3207    0.8064 C   0  0  0  0  0  3  0  0  0  0  0  0
    4.4624   -0.2347   -0.9121 C   0  0  0  0  0  0  0  0  0  0  0  0
    3.5971   -0.3236   -1.5871 H   0  0  0  0  0  0  0  0  0  0  0  0
    0.5672   -1.4206    0.9276 C   0  0  0  0  0  3  0  0  0  0  0  0
    4.2803   -0.4011    0.4857 C   0  0  0  0  0  0  0  0  0  0  0  0
    5.7202    0.0753   -1.4404 C   0  0  0  0  0  0  0  0  0  0  0  0
    5.8348    0.2019   -2.5281 H   0  0  0  0  0  0  0  0  0  0  0  0
   -0.3661   -2.3711    0.3560 C   0  0  0  0  0  3  0  0  0  0  0  0
    2.9819   -0.7364    1.0731 C   0  0  0  0  0  0  0  0  0  0  0  0
    5.4061   -0.2114    1.3248 C   0  0  0  0  0  0  0  0  0  0  0  0
    5.2834   -0.3245    2.4139 H   0  0  0  0  0  0  0  0  0  0  0  0
    6.8300    0.2431   -0.5931 C   0  0  0  0  0  0  0  0  0  0  0  0
    7.8162    0.4934   -1.0125 H   0  0  0  0  0  0  0  0  0  0  0  0
    1.9065   -1.2267    0.3917 C   0  0  0  0  0  0  0  0  0  0  0  0
   -2.8691   -2.9159    0.0864 C   0  0  0  0  0  0  0  0  0  0  0  0
   -3.5118   -3.5218    0.7600 H   0  0  0  0  0  0  0  0  0  0  0  0
   -2.5215   -3.5670   -0.7418 H   0  0  0  0  0  0  0  0  0  0  0  0
    6.6638    0.1028    0.7941 C   0  0  0  0  0  0  0  0  0  0  0  0
    7.5228    0.2397    1.4690 H   0  0  0  0  0  0  0  0  0  0  0  0
    0.4432   -1.2282    2.0085 H   0  0  0  0  0  0  0  0  0  0  0  0
    2.0283   -1.4611   -0.6795 H   0  0  0  0  0  0  0  0  0  0  0  0
   -1.8768   -1.9062    1.8175 H   0  0  0  0  0  0  0  0  0  0  0  0
    2.8908   -0.5778    2.1625 H   0  0  0  0  0  0  0  0  0  0  0  0
   -0.0957   -2.9853   -0.5185 H   0  0  0  0  0  0  0  0  0  0  0  0
  1  2  1  0  0  0  0
  2 19  1  0  0  0  0
  2  4  1  0  0  0  0
  3  2  1  0  0  0  0
  5 26  1  0  0  0  0
  6  9  1  0  0  0  0
  7  6  1  0  0  0  0
  8 24  1  0  0  0  0
  9 13  1  0  0  0  0
  9 14  2  0  0  0  0
 10  6  2  0  0  0  0
 10 16  1  0  0  0  0
 11 10  1  0  0  0  0
 12  5  1  0  0  0  0
 12  8  1  0  0  0  0
 13 27  1  0  0  0  0
 14 15  1  0  0  0  0
 16 22  2  0  0  0  0
 17 16  1  0  0  0  0
 18  8  1  0  0  0  0
 18 13  2  0  0  0  0
 19 20  1  0  0  0  0
 19  5  1  0  0  0  0
 21 19  1  0  0  0  0
 22 14  1  0  0  0  0
 22 23  1  0  0  0  0
 25 18  1  0  0  0  0
 28 12  1  0  0  0  0
M  END
