3,24
 OpenBabel05122313053D

 26 26  0  0  1  0  0  0  0  0999 V2000
   -4.4743   -0.2429   -1.9213 C   0  0  0  0  0  0  0  0  0  0  0  0
   -5.2878   -0.7716   -2.4387 H   0  0  0  0  0  0  0  0  0  0  0  0
   -0.7501   -0.5293   -1.5304 C   0  0  0  0  0  2  0  0  0  0  0  0
   -0.6967   -1.3903   -2.2342 H   0  0  0  0  0  0  0  0  0  0  0  0
   -2.4335    1.1647   -0.5973 C   0  0  0  0  0  0  0  0  0  0  0  0
   -1.3857    1.9139    0.0980 C   0  0  2  0  0  3  0  0  0  0  0  0
   -3.1530   -0.6520   -2.0367 C   0  0  0  0  0  0  0  0  0  0  0  0
   -2.9045   -1.5271   -2.6552 H   0  0  0  0  0  0  0  0  0  0  0  0
   -2.0861    0.0176   -1.3736 C   0  0  0  0  0  0  0  0  0  0  0  0
   -4.8028    0.8715   -1.1125 C   0  0  0  0  0  0  0  0  0  0  0  0
   -3.7782    1.5818   -0.4695 C   0  0  0  0  0  0  0  0  0  0  0  0
   -3.9895    2.4658    0.1427 H   0  0  0  0  0  0  0  0  0  0  0  0
   -6.5077    2.2824   -0.2302 C   0  0  0  0  0  0  0  0  0  0  0  0
   -6.2067    2.1550    0.8340 H   0  0  0  0  0  0  0  0  0  0  0  0
   -7.6099    2.3442   -0.2890 H   0  0  0  0  0  0  0  0  0  0  0  0
   -6.0695    3.2311   -0.6123 H   0  0  0  0  0  0  0  0  0  0  0  0
   -1.5137    4.9351    2.1353 C   0  0  0  0  0  0  0  0  0  0  0  0
   -2.0256    5.5656    1.3817 H   0  0  0  0  0  0  0  0  0  0  0  0
   -0.7721    5.5645    2.6653 H   0  0  0  0  0  0  0  0  0  0  0  0
   -2.2660    4.5919    2.8732 H   0  0  0  0  0  0  0  0  0  0  0  0
   -0.8159    3.7629    1.4792 C   0  0  0  0  0  0  0  0  0  0  0  0
   -0.0563    4.0827    0.7354 H   0  0  0  0  0  0  0  0  0  0  0  0
   -0.2945    3.1173    2.2175 H   0  0  0  0  0  0  0  0  0  0  0  0
   -0.1720    1.6276    0.1094 O   0  0  0  0  0  1  0  0  0  0  0  0
   -1.8202    2.9750    0.8019 O   0  0  0  0  0  0  0  0  0  0  0  0
   -6.1253    1.1711   -1.0207 O   0  0  0  0  0  0  0  0  0  0  0  0
  1 10  1  0  0  0  0
  2  1  1  0  0  0  0
  3  9  1  0  0  0  0
  4  3  1  0  0  0  0
  5 11  1  0  0  0  0
  5  6  1  0  0  0  0
  6 24  1  1  0  0  0
  6 25  1  0  0  0  0
  7  1  2  0  0  0  0
  7  9  1  0  0  0  0
  8  7  1  0  0  0  0
  9  5  2  0  0  0  0
 10 26  1  0  0  0  0
 10 11  2  0  0  0  0
 11 12  1  0  0  0  0
 13 14  1  0  0  0  0
 15 13  1  0  0  0  0
 16 13  1  0  0  0  0
 17 19  1  0  0  0  0
 17 20  1  0  0  0  0
 18 17  1  0  0  0  0
 21 17  1  0  0  0  0
 21 23  1  0  0  0  0
 22 21  1  0  0  0  0
 25 21  1  0  0  0  0
 26 13  1  0  0  0  0
M  END
