1,6
 OpenBabel05122313053D

 24 24  0  0  1  0  0  0  0  0999 V2000
   -0.2581    1.8548    0.1140 O   0  0  0  0  0  1  0  0  0  0  0  0
    0.9995    3.6236    0.7022 O   0  0  0  0  0  0  0  0  0  0  0  0
    5.7910    0.0709   -1.6062 N   0  0  0  0  0  0  0  0  0  0  0  0
    6.8307    0.6559   -1.2981 O   0  0  0  0  0  0  0  0  0  0  0  0
    5.7325   -0.9962   -2.2190 O   0  0  0  0  0  0  0  0  0  0  0  0
    0.8942   -0.2463   -1.2881 C   0  0  0  0  0  2  0  0  0  0  0  0
    1.0872   -1.1400   -1.9212 H   0  0  0  0  0  0  0  0  0  0  0  0
    2.0823    0.5484   -1.0108 C   0  0  0  0  0  0  0  0  0  0  0  0
    3.3342    2.4776   -0.1006 C   0  0  0  0  0  0  0  0  0  0  0  0
    3.3175    3.4449    0.4184 H   0  0  0  0  0  0  0  0  0  0  0  0
    2.1078    1.8106   -0.3319 C   0  0  0  0  0  0  0  0  0  0  0  0
    4.5448    1.9230   -0.5115 C   0  0  0  0  0  0  0  0  0  0  0  0
    5.5095    2.4146   -0.3335 H   0  0  0  0  0  0  0  0  0  0  0  0
    3.3222    0.0155   -1.4428 C   0  0  0  0  0  0  0  0  0  0  0  0
    3.3555   -0.9428   -1.9767 H   0  0  0  0  0  0  0  0  0  0  0  0
    4.5125    0.6897   -1.1832 C   0  0  0  0  0  0  0  0  0  0  0  0
   -0.1910    4.3017    1.1738 C   0  0  0  0  0  0  0  0  0  0  0  0
   -1.0422    4.0209    0.5217 H   0  0  0  0  0  0  0  0  0  0  0  0
    0.0345    5.3759    1.0291 H   0  0  0  0  0  0  0  0  0  0  0  0
    0.8616    2.4079    0.1532 C   0  0  1  0  0  3  0  0  0  0  0  0
   -0.4664    3.9860    2.6336 C   0  0  0  0  0  0  0  0  0  0  0  0
   -1.3416    4.5699    2.9824 H   0  0  0  0  0  0  0  0  0  0  0  0
    0.4018    4.2501    3.2693 H   0  0  0  0  0  0  0  0  0  0  0  0
   -0.6965    2.9129    2.7757 H   0  0  0  0  0  0  0  0  0  0  0  0
  2 17  1  0  0  0  0
  3  4  2  0  0  0  0
  3 16  1  0  0  0  0
  5  3  2  0  0  0  0
  6  8  1  0  0  0  0
  7  6  1  0  0  0  0
  8 11  1  0  0  0  0
  9 10  1  0  0  0  0
 11  9  2  0  0  0  0
 11 20  1  0  0  0  0
 12 13  1  0  0  0  0
 12  9  1  0  0  0  0
 14 16  1  0  0  0  0
 14  8  2  0  0  0  0
 15 14  1  0  0  0  0
 16 12  2  0  0  0  0
 17 21  1  0  0  0  0
 18 17  1  0  0  0  0
 19 17  1  0  0  0  0
 20  1  1  1  0  0  0
 20  2  1  0  0  0  0
 21 24  1  0  0  0  0
 21 22  1  0  0  0  0
 21 23  1  0  0  0  0
M  END
