2,4
 OpenBabel05122313053D

 13 13  0  0  0  0  0  0  0  0999 V2000
   -3.5276   -1.2376   -2.5142 O   0  5  0  0  0  0  0  0  0  0  0  0
   -1.4998   -0.4280   -1.8851 O   0  0  0  0  0  0  0  0  0  0  0  0
   -2.8422   -1.4100   -0.2730 N   0  0  0  0  0  0  0  0  0  0  0  0
   -1.8188   -1.1090    0.6125 C   0  0  0  0  0  2  0  0  0  0  0  0
   -1.9245   -1.7354    1.8874 C   0  0  0  0  0  0  0  0  0  0  0  0
   -1.1101   -1.5752    2.6071 H   0  0  0  0  0  0  0  0  0  0  0  0
   -3.0167   -2.5296    2.2171 C   0  0  0  0  0  0  0  0  0  0  0  0
   -3.0769   -2.9966    3.2127 H   0  0  0  0  0  0  0  0  0  0  0  0
   -4.0546   -2.7462    1.2752 C   0  0  0  0  0  0  0  0  0  0  0  0
   -4.9323   -3.3616    1.5132 H   0  0  0  0  0  0  0  0  0  0  0  0
   -3.9254   -2.1784    0.0219 C   0  0  0  0  0  0  0  0  0  0  0  0
   -4.6264   -2.2994   -0.8182 H   0  0  0  0  0  0  0  0  0  0  0  0
   -2.6464   -0.9796   -1.7161 C   0  0  0  0  0  0  0  0  0  0  0  0
  1 13  1  0  0  0  0
  2 13  2  0  0  0  0
  3 11  1  0  0  0  0
  3  4  1  0  0  0  0
  4  5  1  0  0  0  0
  5  7  2  0  0  0  0
  5  6  1  0  0  0  0
  7  8  1  0  0  0  0
  9 10  1  0  0  0  0
  9  7  1  0  0  0  0
 11  9  2  0  0  0  0
 12 11  1  0  0  0  0
 13  3  1  0  0  0  0
M  CHG  1   1  -1
M  END
