1,3
 OpenBabel05122313053D

 13 12  0  0  0  0  0  0  0  0999 V2000
    1.5484    1.2559   -0.6861 O   0  5  0  0  0  0  0  0  0  0  0  0
    3.5735    2.1787   -0.6417 O   0  0  0  0  0  0  0  0  0  0  0  0
    0.3844    0.4205    1.9142 C   0  0  0  0  0  3  0  0  0  0  0  0
    1.2657    1.6359    2.1281 C   0  0  0  0  0  0  0  0  0  0  0  0
    2.6428    1.5237    1.4721 C   0  0  0  0  0  0  0  0  0  0  0  0
    2.6164    1.6764   -0.0504 C   0  0  0  0  0  0  0  0  0  0  0  0
    0.0037   -0.2682    3.0161 C   0  0  0  0  0  0  0  0  0  0  0  0
    1.3879    1.8035    3.2216 H   0  0  0  0  0  0  0  0  0  0  0  0
    0.7772    2.5529    1.7296 H   0  0  0  0  0  0  0  0  0  0  0  0
    3.1010    0.5405    1.7220 H   0  0  0  0  0  0  0  0  0  0  0  0
    3.3389    2.2940    1.8584 H   0  0  0  0  0  0  0  0  0  0  0  0
    0.3132    0.0693    4.0233 H   0  0  0  0  0  0  0  0  0  0  0  0
   -0.6024   -1.1839    2.9983 H   0  0  0  0  0  0  0  0  0  0  0  0
  1  6  1  0  0  0  0
  2  6  2  0  0  0  0
  3  4  1  0  0  0  0
  3  7  2  0  0  0  0
  4  8  1  0  0  0  0
  5 10  1  0  0  0  0
  5 11  1  0  0  0  0
  5  4  1  0  0  0  0
  6  5  1  0  0  0  0
  7 12  1  0  0  0  0
  9  4  1  0  0  0  0
 13  7  1  0  0  0  0
M  CHG  1   1  -1
M  END
