1,2
 OpenBabel05122313053D

 37 39  0  0  0  0  0  0  0  0999 V2000
   -0.2780   -1.8292   -0.0748 O   0  5  0  0  0  0  0  0  0  0  0  0
    0.2412    0.7536    0.0709 C   0  0  0  0  0  2  0  0  0  0  0  0
   -1.1012    0.3709    0.0367 C   0  0  0  0  0  0  0  0  0  0  0  0
   -1.3028   -1.0687    0.0102 C   0  0  0  0  0  0  0  0  0  0  0  0
    0.6427    2.1700    0.0305 C   0  0  0  0  0  0  0  0  0  0  0  0
    1.5650    2.6845    0.9734 C   0  0  0  0  0  0  0  0  0  0  0  0
    1.9551    4.0288    0.9378 C   0  0  0  0  0  0  0  0  0  0  0  0
    1.4699    4.8791   -0.0693 C   0  0  0  0  0  0  0  0  0  0  0  0
    0.5770    4.3764   -1.0300 C   0  0  0  0  0  0  0  0  0  0  0  0
    0.1524    3.0436   -0.9724 C   0  0  0  0  0  0  0  0  0  0  0  0
   -2.2380    1.3349   -0.0065 C   0  0  0  0  0  0  0  0  0  0  0  0
   -2.4014    2.3044    1.0066 C   0  0  0  0  0  0  0  0  0  0  0  0
   -3.4608    3.2210    0.9552 C   0  0  0  0  0  0  0  0  0  0  0  0
   -4.3737    3.1870   -0.1113 C   0  0  0  0  0  0  0  0  0  0  0  0
   -4.2181    2.2311   -1.1281 C   0  0  0  0  0  0  0  0  0  0  0  0
   -3.1593    1.3138   -1.0766 C   0  0  0  0  0  0  0  0  0  0  0  0
   -2.6174   -1.7540    0.0830 C   0  0  0  0  0  0  0  0  0  0  0  0
   -3.7114   -1.2275    0.8077 C   0  0  0  0  0  0  0  0  0  0  0  0
   -4.9109   -1.9457    0.8907 C   0  0  0  0  0  0  0  0  0  0  0  0
   -5.0422   -3.1837    0.2407 C   0  0  0  0  0  0  0  0  0  0  0  0
   -3.9578   -3.7174   -0.4764 C   0  0  0  0  0  0  0  0  0  0  0  0
   -2.7499   -3.0151   -0.5438 C   0  0  0  0  0  0  0  0  0  0  0  0
    1.9630    2.0165    1.7516 H   0  0  0  0  0  0  0  0  0  0  0  0
    2.6581    4.4114    1.6931 H   0  0  0  0  0  0  0  0  0  0  0  0
    1.7933    5.9302   -0.1097 H   0  0  0  0  0  0  0  0  0  0  0  0
    0.1993    5.0325   -1.8291 H   0  0  0  0  0  0  0  0  0  0  0  0
   -0.5569    2.6603   -1.7198 H   0  0  0  0  0  0  0  0  0  0  0  0
   -1.6842    2.3336    1.8403 H   0  0  0  0  0  0  0  0  0  0  0  0
   -3.5740    3.9690    1.7548 H   0  0  0  0  0  0  0  0  0  0  0  0
   -5.2049    3.9072   -0.1515 H   0  0  0  0  0  0  0  0  0  0  0  0
   -4.9260    2.2010   -1.9705 H   0  0  0  0  0  0  0  0  0  0  0  0
   -3.0389    0.5669   -1.8763 H   0  0  0  0  0  0  0  0  0  0  0  0
   -3.6168   -0.2636    1.3248 H   0  0  0  0  0  0  0  0  0  0  0  0
   -5.7516   -1.5334    1.4683 H   0  0  0  0  0  0  0  0  0  0  0  0
   -5.9916   -3.7377    0.2978 H   0  0  0  0  0  0  0  0  0  0  0  0
   -4.0550   -4.6902   -0.9816 H   0  0  0  0  0  0  0  0  0  0  0  0
   -1.8870   -3.4266   -1.0866 H   0  0  0  0  0  0  0  0  0  0  0  0
  1  4  1  0  0  0  0
  3  2  1  0  0  0  0
  4  3  2  0  0  0  0
  4 17  1  0  0  0  0
  5  2  1  0  0  0  0
  5  6  1  0  0  0  0
  6 23  1  0  0  0  0
  7  6  2  0  0  0  0
  7 24  1  0  0  0  0
  8  7  1  0  0  0  0
  9 10  1  0  0  0  0
  9  8  2  0  0  0  0
 10  5  2  0  0  0  0
 11  3  1  0  0  0  0
 11 12  1  0  0  0  0
 12 28  1  0  0  0  0
 13 12  2  0  0  0  0
 13 29  1  0  0  0  0
 14 13  1  0  0  0  0
 15 16  1  0  0  0  0
 15 14  2  0  0  0  0
 16 11  2  0  0  0  0
 17 18  1  0  0  0  0
 18 19  2  0  0  0  0
 18 33  1  0  0  0  0
 19 34  1  0  0  0  0
 20 35  1  0  0  0  0
 20 19  1  0  0  0  0
 21 20  2  0  0  0  0
 22 21  1  0  0  0  0
 22 17  2  0  0  0  0
 25  8  1  0  0  0  0
 26  9  1  0  0  0  0
 27 10  1  0  0  0  0
 30 14  1  0  0  0  0
 31 15  1  0  0  0  0
 32 16  1  0  0  0  0
 36 21  1  0  0  0  0
 37 22  1  0  0  0  0
M  CHG  1   1  -1
M  END
