2,4
 OpenBabel05122313053D

 20 20  0  0  0  0  0  0  0  0999 V2000
   -4.6584   -1.1856   -0.0157 Br  0  0  0  0  0  0  0  0  0  0  0  0
    1.2948    2.0128    0.2212 O   0  0  0  0  0  1  0  0  0  0  0  0
    0.0980    2.7237    0.0345 N   0  0  0  0  0  4  0  0  0  0  0  0
   -0.7817    0.4259   -0.0252 C   0  0  0  0  0  3  0  0  0  0  0  0
   -1.8857   -0.4513   -0.0708 C   0  0  0  0  0  0  0  0  0  0  0  0
   -1.7284   -1.5283   -0.2158 H   0  0  0  0  0  0  0  0  0  0  0  0
   -3.1947    0.0399    0.0391 C   0  0  0  0  0  0  0  0  0  0  0  0
   -3.4632    1.4113    0.1825 C   0  0  0  0  0  0  0  0  0  0  0  0
   -4.4950    1.7769    0.2671 H   0  0  0  0  0  0  0  0  0  0  0  0
   -2.3804    2.3025    0.1992 C   0  0  0  0  0  0  0  0  0  0  0  0
   -2.5788    3.3818    0.2875 H   0  0  0  0  0  0  0  0  0  0  0  0
   -1.0782    1.7975    0.1005 C   0  0  0  0  0  0  0  0  0  0  0  0
    0.0613    3.7462    1.1234 C   0  0  0  0  0  0  0  0  0  0  0  0
   -0.0221    3.2062    2.0816 H   0  0  0  0  0  0  0  0  0  0  0  0
   -0.7921    4.4349    0.9828 H   0  0  0  0  0  0  0  0  0  0  0  0
    1.0171    4.2964    1.0749 H   0  0  0  0  0  0  0  0  0  0  0  0
    0.1494    3.3754   -1.3224 C   0  0  0  0  0  0  0  0  0  0  0  0
    1.0322    4.0392   -1.3317 H   0  0  0  0  0  0  0  0  0  0  0  0
   -0.7853    3.9407   -1.4991 H   0  0  0  0  0  0  0  0  0  0  0  0
    0.2789    2.5511   -2.0524 H   0  0  0  0  0  0  0  0  0  0  0  0
  1  7  1  0  0  0  0
  3 12  1  0  0  0  0
  3  2  1  0  0  0  0
  3 13  1  0  0  0  0
  4 12  1  0  0  0  0
  5  4  2  0  0  0  0
  5  7  1  0  0  0  0
  6  5  1  0  0  0  0
  7  8  2  0  0  0  0
  8 10  1  0  0  0  0
  8  9  1  0  0  0  0
 10 11  1  0  0  0  0
 12 10  2  0  0  0  0
 13 14  1  0  0  0  0
 15 13  1  0  0  0  0
 16 13  1  0  0  0  0
 17  3  1  0  0  0  0
 18 17  1  0  0  0  0
 19 17  1  0  0  0  0
 20 17  1  0  0  0  0
M  END
