1,7
 OpenBabel05122313053D

 15 14  0  0  0  0  0  0  0  0999 V2000
   -1.4096    1.3950   -0.0205 O   0  5  0  0  0  0  0  0  0  0  0  0
   -3.4960    0.4100   -0.0140 O   0  0  0  0  0  0  0  0  0  0  0  0
   -3.7716    1.1353    1.1959 C   0  0  0  0  0  0  0  0  0  0  0  0
   -3.0676    0.8299    1.9947 H   0  0  0  0  0  0  0  0  0  0  0  0
   -4.8057    0.8651    1.4735 H   0  0  0  0  0  0  0  0  0  0  0  0
   -3.6990    2.2280    1.0238 H   0  0  0  0  0  0  0  0  0  0  0  0
   -0.5132    0.1109   -2.1153 C   0  0  0  0  0  3  0  0  0  0  0  0
   -0.4596    1.1719   -2.4239 H   0  0  0  0  0  0  0  0  0  0  0  0
   -0.0609   -0.5771   -2.8468 H   0  0  0  0  0  0  0  0  0  0  0  0
   -1.7967   -0.3311   -1.5403 C   0  0  0  0  0  0  0  0  0  0  0  0
   -2.2687    0.5201   -0.5212 C   0  0  0  0  0  0  0  0  0  0  0  0
   -2.5605   -1.5432   -1.9860 C   0  0  0  0  0  0  0  0  0  0  0  0
   -1.8651   -2.3896   -2.1516 H   0  0  0  0  0  0  0  0  0  0  0  0
   -3.0908   -1.3440   -2.9418 H   0  0  0  0  0  0  0  0  0  0  0  0
   -3.3086   -1.8467   -1.2299 H   0  0  0  0  0  0  0  0  0  0  0  0
  2  3  1  0  0  0  0
  3  5  1  0  0  0  0
  3  4  1  0  0  0  0
  6  3  1  0  0  0  0
  7 10  1  0  0  0  0
  8  7  1  0  0  0  0
  9  7  1  0  0  0  0
 10 11  2  0  0  0  0
 11  1  1  0  0  0  0
 11  2  1  0  0  0  0
 12 10  1  0  0  0  0
 12 15  1  0  0  0  0
 13 12  1  0  0  0  0
 14 12  1  0  0  0  0
M  CHG  1   1  -1
M  END
