1,4
 OpenBabel05122313053D

 20 20  0  0  1  0  0  0  0  0999 V2000
    0.0088   -0.1685   -1.6523 O   0  5  0  0  0  0  0  0  0  0  0  0
   -1.8048    1.0983   -1.0513 O   0  0  0  0  0  0  0  0  0  0  0  0
   -0.0546    2.0652   -2.0505 O   0  0  0  0  0  0  0  0  0  0  0  0
   -1.8563   -0.7008    0.6165 C   0  0  0  0  0  3  0  0  0  0  0  0
   -2.4622   -0.1117   -0.6689 C   0  0  1  0  0  0  0  0  0  0  0  0
   -0.5312    1.0165   -1.6419 C   0  0  0  0  0  0  0  0  0  0  0  0
   -3.9371    0.1908   -0.4665 C   0  0  0  0  0  0  0  0  0  0  0  0
   -4.3979    1.5098   -0.2979 C   0  0  0  0  0  0  0  0  0  0  0  0
   -5.7586    1.7621   -0.0627 C   0  0  0  0  0  0  0  0  0  0  0  0
   -6.6754    0.7018    0.0079 C   0  0  0  0  0  0  0  0  0  0  0  0
   -6.2234   -0.6168   -0.1660 C   0  0  0  0  0  0  0  0  0  0  0  0
   -4.8646   -0.8684   -0.4023 C   0  0  0  0  0  0  0  0  0  0  0  0
   -3.6728    2.3319   -0.3772 H   0  0  0  0  0  0  0  0  0  0  0  0
   -6.1071    2.7994    0.0606 H   0  0  0  0  0  0  0  0  0  0  0  0
   -7.7425    0.9016    0.1903 H   0  0  0  0  0  0  0  0  0  0  0  0
   -6.9361   -1.4550   -0.1238 H   0  0  0  0  0  0  0  0  0  0  0  0
   -4.5160   -1.9039   -0.5473 H   0  0  0  0  0  0  0  0  0  0  0  0
   -1.9976    0.0135    1.4588 H   0  0  0  0  0  0  0  0  0  0  0  0
   -2.3920   -1.6310    0.8949 H   0  0  0  0  0  0  0  0  0  0  0  0
   -2.3505   -0.8612   -1.4839 H   0  0  0  0  0  0  0  0  0  0  0  0
  1  6  1  0  0  0  0
  2  5  1  0  0  0  0
  3  6  2  0  0  0  0
  4 19  1  0  0  0  0
  4 18  1  0  0  0  0
  5 20  1  6  0  0  0
  5  7  1  0  0  0  0
  5  4  1  0  0  0  0
  6  2  1  0  0  0  0
  7 12  2  0  0  0  0
  7  8  1  0  0  0  0
  8  9  2  0  0  0  0
  9 10  1  0  0  0  0
  9 14  1  0  0  0  0
 10 15  1  0  0  0  0
 11 16  1  0  0  0  0
 11 10  2  0  0  0  0
 12 11  1  0  0  0  0
 13  8  1  0  0  0  0
 17 12  1  0  0  0  0
M  CHG  1   1  -1
M  END
