1,6
 OpenBabel05122313053D

 21 20  0  0  1  0  0  0  0  0999 V2000
    1.5095    0.0775    0.3410 O   0  0  0  0  0  1  0  0  0  0  0  0
   -0.7433   -0.1888   -2.9851 O   0  0  0  0  0  0  0  0  0  0  0  0
    2.7143   -0.2796   -0.2754 C   0  0  1  0  0  0  0  0  0  0  0  0
    2.7096    0.2844   -1.7056 C   0  0  0  0  0  0  0  0  0  0  0  0
    1.5820   -0.2505   -2.5805 C   0  0  0  0  0  0  0  0  0  0  0  0
    0.1162   -0.1338   -2.1042 C   0  0  0  0  0  3  0  0  0  0  0  0
    3.9413    0.2128    0.5416 C   0  0  0  0  0  0  0  0  0  0  0  0
    3.7877   -0.0710    2.0387 C   0  0  0  0  0  0  0  0  0  0  0  0
    5.2487   -0.3904    0.0128 C   0  0  0  0  0  0  0  0  0  0  0  0
    2.7926   -1.3968   -0.3442 H   0  0  0  0  0  0  0  0  0  0  0  0
    2.6516    1.3904   -1.6345 H   0  0  0  0  0  0  0  0  0  0  0  0
    3.6772    0.0510   -2.1955 H   0  0  0  0  0  0  0  0  0  0  0  0
    1.6088    0.2085   -3.5920 H   0  0  0  0  0  0  0  0  0  0  0  0
    1.7333   -1.3397   -2.7491 H   0  0  0  0  0  0  0  0  0  0  0  0
    3.9898    1.3175    0.4079 H   0  0  0  0  0  0  0  0  0  0  0  0
    2.8250    0.3206    2.4211 H   0  0  0  0  0  0  0  0  0  0  0  0
    3.8168   -1.1619    2.2425 H   0  0  0  0  0  0  0  0  0  0  0  0
    4.6112    0.3959    2.6162 H   0  0  0  0  0  0  0  0  0  0  0  0
    6.1147   -0.0364    0.6079 H   0  0  0  0  0  0  0  0  0  0  0  0
    5.2285   -1.4991    0.0849 H   0  0  0  0  0  0  0  0  0  0  0  0
    5.4455   -0.1260   -1.0450 H   0  0  0  0  0  0  0  0  0  0  0  0
  2  6  2  0  0  0  0
  3 10  1  6  0  0  0
  3  1  1  0  0  0  0
  3  7  1  0  0  0  0
  4 11  1  0  0  0  0
  4  3  1  0  0  0  0
  5  6  1  0  0  0  0
  5  4  1  0  0  0  0
  7  8  1  0  0  0  0
  8 17  1  0  0  0  0
  8 16  1  0  0  0  0
  8 18  1  0  0  0  0
  9 20  1  0  0  0  0
  9  7  1  0  0  0  0
  9 19  1  0  0  0  0
 12  4  1  0  0  0  0
 13  5  1  0  0  0  0
 14  5  1  0  0  0  0
 15  7  1  0  0  0  0
 21  9  1  0  0  0  0
M  END
