1,4
 OpenBabel05122313053D

 19 18  0  0  1  0  0  0  0  0999 V2000
    1.4751   -0.2027    0.5083 O   0  0  0  0  0  1  0  0  0  0  0  0
    2.5714    0.1021   -0.3344 C   0  0  2  0  0  0  0  0  0  0  0  0
    2.1970   -0.4551   -1.7215 C   0  0  0  0  0  0  0  0  0  0  0  0
    0.7524   -0.0542   -2.0508 C   0  0  0  0  0  3  0  0  0  0  0  0
    3.8908   -0.4451    0.2512 C   0  0  0  0  0  0  0  0  0  0  0  0
    5.0910   -0.0376   -0.6124 C   0  0  0  0  0  0  0  0  0  0  0  0
    4.0815    0.0018    1.7037 C   0  0  0  0  0  0  0  0  0  0  0  0
    2.6860    1.2143   -0.4106 H   0  0  0  0  0  0  0  0  0  0  0  0
    2.9225   -0.1264   -2.5010 H   0  0  0  0  0  0  0  0  0  0  0  0
    2.2897   -1.5623   -1.6601 H   0  0  0  0  0  0  0  0  0  0  0  0
    0.7370    0.9566   -2.4953 H   0  0  0  0  0  0  0  0  0  0  0  0
    0.3093   -0.7183   -2.8163 H   0  0  0  0  0  0  0  0  0  0  0  0
    3.8116   -1.5560    0.2381 H   0  0  0  0  0  0  0  0  0  0  0  0
    5.0213   -0.4366   -1.6435 H   0  0  0  0  0  0  0  0  0  0  0  0
    5.1680    1.0689   -0.6842 H   0  0  0  0  0  0  0  0  0  0  0  0
    6.0398   -0.4073   -0.1726 H   0  0  0  0  0  0  0  0  0  0  0  0
    5.0036   -0.4338    2.1401 H   0  0  0  0  0  0  0  0  0  0  0  0
    3.2199   -0.3044    2.3284 H   0  0  0  0  0  0  0  0  0  0  0  0
    4.1686    1.1075    1.7691 H   0  0  0  0  0  0  0  0  0  0  0  0
  2  8  1  6  0  0  0
  2  5  1  0  0  0  0
  2  1  1  0  0  0  0
  3 10  1  0  0  0  0
  3  2  1  0  0  0  0
  4  3  1  0  0  0  0
  5  7  1  0  0  0  0
  6 16  1  0  0  0  0
  6  5  1  0  0  0  0
  7 19  1  0  0  0  0
  7 17  1  0  0  0  0
  7 18  1  0  0  0  0
  9  3  1  0  0  0  0
 11  4  1  0  0  0  0
 12  4  1  0  0  0  0
 13  5  1  0  0  0  0
 14  6  1  0  0  0  0
 15  6  1  0  0  0  0
M  END
