1,3
 OpenBabel05122313053D

 17 17  0  0  0  0  0  0  0  0999 V2000
   -2.2545   -1.1493    0.0144 O   0  5  0  0  0  0  0  0  0  0  0  0
   -1.5603    2.6947   -0.2333 O   0  0  0  0  0  0  0  0  0  0  0  0
   -1.8700    1.5108   -0.1181 C   0  0  0  0  0  3  0  0  0  0  0  0
   -3.2248    0.9849   -0.0599 C   0  0  0  0  0  0  0  0  0  0  0  0
   -3.3231   -0.4083   -0.0159 C   0  0  0  0  0  0  0  0  0  0  0  0
   -4.6665   -1.1030    0.0225 C   0  0  0  0  0  0  0  0  0  0  0  0
   -4.8316   -1.4588    1.0658 H   0  0  0  0  0  0  0  0  0  0  0  0
   -4.6063   -2.0217   -0.5981 H   0  0  0  0  0  0  0  0  0  0  0  0
   -5.8155   -0.1846   -0.4143 C   0  0  0  0  0  0  0  0  0  0  0  0
   -5.7786   -0.0463   -1.5183 H   0  0  0  0  0  0  0  0  0  0  0  0
   -6.7917   -0.6636   -0.1926 H   0  0  0  0  0  0  0  0  0  0  0  0
   -5.7110    1.1873    0.2632 C   0  0  0  0  0  0  0  0  0  0  0  0
   -5.7246    1.0453    1.3676 H   0  0  0  0  0  0  0  0  0  0  0  0
   -6.5939    1.8126    0.0154 H   0  0  0  0  0  0  0  0  0  0  0  0
   -4.4190    1.9072   -0.1445 C   0  0  0  0  0  0  0  0  0  0  0  0
   -4.2474    2.8056    0.4860 H   0  0  0  0  0  0  0  0  0  0  0  0
   -4.5237    2.3007   -1.1841 H   0  0  0  0  0  0  0  0  0  0  0  0
  2  3  2  0  0  0  0
  3  4  1  0  0  0  0
  4  5  2  0  0  0  0
  5  1  1  0  0  0  0
  5  6  1  0  0  0  0
  6  7  1  0  0  0  0
  8  6  1  0  0  0  0
  9 11  1  0  0  0  0
  9  6  1  0  0  0  0
  9 12  1  0  0  0  0
 10  9  1  0  0  0  0
 12 13  1  0  0  0  0
 14 12  1  0  0  0  0
 15  4  1  0  0  0  0
 15 12  1  0  0  0  0
 15 16  1  0  0  0  0
 17 15  1  0  0  0  0
M  CHG  1   1  -1
M  END
