1,3
 OpenBabel05122313053D

 27 27  0  0  1  0  0  0  0  0999 V2000
   -0.3049    1.1954   -1.3910 O   0  0  0  0  0  1  0  0  0  0  0  0
   -1.4780    1.1832   -0.8212 C   0  0  1  0  0  3  0  0  0  0  0  0
   -2.1505   -0.0807   -0.6833 C   0  0  1  0  0  3  0  0  0  0  0  0
   -3.4029   -0.1829    0.1672 C   0  0  0  0  0  0  0  0  0  0  0  0
   -3.5962    1.0267    1.0851 C   0  0  0  0  0  0  0  0  0  0  0  0
   -3.4556    2.3461    0.3111 C   0  0  2  0  0  0  0  0  0  0  0  0
   -2.0226    2.4559   -0.2291 C   0  0  0  0  0  0  0  0  0  0  0  0
   -1.6635   -1.1909   -1.5295 C   0  0  0  0  0  3  0  0  0  0  0  0
   -2.3337   -2.5393   -1.3280 C   0  0  0  0  0  0  0  0  0  0  0  0
   -1.4248   -0.9125   -3.0095 C   0  0  0  0  0  0  0  0  0  0  0  0
   -3.8222    3.5669    1.1568 C   0  0  0  0  0  0  0  0  0  0  0  0
   -3.3891   -1.1177    0.7615 H   0  0  0  0  0  0  0  0  0  0  0  0
   -4.2763   -0.2752   -0.5189 H   0  0  0  0  0  0  0  0  0  0  0  0
   -2.8381    1.0024    1.9000 H   0  0  0  0  0  0  0  0  0  0  0  0
   -4.5915    0.9702    1.5724 H   0  0  0  0  0  0  0  0  0  0  0  0
   -4.1534    2.2993   -0.5573 H   0  0  0  0  0  0  0  0  0  0  0  0
   -1.9259    3.2429   -1.0079 H   0  0  0  0  0  0  0  0  0  0  0  0
   -1.3190    2.7391    0.5851 H   0  0  0  0  0  0  0  0  0  0  0  0
   -1.7283   -3.3376   -1.8020 H   0  0  0  0  0  0  0  0  0  0  0  0
   -2.4799   -2.8117   -0.2677 H   0  0  0  0  0  0  0  0  0  0  0  0
   -3.3294   -2.5473   -1.8245 H   0  0  0  0  0  0  0  0  0  0  0  0
   -0.8902    0.0367   -3.1863 H   0  0  0  0  0  0  0  0  0  0  0  0
   -0.8464   -1.7363   -3.4731 H   0  0  0  0  0  0  0  0  0  0  0  0
   -2.4079   -0.8682   -3.5279 H   0  0  0  0  0  0  0  0  0  0  0  0
   -4.8725    3.5151    1.5084 H   0  0  0  0  0  0  0  0  0  0  0  0
   -3.1689    3.6335    2.0523 H   0  0  0  0  0  0  0  0  0  0  0  0
   -3.7017    4.5094    0.5843 H   0  0  0  0  0  0  0  0  0  0  0  0
  2  1  1  1  0  0  0
  2  3  1  0  0  0  0
  2  7  1  0  0  0  0
  3  8  1  6  0  0  0
  3  4  1  0  0  0  0
  4 12  1  0  0  0  0
  4  5  1  0  0  0  0
  5 15  1  0  0  0  0
  5 14  1  0  0  0  0
  6 16  1  6  0  0  0
  6  5  1  0  0  0  0
  6 11  1  0  0  0  0
  7  6  1  0  0  0  0
  7 18  1  0  0  0  0
  8  9  1  0  0  0  0
  9 20  1  0  0  0  0
 10  8  1  0  0  0  0
 11 25  1  0  0  0  0
 11 26  1  0  0  0  0
 13  4  1  0  0  0  0
 17  7  1  0  0  0  0
 19  9  1  0  0  0  0
 21  9  1  0  0  0  0
 22 10  1  0  0  0  0
 23 10  1  0  0  0  0
 24 10  1  0  0  0  0
 27 11  1  0  0  0  0
M  END
