1,2
 OpenBabel05122313053D

 17 17  0  0  1  0  0  0  0  0999 V2000
    1.2067    0.4343    0.7749 O   0  0  0  0  0  1  0  0  0  0  0  0
    1.2442    0.5339   -1.4914 C   0  0  0  0  0  3  0  0  0  0  0  0
    2.0156    0.9733   -0.2638 C   0  0  2  0  0  0  0  0  0  0  0  0
    3.4812    0.5933   -0.1159 C   0  0  0  0  0  0  0  0  0  0  0  0
    4.3177    0.4844   -1.2424 C   0  0  0  0  0  0  0  0  0  0  0  0
    5.6774    0.1648   -1.0994 C   0  0  0  0  0  0  0  0  0  0  0  0
    6.2208   -0.0539    0.1764 C   0  0  0  0  0  0  0  0  0  0  0  0
    5.3943    0.0551    1.3074 C   0  0  0  0  0  0  0  0  0  0  0  0
    4.0372    0.3780    1.1610 C   0  0  0  0  0  0  0  0  0  0  0  0
    1.6424   -0.4041   -1.9316 H   0  0  0  0  0  0  0  0  0  0  0  0
    1.1380    1.2764   -2.3031 H   0  0  0  0  0  0  0  0  0  0  0  0
    1.9968    2.0952   -0.2081 H   0  0  0  0  0  0  0  0  0  0  0  0
    3.8907    0.6468   -2.2447 H   0  0  0  0  0  0  0  0  0  0  0  0
    6.3168    0.0795   -1.9921 H   0  0  0  0  0  0  0  0  0  0  0  0
    7.2853   -0.3104    0.2896 H   0  0  0  0  0  0  0  0  0  0  0  0
    5.8122   -0.1153    2.3121 H   0  0  0  0  0  0  0  0  0  0  0  0
    3.3806    0.4546    2.0409 H   0  0  0  0  0  0  0  0  0  0  0  0
  2  3  1  0  0  0  0
  3 12  1  1  0  0  0
  3  4  1  0  0  0  0
  3  1  1  0  0  0  0
  4  9  1  0  0  0  0
  5  6  1  0  0  0  0
  5  4  2  0  0  0  0
  6  7  2  0  0  0  0
  7 15  1  0  0  0  0
  7  8  1  0  0  0  0
  8 16  1  0  0  0  0
  9  8  2  0  0  0  0
  9 17  1  0  0  0  0
 10  2  1  0  0  0  0
 11  2  1  0  0  0  0
 13  5  1  0  0  0  0
 14  6  1  0  0  0  0
M  END
