2,36
 OpenBabel05122313053D

 56 57  0  0  1  0  0  0  0  0999 V2000
    1.7639   -2.4918   -0.9027 Si  0  0  0  0  0  0  0  0  0  0  0  0
    0.8495    0.2811    0.3189 O   0  5  0  0  0  0  0  0  0  0  0  0
    2.1781    0.0826    0.4609 C   0  0  0  0  0  0  0  0  0  0  0  0
    2.7620   -1.0910   -0.0854 C   0  0  0  0  0  0  0  0  0  0  0  0
    4.1585   -1.2537    0.0207 C   0  0  0  0  0  0  0  0  0  0  0  0
    4.6339   -2.1578   -0.3961 H   0  0  0  0  0  0  0  0  0  0  0  0
    4.9736   -0.2993    0.6487 C   0  0  0  0  0  0  0  0  0  0  0  0
    4.3443    0.8225    1.2253 C   0  0  0  0  0  0  0  0  0  0  0  0
    4.9792    1.5500    1.7499 H   0  0  0  0  0  0  0  0  0  0  0  0
    2.9580    1.0470    1.1715 C   0  0  0  0  0  0  0  0  0  0  0  0
    6.4720   -0.4579    0.7146 C   0  0  0  0  0  0  0  0  0  0  0  0
    6.8584   -0.2727    1.7381 H   0  0  0  0  0  0  0  0  0  0  0  0
    6.9851    0.2647    0.0440 H   0  0  0  0  0  0  0  0  0  0  0  0
    6.7884   -1.4746    0.4094 H   0  0  0  0  0  0  0  0  0  0  0  0
    2.3071    2.2461    1.8904 C   0  0  0  0  0  0  0  0  0  0  0  0
    3.3500    3.1097    2.6244 C   0  0  0  0  0  0  0  0  0  0  0  0
    2.8352    3.9489    3.1338 H   0  0  0  0  0  0  0  0  0  0  0  0
    4.0896    3.5505    1.9259 H   0  0  0  0  0  0  0  0  0  0  0  0
    3.8997    2.5370    3.3987 H   0  0  0  0  0  0  0  0  0  0  0  0
    1.3153    1.7150    2.9537 C   0  0  0  0  0  0  0  0  0  0  0  0
    0.8292    2.5620    3.4806 H   0  0  0  0  0  0  0  0  0  0  0  0
    0.5234    1.0960    2.4953 H   0  0  0  0  0  0  0  0  0  0  0  0
    1.8437    1.0978    3.7089 H   0  0  0  0  0  0  0  0  0  0  0  0
    1.5772    3.1587    0.8799 C   0  0  0  0  0  0  0  0  0  0  0  0
    2.2920    3.5850    0.1492 H   0  0  0  0  0  0  0  0  0  0  0  0
    1.0897    4.0014    1.4123 H   0  0  0  0  0  0  0  0  0  0  0  0
    0.8047    2.6183    0.3056 H   0  0  0  0  0  0  0  0  0  0  0  0
    2.5023   -4.1459   -0.3443 C   0  0  0  0  0  0  0  0  0  0  0  0
    3.5567   -4.2573   -0.6695 H   0  0  0  0  0  0  0  0  0  0  0  0
    1.9211   -4.9825   -0.7834 H   0  0  0  0  0  0  0  0  0  0  0  0
    2.4692   -4.2482    0.7586 H   0  0  0  0  0  0  0  0  0  0  0  0
    1.9878   -2.3579   -2.7783 C   0  0  0  0  0  0  0  0  0  0  0  0
    1.5230   -1.4443   -3.1979 H   0  0  0  0  0  0  0  0  0  0  0  0
    3.0765   -2.3009   -2.9853 H   0  0  0  0  0  0  0  0  0  0  0  0
    1.5871   -3.2402   -3.3165 H   0  0  0  0  0  0  0  0  0  0  0  0
   -0.0365   -2.4348   -0.3223 C   0  0  1  0  0  3  0  0  0  0  0  0
   -0.3976   -2.2561    1.0656 C   0  0  0  0  0  0  0  0  0  0  0  0
   -1.8179   -2.1121    1.1548 C   0  0  0  0  0  0  0  0  0  0  0  0
   -2.3538   -2.2051   -0.1706 C   0  0  0  0  0  0  0  0  0  0  0  0
   -1.2686   -2.4255   -1.0782 C   0  0  0  0  0  0  0  0  0  0  0  0
    0.5210   -2.2632    2.2535 C   0  0  0  0  0  0  0  0  0  0  0  0
    0.4907   -3.2550    2.7546 H   0  0  0  0  0  0  0  0  0  0  0  0
    0.2254   -1.5094    3.0105 H   0  0  0  0  0  0  0  0  0  0  0  0
    1.5722   -2.0621    1.9765 H   0  0  0  0  0  0  0  0  0  0  0  0
   -2.5934   -2.0369    2.4323 C   0  0  0  0  0  0  0  0  0  0  0  0
   -2.6511   -3.0428    2.9021 H   0  0  0  0  0  0  0  0  0  0  0  0
   -2.1154   -1.3630    3.1707 H   0  0  0  0  0  0  0  0  0  0  0  0
   -3.6267   -1.6818    2.2694 H   0  0  0  0  0  0  0  0  0  0  0  0
   -3.8047   -2.1712   -0.5439 C   0  0  0  0  0  0  0  0  0  0  0  0
   -4.4227   -1.6807    0.2308 H   0  0  0  0  0  0  0  0  0  0  0  0
   -4.1932   -3.2030   -0.6885 H   0  0  0  0  0  0  0  0  0  0  0  0
   -3.9756   -1.6244   -1.4918 H   0  0  0  0  0  0  0  0  0  0  0  0
   -1.4615   -2.7619   -2.5264 C   0  0  0  0  0  0  0  0  0  0  0  0
   -2.2872   -2.1807   -2.9812 H   0  0  0  0  0  0  0  0  0  0  0  0
   -1.7253   -3.8366   -2.6308 H   0  0  0  0  0  0  0  0  0  0  0  0
   -0.5534   -2.5873   -3.1283 H   0  0  0  0  0  0  0  0  0  0  0  0
  1 28  1  0  0  0  0
  1  4  1  0  0  0  0
  2  3  1  0  0  0  0
  3 10  1  0  0  0  0
  4  5  1  0  0  0  0
  4  3  2  0  0  0  0
  5  7  2  0  0  0  0
  6  5  1  0  0  0  0
  7 11  1  0  0  0  0
  7  8  1  0  0  0  0
  8  9  1  0  0  0  0
 10  8  2  0  0  0  0
 10 15  1  0  0  0  0
 11 12  1  0  0  0  0
 13 11  1  0  0  0  0
 14 11  1  0  0  0  0
 15 16  1  0  0  0  0
 15 20  1  0  0  0  0
 16 17  1  0  0  0  0
 16 19  1  0  0  0  0
 18 16  1  0  0  0  0
 20 21  1  0  0  0  0
 20 23  1  0  0  0  0
 22 20  1  0  0  0  0
 24 26  1  0  0  0  0
 24 15  1  0  0  0  0
 25 24  1  0  0  0  0
 27 24  1  0  0  0  0
 28 31  1  0  0  0  0
 29 28  1  0  0  0  0
 30 28  1  0  0  0  0
 32  1  1  0  0  0  0
 33 32  1  0  0  0  0
 34 32  1  0  0  0  0
 35 32  1  0  0  0  0
 36  1  1  6  0  0  0
 36 37  1  0  0  0  0
 37 38  2  0  0  0  0
 37 41  1  0  0  0  0
 38 45  1  0  0  0  0
 39 38  1  0  0  0  0
 40 36  1  0  0  0  0
 40 39  2  0  0  0  0
 41 42  1  0  0  0  0
 41 43  1  0  0  0  0
 44 41  1  0  0  0  0
 45 46  1  0  0  0  0
 45 47  1  0  0  0  0
 48 45  1  0  0  0  0
 49 39  1  0  0  0  0
 49 50  1  0  0  0  0
 51 49  1  0  0  0  0
 52 49  1  0  0  0  0
 53 40  1  0  0  0  0
 54 53  1  0  0  0  0
 55 53  1  0  0  0  0
 56 53  1  0  0  0  0
M  CHG  1   2  -1
M  END
