5,7
 OpenBabel05122313053D

 29 31  0  0  1  0  0  0  0  0999 V2000
    3.2732   -0.0474    3.2043 Cl  0  0  0  0  0  0  0  0  0  0  0  0
    5.4630   -3.1856   -0.7016 Cl  0  0  0  0  0  0  0  0  0  0  0  0
    3.6524   -1.6967   -2.8401 Cl  0  0  0  0  0  0  0  0  0  0  0  0
    5.2910   -2.3246    2.3333 Cl  0  0  0  0  0  0  0  0  0  0  0  0
    1.8028    1.1453    0.9829 O   0  5  0  0  0  0  0  0  0  0  0  0
    1.9360    0.3819   -1.7237 O   0  0  0  0  0  0  0  0  0  0  0  0
    0.9515    2.5906   -1.1920 C   0  0  0  0  0  3  0  0  0  0  0  0
    1.3168    3.3409   -0.4665 H   0  0  0  0  0  0  0  0  0  0  0  0
    2.0726    1.8131   -1.9352 C   0  0  2  0  0  0  0  0  0  0  0  0
    3.0933    2.1200   -1.6275 H   0  0  0  0  0  0  0  0  0  0  0  0
    3.4509   -0.4811    1.5349 C   0  0  0  0  0  0  0  0  0  0  0  0
    2.6385    0.1988    0.5864 C   0  0  0  0  0  0  0  0  0  0  0  0
    2.7510   -0.1899   -0.7803 C   0  0  0  0  0  0  0  0  0  0  0  0
    3.6039   -1.2378   -1.1663 C   0  0  0  0  0  0  0  0  0  0  0  0
    0.0692    3.1403   -2.3124 C   0  0  2  0  0  0  0  0  0  0  0  0
   -0.9613    3.3974   -2.0091 H   0  0  0  0  0  0  0  0  0  0  0  0
    4.3284   -1.5145    1.1441 C   0  0  0  0  0  0  0  0  0  0  0  0
    4.4043   -1.9072   -0.2119 C   0  0  0  0  0  0  0  0  0  0  0  0
    0.2188    2.0705   -3.4151 C   0  0  0  0  0  0  0  0  0  0  0  0
   -0.2213    2.3864   -4.3819 H   0  0  0  0  0  0  0  0  0  0  0  0
   -0.2133    1.0938   -3.1296 H   0  0  0  0  0  0  0  0  0  0  0  0
    1.7617    2.1075   -3.4113 C   0  0  1  0  0  0  0  0  0  0  0  0
    2.2901    1.4083   -4.0860 H   0  0  0  0  0  0  0  0  0  0  0  0
    2.0528    3.6065   -3.6543 C   0  0  0  0  0  0  0  0  0  0  0  0
    2.0439    3.8249   -4.7400 H   0  0  0  0  0  0  0  0  0  0  0  0
    3.0493    3.9073   -3.2719 H   0  0  0  0  0  0  0  0  0  0  0  0
    0.8783    4.3232   -2.9181 C   0  0  0  0  0  0  0  0  0  0  0  0
    1.2219    5.0411   -2.1464 H   0  0  0  0  0  0  0  0  0  0  0  0
    0.2344    4.8864   -3.6235 H   0  0  0  0  0  0  0  0  0  0  0  0
  2 18  1  0  0  0  0
  3 14  1  0  0  0  0
  6 13  1  0  0  0  0
  7  8  1  0  0  0  0
  9  6  1  0  0  0  0
  9 10  1  1  0  0  0
  9  7  1  0  0  0  0
 11  1  1  0  0  0  0
 12  5  1  0  0  0  0
 12 11  2  0  0  0  0
 13 12  1  0  0  0  0
 14 13  2  0  0  0  0
 14 18  1  0  0  0  0
 15 16  1  1  0  0  0
 15  7  1  0  0  0  0
 17 11  1  0  0  0  0
 17  4  1  0  0  0  0
 18 17  2  0  0  0  0
 19 22  1  0  0  0  0
 19 21  1  0  0  0  0
 19 15  1  0  0  0  0
 20 19  1  0  0  0  0
 22 23  1  6  0  0  0
 22  9  1  0  0  0  0
 24 22  1  0  0  0  0
 24 26  1  0  0  0  0
 24 27  1  0  0  0  0
 25 24  1  0  0  0  0
 27 15  1  0  0  0  0
 27 28  1  0  0  0  0
 29 27  1  0  0  0  0
M  CHG  1   5  -1
M  END
