1,9
 OpenBabel05122313053D

 29 30  0  0  0  0  0  0  0  0999 V2000
   -1.3676   -0.3946    0.5724 O   0  5  0  0  0  0  0  0  0  0  0  0
   -2.4956   -1.0983    0.6703 C   0  0  0  0  0  0  0  0  0  0  0  0
   -2.4525   -2.4854    1.0089 C   0  0  0  0  0  0  0  0  0  0  0  0
   -3.6291   -3.2408    1.0701 C   0  0  0  0  0  0  0  0  0  0  0  0
   -4.8786   -2.6508    0.8089 C   0  0  0  0  0  0  0  0  0  0  0  0
   -4.9352   -1.2865    0.5013 C   0  0  0  0  0  0  0  0  0  0  0  0
   -3.7709   -0.4888    0.4369 C   0  0  0  0  0  0  0  0  0  0  0  0
   -1.0844   -3.0694    1.2413 C   0  0  0  0  0  0  0  0  0  0  0  0
   -0.2327   -3.0308   -0.0118 C   0  0  0  0  0  3  0  0  0  0  0  0
    1.1525   -2.7070   -0.0165 C   0  0  0  0  0  3  0  0  0  0  0  0
   -3.8920    0.9566    0.1319 C   0  0  0  0  0  0  0  0  0  0  0  0
   -4.7070    1.4055   -0.9340 C   0  0  0  0  0  0  0  0  0  0  0  0
   -4.8817    2.7742   -1.1880 C   0  0  0  0  0  0  0  0  0  0  0  0
   -4.2553    3.7287   -0.3707 C   0  0  0  0  0  0  0  0  0  0  0  0
   -3.4417    3.2978    0.6911 C   0  0  0  0  0  0  0  0  0  0  0  0
   -3.2471    1.9304    0.9293 C   0  0  0  0  0  0  0  0  0  0  0  0
   -3.5649   -4.3103    1.3316 H   0  0  0  0  0  0  0  0  0  0  0  0
   -5.8010   -3.2480    0.8608 H   0  0  0  0  0  0  0  0  0  0  0  0
   -5.9096   -0.8035    0.3266 H   0  0  0  0  0  0  0  0  0  0  0  0
   -0.5608   -2.5135    2.0469 H   0  0  0  0  0  0  0  0  0  0  0  0
   -1.1835   -4.1235    1.5816 H   0  0  0  0  0  0  0  0  0  0  0  0
   -0.6077   -3.6961   -0.8104 H   0  0  0  0  0  0  0  0  0  0  0  0
    1.8293   -3.1565   -0.7638 H   0  0  0  0  0  0  0  0  0  0  0  0
    1.6318   -2.4894    0.9534 H   0  0  0  0  0  0  0  0  0  0  0  0
   -5.2044    0.6599   -1.5740 H   0  0  0  0  0  0  0  0  0  0  0  0
   -5.5166    3.0976   -2.0275 H   0  0  0  0  0  0  0  0  0  0  0  0
   -4.4038    4.8034   -0.5575 H   0  0  0  0  0  0  0  0  0  0  0  0
   -2.9543    4.0357    1.3470 H   0  0  0  0  0  0  0  0  0  0  0  0
   -2.6058    1.5990    1.7577 H   0  0  0  0  0  0  0  0  0  0  0  0
  1  2  1  0  0  0  0
  2  3  1  0  0  0  0
  3  4  2  0  0  0  0
  3  8  1  0  0  0  0
  4 17  1  0  0  0  0
  5 18  1  0  0  0  0
  5  4  1  0  0  0  0
  6  5  2  0  0  0  0
  7  6  1  0  0  0  0
  7  2  2  0  0  0  0
  8 21  1  0  0  0  0
  8 20  1  0  0  0  0
  9  8  1  0  0  0  0
 10  9  1  0  0  0  0
 10 24  1  0  0  0  0
 11  7  1  0  0  0  0
 11 16  1  0  0  0  0
 12 11  2  0  0  0  0
 13 12  1  0  0  0  0
 13 14  2  0  0  0  0
 14 15  1  0  0  0  0
 15 16  2  0  0  0  0
 15 28  1  0  0  0  0
 16 29  1  0  0  0  0
 19  6  1  0  0  0  0
 22  9  1  0  0  0  0
 23 10  1  0  0  0  0
 25 12  1  0  0  0  0
 26 13  1  0  0  0  0
 27 14  1  0  0  0  0
M  CHG  1   1  -1
M  END
