1,13
 OpenBabel05122313053D

 30 30  0  0  0  0  0  0  0  0999 V2000
    0.1316   -1.1901    0.5494 O   0  5  0  0  0  0  0  0  0  0  0  0
    1.7731   -1.8659    1.9037 O   0  0  0  0  0  0  0  0  0  0  0  0
    1.4178   -1.3510    0.8574 C   0  0  0  0  0  0  0  0  0  0  0  0
    2.3953   -0.8387   -0.2254 C   0  0  0  0  0  0  0  0  0  0  0  0
    2.3453    0.7563   -0.1610 C   0  0  0  0  0  0  0  0  0  0  0  0
    1.9655   -1.3869   -1.5996 C   0  0  0  0  0  0  0  0  0  0  0  0
    3.7966   -1.3815    0.0991 C   0  0  0  0  0  0  0  0  0  0  0  0
    2.9727    1.2406    1.1634 C   0  0  0  0  0  0  0  0  0  0  0  0
    3.1448    1.3840   -1.3244 C   0  0  0  0  0  0  0  0  0  0  0  0
    0.9154    1.2951   -0.2497 C   0  0  0  0  0  0  0  0  0  0  0  0
    0.1046    1.4037   -1.4254 C   0  0  0  0  0  0  0  0  0  0  0  0
   -1.0813    2.1328   -1.1000 C   0  0  0  0  0  0  0  0  0  0  0  0
   -1.0474    2.4200    0.2847 C   0  0  0  0  0  3  0  0  0  0  0  0
    0.1715    1.8900    0.8101 C   0  0  0  0  0  0  0  0  0  0  0  0
    2.7095   -1.1313   -2.3794 H   0  0  0  0  0  0  0  0  0  0  0  0
    1.8992   -2.4928   -1.5590 H   0  0  0  0  0  0  0  0  0  0  0  0
    0.9777   -1.0084   -1.9172 H   0  0  0  0  0  0  0  0  0  0  0  0
    3.8085   -2.4798   -0.0442 H   0  0  0  0  0  0  0  0  0  0  0  0
    4.5647   -0.9457   -0.5699 H   0  0  0  0  0  0  0  0  0  0  0  0
    4.0771   -1.1970    1.1504 H   0  0  0  0  0  0  0  0  0  0  0  0
    4.0575    1.0275    1.1832 H   0  0  0  0  0  0  0  0  0  0  0  0
    2.8466    2.3357    1.2703 H   0  0  0  0  0  0  0  0  0  0  0  0
    2.5190    0.7484    2.0457 H   0  0  0  0  0  0  0  0  0  0  0  0
    2.7340    1.1213   -2.3174 H   0  0  0  0  0  0  0  0  0  0  0  0
    4.2040    1.0610   -1.2963 H   0  0  0  0  0  0  0  0  0  0  0  0
    3.1268    2.4889   -1.2384 H   0  0  0  0  0  0  0  0  0  0  0  0
    0.3787    1.0609   -2.4287 H   0  0  0  0  0  0  0  0  0  0  0  0
   -1.8678    2.4210   -1.8051 H   0  0  0  0  0  0  0  0  0  0  0  0
   -1.8288    2.9173    0.8689 H   0  0  0  0  0  0  0  0  0  0  0  0
    0.4573    1.9110    1.8659 H   0  0  0  0  0  0  0  0  0  0  0  0
  1  3  1  0  0  0  0
  3  2  2  0  0  0  0
  4  5  1  0  0  0  0
  4  7  1  0  0  0  0
  4  3  1  0  0  0  0
  5  8  1  0  0  0  0
  6 16  1  0  0  0  0
  6  4  1  0  0  0  0
  7 20  1  0  0  0  0
  8 21  1  0  0  0  0
  8 22  1  0  0  0  0
  8 23  1  0  0  0  0
  9 25  1  0  0  0  0
  9 26  1  0  0  0  0
  9  5  1  0  0  0  0
 10  5  1  0  0  0  0
 10 14  2  0  0  0  0
 11 12  2  0  0  0  0
 11 10  1  0  0  0  0
 12 13  1  0  0  0  0
 13 14  1  0  0  0  0
 13 29  1  0  0  0  0
 14 30  1  0  0  0  0
 15  6  1  0  0  0  0
 17  6  1  0  0  0  0
 18  7  1  0  0  0  0
 19  7  1  0  0  0  0
 24  9  1  0  0  0  0
 27 11  1  0  0  0  0
 28 12  1  0  0  0  0
M  CHG  1   1  -1
M  END
