1,2
 OpenBabel05122313053D

 10  9  0  0  0  0  0  0  0  0999 V2000
   -0.9838    1.7668    0.8144 O   0  5  0  0  0  0  0  0  0  0  0  0
   -1.1610    0.9835   -1.6018 C   0  0  0  0  0  2  0  0  0  0  0  0
   -1.2883    0.6226   -2.6425 H   0  0  0  0  0  0  0  0  0  0  0  0
   -1.2085    2.3721   -1.4026 C   0  0  0  0  0  0  0  0  0  0  0  0
   -1.3428    3.1231   -2.1975 H   0  0  0  0  0  0  0  0  0  0  0  0
   -1.0863    2.7301   -0.0394 C   0  0  0  0  0  0  0  0  0  0  0  0
   -1.0430    4.1360    0.4910 C   0  0  0  0  0  0  0  0  0  0  0  0
   -1.3539    4.8717   -0.2741 H   0  0  0  0  0  0  0  0  0  0  0  0
   -0.0132    4.3887    0.8211 H   0  0  0  0  0  0  0  0  0  0  0  0
   -1.6967    4.2293    1.3812 H   0  0  0  0  0  0  0  0  0  0  0  0
  2  4  1  0  0  0  0
  3  2  1  0  0  0  0
  4  6  2  0  0  0  0
  5  4  1  0  0  0  0
  6  7  1  0  0  0  0
  6  1  1  0  0  0  0
  7  9  1  0  0  0  0
  7 10  1  0  0  0  0
  8  7  1  0  0  0  0
M  CHG  1   1  -1
M  END
