1,5
 OpenBabel05122313053D

 20 19  0  0  0  0  0  0  0  0999 V2000
   -0.5858   -0.5459    0.0631 O   0  5  0  0  0  0  0  0  0  0  0  0
   -2.5537    0.6047   -0.1641 O   0  0  0  0  0  0  0  0  0  0  0  0
    1.7012    2.5854   -0.3140 F   0  0  0  0  0  0  0  0  0  0  0  0
   -1.1046    2.9342   -0.4834 F   0  0  0  0  0  0  0  0  0  0  0  0
    0.8746    1.5397   -0.1732 C   0  0  0  0  0  2  0  0  0  0  0  0
   -0.4849    1.7547   -0.2773 C   0  0  0  0  0  0  0  0  0  0  0  0
   -1.2292    0.5353   -0.1174 C   0  0  0  0  0  0  0  0  0  0  0  0
   -3.4168   -0.5874    0.0063 C   0  0  0  0  0  0  0  0  0  0  0  0
   -3.1354   -1.5907   -1.1165 C   0  0  0  0  0  0  0  0  0  0  0  0
   -2.1164   -2.0097   -1.0306 H   0  0  0  0  0  0  0  0  0  0  0  0
   -3.2436   -1.1032   -2.1057 H   0  0  0  0  0  0  0  0  0  0  0  0
   -3.8669   -2.4212   -1.0608 H   0  0  0  0  0  0  0  0  0  0  0  0
   -4.8223    0.0011   -0.1224 C   0  0  0  0  0  0  0  0  0  0  0  0
   -4.9968    0.7652    0.6598 H   0  0  0  0  0  0  0  0  0  0  0  0
   -5.5801   -0.7985   -0.0112 H   0  0  0  0  0  0  0  0  0  0  0  0
   -4.9552    0.4796   -1.1123 H   0  0  0  0  0  0  0  0  0  0  0  0
   -3.1955   -1.1875    1.3980 C   0  0  0  0  0  0  0  0  0  0  0  0
   -2.1750   -1.5991    1.5002 H   0  0  0  0  0  0  0  0  0  0  0  0
   -3.9268   -2.0025    1.5679 H   0  0  0  0  0  0  0  0  0  0  0  0
   -3.3514   -0.4174    2.1791 H   0  0  0  0  0  0  0  0  0  0  0  0
  2  7  1  0  0  0  0
  2  8  1  0  0  0  0
  3  5  1  0  0  0  0
  4  6  1  0  0  0  0
  6  5  1  0  0  0  0
  6  7  2  0  0  0  0
  7  1  1  0  0  0  0
  8 17  1  0  0  0  0
  9 12  1  0  0  0  0
  9 10  1  0  0  0  0
  9  8  1  0  0  0  0
 11  9  1  0  0  0  0
 13 15  1  0  0  0  0
 13  8  1  0  0  0  0
 13 14  1  0  0  0  0
 16 13  1  0  0  0  0
 17 18  1  0  0  0  0
 17 19  1  0  0  0  0
 17 20  1  0  0  0  0
M  CHG  1   1  -1
M  END
