1,14
 OpenBabel05122313053D

 25 25  0  0  1  0  0  0  0  0999 V2000
   -1.1425   -0.4690   -1.5192 C   0  0  0  0  0  2  0  0  0  0  0  0
   -1.2538   -1.3830   -2.1445 H   0  0  0  0  0  0  0  0  0  0  0  0
   -2.3620    0.3200   -1.4131 C   0  0  0  0  0  0  0  0  0  0  0  0
   -3.5346   -0.2169   -2.0076 C   0  0  0  0  0  0  0  0  0  0  0  0
   -3.4528   -1.1888   -2.5162 H   0  0  0  0  0  0  0  0  0  0  0  0
   -4.7585    0.4534   -1.9649 C   0  0  0  0  0  0  0  0  0  0  0  0
   -5.6421    0.0111   -2.4500 H   0  0  0  0  0  0  0  0  0  0  0  0
   -4.8591    1.6959   -1.3108 C   0  0  0  0  0  0  0  0  0  0  0  0
   -5.8205    2.2292   -1.2726 H   0  0  0  0  0  0  0  0  0  0  0  0
   -3.7227    2.2604   -0.7260 C   0  0  0  0  0  0  0  0  0  0  0  0
   -3.7781    3.2368   -0.2264 H   0  0  0  0  0  0  0  0  0  0  0  0
   -2.4773    1.5948   -0.7714 C   0  0  0  0  0  0  0  0  0  0  0  0
   -1.3023    2.2191   -0.1550 C   0  0  2  0  0  3  0  0  0  0  0  0
   -0.1736    1.6926   -0.0674 O   0  0  0  0  0  1  0  0  0  0  0  0
   -1.5219    3.4376    0.3581 O   0  0  0  0  0  0  0  0  0  0  0  0
   -0.3930    4.1794    0.9183 C   0  0  0  0  0  0  0  0  0  0  0  0
    0.5206    3.8234    0.3991 H   0  0  0  0  0  0  0  0  0  0  0  0
   -0.6515    5.6428    0.5969 C   0  0  0  0  0  0  0  0  0  0  0  0
   -0.7324    5.7964   -0.4964 H   0  0  0  0  0  0  0  0  0  0  0  0
    0.1837    6.2650    0.9742 H   0  0  0  0  0  0  0  0  0  0  0  0
   -1.5892    5.9935    1.0736 H   0  0  0  0  0  0  0  0  0  0  0  0
   -0.2938    3.8836    2.4094 C   0  0  0  0  0  0  0  0  0  0  0  0
   -0.1297    2.8048    2.5912 H   0  0  0  0  0  0  0  0  0  0  0  0
   -1.2194    4.1965    2.9336 H   0  0  0  0  0  0  0  0  0  0  0  0
    0.5603    4.4360    2.8491 H   0  0  0  0  0  0  0  0  0  0  0  0
  1  3  1  0  0  0  0
  2  1  1  0  0  0  0
  3 12  1  0  0  0  0
  4  6  1  0  0  0  0
  4  3  2  0  0  0  0
  5  4  1  0  0  0  0
  6  8  2  0  0  0  0
  7  6  1  0  0  0  0
  8  9  1  0  0  0  0
  8 10  1  0  0  0  0
 10 11  1  0  0  0  0
 12 10  2  0  0  0  0
 12 13  1  0  0  0  0
 13 14  1  1  0  0  0
 13 15  1  0  0  0  0
 15 16  1  0  0  0  0
 16 22  1  0  0  0  0
 17 16  1  0  0  0  0
 18 16  1  0  0  0  0
 18 20  1  0  0  0  0
 18 21  1  0  0  0  0
 19 18  1  0  0  0  0
 22 23  1  0  0  0  0
 22 25  1  0  0  0  0
 22 24  1  0  0  0  0
M  END
