19,29
 OpenBabel05122313053D

 33 34  0  0  1  0  0  0  0  0999 V2000
    3.5506    1.9048    0.1143 C   0  0  0  0  0  0  0  0  0  0  0  0
    2.1699    2.2287    0.1806 N   0  0  0  0  0  0  0  0  0  0  0  0
    1.1614    1.2911    0.0057 C   0  0  0  0  0  0  0  0  0  0  0  0
    1.4459   -0.0475   -0.2443 C   0  0  0  0  0  0  0  0  0  0  0  0
    2.8123   -0.4832   -0.3100 C   0  0  0  0  0  0  0  0  0  0  0  0
    3.1957   -1.8393   -0.5278 C   0  0  0  0  0  0  0  0  0  0  0  0
    2.4132   -2.5982   -0.6718 H   0  0  0  0  0  0  0  0  0  0  0  0
    4.5407   -2.2004   -0.5754 C   0  0  0  0  0  0  0  0  0  0  0  0
    4.8096   -3.2553   -0.7442 H   0  0  0  0  0  0  0  0  0  0  0  0
    5.5606   -1.2345   -0.4135 C   0  0  0  0  0  0  0  0  0  0  0  0
    6.6190   -1.5321   -0.4564 H   0  0  0  0  0  0  0  0  0  0  0  0
    5.2090    0.0972   -0.1974 C   0  0  0  0  0  0  0  0  0  0  0  0
    5.9643    0.8854   -0.0603 H   0  0  0  0  0  0  0  0  0  0  0  0
    3.8529    0.4857   -0.1403 C   0  0  0  0  0  0  0  0  0  0  0  0
    1.8015    3.6138    0.4380 C   0  0  0  0  0  0  0  0  0  0  0  0
    2.7462    4.1809    0.5170 H   0  0  0  0  0  0  0  0  0  0  0  0
    1.2220    3.6970    1.3791 H   0  0  0  0  0  0  0  0  0  0  0  0
    1.1778    4.0123   -0.3868 H   0  0  0  0  0  0  0  0  0  0  0  0
    0.2700   -0.9876   -0.2890 C   0  0  2  0  0  3  0  0  0  0  0  0
    0.0887   -1.8715    0.9185 C   0  0  0  0  0  0  0  0  0  0  0  0
    0.3784   -2.0318    3.2520 C   0  0  0  0  0  0  0  0  0  0  0  0
   -0.6972   -2.0908    3.5234 H   0  0  0  0  0  0  0  0  0  0  0  0
    0.9337   -1.4885    4.0373 H   0  0  0  0  0  0  0  0  0  0  0  0
    0.7662   -3.0646    3.1451 H   0  0  0  0  0  0  0  0  0  0  0  0
    0.3723   -1.1533   -2.6603 C   0  0  0  0  0  0  0  0  0  0  0  0
   -0.3868   -0.3435   -2.7803 H   0  0  0  0  0  0  0  0  0  0  0  0
    0.2318   -1.9150   -3.4515 H   0  0  0  0  0  0  0  0  0  0  0  0
    1.3821   -0.7002   -2.7600 H   0  0  0  0  0  0  0  0  0  0  0  0
   -0.0713    1.7377    0.1002 O   0  5  0  0  0  0  0  0  0  0  0  0
    4.4049    2.7841    0.2664 O   0  0  0  0  0  0  0  0  0  0  0  0
   -0.4453   -2.9781    0.9220 O   0  0  0  0  0  0  0  0  0  0  0  0
    0.5654   -1.2872    2.0492 O   0  0  0  0  0  0  0  0  0  0  0  0
    0.2100   -1.8203   -1.4215 O   0  0  0  0  0  0  0  0  0  0  0  0
  1  2  1  0  0  0  0
  1 30  2  0  0  0  0
  2 15  1  0  0  0  0
  3 29  1  0  0  0  0
  3  2  1  0  0  0  0
  4  3  2  0  0  0  0
  5  4  1  0  0  0  0
  5 14  1  0  0  0  0
  6  5  2  0  0  0  0
  7  6  1  0  0  0  0
  8  6  1  0  0  0  0
  8 10  2  0  0  0  0
  9  8  1  0  0  0  0
 10 12  1  0  0  0  0
 11 10  1  0  0  0  0
 12 14  2  0  0  0  0
 12 13  1  0  0  0  0
 14  1  1  0  0  0  0
 15 16  1  0  0  0  0
 15 17  1  0  0  0  0
 18 15  1  0  0  0  0
 19 33  1  6  0  0  0
 19  4  1  0  0  0  0
 19 20  1  0  0  0  0
 20 31  2  0  0  0  0
 20 32  1  0  0  0  0
 21 22  1  0  0  0  0
 21 23  1  0  0  0  0
 24 21  1  0  0  0  0
 25 33  1  0  0  0  0
 26 25  1  0  0  0  0
 27 25  1  0  0  0  0
 28 25  1  0  0  0  0
 32 21  1  0  0  0  0
M  CHG  1  29  -1
M  END
