1,3
 OpenBabel05122313053D

 61 65  0  0  0  0  0  0  0  0999 V2000
   -0.1517    1.2180   -0.5156 O   0  5  0  0  0  0  0  0  0  0  0  0
   -0.1708    0.4449    0.5475 C   0  0  0  0  0  0  0  0  0  0  0  0
   -1.5746    0.1242    0.9497 C   0  0  0  0  0  3  0  0  0  0  0  0
    0.9660   -0.1122    1.1143 C   0  0  0  0  0  0  0  0  0  0  0  0
    2.5510    0.1894    0.4326 P   0  0  0  0  0  4  0  0  0  0  0  0
    3.0468    1.9389    0.5994 C   0  0  0  0  0  0  0  0  0  0  0  0
    2.4115    2.7333    1.5728 C   0  0  0  0  0  0  0  0  0  0  0  0
    2.7990    4.0705    1.7393 C   0  0  0  0  0  0  0  0  0  0  0  0
    3.8184    4.6128    0.9397 C   0  0  0  0  0  0  0  0  0  0  0  0
    4.4516    3.8197   -0.0313 C   0  0  0  0  0  0  0  0  0  0  0  0
    4.0670    2.4825   -0.2075 C   0  0  0  0  0  0  0  0  0  0  0  0
    2.8219   -0.2195   -1.3330 C   0  0  0  0  0  0  0  0  0  0  0  0
    3.6972   -1.2657   -1.6963 C   0  0  0  0  0  0  0  0  0  0  0  0
    3.9432   -1.5318   -3.0520 C   0  0  0  0  0  0  0  0  0  0  0  0
    3.3168   -0.7631   -4.0446 C   0  0  0  0  0  0  0  0  0  0  0  0
    2.4404    0.2743   -3.6828 C   0  0  0  0  0  0  0  0  0  0  0  0
    2.1965    0.5598   -2.3317 C   0  0  0  0  0  0  0  0  0  0  0  0
    3.7081   -0.8336    1.3965 C   0  0  0  0  0  0  0  0  0  0  0  0
    3.3599   -2.1777    1.6543 C   0  0  0  0  0  0  0  0  0  0  0  0
    4.2460   -2.9992    2.3648 C   0  0  0  0  0  0  0  0  0  0  0  0
    5.4729   -2.4871    2.8186 C   0  0  0  0  0  0  0  0  0  0  0  0
    5.8170   -1.1507    2.5620 C   0  0  0  0  0  0  0  0  0  0  0  0
    4.9384   -0.3205    1.8497 C   0  0  0  0  0  0  0  0  0  0  0  0
   -2.4698    1.3150    1.1874 C   0  0  0  0  0  0  0  0  0  0  0  0
   -3.8653    1.0989    1.3797 C   0  0  0  0  0  0  0  0  0  0  0  0
   -4.7445    2.1747    1.5391 C   0  0  0  0  0  0  0  0  0  0  0  0
   -4.2608    3.4924    1.5210 C   0  0  0  0  0  0  0  0  0  0  0  0
   -2.8857    3.7260    1.3548 C   0  0  0  0  0  0  0  0  0  0  0  0
   -2.0003    2.6573    1.1900 C   0  0  0  0  0  0  0  0  0  0  0  0
   -1.8040   -1.1156    1.7552 C   0  0  0  0  0  0  0  0  0  0  0  0
   -2.2161   -1.0351    3.1036 C   0  0  0  0  0  0  0  0  0  0  0  0
   -2.3684   -2.1949    3.8764 C   0  0  0  0  0  0  0  0  0  0  0  0
   -2.1113   -3.4564    3.3165 C   0  0  0  0  0  0  0  0  0  0  0  0
   -1.6994   -3.5494    1.9782 C   0  0  0  0  0  0  0  0  0  0  0  0
   -1.5463   -2.3904    1.2055 C   0  0  0  0  0  0  0  0  0  0  0  0
    0.8984   -0.7574    1.9994 H   0  0  0  0  0  0  0  0  0  0  0  0
    1.6056    2.2969    2.1834 H   0  0  0  0  0  0  0  0  0  0  0  0
    2.2972    4.6945    2.4939 H   0  0  0  0  0  0  0  0  0  0  0  0
    4.1169    5.6641    1.0688 H   0  0  0  0  0  0  0  0  0  0  0  0
    5.2444    4.2475   -0.6630 H   0  0  0  0  0  0  0  0  0  0  0  0
    4.5495    1.8651   -0.9804 H   0  0  0  0  0  0  0  0  0  0  0  0
    4.1876   -1.8750   -0.9241 H   0  0  0  0  0  0  0  0  0  0  0  0
    4.6133   -2.3569   -3.3307 H   0  0  0  0  0  0  0  0  0  0  0  0
    3.4971   -0.9861   -5.1064 H   0  0  0  0  0  0  0  0  0  0  0  0
    1.9370    0.8692   -4.4593 H   0  0  0  0  0  0  0  0  0  0  0  0
    1.5057    1.3636   -2.0416 H   0  0  0  0  0  0  0  0  0  0  0  0
    2.4001   -2.5806    1.2949 H   0  0  0  0  0  0  0  0  0  0  0  0
    3.9744   -4.0463    2.5648 H   0  0  0  0  0  0  0  0  0  0  0  0
    6.1645   -3.1348    3.3781 H   0  0  0  0  0  0  0  0  0  0  0  0
    6.7755   -0.7478    2.9216 H   0  0  0  0  0  0  0  0  0  0  0  0
    5.2050    0.7286    1.6534 H   0  0  0  0  0  0  0  0  0  0  0  0
   -4.2601    0.0712    1.4092 H   0  0  0  0  0  0  0  0  0  0  0  0
   -5.8182    1.9756    1.6706 H   0  0  0  0  0  0  0  0  0  0  0  0
   -4.9558    4.3383    1.6328 H   0  0  0  0  0  0  0  0  0  0  0  0
   -2.4990    4.7559    1.3395 H   0  0  0  0  0  0  0  0  0  0  0  0
   -0.9339    2.8572    1.0193 H   0  0  0  0  0  0  0  0  0  0  0  0
   -2.4200   -0.0492    3.5480 H   0  0  0  0  0  0  0  0  0  0  0  0
   -2.6958   -2.1119    4.9241 H   0  0  0  0  0  0  0  0  0  0  0  0
   -2.2457   -4.3673    3.9191 H   0  0  0  0  0  0  0  0  0  0  0  0
   -1.2357   -2.4709    0.1535 H   0  0  0  0  0  0  0  0  0  0  0  0
   -1.5197   -4.5327    1.5194 H   0  0  0  0  0  0  0  0  0  0  0  0
  1  2  1  0  0  0  0
  2  3  1  0  0  0  0
  2  4  2  0  0  0  0
  3 24  1  0  0  0  0
  3 30  1  0  0  0  0
  4 36  1  0  0  0  0
  5  6  1  0  0  0  0
  5  4  1  0  0  0  0
  5 18  1  0  0  0  0
  6  7  1  0  0  0  0
  7  8  2  0  0  0  0
  7 37  1  0  0  0  0
  8 38  1  0  0  0  0
  9 39  1  0  0  0  0
  9  8  1  0  0  0  0
 10  9  2  0  0  0  0
 11 10  1  0  0  0  0
 11  6  2  0  0  0  0
 12  5  1  0  0  0  0
 13 12  1  0  0  0  0
 13 42  1  0  0  0  0
 14 13  2  0  0  0  0
 15 16  2  0  0  0  0
 15 14  1  0  0  0  0
 16 17  1  0  0  0  0
 17 46  1  0  0  0  0
 17 12  2  0  0  0  0
 18 19  2  0  0  0  0
 18 23  1  0  0  0  0
 19 20  1  0  0  0  0
 20 48  1  0  0  0  0
 20 21  2  0  0  0  0
 21 49  1  0  0  0  0
 22 21  1  0  0  0  0
 22 50  1  0  0  0  0
 23 22  2  0  0  0  0
 24 29  2  0  0  0  0
 24 25  1  0  0  0  0
 25 52  1  0  0  0  0
 25 26  2  0  0  0  0
 26 53  1  0  0  0  0
 27 26  1  0  0  0  0
 27 54  1  0  0  0  0
 28 27  2  0  0  0  0
 29 28  1  0  0  0  0
 30 31  1  0  0  0  0
 31 57  1  0  0  0  0
 31 32  2  0  0  0  0
 32 58  1  0  0  0  0
 33 32  1  0  0  0  0
 33 59  1  0  0  0  0
 34 33  2  0  0  0  0
 35 30  2  0  0  0  0
 35 34  1  0  0  0  0
 40 10  1  0  0  0  0
 41 11  1  0  0  0  0
 43 14  1  0  0  0  0
 44 15  1  0  0  0  0
 45 16  1  0  0  0  0
 47 19  1  0  0  0  0
 51 23  1  0  0  0  0
 55 28  1  0  0  0  0
 56 29  1  0  0  0  0
 60 35  1  0  0  0  0
 61 34  1  0  0  0  0
M  CHG  1   1  -1
M  END
