2,5
 OpenBabel05122313053D

 24 23  0  0  0  0  0  0  0  0999 V2000
    3.8594    0.0006    0.4960 Si  0  0  0  0  0  0  0  0  0  0  0  0
    1.0333    0.0002    0.5435 C   0  0  0  0  0  2  0  0  0  0  0  0
    0.9496    0.0003    1.9494 C   0  0  0  0  0  0  0  0  0  0  0  0
   -0.3978    0.0000    2.3895 C   0  0  0  0  0  0  0  0  0  0  0  0
   -1.3489   -0.0002    1.5493 O   0  5  0  0  0  0  0  0  0  0  0  0
   -0.6633   -0.0000    3.7116 O   0  0  0  0  0  0  0  0  0  0  0  0
   -2.0490   -0.0003    4.0715 C   0  0  0  0  0  0  0  0  0  0  0  0
    2.2284    0.0004   -0.0765 O   0  0  0  0  0  0  0  0  0  0  0  0
    4.8438    0.0011   -1.1011 C   0  0  0  0  0  0  0  0  0  0  0  0
    4.1817   -1.5644    1.4931 C   0  0  0  0  0  0  0  0  0  0  0  0
    4.1814    1.5653    1.4936 C   0  0  0  0  0  0  0  0  0  0  0  0
    1.7901    0.0005    2.6577 H   0  0  0  0  0  0  0  0  0  0  0  0
   -2.0752    0.0002    5.1760 H   0  0  0  0  0  0  0  0  0  0  0  0
   -2.5665   -0.8978    3.6756 H   0  0  0  0  0  0  0  0  0  0  0  0
   -2.5671    0.8967    3.6749 H   0  0  0  0  0  0  0  0  0  0  0  0
    4.6041    0.8977   -1.7074 H   0  0  0  0  0  0  0  0  0  0  0  0
    4.6036   -0.8950   -1.7081 H   0  0  0  0  0  0  0  0  0  0  0  0
    5.9344    0.0007   -0.8992 H   0  0  0  0  0  0  0  0  0  0  0  0
    3.9816   -2.4628    0.8746 H   0  0  0  0  0  0  0  0  0  0  0  0
    3.5480   -1.6237    2.3995 H   0  0  0  0  0  0  0  0  0  0  0  0
    5.2435   -1.6028    1.8138 H   0  0  0  0  0  0  0  0  0  0  0  0
    3.9791    2.4639    0.8762 H   0  0  0  0  0  0  0  0  0  0  0  0
    5.2438    1.6048    1.8124 H   0  0  0  0  0  0  0  0  0  0  0  0
    3.5493    1.6232    2.4013 H   0  0  0  0  0  0  0  0  0  0  0  0
  1 10  1  0  0  0  0
  1 11  1  0  0  0  0
  2  3  1  0  0  0  0
  3  4  2  0  0  0  0
  3 12  1  0  0  0  0
  4  6  1  0  0  0  0
  5  4  1  0  0  0  0
  6  7  1  0  0  0  0
  7 13  1  0  0  0  0
  8  1  1  0  0  0  0
  8  2  1  0  0  0  0
  9 18  1  0  0  0  0
  9  1  1  0  0  0  0
 10 21  1  0  0  0  0
 10 20  1  0  0  0  0
 11 23  1  0  0  0  0
 11 24  1  0  0  0  0
 14  7  1  0  0  0  0
 15  7  1  0  0  0  0
 16  9  1  0  0  0  0
 17  9  1  0  0  0  0
 19 10  1  0  0  0  0
 22 11  1  0  0  0  0
M  CHG  1   5  -1
M  END
