1,5
 OpenBabel05122313053D

 15 14  0  0  1  0  0  0  0  0999 V2000
    1.4791    1.1949    1.4558 O   0  0  0  0  0  1  0  0  0  0  0  0
    2.1342   -0.2725    3.1000 O   0  0  0  0  0  0  0  0  0  0  0  0
    1.1496    0.3306    2.3849 C   0  0  2  0  0  3  0  0  0  0  0  0
   -0.1949   -0.0422    2.5524 C   0  0  2  0  0  3  0  0  0  0  0  0
   -1.1963    0.8981    1.9898 C   0  0  0  0  0  3  0  0  0  0  0  0
    3.4070    0.3731    3.0803 C   0  0  0  0  0  0  0  0  0  0  0  0
   -0.5577   -1.2951    3.3047 C   0  0  0  0  0  0  0  0  0  0  0  0
   -1.0360    1.9536    2.2901 H   0  0  0  0  0  0  0  0  0  0  0  0
   -2.2416    0.5986    2.1635 H   0  0  0  0  0  0  0  0  0  0  0  0
    3.7711    0.5416    2.0472 H   0  0  0  0  0  0  0  0  0  0  0  0
    3.3590    1.3533    3.6019 H   0  0  0  0  0  0  0  0  0  0  0  0
    4.1002   -0.2976    3.6197 H   0  0  0  0  0  0  0  0  0  0  0  0
    0.2782   -1.6244    3.9510 H   0  0  0  0  0  0  0  0  0  0  0  0
   -1.4524   -1.1347    3.9396 H   0  0  0  0  0  0  0  0  0  0  0  0
   -0.7822   -2.1286    2.6034 H   0  0  0  0  0  0  0  0  0  0  0  0
  3  1  1  6  0  0  0
  3  4  1  0  0  0  0
  3  2  1  0  0  0  0
  4  5  1  1  0  0  0
  4  7  1  0  0  0  0
  5  9  1  0  0  0  0
  5  8  1  0  0  0  0
  6  2  1  0  0  0  0
  6 11  1  0  0  0  0
  6 12  1  0  0  0  0
  7 14  1  0  0  0  0
  7 13  1  0  0  0  0
 10  6  1  0  0  0  0
 15  7  1  0  0  0  0
M  END
