2,5
 OpenBabel05122313053D

 47 49  0  0  0  0  0  0  0  0999 V2000
   -3.2036    0.1985    0.0959 P   0  0  0  0  0  4  0  0  0  0  0  0
    1.5963   -1.8162   -1.5305 O   0  0  0  0  0  1  0  0  0  0  0  0
   -1.4921   -0.0550    0.4089 C   0  0  0  0  0  3  0  0  0  0  0  0
   -1.2241    0.1749    1.4522 H   0  0  0  0  0  0  0  0  0  0  0  0
   -0.6014   -0.7228   -0.4175 C   0  0  0  0  0  2  0  0  0  0  0  0
   -1.0177   -1.0816   -1.8298 C   0  0  0  0  0  0  0  0  0  0  0  0
   -2.0173   -0.6653   -2.0811 H   0  0  0  0  0  0  0  0  0  0  0  0
   -1.1266   -2.1898   -1.8725 H   0  0  0  0  0  0  0  0  0  0  0  0
   -0.0034   -0.6260   -2.8905 C   0  0  0  0  0  0  0  0  0  0  0  0
   -0.4521   -0.6896   -3.9040 H   0  0  0  0  0  0  0  0  0  0  0  0
    0.2566    0.4400   -2.7177 H   0  0  0  0  0  0  0  0  0  0  0  0
    1.2519   -1.5000   -2.8417 C   0  0  0  0  0  0  0  0  0  0  0  0
    1.0593   -2.4598   -3.3783 H   0  0  0  0  0  0  0  0  0  0  0  0
    2.1110   -1.0073   -3.3571 H   0  0  0  0  0  0  0  0  0  0  0  0
   -4.0427   -1.3219   -0.4782 C   0  0  0  0  0  0  0  0  0  0  0  0
   -3.4835   -2.5562   -0.0848 C   0  0  0  0  0  0  0  0  0  0  0  0
   -2.5360   -2.5976    0.4802 H   0  0  0  0  0  0  0  0  0  0  0  0
   -4.1095   -3.7505   -0.4705 C   0  0  0  0  0  0  0  0  0  0  0  0
   -3.6528   -4.7079   -0.1778 H   0  0  0  0  0  0  0  0  0  0  0  0
   -5.2851   -3.7201   -1.2368 C   0  0  0  0  0  0  0  0  0  0  0  0
   -5.7700   -4.6606   -1.5403 H   0  0  0  0  0  0  0  0  0  0  0  0
   -5.8358   -2.4893   -1.6322 C   0  0  0  0  0  0  0  0  0  0  0  0
   -6.7494   -2.4633   -2.2451 H   0  0  0  0  0  0  0  0  0  0  0  0
   -5.2165   -1.2879   -1.2585 C   0  0  0  0  0  0  0  0  0  0  0  0
   -5.6387   -0.3282   -1.5904 H   0  0  0  0  0  0  0  0  0  0  0  0
   -3.9578    0.6746    1.6839 C   0  0  0  0  0  0  0  0  0  0  0  0
   -3.5664    1.9008    2.2627 C   0  0  0  0  0  0  0  0  0  0  0  0
   -2.8555    2.5553    1.7347 H   0  0  0  0  0  0  0  0  0  0  0  0
   -4.0851    2.2782    3.5082 C   0  0  0  0  0  0  0  0  0  0  0  0
   -3.7764    3.2316    3.9626 H   0  0  0  0  0  0  0  0  0  0  0  0
   -4.9964    1.4413    4.1744 C   0  0  0  0  0  0  0  0  0  0  0  0
   -5.4022    1.7403    5.1526 H   0  0  0  0  0  0  0  0  0  0  0  0
   -5.3880    0.2243    3.5954 C   0  0  0  0  0  0  0  0  0  0  0  0
   -6.0993   -0.4327    4.1178 H   0  0  0  0  0  0  0  0  0  0  0  0
   -4.8695   -0.1648    2.3505 C   0  0  0  0  0  0  0  0  0  0  0  0
   -5.1668   -1.1229    1.8988 H   0  0  0  0  0  0  0  0  0  0  0  0
   -3.6333    1.5562   -1.0567 C   0  0  0  0  0  0  0  0  0  0  0  0
   -2.6613    2.0460   -1.9480 C   0  0  0  0  0  0  0  0  0  0  0  0
   -1.6375    1.6464   -1.9173 H   0  0  0  0  0  0  0  0  0  0  0  0
   -2.9928    3.0734   -2.8441 C   0  0  0  0  0  0  0  0  0  0  0  0
   -2.2272    3.4528   -3.5372 H   0  0  0  0  0  0  0  0  0  0  0  0
   -4.2832    3.6247   -2.8418 C   0  0  0  0  0  0  0  0  0  0  0  0
   -4.5385    4.4330   -3.5437 H   0  0  0  0  0  0  0  0  0  0  0  0
   -5.2454    3.1592   -1.9291 C   0  0  0  0  0  0  0  0  0  0  0  0
   -6.2508    3.6063   -1.9097 H   0  0  0  0  0  0  0  0  0  0  0  0
   -4.9237    2.1293   -1.0342 C   0  0  0  0  0  0  0  0  0  0  0  0
   -5.6706    1.7819   -0.3036 H   0  0  0  0  0  0  0  0  0  0  0  0
  1  3  1  0  0  0  0
  1 26  1  0  0  0  0
  3  4  1  0  0  0  0
  5  3  1  0  0  0  0
  6  5  1  0  0  0  0
  7  6  1  0  0  0  0
  8  6  1  0  0  0  0
  9 12  1  0  0  0  0
  9 11  1  0  0  0  0
  9  6  1  0  0  0  0
 10  9  1  0  0  0  0
 12  2  1  0  0  0  0
 13 12  1  0  0  0  0
 14 12  1  0  0  0  0
 15 16  1  0  0  0  0
 15  1  1  0  0  0  0
 16 17  1  0  0  0  0
 18 19  1  0  0  0  0
 18 16  2  0  0  0  0
 20 18  1  0  0  0  0
 21 20  1  0  0  0  0
 22 24  1  0  0  0  0
 22 20  2  0  0  0  0
 23 22  1  0  0  0  0
 24 15  2  0  0  0  0
 25 24  1  0  0  0  0
 26 27  2  0  0  0  0
 26 35  1  0  0  0  0
 27 29  1  0  0  0  0
 28 27  1  0  0  0  0
 29 30  1  0  0  0  0
 29 31  2  0  0  0  0
 31 32  1  0  0  0  0
 33 34  1  0  0  0  0
 33 31  1  0  0  0  0
 35 33  2  0  0  0  0
 36 35  1  0  0  0  0
 37 46  1  0  0  0  0
 37  1  1  0  0  0  0
 38 39  1  0  0  0  0
 38 37  2  0  0  0  0
 40 42  2  0  0  0  0
 40 38  1  0  0  0  0
 41 40  1  0  0  0  0
 42 44  1  0  0  0  0
 43 42  1  0  0  0  0
 44 45  1  0  0  0  0
 44 46  2  0  0  0  0
 46 47  1  0  0  0  0
M  END
