1,15
 OpenBabel05122313053D

 28 29  0  0  1  0  0  0  0  0999 V2000
   -1.9782    0.1754    1.2970 O   0  0  0  0  0  1  0  0  0  0  0  0
    1.7121   -3.0021    1.2388 C   0  0  0  0  0  0  0  0  0  0  0  0
    1.7909   -2.3648    2.1325 H   0  0  0  0  0  0  0  0  0  0  0  0
    2.7511   -3.8827    0.9145 C   0  0  0  0  0  0  0  0  0  0  0  0
    3.6405   -3.9358    1.5612 H   0  0  0  0  0  0  0  0  0  0  0  0
    2.6628   -4.6921   -0.2304 C   0  0  0  0  0  0  0  0  0  0  0  0
    3.4800   -5.3823   -0.4890 H   0  0  0  0  0  0  0  0  0  0  0  0
    1.5158   -4.6162   -1.0394 C   0  0  0  0  0  0  0  0  0  0  0  0
    1.4317   -5.2491   -1.9362 H   0  0  0  0  0  0  0  0  0  0  0  0
    0.4768   -3.7329   -0.7185 C   0  0  0  0  0  0  0  0  0  0  0  0
   -0.3997   -3.6738   -1.3800 H   0  0  0  0  0  0  0  0  0  0  0  0
    0.5582   -2.8969    0.4226 C   0  0  0  0  0  0  0  0  0  0  0  0
   -0.4682   -1.9055    0.7736 C   0  0  0  0  0  3  0  0  0  0  0  0
   -0.3141   -1.3985    1.7396 H   0  0  0  0  0  0  0  0  0  0  0  0
   -1.8235   -1.9289    0.3083 C   0  0  0  0  0  3  0  0  0  0  0  0
   -2.2253   -2.7244   -0.3355 H   0  0  0  0  0  0  0  0  0  0  0  0
   -2.6252   -0.7849    0.6747 C   0  0  1  0  0  3  0  0  0  0  0  0
   -4.0807   -0.6533    0.4042 C   0  0  0  0  0  0  0  0  0  0  0  0
   -4.8686   -1.7371   -0.0377 C   0  0  0  0  0  0  0  0  0  0  0  0
   -4.4120   -2.7269   -0.1850 H   0  0  0  0  0  0  0  0  0  0  0  0
   -6.2389   -1.5662   -0.2758 C   0  0  0  0  0  0  0  0  0  0  0  0
   -6.8439   -2.4188   -0.6200 H   0  0  0  0  0  0  0  0  0  0  0  0
   -6.8409   -0.3142   -0.0683 C   0  0  0  0  0  0  0  0  0  0  0  0
   -7.9176   -0.1824   -0.2546 H   0  0  0  0  0  0  0  0  0  0  0  0
   -6.0647    0.7664    0.3841 C   0  0  0  0  0  0  0  0  0  0  0  0
   -6.5325    1.7486    0.5514 H   0  0  0  0  0  0  0  0  0  0  0  0
   -4.6958    0.5981    0.6213 C   0  0  0  0  0  0  0  0  0  0  0  0
   -4.0677    1.4284    0.9749 H   0  0  0  0  0  0  0  0  0  0  0  0
  2  3  1  0  0  0  0
  4  2  1  0  0  0  0
  4  5  1  0  0  0  0
  6  4  2  0  0  0  0
  7  6  1  0  0  0  0
  8 10  2  0  0  0  0
  8  6  1  0  0  0  0
  9  8  1  0  0  0  0
 10 12  1  0  0  0  0
 11 10  1  0  0  0  0
 12 13  1  0  0  0  0
 12  2  2  0  0  0  0
 13 14  1  0  0  0  0
 15 17  1  0  0  0  0
 15 13  1  0  0  0  0
 16 15  1  0  0  0  0
 17  1  1  1  0  0  0
 18 27  1  0  0  0  0
 18 17  1  0  0  0  0
 19 18  2  0  0  0  0
 20 19  1  0  0  0  0
 21 23  2  0  0  0  0
 21 19  1  0  0  0  0
 22 21  1  0  0  0  0
 23 25  1  0  0  0  0
 24 23  1  0  0  0  0
 25 26  1  0  0  0  0
 25 27  2  0  0  0  0
 27 28  1  0  0  0  0
M  END
