2,25
 OpenBabel05122313053D

 47 49  0  0  0  0  0  0  0  0999 V2000
    0.5534   -1.2325   -1.6731 S   0  0  0  0  0  0  0  0  0  0  0  0
    0.2809    0.3085   -1.6944 O   0  0  0  0  0  1  0  0  0  0  0  0
   -0.6346   -2.0561   -1.3426 O   0  0  0  0  0  1  0  0  0  0  0  0
    1.3494   -1.5752   -2.8708 O   0  0  0  0  0  1  0  0  0  0  0  0
   -2.2719   -0.6987    1.3882 N   0  0  0  0  0  0  0  0  0  0  0  0
   -0.1546   -1.1433    1.3889 N   0  0  0  0  0  0  0  0  0  0  0  0
   -3.6043   -0.1454    1.1399 C   0  0  0  0  0  0  0  0  0  0  0  0
   -3.4640    0.7204    0.4609 H   0  0  0  0  0  0  0  0  0  0  0  0
   -4.0313    0.1992    2.1048 H   0  0  0  0  0  0  0  0  0  0  0  0
   -4.5158   -1.1556    0.4793 C   0  0  0  0  0  0  0  0  0  0  0  0
   -5.8333   -1.3353    0.9386 C   0  0  0  0  0  0  0  0  0  0  0  0
   -6.1903   -0.7590    1.8080 H   0  0  0  0  0  0  0  0  0  0  0  0
   -6.6954   -2.2381    0.2958 C   0  0  0  0  0  0  0  0  0  0  0  0
   -7.7249   -2.3694    0.6628 H   0  0  0  0  0  0  0  0  0  0  0  0
   -6.2389   -2.9746   -0.8076 C   0  0  0  0  0  0  0  0  0  0  0  0
   -6.9106   -3.6864   -1.3117 H   0  0  0  0  0  0  0  0  0  0  0  0
   -4.9207   -2.8036   -1.2637 C   0  0  0  0  0  0  0  0  0  0  0  0
   -4.5561   -3.3793   -2.1280 H   0  0  0  0  0  0  0  0  0  0  0  0
   -4.0586   -1.8981   -0.6299 C   0  0  0  0  0  0  0  0  0  0  0  0
   -3.0261   -1.7708   -0.9934 H   0  0  0  0  0  0  0  0  0  0  0  0
   -2.0982   -1.8266    2.1831 C   0  0  0  0  0  0  0  0  0  0  0  0
   -2.9484   -2.3387    2.6419 H   0  0  0  0  0  0  0  0  0  0  0  0
   -0.7651   -2.1104    2.1869 C   0  0  0  0  0  0  0  0  0  0  0  0
   -0.1951   -2.9256    2.6392 H   0  0  0  0  0  0  0  0  0  0  0  0
   -1.0841   -0.2646    0.8655 C   0  0  0  0  0  2  0  0  0  0  0  0
    1.2349   -1.2060    1.0729 C   0  0  0  0  0  0  0  0  0  0  0  0
    2.1729   -1.2260    2.1159 C   0  0  0  0  0  0  0  0  0  0  0  0
    1.8222   -1.1109    3.1529 H   0  0  0  0  0  0  0  0  0  0  0  0
    3.5395   -1.3922    1.8445 C   0  0  0  0  0  0  0  0  0  0  0  0
    4.2421   -1.3998    2.6881 H   0  0  0  0  0  0  0  0  0  0  0  0
    4.0082   -1.5520    0.5250 C   0  0  0  0  0  0  0  0  0  0  0  0
    3.0504   -1.5181   -0.5115 C   0  0  0  0  0  0  0  0  0  0  0  0
    3.3369   -1.6321   -1.5678 H   0  0  0  0  0  0  0  0  0  0  0  0
    1.6868   -1.3465   -0.2541 C   0  0  0  0  0  0  0  0  0  0  0  0
    5.4922   -1.7610    0.1835 C   0  0  0  0  0  0  0  0  0  0  0  0
    6.3801   -1.7671    1.4393 C   0  0  0  0  0  0  0  0  0  0  0  0
    6.3244   -0.8062    1.9902 H   0  0  0  0  0  0  0  0  0  0  0  0
    7.4383   -1.9214    1.1482 H   0  0  0  0  0  0  0  0  0  0  0  0
    6.1053   -2.5842    2.1366 H   0  0  0  0  0  0  0  0  0  0  0  0
    5.6514   -3.1168   -0.5418 C   0  0  0  0  0  0  0  0  0  0  0  0
    5.3188   -3.9540    0.1044 H   0  0  0  0  0  0  0  0  0  0  0  0
    6.7148   -3.2874   -0.8081 H   0  0  0  0  0  0  0  0  0  0  0  0
    5.0585   -3.1549   -1.4767 H   0  0  0  0  0  0  0  0  0  0  0  0
    5.9648   -0.6203   -0.7460 C   0  0  0  0  0  0  0  0  0  0  0  0
    5.3833   -0.5900   -1.6883 H   0  0  0  0  0  0  0  0  0  0  0  0
    7.0326   -0.7589   -1.0126 H   0  0  0  0  0  0  0  0  0  0  0  0
    5.8602    0.3658   -0.2489 H   0  0  0  0  0  0  0  0  0  0  0  0
  1  3  1  0  0  0  0
  1 34  1  0  0  0  0
  2  1  1  0  0  0  0
  4  1  1  0  0  0  0
  5 21  1  0  0  0  0
  6 23  1  0  0  0  0
  7  5  1  0  0  0  0
  7  9  1  0  0  0  0
  8  7  1  0  0  0  0
 10 11  1  0  0  0  0
 10  7  1  0  0  0  0
 11 12  1  0  0  0  0
 13 14  1  0  0  0  0
 13 11  2  0  0  0  0
 15 13  1  0  0  0  0
 16 15  1  0  0  0  0
 17 15  2  0  0  0  0
 17 19  1  0  0  0  0
 18 17  1  0  0  0  0
 19 10  2  0  0  0  0
 20 19  1  0  0  0  0
 21 23  2  0  0  0  0
 21 22  1  0  0  0  0
 23 24  1  0  0  0  0
 25  5  1  0  0  0  0
 25  6  1  0  0  0  0
 26  6  1  0  0  0  0
 26 27  1  0  0  0  0
 27 28  1  0  0  0  0
 29 27  2  0  0  0  0
 29 30  1  0  0  0  0
 31 29  1  0  0  0  0
 32 34  1  0  0  0  0
 32 31  2  0  0  0  0
 33 32  1  0  0  0  0
 34 26  2  0  0  0  0
 35 31  1  0  0  0  0
 35 36  1  0  0  0  0
 36 37  1  0  0  0  0
 36 39  1  0  0  0  0
 38 36  1  0  0  0  0
 40 41  1  0  0  0  0
 40 35  1  0  0  0  0
 42 40  1  0  0  0  0
 43 40  1  0  0  0  0
 44 47  1  0  0  0  0
 44 35  1  0  0  0  0
 45 44  1  0  0  0  0
 46 44  1  0  0  0  0
M  END
