3,6
 OpenBabel05122313053D

 24 24  0  0  1  0  0  0  0  0999 V2000
    1.9736   -1.2324   -0.8861 N   0  0  0  0  0  0  0  0  0  0  0  0
    2.6929   -1.9023   -1.1746 H   0  0  0  0  0  0  0  0  0  0  0  0
    1.4386    0.7818   -0.0333 O   0  0  0  0  0  1  0  0  0  0  0  0
    1.4105   -2.6044    1.4282 O   0  0  0  0  0  0  0  0  0  0  0  0
   -0.5376   -3.3770    0.5453 O   0  0  0  0  0  0  0  0  0  0  0  0
    0.6038   -1.6846   -0.6622 C   0  0  0  0  0  3  0  0  0  0  0  0
    0.1953   -2.1764   -1.5672 H   0  0  0  0  0  0  0  0  0  0  0  0
    0.5670   -2.5864    0.5508 C   0  0  0  0  0  0  0  0  0  0  0  0
    2.3494   -0.0462   -0.3998 C   0  0  2  0  0  3  0  0  0  0  0  0
   -0.6977   -4.2243    1.6981 C   0  0  0  0  0  0  0  0  0  0  0  0
   -1.6283   -4.7942    1.5307 H   0  0  0  0  0  0  0  0  0  0  0  0
   -0.7729   -3.6166    2.6215 H   0  0  0  0  0  0  0  0  0  0  0  0
    0.1650   -4.9114    1.7978 H   0  0  0  0  0  0  0  0  0  0  0  0
    4.1379    1.6854   -0.4283 C   0  0  0  0  0  0  0  0  0  0  0  0
    3.3568    2.4386   -0.6043 H   0  0  0  0  0  0  0  0  0  0  0  0
    3.7722    0.3273   -0.3079 C   0  0  0  0  0  0  0  0  0  0  0  0
    5.4850    2.0538   -0.3429 C   0  0  0  0  0  0  0  0  0  0  0  0
    5.7721    3.1102   -0.4500 H   0  0  0  0  0  0  0  0  0  0  0  0
    6.4699    1.0759   -0.1220 C   0  0  0  0  0  0  0  0  0  0  0  0
    7.5280    1.3694   -0.0518 H   0  0  0  0  0  0  0  0  0  0  0  0
    6.1080   -0.2740    0.0201 C   0  0  0  0  0  0  0  0  0  0  0  0
    6.8774   -1.0348    0.2170 H   0  0  0  0  0  0  0  0  0  0  0  0
    4.7631   -0.6517   -0.0718 C   0  0  0  0  0  0  0  0  0  0  0  0
    4.4764   -1.7017    0.0937 H   0  0  0  0  0  0  0  0  0  0  0  0
  1  6  1  0  0  0  0
  1  9  1  0  0  0  0
  2  1  1  0  0  0  0
  5  8  1  0  0  0  0
  5 10  1  0  0  0  0
  6  8  1  0  0  0  0
  7  6  1  0  0  0  0
  8  4  2  0  0  0  0
  9 16  1  0  0  0  0
  9  3  1  6  0  0  0
 10 13  1  0  0  0  0
 10 12  1  0  0  0  0
 11 10  1  0  0  0  0
 14 17  2  0  0  0  0
 14 16  1  0  0  0  0
 15 14  1  0  0  0  0
 16 23  2  0  0  0  0
 17 19  1  0  0  0  0
 18 17  1  0  0  0  0
 19 20  1  0  0  0  0
 19 21  2  0  0  0  0
 21 22  1  0  0  0  0
 23 21  1  0  0  0  0
 23 24  1  0  0  0  0
M  END
