1,3
 OpenBabel05122313053D

 26 26  0  0  1  0  0  0  0  0999 V2000
    1.3838    1.0066   -1.1370 O   0  0  0  0  0  1  0  0  0  0  0  0
    0.9483    2.3338   -1.4864 O   0  0  0  0  0  0  0  0  0  0  0  0
   -1.5148    0.9426   -0.8108 C   0  0  0  0  0  3  0  0  0  0  0  0
   -1.5594    2.0845    0.1848 C   0  0  2  0  0  0  0  0  0  0  0  0
   -2.5926    3.0128    0.1791 C   0  0  0  0  0  3  0  0  0  0  0  0
    0.9301    3.2000   -0.3171 C   0  0  0  0  0  0  0  0  0  0  0  0
   -0.0834    2.6825    0.6417 C   0  0  2  0  0  3  0  0  0  0  0  0
   -3.6961    2.9062   -0.8340 C   0  0  0  0  0  0  0  0  0  0  0  0
   -2.6967    4.0920    1.2135 C   0  0  0  0  0  0  0  0  0  0  0  0
    0.5365    4.5526   -0.9164 C   0  0  0  0  0  0  0  0  0  0  0  0
    2.3021    3.2299    0.3700 C   0  0  0  0  0  0  0  0  0  0  0  0
   -0.6208    1.9053    1.5260 C   0  0  0  0  0  2  0  0  0  0  0  0
   -2.4697    0.3764   -0.7847 H   0  0  0  0  0  0  0  0  0  0  0  0
   -3.3137    2.6266   -1.8358 H   0  0  0  0  0  0  0  0  0  0  0  0
    0.5074    5.3232   -0.1223 H   0  0  0  0  0  0  0  0  0  0  0  0
   -0.4634    4.4841   -1.3868 H   0  0  0  0  0  0  0  0  0  0  0  0
    1.2750    4.8503   -1.6860 H   0  0  0  0  0  0  0  0  0  0  0  0
    2.2761    3.8876    1.2605 H   0  0  0  0  0  0  0  0  0  0  0  0
    3.0598    3.6089   -0.3435 H   0  0  0  0  0  0  0  0  0  0  0  0
    2.5885    2.2083    0.6819 H   0  0  0  0  0  0  0  0  0  0  0  0
   -1.3819    1.3367   -1.8436 H   0  0  0  0  0  0  0  0  0  0  0  0
   -4.2770    3.8455   -0.9164 H   0  0  0  0  0  0  0  0  0  0  0  0
   -4.4070    2.0986   -0.5414 H   0  0  0  0  0  0  0  0  0  0  0  0
   -2.1483    3.8143    2.1350 H   0  0  0  0  0  0  0  0  0  0  0  0
   -3.7587    4.3076    1.4526 H   0  0  0  0  0  0  0  0  0  0  0  0
   -2.2539    5.0446    0.8455 H   0  0  0  0  0  0  0  0  0  0  0  0
  2  1  1  0  0  0  0
  2  6  1  0  0  0  0
  3 13  1  0  0  0  0
  4  3  1  6  0  0  0
  4  7  1  0  0  0  0
  4 12  1  0  0  0  0
  5  4  1  0  0  0  0
  5  9  1  0  0  0  0
  6 11  1  0  0  0  0
  7  6  1  6  0  0  0
  7 12  1  0  0  0  0
  8 23  1  0  0  0  0
  8  5  1  0  0  0  0
  9 25  1  0  0  0  0
  9 24  1  0  0  0  0
 10  6  1  0  0  0  0
 10 15  1  0  0  0  0
 11 20  1  0  0  0  0
 11 18  1  0  0  0  0
 14  8  1  0  0  0  0
 16 10  1  0  0  0  0
 17 10  1  0  0  0  0
 19 11  1  0  0  0  0
 21  3  1  0  0  0  0
 22  8  1  0  0  0  0
 26  9  1  0  0  0  0
M  END
