1,2
 OpenBabel05122313053D

 28 28  0  0  1  0  0  0  0  0999 V2000
    2.1260    0.0522   -1.4865 O   0  0  0  0  0  1  0  0  0  0  0  0
    0.5172    2.0341   -0.8326 C   0  0  0  0  0  3  0  0  0  0  0  0
    0.8983    2.2093   -1.8621 H   0  0  0  0  0  0  0  0  0  0  0  0
   -0.3580    2.6866   -0.6547 H   0  0  0  0  0  0  0  0  0  0  0  0
    1.5437    2.1986    0.2268 C   0  0  0  0  0  0  0  0  0  0  0  0
    1.2635    2.9542    1.3886 C   0  0  0  0  0  0  0  0  0  0  0  0
    0.2705    3.4158    1.4891 H   0  0  0  0  0  0  0  0  0  0  0  0
    2.2136    3.1232    2.4019 C   0  0  0  0  0  0  0  0  0  0  0  0
    1.9498    3.7038    3.2991 H   0  0  0  0  0  0  0  0  0  0  0  0
    3.4950    2.5614    2.2761 C   0  0  0  0  0  0  0  0  0  0  0  0
    4.2431    2.6867    3.0723 H   0  0  0  0  0  0  0  0  0  0  0  0
    3.8094    1.8225    1.1298 C   0  0  0  0  0  0  0  0  0  0  0  0
    4.8012    1.3603    1.0472 H   0  0  0  0  0  0  0  0  0  0  0  0
    2.8496    1.6088    0.1183 C   0  0  0  0  0  0  0  0  0  0  0  0
    3.0884    0.7180   -1.0392 C   0  0  2  0  0  3  0  0  0  0  0  0
    4.4361    0.5831   -1.7682 C   0  0  0  0  0  0  0  0  0  0  0  0
    5.1317    1.9544   -1.8906 C   0  0  0  0  0  0  0  0  0  0  0  0
    4.4811    2.6878   -2.4087 H   0  0  0  0  0  0  0  0  0  0  0  0
    6.0596    1.8441   -2.4876 H   0  0  0  0  0  0  0  0  0  0  0  0
    5.4061    2.3832   -0.9089 H   0  0  0  0  0  0  0  0  0  0  0  0
    5.3335   -0.4247   -1.0038 C   0  0  0  0  0  0  0  0  0  0  0  0
    5.6041   -0.0822    0.0125 H   0  0  0  0  0  0  0  0  0  0  0  0
    6.2748   -0.5643   -1.5733 H   0  0  0  0  0  0  0  0  0  0  0  0
    4.8329   -1.4064   -0.9114 H   0  0  0  0  0  0  0  0  0  0  0  0
    4.1713    0.0129   -3.1752 C   0  0  0  0  0  0  0  0  0  0  0  0
    3.6741   -0.9730   -3.1191 H   0  0  0  0  0  0  0  0  0  0  0  0
    5.1331   -0.1015   -3.7133 H   0  0  0  0  0  0  0  0  0  0  0  0
    3.5194    0.6861   -3.7667 H   0  0  0  0  0  0  0  0  0  0  0  0
  2  4  1  0  0  0  0
  2  5  1  0  0  0  0
  3  2  1  0  0  0  0
  5  6  1  0  0  0  0
  6  7  1  0  0  0  0
  6  8  2  0  0  0  0
  8  9  1  0  0  0  0
 10  8  1  0  0  0  0
 10 11  1  0  0  0  0
 12 10  2  0  0  0  0
 13 12  1  0  0  0  0
 14  5  2  0  0  0  0
 14 12  1  0  0  0  0
 15  1  1  6  0  0  0
 15 14  1  0  0  0  0
 16 15  1  0  0  0  0
 16 21  1  0  0  0  0
 17 16  1  0  0  0  0
 17 20  1  0  0  0  0
 18 17  1  0  0  0  0
 19 17  1  0  0  0  0
 21 24  1  0  0  0  0
 21 22  1  0  0  0  0
 23 21  1  0  0  0  0
 25 26  1  0  0  0  0
 25 16  1  0  0  0  0
 27 25  1  0  0  0  0
 28 25  1  0  0  0  0
M  END
