1,15
 OpenBabel05122313053D

 44 45  0  0  1  0  0  0  0  0999 V2000
   -0.0811   -0.5513    0.3057 O   0  5  0  0  0  0  0  0  0  0  0  0
    1.1658    1.4811    0.0582 C   0  0  0  0  0  0  0  0  0  0  0  0
    1.1140    0.0614    0.1403 C   0  0  0  0  0  0  0  0  0  0  0  0
    2.2914   -0.7423    0.0539 C   0  0  0  0  0  0  0  0  0  0  0  0
    3.5051   -0.0677   -0.1553 C   0  0  0  0  0  0  0  0  0  0  0  0
    3.5945    1.3318   -0.2783 C   0  0  0  0  0  0  0  0  0  0  0  0
    2.4156    2.0841   -0.1615 C   0  0  0  0  0  0  0  0  0  0  0  0
    4.9261    1.9938   -0.5289 C   0  0  0  0  0  0  0  0  0  0  0  0
    2.2331   -2.2777    0.1783 C   0  0  0  0  0  0  0  0  0  0  0  0
    1.5923   -2.6796    1.5289 C   0  0  0  0  0  0  0  0  0  0  0  0
    1.4222   -2.8657   -1.0004 C   0  0  0  0  0  0  0  0  0  0  0  0
    3.6405   -2.9031    0.1323 C   0  0  0  0  0  0  0  0  0  0  0  0
   -0.3133    2.3597    1.8624 C   0  0  0  0  0  0  0  0  0  0  0  0
    0.0626    3.7820   -0.1783 C   0  0  0  0  0  0  0  0  0  0  0  0
   -1.3048    1.7554   -0.3795 C   0  0  1  0  0  3  0  0  0  0  0  0
   -1.3110    1.1132   -1.6616 C   0  0  0  0  0  3  0  0  0  0  0  0
   -2.6373    0.6874   -1.9496 C   0  0  0  0  0  0  0  0  0  0  0  0
   -3.4633    1.0535   -0.8495 C   0  0  0  0  0  0  0  0  0  0  0  0
   -2.6468    1.7263    0.1087 C   0  0  0  0  0  3  0  0  0  0  0  0
   -0.0896    2.3294    0.3302 C   0  0  0  0  0  0  0  0  0  0  0  0
    4.4327   -0.6509   -0.2318 H   0  0  0  0  0  0  0  0  0  0  0  0
    2.4843    3.1785   -0.2338 H   0  0  0  0  0  0  0  0  0  0  0  0
    5.6835    1.6772    0.2177 H   0  0  0  0  0  0  0  0  0  0  0  0
    4.8493    3.0976   -0.4886 H   0  0  0  0  0  0  0  0  0  0  0  0
    5.3301    1.7218   -1.5273 H   0  0  0  0  0  0  0  0  0  0  0  0
    2.1846   -2.2787    2.3766 H   0  0  0  0  0  0  0  0  0  0  0  0
    1.5731   -3.7852    1.6200 H   0  0  0  0  0  0  0  0  0  0  0  0
    0.5554   -2.3111    1.6267 H   0  0  0  0  0  0  0  0  0  0  0  0
    1.4078   -3.9732   -0.9326 H   0  0  0  0  0  0  0  0  0  0  0  0
    1.8873   -2.5910   -1.9693 H   0  0  0  0  0  0  0  0  0  0  0  0
    0.3731   -2.5202   -1.0075 H   0  0  0  0  0  0  0  0  0  0  0  0
    4.2882   -2.5351    0.9536 H   0  0  0  0  0  0  0  0  0  0  0  0
    4.1542   -2.7095   -0.8310 H   0  0  0  0  0  0  0  0  0  0  0  0
    3.5534   -4.0023    0.2438 H   0  0  0  0  0  0  0  0  0  0  0  0
    0.5986    2.7381    2.3632 H   0  0  0  0  0  0  0  0  0  0  0  0
   -0.5396    1.3510    2.2595 H   0  0  0  0  0  0  0  0  0  0  0  0
   -1.1526    3.0331    2.1303 H   0  0  0  0  0  0  0  0  0  0  0  0
    0.8494    4.3270    0.3793 H   0  0  0  0  0  0  0  0  0  0  0  0
   -0.8900    4.3270   -0.0293 H   0  0  0  0  0  0  0  0  0  0  0  0
    0.3097    3.8106   -1.2577 H   0  0  0  0  0  0  0  0  0  0  0  0
   -0.4185    0.9142   -2.2690 H   0  0  0  0  0  0  0  0  0  0  0  0
   -2.9515    0.1136   -2.8283 H   0  0  0  0  0  0  0  0  0  0  0  0
   -4.5296    0.8235   -0.7340 H   0  0  0  0  0  0  0  0  0  0  0  0
   -2.9854    2.0849    1.0859 H   0  0  0  0  0  0  0  0  0  0  0  0
  2  3  1  0  0  0  0
  2 20  1  0  0  0  0
  3  1  1  0  0  0  0
  4  3  2  0  0  0  0
  4  9  1  0  0  0  0
  5  4  1  0  0  0  0
  6  7  1  0  0  0  0
  6  5  2  0  0  0  0
  7  2  2  0  0  0  0
  8 24  1  0  0  0  0
  8  6  1  0  0  0  0
  8 23  1  0  0  0  0
  9 10  1  0  0  0  0
 10 27  1  0  0  0  0
 10 28  1  0  0  0  0
 10 26  1  0  0  0  0
 11 29  1  0  0  0  0
 11  9  1  0  0  0  0
 12  9  1  0  0  0  0
 12 34  1  0  0  0  0
 12 32  1  0  0  0  0
 13 37  1  0  0  0  0
 13 36  1  0  0  0  0
 13 35  1  0  0  0  0
 14 39  1  0  0  0  0
 14 20  1  0  0  0  0
 14 38  1  0  0  0  0
 15 19  1  0  0  0  0
 15 20  1  1  0  0  0
 16 15  1  0  0  0  0
 17 16  1  0  0  0  0
 17 18  2  0  0  0  0
 18 43  1  0  0  0  0
 18 19  1  0  0  0  0
 19 44  1  0  0  0  0
 20 13  1  0  0  0  0
 21  5  1  0  0  0  0
 22  7  1  0  0  0  0
 25  8  1  0  0  0  0
 30 11  1  0  0  0  0
 31 11  1  0  0  0  0
 33 12  1  0  0  0  0
 40 14  1  0  0  0  0
 41 16  1  0  0  0  0
 42 17  1  0  0  0  0
M  CHG  1   1  -1
M  END
