2,27
 OpenBabel05122313053D

 73 75  0  0  1  0  0  0  0  0999 V2000
   -1.4066   -2.3110   -0.4003 Si  0  0  0  0  0  0  0  0  0  0  0  0
    2.2448    0.2633    0.5889 O   0  5  0  0  0  0  0  0  0  0  0  0
   -2.0746   -0.7697   -0.7075 O   0  0  0  0  0  0  0  0  0  0  0  0
    1.7191    1.4424    0.1750 C   0  0  0  0  0  0  0  0  0  0  0  0
    0.3244    1.6360    0.3804 C   0  0  0  0  0  0  0  0  0  0  0  0
   -0.2731    2.8006   -0.1163 C   0  0  0  0  0  0  0  0  0  0  0  0
    0.4825    3.7881   -0.7735 C   0  0  0  0  0  0  0  0  0  0  0  0
    1.8714    3.6001   -0.8817 C   0  0  0  0  0  0  0  0  0  0  0  0
    2.5368    2.4491   -0.4137 C   0  0  0  0  0  0  0  0  0  0  0  0
    4.0720    2.3243   -0.5061 C   0  0  0  0  0  0  0  0  0  0  0  0
    4.7152    3.6258   -1.0230 C   0  0  0  0  0  0  0  0  0  0  0  0
    4.4642    1.1922   -1.4814 C   0  0  0  0  0  0  0  0  0  0  0  0
    4.6610    2.0367    0.8956 C   0  0  0  0  0  0  0  0  0  0  0  0
   -0.1857    5.0146   -1.3413 C   0  0  0  0  0  0  0  0  0  0  0  0
   -0.4505    0.6144    1.1986 C   0  0  0  0  0  0  0  0  0  0  0  0
   -2.7063    0.1180    0.1348 C   0  0  0  0  0  0  0  0  0  0  0  0
   -1.9458    0.7725    1.1349 C   0  0  0  0  0  0  0  0  0  0  0  0
   -2.5803    1.6642    2.0168 C   0  0  0  0  0  0  0  0  0  0  0  0
   -3.9463    1.9573    1.9082 C   0  0  0  0  0  0  0  0  0  0  0  0
   -4.6616    1.3396    0.8660 C   0  0  0  0  0  0  0  0  0  0  0  0
   -4.0905    0.4198   -0.0352 C   0  0  0  0  0  0  0  0  0  0  0  0
   -4.9602   -0.2344   -1.1302 C   0  0  0  0  0  0  0  0  0  0  0  0
   -6.3544    0.4162   -1.2306 C   0  0  0  0  0  0  0  0  0  0  0  0
   -4.2984   -0.0964   -2.5210 C   0  0  0  0  0  0  0  0  0  0  0  0
   -5.1730   -1.7209   -0.7673 C   0  0  0  0  0  0  0  0  0  0  0  0
   -4.6339    2.8894    2.8744 C   0  0  0  0  0  0  0  0  0  0  0  0
    2.4507   -1.8425   -1.8557 C   0  0  0  0  0  3  0  0  0  0  0  0
    1.1612   -1.3200   -1.5578 C   0  0  0  0  0  3  0  0  0  0  0  0
    0.4502   -2.2701   -0.7565 C   0  0  2  0  0  3  0  0  0  0  0  0
    1.3328   -3.3957   -0.5826 C   0  0  0  0  0  0  0  0  0  0  0  0
    2.5504   -3.1374   -1.2620 C   0  0  0  0  0  0  0  0  0  0  0  0
   -2.0420   -3.4673   -1.7461 C   0  0  0  0  0  0  0  0  0  0  0  0
   -1.8425   -2.8872    1.3269 C   0  0  0  0  0  0  0  0  0  0  0  0
   -1.3552    2.9421    0.0254 H   0  0  0  0  0  0  0  0  0  0  0  0
    2.4593    4.3978   -1.3546 H   0  0  0  0  0  0  0  0  0  0  0  0
    5.8170    3.5070   -1.0321 H   0  0  0  0  0  0  0  0  0  0  0  0
    4.4772    4.4930   -0.3749 H   0  0  0  0  0  0  0  0  0  0  0  0
    4.4013    3.8682   -2.0584 H   0  0  0  0  0  0  0  0  0  0  0  0
    5.5659    1.1673   -1.6107 H   0  0  0  0  0  0  0  0  0  0  0  0
    4.0043    1.3503   -2.4785 H   0  0  0  0  0  0  0  0  0  0  0  0
    4.1629    0.2032   -1.0967 H   0  0  0  0  0  0  0  0  0  0  0  0
    5.7679    1.9903    0.8358 H   0  0  0  0  0  0  0  0  0  0  0  0
    4.3069    1.0732    1.3050 H   0  0  0  0  0  0  0  0  0  0  0  0
    4.3898    2.8431    1.6066 H   0  0  0  0  0  0  0  0  0  0  0  0
   -0.7149    4.7784   -2.2897 H   0  0  0  0  0  0  0  0  0  0  0  0
    0.5462    5.8161   -1.5616 H   0  0  0  0  0  0  0  0  0  0  0  0
   -0.9466    5.4227   -0.6455 H   0  0  0  0  0  0  0  0  0  0  0  0
   -0.1463   -0.4031    0.8920 H   0  0  0  0  0  0  0  0  0  0  0  0
   -0.1101    0.6917    2.2538 H   0  0  0  0  0  0  0  0  0  0  0  0
   -1.9730    2.1568    2.7938 H   0  0  0  0  0  0  0  0  0  0  0  0
   -5.7260    1.5898    0.7629 H   0  0  0  0  0  0  0  0  0  0  0  0
   -6.9213   -0.0646   -2.0530 H   0  0  0  0  0  0  0  0  0  0  0  0
   -6.2893    1.4997   -1.4562 H   0  0  0  0  0  0  0  0  0  0  0  0
   -6.9499    0.2885   -0.3047 H   0  0  0  0  0  0  0  0  0  0  0  0
   -4.9425   -0.5644   -3.2940 H   0  0  0  0  0  0  0  0  0  0  0  0
   -3.3028   -0.5710   -2.5554 H   0  0  0  0  0  0  0  0  0  0  0  0
   -4.1752    0.9740   -2.7844 H   0  0  0  0  0  0  0  0  0  0  0  0
   -5.7615   -2.2374   -1.5541 H   0  0  0  0  0  0  0  0  0  0  0  0
   -5.7220   -1.8130    0.1915 H   0  0  0  0  0  0  0  0  0  0  0  0
   -4.2136   -2.2547   -0.6595 H   0  0  0  0  0  0  0  0  0  0  0  0
   -5.1583    2.3242    3.6753 H   0  0  0  0  0  0  0  0  0  0  0  0
   -5.3979    3.5128    2.3677 H   0  0  0  0  0  0  0  0  0  0  0  0
   -3.9125    3.5670    3.3720 H   0  0  0  0  0  0  0  0  0  0  0  0
    3.2427   -1.3287   -2.4130 H   0  0  0  0  0  0  0  0  0  0  0  0
    0.7809   -0.3323   -1.8509 H   0  0  0  0  0  0  0  0  0  0  0  0
    1.1138   -4.2901    0.0141 H   0  0  0  0  0  0  0  0  0  0  0  0
    3.4371   -3.7817   -1.2730 H   0  0  0  0  0  0  0  0  0  0  0  0
   -1.8750   -3.0102   -2.7425 H   0  0  0  0  0  0  0  0  0  0  0  0
   -3.1189   -3.7031   -1.6477 H   0  0  0  0  0  0  0  0  0  0  0  0
   -1.4711   -4.4177   -1.7120 H   0  0  0  0  0  0  0  0  0  0  0  0
   -2.9431   -2.9675    1.4326 H   0  0  0  0  0  0  0  0  0  0  0  0
   -1.4605   -2.1914    2.0978 H   0  0  0  0  0  0  0  0  0  0  0  0
   -1.3970   -3.8827    1.5257 H   0  0  0  0  0  0  0  0  0  0  0  0
  1 33  1  0  0  0  0
  3  1  1  0  0  0  0
  3 16  1  0  0  0  0
  4  5  1  0  0  0  0
  4  2  1  0  0  0  0
  5 15  1  0  0  0  0
  6 34  1  0  0  0  0
  6  5  2  0  0  0  0
  7  6  1  0  0  0  0
  8  7  2  0  0  0  0
  8  9  1  0  0  0  0
  9  4  2  0  0  0  0
 10  9  1  0  0  0  0
 10 13  1  0  0  0  0
 11 10  1  0  0  0  0
 11 37  1  0  0  0  0
 12 41  1  0  0  0  0
 12 10  1  0  0  0  0
 13 43  1  0  0  0  0
 13 44  1  0  0  0  0
 14  7  1  0  0  0  0
 14 47  1  0  0  0  0
 15 49  1  0  0  0  0
 16 17  1  0  0  0  0
 17 15  1  0  0  0  0
 17 18  2  0  0  0  0
 18 50  1  0  0  0  0
 19 18  1  0  0  0  0
 19 26  1  0  0  0  0
 20 19  2  0  0  0  0
 21 16  2  0  0  0  0
 21 20  1  0  0  0  0
 22 25  1  0  0  0  0
 22 21  1  0  0  0  0
 23 22  1  0  0  0  0
 23 54  1  0  0  0  0
 24 22  1  0  0  0  0
 25 60  1  0  0  0  0
 25 59  1  0  0  0  0
 26 63  1  0  0  0  0
 26 61  1  0  0  0  0
 27 28  1  0  0  0  0
 27 31  1  0  0  0  0
 28 29  1  0  0  0  0
 29 30  1  0  0  0  0
 29  1  1  6  0  0  0
 30 66  1  0  0  0  0
 31 30  2  0  0  0  0
 32 70  1  0  0  0  0
 32 69  1  0  0  0  0
 32  1  1  0  0  0  0
 33 71  1  0  0  0  0
 33 73  1  0  0  0  0
 33 72  1  0  0  0  0
 35  8  1  0  0  0  0
 36 11  1  0  0  0  0
 38 11  1  0  0  0  0
 39 12  1  0  0  0  0
 40 12  1  0  0  0  0
 42 13  1  0  0  0  0
 45 14  1  0  0  0  0
 46 14  1  0  0  0  0
 48 15  1  0  0  0  0
 51 20  1  0  0  0  0
 52 23  1  0  0  0  0
 53 23  1  0  0  0  0
 55 24  1  0  0  0  0
 56 24  1  0  0  0  0
 57 24  1  0  0  0  0
 58 25  1  0  0  0  0
 62 26  1  0  0  0  0
 64 27  1  0  0  0  0
 65 28  1  0  0  0  0
 67 31  1  0  0  0  0
 68 32  1  0  0  0  0
M  CHG  1   2  -1
M  END
