1,4
 OpenBabel05122313053D

 23 24  0  0  1  0  0  0  0  0999 V2000
   -1.6330    0.2148   -0.7757 O   0  0  0  0  0  1  0  0  0  0  0  0
   -2.3915    0.0969    0.2358 C   0  0  2  0  0  3  0  0  0  0  0  0
   -1.7880   -0.0714    1.5510 C   0  0  0  0  0  0  0  0  0  0  0  0
   -0.3488   -0.1604    1.5405 C   0  0  0  0  0  3  0  0  0  0  0  0
    0.2703   -0.3613    2.8007 C   0  0  0  0  0  0  0  0  0  0  0  0
    1.3694   -0.4450    2.8453 H   0  0  0  0  0  0  0  0  0  0  0  0
   -0.4668   -0.4242    3.9894 C   0  0  0  0  0  0  0  0  0  0  0  0
    0.0547   -0.5729    4.9494 H   0  0  0  0  0  0  0  0  0  0  0  0
   -1.8716   -0.2692    3.9800 C   0  0  0  0  0  0  0  0  0  0  0  0
   -2.4389   -0.2817    4.9227 H   0  0  0  0  0  0  0  0  0  0  0  0
   -2.5297   -0.0901    2.7649 C   0  0  0  0  0  0  0  0  0  0  0  0
   -3.6193    0.0596    2.7503 H   0  0  0  0  0  0  0  0  0  0  0  0
   -3.8564    0.1364   -0.0257 C   0  0  0  0  0  0  0  0  0  0  0  0
   -4.7584   -0.7587    0.5911 C   0  0  0  0  0  0  0  0  0  0  0  0
   -4.3813   -1.5083    1.3015 H   0  0  0  0  0  0  0  0  0  0  0  0
   -6.1218   -0.7259    0.2652 C   0  0  0  0  0  0  0  0  0  0  0  0
   -6.8135   -1.4380    0.7404 H   0  0  0  0  0  0  0  0  0  0  0  0
   -6.6024    0.2044   -0.6698 C   0  0  0  0  0  0  0  0  0  0  0  0
   -7.6742    0.2332   -0.9181 H   0  0  0  0  0  0  0  0  0  0  0  0
   -5.7095    1.0903   -1.2970 C   0  0  0  0  0  0  0  0  0  0  0  0
   -6.0812    1.8155   -2.0367 H   0  0  0  0  0  0  0  0  0  0  0  0
   -4.3450    1.0477   -0.9884 C   0  0  0  0  0  0  0  0  0  0  0  0
   -3.6322    1.7224   -1.4842 H   0  0  0  0  0  0  0  0  0  0  0  0
  2  1  1  6  0  0  0
  2  3  1  0  0  0  0
  3 11  1  0  0  0  0
  4  3  2  0  0  0  0
  4  5  1  0  0  0  0
  5  6  1  0  0  0  0
  5  7  2  0  0  0  0
  7  8  1  0  0  0  0
  9  7  1  0  0  0  0
  9 10  1  0  0  0  0
 11  9  2  0  0  0  0
 12 11  1  0  0  0  0
 13  2  1  0  0  0  0
 13 14  1  0  0  0  0
 14 15  1  0  0  0  0
 16 14  2  0  0  0  0
 16 17  1  0  0  0  0
 18 16  1  0  0  0  0
 19 18  1  0  0  0  0
 20 22  1  0  0  0  0
 20 18  2  0  0  0  0
 21 20  1  0  0  0  0
 22 13  2  0  0  0  0
 23 22  1  0  0  0  0
M  END
