1,7
 OpenBabel05122313053D

 12 11  0  0  1  0  0  0  0  0999 V2000
   -0.6740   -2.0810    0.1779 O   0  0  0  0  0  1  0  0  0  0  0  0
   -1.3248   -2.6441   -0.9265 C   0  0  0  0  0  0  0  0  0  0  0  0
   -1.8011   -3.6085   -0.6292 H   0  0  0  0  0  0  0  0  0  0  0  0
   -0.6100   -2.8761   -1.7582 H   0  0  0  0  0  0  0  0  0  0  0  0
   -2.3816   -1.6563   -1.4263 C   0  0  1  0  0  0  0  0  0  0  0  0
   -3.2634   -1.7141   -0.7498 H   0  0  0  0  0  0  0  0  0  0  0  0
   -1.8365   -0.2397   -1.1860 C   0  0  0  0  0  3  0  0  0  0  0  0
   -2.4881    0.7518   -1.4296 O   0  0  0  0  0  0  0  0  0  0  0  0
   -2.8555   -1.8485   -2.8698 C   0  0  0  0  0  0  0  0  0  0  0  0
   -2.0035   -1.7807   -3.5756 H   0  0  0  0  0  0  0  0  0  0  0  0
   -3.5931   -1.0685   -3.1420 H   0  0  0  0  0  0  0  0  0  0  0  0
   -3.3340   -2.8406   -2.9982 H   0  0  0  0  0  0  0  0  0  0  0  0
  2  3  1  0  0  0  0
  2  1  1  0  0  0  0
  4  2  1  0  0  0  0
  5  7  1  0  0  0  0
  5  2  1  0  0  0  0
  5  6  1  1  0  0  0
  8  7  2  0  0  0  0
  9  5  1  0  0  0  0
 10  9  1  0  0  0  0
 11  9  1  0  0  0  0
 12  9  1  0  0  0  0
M  END
