1
 OpenBabel05122313053D

 50 54  0  0  1  0  0  0  0  0999 V2000
   -1.8047    0.0044   -0.2154 O   0  5  0  0  0  0  0  0  0  0  0  0
   -0.1580   -0.0936    1.7511 C   0  0  1  0  0  3  0  0  0  0  0  0
    0.6481   -1.2103    1.3772 C   0  0  0  0  0  0  0  0  0  0  0  0
    0.3496   -2.2640    1.4349 H   0  0  0  0  0  0  0  0  0  0  0  0
    1.8637   -0.7277    0.7851 C   0  0  0  0  0  0  0  0  0  0  0  0
    1.8253    0.7164    0.8249 C   0  0  0  0  0  0  0  0  0  0  0  0
    0.5621    1.0858    1.3835 C   0  0  0  0  0  0  0  0  0  0  0  0
    0.2041    2.1130    1.5241 H   0  0  0  0  0  0  0  0  0  0  0  0
    2.9097    1.6667    0.5030 C   0  0  0  0  0  0  0  0  0  0  0  0
    2.6203    2.9639    0.0234 C   0  0  0  0  0  0  0  0  0  0  0  0
    1.5799    3.2382   -0.1997 H   0  0  0  0  0  0  0  0  0  0  0  0
    3.6494    3.8850   -0.2095 C   0  0  0  0  0  0  0  0  0  0  0  0
    3.4050    4.8868   -0.5940 H   0  0  0  0  0  0  0  0  0  0  0  0
    4.9855    3.5316    0.0379 C   0  0  0  0  0  0  0  0  0  0  0  0
    5.7933    4.2556   -0.1476 H   0  0  0  0  0  0  0  0  0  0  0  0
    5.2839    2.2504    0.5281 C   0  0  0  0  0  0  0  0  0  0  0  0
    6.3266    1.9676    0.7379 H   0  0  0  0  0  0  0  0  0  0  0  0
    4.2576    1.3254    0.7597 C   0  0  0  0  0  0  0  0  0  0  0  0
    4.4998    0.3311    1.1594 H   0  0  0  0  0  0  0  0  0  0  0  0
    2.9250   -1.5828    0.2156 C   0  0  0  0  0  0  0  0  0  0  0  0
    3.5383   -1.2601   -1.0165 C   0  0  0  0  0  0  0  0  0  0  0  0
    3.2098   -0.3649   -1.5656 H   0  0  0  0  0  0  0  0  0  0  0  0
    4.5356   -2.0845   -1.5482 C   0  0  0  0  0  0  0  0  0  0  0  0
    4.9981   -1.8250   -2.5123 H   0  0  0  0  0  0  0  0  0  0  0  0
    4.9360   -3.2448   -0.8633 C   0  0  0  0  0  0  0  0  0  0  0  0
    5.7200   -3.8920   -1.2848 H   0  0  0  0  0  0  0  0  0  0  0  0
    4.3268   -3.5787    0.3555 C   0  0  0  0  0  0  0  0  0  0  0  0
    4.6328   -4.4872    0.8960 H   0  0  0  0  0  0  0  0  0  0  0  0
    3.3258   -2.7545    0.8908 C   0  0  0  0  0  0  0  0  0  0  0  0
    2.8568   -3.0105    1.8531 H   0  0  0  0  0  0  0  0  0  0  0  0
   -1.5959   -0.1075    2.1160 C   0  0  0  0  0  0  0  0  0  0  0  0
   -2.4414   -0.0183    0.9792 C   0  0  0  0  0  0  0  0  0  0  0  0
   -3.8539    0.0202    1.0989 C   0  0  0  0  0  0  0  0  0  0  0  0
   -4.3699   -0.0454    2.4154 C   0  0  0  0  0  0  0  0  0  0  0  0
   -5.4608    0.0038    2.5493 H   0  0  0  0  0  0  0  0  0  0  0  0
   -3.5443   -0.1403    3.5435 C   0  0  0  0  0  0  0  0  0  0  0  0
   -3.9948   -0.1803    4.5462 H   0  0  0  0  0  0  0  0  0  0  0  0
   -2.1456   -0.1686    3.4011 C   0  0  0  0  0  0  0  0  0  0  0  0
   -1.4868   -0.2316    4.2798 H   0  0  0  0  0  0  0  0  0  0  0  0
   -4.7499    0.1069   -0.0797 C   0  0  0  0  0  0  0  0  0  0  0  0
   -5.9930   -0.5674   -0.0792 C   0  0  0  0  0  0  0  0  0  0  0  0
   -6.2686   -1.1925    0.7836 H   0  0  0  0  0  0  0  0  0  0  0  0
   -6.8627   -0.4787   -1.1739 C   0  0  0  0  0  0  0  0  0  0  0  0
   -7.8207   -1.0204   -1.1542 H   0  0  0  0  0  0  0  0  0  0  0  0
   -6.5085    0.2869   -2.2959 C   0  0  0  0  0  0  0  0  0  0  0  0
   -7.1893    0.3552   -3.1580 H   0  0  0  0  0  0  0  0  0  0  0  0
   -5.2762    0.9591   -2.3122 C   0  0  0  0  0  0  0  0  0  0  0  0
   -4.9886    1.5625   -3.1866 H   0  0  0  0  0  0  0  0  0  0  0  0
   -4.4036    0.8702   -1.2197 C   0  0  0  0  0  0  0  0  0  0  0  0
   -3.4434    1.4025   -1.2452 H   0  0  0  0  0  0  0  0  0  0  0  0
  1 32  1  0  0  0  0
  2 31  1  6  0  0  0
  3  4  1  0  0  0  0
  3  2  1  0  0  0  0
  5  6  1  0  0  0  0
  5  3  2  0  0  0  0
  6  7  2  0  0  0  0
  7  8  1  0  0  0  0
  7  2  1  0  0  0  0
  9 18  1  0  0  0  0
  9  6  1  0  0  0  0
 10  9  2  0  0  0  0
 11 10  1  0  0  0  0
 12 10  1  0  0  0  0
 12 14  2  0  0  0  0
 13 12  1  0  0  0  0
 14 16  1  0  0  0  0
 15 14  1  0  0  0  0
 16 17  1  0  0  0  0
 16 18  2  0  0  0  0
 18 19  1  0  0  0  0
 20  5  1  0  0  0  0
 20 29  1  0  0  0  0
 21 20  2  0  0  0  0
 22 21  1  0  0  0  0
 23 21  1  0  0  0  0
 23 25  2  0  0  0  0
 24 23  1  0  0  0  0
 25 27  1  0  0  0  0
 26 25  1  0  0  0  0
 27 29  2  0  0  0  0
 27 28  1  0  0  0  0
 29 30  1  0  0  0  0
 31 38  1  0  0  0  0
 32 33  1  0  0  0  0
 32 31  2  0  0  0  0
 33 34  2  0  0  0  0
 34 35  1  0  0  0  0
 34 36  1  0  0  0  0
 36 37  1  0  0  0  0
 38 36  2  0  0  0  0
 38 39  1  0  0  0  0
 40 41  1  0  0  0  0
 40 33  1  0  0  0  0
 41 42  1  0  0  0  0
 43 44  1  0  0  0  0
 43 41  2  0  0  0  0
 45 43  1  0  0  0  0
 46 45  1  0  0  0  0
 47 45  2  0  0  0  0
 47 49  1  0  0  0  0
 48 47  1  0  0  0  0
 49 40  2  0  0  0  0
 50 49  1  0  0  0  0
M  CHG  1   1  -1
M  END
