1,3
 OpenBabel05122313053D

 26 25  0  0  1  0  0  0  0  0999 V2000
    1.9738    0.7784    0.4439 O   0  0  0  0  0  1  0  0  0  0  0  0
    0.8718   -1.5358   -2.3648 C   0  0  0  0  0  3  0  0  0  0  0  0
    2.2333   -1.4811   -1.8858 C   0  0  1  0  0  3  0  0  0  0  0  0
    2.8295   -0.1651   -1.9168 C   0  0  1  0  0  3  0  0  0  0  0  0
    3.9124    0.2427   -0.9255 C   0  0  0  0  0  0  0  0  0  0  0  0
    3.3020    1.1903    0.1638 C   0  0  0  0  0  0  0  0  0  0  0  0
    2.8291   -2.6642   -1.1555 C   0  0  0  0  0  0  0  0  0  0  0  0
    2.6715    0.7316   -3.1290 C   0  0  0  0  0  0  0  0  0  0  0  0
    4.1104    1.0833    1.4690 C   0  0  0  0  0  0  0  0  0  0  0  0
    3.2922    2.6622   -0.2979 C   0  0  0  0  0  0  0  0  0  0  0  0
    0.5613   -0.9849   -3.2698 H   0  0  0  0  0  0  0  0  0  0  0  0
    0.3204   -2.4809   -2.2188 H   0  0  0  0  0  0  0  0  0  0  0  0
    4.3159   -0.6500   -0.4100 H   0  0  0  0  0  0  0  0  0  0  0  0
    4.7712    0.7247   -1.4421 H   0  0  0  0  0  0  0  0  0  0  0  0
    2.0471   -3.4066   -0.9023 H   0  0  0  0  0  0  0  0  0  0  0  0
    3.5721   -3.1739   -1.8076 H   0  0  0  0  0  0  0  0  0  0  0  0
    3.3445   -2.3839   -0.2178 H   0  0  0  0  0  0  0  0  0  0  0  0
    1.8966    0.3769   -3.8328 H   0  0  0  0  0  0  0  0  0  0  0  0
    2.4347    1.7794   -2.8586 H   0  0  0  0  0  0  0  0  0  0  0  0
    3.6375    0.7630   -3.6834 H   0  0  0  0  0  0  0  0  0  0  0  0
    4.0985    0.0362    1.8340 H   0  0  0  0  0  0  0  0  0  0  0  0
    3.6449    1.7208    2.2474 H   0  0  0  0  0  0  0  0  0  0  0  0
    5.1657    1.4019    1.3384 H   0  0  0  0  0  0  0  0  0  0  0  0
    4.3082    3.0418   -0.5348 H   0  0  0  0  0  0  0  0  0  0  0  0
    2.8621    3.2916    0.5075 H   0  0  0  0  0  0  0  0  0  0  0  0
    2.6514    2.7920   -1.1910 H   0  0  0  0  0  0  0  0  0  0  0  0
  2 12  1  0  0  0  0
  3  2  1  1  0  0  0
  3  7  1  0  0  0  0
  4  8  1  6  0  0  0
  4  3  1  0  0  0  0
  4  5  1  0  0  0  0
  5 13  1  0  0  0  0
  5  6  1  0  0  0  0
  6  1  1  0  0  0  0
  6  9  1  0  0  0  0
  7 15  1  0  0  0  0
  7 17  1  0  0  0  0
  8 19  1  0  0  0  0
  9 21  1  0  0  0  0
  9 22  1  0  0  0  0
 10  6  1  0  0  0  0
 10 25  1  0  0  0  0
 11  2  1  0  0  0  0
 14  5  1  0  0  0  0
 16  7  1  0  0  0  0
 18  8  1  0  0  0  0
 20  8  1  0  0  0  0
 23  9  1  0  0  0  0
 24 10  1  0  0  0  0
 26 10  1  0  0  0  0
M  END
