2,4
 OpenBabel05122313053D

 24 24  0  0  0  0  0  0  0  0999 V2000
    1.8883    1.5367    0.0004 C   0  0  0  0  0  3  0  0  0  0  0  0
    0.5930    1.0689   -0.0000 C   0  0  0  0  0  3  0  0  0  0  0  0
   -0.5136    2.0167    0.0000 C   0  0  0  0  0  0  0  0  0  0  0  0
   -1.6813    1.5166    0.0000 O   0  5  0  0  0  0  0  0  0  0  0  0
   -0.3378    3.3431    0.0001 O   0  0  0  0  0  0  0  0  0  0  0  0
   -1.5266    4.1707    0.0003 C   0  0  0  0  0  0  0  0  0  0  0  0
   -1.0834    5.6181    0.0020 C   0  0  0  0  0  0  0  0  0  0  0  0
    3.1032    0.7328    0.0004 C   0  0  0  0  0  0  0  0  0  0  0  0
    3.0796   -0.6872    0.0001 C   0  0  0  0  0  0  0  0  0  0  0  0
    4.2674   -1.4249    0.0002 C   0  0  0  0  0  0  0  0  0  0  0  0
    5.5131   -0.7714    0.0006 C   0  0  0  0  0  0  0  0  0  0  0  0
    5.5575    0.6340    0.0010 C   0  0  0  0  0  0  0  0  0  0  0  0
    4.3700    1.3742    0.0009 C   0  0  0  0  0  0  0  0  0  0  0  0
    2.0607    2.6315    0.0007 H   0  0  0  0  0  0  0  0  0  0  0  0
   -2.1371    3.9143    0.8917 H   0  0  0  0  0  0  0  0  0  0  0  0
   -2.1361    3.9161   -0.8923 H   0  0  0  0  0  0  0  0  0  0  0  0
   -1.9686    6.2844    0.0021 H   0  0  0  0  0  0  0  0  0  0  0  0
   -0.4765    5.8471    0.9002 H   0  0  0  0  0  0  0  0  0  0  0  0
   -0.4754    5.8488   -0.8950 H   0  0  0  0  0  0  0  0  0  0  0  0
    2.1105   -1.2010   -0.0002 H   0  0  0  0  0  0  0  0  0  0  0  0
    4.2174   -2.5247   -0.0001 H   0  0  0  0  0  0  0  0  0  0  0  0
    6.4464   -1.3550    0.0007 H   0  0  0  0  0  0  0  0  0  0  0  0
    6.5277    1.1545    0.0014 H   0  0  0  0  0  0  0  0  0  0  0  0
    4.4072    2.4757    0.0012 H   0  0  0  0  0  0  0  0  0  0  0  0
  1  8  1  0  0  0  0
  1 14  1  0  0  0  0
  2  3  2  0  0  0  0
  2  1  1  0  0  0  0
  3  5  1  0  0  0  0
  4  3  1  0  0  0  0
  5  6  1  0  0  0  0
  6  7  1  0  0  0  0
  6 15  1  0  0  0  0
  7 17  1  0  0  0  0
  7 18  1  0  0  0  0
  8 13  1  0  0  0  0
  9 10  1  0  0  0  0
  9  8  2  0  0  0  0
 10 11  2  0  0  0  0
 11 22  1  0  0  0  0
 11 12  1  0  0  0  0
 12 23  1  0  0  0  0
 13 12  2  0  0  0  0
 13 24  1  0  0  0  0
 16  6  1  0  0  0  0
 19  7  1  0  0  0  0
 20  9  1  0  0  0  0
 21 10  1  0  0  0  0
M  CHG  1   4  -1
M  END
