1,3
 OpenBabel05122313053D

 12 11  0  0  0  0  0  0  0  0999 V2000
    0.0143   -0.0529    2.0891 O   0  5  0  0  0  0  0  0  0  0  0  0
   -0.2058   -3.4125   -0.3440 C   0  0  0  0  0  0  0  0  0  0  0  0
   -0.1198   -2.3064    0.4577 C   0  0  0  0  0  3  0  0  0  0  0  0
   -0.0876   -2.3986    1.9098 C   0  0  0  0  0  0  0  0  0  0  0  0
   -0.0180   -1.2406    2.6631 C   0  0  0  0  0  0  0  0  0  0  0  0
    0.0266   -1.2293    4.1718 C   0  0  0  0  0  0  0  0  0  0  0  0
   -0.2034   -3.3479   -1.4429 H   0  0  0  0  0  0  0  0  0  0  0  0
   -0.2597   -4.4293    0.0890 H   0  0  0  0  0  0  0  0  0  0  0  0
   -0.1183   -3.3855    2.4039 H   0  0  0  0  0  0  0  0  0  0  0  0
   -0.0078   -2.2493    4.5991 H   0  0  0  0  0  0  0  0  0  0  0  0
    0.9510   -0.7250    4.5262 H   0  0  0  0  0  0  0  0  0  0  0  0
   -0.8250   -0.6432    4.5788 H   0  0  0  0  0  0  0  0  0  0  0  0
  1  5  1  0  0  0  0
  2  8  1  0  0  0  0
  2  3  2  0  0  0  0
  3  4  1  0  0  0  0
  4  9  1  0  0  0  0
  4  5  2  0  0  0  0
  5  6  1  0  0  0  0
  6 11  1  0  0  0  0
  6 12  1  0  0  0  0
  6 10  1  0  0  0  0
  7  2  1  0  0  0  0
M  CHG  1   1  -1
M  END
