2,3
 OpenBabel05122313053D

 49 51  0  0  0  0  0  0  0  0999 V2000
   -0.2251    2.3596   -0.3958 N   0  0  0  0  0  0  0  0  0  0  0  0
   -2.3395    0.5067   -0.6010 O   0  5  0  0  0  0  0  0  0  0  0  0
    0.2858    1.1042   -0.2453 C   0  0  0  0  0  2  0  0  0  0  0  0
    1.6294    1.1929   -0.2320 N   0  0  0  0  0  0  0  0  0  0  0  0
    0.8319    3.3938   -0.3919 C   0  0  0  0  0  0  0  0  0  0  0  0
    0.7619    3.9921    0.5418 H   0  0  0  0  0  0  0  0  0  0  0  0
    0.7039    4.0793   -1.2521 H   0  0  0  0  0  0  0  0  0  0  0  0
    2.1144    2.5683   -0.4676 C   0  0  0  0  0  0  0  0  0  0  0  0
    2.6070    2.6209   -1.4610 H   0  0  0  0  0  0  0  0  0  0  0  0
    2.8621    2.8446    0.3001 H   0  0  0  0  0  0  0  0  0  0  0  0
   -1.5783    2.7586   -0.3999 C   0  0  0  0  0  0  0  0  0  0  0  0
   -2.6261    1.7927   -0.5134 C   0  0  0  0  0  0  0  0  0  0  0  0
   -3.9673    2.2325   -0.5494 C   0  0  0  0  0  0  0  0  0  0  0  0
   -4.7471    1.4631   -0.6437 H   0  0  0  0  0  0  0  0  0  0  0  0
   -4.2862    3.5918   -0.4671 C   0  0  0  0  0  0  0  0  0  0  0  0
   -5.3387    3.9112   -0.4927 H   0  0  0  0  0  0  0  0  0  0  0  0
   -3.2588    4.5404   -0.3535 C   0  0  0  0  0  0  0  0  0  0  0  0
   -3.4926    5.6128   -0.2868 H   0  0  0  0  0  0  0  0  0  0  0  0
   -1.9198    4.1250   -0.3249 C   0  0  0  0  0  0  0  0  0  0  0  0
   -1.1346    4.8867   -0.2351 H   0  0  0  0  0  0  0  0  0  0  0  0
    2.6118    0.1841    0.0685 C   0  0  0  0  0  0  0  0  0  0  0  0
    3.2724   -0.4815   -0.9923 C   0  0  0  0  0  0  0  0  0  0  0  0
    4.3152   -1.3667   -0.6613 C   0  0  0  0  0  0  0  0  0  0  0  0
    4.8396   -1.9025   -1.4664 H   0  0  0  0  0  0  0  0  0  0  0  0
    4.6870   -1.5829    0.6694 C   0  0  0  0  0  0  0  0  0  0  0  0
    5.5044   -2.2812    0.9060 H   0  0  0  0  0  0  0  0  0  0  0  0
    4.0115   -0.9215    1.7006 C   0  0  0  0  0  0  0  0  0  0  0  0
    4.2962   -1.1102    2.7464 H   0  0  0  0  0  0  0  0  0  0  0  0
    2.9625   -0.0258    1.4276 C   0  0  0  0  0  0  0  0  0  0  0  0
    2.8916   -0.2727   -2.4515 C   0  0  0  0  0  0  0  0  0  0  0  0
    1.9181    0.2585   -2.4699 H   0  0  0  0  0  0  0  0  0  0  0  0
    3.9370    0.5907   -3.1819 C   0  0  0  0  0  0  0  0  0  0  0  0
    4.0884    1.5730   -2.6892 H   0  0  0  0  0  0  0  0  0  0  0  0
    3.6290    0.7772   -4.2313 H   0  0  0  0  0  0  0  0  0  0  0  0
    4.9237    0.0825   -3.2047 H   0  0  0  0  0  0  0  0  0  0  0  0
    2.6802   -1.6108   -3.1782 C   0  0  0  0  0  0  0  0  0  0  0  0
    3.6320   -2.1699   -3.2926 H   0  0  0  0  0  0  0  0  0  0  0  0
    2.2723   -1.4347   -4.1940 H   0  0  0  0  0  0  0  0  0  0  0  0
    1.9572   -2.2414   -2.6272 H   0  0  0  0  0  0  0  0  0  0  0  0
    2.2498    0.6743    2.5779 C   0  0  0  0  0  0  0  0  0  0  0  0
    1.3320    1.1470    2.1757 H   0  0  0  0  0  0  0  0  0  0  0  0
    1.7842   -0.3195    3.6539 C   0  0  0  0  0  0  0  0  0  0  0  0
    2.6418   -0.7885    4.1800 H   0  0  0  0  0  0  0  0  0  0  0  0
    1.1631   -1.1158    3.2014 H   0  0  0  0  0  0  0  0  0  0  0  0
    1.1693    0.2037    4.4134 H   0  0  0  0  0  0  0  0  0  0  0  0
    3.1339    1.7795    3.1849 C   0  0  0  0  0  0  0  0  0  0  0  0
    4.0613    1.3532    3.6211 H   0  0  0  0  0  0  0  0  0  0  0  0
    2.5942    2.3134    3.9939 H   0  0  0  0  0  0  0  0  0  0  0  0
    3.4439    2.5302    2.4287 H   0  0  0  0  0  0  0  0  0  0  0  0
  1  5  1  0  0  0  0
  1  3  1  0  0  0  0
  2 12  1  0  0  0  0
  3  4  1  0  0  0  0
  4 21  1  0  0  0  0
  5  6  1  0  0  0  0
  7  5  1  0  0  0  0
  8  5  1  0  0  0  0
  8  4  1  0  0  0  0
  8 10  1  0  0  0  0
  9  8  1  0  0  0  0
 11  1  1  0  0  0  0
 11 19  1  0  0  0  0
 12 11  2  0  0  0  0
 13 12  1  0  0  0  0
 13 15  2  0  0  0  0
 14 13  1  0  0  0  0
 15 17  1  0  0  0  0
 16 15  1  0  0  0  0
 17 19  2  0  0  0  0
 17 18  1  0  0  0  0
 19 20  1  0  0  0  0
 21 29  1  0  0  0  0
 22 23  1  0  0  0  0
 22 21  2  0  0  0  0
 23 25  2  0  0  0  0
 24 23  1  0  0  0  0
 25 26  1  0  0  0  0
 25 27  1  0  0  0  0
 27 28  1  0  0  0  0
 29 27  2  0  0  0  0
 29 40  1  0  0  0  0
 30 22  1  0  0  0  0
 31 30  1  0  0  0  0
 32 33  1  0  0  0  0
 32 30  1  0  0  0  0
 34 32  1  0  0  0  0
 35 32  1  0  0  0  0
 36 39  1  0  0  0  0
 36 30  1  0  0  0  0
 37 36  1  0  0  0  0
 38 36  1  0  0  0  0
 40 46  1  0  0  0  0
 40 42  1  0  0  0  0
 41 40  1  0  0  0  0
 42 43  1  0  0  0  0
 42 45  1  0  0  0  0
 44 42  1  0  0  0  0
 46 47  1  0  0  0  0
 46 48  1  0  0  0  0
 49 46  1  0  0  0  0
M  CHG  1   2  -1
M  END
