1,14
 OpenBabel05122313053D

 18 18  0  0  0  0  0  0  0  0999 V2000
   -1.2907    1.2108   -0.0437 O   0  5  0  0  0  0  0  0  0  0  0  0
   -2.4721    0.6980   -0.3233 C   0  0  0  0  0  0  0  0  0  0  0  0
   -3.6821    1.4061   -0.0872 C   0  0  0  0  0  0  0  0  0  0  0  0
   -3.6223    2.4471    0.2660 H   0  0  0  0  0  0  0  0  0  0  0  0
   -4.9165    0.7666   -0.2642 C   0  0  0  0  0  0  0  0  0  0  0  0
   -5.8456    1.3216   -0.0568 H   0  0  0  0  0  0  0  0  0  0  0  0
   -4.9843   -0.5759   -0.6824 C   0  0  0  0  0  0  0  0  0  0  0  0
   -5.9578   -1.0725   -0.8082 H   0  0  0  0  0  0  0  0  0  0  0  0
   -3.7923   -1.2725   -0.9473 C   0  0  0  0  0  0  0  0  0  0  0  0
   -3.8282   -2.3202   -1.2901 H   0  0  0  0  0  0  0  0  0  0  0  0
   -2.5430   -0.6448   -0.7995 C   0  0  0  0  0  0  0  0  0  0  0  0
   -1.2525   -1.3076   -1.0923 C   0  0  0  0  0  3  0  0  0  0  0  0
   -1.2534   -2.4012   -0.9301 H   0  0  0  0  0  0  0  0  0  0  0  0
   -0.3153   -0.8715   -2.0774 C   0  0  0  0  0  3  0  0  0  0  0  0
    0.3125   -1.6575   -2.5352 H   0  0  0  0  0  0  0  0  0  0  0  0
   -0.0122    0.4889   -2.3556 C   0  0  0  0  0  3  0  0  0  0  0  0
   -0.8052    1.2518   -2.3274 H   0  0  0  0  0  0  0  0  0  0  0  0
    0.7998    0.6817   -3.0776 H   0  0  0  0  0  0  0  0  0  0  0  0
  2  3  1  0  0  0  0
  2  1  1  0  0  0  0
  3  4  1  0  0  0  0
  5  3  2  0  0  0  0
  5  6  1  0  0  0  0
  7  5  1  0  0  0  0
  8  7  1  0  0  0  0
  9 11  1  0  0  0  0
  9  7  2  0  0  0  0
 10  9  1  0  0  0  0
 11  2  2  0  0  0  0
 12 13  1  0  0  0  0
 12 11  1  0  0  0  0
 14 12  1  0  0  0  0
 15 14  1  0  0  0  0
 16 17  1  0  0  0  0
 16 14  1  0  0  0  0
 18 16  1  0  0  0  0
M  CHG  1   1  -1
M  END
