1,2
 OpenBabel05122313053D

 18 18  0  0  0  0  0  0  0  0999 V2000
   -2.2742   -1.5265    0.0089 O   0  5  0  0  0  0  0  0  0  0  0  0
   -2.2089    1.0654    0.0490 C   0  0  0  0  0  3  0  0  0  0  0  0
   -3.5011    0.4759   -0.1507 C   0  0  0  0  0  0  0  0  0  0  0  0
   -4.6291    1.2921   -0.3762 C   0  0  0  0  0  0  0  0  0  0  0  0
   -5.6160    0.8251   -0.5208 H   0  0  0  0  0  0  0  0  0  0  0  0
   -4.5045    2.6844   -0.4393 C   0  0  0  0  0  0  0  0  0  0  0  0
   -5.3920    3.3102   -0.6210 H   0  0  0  0  0  0  0  0  0  0  0  0
   -3.2381    3.2756   -0.2918 C   0  0  0  0  0  0  0  0  0  0  0  0
   -3.1219    4.3682   -0.3720 H   0  0  0  0  0  0  0  0  0  0  0  0
   -2.1130    2.4706   -0.0438 C   0  0  0  0  0  0  0  0  0  0  0  0
   -1.1389    2.9770    0.0495 H   0  0  0  0  0  0  0  0  0  0  0  0
   -3.4991   -0.9979   -0.1802 C   0  0  0  0  0  0  0  0  0  0  0  0
   -4.5967   -1.7877   -0.3944 C   0  0  0  0  0  0  0  0  0  0  0  0
   -5.5738   -1.2921   -0.5024 H   0  0  0  0  0  0  0  0  0  0  0  0
   -4.5528   -3.2814   -0.4626 C   0  0  0  0  0  0  0  0  0  0  0  0
   -5.0690   -3.6735   -1.3669 H   0  0  0  0  0  0  0  0  0  0  0  0
   -3.5053   -3.6420   -0.4775 H   0  0  0  0  0  0  0  0  0  0  0  0
   -5.0558   -3.7608    0.4092 H   0  0  0  0  0  0  0  0  0  0  0  0
  3  2  2  0  0  0  0
  4  3  1  0  0  0  0
  5  4  1  0  0  0  0
  6  4  2  0  0  0  0
  6  8  1  0  0  0  0
  7  6  1  0  0  0  0
  8 10  2  0  0  0  0
  9  8  1  0  0  0  0
 10  2  1  0  0  0  0
 10 11  1  0  0  0  0
 12  3  1  0  0  0  0
 12  1  1  0  0  0  0
 13 12  2  0  0  0  0
 14 13  1  0  0  0  0
 15 13  1  0  0  0  0
 15 18  1  0  0  0  0
 16 15  1  0  0  0  0
 17 15  1  0  0  0  0
M  CHG  1   1  -1
M  END
