1,5
 OpenBabel05122313053D

 36 37  0  0  1  0  0  0  0  0999 V2000
   -0.0961   -1.8512    0.0002 O   0  5  0  0  0  0  0  0  0  0  0  0
   -3.2580    1.6120    0.0003 O   0  0  0  0  0  0  0  0  0  0  0  0
   -1.4128   -1.5420    0.0001 C   0  0  0  0  0  0  0  0  0  0  0  0
   -1.7152   -0.1601    0.0002 C   0  0  0  0  0  0  0  0  0  0  0  0
   -0.5106    0.6973    0.0004 C   0  0  1  0  0  3  0  0  0  0  0  0
    0.2599    1.0251    1.1660 C   0  0  0  0  0  0  0  0  0  0  0  0
    1.5147    1.5611    0.7189 C   0  0  0  0  0  0  0  0  0  0  0  0
    1.5146    1.5615   -0.7179 C   0  0  0  0  0  0  0  0  0  0  0  0
    0.2597    1.0260   -1.1652 C   0  0  0  0  0  0  0  0  0  0  0  0
   -0.1779    0.8300   -2.5825 C   0  0  0  0  0  0  0  0  0  0  0  0
    2.6028    2.0866   -1.6012 C   0  0  0  0  0  0  0  0  0  0  0  0
    2.6030    2.0856    1.6024 C   0  0  0  0  0  0  0  0  0  0  0  0
   -0.1772    0.8280    2.5833 C   0  0  0  0  0  0  0  0  0  0  0  0
   -3.0588    0.2657    0.0002 C   0  0  0  0  0  0  0  0  0  0  0  0
   -4.5887    2.0945    0.0002 C   0  0  0  0  0  0  0  0  0  0  0  0
   -4.0871   -0.7033    0.0000 C   0  0  0  0  0  0  0  0  0  0  0  0
   -3.7577   -2.0710   -0.0001 C   0  0  0  0  0  0  0  0  0  0  0  0
   -2.4290   -2.5159   -0.0000 C   0  0  0  0  0  0  0  0  0  0  0  0
   -0.5313    1.7895   -3.0167 H   0  0  0  0  0  0  0  0  0  0  0  0
   -1.0171    0.1097   -2.6382 H   0  0  0  0  0  0  0  0  0  0  0  0
    0.6490    0.4516   -3.2140 H   0  0  0  0  0  0  0  0  0  0  0  0
    2.6587    1.5215   -2.5507 H   0  0  0  0  0  0  0  0  0  0  0  0
    3.5945    2.0209   -1.1145 H   0  0  0  0  0  0  0  0  0  0  0  0
    2.4198    3.1551   -1.8465 H   0  0  0  0  0  0  0  0  0  0  0  0
    2.6584    1.5207    2.5519 H   0  0  0  0  0  0  0  0  0  0  0  0
    2.4207    3.1542    1.8473 H   0  0  0  0  0  0  0  0  0  0  0  0
    3.5948    2.0191    1.1158 H   0  0  0  0  0  0  0  0  0  0  0  0
    0.6496    0.4480    3.2140 H   0  0  0  0  0  0  0  0  0  0  0  0
   -1.0172    0.1086    2.6385 H   0  0  0  0  0  0  0  0  0  0  0  0
   -0.5294    1.7874    3.0188 H   0  0  0  0  0  0  0  0  0  0  0  0
   -5.1489    1.7667   -0.9040 H   0  0  0  0  0  0  0  0  0  0  0  0
   -4.5207    3.1981    0.0003 H   0  0  0  0  0  0  0  0  0  0  0  0
   -5.1489    1.7665    0.9044 H   0  0  0  0  0  0  0  0  0  0  0  0
   -5.1423   -0.4021   -0.0000 H   0  0  0  0  0  0  0  0  0  0  0  0
   -4.5727   -2.8109   -0.0002 H   0  0  0  0  0  0  0  0  0  0  0  0
   -2.1668   -3.5823   -0.0001 H   0  0  0  0  0  0  0  0  0  0  0  0
  3  1  1  0  0  0  0
  3  4  1  0  0  0  0
  5  4  1  6  0  0  0
  5  6  1  0  0  0  0
  6 13  1  0  0  0  0
  7  6  2  0  0  0  0
  7 12  1  0  0  0  0
  8  7  1  0  0  0  0
  9  8  2  0  0  0  0
  9  5  1  0  0  0  0
 10  9  1  0  0  0  0
 11 23  1  0  0  0  0
 11  8  1  0  0  0  0
 12 26  1  0  0  0  0
 12 25  1  0  0  0  0
 13 29  1  0  0  0  0
 13 30  1  0  0  0  0
 13 28  1  0  0  0  0
 14  4  2  0  0  0  0
 14  2  1  0  0  0  0
 15  2  1  0  0  0  0
 15 32  1  0  0  0  0
 15 33  1  0  0  0  0
 16 14  1  0  0  0  0
 17 18  1  0  0  0  0
 17 16  2  0  0  0  0
 18  3  2  0  0  0  0
 19 10  1  0  0  0  0
 20 10  1  0  0  0  0
 21 10  1  0  0  0  0
 22 11  1  0  0  0  0
 24 11  1  0  0  0  0
 27 12  1  0  0  0  0
 31 15  1  0  0  0  0
 34 16  1  0  0  0  0
 35 17  1  0  0  0  0
 36 18  1  0  0  0  0
M  CHG  1   1  -1
M  END
