1,2
 OpenBabel05122313053D

 13 12  0  0  0  0  0  0  0  0999 V2000
   -0.5594   -0.2968   -2.2292 O   0  0  0  0  0  1  0  0  0  0  0  0
   -0.1668    2.3167   -1.0708 C   0  0  0  0  0  3  0  0  0  0  0  0
    0.1805    2.4833   -2.5635 C   0  0  0  0  0  0  0  0  0  0  0  0
   -0.7512    1.7313   -3.5268 C   0  0  0  0  0  0  0  0  0  0  0  0
   -0.5303    0.2177   -3.5332 C   0  0  0  0  0  0  0  0  0  0  0  0
    0.4406    3.0121   -0.4580 H   0  0  0  0  0  0  0  0  0  0  0  0
    1.2308    2.1708   -2.7755 H   0  0  0  0  0  0  0  0  0  0  0  0
   -1.2199    2.6374   -0.9361 H   0  0  0  0  0  0  0  0  0  0  0  0
    0.4585   -0.0172   -4.0015 H   0  0  0  0  0  0  0  0  0  0  0  0
   -0.6094    2.1013   -4.5654 H   0  0  0  0  0  0  0  0  0  0  0  0
    0.1480    3.5645   -2.8339 H   0  0  0  0  0  0  0  0  0  0  0  0
   -1.8084    1.9393   -3.2517 H   0  0  0  0  0  0  0  0  0  0  0  0
   -1.3099   -0.2867   -4.1489 H   0  0  0  0  0  0  0  0  0  0  0  0
  2  8  1  0  0  0  0
  2  6  1  0  0  0  0
  3  2  1  0  0  0  0
  4 12  1  0  0  0  0
  4  3  1  0  0  0  0
  5  4  1  0  0  0  0
  5  1  1  0  0  0  0
  7  3  1  0  0  0  0
  9  5  1  0  0  0  0
 10  4  1  0  0  0  0
 11  3  1  0  0  0  0
 13  5  1  0  0  0  0
M  END
