3,4
 OpenBabel05122313053D

 31 32  0  0  0  0  0  0  0  0999 V2000
   -0.9521    3.7506   -0.4697 N   0  0  0  0  0  0  0  0  0  0  0  0
    0.8848    2.8435    0.2293 N   0  0  0  0  0  0  0  0  0  0  0  0
    0.8471    0.0125   -0.3230 O   0  5  0  0  0  0  0  0  0  0  0  0
   -0.4179    2.5584   -0.0749 C   0  0  0  0  0  2  0  0  0  0  0  0
   -2.3362    3.9569   -0.8849 C   0  0  0  0  0  0  0  0  0  0  0  0
   -2.6147    3.2270   -1.6664 H   0  0  0  0  0  0  0  0  0  0  0  0
   -2.4344    4.9752   -1.3003 H   0  0  0  0  0  0  0  0  0  0  0  0
   -3.0218    3.8511   -0.0233 H   0  0  0  0  0  0  0  0  0  0  0  0
   -0.0057    4.7647   -0.4002 C   0  0  0  0  0  0  0  0  0  0  0  0
   -0.2356    5.8002   -0.6676 H   0  0  0  0  0  0  0  0  0  0  0  0
    1.1574    4.1932    0.0392 C   0  0  0  0  0  0  0  0  0  0  0  0
    2.1404    4.6304    0.2370 H   0  0  0  0  0  0  0  0  0  0  0  0
    1.8471    1.9009    0.7902 C   0  0  0  0  0  0  0  0  0  0  0  0
    1.5205    1.6495    1.8273 H   0  0  0  0  0  0  0  0  0  0  0  0
    2.8283    2.4023    0.8285 H   0  0  0  0  0  0  0  0  0  0  0  0
    1.9137    0.5766    0.0557 C   0  0  0  0  0  0  0  0  0  0  0  0
    3.1568   -0.1163   -0.1571 C   0  0  0  0  0  0  0  0  0  0  0  0
    3.0333   -1.1120   -0.6100 H   0  0  0  0  0  0  0  0  0  0  0  0
    4.4060    0.3591    0.1618 C   0  0  0  0  0  3  0  0  0  0  0  0
    4.4909    1.3663    0.6046 H   0  0  0  0  0  0  0  0  0  0  0  0
    5.6722   -0.3204   -0.0156 C   0  0  0  0  0  0  0  0  0  0  0  0
    6.8614    0.3528    0.3739 C   0  0  0  0  0  0  0  0  0  0  0  0
    6.7903    1.3664    0.7985 H   0  0  0  0  0  0  0  0  0  0  0  0
    8.1106   -0.2557    0.2252 C   0  0  0  0  0  0  0  0  0  0  0  0
    9.0229    0.2765    0.5313 H   0  0  0  0  0  0  0  0  0  0  0  0
    8.1955   -1.5496   -0.3158 C   0  0  0  0  0  0  0  0  0  0  0  0
    9.1774   -2.0320   -0.4339 H   0  0  0  0  0  0  0  0  0  0  0  0
    7.0273   -2.2332   -0.7073 C   0  0  0  0  0  0  0  0  0  0  0  0
    7.1001   -3.2461   -1.1296 H   0  0  0  0  0  0  0  0  0  0  0  0
    5.7787   -1.6293   -0.5600 C   0  0  0  0  0  0  0  0  0  0  0  0
    4.8749   -2.1744   -0.8682 H   0  0  0  0  0  0  0  0  0  0  0  0
  1  9  1  0  0  0  0
  1  4  1  0  0  0  0
  2 13  1  0  0  0  0
  3 16  1  0  0  0  0
  4  2  1  0  0  0  0
  5  1  1  0  0  0  0
  5  8  1  0  0  0  0
  6  5  1  0  0  0  0
  7  5  1  0  0  0  0
  9 11  2  0  0  0  0
 10  9  1  0  0  0  0
 11  2  1  0  0  0  0
 11 12  1  0  0  0  0
 13 15  1  0  0  0  0
 13 14  1  0  0  0  0
 16 13  1  0  0  0  0
 17 16  2  0  0  0  0
 17 19  1  0  0  0  0
 18 17  1  0  0  0  0
 19 20  1  0  0  0  0
 21 19  1  0  0  0  0
 21 22  1  0  0  0  0
 22 23  1  0  0  0  0
 24 22  2  0  0  0  0
 24 25  1  0  0  0  0
 26 24  1  0  0  0  0
 27 26  1  0  0  0  0
 28 30  1  0  0  0  0
 28 26  2  0  0  0  0
 29 28  1  0  0  0  0
 30 21  2  0  0  0  0
 31 30  1  0  0  0  0
M  CHG  1   3  -1
M  END
