1,3
 OpenBabel05122313053D

 13 12  0  0  0  0  0  0  0  0999 V2000
   -0.0605   -1.1145    1.8323 O   0  5  0  0  0  0  0  0  0  0  0  0
   -0.3248   -2.7351   -2.0230 C   0  0  0  0  0  0  0  0  0  0  0  0
   -0.2156   -2.1707   -0.6403 C   0  0  0  0  0  2  0  0  0  0  0  0
   -0.2365   -3.0063    0.4663 C   0  0  0  0  0  0  0  0  0  0  0  0
   -0.1553   -2.3845    1.7575 C   0  0  0  0  0  0  0  0  0  0  0  0
   -0.1405   -3.1761    3.0333 C   0  0  0  0  0  0  0  0  0  0  0  0
   -0.2890   -3.8438   -2.0546 H   0  0  0  0  0  0  0  0  0  0  0  0
   -1.2747   -2.4038   -2.4937 H   0  0  0  0  0  0  0  0  0  0  0  0
    0.4621   -2.3235   -2.6874 H   0  0  0  0  0  0  0  0  0  0  0  0
   -0.5656   -2.5813    3.8633 H   0  0  0  0  0  0  0  0  0  0  0  0
   -0.6771   -4.1382    2.9332 H   0  0  0  0  0  0  0  0  0  0  0  0
    0.9134   -3.4105    3.2997 H   0  0  0  0  0  0  0  0  0  0  0  0
   -0.3232   -4.1034    0.3843 H   0  0  0  0  0  0  0  0  0  0  0  0
  2  3  1  0  0  0  0
  3  4  1  0  0  0  0
  4  5  2  0  0  0  0
  5  1  1  0  0  0  0
  5  6  1  0  0  0  0
  6 12  1  0  0  0  0
  6 10  1  0  0  0  0
  7  2  1  0  0  0  0
  8  2  1  0  0  0  0
  9  2  1  0  0  0  0
 11  6  1  0  0  0  0
 13  4  1  0  0  0  0
M  CHG  1   1  -1
M  END
