1,2,27,52
 OpenBabel05122313063D

 76 78  0  0  0  0  0  0  0  0999 V2000
   -0.5754    0.0712    0.0757 B   0  0  0  0  0  0  0  0  0  0  0  0
   -2.7267    2.2357    0.3265 Se  0  0  0  0  0  1  0  0  0  0  0  0
    1.1092    1.6001   -0.8621 N   0  0  0  0  0  2  0  0  0  0  0  0
   -0.1348    1.5005   -0.3740 N   0  0  0  0  0  0  0  0  0  0  0  0
   -1.0056    2.5585   -0.2662 C   0  0  0  0  0  0  0  0  0  0  0  0
   -0.5206    3.8687   -0.6074 C   0  0  0  0  0  0  0  0  0  0  0  0
    0.7750    3.9605   -1.0793 C   0  0  0  0  0  0  0  0  0  0  0  0
    1.1819    4.9430   -1.3620 H   0  0  0  0  0  0  0  0  0  0  0  0
    1.5761    2.7825   -1.2191 C   0  0  0  0  0  0  0  0  0  0  0  0
    2.9908    2.8379   -1.8034 C   0  0  0  0  0  0  0  0  0  0  0  0
    3.6514    1.4521   -1.7396 C   0  0  0  0  0  0  0  0  0  0  0  0
    3.0588    0.7007   -2.2942 H   0  0  0  0  0  0  0  0  0  0  0  0
    3.7235    1.0917   -0.6953 H   0  0  0  0  0  0  0  0  0  0  0  0
    4.6708    1.5001   -2.1730 H   0  0  0  0  0  0  0  0  0  0  0  0
    2.8943    3.2926   -3.2776 C   0  0  0  0  0  0  0  0  0  0  0  0
    2.4268    4.2938   -3.3723 H   0  0  0  0  0  0  0  0  0  0  0  0
    2.2918    2.5772   -3.8730 H   0  0  0  0  0  0  0  0  0  0  0  0
    3.9064    3.3499   -3.7283 H   0  0  0  0  0  0  0  0  0  0  0  0
    3.8430    3.8474   -1.0030 C   0  0  0  0  0  0  0  0  0  0  0  0
    3.9153    3.5511    0.0625 H   0  0  0  0  0  0  0  0  0  0  0  0
    3.4270    4.8741   -1.0448 H   0  0  0  0  0  0  0  0  0  0  0  0
    4.8705    3.8893   -1.4185 H   0  0  0  0  0  0  0  0  0  0  0  0
   -1.4181    5.0574   -0.4576 C   0  0  0  0  0  0  0  0  0  0  0  0
   -0.9069    5.9935   -0.7508 H   0  0  0  0  0  0  0  0  0  0  0  0
   -1.7709    5.1456    0.5914 H   0  0  0  0  0  0  0  0  0  0  0  0
   -2.3323    4.9309   -1.0753 H   0  0  0  0  0  0  0  0  0  0  0  0
   -1.8127   -2.3041    1.1611 Se  0  0  0  0  0  1  0  0  0  0  0  0
    1.2264    0.2803    1.7934 N   0  0  0  0  0  2  0  0  0  0  0  0
    0.1970   -0.4201    1.3289 N   0  0  0  0  0  0  0  0  0  0  0  0
   -0.1968   -1.6467    1.8081 C   0  0  0  0  0  0  0  0  0  0  0  0
    0.6457   -2.2945    2.7609 C   0  0  0  0  0  0  0  0  0  0  0  0
    1.7393   -1.5734    3.2201 C   0  0  0  0  0  0  0  0  0  0  0  0
    2.4070   -2.0216    3.9713 H   0  0  0  0  0  0  0  0  0  0  0  0
    1.9854   -0.2529    2.7416 C   0  0  0  0  0  0  0  0  0  0  0  0
    3.1635    0.5855    3.2449 C   0  0  0  0  0  0  0  0  0  0  0  0
    3.0967    2.0069    2.6631 C   0  0  0  0  0  0  0  0  0  0  0  0
    2.1610    2.5186    2.9612 H   0  0  0  0  0  0  0  0  0  0  0  0
    3.1131    1.9858    1.5575 H   0  0  0  0  0  0  0  0  0  0  0  0
    3.9587    2.6021    3.0267 H   0  0  0  0  0  0  0  0  0  0  0  0
    3.1274    0.6620    4.7862 C   0  0  0  0  0  0  0  0  0  0  0  0
    3.2142   -0.3375    5.2580 H   0  0  0  0  0  0  0  0  0  0  0  0
    2.1844    1.1256    5.1391 H   0  0  0  0  0  0  0  0  0  0  0  0
    3.9728    1.2773    5.1560 H   0  0  0  0  0  0  0  0  0  0  0  0
    4.4727   -0.0952    2.7825 C   0  0  0  0  0  0  0  0  0  0  0  0
    4.5137   -0.1596    1.6762 H   0  0  0  0  0  0  0  0  0  0  0  0
    4.5679   -1.1240    3.1858 H   0  0  0  0  0  0  0  0  0  0  0  0
    5.3518    0.4860    3.1293 H   0  0  0  0  0  0  0  0  0  0  0  0
    0.3038   -3.6673    3.2491 C   0  0  0  0  0  0  0  0  0  0  0  0
    1.0504   -4.0416    3.9745 H   0  0  0  0  0  0  0  0  0  0  0  0
    0.2353   -4.3770    2.3982 H   0  0  0  0  0  0  0  0  0  0  0  0
   -0.6996   -3.6614    3.7247 H   0  0  0  0  0  0  0  0  0  0  0  0
   -2.8013   -0.5187   -1.6721 Se  0  0  0  0  0  1  0  0  0  0  0  0
    1.0645   -1.4393   -1.0823 N   0  0  0  0  0  2  0  0  0  0  0  0
   -0.1617   -0.9216   -1.0902 N   0  0  0  0  0  0  0  0  0  0  0  0
   -1.0948   -1.1509   -2.0610 C   0  0  0  0  0  0  0  0  0  0  0  0
   -0.7039   -1.8900   -3.2203 C   0  0  0  0  0  0  0  0  0  0  0  0
    0.5793   -2.4164   -3.2152 C   0  0  0  0  0  0  0  0  0  0  0  0
    0.9207   -3.0205   -4.0696 H   0  0  0  0  0  0  0  0  0  0  0  0
    1.4433   -2.2039   -2.0961 C   0  0  0  0  0  0  0  0  0  0  0  0
    2.8262   -2.8547   -2.0023 C   0  0  0  0  0  0  0  0  0  0  0  0
    3.5308   -2.4393   -0.6997 C   0  0  0  0  0  0  0  0  0  0  0  0
    4.5278   -2.9214   -0.6454 H   0  0  0  0  0  0  0  0  0  0  0  0
    2.9429   -2.7375    0.1896 H   0  0  0  0  0  0  0  0  0  0  0  0
    3.6606   -1.3421   -0.6459 H   0  0  0  0  0  0  0  0  0  0  0  0
    2.6449   -4.3899   -2.0153 C   0  0  0  0  0  0  0  0  0  0  0  0
    2.0226   -4.7207   -1.1593 H   0  0  0  0  0  0  0  0  0  0  0  0
    3.6312   -4.8920   -1.9398 H   0  0  0  0  0  0  0  0  0  0  0  0
    2.1587   -4.7437   -2.9470 H   0  0  0  0  0  0  0  0  0  0  0  0
    3.6836   -2.4210   -3.2116 C   0  0  0  0  0  0  0  0  0  0  0  0
    3.2251   -2.7183   -4.1765 H   0  0  0  0  0  0  0  0  0  0  0  0
    4.6848   -2.8955   -3.1590 H   0  0  0  0  0  0  0  0  0  0  0  0
    3.8257   -1.3219   -3.2236 H   0  0  0  0  0  0  0  0  0  0  0  0
   -1.6806   -2.1055   -4.3345 C   0  0  0  0  0  0  0  0  0  0  0  0
   -1.2382   -2.6937   -5.1602 H   0  0  0  0  0  0  0  0  0  0  0  0
   -2.0395   -1.1334   -4.7323 H   0  0  0  0  0  0  0  0  0  0  0  0
   -2.5820   -2.6319   -3.9548 H   0  0  0  0  0  0  0  0  0  0  0  0
  1 29  1  0  0  0  0
  3  4  1  0  0  0  0
  4  5  1  0  0  0  0
  4  1  1  0  0  0  0
  5  2  1  0  0  0  0
  6 23  1  0  0  0  0
  6  5  2  0  0  0  0
  7  6  1  0  0  0  0
  8  7  1  0  0  0  0
  9  7  2  0  0  0  0
  9  3  1  0  0  0  0
 10 11  1  0  0  0  0
 10  9  1  0  0  0  0
 10 19  1  0  0  0  0
 11 13  1  0  0  0  0
 12 11  1  0  0  0  0
 14 11  1  0  0  0  0
 15 10  1  0  0  0  0
 16 15  1  0  0  0  0
 17 15  1  0  0  0  0
 18 15  1  0  0  0  0
 19 20  1  0  0  0  0
 21 19  1  0  0  0  0
 22 19  1  0  0  0  0
 23 25  1  0  0  0  0
 24 23  1  0  0  0  0
 26 23  1  0  0  0  0
 27 30  1  0  0  0  0
 28 34  1  0  0  0  0
 29 28  1  0  0  0  0
 29 30  1  0  0  0  0
 30 31  2  0  0  0  0
 31 32  1  0  0  0  0
 31 48  1  0  0  0  0
 32 33  1  0  0  0  0
 34 32  2  0  0  0  0
 34 35  1  0  0  0  0
 35 40  1  0  0  0  0
 36 37  1  0  0  0  0
 36 39  1  0  0  0  0
 36 35  1  0  0  0  0
 38 36  1  0  0  0  0
 40 42  1  0  0  0  0
 40 43  1  0  0  0  0
 40 41  1  0  0  0  0
 44 47  1  0  0  0  0
 44 46  1  0  0  0  0
 44 35  1  0  0  0  0
 45 44  1  0  0  0  0
 48 51  1  0  0  0  0
 48 49  1  0  0  0  0
 50 48  1  0  0  0  0
 54 53  1  0  0  0  0
 54  1  1  0  0  0  0
 55 52  1  0  0  0  0
 55 54  1  0  0  0  0
 56 57  1  0  0  0  0
 56 55  2  0  0  0  0
 57 59  2  0  0  0  0
 58 57  1  0  0  0  0
 59 60  1  0  0  0  0
 59 53  1  0  0  0  0
 60 61  1  0  0  0  0
 61 64  1  0  0  0  0
 61 62  1  0  0  0  0
 61 63  1  0  0  0  0
 65 60  1  0  0  0  0
 65 67  1  0  0  0  0
 65 66  1  0  0  0  0
 68 65  1  0  0  0  0
 69 71  1  0  0  0  0
 69 60  1  0  0  0  0
 70 69  1  0  0  0  0
 72 69  1  0  0  0  0
 73 76  1  0  0  0  0
 73 56  1  0  0  0  0
 74 73  1  0  0  0  0
 75 73  1  0  0  0  0
M  END
