1,2,3,4,5
 OpenBabel05122313063D

 43 44  0  0  1  0  0  0  0  0999 V2000
   -1.4426    0.5104    1.1538 O   0  5  0  0  0  0  0  0  0  0  0  0
   -0.6344   -1.3140   -1.0090 N   0  0  0  0  0  2  0  0  0  0  0  0
    2.1294   -1.2696   -0.4091 N   0  0  0  0  0  0  0  0  0  0  0  0
    0.7818   -1.6429    2.1172 N   0  0  0  0  0  0  0  0  0  0  0  0
    1.3607    1.3258    0.1840 N   0  0  0  0  0  2  0  0  0  0  0  0
   -2.6079    0.4145    0.5664 C   0  0  0  0  0  0  0  0  0  0  0  0
   -3.7105    1.1285    1.1281 C   0  0  0  0  0  0  0  0  0  0  0  0
   -4.9782    1.0916    0.5611 C   0  0  0  0  0  0  0  0  0  0  0  0
   -5.2344    0.3363   -0.6108 C   0  0  0  0  0  0  0  0  0  0  0  0
   -4.1933   -0.3728   -1.1864 C   0  0  0  0  0  0  0  0  0  0  0  0
   -2.8732   -0.3673   -0.6345 C   0  0  0  0  0  0  0  0  0  0  0  0
   -1.8958   -1.1511   -1.3317 C   0  0  0  0  0  3  0  0  0  0  0  0
    0.2463   -2.1523   -1.8003 C   0  0  0  0  0  0  0  0  0  0  0  0
    1.6675   -1.5717   -1.7792 C   0  0  0  0  0  0  0  0  0  0  0  0
    2.4148   -2.4392    0.4328 C   0  0  0  0  0  0  0  0  0  0  0  0
    2.1630   -2.1347    1.9143 C   0  0  0  0  0  0  0  0  0  0  0  0
    3.1640   -0.2344   -0.3713 C   0  0  0  0  0  0  0  0  0  0  0  0
    2.5921    1.1751   -0.3495 C   0  0  2  0  0  3  0  0  0  0  0  0
    3.3226    2.2839   -0.8024 C   0  0  0  0  0  0  0  0  0  0  0  0
    2.7636    3.5639   -0.6790 C   0  0  0  0  0  0  0  0  0  0  0  0
    1.4860    3.7042   -0.1153 C   0  0  0  0  0  0  0  0  0  0  0  0
    0.8091    2.5529    0.2982 C   0  0  0  0  0  0  0  0  0  0  0  0
    0.1114   -2.4263    2.1173 H   0  0  0  0  0  0  0  0  0  0  0  0
    0.6764   -1.1953    3.0384 H   0  0  0  0  0  0  0  0  0  0  0  0
   -3.5093    1.7128    2.0381 H   0  0  0  0  0  0  0  0  0  0  0  0
   -5.7962    1.6592    1.0315 H   0  0  0  0  0  0  0  0  0  0  0  0
   -6.2403    0.3142   -1.0524 H   0  0  0  0  0  0  0  0  0  0  0  0
   -4.3705   -0.9680   -2.0970 H   0  0  0  0  0  0  0  0  0  0  0  0
   -2.2691   -1.6737   -2.2405 H   0  0  0  0  0  0  0  0  0  0  0  0
   -0.0910   -2.2454   -2.8565 H   0  0  0  0  0  0  0  0  0  0  0  0
    0.2514   -3.1889   -1.3885 H   0  0  0  0  0  0  0  0  0  0  0  0
    2.3722   -2.2537   -2.3102 H   0  0  0  0  0  0  0  0  0  0  0  0
    1.6597   -0.6109   -2.3338 H   0  0  0  0  0  0  0  0  0  0  0  0
    3.4555   -2.8168    0.3004 H   0  0  0  0  0  0  0  0  0  0  0  0
    1.7445   -3.2633    0.1140 H   0  0  0  0  0  0  0  0  0  0  0  0
    2.3847   -3.0382    2.5207 H   0  0  0  0  0  0  0  0  0  0  0  0
    2.8541   -1.3411    2.2650 H   0  0  0  0  0  0  0  0  0  0  0  0
    3.8904   -0.3343   -1.2103 H   0  0  0  0  0  0  0  0  0  0  0  0
    3.7627   -0.3609    0.5563 H   0  0  0  0  0  0  0  0  0  0  0  0
    4.3190    2.1418   -1.2466 H   0  0  0  0  0  0  0  0  0  0  0  0
    3.3202    4.4466   -1.0280 H   0  0  0  0  0  0  0  0  0  0  0  0
    1.0129    4.6901   -0.0062 H   0  0  0  0  0  0  0  0  0  0  0  0
   -0.2050    2.5741    0.7313 H   0  0  0  0  0  0  0  0  0  0  0  0
  3 17  1  0  0  0  0
  3 15  1  0  0  0  0
  4 23  1  0  0  0  0
  4 24  1  0  0  0  0
  5 22  1  0  0  0  0
  6  7  1  0  0  0  0
  6  1  1  0  0  0  0
  7 25  1  0  0  0  0
  8 26  1  0  0  0  0
  8  7  2  0  0  0  0
  9  8  1  0  0  0  0
 10 11  1  0  0  0  0
 10  9  2  0  0  0  0
 11  6  2  0  0  0  0
 12  2  1  0  0  0  0
 12 11  1  0  0  0  0
 13 14  1  0  0  0  0
 13 31  1  0  0  0  0
 13  2  1  0  0  0  0
 14  3  1  0  0  0  0
 15 16  1  0  0  0  0
 16  4  1  0  0  0  0
 16 37  1  0  0  0  0
 16 36  1  0  0  0  0
 17 39  1  0  0  0  0
 18 17  1  1  0  0  0
 18  5  1  0  0  0  0
 19 20  2  0  0  0  0
 19 18  1  0  0  0  0
 20 21  1  0  0  0  0
 21 42  1  0  0  0  0
 21 22  2  0  0  0  0
 22 43  1  0  0  0  0
 27  9  1  0  0  0  0
 28 10  1  0  0  0  0
 29 12  1  0  0  0  0
 30 13  1  0  0  0  0
 32 14  1  0  0  0  0
 33 14  1  0  0  0  0
 34 15  1  0  0  0  0
 35 15  1  0  0  0  0
 38 17  1  0  0  0  0
 40 19  1  0  0  0  0
 41 20  1  0  0  0  0
M  CHG  1   1  -1
M  END
