5,15,29,40,68
 OpenBabel05122313063D

 69 72  0  0  1  0  0  0  0  0999 V2000
    0.5161   -0.9142   -1.0355 C   0  0  2  0  0  3  0  0  0  0  0  0
    0.9718   -0.0101   -2.1661 C   0  0  0  0  0  0  0  0  0  0  0  0
    1.6973   -0.5313   -2.8305 H   0  0  0  0  0  0  0  0  0  0  0  0
    0.0644    0.2038   -2.7705 H   0  0  0  0  0  0  0  0  0  0  0  0
    1.4960    1.2858   -1.6839 N   0  0  0  0  0  0  0  0  0  0  0  0
    1.2208    2.3723   -2.6536 C   0  0  0  0  0  0  0  0  0  0  0  0
    0.1254    2.3391   -2.8285 H   0  0  0  0  0  0  0  0  0  0  0  0
    1.7129    2.1647   -3.6337 H   0  0  0  0  0  0  0  0  0  0  0  0
    1.6449    3.7763   -2.1883 C   0  0  0  0  0  0  0  0  0  0  0  0
    1.1027    4.5002   -2.8302 H   0  0  0  0  0  0  0  0  0  0  0  0
    2.7176    3.9478   -2.4164 H   0  0  0  0  0  0  0  0  0  0  0  0
    1.4820    4.1509   -0.7086 C   0  0  0  0  0  0  0  0  0  0  0  0
    2.2433    3.6332   -0.0939 H   0  0  0  0  0  0  0  0  0  0  0  0
    1.6780    5.2443   -0.6077 H   0  0  0  0  0  0  0  0  0  0  0  0
    0.1693    3.8414   -0.0723 N   0  0  0  0  0  0  0  0  0  0  0  0
   -0.9378    4.5012   -0.8020 C   0  0  0  0  0  0  0  0  0  0  0  0
   -0.7716    5.6008   -0.8442 H   0  0  0  0  0  0  0  0  0  0  0  0
   -1.8992    4.2948   -0.3018 H   0  0  0  0  0  0  0  0  0  0  0  0
   -1.0252    4.0905   -1.8218 H   0  0  0  0  0  0  0  0  0  0  0  0
    0.2179    4.3195    1.3415 C   0  0  0  0  0  0  0  0  0  0  0  0
    0.2711    5.4330    1.3249 H   0  0  0  0  0  0  0  0  0  0  0  0
    1.1796    3.9666    1.7655 H   0  0  0  0  0  0  0  0  0  0  0  0
   -0.9322    3.8889    2.2568 C   0  0  0  0  0  0  0  0  0  0  0  0
   -0.8744    4.5412    3.1525 H   0  0  0  0  0  0  0  0  0  0  0  0
   -1.9142    4.1332    1.8034 H   0  0  0  0  0  0  0  0  0  0  0  0
   -0.9098    2.4465    2.7734 C   0  0  0  0  0  0  0  0  0  0  0  0
   -1.6303    2.3534    3.6207 H   0  0  0  0  0  0  0  0  0  0  0  0
    0.0965    2.2322    3.1911 H   0  0  0  0  0  0  0  0  0  0  0  0
   -1.1924    1.4070    1.7585 N   0  0  0  0  0  0  0  0  0  0  0  0
   -0.8328    0.0519    2.2399 C   0  0  0  0  0  0  0  0  0  0  0  0
   -1.6376   -0.3881    2.8694 H   0  0  0  0  0  0  0  0  0  0  0  0
    0.0668    0.1493    2.8853 H   0  0  0  0  0  0  0  0  0  0  0  0
   -0.4844   -0.8753    1.0929 C   0  0  0  0  0  0  0  0  0  0  0  0
   -0.7297   -2.2542    1.0506 C   0  0  0  0  0  0  0  0  0  0  0  0
   -1.2681   -2.7548    1.8676 H   0  0  0  0  0  0  0  0  0  0  0  0
   -0.2979   -2.9675   -0.0783 C   0  0  0  0  0  0  0  0  0  0  0  0
   -0.4763   -4.0510   -0.1420 H   0  0  0  0  0  0  0  0  0  0  0  0
    0.3317   -2.2985   -1.1412 C   0  0  0  0  0  0  0  0  0  0  0  0
    0.6498   -2.8398   -2.0436 H   0  0  0  0  0  0  0  0  0  0  0  0
    0.1481   -0.2661    0.0785 N   0  0  0  0  0  2  0  0  0  0  0  0
    2.9391    1.1749   -1.3427 C   0  0  0  0  0  0  0  0  0  0  0  0
    3.2969    2.1720   -1.0265 H   0  0  0  0  0  0  0  0  0  0  0  0
    3.5118    0.8958   -2.2577 H   0  0  0  0  0  0  0  0  0  0  0  0
    3.2213    0.1713   -0.2527 C   0  0  0  0  0  0  0  0  0  0  0  0
    3.7150   -1.1074   -0.5611 C   0  0  0  0  0  0  0  0  0  0  0  0
    3.9353   -1.3631   -1.6081 H   0  0  0  0  0  0  0  0  0  0  0  0
    3.9201   -2.0658    0.4438 C   0  0  0  0  0  0  0  0  0  0  0  0
    3.6617   -1.7478    1.7862 C   0  0  0  0  0  0  0  0  0  0  0  0
    3.8333   -2.4915    2.5766 H   0  0  0  0  0  0  0  0  0  0  0  0
    3.1809   -0.4712    2.1074 C   0  0  0  0  0  0  0  0  0  0  0  0
    2.9777   -0.2156    3.1605 H   0  0  0  0  0  0  0  0  0  0  0  0
    2.9516    0.4774    1.0993 C   0  0  0  0  0  0  0  0  0  0  0  0
    2.4246    1.7193    1.3849 O   0  0  0  0  0  0  0  0  0  0  0  0
    2.5012    1.8713    2.3461 H   0  0  0  0  0  0  0  0  0  0  0  0
    4.5308   -3.7982   -0.0222 Br  0  0  0  0  0  0  0  0  0  0  0  0
   -2.6341    1.4466    1.3315 C   0  0  0  0  0  0  0  0  0  0  0  0
   -2.8227    2.4672    0.9423 H   0  0  0  0  0  0  0  0  0  0  0  0
   -3.2732    1.3033    2.2330 H   0  0  0  0  0  0  0  0  0  0  0  0
   -2.9937    0.4418    0.2731 C   0  0  0  0  0  0  0  0  0  0  0  0
   -3.8314   -0.6469    0.5758 C   0  0  0  0  0  0  0  0  0  0  0  0
   -4.2154   -0.7754    1.5997 H   0  0  0  0  0  0  0  0  0  0  0  0
   -4.1754   -1.5737   -0.4160 C   0  0  0  0  0  0  0  0  0  0  0  0
   -3.7186   -1.3965   -1.7350 C   0  0  0  0  0  0  0  0  0  0  0  0
   -4.0093   -2.1144   -2.5156 H   0  0  0  0  0  0  0  0  0  0  0  0
   -2.8958   -0.3099   -2.0461 C   0  0  0  0  0  0  0  0  0  0  0  0
   -2.5435   -0.1589   -3.0781 H   0  0  0  0  0  0  0  0  0  0  0  0
   -2.4892    0.6263   -1.0573 C   0  0  0  0  0  0  0  0  0  0  0  0
   -1.6500    1.6124   -1.3451 O   0  5  0  0  0  0  0  0  0  0  0  0
   -5.2602   -3.0741    0.0261 Br  0  0  0  0  0  0  0  0  0  0  0  0
  1 38  1  6  0  0  0
  1 40  1  0  0  0  0
  2  5  1  0  0  0  0
  2  1  1  0  0  0  0
  3  2  1  0  0  0  0
  4  2  1  0  0  0  0
  5 41  1  0  0  0  0
  6  9  1  0  0  0  0
  6  5  1  0  0  0  0
  7  6  1  0  0  0  0
  8  6  1  0  0  0  0
  9 12  1  0  0  0  0
 10  9  1  0  0  0  0
 11  9  1  0  0  0  0
 12 14  1  0  0  0  0
 12 13  1  0  0  0  0
 12 15  1  0  0  0  0
 15 20  1  0  0  0  0
 16 18  1  0  0  0  0
 16 15  1  0  0  0  0
 17 16  1  0  0  0  0
 19 16  1  0  0  0  0
 20 22  1  0  0  0  0
 20 23  1  0  0  0  0
 21 20  1  0  0  0  0
 23 26  1  0  0  0  0
 23 24  1  0  0  0  0
 25 23  1  0  0  0  0
 26 28  1  0  0  0  0
 26 27  1  0  0  0  0
 29 30  1  0  0  0  0
 29 26  1  0  0  0  0
 30 31  1  0  0  0  0
 30 32  1  0  0  0  0
 33 30  1  0  0  0  0
 34 33  2  0  0  0  0
 34 35  1  0  0  0  0
 36 34  1  0  0  0  0
 37 36  1  0  0  0  0
 38 36  2  0  0  0  0
 39 38  1  0  0  0  0
 40 33  1  0  0  0  0
 41 42  1  0  0  0  0
 41 44  1  0  0  0  0
 43 41  1  0  0  0  0
 44 52  1  0  0  0  0
 45 44  2  0  0  0  0
 45 47  1  0  0  0  0
 46 45  1  0  0  0  0
 47 48  2  0  0  0  0
 48 50  1  0  0  0  0
 48 49  1  0  0  0  0
 50 51  1  0  0  0  0
 52 53  1  0  0  0  0
 52 50  2  0  0  0  0
 53 54  1  0  0  0  0
 55 47  1  0  0  0  0
 56 29  1  0  0  0  0
 56 58  1  0  0  0  0
 57 56  1  0  0  0  0
 59 60  1  0  0  0  0
 59 56  1  0  0  0  0
 60 61  1  0  0  0  0
 62 69  1  0  0  0  0
 62 60  2  0  0  0  0
 63 62  1  0  0  0  0
 64 63  1  0  0  0  0
 65 63  2  0  0  0  0
 65 67  1  0  0  0  0
 66 65  1  0  0  0  0
 67 59  2  0  0  0  0
 68 67  1  0  0  0  0
M  CHG  1  68  -1
M  END
