3,8,9,10,12
 OpenBabel05122313063D

 72 74  0  0  1  0  0  0  0  0999 V2000
    4.6330   -0.9581   -0.4271 S   0  0  0  0  0  0  0  0  0  0  0  0
    1.1836    3.2163    0.5317 S   0  0  0  0  0  0  0  0  0  0  0  0
   -0.8833    1.2732   -0.7357 O   0  5  0  0  0  0  0  0  0  0  0  0
    4.8117   -1.8470   -1.5974 O   0  0  0  0  0  0  0  0  0  0  0  0
    5.5230    0.2007   -0.1999 O   0  0  0  0  0  0  0  0  0  0  0  0
    2.4431    3.5622    1.2151 O   0  0  0  0  0  0  0  0  0  0  0  0
   -0.1059    3.1829    1.2681 O   0  0  0  0  0  0  0  0  0  0  0  0
   -4.0788   -0.0126   -1.3022 N   0  0  0  0  0  0  0  0  0  0  0  0
   -3.0496    1.5029    0.8857 N   0  0  0  0  0  0  0  0  0  0  0  0
   -1.9065   -0.9051    1.8443 N   0  0  0  0  0  0  0  0  0  0  0  0
   -2.9735   -2.5610   -0.3792 N   0  0  0  0  0  0  0  0  0  0  0  0
   -0.5799   -1.3483   -0.8658 N   0  0  0  0  0  2  0  0  0  0  0  0
    4.5872   -2.0011    0.9480 N   0  0  0  0  0  0  0  0  0  0  0  0
    0.9911    4.3180   -0.7299 N   0  0  0  0  0  0  0  0  0  0  0  0
   -4.2226   -2.4816   -1.1535 C   0  0  0  0  0  0  0  0  0  0  0  0
   -4.9510   -1.1503   -0.9492 C   0  0  0  0  0  0  0  0  0  0  0  0
   -4.6256    1.3285   -0.9796 C   0  0  0  0  0  0  0  0  0  0  0  0
   -4.4494    1.6720    0.5049 C   0  0  0  0  0  0  0  0  0  0  0  0
   -2.7291    1.3624    2.3111 C   0  0  0  0  0  0  0  0  0  0  0  0
   -2.7828   -0.1107    2.7253 C   0  0  0  0  0  0  0  0  0  0  0  0
   -2.0544   -2.3687    1.9414 C   0  0  0  0  0  0  0  0  0  0  0  0
   -3.1820   -2.8839    1.0409 C   0  0  0  0  0  0  0  0  0  0  0  0
   -1.9033   -3.3630   -1.0007 C   0  0  0  0  0  0  0  0  0  0  0  0
   -0.5467   -2.6722   -0.9602 C   0  0  0  0  0  0  0  0  0  0  0  0
    0.6989   -3.3492   -1.0247 C   0  0  0  0  0  0  0  0  0  0  0  0
    1.8835   -2.6254   -0.9081 C   0  0  0  0  0  0  0  0  0  0  0  0
    1.8453   -1.2098   -0.7189 C   0  0  0  0  0  0  0  0  0  0  0  0
    2.9489   -0.3451   -0.4354 C   0  0  0  0  0  0  0  0  0  0  0  0
    2.7322    0.9964   -0.1239 C   0  0  0  0  0  0  0  0  0  0  0  0
    1.4410    1.5705   -0.1630 C   0  0  0  0  0  0  0  0  0  0  0  0
    0.3148    0.8223   -0.5853 C   0  0  0  0  0  0  0  0  0  0  0  0
    0.5518   -0.6108   -0.7574 C   0  0  2  0  0  3  0  0  0  0  0  0
    4.5447   -1.2682    2.2122 C   0  0  0  0  0  0  0  0  0  0  0  0
    5.6036   -3.0566    0.9035 C   0  0  0  0  0  0  0  0  0  0  0  0
    2.1714    4.5485   -1.5557 C   0  0  0  0  0  0  0  0  0  0  0  0
   -0.3004    4.3952   -1.3959 C   0  0  0  0  0  0  0  0  0  0  0  0
   -4.9230   -3.3184   -0.9228 H   0  0  0  0  0  0  0  0  0  0  0  0
   -3.9627   -2.5817   -2.2273 H   0  0  0  0  0  0  0  0  0  0  0  0
   -5.8909   -1.1492   -1.5451 H   0  0  0  0  0  0  0  0  0  0  0  0
   -5.2545   -1.0330    0.1118 H   0  0  0  0  0  0  0  0  0  0  0  0
   -3.8777   -0.0506   -2.3111 H   0  0  0  0  0  0  0  0  0  0  0  0
   -5.6967    1.4113   -1.2666 H   0  0  0  0  0  0  0  0  0  0  0  0
   -4.0619    2.0622   -1.5912 H   0  0  0  0  0  0  0  0  0  0  0  0
   -4.8339    2.7017    0.6846 H   0  0  0  0  0  0  0  0  0  0  0  0
   -5.0705    0.9979    1.1328 H   0  0  0  0  0  0  0  0  0  0  0  0
   -2.4322    2.2166    0.4676 H   0  0  0  0  0  0  0  0  0  0  0  0
   -3.4008    1.9635    2.9624 H   0  0  0  0  0  0  0  0  0  0  0  0
   -1.7032    1.7649    2.4472 H   0  0  0  0  0  0  0  0  0  0  0  0
   -2.5070   -0.2201    3.7976 H   0  0  0  0  0  0  0  0  0  0  0  0
   -3.8175   -0.5028    2.6227 H   0  0  0  0  0  0  0  0  0  0  0  0
   -0.9279   -0.6480    2.0358 H   0  0  0  0  0  0  0  0  0  0  0  0
   -2.2502   -2.6947    2.9870 H   0  0  0  0  0  0  0  0  0  0  0  0
   -1.0923   -2.8312    1.6441 H   0  0  0  0  0  0  0  0  0  0  0  0
   -3.2952   -3.9837    1.1955 H   0  0  0  0  0  0  0  0  0  0  0  0
   -4.1399   -2.4253    1.3625 H   0  0  0  0  0  0  0  0  0  0  0  0
   -2.1663   -3.5432   -2.0649 H   0  0  0  0  0  0  0  0  0  0  0  0
   -1.8284   -4.3724   -0.5352 H   0  0  0  0  0  0  0  0  0  0  0  0
    0.7268   -4.4427   -1.1426 H   0  0  0  0  0  0  0  0  0  0  0  0
    2.8582   -3.1303   -0.9418 H   0  0  0  0  0  0  0  0  0  0  0  0
    3.5868    1.6175    0.1871 H   0  0  0  0  0  0  0  0  0  0  0  0
    3.7316   -0.5159    2.1901 H   0  0  0  0  0  0  0  0  0  0  0  0
    5.5008   -0.7471    2.4446 H   0  0  0  0  0  0  0  0  0  0  0  0
    4.3226   -1.9882    3.0253 H   0  0  0  0  0  0  0  0  0  0  0  0
    5.3184   -3.8459    1.6281 H   0  0  0  0  0  0  0  0  0  0  0  0
    6.6221   -2.6877    1.1646 H   0  0  0  0  0  0  0  0  0  0  0  0
    5.6341   -3.4953   -0.1105 H   0  0  0  0  0  0  0  0  0  0  0  0
    2.2905    3.7870   -2.3624 H   0  0  0  0  0  0  0  0  0  0  0  0
    3.0721    4.5518   -0.9159 H   0  0  0  0  0  0  0  0  0  0  0  0
    2.0821    5.5476   -2.0274 H   0  0  0  0  0  0  0  0  0  0  0  0
   -0.4320    3.6237   -2.1891 H   0  0  0  0  0  0  0  0  0  0  0  0
   -0.3912    5.3999   -1.8567 H   0  0  0  0  0  0  0  0  0  0  0  0
   -1.1009    4.2849   -0.6438 H   0  0  0  0  0  0  0  0  0  0  0  0
  1  5  2  0  0  0  0
  1 13  1  0  0  0  0
  2  6  2  0  0  0  0
  2  7  2  0  0  0  0
  3 31  1  0  0  0  0
  4  1  2  0  0  0  0
  8 17  1  0  0  0  0
  8 16  1  0  0  0  0
  9 19  1  0  0  0  0
 10 21  1  0  0  0  0
 10 51  1  0  0  0  0
 10 20  1  0  0  0  0
 11 22  1  0  0  0  0
 13 33  1  0  0  0  0
 14  2  1  0  0  0  0
 15 16  1  0  0  0  0
 15 37  1  0  0  0  0
 15 11  1  0  0  0  0
 16 40  1  0  0  0  0
 17 18  1  0  0  0  0
 18 44  1  0  0  0  0
 18  9  1  0  0  0  0
 18 45  1  0  0  0  0
 19 48  1  0  0  0  0
 19 20  1  0  0  0  0
 19 47  1  0  0  0  0
 20 49  1  0  0  0  0
 21 52  1  0  0  0  0
 22 54  1  0  0  0  0
 22 55  1  0  0  0  0
 22 21  1  0  0  0  0
 23 24  1  0  0  0  0
 23 57  1  0  0  0  0
 23 11  1  0  0  0  0
 24 12  1  0  0  0  0
 25 24  2  0  0  0  0
 25 26  1  0  0  0  0
 26 27  2  0  0  0  0
 27 28  1  0  0  0  0
 28  1  1  0  0  0  0
 28 29  2  0  0  0  0
 29 60  1  0  0  0  0
 30 29  1  0  0  0  0
 30  2  1  0  0  0  0
 31 30  2  0  0  0  0
 32 12  1  1  0  0  0
 32 27  1  0  0  0  0
 32 31  1  0  0  0  0
 33 62  1  0  0  0  0
 33 63  1  0  0  0  0
 34 13  1  0  0  0  0
 34 65  1  0  0  0  0
 34 64  1  0  0  0  0
 35 68  1  0  0  0  0
 35 14  1  0  0  0  0
 36 14  1  0  0  0  0
 36 72  1  0  0  0  0
 38 15  1  0  0  0  0
 39 16  1  0  0  0  0
 41  8  1  0  0  0  0
 42 17  1  0  0  0  0
 43 17  1  0  0  0  0
 46  9  1  0  0  0  0
 50 20  1  0  0  0  0
 53 21  1  0  0  0  0
 56 23  1  0  0  0  0
 58 25  1  0  0  0  0
 59 26  1  0  0  0  0
 61 33  1  0  0  0  0
 66 34  1  0  0  0  0
 67 35  1  0  0  0  0
 69 35  1  0  0  0  0
 70 36  1  0  0  0  0
 71 36  1  0  0  0  0
M  CHG  1   3  -1
M  END
