1
 OpenBabel05122313053D

 14 13  0  0  0  0  0  0  0  0999 V2000
   -1.0938    1.7744   -0.4862 N   0  0  0  0  0  1  0  0  0  0  0  0
   -1.9718    2.8786   -0.7637 C   0  0  0  0  0  0  0  0  0  0  0  0
   -2.2427    2.9353   -2.2844 C   0  0  0  0  0  0  0  0  0  0  0  0
   -1.3003    4.1967   -0.3147 C   0  0  0  0  0  0  0  0  0  0  0  0
   -3.3081    2.6986   -0.0079 C   0  0  0  0  0  0  0  0  0  0  0  0
   -2.9048    3.7862   -2.5491 H   0  0  0  0  0  0  0  0  0  0  0  0
   -2.7250    1.9971   -2.6240 H   0  0  0  0  0  0  0  0  0  0  0  0
   -1.2878    3.0447   -2.8361 H   0  0  0  0  0  0  0  0  0  0  0  0
   -1.9319    5.0793   -0.5486 H   0  0  0  0  0  0  0  0  0  0  0  0
   -1.1223    4.1850    0.7809 H   0  0  0  0  0  0  0  0  0  0  0  0
   -0.3221    4.3177   -0.8211 H   0  0  0  0  0  0  0  0  0  0  0  0
   -4.0174    3.5223   -0.2333 H   0  0  0  0  0  0  0  0  0  0  0  0
   -3.1348    2.6906    1.0885 H   0  0  0  0  0  0  0  0  0  0  0  0
   -3.7836    1.7376   -0.2873 H   0  0  0  0  0  0  0  0  0  0  0  0
  2  1  1  0  0  0  0
  2  4  1  0  0  0  0
  2  5  1  0  0  0  0
  3  2  1  0  0  0  0
  4 10  1  0  0  0  0
  5 13  1  0  0  0  0
  6  3  1  0  0  0  0
  7  3  1  0  0  0  0
  8  3  1  0  0  0  0
  9  4  1  0  0  0  0
 11  4  1  0  0  0  0
 12  5  1  0  0  0  0
 14  5  1  0  0  0  0
M  END
