1
 OpenBabel05122313053D

 12 12  0  0  0  0  0  0  0  0999 V2000
   -1.5364   -0.8250   -0.2176 N   0  0  0  0  0  1  0  0  0  0  0  0
   -2.8815   -0.8532    0.0168 C   0  0  0  0  0  0  0  0  0  0  0  0
   -3.7994   -0.8194   -1.0634 C   0  0  0  0  0  0  0  0  0  0  0  0
   -3.4109   -0.7766   -2.0908 H   0  0  0  0  0  0  0  0  0  0  0  0
   -5.1712   -0.8460   -0.7928 C   0  0  0  0  0  0  0  0  0  0  0  0
   -5.8900   -0.8225   -1.6256 H   0  0  0  0  0  0  0  0  0  0  0  0
   -5.6329   -0.9073    0.5344 C   0  0  0  0  0  0  0  0  0  0  0  0
   -6.7141   -0.9285    0.7375 H   0  0  0  0  0  0  0  0  0  0  0  0
   -4.7179   -0.9456    1.6026 C   0  0  0  0  0  0  0  0  0  0  0  0
   -5.0834   -0.9990    2.6392 H   0  0  0  0  0  0  0  0  0  0  0  0
   -3.3423   -0.9179    1.3577 C   0  0  0  0  0  0  0  0  0  0  0  0
   -2.5950   -0.9500    2.1644 H   0  0  0  0  0  0  0  0  0  0  0  0
  1  2  1  0  0  0  0
  2 11  1  0  0  0  0
  3  5  1  0  0  0  0
  3  2  2  0  0  0  0
  4  3  1  0  0  0  0
  5  7  2  0  0  0  0
  6  5  1  0  0  0  0
  7  8  1  0  0  0  0
  7  9  1  0  0  0  0
  9 10  1  0  0  0  0
 11  9  2  0  0  0  0
 11 12  1  0  0  0  0
M  END
