1
 OpenBabel05122313053D

 18 18  0  0  0  0  0  0  0  0999 V2000
   -2.0840    0.0417   -0.4908 N   0  0  0  0  0  1  0  0  0  0  0  0
   -3.2609   -0.6371   -0.3814 C   0  0  0  0  0  0  0  0  0  0  0  0
   -4.0357   -0.5403    0.8255 C   0  0  0  0  0  0  0  0  0  0  0  0
   -5.2295   -1.2695    0.9215 C   0  0  0  0  0  0  0  0  0  0  0  0
   -5.8191   -1.1995    1.8499 H   0  0  0  0  0  0  0  0  0  0  0  0
   -5.6872   -2.0714   -0.1375 C   0  0  0  0  0  0  0  0  0  0  0  0
   -6.6258   -2.6369   -0.0376 H   0  0  0  0  0  0  0  0  0  0  0  0
   -4.9583   -2.1191   -1.3341 C   0  0  0  0  0  0  0  0  0  0  0  0
   -5.3369   -2.7097   -2.1842 H   0  0  0  0  0  0  0  0  0  0  0  0
   -3.7587   -1.4035   -1.4883 C   0  0  0  0  0  0  0  0  0  0  0  0
   -3.5771    0.3649    1.9352 C   0  0  0  0  0  0  0  0  0  0  0  0
   -4.2818    0.3425    2.7883 H   0  0  0  0  0  0  0  0  0  0  0  0
   -3.4799    1.4122    1.5793 H   0  0  0  0  0  0  0  0  0  0  0  0
   -2.5645    0.0917    2.2953 H   0  0  0  0  0  0  0  0  0  0  0  0
   -3.0290   -1.3877   -2.8055 C   0  0  0  0  0  0  0  0  0  0  0  0
   -2.1242   -2.0334   -2.8083 H   0  0  0  0  0  0  0  0  0  0  0  0
   -2.6721   -0.3639   -3.0412 H   0  0  0  0  0  0  0  0  0  0  0  0
   -3.6835   -1.7397   -3.6265 H   0  0  0  0  0  0  0  0  0  0  0  0
  1  2  1  0  0  0  0
  2  3  1  0  0  0  0
  3  4  2  0  0  0  0
  3 11  1  0  0  0  0
  4  5  1  0  0  0  0
  6  7  1  0  0  0  0
  6  4  1  0  0  0  0
  8  6  2  0  0  0  0
  9  8  1  0  0  0  0
 10  8  1  0  0  0  0
 10  2  2  0  0  0  0
 11 14  1  0  0  0  0
 11 12  1  0  0  0  0
 13 11  1  0  0  0  0
 15 10  1  0  0  0  0
 16 15  1  0  0  0  0
 17 15  1  0  0  0  0
 18 15  1  0  0  0  0
M  END
