1
 OpenBabel05122313053D

 14 14  0  0  0  0  0  0  0  0999 V2000
    0.4927   -1.1923    0.2625 N   0  0  0  0  0  1  0  0  0  0  0  0
    5.9864   -1.6708   -0.3399 N   0  0  0  0  0  0  0  0  0  0  0  0
    6.3613   -1.7864   -1.2801 H   0  0  0  0  0  0  0  0  0  0  0  0
    6.5805   -1.1578    0.3100 H   0  0  0  0  0  0  0  0  0  0  0  0
    1.8235   -1.4110    0.1598 C   0  0  0  0  0  0  0  0  0  0  0  0
    2.6976   -1.0857    1.2328 C   0  0  0  0  0  0  0  0  0  0  0  0
    2.2631   -0.7316    2.1776 H   0  0  0  0  0  0  0  0  0  0  0  0
    4.0717   -1.1779    1.0636 C   0  0  0  0  0  0  0  0  0  0  0  0
    4.7452   -0.8938    1.8863 H   0  0  0  0  0  0  0  0  0  0  0  0
    4.6279   -1.6025   -0.1751 C   0  0  0  0  0  0  0  0  0  0  0  0
    3.7442   -1.9847   -1.2236 C   0  0  0  0  0  0  0  0  0  0  0  0
    4.1617   -2.3385   -2.1793 H   0  0  0  0  0  0  0  0  0  0  0  0
    2.3685   -1.8862   -1.0660 C   0  0  0  0  0  0  0  0  0  0  0  0
    1.6759   -2.1353   -1.8829 H   0  0  0  0  0  0  0  0  0  0  0  0
  2 10  1  0  0  0  0
  2  4  1  0  0  0  0
  3  2  1  0  0  0  0
  5  1  1  0  0  0  0
  5  6  1  0  0  0  0
  6  7  1  0  0  0  0
  8  6  2  0  0  0  0
  8  9  1  0  0  0  0
 10  8  1  0  0  0  0
 11 13  1  0  0  0  0
 11 10  2  0  0  0  0
 12 11  1  0  0  0  0
 13  5  2  0  0  0  0
 14 13  1  0  0  0  0
M  END
