2
 OpenBabel05122313053D

 13 13  0  0  0  0  0  0  0  0999 V2000
    9.2044   -0.0011   -0.0001 Br  0  0  0  0  0  0  0  0  0  0  0  0
    1.9232    0.0022    0.0000 N   0  0  0  0  0  1  0  0  0  0  0  0
    6.6184   -1.2251   -0.0003 C   0  0  0  0  0  0  0  0  0  0  0  0
    7.1749   -2.1725   -0.0005 H   0  0  0  0  0  0  0  0  0  0  0  0
    7.3103    0.0001   -0.0000 C   0  0  0  0  0  0  0  0  0  0  0  0
    4.5143    0.0018    0.0000 C   0  0  0  0  0  0  0  0  0  0  0  0
    3.0935    0.0025    0.0000 C   0  0  0  0  0  2  0  0  0  0  0  0
    5.2217   -1.2259   -0.0003 C   0  0  0  0  0  0  0  0  0  0  0  0
    4.6656   -2.1742   -0.0005 H   0  0  0  0  0  0  0  0  0  0  0  0
    6.6200    1.2261    0.0003 C   0  0  0  0  0  0  0  0  0  0  0  0
    7.1776    2.1727    0.0005 H   0  0  0  0  0  0  0  0  0  0  0  0
    5.2232    1.2287    0.0003 C   0  0  0  0  0  0  0  0  0  0  0  0
    4.6684    2.1777    0.0005 H   0  0  0  0  0  0  0  0  0  0  0  0
  1  5  1  0  0  0  0
  3  8  2  0  0  0  0
  3  5  1  0  0  0  0
  4  3  1  0  0  0  0
  5 10  2  0  0  0  0
  6  7  1  0  0  0  0
  6 12  2  0  0  0  0
  7  2  1  0  0  0  0
  8  6  1  0  0  0  0
  9  8  1  0  0  0  0
 10 12  1  0  0  0  0
 10 11  1  0  0  0  0
 12 13  1  0  0  0  0
M  END
