2
 OpenBabel05122313053D

 49 50  0  0  0  0  0  0  0  0999 V2000
   -0.3917   -0.4856    0.3655 P   0  0  0  0  0  4  0  0  0  0  0  0
    1.1800   -0.2328    0.1021 N   0  0  0  0  0  1  0  0  0  0  0  0
    0.2015   -0.0973    3.0255 C   0  0  0  0  0  0  0  0  0  0  0  0
    0.1925   -0.4671    4.0723 H   0  0  0  0  0  0  0  0  0  0  0  0
   -0.2887    0.8961    3.0175 H   0  0  0  0  0  0  0  0  0  0  0  0
    1.2550    0.0328    2.7099 H   0  0  0  0  0  0  0  0  0  0  0  0
    0.1614   -2.4792    2.2325 C   0  0  0  0  0  0  0  0  0  0  0  0
    0.2536   -2.7624    3.3020 H   0  0  0  0  0  0  0  0  0  0  0  0
    1.1828   -2.4359    1.8028 H   0  0  0  0  0  0  0  0  0  0  0  0
   -0.4108   -3.2818    1.7278 H   0  0  0  0  0  0  0  0  0  0  0  0
   -2.0062   -1.2158    2.6173 C   0  0  0  0  0  0  0  0  0  0  0  0
   -2.0217   -1.6312    3.6470 H   0  0  0  0  0  0  0  0  0  0  0  0
   -2.6296   -1.8712    1.9805 H   0  0  0  0  0  0  0  0  0  0  0  0
   -2.4756   -0.2144    2.6615 H   0  0  0  0  0  0  0  0  0  0  0  0
   -0.5506   -1.1175    2.1494 C   0  0  0  0  0  0  0  0  0  0  0  0
   -2.3008   -2.3947   -0.7226 C   0  0  0  0  0  0  0  0  0  0  0  0
   -2.5479   -3.0300   -1.5989 H   0  0  0  0  0  0  0  0  0  0  0  0
   -3.1358   -1.6903   -0.5779 H   0  0  0  0  0  0  0  0  0  0  0  0
   -2.2459   -3.0643    0.1579 H   0  0  0  0  0  0  0  0  0  0  0  0
    0.1398   -2.7848   -1.1278 C   0  0  0  0  0  0  0  0  0  0  0  0
   -0.0753   -3.3654   -2.0493 H   0  0  0  0  0  0  0  0  0  0  0  0
    0.1456   -3.4941   -0.2810 H   0  0  0  0  0  0  0  0  0  0  0  0
    1.1543   -2.3530   -1.2072 H   0  0  0  0  0  0  0  0  0  0  0  0
   -0.9779   -0.8706   -2.2804 C   0  0  0  0  0  0  0  0  0  0  0  0
   -1.2038   -1.5378   -3.1381 H   0  0  0  0  0  0  0  0  0  0  0  0
    0.0092   -0.4017   -2.4585 H   0  0  0  0  0  0  0  0  0  0  0  0
   -1.7438   -0.0761   -2.2579 H   0  0  0  0  0  0  0  0  0  0  0  0
   -0.9554   -1.7057   -0.9865 C   0  0  0  0  0  0  0  0  0  0  0  0
   -1.2160    1.1998    0.3038 C   0  0  0  0  0  0  0  0  0  0  0  0
   -0.2727    2.2178    0.5980 C   0  0  0  0  0  0  0  0  0  0  0  0
    0.7736    1.9336    0.7870 H   0  0  0  0  0  0  0  0  0  0  0  0
   -0.6318    3.5691    0.6492 C   0  0  0  0  0  0  0  0  0  0  0  0
    0.1341    4.3219    0.8881 H   0  0  0  0  0  0  0  0  0  0  0  0
   -1.9556    3.9449    0.3913 C   0  0  0  0  0  0  0  0  0  0  0  0
   -2.2574    5.0029    0.4188 H   0  0  0  0  0  0  0  0  0  0  0  0
   -2.8987    2.9558    0.0926 C   0  0  0  0  0  0  0  0  0  0  0  0
   -3.9412    3.2389   -0.1179 H   0  0  0  0  0  0  0  0  0  0  0  0
   -2.5665    1.5807    0.0509 C   0  0  0  0  0  0  0  0  0  0  0  0
   -3.7132    0.6844   -0.3058 C   0  0  0  0  0  0  0  0  0  0  0  0
   -4.1103    0.5633   -1.6556 C   0  0  0  0  0  0  0  0  0  0  0  0
   -3.5404    1.0942   -2.4329 H   0  0  0  0  0  0  0  0  0  0  0  0
   -5.2189   -0.2179   -2.0126 C   0  0  0  0  0  0  0  0  0  0  0  0
   -5.5020   -0.3112   -3.0720 H   0  0  0  0  0  0  0  0  0  0  0  0
   -5.9678   -0.8722   -1.0219 C   0  0  0  0  0  0  0  0  0  0  0  0
   -6.8355   -1.4889   -1.3004 H   0  0  0  0  0  0  0  0  0  0  0  0
   -5.6175   -0.7138    0.3277 C   0  0  0  0  0  0  0  0  0  0  0  0
   -6.2177   -1.1953    1.1145 H   0  0  0  0  0  0  0  0  0  0  0  0
   -4.5058    0.0658    0.6827 C   0  0  0  0  0  0  0  0  0  0  0  0
   -4.2541    0.2055    1.7420 H   0  0  0  0  0  0  0  0  0  0  0  0
  1 15  1  0  0  0  0
  2  1  1  0  0  0  0
  3  4  1  0  0  0  0
  5  3  1  0  0  0  0
  6  3  1  0  0  0  0
  7  8  1  0  0  0  0
  9  7  1  0  0  0  0
 10  7  1  0  0  0  0
 11 14  1  0  0  0  0
 11 12  1  0  0  0  0
 13 11  1  0  0  0  0
 15  7  1  0  0  0  0
 15 11  1  0  0  0  0
 15  3  1  0  0  0  0
 16 18  1  0  0  0  0
 16 19  1  0  0  0  0
 17 16  1  0  0  0  0
 20 28  1  0  0  0  0
 20 22  1  0  0  0  0
 21 20  1  0  0  0  0
 23 20  1  0  0  0  0
 24 27  1  0  0  0  0
 24 28  1  0  0  0  0
 25 24  1  0  0  0  0
 26 24  1  0  0  0  0
 28 16  1  0  0  0  0
 28  1  1  0  0  0  0
 29  1  1  0  0  0  0
 29 30  1  0  0  0  0
 30 32  2  0  0  0  0
 30 31  1  0  0  0  0
 32 33  1  0  0  0  0
 34 35  1  0  0  0  0
 34 32  1  0  0  0  0
 36 34  2  0  0  0  0
 37 36  1  0  0  0  0
 38 36  1  0  0  0  0
 38 29  2  0  0  0  0
 39 38  1  0  0  0  0
 39 48  1  0  0  0  0
 40 39  2  0  0  0  0
 41 40  1  0  0  0  0
 42 40  1  0  0  0  0
 42 44  2  0  0  0  0
 43 42  1  0  0  0  0
 44 46  1  0  0  0  0
 45 44  1  0  0  0  0
 46 48  2  0  0  0  0
 46 47  1  0  0  0  0
 48 49  1  0  0  0  0
M  END
