10
 OpenBabel05122313053D

 10  9  0  0  0  0  0  0  0  0999 V2000
   -0.8495   -2.5437   -1.7103 C   0  0  0  0  0  3  0  0  0  0  0  0
   -0.4854   -2.4192   -3.1776 C   0  0  0  0  0  0  0  0  0  0  0  0
   -0.0528   -1.4268   -3.3958 H   0  0  0  0  0  0  0  0  0  0  0  0
   -1.3732   -2.5880   -3.8228 H   0  0  0  0  0  0  0  0  0  0  0  0
    0.2535   -3.2028   -3.4505 H   0  0  0  0  0  0  0  0  0  0  0  0
   -1.3395   -3.9179   -1.2834 C   0  0  0  0  0  0  0  0  0  0  0  0
   -1.6346   -3.9350   -0.2181 H   0  0  0  0  0  0  0  0  0  0  0  0
   -0.5450   -4.6774   -1.4473 H   0  0  0  0  0  0  0  0  0  0  0  0
   -2.2060   -4.2348   -1.9015 H   0  0  0  0  0  0  0  0  0  0  0  0
   -0.7195   -1.5827   -0.8825 N   0  0  0  0  0  1  0  0  0  0  0  0
  1  6  1  0  0  0  0
  1 10  1  0  0  0  0
  2  1  1  0  0  0  0
  3  2  1  0  0  0  0
  4  2  1  0  0  0  0
  5  2  1  0  0  0  0
  6  7  1  0  0  0  0
  8  6  1  0  0  0  0
  9  6  1  0  0  0  0
M  END
