1
 OpenBabel05122313053D

 38 39  0  0  0  0  0  0  0  0999 V2000
    1.9351    0.0751   -0.0574 N   0  0  0  0  0  1  0  0  0  0  0  0
    3.1025    0.1225   -0.0924 C   0  0  0  0  0  2  0  0  0  0  0  0
    4.5225    0.1815   -0.1348 C   0  0  0  0  0  0  0  0  0  0  0  0
    5.2873   -1.0076   -0.0491 C   0  0  0  0  0  0  0  0  0  0  0  0
    6.6797   -0.9386   -0.0910 C   0  0  0  0  0  0  0  0  0  0  0  0
    7.3546    0.3002   -0.2189 C   0  0  0  0  0  0  0  0  0  0  0  0
    6.5721    1.4779   -0.3039 C   0  0  0  0  0  0  0  0  0  0  0  0
    5.1788    1.4301   -0.2629 C   0  0  0  0  0  0  0  0  0  0  0  0
    8.8336    0.3618   -0.2616 C   0  0  0  0  0  0  0  0  0  0  0  0
    9.5916   -0.6766   -0.8501 C   0  0  0  0  0  0  0  0  0  0  0  0
   10.9884   -0.6129   -0.8935 C   0  0  0  0  0  0  0  0  0  0  0  0
   11.6885    0.4836   -0.3495 C   0  0  0  0  0  0  0  0  0  0  0  0
   10.9326    1.5170    0.2410 C   0  0  0  0  0  0  0  0  0  0  0  0
    9.5353    1.4624    0.2818 C   0  0  0  0  0  0  0  0  0  0  0  0
   13.1969    0.5188   -0.3450 C   0  0  0  0  0  0  0  0  0  0  0  0
   13.7993   -0.1568    0.9032 C   0  0  0  0  0  0  0  0  0  0  0  0
   15.3305   -0.1087    0.9726 C   0  0  0  0  0  0  0  0  0  0  0  0
   16.0541   -0.9024   -0.1215 C   0  0  0  0  0  0  0  0  0  0  0  0
   17.5759   -0.8828    0.0273 C   0  0  0  0  0  0  0  0  0  0  0  0
    4.7755   -1.9744    0.0602 H   0  0  0  0  0  0  0  0  0  0  0  0
    7.2639   -1.8652    0.0053 H   0  0  0  0  0  0  0  0  0  0  0  0
    7.0699    2.4498   -0.4324 H   0  0  0  0  0  0  0  0  0  0  0  0
    4.5823    2.3503   -0.3394 H   0  0  0  0  0  0  0  0  0  0  0  0
    9.0760   -1.5315   -1.3126 H   0  0  0  0  0  0  0  0  0  0  0  0
   11.5531   -1.4284   -1.3730 H   0  0  0  0  0  0  0  0  0  0  0  0
   11.4538    2.3819    0.6814 H   0  0  0  0  0  0  0  0  0  0  0  0
    8.9778    2.2758    0.7700 H   0  0  0  0  0  0  0  0  0  0  0  0
   13.5476    1.5725   -0.3891 H   0  0  0  0  0  0  0  0  0  0  0  0
   13.5774    0.0200   -1.2606 H   0  0  0  0  0  0  0  0  0  0  0  0
   13.3717    0.3298    1.8060 H   0  0  0  0  0  0  0  0  0  0  0  0
   13.4549   -1.2144    0.9407 H   0  0  0  0  0  0  0  0  0  0  0  0
   15.6530   -0.4938    1.9651 H   0  0  0  0  0  0  0  0  0  0  0  0
   15.6678    0.9525    0.9399 H   0  0  0  0  0  0  0  0  0  0  0  0
   15.7790   -0.5034   -1.1223 H   0  0  0  0  0  0  0  0  0  0  0  0
   15.6885   -1.9539   -0.1066 H   0  0  0  0  0  0  0  0  0  0  0  0
   18.0755   -1.4644   -0.7734 H   0  0  0  0  0  0  0  0  0  0  0  0
   17.8915   -1.3134    1.0007 H   0  0  0  0  0  0  0  0  0  0  0  0
   17.9713    0.1537   -0.0163 H   0  0  0  0  0  0  0  0  0  0  0  0
  2  1  1  0  0  0  0
  3  2  1  0  0  0  0
  3  4  1  0  0  0  0
  4 20  1  0  0  0  0
  5  4  2  0  0  0  0
  5 21  1  0  0  0  0
  6  5  1  0  0  0  0
  7  8  1  0  0  0  0
  7  6  2  0  0  0  0
  8  3  2  0  0  0  0
  9  6  1  0  0  0  0
  9 14  1  0  0  0  0
 10  9  2  0  0  0  0
 11 10  1  0  0  0  0
 11 12  2  0  0  0  0
 12 15  1  0  0  0  0
 12 13  1  0  0  0  0
 13 14  2  0  0  0  0
 13 26  1  0  0  0  0
 14 27  1  0  0  0  0
 15 16  1  0  0  0  0
 16 31  1  0  0  0  0
 16 17  1  0  0  0  0
 16 30  1  0  0  0  0
 17 32  1  0  0  0  0
 18 35  1  0  0  0  0
 18 19  1  0  0  0  0
 18 17  1  0  0  0  0
 19 37  1  0  0  0  0
 22  7  1  0  0  0  0
 23  8  1  0  0  0  0
 24 10  1  0  0  0  0
 25 11  1  0  0  0  0
 28 15  1  0  0  0  0
 29 15  1  0  0  0  0
 33 17  1  0  0  0  0
 34 18  1  0  0  0  0
 36 19  1  0  0  0  0
 38 19  1  0  0  0  0
M  END
