1
 OpenBabel05122313053D

 17 17  0  0  1  0  0  0  0  0999 V2000
    0.1851   -1.9214   -0.1541 N   0  0  0  0  0  1  0  0  0  0  0  0
   -0.6044   -2.9186   -0.3071 C   0  0  2  0  0  3  0  0  0  0  0  0
   -0.0414   -4.3214   -0.3997 C   0  0  0  0  0  0  0  0  0  0  0  0
   -2.0761   -2.7152   -0.4110 C   0  0  0  0  0  0  0  0  0  0  0  0
   -2.6359   -1.4643   -0.0587 C   0  0  0  0  0  0  0  0  0  0  0  0
   -4.0146   -1.2506   -0.1488 C   0  0  0  0  0  0  0  0  0  0  0  0
   -4.8603   -2.2809   -0.5992 C   0  0  0  0  0  0  0  0  0  0  0  0
   -4.3168   -3.5263   -0.9495 C   0  0  0  0  0  0  0  0  0  0  0  0
   -2.9353   -3.7468   -0.8512 C   0  0  0  0  0  0  0  0  0  0  0  0
   -0.5458   -5.0008    0.3166 H   0  0  0  0  0  0  0  0  0  0  0  0
    1.0441   -4.3142   -0.1951 H   0  0  0  0  0  0  0  0  0  0  0  0
   -0.2057   -4.7406   -1.4145 H   0  0  0  0  0  0  0  0  0  0  0  0
   -1.9648   -0.6804    0.3166 H   0  0  0  0  0  0  0  0  0  0  0  0
   -4.4382   -0.2779    0.1449 H   0  0  0  0  0  0  0  0  0  0  0  0
   -5.9459   -2.1151   -0.6682 H   0  0  0  0  0  0  0  0  0  0  0  0
   -4.9740   -4.3363   -1.2990 H   0  0  0  0  0  0  0  0  0  0  0  0
   -2.5298   -4.7294   -1.1307 H   0  0  0  0  0  0  0  0  0  0  0  0
  2  1  1  6  0  0  0
  3  2  1  0  0  0  0
  3 11  1  0  0  0  0
  3 10  1  0  0  0  0
  4  2  1  0  0  0  0
  4  5  1  0  0  0  0
  5 13  1  0  0  0  0
  6  5  2  0  0  0  0
  6 14  1  0  0  0  0
  7  6  1  0  0  0  0
  8  9  1  0  0  0  0
  8  7  2  0  0  0  0
  9  4  2  0  0  0  0
 12  3  1  0  0  0  0
 15  7  1  0  0  0  0
 16  8  1  0  0  0  0
 17  9  1  0  0  0  0
M  END
