1
 OpenBabel05122313053D

 14 13  0  0  0  0  0  0  0  0999 V2000
    1.0061    1.5305    0.1173 N   0  0  0  0  0  1  0  0  0  0  0  0
    0.9723    3.2840    0.1204 Si  0  0  0  0  0  0  0  0  0  0  0  0
   -0.8232    3.8565   -0.0857 C   0  0  0  0  0  0  0  0  0  0  0  0
   -1.2303    3.5087   -1.0572 H   0  0  0  0  0  0  0  0  0  0  0  0
   -0.9040    4.9629   -0.0570 H   0  0  0  0  0  0  0  0  0  0  0  0
   -1.4587    3.4423    0.7233 H   0  0  0  0  0  0  0  0  0  0  0  0
    2.0201    3.9148   -1.3234 C   0  0  0  0  0  0  0  0  0  0  0  0
    3.0701    3.5725   -1.2189 H   0  0  0  0  0  0  0  0  0  0  0  0
    2.0222    5.0233   -1.3782 H   0  0  0  0  0  0  0  0  0  0  0  0
    1.6291    3.5199   -2.2833 H   0  0  0  0  0  0  0  0  0  0  0  0
    1.6674    3.9197    1.7613 C   0  0  0  0  0  0  0  0  0  0  0  0
    1.0660    3.5400    2.6123 H   0  0  0  0  0  0  0  0  0  0  0  0
    1.6654    5.0288    1.8038 H   0  0  0  0  0  0  0  0  0  0  0  0
    2.7109    3.5708    1.9018 H   0  0  0  0  0  0  0  0  0  0  0  0
  1  2  1  0  0  0  0
  2 11  1  0  0  0  0
  3  5  1  0  0  0  0
  3  2  1  0  0  0  0
  3  6  1  0  0  0  0
  4  3  1  0  0  0  0
  7  8  1  0  0  0  0
  7  2  1  0  0  0  0
  9  7  1  0  0  0  0
 10  7  1  0  0  0  0
 11 13  1  0  0  0  0
 11 14  1  0  0  0  0
 11 12  1  0  0  0  0
M  END
