1
 OpenBabel05122313053D

 34 34  0  0  1  0  0  0  0  0999 V2000
    0.1322    0.2412    0.1125 N   0  0  0  0  0  1  0  0  0  0  0  0
   -1.9524   -0.9373   -0.0950 N   0  0  0  0  0  0  0  0  0  0  0  0
   -2.0281    1.2770   -0.1340 N   0  0  0  0  0  0  0  0  0  0  0  0
   -1.1605    0.2043   -0.0461 C   0  0  1  0  0  3  0  0  0  0  0  0
   -3.3013   -0.5696   -0.1789 C   0  0  0  0  0  0  0  0  0  0  0  0
   -3.3457    0.8109   -0.2064 C   0  0  0  0  0  0  0  0  0  0  0  0
   -1.3523   -2.2671    0.1098 C   0  0  0  0  0  0  0  0  0  0  0  0
   -4.4326   -1.5388   -0.2597 C   0  0  0  0  0  0  0  0  0  0  0  0
   -4.5198    1.7234   -0.3090 C   0  0  0  0  0  0  0  0  0  0  0  0
   -1.6110    2.6875   -0.0114 C   0  0  0  0  0  0  0  0  0  0  0  0
   -1.7343   -3.2672   -0.9838 C   0  0  0  0  0  0  0  0  0  0  0  0
   -1.5878   -2.7770    1.5342 C   0  0  0  0  0  0  0  0  0  0  0  0
   -0.6253    3.0903   -1.1138 C   0  0  0  0  0  0  0  0  0  0  0  0
   -1.0688    2.9788    1.3931 C   0  0  0  0  0  0  0  0  0  0  0  0
   -0.2650   -2.0651    0.0267 H   0  0  0  0  0  0  0  0  0  0  0  0
   -5.3956   -1.0016   -0.1784 H   0  0  0  0  0  0  0  0  0  0  0  0
   -4.4007   -2.2880    0.5570 H   0  0  0  0  0  0  0  0  0  0  0  0
   -4.4432   -2.0977   -1.2189 H   0  0  0  0  0  0  0  0  0  0  0  0
   -4.6000    2.4046    0.5647 H   0  0  0  0  0  0  0  0  0  0  0  0
   -5.4554    1.1365   -0.3568 H   0  0  0  0  0  0  0  0  0  0  0  0
   -4.4805    2.3577   -1.2202 H   0  0  0  0  0  0  0  0  0  0  0  0
   -2.5456    3.2649   -0.1582 H   0  0  0  0  0  0  0  0  0  0  0  0
   -1.0769   -4.1558   -0.9083 H   0  0  0  0  0  0  0  0  0  0  0  0
   -1.5978   -2.8268   -1.9917 H   0  0  0  0  0  0  0  0  0  0  0  0
   -2.7792   -3.6240   -0.8973 H   0  0  0  0  0  0  0  0  0  0  0  0
   -2.6588   -2.9764    1.7427 H   0  0  0  0  0  0  0  0  0  0  0  0
   -1.2040   -2.0431    2.2686 H   0  0  0  0  0  0  0  0  0  0  0  0
   -1.0262   -3.7196    1.6866 H   0  0  0  0  0  0  0  0  0  0  0  0
    0.3569    2.6083   -0.9518 H   0  0  0  0  0  0  0  0  0  0  0  0
   -0.4765    4.1879   -1.0916 H   0  0  0  0  0  0  0  0  0  0  0  0
   -1.0080    2.8117   -2.1160 H   0  0  0  0  0  0  0  0  0  0  0  0
   -0.8763    4.0648    1.5001 H   0  0  0  0  0  0  0  0  0  0  0  0
   -0.1126    2.4451    1.5652 H   0  0  0  0  0  0  0  0  0  0  0  0
   -1.7984    2.6776    2.1710 H   0  0  0  0  0  0  0  0  0  0  0  0
  2  4  1  0  0  0  0
  2  7  1  0  0  0  0
  3  4  1  0  0  0  0
  3 10  1  0  0  0  0
  4  1  1  1  0  0  0
  5  2  1  0  0  0  0
  6  5  2  0  0  0  0
  6  3  1  0  0  0  0
  7 12  1  0  0  0  0
  8  5  1  0  0  0  0
  8 16  1  0  0  0  0
  8 17  1  0  0  0  0
  9  6  1  0  0  0  0
  9 19  1  0  0  0  0
 10 14  1  0  0  0  0
 11 23  1  0  0  0  0
 11 25  1  0  0  0  0
 11  7  1  0  0  0  0
 12 28  1  0  0  0  0
 12 26  1  0  0  0  0
 12 27  1  0  0  0  0
 13 30  1  0  0  0  0
 13 29  1  0  0  0  0
 13 10  1  0  0  0  0
 14 32  1  0  0  0  0
 14 33  1  0  0  0  0
 14 34  1  0  0  0  0
 15  7  1  0  0  0  0
 18  8  1  0  0  0  0
 20  9  1  0  0  0  0
 21  9  1  0  0  0  0
 22 10  1  0  0  0  0
 24 11  1  0  0  0  0
 31 13  1  0  0  0  0
M  END
