1
 OpenBabel05122313053D

 23 22  0  0  0  0  0  0  0  0999 V2000
    0.4196   -0.0328   -0.5983 N   0  0  0  0  0  1  0  0  0  0  0  0
    1.7903   -0.0214   -1.3817 P   0  0  0  0  0  2  0  0  0  0  0  0
    3.1059   -0.0158   -0.2853 N   0  0  0  0  0  0  0  0  0  0  0  0
    4.4372   -0.0043   -0.9245 C   0  0  0  0  0  0  0  0  0  0  0  0
    4.2267   -0.0008   -2.0194 H   0  0  0  0  0  0  0  0  0  0  0  0
    5.2373   -1.2759   -0.6144 C   0  0  0  0  0  0  0  0  0  0  0  0
    4.6624   -2.1789   -0.8993 H   0  0  0  0  0  0  0  0  0  0  0  0
    5.4853   -1.3513    0.4644 H   0  0  0  0  0  0  0  0  0  0  0  0
    6.1934   -1.2783   -1.1754 H   0  0  0  0  0  0  0  0  0  0  0  0
    5.2195    1.2757   -0.6030 C   0  0  0  0  0  0  0  0  0  0  0  0
    4.6322    2.1729   -0.8807 H   0  0  0  0  0  0  0  0  0  0  0  0
    6.1759    1.2963   -1.1632 H   0  0  0  0  0  0  0  0  0  0  0  0
    5.4656    1.3452    0.4766 H   0  0  0  0  0  0  0  0  0  0  0  0
    3.0437   -0.0255    1.1949 C   0  0  0  0  0  0  0  0  0  0  0  0
    4.1021   -0.0202    1.5338 H   0  0  0  0  0  0  0  0  0  0  0  0
    2.3956   -1.3089    1.7311 C   0  0  0  0  0  0  0  0  0  0  0  0
    2.9054   -2.2058    1.3267 H   0  0  0  0  0  0  0  0  0  0  0  0
    1.3232   -1.3475    1.4624 H   0  0  0  0  0  0  0  0  0  0  0  0
    2.4662   -1.3350    2.8368 H   0  0  0  0  0  0  0  0  0  0  0  0
    2.3784    1.2414    1.7492 C   0  0  0  0  0  0  0  0  0  0  0  0
    2.8670    2.1511    1.3469 H   0  0  0  0  0  0  0  0  0  0  0  0
    2.4618    1.2599    2.8541 H   0  0  0  0  0  0  0  0  0  0  0  0
    1.3022    1.2624    1.4948 H   0  0  0  0  0  0  0  0  0  0  0  0
  2  1  1  0  0  0  0
  2  3  1  0  0  0  0
  3 14  1  0  0  0  0
  4  6  1  0  0  0  0
  4 10  1  0  0  0  0
  4  3  1  0  0  0  0
  5  4  1  0  0  0  0
  6  8  1  0  0  0  0
  7  6  1  0  0  0  0
  9  6  1  0  0  0  0
 10 13  1  0  0  0  0
 11 10  1  0  0  0  0
 12 10  1  0  0  0  0
 14 15  1  0  0  0  0
 14 16  1  0  0  0  0
 14 20  1  0  0  0  0
 16 19  1  0  0  0  0
 17 16  1  0  0  0  0
 18 16  1  0  0  0  0
 20 22  1  0  0  0  0
 21 20  1  0  0  0  0
 23 20  1  0  0  0  0
M  END
