1
 OpenBabel05122313053D

 19 19  0  0  0  0  0  0  0  0999 V2000
    2.3554   -0.0004    0.0000 N   0  0  0  0  0  1  0  0  0  0  0  0
    3.5281   -0.0005    0.0001 C   0  0  0  0  0  2  0  0  0  0  0  0
    4.9454   -0.0006    0.0002 C   0  0  0  0  0  0  0  0  0  0  0  0
    5.6277    1.1590    0.4796 C   0  0  0  0  0  0  0  0  0  0  0  0
    7.0298    1.1276    0.4667 C   0  0  0  0  0  0  0  0  0  0  0  0
    7.5873    2.0039    0.8292 H   0  0  0  0  0  0  0  0  0  0  0  0
    7.7212   -0.0008    0.0003 C   0  0  0  0  0  0  0  0  0  0  0  0
    8.8215   -0.0009    0.0004 H   0  0  0  0  0  0  0  0  0  0  0  0
    7.0296   -1.1291   -0.4662 C   0  0  0  0  0  0  0  0  0  0  0  0
    7.5871   -2.0056   -0.8286 H   0  0  0  0  0  0  0  0  0  0  0  0
    5.6276   -1.1604   -0.4792 C   0  0  0  0  0  0  0  0  0  0  0  0
    4.8637    2.3559    0.9748 C   0  0  0  0  0  0  0  0  0  0  0  0
    5.5481    3.1580    1.3062 H   0  0  0  0  0  0  0  0  0  0  0  0
    4.2075    2.0917    1.8303 H   0  0  0  0  0  0  0  0  0  0  0  0
    4.2064    2.7727    0.1833 H   0  0  0  0  0  0  0  0  0  0  0  0
    4.8634   -2.3571   -0.9745 C   0  0  0  0  0  0  0  0  0  0  0  0
    4.2058   -2.7737   -0.1832 H   0  0  0  0  0  0  0  0  0  0  0  0
    5.5477   -3.1594   -1.3056 H   0  0  0  0  0  0  0  0  0  0  0  0
    4.2075   -2.0928   -1.8302 H   0  0  0  0  0  0  0  0  0  0  0  0
  1  2  1  0  0  0  0
  2  3  1  0  0  0  0
  3  4  1  0  0  0  0
  4 12  1  0  0  0  0
  5  4  2  0  0  0  0
  5  6  1  0  0  0  0
  7  8  1  0  0  0  0
  7  5  1  0  0  0  0
  9  7  2  0  0  0  0
 10  9  1  0  0  0  0
 11  9  1  0  0  0  0
 11  3  2  0  0  0  0
 12 13  1  0  0  0  0
 12 14  1  0  0  0  0
 15 12  1  0  0  0  0
 16 11  1  0  0  0  0
 16 17  1  0  0  0  0
 18 16  1  0  0  0  0
 19 16  1  0  0  0  0
M  END
