1
 OpenBabel05122313053D

 17 17  0  0  0  0  0  0  0  0999 V2000
    2.1416   -0.0898    0.0004 N   0  0  0  0  0  1  0  0  0  0  0  0
    3.3140   -0.1350    0.0004 C   0  0  0  0  0  2  0  0  0  0  0  0
    4.7266   -0.1949    0.0004 C   0  0  0  0  0  0  0  0  0  0  0  0
    5.4910    0.9995   -0.0003 C   0  0  0  0  0  0  0  0  0  0  0  0
    4.9818    1.9738   -0.0008 H   0  0  0  0  0  0  0  0  0  0  0  0
    6.8835    0.9444   -0.0003 C   0  0  0  0  0  0  0  0  0  0  0  0
    7.4565    1.8804   -0.0009 H   0  0  0  0  0  0  0  0  0  0  0  0
    8.8703   -0.4726    0.0004 O   0  0  0  0  0  0  0  0  0  0  0  0
    7.5405   -0.3118    0.0003 C   0  0  0  0  0  0  0  0  0  0  0  0
    6.7746   -1.5074    0.0010 C   0  0  0  0  0  0  0  0  0  0  0  0
    7.3105   -2.4669    0.0015 H   0  0  0  0  0  0  0  0  0  0  0  0
    5.3893   -1.4555    0.0010 C   0  0  0  0  0  0  0  0  0  0  0  0
    4.8006   -2.3837    0.0015 H   0  0  0  0  0  0  0  0  0  0  0  0
    9.7206    0.6732   -0.0003 C   0  0  0  0  0  0  0  0  0  0  0  0
    9.5612    1.2927   -0.9083 H   0  0  0  0  0  0  0  0  0  0  0  0
   10.7544    0.2855   -0.0001 H   0  0  0  0  0  0  0  0  0  0  0  0
    9.5612    1.2937    0.9071 H   0  0  0  0  0  0  0  0  0  0  0  0
  2  1  1  0  0  0  0
  3  2  1  0  0  0  0
  3 12  1  0  0  0  0
  4  3  2  0  0  0  0
  5  4  1  0  0  0  0
  6  4  1  0  0  0  0
  6  9  2  0  0  0  0
  7  6  1  0  0  0  0
  9  8  1  0  0  0  0
  9 10  1  0  0  0  0
 10 12  2  0  0  0  0
 10 11  1  0  0  0  0
 12 13  1  0  0  0  0
 14 16  1  0  0  0  0
 14  8  1  0  0  0  0
 14 17  1  0  0  0  0
 15 14  1  0  0  0  0
M  END
