29
 OpenBabel05122313053D

 40 41  0  0  0  0  0  0  0  0999 V2000
   -0.8737    1.8686   -0.5500 C   0  0  0  0  0  0  0  0  0  0  0  0
   -2.0779    1.9439    0.2229 C   0  0  0  0  0  3  0  0  0  0  0  0
   -2.1612    2.2886    1.2594 H   0  0  0  0  0  0  0  0  0  0  0  0
   -3.1664    1.4694   -0.5664 C   0  0  0  0  0  0  0  0  0  0  0  0
   -4.2057    1.3728   -0.2299 H   0  0  0  0  0  0  0  0  0  0  0  0
   -2.6529    1.0918   -1.8349 C   0  0  0  0  0  0  0  0  0  0  0  0
   -3.2193    0.6348   -2.6526 H   0  0  0  0  0  0  0  0  0  0  0  0
   -1.2501    1.3240   -1.8256 C   0  0  0  0  0  0  0  0  0  0  0  0
   -0.5691    1.0910   -2.6509 H   0  0  0  0  0  0  0  0  0  0  0  0
    0.5044    2.4039   -0.1641 C   0  0  0  0  0  0  0  0  0  0  0  0
    1.3774    2.5065   -1.4328 C   0  0  0  0  0  0  0  0  0  0  0  0
    1.6260    1.5124   -1.8532 H   0  0  0  0  0  0  0  0  0  0  0  0
    2.3285    3.0303   -1.2217 H   0  0  0  0  0  0  0  0  0  0  0  0
    0.8480    3.0831   -2.2161 H   0  0  0  0  0  0  0  0  0  0  0  0
    0.2841    3.8377    0.3730 C   0  0  0  0  0  0  0  0  0  0  0  0
   -0.2360    4.4407   -0.3971 H   0  0  0  0  0  0  0  0  0  0  0  0
    1.2430    4.3436    0.5991 H   0  0  0  0  0  0  0  0  0  0  0  0
   -0.3424    3.8600    1.2842 H   0  0  0  0  0  0  0  0  0  0  0  0
    1.2667    1.4856    0.9276 C   0  0  0  0  0  0  0  0  0  0  0  0
    2.6683    2.0577    1.2117 C   0  0  0  0  0  0  0  0  0  0  0  0
    2.6073    3.1382    1.4450 H   0  0  0  0  0  0  0  0  0  0  0  0
    3.3716    1.9247    0.3696 H   0  0  0  0  0  0  0  0  0  0  0  0
    3.1178    1.5730    2.0987 H   0  0  0  0  0  0  0  0  0  0  0  0
    0.4981    1.4256    2.2616 C   0  0  0  0  0  0  0  0  0  0  0  0
    1.0416    0.7761    2.9782 H   0  0  0  0  0  0  0  0  0  0  0  0
   -0.5190    1.0101    2.1389 H   0  0  0  0  0  0  0  0  0  0  0  0
    0.4199    2.4279    2.7267 H   0  0  0  0  0  0  0  0  0  0  0  0
    1.2927    0.0624    0.3026 C   0  0  0  0  0  0  0  0  0  0  0  0
    0.1886   -0.4949   -0.0171 N   0  0  0  0  0  2  0  0  0  0  0  0
    2.5574   -0.6581   -0.0686 C   0  0  0  0  0  0  0  0  0  0  0  0
    3.6356   -0.8503    0.8216 C   0  0  0  0  0  0  0  0  0  0  0  0
    3.5921   -0.4359    1.8380 H   0  0  0  0  0  0  0  0  0  0  0  0
    4.7542   -1.6040    0.4351 C   0  0  0  0  0  0  0  0  0  0  0  0
    5.5798   -1.7563    1.1470 H   0  0  0  0  0  0  0  0  0  0  0  0
    4.8210   -2.1638   -0.8498 C   0  0  0  0  0  0  0  0  0  0  0  0
    5.7049   -2.7445   -1.1545 H   0  0  0  0  0  0  0  0  0  0  0  0
    3.7476   -1.9899   -1.7400 C   0  0  0  0  0  0  0  0  0  0  0  0
    3.7856   -2.4370   -2.7451 H   0  0  0  0  0  0  0  0  0  0  0  0
    2.6209   -1.2587   -1.3469 C   0  0  0  0  0  0  0  0  0  0  0  0
    1.7563   -1.1489   -2.0188 H   0  0  0  0  0  0  0  0  0  0  0  0
  1 10  1  0  0  0  0
  1  2  1  0  0  0  0
  2  3  1  0  0  0  0
  4  5  1  0  0  0  0
  4  2  1  0  0  0  0
  6  8  1  0  0  0  0
  6  4  2  0  0  0  0
  7  6  1  0  0  0  0
  8  1  2  0  0  0  0
  9  8  1  0  0  0  0
 10 15  1  0  0  0  0
 10 19  1  0  0  0  0
 11 13  1  0  0  0  0
 11 10  1  0  0  0  0
 12 11  1  0  0  0  0
 14 11  1  0  0  0  0
 15 17  1  0  0  0  0
 15 18  1  0  0  0  0
 16 15  1  0  0  0  0
 19 20  1  0  0  0  0
 19 24  1  0  0  0  0
 20 21  1  0  0  0  0
 20 23  1  0  0  0  0
 22 20  1  0  0  0  0
 24 27  1  0  0  0  0
 24 25  1  0  0  0  0
 26 24  1  0  0  0  0
 28 19  1  0  0  0  0
 29 28  2  0  0  0  0
 30 28  1  0  0  0  0
 30 31  1  0  0  0  0
 31 32  1  0  0  0  0
 33 31  2  0  0  0  0
 33 34  1  0  0  0  0
 35 33  1  0  0  0  0
 36 35  1  0  0  0  0
 37 39  1  0  0  0  0
 37 35  2  0  0  0  0
 38 37  1  0  0  0  0
 39 30  2  0  0  0  0
 40 39  1  0  0  0  0
M  END
