2
 OpenBabel05122313053D

 28 29  0  0  0  0  0  0  0  0999 V2000
   -1.4758   -0.0321    0.6064 P   0  0  0  0  0  4  0  0  0  0  0  0
   -0.0707    0.1163   -0.2120 N   0  0  0  0  0  1  0  0  0  0  0  0
   -2.2434   -1.6014    0.1137 C   0  0  0  0  0  0  0  0  0  0  0  0
   -1.3998   -2.7353    0.1226 C   0  0  0  0  0  0  0  0  0  0  0  0
   -1.9249   -3.9762   -0.2622 C   0  0  0  0  0  0  0  0  0  0  0  0
   -3.2688   -4.0879   -0.6564 C   0  0  0  0  0  0  0  0  0  0  0  0
   -4.0966   -2.9542   -0.6774 C   0  0  0  0  0  0  0  0  0  0  0  0
   -3.5863   -1.7038   -0.2975 C   0  0  0  0  0  0  0  0  0  0  0  0
   -2.5256    1.3819    0.1804 C   0  0  0  0  0  0  0  0  0  0  0  0
   -3.7748    1.5885    0.8022 C   0  0  0  0  0  0  0  0  0  0  0  0
   -4.5396    2.7121    0.4586 C   0  0  0  0  0  0  0  0  0  0  0  0
   -4.0555    3.6273   -0.4914 C   0  0  0  0  0  0  0  0  0  0  0  0
   -2.8044    3.4260   -1.0955 C   0  0  0  0  0  0  0  0  0  0  0  0
   -2.0303    2.3040   -0.7645 C   0  0  0  0  0  0  0  0  0  0  0  0
   -1.1476   -0.0407    2.3870 C   0  0  0  0  0  0  0  0  0  0  0  0
   -0.3379   -2.6376    0.4122 H   0  0  0  0  0  0  0  0  0  0  0  0
   -1.2720   -4.8617   -0.2632 H   0  0  0  0  0  0  0  0  0  0  0  0
   -3.6721   -5.0657   -0.9607 H   0  0  0  0  0  0  0  0  0  0  0  0
   -5.1448   -3.0397   -1.0008 H   0  0  0  0  0  0  0  0  0  0  0  0
   -4.2284   -0.8115   -0.3367 H   0  0  0  0  0  0  0  0  0  0  0  0
   -4.1519    0.8810    1.5573 H   0  0  0  0  0  0  0  0  0  0  0  0
   -5.5155    2.8773    0.9390 H   0  0  0  0  0  0  0  0  0  0  0  0
   -4.6571    4.5102   -0.7556 H   0  0  0  0  0  0  0  0  0  0  0  0
   -2.4203    4.1514   -1.8281 H   0  0  0  0  0  0  0  0  0  0  0  0
   -1.0358    2.1472   -1.2138 H   0  0  0  0  0  0  0  0  0  0  0  0
   -0.6301    0.9098    2.6267 H   0  0  0  0  0  0  0  0  0  0  0  0
   -2.0878   -0.1628    2.9579 H   0  0  0  0  0  0  0  0  0  0  0  0
   -0.4350   -0.8708    2.5752 H   0  0  0  0  0  0  0  0  0  0  0  0
  1 15  1  0  0  0  0
  2  1  1  0  0  0  0
  3  4  1  0  0  0  0
  3  1  1  0  0  0  0
  4 16  1  0  0  0  0
  5  4  2  0  0  0  0
  6  5  1  0  0  0  0
  7  6  2  0  0  0  0
  7  8  1  0  0  0  0
  8  3  2  0  0  0  0
  9  1  1  0  0  0  0
  9 10  1  0  0  0  0
 10 21  1  0  0  0  0
 11 10  2  0  0  0  0
 11 22  1  0  0  0  0
 12 11  1  0  0  0  0
 13 14  1  0  0  0  0
 13 12  2  0  0  0  0
 14  9  2  0  0  0  0
 15 28  1  0  0  0  0
 15 26  1  0  0  0  0
 15 27  1  0  0  0  0
 17  5  1  0  0  0  0
 18  6  1  0  0  0  0
 19  7  1  0  0  0  0
 20  8  1  0  0  0  0
 23 12  1  0  0  0  0
 24 13  1  0  0  0  0
 25 14  1  0  0  0  0
M  END
