1
 OpenBabel05122313053D

 18 18  0  0  0  0  0  0  0  0999 V2000
   -0.6226    0.0714   -0.5552 N   0  0  0  0  0  1  0  0  0  0  0  0
   -1.1971    1.1715   -0.8319 N   0  0  0  0  0  0  0  0  0  0  0  0
   -2.4587    1.3198   -1.1741 C   0  0  0  0  0  0  0  0  0  0  0  0
   -3.3675    0.1401   -1.3657 C   0  0  0  0  0  0  0  0  0  0  0  0
   -2.9358    2.7048   -1.3256 C   0  0  0  0  0  0  0  0  0  0  0  0
   -2.0786    3.7943   -1.0211 C   0  0  0  0  0  0  0  0  0  0  0  0
   -2.5271    5.1113   -1.1468 C   0  0  0  0  0  0  0  0  0  0  0  0
   -3.8428    5.3785   -1.5697 C   0  0  0  0  0  0  0  0  0  0  0  0
   -4.7044    4.3109   -1.8638 C   0  0  0  0  0  0  0  0  0  0  0  0
   -4.2581    2.9872   -1.7424 C   0  0  0  0  0  0  0  0  0  0  0  0
   -3.9643    0.2418   -2.2934 H   0  0  0  0  0  0  0  0  0  0  0  0
   -2.7738   -0.7900   -1.4290 H   0  0  0  0  0  0  0  0  0  0  0  0
   -4.0823    0.0367   -0.5218 H   0  0  0  0  0  0  0  0  0  0  0  0
   -1.0611    3.5760   -0.6657 H   0  0  0  0  0  0  0  0  0  0  0  0
   -1.8462    5.9426   -0.9063 H   0  0  0  0  0  0  0  0  0  0  0  0
   -4.1950    6.4168   -1.6646 H   0  0  0  0  0  0  0  0  0  0  0  0
   -5.7364    4.5090   -2.1911 H   0  0  0  0  0  0  0  0  0  0  0  0
   -4.9488    2.1640   -1.9745 H   0  0  0  0  0  0  0  0  0  0  0  0
  2  1  1  0  0  0  0
  3  2  2  0  0  0  0
  4  3  1  0  0  0  0
  4 13  1  0  0  0  0
  5  3  1  0  0  0  0
  5  6  1  0  0  0  0
  6 14  1  0  0  0  0
  7  6  2  0  0  0  0
  7 15  1  0  0  0  0
  8  7  1  0  0  0  0
  9 10  1  0  0  0  0
  9  8  2  0  0  0  0
 10  5  2  0  0  0  0
 11  4  1  0  0  0  0
 12  4  1  0  0  0  0
 16  8  1  0  0  0  0
 17  9  1  0  0  0  0
 18 10  1  0  0  0  0
M  END
