1
 OpenBabel05122313053D

 24 24  0  0  0  0  0  0  0  0999 V2000
   -1.3406   -0.1535    0.2603 N   0  0  0  0  0  1  0  0  0  0  0  0
   -2.2412   -0.8962    0.9907 C   0  0  0  0  0  0  0  0  0  0  0  0
   -3.4895   -1.3815    0.4785 C   0  0  0  0  0  0  0  0  0  0  0  0
   -4.2630   -2.1720    1.3514 C   0  0  0  0  0  0  0  0  0  0  0  0
   -5.2230   -2.5705    0.9990 H   0  0  0  0  0  0  0  0  0  0  0  0
   -3.8638   -2.4733    2.6622 C   0  0  0  0  0  0  0  0  0  0  0  0
   -4.5094   -3.0980    3.2975 H   0  0  0  0  0  0  0  0  0  0  0  0
   -2.6510   -1.9720    3.1565 C   0  0  0  0  0  0  0  0  0  0  0  0
   -2.3278   -2.1900    4.1854 H   0  0  0  0  0  0  0  0  0  0  0  0
   -1.8484   -1.1902    2.3256 C   0  0  0  0  0  0  0  0  0  0  0  0
   -0.8884   -0.7809    2.6741 H   0  0  0  0  0  0  0  0  0  0  0  0
   -3.9938   -1.0227   -0.9319 C   0  0  0  0  0  0  0  0  0  0  0  0
   -4.1987    0.5097   -0.9976 C   0  0  0  0  0  0  0  0  0  0  0  0
   -4.5032    0.8181   -2.0196 H   0  0  0  0  0  0  0  0  0  0  0  0
   -3.2784    1.0574   -0.7252 H   0  0  0  0  0  0  0  0  0  0  0  0
   -4.9972    0.8224   -0.2951 H   0  0  0  0  0  0  0  0  0  0  0  0
   -2.9868   -1.4952   -2.0070 C   0  0  0  0  0  0  0  0  0  0  0  0
   -2.8783   -2.5983   -1.9796 H   0  0  0  0  0  0  0  0  0  0  0  0
   -1.9844   -1.0519   -1.8654 H   0  0  0  0  0  0  0  0  0  0  0  0
   -3.3514   -1.2163   -3.0176 H   0  0  0  0  0  0  0  0  0  0  0  0
   -5.3466   -1.6861   -1.2521 C   0  0  0  0  0  0  0  0  0  0  0  0
   -5.2824   -2.7927   -1.2291 H   0  0  0  0  0  0  0  0  0  0  0  0
   -5.6648   -1.3924   -2.2725 H   0  0  0  0  0  0  0  0  0  0  0  0
   -6.1452   -1.3678   -0.5526 H   0  0  0  0  0  0  0  0  0  0  0  0
  1  2  1  0  0  0  0
  2 10  1  0  0  0  0
  3  2  2  0  0  0  0
  3  4  1  0  0  0  0
  4  6  2  0  0  0  0
  5  4  1  0  0  0  0
  6  8  1  0  0  0  0
  6  7  1  0  0  0  0
  8  9  1  0  0  0  0
 10 11  1  0  0  0  0
 10  8  2  0  0  0  0
 12  3  1  0  0  0  0
 13 12  1  0  0  0  0
 13 15  1  0  0  0  0
 13 16  1  0  0  0  0
 14 13  1  0  0  0  0
 17 18  1  0  0  0  0
 17 19  1  0  0  0  0
 17 12  1  0  0  0  0
 20 17  1  0  0  0  0
 21 22  1  0  0  0  0
 21 12  1  0  0  0  0
 21 24  1  0  0  0  0
 23 21  1  0  0  0  0
M  END
