1
 OpenBabel05122313053D

 75 78  0  0  0  0  0  0  0  0999 V2000
    2.0097   -0.4015    0.0307 N   0  0  0  0  0  1  0  0  0  0  0  0
    1.2332    0.9785    0.4176 P   0  0  0  0  0  4  0  0  0  0  0  0
   -0.3563    0.9104    0.8030 N   0  0  0  0  0  2  0  0  0  0  0  0
   -1.5932    0.2680   -0.0159 P   0  0  0  0  0  4  0  0  0  0  0  0
   -2.1589   -1.1425    0.7100 N   0  0  0  0  0  0  0  0  0  0  0  0
   -1.7019   -1.3133    2.4859 Si  0  0  0  0  0  0  0  0  0  0  0  0
   -2.6840   -2.7369    3.2544 C   0  0  0  0  0  0  0  0  0  0  0  0
   -2.2242    0.2522    3.4019 C   0  0  0  0  0  0  0  0  0  0  0  0
    0.1145   -1.7336    2.7181 C   0  0  0  0  0  0  0  0  0  0  0  0
   -3.1702   -2.3873   -0.1521 Si  0  0  0  0  0  0  0  0  0  0  0  0
   -2.1971   -3.9929   -0.2782 C   0  0  0  0  0  0  0  0  0  0  0  0
   -3.6846   -1.8253   -1.8847 C   0  0  0  0  0  0  0  0  0  0  0  0
   -4.8013   -2.6845    0.7758 C   0  0  0  0  0  0  0  0  0  0  0  0
    1.4561    2.1477   -0.9727 C   0  0  0  0  0  0  0  0  0  0  0  0
    1.0821    3.4990   -0.8160 C   0  0  0  0  0  0  0  0  0  0  0  0
    1.1554    4.3759   -1.9072 C   0  0  0  0  0  0  0  0  0  0  0  0
    1.6023    3.9081   -3.1555 C   0  0  0  0  0  0  0  0  0  0  0  0
    1.9909    2.5680   -3.3045 C   0  0  0  0  0  0  0  0  0  0  0  0
    1.9254    1.6848   -2.2156 C   0  0  0  0  0  0  0  0  0  0  0  0
    2.0118    1.7192    1.8864 C   0  0  0  0  0  0  0  0  0  0  0  0
    3.3808    1.4905    2.1282 C   0  0  0  0  0  0  0  0  0  0  0  0
    3.9914    2.0728    3.2485 C   0  0  0  0  0  0  0  0  0  0  0  0
    3.2445    2.8800    4.1220 C   0  0  0  0  0  0  0  0  0  0  0  0
    1.8778    3.1001    3.8834 C   0  0  0  0  0  0  0  0  0  0  0  0
    1.2571    2.5179    2.7686 C   0  0  0  0  0  0  0  0  0  0  0  0
   -1.1610   -0.0562   -1.7550 C   0  0  0  0  0  0  0  0  0  0  0  0
   -1.5330    0.8166   -2.7956 C   0  0  0  0  0  0  0  0  0  0  0  0
   -1.0683    0.5817   -4.0979 C   0  0  0  0  0  0  0  0  0  0  0  0
   -0.2341   -0.5163   -4.3641 C   0  0  0  0  0  0  0  0  0  0  0  0
    0.1381   -1.3863   -3.3259 C   0  0  0  0  0  0  0  0  0  0  0  0
   -0.3244   -1.1593   -2.0234 C   0  0  0  0  0  0  0  0  0  0  0  0
   -2.9150    1.5284    0.0059 C   0  0  0  0  0  0  0  0  0  0  0  0
   -2.5675    2.8734   -0.2380 C   0  0  0  0  0  0  0  0  0  0  0  0
   -3.5595    3.8640   -0.2408 C   0  0  0  0  0  0  0  0  0  0  0  0
   -4.8983    3.5218    0.0137 C   0  0  0  0  0  0  0  0  0  0  0  0
   -5.2441    2.1863    0.2723 C   0  0  0  0  0  0  0  0  0  0  0  0
   -4.2553    1.1905    0.2673 C   0  0  0  0  0  0  0  0  0  0  0  0
   -3.7667   -2.5261    3.3363 H   0  0  0  0  0  0  0  0  0  0  0  0
   -2.5446   -3.7122    2.7488 H   0  0  0  0  0  0  0  0  0  0  0  0
   -2.2875   -2.8471    4.2858 H   0  0  0  0  0  0  0  0  0  0  0  0
   -1.6604    1.1336    3.0433 H   0  0  0  0  0  0  0  0  0  0  0  0
   -3.3080    0.4482    3.2720 H   0  0  0  0  0  0  0  0  0  0  0  0
   -2.0246    0.1268    4.4865 H   0  0  0  0  0  0  0  0  0  0  0  0
    0.7767   -0.8586    2.5911 H   0  0  0  0  0  0  0  0  0  0  0  0
    0.2605   -2.1316    3.7440 H   0  0  0  0  0  0  0  0  0  0  0  0
    0.4393   -2.5106    1.9973 H   0  0  0  0  0  0  0  0  0  0  0  0
   -1.9005   -4.3803    0.7163 H   0  0  0  0  0  0  0  0  0  0  0  0
   -2.8148   -4.7690   -0.7761 H   0  0  0  0  0  0  0  0  0  0  0  0
   -1.2681   -3.8571   -0.8660 H   0  0  0  0  0  0  0  0  0  0  0  0
   -2.8681   -1.8870   -2.6267 H   0  0  0  0  0  0  0  0  0  0  0  0
   -4.4920   -2.5169   -2.2059 H   0  0  0  0  0  0  0  0  0  0  0  0
   -4.0979   -0.7975   -1.9107 H   0  0  0  0  0  0  0  0  0  0  0  0
   -4.7041   -3.4366    1.5800 H   0  0  0  0  0  0  0  0  0  0  0  0
   -5.2191   -1.7615    1.2263 H   0  0  0  0  0  0  0  0  0  0  0  0
   -5.5479   -3.0666    0.0492 H   0  0  0  0  0  0  0  0  0  0  0  0
    0.7463    3.8671    0.1664 H   0  0  0  0  0  0  0  0  0  0  0  0
    0.8689    5.4315   -1.7829 H   0  0  0  0  0  0  0  0  0  0  0  0
    1.6573    4.5973   -4.0121 H   0  0  0  0  0  0  0  0  0  0  0  0
    2.3515    2.1997   -4.2768 H   0  0  0  0  0  0  0  0  0  0  0  0
    2.2390    0.6361   -2.3257 H   0  0  0  0  0  0  0  0  0  0  0  0
    3.9547    0.8316    1.4596 H   0  0  0  0  0  0  0  0  0  0  0  0
    5.0576    1.8839    3.4447 H   0  0  0  0  0  0  0  0  0  0  0  0
    3.7284    3.3329    5.0009 H   0  0  0  0  0  0  0  0  0  0  0  0
    1.2892    3.7222    4.5750 H   0  0  0  0  0  0  0  0  0  0  0  0
    0.1824    2.6590    2.5788 H   0  0  0  0  0  0  0  0  0  0  0  0
   -2.1877    1.6764   -2.5927 H   0  0  0  0  0  0  0  0  0  0  0  0
   -1.3580    1.2654   -4.9099 H   0  0  0  0  0  0  0  0  0  0  0  0
    0.1336   -0.6926   -5.3864 H   0  0  0  0  0  0  0  0  0  0  0  0
    0.8120   -2.2342   -3.5164 H   0  0  0  0  0  0  0  0  0  0  0  0
   -0.0235   -1.8380   -1.2127 H   0  0  0  0  0  0  0  0  0  0  0  0
   -1.5148    3.1372   -0.4192 H   0  0  0  0  0  0  0  0  0  0  0  0
   -3.2845    4.9119   -0.4349 H   0  0  0  0  0  0  0  0  0  0  0  0
   -5.6746    4.3020    0.0181 H   0  0  0  0  0  0  0  0  0  0  0  0
   -6.2897    1.9171    0.4853 H   0  0  0  0  0  0  0  0  0  0  0  0
   -4.5198    0.1471    0.4882 H   0  0  0  0  0  0  0  0  0  0  0  0
  1  2  1  0  0  0  0
  2  3  1  0  0  0  0
  2 20  1  0  0  0  0
  4 32  1  0  0  0  0
  4  5  1  0  0  0  0
  4  3  1  0  0  0  0
  5  6  1  0  0  0  0
  6  9  1  0  0  0  0
  6  7  1  0  0  0  0
  6  8  1  0  0  0  0
  7 38  1  0  0  0  0
  7 40  1  0  0  0  0
  8 43  1  0  0  0  0
  9 45  1  0  0  0  0
 10  5  1  0  0  0  0
 10 13  1  0  0  0  0
 11 10  1  0  0  0  0
 11 47  1  0  0  0  0
 12 10  1  0  0  0  0
 13 54  1  0  0  0  0
 13 53  1  0  0  0  0
 14 15  1  0  0  0  0
 14  2  1  0  0  0  0
 15 56  1  0  0  0  0
 16 57  1  0  0  0  0
 16 15  2  0  0  0  0
 17 16  1  0  0  0  0
 18 17  2  0  0  0  0
 18 19  1  0  0  0  0
 19 14  2  0  0  0  0
 20 21  2  0  0  0  0
 20 25  1  0  0  0  0
 21 22  1  0  0  0  0
 22 62  1  0  0  0  0
 22 23  2  0  0  0  0
 23 63  1  0  0  0  0
 24 23  1  0  0  0  0
 24 64  1  0  0  0  0
 25 24  2  0  0  0  0
 26  4  1  0  0  0  0
 27 66  1  0  0  0  0
 27 26  2  0  0  0  0
 28 27  1  0  0  0  0
 29 28  2  0  0  0  0
 29 30  1  0  0  0  0
 30 31  2  0  0  0  0
 31 26  1  0  0  0  0
 31 70  1  0  0  0  0
 32 37  1  0  0  0  0
 33 32  2  0  0  0  0
 34 33  1  0  0  0  0
 34 35  2  0  0  0  0
 35 73  1  0  0  0  0
 35 36  1  0  0  0  0
 36 74  1  0  0  0  0
 37 36  2  0  0  0  0
 37 75  1  0  0  0  0
 39  7  1  0  0  0  0
 41  8  1  0  0  0  0
 42  8  1  0  0  0  0
 44  9  1  0  0  0  0
 46  9  1  0  0  0  0
 48 11  1  0  0  0  0
 49 11  1  0  0  0  0
 50 12  1  0  0  0  0
 51 12  1  0  0  0  0
 52 12  1  0  0  0  0
 55 13  1  0  0  0  0
 58 17  1  0  0  0  0
 59 18  1  0  0  0  0
 60 19  1  0  0  0  0
 61 21  1  0  0  0  0
 65 25  1  0  0  0  0
 67 28  1  0  0  0  0
 68 29  1  0  0  0  0
 69 30  1  0  0  0  0
 71 33  1  0  0  0  0
 72 34  1  0  0  0  0
M  END
