1
 OpenBabel05122313053D

 15 15  0  0  0  0  0  0  0  0999 V2000
   -0.8427   -1.1162   -0.0691 N   0  0  0  0  0  1  0  0  0  0  0  0
   -2.1878   -1.2200    0.1332 C   0  0  0  0  0  0  0  0  0  0  0  0
   -3.0908   -1.2146   -0.9751 C   0  0  0  0  0  0  0  0  0  0  0  0
   -4.4651   -1.2944   -0.6962 C   0  0  0  0  0  0  0  0  0  0  0  0
   -4.9491   -1.3833    0.6189 C   0  0  0  0  0  0  0  0  0  0  0  0
   -4.0510   -1.4072    1.7003 C   0  0  0  0  0  0  0  0  0  0  0  0
   -2.6776   -1.3288    1.4625 C   0  0  0  0  0  0  0  0  0  0  0  0
   -2.5676   -1.1057   -2.3801 C   0  0  0  0  0  0  0  0  0  0  0  0
   -5.1749   -1.2912   -1.5388 H   0  0  0  0  0  0  0  0  0  0  0  0
   -6.0330   -1.4438    0.7996 H   0  0  0  0  0  0  0  0  0  0  0  0
   -4.4251   -1.4909    2.7319 H   0  0  0  0  0  0  0  0  0  0  0  0
   -1.9449   -1.3577    2.2809 H   0  0  0  0  0  0  0  0  0  0  0  0
   -3.2828   -1.5342   -3.1086 H   0  0  0  0  0  0  0  0  0  0  0  0
   -2.4123   -0.0400   -2.6516 H   0  0  0  0  0  0  0  0  0  0  0  0
   -1.5861   -1.6064   -2.4903 H   0  0  0  0  0  0  0  0  0  0  0  0
  1  2  1  0  0  0  0
  2  7  1  0  0  0  0
  3  4  1  0  0  0  0
  3  2  2  0  0  0  0
  4  5  2  0  0  0  0
  5 10  1  0  0  0  0
  5  6  1  0  0  0  0
  6 11  1  0  0  0  0
  7  6  2  0  0  0  0
  7 12  1  0  0  0  0
  8  3  1  0  0  0  0
  9  4  1  0  0  0  0
 13  8  1  0  0  0  0
 14  8  1  0  0  0  0
 15  8  1  0  0  0  0
M  END
