4
 OpenBabel05122313053D

 25 25  0  0  0  0  0  0  0  0999 V2000
   -3.8084    2.1228   -0.2321 O   0  0  0  0  0  0  0  0  0  0  0  0
   -7.7343   -0.7291   -0.1790 O   0  0  0  0  0  0  0  0  0  0  0  0
   -3.3508   -2.5134    0.2829 O   0  0  0  0  0  0  0  0  0  0  0  0
   -1.0676    0.0657    0.1590 N   0  0  0  0  0  1  0  0  0  0  0  0
   -2.2355   -0.0537    0.0964 C   0  0  0  0  0  2  0  0  0  0  0  0
   -3.6266   -0.1986    0.0222 C   0  0  0  0  0  0  0  0  0  0  0  0
   -4.4616    0.9508   -0.1503 C   0  0  0  0  0  0  0  0  0  0  0  0
   -5.8536    0.8059   -0.2223 C   0  0  0  0  0  0  0  0  0  0  0  0
   -6.4935    1.6834   -0.3543 H   0  0  0  0  0  0  0  0  0  0  0  0
   -6.4150   -0.4887   -0.1217 C   0  0  0  0  0  0  0  0  0  0  0  0
   -5.6069   -1.6389    0.0496 C   0  0  0  0  0  0  0  0  0  0  0  0
   -6.1082   -2.6107    0.1204 H   0  0  0  0  0  0  0  0  0  0  0  0
   -4.2215   -1.5022    0.1218 C   0  0  0  0  0  0  0  0  0  0  0  0
   -4.5546    3.3253   -0.4019 C   0  0  0  0  0  0  0  0  0  0  0  0
   -5.1324    3.3101   -1.3504 H   0  0  0  0  0  0  0  0  0  0  0  0
   -3.8126    4.1422   -0.4398 H   0  0  0  0  0  0  0  0  0  0  0  0
   -5.2441    3.4953    0.4521 H   0  0  0  0  0  0  0  0  0  0  0  0
   -8.6453    0.3533   -0.3494 C   0  0  0  0  0  0  0  0  0  0  0  0
   -8.5800    1.0734    0.4940 H   0  0  0  0  0  0  0  0  0  0  0  0
   -9.6538   -0.0962   -0.3657 H   0  0  0  0  0  0  0  0  0  0  0  0
   -8.4668    0.8849   -1.3084 H   0  0  0  0  0  0  0  0  0  0  0  0
   -3.8547   -3.8431    0.3942 C   0  0  0  0  0  0  0  0  0  0  0  0
   -4.5187   -3.9479    1.2781 H   0  0  0  0  0  0  0  0  0  0  0  0
   -2.9720   -4.4947    0.5189 H   0  0  0  0  0  0  0  0  0  0  0  0
   -4.4072   -4.1410   -0.5219 H   0  0  0  0  0  0  0  0  0  0  0  0
  1  7  1  0  0  0  0
  2 10  1  0  0  0  0
  3 22  1  0  0  0  0
  5  4  1  0  0  0  0
  6  5  1  0  0  0  0
  6 13  1  0  0  0  0
  7  6  2  0  0  0  0
  8  7  1  0  0  0  0
  8 10  2  0  0  0  0
  9  8  1  0  0  0  0
 10 11  1  0  0  0  0
 11 12  1  0  0  0  0
 11 13  2  0  0  0  0
 13  3  1  0  0  0  0
 14  1  1  0  0  0  0
 14 17  1  0  0  0  0
 15 14  1  0  0  0  0
 16 14  1  0  0  0  0
 18  2  1  0  0  0  0
 18 19  1  0  0  0  0
 20 18  1  0  0  0  0
 21 18  1  0  0  0  0
 22 24  1  0  0  0  0
 22 23  1  0  0  0  0
 25 22  1  0  0  0  0
M  END
