1
 OpenBabel05122313053D

 21 22  0  0  1  0  0  0  0  0999 V2000
    0.1630    0.5818    0.2450 N   0  0  0  0  0  1  0  0  0  0  0  0
   -0.7771    1.4389    0.1721 C   0  0  2  0  0  3  0  0  0  0  0  0
   -2.1489    1.2232    0.1133 N   0  0  0  0  0  0  0  0  0  0  0  0
   -0.5325    2.7878    0.1348 O   0  0  0  0  0  0  0  0  0  0  0  0
   -2.1594   -1.2273    0.4143 C   0  0  0  0  0  0  0  0  0  0  0  0
   -1.1181   -1.2182    0.7574 H   0  0  0  0  0  0  0  0  0  0  0  0
   -2.8498   -2.4419    0.3288 C   0  0  0  0  0  0  0  0  0  0  0  0
   -2.3198   -3.3627    0.6154 H   0  0  0  0  0  0  0  0  0  0  0  0
   -2.8442    2.4852   -0.1193 C   0  0  0  0  0  0  0  0  0  0  0  0
   -3.7621    2.5604    0.4968 H   0  0  0  0  0  0  0  0  0  0  0  0
   -3.1343    2.5887   -1.1900 H   0  0  0  0  0  0  0  0  0  0  0  0
   -4.1502   -0.0733   -0.3951 C   0  0  0  0  0  0  0  0  0  0  0  0
   -4.6776    0.8433   -0.6917 H   0  0  0  0  0  0  0  0  0  0  0  0
   -2.8066   -0.0265    0.0438 C   0  0  0  0  0  0  0  0  0  0  0  0
   -4.8266   -1.2993   -0.4676 C   0  0  0  0  0  0  0  0  0  0  0  0
   -5.8714   -1.3146   -0.8132 H   0  0  0  0  0  0  0  0  0  0  0  0
   -1.7712    3.4939    0.3006 C   0  0  0  0  0  0  0  0  0  0  0  0
   -1.7473    4.4056   -0.3252 H   0  0  0  0  0  0  0  0  0  0  0  0
   -1.8765    3.7885    1.3675 H   0  0  0  0  0  0  0  0  0  0  0  0
   -4.1825   -2.4923   -0.1102 C   0  0  0  0  0  0  0  0  0  0  0  0
   -4.7153   -3.4527   -0.1717 H   0  0  0  0  0  0  0  0  0  0  0  0
  2  1  1  6  0  0  0
  3  2  1  0  0  0  0
  4  2  1  0  0  0  0
  4 17  1  0  0  0  0
  5  6  1  0  0  0  0
  7  5  1  0  0  0  0
  7  8  1  0  0  0  0
  9  3  1  0  0  0  0
  9 17  1  0  0  0  0
  9 10  1  0  0  0  0
 11  9  1  0  0  0  0
 12 14  1  0  0  0  0
 13 12  1  0  0  0  0
 14  3  1  0  0  0  0
 14  5  2  0  0  0  0
 15 12  2  0  0  0  0
 15 20  1  0  0  0  0
 16 15  1  0  0  0  0
 17 19  1  0  0  0  0
 18 17  1  0  0  0  0
 20  7  2  0  0  0  0
 21 20  1  0  0  0  0
M  END
