2
 OpenBabel05122313053D

 23 24  0  0  0  0  0  0  0  0999 V2000
   -4.6484    1.3267    0.1059 O   0  0  0  0  0  0  0  0  0  0  0  0
    0.8242    0.3347    0.0044 N   0  0  0  0  0  1  0  0  0  0  0  0
   -0.5164    0.5597    0.0271 C   0  0  0  0  0  0  0  0  0  0  0  0
   -1.0829    1.6730   -0.6553 C   0  0  0  0  0  0  0  0  0  0  0  0
   -2.4611    1.8927   -0.6358 C   0  0  0  0  0  0  0  0  0  0  0  0
   -3.3060    1.0147    0.0677 C   0  0  0  0  0  0  0  0  0  0  0  0
   -2.7651   -0.0857    0.7632 C   0  0  0  0  0  0  0  0  0  0  0  0
   -1.3882   -0.3122    0.7399 C   0  0  0  0  0  0  0  0  0  0  0  0
   -5.6059    0.3423    0.0150 C   0  0  0  0  0  0  0  0  0  0  0  0
   -6.8224    0.5807    0.6795 C   0  0  0  0  0  0  0  0  0  0  0  0
   -7.8643   -0.3505    0.5740 C   0  0  0  0  0  0  0  0  0  0  0  0
   -7.6997   -1.5214   -0.1845 C   0  0  0  0  0  0  0  0  0  0  0  0
   -6.4822   -1.7486   -0.8467 C   0  0  0  0  0  0  0  0  0  0  0  0
   -5.4323   -0.8232   -0.7562 C   0  0  0  0  0  0  0  0  0  0  0  0
   -0.4100    2.3499   -1.2006 H   0  0  0  0  0  0  0  0  0  0  0  0
   -2.9107    2.7470   -1.1623 H   0  0  0  0  0  0  0  0  0  0  0  0
   -3.4305   -0.7585    1.3236 H   0  0  0  0  0  0  0  0  0  0  0  0
   -0.9478   -1.1624    1.2800 H   0  0  0  0  0  0  0  0  0  0  0  0
   -6.9277    1.5025    1.2695 H   0  0  0  0  0  0  0  0  0  0  0  0
   -8.8143   -0.1598    1.0961 H   0  0  0  0  0  0  0  0  0  0  0  0
   -8.5177   -2.2527   -0.2615 H   0  0  0  0  0  0  0  0  0  0  0  0
   -6.3453   -2.6577   -1.4522 H   0  0  0  0  0  0  0  0  0  0  0  0
   -4.4827   -0.9958   -1.2826 H   0  0  0  0  0  0  0  0  0  0  0  0
  2  3  1  0  0  0  0
  3  8  1  0  0  0  0
  4  5  1  0  0  0  0
  4  3  2  0  0  0  0
  5  6  2  0  0  0  0
  6  1  1  0  0  0  0
  6  7  1  0  0  0  0
  7 17  1  0  0  0  0
  8  7  2  0  0  0  0
  8 18  1  0  0  0  0
  9  1  1  0  0  0  0
  9 10  1  0  0  0  0
 10 19  1  0  0  0  0
 11 10  2  0  0  0  0
 11 20  1  0  0  0  0
 12 11  1  0  0  0  0
 13 14  1  0  0  0  0
 13 12  2  0  0  0  0
 14  9  2  0  0  0  0
 15  4  1  0  0  0  0
 16  5  1  0  0  0  0
 21 12  1  0  0  0  0
 22 13  1  0  0  0  0
 23 14  1  0  0  0  0
M  END
