1
 OpenBabel05122313053D

 13 13  0  0  0  0  0  0  0  0999 V2000
    0.2861   -1.3300   -0.2946 N   0  0  0  0  0  1  0  0  0  0  0  0
    1.4711   -1.9342   -0.5784 C   0  0  0  0  0  0  0  0  0  0  0  0
    1.7641   -3.2479   -0.0843 C   0  0  0  0  0  0  0  0  0  0  0  0
    3.0085   -3.8475   -0.3769 C   0  0  0  0  0  0  0  0  0  0  0  0
    3.9520   -3.1749   -1.1610 C   0  0  0  0  0  0  0  0  0  0  0  0
    3.6614   -1.8912   -1.6623 C   0  0  0  0  0  0  0  0  0  0  0  0
    2.4423   -1.2735   -1.3765 C   0  0  0  0  0  0  0  0  0  0  0  0
    0.7859   -3.9402    0.6969 C   0  0  0  0  0  0  0  0  0  0  0  0
   -0.0225   -4.5211    1.3208 N   0  0  0  0  0  0  0  0  0  0  0  0
    3.2192   -4.8516    0.0181 H   0  0  0  0  0  0  0  0  0  0  0  0
    4.9163   -3.6529   -1.3865 H   0  0  0  0  0  0  0  0  0  0  0  0
    4.4013   -1.3634   -2.2830 H   0  0  0  0  0  0  0  0  0  0  0  0
    2.1995   -0.2721   -1.7592 H   0  0  0  0  0  0  0  0  0  0  0  0
  2  1  1  0  0  0  0
  2  3  1  0  0  0  0
  3  8  1  0  0  0  0
  4  3  2  0  0  0  0
  4 10  1  0  0  0  0
  5  4  1  0  0  0  0
  6  7  1  0  0  0  0
  6  5  2  0  0  0  0
  7  2  2  0  0  0  0
  8  9  3  0  0  0  0
 11  5  1  0  0  0  0
 12  6  1  0  0  0  0
 13  7  1  0  0  0  0
M  END
