1
 OpenBabel05122313053D

 25 26  0  0  0  0  0  0  0  0999 V2000
   -0.2514   -0.8346    0.0921 N   0  0  0  0  0  1  0  0  0  0  0  0
   -1.4867   -1.1383    0.1213 N   0  0  0  0  0  0  0  0  0  0  0  0
   -2.4766   -0.2577    0.0980 C   0  0  0  0  0  0  0  0  0  0  0  0
   -3.8473   -0.7950    0.0693 C   0  0  0  0  0  0  0  0  0  0  0  0
   -4.0717   -2.1650   -0.2172 C   0  0  0  0  0  0  0  0  0  0  0  0
   -3.2012   -2.8020   -0.4306 H   0  0  0  0  0  0  0  0  0  0  0  0
   -5.3681   -2.6852   -0.2308 C   0  0  0  0  0  0  0  0  0  0  0  0
   -5.5262   -3.7498   -0.4613 H   0  0  0  0  0  0  0  0  0  0  0  0
   -6.4697   -1.8537    0.0434 C   0  0  0  0  0  0  0  0  0  0  0  0
   -7.4902   -2.2657    0.0300 H   0  0  0  0  0  0  0  0  0  0  0  0
   -6.2607   -0.4970    0.3367 C   0  0  0  0  0  0  0  0  0  0  0  0
   -7.1165    0.1569    0.5632 H   0  0  0  0  0  0  0  0  0  0  0  0
   -4.9628    0.0305    0.3507 C   0  0  0  0  0  0  0  0  0  0  0  0
   -4.8036    1.0896    0.5990 H   0  0  0  0  0  0  0  0  0  0  0  0
   -2.2180    1.2049    0.0676 C   0  0  0  0  0  0  0  0  0  0  0  0
   -1.3416    1.8007    1.0010 C   0  0  0  0  0  0  0  0  0  0  0  0
   -0.8784    1.1914    1.7894 H   0  0  0  0  0  0  0  0  0  0  0  0
   -1.0489    3.1673    0.9216 C   0  0  0  0  0  0  0  0  0  0  0  0
   -0.3594    3.6139    1.6537 H   0  0  0  0  0  0  0  0  0  0  0  0
   -1.6146    3.9555   -0.0923 C   0  0  0  0  0  0  0  0  0  0  0  0
   -1.3740    5.0275   -0.1587 H   0  0  0  0  0  0  0  0  0  0  0  0
   -2.4873    3.3722   -1.0254 C   0  0  0  0  0  0  0  0  0  0  0  0
   -2.9279    3.9832   -1.8277 H   0  0  0  0  0  0  0  0  0  0  0  0
   -2.7928    2.0077   -0.9441 C   0  0  0  0  0  0  0  0  0  0  0  0
   -3.4631    1.5461   -1.6846 H   0  0  0  0  0  0  0  0  0  0  0  0
  1  2  1  0  0  0  0
  3  2  2  0  0  0  0
  4  3  1  0  0  0  0
  4 13  1  0  0  0  0
  5  4  2  0  0  0  0
  6  5  1  0  0  0  0
  7  5  1  0  0  0  0
  7  9  2  0  0  0  0
  8  7  1  0  0  0  0
  9 11  1  0  0  0  0
 10  9  1  0  0  0  0
 11 13  2  0  0  0  0
 11 12  1  0  0  0  0
 13 14  1  0  0  0  0
 15  3  1  0  0  0  0
 15 16  1  0  0  0  0
 16 17  1  0  0  0  0
 18 16  2  0  0  0  0
 18 19  1  0  0  0  0
 20 18  1  0  0  0  0
 21 20  1  0  0  0  0
 22 24  1  0  0  0  0
 22 20  2  0  0  0  0
 23 22  1  0  0  0  0
 24 15  2  0  0  0  0
 25 24  1  0  0  0  0
M  END
