1
 OpenBabel05122313053D

  5  4  0  0  0  0  0  0  0  0999 V2000
   -1.4042   -0.1257   -0.2496 N   0  0  0  0  0  0  0  0  0  0  0  0
   -2.7120    0.3503   -0.7942 B   0  0  0  0  0  0  0  0  0  0  0  0
   -2.5875    2.3759   -1.2338 Br  0  0  0  0  0  0  0  0  0  0  0  0
   -3.1327   -0.6787   -2.4955 Br  0  0  0  0  0  0  0  0  0  0  0  0
   -4.1301    0.0348    0.6156 Br  0  0  0  0  0  0  0  0  0  0  0  0
  2  1  1  0  0  0  0
  2  5  1  0  0  0  0
  3  2  1  0  0  0  0
  4  2  1  0  0  0  0
M  END
