4
 OpenBabel05122313053D

  5  4  0  0  0  0  0  0  0  0999 V2000
   -1.2369    3.9615   -0.8808 Cl  0  0  0  0  0  0  0  0  0  0  0  0
    1.3938    3.6041   -2.4477 Cl  0  0  0  0  0  0  0  0  0  0  0  0
    1.4757    4.3590    0.5460 Cl  0  0  0  0  0  0  0  0  0  0  0  0
    0.6123    1.9764   -0.4290 N   0  0  0  0  0  0  0  0  0  0  0  0
    0.5723    3.4548   -0.8030 B   0  0  0  0  0  0  0  0  0  0  0  0
  1  5  1  0  0  0  0
  2  5  1  0  0  0  0
  5  4  1  0  0  0  0
  5  3  1  0  0  0  0
M  END
