1
 OpenBabel05122313053D

 14 14  0  0  0  0  0  0  0  0999 V2000
   -0.9155    0.9062    0.4493 N   0  0  0  0  0  1  0  0  0  0  0  0
   -1.3917    1.6360    1.4312 N   0  0  0  0  0  0  0  0  0  0  0  0
   -2.2248    2.7473    1.2233 C   0  0  0  0  0  0  0  0  0  0  0  0
   -2.7174    3.4568    2.3396 C   0  0  0  0  0  0  0  0  0  0  0  0
   -3.5480    4.5665    2.1442 C   0  0  0  0  0  0  0  0  0  0  0  0
   -3.8941    4.9788    0.8459 C   0  0  0  0  0  0  0  0  0  0  0  0
   -3.3984    4.2644   -0.2576 C   0  0  0  0  0  0  0  0  0  0  0  0
   -2.5660    3.1499   -0.0869 C   0  0  0  0  0  0  0  0  0  0  0  0
   -1.2111    1.3276    2.3936 H   0  0  0  0  0  0  0  0  0  0  0  0
   -2.4452    3.1354    3.3579 H   0  0  0  0  0  0  0  0  0  0  0  0
   -3.9289    5.1155    3.0189 H   0  0  0  0  0  0  0  0  0  0  0  0
   -4.5469    5.8513    0.6971 H   0  0  0  0  0  0  0  0  0  0  0  0
   -3.6634    4.5756   -1.2797 H   0  0  0  0  0  0  0  0  0  0  0  0
   -2.1825    2.5872   -0.9532 H   0  0  0  0  0  0  0  0  0  0  0  0
  1  2  1  0  0  0  0
  2  9  1  0  0  0  0
  3  2  1  0  0  0  0
  3  4  1  0  0  0  0
  4 10  1  0  0  0  0
  5  4  2  0  0  0  0
  5 11  1  0  0  0  0
  6  5  1  0  0  0  0
  7  8  1  0  0  0  0
  7  6  2  0  0  0  0
  8  3  2  0  0  0  0
 12  6  1  0  0  0  0
 13  7  1  0  0  0  0
 14  8  1  0  0  0  0
M  END
