3
 OpenBabel05122313053D

 13 12  0  0  0  0  0  0  0  0999 V2000
   -1.5282    1.1292   -0.0051 S   0  0  0  0  0  0  0  0  0  0  0  0
   -2.3153   -1.6940   -0.0032 S   0  0  0  0  0  0  0  0  0  0  0  0
   -0.6559   -1.7015    0.0025 N   0  0  0  0  0  1  0  0  0  0  0  0
   -5.1432   -0.6840    0.0402 C   0  0  0  0  0  0  0  0  0  0  0  0
   -4.9286   -1.5275   -0.6508 H   0  0  0  0  0  0  0  0  0  0  0  0
   -6.1310   -0.2607   -0.2220 H   0  0  0  0  0  0  0  0  0  0  0  0
   -5.1932   -1.1002    1.0740 H   0  0  0  0  0  0  0  0  0  0  0  0
   -4.4841    1.7390    0.0293 C   0  0  0  0  0  0  0  0  0  0  0  0
   -4.3415    2.1232    1.0665 H   0  0  0  0  0  0  0  0  0  0  0  0
   -5.5442    1.8695   -0.2594 H   0  0  0  0  0  0  0  0  0  0  0  0
   -3.8501    2.3545   -0.6414 H   0  0  0  0  0  0  0  0  0  0  0  0
   -4.1232    0.3387   -0.0970 N   0  0  0  0  0  0  0  0  0  0  0  0
   -2.8075   -0.0328   -0.0431 C   0  0  0  0  0  0  0  0  0  0  0  0
  2  3  1  0  0  0  0
  4  7  1  0  0  0  0
  5  4  1  0  0  0  0
  6  4  1  0  0  0  0
  8  9  1  0  0  0  0
 10  8  1  0  0  0  0
 11  8  1  0  0  0  0
 12 13  1  0  0  0  0
 12  8  1  0  0  0  0
 12  4  1  0  0  0  0
 13  1  2  0  0  0  0
 13  2  1  0  0  0  0
M  END
