2
 OpenBabel05122313053D

 14 14  0  0  0  0  0  0  0  0999 V2000
   -5.8185   -0.0517   -1.0914 Cl  0  0  0  0  0  0  0  0  0  0  0  0
   -0.9236    1.6284   -0.0314 N   0  0  0  0  0  1  0  0  0  0  0  0
   -3.2968    0.9792    0.0468 N   0  0  0  0  0  2  0  0  0  0  0  0
   -2.0771    1.2685    0.0978 C   0  0  0  0  0  2  0  0  0  0  0  0
   -4.1135    0.4039    0.9977 C   0  0  0  0  0  0  0  0  0  0  0  0
   -3.7735    0.3019    2.3707 C   0  0  0  0  0  0  0  0  0  0  0  0
   -4.6468   -0.2811    3.2941 C   0  0  0  0  0  0  0  0  0  0  0  0
   -5.8895   -0.7853    2.8733 C   0  0  0  0  0  0  0  0  0  0  0  0
   -6.2493   -0.7059    1.5193 C   0  0  0  0  0  0  0  0  0  0  0  0
   -5.3739   -0.1203    0.5955 C   0  0  0  0  0  0  0  0  0  0  0  0
   -2.7997    0.7020    2.6930 H   0  0  0  0  0  0  0  0  0  0  0  0
   -4.3557   -0.3423    4.3538 H   0  0  0  0  0  0  0  0  0  0  0  0
   -6.5812   -1.2434    3.5956 H   0  0  0  0  0  0  0  0  0  0  0  0
   -7.2114   -1.1000    1.1624 H   0  0  0  0  0  0  0  0  0  0  0  0
  1 10  1  0  0  0  0
  2  4  1  0  0  0  0
  3  4  1  0  0  0  0
  3  5  1  0  0  0  0
  5  6  1  0  0  0  0
  6 11  1  0  0  0  0
  6  7  2  0  0  0  0
  7 12  1  0  0  0  0
  8  7  1  0  0  0  0
  8 13  1  0  0  0  0
  9  8  2  0  0  0  0
 10  5  2  0  0  0  0
 10  9  1  0  0  0  0
 14  9  1  0  0  0  0
M  END
