5
 OpenBabel05122313053D

 16 16  0  0  0  0  0  0  0  0999 V2000
   -3.8814   -1.2796    0.2196 O   0  0  0  0  0  0  0  0  0  0  0  0
   -4.7830    0.1991    1.5487 O   0  0  0  0  0  0  0  0  0  0  0  0
   -0.2001    0.9852   -2.9120 O   0  0  0  0  0  0  0  0  0  0  0  0
    0.1966    2.9827   -2.1028 O   0  0  0  0  0  0  0  0  0  0  0  0
   -1.4711   -0.2500   -0.6680 N   0  0  0  0  0  1  0  0  0  0  0  0
   -4.0936   -0.1224    0.5812 N   0  0  0  0  0  0  0  0  0  0  0  0
   -0.5043    1.9770   -2.2520 N   0  0  0  0  0  0  0  0  0  0  0  0
   -2.2493    0.8307   -0.8601 C   0  0  0  0  0  0  0  0  0  0  0  0
   -3.5264    0.9772   -0.2262 C   0  0  0  0  0  0  0  0  0  0  0  0
   -4.2879    2.1468   -0.3158 C   0  0  0  0  0  0  0  0  0  0  0  0
   -5.2414    2.1814    0.2284 H   0  0  0  0  0  0  0  0  0  0  0  0
   -3.8296    3.2333   -1.0710 C   0  0  0  0  0  0  0  0  0  0  0  0
   -4.4359    4.1455   -1.1573 H   0  0  0  0  0  0  0  0  0  0  0  0
   -2.5796    3.1514   -1.6978 C   0  0  0  0  0  0  0  0  0  0  0  0
   -2.1617    3.9972   -2.2616 H   0  0  0  0  0  0  0  0  0  0  0  0
   -1.8217    1.9820   -1.6004 C   0  0  0  0  0  0  0  0  0  0  0  0
  1  6  2  0  0  0  0
  3  7  2  0  0  0  0
  6  2  2  0  0  0  0
  7  4  2  0  0  0  0
  7 16  1  0  0  0  0
  8  5  1  0  0  0  0
  8  9  1  0  0  0  0
  9  6  1  0  0  0  0
 10  9  2  0  0  0  0
 10 11  1  0  0  0  0
 12 10  1  0  0  0  0
 13 12  1  0  0  0  0
 14 16  1  0  0  0  0
 14 12  2  0  0  0  0
 15 14  1  0  0  0  0
 16  8  2  0  0  0  0
M  END
