32
 OpenBabel05122313053D

 36 35  0  0  0  0  0  0  0  0999 V2000
   -1.7179    0.5193    0.0546 P   0  0  0  0  0  4  0  0  0  0  0  0
   -2.3348    0.3703    1.8334 C   0  0  0  0  0  0  0  0  0  0  0  0
   -1.5433    2.2932   -0.3051 C   0  0  0  0  0  0  0  0  0  0  0  0
   -2.3716    2.9775   -0.0517 H   0  0  0  0  0  0  0  0  0  0  0  0
   -2.8524   -0.1637   -1.2963 C   0  0  0  0  0  0  0  0  0  0  0  0
   -0.4228    2.7460   -0.9091 C   0  0  0  0  0  0  0  0  0  0  0  0
    0.3653    2.0032   -1.1415 H   0  0  0  0  0  0  0  0  0  0  0  0
   -3.2628   -1.6070   -0.9628 C   0  0  0  0  0  0  0  0  0  0  0  0
   -3.7612   -2.0469   -1.8521 H   0  0  0  0  0  0  0  0  0  0  0  0
   -3.9853   -1.6522   -0.1250 H   0  0  0  0  0  0  0  0  0  0  0  0
   -2.3842   -2.2385   -0.7200 H   0  0  0  0  0  0  0  0  0  0  0  0
   -1.2697    1.1035    2.6758 C   0  0  0  0  0  0  0  0  0  0  0  0
   -1.5725    1.0652    3.7430 H   0  0  0  0  0  0  0  0  0  0  0  0
   -1.1638    2.1692    2.3890 H   0  0  0  0  0  0  0  0  0  0  0  0
   -0.2844    0.6068    2.5803 H   0  0  0  0  0  0  0  0  0  0  0  0
   -0.1514    4.1655   -1.2891 C   0  0  0  0  0  0  0  0  0  0  0  0
    0.0234    4.2479   -2.3833 H   0  0  0  0  0  0  0  0  0  0  0  0
    0.7831    4.5248   -0.8061 H   0  0  0  0  0  0  0  0  0  0  0  0
   -0.9775    4.8483   -1.0108 H   0  0  0  0  0  0  0  0  0  0  0  0
   -4.0838    0.7376   -1.4882 C   0  0  0  0  0  0  0  0  0  0  0  0
   -4.7012    0.3224   -2.3122 H   0  0  0  0  0  0  0  0  0  0  0  0
   -3.8022    1.7704   -1.7753 H   0  0  0  0  0  0  0  0  0  0  0  0
   -4.7260    0.7856   -0.5880 H   0  0  0  0  0  0  0  0  0  0  0  0
   -2.3524   -1.1129    2.2463 C   0  0  0  0  0  0  0  0  0  0  0  0
   -2.4794   -1.1710    3.3474 H   0  0  0  0  0  0  0  0  0  0  0  0
   -1.4057   -1.6252    1.9844 H   0  0  0  0  0  0  0  0  0  0  0  0
   -3.1865   -1.6703    1.7830 H   0  0  0  0  0  0  0  0  0  0  0  0
   -1.9952   -0.1541   -2.5779 C   0  0  0  0  0  0  0  0  0  0  0  0
   -2.6196   -0.5237   -3.4178 H   0  0  0  0  0  0  0  0  0  0  0  0
   -1.1061   -0.8070   -2.4889 H   0  0  0  0  0  0  0  0  0  0  0  0
   -1.6496    0.8666   -2.8371 H   0  0  0  0  0  0  0  0  0  0  0  0
   -0.2642   -0.1701   -0.0321 N   0  0  0  0  0  1  0  0  0  0  0  0
   -3.7155    1.0158    2.0223 C   0  0  0  0  0  0  0  0  0  0  0  0
   -3.9772    0.9968    3.1012 H   0  0  0  0  0  0  0  0  0  0  0  0
   -4.5108    0.4650    1.4835 H   0  0  0  0  0  0  0  0  0  0  0  0
   -3.7409    2.0760    1.6984 H   0  0  0  0  0  0  0  0  0  0  0  0
  1  2  1  0  0  0  0
  2 33  1  0  0  0  0
  2 24  1  0  0  0  0
  2 12  1  0  0  0  0
  3  4  1  0  0  0  0
  3  1  1  0  0  0  0
  5  8  1  0  0  0  0
  5  1  1  0  0  0  0
  6  3  2  0  0  0  0
  7  6  1  0  0  0  0
  8 11  1  0  0  0  0
  8 10  1  0  0  0  0
  9  8  1  0  0  0  0
 12 13  1  0  0  0  0
 14 12  1  0  0  0  0
 15 12  1  0  0  0  0
 16 19  1  0  0  0  0
 16  6  1  0  0  0  0
 16 18  1  0  0  0  0
 17 16  1  0  0  0  0
 20  5  1  0  0  0  0
 20 23  1  0  0  0  0
 21 20  1  0  0  0  0
 22 20  1  0  0  0  0
 24 25  1  0  0  0  0
 26 24  1  0  0  0  0
 27 24  1  0  0  0  0
 28 30  1  0  0  0  0
 28  5  1  0  0  0  0
 29 28  1  0  0  0  0
 31 28  1  0  0  0  0
 32  1  1  0  0  0  0
 33 34  1  0  0  0  0
 35 33  1  0  0  0  0
 36 33  1  0  0  0  0
M  END
