3
 OpenBabel05122313053D

 16 16  0  0  0  0  0  0  0  0999 V2000
    1.0945   -9.3483    0.5596 F   0  0  0  0  0  0  0  0  0  0  0  0
   -0.0030   -9.2609   -1.3228 F   0  0  0  0  0  0  0  0  0  0  0  0
    0.0009   -1.9222    0.0174 N   0  0  0  0  0  1  0  0  0  0  0  0
    0.0000   -8.8275   -0.0394 C   0  0  0  0  0  0  0  0  0  0  0  0
    0.0005   -7.3141    0.0186 C   0  0  0  0  0  0  0  0  0  0  0  0
    0.0010   -4.5146    0.0175 C   0  0  0  0  0  0  0  0  0  0  0  0
    1.2214   -6.6157    0.0219 C   0  0  0  0  0  0  0  0  0  0  0  0
    2.1688   -7.1727    0.0327 H   0  0  0  0  0  0  0  0  0  0  0  0
    1.2297   -5.2191    0.0208 C   0  0  0  0  0  0  0  0  0  0  0  0
    2.1765   -4.6610    0.0253 H   0  0  0  0  0  0  0  0  0  0  0  0
    0.0011   -3.0920    0.0176 C   0  0  0  0  0  2  0  0  0  0  0  0
   -1.0922   -9.3476    0.5645 F   0  0  0  0  0  0  0  0  0  0  0  0
   -1.2202   -6.6153    0.0206 C   0  0  0  0  0  0  0  0  0  0  0  0
   -2.1678   -7.1720    0.0304 H   0  0  0  0  0  0  0  0  0  0  0  0
   -1.2280   -5.2187    0.0194 C   0  0  0  0  0  0  0  0  0  0  0  0
   -2.1746   -4.6602    0.0230 H   0  0  0  0  0  0  0  0  0  0  0  0
  2  4  1  0  0  0  0
  3 11  1  0  0  0  0
  4  5  1  0  0  0  0
  4  1  1  0  0  0  0
  4 12  1  0  0  0  0
  5 13  2  0  0  0  0
  5  7  1  0  0  0  0
  6 11  1  0  0  0  0
  6 15  2  0  0  0  0
  6  9  1  0  0  0  0
  7  8  1  0  0  0  0
  9  7  2  0  0  0  0
  9 10  1  0  0  0  0
 13 14  1  0  0  0  0
 15 13  1  0  0  0  0
 15 16  1  0  0  0  0
M  END
