2
 OpenBabel05122313053D

 33 36  0  0  0  0  0  0  0  0999 V2000
    2.4408    3.1416   -0.1841 N   0  0  0  0  0  0  0  0  0  0  0  0
   -1.2248    0.1029    0.0998 N   0  0  0  0  0  1  0  0  0  0  0  0
    2.9179   -3.6214   -0.7475 O   0  0  0  0  0  0  0  0  0  0  0  0
    5.0559   -3.1366    0.0086 O   0  0  0  0  0  0  0  0  0  0  0  0
   -0.1173    0.4991    0.0810 C   0  0  0  0  0  2  0  0  0  0  0  0
    1.2147    0.9826    0.0480 C   0  0  0  0  0  0  0  0  0  0  0  0
    1.3216    2.3708   -0.0909 C   0  0  0  0  0  0  0  0  0  0  0  0
    3.8145    2.7384    0.0661 C   0  0  0  0  0  0  0  0  0  0  0  0
    4.3479    3.6420    0.4315 H   0  0  0  0  0  0  0  0  0  0  0  0
    4.3156    2.4308   -0.8790 H   0  0  0  0  0  0  0  0  0  0  0  0
    3.9295    1.6142    1.1072 C   0  0  0  0  0  0  0  0  0  0  0  0
    3.2756    1.8750    1.9687 H   0  0  0  0  0  0  0  0  0  0  0  0
    4.9691    1.6090    1.4897 H   0  0  0  0  0  0  0  0  0  0  0  0
    3.5904    0.2460    0.5766 C   0  0  0  0  0  0  0  0  0  0  0  0
    4.5977   -0.7533    0.5740 C   0  0  0  0  0  0  0  0  0  0  0  0
    5.6099   -0.5326    0.9417 H   0  0  0  0  0  0  0  0  0  0  0  0
    4.2657   -2.0223    0.1226 C   0  0  0  0  0  0  0  0  0  0  0  0
    4.1658   -4.2005   -0.3544 C   0  0  0  0  0  0  0  0  0  0  0  0
    4.0076   -4.8704    0.5263 H   0  0  0  0  0  0  0  0  0  0  0  0
    4.5960   -4.7719   -1.2040 H   0  0  0  0  0  0  0  0  0  0  0  0
    2.9698   -2.3155   -0.3329 C   0  0  0  0  0  0  0  0  0  0  0  0
    1.9731   -1.3558   -0.3649 C   0  0  0  0  0  0  0  0  0  0  0  0
    0.9704   -1.6014   -0.7407 H   0  0  0  0  0  0  0  0  0  0  0  0
    2.2885   -0.0395    0.0889 C   0  0  0  0  0  0  0  0  0  0  0  0
    0.1159    3.2923   -0.1550 C   0  0  0  0  0  0  0  0  0  0  0  0
   -0.7346    2.8498   -0.7062 H   0  0  0  0  0  0  0  0  0  0  0  0
   -0.2419    3.4813    0.8817 H   0  0  0  0  0  0  0  0  0  0  0  0
    0.6734    4.5698   -0.7997 C   0  0  0  0  0  0  0  0  0  0  0  0
    0.1351    5.4868   -0.4963 H   0  0  0  0  0  0  0  0  0  0  0  0
    0.6153    4.4906   -1.9041 H   0  0  0  0  0  0  0  0  0  0  0  0
    2.1385    4.5664   -0.3568 C   0  0  0  0  0  0  0  0  0  0  0  0
    2.8239    5.0192   -1.1033 H   0  0  0  0  0  0  0  0  0  0  0  0
    2.2933    5.1077    0.6076 H   0  0  0  0  0  0  0  0  0  0  0  0
  1  7  1  0  0  0  0
  1  8  1  0  0  0  0
  3 18  1  0  0  0  0
  3 21  1  0  0  0  0
  4 17  1  0  0  0  0
  5  2  1  0  0  0  0
  6  5  1  0  0  0  0
  6 24  1  0  0  0  0
  7  6  2  0  0  0  0
  8  9  1  0  0  0  0
  8 11  1  0  0  0  0
 10  8  1  0  0  0  0
 11 13  1  0  0  0  0
 11 12  1  0  0  0  0
 14 11  1  0  0  0  0
 15 14  1  0  0  0  0
 15 16  1  0  0  0  0
 17 15  2  0  0  0  0
 18  4  1  0  0  0  0
 18 19  1  0  0  0  0
 20 18  1  0  0  0  0
 21 17  1  0  0  0  0
 22 21  2  0  0  0  0
 22 24  1  0  0  0  0
 23 22  1  0  0  0  0
 24 14  2  0  0  0  0
 25  7  1  0  0  0  0
 25 27  1  0  0  0  0
 26 25  1  0  0  0  0
 28 29  1  0  0  0  0
 28 31  1  0  0  0  0
 28 25  1  0  0  0  0
 30 28  1  0  0  0  0
 31  1  1  0  0  0  0
 31 33  1  0  0  0  0
 32 31  1  0  0  0  0
M  END
