1
 OpenBabel05122313053D

 16 15  0  0  0  0  0  0  0  0999 V2000
   -0.6695   -0.0586   -0.8183 N   0  0  0  0  0  1  0  0  0  0  0  0
   -1.8911    0.0135   -1.1394 C   0  0  0  0  0  3  0  0  0  0  0  0
   -2.1705    0.2714   -2.1936 H   0  0  0  0  0  0  0  0  0  0  0  0
   -3.0682   -0.1366   -0.1737 C   0  0  0  0  0  0  0  0  0  0  0  0
   -4.2629   -0.7399   -0.9324 C   0  0  0  0  0  0  0  0  0  0  0  0
   -4.5398   -0.1213   -1.8112 H   0  0  0  0  0  0  0  0  0  0  0  0
   -5.1492   -0.7993   -0.2689 H   0  0  0  0  0  0  0  0  0  0  0  0
   -4.0389   -1.7653   -1.2917 H   0  0  0  0  0  0  0  0  0  0  0  0
   -3.4000    1.3025    0.2928 C   0  0  0  0  0  0  0  0  0  0  0  0
   -2.5450    1.7357    0.8484 H   0  0  0  0  0  0  0  0  0  0  0  0
   -4.2860    1.2846    0.9608 H   0  0  0  0  0  0  0  0  0  0  0  0
   -3.6339    1.9667   -0.5643 H   0  0  0  0  0  0  0  0  0  0  0  0
   -2.6863   -1.0055    1.0331 C   0  0  0  0  0  0  0  0  0  0  0  0
   -2.4534   -2.0433    0.7176 H   0  0  0  0  0  0  0  0  0  0  0  0
   -3.5302   -1.0502    1.7506 H   0  0  0  0  0  0  0  0  0  0  0  0
   -1.8024   -0.5928    1.5566 H   0  0  0  0  0  0  0  0  0  0  0  0
  2  1  1  0  0  0  0
  2  4  1  0  0  0  0
  3  2  1  0  0  0  0
  4  9  1  0  0  0  0
  4 13  1  0  0  0  0
  5  7  1  0  0  0  0
  5  4  1  0  0  0  0
  6  5  1  0  0  0  0
  8  5  1  0  0  0  0
  9 10  1  0  0  0  0
  9 11  1  0  0  0  0
 12  9  1  0  0  0  0
 13 16  1  0  0  0  0
 13 15  1  0  0  0  0
 14 13  1  0  0  0  0
M  END
