2
 OpenBabel05122313053D

 26 26  0  0  0  0  0  0  0  0999 V2000
    9.7024    0.7948   -0.9657 O   0  0  0  0  0  0  0  0  0  0  0  0
   -0.9533   -0.4885   -1.4515 N   0  0  0  0  0  1  0  0  0  0  0  0
    1.1441   -1.6257   -2.0803 N   0  0  0  0  0  2  0  0  0  0  0  0
    0.0985   -1.0096   -1.7100 C   0  0  0  0  0  2  0  0  0  0  0  0
    2.4233   -1.2682   -1.6983 C   0  0  0  0  0  0  0  0  0  0  0  0
    2.7066   -0.1705   -0.8358 C   0  0  0  0  0  0  0  0  0  0  0  0
    4.0127    0.1343   -0.4614 C   0  0  0  0  0  0  0  0  0  0  0  0
    5.1103   -0.6379   -0.9281 C   0  0  0  0  0  0  0  0  0  0  0  0
    4.8286   -1.7293   -1.7941 C   0  0  0  0  0  0  0  0  0  0  0  0
    3.5220   -2.0354   -2.1687 C   0  0  0  0  0  0  0  0  0  0  0  0
    6.4463   -0.3272   -0.5413 C   0  0  0  0  0  0  0  0  0  0  0  0
    7.6027   -0.0703   -0.2060 C   0  0  0  0  0  0  0  0  0  0  0  0
    8.9816    0.2897    0.1744 C   0  0  0  0  0  0  0  0  0  0  0  0
    8.9507    1.3608    1.2853 C   0  0  0  0  0  0  0  0  0  0  0  0
    9.7645   -0.9507    0.6305 C   0  0  0  0  0  0  0  0  0  0  0  0
    1.8718    0.4442   -0.4660 H   0  0  0  0  0  0  0  0  0  0  0  0
    4.2072    0.9872    0.2069 H   0  0  0  0  0  0  0  0  0  0  0  0
    5.6654   -2.3376   -2.1684 H   0  0  0  0  0  0  0  0  0  0  0  0
    3.3091   -2.8830   -2.8365 H   0  0  0  0  0  0  0  0  0  0  0  0
    8.4446    0.9849    2.1968 H   0  0  0  0  0  0  0  0  0  0  0  0
    8.4038    2.2596    0.9357 H   0  0  0  0  0  0  0  0  0  0  0  0
    9.9887    1.6547    1.5386 H   0  0  0  0  0  0  0  0  0  0  0  0
    9.3032   -1.4012    1.5296 H   0  0  0  0  0  0  0  0  0  0  0  0
   10.8082   -0.6584    0.8626 H   0  0  0  0  0  0  0  0  0  0  0  0
    9.7811   -1.7016   -0.1819 H   0  0  0  0  0  0  0  0  0  0  0  0
    9.1101    1.4409   -1.3945 H   0  0  0  0  0  0  0  0  0  0  0  0
  1 13  1  0  0  0  0
  3  4  1  0  0  0  0
  3  5  1  0  0  0  0
  4  2  1  0  0  0  0
  5  6  1  0  0  0  0
  6 16  1  0  0  0  0
  6  7  2  0  0  0  0
  7 17  1  0  0  0  0
  8 11  1  0  0  0  0
  8  7  1  0  0  0  0
  9  8  2  0  0  0  0
 10  9  1  0  0  0  0
 10  5  2  0  0  0  0
 11 12  3  0  0  0  0
 12 13  1  0  0  0  0
 13 15  1  0  0  0  0
 13 14  1  0  0  0  0
 14 22  1  0  0  0  0
 14 20  1  0  0  0  0
 15 24  1  0  0  0  0
 15 23  1  0  0  0  0
 18  9  1  0  0  0  0
 19 10  1  0  0  0  0
 21 14  1  0  0  0  0
 25 15  1  0  0  0  0
 26  1  1  0  0  0  0
M  END
