2
 OpenBabel05122313053D

 13 13  0  0  0  0  0  0  0  0999 V2000
    8.2747   -1.7161    0.0316 Cl  0  0  0  0  0  0  0  0  0  0  0  0
    1.9038    0.3758   -0.0082 N   0  0  0  0  0  2  0  0  0  0  0  0
    2.9760    1.0007   -0.0411 N   0  0  0  0  0  0  0  0  0  0  0  0
    4.2061    0.2992   -0.0220 C   0  0  0  0  0  0  0  0  0  0  0  0
    5.3801    1.0640   -0.1854 C   0  0  0  0  0  0  0  0  0  0  0  0
    6.6352    0.4489   -0.1744 C   0  0  0  0  0  0  0  0  0  0  0  0
    6.7217   -0.9436    0.0105 C   0  0  0  0  0  0  0  0  0  0  0  0
    5.5576   -1.7200    0.1854 C   0  0  0  0  0  0  0  0  0  0  0  0
    4.3076   -1.0990    0.1676 C   0  0  0  0  0  0  0  0  0  0  0  0
    5.2846    2.1509   -0.3241 H   0  0  0  0  0  0  0  0  0  0  0  0
    7.5540    1.0372   -0.3053 H   0  0  0  0  0  0  0  0  0  0  0  0
    5.6507   -2.8048    0.3370 H   0  0  0  0  0  0  0  0  0  0  0  0
    3.3878   -1.6853    0.3101 H   0  0  0  0  0  0  0  0  0  0  0  0
  3  4  1  0  0  0  0
  3  2  2  0  0  0  0
  4  9  1  0  0  0  0
  5  6  1  0  0  0  0
  5  4  2  0  0  0  0
  6  7  2  0  0  0  0
  7  1  1  0  0  0  0
  7  8  1  0  0  0  0
  8 12  1  0  0  0  0
  9  8  2  0  0  0  0
  9 13  1  0  0  0  0
 10  5  1  0  0  0  0
 11  6  1  0  0  0  0
M  END
