1
 OpenBabel05122313053D

 19 19  0  0  0  0  0  0  0  0999 V2000
   -1.6119    0.8672    0.4857 N   0  0  0  0  0  1  0  0  0  0  0  0
   -2.7461    0.7444    0.9112 N   0  0  0  0  0  2  0  0  0  0  0  0
   -3.7674   -0.0904    0.3971 C   0  0  0  0  0  0  0  0  0  0  0  0
   -4.9998    0.5245    0.0609 C   0  0  0  0  0  0  0  0  0  0  0  0
   -6.0369   -0.2950   -0.4169 C   0  0  0  0  0  0  0  0  0  0  0  0
   -5.8619   -1.6809   -0.5410 C   0  0  0  0  0  0  0  0  0  0  0  0
   -4.6426   -2.2686   -0.1752 C   0  0  0  0  0  0  0  0  0  0  0  0
   -3.5702   -1.4954    0.3071 C   0  0  0  0  0  0  0  0  0  0  0  0
   -5.1516    2.0160    0.1917 C   0  0  0  0  0  0  0  0  0  0  0  0
   -2.2796   -2.1348    0.7461 C   0  0  0  0  0  0  0  0  0  0  0  0
   -6.9955    0.1692   -0.6968 H   0  0  0  0  0  0  0  0  0  0  0  0
   -6.6846   -2.3088   -0.9147 H   0  0  0  0  0  0  0  0  0  0  0  0
   -4.5115   -3.3594   -0.2532 H   0  0  0  0  0  0  0  0  0  0  0  0
   -4.8600    2.3581    1.2060 H   0  0  0  0  0  0  0  0  0  0  0  0
   -6.1929    2.3337   -0.0061 H   0  0  0  0  0  0  0  0  0  0  0  0
   -4.4862    2.5520   -0.5176 H   0  0  0  0  0  0  0  0  0  0  0  0
   -2.3595   -3.2377    0.7192 H   0  0  0  0  0  0  0  0  0  0  0  0
   -2.0079   -1.8310    1.7784 H   0  0  0  0  0  0  0  0  0  0  0  0
   -1.4250   -1.8381    0.1061 H   0  0  0  0  0  0  0  0  0  0  0  0
  1  2  1  0  0  0  0
  3  2  1  0  0  0  0
  4  9  1  0  0  0  0
  4  3  2  0  0  0  0
  5  4  1  0  0  0  0
  6  5  2  0  0  0  0
  6  7  1  0  0  0  0
  7  8  2  0  0  0  0
  8  3  1  0  0  0  0
  8 10  1  0  0  0  0
  9 14  1  0  0  0  0
 10 18  1  0  0  0  0
 11  5  1  0  0  0  0
 12  6  1  0  0  0  0
 13  7  1  0  0  0  0
 15  9  1  0  0  0  0
 16  9  1  0  0  0  0
 17 10  1  0  0  0  0
 19 10  1  0  0  0  0
M  END
