7,8,9,10,11
 OpenBabel05122313063D

 77 81  0  0  1  0  0  0  0  0999 V2000
    0.4958   -1.2956    1.8551 S   0  0  0  0  0  0  0  0  0  0  0  0
    3.1200    1.0647   -1.5918 S   0  0  0  0  0  0  0  0  0  0  0  0
    0.9793    0.0555    2.2406 O   0  0  0  0  0  0  0  0  0  0  0  0
    1.0481   -2.5126    2.5042 O   0  0  0  0  0  0  0  0  0  0  0  0
    4.2635    1.9797   -1.8153 O   0  0  0  0  0  0  0  0  0  0  0  0
    2.5316    0.4038   -2.8101 O   0  0  0  0  0  0  0  0  0  0  0  0
    0.5587   -1.3679    0.2076 N   0  0  0  0  0  2  0  0  0  0  0  0
   -1.6531   -1.3211   -1.3259 N   0  0  0  0  0  2  0  0  0  0  0  0
   -2.4517    1.1732   -0.7858 N   0  0  0  0  0  2  0  0  0  0  0  0
   -0.4807    2.7611    0.1456 N   0  0  0  0  0  2  0  0  0  0  0  0
    1.8294    1.7887   -0.8423 N   0  0  0  0  0  2  0  0  0  0  0  0
   -5.6159   -1.1976    2.0438 C   0  0  0  0  0  0  0  0  0  0  0  0
   -6.0509   -2.1967    1.8472 H   0  0  0  0  0  0  0  0  0  0  0  0
   -5.9662   -0.5057    1.2483 H   0  0  0  0  0  0  0  0  0  0  0  0
   -6.0448   -0.8260    2.9982 H   0  0  0  0  0  0  0  0  0  0  0  0
   -4.1100   -1.2437    2.0973 C   0  0  0  0  0  0  0  0  0  0  0  0
   -3.4084   -2.4642    2.0013 C   0  0  0  0  0  0  0  0  0  0  0  0
   -3.9747   -3.4044    1.9044 H   0  0  0  0  0  0  0  0  0  0  0  0
   -2.0071   -2.5040    2.0221 C   0  0  0  0  0  0  0  0  0  0  0  0
   -1.4627   -3.4563    1.9472 H   0  0  0  0  0  0  0  0  0  0  0  0
   -1.2914   -1.3009    2.1307 C   0  0  0  0  0  0  0  0  0  0  0  0
   -1.9647   -0.0750    2.2638 C   0  0  0  0  0  0  0  0  0  0  0  0
   -1.3745    0.8476    2.3678 H   0  0  0  0  0  0  0  0  0  0  0  0
   -3.3636   -0.0551    2.2503 C   0  0  0  0  0  0  0  0  0  0  0  0
   -3.8928    0.9072    2.3448 H   0  0  0  0  0  0  0  0  0  0  0  0
    0.2048   -2.5333   -0.4587 C   0  0  0  0  0  0  0  0  0  0  0  0
    0.9184   -3.7481   -0.3282 C   0  0  0  0  0  0  0  0  0  0  0  0
    1.7603   -3.7701    0.3737 H   0  0  0  0  0  0  0  0  0  0  0  0
    0.5703   -4.8688   -1.0873 C   0  0  0  0  0  0  0  0  0  0  0  0
    1.1523   -5.7971   -0.9799 H   0  0  0  0  0  0  0  0  0  0  0  0
   -0.4888   -4.8098   -2.0158 C   0  0  0  0  0  0  0  0  0  0  0  0
   -0.7183   -5.6777   -2.6518 H   0  0  0  0  0  0  0  0  0  0  0  0
   -1.2474   -3.6425   -2.1312 C   0  0  0  0  0  0  0  0  0  0  0  0
   -2.0577   -3.5832   -2.8708 H   0  0  0  0  0  0  0  0  0  0  0  0
   -0.9461   -2.5093   -1.3353 C   0  0  0  0  0  0  0  0  0  0  0  0
   -2.9332   -1.1273   -1.3736 C   0  0  0  0  0  0  0  0  0  0  0  0
   -3.9740   -2.2089   -1.5070 C   0  0  0  0  0  0  0  0  0  0  0  0
   -3.5572   -3.1779   -1.1741 H   0  0  0  0  0  0  0  0  0  0  0  0
   -4.3061   -2.3295   -2.5602 H   0  0  0  0  0  0  0  0  0  0  0  0
   -4.8677   -1.9841   -0.8954 H   0  0  0  0  0  0  0  0  0  0  0  0
   -3.3857    0.2818   -1.1617 C   0  0  0  0  0  0  0  0  0  0  0  0
   -4.7391    0.6732   -1.2832 C   0  0  0  0  0  0  0  0  0  0  0  0
   -5.5023   -0.0394   -1.6212 H   0  0  0  0  0  0  0  0  0  0  0  0
   -5.0888    1.9905   -0.9603 C   0  0  0  0  0  0  0  0  0  0  0  0
   -6.1368    2.3175   -1.0352 H   0  0  0  0  0  0  0  0  0  0  0  0
   -4.1036    2.8883   -0.5328 C   0  0  0  0  0  0  0  0  0  0  0  0
   -4.3724    3.9140   -0.2495 H   0  0  0  0  0  0  0  0  0  0  0  0
   -2.7607    2.4431   -0.4662 C   0  0  0  0  0  0  0  0  0  0  0  0
   -1.6457    3.3277   -0.0244 C   0  0  2  0  0  3  0  0  0  0  0  0
   -1.9219    4.8023    0.1193 C   0  0  0  0  0  0  0  0  0  0  0  0
   -0.9811    5.3789    0.0410 H   0  0  0  0  0  0  0  0  0  0  0  0
   -2.3847    5.0554    1.0971 H   0  0  0  0  0  0  0  0  0  0  0  0
   -2.6174    5.1480   -0.6702 H   0  0  0  0  0  0  0  0  0  0  0  0
    0.6887    3.3383    0.6060 C   0  0  0  0  0  0  0  0  0  0  0  0
    0.7207    4.3393    1.6134 C   0  0  0  0  0  0  0  0  0  0  0  0
   -0.2236    4.6603    2.0727 H   0  0  0  0  0  0  0  0  0  0  0  0
    1.9253    4.8477    2.0906 C   0  0  0  0  0  0  0  0  0  0  0  0
    1.9311    5.5965    2.8958 H   0  0  0  0  0  0  0  0  0  0  0  0
    3.1346    4.3733    1.5385 C   0  0  0  0  0  0  0  0  0  0  0  0
    4.0944    4.7818    1.8906 H   0  0  0  0  0  0  0  0  0  0  0  0
    3.1445    3.3745    0.5680 C   0  0  0  0  0  0  0  0  0  0  0  0
    4.0944    3.0216    0.1481 H   0  0  0  0  0  0  0  0  0  0  0  0
    1.9335    2.7978    0.0839 C   0  0  0  0  0  0  0  0  0  0  0  0
    3.6156   -0.2906   -0.5194 C   0  0  0  0  0  0  0  0  0  0  0  0
    3.8574   -1.5445   -1.0965 C   0  0  0  0  0  0  0  0  0  0  0  0
    3.7555   -1.6698   -2.1834 H   0  0  0  0  0  0  0  0  0  0  0  0
    4.1772   -2.6247   -0.2631 C   0  0  0  0  0  0  0  0  0  0  0  0
    4.3495   -3.6168   -0.7097 H   0  0  0  0  0  0  0  0  0  0  0  0
    4.2283   -2.4766    1.1372 C   0  0  0  0  0  0  0  0  0  0  0  0
    4.0039   -1.1954    1.6826 C   0  0  0  0  0  0  0  0  0  0  0  0
    4.0077   -1.0628    2.7747 H   0  0  0  0  0  0  0  0  0  0  0  0
    3.7057   -0.1010    0.8678 C   0  0  0  0  0  0  0  0  0  0  0  0
    3.4779    0.8707    1.3248 H   0  0  0  0  0  0  0  0  0  0  0  0
    4.4228   -3.6579    2.0491 C   0  0  0  0  0  0  0  0  0  0  0  0
    5.2015   -3.4629    2.8143 H   0  0  0  0  0  0  0  0  0  0  0  0
    4.7044   -4.5720    1.4912 H   0  0  0  0  0  0  0  0  0  0  0  0
    3.4742   -3.8560    2.5933 H   0  0  0  0  0  0  0  0  0  0  0  0
  1 21  1  0  0  0  0
  1  3  2  0  0  0  0
  1  4  2  0  0  0  0
  2 11  1  0  0  0  0
  2 64  1  0  0  0  0
  5  2  2  0  0  0  0
  6  2  2  0  0  0  0
  7  1  1  0  0  0  0
  9 48  1  0  0  0  0
 10 54  1  0  0  0  0
 11 63  1  0  0  0  0
 12 16  1  0  0  0  0
 12 15  1  0  0  0  0
 13 12  1  0  0  0  0
 14 12  1  0  0  0  0
 16 24  1  0  0  0  0
 17 19  1  0  0  0  0
 17 16  2  0  0  0  0
 18 17  1  0  0  0  0
 19 21  2  0  0  0  0
 20 19  1  0  0  0  0
 21 22  1  0  0  0  0
 22 23  1  0  0  0  0
 24 22  2  0  0  0  0
 24 25  1  0  0  0  0
 26 27  1  0  0  0  0
 26  7  1  0  0  0  0
 27 28  1  0  0  0  0
 29 30  1  0  0  0  0
 29 27  2  0  0  0  0
 31 29  1  0  0  0  0
 32 31  1  0  0  0  0
 33 31  2  0  0  0  0
 33 35  1  0  0  0  0
 34 33  1  0  0  0  0
 35  8  1  0  0  0  0
 35 26  2  0  0  0  0
 36  8  1  0  0  0  0
 36 41  2  0  0  0  0
 37 36  1  0  0  0  0
 37 38  1  0  0  0  0
 37 40  1  0  0  0  0
 39 37  1  0  0  0  0
 41  9  1  0  0  0  0
 42 41  1  0  0  0  0
 42 44  2  0  0  0  0
 43 42  1  0  0  0  0
 44 46  1  0  0  0  0
 45 44  1  0  0  0  0
 46 48  2  0  0  0  0
 46 47  1  0  0  0  0
 48 49  1  0  0  0  0
 49 50  1  0  0  0  0
 49 10  1  6  0  0  0
 50 52  1  0  0  0  0
 51 50  1  0  0  0  0
 53 50  1  0  0  0  0
 54 55  1  0  0  0  0
 55 56  1  0  0  0  0
 55 57  2  0  0  0  0
 57 58  1  0  0  0  0
 59 60  1  0  0  0  0
 59 57  1  0  0  0  0
 61 59  2  0  0  0  0
 62 61  1  0  0  0  0
 63 61  1  0  0  0  0
 63 54  2  0  0  0  0
 64 72  1  0  0  0  0
 65 64  2  0  0  0  0
 65 67  1  0  0  0  0
 66 65  1  0  0  0  0
 67 69  2  0  0  0  0
 68 67  1  0  0  0  0
 69 70  1  0  0  0  0
 69 74  1  0  0  0  0
 70 71  1  0  0  0  0
 72 73  1  0  0  0  0
 72 70  2  0  0  0  0
 74 77  1  0  0  0  0
 74 75  1  0  0  0  0
 76 74  1  0  0  0  0
M  END
