1,2,4,6,8
 OpenBabel05122313063D

 45 49  0  0  1  0  0  0  0  0999 V2000
    0.0003   -1.3481   -0.0036 N   0  0  0  0  0  2  0  0  0  0  0  0
    1.4338    0.5572    1.3277 N   0  0  0  0  0  2  0  0  0  0  0  0
    2.4420   -0.3433    1.1826 N   0  0  0  0  0  0  0  0  0  0  0  0
    1.4338    0.5641   -1.3248 N   0  0  0  0  0  2  0  0  0  0  0  0
    2.4420   -0.3371   -1.1842 N   0  0  0  0  0  0  0  0  0  0  0  0
   -1.4340    0.5565    1.3277 N   0  0  0  0  0  2  0  0  0  0  0  0
   -2.4419   -0.3443    1.1823 N   0  0  0  0  0  0  0  0  0  0  0  0
   -1.4339    0.5638   -1.3247 N   0  0  0  0  0  2  0  0  0  0  0  0
   -2.4416   -0.3381   -1.1846 N   0  0  0  0  0  0  0  0  0  0  0  0
    1.1684   -2.0502   -0.0053 C   0  0  2  0  0  3  0  0  0  0  0  0
    1.2064   -3.4460   -0.0088 C   0  0  0  0  0  0  0  0  0  0  0  0
    2.1751   -3.9669   -0.0100 H   0  0  0  0  0  0  0  0  0  0  0  0
    0.0009   -4.1665   -0.0106 C   0  0  0  0  0  0  0  0  0  0  0  0
    0.0011   -5.2652   -0.0133 H   0  0  0  0  0  0  0  0  0  0  0  0
   -1.2049   -3.4464   -0.0089 C   0  0  0  0  0  0  0  0  0  0  0  0
   -2.1734   -3.9678   -0.0102 H   0  0  0  0  0  0  0  0  0  0  0  0
   -1.1674   -2.0506   -0.0055 C   0  0  0  0  0  0  0  0  0  0  0  0
    2.4126   -1.1866   -0.0030 C   0  0  2  0  0  0  0  0  0  0  0  0
    3.3209   -1.8138   -0.0047 H   0  0  0  0  0  0  0  0  0  0  0  0
   -2.4120   -1.1875   -0.0034 C   0  0  1  0  0  0  0  0  0  0  0  0
   -3.3200   -1.8151   -0.0051 H   0  0  0  0  0  0  0  0  0  0  0  0
    1.7790    1.3403    2.3618 C   0  0  0  0  0  3  0  0  0  0  0  0
    1.1420    2.1860    2.6371 H   0  0  0  0  0  0  0  0  0  0  0  0
    3.0244    0.9292    2.8945 C   0  0  0  0  0  0  0  0  0  0  0  0
    3.5610    1.3661    3.7425 H   0  0  0  0  0  0  0  0  0  0  0  0
    3.4319   -0.1410    2.1069 C   0  0  0  0  0  0  0  0  0  0  0  0
    4.3288   -0.7697    2.1315 H   0  0  0  0  0  0  0  0  0  0  0  0
    1.7785    1.3519   -2.3555 C   0  0  0  0  0  3  0  0  0  0  0  0
    1.1414    2.1988   -2.6267 H   0  0  0  0  0  0  0  0  0  0  0  0
    3.0237    0.9432   -2.8906 C   0  0  0  0  0  0  0  0  0  0  0  0
    3.5599    1.3839   -3.7368 H   0  0  0  0  0  0  0  0  0  0  0  0
    3.4315   -0.1306   -2.1081 C   0  0  0  0  0  0  0  0  0  0  0  0
    4.3283   -0.7592   -2.1359 H   0  0  0  0  0  0  0  0  0  0  0  0
   -1.7793    1.3391    2.3621 C   0  0  0  0  0  3  0  0  0  0  0  0
   -1.1426    2.1849    2.6377 H   0  0  0  0  0  0  0  0  0  0  0  0
   -3.0246    0.9274    2.8947 C   0  0  0  0  0  0  0  0  0  0  0  0
   -3.5613    1.3638    3.7429 H   0  0  0  0  0  0  0  0  0  0  0  0
   -3.4318   -0.1427    2.1068 C   0  0  0  0  0  0  0  0  0  0  0  0
   -4.3284   -0.7717    2.1311 H   0  0  0  0  0  0  0  0  0  0  0  0
   -1.7797    1.3528   -2.3542 C   0  0  0  0  0  3  0  0  0  0  0  0
   -1.1433    2.2004   -2.6247 H   0  0  0  0  0  0  0  0  0  0  0  0
   -3.0251    0.9441   -2.8890 C   0  0  0  0  0  0  0  0  0  0  0  0
   -3.5621    1.3855   -3.7343 H   0  0  0  0  0  0  0  0  0  0  0  0
   -3.4319   -0.1308   -2.1075 C   0  0  0  0  0  0  0  0  0  0  0  0
   -4.3284   -0.7599   -2.1355 H   0  0  0  0  0  0  0  0  0  0  0  0
  2 22  1  0  0  0  0
  3  2  1  0  0  0  0
  3 26  1  0  0  0  0
  4  5  1  0  0  0  0
  5 18  1  0  0  0  0
  6 34  1  0  0  0  0
  7  6  1  0  0  0  0
  7 38  1  0  0  0  0
  8  9  1  0  0  0  0
  9 20  1  0  0  0  0
 10  1  1  0  0  0  0
 10 18  1  1  0  0  0
 11 10  1  0  0  0  0
 12 11  1  0  0  0  0
 13 15  1  0  0  0  0
 13 11  2  0  0  0  0
 14 13  1  0  0  0  0
 15 17  2  0  0  0  0
 16 15  1  0  0  0  0
 17  1  1  0  0  0  0
 17 20  1  0  0  0  0
 18 19  1  6  0  0  0
 18  3  1  0  0  0  0
 20 21  1  6  0  0  0
 20  7  1  0  0  0  0
 22 23  1  0  0  0  0
 22 24  1  0  0  0  0
 24 25  1  0  0  0  0
 26 27  1  0  0  0  0
 26 24  2  0  0  0  0
 28  4  1  0  0  0  0
 29 28  1  0  0  0  0
 30 28  1  0  0  0  0
 30 32  2  0  0  0  0
 31 30  1  0  0  0  0
 32  5  1  0  0  0  0
 33 32  1  0  0  0  0
 34 35  1  0  0  0  0
 34 36  1  0  0  0  0
 36 37  1  0  0  0  0
 38 39  1  0  0  0  0
 38 36  2  0  0  0  0
 40  8  1  0  0  0  0
 41 40  1  0  0  0  0
 42 40  1  0  0  0  0
 42 44  2  0  0  0  0
 43 42  1  0  0  0  0
 44  9  1  0  0  0  0
 45 44  1  0  0  0  0
M  END
