1,4,6,13,20
 OpenBabel05122313063D

 51 53  0  0  0  0  0  0  0  0999 V2000
    0.5830    0.2460    1.7270 N   0  0  0  0  0  0  0  0  0  0  0  0
    0.5294   -0.9872    2.5584 C   0  0  0  0  0  0  0  0  0  0  0  0
   -0.4187   -2.0055    1.9521 C   0  0  0  0  0  0  0  0  0  0  0  0
   -0.1564   -2.1668    0.4906 N   0  0  0  0  0  0  0  0  0  0  0  0
    0.9710   -3.0781    0.2251 C   0  0  0  0  0  0  0  0  0  0  0  0
   -1.9517   -0.3351   -0.0408 N   0  0  0  0  0  2  0  0  0  0  0  0
   -2.8562    0.6760   -0.0954 C   0  0  0  0  0  3  0  0  0  0  0  0
   -4.2333    0.4646   -0.1938 C   0  0  0  0  0  0  0  0  0  0  0  0
   -4.7263   -0.8465   -0.2376 C   0  0  0  0  0  0  0  0  0  0  0  0
   -3.8011   -1.8980   -0.1953 C   0  0  0  0  0  0  0  0  0  0  0  0
   -2.4346   -1.6124   -0.1169 C   0  0  0  0  0  0  0  0  0  0  0  0
   -1.3781   -2.6726   -0.1760 C   0  0  0  0  0  0  0  0  0  0  0  0
    1.9701   -0.2880   -0.4520 N   0  0  0  0  0  2  0  0  0  0  0  0
    2.5948   -0.7854   -1.5503 C   0  0  0  0  0  3  0  0  0  0  0  0
    3.9841   -0.9266   -1.6226 C   0  0  0  0  0  0  0  0  0  0  0  0
    4.7764   -0.5608   -0.5256 C   0  0  0  0  0  0  0  0  0  0  0  0
    4.1369   -0.0312    0.6057 C   0  0  0  0  0  0  0  0  0  0  0  0
    2.7455    0.1064    0.6008 C   0  0  0  0  0  0  0  0  0  0  0  0
    1.9770    0.7791    1.6972 C   0  0  0  0  0  0  0  0  0  0  0  0
   -0.0705    1.6899   -0.3032 N   0  0  0  0  0  2  0  0  0  0  0  0
    0.0263    2.4469   -1.4229 C   0  0  0  0  0  3  0  0  0  0  0  0
   -0.1576    3.8339   -1.3889 C   0  0  0  0  0  0  0  0  0  0  0  0
   -0.4378    4.4652   -0.1680 C   0  0  0  0  0  0  0  0  0  0  0  0
   -0.5132    3.6801    0.9971 C   0  0  0  0  0  0  0  0  0  0  0  0
   -0.3301    2.2997    0.8998 C   0  0  0  0  0  0  0  0  0  0  0  0
   -0.3623    1.3369    2.0690 C   0  0  0  0  0  0  0  0  0  0  0  0
    0.2503   -0.7574    3.6098 H   0  0  0  0  0  0  0  0  0  0  0  0
    1.5564   -1.4025    2.5847 H   0  0  0  0  0  0  0  0  0  0  0  0
   -0.3291   -2.9812    2.4808 H   0  0  0  0  0  0  0  0  0  0  0  0
   -1.4670   -1.6715    2.0733 H   0  0  0  0  0  0  0  0  0  0  0  0
    0.7444   -4.1074    0.5806 H   0  0  0  0  0  0  0  0  0  0  0  0
    1.8869   -2.7194    0.7290 H   0  0  0  0  0  0  0  0  0  0  0  0
    1.1580   -3.1019   -0.8639 H   0  0  0  0  0  0  0  0  0  0  0  0
   -2.4601    1.6990   -0.0718 H   0  0  0  0  0  0  0  0  0  0  0  0
   -4.9068    1.3320   -0.2379 H   0  0  0  0  0  0  0  0  0  0  0  0
   -5.8049   -1.0467   -0.3105 H   0  0  0  0  0  0  0  0  0  0  0  0
   -4.1290   -2.9467   -0.2399 H   0  0  0  0  0  0  0  0  0  0  0  0
   -1.7244   -3.6322    0.2704 H   0  0  0  0  0  0  0  0  0  0  0  0
   -1.1198   -2.8390   -1.2435 H   0  0  0  0  0  0  0  0  0  0  0  0
    1.9197   -1.0581   -2.3780 H   0  0  0  0  0  0  0  0  0  0  0  0
    4.4321   -1.3321   -2.5410 H   0  0  0  0  0  0  0  0  0  0  0  0
    5.8696   -0.6778   -0.5491 H   0  0  0  0  0  0  0  0  0  0  0  0
    4.7117    0.2885    1.4872 H   0  0  0  0  0  0  0  0  0  0  0  0
    2.4675    0.6801    2.6886 H   0  0  0  0  0  0  0  0  0  0  0  0
    1.9290    1.8644    1.4734 H   0  0  0  0  0  0  0  0  0  0  0  0
    0.2164    1.8836   -2.3497 H   0  0  0  0  0  0  0  0  0  0  0  0
   -0.0830    4.4089   -2.3229 H   0  0  0  0  0  0  0  0  0  0  0  0
   -0.5863    5.5534   -0.1168 H   0  0  0  0  0  0  0  0  0  0  0  0
   -0.7105    4.1370    1.9779 H   0  0  0  0  0  0  0  0  0  0  0  0
   -0.0945    1.8483    3.0218 H   0  0  0  0  0  0  0  0  0  0  0  0
   -1.3721    0.8951    2.1950 H   0  0  0  0  0  0  0  0  0  0  0  0
  1 26  1  0  0  0  0
  1  2  1  0  0  0  0
  2 28  1  0  0  0  0
  2 27  1  0  0  0  0
  3 30  1  0  0  0  0
  3 29  1  0  0  0  0
  3  2  1  0  0  0  0
  4  3  1  0  0  0  0
  5  4  1  0  0  0  0
  5 31  1  0  0  0  0
  5 32  1  0  0  0  0
  7 34  1  0  0  0  0
  7  6  1  0  0  0  0
  8  7  1  0  0  0  0
  9 10  1  0  0  0  0
  9  8  2  0  0  0  0
 10 11  2  0  0  0  0
 11  6  1  0  0  0  0
 12 11  1  0  0  0  0
 12 38  1  0  0  0  0
 12  4  1  0  0  0  0
 13 18  1  0  0  0  0
 14 13  1  0  0  0  0
 15 14  1  0  0  0  0
 15 16  2  0  0  0  0
 16 17  1  0  0  0  0
 17 43  1  0  0  0  0
 18 17  2  0  0  0  0
 18 19  1  0  0  0  0
 19  1  1  0  0  0  0
 19 44  1  0  0  0  0
 20 25  1  0  0  0  0
 21 22  1  0  0  0  0
 21 20  1  0  0  0  0
 22 23  2  0  0  0  0
 23 48  1  0  0  0  0
 23 24  1  0  0  0  0
 24 49  1  0  0  0  0
 25 24  2  0  0  0  0
 25 26  1  0  0  0  0
 26 51  1  0  0  0  0
 26 50  1  0  0  0  0
 33  5  1  0  0  0  0
 35  8  1  0  0  0  0
 36  9  1  0  0  0  0
 37 10  1  0  0  0  0
 39 12  1  0  0  0  0
 40 14  1  0  0  0  0
 41 15  1  0  0  0  0
 42 16  1  0  0  0  0
 45 19  1  0  0  0  0
 46 21  1  0  0  0  0
 47 22  1  0  0  0  0
M  END
