1,2,3,4,5
 OpenBabel05122313063D

 49 52  0  0  1  0  0  0  0  0999 V2000
    0.1596   -0.0000   -1.5511 N   0  0  0  0  0  0  0  0  0  0  0  0
   -1.4720   -1.3984    0.1707 N   0  0  0  0  0  2  0  0  0  0  0  0
   -1.4720    1.3982    0.1707 N   0  0  0  0  0  2  0  0  0  0  0  0
    1.4745    1.3742    0.3670 N   0  0  0  0  0  2  0  0  0  0  0  0
    1.4747   -1.3742    0.3670 N   0  0  0  0  0  2  0  0  0  0  0  0
   -0.4833   -1.2491   -2.0639 C   0  0  0  0  0  0  0  0  0  0  0  0
   -1.5880   -1.7427   -1.1465 C   0  0  1  0  0  3  0  0  0  0  0  0
   -2.6275   -2.5671   -1.5904 C   0  0  0  0  0  0  0  0  0  0  0  0
   -3.5539   -3.0633   -0.6587 C   0  0  0  0  0  0  0  0  0  0  0  0
   -3.4135   -2.7145    0.6922 C   0  0  0  0  0  0  0  0  0  0  0  0
   -2.3628   -1.8723    1.0719 C   0  0  0  0  0  0  0  0  0  0  0  0
   -0.4834    1.2490   -2.0640 C   0  0  0  0  0  0  0  0  0  0  0  0
   -1.5881    1.7426   -1.1465 C   0  0  2  0  0  3  0  0  0  0  0  0
   -2.6275    2.5670   -1.5903 C   0  0  0  0  0  0  0  0  0  0  0  0
   -3.5539    3.0633   -0.6586 C   0  0  0  0  0  0  0  0  0  0  0  0
   -3.4134    2.7145    0.6923 C   0  0  0  0  0  0  0  0  0  0  0  0
   -2.3628    1.8722    1.0720 C   0  0  0  0  0  0  0  0  0  0  0  0
    1.6911    0.0000   -1.5969 C   0  0  1  0  0  0  0  0  0  0  0  0
    2.1540    1.2208   -0.8133 C   0  0  2  0  0  3  0  0  0  0  0  0
    3.1840    2.0862   -1.1885 C   0  0  0  0  0  0  0  0  0  0  0  0
    3.5267    3.1398   -0.3229 C   0  0  0  0  0  0  0  0  0  0  0  0
    2.8297    3.2834    0.8877 C   0  0  0  0  0  0  0  0  0  0  0  0
    1.8057    2.3841    1.2053 C   0  0  0  0  0  0  0  0  0  0  0  0
    2.1541   -1.2207   -0.8133 C   0  0  1  0  0  3  0  0  0  0  0  0
    3.1842   -2.0860   -1.1884 C   0  0  0  0  0  0  0  0  0  0  0  0
    3.5270   -3.1395   -0.3228 C   0  0  0  0  0  0  0  0  0  0  0  0
    2.8300   -3.2832    0.8877 C   0  0  0  0  0  0  0  0  0  0  0  0
    1.8059   -2.3840    1.2053 C   0  0  0  0  0  0  0  0  0  0  0  0
   -0.8565   -1.1125   -3.1004 H   0  0  0  0  0  0  0  0  0  0  0  0
    0.3019   -2.0327   -2.1077 H   0  0  0  0  0  0  0  0  0  0  0  0
   -2.7086   -2.8219   -2.6572 H   0  0  0  0  0  0  0  0  0  0  0  0
   -4.3779   -3.7128   -0.9887 H   0  0  0  0  0  0  0  0  0  0  0  0
   -4.1156   -3.0828    1.4535 H   0  0  0  0  0  0  0  0  0  0  0  0
   -2.1845   -1.5412    2.1089 H   0  0  0  0  0  0  0  0  0  0  0  0
   -0.8567    1.1123   -3.1003 H   0  0  0  0  0  0  0  0  0  0  0  0
    0.3017    2.0326   -2.1079 H   0  0  0  0  0  0  0  0  0  0  0  0
   -2.7086    2.8219   -2.6571 H   0  0  0  0  0  0  0  0  0  0  0  0
   -4.3778    3.7129   -0.9886 H   0  0  0  0  0  0  0  0  0  0  0  0
   -4.1155    3.0828    1.4536 H   0  0  0  0  0  0  0  0  0  0  0  0
   -2.1845    1.5410    2.1090 H   0  0  0  0  0  0  0  0  0  0  0  0
    2.1029    0.0000   -2.6295 H   0  0  0  0  0  0  0  0  0  0  0  0
    3.7069    1.9409   -2.1449 H   0  0  0  0  0  0  0  0  0  0  0  0
    4.3300    3.8403   -0.5930 H   0  0  0  0  0  0  0  0  0  0  0  0
    3.0801    4.0877    1.5938 H   0  0  0  0  0  0  0  0  0  0  0  0
    1.2325    2.4181    2.1448 H   0  0  0  0  0  0  0  0  0  0  0  0
    3.7071   -1.9406   -2.1448 H   0  0  0  0  0  0  0  0  0  0  0  0
    4.3304   -3.8399   -0.5929 H   0  0  0  0  0  0  0  0  0  0  0  0
    3.0805   -4.0875    1.5939 H   0  0  0  0  0  0  0  0  0  0  0  0
    1.2327   -2.4180    2.1448 H   0  0  0  0  0  0  0  0  0  0  0  0
  2 11  1  0  0  0  0
  3 17  1  0  0  0  0
  4 23  1  0  0  0  0
  5 28  1  0  0  0  0
  6  1  1  0  0  0  0
  7  6  1  1  0  0  0
  7  2  1  0  0  0  0
  8  7  1  0  0  0  0
  8  9  2  0  0  0  0
  9 10  1  0  0  0  0
 10 11  2  0  0  0  0
 10 33  1  0  0  0  0
 11 34  1  0  0  0  0
 12  1  1  0  0  0  0
 13 12  1  1  0  0  0
 13  3  1  0  0  0  0
 14 13  1  0  0  0  0
 14 15  2  0  0  0  0
 15 16  1  0  0  0  0
 16 17  2  0  0  0  0
 16 39  1  0  0  0  0
 17 40  1  0  0  0  0
 18 41  1  6  0  0  0
 18  1  1  0  0  0  0
 19 18  1  1  0  0  0
 19  4  1  0  0  0  0
 20 19  1  0  0  0  0
 20 21  2  0  0  0  0
 21 22  1  0  0  0  0
 22 23  2  0  0  0  0
 22 44  1  0  0  0  0
 23 45  1  0  0  0  0
 24 18  1  1  0  0  0
 24  5  1  0  0  0  0
 25 24  1  0  0  0  0
 25 26  2  0  0  0  0
 26 27  1  0  0  0  0
 27 28  2  0  0  0  0
 27 48  1  0  0  0  0
 28 49  1  0  0  0  0
 29  6  1  0  0  0  0
 30  6  1  0  0  0  0
 31  8  1  0  0  0  0
 32  9  1  0  0  0  0
 35 12  1  0  0  0  0
 36 12  1  0  0  0  0
 37 14  1  0  0  0  0
 38 15  1  0  0  0  0
 42 20  1  0  0  0  0
 43 21  1  0  0  0  0
 46 25  1  0  0  0  0
 47 26  1  0  0  0  0
M  END
