1,2,3,4,6
 OpenBabel05122313063D

 61 67  0  0  1  0  0  0  0  0999 V2000
    2.2428    1.1246   -0.7002 N   0  0  0  0  0  2  0  0  0  0  0  0
   -2.2945   -1.8807    0.2576 N   0  0  0  0  0  2  0  0  0  0  0  0
   -0.2065    2.3603   -0.7817 N   0  0  0  0  0  2  0  0  0  0  0  0
   -2.4783    0.7754   -0.5716 N   0  0  0  0  0  2  0  0  0  0  0  0
   -4.8836    2.0511   -0.6591 N   0  0  0  0  0  0  0  0  0  0  0  0
    2.3492   -1.5369   -1.1805 N   0  0  0  0  0  2  0  0  0  0  0  0
    4.3982    2.6274   -0.0427 N   0  0  0  0  0  0  0  0  0  0  0  0
   -3.8069    2.6793   -1.0721 N   0  0  0  0  0  0  0  0  0  0  0  0
    3.3130    3.2235   -0.4851 N   0  0  0  0  0  0  0  0  0  0  0  0
    6.8181    1.2358    0.6542 N   0  0  0  0  0  0  0  0  0  0  0  0
   -5.8139   -0.6207    1.5153 N   0  0  0  0  0  0  0  0  0  0  0  0
   -1.4052    2.9397   -0.9802 C   0  0  0  0  0  0  0  0  0  0  0  0
    0.8966    3.1356   -0.8160 C   0  0  0  0  0  0  0  0  0  0  0  0
   -3.4726   -1.3971   -0.1945 C   0  0  1  0  0  3  0  0  0  0  0  0
    3.5238   -0.8854   -1.0065 C   0  0  2  0  0  3  0  0  0  0  0  0
    2.2018    2.4602   -0.6256 C   0  0  1  0  0  3  0  0  0  0  0  0
   -1.5493    4.3194   -1.2414 C   0  0  0  0  0  0  0  0  0  0  0  0
   -2.5576    4.7239   -1.3987 H   0  0  0  0  0  0  0  0  0  0  0  0
   -2.6088    2.0825   -0.8614 C   0  0  0  0  0  0  0  0  0  0  0  0
   -6.0140    0.3308    0.5815 C   0  0  0  0  0  0  0  0  0  0  0  0
    2.3656   -2.7821   -1.6804 C   0  0  0  0  0  0  0  0  0  0  0  0
    1.3796   -3.2598   -1.7994 H   0  0  0  0  0  0  0  0  0  0  0  0
   -3.5897    0.0775   -0.2876 C   0  0  0  0  0  0  0  0  0  0  0  0
    5.5951    0.6966    0.8284 C   0  0  0  0  0  0  0  0  0  0  0  0
    3.4191    0.5083   -0.5144 C   0  0  0  0  0  0  0  0  0  0  0  0
   -2.1549   -3.2136    0.3813 C   0  0  0  0  0  0  0  0  0  0  0  0
   -1.1851   -3.5631    0.7683 H   0  0  0  0  0  0  0  0  0  0  0  0
   -0.4019    5.1182   -1.2693 C   0  0  0  0  0  0  0  0  0  0  0  0
   -0.4795    6.1988   -1.4593 H   0  0  0  0  0  0  0  0  0  0  0  0
    0.8446    4.5250   -1.0411 C   0  0  0  0  0  0  0  0  0  0  0  0
    1.7839    5.0940   -1.0335 H   0  0  0  0  0  0  0  0  0  0  0  0
   -4.8113    0.8071   -0.1435 C   0  0  0  0  0  0  0  0  0  0  0  0
   -3.1611   -4.1206    0.0188 C   0  0  0  0  0  0  0  0  0  0  0  0
   -2.9897   -5.2003    0.1345 H   0  0  0  0  0  0  0  0  0  0  0  0
   -4.5222   -2.2387   -0.6126 C   0  0  0  0  0  0  0  0  0  0  0  0
   -5.4470   -1.8079   -1.0196 H   0  0  0  0  0  0  0  0  0  0  0  0
    4.4680    1.2831    0.0622 C   0  0  0  0  0  0  0  0  0  0  0  0
    6.3943   -0.8830    2.4663 C   0  0  0  0  0  0  0  0  0  0  0  0
    6.2216   -1.7053    3.1768 H   0  0  0  0  0  0  0  0  0  0  0  0
    5.3264   -0.3655    1.7233 C   0  0  0  0  0  0  0  0  0  0  0  0
    4.3036   -0.7595    1.8440 H   0  0  0  0  0  0  0  0  0  0  0  0
   -4.3579   -3.6228   -0.5134 C   0  0  0  0  0  0  0  0  0  0  0  0
   -5.1563   -4.3031   -0.8451 H   0  0  0  0  0  0  0  0  0  0  0  0
    4.7601   -1.4626   -1.3545 C   0  0  0  0  0  0  0  0  0  0  0  0
    5.6926   -0.8959   -1.2292 H   0  0  0  0  0  0  0  0  0  0  0  0
   -7.2757    0.9137    0.3347 C   0  0  0  0  0  0  0  0  0  0  0  0
   -7.3678    1.6989   -0.4279 H   0  0  0  0  0  0  0  0  0  0  0  0
   -6.8650   -1.0314    2.2324 C   0  0  0  0  0  0  0  0  0  0  0  0
   -6.6641   -1.8055    2.9940 H   0  0  0  0  0  0  0  0  0  0  0  0
   -8.3689    0.4687    1.0878 C   0  0  0  0  0  0  0  0  0  0  0  0
   -9.3697    0.8949    0.9208 H   0  0  0  0  0  0  0  0  0  0  0  0
    7.8252    0.7236    1.3736 C   0  0  0  0  0  0  0  0  0  0  0  0
    8.8197    1.1765    1.2100 H   0  0  0  0  0  0  0  0  0  0  0  0
    4.7696   -2.7603   -1.8816 C   0  0  0  0  0  0  0  0  0  0  0  0
    5.7208   -3.2341   -2.1663 H   0  0  0  0  0  0  0  0  0  0  0  0
   -8.1659   -0.5246    2.0570 C   0  0  0  0  0  0  0  0  0  0  0  0
   -8.9965   -0.9016    2.6719 H   0  0  0  0  0  0  0  0  0  0  0  0
    7.6721   -0.3324    2.2903 C   0  0  0  0  0  0  0  0  0  0  0  0
    8.5397   -0.7097    2.8522 H   0  0  0  0  0  0  0  0  0  0  0  0
    3.5540   -3.4361   -2.0451 C   0  0  0  0  0  0  0  0  0  0  0  0
    3.5149   -4.4560   -2.4531 H   0  0  0  0  0  0  0  0  0  0  0  0
  1 16  1  0  0  0  0
  1 25  1  0  0  0  0
  2 26  1  0  0  0  0
  4 23  1  0  0  0  0
  5 32  1  0  0  0  0
  6 15  1  0  0  0  0
  7 37  1  0  0  0  0
  8 19  1  0  0  0  0
  8  5  2  0  0  0  0
  9  7  2  0  0  0  0
 10 24  2  0  0  0  0
 10 52  1  0  0  0  0
 11 48  1  0  0  0  0
 12 19  2  0  0  0  0
 12  3  1  0  0  0  0
 13  3  1  0  0  0  0
 14 23  1  6  0  0  0
 14  2  1  0  0  0  0
 15 25  1  6  0  0  0
 16 13  1  6  0  0  0
 16  9  1  0  0  0  0
 17 12  1  0  0  0  0
 18 17  1  0  0  0  0
 19  4  1  0  0  0  0
 20 11  2  0  0  0  0
 21  6  1  0  0  0  0
 22 21  1  0  0  0  0
 23 32  2  0  0  0  0
 24 40  1  0  0  0  0
 25 37  2  0  0  0  0
 26 27  1  0  0  0  0
 28 17  2  0  0  0  0
 28 30  1  0  0  0  0
 29 28  1  0  0  0  0
 30 31  1  0  0  0  0
 30 13  2  0  0  0  0
 32 20  1  0  0  0  0
 33 34  1  0  0  0  0
 33 26  2  0  0  0  0
 35 42  2  0  0  0  0
 35 14  1  0  0  0  0
 36 35  1  0  0  0  0
 37 24  1  0  0  0  0
 38 39  1  0  0  0  0
 40 41  1  0  0  0  0
 40 38  2  0  0  0  0
 42 33  1  0  0  0  0
 43 42  1  0  0  0  0
 44 45  1  0  0  0  0
 44 15  1  0  0  0  0
 46 20  1  0  0  0  0
 46 50  2  0  0  0  0
 47 46  1  0  0  0  0
 48 49  1  0  0  0  0
 50 56  1  0  0  0  0
 51 50  1  0  0  0  0
 52 58  2  0  0  0  0
 53 52  1  0  0  0  0
 54 44  2  0  0  0  0
 55 54  1  0  0  0  0
 56 48  2  0  0  0  0
 56 57  1  0  0  0  0
 58 38  1  0  0  0  0
 58 59  1  0  0  0  0
 60 54  1  0  0  0  0
 60 21  2  0  0  0  0
 61 60  1  0  0  0  0
M  END
