1,23,24,40,47
 OpenBabel05122313063D

 60 63  0  0  0  0  0  0  0  0999 V2000
   -2.0101   -0.9393   -0.1882 N   0  0  0  0  0  2  0  0  0  0  0  0
   -3.0877   -0.2206   -0.2150 C   0  0  0  0  0  0  0  0  0  0  0  0
   -5.5295   -0.7435    0.1195 C   0  0  0  0  0  0  0  0  0  0  0  0
   -5.4446   -0.4045    1.1633 H   0  0  0  0  0  0  0  0  0  0  0  0
   -4.3989   -0.7053   -0.7271 C   0  0  0  0  0  0  0  0  0  0  0  0
   -5.7448   -1.6267   -2.5405 C   0  0  0  0  0  0  0  0  0  0  0  0
   -5.8315   -1.9617   -3.5847 H   0  0  0  0  0  0  0  0  0  0  0  0
   -4.5153   -1.1553   -2.0609 C   0  0  0  0  0  0  0  0  0  0  0  0
   -3.6407   -1.1151   -2.7279 H   0  0  0  0  0  0  0  0  0  0  0  0
   -6.7515   -1.2339   -0.3611 C   0  0  0  0  0  0  0  0  0  0  0  0
   -7.6239   -1.2745    0.3079 H   0  0  0  0  0  0  0  0  0  0  0  0
   -6.8623   -1.6706   -1.6912 C   0  0  0  0  0  0  0  0  0  0  0  0
   -7.8251   -2.0464   -2.0681 H   0  0  0  0  0  0  0  0  0  0  0  0
   -2.9976    1.1721    0.3431 C   0  0  0  0  0  0  0  0  0  0  0  0
   -4.0477    2.1027    0.2318 C   0  0  0  0  0  0  0  0  0  0  0  0
   -4.9591    1.8455   -0.3246 H   0  0  0  0  0  0  0  0  0  0  0  0
   -1.7163    2.6750    1.5903 C   0  0  0  0  0  0  0  0  0  0  0  0
   -0.7640    2.8351    2.1250 H   0  0  0  0  0  0  0  0  0  0  0  0
   -3.9047    3.3589    0.8435 C   0  0  0  0  0  0  0  0  0  0  0  0
   -4.7125    4.1023    0.7710 H   0  0  0  0  0  0  0  0  0  0  0  0
   -2.7304    3.6488    1.5502 C   0  0  0  0  0  0  0  0  0  0  0  0
   -2.5916    4.6123    2.0612 H   0  0  0  0  0  0  0  0  0  0  0  0
   -1.8542    1.4862    0.9908 N   0  0  0  0  0  2  0  0  0  0  0  0
    1.0458    1.4986   -0.8499 N   0  0  0  0  0  2  0  0  0  0  0  0
    2.3612    1.2364   -1.0502 C   0  0  0  0  0  0  0  0  0  0  0  0
    3.2118    2.1856   -1.6496 C   0  0  0  0  0  0  0  0  0  0  0  0
    4.2803    1.9617   -1.7683 H   0  0  0  0  0  0  0  0  0  0  0  0
    1.3128    3.6569   -1.8906 C   0  0  0  0  0  0  0  0  0  0  0  0
    0.8497    4.6005   -2.2123 H   0  0  0  0  0  0  0  0  0  0  0  0
    0.5397    2.6699   -1.2581 C   0  0  0  0  0  0  0  0  0  0  0  0
   -0.5334    2.8339   -1.0660 H   0  0  0  0  0  0  0  0  0  0  0  0
    2.6779    3.4086   -2.0795 C   0  0  0  0  0  0  0  0  0  0  0  0
    3.3266    4.1606   -2.5524 H   0  0  0  0  0  0  0  0  0  0  0  0
    2.8769   -0.0929   -0.5868 C   0  0  0  0  0  0  0  0  0  0  0  0
    4.3302   -0.3992   -0.7087 C   0  0  0  0  0  0  0  0  0  0  0  0
    4.9221   -0.5880   -1.9773 C   0  0  0  0  0  0  0  0  0  0  0  0
    4.3108   -0.4979   -2.8887 H   0  0  0  0  0  0  0  0  0  0  0  0
    5.1131   -0.5281    0.4604 C   0  0  0  0  0  0  0  0  0  0  0  0
    4.6479   -0.3747    1.4488 H   0  0  0  0  0  0  0  0  0  0  0  0
    2.0151   -0.9117   -0.0774 N   0  0  0  0  0  2  0  0  0  0  0  0
    1.1186   -3.1314    0.3328 C   0  0  0  0  0  0  0  0  0  0  0  0
    0.8133   -3.2079   -0.7317 H   0  0  0  0  0  0  0  0  0  0  0  0
    1.3875   -4.1600    0.6653 H   0  0  0  0  0  0  0  0  0  0  0  0
    2.3503   -2.2246    0.4257 C   0  0  0  0  0  0  0  0  0  0  0  0
    2.6696   -2.1127    1.4908 H   0  0  0  0  0  0  0  0  0  0  0  0
    3.2101   -2.6779   -0.1137 H   0  0  0  0  0  0  0  0  0  0  0  0
   -0.0123   -2.5796    1.0915 N   0  0  0  0  0  0  0  0  0  0  0  0
   -1.9538   -2.3554   -0.4785 C   0  0  0  0  0  0  0  0  0  0  0  0
   -1.3129   -2.5030   -1.3759 H   0  0  0  0  0  0  0  0  0  0  0  0
   -2.9469   -2.7961   -0.7067 H   0  0  0  0  0  0  0  0  0  0  0  0
   -1.3346   -3.0974    0.7266 C   0  0  0  0  0  0  0  0  0  0  0  0
   -2.0074   -2.9644    1.5976 H   0  0  0  0  0  0  0  0  0  0  0  0
   -1.3164   -4.1871    0.4926 H   0  0  0  0  0  0  0  0  0  0  0  0
    7.0628   -1.0276   -0.9116 C   0  0  0  0  0  0  0  0  0  0  0  0
    8.1328   -1.2717   -0.9907 H   0  0  0  0  0  0  0  0  0  0  0  0
    6.2838   -0.9085   -2.0741 C   0  0  0  0  0  0  0  0  0  0  0  0
    6.7388   -1.0659   -3.0634 H   0  0  0  0  0  0  0  0  0  0  0  0
    6.4768   -0.8356    0.3498 C   0  0  0  0  0  0  0  0  0  0  0  0
    7.0861   -0.9252    1.2615 H   0  0  0  0  0  0  0  0  0  0  0  0
    0.1510   -2.7004    2.0984 H   0  0  0  0  0  0  0  0  0  0  0  0
  2  1  1  0  0  0  0
  2 14  2  0  0  0  0
  3  4  1  0  0  0  0
  5  2  1  0  0  0  0
  5  3  2  0  0  0  0
  6  8  2  0  0  0  0
  6 12  1  0  0  0  0
  7  6  1  0  0  0  0
  8  5  1  0  0  0  0
  9  8  1  0  0  0  0
 10  3  1  0  0  0  0
 10 11  1  0  0  0  0
 12 10  2  0  0  0  0
 13 12  1  0  0  0  0
 14 23  1  0  0  0  0
 15 14  1  0  0  0  0
 15 19  2  0  0  0  0
 16 15  1  0  0  0  0
 17 18  1  0  0  0  0
 19 21  1  0  0  0  0
 20 19  1  0  0  0  0
 21 17  2  0  0  0  0
 21 22  1  0  0  0  0
 23 17  1  0  0  0  0
 25 24  1  0  0  0  0
 25 34  2  0  0  0  0
 26 25  1  0  0  0  0
 27 26  1  0  0  0  0
 28 30  2  0  0  0  0
 29 28  1  0  0  0  0
 30 31  1  0  0  0  0
 30 24  1  0  0  0  0
 32 28  1  0  0  0  0
 32 26  2  0  0  0  0
 33 32  1  0  0  0  0
 34 40  1  0  0  0  0
 35 34  1  0  0  0  0
 35 38  1  0  0  0  0
 36 35  2  0  0  0  0
 37 36  1  0  0  0  0
 38 39  1  0  0  0  0
 40 44  1  0  0  0  0
 41 44  1  0  0  0  0
 41 43  1  0  0  0  0
 41 47  1  0  0  0  0
 42 41  1  0  0  0  0
 44 45  1  0  0  0  0
 46 44  1  0  0  0  0
 47 60  1  0  0  0  0
 48  1  1  0  0  0  0
 48 51  1  0  0  0  0
 49 48  1  0  0  0  0
 50 48  1  0  0  0  0
 51 47  1  0  0  0  0
 51 52  1  0  0  0  0
 53 51  1  0  0  0  0
 54 58  1  0  0  0  0
 55 54  1  0  0  0  0
 56 36  1  0  0  0  0
 56 54  2  0  0  0  0
 57 56  1  0  0  0  0
 58 38  2  0  0  0  0
 58 59  1  0  0  0  0
M  END
