2,3,5,7,9
 OpenBabel05122313063D

 72 74  0  0  0  0  0  0  0  0999 V2000
    0.4661    0.4559    0.2404 S   0  0  0  0  0  0  0  0  0  0  0  0
   -2.8832    0.9595   -1.5449 N   0  0  0  0  0  0  0  0  0  0  0  0
   -3.1374    1.3386    1.5287 N   0  0  0  0  0  0  0  0  0  0  0  0
   -4.1640    1.4020    1.5973 H   0  0  0  0  0  0  0  0  0  0  0  0
   -2.1288   -1.2975    1.5147 N   0  0  0  0  0  0  0  0  0  0  0  0
   -1.1074   -1.0709    1.6250 H   0  0  0  0  0  0  0  0  0  0  0  0
   -4.3374   -1.0981   -0.3659 N   0  0  0  0  0  0  0  0  0  0  0  0
   -5.0101   -0.8126    0.3628 H   0  0  0  0  0  0  0  0  0  0  0  0
   -0.6909   -0.2853   -0.7013 N   0  0  0  0  0  2  0  0  0  0  0  0
    6.9423   -0.5634   -0.2215 N   0  0  0  0  0  0  0  0  0  0  0  0
   -2.4729    2.3896   -1.3553 C   0  0  0  0  0  0  0  0  0  0  0  0
   -2.7233    2.9265   -2.2985 H   0  0  0  0  0  0  0  0  0  0  0  0
   -1.3728    2.3982   -1.2382 H   0  0  0  0  0  0  0  0  0  0  0  0
   -3.0746    3.1395   -0.1663 C   0  0  0  0  0  0  0  0  0  0  0  0
   -4.1867    3.1699   -0.2088 H   0  0  0  0  0  0  0  0  0  0  0  0
   -2.7614    4.1965   -0.2893 H   0  0  0  0  0  0  0  0  0  0  0  0
   -2.6044    2.6702    1.2084 C   0  0  0  0  0  0  0  0  0  0  0  0
   -2.8902    3.4240    1.9793 H   0  0  0  0  0  0  0  0  0  0  0  0
   -1.4974    2.5953    1.2073 H   0  0  0  0  0  0  0  0  0  0  0  0
   -2.6099    0.7474    2.7688 C   0  0  0  0  0  0  0  0  0  0  0  0
   -3.0748    1.1704    3.6882 H   0  0  0  0  0  0  0  0  0  0  0  0
   -1.5234    0.9616    2.8066 H   0  0  0  0  0  0  0  0  0  0  0  0
   -2.8100   -0.7600    2.7155 C   0  0  0  0  0  0  0  0  0  0  0  0
   -2.4107   -1.2449    3.6338 H   0  0  0  0  0  0  0  0  0  0  0  0
   -3.8925   -1.0061    2.6686 H   0  0  0  0  0  0  0  0  0  0  0  0
   -2.3006   -2.7450    1.3011 C   0  0  0  0  0  0  0  0  0  0  0  0
   -1.9762   -3.2936    2.2139 H   0  0  0  0  0  0  0  0  0  0  0  0
   -1.6072   -3.0286    0.4832 H   0  0  0  0  0  0  0  0  0  0  0  0
   -3.7310   -3.1545    0.9493 C   0  0  0  0  0  0  0  0  0  0  0  0
   -4.4282   -2.9106    1.7803 H   0  0  0  0  0  0  0  0  0  0  0  0
   -3.7609   -4.2598    0.8659 H   0  0  0  0  0  0  0  0  0  0  0  0
   -4.2537   -2.5789   -0.3617 C   0  0  0  0  0  0  0  0  0  0  0  0
   -3.5701   -2.8593   -1.1901 H   0  0  0  0  0  0  0  0  0  0  0  0
   -5.2503   -3.0195   -0.5959 H   0  0  0  0  0  0  0  0  0  0  0  0
   -4.8080   -0.5783   -1.6736 C   0  0  0  0  0  0  0  0  0  0  0  0
   -5.9129   -0.6446   -1.7818 H   0  0  0  0  0  0  0  0  0  0  0  0
   -4.3802   -1.2293   -2.4610 H   0  0  0  0  0  0  0  0  0  0  0  0
   -4.3365    0.8547   -1.8452 C   0  0  0  0  0  0  0  0  0  0  0  0
   -4.5552    1.2313   -2.8694 H   0  0  0  0  0  0  0  0  0  0  0  0
   -4.8732    1.5146   -1.1368 H   0  0  0  0  0  0  0  0  0  0  0  0
   -2.0458    0.3384   -2.6181 C   0  0  0  0  0  0  0  0  0  0  0  0
   -2.4815   -0.6506   -2.8525 H   0  0  0  0  0  0  0  0  0  0  0  0
   -2.0874    0.9551   -3.5453 H   0  0  0  0  0  0  0  0  0  0  0  0
   -0.6201    0.1673   -2.1070 C   0  0  0  0  0  0  0  0  0  0  0  0
   -0.0913   -0.5748   -2.7465 H   0  0  0  0  0  0  0  0  0  0  0  0
   -0.0554    1.1198   -2.2074 H   0  0  0  0  0  0  0  0  0  0  0  0
    2.0361   -0.2564   -0.2869 C   0  0  0  0  0  0  0  0  0  0  0  0
    1.9703   -1.4925   -0.9234 C   0  0  0  0  0  0  0  0  0  0  0  0
    0.9861   -1.9448   -1.1105 H   0  0  0  0  0  0  0  0  0  0  0  0
    3.1566   -2.1311   -1.3486 C   0  0  0  0  0  0  0  0  0  0  0  0
    3.0981   -3.0696   -1.9190 H   0  0  0  0  0  0  0  0  0  0  0  0
    4.3874   -1.5616   -1.0552 C   0  0  0  0  0  0  0  0  0  0  0  0
    5.3134   -2.0295   -1.4165 H   0  0  0  0  0  0  0  0  0  0  0  0
    4.4914   -0.3497   -0.3182 C   0  0  0  0  0  0  0  0  0  0  0  0
    5.7877    0.1981    0.0295 C   0  0  0  0  0  0  0  0  0  0  0  0
    5.8461    1.4881    0.5673 C   0  0  0  0  0  0  0  0  0  0  0  0
    6.8175    1.9372    0.8130 H   0  0  0  0  0  0  0  0  0  0  0  0
    4.6638    2.2043    0.8605 C   0  0  0  0  0  0  0  0  0  0  0  0
    4.7467    3.2056    1.3100 H   0  0  0  0  0  0  0  0  0  0  0  0
    3.4067    1.6625    0.6373 C   0  0  0  0  0  0  0  0  0  0  0  0
    2.5041    2.2259    0.8979 H   0  0  0  0  0  0  0  0  0  0  0  0
    3.2878    0.3773    0.0337 C   0  0  0  0  0  0  0  0  0  0  0  0
    7.1016   -1.8151    0.5181 C   0  0  0  0  0  0  0  0  0  0  0  0
    7.5689   -1.6405    1.5182 H   0  0  0  0  0  0  0  0  0  0  0  0
    7.7529   -2.5153   -0.0452 H   0  0  0  0  0  0  0  0  0  0  0  0
    6.1258   -2.3043    0.6849 H   0  0  0  0  0  0  0  0  0  0  0  0
    8.1984    0.1479   -0.3749 C   0  0  0  0  0  0  0  0  0  0  0  0
    8.0665    1.0203   -1.0429 H   0  0  0  0  0  0  0  0  0  0  0  0
    8.9431   -0.5318   -0.8362 H   0  0  0  0  0  0  0  0  0  0  0  0
    8.6303    0.5046    0.5936 H   0  0  0  0  0  0  0  0  0  0  0  0
    0.2311    0.0024    1.6562 O   0  0  0  0  0  0  0  0  0  0  0  0
    0.5002    1.9396    0.0364 O   0  0  0  0  0  0  0  0  0  0  0  0
  1 71  2  0  0  0  0
  2 11  1  0  0  0  0
  3  4  1  0  0  0  0
  3 20  1  0  0  0  0
  5  6  1  0  0  0  0
  5 23  1  0  0  0  0
  7 32  1  0  0  0  0
  7  8  1  0  0  0  0
  9  1  1  0  0  0  0
 10 55  1  0  0  0  0
 10 63  1  0  0  0  0
 11 13  1  0  0  0  0
 11 14  1  0  0  0  0
 12 11  1  0  0  0  0
 14 17  1  0  0  0  0
 15 14  1  0  0  0  0
 16 14  1  0  0  0  0
 17  3  1  0  0  0  0
 17 18  1  0  0  0  0
 19 17  1  0  0  0  0
 20 22  1  0  0  0  0
 20 21  1  0  0  0  0
 23 20  1  0  0  0  0
 23 24  1  0  0  0  0
 25 23  1  0  0  0  0
 26  5  1  0  0  0  0
 26 27  1  0  0  0  0
 28 26  1  0  0  0  0
 29 26  1  0  0  0  0
 29 30  1  0  0  0  0
 31 29  1  0  0  0  0
 32 29  1  0  0  0  0
 33 32  1  0  0  0  0
 34 32  1  0  0  0  0
 35  7  1  0  0  0  0
 36 35  1  0  0  0  0
 37 35  1  0  0  0  0
 38 35  1  0  0  0  0
 38  2  1  0  0  0  0
 38 40  1  0  0  0  0
 39 38  1  0  0  0  0
 41 44  1  0  0  0  0
 41  2  1  0  0  0  0
 42 41  1  0  0  0  0
 43 41  1  0  0  0  0
 44  9  1  0  0  0  0
 45 44  1  0  0  0  0
 46 44  1  0  0  0  0
 47 62  1  0  0  0  0
 47  1  1  0  0  0  0
 48 47  2  0  0  0  0
 49 48  1  0  0  0  0
 50 52  2  0  0  0  0
 50 48  1  0  0  0  0
 51 50  1  0  0  0  0
 52 54  1  0  0  0  0
 53 52  1  0  0  0  0
 54 55  2  0  0  0  0
 54 62  1  0  0  0  0
 55 56  1  0  0  0  0
 56 57  1  0  0  0  0
 56 58  2  0  0  0  0
 58 59  1  0  0  0  0
 60 58  1  0  0  0  0
 60 61  1  0  0  0  0
 62 60  2  0  0  0  0
 63 66  1  0  0  0  0
 63 64  1  0  0  0  0
 65 63  1  0  0  0  0
 67 10  1  0  0  0  0
 67 70  1  0  0  0  0
 68 67  1  0  0  0  0
 69 67  1  0  0  0  0
 72  1  2  0  0  0  0
M  END
