1,2,3,40,43
 OpenBabel05122313063D

 47 51  0  0  1  0  0  0  0  0999 V2000
   -0.0320   -2.3876    0.0002 N   0  0  0  0  0  2  0  0  0  0  0  0
    1.7910   -0.8209   -0.5057 N   0  0  0  0  0  2  0  0  0  0  0  0
   -1.8170   -0.7759    0.4969 N   0  0  0  0  0  2  0  0  0  0  0  0
    3.3225   -2.4904   -1.1272 O   0  0  0  0  0  0  0  0  0  0  0  0
   -3.3889   -2.4044    1.1258 O   0  0  0  0  0  0  0  0  0  0  0  0
    2.2025   -2.1206   -0.7684 C   0  0  0  0  0  0  0  0  0  0  0  0
   -1.1472   -3.0216    0.4388 C   0  0  1  0  0  3  0  0  0  0  0  0
    1.0668   -3.0499   -0.4375 C   0  0  0  0  0  0  0  0  0  0  0  0
    1.0757   -4.4485   -0.4507 C   0  0  0  0  0  0  0  0  0  0  0  0
    1.9797   -4.9635   -0.8068 H   0  0  0  0  0  0  0  0  0  0  0  0
   -2.2603   -2.0638    0.7652 C   0  0  0  0  0  0  0  0  0  0  0  0
   -1.1903   -4.4195    0.4557 C   0  0  0  0  0  0  0  0  0  0  0  0
   -2.1068   -4.9113    0.8125 H   0  0  0  0  0  0  0  0  0  0  0  0
   -0.0658   -5.1378    0.0037 C   0  0  0  0  0  0  0  0  0  0  0  0
   -0.0793   -6.2377    0.0052 H   0  0  0  0  0  0  0  0  0  0  0  0
   -2.6426    0.3025    0.2340 C   0  0  0  0  0  0  0  0  0  0  0  0
   -4.6587    1.6747    0.2817 C   0  0  0  0  0  0  0  0  0  0  0  0
   -5.6890    1.8143    0.6439 H   0  0  0  0  0  0  0  0  0  0  0  0
   -2.0450    1.2839   -0.6353 C   0  0  2  0  0  3  0  0  0  0  0  0
   -4.0854    2.6457   -0.5342 C   0  0  0  0  0  0  0  0  0  0  0  0
   -4.6447    3.5494   -0.8191 H   0  0  0  0  0  0  0  0  0  0  0  0
   -2.7598    2.4636   -1.0228 C   0  0  0  0  0  0  0  0  0  0  0  0
   -0.1813    1.8658   -1.9159 C   0  0  0  0  0  0  0  0  0  0  0  0
    0.8364    1.6006   -2.2461 H   0  0  0  0  0  0  0  0  0  0  0  0
   -0.8030    3.0664   -2.3404 C   0  0  0  0  0  0  0  0  0  0  0  0
   -0.2632    3.7427   -3.0189 H   0  0  0  0  0  0  0  0  0  0  0  0
   -2.0840    3.3649   -1.8954 C   0  0  0  0  0  0  0  0  0  0  0  0
   -2.5913    4.2890   -2.2137 H   0  0  0  0  0  0  0  0  0  0  0  0
   -3.9614    0.5037    0.6697 C   0  0  0  0  0  0  0  0  0  0  0  0
   -4.4319   -0.2623    1.2980 H   0  0  0  0  0  0  0  0  0  0  0  0
    2.6453    0.2345   -0.2405 C   0  0  0  0  0  0  0  0  0  0  0  0
    2.0785    1.2271    0.6371 C   0  0  0  0  0  0  0  0  0  0  0  0
    2.8266    2.3859    1.0255 C   0  0  0  0  0  0  0  0  0  0  0  0
    4.1541    2.5350    0.5310 C   0  0  0  0  0  3  0  0  0  0  0  0
    4.7385    3.4224    0.8168 H   0  0  0  0  0  0  0  0  0  0  0  0
    4.6974    1.5527   -0.2917 C   0  0  0  0  0  0  0  0  0  0  0  0
    5.7293    1.6664   -0.6585 H   0  0  0  0  0  0  0  0  0  0  0  0
    3.9670    0.4026   -0.6814 C   0  0  0  0  0  0  0  0  0  0  0  0
    4.4140   -0.3727   -1.3154 H   0  0  0  0  0  0  0  0  0  0  0  0
    0.8115    0.9814    1.1027 N   0  0  0  0  0  2  0  0  0  0  0  0
    2.1794    3.3016    1.9047 C   0  0  0  0  0  0  0  0  0  0  0  0
    2.7128    4.2107    2.2236 H   0  0  0  0  0  0  0  0  0  0  0  0
   -0.7819    1.0066   -1.0947 N   0  0  0  0  0  2  0  0  0  0  0  0
    0.2382    1.8532    1.9297 C   0  0  0  0  0  0  0  0  0  0  0  0
   -0.7844    1.6136    2.2647 H   0  0  0  0  0  0  0  0  0  0  0  0
    0.8931    3.0358    2.3551 C   0  0  0  0  0  0  0  0  0  0  0  0
    0.3749    3.7238    3.0386 H   0  0  0  0  0  0  0  0  0  0  0  0
  1  7  1  0  0  0  0
  2 31  1  0  0  0  0
  3 11  1  0  0  0  0
  4  6  2  0  0  0  0
  6  2  1  0  0  0  0
  6  8  1  0  0  0  0
  7 12  1  0  0  0  0
  7 11  1  6  0  0  0
  8  1  1  0  0  0  0
  9  8  2  0  0  0  0
  9 14  1  0  0  0  0
 10  9  1  0  0  0  0
 11  5  2  0  0  0  0
 12 13  1  0  0  0  0
 14 15  1  0  0  0  0
 14 12  2  0  0  0  0
 16  3  1  0  0  0  0
 16 29  2  0  0  0  0
 17 18  1  0  0  0  0
 17 29  1  0  0  0  0
 19 43  1  6  0  0  0
 19 16  1  0  0  0  0
 20 17  2  0  0  0  0
 21 20  1  0  0  0  0
 22 19  1  0  0  0  0
 22 20  1  0  0  0  0
 23 43  1  0  0  0  0
 24 23  1  0  0  0  0
 25 23  2  0  0  0  0
 25 27  1  0  0  0  0
 26 25  1  0  0  0  0
 27 22  2  0  0  0  0
 28 27  1  0  0  0  0
 29 30  1  0  0  0  0
 31 32  2  0  0  0  0
 32 33  1  0  0  0  0
 32 40  1  0  0  0  0
 33 41  2  0  0  0  0
 34 35  1  0  0  0  0
 34 33  1  0  0  0  0
 36 34  1  0  0  0  0
 37 36  1  0  0  0  0
 38 36  2  0  0  0  0
 38 31  1  0  0  0  0
 39 38  1  0  0  0  0
 40 44  1  0  0  0  0
 41 42  1  0  0  0  0
 41 46  1  0  0  0  0
 44 45  1  0  0  0  0
 44 46  2  0  0  0  0
 46 47  1  0  0  0  0
M  END
