1,3,4,5
 OpenBabel05122313063D

 72 74  0  0  1  0  0  0  0  0999 V2000
    1.7710   -0.2563    0.9474 N   0  0  0  0  0  2  0  0  0  0  0  0
   -0.6899   -0.0944    1.8652 N   0  0  2  0  0  0  0  0  0  0  0  0
   -1.6140    0.7647   -0.8348 N   0  0  0  0  0  2  0  0  0  0  0  0
    0.7229    0.0490   -1.8608 N   0  0  2  0  0  0  0  0  0  0  0  0
   -0.3596   -1.6105   -0.2018 N   0  0  0  0  0  2  0  0  0  0  0  0
   -1.0904   -4.2542   -0.5645 N   0  0  0  0  0  0  0  0  0  0  0  0
    4.4304   -0.1943   -1.5158 O   0  0  0  0  0  0  0  0  0  0  0  0
    3.9844   -0.8845    1.0798 O   0  0  0  0  0  0  0  0  0  0  0  0
   -3.2454   -1.1675    1.0528 O   0  0  0  0  0  0  0  0  0  0  0  0
   -3.8664    1.2170   -0.9644 O   0  0  0  0  0  0  0  0  0  0  0  0
    3.1321   -0.6733   -1.1299 C   0  0  1  0  0  0  0  0  0  0  0  0
    3.1687   -2.1526   -1.5246 C   0  0  0  0  0  0  0  0  0  0  0  0
    3.3514   -2.2693   -2.6124 H   0  0  0  0  0  0  0  0  0  0  0  0
    2.2516   -2.6975   -1.2324 H   0  0  0  0  0  0  0  0  0  0  0  0
    4.0207   -2.5968   -0.9763 H   0  0  0  0  0  0  0  0  0  0  0  0
    4.9369    0.9662   -0.8759 C   0  0  0  0  0  0  0  0  0  0  0  0
    5.7436    1.3566   -1.5276 H   0  0  0  0  0  0  0  0  0  0  0  0
    5.3444    0.7267    0.1277 H   0  0  0  0  0  0  0  0  0  0  0  0
    4.1704    1.7682   -0.7564 H   0  0  0  0  0  0  0  0  0  0  0  0
    2.9638   -0.6055    0.4172 C   0  0  0  0  0  0  0  0  0  0  0  0
    1.7696    0.0394    2.4092 C   0  0  0  0  0  0  0  0  0  0  0  0
    2.7005    1.2304    2.7335 C   0  0  0  0  0  0  0  0  0  0  0  0
    2.4379    2.0973    2.0987 H   0  0  0  0  0  0  0  0  0  0  0  0
    3.7518    0.9485    2.5452 H   0  0  0  0  0  0  0  0  0  0  0  0
    2.5961    1.5226    3.7991 H   0  0  0  0  0  0  0  0  0  0  0  0
    2.2265   -1.1717    3.2687 C   0  0  0  0  0  0  0  0  0  0  0  0
    1.8382   -2.1380    2.8894 H   0  0  0  0  0  0  0  0  0  0  0  0
    1.9035   -1.0462    4.3230 H   0  0  0  0  0  0  0  0  0  0  0  0
    3.3252   -1.2574    3.2247 H   0  0  0  0  0  0  0  0  0  0  0  0
    0.3358    0.5047    2.7583 C   0  0  0  0  0  0  0  0  0  0  0  0
    0.0875    0.2696    3.8179 H   0  0  0  0  0  0  0  0  0  0  0  0
    0.2391    1.5968    2.6284 H   0  0  0  0  0  0  0  0  0  0  0  0
   -1.9870    0.5966    2.0828 C   0  0  0  0  0  0  0  0  0  0  0  0
   -1.7724    1.6815    1.9957 H   0  0  0  0  0  0  0  0  0  0  0  0
   -2.3172    0.3630    3.1211 H   0  0  0  0  0  0  0  0  0  0  0  0
   -3.1152    0.2731    1.1101 C   0  0  2  0  0  0  0  0  0  0  0  0
   -4.3895    0.9131    1.6704 C   0  0  0  0  0  0  0  0  0  0  0  0
   -5.2026    0.8547    0.9260 H   0  0  0  0  0  0  0  0  0  0  0  0
   -4.2187    1.9872    1.8783 H   0  0  0  0  0  0  0  0  0  0  0  0
   -4.6837    0.4046    2.6098 H   0  0  0  0  0  0  0  0  0  0  0  0
   -4.2745   -1.6887    0.2282 C   0  0  0  0  0  0  0  0  0  0  0  0
   -4.0736   -2.7737    0.1213 H   0  0  0  0  0  0  0  0  0  0  0  0
   -4.2909   -1.2156   -0.7773 H   0  0  0  0  0  0  0  0  0  0  0  0
   -5.2816   -1.5603    0.6848 H   0  0  0  0  0  0  0  0  0  0  0  0
   -2.8660    0.8154   -0.3291 C   0  0  0  0  0  0  0  0  0  0  0  0
   -1.4547    1.2741   -2.2253 C   0  0  0  0  0  0  0  0  0  0  0  0
   -2.3244    0.4790   -3.2370 C   0  0  0  0  0  0  0  0  0  0  0  0
   -2.3168   -0.6109   -3.0369 H   0  0  0  0  0  0  0  0  0  0  0  0
   -1.9798    0.6572   -4.2769 H   0  0  0  0  0  0  0  0  0  0  0  0
   -3.3754    0.8012   -3.1427 H   0  0  0  0  0  0  0  0  0  0  0  0
   -1.8310    2.7695   -2.3466 C   0  0  0  0  0  0  0  0  0  0  0  0
   -1.2959    3.3682   -1.5860 H   0  0  0  0  0  0  0  0  0  0  0  0
   -2.9156    2.8973   -2.1880 H   0  0  0  0  0  0  0  0  0  0  0  0
   -1.5629    3.1507   -3.3542 H   0  0  0  0  0  0  0  0  0  0  0  0
    0.0516    1.1870   -2.5452 C   0  0  0  0  0  0  0  0  0  0  0  0
    0.2311    1.1237   -3.6417 H   0  0  0  0  0  0  0  0  0  0  0  0
    0.5528    2.0913   -2.1626 H   0  0  0  0  0  0  0  0  0  0  0  0
    2.1893    0.2439   -1.9316 C   0  0  0  0  0  0  0  0  0  0  0  0
    2.3601    1.2739   -1.5670 H   0  0  0  0  0  0  0  0  0  0  0  0
    2.5055    0.1932   -2.9985 H   0  0  0  0  0  0  0  0  0  0  0  0
    0.2986   -1.2559   -2.4693 C   0  0  0  0  0  0  0  0  0  0  0  0
   -0.4866   -1.0610   -3.2226 H   0  0  0  0  0  0  0  0  0  0  0  0
    1.1476   -1.7177   -3.0095 H   0  0  0  0  0  0  0  0  0  0  0  0
   -0.2370   -2.1773   -1.4199 C   0  0  2  0  0  3  0  0  0  0  0  0
   -0.6119   -3.5196   -1.5809 C   0  0  0  0  0  0  0  0  0  0  0  0
   -0.5180   -4.0102   -2.5650 H   0  0  0  0  0  0  0  0  0  0  0  0
   -1.1879   -3.6644    0.6357 C   0  0  0  0  0  0  0  0  0  0  0  0
   -1.5794   -4.2679    1.4720 H   0  0  0  0  0  0  0  0  0  0  0  0
   -0.8229   -2.3244    0.8434 C   0  0  0  0  0  0  0  0  0  0  0  0
   -0.8118   -1.5720    2.1283 C   0  0  0  0  0  0  0  0  0  0  0  0
    0.0646   -1.8943    2.7196 H   0  0  0  0  0  0  0  0  0  0  0  0
   -1.7251   -1.7795    2.7162 H   0  0  0  0  0  0  0  0  0  0  0  0
  1 21  1  0  0  0  0
  2 33  1  1  0  0  0
  2 70  1  0  0  0  0
  2 30  1  0  0  0  0
  3 45  1  0  0  0  0
  4 55  1  6  0  0  0
  5 69  1  0  0  0  0
  6 67  1  0  0  0  0
  7 16  1  0  0  0  0
 10 45  2  0  0  0  0
 11  7  1  6  0  0  0
 11 20  1  0  0  0  0
 12 14  1  0  0  0  0
 12 11  1  0  0  0  0
 12 15  1  0  0  0  0
 13 12  1  0  0  0  0
 16 19  1  0  0  0  0
 16 18  1  0  0  0  0
 17 16  1  0  0  0  0
 20  1  1  0  0  0  0
 20  8  2  0  0  0  0
 21 22  1  0  0  0  0
 21 30  1  0  0  0  0
 21 26  1  0  0  0  0
 22 25  1  0  0  0  0
 23 22  1  0  0  0  0
 24 22  1  0  0  0  0
 26 28  1  0  0  0  0
 27 26  1  0  0  0  0
 29 26  1  0  0  0  0
 30 31  1  0  0  0  0
 32 30  1  0  0  0  0
 33 35  1  0  0  0  0
 34 33  1  0  0  0  0
 36  9  1  6  0  0  0
 36 37  1  0  0  0  0
 36 33  1  0  0  0  0
 37 39  1  0  0  0  0
 37 40  1  0  0  0  0
 38 37  1  0  0  0  0
 41 44  1  0  0  0  0
 41  9  1  0  0  0  0
 42 41  1  0  0  0  0
 43 41  1  0  0  0  0
 45 36  1  0  0  0  0
 46  3  1  0  0  0  0
 47 50  1  0  0  0  0
 47 48  1  0  0  0  0
 47 46  1  0  0  0  0
 49 47  1  0  0  0  0
 51 46  1  0  0  0  0
 51 53  1  0  0  0  0
 51 52  1  0  0  0  0
 54 51  1  0  0  0  0
 55 46  1  0  0  0  0
 55 57  1  0  0  0  0
 56 55  1  0  0  0  0
 58  4  1  0  0  0  0
 58 59  1  0  0  0  0
 58 11  1  0  0  0  0
 60 58  1  0  0  0  0
 61  4  1  0  0  0  0
 61 64  1  0  0  0  0
 62 61  1  0  0  0  0
 63 61  1  0  0  0  0
 64 65  1  6  0  0  0
 64  5  1  0  0  0  0
 65  6  2  0  0  0  0
 66 65  1  0  0  0  0
 67 69  2  0  0  0  0
 67 68  1  0  0  0  0
 69 70  1  0  0  0  0
 70 72  1  0  0  0  0
 70 71  1  0  0  0  0
M  END
