5,7,8,9
 OpenBabel05122313063D

 73 75  0  0  1  0  0  0  0  0999 V2000
    4.4358    0.1826   -1.4978 O   0  0  0  0  0  0  0  0  0  0  0  0
    3.9779    0.8989    1.0906 O   0  0  0  0  0  0  0  0  0  0  0  0
   -3.2672    1.1449    1.0769 O   0  0  0  0  0  0  0  0  0  0  0  0
   -3.8707   -1.1927   -0.9880 O   0  0  0  0  0  0  0  0  0  0  0  0
    1.7683    0.2537    0.9487 N   0  0  0  0  0  2  0  0  0  0  0  0
   -0.6935    0.0759    1.8593 N   0  0  1  0  0  0  0  0  0  0  0  0
   -1.6142   -0.7588   -0.8427 N   0  0  0  0  0  2  0  0  0  0  0  0
    0.7289   -0.0466   -1.8560 N   0  0  1  0  0  0  0  0  0  0  0  0
   -0.3628    1.6268   -0.1978 N   0  0  0  0  0  2  0  0  0  0  0  0
    3.1372    0.6711   -1.1214 C   0  0  2  0  0  0  0  0  0  0  0  0
    3.1849    2.1479   -1.5235 C   0  0  0  0  0  0  0  0  0  0  0  0
    4.0363    2.5888   -0.9715 H   0  0  0  0  0  0  0  0  0  0  0  0
    2.2690    2.6992   -1.2400 H   0  0  0  0  0  0  0  0  0  0  0  0
    3.3754    2.2576   -2.6108 H   0  0  0  0  0  0  0  0  0  0  0  0
    4.9320   -0.9750   -0.8458 C   0  0  0  0  0  0  0  0  0  0  0  0
    5.7412   -1.3751   -1.4888 H   0  0  0  0  0  0  0  0  0  0  0  0
    4.1606   -1.7721   -0.7248 H   0  0  0  0  0  0  0  0  0  0  0  0
    5.3341   -0.7297    0.1588 H   0  0  0  0  0  0  0  0  0  0  0  0
    2.9608    0.6113    0.4252 C   0  0  0  0  0  0  0  0  0  0  0  0
    1.7649   -0.0489    2.4087 C   0  0  0  0  0  0  0  0  0  0  0  0
    2.7014   -1.2370    2.7281 C   0  0  0  0  0  0  0  0  0  0  0  0
    2.4434   -2.1017    2.0882 H   0  0  0  0  0  0  0  0  0  0  0  0
    2.5976   -1.5355    3.7920 H   0  0  0  0  0  0  0  0  0  0  0  0
    3.7515   -0.9487    2.5422 H   0  0  0  0  0  0  0  0  0  0  0  0
    2.2138    1.1589    3.2771 C   0  0  0  0  0  0  0  0  0  0  0  0
    3.3125    1.2480    3.2391 H   0  0  0  0  0  0  0  0  0  0  0  0
    1.8853    1.0272    4.3291 H   0  0  0  0  0  0  0  0  0  0  0  0
    1.8245    2.1256    2.9000 H   0  0  0  0  0  0  0  0  0  0  0  0
    0.3327   -0.5244    2.7508 C   0  0  0  0  0  0  0  0  0  0  0  0
    0.2426   -1.6161    2.6134 H   0  0  0  0  0  0  0  0  0  0  0  0
    0.0805   -0.2982    3.8116 H   0  0  0  0  0  0  0  0  0  0  0  0
   -1.9868   -0.6231    2.0714 C   0  0  0  0  0  0  0  0  0  0  0  0
   -2.3166   -0.4023    3.1129 H   0  0  0  0  0  0  0  0  0  0  0  0
   -1.7676   -1.7062    1.9723 H   0  0  0  0  0  0  0  0  0  0  0  0
   -3.1192   -0.2950    1.1057 C   0  0  1  0  0  0  0  0  0  0  0  0
   -4.3853   -0.9600    1.6566 C   0  0  0  0  0  0  0  0  0  0  0  0
   -4.6835   -0.4724    2.6058 H   0  0  0  0  0  0  0  0  0  0  0  0
   -4.2017   -2.0356    1.8442 H   0  0  0  0  0  0  0  0  0  0  0  0
   -5.1998   -0.8968    0.9141 H   0  0  0  0  0  0  0  0  0  0  0  0
   -4.2971    1.6703    0.2585 C   0  0  0  0  0  0  0  0  0  0  0  0
   -4.2947    1.2285   -0.7614 H   0  0  0  0  0  0  0  0  0  0  0  0
   -4.1146    2.7615    0.1872 H   0  0  0  0  0  0  0  0  0  0  0  0
   -5.3069    1.5093    0.6991 H   0  0  0  0  0  0  0  0  0  0  0  0
   -2.8681   -0.8088   -0.3436 C   0  0  0  0  0  0  0  0  0  0  0  0
   -1.4522   -1.2595   -2.2357 C   0  0  0  0  0  0  0  0  0  0  0  0
   -2.3138   -0.4547   -3.2470 C   0  0  0  0  0  0  0  0  0  0  0  0
   -3.3659   -0.7756   -3.1616 H   0  0  0  0  0  0  0  0  0  0  0  0
   -1.9622   -0.6247   -4.2861 H   0  0  0  0  0  0  0  0  0  0  0  0
   -2.3055    0.6333   -3.0371 H   0  0  0  0  0  0  0  0  0  0  0  0
   -1.8359   -2.7523   -2.3662 C   0  0  0  0  0  0  0  0  0  0  0  0
   -1.3061   -3.3574   -1.6069 H   0  0  0  0  0  0  0  0  0  0  0  0
   -1.5672   -3.1300   -3.3751 H   0  0  0  0  0  0  0  0  0  0  0  0
   -2.9217   -2.8749   -2.2112 H   0  0  0  0  0  0  0  0  0  0  0  0
    0.0562   -1.1785   -2.5485 C   0  0  0  0  0  0  0  0  0  0  0  0
    0.5512   -2.0871   -2.1677 H   0  0  0  0  0  0  0  0  0  0  0  0
    0.2408   -1.1113   -3.6440 H   0  0  0  0  0  0  0  0  0  0  0  0
    2.1945   -0.2457   -1.9235 C   0  0  0  0  0  0  0  0  0  0  0  0
    2.5133   -0.1980   -2.9899 H   0  0  0  0  0  0  0  0  0  0  0  0
    2.3619   -1.2752   -1.5560 H   0  0  0  0  0  0  0  0  0  0  0  0
    0.3118    1.2598   -2.4597 C   0  0  0  0  0  0  0  0  0  0  0  0
    1.1628    1.7173   -3.0004 H   0  0  0  0  0  0  0  0  0  0  0  0
   -0.4742    1.0705   -3.2134 H   0  0  0  0  0  0  0  0  0  0  0  0
   -0.2221    2.1913   -1.4160 C   0  0  1  0  0  3  0  0  0  0  0  0
   -0.5667    3.5321   -1.6230 C   0  0  0  0  0  0  0  0  0  0  0  0
   -0.4410    3.9837   -2.6173 H   0  0  0  0  0  0  0  0  0  0  0  0
   -1.0643    4.2759   -0.5414 C   0  0  0  0  0  0  0  0  0  0  0  0
   -1.3456    5.3301   -0.6793 H   0  0  0  0  0  0  0  0  0  0  0  0
   -1.1942    3.6694    0.7159 C   0  0  0  0  0  0  0  0  0  0  0  0
   -1.5785    4.2250    1.5826 H   0  0  0  0  0  0  0  0  0  0  0  0
   -0.8294    2.3248    0.8590 C   0  0  0  0  0  0  0  0  0  0  0  0
   -0.8210    1.5487    2.1323 C   0  0  0  0  0  0  0  0  0  0  0  0
   -1.7371    1.7474    2.7188 H   0  0  0  0  0  0  0  0  0  0  0  0
    0.0511    1.8687    2.7309 H   0  0  0  0  0  0  0  0  0  0  0  0
  1 15  1  0  0  0  0
  4 44  2  0  0  0  0
  5 20  1  0  0  0  0
  6 32  1  1  0  0  0
  6 71  1  0  0  0  0
  6 29  1  0  0  0  0
  7 44  1  0  0  0  0
  8 54  1  6  0  0  0
  9 70  1  0  0  0  0
 10  1  1  6  0  0  0
 10 19  1  0  0  0  0
 11 13  1  0  0  0  0
 11 10  1  0  0  0  0
 11 12  1  0  0  0  0
 14 11  1  0  0  0  0
 15 17  1  0  0  0  0
 15 18  1  0  0  0  0
 16 15  1  0  0  0  0
 19  5  1  0  0  0  0
 19  2  2  0  0  0  0
 20 21  1  0  0  0  0
 20 29  1  0  0  0  0
 20 25  1  0  0  0  0
 21 23  1  0  0  0  0
 22 21  1  0  0  0  0
 24 21  1  0  0  0  0
 25 27  1  0  0  0  0
 26 25  1  0  0  0  0
 28 25  1  0  0  0  0
 29 31  1  0  0  0  0
 30 29  1  0  0  0  0
 32 33  1  0  0  0  0
 34 32  1  0  0  0  0
 35  3  1  6  0  0  0
 35 36  1  0  0  0  0
 35 32  1  0  0  0  0
 36 38  1  0  0  0  0
 36 37  1  0  0  0  0
 39 36  1  0  0  0  0
 40 43  1  0  0  0  0
 40  3  1  0  0  0  0
 41 40  1  0  0  0  0
 42 40  1  0  0  0  0
 44 35  1  0  0  0  0
 45  7  1  0  0  0  0
 46 47  1  0  0  0  0
 46 49  1  0  0  0  0
 46 45  1  0  0  0  0
 48 46  1  0  0  0  0
 50 45  1  0  0  0  0
 50 53  1  0  0  0  0
 50 51  1  0  0  0  0
 52 50  1  0  0  0  0
 54 45  1  0  0  0  0
 54 55  1  0  0  0  0
 56 54  1  0  0  0  0
 57  8  1  0  0  0  0
 57 59  1  0  0  0  0
 57 10  1  0  0  0  0
 58 57  1  0  0  0  0
 60  8  1  0  0  0  0
 60 63  1  0  0  0  0
 61 60  1  0  0  0  0
 62 60  1  0  0  0  0
 63 64  1  6  0  0  0
 63  9  1  0  0  0  0
 64 66  2  0  0  0  0
 65 64  1  0  0  0  0
 66 68  1  0  0  0  0
 67 66  1  0  0  0  0
 68 70  2  0  0  0  0
 68 69  1  0  0  0  0
 70 71  1  0  0  0  0
 71 72  1  0  0  0  0
 71 73  1  0  0  0  0
M  END
