9,11
 OpenBabel05122313053D

 18 18  0  0  0  0  0  0  0  0999 V2000
   -2.8282   -1.8242    0.2875 B   0  0  2  0  0  0  0  0  0  0  0  0
   -3.9663   -0.5185    0.6420 B   0  0  0  0  0  0  0  0  0  0  0  0
   -2.6160   -0.8102    1.7441 B   0  0  1  0  0  0  0  0  0  0  0  0
   -2.8842   -1.2425    2.8426 H   0  0  0  0  0  0  0  0  0  0  0  0
   -1.2007   -1.3791    0.8325 B   0  0  2  0  0  0  0  0  0  0  0  0
   -3.2611   -0.7835   -1.0983 B   0  0  0  0  0  0  0  0  0  0  0  0
   -2.9074    0.8945    1.3149 B   0  0  0  0  0  2  0  0  0  0  0  0
   -3.4101    1.6889    2.0789 H   0  0  0  0  0  0  0  0  0  0  0  0
   -1.1748    0.2525    1.5525 B   0  0  0  0  0  0  0  0  0  0  0  0
   -1.6519    1.3598    1.0440 H   0  0  0  0  0  0  0  0  0  0  0  0
   -1.5426   -1.4746   -0.9273 B   0  0  0  0  0  0  0  0  0  0  0  0
   -3.2447   -2.9568    0.3810 H   0  0  0  0  0  0  0  0  0  0  0  0
   -5.1149   -0.7268    0.9559 H   0  0  0  0  0  0  0  0  0  0  0  0
   -0.6133   -2.2908    1.3793 H   0  0  0  0  0  0  0  0  0  0  0  0
   -4.0257   -1.1436   -1.9652 H   0  0  0  0  0  0  0  0  0  0  0  0
   -0.6447    0.5533    2.6061 H   0  0  0  0  0  0  0  0  0  0  0  0
   -1.2688   -2.4203   -1.6363 H   0  0  0  0  0  0  0  0  0  0  0  0
   -2.0728   -0.5765   -1.7310 H   0  0  0  0  0  0  0  0  0  0  0  0
  1 12  1  1  0  0  0
  1  2  1  0  0  0  0
  1  5  1  0  0  0  0
  2 13  1  0  0  0  0
  2  3  1  0  0  0  0
  3  4  1  1  0  0  0
  5 14  1  1  0  0  0
  5  9  1  0  0  0  0
  5  3  1  0  0  0  0
  6 11  1  0  0  0  0
  6  1  1  0  0  0  0
  7  3  1  0  0  0  0
  7  8  1  0  0  0  0
  9 16  1  0  0  0  0
 10  9  1  0  0  0  0
 15  6  1  0  0  0  0
 17 11  1  0  0  0  0
 18 11  1  0  0  0  0
M  END
