13,24
 OpenBabel05122313053D

 53 61  0  0  1  0  0  0  0  0999 V2000
    0.9251   -1.3940   -0.9850 S   0  0  2  0  0  3  0  0  0  0  0  0
    3.8679   -2.3439    1.4846 O   0  0  0  0  0  0  0  0  0  0  0  0
    3.7116   -1.5454   -0.6394 O   0  0  0  0  0  0  0  0  0  0  0  0
    1.7106   -2.2620    0.4265 C   0  0  0  0  0  0  0  0  0  0  0  0
    3.2163   -2.0590    0.5032 C   0  0  0  0  0  0  0  0  0  0  0  0
    5.1163   -1.2449   -0.6345 C   0  0  0  0  0  0  0  0  0  0  0  0
   -0.6702    2.6805   -0.3383 C   0  0  2  0  0  0  0  0  0  0  0  0
   -0.3387    2.2985    1.1769 C   0  0  1  0  0  0  0  0  0  0  0  0
    0.0344    1.6117   -1.4592 B   0  0  0  0  0  0  0  0  0  0  0  0
    0.7240    3.2243   -1.1671 B   0  0  1  0  0  0  0  0  0  0  0  0
    0.4528    3.6787    0.5106 B   0  0  2  0  0  0  0  0  0  0  0  0
    0.6386    0.9108    1.3047 B   0  0  2  0  0  0  0  0  0  0  0  0
    0.9278    0.4494   -0.4165 B   0  0  0  0  0  0  0  0  0  0  0  0
    1.7951    1.7888   -1.2085 B   0  0  0  0  0  0  0  0  0  0  0  0
    2.0512    3.0702    0.0055 B   0  0  0  0  0  0  0  0  0  0  0  0
    1.3147    2.5364    1.5352 B   0  0  2  0  0  0  0  0  0  0  0  0
    2.1638    1.3545    0.4892 B   0  0  0  0  0  0  0  0  0  0  0  0
   -2.7136    0.0493    1.1475 C   0  0  2  0  0  0  0  0  0  0  0  0
   -3.0589    0.4341   -0.3637 C   0  0  1  0  0  0  0  0  0  0  0  0
   -1.3886   -1.0085    1.2699 B   0  0  1  0  0  0  0  0  0  0  0  0
   -3.0525   -1.5956    1.4691 B   0  0  2  0  0  0  0  0  0  0  0  0
   -4.1304   -0.6469    0.4515 B   0  0  2  0  0  0  0  0  0  0  0  0
   -2.0206   -0.3080   -1.4887 B   0  0  0  0  0  0  0  0  0  0  0  0
   -0.9242   -1.2906   -0.4499 B   0  0  0  0  0  0  0  0  0  0  0  0
   -1.9088   -2.4896    0.4163 B   0  0  0  0  0  0  0  0  0  0  0  0
   -3.6106   -2.2674   -0.0816 B   0  0  1  0  0  0  0  0  0  0  0  0
   -3.6739   -0.9086   -1.2270 B   0  0  2  0  0  0  0  0  0  0  0  0
   -2.3032   -2.0593   -1.2771 B   0  0  1  0  0  0  0  0  0  0  0  0
    1.2529   -1.9137    1.3718 H   0  0  0  0  0  0  0  0  0  0  0  0
    1.4798   -3.3398    0.3100 H   0  0  0  0  0  0  0  0  0  0  0  0
    5.7053   -2.1397   -0.3533 H   0  0  0  0  0  0  0  0  0  0  0  0
    5.3261   -0.4328    0.0898 H   0  0  0  0  0  0  0  0  0  0  0  0
    5.3595   -0.9167   -1.6596 H   0  0  0  0  0  0  0  0  0  0  0  0
   -1.6093    3.2127   -0.5462 H   0  0  0  0  0  0  0  0  0  0  0  0
   -1.0613    2.5826    1.9551 H   0  0  0  0  0  0  0  0  0  0  0  0
   -0.3819    1.4973   -2.5772 H   0  0  0  0  0  0  0  0  0  0  0  0
    0.5983    4.0539   -2.0331 H   0  0  0  0  0  0  0  0  0  0  0  0
    0.0999    4.7731    0.8675 H   0  0  0  0  0  0  0  0  0  0  0  0
    0.6957    0.2714    2.3178 H   0  0  0  0  0  0  0  0  0  0  0  0
    2.5589    1.5966   -2.1260 H   0  0  0  0  0  0  0  0  0  0  0  0
    3.0049    3.8110   -0.0115 H   0  0  0  0  0  0  0  0  0  0  0  0
    1.6285    2.8607    2.6532 H   0  0  0  0  0  0  0  0  0  0  0  0
    3.2058    0.8597    0.8515 H   0  0  0  0  0  0  0  0  0  0  0  0
   -2.9630    0.7710    1.9382 H   0  0  0  0  0  0  0  0  0  0  0  0
   -3.5344    1.4064   -0.5557 H   0  0  0  0  0  0  0  0  0  0  0  0
   -0.7659   -1.1214    2.2891 H   0  0  0  0  0  0  0  0  0  0  0  0
   -3.4077   -1.9112    2.5772 H   0  0  0  0  0  0  0  0  0  0  0  0
   -5.2059   -0.2367    0.8046 H   0  0  0  0  0  0  0  0  0  0  0  0
   -1.8715    0.1255   -2.5962 H   0  0  0  0  0  0  0  0  0  0  0  0
   -1.4661   -3.5661    0.7489 H   0  0  0  0  0  0  0  0  0  0  0  0
   -4.4057   -3.1750   -0.1272 H   0  0  0  0  0  0  0  0  0  0  0  0
   -4.4845   -0.7167   -2.0987 H   0  0  0  0  0  0  0  0  0  0  0  0
   -2.1454   -2.8135   -2.2090 H   0  0  0  0  0  0  0  0  0  0  0  0
  1 24  1  0  0  0  0
  1 13  1  0  0  0  0
  1  4  1  1  0  0  0
  3  6  1  0  0  0  0
  3  5  1  0  0  0  0
  4  5  1  0  0  0  0
  4 29  1  0  0  0  0
  5  2  2  0  0  0  0
  6 31  1  0  0  0  0
  6 32  1  0  0  0  0
  7 34  1  6  0  0  0
  7  8  1  0  0  0  0
  8 12  1  0  0  0  0
  8 16  1  0  0  0  0
  8 35  1  1  0  0  0
  9 14  1  0  0  0  0
  9  7  1  0  0  0  0
 10 37  1  6  0  0  0
 10  7  1  0  0  0  0
 10 15  1  0  0  0  0
 10 11  1  0  0  0  0
 11 38  1  1  0  0  0
 11 16  1  0  0  0  0
 12 16  1  0  0  0  0
 12 39  1  1  0  0  0
 13 17  1  0  0  0  0
 14 13  1  0  0  0  0
 15 11  1  0  0  0  0
 16 42  1  1  0  0  0
 17 43  1  0  0  0  0
 17 12  1  0  0  0  0
 18 20  1  0  0  0  0
 18 21  1  0  0  0  0
 18 44  1  1  0  0  0
 19 45  1  6  0  0  0
 19 18  1  0  0  0  0
 20 21  1  0  0  0  0
 20 46  1  1  0  0  0
 21 47  1  1  0  0  0
 22 48  1  1  0  0  0
 22 21  1  0  0  0  0
 23 28  1  0  0  0  0
 23 19  1  0  0  0  0
 24 25  1  0  0  0  0
 25 50  1  0  0  0  0
 25 20  1  0  0  0  0
 26 51  1  6  0  0  0
 26 22  1  0  0  0  0
 27 52  1  6  0  0  0
 27 19  1  0  0  0  0
 27 26  1  0  0  0  0
 27 22  1  0  0  0  0
 28 53  1  6  0  0  0
 28 24  1  0  0  0  0
 28 26  1  0  0  0  0
 30  4  1  0  0  0  0
 33  6  1  0  0  0  0
 36  9  1  0  0  0  0
 40 14  1  0  0  0  0
 41 15  1  0  0  0  0
 49 23  1  0  0  0  0
M  END
