4,16,32,48
 OpenBabel05122313063D

 48 51  0  0  1  0  0  0  0  0999 V2000
    2.5272   -1.4165    1.9087 C   0  0  0  0  0  0  0  0  0  0  0  0
    3.5977   -1.2264    2.1225 H   0  0  0  0  0  0  0  0  0  0  0  0
    2.2177   -2.2492    2.5780 H   0  0  0  0  0  0  0  0  0  0  0  0
    1.5404    0.0025    2.5051 S   0  0  0  0  0  0  0  0  0  0  0  0
    2.5262    1.4212    1.9061 C   0  0  0  0  0  0  0  0  0  0  0  0
    2.2180    2.2544    2.5755 H   0  0  0  0  0  0  0  0  0  0  0  0
    3.5970    1.2310    2.1182 H   0  0  0  0  0  0  0  0  0  0  0  0
    2.3095    1.8553    0.4720 C   0  0  2  0  0  3  0  0  0  0  0  0
    3.2976    2.6063   -0.1830 C   0  0  0  0  0  0  0  0  0  0  0  0
    4.2686    2.7821    0.3025 H   0  0  0  0  0  0  0  0  0  0  0  0
    3.0185    3.1395   -1.4489 C   0  0  0  0  0  0  0  0  0  0  0  0
    3.7782    3.7243   -1.9882 H   0  0  0  0  0  0  0  0  0  0  0  0
    1.7511    2.9344   -2.0032 C   0  0  0  0  0  0  0  0  0  0  0  0
    1.4797    3.3714   -2.9748 H   0  0  0  0  0  0  0  0  0  0  0  0
    0.8123    2.1569   -1.3019 C   0  0  0  0  0  0  0  0  0  0  0  0
    1.1117    1.5953   -0.1015 N   0  0  0  0  0  2  0  0  0  0  0  0
   -0.5931    1.9839   -1.8034 C   0  0  0  0  0  0  0  0  0  0  0  0
   -0.9690    0.9601   -1.6074 H   0  0  0  0  0  0  0  0  0  0  0  0
   -0.6654    2.1830   -2.8894 H   0  0  0  0  0  0  0  0  0  0  0  0
   -1.7305    3.1997   -1.0194 S   0  0  0  0  0  0  0  0  0  0  0  0
   -1.9281    2.4556    0.6521 C   0  0  0  0  0  0  0  0  0  0  0  0
   -0.9350    2.2973    1.1200 H   0  0  0  0  0  0  0  0  0  0  0  0
   -2.4698    3.2346    1.2239 H   0  0  0  0  0  0  0  0  0  0  0  0
   -2.7110    1.1730    0.6216 C   0  0  1  0  0  3  0  0  0  0  0  0
   -4.1103    1.1977    0.5135 C   0  0  0  0  0  0  0  0  0  0  0  0
   -4.6284    2.1663    0.4687 H   0  0  0  0  0  0  0  0  0  0  0  0
   -4.8218   -0.0052    0.4613 C   0  0  0  0  0  0  0  0  0  0  0  0
   -5.9192   -0.0063    0.3871 H   0  0  0  0  0  0  0  0  0  0  0  0
   -4.1078   -1.2066    0.5121 C   0  0  0  0  0  0  0  0  0  0  0  0
   -4.6238   -2.1762    0.4662 H   0  0  0  0  0  0  0  0  0  0  0  0
   -2.7085   -1.1791    0.6202 C   0  0  0  0  0  0  0  0  0  0  0  0
   -2.0154   -0.0023    0.6670 N   0  0  0  0  0  2  0  0  0  0  0  0
   -1.9230   -2.4601    0.6494 C   0  0  0  0  0  0  0  0  0  0  0  0
   -2.4632   -3.2409    1.2202 H   0  0  0  0  0  0  0  0  0  0  0  0
   -0.9304   -2.3003    1.1179 H   0  0  0  0  0  0  0  0  0  0  0  0
   -1.7232   -3.2019   -1.0228 S   0  0  0  0  0  0  0  0  0  0  0  0
   -0.5867   -1.9838   -1.8044 C   0  0  0  0  0  0  0  0  0  0  0  0
   -0.6573   -2.1823   -2.8907 H   0  0  0  0  0  0  0  0  0  0  0  0
   -0.9642   -0.9607   -1.6082 H   0  0  0  0  0  0  0  0  0  0  0  0
    0.8183   -2.1550   -1.3013 C   0  0  2  0  0  3  0  0  0  0  0  0
    1.7590   -2.9313   -2.0014 C   0  0  0  0  0  0  0  0  0  0  0  0
    1.4894   -3.3688   -2.9733 H   0  0  0  0  0  0  0  0  0  0  0  0
    3.0261   -3.1346   -1.4455 C   0  0  0  0  0  0  0  0  0  0  0  0
    3.7872   -3.7185   -1.9839 H   0  0  0  0  0  0  0  0  0  0  0  0
    3.3029   -2.6009   -0.1793 C   0  0  0  0  0  0  0  0  0  0  0  0
    4.2736   -2.7753    0.3074 H   0  0  0  0  0  0  0  0  0  0  0  0
    2.3130   -1.8512    0.4745 C   0  0  0  0  0  0  0  0  0  0  0  0
    1.1154   -1.5930   -0.1005 N   0  0  0  0  0  2  0  0  0  0  0  0
  1  2  1  0  0  0  0
  1  4  1  0  0  0  0
  1  3  1  0  0  0  0
  5  7  1  0  0  0  0
  5  4  1  0  0  0  0
  5  6  1  0  0  0  0
  8  9  1  1  0  0  0
  8  5  1  0  0  0  0
  9 10  1  0  0  0  0
 11  9  2  0  0  0  0
 12 11  1  0  0  0  0
 13 11  1  0  0  0  0
 13 15  2  0  0  0  0
 14 13  1  0  0  0  0
 15 16  1  0  0  0  0
 16  8  1  0  0  0  0
 17 18  1  0  0  0  0
 17 15  1  0  0  0  0
 17 20  1  0  0  0  0
 19 17  1  0  0  0  0
 20 21  1  0  0  0  0
 21 22  1  0  0  0  0
 21 23  1  0  0  0  0
 24 25  1  6  0  0  0
 24 21  1  0  0  0  0
 24 32  1  0  0  0  0
 26 25  1  0  0  0  0
 27 29  1  0  0  0  0
 27 25  2  0  0  0  0
 28 27  1  0  0  0  0
 29 31  2  0  0  0  0
 30 29  1  0  0  0  0
 31 33  1  0  0  0  0
 31 32  1  0  0  0  0
 33 35  1  0  0  0  0
 33 34  1  0  0  0  0
 36 33  1  0  0  0  0
 37 39  1  0  0  0  0
 37 40  1  0  0  0  0
 37 36  1  0  0  0  0
 38 37  1  0  0  0  0
 40 41  1  1  0  0  0
 40 48  1  0  0  0  0
 41 43  2  0  0  0  0
 42 41  1  0  0  0  0
 43 45  1  0  0  0  0
 44 43  1  0  0  0  0
 45 46  1  0  0  0  0
 45 47  2  0  0  0  0
 47  1  1  0  0  0  0
 48 47  1  0  0  0  0
M  END
