1,3,4,5
 OpenBabel05122313063D

 25 24  0  0  0  0  0  0  0  0999 V2000
   -0.6592   -1.6764    0.9443 S   0  0  0  0  0  0  0  0  0  0  0  0
    3.6376    0.7340   -0.5151 O   0  0  0  0  0  0  0  0  0  0  0  0
   -0.2112   -0.8301   -1.8582 N   0  0  0  0  0  0  0  0  0  0  0  0
    1.5490    0.0336    0.1881 N   0  0  0  0  0  2  0  0  0  0  0  0
    0.2288    1.9389   -0.9706 N   0  0  0  0  0  0  0  0  0  0  0  0
    0.3325   -2.1816   -1.6239 C   0  0  0  0  0  0  0  0  0  0  0  0
   -0.4412   -2.8251   -0.4795 C   0  0  0  0  0  0  0  0  0  0  0  0
    0.9882   -1.7195    1.7821 C   0  0  0  0  0  0  0  0  0  0  0  0
    2.0958   -1.0729    0.9536 C   0  0  0  0  0  0  0  0  0  0  0  0
    2.4056    0.8310   -0.4909 C   0  0  0  0  0  0  0  0  0  0  0  0
    1.6600    1.8967   -1.3254 C   0  0  0  0  0  0  0  0  0  0  0  0
    0.3023   -0.3636   -2.6172 H   0  0  0  0  0  0  0  0  0  0  0  0
   -1.2205   -0.8925   -2.1084 H   0  0  0  0  0  0  0  0  0  0  0  0
    0.0468    2.5515   -0.1341 H   0  0  0  0  0  0  0  0  0  0  0  0
   -0.3771    2.2711   -1.7327 H   0  0  0  0  0  0  0  0  0  0  0  0
    1.4056   -2.0845   -1.3759 H   0  0  0  0  0  0  0  0  0  0  0  0
    0.2536   -2.8181   -2.5343 H   0  0  0  0  0  0  0  0  0  0  0  0
   -1.4844   -3.0445   -0.7854 H   0  0  0  0  0  0  0  0  0  0  0  0
    0.0242   -3.7674   -0.1297 H   0  0  0  0  0  0  0  0  0  0  0  0
    0.7700   -1.1364    2.6974 H   0  0  0  0  0  0  0  0  0  0  0  0
    1.2048   -2.7674    2.0707 H   0  0  0  0  0  0  0  0  0  0  0  0
    2.9096   -0.7228    1.6282 H   0  0  0  0  0  0  0  0  0  0  0  0
    2.5843   -1.8272    0.2892 H   0  0  0  0  0  0  0  0  0  0  0  0
    1.7807    1.6378   -2.3986 H   0  0  0  0  0  0  0  0  0  0  0  0
    2.1551    2.8790   -1.1807 H   0  0  0  0  0  0  0  0  0  0  0  0
  1  8  1  0  0  0  0
  2 10  2  0  0  0  0
  3  6  1  0  0  0  0
  4  9  1  0  0  0  0
  5 14  1  0  0  0  0
  6 16  1  0  0  0  0
  6  7  1  0  0  0  0
  7 19  1  0  0  0  0
  7  1  1  0  0  0  0
  8 21  1  0  0  0  0
  8 20  1  0  0  0  0
  9 22  1  0  0  0  0
  9  8  1  0  0  0  0
 10  4  1  0  0  0  0
 11 25  1  0  0  0  0
 11  5  1  0  0  0  0
 11 10  1  0  0  0  0
 12  3  1  0  0  0  0
 13  3  1  0  0  0  0
 15  5  1  0  0  0  0
 17  6  1  0  0  0  0
 18  7  1  0  0  0  0
 23  9  1  0  0  0  0
 24 11  1  0  0  0  0
M  END
