1,2,4,7
 OpenBabel05122313063D

 45 47  0  0  1  0  0  0  0  0999 V2000
   -1.9495   -0.9670   -1.6220 S   0  0  0  0  0  0  0  0  0  0  0  0
    1.6469    0.7071    0.0890 N   0  0  0  0  0  2  0  0  0  0  0  0
    1.3349    1.9323    0.4416 N   0  0  0  0  0  2  0  0  0  0  0  0
   -0.8127    1.1765    0.0691 N   0  0  0  0  0  2  0  0  0  0  0  0
    0.2608   -1.4476    1.9738 C   0  0  0  0  0  3  0  0  0  0  0  0
    1.0420   -0.6811    2.0658 H   0  0  0  0  0  0  0  0  0  0  0  0
   -0.3020   -1.5773    0.7449 N   0  0  0  0  0  2  0  0  0  0  0  0
    0.0119    2.2134    0.3873 C   0  0  2  0  0  3  0  0  0  0  0  0
    3.9414    1.2720    0.7981 C   0  0  0  0  0  0  0  0  0  0  0  0
    3.6418    2.3247    0.8746 H   0  0  0  0  0  0  0  0  0  0  0  0
   -2.8830    0.0348   -0.4355 C   0  0  0  0  0  0  0  0  0  0  0  0
   -1.7164   -3.3204    1.6367 C   0  0  0  0  0  0  0  0  0  0  0  0
   -2.5194   -4.0502    1.4602 H   0  0  0  0  0  0  0  0  0  0  0  0
   -1.2878   -2.5122    0.5735 C   0  0  0  0  0  0  0  0  0  0  0  0
    5.2438    0.8606    1.0886 C   0  0  0  0  0  0  0  0  0  0  0  0
    5.9895    1.6061    1.4039 H   0  0  0  0  0  0  0  0  0  0  0  0
    3.3457   -1.0383    0.2505 C   0  0  0  0  0  0  0  0  0  0  0  0
    2.6037   -1.7617   -0.1175 H   0  0  0  0  0  0  0  0  0  0  0  0
    5.6075   -0.4945    0.9735 C   0  0  0  0  0  0  0  0  0  0  0  0
    6.6354   -0.8119    1.2053 H   0  0  0  0  0  0  0  0  0  0  0  0
    2.9805    0.3200    0.3762 C   0  0  0  0  0  0  0  0  0  0  0  0
   -1.8885   -2.6201   -0.7905 C   0  0  0  0  0  0  0  0  0  0  0  0
   -2.8783   -3.1144   -0.7857 H   0  0  0  0  0  0  0  0  0  0  0  0
   -1.1892   -3.1526   -1.4751 H   0  0  0  0  0  0  0  0  0  0  0  0
   -2.1905    1.0323    0.3080 C   0  0  0  0  0  0  0  0  0  0  0  0
   -1.1230   -3.1930    2.8985 C   0  0  0  0  0  0  0  0  0  0  0  0
   -1.4469   -3.8262    3.7372 H   0  0  0  0  0  0  0  0  0  0  0  0
   -0.1141   -2.2327    3.0643 C   0  0  0  0  0  0  0  0  0  0  0  0
    0.3857   -2.0822    4.0314 H   0  0  0  0  0  0  0  0  0  0  0  0
    4.6545   -1.4347    0.5523 C   0  0  0  0  0  0  0  0  0  0  0  0
    4.9315   -2.4944    0.4469 H   0  0  0  0  0  0  0  0  0  0  0  0
   -1.5332    4.0362    0.4478 O   0  0  0  0  0  0  0  0  0  0  0  0
   -0.3705    3.6553    0.5428 C   0  0  0  0  0  0  0  0  0  0  0  0
    0.7764    4.6243    0.7494 C   0  0  0  0  0  0  0  0  0  0  0  0
    0.3597    5.6400    0.8698 H   0  0  0  0  0  0  0  0  0  0  0  0
    1.4626    4.5956   -0.1207 H   0  0  0  0  0  0  0  0  0  0  0  0
    1.3824    4.3402    1.6320 H   0  0  0  0  0  0  0  0  0  0  0  0
   -4.2567   -0.1768   -0.2651 C   0  0  0  0  0  0  0  0  0  0  0  0
   -4.7698   -0.9265   -0.8867 H   0  0  0  0  0  0  0  0  0  0  0  0
   -2.9116    1.7368    1.2985 C   0  0  0  0  0  0  0  0  0  0  0  0
   -2.3928    2.4723    1.9221 H   0  0  0  0  0  0  0  0  0  0  0  0
   -4.2763    1.4958    1.4901 C   0  0  0  0  0  0  0  0  0  0  0  0
   -4.8147    2.0579    2.2675 H   0  0  0  0  0  0  0  0  0  0  0  0
   -4.9607    0.5551    0.7026 C   0  0  0  0  0  0  0  0  0  0  0  0
   -6.0380    0.3854    0.8457 H   0  0  0  0  0  0  0  0  0  0  0  0
  1 22  1  0  0  0  0
  1 11  1  0  0  0  0
  2 21  1  0  0  0  0
  2  3  1  0  0  0  0
  4 25  1  0  0  0  0
  5  6  1  0  0  0  0
  5 28  1  0  0  0  0
  7  5  1  0  0  0  0
  8  4  1  6  0  0  0
  8  3  1  0  0  0  0
  8 33  1  0  0  0  0
  9 10  1  0  0  0  0
  9 15  1  0  0  0  0
 11 38  2  0  0  0  0
 11 25  1  0  0  0  0
 12 26  1  0  0  0  0
 13 12  1  0  0  0  0
 14  7  1  0  0  0  0
 14 12  2  0  0  0  0
 15 16  1  0  0  0  0
 17 21  1  0  0  0  0
 17 30  2  0  0  0  0
 18 17  1  0  0  0  0
 19 15  2  0  0  0  0
 19 20  1  0  0  0  0
 21  9  2  0  0  0  0
 22 23  1  0  0  0  0
 22 14  1  0  0  0  0
 24 22  1  0  0  0  0
 25 40  2  0  0  0  0
 26 28  2  0  0  0  0
 26 27  1  0  0  0  0
 28 29  1  0  0  0  0
 30 19  1  0  0  0  0
 31 30  1  0  0  0  0
 32 33  2  0  0  0  0
 33 34  1  0  0  0  0
 34 35  1  0  0  0  0
 34 37  1  0  0  0  0
 36 34  1  0  0  0  0
 38 44  1  0  0  0  0
 39 38  1  0  0  0  0
 40 42  1  0  0  0  0
 40 41  1  0  0  0  0
 42 43  1  0  0  0  0
 44 45  1  0  0  0  0
 44 42  2  0  0  0  0
M  END
