1,2,3,6
 OpenBabel05122313063D

 45 47  0  0  1  0  0  0  0  0999 V2000
    2.2465    0.2650    0.0303 N   0  0  0  0  0  2  0  0  0  0  0  0
    0.5543    2.0702   -0.2120 N   0  0  0  0  0  2  0  0  0  0  0  0
   -1.4180    0.6638   -0.6907 N   0  0  0  0  0  2  0  0  0  0  0  0
    3.9884    1.7774    0.5355 O   0  0  0  0  0  0  0  0  0  0  0  0
   -2.8745    2.4917   -0.8994 O   0  0  0  0  0  0  0  0  0  0  0  0
    0.4996   -1.8947   -0.7205 S   0  0  0  0  0  0  0  0  0  0  0  0
   -2.4606    0.0680    1.9182 S   0  0  0  0  0  0  0  0  0  0  0  0
    2.2252   -2.1137   -0.2542 C   0  0  0  0  0  0  0  0  0  0  0  0
    2.8245   -3.3792   -0.2845 C   0  0  0  0  0  0  0  0  0  0  0  0
    2.2285   -4.2619   -0.5638 H   0  0  0  0  0  0  0  0  0  0  0  0
    4.1827   -3.5068    0.0384 C   0  0  0  0  0  0  0  0  0  0  0  0
    4.6623   -4.4964    0.0269 H   0  0  0  0  0  0  0  0  0  0  0  0
    4.9214   -2.3542    0.3607 C   0  0  0  0  0  0  0  0  0  0  0  0
    5.9902   -2.4449    0.6086 H   0  0  0  0  0  0  0  0  0  0  0  0
    4.3338   -1.0840    0.3697 C   0  0  0  0  0  0  0  0  0  0  0  0
    4.9103   -0.1844    0.6135 H   0  0  0  0  0  0  0  0  0  0  0  0
    2.9549   -0.9348    0.0606 C   0  0  0  0  0  0  0  0  0  0  0  0
    2.8176    1.5080    0.2527 C   0  0  0  0  0  0  0  0  0  0  0  0
    1.7657    2.5730    0.0883 C   0  0  1  0  0  3  0  0  0  0  0  0
    1.9331    3.9586    0.2026 C   0  0  0  0  0  0  0  0  0  0  0  0
    2.9305    4.3501    0.4482 H   0  0  0  0  0  0  0  0  0  0  0  0
    0.8131    4.7854   -0.0047 C   0  0  0  0  0  0  0  0  0  0  0  0
    0.9168    5.8778    0.0791 H   0  0  0  0  0  0  0  0  0  0  0  0
   -0.4392    4.2225   -0.3180 C   0  0  0  0  0  0  0  0  0  0  0  0
   -1.3438    4.8245   -0.4851 H   0  0  0  0  0  0  0  0  0  0  0  0
   -0.5343    2.8301   -0.4156 C   0  0  0  0  0  0  0  0  0  0  0  0
   -1.7633    2.0030   -0.7056 C   0  0  0  0  0  0  0  0  0  0  0  0
   -2.4363   -0.3120   -0.7600 C   0  0  0  0  0  0  0  0  0  0  0  0
   -2.7902   -0.9329   -1.9688 C   0  0  0  0  0  0  0  0  0  0  0  0
   -2.2773   -0.6076   -2.8856 H   0  0  0  0  0  0  0  0  0  0  0  0
   -3.7694   -1.9379   -2.0000 C   0  0  0  0  0  0  0  0  0  0  0  0
   -4.0396   -2.4150   -2.9535 H   0  0  0  0  0  0  0  0  0  0  0  0
   -4.4051   -2.3217   -0.8099 C   0  0  0  0  0  0  0  0  0  0  0  0
   -5.1795   -3.1037   -0.8237 H   0  0  0  0  0  0  0  0  0  0  0  0
   -4.0611   -1.7184    0.4115 C   0  0  0  0  0  0  0  0  0  0  0  0
   -4.5670   -2.0412    1.3316 H   0  0  0  0  0  0  0  0  0  0  0  0
   -3.0708   -0.7175    0.4493 C   0  0  0  0  0  0  0  0  0  0  0  0
   -3.4633   -0.7129    3.2149 C   0  0  0  0  0  0  0  0  0  0  0  0
   -4.5416   -0.4936    3.0841 H   0  0  0  0  0  0  0  0  0  0  0  0
   -3.1216   -0.2624    4.1660 H   0  0  0  0  0  0  0  0  0  0  0  0
   -3.3038   -1.8090    3.2608 H   0  0  0  0  0  0  0  0  0  0  0  0
   -0.3691   -2.7597    0.6415 C   0  0  0  0  0  0  0  0  0  0  0  0
   -0.0356   -3.8141    0.6458 H   0  0  0  0  0  0  0  0  0  0  0  0
   -1.4482   -2.7040    0.4057 H   0  0  0  0  0  0  0  0  0  0  0  0
   -0.1608   -2.2663    1.6072 H   0  0  0  0  0  0  0  0  0  0  0  0
  1 17  1  0  0  0  0
  1 18  1  0  0  0  0
  2 19  1  0  0  0  0
  5 27  2  0  0  0  0
  6  8  1  0  0  0  0
  6 42  1  0  0  0  0
  7 38  1  0  0  0  0
  8 17  1  0  0  0  0
  9  8  2  0  0  0  0
  9 11  1  0  0  0  0
 10  9  1  0  0  0  0
 11 13  2  0  0  0  0
 12 11  1  0  0  0  0
 13 15  1  0  0  0  0
 13 14  1  0  0  0  0
 15 16  1  0  0  0  0
 17 15  2  0  0  0  0
 18  4  2  0  0  0  0
 19 20  1  0  0  0  0
 19 18  1  6  0  0  0
 20 21  1  0  0  0  0
 22 23  1  0  0  0  0
 22 20  2  0  0  0  0
 24 22  1  0  0  0  0
 25 24  1  0  0  0  0
 26 24  2  0  0  0  0
 26  2  1  0  0  0  0
 27  3  1  0  0  0  0
 27 26  1  0  0  0  0
 28  3  1  0  0  0  0
 28 37  1  0  0  0  0
 29 28  2  0  0  0  0
 30 29  1  0  0  0  0
 31 29  1  0  0  0  0
 31 33  2  0  0  0  0
 32 31  1  0  0  0  0
 33 35  1  0  0  0  0
 34 33  1  0  0  0  0
 35 37  2  0  0  0  0
 35 36  1  0  0  0  0
 37  7  1  0  0  0  0
 38 41  1  0  0  0  0
 38 40  1  0  0  0  0
 39 38  1  0  0  0  0
 42 43  1  0  0  0  0
 42 45  1  0  0  0  0
 44 42  1  0  0  0  0
M  END
