1,4,5,6
 OpenBabel05122313063D

 54 55  0  0  1  0  0  0  0  0999 V2000
   -1.1940    1.5796   -0.2290 S   0  0  0  0  0  1  0  0  0  0  0  0
   -4.1533    2.0464   -0.1905 S   0  0  0  0  0  0  0  0  0  0  0  0
    1.3847   -1.8599    1.8130 O   0  0  0  0  0  0  0  0  0  0  0  0
   -0.8651   -1.4238   -0.3319 N   0  0  0  0  0  2  0  0  0  0  0  0
    1.8179   -1.2372   -0.3905 N   0  0  0  0  0  0  0  0  0  0  0  0
    1.6826    1.3216   -0.0344 N   0  0  0  0  0  2  0  0  0  0  0  0
    2.8358    0.8622   -0.6145 N   0  0  0  0  0  0  0  0  0  0  0  0
   -3.3907    3.6921   -0.2096 C   0  0  0  0  0  0  0  0  0  0  0  0
   -2.7893    0.9337   -0.1478 C   0  0  1  0  0  3  0  0  0  0  0  0
   -3.1111   -0.4209   -0.0718 C   0  0  0  0  0  0  0  0  0  0  0  0
   -4.5270   -0.9591    0.0154 C   0  0  0  0  0  0  0  0  0  0  0  0
   -4.3268   -2.4310    0.4196 C   0  0  0  0  0  0  0  0  0  0  0  0
   -2.9533   -2.8097   -0.1610 C   0  0  0  0  0  0  0  0  0  0  0  0
   -2.1855   -1.4950   -0.1793 C   0  0  0  0  0  0  0  0  0  0  0  0
   -0.1390   -2.6876   -0.5225 C   0  0  0  0  0  0  0  0  0  0  0  0
    1.2216   -2.3990   -1.1415 C   0  0  2  0  0  0  0  0  0  0  0  0
    2.1195   -3.6286   -1.2431 C   0  0  0  0  0  0  0  0  0  0  0  0
    2.7669   -0.4505   -1.2066 C   0  0  0  0  0  0  0  0  0  0  0  0
    2.4133   -1.5558    0.9278 C   0  0  0  0  0  0  0  0  0  0  0  0
    1.9945    2.5077    0.5417 C   0  0  2  0  0  3  0  0  0  0  0  0
    3.3620    2.7924    0.2963 C   0  0  0  0  0  0  0  0  0  0  0  0
    3.8831    1.7253   -0.4348 C   0  0  0  0  0  0  0  0  0  0  0  0
    1.0280    3.3364    1.3200 C   0  0  0  0  0  0  0  0  0  0  0  0
    5.2529    1.4649   -0.9639 C   0  0  0  0  0  0  0  0  0  0  0  0
    1.8340   -2.0391    3.1491 C   0  0  0  0  0  0  0  0  0  0  0  0
   -0.0110   -3.2104    0.4489 H   0  0  0  0  0  0  0  0  0  0  0  0
   -0.6908   -3.3676   -1.2044 H   0  0  0  0  0  0  0  0  0  0  0  0
    1.0399   -1.9923   -2.1590 H   0  0  0  0  0  0  0  0  0  0  0  0
    2.2574   -4.1278   -0.2638 H   0  0  0  0  0  0  0  0  0  0  0  0
    1.6537   -4.3665   -1.9246 H   0  0  0  0  0  0  0  0  0  0  0  0
    3.1163   -3.3851   -1.6616 H   0  0  0  0  0  0  0  0  0  0  0  0
    3.7892   -0.8863   -1.2378 H   0  0  0  0  0  0  0  0  0  0  0  0
    2.3671   -0.4083   -2.2412 H   0  0  0  0  0  0  0  0  0  0  0  0
    3.1394   -2.4020    0.8240 H   0  0  0  0  0  0  0  0  0  0  0  0
    2.9851   -0.6565    1.2597 H   0  0  0  0  0  0  0  0  0  0  0  0
    3.9103    3.6800    0.6277 H   0  0  0  0  0  0  0  0  0  0  0  0
    1.5787    4.0006    2.0120 H   0  0  0  0  0  0  0  0  0  0  0  0
    0.4137    3.9742    0.6523 H   0  0  0  0  0  0  0  0  0  0  0  0
    0.3286    2.7026    1.8969 H   0  0  0  0  0  0  0  0  0  0  0  0
    5.6872    0.5281   -0.5554 H   0  0  0  0  0  0  0  0  0  0  0  0
    5.2613    1.3861   -2.0707 H   0  0  0  0  0  0  0  0  0  0  0  0
    5.9259    2.2940   -0.6808 H   0  0  0  0  0  0  0  0  0  0  0  0
    2.5471   -2.8907    3.2352 H   0  0  0  0  0  0  0  0  0  0  0  0
    2.3281   -1.1187    3.5370 H   0  0  0  0  0  0  0  0  0  0  0  0
    0.9411   -2.2540    3.7634 H   0  0  0  0  0  0  0  0  0  0  0  0
   -2.7702    3.8555    0.6926 H   0  0  0  0  0  0  0  0  0  0  0  0
   -2.7844    3.8428   -1.1231 H   0  0  0  0  0  0  0  0  0  0  0  0
   -4.2411    4.4002   -0.2086 H   0  0  0  0  0  0  0  0  0  0  0  0
   -5.1537   -0.3956    0.7374 H   0  0  0  0  0  0  0  0  0  0  0  0
   -5.0343   -0.8723   -0.9729 H   0  0  0  0  0  0  0  0  0  0  0  0
   -4.2872   -2.5085    1.5253 H   0  0  0  0  0  0  0  0  0  0  0  0
   -5.1388   -3.0960    0.0699 H   0  0  0  0  0  0  0  0  0  0  0  0
   -2.4385   -3.6021    0.4180 H   0  0  0  0  0  0  0  0  0  0  0  0
   -3.0448   -3.1880   -1.2059 H   0  0  0  0  0  0  0  0  0  0  0  0
  2  9  1  0  0  0  0
  3 25  1  0  0  0  0
  4 14  1  0  0  0  0
  5 19  1  0  0  0  0
  6 20  1  0  0  0  0
  7 22  1  0  0  0  0
  7  6  1  0  0  0  0
  8 48  1  0  0  0  0
  8  2  1  0  0  0  0
  8 46  1  0  0  0  0
  9  1  1  6  0  0  0
  9 10  1  0  0  0  0
 10 11  1  0  0  0  0
 11 12  1  0  0  0  0
 11 49  1  0  0  0  0
 12 51  1  0  0  0  0
 13 53  1  0  0  0  0
 13 12  1  0  0  0  0
 14 13  1  0  0  0  0
 14 10  2  0  0  0  0
 15  4  1  0  0  0  0
 15 26  1  0  0  0  0
 16 28  1  6  0  0  0
 16 15  1  0  0  0  0
 16  5  1  0  0  0  0
 17 16  1  0  0  0  0
 17 29  1  0  0  0  0
 18  7  1  0  0  0  0
 18  5  1  0  0  0  0
 19 35  1  0  0  0  0
 19  3  1  0  0  0  0
 20 23  1  1  0  0  0
 21 20  1  0  0  0  0
 21 36  1  0  0  0  0
 22 21  2  0  0  0  0
 23 39  1  0  0  0  0
 23 37  1  0  0  0  0
 24 42  1  0  0  0  0
 24 40  1  0  0  0  0
 24 22  1  0  0  0  0
 25 43  1  0  0  0  0
 25 44  1  0  0  0  0
 25 45  1  0  0  0  0
 27 15  1  0  0  0  0
 30 17  1  0  0  0  0
 31 17  1  0  0  0  0
 32 18  1  0  0  0  0
 33 18  1  0  0  0  0
 34 19  1  0  0  0  0
 38 23  1  0  0  0  0
 41 24  1  0  0  0  0
 47  8  1  0  0  0  0
 50 11  1  0  0  0  0
 52 12  1  0  0  0  0
 54 13  1  0  0  0  0
M  END
