1,2,5,8
 OpenBabel05122313063D

 67 66  0  0  0  0  0  0  0  0999 V2000
    0.5977    2.1978    1.6327 S   0  0  0  0  0  0  0  0  0  0  0  0
    1.5140   -0.4292   -0.7223 N   0  0  0  0  0  2  0  0  0  0  0  0
    3.4457   -1.8412   -0.6943 N   0  0  0  0  0  0  0  0  0  0  0  0
    1.4180   -2.5546    0.2464 N   0  0  0  0  0  0  0  0  0  0  0  0
   -1.9404    0.2956   -0.4319 N   0  0  0  0  0  2  0  0  0  0  0  0
   -3.9155   -1.0283   -0.6718 N   0  0  0  0  0  0  0  0  0  0  0  0
   -3.0421   -0.5514    1.4508 N   0  0  0  0  0  0  0  0  0  0  0  0
    0.1355    1.9777   -1.5209 N   0  0  0  0  0  0  0  0  0  0  0  0
    2.1217   -1.5551   -0.4003 C   0  0  0  0  0  3  0  0  0  0  0  0
    4.4923   -0.8464   -0.5370 C   0  0  0  0  0  0  0  0  0  0  0  0
    5.3380   -1.2824    0.0384 H   0  0  0  0  0  0  0  0  0  0  0  0
    4.1103    0.0182    0.0341 H   0  0  0  0  0  0  0  0  0  0  0  0
    4.8977   -0.4822   -1.5072 H   0  0  0  0  0  0  0  0  0  0  0  0
    3.8761   -3.1658   -1.1162 C   0  0  0  0  0  0  0  0  0  0  0  0
    4.4627   -3.0920   -2.0576 H   0  0  0  0  0  0  0  0  0  0  0  0
    2.9929   -3.8021   -1.3039 H   0  0  0  0  0  0  0  0  0  0  0  0
    4.5186   -3.6668   -0.3573 H   0  0  0  0  0  0  0  0  0  0  0  0
    2.0052   -3.2744    1.3699 C   0  0  0  0  0  0  0  0  0  0  0  0
    1.8679   -4.3712    1.2658 H   0  0  0  0  0  0  0  0  0  0  0  0
    1.5331   -2.9569    2.3276 H   0  0  0  0  0  0  0  0  0  0  0  0
    3.0859   -3.0597    1.4378 H   0  0  0  0  0  0  0  0  0  0  0  0
   -0.0298   -2.5411    0.2076 C   0  0  0  0  0  0  0  0  0  0  0  0
   -0.4109   -3.5584    0.4297 H   0  0  0  0  0  0  0  0  0  0  0  0
   -0.3771   -2.2249   -0.7928 H   0  0  0  0  0  0  0  0  0  0  0  0
   -0.4654   -1.8216    0.9446 H   0  0  0  0  0  0  0  0  0  0  0  0
   -3.4127   -1.8226    2.0571 C   0  0  0  0  0  0  0  0  0  0  0  0
   -4.2754   -1.7128    2.7481 H   0  0  0  0  0  0  0  0  0  0  0  0
   -2.5591   -2.2370    2.6396 H   0  0  0  0  0  0  0  0  0  0  0  0
   -3.6785   -2.5549    1.2747 H   0  0  0  0  0  0  0  0  0  0  0  0
   -2.4073    0.4051    2.3362 C   0  0  0  0  0  0  0  0  0  0  0  0
   -2.9605    0.4374    3.2965 H   0  0  0  0  0  0  0  0  0  0  0  0
   -2.4192    1.4091    1.8751 H   0  0  0  0  0  0  0  0  0  0  0  0
   -1.3420    0.1481    2.5465 H   0  0  0  0  0  0  0  0  0  0  0  0
   -3.6021   -1.7310   -1.9038 C   0  0  0  0  0  0  0  0  0  0  0  0
   -4.0710   -2.7391   -1.8888 H   0  0  0  0  0  0  0  0  0  0  0  0
   -2.5096   -1.8693   -1.9940 H   0  0  0  0  0  0  0  0  0  0  0  0
   -3.9690   -1.2027   -2.8119 H   0  0  0  0  0  0  0  0  0  0  0  0
   -5.3099   -1.0504   -0.2556 C   0  0  0  0  0  0  0  0  0  0  0  0
   -5.9570   -0.6760   -1.0783 H   0  0  0  0  0  0  0  0  0  0  0  0
   -5.4481   -0.3935    0.6216 H   0  0  0  0  0  0  0  0  0  0  0  0
   -5.6594   -2.0738    0.0093 H   0  0  0  0  0  0  0  0  0  0  0  0
   -2.9295   -0.4122    0.0827 C   0  0  0  0  0  3  0  0  0  0  0  0
    2.7889    0.8550    2.6024 C   0  0  0  0  0  0  0  0  0  0  0  0
    3.8893    0.7592    2.6928 H   0  0  0  0  0  0  0  0  0  0  0  0
    2.3948   -0.0611    2.1171 H   0  0  0  0  0  0  0  0  0  0  0  0
    2.3705    0.9123    3.6271 H   0  0  0  0  0  0  0  0  0  0  0  0
    2.4291    2.0878    1.7831 C   0  0  0  0  0  0  0  0  0  0  0  0
    2.8606    2.0296    0.7631 H   0  0  0  0  0  0  0  0  0  0  0  0
    2.7892    3.0205    2.2639 H   0  0  0  0  0  0  0  0  0  0  0  0
    0.4024    3.5570    0.4085 C   0  0  0  0  0  0  0  0  0  0  0  0
   -0.6711    3.8250    0.4818 H   0  0  0  0  0  0  0  0  0  0  0  0
    0.9769    4.4398    0.7567 H   0  0  0  0  0  0  0  0  0  0  0  0
    0.7941    3.1878   -1.0273 C   0  0  0  0  0  0  0  0  0  0  0  0
    0.5898    4.0701   -1.6832 H   0  0  0  0  0  0  0  0  0  0  0  0
    1.8895    3.0253   -1.0707 H   0  0  0  0  0  0  0  0  0  0  0  0
    2.0546    0.4121   -1.7824 C   0  0  0  0  0  0  0  0  0  0  0  0
    2.5968   -0.1890   -2.5466 H   0  0  0  0  0  0  0  0  0  0  0  0
    2.8045    1.1370   -1.3872 H   0  0  0  0  0  0  0  0  0  0  0  0
    0.9348    1.2002   -2.4770 C   0  0  0  0  0  0  0  0  0  0  0  0
    1.3717    1.8433   -3.2789 H   0  0  0  0  0  0  0  0  0  0  0  0
    0.2589    0.4795   -2.9772 H   0  0  0  0  0  0  0  0  0  0  0  0
   -2.0789    0.8603   -1.7689 C   0  0  0  0  0  0  0  0  0  0  0  0
   -3.1424    1.0769   -2.0153 H   0  0  0  0  0  0  0  0  0  0  0  0
   -1.7280    0.1476   -2.5506 H   0  0  0  0  0  0  0  0  0  0  0  0
   -1.2729    2.1602   -1.8962 C   0  0  0  0  0  0  0  0  0  0  0  0
   -1.3800    2.5648   -2.9323 H   0  0  0  0  0  0  0  0  0  0  0  0
   -1.7112    2.9115   -1.2093 H   0  0  0  0  0  0  0  0  0  0  0  0
  1 47  1  0  0  0  0
  2  9  1  0  0  0  0
  3 10  1  0  0  0  0
  3  9  1  0  0  0  0
  4 18  1  0  0  0  0
  5 42  1  0  0  0  0
  6 38  1  0  0  0  0
  6 42  1  0  0  0  0
  7 26  1  0  0  0  0
  7 30  1  0  0  0  0
  8 53  1  0  0  0  0
  9  4  1  0  0  0  0
 10 12  1  0  0  0  0
 10 11  1  0  0  0  0
 13 10  1  0  0  0  0
 14  3  1  0  0  0  0
 14 17  1  0  0  0  0
 15 14  1  0  0  0  0
 16 14  1  0  0  0  0
 18 21  1  0  0  0  0
 18 20  1  0  0  0  0
 19 18  1  0  0  0  0
 22  4  1  0  0  0  0
 22 23  1  0  0  0  0
 22 25  1  0  0  0  0
 24 22  1  0  0  0  0
 26 28  1  0  0  0  0
 26 27  1  0  0  0  0
 29 26  1  0  0  0  0
 30 33  1  0  0  0  0
 30 31  1  0  0  0  0
 32 30  1  0  0  0  0
 34 35  1  0  0  0  0
 34  6  1  0  0  0  0
 36 34  1  0  0  0  0
 37 34  1  0  0  0  0
 38 41  1  0  0  0  0
 38 40  1  0  0  0  0
 39 38  1  0  0  0  0
 42  7  1  0  0  0  0
 43 44  1  0  0  0  0
 43 46  1  0  0  0  0
 45 43  1  0  0  0  0
 47 49  1  0  0  0  0
 47 43  1  0  0  0  0
 48 47  1  0  0  0  0
 50 51  1  0  0  0  0
 50 52  1  0  0  0  0
 50  1  1  0  0  0  0
 53 50  1  0  0  0  0
 54 53  1  0  0  0  0
 55 53  1  0  0  0  0
 56 58  1  0  0  0  0
 56  2  1  0  0  0  0
 57 56  1  0  0  0  0
 59 56  1  0  0  0  0
 59  8  1  0  0  0  0
 60 59  1  0  0  0  0
 61 59  1  0  0  0  0
 62  5  1  0  0  0  0
 63 62  1  0  0  0  0
 64 62  1  0  0  0  0
 65 62  1  0  0  0  0
 65  8  1  0  0  0  0
 65 67  1  0  0  0  0
 66 65  1  0  0  0  0
M  END
