40,41,42,43
 OpenBabel05122313063D

 45 47  0  0  1  0  0  0  0  0999 V2000
    0.5322    3.4924   -0.8359 C   0  0  1  0  0  3  0  0  0  0  0  0
   -1.2658    0.4480   -0.4243 C   0  0  0  0  0  0  0  0  0  0  0  0
   -0.7447   -0.9428   -0.3590 C   0  0  0  0  0  0  0  0  0  0  0  0
    2.6729   -1.9351   -0.0505 C   0  0  2  0  0  3  0  0  0  0  0  0
    3.5236   -3.0546    0.0493 C   0  0  0  0  0  0  0  0  0  0  0  0
    3.1089   -4.0723    0.0087 H   0  0  0  0  0  0  0  0  0  0  0  0
    4.8923   -2.8302    0.1984 C   0  0  0  0  0  0  0  0  0  0  0  0
    5.5807   -3.6841    0.2800 H   0  0  0  0  0  0  0  0  0  0  0  0
    5.3823   -1.5108    0.2432 C   0  0  0  0  0  0  0  0  0  0  0  0
    6.4537   -1.3000    0.3606 H   0  0  0  0  0  0  0  0  0  0  0  0
    4.4683   -0.4624    0.1427 C   0  0  0  0  0  0  0  0  0  0  0  0
    4.7936    0.5888    0.1855 H   0  0  0  0  0  0  0  0  0  0  0  0
   -2.6753    0.7960   -0.1313 C   0  0  0  0  0  0  0  0  0  0  0  0
   -1.6196   -2.1356   -0.2814 C   0  0  0  0  0  0  0  0  0  0  0  0
   -2.9274    1.5910    1.0138 C   0  0  0  0  0  0  0  0  0  0  0  0
   -2.0841    1.8735    1.6674 H   0  0  0  0  0  0  0  0  0  0  0  0
   -4.2452    1.9473    1.3358 C   0  0  0  0  0  0  0  0  0  0  0  0
   -4.4437    2.5492    2.2353 H   0  0  0  0  0  0  0  0  0  0  0  0
   -5.3085    1.5206    0.5230 C   0  0  0  0  0  0  0  0  0  0  0  0
   -6.3412    1.8012    0.7782 H   0  0  0  0  0  0  0  0  0  0  0  0
   -5.0581    0.7278   -0.6098 C   0  0  0  0  0  0  0  0  0  0  0  0
   -5.8933    0.3906   -1.2413 H   0  0  0  0  0  0  0  0  0  0  0  0
   -3.7464    0.3583   -0.9376 C   0  0  0  0  0  0  0  0  0  0  0  0
   -3.5487   -0.2689   -1.8193 H   0  0  0  0  0  0  0  0  0  0  0  0
   -2.5535   -2.2747    0.7698 C   0  0  0  0  0  0  0  0  0  0  0  0
   -2.6449   -1.4824    1.5267 H   0  0  0  0  0  0  0  0  0  0  0  0
   -3.3456   -3.4272    0.8544 C   0  0  0  0  0  0  0  0  0  0  0  0
   -4.0663   -3.5319    1.6789 H   0  0  0  0  0  0  0  0  0  0  0  0
   -3.2208   -4.4456   -0.1049 C   0  0  0  0  0  0  0  0  0  0  0  0
   -3.8491   -5.3461   -0.0361 H   0  0  0  0  0  0  0  0  0  0  0  0
   -2.2965   -4.3139   -1.1534 C   0  0  0  0  0  0  0  0  0  0  0  0
   -2.2057   -5.1045   -1.9130 H   0  0  0  0  0  0  0  0  0  0  0  0
   -1.4951   -3.1662   -1.2429 C   0  0  0  0  0  0  0  0  0  0  0  0
   -0.7945   -3.0502   -2.0851 H   0  0  0  0  0  0  0  0  0  0  0  0
   -1.4923    3.0261   -0.4682 H   0  0  0  0  0  0  0  0  0  0  0  0
    0.8637   -3.0253   -0.1687 H   0  0  0  0  0  0  0  0  0  0  0  0
    0.2583    4.8083   -0.8961 N   0  0  0  0  0  0  0  0  0  0  0  0
   -0.5524    2.6570   -0.6859 N   0  0  0  0  0  0  0  0  0  0  0  0
    1.2990   -2.0934   -0.2175 N   0  0  0  0  0  0  0  0  0  0  0  0
   -0.3383    1.3408   -0.6414 N   0  0  0  0  0  2  0  0  0  0  0  0
    0.5628   -0.9959   -0.3158 N   0  0  0  0  0  2  0  0  0  0  0  0
    3.1397   -0.6647   -0.0022 N   0  0  0  0  0  2  0  0  0  0  0  0
    2.1320    2.9261   -0.9762 S   0  0  0  0  0  1  0  0  0  0  0  0
    1.0363    5.4653   -0.9621 H   0  0  0  0  0  0  0  0  0  0  0  0
   -0.6942    5.1765   -0.9299 H   0  0  0  0  0  0  0  0  0  0  0  0
  1 43  1  6  0  0  0
  1 38  1  0  0  0  0
  2  3  2  0  0  0  0
  2 13  1  0  0  0  0
  3 41  1  0  0  0  0
  3 14  1  0  0  0  0
  4 39  1  6  0  0  0
  4 42  1  0  0  0  0
  4  5  1  0  0  0  0
  5  7  2  0  0  0  0
  6  5  1  0  0  0  0
  7  9  1  0  0  0  0
  7  8  1  0  0  0  0
  9 10  1  0  0  0  0
 11 12  1  0  0  0  0
 11  9  2  0  0  0  0
 13 15  1  0  0  0  0
 14 25  1  0  0  0  0
 15 17  2  0  0  0  0
 15 16  1  0  0  0  0
 17 18  1  0  0  0  0
 19 20  1  0  0  0  0
 19 17  1  0  0  0  0
 21 19  2  0  0  0  0
 22 21  1  0  0  0  0
 23 21  1  0  0  0  0
 23 13  2  0  0  0  0
 24 23  1  0  0  0  0
 25 27  2  0  0  0  0
 25 26  1  0  0  0  0
 27 28  1  0  0  0  0
 29 30  1  0  0  0  0
 29 27  1  0  0  0  0
 31 29  2  0  0  0  0
 32 31  1  0  0  0  0
 33 31  1  0  0  0  0
 33 14  2  0  0  0  0
 34 33  1  0  0  0  0
 37  1  1  0  0  0  0
 38 40  1  0  0  0  0
 38 35  1  0  0  0  0
 39 36  1  0  0  0  0
 40  2  1  0  0  0  0
 41 39  1  0  0  0  0
 42 11  1  0  0  0  0
 44 37  1  0  0  0  0
 45 37  1  0  0  0  0
M  END
