1,3,4,5
 OpenBabel05122313063D

 37 40  0  0  1  0  0  0  0  0999 V2000
   -0.6948   -1.3137    1.9468 S   0  0  0  0  0  1  0  0  0  0  0  0
    3.7703   -1.3206   -1.5824 S   0  0  0  0  0  0  0  0  0  0  0  0
   -0.1136   -0.4321   -1.9361 N   0  0  0  0  0  2  0  0  0  0  0  0
   -2.0897   -0.7769   -0.4853 N   0  0  0  0  0  2  0  0  0  0  0  0
    1.6940   -0.5995   -0.1324 N   0  0  0  0  0  2  0  0  0  0  0  0
   -1.2499   -0.5489   -2.6854 C   0  0  1  0  0  3  0  0  0  0  0  0
   -1.1685   -0.8602   -4.0389 C   0  0  0  0  0  0  0  0  0  0  0  0
    0.1009   -1.1339   -4.6074 C   0  0  0  0  0  0  0  0  0  0  0  0
    1.2383   -1.1472   -3.8015 C   0  0  0  0  0  0  0  0  0  0  0  0
    1.1078   -0.8138   -2.4353 C   0  0  0  0  0  0  0  0  0  0  0  0
   -2.4739   -0.3920   -1.8348 C   0  0  0  0  0  0  0  0  0  0  0  0
   -2.9453   -1.3983    0.4000 C   0  0  0  0  0  0  0  0  0  0  0  0
   -4.2929   -1.7535    0.1337 C   0  0  0  0  0  0  0  0  0  0  0  0
   -5.0565   -2.3955    1.1120 C   0  0  0  0  0  0  0  0  0  0  0  0
   -4.5037   -2.7029    2.3726 C   0  0  0  0  0  0  0  0  0  0  0  0
   -3.1774   -2.3581    2.6556 C   0  0  0  0  0  0  0  0  0  0  0  0
   -2.3906   -1.7132    1.6829 C   0  0  0  0  0  0  0  0  0  0  0  0
    2.0899   -0.8762   -1.4000 C   0  0  2  0  0  3  0  0  0  0  0  0
    2.7439   -0.7953    0.7736 C   0  0  0  0  0  0  0  0  0  0  0  0
    2.6838   -0.7032    2.1784 C   0  0  0  0  0  0  0  0  0  0  0  0
    3.8430   -0.9445    2.9211 C   0  0  0  0  0  0  0  0  0  0  0  0
    5.0606   -1.2812    2.2921 C   0  0  0  0  0  0  0  0  0  0  0  0
    5.1362   -1.4056    0.9000 C   0  0  0  0  0  0  0  0  0  0  0  0
    3.9704   -1.1688    0.1556 C   0  0  0  0  0  0  0  0  0  0  0  0
   -2.0857   -0.9430   -4.6384 H   0  0  0  0  0  0  0  0  0  0  0  0
    0.1796   -1.3942   -5.6728 H   0  0  0  0  0  0  0  0  0  0  0  0
    2.2202   -1.4380   -4.2014 H   0  0  0  0  0  0  0  0  0  0  0  0
   -2.6882    0.7181   -1.7761 H   0  0  0  0  0  0  0  0  0  0  0  0
   -3.3431   -0.9358   -2.2523 H   0  0  0  0  0  0  0  0  0  0  0  0
   -4.7492   -1.5052   -0.8350 H   0  0  0  0  0  0  0  0  0  0  0  0
   -6.1042   -2.6535    0.8950 H   0  0  0  0  0  0  0  0  0  0  0  0
   -5.1148   -3.2082    3.1353 H   0  0  0  0  0  0  0  0  0  0  0  0
   -2.7310   -2.5851    3.6355 H   0  0  0  0  0  0  0  0  0  0  0  0
    1.7371   -0.4584    2.6765 H   0  0  0  0  0  0  0  0  0  0  0  0
    3.7990   -0.8743    4.0177 H   0  0  0  0  0  0  0  0  0  0  0  0
    5.9594   -1.4616    2.9002 H   0  0  0  0  0  0  0  0  0  0  0  0
    6.0761   -1.6874    0.4042 H   0  0  0  0  0  0  0  0  0  0  0  0
  2 18  1  0  0  0  0
  2 24  1  0  0  0  0
  4 12  1  0  0  0  0
  5 19  1  0  0  0  0
  6  3  1  0  0  0  0
  6 11  1  1  0  0  0
  7  6  1  0  0  0  0
  8  7  2  0  0  0  0
  8  9  1  0  0  0  0
  9 10  2  0  0  0  0
 10  3  1  0  0  0  0
 11 28  1  0  0  0  0
 11  4  1  0  0  0  0
 12 17  1  0  0  0  0
 13 12  2  0  0  0  0
 13 14  1  0  0  0  0
 14 15  2  0  0  0  0
 15 16  1  0  0  0  0
 15 32  1  0  0  0  0
 16 33  1  0  0  0  0
 17  1  1  0  0  0  0
 17 16  2  0  0  0  0
 18 10  1  1  0  0  0
 18  5  1  0  0  0  0
 19 20  1  0  0  0  0
 20 34  1  0  0  0  0
 20 21  2  0  0  0  0
 21 35  1  0  0  0  0
 22 36  1  0  0  0  0
 22 21  1  0  0  0  0
 23 22  2  0  0  0  0
 24 19  2  0  0  0  0
 24 23  1  0  0  0  0
 25  7  1  0  0  0  0
 26  8  1  0  0  0  0
 27  9  1  0  0  0  0
 29 11  1  0  0  0  0
 30 13  1  0  0  0  0
 31 14  1  0  0  0  0
 37 23  1  0  0  0  0
M  END
