1,3,4,5
 OpenBabel05122313063D

 25 24  0  0  0  0  0  0  0  0999 V2000
    0.1078   -1.7174   -0.7581 S   0  0  0  0  0  0  0  0  0  0  0  0
    3.6378    0.1158   -0.9471 O   0  0  0  0  0  0  0  0  0  0  0  0
    0.2656   -0.4967    1.9368 N   0  0  0  0  0  0  0  0  0  0  0  0
    1.5210    0.7395   -0.2748 N   0  0  0  0  0  2  0  0  0  0  0  0
   -0.3436    2.1092    0.9792 N   0  0  0  0  0  0  0  0  0  0  0  0
    1.0177   -1.7722    1.8342 C   0  0  0  0  0  0  0  0  0  0  0  0
    0.3459   -2.6550    0.8006 C   0  0  0  0  0  0  0  0  0  0  0  0
    1.8327   -1.4324   -1.3253 C   0  0  0  0  0  0  0  0  0  0  0  0
    2.4361   -0.1079   -0.8150 C   0  0  0  0  0  0  0  0  0  0  0  0
    1.9831    2.0003    0.2908 C   0  0  0  0  0  0  0  0  0  0  0  0
    0.7677    2.9130    0.3827 C   0  0  0  0  0  0  0  0  0  0  0  0
   -0.6688   -0.6589    2.3568 H   0  0  0  0  0  0  0  0  0  0  0  0
    0.7805    0.1438    2.5589 H   0  0  0  0  0  0  0  0  0  0  0  0
   -0.2350    2.0703    2.0049 H   0  0  0  0  0  0  0  0  0  0  0  0
   -1.2687    2.5482    0.8451 H   0  0  0  0  0  0  0  0  0  0  0  0
    2.0592   -1.5353    1.5385 H   0  0  0  0  0  0  0  0  0  0  0  0
    1.0597   -2.2902    2.8167 H   0  0  0  0  0  0  0  0  0  0  0  0
    0.9176   -3.5786    0.5841 H   0  0  0  0  0  0  0  0  0  0  0  0
   -0.6823   -2.9432    1.1024 H   0  0  0  0  0  0  0  0  0  0  0  0
    1.8042   -1.4362   -2.4342 H   0  0  0  0  0  0  0  0  0  0  0  0
    2.4638   -2.2902   -1.0197 H   0  0  0  0  0  0  0  0  0  0  0  0
    2.7880    2.4493   -0.3280 H   0  0  0  0  0  0  0  0  0  0  0  0
    2.4325    1.8564    1.3058 H   0  0  0  0  0  0  0  0  0  0  0  0
    0.9620    3.8341    0.9697 H   0  0  0  0  0  0  0  0  0  0  0  0
    0.4506    3.2263   -0.6330 H   0  0  0  0  0  0  0  0  0  0  0  0
  1  7  1  0  0  0  0
  2  9  2  0  0  0  0
  3 12  1  0  0  0  0
  3 13  1  0  0  0  0
  4 10  1  0  0  0  0
  5 14  1  0  0  0  0
  6  3  1  0  0  0  0
  6 17  1  0  0  0  0
  7 19  1  0  0  0  0
  7  6  1  0  0  0  0
  8 21  1  0  0  0  0
  8  9  1  0  0  0  0
  8  1  1  0  0  0  0
  9  4  1  0  0  0  0
 10 11  1  0  0  0  0
 10 23  1  0  0  0  0
 11 24  1  0  0  0  0
 11  5  1  0  0  0  0
 15  5  1  0  0  0  0
 16  6  1  0  0  0  0
 18  7  1  0  0  0  0
 20  8  1  0  0  0  0
 22 10  1  0  0  0  0
 25 11  1  0  0  0  0
M  END
