2,5,7,12
 OpenBabel05122313063D

 33 33  0  0  1  0  0  0  0  0999 V2000
    3.4117   -0.6641    0.7053 S   0  0  0  0  0  0  0  0  0  0  0  0
   -2.3203    0.3595    1.6508 S   0  0  0  0  0  0  0  0  0  0  0  0
    0.3826    3.1660   -1.6427 S   0  0  0  0  0  0  0  0  0  0  0  0
    2.6817   -1.8322    0.1018 O   0  0  0  0  0  0  0  0  0  0  0  0
   -0.8021    1.1096   -0.6338 N   0  0  0  0  0  2  0  0  0  0  0  0
    4.6126   -0.9052    1.5017 O   0  0  0  0  0  0  0  0  0  0  0  0
    0.3545   -0.8282    1.0691 N   0  0  0  0  0  2  0  0  0  0  0  0
    2.3864    0.3315    1.6071 N   0  0  0  0  0  0  0  0  0  0  0  0
    1.1337    0.6029   -1.9894 N   0  0  0  0  0  0  0  0  0  0  0  0
    1.8742   -1.4670   -2.6658 N   0  0  0  0  0  0  0  0  0  0  0  0
    3.8605    0.2978   -0.6006 N   0  0  0  0  0  0  0  0  0  0  0  0
   -0.1699   -1.3404   -1.5173 N   0  0  0  0  0  2  0  0  0  0  0  0
    1.0712    0.1930    1.5885 C   0  0  0  0  0  0  0  0  0  0  0  0
    0.3117    1.2807    2.3295 C   0  0  0  0  0  0  0  0  0  0  0  0
    0.2120    2.1795    1.6867 H   0  0  0  0  0  0  0  0  0  0  0  0
    0.9479    1.5999    3.1800 H   0  0  0  0  0  0  0  0  0  0  0  0
    0.9252   -0.7315   -2.0156 C   0  0  2  0  0  3  0  0  0  0  0  0
   -0.9888    3.4220   -0.5979 C   0  0  0  0  0  0  0  0  0  0  0  0
   -1.4890    2.2224   -0.1611 C   0  0  0  0  0  0  0  0  0  0  0  0
   -1.0344    0.8336    2.8822 C   0  0  0  0  0  0  0  0  0  0  0  0
   -1.5114    1.6125    3.5106 H   0  0  0  0  0  0  0  0  0  0  0  0
   -0.9300   -0.0807    3.5003 H   0  0  0  0  0  0  0  0  0  0  0  0
   -2.6216    1.9569    0.7789 C   0  0  0  0  0  0  0  0  0  0  0  0
   -3.5962    1.8225    0.2606 H   0  0  0  0  0  0  0  0  0  0  0  0
   -2.7653    2.7596    1.5286 H   0  0  0  0  0  0  0  0  0  0  0  0
    0.2477    1.4156   -1.4303 C   0  0  0  0  0  0  0  0  0  0  0  0
    4.4815    1.0523   -0.2806 H   0  0  0  0  0  0  0  0  0  0  0  0
    1.0174   -1.4886    0.6145 H   0  0  0  0  0  0  0  0  0  0  0  0
    2.1344   -2.3539   -2.2252 H   0  0  0  0  0  0  0  0  0  0  0  0
   -0.1207   -2.3589   -1.6504 H   0  0  0  0  0  0  0  0  0  0  0  0
    2.6893   -0.9232   -2.9608 H   0  0  0  0  0  0  0  0  0  0  0  0
   -1.3417    4.4311   -0.3571 H   0  0  0  0  0  0  0  0  0  0  0  0
    3.0326    0.6641   -1.1099 H   0  0  0  0  0  0  0  0  0  0  0  0
  1  6  2  0  0  0  0
  1  8  1  0  0  0  0
  2 20  1  0  0  0  0
  3 26  1  0  0  0  0
  3 18  1  0  0  0  0
  4  1  2  0  0  0  0
  5 19  1  0  0  0  0
  7 13  1  0  0  0  0
  9 26  2  0  0  0  0
 10 29  1  0  0  0  0
 10 17  1  0  0  0  0
 11 27  1  0  0  0  0
 11  1  1  0  0  0  0
 13  8  2  0  0  0  0
 13 14  1  0  0  0  0
 14 20  1  0  0  0  0
 14 16  1  0  0  0  0
 15 14  1  0  0  0  0
 17  9  1  6  0  0  0
 17 12  1  0  0  0  0
 18 32  1  0  0  0  0
 18 19  2  0  0  0  0
 19 23  1  0  0  0  0
 20 22  1  0  0  0  0
 20 21  1  0  0  0  0
 23 25  1  0  0  0  0
 23  2  1  0  0  0  0
 24 23  1  0  0  0  0
 26  5  1  0  0  0  0
 28  7  1  0  0  0  0
 30 12  1  0  0  0  0
 31 10  1  0  0  0  0
 33 11  1  0  0  0  0
M  END
