1,2,3
 OpenBabel05122313063D

 57 57  0  0  1  0  0  0  0  0999 V2000
    0.6832   -1.9608    0.2801 Si  0  0  0  0  0  3  0  0  0  0  0  0
    2.4989    0.3725    0.2091 N   0  0  0  0  0  2  0  0  0  0  0  0
    1.0252    2.7403    0.1311 N   0  0  0  0  0  0  0  0  0  0  0  0
   -0.4969   -2.8952    1.5534 C   0  0  0  0  0  0  0  0  0  0  0  0
    0.1793   -4.1542    2.1335 C   0  0  0  0  0  0  0  0  0  0  0  0
    0.4164   -4.9112    1.3640 H   0  0  0  0  0  0  0  0  0  0  0  0
   -0.4954   -4.6387    2.8767 H   0  0  0  0  0  0  0  0  0  0  0  0
    1.1216   -3.9096    2.6662 H   0  0  0  0  0  0  0  0  0  0  0  0
   -0.8276   -1.9686    2.7370 C   0  0  0  0  0  0  0  0  0  0  0  0
   -1.4341   -2.5202    3.4920 H   0  0  0  0  0  0  0  0  0  0  0  0
   -1.4088   -1.0833    2.4192 H   0  0  0  0  0  0  0  0  0  0  0  0
    0.0837   -1.5987    3.2516 H   0  0  0  0  0  0  0  0  0  0  0  0
   -1.8158   -3.2901    0.8631 C   0  0  0  0  0  0  0  0  0  0  0  0
   -2.3299   -2.4114    0.4210 H   0  0  0  0  0  0  0  0  0  0  0  0
   -2.5167   -3.7516    1.5967 H   0  0  0  0  0  0  0  0  0  0  0  0
   -1.6583   -4.0292    0.0521 H   0  0  0  0  0  0  0  0  0  0  0  0
    0.9711   -2.9924   -1.3708 C   0  0  0  0  0  0  0  0  0  0  0  0
   -0.1999   -2.8118   -2.3555 C   0  0  0  0  0  0  0  0  0  0  0  0
   -0.0353   -3.4413   -3.2605 H   0  0  0  0  0  0  0  0  0  0  0  0
   -0.2622   -1.7579   -2.6915 H   0  0  0  0  0  0  0  0  0  0  0  0
   -1.1757   -3.1095   -1.9206 H   0  0  0  0  0  0  0  0  0  0  0  0
    2.2515   -2.4472   -2.0357 C   0  0  0  0  0  0  0  0  0  0  0  0
    2.1707   -1.3618   -2.2463 H   0  0  0  0  0  0  0  0  0  0  0  0
    2.4182   -2.9651   -3.0082 H   0  0  0  0  0  0  0  0  0  0  0  0
    3.1543   -2.6266   -1.4159 H   0  0  0  0  0  0  0  0  0  0  0  0
    1.1738   -4.4932   -1.0959 C   0  0  0  0  0  0  0  0  0  0  0  0
    1.4619   -5.0106   -2.0399 H   0  0  0  0  0  0  0  0  0  0  0  0
    0.2518   -4.9864   -0.7273 H   0  0  0  0  0  0  0  0  0  0  0  0
    1.9824   -4.6864   -0.3600 H   0  0  0  0  0  0  0  0  0  0  0  0
    2.4244   -1.8792    1.1595 C   0  0  0  0  0  0  0  0  0  0  0  0
    2.1574   -1.6674    2.2207 H   0  0  0  0  0  0  0  0  0  0  0  0
    3.0351   -2.8045    1.1572 H   0  0  0  0  0  0  0  0  0  0  0  0
    3.2101   -0.7189    0.6494 C   0  0  2  0  0  3  0  0  0  0  0  0
    4.6164   -0.6911    0.6133 C   0  0  0  0  0  0  0  0  0  0  0  0
    5.1665   -1.5830    0.9449 H   0  0  0  0  0  0  0  0  0  0  0  0
    5.2942    0.4556    0.1879 C   0  0  0  0  0  0  0  0  0  0  0  0
    6.3938    0.4810    0.1669 H   0  0  0  0  0  0  0  0  0  0  0  0
    4.5466    1.5808   -0.1864 C   0  0  0  0  0  0  0  0  0  0  0  0
    5.0340    2.5152   -0.4997 H   0  0  0  0  0  0  0  0  0  0  0  0
    3.1497    1.5117   -0.1738 C   0  0  0  0  0  0  0  0  0  0  0  0
    2.2814    2.6528   -0.6412 C   0  0  0  0  0  0  0  0  0  0  0  0
    2.8674    3.6011   -0.6081 H   0  0  0  0  0  0  0  0  0  0  0  0
    1.9940    2.4353   -1.6941 H   0  0  0  0  0  0  0  0  0  0  0  0
   -0.0244    3.4968   -0.5902 C   0  0  0  0  0  0  0  0  0  0  0  0
   -0.9757    3.3442   -0.0412 H   0  0  0  0  0  0  0  0  0  0  0  0
   -0.1453    2.9777   -1.5636 H   0  0  0  0  0  0  0  0  0  0  0  0
    0.2353    4.9910   -0.7929 C   0  0  0  0  0  0  0  0  0  0  0  0
    1.1712    5.1789   -1.3576 H   0  0  0  0  0  0  0  0  0  0  0  0
    0.2955    5.5517    0.1624 H   0  0  0  0  0  0  0  0  0  0  0  0
   -0.5935    5.4329   -1.3816 H   0  0  0  0  0  0  0  0  0  0  0  0
    1.3215    3.2425    1.4904 C   0  0  0  0  0  0  0  0  0  0  0  0
    1.7773    4.2611    1.4209 H   0  0  0  0  0  0  0  0  0  0  0  0
    2.1087    2.5801    1.9050 H   0  0  0  0  0  0  0  0  0  0  0  0
    0.1399    3.2680    2.4467 C   0  0  0  0  0  0  0  0  0  0  0  0
   -0.2562    2.2433    2.5853 H   0  0  0  0  0  0  0  0  0  0  0  0
   -0.6818    3.9246    2.0976 H   0  0  0  0  0  0  0  0  0  0  0  0
    0.4710    3.6456    3.4342 H   0  0  0  0  0  0  0  0  0  0  0  0
  1 30  1  0  0  0  0
  1  4  1  0  0  0  0
  2 33  1  0  0  0  0
  3 51  1  0  0  0  0
  4  5  1  0  0  0  0
  4  9  1  0  0  0  0
  5  8  1  0  0  0  0
  5  7  1  0  0  0  0
  6  5  1  0  0  0  0
  9 12  1  0  0  0  0
  9 10  1  0  0  0  0
 11  9  1  0  0  0  0
 13  4  1  0  0  0  0
 13 15  1  0  0  0  0
 14 13  1  0  0  0  0
 16 13  1  0  0  0  0
 17 26  1  0  0  0  0
 17  1  1  0  0  0  0
 18 21  1  0  0  0  0
 18 17  1  0  0  0  0
 19 18  1  0  0  0  0
 20 18  1  0  0  0  0
 22 25  1  0  0  0  0
 22 17  1  0  0  0  0
 23 22  1  0  0  0  0
 24 22  1  0  0  0  0
 26 28  1  0  0  0  0
 26 29  1  0  0  0  0
 27 26  1  0  0  0  0
 30 31  1  0  0  0  0
 32 30  1  0  0  0  0
 33 30  1  1  0  0  0
 34 33  1  0  0  0  0
 34 35  1  0  0  0  0
 36 34  2  0  0  0  0
 37 36  1  0  0  0  0
 38 40  2  0  0  0  0
 38 36  1  0  0  0  0
 39 38  1  0  0  0  0
 40  2  1  0  0  0  0
 41 42  1  0  0  0  0
 41 40  1  0  0  0  0
 41  3  1  0  0  0  0
 43 41  1  0  0  0  0
 44 45  1  0  0  0  0
 44  3  1  0  0  0  0
 46 44  1  0  0  0  0
 47 44  1  0  0  0  0
 47 49  1  0  0  0  0
 48 47  1  0  0  0  0
 50 47  1  0  0  0  0
 51 53  1  0  0  0  0
 51 54  1  0  0  0  0
 52 51  1  0  0  0  0
 54 55  1  0  0  0  0
 54 57  1  0  0  0  0
 56 54  1  0  0  0  0
M  END
