3,4,5
 OpenBabel05122313063D

 31 31  0  0  0  0  0  0  0  0999 V2000
   -1.5094   -2.3715    0.1107 S   0  0  0  0  0  0  0  0  0  0  0  0
   -1.5175    2.3693    0.1088 S   0  0  0  0  0  0  0  0  0  0  0  0
   -0.0885    0.0027    1.6503 O   0  5  0  0  0  0  0  0  0  0  0  0
   -2.4754   -1.2778   -0.6471 O   0  0  0  0  0  1  0  0  0  0  0  0
   -2.4785    1.2716   -0.6494 O   0  0  0  0  0  1  0  0  0  0  0  0
    0.1992    0.0007   -1.0649 N   0  0  0  0  0  0  0  0  0  0  0  0
    1.1412    0.0021    1.1717 C   0  0  0  0  0  0  0  0  0  0  0  0
    1.3827    0.0013   -0.2283 C   0  0  0  0  0  0  0  0  0  0  0  0
    2.6900    0.0010   -0.7421 C   0  0  0  0  0  0  0  0  0  0  0  0
    3.8091    0.0014    0.1094 C   0  0  0  0  0  0  0  0  0  0  0  0
    3.5648    0.0022    1.5040 C   0  0  0  0  0  0  0  0  0  0  0  0
    2.2726    0.0026    2.0321 C   0  0  0  0  0  0  0  0  0  0  0  0
    5.2177    0.0008   -0.4311 C   0  0  0  0  0  0  0  0  0  0  0  0
    0.0523   -1.2171   -1.8812 C   0  0  0  0  0  0  0  0  0  0  0  0
   -0.0470   -2.4667   -1.0231 C   0  0  0  0  0  0  0  0  0  0  0  0
    0.0505    1.2188   -1.8805 C   0  0  0  0  0  0  0  0  0  0  0  0
   -0.0527    2.4676   -1.0218 C   0  0  0  0  0  0  0  0  0  0  0  0
    2.8429    0.0004   -1.8344 H   0  0  0  0  0  0  0  0  0  0  0  0
    4.4228    0.0026    2.1960 H   0  0  0  0  0  0  0  0  0  0  0  0
    2.0961    0.0033    3.1175 H   0  0  0  0  0  0  0  0  0  0  0  0
    5.7872    0.8913   -0.0903 H   0  0  0  0  0  0  0  0  0  0  0  0
    5.2302    0.0001   -1.5386 H   0  0  0  0  0  0  0  0  0  0  0  0
    5.7866   -0.8898   -0.0893 H   0  0  0  0  0  0  0  0  0  0  0  0
   -0.8814   -1.1077   -2.4689 H   0  0  0  0  0  0  0  0  0  0  0  0
    0.8985   -1.3407   -2.5992 H   0  0  0  0  0  0  0  0  0  0  0  0
   -0.1669   -3.3653   -1.6615 H   0  0  0  0  0  0  0  0  0  0  0  0
    0.8401   -2.6048   -0.3712 H   0  0  0  0  0  0  0  0  0  0  0  0
   -0.8821    1.1077   -2.4695 H   0  0  0  0  0  0  0  0  0  0  0  0
    0.8975    1.3447   -2.5973 H   0  0  0  0  0  0  0  0  0  0  0  0
    0.8328    2.6065   -0.3678 H   0  0  0  0  0  0  0  0  0  0  0  0
   -0.1725    3.3664   -1.6597 H   0  0  0  0  0  0  0  0  0  0  0  0
  4  1  1  0  0  0  0
  5  2  1  0  0  0  0
  6  8  1  0  0  0  0
  7  3  1  0  0  0  0
  7 12  1  0  0  0  0
  8  7  2  0  0  0  0
  9  8  1  0  0  0  0
  9 10  2  0  0  0  0
 10 11  1  0  0  0  0
 11 12  2  0  0  0  0
 11 19  1  0  0  0  0
 12 20  1  0  0  0  0
 13 21  1  0  0  0  0
 13 23  1  0  0  0  0
 13 10  1  0  0  0  0
 14  6  1  0  0  0  0
 14 15  1  0  0  0  0
 15 27  1  0  0  0  0
 15  1  1  0  0  0  0
 16  6  1  0  0  0  0
 16 17  1  0  0  0  0
 17 30  1  0  0  0  0
 17  2  1  0  0  0  0
 18  9  1  0  0  0  0
 22 13  1  0  0  0  0
 24 14  1  0  0  0  0
 25 14  1  0  0  0  0
 26 15  1  0  0  0  0
 28 16  1  0  0  0  0
 29 16  1  0  0  0  0
 31 17  1  0  0  0  0
M  CHG  1   3  -1
M  END
