1,2,3
 OpenBabel05122313063D

 28 27  0  0  0  0  0  0  0  0999 V2000
    0.0668   -1.3744   -1.5348 O   0  0  0  0  0  1  0  0  0  0  0  0
   -0.0863   -1.1182    1.6059 O   0  0  0  0  0  1  0  0  0  0  0  0
   -0.9421    1.2386   -0.3850 O   0  0  0  0  0  1  0  0  0  0  0  0
   -2.1924   -1.0942   -0.0414 N   0  0  0  0  0  0  0  0  0  0  0  0
   -1.1407   -1.6982   -2.1562 C   0  0  0  0  0  0  0  0  0  0  0  0
   -0.9972   -2.5293   -2.8879 H   0  0  0  0  0  0  0  0  0  0  0  0
   -1.5351   -0.8279   -2.7392 H   0  0  0  0  0  0  0  0  0  0  0  0
   -2.1538   -2.1208   -1.0941 C   0  0  0  0  0  0  0  0  0  0  0  0
   -3.1658   -2.3163   -1.5236 H   0  0  0  0  0  0  0  0  0  0  0  0
   -1.7974   -3.0651   -0.6352 H   0  0  0  0  0  0  0  0  0  0  0  0
   -1.0432   -2.1051    1.8465 C   0  0  0  0  0  0  0  0  0  0  0  0
   -1.1295   -2.3141    2.9400 H   0  0  0  0  0  0  0  0  0  0  0  0
   -0.7458   -3.0725    1.3686 H   0  0  0  0  0  0  0  0  0  0  0  0
   -2.4001   -1.6467    1.3044 C   0  0  0  0  0  0  0  0  0  0  0  0
   -3.1522   -2.4716    1.3051 H   0  0  0  0  0  0  0  0  0  0  0  0
   -2.7957   -0.8428    1.9523 H   0  0  0  0  0  0  0  0  0  0  0  0
   -2.2920    1.3970   -0.0105 C   0  0  0  0  0  0  0  0  0  0  0  0
   -2.3549    1.7370    1.4908 C   0  0  0  0  0  0  0  0  0  0  0  0
   -1.7960    0.9882    2.0849 H   0  0  0  0  0  0  0  0  0  0  0  0
   -3.3988    1.7942    1.8618 H   0  0  0  0  0  0  0  0  0  0  0  0
   -1.8706    2.7191    1.6613 H   0  0  0  0  0  0  0  0  0  0  0  0
   -2.9040    2.5421   -0.8318 C   0  0  0  0  0  0  0  0  0  0  0  0
   -2.3974    3.4967   -0.5891 H   0  0  0  0  0  0  0  0  0  0  0  0
   -3.9871    2.6585   -0.6207 H   0  0  0  0  0  0  0  0  0  0  0  0
   -2.7714    2.3464   -1.9146 H   0  0  0  0  0  0  0  0  0  0  0  0
   -3.0173    0.0719   -0.3748 C   0  0  0  0  0  0  0  0  0  0  0  0
   -4.0270    0.0076    0.0931 H   0  0  0  0  0  0  0  0  0  0  0  0
   -3.1683    0.0771   -1.4727 H   0  0  0  0  0  0  0  0  0  0  0  0
  2 11  1  0  0  0  0
  3 17  1  0  0  0  0
  4 14  1  0  0  0  0
  5  1  1  0  0  0  0
  5  8  1  0  0  0  0
  6  5  1  0  0  0  0
  7  5  1  0  0  0  0
  8 10  1  0  0  0  0
  8  4  1  0  0  0  0
  9  8  1  0  0  0  0
 11 12  1  0  0  0  0
 13 11  1  0  0  0  0
 14 15  1  0  0  0  0
 14 11  1  0  0  0  0
 14 16  1  0  0  0  0
 17 18  1  0  0  0  0
 18 21  1  0  0  0  0
 18 20  1  0  0  0  0
 18 19  1  0  0  0  0
 22 24  1  0  0  0  0
 22 23  1  0  0  0  0
 22 17  1  0  0  0  0
 25 22  1  0  0  0  0
 26  4  1  0  0  0  0
 26 17  1  0  0  0  0
 26 27  1  0  0  0  0
 28 26  1  0  0  0  0
M  END
