3,4,42
 OpenBabel05122313063D

 42 44  0  0  0  0  0  0  0  0999 V2000
    3.1692   -2.2337   -0.0009 F   0  0  0  0  0  0  0  0  0  0  0  0
   -3.2835    3.3313    0.0011 O   0  5  0  0  0  0  0  0  0  0  0  0
   -3.6711    1.1229    0.0005 O   0  0  0  0  0  0  0  0  0  0  0  0
   -1.4162   -0.1892    1.1206 O   0  5  0  0  0  0  0  0  0  0  0  0
    6.5385   -2.2792    0.0001 N   0  3  0  0  0  0  0  0  0  0  0  0
    7.4866   -1.8543    0.0007 H   0  0  0  0  0  0  0  0  0  0  0  0
    6.6820   -3.3032   -0.0002 H   0  0  0  0  0  0  0  0  0  0  0  0
    0.8640    2.8561    0.0001 N   0  0  0  0  0  0  0  0  0  0  0  0
    4.8934    0.0667    0.0003 N   0  0  0  0  0  0  0  0  0  0  0  0
    1.0021    5.3803   -0.0013 C   0  0  0  0  0  0  0  0  0  0  0  0
    1.7589    6.1893   -0.0017 H   0  0  0  0  0  0  0  0  0  0  0  0
    0.3659    5.5134    0.8949 H   0  0  0  0  0  0  0  0  0  0  0  0
    0.3666    5.5117   -0.8983 H   0  0  0  0  0  0  0  0  0  0  0  0
    5.8237   -1.8564   -1.2733 C   0  0  0  0  0  0  0  0  0  0  0  0
    4.8714   -2.4156   -1.2967 H   0  0  0  0  0  0  0  0  0  0  0  0
    6.4713   -2.1542   -2.1219 H   0  0  0  0  0  0  0  0  0  0  0  0
    5.8227   -1.8573    1.2733 C   0  0  0  0  0  0  0  0  0  0  0  0
    6.4696   -2.1556    2.1222 H   0  0  0  0  0  0  0  0  0  0  0  0
    4.8704   -2.4166    1.2956 H   0  0  0  0  0  0  0  0  0  0  0  0
    5.5739   -0.3440    1.2078 C   0  0  0  0  0  0  0  0  0  0  0  0
    4.9805   -0.0445    2.0929 H   0  0  0  0  0  0  0  0  0  0  0  0
    6.5583    0.1834    1.2852 H   0  0  0  0  0  0  0  0  0  0  0  0
    2.6110   -0.9654   -0.0004 C   0  0  0  0  0  0  0  0  0  0  0  0
    5.5748   -0.3432   -1.2070 C   0  0  0  0  0  0  0  0  0  0  0  0
    6.5592    0.1844   -1.2832 H   0  0  0  0  0  0  0  0  0  0  0  0
    4.9821   -0.0430   -2.0922 H   0  0  0  0  0  0  0  0  0  0  0  0
    1.4556    1.6012   -0.0000 C   0  0  0  0  0  0  0  0  0  0  0  0
   -2.8649    2.1707    0.0008 C   0  0  0  0  0  0  0  0  0  0  0  0
    1.7260    4.0411    0.0002 C   0  0  0  0  0  0  0  0  0  0  0  0
    2.3960    3.9892   -0.8891 H   0  0  0  0  0  0  0  0  0  0  0  0
    2.3946    3.9903    0.8906 H   0  0  0  0  0  0  0  0  0  0  0  0
   -0.8747    0.4885    0.0000 C   0  0  0  0  0  0  0  0  0  0  0  0
    2.8677    1.4362    0.0002 C   0  0  0  0  0  0  0  0  0  0  0  0
    3.5512    2.2934    0.0008 H   0  0  0  0  0  0  0  0  0  0  0  0
    3.4576    0.1619   -0.0000 C   0  0  0  0  0  0  0  0  0  0  0  0
   -0.5267    2.9615    0.0005 C   0  0  0  0  0  0  0  0  0  0  0  0
   -0.9642    3.9680    0.0007 H   0  0  0  0  0  0  0  0  0  0  0  0
    1.2289   -0.8405   -0.0005 C   0  0  0  0  0  0  0  0  0  0  0  0
    0.5787   -1.7276   -0.0006 H   0  0  0  0  0  0  0  0  0  0  0  0
    0.6413    0.4281   -0.0002 C   0  0  0  0  0  0  0  0  0  0  0  0
   -1.3756    1.9045    0.0005 C   0  0  0  0  0  0  0  0  0  0  0  0
   -1.4165   -0.1885   -1.1209 O   0  5  0  0  0  0  0  0  0  0  0  0
  1 23  1  0  0  0  0
  3 28  2  0  0  0  0
  5  6  1  0  0  0  0
  5 17  1  0  0  0  0
  7  5  1  0  0  0  0
  8 29  1  0  0  0  0
  8 36  1  0  0  0  0
  9 20  1  0  0  0  0
 10 29  1  0  0  0  0
 10 12  1  0  0  0  0
 11 10  1  0  0  0  0
 13 10  1  0  0  0  0
 14 24  1  0  0  0  0
 14  5  1  0  0  0  0
 15 14  1  0  0  0  0
 16 14  1  0  0  0  0
 17 19  1  0  0  0  0
 17 18  1  0  0  0  0
 20 17  1  0  0  0  0
 20 22  1  0  0  0  0
 20 21  1  0  0  0  0
 23 35  1  0  0  0  0
 24  9  1  0  0  0  0
 25 24  1  0  0  0  0
 26 24  1  0  0  0  0
 27  8  1  0  0  0  0
 27 33  1  0  0  0  0
 28  2  1  0  0  0  0
 29 31  1  0  0  0  0
 30 29  1  0  0  0  0
 32 41  1  0  0  0  0
 32  4  1  0  0  0  0
 33 34  1  0  0  0  0
 35 33  2  0  0  0  0
 35  9  1  0  0  0  0
 36 41  2  0  0  0  0
 36 37  1  0  0  0  0
 38 23  2  0  0  0  0
 38 40  1  0  0  0  0
 39 38  1  0  0  0  0
 40 27  2  0  0  0  0
 40 32  1  0  0  0  0
 41 28  1  0  0  0  0
 42 32  1  0  0  0  0
M  CHG  4   2  -1   4  -1   5   1  42  -1
M  END
