1,2,3
 OpenBabel05122313063D

 25 24  0  0  1  0  0  0  0  0999 V2000
    0.9023    1.4431   -0.2805 O   0  0  0  0  0  1  0  0  0  0  0  0
    0.3002   -0.8620    1.7312 O   0  0  0  0  0  1  0  0  0  0  0  0
    0.1552   -1.4220   -1.3869 O   0  0  0  0  0  1  0  0  0  0  0  0
    2.3295   -0.7635    0.0067 N   0  0  0  0  0  0  0  0  0  0  0  0
    2.2608    1.6079   -0.5730 C   0  0  2  0  0  0  0  0  0  0  0  0
    3.0448    0.5090    0.1594 C   0  0  0  0  0  0  0  0  0  0  0  0
    2.7355    3.0068   -0.1815 C   0  0  0  0  0  0  0  0  0  0  0  0
    1.5488   -1.1634    2.2688 C   0  0  0  0  0  0  0  0  0  0  0  0
    2.4726   -1.6658    1.1581 C   0  0  0  0  0  0  0  0  0  0  0  0
    1.2792   -2.2030   -1.6441 C   0  0  0  0  0  0  0  0  0  0  0  0
    2.5418   -1.4134   -1.2945 C   0  0  0  0  0  0  0  0  0  0  0  0
    2.4194    1.4870   -1.6760 H   0  0  0  0  0  0  0  0  0  0  0  0
    4.1018    0.4342   -0.1909 H   0  0  0  0  0  0  0  0  0  0  0  0
    3.0676    0.7644    1.2383 H   0  0  0  0  0  0  0  0  0  0  0  0
    2.1640    3.7738   -0.7390 H   0  0  0  0  0  0  0  0  0  0  0  0
    3.8140    3.1456   -0.4021 H   0  0  0  0  0  0  0  0  0  0  0  0
    2.5691    3.1740    0.9025 H   0  0  0  0  0  0  0  0  0  0  0  0
    1.4641   -1.9445    3.0625 H   0  0  0  0  0  0  0  0  0  0  0  0
    1.9942   -0.2653    2.7676 H   0  0  0  0  0  0  0  0  0  0  0  0
    2.1330   -2.6730    0.8435 H   0  0  0  0  0  0  0  0  0  0  0  0
    3.5351   -1.7556    1.4896 H   0  0  0  0  0  0  0  0  0  0  0  0
    1.3182   -2.5047   -2.7186 H   0  0  0  0  0  0  0  0  0  0  0  0
    1.2432   -3.1574   -1.0596 H   0  0  0  0  0  0  0  0  0  0  0  0
    3.4609   -2.0476   -1.3004 H   0  0  0  0  0  0  0  0  0  0  0  0
    2.6811   -0.6150   -2.0506 H   0  0  0  0  0  0  0  0  0  0  0  0
  2  8  1  0  0  0  0
  4  6  1  0  0  0  0
  4  9  1  0  0  0  0
  5 12  1  6  0  0  0
  5  1  1  0  0  0  0
  5  7  1  0  0  0  0
  5  6  1  0  0  0  0
  6 14  1  0  0  0  0
  7 17  1  0  0  0  0
  8 19  1  0  0  0  0
  8 18  1  0  0  0  0
  9 21  1  0  0  0  0
  9  8  1  0  0  0  0
 10  3  1  0  0  0  0
 10 11  1  0  0  0  0
 10 23  1  0  0  0  0
 11  4  1  0  0  0  0
 13  6  1  0  0  0  0
 15  7  1  0  0  0  0
 16  7  1  0  0  0  0
 20  9  1  0  0  0  0
 22 10  1  0  0  0  0
 24 11  1  0  0  0  0
 25 11  1  0  0  0  0
M  END
