1,3,4,5,6,7
 OpenBabel05122313063D

 66 68  0  0  1  0  0  0  0  0999 V2000
   -0.9158   -1.0778    0.4071 O   0  5  0  0  0  0  0  0  0  0  0  0
   -2.8665    0.2307    0.4693 N   0  0  0  0  0  0  0  0  0  0  0  0
   -0.9764    1.6584   -0.0313 N   0  0  0  0  0  2  0  0  0  0  0  0
    1.5353    1.7463   -0.8442 N   0  0  0  0  0  0  0  0  0  0  0  0
   -0.1087   -0.0482   -2.2556 N   0  0  0  0  0  0  0  0  0  0  0  0
    1.4094   -1.3905   -0.5845 N   0  0  0  0  0  2  0  0  0  0  0  0
    1.2068    0.5325    1.4117 N   0  0  0  0  0  2  0  0  0  0  0  0
   -2.1762   -0.8885    0.6185 C   0  0  0  0  0  0  0  0  0  0  0  0
   -2.9266   -2.1436    1.1071 C   0  0  0  0  0  0  0  0  0  0  0  0
   -2.7219   -3.2670    0.0678 C   0  0  0  0  0  0  0  0  0  0  0  0
   -2.2959   -2.5677    2.4523 C   0  0  0  0  0  0  0  0  0  0  0  0
   -4.4235   -1.8653    1.2929 C   0  0  0  0  0  0  0  0  0  0  0  0
   -2.3220    1.4393    0.1691 C   0  0  2  0  0  3  0  0  0  0  0  0
   -3.2176    2.5475    0.0622 C   0  0  0  0  0  0  0  0  0  0  0  0
   -2.7527    3.8239   -0.2185 C   0  0  0  0  0  0  0  0  0  0  0  0
   -1.3642    4.0285   -0.3769 C   0  0  0  0  0  0  0  0  0  0  0  0
   -0.5226    2.9264   -0.2583 C   0  0  0  0  0  0  0  0  0  0  0  0
    0.9744    3.0163   -0.2897 C   0  0  0  0  0  0  0  0  0  0  0  0
    1.5478    1.7965   -2.3326 C   0  0  0  0  0  0  0  0  0  0  0  0
    1.1281    0.4601   -2.9233 C   0  0  0  0  0  0  0  0  0  0  0  0
   -0.1861   -1.5184   -2.3991 C   0  0  0  0  0  0  0  0  0  0  0  0
    0.9187   -2.1547   -1.6056 C   0  0  2  0  0  3  0  0  0  0  0  0
    1.3871   -3.4462   -1.8707 C   0  0  0  0  0  0  0  0  0  0  0  0
    2.3790   -4.0037   -1.0526 C   0  0  0  0  0  0  0  0  0  0  0  0
    2.8744   -3.2271    0.0048 C   0  0  0  0  0  0  0  0  0  0  0  0
    2.3694   -1.9401    0.2025 C   0  0  0  0  0  0  0  0  0  0  0  0
    2.8113    1.4180   -0.1668 C   0  0  0  0  0  0  0  0  0  0  0  0
    2.4592    1.0780    1.2674 C   0  0  1  0  0  3  0  0  0  0  0  0
    3.2970    1.2899    2.3640 C   0  0  0  0  0  0  0  0  0  0  0  0
    2.8542    0.9246    3.6483 C   0  0  0  0  0  0  0  0  0  0  0  0
    1.5711    0.3744    3.7859 C   0  0  0  0  0  0  0  0  0  0  0  0
    0.7734    0.1971    2.6505 C   0  0  0  0  0  0  0  0  0  0  0  0
   -1.3259    0.5774   -2.8092 C   0  0  0  0  0  0  0  0  0  0  0  0
   -3.1595   -2.9863   -0.9133 H   0  0  0  0  0  0  0  0  0  0  0  0
   -1.6456   -3.4902   -0.0716 H   0  0  0  0  0  0  0  0  0  0  0  0
   -3.2272   -4.1954    0.4016 H   0  0  0  0  0  0  0  0  0  0  0  0
   -1.2144   -2.7767    2.3349 H   0  0  0  0  0  0  0  0  0  0  0  0
   -2.4236   -1.7741    3.2176 H   0  0  0  0  0  0  0  0  0  0  0  0
   -2.7890   -3.4836    2.8356 H   0  0  0  0  0  0  0  0  0  0  0  0
   -4.5927   -1.0584    2.0307 H   0  0  0  0  0  0  0  0  0  0  0  0
   -4.8933   -1.5432    0.3441 H   0  0  0  0  0  0  0  0  0  0  0  0
   -4.9354   -2.7829    1.6471 H   0  0  0  0  0  0  0  0  0  0  0  0
   -4.2825    2.3291    0.2164 H   0  0  0  0  0  0  0  0  0  0  0  0
   -3.4536    4.6671   -0.3061 H   0  0  0  0  0  0  0  0  0  0  0  0
   -0.9461    5.0254   -0.5743 H   0  0  0  0  0  0  0  0  0  0  0  0
    1.3409    3.8979   -0.8567 H   0  0  0  0  0  0  0  0  0  0  0  0
    1.3424    3.1277    0.7507 H   0  0  0  0  0  0  0  0  0  0  0  0
    2.5413    2.1083   -2.7215 H   0  0  0  0  0  0  0  0  0  0  0  0
    0.8265    2.5811   -2.6351 H   0  0  0  0  0  0  0  0  0  0  0  0
    1.9278   -0.2905   -2.7772 H   0  0  0  0  0  0  0  0  0  0  0  0
    0.9717    0.5559   -4.0216 H   0  0  0  0  0  0  0  0  0  0  0  0
   -0.1508   -1.8296   -3.4684 H   0  0  0  0  0  0  0  0  0  0  0  0
   -1.1620   -1.8447   -1.9859 H   0  0  0  0  0  0  0  0  0  0  0  0
    0.9625   -4.0109   -2.7136 H   0  0  0  0  0  0  0  0  0  0  0  0
    2.7553   -5.0202   -1.2360 H   0  0  0  0  0  0  0  0  0  0  0  0
    3.6492   -3.6107    0.6834 H   0  0  0  0  0  0  0  0  0  0  0  0
    2.7409   -1.3257    1.0335 H   0  0  0  0  0  0  0  0  0  0  0  0
    3.2619    0.5431   -0.6800 H   0  0  0  0  0  0  0  0  0  0  0  0
    3.5474    2.2530   -0.2145 H   0  0  0  0  0  0  0  0  0  0  0  0
    4.2895    1.7390    2.2127 H   0  0  0  0  0  0  0  0  0  0  0  0
    3.5001    1.0762    4.5250 H   0  0  0  0  0  0  0  0  0  0  0  0
    1.1803    0.0794    4.7701 H   0  0  0  0  0  0  0  0  0  0  0  0
   -0.2315   -0.2456    2.7015 H   0  0  0  0  0  0  0  0  0  0  0  0
   -1.4426    0.3299   -3.8872 H   0  0  0  0  0  0  0  0  0  0  0  0
   -1.2821    1.6754   -2.6951 H   0  0  0  0  0  0  0  0  0  0  0  0
   -2.2078    0.2093   -2.2539 H   0  0  0  0  0  0  0  0  0  0  0  0
  1  8  1  0  0  0  0
  2  8  2  0  0  0  0
  3 13  1  0  0  0  0
  4 18  1  0  0  0  0
  4 27  1  0  0  0  0
  6 26  1  0  0  0  0
  7 32  1  0  0  0  0
  8  9  1  0  0  0  0
  9 12  1  0  0  0  0
  9 11  1  0  0  0  0
 10 36  1  0  0  0  0
 10  9  1  0  0  0  0
 11 39  1  0  0  0  0
 11 38  1  0  0  0  0
 12 42  1  0  0  0  0
 12 40  1  0  0  0  0
 13  2  1  1  0  0  0
 14 13  1  0  0  0  0
 14 43  1  0  0  0  0
 15 14  2  0  0  0  0
 16 17  2  0  0  0  0
 16 15  1  0  0  0  0
 17  3  1  0  0  0  0
 18 17  1  0  0  0  0
 18 47  1  0  0  0  0
 19  4  1  0  0  0  0
 20 50  1  0  0  0  0
 20 19  1  0  0  0  0
 20  5  1  0  0  0  0
 21  5  1  0  0  0  0
 21 53  1  0  0  0  0
 22 21  1  1  0  0  0
 22  6  1  0  0  0  0
 23 22  1  0  0  0  0
 23 24  2  0  0  0  0
 24 25  1  0  0  0  0
 25 26  2  0  0  0  0
 25 56  1  0  0  0  0
 26 57  1  0  0  0  0
 28 27  1  1  0  0  0
 28  7  1  0  0  0  0
 28 29  1  0  0  0  0
 29 30  2  0  0  0  0
 30 31  1  0  0  0  0
 30 61  1  0  0  0  0
 31 62  1  0  0  0  0
 32 63  1  0  0  0  0
 32 31  2  0  0  0  0
 33 65  1  0  0  0  0
 33  5  1  0  0  0  0
 33 66  1  0  0  0  0
 34 10  1  0  0  0  0
 35 10  1  0  0  0  0
 37 11  1  0  0  0  0
 41 12  1  0  0  0  0
 44 15  1  0  0  0  0
 45 16  1  0  0  0  0
 46 18  1  0  0  0  0
 48 19  1  0  0  0  0
 49 19  1  0  0  0  0
 51 20  1  0  0  0  0
 52 21  1  0  0  0  0
 54 23  1  0  0  0  0
 55 24  1  0  0  0  0
 58 27  1  0  0  0  0
 59 27  1  0  0  0  0
 60 29  1  0  0  0  0
 64 33  1  0  0  0  0
M  CHG  1   1  -1
M  END
