1,2
 OpenBabel05122313063D

 48 50  0  0  1  0  0  0  0  0999 V2000
   -1.9372   -1.5163   -0.1658 P   0  0  1  0  0  0  0  0  0  0  0  0
   -2.0085    1.4976    0.2135 P   0  0  2  0  0  0  0  0  0  0  0  0
   -3.5892   -0.7079   -0.3971 C   0  0  0  0  0  0  0  0  0  0  0  0
   -3.6080    0.7031   -0.3196 C   0  0  0  0  0  0  0  0  0  0  0  0
   -4.8179    1.3889   -0.5464 C   0  0  0  0  0  0  0  0  0  0  0  0
   -4.8529    2.4873   -0.4967 H   0  0  0  0  0  0  0  0  0  0  0  0
   -5.9962    0.6839   -0.8356 C   0  0  0  0  0  0  0  0  0  0  0  0
   -6.9332    1.2331   -1.0146 H   0  0  0  0  0  0  0  0  0  0  0  0
   -5.9801   -0.7189   -0.8885 C   0  0  0  0  0  0  0  0  0  0  0  0
   -6.9037   -1.2757   -1.1086 H   0  0  0  0  0  0  0  0  0  0  0  0
   -4.7797   -1.4102   -0.6690 C   0  0  0  0  0  0  0  0  0  0  0  0
   -4.7730   -2.5104   -0.7178 H   0  0  0  0  0  0  0  0  0  0  0  0
   -2.0176   -2.7379    2.4773 C   0  0  0  0  0  0  0  0  0  0  0  0
   -2.6439   -1.9222    2.8885 H   0  0  0  0  0  0  0  0  0  0  0  0
   -0.9653   -2.4395    2.6477 H   0  0  0  0  0  0  0  0  0  0  0  0
   -2.2343   -3.6581    3.0605 H   0  0  0  0  0  0  0  0  0  0  0  0
   -2.3118   -2.9672    1.0016 C   0  0  2  0  0  0  0  0  0  0  0  0
   -3.4012   -3.1564    0.8748 H   0  0  0  0  0  0  0  0  0  0  0  0
   -1.5703   -4.1418    0.3459 C   0  0  0  0  0  0  0  0  0  0  0  0
   -0.4715   -4.0164    0.4878 H   0  0  0  0  0  0  0  0  0  0  0  0
   -1.8402   -5.1062    0.8266 H   0  0  0  0  0  0  0  0  0  0  0  0
   -1.9244   -4.1084   -1.1447 C   0  0  0  0  0  0  0  0  0  0  0  0
   -2.9969   -4.3794   -1.2671 H   0  0  0  0  0  0  0  0  0  0  0  0
   -1.3441   -4.8470   -1.7375 H   0  0  0  0  0  0  0  0  0  0  0  0
   -1.6937   -2.6778   -1.6630 C   0  0  1  0  0  0  0  0  0  0  0  0
   -0.6111   -2.5297   -1.8686 H   0  0  0  0  0  0  0  0  0  0  0  0
   -2.4451   -2.3112   -2.9388 C   0  0  0  0  0  0  0  0  0  0  0  0
   -2.1985   -1.2778   -3.2493 H   0  0  0  0  0  0  0  0  0  0  0  0
   -3.5433   -2.3896   -2.8132 H   0  0  0  0  0  0  0  0  0  0  0  0
   -2.1507   -2.9957   -3.7628 H   0  0  0  0  0  0  0  0  0  0  0  0
   -3.2588    1.2349    2.8007 C   0  0  0  0  0  0  0  0  0  0  0  0
   -2.7009    0.2900    2.9512 H   0  0  0  0  0  0  0  0  0  0  0  0
   -4.2482    1.0026    2.3560 H   0  0  0  0  0  0  0  0  0  0  0  0
   -3.4312    1.6868    3.8001 H   0  0  0  0  0  0  0  0  0  0  0  0
   -2.4508    2.1816    1.9221 C   0  0  2  0  0  0  0  0  0  0  0  0
   -1.4439    2.3023    2.3809 H   0  0  0  0  0  0  0  0  0  0  0  0
   -3.0610    3.5652    1.6686 C   0  0  0  0  0  0  0  0  0  0  0  0
   -4.1256    3.4602    1.3642 H   0  0  0  0  0  0  0  0  0  0  0  0
   -3.0618    4.1788    2.5952 H   0  0  0  0  0  0  0  0  0  0  0  0
   -2.2436    4.2218    0.5507 C   0  0  0  0  0  0  0  0  0  0  0  0
   -1.2377    4.4847    0.9488 H   0  0  0  0  0  0  0  0  0  0  0  0
   -2.6964    5.1705    0.1921 H   0  0  0  0  0  0  0  0  0  0  0  0
   -2.0651    3.2179   -0.6087 C   0  0  1  0  0  0  0  0  0  0  0  0
   -2.9887    3.2045   -1.2247 H   0  0  0  0  0  0  0  0  0  0  0  0
   -0.8852    3.5362   -1.5243 C   0  0  0  0  0  0  0  0  0  0  0  0
   -0.7203    2.7394   -2.2759 H   0  0  0  0  0  0  0  0  0  0  0  0
    0.0520    3.6494   -0.9399 H   0  0  0  0  0  0  0  0  0  0  0  0
   -1.0510    4.5003   -2.0494 H   0  0  0  0  0  0  0  0  0  0  0  0
  1  3  1  6  0  0  0
  1 17  1  0  0  0  0
  2  4  1  6  0  0  0
  2 35  1  0  0  0  0
  3  4  1  0  0  0  0
  5  6  1  0  0  0  0
  5  4  2  0  0  0  0
  7  5  1  0  0  0  0
  8  7  1  0  0  0  0
  9  7  2  0  0  0  0
  9 11  1  0  0  0  0
 10  9  1  0  0  0  0
 11  3  2  0  0  0  0
 12 11  1  0  0  0  0
 13 15  1  0  0  0  0
 13 14  1  0  0  0  0
 13 16  1  0  0  0  0
 17 18  1  6  0  0  0
 17 13  1  0  0  0  0
 19 20  1  0  0  0  0
 19 21  1  0  0  0  0
 19 17  1  0  0  0  0
 22 19  1  0  0  0  0
 23 22  1  0  0  0  0
 24 22  1  0  0  0  0
 25 26  1  6  0  0  0
 25 22  1  0  0  0  0
 25  1  1  0  0  0  0
 27 29  1  0  0  0  0
 27 25  1  0  0  0  0
 28 27  1  0  0  0  0
 30 27  1  0  0  0  0
 31 32  1  0  0  0  0
 31 34  1  0  0  0  0
 33 31  1  0  0  0  0
 35 36  1  1  0  0  0
 35 31  1  0  0  0  0
 37 35  1  0  0  0  0
 37 39  1  0  0  0  0
 38 37  1  0  0  0  0
 40 41  1  0  0  0  0
 40 37  1  0  0  0  0
 42 40  1  0  0  0  0
 43 44  1  6  0  0  0
 43  2  1  0  0  0  0
 43 40  1  0  0  0  0
 45 47  1  0  0  0  0
 45 43  1  0  0  0  0
 46 45  1  0  0  0  0
 48 45  1  0  0  0  0
M  END
