1,2
 OpenBabel05122313063D

 58 61  0  0  1  0  0  0  0  0999 V2000
    1.5327   -0.7678    0.4789 P   0  0  0  0  0  0  0  0  0  0  0  0
   -1.4995   -0.9036    0.5139 P   0  0  0  0  0  0  0  0  0  0  0  0
    0.7342   -2.1380    1.5310 C   0  0  2  0  0  0  0  0  0  0  0  0
    0.5461   -2.9392    0.7817 H   0  0  0  0  0  0  0  0  0  0  0  0
   -0.6503   -1.6606    2.0231 C   0  0  2  0  0  0  0  0  0  0  0  0
   -0.5070   -0.7756    2.6818 H   0  0  0  0  0  0  0  0  0  0  0  0
    1.6291   -2.7080    2.6340 C   0  0  0  0  0  0  0  0  0  0  0  0
    2.6429   -2.9424    2.2538 H   0  0  0  0  0  0  0  0  0  0  0  0
    1.1967   -3.6424    3.0460 H   0  0  0  0  0  0  0  0  0  0  0  0
    1.7541   -1.9912    3.4688 H   0  0  0  0  0  0  0  0  0  0  0  0
   -1.4460   -2.7417    2.7505 C   0  0  0  0  0  0  0  0  0  0  0  0
   -2.4689   -2.3908    2.9928 H   0  0  0  0  0  0  0  0  0  0  0  0
   -0.9560   -3.0164    3.7069 H   0  0  0  0  0  0  0  0  0  0  0  0
   -1.5369   -3.6620    2.1386 H   0  0  0  0  0  0  0  0  0  0  0  0
    2.9346   -0.1483    1.5338 C   0  0  0  0  0  0  0  0  0  0  0  0
    2.6494    0.4314    2.7920 C   0  0  0  0  0  0  0  0  0  0  0  0
    1.6060    0.5202    3.1258 H   0  0  0  0  0  0  0  0  0  0  0  0
    3.6809    0.9525    3.5865 C   0  0  0  0  0  0  0  0  0  0  0  0
    3.4376    1.4022    4.5615 H   0  0  0  0  0  0  0  0  0  0  0  0
    5.0119    0.9113    3.1407 C   0  0  0  0  0  0  0  0  0  0  0  0
    5.8194    1.3245    3.7645 H   0  0  0  0  0  0  0  0  0  0  0  0
    5.3040    0.3382    1.8941 C   0  0  0  0  0  0  0  0  0  0  0  0
    6.3435    0.2967    1.5339 H   0  0  0  0  0  0  0  0  0  0  0  0
    4.2756   -0.1915    1.0982 C   0  0  0  0  0  0  0  0  0  0  0  0
    4.5236   -0.6435    0.1277 H   0  0  0  0  0  0  0  0  0  0  0  0
    2.4631   -1.6982   -0.8216 C   0  0  0  0  0  0  0  0  0  0  0  0
    2.6672   -3.0916   -0.8047 C   0  0  0  0  0  0  0  0  0  0  0  0
    2.2712   -3.7067    0.0158 H   0  0  0  0  0  0  0  0  0  0  0  0
    3.3799   -3.7213   -1.8385 C   0  0  0  0  0  0  0  0  0  0  0  0
    3.5256   -4.8121   -1.8125 H   0  0  0  0  0  0  0  0  0  0  0  0
    3.9066   -2.9637   -2.8951 C   0  0  0  0  0  0  0  0  0  0  0  0
    4.4651   -3.4579   -3.7048 H   0  0  0  0  0  0  0  0  0  0  0  0
    3.7124   -1.5731   -2.9178 C   0  0  0  0  0  0  0  0  0  0  0  0
    4.1114   -0.9719   -3.7487 H   0  0  0  0  0  0  0  0  0  0  0  0
    2.9862   -0.9463   -1.8963 C   0  0  0  0  0  0  0  0  0  0  0  0
    2.8079    0.1377   -1.9320 H   0  0  0  0  0  0  0  0  0  0  0  0
   -1.9432   -2.4359   -0.4296 C   0  0  0  0  0  0  0  0  0  0  0  0
   -1.0505   -2.9152   -1.4114 C   0  0  0  0  0  0  0  0  0  0  0  0
   -0.1931   -2.2957   -1.7132 H   0  0  0  0  0  0  0  0  0  0  0  0
   -1.2810   -4.1509   -2.0367 C   0  0  0  0  0  0  0  0  0  0  0  0
   -0.5740   -4.5066   -2.8019 H   0  0  0  0  0  0  0  0  0  0  0  0
   -2.4052   -4.9187   -1.6982 C   0  0  0  0  0  0  0  0  0  0  0  0
   -2.5874   -5.8847   -2.1941 H   0  0  0  0  0  0  0  0  0  0  0  0
   -3.3017   -4.4468   -0.7251 C   0  0  0  0  0  0  0  0  0  0  0  0
   -4.1865   -5.0427   -0.4525 H   0  0  0  0  0  0  0  0  0  0  0  0
   -3.0711   -3.2171   -0.0908 C   0  0  0  0  0  0  0  0  0  0  0  0
   -3.7746   -2.8632    0.6770 H   0  0  0  0  0  0  0  0  0  0  0  0
   -3.1295   -0.2746    1.0945 C   0  0  0  0  0  0  0  0  0  0  0  0
   -3.2725    0.3138    2.3689 C   0  0  0  0  0  0  0  0  0  0  0  0
   -2.4193    0.3405    3.0598 H   0  0  0  0  0  0  0  0  0  0  0  0
   -4.4874    0.9066    2.7436 C   0  0  0  0  0  0  0  0  0  0  0  0
   -4.5837    1.3593    3.7423 H   0  0  0  0  0  0  0  0  0  0  0  0
   -5.5700    0.9347    1.8505 C   0  0  0  0  0  0  0  0  0  0  0  0
   -6.5201    1.4050    2.1467 H   0  0  0  0  0  0  0  0  0  0  0  0
   -5.4328    0.3623    0.5765 C   0  0  0  0  0  0  0  0  0  0  0  0
   -6.2735    0.3834   -0.1339 H   0  0  0  0  0  0  0  0  0  0  0  0
   -4.2226   -0.2390    0.2014 C   0  0  0  0  0  0  0  0  0  0  0  0
   -4.1280   -0.6917   -0.7967 H   0  0  0  0  0  0  0  0  0  0  0  0
  1  3  1  0  0  0  0
  1 15  1  0  0  0  0
  2 48  1  0  0  0  0
  2  5  1  0  0  0  0
  3  4  1  6  0  0  0
  3  5  1  0  0  0  0
  3  7  1  0  0  0  0
  5  6  1  1  0  0  0
  5 11  1  0  0  0  0
  7  9  1  0  0  0  0
  7 10  1  0  0  0  0
  8  7  1  0  0  0  0
 11 12  1  0  0  0  0
 11 13  1  0  0  0  0
 14 11  1  0  0  0  0
 15 16  1  0  0  0  0
 16 17  1  0  0  0  0
 16 18  2  0  0  0  0
 18 19  1  0  0  0  0
 20 18  1  0  0  0  0
 20 21  1  0  0  0  0
 22 20  2  0  0  0  0
 23 22  1  0  0  0  0
 24 15  2  0  0  0  0
 24 22  1  0  0  0  0
 25 24  1  0  0  0  0
 26 27  1  0  0  0  0
 26  1  1  0  0  0  0
 27 28  1  0  0  0  0
 29 30  1  0  0  0  0
 29 27  2  0  0  0  0
 31 29  1  0  0  0  0
 32 31  1  0  0  0  0
 33 31  2  0  0  0  0
 33 35  1  0  0  0  0
 34 33  1  0  0  0  0
 35 26  2  0  0  0  0
 36 35  1  0  0  0  0
 37 46  1  0  0  0  0
 37  2  1  0  0  0  0
 38 37  2  0  0  0  0
 39 38  1  0  0  0  0
 40 42  2  0  0  0  0
 40 38  1  0  0  0  0
 41 40  1  0  0  0  0
 42 44  1  0  0  0  0
 43 42  1  0  0  0  0
 44 45  1  0  0  0  0
 44 46  2  0  0  0  0
 46 47  1  0  0  0  0
 48 49  1  0  0  0  0
 49 51  2  0  0  0  0
 49 50  1  0  0  0  0
 51 52  1  0  0  0  0
 53 54  1  0  0  0  0
 53 51  1  0  0  0  0
 55 53  2  0  0  0  0
 56 55  1  0  0  0  0
 57 55  1  0  0  0  0
 57 48  2  0  0  0  0
 58 57  1  0  0  0  0
M  END
