1,2
 OpenBabel05122313063D

 58 61  0  0  0  0  0  0  0  0999 V2000
   -1.8192   -0.2115    0.6165 P   0  0  0  0  0  0  0  0  0  0  0  0
    1.7365    0.0845    0.5054 P   0  0  0  0  0  0  0  0  0  0  0  0
   -1.5259   -1.0626    2.2542 C   0  0  0  0  0  0  0  0  0  0  0  0
   -2.1363   -0.5172    3.0059 H   0  0  0  0  0  0  0  0  0  0  0  0
   -2.0380   -2.0308    2.0897 H   0  0  0  0  0  0  0  0  0  0  0  0
   -0.1082   -1.3600    2.7478 C   0  0  0  0  0  0  0  0  0  0  0  0
   -0.2162   -2.0626    3.6013 H   0  0  0  0  0  0  0  0  0  0  0  0
    0.4129   -1.9403    1.9571 H   0  0  0  0  0  0  0  0  0  0  0  0
    0.7715   -0.1986    3.2116 C   0  0  0  0  0  0  0  0  0  0  0  0
    1.6817   -0.6404    3.6669 H   0  0  0  0  0  0  0  0  0  0  0  0
    0.2708    0.3647    4.0308 H   0  0  0  0  0  0  0  0  0  0  0  0
    1.2095    0.8067    2.1397 C   0  0  0  0  0  0  0  0  0  0  0  0
    2.0365    1.4408    2.5194 H   0  0  0  0  0  0  0  0  0  0  0  0
    0.3858    1.5010    1.8764 H   0  0  0  0  0  0  0  0  0  0  0  0
   -2.2083    1.5547    0.9590 C   0  0  0  0  0  0  0  0  0  0  0  0
   -2.0252    2.1766    2.2093 C   0  0  0  0  0  0  0  0  0  0  0  0
   -1.6676    1.5986    3.0742 H   0  0  0  0  0  0  0  0  0  0  0  0
   -2.3103    3.5435    2.3677 C   0  0  0  0  0  0  0  0  0  0  0  0
   -2.1622    4.0201    3.3486 H   0  0  0  0  0  0  0  0  0  0  0  0
   -2.7907    4.2937    1.2843 C   0  0  0  0  0  0  0  0  0  0  0  0
   -3.0151    5.3635    1.4109 H   0  0  0  0  0  0  0  0  0  0  0  0
   -2.9911    3.6739    0.0388 C   0  0  0  0  0  0  0  0  0  0  0  0
   -3.3747    4.2548   -0.8133 H   0  0  0  0  0  0  0  0  0  0  0  0
   -2.7008    2.3138   -0.1268 C   0  0  0  0  0  0  0  0  0  0  0  0
   -2.8597    1.8240   -1.1020 H   0  0  0  0  0  0  0  0  0  0  0  0
   -3.4847   -0.8972    0.2092 C   0  0  0  0  0  0  0  0  0  0  0  0
   -3.6054   -2.1074   -0.5046 C   0  0  0  0  0  0  0  0  0  0  0  0
   -2.7063   -2.5942   -0.9058 H   0  0  0  0  0  0  0  0  0  0  0  0
   -4.8734   -2.6686   -0.7101 C   0  0  0  0  0  0  0  0  0  0  0  0
   -4.9600   -3.6078   -1.2770 H   0  0  0  0  0  0  0  0  0  0  0  0
   -6.0241   -2.0349   -0.2141 C   0  0  0  0  0  0  0  0  0  0  0  0
   -7.0169   -2.4781   -0.3861 H   0  0  0  0  0  0  0  0  0  0  0  0
   -5.9051   -0.8326    0.4982 C   0  0  0  0  0  0  0  0  0  0  0  0
   -6.8010   -0.3280    0.8908 H   0  0  0  0  0  0  0  0  0  0  0  0
   -4.6399   -0.2628    0.7109 C   0  0  0  0  0  0  0  0  0  0  0  0
   -4.5594    0.6828    1.2667 H   0  0  0  0  0  0  0  0  0  0  0  0
    2.7610    1.4464   -0.1870 C   0  0  0  0  0  0  0  0  0  0  0  0
    2.4136    2.7951    0.0378 C   0  0  0  0  0  0  0  0  0  0  0  0
    1.5432    3.0578    0.6575 H   0  0  0  0  0  0  0  0  0  0  0  0
    3.1705    3.8238   -0.5432 C   0  0  0  0  0  0  0  0  0  0  0  0
    2.8909    4.8728   -0.3629 H   0  0  0  0  0  0  0  0  0  0  0  0
    4.2742    3.5151   -1.3527 C   0  0  0  0  0  0  0  0  0  0  0  0
    4.8663    4.3229   -1.8087 H   0  0  0  0  0  0  0  0  0  0  0  0
    4.6173    2.1735   -1.5836 C   0  0  0  0  0  0  0  0  0  0  0  0
    5.4772    1.9254   -2.2237 H   0  0  0  0  0  0  0  0  0  0  0  0
    3.8646    1.1400   -1.0092 C   0  0  0  0  0  0  0  0  0  0  0  0
    4.1233    0.0907   -1.2056 H   0  0  0  0  0  0  0  0  0  0  0  0
    2.9667   -1.2141    0.9125 C   0  0  0  0  0  0  0  0  0  0  0  0
    3.0693   -2.3967    0.1549 C   0  0  0  0  0  0  0  0  0  0  0  0
    2.3902   -2.5565   -0.6942 H   0  0  0  0  0  0  0  0  0  0  0  0
    4.0537   -3.3437    0.4794 C   0  0  0  0  0  0  0  0  0  0  0  0
    4.1293   -4.2659   -0.1162 H   0  0  0  0  0  0  0  0  0  0  0  0
    4.9348   -3.1196    1.5476 C   0  0  0  0  0  0  0  0  0  0  0  0
    5.7023   -3.8681    1.7973 H   0  0  0  0  0  0  0  0  0  0  0  0
    4.8439   -1.9325    2.2933 C   0  0  0  0  0  0  0  0  0  0  0  0
    5.5417   -1.7433    3.1231 H   0  0  0  0  0  0  0  0  0  0  0  0
    3.8668   -0.9794    1.9756 C   0  0  0  0  0  0  0  0  0  0  0  0
    3.8220   -0.0409    2.5489 H   0  0  0  0  0  0  0  0  0  0  0  0
  1 15  1  0  0  0  0
  1  3  1  0  0  0  0
  2 48  1  0  0  0  0
  2 12  1  0  0  0  0
  3  6  1  0  0  0  0
  3  4  1  0  0  0  0
  5  3  1  0  0  0  0
  6  9  1  0  0  0  0
  6  7  1  0  0  0  0
  8  6  1  0  0  0  0
  9 10  1  0  0  0  0
  9 11  1  0  0  0  0
 12 13  1  0  0  0  0
 12  9  1  0  0  0  0
 14 12  1  0  0  0  0
 15 16  1  0  0  0  0
 16 18  2  0  0  0  0
 16 17  1  0  0  0  0
 18 19  1  0  0  0  0
 20 21  1  0  0  0  0
 20 18  1  0  0  0  0
 22 20  2  0  0  0  0
 23 22  1  0  0  0  0
 24 22  1  0  0  0  0
 24 15  2  0  0  0  0
 25 24  1  0  0  0  0
 26  1  1  0  0  0  0
 26 35  1  0  0  0  0
 27 26  2  0  0  0  0
 28 27  1  0  0  0  0
 29 27  1  0  0  0  0
 29 31  2  0  0  0  0
 30 29  1  0  0  0  0
 31 33  1  0  0  0  0
 32 31  1  0  0  0  0
 33 35  2  0  0  0  0
 33 34  1  0  0  0  0
 35 36  1  0  0  0  0
 37 38  1  0  0  0  0
 37  2  1  0  0  0  0
 38 39  1  0  0  0  0
 40 41  1  0  0  0  0
 40 38  2  0  0  0  0
 42 40  1  0  0  0  0
 43 42  1  0  0  0  0
 44 42  2  0  0  0  0
 44 46  1  0  0  0  0
 45 44  1  0  0  0  0
 46 37  2  0  0  0  0
 47 46  1  0  0  0  0
 48 57  1  0  0  0  0
 49 51  1  0  0  0  0
 49 48  2  0  0  0  0
 50 49  1  0  0  0  0
 51 53  2  0  0  0  0
 52 51  1  0  0  0  0
 53 54  1  0  0  0  0
 53 55  1  0  0  0  0
 55 56  1  0  0  0  0
 57 55  2  0  0  0  0
 57 58  1  0  0  0  0
M  END
