1,21
 OpenBabel05122313063D

 40 39  0  0  0  0  0  0  0  0999 V2000
   -1.5709   -0.4219    0.2465 P   0  0  1  0  0  0  0  0  0  0  0  0
   -3.9779    1.3708   -0.0630 F   0  0  0  0  0  0  0  0  0  0  0  0
   -3.6419   -2.8970    0.3256 F   0  0  0  0  0  0  0  0  0  0  0  0
   -2.1562   -1.9323   -1.8997 F   0  0  0  0  0  0  0  0  0  0  0  0
   -5.5549    1.0983   -1.5532 F   0  0  0  0  0  0  0  0  0  0  0  0
   -4.0820   -0.5538   -3.0135 F   0  0  0  0  0  0  0  0  0  0  0  0
   -4.5572   -0.9141    3.0618 F   0  0  0  0  0  0  0  0  0  0  0  0
   -5.1875   -3.0967    1.8551 F   0  0  0  0  0  0  0  0  0  0  0  0
   -3.7523    2.2074   -2.0691 F   0  0  0  0  0  0  0  0  0  0  0  0
   -2.3727    0.4414    2.6183 F   0  0  0  0  0  0  0  0  0  0  0  0
   -5.4348   -1.6518    0.2439 F   0  0  0  0  0  0  0  0  0  0  0  0
   -2.5973   -0.8361   -1.2442 C   0  0  0  0  0  0  0  0  0  0  0  0
   -2.7353   -0.4609    1.6903 C   0  0  0  0  0  0  0  0  0  0  0  0
   -3.8589   -1.1714    1.9506 C   0  0  0  0  0  0  0  0  0  0  0  0
   -4.5355   -2.2146    1.0845 C   0  0  0  0  0  0  0  0  0  0  0  0
   -3.5855   -0.1354   -1.8465 C   0  0  0  0  0  0  0  0  0  0  0  0
   -4.2241    1.1507   -1.3756 C   0  0  0  0  0  0  0  0  0  0  0  0
   -0.6229   -2.0285    0.4407 C   0  0  0  0  0  0  0  0  0  0  0  0
   -0.3451   -2.0649    1.5140 H   0  0  0  0  0  0  0  0  0  0  0  0
   -1.2817   -2.8890    0.2227 H   0  0  0  0  0  0  0  0  0  0  0  0
    1.5709   -0.4217   -0.2468 P   0  0  1  0  0  0  0  0  0  0  0  0
    3.9780    1.3708    0.0639 F   0  0  0  0  0  0  0  0  0  0  0  0
    3.6419   -2.8967   -0.3268 F   0  0  0  0  0  0  0  0  0  0  0  0
    2.1561   -1.9333    1.8986 F   0  0  0  0  0  0  0  0  0  0  0  0
    5.5548    1.0975    1.5541 F   0  0  0  0  0  0  0  0  0  0  0  0
    4.0817   -0.5554    3.0133 F   0  0  0  0  0  0  0  0  0  0  0  0
    4.5575   -0.9126   -3.0621 F   0  0  0  0  0  0  0  0  0  0  0  0
    5.1877   -3.0958   -1.8563 F   0  0  0  0  0  0  0  0  0  0  0  0
    3.7522    2.2064    2.0705 F   0  0  0  0  0  0  0  0  0  0  0  0
    2.3729    0.4427   -2.6182 F   0  0  0  0  0  0  0  0  0  0  0  0
    5.4348   -1.6515   -0.2444 F   0  0  0  0  0  0  0  0  0  0  0  0
    2.5973   -0.8367    1.2438 C   0  0  0  0  0  0  0  0  0  0  0  0
    2.7355   -0.4600   -1.6906 C   0  0  0  0  0  0  0  0  0  0  0  0
    3.8591   -1.1704   -1.9510 C   0  0  0  0  0  0  0  0  0  0  0  0
    4.5356   -2.2139   -1.0854 C   0  0  0  0  0  0  0  0  0  0  0  0
    3.5854   -0.1363    1.8465 C   0  0  0  0  0  0  0  0  0  0  0  0
    4.2241    1.1500    1.3763 C   0  0  0  0  0  0  0  0  0  0  0  0
    0.6229   -2.0283   -0.4418 C   0  0  0  0  0  0  0  0  0  0  0  0
    0.3451   -2.0641   -1.5152 H   0  0  0  0  0  0  0  0  0  0  0  0
    1.2818   -2.8889   -0.2243 H   0  0  0  0  0  0  0  0  0  0  0  0
  1 12  1  6  0  0  0
  1 18  1  0  0  0  0
  1 13  1  0  0  0  0
  3 15  1  0  0  0  0
  4 12  1  0  0  0  0
  5 17  1  0  0  0  0
  6 16  1  0  0  0  0
  9 17  1  0  0  0  0
 11 15  1  0  0  0  0
 13 14  2  0  0  0  0
 13 10  1  0  0  0  0
 14  7  1  0  0  0  0
 15  8  1  0  0  0  0
 15 14  1  0  0  0  0
 16 17  1  0  0  0  0
 16 12  2  0  0  0  0
 17  2  1  0  0  0  0
 18 19  1  0  0  0  0
 20 18  1  0  0  0  0
 21 33  1  6  0  0  0
 21 32  1  0  0  0  0
 22 37  1  0  0  0  0
 27 34  1  0  0  0  0
 28 35  1  0  0  0  0
 30 33  1  0  0  0  0
 32 36  2  0  0  0  0
 32 24  1  0  0  0  0
 34 33  2  0  0  0  0
 34 35  1  0  0  0  0
 35 23  1  0  0  0  0
 35 31  1  0  0  0  0
 36 26  1  0  0  0  0
 37 25  1  0  0  0  0
 37 36  1  0  0  0  0
 37 29  1  0  0  0  0
 38 21  1  0  0  0  0
 38 40  1  0  0  0  0
 38 18  1  0  0  0  0
 39 38  1  0  0  0  0
M  END
