1,2
 OpenBabel05122313063D

 60 59  0  0  0  0  0  0  0  0999 V2000
   -0.9912    1.4260    0.2955 P   0  0  0  0  0  0  0  0  0  0  0  0
    2.0654   -0.0474    0.1838 P   0  0  0  0  0  0  0  0  0  0  0  0
    0.4057    1.9627    1.4320 C   0  0  0  0  0  0  0  0  0  0  0  0
    1.8287    1.6667    0.9143 C   0  0  0  0  0  0  0  0  0  0  0  0
   -2.4096    1.0028    1.5049 C   0  0  0  0  0  0  0  0  0  0  0  0
   -2.5473    1.9928    2.6732 C   0  0  0  0  0  0  0  0  0  0  0  0
   -2.0750   -0.3971    2.0563 C   0  0  0  0  0  0  0  0  0  0  0  0
   -3.7305    0.9124    0.7228 C   0  0  0  0  0  0  0  0  0  0  0  0
   -1.4081    2.9536   -0.7700 C   0  0  0  0  0  0  0  0  0  0  0  0
   -2.2859    2.4799   -1.9447 C   0  0  0  0  0  0  0  0  0  0  0  0
   -0.0726    3.4585   -1.3453 C   0  0  0  0  0  0  0  0  0  0  0  0
   -2.0911    4.0942   -0.0029 C   0  0  0  0  0  0  0  0  0  0  0  0
    2.6980   -1.1363    1.6196 C   0  0  0  0  0  0  0  0  0  0  0  0
    1.7489   -0.8916    2.8064 C   0  0  0  0  0  0  0  0  0  0  0  0
    2.5601   -2.6111    1.1972 C   0  0  0  0  0  0  0  0  0  0  0  0
    4.1382   -0.8261    2.0501 C   0  0  0  0  0  0  0  0  0  0  0  0
    3.4096    0.2144   -1.1502 C   0  0  0  0  0  0  0  0  0  0  0  0
    3.9053   -1.1637   -1.6198 C   0  0  0  0  0  0  0  0  0  0  0  0
    2.6849    0.8960   -2.3277 C   0  0  0  0  0  0  0  0  0  0  0  0
    4.5900    1.0957   -0.7114 C   0  0  0  0  0  0  0  0  0  0  0  0
    0.2322    1.4147    2.3784 H   0  0  0  0  0  0  0  0  0  0  0  0
    0.3057    3.0404    1.6799 H   0  0  0  0  0  0  0  0  0  0  0  0
    2.0863    2.3696    0.0981 H   0  0  0  0  0  0  0  0  0  0  0  0
    2.5726    1.8457    1.7190 H   0  0  0  0  0  0  0  0  0  0  0  0
   -3.3629    1.6478    3.3431 H   0  0  0  0  0  0  0  0  0  0  0  0
   -1.6288    2.0494    3.2895 H   0  0  0  0  0  0  0  0  0  0  0  0
   -2.8044    3.0146    2.3409 H   0  0  0  0  0  0  0  0  0  0  0  0
   -2.9055   -0.7438    2.7059 H   0  0  0  0  0  0  0  0  0  0  0  0
   -1.9460   -1.1439    1.2467 H   0  0  0  0  0  0  0  0  0  0  0  0
   -1.1596   -0.3924    2.6794 H   0  0  0  0  0  0  0  0  0  0  0  0
   -4.5147    0.4931    1.3870 H   0  0  0  0  0  0  0  0  0  0  0  0
   -4.0885    1.9006    0.3771 H   0  0  0  0  0  0  0  0  0  0  0  0
   -3.6415    0.2367   -0.1503 H   0  0  0  0  0  0  0  0  0  0  0  0
   -2.4479    3.3220   -2.6494 H   0  0  0  0  0  0  0  0  0  0  0  0
   -1.7902    1.6597   -2.5043 H   0  0  0  0  0  0  0  0  0  0  0  0
   -3.2795    2.1211   -1.6200 H   0  0  0  0  0  0  0  0  0  0  0  0
   -0.2746    4.2533   -2.0931 H   0  0  0  0  0  0  0  0  0  0  0  0
    0.5835    3.8994   -0.5693 H   0  0  0  0  0  0  0  0  0  0  0  0
    0.4801    2.6485   -1.8612 H   0  0  0  0  0  0  0  0  0  0  0  0
   -2.1994    4.9726   -0.6737 H   0  0  0  0  0  0  0  0  0  0  0  0
   -3.1056    3.8236    0.3455 H   0  0  0  0  0  0  0  0  0  0  0  0
   -1.4974    4.4247    0.8730 H   0  0  0  0  0  0  0  0  0  0  0  0
    1.9903   -1.6100    3.6170 H   0  0  0  0  0  0  0  0  0  0  0  0
    1.8525    0.1260    3.2314 H   0  0  0  0  0  0  0  0  0  0  0  0
    0.6910   -1.0558    2.5218 H   0  0  0  0  0  0  0  0  0  0  0  0
    2.8464   -3.2650    2.0472 H   0  0  0  0  0  0  0  0  0  0  0  0
    1.5116   -2.8496    0.9279 H   0  0  0  0  0  0  0  0  0  0  0  0
    3.2077   -2.8773    0.3418 H   0  0  0  0  0  0  0  0  0  0  0  0
    4.3807   -1.4148    2.9599 H   0  0  0  0  0  0  0  0  0  0  0  0
    4.8797   -1.1027    1.2771 H   0  0  0  0  0  0  0  0  0  0  0  0
    4.2799    0.2431    2.3054 H   0  0  0  0  0  0  0  0  0  0  0  0
    4.5426   -1.0391   -2.5198 H   0  0  0  0  0  0  0  0  0  0  0  0
    4.5163   -1.6779   -0.8539 H   0  0  0  0  0  0  0  0  0  0  0  0
    3.0600   -1.8281   -1.8951 H   0  0  0  0  0  0  0  0  0  0  0  0
    3.3689    0.9591   -3.1996 H   0  0  0  0  0  0  0  0  0  0  0  0
    1.7838    0.3245   -2.6382 H   0  0  0  0  0  0  0  0  0  0  0  0
    2.3704    1.9300   -2.0866 H   0  0  0  0  0  0  0  0  0  0  0  0
    5.2664    1.2545   -1.5777 H   0  0  0  0  0  0  0  0  0  0  0  0
    4.2617    2.0977   -0.3715 H   0  0  0  0  0  0  0  0  0  0  0  0
    5.1906    0.6374    0.0939 H   0  0  0  0  0  0  0  0  0  0  0  0
  1  3  1  0  0  0  0
  1  5  1  0  0  0  0
  2  4  1  0  0  0  0
  2 13  1  0  0  0  0
  3 22  1  0  0  0  0
  3 21  1  0  0  0  0
  4  3  1  0  0  0  0
  4 24  1  0  0  0  0
  5  7  1  0  0  0  0
  5  6  1  0  0  0  0
  6 26  1  0  0  0  0
  6 25  1  0  0  0  0
  7 30  1  0  0  0  0
  7 28  1  0  0  0  0
  8 31  1  0  0  0  0
  8  5  1  0  0  0  0
  9 12  1  0  0  0  0
  9  1  1  0  0  0  0
 10 36  1  0  0  0  0
 10  9  1  0  0  0  0
 11  9  1  0  0  0  0
 11 38  1  0  0  0  0
 12 41  1  0  0  0  0
 12 42  1  0  0  0  0
 13 16  1  0  0  0  0
 13 14  1  0  0  0  0
 14 44  1  0  0  0  0
 14 43  1  0  0  0  0
 15 13  1  0  0  0  0
 15 46  1  0  0  0  0
 16 51  1  0  0  0  0
 16 49  1  0  0  0  0
 17 20  1  0  0  0  0
 17  2  1  0  0  0  0
 18 17  1  0  0  0  0
 18 53  1  0  0  0  0
 19 57  1  0  0  0  0
 19 17  1  0  0  0  0
 20 59  1  0  0  0  0
 20 60  1  0  0  0  0
 23  4  1  0  0  0  0
 27  6  1  0  0  0  0
 29  7  1  0  0  0  0
 32  8  1  0  0  0  0
 33  8  1  0  0  0  0
 34 10  1  0  0  0  0
 35 10  1  0  0  0  0
 37 11  1  0  0  0  0
 39 11  1  0  0  0  0
 40 12  1  0  0  0  0
 45 14  1  0  0  0  0
 47 15  1  0  0  0  0
 48 15  1  0  0  0  0
 50 16  1  0  0  0  0
 52 18  1  0  0  0  0
 54 18  1  0  0  0  0
 55 19  1  0  0  0  0
 56 19  1  0  0  0  0
 58 20  1  0  0  0  0
M  END
