1,2
 OpenBabel05122313063D

 61 65  0  0  0  0  0  0  0  0999 V2000
   -1.3603   -0.0350   -0.0437 P   0  0  0  0  0  0  0  0  0  0  0  0
    1.3429   -0.1208    0.0932 P   0  0  0  0  0  0  0  0  0  0  0  0
    0.5278    5.1810   -0.3650 O   0  0  0  0  0  0  0  0  0  0  0  0
    0.0104    1.0518    0.0237 N   0  0  0  0  0  0  0  0  0  0  0  0
   -0.0592    2.4308   -0.0630 N   0  0  0  0  0  0  0  0  0  0  0  0
    0.2267    2.9930   -1.3911 C   0  0  0  0  0  0  0  0  0  0  0  0
   -0.3710    2.4399   -2.1416 H   0  0  0  0  0  0  0  0  0  0  0  0
    1.3041    2.8908   -1.6574 H   0  0  0  0  0  0  0  0  0  0  0  0
   -0.1577    4.4706   -1.3845 C   0  0  0  0  0  0  0  0  0  0  0  0
    0.1132    4.9439   -2.3489 H   0  0  0  0  0  0  0  0  0  0  0  0
   -1.2641    4.5617   -1.2450 H   0  0  0  0  0  0  0  0  0  0  0  0
    0.2241    4.6442    0.9090 C   0  0  0  0  0  0  0  0  0  0  0  0
   -0.8689    4.7530    1.1267 H   0  0  0  0  0  0  0  0  0  0  0  0
    0.7875    5.2376    1.6564 H   0  0  0  0  0  0  0  0  0  0  0  0
    0.6058    3.1663    1.0112 C   0  0  0  0  0  0  0  0  0  0  0  0
    1.7189    3.0673    0.9517 H   0  0  0  0  0  0  0  0  0  0  0  0
    0.2879    2.7477    1.9865 H   0  0  0  0  0  0  0  0  0  0  0  0
    2.5986    0.2118   -1.1836 C   0  0  0  0  0  0  0  0  0  0  0  0
    3.3965    1.3770   -1.1610 C   0  0  0  0  0  0  0  0  0  0  0  0
    3.2988    2.1027   -0.3387 H   0  0  0  0  0  0  0  0  0  0  0  0
    4.3200    1.6109   -2.1881 C   0  0  0  0  0  0  0  0  0  0  0  0
    4.9362    2.5225   -2.1725 H   0  0  0  0  0  0  0  0  0  0  0  0
    4.4594    0.6799   -3.2328 C   0  0  0  0  0  0  0  0  0  0  0  0
    5.1864    0.8657   -4.0381 H   0  0  0  0  0  0  0  0  0  0  0  0
    3.6843   -0.4895   -3.2426 C   0  0  0  0  0  0  0  0  0  0  0  0
    3.8073   -1.2282   -4.0488 H   0  0  0  0  0  0  0  0  0  0  0  0
    2.7524   -0.7309   -2.2210 C   0  0  0  0  0  0  0  0  0  0  0  0
    2.1653   -1.6632   -2.1932 H   0  0  0  0  0  0  0  0  0  0  0  0
    2.1474    0.1188    1.7126 C   0  0  0  0  0  0  0  0  0  0  0  0
    3.5450    0.0511    1.8752 C   0  0  0  0  0  0  0  0  0  0  0  0
    4.1969   -0.0905    1.0011 H   0  0  0  0  0  0  0  0  0  0  0  0
    4.1042    0.1527    3.1589 C   0  0  0  0  0  0  0  0  0  0  0  0
    5.1964    0.0994    3.2816 H   0  0  0  0  0  0  0  0  0  0  0  0
    3.2762    0.3132    4.2799 C   0  0  0  0  0  0  0  0  0  0  0  0
    3.7186    0.3914    5.2845 H   0  0  0  0  0  0  0  0  0  0  0  0
    1.8798    0.3561    4.1213 C   0  0  0  0  0  0  0  0  0  0  0  0
    1.2257    0.4608    5.0000 H   0  0  0  0  0  0  0  0  0  0  0  0
    1.3139    0.2501    2.8454 C   0  0  0  0  0  0  0  0  0  0  0  0
    0.2196    0.2564    2.7225 H   0  0  0  0  0  0  0  0  0  0  0  0
   -2.3741    0.4208   -1.4873 C   0  0  0  0  0  0  0  0  0  0  0  0
   -3.0204    1.6735   -1.5660 C   0  0  0  0  0  0  0  0  0  0  0  0
   -2.9549    2.3845   -0.7294 H   0  0  0  0  0  0  0  0  0  0  0  0
   -3.7437    2.0099   -2.7183 C   0  0  0  0  0  0  0  0  0  0  0  0
   -4.2410    2.9896   -2.7853 H   0  0  0  0  0  0  0  0  0  0  0  0
   -3.8435    1.0935   -3.7798 C   0  0  0  0  0  0  0  0  0  0  0  0
   -4.4191    1.3585   -4.6799 H   0  0  0  0  0  0  0  0  0  0  0  0
   -3.2251   -0.1632   -3.6872 C   0  0  0  0  0  0  0  0  0  0  0  0
   -3.3207   -0.8886   -4.5090 H   0  0  0  0  0  0  0  0  0  0  0  0
   -2.4862   -0.5055   -2.5443 C   0  0  0  0  0  0  0  0  0  0  0  0
   -2.0195   -1.4984   -2.4417 H   0  0  0  0  0  0  0  0  0  0  0  0
   -2.3894    0.2620    1.4316 C   0  0  0  0  0  0  0  0  0  0  0  0
   -2.5533    1.5430    2.0017 C   0  0  0  0  0  0  0  0  0  0  0  0
   -2.0652    2.4146    1.5411 H   0  0  0  0  0  0  0  0  0  0  0  0
   -3.3365    1.6934    3.1554 C   0  0  0  0  0  0  0  0  0  0  0  0
   -3.4616    2.6907    3.6043 H   0  0  0  0  0  0  0  0  0  0  0  0
   -3.9616    0.5762    3.7344 C   0  0  0  0  0  0  0  0  0  0  0  0
   -4.5758    0.6992    4.6395 H   0  0  0  0  0  0  0  0  0  0  0  0
   -3.8026   -0.6958    3.1611 C   0  0  0  0  0  0  0  0  0  0  0  0
   -4.2893   -1.5719    3.6156 H   0  0  0  0  0  0  0  0  0  0  0  0
   -3.0144   -0.8620    2.0124 C   0  0  0  0  0  0  0  0  0  0  0  0
   -2.8709   -1.8574    1.5565 H   0  0  0  0  0  0  0  0  0  0  0  0
  1  4  1  0  0  0  0
  1 51  1  0  0  0  0
  2 29  1  0  0  0  0
  3 12  1  0  0  0  0
  4  2  1  0  0  0  0
  5  4  1  0  0  0  0
  5 15  1  0  0  0  0
  6  9  1  0  0  0  0
  6  5  1  0  0  0  0
  7  6  1  0  0  0  0
  8  6  1  0  0  0  0
  9 11  1  0  0  0  0
  9  3  1  0  0  0  0
 10  9  1  0  0  0  0
 12 15  1  0  0  0  0
 12 13  1  0  0  0  0
 12 14  1  0  0  0  0
 15 17  1  0  0  0  0
 16 15  1  0  0  0  0
 18 19  1  0  0  0  0
 18  2  1  0  0  0  0
 19 20  1  0  0  0  0
 21 22  1  0  0  0  0
 21 19  2  0  0  0  0
 23 21  1  0  0  0  0
 24 23  1  0  0  0  0
 25 23  2  0  0  0  0
 25 27  1  0  0  0  0
 26 25  1  0  0  0  0
 27 28  1  0  0  0  0
 27 18  2  0  0  0  0
 29 30  2  0  0  0  0
 29 38  1  0  0  0  0
 30 32  1  0  0  0  0
 31 30  1  0  0  0  0
 32 33  1  0  0  0  0
 32 34  2  0  0  0  0
 34 35  1  0  0  0  0
 36 34  1  0  0  0  0
 36 37  1  0  0  0  0
 38 36  2  0  0  0  0
 39 38  1  0  0  0  0
 40  1  1  0  0  0  0
 41 40  1  0  0  0  0
 41 42  1  0  0  0  0
 43 41  2  0  0  0  0
 44 43  1  0  0  0  0
 45 47  2  0  0  0  0
 45 43  1  0  0  0  0
 46 45  1  0  0  0  0
 47 49  1  0  0  0  0
 48 47  1  0  0  0  0
 49 50  1  0  0  0  0
 49 40  2  0  0  0  0
 51 52  2  0  0  0  0
 51 60  1  0  0  0  0
 52 54  1  0  0  0  0
 53 52  1  0  0  0  0
 54 55  1  0  0  0  0
 54 56  2  0  0  0  0
 56 57  1  0  0  0  0
 58 59  1  0  0  0  0
 58 56  1  0  0  0  0
 60 58  2  0  0  0  0
 61 60  1  0  0  0  0
M  END
