1,2
 OpenBabel05122313063D

 57 56  0  0  0  0  0  0  0  0999 V2000
    0.9774   -1.3906   -0.6459 P   0  0  0  0  0  0  0  0  0  0  0  0
    0.9702    1.3949   -0.6464 P   0  0  0  0  0  0  0  0  0  0  0  0
    1.9547    0.0045   -1.4787 C   0  0  0  0  0  0  0  0  0  0  0  0
    1.9441    0.0043   -2.5867 H   0  0  0  0  0  0  0  0  0  0  0  0
    3.0139    0.0073   -1.1477 H   0  0  0  0  0  0  0  0  0  0  0  0
    0.1409   -2.5309   -1.9882 C   0  0  0  0  0  0  0  0  0  0  0  0
    1.0422   -3.6415   -2.5528 C   0  0  0  0  0  0  0  0  0  0  0  0
    0.4718   -4.1787   -3.3405 H   0  0  0  0  0  0  0  0  0  0  0  0
    1.3297   -4.3927   -1.7967 H   0  0  0  0  0  0  0  0  0  0  0  0
    1.9590   -3.2410   -3.0276 H   0  0  0  0  0  0  0  0  0  0  0  0
   -1.0966   -3.1619   -1.3193 C   0  0  0  0  0  0  0  0  0  0  0  0
   -1.7807   -2.3966   -0.9065 H   0  0  0  0  0  0  0  0  0  0  0  0
   -0.8281   -3.8371   -0.4867 H   0  0  0  0  0  0  0  0  0  0  0  0
   -1.6511   -3.7583   -2.0748 H   0  0  0  0  0  0  0  0  0  0  0  0
   -0.3152   -1.6965   -3.1930 C   0  0  0  0  0  0  0  0  0  0  0  0
   -0.7978   -2.3752   -3.9275 H   0  0  0  0  0  0  0  0  0  0  0  0
    0.5260   -1.1984   -3.7126 H   0  0  0  0  0  0  0  0  0  0  0  0
   -1.0627   -0.9346   -2.9230 H   0  0  0  0  0  0  0  0  0  0  0  0
    2.2461   -2.4978    0.3036 C   0  0  0  0  0  0  0  0  0  0  0  0
    1.4480   -3.6429    0.9554 C   0  0  0  0  0  0  0  0  0  0  0  0
    2.1184   -4.1980    1.6446 H   0  0  0  0  0  0  0  0  0  0  0  0
    1.0526   -4.3737    0.2252 H   0  0  0  0  0  0  0  0  0  0  0  0
    0.6048   -3.2409    1.5544 H   0  0  0  0  0  0  0  0  0  0  0  0
    3.4089   -3.0061   -0.5699 C   0  0  0  0  0  0  0  0  0  0  0  0
    3.8876   -2.1818   -1.1381 H   0  0  0  0  0  0  0  0  0  0  0  0
    3.1332   -3.7997   -1.2815 H   0  0  0  0  0  0  0  0  0  0  0  0
    4.1881   -3.4244    0.1017 H   0  0  0  0  0  0  0  0  0  0  0  0
    2.8696   -1.6714    1.4365 C   0  0  0  0  0  0  0  0  0  0  0  0
    2.1161   -1.1858    2.0838 H   0  0  0  0  0  0  0  0  0  0  0  0
    3.5654   -0.9081    1.0444 H   0  0  0  0  0  0  0  0  0  0  0  0
    3.4739   -2.3594    2.0647 H   0  0  0  0  0  0  0  0  0  0  0  0
    0.1276    2.5300   -1.9893 C   0  0  0  0  0  0  0  0  0  0  0  0
    1.0219    3.6461   -2.5541 C   0  0  0  0  0  0  0  0  0  0  0  0
    0.4481    4.1795   -3.3418 H   0  0  0  0  0  0  0  0  0  0  0  0
    1.9411    3.2513   -3.0289 H   0  0  0  0  0  0  0  0  0  0  0  0
    1.3048    4.3993   -1.7983 H   0  0  0  0  0  0  0  0  0  0  0  0
   -0.3228    1.6923   -3.1940 C   0  0  0  0  0  0  0  0  0  0  0  0
   -1.0645    0.9247   -2.9238 H   0  0  0  0  0  0  0  0  0  0  0  0
    0.5220    1.2003   -3.7136 H   0  0  0  0  0  0  0  0  0  0  0  0
   -0.8105    2.3673   -3.9284 H   0  0  0  0  0  0  0  0  0  0  0  0
   -1.1141    3.1536   -1.3210 C   0  0  0  0  0  0  0  0  0  0  0  0
   -1.6723    3.7459   -2.0769 H   0  0  0  0  0  0  0  0  0  0  0  0
   -0.8498    3.8311   -0.4889 H   0  0  0  0  0  0  0  0  0  0  0  0
   -1.7933    2.3843   -0.9075 H   0  0  0  0  0  0  0  0  0  0  0  0
    2.2324    2.5094    0.3029 C   0  0  0  0  0  0  0  0  0  0  0  0
    3.3923    3.0236   -0.5709 C   0  0  0  0  0  0  0  0  0  0  0  0
    4.1692    3.4467    0.1004 H   0  0  0  0  0  0  0  0  0  0  0  0
    3.1123    3.8152   -1.2830 H   0  0  0  0  0  0  0  0  0  0  0  0
    3.8756    2.2016   -1.1385 H   0  0  0  0  0  0  0  0  0  0  0  0
    1.4277    3.6503    0.9539 C   0  0  0  0  0  0  0  0  0  0  0  0
    2.0947    4.2097    1.6427 H   0  0  0  0  0  0  0  0  0  0  0  0
    0.5867    3.2438    1.5529 H   0  0  0  0  0  0  0  0  0  0  0  0
    1.0282    4.3783    0.2231 H   0  0  0  0  0  0  0  0  0  0  0  0
    2.8604    1.6872    1.4364 C   0  0  0  0  0  0  0  0  0  0  0  0
    3.5607    0.9277    1.0449 H   0  0  0  0  0  0  0  0  0  0  0  0
    2.1094    1.1976    2.0837 H   0  0  0  0  0  0  0  0  0  0  0  0
    3.4605    2.3791    2.0644 H   0  0  0  0  0  0  0  0  0  0  0  0
  1 19  1  0  0  0  0
  2 45  1  0  0  0  0
  3  5  1  0  0  0  0
  3  2  1  0  0  0  0
  3  1  1  0  0  0  0
  4  3  1  0  0  0  0
  6 11  1  0  0  0  0
  6  1  1  0  0  0  0
  7  6  1  0  0  0  0
  7  9  1  0  0  0  0
  8  7  1  0  0  0  0
 10  7  1  0  0  0  0
 11 12  1  0  0  0  0
 11 13  1  0  0  0  0
 14 11  1  0  0  0  0
 15 18  1  0  0  0  0
 15  6  1  0  0  0  0
 16 15  1  0  0  0  0
 17 15  1  0  0  0  0
 19 20  1  0  0  0  0
 19 28  1  0  0  0  0
 20 23  1  0  0  0  0
 20 21  1  0  0  0  0
 22 20  1  0  0  0  0
 24 27  1  0  0  0  0
 24 19  1  0  0  0  0
 25 24  1  0  0  0  0
 26 24  1  0  0  0  0
 28 31  1  0  0  0  0
 28 29  1  0  0  0  0
 30 28  1  0  0  0  0
 32 41  1  0  0  0  0
 32  2  1  0  0  0  0
 33 32  1  0  0  0  0
 33 36  1  0  0  0  0
 34 33  1  0  0  0  0
 35 33  1  0  0  0  0
 37 38  1  0  0  0  0
 37 32  1  0  0  0  0
 39 37  1  0  0  0  0
 40 37  1  0  0  0  0
 41 44  1  0  0  0  0
 41 43  1  0  0  0  0
 42 41  1  0  0  0  0
 45 50  1  0  0  0  0
 45 54  1  0  0  0  0
 46 47  1  0  0  0  0
 46 45  1  0  0  0  0
 48 46  1  0  0  0  0
 49 46  1  0  0  0  0
 50 52  1  0  0  0  0
 50 51  1  0  0  0  0
 53 50  1  0  0  0  0
 54 57  1  0  0  0  0
 54 56  1  0  0  0  0
 55 54  1  0  0  0  0
M  END
