1,2
 OpenBabel05122313063D

 48 50  0  0  1  0  0  0  0  0999 V2000
   -1.7386   -1.4962   -0.1244 P   0  0  2  0  0  0  0  0  0  0  0  0
   -1.3223    1.6305    0.0626 P   0  0  2  0  0  0  0  0  0  0  0  0
   -4.1100    1.8828   -0.5597 C   0  0  0  0  0  0  0  0  0  0  0  0
   -3.9760    2.9714   -0.4680 H   0  0  0  0  0  0  0  0  0  0  0  0
   -5.5582   -0.0197   -0.9741 C   0  0  0  0  0  0  0  0  0  0  0  0
   -6.5497   -0.4307   -1.2171 H   0  0  0  0  0  0  0  0  0  0  0  0
   -3.1948   -0.3837   -0.4523 C   0  0  0  0  0  0  0  0  0  0  0  0
   -3.0123    1.0181   -0.3612 C   0  0  0  0  0  0  0  0  0  0  0  0
   -5.3762    1.3690   -0.8690 C   0  0  0  0  0  0  0  0  0  0  0  0
   -6.2233    2.0531   -1.0284 H   0  0  0  0  0  0  0  0  0  0  0  0
   -4.4770   -0.8862   -0.7637 C   0  0  0  0  0  0  0  0  0  0  0  0
   -4.6361   -1.9717   -0.8438 H   0  0  0  0  0  0  0  0  0  0  0  0
   -1.5940    2.5745    1.6778 C   0  0  1  0  0  0  0  0  0  0  0  0
   -2.6963    2.7129    1.7336 H   0  0  0  0  0  0  0  0  0  0  0  0
   -1.1160    1.8305    2.9209 C   0  0  0  0  0  0  0  0  0  0  0  0
   -0.0353    1.5971    2.8572 H   0  0  0  0  0  0  0  0  0  0  0  0
   -1.6554    0.8706    3.0486 H   0  0  0  0  0  0  0  0  0  0  0  0
   -1.2891    2.4407    3.8316 H   0  0  0  0  0  0  0  0  0  0  0  0
   -0.9500    3.9489    1.4175 C   0  0  0  0  0  0  0  0  0  0  0  0
   -1.2886    4.6906    2.1710 H   0  0  0  0  0  0  0  0  0  0  0  0
    0.1539    3.8599    1.5115 H   0  0  0  0  0  0  0  0  0  0  0  0
   -0.9488    3.1830   -0.9346 C   0  0  2  0  0  0  0  0  0  0  0  0
    0.1613    3.1309   -0.9733 H   0  0  0  0  0  0  0  0  0  0  0  0
   -1.3111    4.3634   -0.0146 C   0  0  0  0  0  0  0  0  0  0  0  0
   -2.3988    4.5890   -0.0858 H   0  0  0  0  0  0  0  0  0  0  0  0
   -0.7754    5.2836   -0.3304 H   0  0  0  0  0  0  0  0  0  0  0  0
   -1.4871    3.2223   -2.3602 C   0  0  0  0  0  0  0  0  0  0  0  0
   -2.5944    3.2518   -2.3922 H   0  0  0  0  0  0  0  0  0  0  0  0
   -1.1587    2.3354   -2.9390 H   0  0  0  0  0  0  0  0  0  0  0  0
   -1.1105    4.1235   -2.8869 H   0  0  0  0  0  0  0  0  0  0  0  0
   -0.5864   -2.5586   -2.5204 C   0  0  0  0  0  0  0  0  0  0  0  0
    0.3599   -2.7634   -1.9821 H   0  0  0  0  0  0  0  0  0  0  0  0
   -0.5276   -1.5386   -2.9509 H   0  0  0  0  0  0  0  0  0  0  0  0
   -0.6679   -3.2804   -3.3595 H   0  0  0  0  0  0  0  0  0  0  0  0
   -1.7786   -2.7045   -1.5767 C   0  0  1  0  0  0  0  0  0  0  0  0
   -2.7157   -2.4581   -2.1221 H   0  0  0  0  0  0  0  0  0  0  0  0
   -1.9251   -4.0913   -0.9160 C   0  0  0  0  0  0  0  0  0  0  0  0
   -2.3094   -4.8317   -1.6484 H   0  0  0  0  0  0  0  0  0  0  0  0
   -0.9225   -4.4342   -0.5865 H   0  0  0  0  0  0  0  0  0  0  0  0
   -2.3276   -2.7625    1.1366 C   0  0  2  0  0  0  0  0  0  0  0  0
   -1.3571   -3.0704    1.5858 H   0  0  0  0  0  0  0  0  0  0  0  0
   -2.8392   -3.9562    0.3082 C   0  0  0  0  0  0  0  0  0  0  0  0
   -2.8370   -4.8806    0.9237 H   0  0  0  0  0  0  0  0  0  0  0  0
   -3.8954   -3.7869   -0.0010 H   0  0  0  0  0  0  0  0  0  0  0  0
   -3.2534   -2.2356    2.2261 C   0  0  0  0  0  0  0  0  0  0  0  0
   -4.2255   -1.8920    1.8174 H   0  0  0  0  0  0  0  0  0  0  0  0
   -2.7966   -1.3832    2.7699 H   0  0  0  0  0  0  0  0  0  0  0  0
   -3.4619   -3.0314    2.9708 H   0  0  0  0  0  0  0  0  0  0  0  0
  1  7  1  6  0  0  0
  1 40  1  0  0  0  0
  2  8  1  6  0  0  0
  2 13  1  0  0  0  0
  3  4  1  0  0  0  0
  3  8  1  0  0  0  0
  5  9  1  0  0  0  0
  5 11  2  0  0  0  0
  6  5  1  0  0  0  0
  7  8  2  0  0  0  0
  9  3  2  0  0  0  0
 10  9  1  0  0  0  0
 11  7  1  0  0  0  0
 12 11  1  0  0  0  0
 13 14  1  1  0  0  0
 13 15  1  0  0  0  0
 15 17  1  0  0  0  0
 15 18  1  0  0  0  0
 16 15  1  0  0  0  0
 19 21  1  0  0  0  0
 19 13  1  0  0  0  0
 19 20  1  0  0  0  0
 22 23  1  6  0  0  0
 22 24  1  0  0  0  0
 22  2  1  0  0  0  0
 24 19  1  0  0  0  0
 25 24  1  0  0  0  0
 26 24  1  0  0  0  0
 27 22  1  0  0  0  0
 28 27  1  0  0  0  0
 29 27  1  0  0  0  0
 30 27  1  0  0  0  0
 31 32  1  0  0  0  0
 31 35  1  0  0  0  0
 33 31  1  0  0  0  0
 34 31  1  0  0  0  0
 35 36  1  6  0  0  0
 35 37  1  0  0  0  0
 35  1  1  0  0  0  0
 37 39  1  0  0  0  0
 37 42  1  0  0  0  0
 38 37  1  0  0  0  0
 40 41  1  1  0  0  0
 40 45  1  0  0  0  0
 42 43  1  0  0  0  0
 42 40  1  0  0  0  0
 44 42  1  0  0  0  0
 45 47  1  0  0  0  0
 45 48  1  0  0  0  0
 46 45  1  0  0  0  0
M  END
