1,2
 OpenBabel05122313063D

 60 63  0  0  1  0  0  0  0  0999 V2000
   -1.3187   -0.0504   -0.2327 P   0  0  0  0  0  0  0  0  0  0  0  0
    1.3319   -0.0893   -0.1479 P   0  0  0  0  0  0  0  0  0  0  0  0
    0.0474    0.3117   -1.2642 N   0  0  0  0  0  0  0  0  0  0  0  0
    0.1685    1.2025   -2.4376 C   0  0  2  0  0  0  0  0  0  0  0  0
    1.2216    1.0782   -2.7772 H   0  0  0  0  0  0  0  0  0  0  0  0
   -0.0107    2.6948   -2.0786 C   0  0  0  0  0  0  0  0  0  0  0  0
   -1.0911    2.9159   -1.9556 H   0  0  0  0  0  0  0  0  0  0  0  0
    0.4537    2.8686   -1.0874 H   0  0  0  0  0  0  0  0  0  0  0  0
    0.6136    3.6412   -3.1034 C   0  0  0  0  0  0  0  0  0  0  0  0
    0.4755    4.6985   -2.8026 H   0  0  0  0  0  0  0  0  0  0  0  0
    0.1658    3.5267   -4.1121 H   0  0  0  0  0  0  0  0  0  0  0  0
    1.7056    3.4632   -3.1972 H   0  0  0  0  0  0  0  0  0  0  0  0
   -0.7502    0.7516   -3.5746 C   0  0  0  0  0  0  0  0  0  0  0  0
   -0.5176   -0.2778   -3.9088 H   0  0  0  0  0  0  0  0  0  0  0  0
   -0.6472    1.4282   -4.4452 H   0  0  0  0  0  0  0  0  0  0  0  0
   -1.8118    0.7719   -3.2574 H   0  0  0  0  0  0  0  0  0  0  0  0
   -2.3211   -1.3485   -1.0155 C   0  0  0  0  0  0  0  0  0  0  0  0
   -3.6167   -1.5997   -0.5153 C   0  0  0  0  0  0  0  0  0  0  0  0
   -4.0340   -0.9636    0.2798 H   0  0  0  0  0  0  0  0  0  0  0  0
   -4.3532   -2.6836   -1.0130 C   0  0  0  0  0  0  0  0  0  0  0  0
   -5.3630   -2.8796   -0.6222 H   0  0  0  0  0  0  0  0  0  0  0  0
   -3.8015   -3.5233   -1.9944 C   0  0  0  0  0  0  0  0  0  0  0  0
   -4.3836   -4.3735   -2.3810 H   0  0  0  0  0  0  0  0  0  0  0  0
   -2.4997   -3.2906   -2.4676 C   0  0  0  0  0  0  0  0  0  0  0  0
   -2.0568   -3.9608   -3.2197 H   0  0  0  0  0  0  0  0  0  0  0  0
   -1.7542   -2.2116   -1.9733 C   0  0  0  0  0  0  0  0  0  0  0  0
   -0.7221   -2.0411   -2.3115 H   0  0  0  0  0  0  0  0  0  0  0  0
   -2.3827    1.4223   -0.0779 C   0  0  0  0  0  0  0  0  0  0  0  0
   -2.0976    2.3245    0.9673 C   0  0  0  0  0  0  0  0  0  0  0  0
   -1.3056    2.0720    1.6897 H   0  0  0  0  0  0  0  0  0  0  0  0
   -2.8315    3.5127    1.0816 C   0  0  0  0  0  0  0  0  0  0  0  0
   -2.6098    4.2143    1.8996 H   0  0  0  0  0  0  0  0  0  0  0  0
   -3.8564    3.7989    0.1647 C   0  0  0  0  0  0  0  0  0  0  0  0
   -4.4340    4.7310    0.2591 H   0  0  0  0  0  0  0  0  0  0  0  0
   -4.1583    2.8894   -0.8628 C   0  0  0  0  0  0  0  0  0  0  0  0
   -4.9717    3.1064   -1.5716 H   0  0  0  0  0  0  0  0  0  0  0  0
   -3.4261    1.6998   -0.9852 C   0  0  0  0  0  0  0  0  0  0  0  0
   -3.6695    0.9826   -1.7838 H   0  0  0  0  0  0  0  0  0  0  0  0
    2.4028    1.3771    0.0334 C   0  0  0  0  0  0  0  0  0  0  0  0
    3.3891    1.6943   -0.9233 C   0  0  0  0  0  0  0  0  0  0  0  0
    3.5847    1.0089   -1.7628 H   0  0  0  0  0  0  0  0  0  0  0  0
    4.1293    2.8785   -0.7934 C   0  0  0  0  0  0  0  0  0  0  0  0
    4.8963    3.1296   -1.5416 H   0  0  0  0  0  0  0  0  0  0  0  0
    3.9000    3.7348    0.2966 C   0  0  0  0  0  0  0  0  0  0  0  0
    4.4870    4.6602    0.3992 H   0  0  0  0  0  0  0  0  0  0  0  0
    2.9385    3.4033    1.2657 C   0  0  0  0  0  0  0  0  0  0  0  0
    2.7779    4.0619    2.1324 H   0  0  0  0  0  0  0  0  0  0  0  0
    2.1890    2.2255    1.1393 C   0  0  0  0  0  0  0  0  0  0  0  0
    1.4463    1.9358    1.8995 H   0  0  0  0  0  0  0  0  0  0  0  0
    2.3760   -1.3608   -0.9261 C   0  0  0  0  0  0  0  0  0  0  0  0
    2.2941   -1.7031   -2.2898 C   0  0  0  0  0  0  0  0  0  0  0  0
    1.5754   -1.1920   -2.9474 H   0  0  0  0  0  0  0  0  0  0  0  0
    3.1268   -2.7087   -2.8053 C   0  0  0  0  0  0  0  0  0  0  0  0
    3.0651   -2.9764   -3.8711 H   0  0  0  0  0  0  0  0  0  0  0  0
    4.0305   -3.3747   -1.9621 C   0  0  0  0  0  0  0  0  0  0  0  0
    4.6790   -4.1656   -2.3685 H   0  0  0  0  0  0  0  0  0  0  0  0
    4.0965   -3.0442   -0.5978 C   0  0  0  0  0  0  0  0  0  0  0  0
    4.7879   -3.5824    0.0680 H   0  0  0  0  0  0  0  0  0  0  0  0
    3.2703   -2.0417   -0.0718 C   0  0  0  0  0  0  0  0  0  0  0  0
    3.2789   -1.8042    1.0064 H   0  0  0  0  0  0  0  0  0  0  0  0
  1 28  1  0  0  0  0
  2 39  1  0  0  0  0
  3  1  1  0  0  0  0
  3  2  1  0  0  0  0
  4  5  1  6  0  0  0
  4  6  1  0  0  0  0
  4  3  1  0  0  0  0
  6  7  1  0  0  0  0
  6  8  1  0  0  0  0
  9 10  1  0  0  0  0
  9  6  1  0  0  0  0
 11  9  1  0  0  0  0
 12  9  1  0  0  0  0
 13 16  1  0  0  0  0
 13  4  1  0  0  0  0
 14 13  1  0  0  0  0
 15 13  1  0  0  0  0
 17 18  1  0  0  0  0
 17  1  1  0  0  0  0
 18 19  1  0  0  0  0
 20 21  1  0  0  0  0
 20 18  2  0  0  0  0
 22 20  1  0  0  0  0
 23 22  1  0  0  0  0
 24 22  2  0  0  0  0
 24 26  1  0  0  0  0
 25 24  1  0  0  0  0
 26 17  2  0  0  0  0
 27 26  1  0  0  0  0
 28 29  1  0  0  0  0
 29 31  2  0  0  0  0
 29 30  1  0  0  0  0
 31 32  1  0  0  0  0
 33 34  1  0  0  0  0
 33 31  1  0  0  0  0
 35 33  2  0  0  0  0
 36 35  1  0  0  0  0
 37 35  1  0  0  0  0
 37 28  2  0  0  0  0
 38 37  1  0  0  0  0
 39 48  1  0  0  0  0
 40 42  1  0  0  0  0
 40 39  2  0  0  0  0
 41 40  1  0  0  0  0
 42 44  2  0  0  0  0
 43 42  1  0  0  0  0
 44 45  1  0  0  0  0
 44 46  1  0  0  0  0
 46 47  1  0  0  0  0
 48 46  2  0  0  0  0
 48 49  1  0  0  0  0
 50  2  1  0  0  0  0
 50 59  1  0  0  0  0
 51 50  2  0  0  0  0
 52 51  1  0  0  0  0
 53 51  1  0  0  0  0
 53 55  2  0  0  0  0
 54 53  1  0  0  0  0
 55 57  1  0  0  0  0
 56 55  1  0  0  0  0
 57 59  2  0  0  0  0
 57 58  1  0  0  0  0
 59 60  1  0  0  0  0
M  END
