1,2
 OpenBabel05122313063D

 63 67  0  0  1  0  0  0  0  0999 V2000
    1.0679    0.8157    0.8100 P   0  0  0  0  0  0  0  0  0  0  0  0
   -1.6948   -0.4779    0.8486 P   0  0  0  0  0  0  0  0  0  0  0  0
    2.2063   -0.3852    0.9183 O   0  0  0  0  0  0  0  0  0  0  0  0
    1.9506    2.1907    1.0201 O   0  0  0  0  0  0  0  0  0  0  0  0
   -3.0198    0.2674    1.4621 O   0  0  0  0  0  0  0  0  0  0  0  0
   -2.3011   -1.9948    0.5731 O   0  0  0  0  0  0  0  0  0  0  0  0
    2.5788   -1.2869   -0.0790 C   0  0  0  0  0  0  0  0  0  0  0  0
    2.6609   -0.9259   -1.4313 C   0  0  0  0  0  0  0  0  0  0  0  0
    2.3830    0.0844   -1.7683 H   0  0  0  0  0  0  0  0  0  0  0  0
    3.0813   -1.8909   -2.3599 C   0  0  0  0  0  0  0  0  0  0  0  0
    3.1372   -1.6135   -3.4232 H   0  0  0  0  0  0  0  0  0  0  0  0
    3.4295   -3.1856   -1.9451 C   0  0  0  0  0  0  0  0  0  0  0  0
    3.7645   -3.9312   -2.6814 H   0  0  0  0  0  0  0  0  0  0  0  0
    3.3438   -3.5252   -0.5856 C   0  0  0  0  0  0  0  0  0  0  0  0
    3.6068   -4.5391   -0.2488 H   0  0  0  0  0  0  0  0  0  0  0  0
    2.9098   -2.5795    0.3535 C   0  0  0  0  0  0  0  0  0  0  0  0
    2.8256   -2.8267    1.4214 H   0  0  0  0  0  0  0  0  0  0  0  0
    3.2754    2.3483    0.5917 C   0  0  0  0  0  0  0  0  0  0  0  0
    3.5494    2.7390   -0.7250 C   0  0  0  0  0  0  0  0  0  0  0  0
    2.7127    2.8598   -1.4307 H   0  0  0  0  0  0  0  0  0  0  0  0
    4.8869    2.9317   -1.1045 C   0  0  0  0  0  0  0  0  0  0  0  0
    5.1138    3.2360   -2.1374 H   0  0  0  0  0  0  0  0  0  0  0  0
    5.9273    2.7360   -0.1821 C   0  0  0  0  0  0  0  0  0  0  0  0
    6.9730    2.8878   -0.4888 H   0  0  0  0  0  0  0  0  0  0  0  0
    5.6312    2.3415    1.1328 C   0  0  0  0  0  0  0  0  0  0  0  0
    6.4422    2.1828    1.8597 H   0  0  0  0  0  0  0  0  0  0  0  0
    4.2998    2.1424    1.5271 C   0  0  0  0  0  0  0  0  0  0  0  0
    4.0429    1.8311    2.5497 H   0  0  0  0  0  0  0  0  0  0  0  0
   -3.9091    1.0198    0.6781 C   0  0  0  0  0  0  0  0  0  0  0  0
   -3.6059    2.3555    0.3909 C   0  0  0  0  0  0  0  0  0  0  0  0
   -2.6548    2.7849    0.7372 H   0  0  0  0  0  0  0  0  0  0  0  0
   -4.5143    3.1048   -0.3703 C   0  0  0  0  0  0  0  0  0  0  0  0
   -4.2803    4.1510   -0.6168 H   0  0  0  0  0  0  0  0  0  0  0  0
   -5.7054    2.5194   -0.8273 C   0  0  0  0  0  0  0  0  0  0  0  0
   -6.4120    3.1096   -1.4294 H   0  0  0  0  0  0  0  0  0  0  0  0
   -5.9898    1.1777   -0.5262 C   0  0  0  0  0  0  0  0  0  0  0  0
   -6.9179    0.7137   -0.8923 H   0  0  0  0  0  0  0  0  0  0  0  0
   -5.0878    0.4147    0.2292 C   0  0  0  0  0  0  0  0  0  0  0  0
   -5.2722   -0.6434    0.4615 H   0  0  0  0  0  0  0  0  0  0  0  0
   -1.4273   -2.9892    0.1111 C   0  0  0  0  0  0  0  0  0  0  0  0
   -0.9832   -2.9862   -1.2206 C   0  0  0  0  0  0  0  0  0  0  0  0
   -1.3205   -2.1871   -1.8985 H   0  0  0  0  0  0  0  0  0  0  0  0
   -0.1234   -4.0105   -1.6436 C   0  0  0  0  0  0  0  0  0  0  0  0
    0.2429   -4.0089   -2.6806 H   0  0  0  0  0  0  0  0  0  0  0  0
    0.2745   -5.0236   -0.7565 C   0  0  0  0  0  0  0  0  0  0  0  0
    0.9501   -5.8209   -1.0998 H   0  0  0  0  0  0  0  0  0  0  0  0
   -0.1869   -5.0161    0.5690 C   0  0  0  0  0  0  0  0  0  0  0  0
    0.1159   -5.8116    1.2667 H   0  0  0  0  0  0  0  0  0  0  0  0
   -1.0371   -3.9911    1.0131 C   0  0  0  0  0  0  0  0  0  0  0  0
   -1.4188   -3.9650    2.0446 H   0  0  0  0  0  0  0  0  0  0  0  0
    0.2455    0.6300    2.4343 C   0  0  2  0  0  0  0  0  0  0  0  0
   -0.4110    1.5267    2.5199 H   0  0  0  0  0  0  0  0  0  0  0  0
    1.0198    0.3993    3.7363 C   0  0  0  0  0  0  0  0  0  0  0  0
    1.4197    1.3412    4.1571 H   0  0  0  0  0  0  0  0  0  0  0  0
    1.8805   -0.2682    3.5290 H   0  0  0  0  0  0  0  0  0  0  0  0
   -0.0163   -0.3045    4.6672 C   0  0  0  0  0  0  0  0  0  0  0  0
   -0.3794    0.3824    5.4567 H   0  0  0  0  0  0  0  0  0  0  0  0
    0.4512   -1.1632    5.1880 H   0  0  0  0  0  0  0  0  0  0  0  0
   -1.1990   -0.7656    3.7599 C   0  0  0  0  0  0  0  0  0  0  0  0
   -2.0735   -0.0944    3.8725 H   0  0  0  0  0  0  0  0  0  0  0  0
   -1.5425   -1.7950    3.9777 H   0  0  0  0  0  0  0  0  0  0  0  0
   -0.6416   -0.6282    2.3384 C   0  0  1  0  0  0  0  0  0  0  0  0
    0.0214   -1.4949    2.1039 H   0  0  0  0  0  0  0  0  0  0  0  0
  1  3  1  0  0  0  0
  1  4  1  0  0  0  0
  1 51  1  0  0  0  0
  2  5  1  0  0  0  0
  2 62  1  0  0  0  0
  6  2  1  0  0  0  0
  7 16  1  0  0  0  0
  7  3  1  0  0  0  0
  8  7  2  0  0  0  0
  9  8  1  0  0  0  0
 10 12  2  0  0  0  0
 10  8  1  0  0  0  0
 11 10  1  0  0  0  0
 12 14  1  0  0  0  0
 13 12  1  0  0  0  0
 14 15  1  0  0  0  0
 14 16  2  0  0  0  0
 16 17  1  0  0  0  0
 18  4  1  0  0  0  0
 18 27  1  0  0  0  0
 19 18  2  0  0  0  0
 20 19  1  0  0  0  0
 21 19  1  0  0  0  0
 21 23  2  0  0  0  0
 22 21  1  0  0  0  0
 23 25  1  0  0  0  0
 24 23  1  0  0  0  0
 25 27  2  0  0  0  0
 25 26  1  0  0  0  0
 27 28  1  0  0  0  0
 29  5  1  0  0  0  0
 30 29  1  0  0  0  0
 30 31  1  0  0  0  0
 32 30  2  0  0  0  0
 33 32  1  0  0  0  0
 34 36  2  0  0  0  0
 34 32  1  0  0  0  0
 35 34  1  0  0  0  0
 36 38  1  0  0  0  0
 37 36  1  0  0  0  0
 38 39  1  0  0  0  0
 38 29  2  0  0  0  0
 40  6  1  0  0  0  0
 40 49  1  0  0  0  0
 41 40  2  0  0  0  0
 42 41  1  0  0  0  0
 43 41  1  0  0  0  0
 43 45  2  0  0  0  0
 44 43  1  0  0  0  0
 45 47  1  0  0  0  0
 46 45  1  0  0  0  0
 47 49  2  0  0  0  0
 47 48  1  0  0  0  0
 49 50  1  0  0  0  0
 51 52  1  1  0  0  0
 51 53  1  0  0  0  0
 53 54  1  0  0  0  0
 53 56  1  0  0  0  0
 55 53  1  0  0  0  0
 56 58  1  0  0  0  0
 56 57  1  0  0  0  0
 59 60  1  0  0  0  0
 59 61  1  0  0  0  0
 59 56  1  0  0  0  0
 62 63  1  6  0  0  0
 62 51  1  0  0  0  0
 62 59  1  0  0  0  0
M  END
