1,2
 OpenBabel05122313063D

 55 59  0  0  0  0  0  0  0  0999 V2000
   -1.7711   -0.0489    0.0453 P   0  0  0  0  0  0  0  0  0  0  0  0
    1.4021    0.4464    0.3410 P   0  0  0  0  0  0  0  0  0  0  0  0
    1.6287    2.1001    3.3056 O   0  0  0  0  0  0  0  0  0  0  0  0
   -3.0002    1.0524    3.0461 O   0  0  0  0  0  0  0  0  0  0  0  0
    0.2537    0.9046    1.6979 C   0  0  0  0  0  0  0  0  0  0  0  0
   -1.0818    0.6124    1.6148 C   0  0  0  0  0  0  0  0  0  0  0  0
   -1.7963    1.0698    2.8582 C   0  0  0  0  0  0  0  0  0  0  0  0
   -0.7262    1.5930    3.8167 C   0  0  0  0  0  0  0  0  0  0  0  0
   -0.9770    2.5959    4.2164 H   0  0  0  0  0  0  0  0  0  0  0  0
   -0.6210    0.9139    4.6901 H   0  0  0  0  0  0  0  0  0  0  0  0
    0.5640    1.5983    2.9930 C   0  0  0  0  0  0  0  0  0  0  0  0
   -2.5050    1.5296   -0.5784 C   0  0  0  0  0  0  0  0  0  0  0  0
   -3.6975    2.0371   -0.0155 C   0  0  0  0  0  0  0  0  0  0  0  0
   -4.2104    1.4736    0.7777 H   0  0  0  0  0  0  0  0  0  0  0  0
   -4.2053    3.2677   -0.4531 C   0  0  0  0  0  0  0  0  0  0  0  0
   -5.1355    3.6581   -0.0130 H   0  0  0  0  0  0  0  0  0  0  0  0
   -3.5275    4.0046   -1.4399 C   0  0  0  0  0  0  0  0  0  0  0  0
   -3.9301    4.9715   -1.7785 H   0  0  0  0  0  0  0  0  0  0  0  0
   -2.3363    3.5081   -1.9894 C   0  0  0  0  0  0  0  0  0  0  0  0
   -1.7949    4.0800   -2.7578 H   0  0  0  0  0  0  0  0  0  0  0  0
   -1.8246    2.2728   -1.5620 C   0  0  0  0  0  0  0  0  0  0  0  0
   -0.8901    1.8955   -1.9956 H   0  0  0  0  0  0  0  0  0  0  0  0
   -3.2141   -1.0855    0.4672 C   0  0  0  0  0  0  0  0  0  0  0  0
   -3.2539   -1.8632    1.6411 C   0  0  0  0  0  0  0  0  0  0  0  0
   -2.4364   -1.7996    2.3714 H   0  0  0  0  0  0  0  0  0  0  0  0
   -4.3300   -2.7332    1.8646 C   0  0  0  0  0  0  0  0  0  0  0  0
   -4.3587   -3.3327    2.7869 H   0  0  0  0  0  0  0  0  0  0  0  0
   -5.3616   -2.8450    0.9193 C   0  0  0  0  0  0  0  0  0  0  0  0
   -6.2028   -3.5313    1.0994 H   0  0  0  0  0  0  0  0  0  0  0  0
   -5.3153   -2.0836   -0.2594 C   0  0  0  0  0  0  0  0  0  0  0  0
   -6.1172   -2.1709   -1.0079 H   0  0  0  0  0  0  0  0  0  0  0  0
   -4.2444   -1.2088   -0.4891 C   0  0  0  0  0  0  0  0  0  0  0  0
   -4.2142   -0.6126   -1.4145 H   0  0  0  0  0  0  0  0  0  0  0  0
    2.9856    0.0034    1.1595 C   0  0  0  0  0  0  0  0  0  0  0  0
    3.2175   -1.3344    1.5354 C   0  0  0  0  0  0  0  0  0  0  0  0
    2.4385   -2.0915    1.3568 H   0  0  0  0  0  0  0  0  0  0  0  0
    4.4282   -1.6824    2.1513 C   0  0  0  0  0  0  0  0  0  0  0  0
    4.6071   -2.7290    2.4410 H   0  0  0  0  0  0  0  0  0  0  0  0
    5.4061   -0.7047    2.3924 C   0  0  0  0  0  0  0  0  0  0  0  0
    6.3578   -0.9823    2.8708 H   0  0  0  0  0  0  0  0  0  0  0  0
    5.1691    0.6294    2.0238 C   0  0  0  0  0  0  0  0  0  0  0  0
    5.9306    1.4003    2.2159 H   0  0  0  0  0  0  0  0  0  0  0  0
    3.9616    0.9881    1.4094 C   0  0  0  0  0  0  0  0  0  0  0  0
    3.7770    2.0339    1.1265 H   0  0  0  0  0  0  0  0  0  0  0  0
    1.7509    2.0300   -0.5160 C   0  0  0  0  0  0  0  0  0  0  0  0
    1.1593    3.2520   -0.1464 C   0  0  0  0  0  0  0  0  0  0  0  0
    0.4902    3.3069    0.7242 H   0  0  0  0  0  0  0  0  0  0  0  0
    1.4149    4.4076   -0.9014 C   0  0  0  0  0  0  0  0  0  0  0  0
    0.9464    5.3602   -0.6118 H   0  0  0  0  0  0  0  0  0  0  0  0
    2.2621    4.3465   -2.0183 C   0  0  0  0  0  0  0  0  0  0  0  0
    2.4611    5.2543   -2.6080 H   0  0  0  0  0  0  0  0  0  0  0  0
    2.8542    3.1256   -2.3851 C   0  0  0  0  0  0  0  0  0  0  0  0
    3.5137    3.0727   -3.2643 H   0  0  0  0  0  0  0  0  0  0  0  0
    2.5999    1.9653   -1.6421 C   0  0  0  0  0  0  0  0  0  0  0  0
    3.0405    0.9966   -1.9320 H   0  0  0  0  0  0  0  0  0  0  0  0
  1 23  1  0  0  0  0
  1  6  1  0  0  0  0
  2 34  1  0  0  0  0
  2  5  1  0  0  0  0
  5 11  1  0  0  0  0
  6  5  2  0  0  0  0
  6  7  1  0  0  0  0
  7  4  2  0  0  0  0
  7  8  1  0  0  0  0
  8  9  1  0  0  0  0
  8 10  1  0  0  0  0
 11  3  2  0  0  0  0
 11  8  1  0  0  0  0
 12 13  1  0  0  0  0
 12  1  1  0  0  0  0
 13 14  1  0  0  0  0
 15 13  2  0  0  0  0
 15 16  1  0  0  0  0
 17 15  1  0  0  0  0
 18 17  1  0  0  0  0
 19 21  1  0  0  0  0
 19 17  2  0  0  0  0
 20 19  1  0  0  0  0
 21 12  2  0  0  0  0
 22 21  1  0  0  0  0
 23 24  1  0  0  0  0
 24 26  2  0  0  0  0
 24 25  1  0  0  0  0
 26 27  1  0  0  0  0
 28 29  1  0  0  0  0
 28 26  1  0  0  0  0
 30 28  2  0  0  0  0
 31 30  1  0  0  0  0
 32 30  1  0  0  0  0
 32 23  2  0  0  0  0
 33 32  1  0  0  0  0
 34 43  2  0  0  0  0
 34 35  1  0  0  0  0
 35 37  2  0  0  0  0
 36 35  1  0  0  0  0
 37 39  1  0  0  0  0
 37 38  1  0  0  0  0
 39 40  1  0  0  0  0
 41 42  1  0  0  0  0
 41 39  2  0  0  0  0
 43 41  1  0  0  0  0
 44 43  1  0  0  0  0
 45 46  1  0  0  0  0
 45  2  1  0  0  0  0
 46 47  1  0  0  0  0
 48 49  1  0  0  0  0
 48 46  2  0  0  0  0
 50 48  1  0  0  0  0
 51 50  1  0  0  0  0
 52 50  2  0  0  0  0
 52 54  1  0  0  0  0
 53 52  1  0  0  0  0
 54 45  2  0  0  0  0
 55 54  1  0  0  0  0
M  END
