1,2
 OpenBabel05122313063D

 59 63  0  0  1  0  0  0  0  0999 V2000
   -1.5192    0.0024    0.3879 P   0  0  0  0  0  0  0  0  0  0  0  0
    1.5192   -0.0022    0.3877 P   0  0  0  0  0  0  0  0  0  0  0  0
   -0.6586   -0.3934    1.9965 C   0  0  1  0  0  0  0  0  0  0  0  0
    0.6587    0.3934    1.9966 C   0  0  1  0  0  0  0  0  0  0  0  0
    1.2462    0.0975    3.3811 C   0  0  0  0  0  0  0  0  0  0  0  0
    0.0004   -0.0025    4.3137 C   0  0  0  0  0  0  0  0  0  0  0  0
   -1.2456   -0.0972    3.3812 C   0  0  0  0  0  0  0  0  0  0  0  0
   -2.9126   -1.1795    0.2994 C   0  0  0  0  0  0  0  0  0  0  0  0
   -2.8072   -2.4639    0.8717 C   0  0  0  0  0  0  0  0  0  0  0  0
   -3.8650   -3.3785    0.7579 C   0  0  0  0  0  0  0  0  0  0  0  0
   -5.0343   -3.0206    0.0696 C   0  0  0  0  0  0  0  0  0  0  0  0
   -5.1404   -1.7460   -0.5103 C   0  0  0  0  0  0  0  0  0  0  0  0
   -4.0854   -0.8299   -0.4042 C   0  0  0  0  0  0  0  0  0  0  0  0
   -2.2647    1.6525    0.6692 C   0  0  0  0  0  0  0  0  0  0  0  0
   -1.6397    2.7646    0.0702 C   0  0  0  0  0  0  0  0  0  0  0  0
   -2.1184    4.0585    0.3217 C   0  0  0  0  0  0  0  0  0  0  0  0
   -3.2289    4.2467    1.1602 C   0  0  0  0  0  0  0  0  0  0  0  0
   -3.8649    3.1391    1.7452 C   0  0  0  0  0  0  0  0  0  0  0  0
   -3.3860    1.8426    1.5031 C   0  0  0  0  0  0  0  0  0  0  0  0
    2.2646   -1.6524    0.6687 C   0  0  0  0  0  0  0  0  0  0  0  0
    3.3865   -1.8428    1.5018 C   0  0  0  0  0  0  0  0  0  0  0  0
    3.8652   -3.1395    1.7436 C   0  0  0  0  0  0  0  0  0  0  0  0
    3.2284   -4.2469    1.1593 C   0  0  0  0  0  0  0  0  0  0  0  0
    2.1173   -4.0585    0.3216 C   0  0  0  0  0  0  0  0  0  0  0  0
    1.6388   -2.7645    0.0703 C   0  0  0  0  0  0  0  0  0  0  0  0
    2.9128    1.1795    0.2994 C   0  0  0  0  0  0  0  0  0  0  0  0
    4.0852    0.8302   -0.4049 C   0  0  0  0  0  0  0  0  0  0  0  0
    5.1404    1.7461   -0.5107 C   0  0  0  0  0  0  0  0  0  0  0  0
    5.0348    3.0203    0.0702 C   0  0  0  0  0  0  0  0  0  0  0  0
    3.8660    3.3780    0.7593 C   0  0  0  0  0  0  0  0  0  0  0  0
    2.8080    2.4635    0.8729 C   0  0  0  0  0  0  0  0  0  0  0  0
   -0.4002   -1.4745    1.9183 H   0  0  0  0  0  0  0  0  0  0  0  0
    0.4001    1.4744    1.9181 H   0  0  0  0  0  0  0  0  0  0  0  0
    1.7806   -0.8735    3.3534 H   0  0  0  0  0  0  0  0  0  0  0  0
    1.9764    0.8649    3.7043 H   0  0  0  0  0  0  0  0  0  0  0  0
    0.0801   -0.8886    4.9743 H   0  0  0  0  0  0  0  0  0  0  0  0
   -0.0791    0.8791    4.9802 H   0  0  0  0  0  0  0  0  0  0  0  0
   -1.9785   -0.8623    3.7035 H   0  0  0  0  0  0  0  0  0  0  0  0
   -1.7765    0.8758    3.3541 H   0  0  0  0  0  0  0  0  0  0  0  0
   -1.8936   -2.7660    1.4049 H   0  0  0  0  0  0  0  0  0  0  0  0
   -3.7713   -4.3779    1.2090 H   0  0  0  0  0  0  0  0  0  0  0  0
   -5.8633   -3.7390   -0.0198 H   0  0  0  0  0  0  0  0  0  0  0  0
   -6.0507   -1.4632   -1.0602 H   0  0  0  0  0  0  0  0  0  0  0  0
   -4.1570    0.1579   -0.8808 H   0  0  0  0  0  0  0  0  0  0  0  0
   -0.7967    2.5931   -0.6182 H   0  0  0  0  0  0  0  0  0  0  0  0
   -1.6305    4.9227   -0.1539 H   0  0  0  0  0  0  0  0  0  0  0  0
   -3.6097    5.2618    1.3502 H   0  0  0  0  0  0  0  0  0  0  0  0
   -4.7435    3.2850    2.3919 H   0  0  0  0  0  0  0  0  0  0  0  0
   -3.8938    0.9745    1.9503 H   0  0  0  0  0  0  0  0  0  0  0  0
    3.8950   -0.9748    1.9484 H   0  0  0  0  0  0  0  0  0  0  0  0
    4.7443   -3.2855    2.3896 H   0  0  0  0  0  0  0  0  0  0  0  0
    3.6090   -5.2621    1.3490 H   0  0  0  0  0  0  0  0  0  0  0  0
    1.6288   -4.9225   -0.1535 H   0  0  0  0  0  0  0  0  0  0  0  0
    0.7953   -2.5928   -0.6175 H   0  0  0  0  0  0  0  0  0  0  0  0
    4.1564   -0.1573   -0.8823 H   0  0  0  0  0  0  0  0  0  0  0  0
    6.0503    1.4636   -1.0613 H   0  0  0  0  0  0  0  0  0  0  0  0
    5.8639    3.7385   -0.0190 H   0  0  0  0  0  0  0  0  0  0  0  0
    3.7728    4.3770    1.2113 H   0  0  0  0  0  0  0  0  0  0  0  0
    1.8947    2.7654    1.4068 H   0  0  0  0  0  0  0  0  0  0  0  0
  1 14  1  0  0  0  0
  1  3  1  0  0  0  0
  2 20  1  0  0  0  0
  2  4  1  0  0  0  0
  3 32  1  6  0  0  0
  3  4  1  0  0  0  0
  3  7  1  0  0  0  0
  4 33  1  6  0  0  0
  4  5  1  0  0  0  0
  5 35  1  0  0  0  0
  5  6  1  0  0  0  0
  6 36  1  0  0  0  0
  6 37  1  0  0  0  0
  7 38  1  0  0  0  0
  7  6  1  0  0  0  0
  8  1  1  0  0  0  0
  8  9  1  0  0  0  0
  9 40  1  0  0  0  0
 10  9  2  0  0  0  0
 10 41  1  0  0  0  0
 11 10  1  0  0  0  0
 12 13  1  0  0  0  0
 12 11  2  0  0  0  0
 13  8  2  0  0  0  0
 14 19  1  0  0  0  0
 15 16  1  0  0  0  0
 15 14  2  0  0  0  0
 16 17  2  0  0  0  0
 17 47  1  0  0  0  0
 17 18  1  0  0  0  0
 18 48  1  0  0  0  0
 19 18  2  0  0  0  0
 19 49  1  0  0  0  0
 20 21  1  0  0  0  0
 21 22  2  0  0  0  0
 21 50  1  0  0  0  0
 22 51  1  0  0  0  0
 23 52  1  0  0  0  0
 23 22  1  0  0  0  0
 24 23  2  0  0  0  0
 25 24  1  0  0  0  0
 25 20  2  0  0  0  0
 26  2  1  0  0  0  0
 26 31  1  0  0  0  0
 27 26  2  0  0  0  0
 28 27  1  0  0  0  0
 28 29  2  0  0  0  0
 29 30  1  0  0  0  0
 30 31  2  0  0  0  0
 30 58  1  0  0  0  0
 31 59  1  0  0  0  0
 34  5  1  0  0  0  0
 39  7  1  0  0  0  0
 42 11  1  0  0  0  0
 43 12  1  0  0  0  0
 44 13  1  0  0  0  0
 45 15  1  0  0  0  0
 46 16  1  0  0  0  0
 53 24  1  0  0  0  0
 54 25  1  0  0  0  0
 55 27  1  0  0  0  0
 56 28  1  0  0  0  0
 57 29  1  0  0  0  0
M  END
