1,2
 OpenBabel05122313063D

  4  6  0  0  0  0  0  0  0  0999 V2000
    0.0476    1.9759    1.2727 P   0  0  2  0  0  0  0  0  0  0  0  0
   -0.0474    1.9765   -1.2724 P   0  0  1  0  0  0  0  0  0  0  0  0
   -1.1159    3.4682    0.0443 P   0  0  2  0  0  0  0  0  0  0  0  0
    1.1160    3.4683   -0.0432 P   0  0  1  0  0  0  0  0  0  0  0  0
  2  4  1  0  0  0  0
  2  3  1  0  0  0  0
  2  1  1  0  0  0  0
  3  1  1  0  0  0  0
  4  3  1  0  0  0  0
  4  1  1  0  0  0  0
M  END
