1,31
 OpenBabel05122313063D

 60 62  0  0  1  0  0  0  0  0999 V2000
    1.5530    0.2380   -0.0114 P   0  0  2  0  0  0  0  0  0  0  0  0
    3.3342    0.7244    3.8227 C   0  0  0  0  0  0  0  0  0  0  0  0
    2.9990    1.2787    4.7220 H   0  0  0  0  0  0  0  0  0  0  0  0
    4.3736    1.0436    3.6041 H   0  0  0  0  0  0  0  0  0  0  0  0
    3.3634   -0.3540    4.0814 H   0  0  0  0  0  0  0  0  0  0  0  0
    2.4016    0.9801    2.6362 C   0  0  0  0  0  0  0  0  0  0  0  0
    2.3746    2.0670    2.4034 H   0  0  0  0  0  0  0  0  0  0  0  0
    1.3614    0.7035    2.9162 H   0  0  0  0  0  0  0  0  0  0  0  0
    2.7964    0.1918    1.3860 C   0  0  2  0  0  0  0  0  0  0  0  0
    2.7924   -0.8981    1.6152 H   0  0  0  0  0  0  0  0  0  0  0  0
    4.1411    0.5315    0.7149 C   0  0  0  0  0  0  0  0  0  0  0  0
    4.9911    0.1621    1.3248 H   0  0  0  0  0  0  0  0  0  0  0  0
    4.2604    1.6365    0.6381 H   0  0  0  0  0  0  0  0  0  0  0  0
    4.1345   -0.1060   -0.6823 C   0  0  0  0  0  0  0  0  0  0  0  0
    5.0189    0.1969   -1.2790 H   0  0  0  0  0  0  0  0  0  0  0  0
    4.1491   -1.2121   -0.5827 H   0  0  0  0  0  0  0  0  0  0  0  0
    2.8241    0.2973   -1.3903 C   0  0  1  0  0  0  0  0  0  0  0  0
    2.8824    1.3730   -1.6744 H   0  0  0  0  0  0  0  0  0  0  0  0
    2.4268   -0.5341   -2.6156 C   0  0  0  0  0  0  0  0  0  0  0  0
    2.2970   -1.5874   -2.2875 H   0  0  0  0  0  0  0  0  0  0  0  0
    1.4258   -0.1991   -2.9654 H   0  0  0  0  0  0  0  0  0  0  0  0
    3.4340   -0.4400   -3.7627 C   0  0  0  0  0  0  0  0  0  0  0  0
    3.0888   -1.0231   -4.6396 H   0  0  0  0  0  0  0  0  0  0  0  0
    4.4254   -0.8428   -3.4714 H   0  0  0  0  0  0  0  0  0  0  0  0
    3.5834    0.6095   -4.0948 H   0  0  0  0  0  0  0  0  0  0  0  0
    0.7074    1.8813   -0.0135 C   0  0  0  0  0  0  0  0  0  0  0  0
    1.4045    3.1067   -0.0304 C   0  0  0  0  0  0  0  0  0  0  0  0
    2.5050    3.1154   -0.0526 H   0  0  0  0  0  0  0  0  0  0  0  0
    0.7025    4.3202   -0.0154 C   0  0  0  0  0  0  0  0  0  0  0  0
    1.2542    5.2722   -0.0257 H   0  0  0  0  0  0  0  0  0  0  0  0
   -1.5530    0.2381    0.0117 P   0  0  2  0  0  0  0  0  0  0  0  0
   -3.3331    0.7246   -3.8229 C   0  0  0  0  0  0  0  0  0  0  0  0
   -2.9977    1.2792   -4.7221 H   0  0  0  0  0  0  0  0  0  0  0  0
   -4.3727    1.0436   -3.6047 H   0  0  0  0  0  0  0  0  0  0  0  0
   -3.3620   -0.3537   -4.0818 H   0  0  0  0  0  0  0  0  0  0  0  0
   -2.4010    0.9805   -2.6361 C   0  0  0  0  0  0  0  0  0  0  0  0
   -2.3742    2.0673   -2.4032 H   0  0  0  0  0  0  0  0  0  0  0  0
   -1.3606    0.7040   -2.9159 H   0  0  0  0  0  0  0  0  0  0  0  0
   -2.7961    0.1919   -1.3861 C   0  0  2  0  0  0  0  0  0  0  0  0
   -2.7919   -0.8979   -1.6154 H   0  0  0  0  0  0  0  0  0  0  0  0
   -4.1410    0.5316   -0.7154 C   0  0  0  0  0  0  0  0  0  0  0  0
   -4.9908    0.1621   -1.3254 H   0  0  0  0  0  0  0  0  0  0  0  0
   -4.2604    1.6366   -0.6385 H   0  0  0  0  0  0  0  0  0  0  0  0
   -4.1347   -0.1060    0.6819 C   0  0  0  0  0  0  0  0  0  0  0  0
   -5.0192    0.1968    1.2783 H   0  0  0  0  0  0  0  0  0  0  0  0
   -4.1491   -1.2121    0.5822 H   0  0  0  0  0  0  0  0  0  0  0  0
   -2.8245    0.2975    1.3902 C   0  0  1  0  0  0  0  0  0  0  0  0
   -2.8829    1.3732    1.6742 H   0  0  0  0  0  0  0  0  0  0  0  0
   -2.4274   -0.5339    2.6156 C   0  0  0  0  0  0  0  0  0  0  0  0
   -2.2975   -1.5872    2.2875 H   0  0  0  0  0  0  0  0  0  0  0  0
   -1.4265   -0.1988    2.9656 H   0  0  0  0  0  0  0  0  0  0  0  0
   -3.4349   -0.4399    3.7624 C   0  0  0  0  0  0  0  0  0  0  0  0
   -3.0899   -1.0229    4.6394 H   0  0  0  0  0  0  0  0  0  0  0  0
   -4.4262   -0.8427    3.4708 H   0  0  0  0  0  0  0  0  0  0  0  0
   -3.5845    0.6096    4.0944 H   0  0  0  0  0  0  0  0  0  0  0  0
   -0.7072    1.8814    0.0139 C   0  0  0  0  0  0  0  0  0  0  0  0
   -1.4043    3.1068    0.0307 C   0  0  0  0  0  0  0  0  0  0  0  0
   -2.5048    3.1156    0.0529 H   0  0  0  0  0  0  0  0  0  0  0  0
   -0.7022    4.3202    0.0157 C   0  0  0  0  0  0  0  0  0  0  0  0
   -1.2538    5.2723    0.0260 H   0  0  0  0  0  0  0  0  0  0  0  0
  1 26  1  1  0  0  0
  1  9  1  0  0  0  0
  2  5  1  0  0  0  0
  2  3  1  0  0  0  0
  4  2  1  0  0  0  0
  6  8  1  0  0  0  0
  6  2  1  0  0  0  0
  7  6  1  0  0  0  0
  9 10  1  1  0  0  0
  9  6  1  0  0  0  0
 11 12  1  0  0  0  0
 11  9  1  0  0  0  0
 13 11  1  0  0  0  0
 14 16  1  0  0  0  0
 14 11  1  0  0  0  0
 15 14  1  0  0  0  0
 17 18  1  6  0  0  0
 17 14  1  0  0  0  0
 17  1  1  0  0  0  0
 19 20  1  0  0  0  0
 19 17  1  0  0  0  0
 21 19  1  0  0  0  0
 22 24  1  0  0  0  0
 22 19  1  0  0  0  0
 23 22  1  0  0  0  0
 25 22  1  0  0  0  0
 26 56  1  0  0  0  0
 27 29  1  0  0  0  0
 27 26  2  0  0  0  0
 28 27  1  0  0  0  0
 29 59  2  0  0  0  0
 30 29  1  0  0  0  0
 31 56  1  6  0  0  0
 31 47  1  0  0  0  0
 32 34  1  0  0  0  0
 32 36  1  0  0  0  0
 33 32  1  0  0  0  0
 35 32  1  0  0  0  0
 36 37  1  0  0  0  0
 36 39  1  0  0  0  0
 38 36  1  0  0  0  0
 39 40  1  6  0  0  0
 39 41  1  0  0  0  0
 39 31  1  0  0  0  0
 41 43  1  0  0  0  0
 41 44  1  0  0  0  0
 42 41  1  0  0  0  0
 44 45  1  0  0  0  0
 44 47  1  0  0  0  0
 46 44  1  0  0  0  0
 47 48  1  1  0  0  0
 47 49  1  0  0  0  0
 49 51  1  0  0  0  0
 49 52  1  0  0  0  0
 50 49  1  0  0  0  0
 52 55  1  0  0  0  0
 52 53  1  0  0  0  0
 54 52  1  0  0  0  0
 56 57  2  0  0  0  0
 57 58  1  0  0  0  0
 59 60  1  0  0  0  0
 59 57  1  0  0  0  0
M  END
