1,2
 OpenBabel05122313063D

 68 72  0  0  0  0  0  0  0  0999 V2000
   -0.4578   -1.4099    0.1356 P   0  0  0  0  0  0  0  0  0  0  0  0
   -1.2399    1.1285   -0.1360 P   0  0  0  0  0  0  0  0  0  0  0  0
    4.2131   -0.8333   -0.3725 O   0  0  0  0  0  0  0  0  0  0  0  0
    0.2209    0.1884   -0.0114 N   0  0  0  0  0  0  0  0  0  0  0  0
    0.2433   -2.0645    1.6870 C   0  0  0  0  0  0  0  0  0  0  0  0
   -1.2268    2.3524    1.2123 C   0  0  0  0  0  0  0  0  0  0  0  0
    0.1722   -2.4670   -1.2093 C   0  0  0  0  0  0  0  0  0  0  0  0
    3.8026    1.4911   -0.4486 C   0  0  0  0  0  0  0  0  0  0  0  0
   -1.1513    2.0656   -1.6924 C   0  0  0  0  0  0  0  0  0  0  0  0
    6.0297    0.6974    0.2222 C   0  0  0  0  0  0  0  0  0  0  0  0
    0.5176   -1.7864    4.0888 C   0  0  0  0  0  0  0  0  0  0  0  0
   -1.1858    3.3849   -4.1688 C   0  0  0  0  0  0  0  0  0  0  0  0
    6.4523    2.0277    0.3847 C   0  0  0  0  0  0  0  0  0  0  0  0
   -0.5280    1.4773   -2.8123 C   0  0  0  0  0  0  0  0  0  0  0  0
    4.7120    0.4298   -0.1908 C   0  0  0  0  0  0  0  0  0  0  0  0
   -1.1472    4.1068    3.4003 C   0  0  0  0  0  0  0  0  0  0  0  0
   -0.2410    4.2720    2.3393 C   0  0  0  0  0  0  0  0  0  0  0  0
   -1.8294    3.9574   -3.0601 C   0  0  0  0  0  0  0  0  0  0  0  0
    4.2572    2.8074   -0.2734 C   0  0  0  0  0  0  0  0  0  0  0  0
    1.5142   -2.4100   -1.6445 C   0  0  0  0  0  0  0  0  0  0  0  0
    1.9340   -3.2347   -2.6986 C   0  0  0  0  0  0  0  0  0  0  0  0
   -0.0014   -1.3342    2.8702 C   0  0  0  0  0  0  0  0  0  0  0  0
    1.5699    0.6250    0.3306 C   0  0  0  0  0  0  0  0  0  0  0  0
   -0.7417   -3.3500   -1.8217 C   0  0  0  0  0  0  0  0  0  0  0  0
    1.2696   -2.9737    4.1374 C   0  0  0  0  0  0  0  0  0  0  0  0
    5.5712    3.0875    0.1384 C   0  0  0  0  0  0  0  0  0  0  0  0
   -2.1459    2.1960    2.2708 C   0  0  0  0  0  0  0  0  0  0  0  0
   -1.8190    3.3003   -1.8210 C   0  0  0  0  0  0  0  0  0  0  0  0
   -0.5387    2.1435   -4.0445 C   0  0  0  0  0  0  0  0  0  0  0  0
    2.3829    1.1841   -0.8522 C   0  0  0  0  0  0  0  0  0  0  0  0
    1.5006   -3.7083    2.9646 C   0  0  0  0  0  0  0  0  0  0  0  0
    0.9894   -3.2576    1.7370 C   0  0  0  0  0  0  0  0  0  0  0  0
    1.0274   -4.1189   -3.3088 C   0  0  0  0  0  0  0  0  0  0  0  0
   -0.2818    3.4018    1.2404 C   0  0  0  0  0  0  0  0  0  0  0  0
    5.0404   -1.9473   -0.0854 C   0  0  0  0  0  0  0  0  0  0  0  0
   -0.3039   -4.1779   -2.8674 C   0  0  0  0  0  0  0  0  0  0  0  0
   -2.1016    3.0774    3.3615 C   0  0  0  0  0  0  0  0  0  0  0  0
    6.7332   -0.1224    0.4191 H   0  0  0  0  0  0  0  0  0  0  0  0
    0.3261   -1.2150    5.0094 H   0  0  0  0  0  0  0  0  0  0  0  0
   -1.1967    3.9041   -5.1391 H   0  0  0  0  0  0  0  0  0  0  0  0
    7.4852    2.2276    0.7077 H   0  0  0  0  0  0  0  0  0  0  0  0
   -0.0402    0.4958   -2.7106 H   0  0  0  0  0  0  0  0  0  0  0  0
   -1.1156    4.7950    4.2588 H   0  0  0  0  0  0  0  0  0  0  0  0
    0.4985    5.0866    2.3651 H   0  0  0  0  0  0  0  0  0  0  0  0
   -2.3492    4.9220   -3.1605 H   0  0  0  0  0  0  0  0  0  0  0  0
    3.5563    3.6340   -0.4727 H   0  0  0  0  0  0  0  0  0  0  0  0
    2.2367   -1.7293   -1.1703 H   0  0  0  0  0  0  0  0  0  0  0  0
    2.9775   -3.1836   -3.0460 H   0  0  0  0  0  0  0  0  0  0  0  0
   -0.6066   -0.4143    2.8286 H   0  0  0  0  0  0  0  0  0  0  0  0
    2.1002   -0.2479    0.7624 H   0  0  0  0  0  0  0  0  0  0  0  0
    1.5211    1.3843    1.1420 H   0  0  0  0  0  0  0  0  0  0  0  0
   -1.7870   -3.3788   -1.4635 H   0  0  0  0  0  0  0  0  0  0  0  0
    1.6701   -3.3311    5.0982 H   0  0  0  0  0  0  0  0  0  0  0  0
    5.9019    4.1287    0.2641 H   0  0  0  0  0  0  0  0  0  0  0  0
   -2.9118    1.4061    2.2019 H   0  0  0  0  0  0  0  0  0  0  0  0
   -2.3353    3.7400   -0.9547 H   0  0  0  0  0  0  0  0  0  0  0  0
   -0.0456    1.6872   -4.9160 H   0  0  0  0  0  0  0  0  0  0  0  0
    1.8964    2.0996   -1.2448 H   0  0  0  0  0  0  0  0  0  0  0  0
    2.3684    0.4382   -1.6733 H   0  0  0  0  0  0  0  0  0  0  0  0
    2.0802   -4.6431    3.0034 H   0  0  0  0  0  0  0  0  0  0  0  0
    1.1660   -3.8338    0.8166 H   0  0  0  0  0  0  0  0  0  0  0  0
    1.3623   -4.7635   -4.1360 H   0  0  0  0  0  0  0  0  0  0  0  0
    0.4108    3.5480    0.3968 H   0  0  0  0  0  0  0  0  0  0  0  0
    5.9393   -1.9737   -0.7401 H   0  0  0  0  0  0  0  0  0  0  0  0
    4.4252   -2.8465   -0.2773 H   0  0  0  0  0  0  0  0  0  0  0  0
    5.3677   -1.9525    0.9776 H   0  0  0  0  0  0  0  0  0  0  0  0
   -1.0153   -4.8682   -3.3454 H   0  0  0  0  0  0  0  0  0  0  0  0
   -2.8258    2.9634    4.1821 H   0  0  0  0  0  0  0  0  0  0  0  0
  1  5  1  0  0  0  0
  2  4  1  0  0  0  0
  2  6  1  0  0  0  0
  3 15  1  0  0  0  0
  3 35  1  0  0  0  0
  4  1  1  0  0  0  0
  4 23  1  0  0  0  0
  5 32  2  0  0  0  0
  5 22  1  0  0  0  0
  6 34  2  0  0  0  0
  6 27  1  0  0  0  0
  7  1  1  0  0  0  0
  8 19  2  0  0  0  0
  8 15  1  0  0  0  0
  9  2  1  0  0  0  0
 10 13  1  0  0  0  0
 10 38  1  0  0  0  0
 11 25  1  0  0  0  0
 11 39  1  0  0  0  0
 12 29  2  0  0  0  0
 12 18  1  0  0  0  0
 13 41  1  0  0  0  0
 14 42  1  0  0  0  0
 14  9  2  0  0  0  0
 15 10  2  0  0  0  0
 16 43  1  0  0  0  0
 17 44  1  0  0  0  0
 17 16  2  0  0  0  0
 18 28  2  0  0  0  0
 19 26  1  0  0  0  0
 20  7  1  0  0  0  0
 20 47  1  0  0  0  0
 21 20  2  0  0  0  0
 22 11  2  0  0  0  0
 23 50  1  0  0  0  0
 23 51  1  0  0  0  0
 24 52  1  0  0  0  0
 24  7  2  0  0  0  0
 25 53  1  0  0  0  0
 26 54  1  0  0  0  0
 26 13  2  0  0  0  0
 27 37  2  0  0  0  0
 28  9  1  0  0  0  0
 28 56  1  0  0  0  0
 29 14  1  0  0  0  0
 30  8  1  0  0  0  0
 30 23  1  0  0  0  0
 31 60  1  0  0  0  0
 31 25  2  0  0  0  0
 32 31  1  0  0  0  0
 33 36  2  0  0  0  0
 33 21  1  0  0  0  0
 34 17  1  0  0  0  0
 35 66  1  0  0  0  0
 36 24  1  0  0  0  0
 37 16  1  0  0  0  0
 37 68  1  0  0  0  0
 40 12  1  0  0  0  0
 45 18  1  0  0  0  0
 46 19  1  0  0  0  0
 48 21  1  0  0  0  0
 49 22  1  0  0  0  0
 55 27  1  0  0  0  0
 57 29  1  0  0  0  0
 58 30  1  0  0  0  0
 59 30  1  0  0  0  0
 61 32  1  0  0  0  0
 62 33  1  0  0  0  0
 63 34  1  0  0  0  0
 64 35  1  0  0  0  0
 65 35  1  0  0  0  0
 67 36  1  0  0  0  0
M  END
