1,2
 OpenBabel05122313063D

 60 65  0  0  1  0  0  0  0  0999 V2000
   -1.6472    0.0534    0.2483 P   0  0  0  0  0  0  0  0  0  0  0  0
    1.6767    0.0282    0.3895 P   0  0  0  0  0  0  0  0  0  0  0  0
   -1.3281    0.2025    1.9498 N   0  0  0  0  0  0  0  0  0  0  0  0
    1.0392   -0.0654    2.1313 C   0  0  1  0  0  0  0  0  0  0  0  0
    1.8934    0.1135    2.8121 H   0  0  0  0  0  0  0  0  0  0  0  0
   -0.1427    0.9602    2.3984 C   0  0  2  0  0  0  0  0  0  0  0  0
   -0.0312    1.9506    1.9201 H   0  0  0  0  0  0  0  0  0  0  0  0
   -0.3484    0.9194    3.9047 C   0  0  0  0  0  0  0  0  0  0  0  0
    0.0231    1.6727    4.6123 H   0  0  0  0  0  0  0  0  0  0  0  0
   -0.9390   -0.2662    4.1650 C   0  0  0  0  0  0  0  0  0  0  0  0
   -1.1685   -0.7149    5.1407 H   0  0  0  0  0  0  0  0  0  0  0  0
   -1.0978   -0.9698    2.8250 C   0  0  2  0  0  0  0  0  0  0  0  0
   -1.8792   -1.7455    2.7452 H   0  0  0  0  0  0  0  0  0  0  0  0
    0.3460   -1.4287    2.4060 C   0  0  0  0  0  0  0  0  0  0  0  0
    0.8591   -2.0250    3.1833 H   0  0  0  0  0  0  0  0  0  0  0  0
    0.2822   -2.0466    1.4862 H   0  0  0  0  0  0  0  0  0  0  0  0
    3.0273   -1.2139    0.4246 C   0  0  0  0  0  0  0  0  0  0  0  0
    2.7866   -2.5129   -0.0654 C   0  0  0  0  0  0  0  0  0  0  0  0
    1.8280   -2.7343   -0.5582 H   0  0  0  0  0  0  0  0  0  0  0  0
    3.7794   -3.4960    0.0485 C   0  0  0  0  0  0  0  0  0  0  0  0
    3.5899   -4.5075   -0.3413 H   0  0  0  0  0  0  0  0  0  0  0  0
    5.0166   -3.1867    0.6366 C   0  0  0  0  0  0  0  0  0  0  0  0
    5.7977   -3.9583    0.7144 H   0  0  0  0  0  0  0  0  0  0  0  0
    5.2622   -1.8891    1.1128 C   0  0  0  0  0  0  0  0  0  0  0  0
    6.2357   -1.6394    1.5616 H   0  0  0  0  0  0  0  0  0  0  0  0
    4.2704   -0.9021    1.0092 C   0  0  0  0  0  0  0  0  0  0  0  0
    4.4710    0.1186    1.3700 H   0  0  0  0  0  0  0  0  0  0  0  0
    2.4967    1.6691    0.2725 C   0  0  0  0  0  0  0  0  0  0  0  0
    2.7872    2.1753   -1.0130 C   0  0  0  0  0  0  0  0  0  0  0  0
    2.5242    1.5723   -1.8985 H   0  0  0  0  0  0  0  0  0  0  0  0
    3.4126    3.4225   -1.1478 C   0  0  0  0  0  0  0  0  0  0  0  0
    3.6365    3.8081   -2.1540 H   0  0  0  0  0  0  0  0  0  0  0  0
    3.7458    4.1787   -0.0124 C   0  0  0  0  0  0  0  0  0  0  0  0
    4.2305    5.1606   -0.1242 H   0  0  0  0  0  0  0  0  0  0  0  0
    3.4567    3.6806    1.2670 C   0  0  0  0  0  0  0  0  0  0  0  0
    3.7147    4.2677    2.1616 H   0  0  0  0  0  0  0  0  0  0  0  0
    2.8364    2.4297    1.4121 C   0  0  0  0  0  0  0  0  0  0  0  0
    2.6221    2.0563    2.4241 H   0  0  0  0  0  0  0  0  0  0  0  0
   -2.4877    1.6614   -0.0471 C   0  0  0  0  0  0  0  0  0  0  0  0
   -3.0087    2.4045    1.0341 C   0  0  0  0  0  0  0  0  0  0  0  0
   -2.8980    2.0127    2.0563 H   0  0  0  0  0  0  0  0  0  0  0  0
   -3.6482    3.6302    0.7957 C   0  0  0  0  0  0  0  0  0  0  0  0
   -4.0506    4.2083    1.6417 H   0  0  0  0  0  0  0  0  0  0  0  0
   -3.7733    4.1174   -0.5150 C   0  0  0  0  0  0  0  0  0  0  0  0
   -4.2742    5.0802   -0.6992 H   0  0  0  0  0  0  0  0  0  0  0  0
   -3.2551    3.3765   -1.5895 C   0  0  0  0  0  0  0  0  0  0  0  0
   -3.3498    3.7550   -2.6186 H   0  0  0  0  0  0  0  0  0  0  0  0
   -2.6086    2.1530   -1.3635 C   0  0  0  0  0  0  0  0  0  0  0  0
   -2.2069    1.5604   -2.2013 H   0  0  0  0  0  0  0  0  0  0  0  0
   -2.9292   -1.2513    0.3061 C   0  0  0  0  0  0  0  0  0  0  0  0
   -4.1963   -0.9824    0.8590 C   0  0  0  0  0  0  0  0  0  0  0  0
   -4.4491    0.0371    1.1868 H   0  0  0  0  0  0  0  0  0  0  0  0
   -5.1365   -2.0163    0.9794 C   0  0  0  0  0  0  0  0  0  0  0  0
   -6.1292   -1.8049    1.4049 H   0  0  0  0  0  0  0  0  0  0  0  0
   -4.8143   -3.3147    0.5511 C   0  0  0  0  0  0  0  0  0  0  0  0
   -5.5558   -4.1230    0.6427 H   0  0  0  0  0  0  0  0  0  0  0  0
   -3.5518   -3.5804   -0.0035 C   0  0  0  0  0  0  0  0  0  0  0  0
   -3.3024   -4.5942   -0.3511 H   0  0  0  0  0  0  0  0  0  0  0  0
   -2.6085   -2.5510   -0.1322 C   0  0  0  0  0  0  0  0  0  0  0  0
   -1.6247   -2.7375   -0.5889 H   0  0  0  0  0  0  0  0  0  0  0  0
  1 50  1  0  0  0  0
  1  3  1  0  0  0  0
  2 17  1  0  0  0  0
  2  4  1  0  0  0  0
  3  6  1  0  0  0  0
  3 12  1  0  0  0  0
  4  6  1  0  0  0  0
  4 14  1  0  0  0  0
  4  5  1  1  0  0  0
  6  7  1  6  0  0  0
  6  8  1  0  0  0  0
  8 10  2  0  0  0  0
  8  9  1  0  0  0  0
 10 11  1  0  0  0  0
 12 13  1  6  0  0  0
 12 10  1  0  0  0  0
 14 12  1  0  0  0  0
 14 15  1  0  0  0  0
 16 14  1  0  0  0  0
 17 26  1  0  0  0  0
 18 20  1  0  0  0  0
 18 17  2  0  0  0  0
 19 18  1  0  0  0  0
 20 22  2  0  0  0  0
 21 20  1  0  0  0  0
 22 23  1  0  0  0  0
 22 24  1  0  0  0  0
 24 25  1  0  0  0  0
 26 24  2  0  0  0  0
 26 27  1  0  0  0  0
 28  2  1  0  0  0  0
 28 37  1  0  0  0  0
 29 28  2  0  0  0  0
 30 29  1  0  0  0  0
 31 29  1  0  0  0  0
 31 33  2  0  0  0  0
 32 31  1  0  0  0  0
 33 35  1  0  0  0  0
 34 33  1  0  0  0  0
 35 37  2  0  0  0  0
 35 36  1  0  0  0  0
 37 38  1  0  0  0  0
 39  1  1  0  0  0  0
 39 40  1  0  0  0  0
 40 41  1  0  0  0  0
 42 40  2  0  0  0  0
 42 43  1  0  0  0  0
 44 42  1  0  0  0  0
 45 44  1  0  0  0  0
 46 48  1  0  0  0  0
 46 44  2  0  0  0  0
 47 46  1  0  0  0  0
 48 39  2  0  0  0  0
 49 48  1  0  0  0  0
 50 51  1  0  0  0  0
 51 53  2  0  0  0  0
 51 52  1  0  0  0  0
 53 54  1  0  0  0  0
 55 56  1  0  0  0  0
 55 53  1  0  0  0  0
 57 55  2  0  0  0  0
 58 57  1  0  0  0  0
 59 57  1  0  0  0  0
 59 50  2  0  0  0  0
 60 59  1  0  0  0  0
M  END
