1,10
 OpenBabel05122313063D

 39 39  0  0  1  0  0  0  0  0999 V2000
    0.7172   -1.6636    0.0996 P   0  0  0  0  0  0  0  0  0  0  0  0
    1.7797   -3.1568   -0.4736 C   0  0  0  0  0  0  0  0  0  0  0  0
    3.0635   -2.9988   -0.1169 F   0  0  0  0  0  0  0  0  0  0  0  0
    1.3461   -4.3349    0.0267 F   0  0  0  0  0  0  0  0  0  0  0  0
    1.7081   -3.2264   -1.8203 F   0  0  0  0  0  0  0  0  0  0  0  0
    0.7194   -2.0591    1.9761 C   0  0  0  0  0  0  0  0  0  0  0  0
    1.9789   -2.1412    2.4365 F   0  0  0  0  0  0  0  0  0  0  0  0
    0.0929   -1.0539    2.6417 F   0  0  0  0  0  0  0  0  0  0  0  0
    0.0772   -3.2053    2.2812 F   0  0  0  0  0  0  0  0  0  0  0  0
   -0.4646    1.6410    0.3309 P   0  0  0  0  0  0  0  0  0  0  0  0
   -0.1378    2.7593    1.8498 C   0  0  0  0  0  0  0  0  0  0  0  0
    0.2394    1.9732    2.8828 F   0  0  0  0  0  0  0  0  0  0  0  0
    0.8520    3.6296    1.5898 F   0  0  0  0  0  0  0  0  0  0  0  0
   -1.2259    3.4564    2.2377 F   0  0  0  0  0  0  0  0  0  0  0  0
   -1.2862    2.9562   -0.8043 C   0  0  0  0  0  0  0  0  0  0  0  0
   -0.4251    3.9525   -1.0718 F   0  0  0  0  0  0  0  0  0  0  0  0
   -2.4015    3.4970   -0.2713 F   0  0  0  0  0  0  0  0  0  0  0  0
   -1.6384    2.3656   -1.9708 F   0  0  0  0  0  0  0  0  0  0  0  0
   -0.9359   -2.3447   -0.3983 C   0  0  0  0  0  0  0  0  0  0  0  0
   -0.9992   -2.2050   -1.4972 H   0  0  0  0  0  0  0  0  0  0  0  0
   -0.9343   -3.4331   -0.1929 H   0  0  0  0  0  0  0  0  0  0  0  0
   -2.1744   -1.7418    0.2642 C   0  0  1  0  0  0  0  0  0  0  0  0
   -2.1141   -1.8688    1.3720 H   0  0  0  0  0  0  0  0  0  0  0  0
   -2.5226   -0.2679   -0.0461 C   0  0  2  0  0  0  0  0  0  0  0  0
   -2.2154   -0.0278   -1.0943 H   0  0  0  0  0  0  0  0  0  0  0  0
   -1.9942    0.7864    0.9309 C   0  0  0  0  0  0  0  0  0  0  0  0
   -1.7555    0.3428    1.9175 H   0  0  0  0  0  0  0  0  0  0  0  0
   -2.7808    1.5507    1.0822 H   0  0  0  0  0  0  0  0  0  0  0  0
   -3.2956   -2.4522   -0.2432 O   0  0  0  0  0  0  0  0  0  0  0  0
   -3.9386   -0.2783    0.0690 O   0  0  0  0  0  0  0  0  0  0  0  0
   -4.3986   -1.5370   -0.4279 C   0  0  0  0  0  0  0  0  0  0  0  0
   -4.7162   -1.4570   -1.9211 C   0  0  0  0  0  0  0  0  0  0  0  0
   -5.5736   -0.7794   -2.0983 H   0  0  0  0  0  0  0  0  0  0  0  0
   -4.9671   -2.4624   -2.3105 H   0  0  0  0  0  0  0  0  0  0  0  0
   -3.8414   -1.0790   -2.4854 H   0  0  0  0  0  0  0  0  0  0  0  0
   -5.5812   -1.9777    0.4221 C   0  0  0  0  0  0  0  0  0  0  0  0
   -6.4127   -1.2528    0.3293 H   0  0  0  0  0  0  0  0  0  0  0  0
   -5.2732   -2.0356    1.4830 H   0  0  0  0  0  0  0  0  0  0  0  0
   -5.9362   -2.9728    0.0934 H   0  0  0  0  0  0  0  0  0  0  0  0
  1  6  1  0  0  0  0
  2  3  1  0  0  0  0
  2  4  1  0  0  0  0
  2  1  1  0  0  0  0
  5  2  1  0  0  0  0
  6  9  1  0  0  0  0
  6  7  1  0  0  0  0
  6  8  1  0  0  0  0
 10 26  1  0  0  0  0
 10 11  1  0  0  0  0
 11 14  1  0  0  0  0
 11 12  1  0  0  0  0
 13 11  1  0  0  0  0
 15 17  1  0  0  0  0
 15 10  1  0  0  0  0
 16 15  1  0  0  0  0
 18 15  1  0  0  0  0
 19 21  1  0  0  0  0
 19  1  1  0  0  0  0
 19 22  1  0  0  0  0
 20 19  1  0  0  0  0
 22 23  1  1  0  0  0
 24 25  1  6  0  0  0
 24 30  1  0  0  0  0
 24 22  1  0  0  0  0
 24 26  1  0  0  0  0
 26 28  1  0  0  0  0
 26 27  1  0  0  0  0
 29 22  1  0  0  0  0
 31 29  1  0  0  0  0
 31 30  1  0  0  0  0
 31 36  1  0  0  0  0
 32 31  1  0  0  0  0
 33 32  1  0  0  0  0
 34 32  1  0  0  0  0
 35 32  1  0  0  0  0
 36 38  1  0  0  0  0
 37 36  1  0  0  0  0
 39 36  1  0  0  0  0
M  END
