1,2
 OpenBabel05122313063D

 53 56  0  0  0  0  0  0  0  0999 V2000
   -1.7125    0.0041    0.5691 P   0  0  0  0  0  0  0  0  0  0  0  0
    1.7124    0.0043    0.5692 P   0  0  0  0  0  0  0  0  0  0  0  0
   -0.0004    1.1596    2.9050 S   0  0  0  0  0  0  0  0  0  0  0  0
    1.3859    0.0987    2.3977 C   0  0  0  0  0  0  0  0  0  0  0  0
    1.2292   -0.9419    2.7507 H   0  0  0  0  0  0  0  0  0  0  0  0
    2.2946    0.4810    2.9046 H   0  0  0  0  0  0  0  0  0  0  0  0
   -1.3858    0.0975    2.3976 C   0  0  0  0  0  0  0  0  0  0  0  0
   -2.2947    0.4784    2.9051 H   0  0  0  0  0  0  0  0  0  0  0  0
   -1.2278   -0.9431    2.7499 H   0  0  0  0  0  0  0  0  0  0  0  0
   -3.1702   -1.1105    0.6073 C   0  0  0  0  0  0  0  0  0  0  0  0
   -4.4715   -0.5988    0.7693 C   0  0  0  0  0  0  0  0  0  0  0  0
   -4.6389    0.4891    0.7808 H   0  0  0  0  0  0  0  0  0  0  0  0
   -5.5567   -1.4803    0.8956 C   0  0  0  0  0  0  0  0  0  0  0  0
   -6.5748   -1.0782    1.0102 H   0  0  0  0  0  0  0  0  0  0  0  0
   -5.3453   -2.8673    0.8679 C   0  0  0  0  0  0  0  0  0  0  0  0
   -6.1987   -3.5560    0.9624 H   0  0  0  0  0  0  0  0  0  0  0  0
   -4.0457   -3.3771    0.7078 C   0  0  0  0  0  0  0  0  0  0  0  0
   -3.8791   -4.4642    0.6708 H   0  0  0  0  0  0  0  0  0  0  0  0
   -2.9589   -2.5037    0.5717 C   0  0  0  0  0  0  0  0  0  0  0  0
   -1.9422   -2.8933    0.4089 H   0  0  0  0  0  0  0  0  0  0  0  0
   -2.3531    1.6600    0.1057 C   0  0  0  0  0  0  0  0  0  0  0  0
   -2.5965    2.6807    1.0471 C   0  0  0  0  0  0  0  0  0  0  0  0
   -2.3875    2.5296    2.1152 H   0  0  0  0  0  0  0  0  0  0  0  0
   -3.0967    3.9221    0.6249 C   0  0  0  0  0  0  0  0  0  0  0  0
   -3.2778    4.7150    1.3663 H   0  0  0  0  0  0  0  0  0  0  0  0
   -3.3596    4.1517   -0.7340 C   0  0  0  0  0  0  0  0  0  0  0  0
   -3.7501    5.1271   -1.0619 H   0  0  0  0  0  0  0  0  0  0  0  0
   -3.1168    3.1366   -1.6737 C   0  0  0  0  0  0  0  0  0  0  0  0
   -3.3172    3.3113   -2.7415 H   0  0  0  0  0  0  0  0  0  0  0  0
   -2.6098    1.8965   -1.2628 C   0  0  0  0  0  0  0  0  0  0  0  0
   -2.4109    1.0949   -1.9939 H   0  0  0  0  0  0  0  0  0  0  0  0
    2.3530    1.6600    0.1048 C   0  0  0  0  0  0  0  0  0  0  0  0
    2.5925    2.6827    1.0449 C   0  0  0  0  0  0  0  0  0  0  0  0
    2.3805    2.5334    2.1126 H   0  0  0  0  0  0  0  0  0  0  0  0
    3.0929    3.9238    0.6217 C   0  0  0  0  0  0  0  0  0  0  0  0
    3.2710    4.7183    1.3621 H   0  0  0  0  0  0  0  0  0  0  0  0
    3.3595    4.1510   -0.7368 C   0  0  0  0  0  0  0  0  0  0  0  0
    3.7501    5.1262   -1.0654 H   0  0  0  0  0  0  0  0  0  0  0  0
    3.1204    3.1339   -1.6752 C   0  0  0  0  0  0  0  0  0  0  0  0
    3.3236    3.3068   -2.7429 H   0  0  0  0  0  0  0  0  0  0  0  0
    2.6134    1.8941   -1.2635 C   0  0  0  0  0  0  0  0  0  0  0  0
    2.4169    1.0911   -1.9937 H   0  0  0  0  0  0  0  0  0  0  0  0
    3.1704   -1.1100    0.6081 C   0  0  0  0  0  0  0  0  0  0  0  0
    4.4712   -0.5978    0.7726 C   0  0  0  0  0  0  0  0  0  0  0  0
    4.6381    0.4903    0.7853 H   0  0  0  0  0  0  0  0  0  0  0  0
    5.5567   -1.4788    0.8998 C   0  0  0  0  0  0  0  0  0  0  0  0
    6.5744   -1.0763    1.0164 H   0  0  0  0  0  0  0  0  0  0  0  0
    5.3460   -2.8659    0.8704 C   0  0  0  0  0  0  0  0  0  0  0  0
    6.1995   -3.5542    0.9657 H   0  0  0  0  0  0  0  0  0  0  0  0
    4.0469   -3.3761    0.7078 C   0  0  0  0  0  0  0  0  0  0  0  0
    3.8809   -4.4633    0.6695 H   0  0  0  0  0  0  0  0  0  0  0  0
    2.9598   -2.5032    0.5709 C   0  0  0  0  0  0  0  0  0  0  0  0
    1.9435   -2.8931    0.4061 H   0  0  0  0  0  0  0  0  0  0  0  0
  1 10  1  0  0  0  0
  1  7  1  0  0  0  0
  2 43  1  0  0  0  0
  2  4  1  0  0  0  0
  4  5  1  0  0  0  0
  4  6  1  0  0  0  0
  4  3  1  0  0  0  0
  7  9  1  0  0  0  0
  7  3  1  0  0  0  0
  7  8  1  0  0  0  0
 10 11  1  0  0  0  0
 11 12  1  0  0  0  0
 11 13  2  0  0  0  0
 13 14  1  0  0  0  0
 15 13  1  0  0  0  0
 15 16  1  0  0  0  0
 17 15  2  0  0  0  0
 18 17  1  0  0  0  0
 19 10  2  0  0  0  0
 19 17  1  0  0  0  0
 20 19  1  0  0  0  0
 21  1  1  0  0  0  0
 21 22  1  0  0  0  0
 22 23  1  0  0  0  0
 24 22  2  0  0  0  0
 24 25  1  0  0  0  0
 26 24  1  0  0  0  0
 27 26  1  0  0  0  0
 28 30  1  0  0  0  0
 28 26  2  0  0  0  0
 29 28  1  0  0  0  0
 30 21  2  0  0  0  0
 31 30  1  0  0  0  0
 32  2  1  0  0  0  0
 32 33  1  0  0  0  0
 33 34  1  0  0  0  0
 35 33  2  0  0  0  0
 35 36  1  0  0  0  0
 37 35  1  0  0  0  0
 38 37  1  0  0  0  0
 39 41  1  0  0  0  0
 39 37  2  0  0  0  0
 40 39  1  0  0  0  0
 41 32  2  0  0  0  0
 42 41  1  0  0  0  0
 43 44  1  0  0  0  0
 44 45  1  0  0  0  0
 44 46  2  0  0  0  0
 46 47  1  0  0  0  0
 48 46  1  0  0  0  0
 48 49  1  0  0  0  0
 50 48  2  0  0  0  0
 51 50  1  0  0  0  0
 52 43  2  0  0  0  0
 52 50  1  0  0  0  0
 53 52  1  0  0  0  0
M  END
