1,2
 OpenBabel05122313063D

 54 57  0  0  1  0  0  0  0  0999 V2000
    1.2256    0.9628   -0.0987 P   0  0  1  0  0  0  0  0  0  0  0  0
   -1.2257   -0.9618   -0.1047 P   0  0  2  0  0  0  0  0  0  0  0  0
    1.0452    2.7945   -0.1843 C   0  0  0  0  0  0  0  0  0  0  0  0
   -0.1687    2.9830   -1.0735 C   0  0  0  0  0  0  0  0  0  0  0  0
   -0.5199    1.9250   -1.8600 C   0  0  0  0  0  0  0  0  0  0  0  0
    0.3654    0.6825   -1.7507 C   0  0  2  0  0  0  0  0  0  0  0  0
   -0.8555    4.3136   -1.0025 C   0  0  0  0  0  0  0  0  0  0  0  0
   -1.6548    1.9013   -2.8419 C   0  0  0  0  0  0  0  0  0  0  0  0
   -0.3650   -0.6718   -1.7548 C   0  0  1  0  0  0  0  0  0  0  0  0
    0.5205   -1.9135   -1.8709 C   0  0  0  0  0  0  0  0  0  0  0  0
    0.1693   -2.9761   -1.0907 C   0  0  0  0  0  0  0  0  0  0  0  0
   -1.0451   -2.7929   -0.2010 C   0  0  0  0  0  0  0  0  0  0  0  0
    1.6558   -1.8840   -2.8523 C   0  0  0  0  0  0  0  0  0  0  0  0
    0.8564   -4.3069   -1.0269 C   0  0  0  0  0  0  0  0  0  0  0  0
    2.9819    0.4895   -0.2649 C   0  0  0  0  0  0  0  0  0  0  0  0
    3.5640   -0.3532    0.7021 C   0  0  0  0  0  0  0  0  0  0  0  0
    4.8987   -0.7610    0.5562 C   0  0  0  0  0  0  0  0  0  0  0  0
    5.6549   -0.3306   -0.5452 C   0  0  0  0  0  0  0  0  0  0  0  0
    5.0797    0.5201   -1.5044 C   0  0  0  0  0  0  0  0  0  0  0  0
    3.7463    0.9316   -1.3660 C   0  0  0  0  0  0  0  0  0  0  0  0
   -2.9822   -0.4880   -0.2683 C   0  0  0  0  0  0  0  0  0  0  0  0
   -3.7457   -0.9221   -1.3732 C   0  0  0  0  0  0  0  0  0  0  0  0
   -5.0794   -0.5107   -1.5090 C   0  0  0  0  0  0  0  0  0  0  0  0
   -5.6557    0.3320   -0.5434 C   0  0  0  0  0  0  0  0  0  0  0  0
   -4.9003    0.7544    0.5616 C   0  0  0  0  0  0  0  0  0  0  0  0
   -3.5654    0.3466    0.7050 C   0  0  0  0  0  0  0  0  0  0  0  0
    1.9566    3.2743   -0.6067 H   0  0  0  0  0  0  0  0  0  0  0  0
    0.9147    3.1785    0.8481 H   0  0  0  0  0  0  0  0  0  0  0  0
    1.1116    0.6909   -2.5780 H   0  0  0  0  0  0  0  0  0  0  0  0
   -1.2598    4.4787    0.0196 H   0  0  0  0  0  0  0  0  0  0  0  0
   -0.1375    5.1411   -1.1894 H   0  0  0  0  0  0  0  0  0  0  0  0
   -1.6914    4.4122   -1.7196 H   0  0  0  0  0  0  0  0  0  0  0  0
   -1.3138    1.5406   -3.8364 H   0  0  0  0  0  0  0  0  0  0  0  0
   -2.4642    1.2149   -2.5124 H   0  0  0  0  0  0  0  0  0  0  0  0
   -2.1084    2.8997   -2.9821 H   0  0  0  0  0  0  0  0  0  0  0  0
   -1.1109   -0.6754   -2.5824 H   0  0  0  0  0  0  0  0  0  0  0  0
   -1.9562   -3.2703   -0.6267 H   0  0  0  0  0  0  0  0  0  0  0  0
   -0.9151   -3.1830    0.8293 H   0  0  0  0  0  0  0  0  0  0  0  0
    1.3151   -1.5174   -3.8448 H   0  0  0  0  0  0  0  0  0  0  0  0
    2.4650   -1.1994   -2.5184 H   0  0  0  0  0  0  0  0  0  0  0  0
    2.1095   -2.8815   -2.9982 H   0  0  0  0  0  0  0  0  0  0  0  0
    1.2598   -4.4779   -0.0055 H   0  0  0  0  0  0  0  0  0  0  0  0
    0.1389   -5.1334   -1.2194 H   0  0  0  0  0  0  0  0  0  0  0  0
    1.6930   -4.4009   -1.7438 H   0  0  0  0  0  0  0  0  0  0  0  0
    2.9677   -0.6562    1.5765 H   0  0  0  0  0  0  0  0  0  0  0  0
    5.3516   -1.4166    1.3151 H   0  0  0  0  0  0  0  0  0  0  0  0
    6.7014   -0.6533   -0.6556 H   0  0  0  0  0  0  0  0  0  0  0  0
    5.6731    0.8664   -2.3642 H   0  0  0  0  0  0  0  0  0  0  0  0
    3.3034    1.6011   -2.1208 H   0  0  0  0  0  0  0  0  0  0  0  0
   -3.3020   -1.5855   -2.1330 H   0  0  0  0  0  0  0  0  0  0  0  0
   -5.6722   -0.8507   -2.3717 H   0  0  0  0  0  0  0  0  0  0  0  0
   -6.7024    0.6547   -0.6517 H   0  0  0  0  0  0  0  0  0  0  0  0
   -5.3541    1.4036    1.3255 H   0  0  0  0  0  0  0  0  0  0  0  0
   -2.9697    0.6432    1.5821 H   0  0  0  0  0  0  0  0  0  0  0  0
  1 15  1  6  0  0  0
  2 21  1  6  0  0  0
  3  1  1  0  0  0  0
  3 28  1  0  0  0  0
  4  7  1  0  0  0  0
  4  3  1  0  0  0  0
  5  6  1  0  0  0  0
  5  4  2  0  0  0  0
  6 29  1  6  0  0  0
  6  1  1  0  0  0  0
  7 30  1  0  0  0  0
  8 34  1  0  0  0  0
  8  5  1  0  0  0  0
  9 36  1  6  0  0  0
  9  6  1  0  0  0  0
  9  2  1  0  0  0  0
 10  9  1  0  0  0  0
 10 11  2  0  0  0  0
 11 14  1  0  0  0  0
 11 12  1  0  0  0  0
 12  2  1  0  0  0  0
 12 38  1  0  0  0  0
 13 40  1  0  0  0  0
 13 10  1  0  0  0  0
 14 42  1  0  0  0  0
 15 16  1  0  0  0  0
 16 45  1  0  0  0  0
 17 16  2  0  0  0  0
 17 46  1  0  0  0  0
 18 17  1  0  0  0  0
 19 20  1  0  0  0  0
 19 18  2  0  0  0  0
 20 15  2  0  0  0  0
 21 26  1  0  0  0  0
 22 21  2  0  0  0  0
 23 22  1  0  0  0  0
 23 24  2  0  0  0  0
 24 25  1  0  0  0  0
 25 26  2  0  0  0  0
 25 53  1  0  0  0  0
 26 54  1  0  0  0  0
 27  3  1  0  0  0  0
 31  7  1  0  0  0  0
 32  7  1  0  0  0  0
 33  8  1  0  0  0  0
 35  8  1  0  0  0  0
 37 12  1  0  0  0  0
 39 13  1  0  0  0  0
 41 13  1  0  0  0  0
 43 14  1  0  0  0  0
 44 14  1  0  0  0  0
 47 18  1  0  0  0  0
 48 19  1  0  0  0  0
 49 20  1  0  0  0  0
 50 22  1  0  0  0  0
 51 23  1  0  0  0  0
 52 24  1  0  0  0  0
M  END
