47,48
 OpenBabel05122313063D

 48 50  0  0  0  0  0  0  0  0999 V2000
    3.0314    0.5671   -0.8005 C   0  0  0  0  0  0  0  0  0  0  0  0
    3.6652    0.8920    0.4193 C   0  0  0  0  0  0  0  0  0  0  0  0
    3.3731    0.3515    1.3361 H   0  0  0  0  0  0  0  0  0  0  0  0
    4.6548    1.8846    0.4467 C   0  0  0  0  0  0  0  0  0  0  0  0
    5.1466    2.1321    1.3995 H   0  0  0  0  0  0  0  0  0  0  0  0
    5.0103    2.5660   -0.7288 C   0  0  0  0  0  0  0  0  0  0  0  0
    5.7816    3.3506   -0.7006 H   0  0  0  0  0  0  0  0  0  0  0  0
    4.3776    2.2487   -1.9409 C   0  0  0  0  0  0  0  0  0  0  0  0
    4.6518    2.7810   -2.8644 H   0  0  0  0  0  0  0  0  0  0  0  0
    3.3923    1.2502   -1.9801 C   0  0  0  0  0  0  0  0  0  0  0  0
    2.9100    1.0102   -2.9398 H   0  0  0  0  0  0  0  0  0  0  0  0
    2.6622   -2.3340   -1.0494 C   0  0  0  0  0  0  0  0  0  0  0  0
    3.1910   -2.2483   -2.0232 H   0  0  0  0  0  0  0  0  0  0  0  0
    3.4196   -2.3534   -0.2398 H   0  0  0  0  0  0  0  0  0  0  0  0
    1.7579   -3.5631   -0.9628 C   0  0  0  0  0  0  0  0  0  0  0  0
    1.3020   -3.6226    0.0457 H   0  0  0  0  0  0  0  0  0  0  0  0
    2.3484   -4.4863   -1.1284 H   0  0  0  0  0  0  0  0  0  0  0  0
    0.9451   -3.5489   -1.7178 H   0  0  0  0  0  0  0  0  0  0  0  0
    0.6928   -0.4949   -2.2765 C   0  0  0  0  0  0  0  0  0  0  0  0
    1.2988   -0.3134   -3.1878 H   0  0  0  0  0  0  0  0  0  0  0  0
    0.1544   -1.4544   -2.4267 H   0  0  0  0  0  0  0  0  0  0  0  0
   -0.2941    0.6376   -1.9986 C   0  0  0  0  0  0  0  0  0  0  0  0
   -1.0535    0.7303   -2.8011 H   0  0  0  0  0  0  0  0  0  0  0  0
    0.2381    1.6079   -1.9069 H   0  0  0  0  0  0  0  0  0  0  0  0
   -2.5350   -0.7761   -0.7812 C   0  0  0  0  0  0  0  0  0  0  0  0
   -3.7207   -0.2749   -1.3550 C   0  0  0  0  0  0  0  0  0  0  0  0
   -3.8515    0.8092   -1.4956 H   0  0  0  0  0  0  0  0  0  0  0  0
   -4.7441   -1.1582   -1.7279 C   0  0  0  0  0  0  0  0  0  0  0  0
   -5.6720   -0.7631   -2.1687 H   0  0  0  0  0  0  0  0  0  0  0  0
   -4.5910   -2.5402   -1.5284 C   0  0  0  0  0  0  0  0  0  0  0  0
   -5.3991   -3.2299   -1.8160 H   0  0  0  0  0  0  0  0  0  0  0  0
   -3.4146   -3.0398   -0.9480 C   0  0  0  0  0  0  0  0  0  0  0  0
   -3.2987   -4.1201   -0.7736 H   0  0  0  0  0  0  0  0  0  0  0  0
   -2.3888   -2.1618   -0.5681 C   0  0  0  0  0  0  0  0  0  0  0  0
   -1.4753   -2.5402   -0.0819 H   0  0  0  0  0  0  0  0  0  0  0  0
   -1.8672    1.9543    0.0856 C   0  0  0  0  0  0  0  0  0  0  0  0
   -2.1540    2.9162   -0.9086 C   0  0  0  0  0  0  0  0  0  0  0  0
   -1.9328    2.7178   -1.9676 H   0  0  0  0  0  0  0  0  0  0  0  0
   -2.7294    4.1452   -0.5524 C   0  0  0  0  0  0  0  0  0  0  0  0
   -2.9500    4.8896   -1.3324 H   0  0  0  0  0  0  0  0  0  0  0  0
   -3.0186    4.4235    0.7927 C   0  0  0  0  0  0  0  0  0  0  0  0
   -3.4671    5.3897    1.0699 H   0  0  0  0  0  0  0  0  0  0  0  0
   -2.7297    3.4699    1.7816 C   0  0  0  0  0  0  0  0  0  0  0  0
   -2.9488    3.6856    2.8383 H   0  0  0  0  0  0  0  0  0  0  0  0
   -2.1550    2.2380    1.4370 C   0  0  0  0  0  0  0  0  0  0  0  0
   -1.9205    1.4793    2.2041 H   0  0  0  0  0  0  0  0  0  0  0  0
   -1.1354    0.3307   -0.3491 P   0  0  0  0  0  0  0  0  0  0  0  0
    1.7576   -0.7504   -0.7720 P   0  0  2  0  0  0  0  0  0  0  0  0
  1 48  1  0  0  0  0
  1  2  1  0  0  0  0
  2  4  2  0  0  0  0
  2  3  1  0  0  0  0
  4  5  1  0  0  0  0
  6  7  1  0  0  0  0
  6  4  1  0  0  0  0
  8  6  2  0  0  0  0
  9  8  1  0  0  0  0
 10  8  1  0  0  0  0
 10  1  2  0  0  0  0
 11 10  1  0  0  0  0
 12 15  1  0  0  0  0
 12 48  1  0  0  0  0
 12 14  1  0  0  0  0
 13 12  1  0  0  0  0
 15 16  1  0  0  0  0
 17 15  1  0  0  0  0
 18 15  1  0  0  0  0
 19 22  1  0  0  0  0
 20 19  1  0  0  0  0
 21 19  1  0  0  0  0
 22 24  1  0  0  0  0
 22 47  1  0  0  0  0
 23 22  1  0  0  0  0
 25 34  1  0  0  0  0
 25 47  1  0  0  0  0
 26 25  2  0  0  0  0
 27 26  1  0  0  0  0
 28 30  2  0  0  0  0
 28 26  1  0  0  0  0
 29 28  1  0  0  0  0
 30 32  1  0  0  0  0
 31 30  1  0  0  0  0
 32 33  1  0  0  0  0
 32 34  2  0  0  0  0
 34 35  1  0  0  0  0
 36 45  1  0  0  0  0
 37 39  1  0  0  0  0
 37 36  2  0  0  0  0
 38 37  1  0  0  0  0
 39 41  2  0  0  0  0
 40 39  1  0  0  0  0
 41 42  1  0  0  0  0
 41 43  1  0  0  0  0
 43 44  1  0  0  0  0
 45 43  2  0  0  0  0
 45 46  1  0  0  0  0
 47 36  1  0  0  0  0
 48 19  1  6  0  0  0
M  END
