1,2
 OpenBabel05122313063D

 75 80  0  0  0  0  0  0  0  0999 V2000
    1.5880   -0.5187    0.4095 P   0  0  0  0  0  0  0  0  0  0  0  0
   -1.5879   -0.5186   -0.4096 P   0  0  0  0  0  0  0  0  0  0  0  0
    0.0001    1.9548    0.0002 B   0  0  0  0  0  0  0  0  0  0  0  0
    0.8794    1.0329    1.0783 C   0  0  0  0  0  0  0  0  0  0  0  0
   -0.8793    1.0332   -1.0781 C   0  0  0  0  0  0  0  0  0  0  0  0
    1.0240    2.9461   -0.8276 C   0  0  0  0  0  0  0  0  0  0  0  0
    1.8731    3.8278   -0.1129 C   0  0  0  0  0  0  0  0  0  0  0  0
    2.7806    4.6860   -0.7500 C   0  0  0  0  0  0  0  0  0  0  0  0
    2.8641    4.7061   -2.1538 C   0  0  0  0  0  0  0  0  0  0  0  0
    2.0192    3.8654   -2.8934 C   0  0  0  0  0  0  0  0  0  0  0  0
    1.1186    3.0096   -2.2355 C   0  0  0  0  0  0  0  0  0  0  0  0
   -1.0238    2.9460    0.8280 C   0  0  0  0  0  0  0  0  0  0  0  0
   -1.1185    3.0093    2.2360 C   0  0  0  0  0  0  0  0  0  0  0  0
   -2.0192    3.8649    2.8939 C   0  0  0  0  0  0  0  0  0  0  0  0
   -2.8640    4.7057    2.1544 C   0  0  0  0  0  0  0  0  0  0  0  0
   -2.7804    4.6859    0.7506 C   0  0  0  0  0  0  0  0  0  0  0  0
   -1.8728    3.8279    0.1134 C   0  0  0  0  0  0  0  0  0  0  0  0
    2.6081   -0.0189   -1.0448 C   0  0  0  0  0  0  0  0  0  0  0  0
    3.5998    0.9789   -0.9518 C   0  0  0  0  0  0  0  0  0  0  0  0
    4.3064    1.3815   -2.0922 C   0  0  0  0  0  0  0  0  0  0  0  0
    4.0326    0.7874   -3.3362 C   0  0  0  0  0  0  0  0  0  0  0  0
    3.0537   -0.2128   -3.4348 C   0  0  0  0  0  0  0  0  0  0  0  0
    2.3432   -0.6158   -2.2916 C   0  0  0  0  0  0  0  0  0  0  0  0
    2.8823   -1.0157    1.6294 C   0  0  0  0  0  0  0  0  0  0  0  0
    4.0975   -1.6063    1.2239 C   0  0  0  0  0  0  0  0  0  0  0  0
    5.0224   -2.0644    2.1745 C   0  0  0  0  0  0  0  0  0  0  0  0
    4.7487   -1.9434    3.5462 C   0  0  0  0  0  0  0  0  0  0  0  0
    3.5387   -1.3619    3.9601 C   0  0  0  0  0  0  0  0  0  0  0  0
    2.6136   -0.9045    3.0106 C   0  0  0  0  0  0  0  0  0  0  0  0
   -2.8822   -1.0153   -1.6296 C   0  0  0  0  0  0  0  0  0  0  0  0
   -4.0976   -1.6058   -1.2242 C   0  0  0  0  0  0  0  0  0  0  0  0
   -5.0224   -2.0637   -2.1750 C   0  0  0  0  0  0  0  0  0  0  0  0
   -4.7485   -1.9427   -3.5466 C   0  0  0  0  0  0  0  0  0  0  0  0
   -3.5384   -1.3613   -3.9603 C   0  0  0  0  0  0  0  0  0  0  0  0
   -2.6133   -0.9042   -3.0107 C   0  0  0  0  0  0  0  0  0  0  0  0
   -2.6082   -0.0190    1.0448 C   0  0  0  0  0  0  0  0  0  0  0  0
   -3.5997    0.9790    0.9519 C   0  0  0  0  0  0  0  0  0  0  0  0
   -4.3065    1.3813    2.0923 C   0  0  0  0  0  0  0  0  0  0  0  0
   -4.0330    0.7867    3.3361 C   0  0  0  0  0  0  0  0  0  0  0  0
   -3.0542   -0.2136    3.4346 C   0  0  0  0  0  0  0  0  0  0  0  0
   -2.3435   -0.6163    2.2915 C   0  0  0  0  0  0  0  0  0  0  0  0
    1.6819    1.6343    1.5562 H   0  0  0  0  0  0  0  0  0  0  0  0
    0.2138    0.6742    1.8938 H   0  0  0  0  0  0  0  0  0  0  0  0
   -0.2138    0.6745   -1.8936 H   0  0  0  0  0  0  0  0  0  0  0  0
   -1.6817    1.6346   -1.5559 H   0  0  0  0  0  0  0  0  0  0  0  0
    1.8137    3.8414    0.9893 H   0  0  0  0  0  0  0  0  0  0  0  0
    3.4264    5.3495   -0.1505 H   0  0  0  0  0  0  0  0  0  0  0  0
    3.5765    5.3749   -2.6634 H   0  0  0  0  0  0  0  0  0  0  0  0
    2.0682    3.8663   -3.9950 H   0  0  0  0  0  0  0  0  0  0  0  0
    0.4832    2.3519   -2.8503 H   0  0  0  0  0  0  0  0  0  0  0  0
   -0.4832    2.3515    2.8507 H   0  0  0  0  0  0  0  0  0  0  0  0
   -2.0683    3.8656    3.9955 H   0  0  0  0  0  0  0  0  0  0  0  0
   -3.5766    5.3744    2.6641 H   0  0  0  0  0  0  0  0  0  0  0  0
   -3.4261    5.3495    0.1512 H   0  0  0  0  0  0  0  0  0  0  0  0
   -1.8132    3.8417   -0.9888 H   0  0  0  0  0  0  0  0  0  0  0  0
    3.8045    1.4595    0.0164 H   0  0  0  0  0  0  0  0  0  0  0  0
    5.0557    2.1836   -2.0147 H   0  0  0  0  0  0  0  0  0  0  0  0
    4.5805    1.1148   -4.2339 H   0  0  0  0  0  0  0  0  0  0  0  0
    2.8368   -0.6811   -4.4079 H   0  0  0  0  0  0  0  0  0  0  0  0
    1.5640   -1.3960   -2.3409 H   0  0  0  0  0  0  0  0  0  0  0  0
    4.3212   -1.7007    0.1507 H   0  0  0  0  0  0  0  0  0  0  0  0
    5.9668   -2.5214    1.8387 H   0  0  0  0  0  0  0  0  0  0  0  0
    5.4755   -2.3026    4.2915 H   0  0  0  0  0  0  0  0  0  0  0  0
    3.3124   -1.2627    5.0336 H   0  0  0  0  0  0  0  0  0  0  0  0
    1.6654   -0.4555    3.3436 H   0  0  0  0  0  0  0  0  0  0  0  0
   -4.3213   -1.7002   -0.1510 H   0  0  0  0  0  0  0  0  0  0  0  0
   -5.9669   -2.5206   -1.8393 H   0  0  0  0  0  0  0  0  0  0  0  0
   -5.4754   -2.3017   -4.2920 H   0  0  0  0  0  0  0  0  0  0  0  0
   -3.3120   -1.2621   -5.0338 H   0  0  0  0  0  0  0  0  0  0  0  0
   -1.6651   -0.4552   -3.3436 H   0  0  0  0  0  0  0  0  0  0  0  0
   -3.8041    1.4599   -0.0162 H   0  0  0  0  0  0  0  0  0  0  0  0
   -5.0557    2.1835    2.0148 H   0  0  0  0  0  0  0  0  0  0  0  0
   -4.5811    1.1138    4.2338 H   0  0  0  0  0  0  0  0  0  0  0  0
   -2.8376   -0.6823    4.4076 H   0  0  0  0  0  0  0  0  0  0  0  0
   -1.5644   -1.3965    2.3407 H   0  0  0  0  0  0  0  0  0  0  0  0
  1  4  1  0  0  0  0
  1 24  1  0  0  0  0
  2 36  1  0  0  0  0
  3 12  1  0  0  0  0
  3  4  1  0  0  0  0
  4 42  1  0  0  0  0
  4 43  1  0  0  0  0
  5  2  1  0  0  0  0
  5  3  1  0  0  0  0
  6  7  1  0  0  0  0
  6  3  1  0  0  0  0
  7 46  1  0  0  0  0
  8 47  1  0  0  0  0
  8  7  2  0  0  0  0
  9  8  1  0  0  0  0
 10 11  1  0  0  0  0
 10  9  2  0  0  0  0
 11  6  2  0  0  0  0
 12 13  1  0  0  0  0
 13 51  1  0  0  0  0
 13 14  2  0  0  0  0
 14 52  1  0  0  0  0
 15 53  1  0  0  0  0
 15 14  1  0  0  0  0
 16 15  2  0  0  0  0
 17 16  1  0  0  0  0
 17 12  2  0  0  0  0
 18 19  1  0  0  0  0
 18  1  1  0  0  0  0
 19 56  1  0  0  0  0
 20 57  1  0  0  0  0
 20 19  2  0  0  0  0
 21 20  1  0  0  0  0
 22 21  2  0  0  0  0
 22 23  1  0  0  0  0
 23 18  2  0  0  0  0
 24 29  1  0  0  0  0
 25 24  2  0  0  0  0
 25 26  1  0  0  0  0
 26 27  2  0  0  0  0
 27 28  1  0  0  0  0
 27 63  1  0  0  0  0
 28 64  1  0  0  0  0
 29 65  1  0  0  0  0
 29 28  2  0  0  0  0
 30 31  1  0  0  0  0
 30  2  1  0  0  0  0
 31 66  1  0  0  0  0
 32 67  1  0  0  0  0
 32 31  2  0  0  0  0
 33 32  1  0  0  0  0
 34 33  2  0  0  0  0
 34 35  1  0  0  0  0
 35 30  2  0  0  0  0
 36 41  1  0  0  0  0
 37 36  2  0  0  0  0
 37 38  1  0  0  0  0
 38 39  2  0  0  0  0
 39 40  1  0  0  0  0
 39 73  1  0  0  0  0
 40 74  1  0  0  0  0
 41 75  1  0  0  0  0
 41 40  2  0  0  0  0
 44  5  1  0  0  0  0
 45  5  1  0  0  0  0
 48  9  1  0  0  0  0
 49 10  1  0  0  0  0
 50 11  1  0  0  0  0
 54 16  1  0  0  0  0
 55 17  1  0  0  0  0
 58 21  1  0  0  0  0
 59 22  1  0  0  0  0
 60 23  1  0  0  0  0
 61 25  1  0  0  0  0
 62 26  1  0  0  0  0
 68 33  1  0  0  0  0
 69 34  1  0  0  0  0
 70 35  1  0  0  0  0
 71 37  1  0  0  0  0
 72 38  1  0  0  0  0
M  END
