1,2
 OpenBabel05122313063D

 72 79  0  0  0  0  0  0  0  0999 V2000
    1.6715   -0.5965    0.0320 P   0  0  0  0  0  0  0  0  0  0  0  0
   -1.6925   -0.6570    0.0672 P   0  0  0  0  0  0  0  0  0  0  0  0
   -0.0146    4.1363    3.2677 O   0  0  0  0  0  0  0  0  0  0  0  0
   -0.9309    3.8912    1.1524 O   0  0  0  0  0  0  0  0  0  0  0  0
   -0.3031    3.7162   -3.7752 O   0  0  0  0  0  0  0  0  0  0  0  0
    0.7142    3.7436   -1.6908 O   0  0  0  0  0  0  0  0  0  0  0  0
    0.2884    1.8303    0.5306 C   0  0  0  0  0  0  0  0  0  0  0  0
    1.2637    0.9040    1.0224 C   0  0  0  0  0  0  0  0  0  0  0  0
    1.8322    1.0775    2.2989 C   0  0  0  0  0  0  0  0  0  0  0  0
    2.5803    0.3563    2.6539 H   0  0  0  0  0  0  0  0  0  0  0  0
    1.4740    2.1480    3.1472 C   0  0  0  0  0  0  0  0  0  0  0  0
    1.9110    2.2622    4.1480 H   0  0  0  0  0  0  0  0  0  0  0  0
   -0.8635    4.7541    2.2926 C   0  0  0  0  0  0  0  0  0  0  0  0
   -0.4329    5.7384    1.9911 H   0  0  0  0  0  0  0  0  0  0  0  0
   -1.8814    4.8862    2.7188 H   0  0  0  0  0  0  0  0  0  0  0  0
   -0.0185    2.8954    1.3745 C   0  0  0  0  0  0  0  0  0  0  0  0
    0.5359    3.0450    2.6558 C   0  0  0  0  0  0  0  0  0  0  0  0
   -0.3962    1.7248   -0.7854 C   0  0  0  0  0  0  0  0  0  0  0  0
   -1.3658    0.7222   -1.1201 C   0  0  0  0  0  0  0  0  0  0  0  0
   -1.9886    0.7280   -2.3819 C   0  0  0  0  0  0  0  0  0  0  0  0
   -2.7363   -0.0417   -2.6147 H   0  0  0  0  0  0  0  0  0  0  0  0
   -1.6946    1.6965   -3.3670 C   0  0  0  0  0  0  0  0  0  0  0  0
   -2.1863    1.6871   -4.3488 H   0  0  0  0  0  0  0  0  0  0  0  0
    0.6942    4.3682   -2.9800 C   0  0  0  0  0  0  0  0  0  0  0  0
    0.4374    5.4448   -2.8678 H   0  0  0  0  0  0  0  0  0  0  0  0
    1.6907    4.2497   -3.4653 H   0  0  0  0  0  0  0  0  0  0  0  0
   -0.1437    2.6792   -1.7686 C   0  0  0  0  0  0  0  0  0  0  0  0
   -0.7582    2.6641   -3.0310 C   0  0  0  0  0  0  0  0  0  0  0  0
    3.1775   -1.2257    0.8788 C   0  0  0  0  0  0  0  0  0  0  0  0
    3.0202   -2.1330    1.9471 C   0  0  0  0  0  0  0  0  0  0  0  0
    2.0176   -2.5135    2.1951 H   0  0  0  0  0  0  0  0  0  0  0  0
    4.1402   -2.5652    2.6688 C   0  0  0  0  0  0  0  0  0  0  0  0
    4.0112   -3.2772    3.4977 H   0  0  0  0  0  0  0  0  0  0  0  0
    5.4234   -2.1111    2.3196 C   0  0  0  0  0  0  0  0  0  0  0  0
    6.3035   -2.4625    2.8795 H   0  0  0  0  0  0  0  0  0  0  0  0
    5.5822   -1.2200    1.2479 C   0  0  0  0  0  0  0  0  0  0  0  0
    6.5864   -0.8714    0.9621 H   0  0  0  0  0  0  0  0  0  0  0  0
    4.4621   -0.7723    0.5291 C   0  0  0  0  0  0  0  0  0  0  0  0
    4.5933   -0.0784   -0.3140 H   0  0  0  0  0  0  0  0  0  0  0  0
    2.2313    0.0494   -1.5912 C   0  0  0  0  0  0  0  0  0  0  0  0
    2.8247    1.3226   -1.7105 C   0  0  0  0  0  0  0  0  0  0  0  0
    2.9361    1.9646   -0.8239 H   0  0  0  0  0  0  0  0  0  0  0  0
    3.2500    1.7792   -2.9670 C   0  0  0  0  0  0  0  0  0  0  0  0
    3.7243    2.7691   -3.0552 H   0  0  0  0  0  0  0  0  0  0  0  0
    3.0727    0.9763   -4.1059 C   0  0  0  0  0  0  0  0  0  0  0  0
    3.3989    1.3402   -5.0924 H   0  0  0  0  0  0  0  0  0  0  0  0
    2.4865   -0.2944   -3.9840 C   0  0  0  0  0  0  0  0  0  0  0  0
    2.3547   -0.9290   -4.8733 H   0  0  0  0  0  0  0  0  0  0  0  0
    2.0709   -0.7656   -2.7301 C   0  0  0  0  0  0  0  0  0  0  0  0
    1.6415   -1.7737   -2.6109 H   0  0  0  0  0  0  0  0  0  0  0  0
   -2.0218    0.1872    1.6625 C   0  0  0  0  0  0  0  0  0  0  0  0
   -1.4608   -0.3437    2.8392 C   0  0  0  0  0  0  0  0  0  0  0  0
   -0.8374   -1.2496    2.7749 H   0  0  0  0  0  0  0  0  0  0  0  0
   -1.6802    0.2962    4.0685 C   0  0  0  0  0  0  0  0  0  0  0  0
   -1.2282   -0.1132    4.9843 H   0  0  0  0  0  0  0  0  0  0  0  0
   -2.4690    1.4558    4.1297 C   0  0  0  0  0  0  0  0  0  0  0  0
   -2.6377    1.9563    5.0952 H   0  0  0  0  0  0  0  0  0  0  0  0
   -3.0389    1.9806    2.9573 C   0  0  0  0  0  0  0  0  0  0  0  0
   -3.6610    2.8879    3.0026 H   0  0  0  0  0  0  0  0  0  0  0  0
   -2.8098    1.3559    1.7234 C   0  0  0  0  0  0  0  0  0  0  0  0
   -3.2205    1.7905    0.7996 H   0  0  0  0  0  0  0  0  0  0  0  0
   -3.3106   -1.3296   -0.4937 C   0  0  0  0  0  0  0  0  0  0  0  0
   -4.5253   -0.9892    0.1284 C   0  0  0  0  0  0  0  0  0  0  0  0
   -4.5332   -0.3377    1.0133 H   0  0  0  0  0  0  0  0  0  0  0  0
   -5.7367   -1.4989   -0.3673 C   0  0  0  0  0  0  0  0  0  0  0  0
   -6.6808   -1.2347    0.1328 H   0  0  0  0  0  0  0  0  0  0  0  0
   -5.7428   -2.3434   -1.4863 C   0  0  0  0  0  0  0  0  0  0  0  0
   -6.6935   -2.7419   -1.8722 H   0  0  0  0  0  0  0  0  0  0  0  0
   -4.5301   -2.6950   -2.1024 C   0  0  0  0  0  0  0  0  0  0  0  0
   -4.5242   -3.3774   -2.9655 H   0  0  0  0  0  0  0  0  0  0  0  0
   -3.3172   -2.2058   -1.6016 C   0  0  0  0  0  0  0  0  0  0  0  0
   -2.3663   -2.5235   -2.0533 H   0  0  0  0  0  0  0  0  0  0  0  0
  1 29  1  0  0  0  0
  1  8  1  0  0  0  0
  2 51  1  0  0  0  0
  4 16  1  0  0  0  0
  4 13  1  0  0  0  0
  5 28  1  0  0  0  0
  5 24  1  0  0  0  0
  7  8  2  0  0  0  0
  7 16  1  0  0  0  0
  8  9  1  0  0  0  0
  9 10  1  0  0  0  0
  9 11  2  0  0  0  0
 11 12  1  0  0  0  0
 13 15  1  0  0  0  0
 13  3  1  0  0  0  0
 14 13  1  0  0  0  0
 16 17  2  0  0  0  0
 17 11  1  0  0  0  0
 17  3  1  0  0  0  0
 18  7  1  0  0  0  0
 19 18  1  0  0  0  0
 19  2  1  0  0  0  0
 20 19  2  0  0  0  0
 21 20  1  0  0  0  0
 22 28  2  0  0  0  0
 22 20  1  0  0  0  0
 23 22  1  0  0  0  0
 24 25  1  0  0  0  0
 24  6  1  0  0  0  0
 26 24  1  0  0  0  0
 27  6  1  0  0  0  0
 27 18  2  0  0  0  0
 28 27  1  0  0  0  0
 29 30  1  0  0  0  0
 30 31  1  0  0  0  0
 30 32  2  0  0  0  0
 32 33  1  0  0  0  0
 34 32  1  0  0  0  0
 34 35  1  0  0  0  0
 36 34  2  0  0  0  0
 37 36  1  0  0  0  0
 38 29  2  0  0  0  0
 38 36  1  0  0  0  0
 39 38  1  0  0  0  0
 40  1  1  0  0  0  0
 41 40  1  0  0  0  0
 41 42  1  0  0  0  0
 43 41  2  0  0  0  0
 44 43  1  0  0  0  0
 45 47  2  0  0  0  0
 45 43  1  0  0  0  0
 46 45  1  0  0  0  0
 47 49  1  0  0  0  0
 48 47  1  0  0  0  0
 49 50  1  0  0  0  0
 49 40  2  0  0  0  0
 51 60  2  0  0  0  0
 51 52  1  0  0  0  0
 52 54  2  0  0  0  0
 53 52  1  0  0  0  0
 54 56  1  0  0  0  0
 54 55  1  0  0  0  0
 56 57  1  0  0  0  0
 58 59  1  0  0  0  0
 58 56  2  0  0  0  0
 60 58  1  0  0  0  0
 61 60  1  0  0  0  0
 62  2  1  0  0  0  0
 62 63  1  0  0  0  0
 63 64  1  0  0  0  0
 65 63  2  0  0  0  0
 65 66  1  0  0  0  0
 67 65  1  0  0  0  0
 68 67  1  0  0  0  0
 69 71  1  0  0  0  0
 69 67  2  0  0  0  0
 70 69  1  0  0  0  0
 71 62  2  0  0  0  0
 72 71  1  0  0  0  0
M  END
