1,2
 OpenBabel05122313063D

 66 70  0  0  1  0  0  0  0  0999 V2000
   -1.7919    0.1899    0.1219 P   0  0  0  0  0  0  0  0  0  0  0  0
    1.6878    0.2376    0.2606 P   0  0  0  0  0  0  0  0  0  0  0  0
   -1.4247   -0.5284    1.6572 N   0  0  0  0  0  0  0  0  0  0  0  0
   -0.9118    0.1810    2.2044 H   0  0  0  0  0  0  0  0  0  0  0  0
    1.3392   -0.2412    1.8979 N   0  0  0  0  0  0  0  0  0  0  0  0
    2.0946    0.0473    2.5299 H   0  0  0  0  0  0  0  0  0  0  0  0
   -0.5915   -1.7372    1.5555 C   0  0  2  0  0  0  0  0  0  0  0  0
   -0.3199   -1.9163    0.4841 H   0  0  0  0  0  0  0  0  0  0  0  0
   -1.3190   -2.9886    2.0628 C   0  0  0  0  0  0  0  0  0  0  0  0
   -2.2510   -3.1202    1.4766 H   0  0  0  0  0  0  0  0  0  0  0  0
   -1.6274   -2.8085    3.1163 H   0  0  0  0  0  0  0  0  0  0  0  0
   -0.4219   -4.2277    1.9724 C   0  0  0  0  0  0  0  0  0  0  0  0
   -0.9531   -5.1152    2.3736 H   0  0  0  0  0  0  0  0  0  0  0  0
   -0.2109   -4.4477    0.9020 H   0  0  0  0  0  0  0  0  0  0  0  0
    0.9041   -4.0100    2.7133 C   0  0  0  0  0  0  0  0  0  0  0  0
    1.5596   -4.8995    2.6130 H   0  0  0  0  0  0  0  0  0  0  0  0
    0.6999   -3.8931    3.8017 H   0  0  0  0  0  0  0  0  0  0  0  0
    1.6303   -2.7633    2.1933 C   0  0  0  0  0  0  0  0  0  0  0  0
    1.9198   -2.9138    1.1327 H   0  0  0  0  0  0  0  0  0  0  0  0
    2.5745   -2.5894    2.7514 H   0  0  0  0  0  0  0  0  0  0  0  0
    0.7332   -1.5175    2.3026 C   0  0  1  0  0  0  0  0  0  0  0  0
    0.4697   -1.3906    3.3806 H   0  0  0  0  0  0  0  0  0  0  0  0
   -2.7707    1.6393    0.6721 C   0  0  0  0  0  0  0  0  0  0  0  0
   -3.4039    1.6252    1.9359 C   0  0  0  0  0  0  0  0  0  0  0  0
   -3.3084    0.7384    2.5797 H   0  0  0  0  0  0  0  0  0  0  0  0
   -4.1387    2.7411    2.3630 C   0  0  0  0  0  0  0  0  0  0  0  0
   -4.6296    2.7252    3.3481 H   0  0  0  0  0  0  0  0  0  0  0  0
   -4.2479    3.8715    1.5378 C   0  0  0  0  0  0  0  0  0  0  0  0
   -4.8252    4.7459    1.8755 H   0  0  0  0  0  0  0  0  0  0  0  0
   -3.6175    3.8857    0.2831 C   0  0  0  0  0  0  0  0  0  0  0  0
   -3.6982    4.7706   -0.3661 H   0  0  0  0  0  0  0  0  0  0  0  0
   -2.8781    2.7774   -0.1539 C   0  0  0  0  0  0  0  0  0  0  0  0
   -2.3890    2.7725   -1.1410 H   0  0  0  0  0  0  0  0  0  0  0  0
   -2.9326   -1.0779   -0.5582 C   0  0  0  0  0  0  0  0  0  0  0  0
   -4.1965   -1.2816    0.0285 C   0  0  0  0  0  0  0  0  0  0  0  0
   -4.5460   -0.6156    0.8314 H   0  0  0  0  0  0  0  0  0  0  0  0
   -5.0122   -2.3317   -0.4175 C   0  0  0  0  0  0  0  0  0  0  0  0
   -6.0035   -2.4833    0.0358 H   0  0  0  0  0  0  0  0  0  0  0  0
   -4.5660   -3.1848   -1.4406 C   0  0  0  0  0  0  0  0  0  0  0  0
   -5.2080   -4.0086   -1.7884 H   0  0  0  0  0  0  0  0  0  0  0  0
   -3.3061   -2.9811   -2.0254 C   0  0  0  0  0  0  0  0  0  0  0  0
   -2.9582   -3.6410   -2.8343 H   0  0  0  0  0  0  0  0  0  0  0  0
   -2.4907   -1.9255   -1.5917 C   0  0  0  0  0  0  0  0  0  0  0  0
   -1.5131   -1.7398   -2.0620 H   0  0  0  0  0  0  0  0  0  0  0  0
    2.5922    1.7818    0.6580 C   0  0  0  0  0  0  0  0  0  0  0  0
    2.0815    2.6390    1.6556 C   0  0  0  0  0  0  0  0  0  0  0  0
    1.1745    2.3552    2.2098 H   0  0  0  0  0  0  0  0  0  0  0  0
    2.7221    3.8557    1.9326 C   0  0  0  0  0  0  0  0  0  0  0  0
    2.3167    4.5199    2.7108 H   0  0  0  0  0  0  0  0  0  0  0  0
    3.8666    4.2282    1.2107 C   0  0  0  0  0  0  0  0  0  0  0  0
    4.3665    5.1850    1.4255 H   0  0  0  0  0  0  0  0  0  0  0  0
    4.3651    3.3841    0.2054 C   0  0  0  0  0  0  0  0  0  0  0  0
    5.2538    3.6790   -0.3727 H   0  0  0  0  0  0  0  0  0  0  0  0
    3.7297    2.1675   -0.0800 C   0  0  0  0  0  0  0  0  0  0  0  0
    4.0978    1.5221   -0.8891 H   0  0  0  0  0  0  0  0  0  0  0  0
    2.9380   -0.9687   -0.3433 C   0  0  0  0  0  0  0  0  0  0  0  0
    4.1656   -1.1130    0.3335 C   0  0  0  0  0  0  0  0  0  0  0  0
    4.4310   -0.4234    1.1504 H   0  0  0  0  0  0  0  0  0  0  0  0
    5.0547   -2.1336   -0.0336 C   0  0  0  0  0  0  0  0  0  0  0  0
    6.0165   -2.2369    0.4915 H   0  0  0  0  0  0  0  0  0  0  0  0
    4.7166   -3.0219   -1.0678 C   0  0  0  0  0  0  0  0  0  0  0  0
    5.4132   -3.8252   -1.3523 H   0  0  0  0  0  0  0  0  0  0  0  0
    3.4932   -2.8798   -1.7435 C   0  0  0  0  0  0  0  0  0  0  0  0
    3.2306   -3.5678   -2.5612 H   0  0  0  0  0  0  0  0  0  0  0  0
    2.6070   -1.8531   -1.3880 C   0  0  0  0  0  0  0  0  0  0  0  0
    1.6550   -1.7197   -1.9240 H   0  0  0  0  0  0  0  0  0  0  0  0
  1 23  1  0  0  0  0
  1  3  1  0  0  0  0
  2 45  1  0  0  0  0
  2  5  1  0  0  0  0
  3  4  1  0  0  0  0
  5 21  1  0  0  0  0
  5  6  1  0  0  0  0
  7  8  1  6  0  0  0
  7  3  1  0  0  0  0
  7  9  1  0  0  0  0
  7 21  1  0  0  0  0
  9 11  1  0  0  0  0
 10  9  1  0  0  0  0
 12  9  1  0  0  0  0
 12 13  1  0  0  0  0
 12 15  1  0  0  0  0
 14 12  1  0  0  0  0
 15 17  1  0  0  0  0
 16 15  1  0  0  0  0
 18 21  1  0  0  0  0
 18 15  1  0  0  0  0
 18 20  1  0  0  0  0
 19 18  1  0  0  0  0
 21 22  1  1  0  0  0
 23 24  1  0  0  0  0
 24 26  2  0  0  0  0
 24 25  1  0  0  0  0
 26 27  1  0  0  0  0
 28 29  1  0  0  0  0
 28 26  1  0  0  0  0
 30 28  2  0  0  0  0
 31 30  1  0  0  0  0
 32 30  1  0  0  0  0
 32 23  2  0  0  0  0
 33 32  1  0  0  0  0
 34 35  1  0  0  0  0
 34  1  1  0  0  0  0
 35 36  1  0  0  0  0
 37 35  2  0  0  0  0
 37 38  1  0  0  0  0
 39 37  1  0  0  0  0
 40 39  1  0  0  0  0
 41 43  1  0  0  0  0
 41 39  2  0  0  0  0
 42 41  1  0  0  0  0
 43 34  2  0  0  0  0
 44 43  1  0  0  0  0
 45 46  1  0  0  0  0
 46 48  2  0  0  0  0
 46 47  1  0  0  0  0
 48 49  1  0  0  0  0
 50 51  1  0  0  0  0
 50 48  1  0  0  0  0
 52 50  2  0  0  0  0
 53 52  1  0  0  0  0
 54 52  1  0  0  0  0
 54 45  2  0  0  0  0
 55 54  1  0  0  0  0
 56  2  1  0  0  0  0
 56 57  1  0  0  0  0
 57 58  1  0  0  0  0
 59 57  2  0  0  0  0
 59 60  1  0  0  0  0
 61 59  1  0  0  0  0
 62 61  1  0  0  0  0
 63 65  1  0  0  0  0
 63 61  2  0  0  0  0
 64 63  1  0  0  0  0
 65 56  2  0  0  0  0
 66 65  1  0  0  0  0
M  END
