1,2
 OpenBabel05122313063D

 72 74  0  0  0  0  0  0  0  0999 V2000
   -2.2831   -0.1696   -0.5690 P   0  0  0  0  0  0  0  0  0  0  0  0
    2.2829   -0.1707   -0.5691 P   0  0  0  0  0  0  0  0  0  0  0  0
    0.6990    0.1684    3.8300 C   0  0  0  0  0  0  0  0  0  0  0  0
    1.2591   -0.3456    4.6249 H   0  0  0  0  0  0  0  0  0  0  0  0
   -0.6995    0.1690    3.8299 C   0  0  0  0  0  0  0  0  0  0  0  0
   -1.2603   -0.3445    4.6246 H   0  0  0  0  0  0  0  0  0  0  0  0
   -1.3863    0.8433    2.8130 C   0  0  0  0  0  0  0  0  0  0  0  0
   -2.4845    0.8873    2.8372 H   0  0  0  0  0  0  0  0  0  0  0  0
    0.7156    1.4930    1.7562 C   0  0  0  0  0  0  0  0  0  0  0  0
   -0.7146    1.4935    1.7559 C   0  0  0  0  0  0  0  0  0  0  0  0
    1.3865    0.8423    2.8134 C   0  0  0  0  0  0  0  0  0  0  0  0
    2.4847    0.8854    2.8378 H   0  0  0  0  0  0  0  0  0  0  0  0
    1.5748    2.2575    0.7894 C   0  0  0  0  0  0  0  0  0  0  0  0
    2.3932    1.6550   -0.2139 C   0  0  0  0  0  0  0  0  0  0  0  0
    3.2033    2.4873   -1.0159 C   0  0  0  0  0  0  0  0  0  0  0  0
    3.8186    2.0490   -1.8112 H   0  0  0  0  0  0  0  0  0  0  0  0
    3.2401    3.8779   -0.8409 C   0  0  0  0  0  0  0  0  0  0  0  0
    3.8796    4.4939   -1.4909 H   0  0  0  0  0  0  0  0  0  0  0  0
    2.4665    4.4663    0.1652 C   0  0  0  0  0  0  0  0  0  0  0  0
    2.4941    5.5537    0.3316 H   0  0  0  0  0  0  0  0  0  0  0  0
    1.6539    3.6549    0.9678 C   0  0  0  0  0  0  0  0  0  0  0  0
    1.0700    4.1098    1.7797 H   0  0  0  0  0  0  0  0  0  0  0  0
   -1.5730    2.2584    0.7888 C   0  0  0  0  0  0  0  0  0  0  0  0
   -2.3921    1.6562   -0.2142 C   0  0  0  0  0  0  0  0  0  0  0  0
   -3.2016    2.4888   -1.0164 C   0  0  0  0  0  0  0  0  0  0  0  0
   -3.8175    2.0507   -1.8114 H   0  0  0  0  0  0  0  0  0  0  0  0
   -3.2371    3.8795   -0.8421 C   0  0  0  0  0  0  0  0  0  0  0  0
   -3.8763    4.4958   -1.4922 H   0  0  0  0  0  0  0  0  0  0  0  0
   -2.4628    4.4677    0.1636 C   0  0  0  0  0  0  0  0  0  0  0  0
   -2.4893    5.5552    0.3295 H   0  0  0  0  0  0  0  0  0  0  0  0
   -1.6508    3.6560    0.9665 C   0  0  0  0  0  0  0  0  0  0  0  0
   -1.0665    4.1107    1.7781 H   0  0  0  0  0  0  0  0  0  0  0  0
    3.3133   -1.0136    0.7572 C   0  0  0  0  0  0  0  0  0  0  0  0
    2.5762   -1.0482    1.5888 H   0  0  0  0  0  0  0  0  0  0  0  0
    3.1247   -0.4294   -2.2369 C   0  0  0  0  0  0  0  0  0  0  0  0
    2.7145    0.4163   -2.8297 H   0  0  0  0  0  0  0  0  0  0  0  0
    4.5491   -0.2268    1.2049 C   0  0  0  0  0  0  0  0  0  0  0  0
    4.9880   -0.7102    2.1032 H   0  0  0  0  0  0  0  0  0  0  0  0
    4.3117    0.8233    1.4663 H   0  0  0  0  0  0  0  0  0  0  0  0
    5.3371   -0.2052    0.4268 H   0  0  0  0  0  0  0  0  0  0  0  0
    3.6355   -2.4695    0.4001 C   0  0  0  0  0  0  0  0  0  0  0  0
    4.0317   -2.9827    1.3008 H   0  0  0  0  0  0  0  0  0  0  0  0
    4.4057   -2.5507   -0.3921 H   0  0  0  0  0  0  0  0  0  0  0  0
    2.7257   -3.0184    0.0881 H   0  0  0  0  0  0  0  0  0  0  0  0
    4.6583   -0.3696   -2.2825 C   0  0  0  0  0  0  0  0  0  0  0  0
    4.9968   -0.3832   -3.3399 H   0  0  0  0  0  0  0  0  0  0  0  0
    5.1133   -1.2483   -1.7863 H   0  0  0  0  0  0  0  0  0  0  0  0
    5.0839    0.5349   -1.8080 H   0  0  0  0  0  0  0  0  0  0  0  0
    2.6017   -1.7276   -2.8738 C   0  0  0  0  0  0  0  0  0  0  0  0
    2.9379   -1.7906   -3.9298 H   0  0  0  0  0  0  0  0  0  0  0  0
    1.4950   -1.7709   -2.8475 H   0  0  0  0  0  0  0  0  0  0  0  0
    2.9804   -2.6240   -2.3457 H   0  0  0  0  0  0  0  0  0  0  0  0
   -3.3139   -1.0117    0.7577 C   0  0  0  0  0  0  0  0  0  0  0  0
   -2.5767   -1.0465    1.5892 H   0  0  0  0  0  0  0  0  0  0  0  0
   -3.1257   -0.4282   -2.2365 C   0  0  0  0  0  0  0  0  0  0  0  0
   -2.7155    0.4172   -2.8297 H   0  0  0  0  0  0  0  0  0  0  0  0
   -4.5491   -0.2242    1.2055 C   0  0  0  0  0  0  0  0  0  0  0  0
   -4.9879   -0.7068    2.1042 H   0  0  0  0  0  0  0  0  0  0  0  0
   -5.3374   -0.2026    0.4276 H   0  0  0  0  0  0  0  0  0  0  0  0
   -4.3111    0.8260    1.4663 H   0  0  0  0  0  0  0  0  0  0  0  0
   -3.6369   -2.4676    0.4010 C   0  0  0  0  0  0  0  0  0  0  0  0
   -4.0332   -2.9802    1.3020 H   0  0  0  0  0  0  0  0  0  0  0  0
   -2.7274   -3.0170    0.0890 H   0  0  0  0  0  0  0  0  0  0  0  0
   -4.4073   -2.5485   -0.3909 H   0  0  0  0  0  0  0  0  0  0  0  0
   -4.6592   -0.3679   -2.2815 C   0  0  0  0  0  0  0  0  0  0  0  0
   -4.9981   -0.3816   -3.3388 H   0  0  0  0  0  0  0  0  0  0  0  0
   -5.0842    0.5369   -1.8071 H   0  0  0  0  0  0  0  0  0  0  0  0
   -5.1144   -1.2463   -1.7850 H   0  0  0  0  0  0  0  0  0  0  0  0
   -2.6031   -1.7267   -2.8734 C   0  0  0  0  0  0  0  0  0  0  0  0
   -2.9402   -1.7900   -3.9291 H   0  0  0  0  0  0  0  0  0  0  0  0
   -2.9813   -2.6230   -2.3447 H   0  0  0  0  0  0  0  0  0  0  0  0
   -1.4964   -1.7699   -2.8481 H   0  0  0  0  0  0  0  0  0  0  0  0
  1 24  1  0  0  0  0
  1 53  1  0  0  0  0
  2 14  1  0  0  0  0
  2 33  1  0  0  0  0
  3  4  1  0  0  0  0
  5  3  1  0  0  0  0
  5  6  1  0  0  0  0
  7  8  1  0  0  0  0
  7  5  2  0  0  0  0
  9 11  1  0  0  0  0
 10  9  2  0  0  0  0
 10  7  1  0  0  0  0
 11 12  1  0  0  0  0
 11  3  2  0  0  0  0
 13 21  1  0  0  0  0
 13  9  1  0  0  0  0
 14 13  2  0  0  0  0
 15 17  2  0  0  0  0
 15 14  1  0  0  0  0
 16 15  1  0  0  0  0
 17 19  1  0  0  0  0
 18 17  1  0  0  0  0
 19 20  1  0  0  0  0
 19 21  2  0  0  0  0
 21 22  1  0  0  0  0
 23 31  1  0  0  0  0
 23 10  1  0  0  0  0
 24 23  2  0  0  0  0
 25 27  2  0  0  0  0
 25 24  1  0  0  0  0
 26 25  1  0  0  0  0
 27 29  1  0  0  0  0
 28 27  1  0  0  0  0
 29 30  1  0  0  0  0
 29 31  2  0  0  0  0
 31 32  1  0  0  0  0
 33 37  1  0  0  0  0
 33 34  1  0  0  0  0
 35  2  1  0  0  0  0
 36 35  1  0  0  0  0
 37 39  1  0  0  0  0
 37 38  1  0  0  0  0
 40 37  1  0  0  0  0
 41 33  1  0  0  0  0
 41 42  1  0  0  0  0
 43 41  1  0  0  0  0
 44 41  1  0  0  0  0
 45 35  1  0  0  0  0
 45 48  1  0  0  0  0
 45 47  1  0  0  0  0
 46 45  1  0  0  0  0
 49 51  1  0  0  0  0
 49 52  1  0  0  0  0
 49 35  1  0  0  0  0
 50 49  1  0  0  0  0
 53 57  1  0  0  0  0
 53 54  1  0  0  0  0
 55  1  1  0  0  0  0
 56 55  1  0  0  0  0
 57 60  1  0  0  0  0
 57 58  1  0  0  0  0
 59 57  1  0  0  0  0
 61 53  1  0  0  0  0
 61 62  1  0  0  0  0
 63 61  1  0  0  0  0
 64 61  1  0  0  0  0
 65 55  1  0  0  0  0
 65 67  1  0  0  0  0
 65 68  1  0  0  0  0
 66 65  1  0  0  0  0
 69 72  1  0  0  0  0
 69 71  1  0  0  0  0
 69 55  1  0  0  0  0
 70 69  1  0  0  0  0
M  END
