1,34
 OpenBabel05122313063D

 64 65  0  0  0  0  0  0  0  0999 V2000
    0.2658   -1.6006    0.0751 P   0  0  0  0  0  0  0  0  0  0  0  0
   -3.5220   -0.0009   -0.0000 N   0  0  0  0  0  0  0  0  0  0  0  0
   -1.3922   -1.2244    0.4120 N   0  0  0  0  0  0  0  0  0  0  0  0
   -2.2536   -2.2813    0.9745 C   0  0  0  0  0  0  0  0  0  0  0  0
   -2.5330   -2.0243    2.0227 H   0  0  0  0  0  0  0  0  0  0  0  0
   -1.7014   -3.2354    1.0272 H   0  0  0  0  0  0  0  0  0  0  0  0
   -4.3407   -1.1914    0.1696 C   0  0  0  0  0  0  0  0  0  0  0  0
   -5.1244   -1.2203   -0.6243 H   0  0  0  0  0  0  0  0  0  0  0  0
   -4.8966   -1.1291    1.1382 H   0  0  0  0  0  0  0  0  0  0  0  0
   -3.5126   -2.4650    0.1358 C   0  0  0  0  0  0  0  0  0  0  0  0
   -3.2165   -2.7073   -0.9068 H   0  0  0  0  0  0  0  0  0  0  0  0
   -4.1145   -3.3157    0.5154 H   0  0  0  0  0  0  0  0  0  0  0  0
    0.8154   -2.5218    1.6232 C   0  0  0  0  0  0  0  0  0  0  0  0
    0.0299   -3.2874    1.8022 H   0  0  0  0  0  0  0  0  0  0  0  0
    0.2708   -2.8381   -1.3279 C   0  0  0  0  0  0  0  0  0  0  0  0
    1.3673   -2.9604   -1.4686 H   0  0  0  0  0  0  0  0  0  0  0  0
    0.8312   -1.5488    2.8085 C   0  0  0  0  0  0  0  0  0  0  0  0
    1.6261   -0.7861    2.6738 H   0  0  0  0  0  0  0  0  0  0  0  0
    1.0354   -2.1008    3.7492 H   0  0  0  0  0  0  0  0  0  0  0  0
   -0.1371   -1.0222    2.9215 H   0  0  0  0  0  0  0  0  0  0  0  0
   -0.3731   -4.2020   -1.0630 C   0  0  0  0  0  0  0  0  0  0  0  0
   -0.0119   -4.6760   -0.1287 H   0  0  0  0  0  0  0  0  0  0  0  0
   -0.1203   -4.8922   -1.8952 H   0  0  0  0  0  0  0  0  0  0  0  0
   -1.4791   -4.1455   -1.0208 H   0  0  0  0  0  0  0  0  0  0  0  0
   -2.0784   -0.0005   -0.0000 B   0  0  0  0  0  0  0  0  0  0  0  0
   -0.2837   -2.1578   -2.5823 C   0  0  0  0  0  0  0  0  0  0  0  0
   -1.3519   -1.8793   -2.4619 H   0  0  0  0  0  0  0  0  0  0  0  0
   -0.2067   -2.8386   -3.4548 H   0  0  0  0  0  0  0  0  0  0  0  0
    0.2912   -1.2413   -2.8122 H   0  0  0  0  0  0  0  0  0  0  0  0
    2.1547   -3.2453    1.4591 C   0  0  0  0  0  0  0  0  0  0  0  0
    2.1354   -3.9965    0.6455 H   0  0  0  0  0  0  0  0  0  0  0  0
    2.3976   -3.7744    2.4040 H   0  0  0  0  0  0  0  0  0  0  0  0
    2.9696   -2.5331    1.2266 H   0  0  0  0  0  0  0  0  0  0  0  0
    0.2649    1.6008   -0.0751 P   0  0  0  0  0  0  0  0  0  0  0  0
   -1.3928    1.2236   -0.4121 N   0  0  0  0  0  0  0  0  0  0  0  0
   -2.2547    2.2802   -0.9745 C   0  0  0  0  0  0  0  0  0  0  0  0
   -2.5340    2.0230   -2.0227 H   0  0  0  0  0  0  0  0  0  0  0  0
   -1.7030    3.2346   -1.0272 H   0  0  0  0  0  0  0  0  0  0  0  0
   -4.3412    1.1892   -0.1696 C   0  0  0  0  0  0  0  0  0  0  0  0
   -5.1250    1.2177    0.6243 H   0  0  0  0  0  0  0  0  0  0  0  0
   -4.8972    1.1266   -1.1382 H   0  0  0  0  0  0  0  0  0  0  0  0
   -3.5138    2.4633   -0.1358 C   0  0  0  0  0  0  0  0  0  0  0  0
   -3.2178    2.7057    0.9068 H   0  0  0  0  0  0  0  0  0  0  0  0
   -4.1162    3.3136   -0.5154 H   0  0  0  0  0  0  0  0  0  0  0  0
    0.8141    2.5223   -1.6232 C   0  0  0  0  0  0  0  0  0  0  0  0
    0.0279    3.2872   -1.8024 H   0  0  0  0  0  0  0  0  0  0  0  0
    0.2692    2.8382    1.3279 C   0  0  0  0  0  0  0  0  0  0  0  0
    1.3657    2.9614    1.4683 H   0  0  0  0  0  0  0  0  0  0  0  0
    0.8308    1.5491   -2.8085 C   0  0  0  0  0  0  0  0  0  0  0  0
    1.6263    0.7871   -2.6736 H   0  0  0  0  0  0  0  0  0  0  0  0
    1.0347    2.1012   -3.7492 H   0  0  0  0  0  0  0  0  0  0  0  0
   -0.1371    1.0217   -2.9215 H   0  0  0  0  0  0  0  0  0  0  0  0
   -0.3758    4.2016    1.0631 C   0  0  0  0  0  0  0  0  0  0  0  0
   -0.0152    4.6759    0.1287 H   0  0  0  0  0  0  0  0  0  0  0  0
   -0.1234    4.8921    1.8952 H   0  0  0  0  0  0  0  0  0  0  0  0
   -1.4818    4.1442    1.0212 H   0  0  0  0  0  0  0  0  0  0  0  0
   -0.2844    2.1574    2.5823 C   0  0  0  0  0  0  0  0  0  0  0  0
   -1.3524    1.8781    2.4622 H   0  0  0  0  0  0  0  0  0  0  0  0
   -0.2077    2.8383    3.4549 H   0  0  0  0  0  0  0  0  0  0  0  0
    0.2912    1.2414    2.8121 H   0  0  0  0  0  0  0  0  0  0  0  0
    2.1528    3.2468   -1.4590 C   0  0  0  0  0  0  0  0  0  0  0  0
    2.1327    3.9980   -0.6455 H   0  0  0  0  0  0  0  0  0  0  0  0
    2.3953    3.7760   -2.4039 H   0  0  0  0  0  0  0  0  0  0  0  0
    2.9682    2.5353   -1.2264 H   0  0  0  0  0  0  0  0  0  0  0  0
  1  3  1  0  0  0  0
  1 13  1  0  0  0  0
  2  7  1  0  0  0  0
  3  4  1  0  0  0  0
  4  6  1  0  0  0  0
  4  5  1  0  0  0  0
  7  9  1  0  0  0  0
  8  7  1  0  0  0  0
 10  7  1  0  0  0  0
 10 12  1  0  0  0  0
 10  4  1  0  0  0  0
 11 10  1  0  0  0  0
 13 14  1  0  0  0  0
 13 17  1  0  0  0  0
 15 21  1  0  0  0  0
 15  1  1  0  0  0  0
 16 15  1  0  0  0  0
 17 20  1  0  0  0  0
 17 19  1  0  0  0  0
 18 17  1  0  0  0  0
 21 24  1  0  0  0  0
 21 22  1  0  0  0  0
 23 21  1  0  0  0  0
 25  2  1  0  0  0  0
 25  3  1  0  0  0  0
 26 27  1  0  0  0  0
 26 15  1  0  0  0  0
 28 26  1  0  0  0  0
 29 26  1  0  0  0  0
 30 13  1  0  0  0  0
 30 32  1  0  0  0  0
 31 30  1  0  0  0  0
 33 30  1  0  0  0  0
 34 47  1  0  0  0  0
 35 34  1  0  0  0  0
 35 25  1  0  0  0  0
 36 35  1  0  0  0  0
 36 42  1  0  0  0  0
 37 36  1  0  0  0  0
 38 36  1  0  0  0  0
 39 42  1  0  0  0  0
 39  2  1  0  0  0  0
 39 40  1  0  0  0  0
 41 39  1  0  0  0  0
 42 43  1  0  0  0  0
 44 42  1  0  0  0  0
 45 61  1  0  0  0  0
 45 34  1  0  0  0  0
 46 45  1  0  0  0  0
 47 48  1  0  0  0  0
 47 57  1  0  0  0  0
 49 50  1  0  0  0  0
 49 45  1  0  0  0  0
 51 49  1  0  0  0  0
 52 49  1  0  0  0  0
 53 47  1  0  0  0  0
 53 55  1  0  0  0  0
 54 53  1  0  0  0  0
 56 53  1  0  0  0  0
 57 60  1  0  0  0  0
 57 59  1  0  0  0  0
 58 57  1  0  0  0  0
 61 64  1  0  0  0  0
 61 62  1  0  0  0  0
 63 61  1  0  0  0  0
M  END
