1,2
 OpenBabel05122313063D

 74 79  0  0  1  0  0  0  0  0999 V2000
    1.6113    0.0972   -0.2335 P   0  0  0  0  0  0  0  0  0  0  0  0
   -1.6144    0.0645   -0.2304 P   0  0  0  0  0  0  0  0  0  0  0  0
    0.0495    0.1203    3.2938 O   0  0  0  0  0  0  0  0  0  0  0  0
    1.3022   -0.6764    1.2669 N   0  0  0  0  0  0  0  0  0  0  0  0
   -1.2995   -0.6119    1.3108 N   0  0  0  0  0  0  0  0  0  0  0  0
   -0.0160   -2.2269    2.8082 N   0  3  2  0  0  0  0  0  0  0  0  0
   -0.0462   -2.8652    1.9969 H   0  0  0  0  0  0  0  0  0  0  0  0
   -2.4902   -0.8253    2.1525 C   0  0  0  0  0  0  0  0  0  0  0  0
   -3.4072   -0.7388    1.5413 H   0  0  0  0  0  0  0  0  0  0  0  0
   -2.5584   -0.0370    2.9367 H   0  0  0  0  0  0  0  0  0  0  0  0
   -2.4880   -2.2057    2.8091 C   0  0  0  0  0  0  0  0  0  0  0  0
   -2.5810   -2.9887    2.0256 H   0  0  0  0  0  0  0  0  0  0  0  0
   -3.3734   -2.3085    3.4701 H   0  0  0  0  0  0  0  0  0  0  0  0
   -1.2347   -2.4333    3.6350 C   0  0  0  0  0  0  0  0  0  0  0  0
   -1.1688   -1.6937    4.4571 H   0  0  0  0  0  0  0  0  0  0  0  0
   -1.2040   -3.4533    4.0761 H   0  0  0  0  0  0  0  0  0  0  0  0
    1.2160   -2.5017    3.5927 C   0  0  0  0  0  0  0  0  0  0  0  0
    1.1453   -3.5188    4.0359 H   0  0  0  0  0  0  0  0  0  0  0  0
    1.2218   -1.7603    4.4158 H   0  0  0  0  0  0  0  0  0  0  0  0
    2.4459   -2.3424    2.7185 C   0  0  0  0  0  0  0  0  0  0  0  0
    3.3506   -2.5035    3.3403 H   0  0  0  0  0  0  0  0  0  0  0  0
    2.4587   -3.1220    1.9255 H   0  0  0  0  0  0  0  0  0  0  0  0
    2.5049   -0.9608    2.0685 C   0  0  0  0  0  0  0  0  0  0  0  0
    2.6533   -0.1808    2.8502 H   0  0  0  0  0  0  0  0  0  0  0  0
    3.3992   -0.9387    1.4187 H   0  0  0  0  0  0  0  0  0  0  0  0
    0.0461    1.5162    3.1137 C   0  0  0  0  0  0  0  0  0  0  0  0
    0.1093    2.0103    4.1054 H   0  0  0  0  0  0  0  0  0  0  0  0
   -0.8836    1.8705    2.6089 H   0  0  0  0  0  0  0  0  0  0  0  0
    0.9089    1.8637    2.4984 H   0  0  0  0  0  0  0  0  0  0  0  0
    2.6533    1.5702    0.1809 C   0  0  0  0  0  0  0  0  0  0  0  0
    3.9966    1.4994    0.6006 C   0  0  0  0  0  0  0  0  0  0  0  0
    4.5331    0.5396    0.5955 H   0  0  0  0  0  0  0  0  0  0  0  0
    4.6791    2.6606    0.9997 C   0  0  0  0  0  0  0  0  0  0  0  0
    5.7305    2.5903    1.3182 H   0  0  0  0  0  0  0  0  0  0  0  0
    4.0294    3.9034    0.9849 C   0  0  0  0  0  0  0  0  0  0  0  0
    4.5665    4.8116    1.2984 H   0  0  0  0  0  0  0  0  0  0  0  0
    2.6969    3.9860    0.5475 C   0  0  0  0  0  0  0  0  0  0  0  0
    2.1873    4.9605    0.5038 H   0  0  0  0  0  0  0  0  0  0  0  0
    2.0194    2.8304    0.1410 C   0  0  0  0  0  0  0  0  0  0  0  0
    0.9958    2.8951   -0.2593 H   0  0  0  0  0  0  0  0  0  0  0  0
    2.7221   -1.1258   -1.0472 C   0  0  0  0  0  0  0  0  0  0  0  0
    2.3768   -2.4892   -0.9525 C   0  0  0  0  0  0  0  0  0  0  0  0
    1.4915   -2.7762   -0.3641 H   0  0  0  0  0  0  0  0  0  0  0  0
    3.1412   -3.4660   -1.6065 C   0  0  0  0  0  0  0  0  0  0  0  0
    2.8569   -4.5268   -1.5312 H   0  0  0  0  0  0  0  0  0  0  0  0
    4.2613   -3.0873   -2.3637 C   0  0  0  0  0  0  0  0  0  0  0  0
    4.8644   -3.8514   -2.8776 H   0  0  0  0  0  0  0  0  0  0  0  0
    4.6011   -1.7295   -2.4745 C   0  0  0  0  0  0  0  0  0  0  0  0
    5.4689   -1.4261   -3.0797 H   0  0  0  0  0  0  0  0  0  0  0  0
    3.8312   -0.7491   -1.8312 C   0  0  0  0  0  0  0  0  0  0  0  0
    4.0713    0.3158   -1.9521 H   0  0  0  0  0  0  0  0  0  0  0  0
   -2.7817    1.4521    0.1252 C   0  0  0  0  0  0  0  0  0  0  0  0
   -4.1751    1.3004    0.2577 C   0  0  0  0  0  0  0  0  0  0  0  0
   -4.6478    0.3256    0.0646 H   0  0  0  0  0  0  0  0  0  0  0  0
   -4.9778    2.3962    0.6152 C   0  0  0  0  0  0  0  0  0  0  0  0
   -6.0669    2.2653    0.7068 H   0  0  0  0  0  0  0  0  0  0  0  0
   -4.3970    3.6509    0.8501 C   0  0  0  0  0  0  0  0  0  0  0  0
   -5.0277    4.5088    1.1285 H   0  0  0  0  0  0  0  0  0  0  0  0
   -3.0072    3.8098    0.7178 C   0  0  0  0  0  0  0  0  0  0  0  0
   -2.5441    4.7939    0.8861 H   0  0  0  0  0  0  0  0  0  0  0  0
   -2.2076    2.7204    0.3523 C   0  0  0  0  0  0  0  0  0  0  0  0
   -1.1235    2.8487    0.2184 H   0  0  0  0  0  0  0  0  0  0  0  0
   -2.5934   -1.2602   -1.0611 C   0  0  0  0  0  0  0  0  0  0  0  0
   -3.5911   -0.9911   -2.0220 C   0  0  0  0  0  0  0  0  0  0  0  0
   -3.8256    0.0511   -2.2772 H   0  0  0  0  0  0  0  0  0  0  0  0
   -4.2431   -2.0483   -2.6731 C   0  0  0  0  0  0  0  0  0  0  0  0
   -5.0239   -1.8259   -3.4163 H   0  0  0  0  0  0  0  0  0  0  0  0
   -3.8958   -3.3804   -2.3958 C   0  0  0  0  0  0  0  0  0  0  0  0
   -4.4067   -4.2051   -2.9159 H   0  0  0  0  0  0  0  0  0  0  0  0
   -2.8832   -3.6547   -1.4633 C   0  0  0  0  0  0  0  0  0  0  0  0
   -2.5899   -4.6950   -1.2541 H   0  0  0  0  0  0  0  0  0  0  0  0
   -2.2379   -2.5996   -0.8025 C   0  0  0  0  0  0  0  0  0  0  0  0
   -1.4358   -2.8040   -0.0771 H   0  0  0  0  0  0  0  0  0  0  0  0
    0.0125   -0.6817    2.0860 B   0  0  2  0  0  0  0  0  0  0  0  0
  1 30  1  0  0  0  0
  1  4  1  0  0  0  0
  2 52  1  0  0  0  0
  2  5  1  0  0  0  0
  4 23  1  0  0  0  0
  4 74  1  0  0  0  0
  5 74  1  0  0  0  0
  5  8  1  0  0  0  0
  6  7  1  6  0  0  0
  6 17  1  0  0  0  0
  6 14  1  0  0  0  0
  8 11  1  0  0  0  0
  8 10  1  0  0  0  0
  9  8  1  0  0  0  0
 11 13  1  0  0  0  0
 11 14  1  0  0  0  0
 12 11  1  0  0  0  0
 14 16  1  0  0  0  0
 14 15  1  0  0  0  0
 17 18  1  0  0  0  0
 17 19  1  0  0  0  0
 20 21  1  0  0  0  0
 20 17  1  0  0  0  0
 22 20  1  0  0  0  0
 23 20  1  0  0  0  0
 23 24  1  0  0  0  0
 25 23  1  0  0  0  0
 26  3  1  0  0  0  0
 26 27  1  0  0  0  0
 28 26  1  0  0  0  0
 29 26  1  0  0  0  0
 30 31  1  0  0  0  0
 31 33  2  0  0  0  0
 32 31  1  0  0  0  0
 33 34  1  0  0  0  0
 35 33  1  0  0  0  0
 35 36  1  0  0  0  0
 37 35  2  0  0  0  0
 38 37  1  0  0  0  0
 39 30  2  0  0  0  0
 39 37  1  0  0  0  0
 40 39  1  0  0  0  0
 41 42  1  0  0  0  0
 41  1  1  0  0  0  0
 42 43  1  0  0  0  0
 44 45  1  0  0  0  0
 44 42  2  0  0  0  0
 46 44  1  0  0  0  0
 47 46  1  0  0  0  0
 48 46  2  0  0  0  0
 48 50  1  0  0  0  0
 49 48  1  0  0  0  0
 50 41  2  0  0  0  0
 51 50  1  0  0  0  0
 52 53  2  0  0  0  0
 52 61  1  0  0  0  0
 53 55  1  0  0  0  0
 54 53  1  0  0  0  0
 55 56  1  0  0  0  0
 55 57  2  0  0  0  0
 57 58  1  0  0  0  0
 59 57  1  0  0  0  0
 59 60  1  0  0  0  0
 61 59  2  0  0  0  0
 62 61  1  0  0  0  0
 63 72  1  0  0  0  0
 63  2  1  0  0  0  0
 64 63  2  0  0  0  0
 65 64  1  0  0  0  0
 66 68  2  0  0  0  0
 66 64  1  0  0  0  0
 67 66  1  0  0  0  0
 68 70  1  0  0  0  0
 69 68  1  0  0  0  0
 70 71  1  0  0  0  0
 70 72  2  0  0  0  0
 72 73  1  0  0  0  0
 74  6  1  0  0  0  0
 74  3  1  1  0  0  0
M  CHG  1   6   1
M  END
