1,2
 OpenBabel05122313063D

 78 78  0  0  0  0  0  0  0  0999 V2000
    1.0477   -1.7395    0.2779 P   0  0  0  0  0  0  0  0  0  0  0  0
    0.6369    1.8610    0.0905 P   0  0  0  0  0  0  0  0  0  0  0  0
   -1.3635   -0.1289    1.0076 B   0  0  0  0  0  0  0  0  0  0  0  0
   -2.8970   -0.2422    0.6688 C   0  0  0  0  0  0  0  0  0  0  0  0
   -3.4595   -1.4520    0.1934 C   0  0  0  0  0  0  0  0  0  0  0  0
   -2.8160   -2.3366    0.0717 H   0  0  0  0  0  0  0  0  0  0  0  0
   -4.8164   -1.5717   -0.1538 C   0  0  0  0  0  0  0  0  0  0  0  0
   -5.6441   -0.4437    0.0103 C   0  0  0  0  0  0  0  0  0  0  0  0
   -6.7132   -0.5200   -0.2517 H   0  0  0  0  0  0  0  0  0  0  0  0
   -5.1455    0.7792    0.5019 C   0  0  0  0  0  0  0  0  0  0  0  0
   -3.7770    0.8589    0.8136 C   0  0  0  0  0  0  0  0  0  0  0  0
   -3.3877    1.8185    1.1898 H   0  0  0  0  0  0  0  0  0  0  0  0
   -5.3789   -2.8656   -0.6880 C   0  0  0  0  0  0  0  0  0  0  0  0
   -5.7908   -2.7339   -1.7103 H   0  0  0  0  0  0  0  0  0  0  0  0
   -6.2098   -3.2384   -0.0536 H   0  0  0  0  0  0  0  0  0  0  0  0
   -4.6058   -3.6567   -0.7351 H   0  0  0  0  0  0  0  0  0  0  0  0
   -6.0641    1.9611    0.6894 C   0  0  0  0  0  0  0  0  0  0  0  0
   -6.7826    1.7836    1.5175 H   0  0  0  0  0  0  0  0  0  0  0  0
   -6.6667    2.1554   -0.2215 H   0  0  0  0  0  0  0  0  0  0  0  0
   -5.4990    2.8826    0.9288 H   0  0  0  0  0  0  0  0  0  0  0  0
   -0.5169   -1.4512    1.2752 C   0  0  0  0  0  0  0  0  0  0  0  0
   -1.1317   -2.3728    1.3026 H   0  0  0  0  0  0  0  0  0  0  0  0
   -0.1302   -1.3086    2.3091 H   0  0  0  0  0  0  0  0  0  0  0  0
   -0.7018    1.2935    1.2780 C   0  0  0  0  0  0  0  0  0  0  0  0
   -0.1366    1.1962    2.2319 H   0  0  0  0  0  0  0  0  0  0  0  0
   -1.4376    2.1110    1.4204 H   0  0  0  0  0  0  0  0  0  0  0  0
    0.4723   -2.8196   -1.1903 C   0  0  0  0  0  0  0  0  0  0  0  0
   -0.3540   -1.8478   -2.0564 C   0  0  0  0  0  0  0  0  0  0  0  0
   -0.7096   -2.3723   -2.9690 H   0  0  0  0  0  0  0  0  0  0  0  0
    0.2722   -0.9894   -2.3776 H   0  0  0  0  0  0  0  0  0  0  0  0
   -1.2456   -1.4530   -1.5304 H   0  0  0  0  0  0  0  0  0  0  0  0
   -0.3717   -4.0479   -0.8288 C   0  0  0  0  0  0  0  0  0  0  0  0
    0.2081   -4.8047   -0.2682 H   0  0  0  0  0  0  0  0  0  0  0  0
   -0.7368   -4.5329   -1.7598 H   0  0  0  0  0  0  0  0  0  0  0  0
   -1.2651   -3.7887   -0.2261 H   0  0  0  0  0  0  0  0  0  0  0  0
    1.7127   -3.2326   -2.0048 C   0  0  0  0  0  0  0  0  0  0  0  0
    2.4027   -2.3747   -2.1515 H   0  0  0  0  0  0  0  0  0  0  0  0
    1.3879   -3.5926   -3.0043 H   0  0  0  0  0  0  0  0  0  0  0  0
    2.2710   -4.0581   -1.5245 H   0  0  0  0  0  0  0  0  0  0  0  0
    2.1940   -2.6877    1.4822 C   0  0  0  0  0  0  0  0  0  0  0  0
    1.6118   -3.9925    2.0381 C   0  0  0  0  0  0  0  0  0  0  0  0
    2.2796   -4.3959    2.8300 H   0  0  0  0  0  0  0  0  0  0  0  0
    1.5244   -4.7722    1.2574 H   0  0  0  0  0  0  0  0  0  0  0  0
    0.6110   -3.8445    2.4932 H   0  0  0  0  0  0  0  0  0  0  0  0
    3.5352   -2.9298    0.7621 C   0  0  0  0  0  0  0  0  0  0  0  0
    4.3066   -3.2167    1.5079 H   0  0  0  0  0  0  0  0  0  0  0  0
    3.8793   -2.0166    0.2316 H   0  0  0  0  0  0  0  0  0  0  0  0
    3.4710   -3.7491    0.0232 H   0  0  0  0  0  0  0  0  0  0  0  0
    2.4639   -1.7022    2.6368 C   0  0  0  0  0  0  0  0  0  0  0  0
    2.8510   -0.7376    2.2539 H   0  0  0  0  0  0  0  0  0  0  0  0
    3.2306   -2.1342    3.3137 H   0  0  0  0  0  0  0  0  0  0  0  0
    1.5647   -1.4980    3.2534 H   0  0  0  0  0  0  0  0  0  0  0  0
   -0.2809    2.8045   -1.2929 C   0  0  0  0  0  0  0  0  0  0  0  0
   -1.3381    1.8245   -1.8327 C   0  0  0  0  0  0  0  0  0  0  0  0
   -0.8844    0.8519   -2.1037 H   0  0  0  0  0  0  0  0  0  0  0  0
   -1.7931    2.2492   -2.7525 H   0  0  0  0  0  0  0  0  0  0  0  0
   -2.1554    1.6358   -1.1125 H   0  0  0  0  0  0  0  0  0  0  0  0
   -0.9655    4.1024   -0.8479 C   0  0  0  0  0  0  0  0  0  0  0  0
   -1.5586    4.5180   -1.6913 H   0  0  0  0  0  0  0  0  0  0  0  0
   -0.2352    4.8786   -0.5477 H   0  0  0  0  0  0  0  0  0  0  0  0
   -1.6675    3.9381   -0.0047 H   0  0  0  0  0  0  0  0  0  0  0  0
    0.7395    3.0742   -2.4181 C   0  0  0  0  0  0  0  0  0  0  0  0
    1.4508    3.8795   -2.1604 H   0  0  0  0  0  0  0  0  0  0  0  0
    0.1989    3.3858   -3.3370 H   0  0  0  0  0  0  0  0  0  0  0  0
    1.3384    2.1684   -2.6474 H   0  0  0  0  0  0  0  0  0  0  0  0
    1.6888    3.0441    1.1680 C   0  0  0  0  0  0  0  0  0  0  0  0
    0.8865    3.9851    2.0760 C   0  0  0  0  0  0  0  0  0  0  0  0
    0.2555    4.6905    1.5041 H   0  0  0  0  0  0  0  0  0  0  0  0
    1.5861    4.5896    2.6929 H   0  0  0  0  0  0  0  0  0  0  0  0
    0.2319    3.4304    2.7778 H   0  0  0  0  0  0  0  0  0  0  0  0
    2.6309    3.8305    0.2404 C   0  0  0  0  0  0  0  0  0  0  0  0
    3.1458    3.1501   -0.4698 H   0  0  0  0  0  0  0  0  0  0  0  0
    3.4066    4.3388    0.8520 H   0  0  0  0  0  0  0  0  0  0  0  0
    2.0979    4.6140   -0.3322 H   0  0  0  0  0  0  0  0  0  0  0  0
    2.5575    2.1047    2.0286 C   0  0  0  0  0  0  0  0  0  0  0  0
    3.2343    2.7079    2.6709 H   0  0  0  0  0  0  0  0  0  0  0  0
    3.1826    1.4508    1.3837 H   0  0  0  0  0  0  0  0  0  0  0  0
    1.9521    1.4619    2.7002 H   0  0  0  0  0  0  0  0  0  0  0  0
  1 21  1  0  0  0  0
  1 40  1  0  0  0  0
  2 66  1  0  0  0  0
  2 24  1  0  0  0  0
  3 21  1  0  0  0  0
  3 24  1  0  0  0  0
  4 11  1  0  0  0  0
  4  3  1  0  0  0  0
  5  4  2  0  0  0  0
  6  5  1  0  0  0  0
  7  8  2  0  0  0  0
  7  5  1  0  0  0  0
  8 10  1  0  0  0  0
  9  8  1  0  0  0  0
 10 17  1  0  0  0  0
 10 11  2  0  0  0  0
 11 12  1  0  0  0  0
 13  7  1  0  0  0  0
 13 15  1  0  0  0  0
 14 13  1  0  0  0  0
 16 13  1  0  0  0  0
 17 20  1  0  0  0  0
 17 18  1  0  0  0  0
 19 17  1  0  0  0  0
 21 22  1  0  0  0  0
 21 23  1  0  0  0  0
 24 26  1  0  0  0  0
 24 25  1  0  0  0  0
 27 32  1  0  0  0  0
 27  1  1  0  0  0  0
 28 31  1  0  0  0  0
 28 27  1  0  0  0  0
 29 28  1  0  0  0  0
 30 28  1  0  0  0  0
 32 33  1  0  0  0  0
 32 35  1  0  0  0  0
 34 32  1  0  0  0  0
 36 39  1  0  0  0  0
 36 27  1  0  0  0  0
 37 36  1  0  0  0  0
 38 36  1  0  0  0  0
 40 41  1  0  0  0  0
 40 49  1  0  0  0  0
 41 44  1  0  0  0  0
 41 42  1  0  0  0  0
 43 41  1  0  0  0  0
 45 40  1  0  0  0  0
 45 46  1  0  0  0  0
 47 45  1  0  0  0  0
 48 45  1  0  0  0  0
 49 52  1  0  0  0  0
 49 51  1  0  0  0  0
 50 49  1  0  0  0  0
 53 58  1  0  0  0  0
 53  2  1  0  0  0  0
 54 53  1  0  0  0  0
 54 57  1  0  0  0  0
 55 54  1  0  0  0  0
 56 54  1  0  0  0  0
 58 60  1  0  0  0  0
 58 61  1  0  0  0  0
 59 58  1  0  0  0  0
 62 63  1  0  0  0  0
 62 53  1  0  0  0  0
 64 62  1  0  0  0  0
 65 62  1  0  0  0  0
 66 75  1  0  0  0  0
 66 67  1  0  0  0  0
 67 69  1  0  0  0  0
 67 70  1  0  0  0  0
 68 67  1  0  0  0  0
 71 73  1  0  0  0  0
 71 66  1  0  0  0  0
 72 71  1  0  0  0  0
 74 71  1  0  0  0  0
 75 76  1  0  0  0  0
 75 78  1  0  0  0  0
 77 75  1  0  0  0  0
M  END
