1,4
 OpenBabel05122313063D

 29 29  0  0  0  0  0  0  0  0999 V2000
   -0.3527    0.4470   -1.6795 P   0  0  0  0  0  0  0  0  0  0  0  0
    0.6648   -0.4557   -2.1206 H   0  0  0  0  0  0  0  0  0  0  0  0
   -0.7979    0.8658   -2.9792 H   0  0  0  0  0  0  0  0  0  0  0  0
   -0.4425    0.5242    1.7183 P   0  0  0  0  0  0  0  0  0  0  0  0
   -0.9718    1.0195    2.9584 H   0  0  0  0  0  0  0  0  0  0  0  0
    0.5310   -0.3599    2.2772 H   0  0  0  0  0  0  0  0  0  0  0  0
    1.9409   -0.3613    0.1396 O   0  0  0  0  0  0  0  0  0  0  0  0
    3.7399    1.0806    0.0089 N   0  0  0  0  0  0  0  0  0  0  0  0
    3.9717    2.0741   -0.0418 H   0  0  0  0  0  0  0  0  0  0  0  0
    0.6535    1.9803   -1.2910 C   0  0  0  0  0  0  0  0  0  0  0  0
    1.3417    2.1743   -2.1390 H   0  0  0  0  0  0  0  0  0  0  0  0
   -0.0843    2.8097   -1.2685 H   0  0  0  0  0  0  0  0  0  0  0  0
    1.4542    1.9855    0.0315 C   0  0  0  0  0  0  0  0  0  0  0  0
    2.0504    2.9253    0.0260 H   0  0  0  0  0  0  0  0  0  0  0  0
    0.5960    2.0318    1.3145 C   0  0  0  0  0  0  0  0  0  0  0  0
   -0.1333    2.8643    1.2278 H   0  0  0  0  0  0  0  0  0  0  0  0
    1.2462    2.2542    2.1853 H   0  0  0  0  0  0  0  0  0  0  0  0
    2.4023    0.7813    0.0705 C   0  0  0  0  0  0  0  0  0  0  0  0
    4.8509    0.2089    0.0009 C   0  0  0  0  0  0  0  0  0  0  0  0
    4.7252   -1.1960    0.0627 C   0  0  0  0  0  0  0  0  0  0  0  0
    3.7265   -1.6432    0.1219 H   0  0  0  0  0  0  0  0  0  0  0  0
    5.8824   -1.9876    0.0472 C   0  0  0  0  0  0  0  0  0  0  0  0
    5.7767   -3.0820    0.0953 H   0  0  0  0  0  0  0  0  0  0  0  0
    7.1590   -1.4098   -0.0280 C   0  0  0  0  0  0  0  0  0  0  0  0
    8.0574   -2.0442   -0.0393 H   0  0  0  0  0  0  0  0  0  0  0  0
    7.2784   -0.0121   -0.0886 C   0  0  0  0  0  0  0  0  0  0  0  0
    8.2711    0.4589   -0.1478 H   0  0  0  0  0  0  0  0  0  0  0  0
    6.1342    0.7934   -0.0744 C   0  0  0  0  0  0  0  0  0  0  0  0
    6.2326    1.8903   -0.1226 H   0  0  0  0  0  0  0  0  0  0  0  0
  1 10  1  0  0  0  0
  2  1  1  0  0  0  0
  3  1  1  0  0  0  0
  4  6  1  0  0  0  0
  4  5  1  0  0  0  0
  8 18  1  0  0  0  0
  9  8  1  0  0  0  0
 10 12  1  0  0  0  0
 10 13  1  0  0  0  0
 11 10  1  0  0  0  0
 13 18  1  0  0  0  0
 13 15  1  0  0  0  0
 14 13  1  0  0  0  0
 15  4  1  0  0  0  0
 15 17  1  0  0  0  0
 16 15  1  0  0  0  0
 18  7  2  0  0  0  0
 19  8  1  0  0  0  0
 19 20  1  0  0  0  0
 20 21  1  0  0  0  0
 22 20  2  0  0  0  0
 22 23  1  0  0  0  0
 24 22  1  0  0  0  0
 25 24  1  0  0  0  0
 26 28  1  0  0  0  0
 26 24  2  0  0  0  0
 27 26  1  0  0  0  0
 28 19  2  0  0  0  0
 29 28  1  0  0  0  0
M  END
