1,2
 OpenBabel05122313063D

 61 64  0  0  0  0  0  0  0  0999 V2000
    0.0569    1.4497   -0.0072 P   0  0  0  0  0  0  0  0  0  0  0  0
   -0.5496   -1.0929    0.0959 P   0  0  0  0  0  0  0  0  0  0  0  0
   -5.3275   -0.5027   -0.0540 O   0  0  0  0  0  0  0  0  0  0  0  0
   -1.3520    0.4470    0.1392 N   0  0  0  0  0  0  0  0  0  0  0  0
    0.0444    2.5571    1.4484 C   0  0  0  0  0  0  0  0  0  0  0  0
   -0.9006    3.5948    1.6037 C   0  0  0  0  0  0  0  0  0  0  0  0
   -1.5985    3.8341    0.7861 H   0  0  0  0  0  0  0  0  0  0  0  0
   -0.9342    4.3355    2.7945 C   0  0  0  0  0  0  0  0  0  0  0  0
   -1.6715    5.1436    2.9166 H   0  0  0  0  0  0  0  0  0  0  0  0
   -0.0232    4.0509    3.8261 C   0  0  0  0  0  0  0  0  0  0  0  0
   -0.0493    4.6379    4.7569 H   0  0  0  0  0  0  0  0  0  0  0  0
    0.9264    3.0286    3.6674 C   0  0  0  0  0  0  0  0  0  0  0  0
    1.6505    2.8168    4.4686 H   0  0  0  0  0  0  0  0  0  0  0  0
    0.9620    2.2786    2.4825 C   0  0  0  0  0  0  0  0  0  0  0  0
    1.7129    1.4862    2.3247 H   0  0  0  0  0  0  0  0  0  0  0  0
   -0.2003    2.5315   -1.4558 C   0  0  0  0  0  0  0  0  0  0  0  0
    0.3291    3.8374   -1.5011 C   0  0  0  0  0  0  0  0  0  0  0  0
    0.8285    4.2603   -0.6165 H   0  0  0  0  0  0  0  0  0  0  0  0
    0.2237    4.5960   -2.6769 C   0  0  0  0  0  0  0  0  0  0  0  0
    0.6373    5.6155   -2.7061 H   0  0  0  0  0  0  0  0  0  0  0  0
   -0.4023    4.0570   -3.8115 C   0  0  0  0  0  0  0  0  0  0  0  0
   -0.4838    4.6548   -4.7320 H   0  0  0  0  0  0  0  0  0  0  0  0
   -0.9139    2.7482   -3.7750 C   0  0  0  0  0  0  0  0  0  0  0  0
   -1.3932    2.3172   -4.6671 H   0  0  0  0  0  0  0  0  0  0  0  0
   -0.8055    1.9833   -2.6068 C   0  0  0  0  0  0  0  0  0  0  0  0
   -1.1846    0.9500   -2.5814 H   0  0  0  0  0  0  0  0  0  0  0  0
   -1.2626   -2.0555   -1.2878 C   0  0  0  0  0  0  0  0  0  0  0  0
   -0.4018   -2.4028   -2.3486 C   0  0  0  0  0  0  0  0  0  0  0  0
    0.6697   -2.1519   -2.2690 H   0  0  0  0  0  0  0  0  0  0  0  0
   -0.9129   -3.0756   -3.4696 C   0  0  0  0  0  0  0  0  0  0  0  0
   -0.2374   -3.3554   -4.2921 H   0  0  0  0  0  0  0  0  0  0  0  0
   -2.2798   -3.3865   -3.5406 C   0  0  0  0  0  0  0  0  0  0  0  0
   -2.6803   -3.9079   -4.4236 H   0  0  0  0  0  0  0  0  0  0  0  0
   -3.1397   -3.0351   -2.4850 C   0  0  0  0  0  0  0  0  0  0  0  0
   -4.2130   -3.2727   -2.5417 H   0  0  0  0  0  0  0  0  0  0  0  0
   -2.6367   -2.3770   -1.3538 C   0  0  0  0  0  0  0  0  0  0  0  0
   -3.3245   -2.1012   -0.5395 H   0  0  0  0  0  0  0  0  0  0  0  0
   -1.0950   -1.9475    1.6150 C   0  0  0  0  0  0  0  0  0  0  0  0
   -1.3288   -3.3367    1.6387 C   0  0  0  0  0  0  0  0  0  0  0  0
   -1.2599   -3.9213    0.7092 H   0  0  0  0  0  0  0  0  0  0  0  0
   -1.6472   -3.9730    2.8482 C   0  0  0  0  0  0  0  0  0  0  0  0
   -1.8270   -5.0587    2.8616 H   0  0  0  0  0  0  0  0  0  0  0  0
   -1.7356   -3.2298    4.0352 C   0  0  0  0  0  0  0  0  0  0  0  0
   -1.9874   -3.7315    4.9819 H   0  0  0  0  0  0  0  0  0  0  0  0
   -1.4957   -1.8449    4.0155 C   0  0  0  0  0  0  0  0  0  0  0  0
   -1.5574   -1.2599    4.9457 H   0  0  0  0  0  0  0  0  0  0  0  0
   -1.1679   -1.2052    2.8137 C   0  0  0  0  0  0  0  0  0  0  0  0
   -0.9611   -0.1233    2.7996 H   0  0  0  0  0  0  0  0  0  0  0  0
   -2.7434    0.7492    0.4376 C   0  0  0  0  0  0  0  0  0  0  0  0
   -2.7837    1.6169    1.1336 H   0  0  0  0  0  0  0  0  0  0  0  0
   -3.1568   -0.1121    1.0035 H   0  0  0  0  0  0  0  0  0  0  0  0
   -3.6311    1.0021   -0.7903 C   0  0  0  0  0  0  0  0  0  0  0  0
   -3.3681    0.2737   -1.5842 H   0  0  0  0  0  0  0  0  0  0  0  0
   -3.4515    2.0132   -1.2098 H   0  0  0  0  0  0  0  0  0  0  0  0
   -5.1069    0.8376   -0.4576 C   0  0  0  0  0  0  0  0  0  0  0  0
   -5.4099    1.5416    0.3605 H   0  0  0  0  0  0  0  0  0  0  0  0
   -5.7382    1.0892   -1.3457 H   0  0  0  0  0  0  0  0  0  0  0  0
   -6.6541   -0.7566    0.3406 C   0  0  0  0  0  0  0  0  0  0  0  0
   -7.3810   -0.5751   -0.4885 H   0  0  0  0  0  0  0  0  0  0  0  0
   -6.9627   -0.1224    1.2074 H   0  0  0  0  0  0  0  0  0  0  0  0
   -6.7193   -1.8203    0.6410 H   0  0  0  0  0  0  0  0  0  0  0  0
  1  4  1  0  0  0  0
  1  5  1  0  0  0  0
  2  4  1  0  0  0  0
  2 38  1  0  0  0  0
  3 58  1  0  0  0  0
  4 49  1  0  0  0  0
  5  6  2  0  0  0  0
  5 14  1  0  0  0  0
  6  8  1  0  0  0  0
  7  6  1  0  0  0  0
  8  9  1  0  0  0  0
  8 10  2  0  0  0  0
 10 11  1  0  0  0  0
 12 10  1  0  0  0  0
 12 13  1  0  0  0  0
 14 12  2  0  0  0  0
 15 14  1  0  0  0  0
 16  1  1  0  0  0  0
 17 16  1  0  0  0  0
 17 18  1  0  0  0  0
 19 17  2  0  0  0  0
 20 19  1  0  0  0  0
 21 23  2  0  0  0  0
 21 19  1  0  0  0  0
 22 21  1  0  0  0  0
 23 25  1  0  0  0  0
 24 23  1  0  0  0  0
 25 26  1  0  0  0  0
 25 16  2  0  0  0  0
 27  2  1  0  0  0  0
 28 29  1  0  0  0  0
 28 27  2  0  0  0  0
 30 28  1  0  0  0  0
 31 30  1  0  0  0  0
 32 30  2  0  0  0  0
 32 34  1  0  0  0  0
 33 32  1  0  0  0  0
 34 36  2  0  0  0  0
 35 34  1  0  0  0  0
 36 27  1  0  0  0  0
 36 37  1  0  0  0  0
 38 39  2  0  0  0  0
 38 47  1  0  0  0  0
 39 41  1  0  0  0  0
 40 39  1  0  0  0  0
 41 42  1  0  0  0  0
 41 43  2  0  0  0  0
 43 44  1  0  0  0  0
 45 43  1  0  0  0  0
 45 46  1  0  0  0  0
 47 45  2  0  0  0  0
 48 47  1  0  0  0  0
 49 51  1  0  0  0  0
 49 50  1  0  0  0  0
 52 55  1  0  0  0  0
 52 49  1  0  0  0  0
 53 52  1  0  0  0  0
 54 52  1  0  0  0  0
 55  3  1  0  0  0  0
 55 56  1  0  0  0  0
 57 55  1  0  0  0  0
 58 61  1  0  0  0  0
 58 60  1  0  0  0  0
 59 58  1  0  0  0  0
M  END
