1,2
 OpenBabel05122313063D

 68 72  0  0  0  0  0  0  0  0999 V2000
   -0.8552    0.9438    0.5414 P   0  0  0  0  0  0  0  0  0  0  0  0
    1.8512   -0.5358    0.1388 P   0  0  0  0  0  0  0  0  0  0  0  0
    0.3340    0.9685    1.9526 C   0  0  0  0  0  0  0  0  0  0  0  0
    0.0435    1.5499    3.2009 C   0  0  0  0  0  0  0  0  0  0  0  0
   -0.9429    2.0122    3.3645 H   0  0  0  0  0  0  0  0  0  0  0  0
    0.9948    1.5220    4.2327 C   0  0  0  0  0  0  0  0  0  0  0  0
    0.7564    1.9711    5.2089 H   0  0  0  0  0  0  0  0  0  0  0  0
    2.2452    0.9179    4.0213 C   0  0  0  0  0  0  0  0  0  0  0  0
    2.9913    0.8957    4.8300 H   0  0  0  0  0  0  0  0  0  0  0  0
    2.5426    0.3286    2.7827 C   0  0  0  0  0  0  0  0  0  0  0  0
    3.5138   -0.1643    2.6210 H   0  0  0  0  0  0  0  0  0  0  0  0
    1.5930    0.3416    1.7432 C   0  0  0  0  0  0  0  0  0  0  0  0
   -0.4489    2.4961   -0.3647 C   0  0  0  0  0  0  0  0  0  0  0  0
   -0.5118    2.5219   -1.7852 C   0  0  0  0  0  0  0  0  0  0  0  0
   -0.1242    3.7108   -2.4373 C   0  0  0  0  0  0  0  0  0  0  0  0
   -0.1526    3.7393   -3.5376 H   0  0  0  0  0  0  0  0  0  0  0  0
    0.2974    4.8415   -1.7256 C   0  0  0  0  0  0  0  0  0  0  0  0
    0.5951    5.7507   -2.2700 H   0  0  0  0  0  0  0  0  0  0  0  0
    0.3452    4.8091   -0.3242 C   0  0  0  0  0  0  0  0  0  0  0  0
    0.6747    5.6907    0.2461 H   0  0  0  0  0  0  0  0  0  0  0  0
   -0.0208    3.6359    0.3473 C   0  0  0  0  0  0  0  0  0  0  0  0
    0.0357    3.5987    1.4456 H   0  0  0  0  0  0  0  0  0  0  0  0
   -0.9701    1.3397   -2.5948 C   0  0  0  0  0  0  0  0  0  0  0  0
   -0.8299    1.5150   -3.6780 H   0  0  0  0  0  0  0  0  0  0  0  0
   -2.0407    1.1045   -2.4205 H   0  0  0  0  0  0  0  0  0  0  0  0
   -0.4110    0.4155   -2.3209 H   0  0  0  0  0  0  0  0  0  0  0  0
   -2.5052    1.2162    1.2878 C   0  0  0  0  0  0  0  0  0  0  0  0
   -3.1041    0.1383    2.0045 C   0  0  0  0  0  0  0  0  0  0  0  0
   -4.4279    0.3040    2.4545 C   0  0  0  0  0  0  0  0  0  0  0  0
   -4.9051   -0.5249    3.0002 H   0  0  0  0  0  0  0  0  0  0  0  0
   -5.1496    1.4811    2.2076 C   0  0  0  0  0  0  0  0  0  0  0  0
   -6.1857    1.5729    2.5671 H   0  0  0  0  0  0  0  0  0  0  0  0
   -4.5529    2.5319    1.4954 C   0  0  0  0  0  0  0  0  0  0  0  0
   -5.1118    3.4580    1.2927 H   0  0  0  0  0  0  0  0  0  0  0  0
   -3.2356    2.3960    1.0354 C   0  0  0  0  0  0  0  0  0  0  0  0
   -2.7659    3.2124    0.4669 H   0  0  0  0  0  0  0  0  0  0  0  0
   -2.3657   -1.1473    2.2604 C   0  0  0  0  0  0  0  0  0  0  0  0
   -3.0339   -1.9155    2.6924 H   0  0  0  0  0  0  0  0  0  0  0  0
   -1.5113   -0.9991    2.9542 H   0  0  0  0  0  0  0  0  0  0  0  0
   -1.9376   -1.5585    1.3155 H   0  0  0  0  0  0  0  0  0  0  0  0
    2.5941    0.7004   -0.9934 C   0  0  0  0  0  0  0  0  0  0  0  0
    2.7121    0.3684   -2.3743 C   0  0  0  0  0  0  0  0  0  0  0  0
    3.1593    1.3726   -3.2553 C   0  0  0  0  0  0  0  0  0  0  0  0
    3.2524    1.1299   -4.3257 H   0  0  0  0  0  0  0  0  0  0  0  0
    3.4761    2.6623   -2.8044 C   0  0  0  0  0  0  0  0  0  0  0  0
    3.8117    3.4260   -3.5224 H   0  0  0  0  0  0  0  0  0  0  0  0
    3.3591    2.9759   -1.4429 C   0  0  0  0  0  0  0  0  0  0  0  0
    3.5967    3.9862   -1.0787 H   0  0  0  0  0  0  0  0  0  0  0  0
    2.9209    1.9957   -0.5433 C   0  0  0  0  0  0  0  0  0  0  0  0
    2.8148    2.2417    0.5234 H   0  0  0  0  0  0  0  0  0  0  0  0
    2.3803   -1.0073   -2.8880 C   0  0  0  0  0  0  0  0  0  0  0  0
    2.3845   -1.0379   -3.9940 H   0  0  0  0  0  0  0  0  0  0  0  0
    1.3809   -1.3474   -2.5322 H   0  0  0  0  0  0  0  0  0  0  0  0
    3.1069   -1.7625   -2.5207 H   0  0  0  0  0  0  0  0  0  0  0  0
    3.1761   -1.7479    0.5075 C   0  0  0  0  0  0  0  0  0  0  0  0
    2.8316   -2.9403    1.2064 C   0  0  0  0  0  0  0  0  0  0  0  0
    3.8532   -3.8826    1.4368 C   0  0  0  0  0  0  0  0  0  0  0  0
    3.6019   -4.8108    1.9741 H   0  0  0  0  0  0  0  0  0  0  0  0
    5.1672   -3.6703    0.9940 C   0  0  0  0  0  0  0  0  0  0  0  0
    5.9388   -4.4313    1.1865 H   0  0  0  0  0  0  0  0  0  0  0  0
    5.4934   -2.4928    0.3051 C   0  0  0  0  0  0  0  0  0  0  0  0
    6.5217   -2.3164   -0.0449 H   0  0  0  0  0  0  0  0  0  0  0  0
    4.4975   -1.5358    0.0645 C   0  0  0  0  0  0  0  0  0  0  0  0
    4.7424   -0.6078   -0.4751 H   0  0  0  0  0  0  0  0  0  0  0  0
    1.4294   -3.1965    1.6920 C   0  0  0  0  0  0  0  0  0  0  0  0
    1.3388   -4.2031    2.1424 H   0  0  0  0  0  0  0  0  0  0  0  0
    0.6894   -3.1166    0.8633 H   0  0  0  0  0  0  0  0  0  0  0  0
    1.1219   -2.4520    2.4568 H   0  0  0  0  0  0  0  0  0  0  0  0
  1 27  1  0  0  0  0
  1  3  1  0  0  0  0
  2 55  1  0  0  0  0
  2 12  1  0  0  0  0
  3  4  1  0  0  0  0
  4  5  1  0  0  0  0
  4  6  2  0  0  0  0
  6  7  1  0  0  0  0
  8  6  1  0  0  0  0
  8  9  1  0  0  0  0
 10  8  2  0  0  0  0
 11 10  1  0  0  0  0
 12  3  2  0  0  0  0
 12 10  1  0  0  0  0
 13 21  1  0  0  0  0
 13  1  1  0  0  0  0
 14 13  2  0  0  0  0
 15 14  1  0  0  0  0
 15 17  2  0  0  0  0
 16 15  1  0  0  0  0
 17 19  1  0  0  0  0
 18 17  1  0  0  0  0
 19 20  1  0  0  0  0
 19 21  2  0  0  0  0
 21 22  1  0  0  0  0
 23 25  1  0  0  0  0
 23 26  1  0  0  0  0
 23 14  1  0  0  0  0
 24 23  1  0  0  0  0
 27 28  1  0  0  0  0
 28 37  1  0  0  0  0
 28 29  2  0  0  0  0
 29 30  1  0  0  0  0
 31 29  1  0  0  0  0
 31 32  1  0  0  0  0
 33 31  2  0  0  0  0
 34 33  1  0  0  0  0
 35 27  2  0  0  0  0
 35 33  1  0  0  0  0
 36 35  1  0  0  0  0
 37 38  1  0  0  0  0
 37 39  1  0  0  0  0
 40 37  1  0  0  0  0
 41 49  1  0  0  0  0
 41  2  1  0  0  0  0
 42 41  2  0  0  0  0
 43 45  2  0  0  0  0
 43 42  1  0  0  0  0
 44 43  1  0  0  0  0
 45 47  1  0  0  0  0
 46 45  1  0  0  0  0
 47 48  1  0  0  0  0
 47 49  2  0  0  0  0
 49 50  1  0  0  0  0
 51 53  1  0  0  0  0
 51 54  1  0  0  0  0
 51 42  1  0  0  0  0
 52 51  1  0  0  0  0
 55 56  1  0  0  0  0
 56 57  2  0  0  0  0
 56 65  1  0  0  0  0
 57 58  1  0  0  0  0
 59 60  1  0  0  0  0
 59 57  1  0  0  0  0
 61 59  2  0  0  0  0
 62 61  1  0  0  0  0
 63 61  1  0  0  0  0
 63 55  2  0  0  0  0
 64 63  1  0  0  0  0
 65 66  1  0  0  0  0
 65 68  1  0  0  0  0
 67 65  1  0  0  0  0
M  END
