1,28
 OpenBabel05122313063D

 58 61  0  0  0  0  0  0  0  0999 V2000
    1.6581   -0.0054    0.3143 P   0  0  0  0  0  0  0  0  0  0  0  0
    2.7164    1.4869    0.2576 C   0  0  0  0  0  0  0  0  0  0  0  0
    2.1123    2.6860   -0.1751 C   0  0  0  0  0  0  0  0  0  0  0  0
    1.0710    2.6703   -0.5339 H   0  0  0  0  0  0  0  0  0  0  0  0
    2.8449    3.8799   -0.1750 C   0  0  0  0  0  0  0  0  0  0  0  0
    2.3699    4.8101   -0.5209 H   0  0  0  0  0  0  0  0  0  0  0  0
    4.1851    3.8844    0.2454 C   0  0  0  0  0  0  0  0  0  0  0  0
    4.7622    4.8215    0.2362 H   0  0  0  0  0  0  0  0  0  0  0  0
    4.7922    2.6912    0.6666 C   0  0  0  0  0  0  0  0  0  0  0  0
    5.8450    2.6893    0.9869 H   0  0  0  0  0  0  0  0  0  0  0  0
    4.0619    1.4932    0.6766 C   0  0  0  0  0  0  0  0  0  0  0  0
    4.5505    0.5611    0.9957 H   0  0  0  0  0  0  0  0  0  0  0  0
    2.7064   -1.4893    0.0916 C   0  0  0  0  0  0  0  0  0  0  0  0
    3.8015   -1.4879   -0.7960 C   0  0  0  0  0  0  0  0  0  0  0  0
    4.0675   -0.5686   -1.3349 H   0  0  0  0  0  0  0  0  0  0  0  0
    4.5177   -2.6740   -1.0142 C   0  0  0  0  0  0  0  0  0  0  0  0
    5.3730   -2.6696   -1.7064 H   0  0  0  0  0  0  0  0  0  0  0  0
    4.1397   -3.8620   -0.3691 C   0  0  0  0  0  0  0  0  0  0  0  0
    4.7030   -4.7901   -0.5495 H   0  0  0  0  0  0  0  0  0  0  0  0
    3.0364   -3.8675    0.4999 C   0  0  0  0  0  0  0  0  0  0  0  0
    2.7301   -4.7980    1.0012 H   0  0  0  0  0  0  0  0  0  0  0  0
    2.3185   -2.6861    0.7293 C   0  0  0  0  0  0  0  0  0  0  0  0
    1.4534   -2.6865    1.4102 H   0  0  0  0  0  0  0  0  0  0  0  0
    1.2267   -0.1495    2.0044 N   0  0  0  0  0  0  0  0  0  0  0  0
    0.0000    0.0003    2.6768 C   0  0  0  0  0  0  0  0  0  0  0  0
    0.0000    0.0007    3.9060 O   0  0  0  0  0  0  0  0  0  0  0  0
   -1.2267    0.1494    2.0043 N   0  0  0  0  0  0  0  0  0  0  0  0
   -1.6581    0.0053    0.3143 P   0  0  0  0  0  0  0  0  0  0  0  0
   -2.7060    1.4895    0.0915 C   0  0  0  0  0  0  0  0  0  0  0  0
   -2.3179    2.6861    0.7293 C   0  0  0  0  0  0  0  0  0  0  0  0
   -1.4530    2.6863    1.4104 H   0  0  0  0  0  0  0  0  0  0  0  0
   -3.0355    3.8678    0.4997 C   0  0  0  0  0  0  0  0  0  0  0  0
   -2.7291    4.7982    1.0011 H   0  0  0  0  0  0  0  0  0  0  0  0
   -4.1386    3.8625   -0.3696 C   0  0  0  0  0  0  0  0  0  0  0  0
   -4.7015    4.7908   -0.5501 H   0  0  0  0  0  0  0  0  0  0  0  0
   -4.5166    2.6747   -1.0149 C   0  0  0  0  0  0  0  0  0  0  0  0
   -5.3718    2.6704   -1.7073 H   0  0  0  0  0  0  0  0  0  0  0  0
   -3.8008    1.4884   -0.7965 C   0  0  0  0  0  0  0  0  0  0  0  0
   -4.0669    0.5691   -1.3356 H   0  0  0  0  0  0  0  0  0  0  0  0
   -2.7169   -1.4867    0.2579 C   0  0  0  0  0  0  0  0  0  0  0  0
   -2.1130   -2.6862   -0.1741 C   0  0  0  0  0  0  0  0  0  0  0  0
   -1.0715   -2.6710   -0.5325 H   0  0  0  0  0  0  0  0  0  0  0  0
   -2.8460   -3.8799   -0.1738 C   0  0  0  0  0  0  0  0  0  0  0  0
   -2.3711   -4.8104   -0.5191 H   0  0  0  0  0  0  0  0  0  0  0  0
   -4.1863   -3.8838    0.2461 C   0  0  0  0  0  0  0  0  0  0  0  0
   -4.7637   -4.8207    0.2370 H   0  0  0  0  0  0  0  0  0  0  0  0
   -4.7932   -2.6902    0.6665 C   0  0  0  0  0  0  0  0  0  0  0  0
   -5.8462   -2.6879    0.9863 H   0  0  0  0  0  0  0  0  0  0  0  0
   -4.0626   -1.4925    0.6763 C   0  0  0  0  0  0  0  0  0  0  0  0
   -4.5510   -0.5600    0.9948 H   0  0  0  0  0  0  0  0  0  0  0  0
    2.3677   -0.2315    2.9366 C   0  0  0  0  0  0  0  0  0  0  0  0
    3.2455   -0.6348    2.4025 H   0  0  0  0  0  0  0  0  0  0  0  0
    2.1126   -0.9065    3.7724 H   0  0  0  0  0  0  0  0  0  0  0  0
    2.6179    0.7641    3.3560 H   0  0  0  0  0  0  0  0  0  0  0  0
   -2.3676    0.2317    2.9366 C   0  0  0  0  0  0  0  0  0  0  0  0
   -3.2456    0.6342    2.4023 H   0  0  0  0  0  0  0  0  0  0  0  0
   -2.1127    0.9075    3.7718 H   0  0  0  0  0  0  0  0  0  0  0  0
   -2.6173   -0.7637    3.3568 H   0  0  0  0  0  0  0  0  0  0  0  0
  1 24  1  0  0  0  0
  2  1  1  0  0  0  0
  2 11  1  0  0  0  0
  3  5  1  0  0  0  0
  3  2  2  0  0  0  0
  4  3  1  0  0  0  0
  5  7  2  0  0  0  0
  6  5  1  0  0  0  0
  7  9  1  0  0  0  0
  8  7  1  0  0  0  0
  9 11  2  0  0  0  0
  9 10  1  0  0  0  0
 11 12  1  0  0  0  0
 13  1  1  0  0  0  0
 13 22  1  0  0  0  0
 14 13  2  0  0  0  0
 15 14  1  0  0  0  0
 16 14  1  0  0  0  0
 16 18  2  0  0  0  0
 17 16  1  0  0  0  0
 18 20  1  0  0  0  0
 19 18  1  0  0  0  0
 20 22  2  0  0  0  0
 20 21  1  0  0  0  0
 22 23  1  0  0  0  0
 24 25  1  0  0  0  0
 24 51  1  0  0  0  0
 25 26  2  0  0  0  0
 27 25  1  0  0  0  0
 27 55  1  0  0  0  0
 28 27  1  0  0  0  0
 29 28  1  0  0  0  0
 29 30  1  0  0  0  0
 30 31  1  0  0  0  0
 32 30  2  0  0  0  0
 32 33  1  0  0  0  0
 34 32  1  0  0  0  0
 35 34  1  0  0  0  0
 36 38  1  0  0  0  0
 36 34  2  0  0  0  0
 37 36  1  0  0  0  0
 38 29  2  0  0  0  0
 39 38  1  0  0  0  0
 40 28  1  0  0  0  0
 40 49  1  0  0  0  0
 41 43  1  0  0  0  0
 41 40  2  0  0  0  0
 42 41  1  0  0  0  0
 43 45  2  0  0  0  0
 44 43  1  0  0  0  0
 45 47  1  0  0  0  0
 46 45  1  0  0  0  0
 47 49  2  0  0  0  0
 47 48  1  0  0  0  0
 49 50  1  0  0  0  0
 51 54  1  0  0  0  0
 51 53  1  0  0  0  0
 52 51  1  0  0  0  0
 55 58  1  0  0  0  0
 55 57  1  0  0  0  0
 56 55  1  0  0  0  0
M  END
