1,2
 OpenBabel05122313063D

 55 59  0  0  0  0  0  0  0  0999 V2000
   -1.6125    0.2811   -0.3354 P   0  0  0  0  0  0  0  0  0  0  0  0
    1.6125    0.2811   -0.3354 P   0  0  0  0  0  0  0  0  0  0  0  0
   -0.0005   -2.3781   -0.3830 N   0  0  0  0  0  0  0  0  0  0  0  0
   -2.7215   -1.0927    0.1462 C   0  0  0  0  0  0  0  0  0  0  0  0
   -3.8995   -0.7685    0.8470 C   0  0  0  0  0  0  0  0  0  0  0  0
   -4.8075   -1.7696    1.2138 C   0  0  0  0  0  0  0  0  0  0  0  0
   -4.5457   -3.1056    0.8761 C   0  0  0  0  0  0  0  0  0  0  0  0
   -3.3701   -3.4339    0.1899 C   0  0  0  0  0  0  0  0  0  0  0  0
   -2.4296   -2.4440   -0.1738 C   0  0  0  0  0  0  0  0  0  0  0  0
   -1.1666   -2.8897   -0.8318 C   0  0  0  0  0  0  0  0  0  0  0  0
   -1.2060   -3.8822   -1.8382 C   0  0  0  0  0  0  0  0  0  0  0  0
   -0.0005   -4.3631   -2.3604 C   0  0  0  0  0  0  0  0  0  0  0  0
    1.2049   -3.8824   -1.8382 C   0  0  0  0  0  0  0  0  0  0  0  0
    1.1656   -2.8899   -0.8317 C   0  0  0  0  0  0  0  0  0  0  0  0
    2.4286   -2.4445   -0.1736 C   0  0  0  0  0  0  0  0  0  0  0  0
    3.3688   -3.4346    0.1904 C   0  0  0  0  0  0  0  0  0  0  0  0
    4.5444   -3.1067    0.8767 C   0  0  0  0  0  0  0  0  0  0  0  0
    4.8066   -1.7707    1.2142 C   0  0  0  0  0  0  0  0  0  0  0  0
    3.8990   -0.7693    0.8472 C   0  0  0  0  0  0  0  0  0  0  0  0
    2.7209   -1.0932    0.1463 C   0  0  0  0  0  0  0  0  0  0  0  0
   -2.7236    1.6187   -0.9221 C   0  0  0  0  0  0  0  0  0  0  0  0
   -3.4008    1.4525   -2.1492 C   0  0  0  0  0  0  0  0  0  0  0  0
   -4.2406    2.4666   -2.6292 C   0  0  0  0  0  0  0  0  0  0  0  0
   -4.4077    3.6490   -1.8885 C   0  0  0  0  0  0  0  0  0  0  0  0
   -3.7351    3.8137   -0.6681 C   0  0  0  0  0  0  0  0  0  0  0  0
   -2.8906    2.8039   -0.1800 C   0  0  0  0  0  0  0  0  0  0  0  0
    2.7243    1.6182   -0.9218 C   0  0  0  0  0  0  0  0  0  0  0  0
    3.4043    1.4504   -2.1472 C   0  0  0  0  0  0  0  0  0  0  0  0
    4.2445    2.4642   -2.6270 C   0  0  0  0  0  0  0  0  0  0  0  0
    4.4093    3.6479   -1.8878 C   0  0  0  0  0  0  0  0  0  0  0  0
    3.7340    3.8142   -0.6691 C   0  0  0  0  0  0  0  0  0  0  0  0
    2.8891    2.8046   -0.1811 C   0  0  0  0  0  0  0  0  0  0  0  0
   -1.1364   -0.2046   -1.5952 H   0  0  0  0  0  0  0  0  0  0  0  0
    1.1363   -0.2045   -1.5953 H   0  0  0  0  0  0  0  0  0  0  0  0
   -4.0941    0.2805    1.1110 H   0  0  0  0  0  0  0  0  0  0  0  0
   -5.7200   -1.5027    1.7671 H   0  0  0  0  0  0  0  0  0  0  0  0
   -5.2512   -3.9001    1.1621 H   0  0  0  0  0  0  0  0  0  0  0  0
   -3.1482   -4.4876   -0.0369 H   0  0  0  0  0  0  0  0  0  0  0  0
   -2.1722   -4.2502   -2.2112 H   0  0  0  0  0  0  0  0  0  0  0  0
   -0.0006   -5.1137   -3.1653 H   0  0  0  0  0  0  0  0  0  0  0  0
    2.1711   -4.2505   -2.2110 H   0  0  0  0  0  0  0  0  0  0  0  0
    3.1466   -4.4882   -0.0364 H   0  0  0  0  0  0  0  0  0  0  0  0
    5.2496   -3.9014    1.1629 H   0  0  0  0  0  0  0  0  0  0  0  0
    5.7192   -1.5040    1.7677 H   0  0  0  0  0  0  0  0  0  0  0  0
    4.0939    0.2797    1.1111 H   0  0  0  0  0  0  0  0  0  0  0  0
   -3.2735    0.5253   -2.7305 H   0  0  0  0  0  0  0  0  0  0  0  0
   -4.7660    2.3342   -3.5873 H   0  0  0  0  0  0  0  0  0  0  0  0
   -5.0662    4.4456   -2.2675 H   0  0  0  0  0  0  0  0  0  0  0  0
   -3.8661    4.7378   -0.0850 H   0  0  0  0  0  0  0  0  0  0  0  0
   -2.3782    2.9059    0.7902 H   0  0  0  0  0  0  0  0  0  0  0  0
    3.2787    0.5222   -2.7272 H   0  0  0  0  0  0  0  0  0  0  0  0
    4.7720    2.3306   -3.5837 H   0  0  0  0  0  0  0  0  0  0  0  0
    5.0682    4.4442   -2.2667 H   0  0  0  0  0  0  0  0  0  0  0  0
    3.8633    4.7392   -0.0872 H   0  0  0  0  0  0  0  0  0  0  0  0
    2.3748    2.9077    0.7879 H   0  0  0  0  0  0  0  0  0  0  0  0
  1  4  1  0  0  0  0
  2 20  1  0  0  0  0
  4  5  1  0  0  0  0
  5 35  1  0  0  0  0
  5  6  2  0  0  0  0
  6 36  1  0  0  0  0
  7 37  1  0  0  0  0
  7  6  1  0  0  0  0
  8  7  2  0  0  0  0
  9  4  2  0  0  0  0
  9  8  1  0  0  0  0
 10  3  2  0  0  0  0
 10  9  1  0  0  0  0
 11 10  1  0  0  0  0
 12 11  2  0  0  0  0
 12 13  1  0  0  0  0
 13 14  2  0  0  0  0
 14  3  1  0  0  0  0
 14 15  1  0  0  0  0
 15 20  2  0  0  0  0
 15 16  1  0  0  0  0
 16 17  2  0  0  0  0
 17 43  1  0  0  0  0
 17 18  1  0  0  0  0
 18 44  1  0  0  0  0
 19 45  1  0  0  0  0
 19 18  2  0  0  0  0
 20 19  1  0  0  0  0
 21  1  1  0  0  0  0
 21 26  1  0  0  0  0
 22 21  2  0  0  0  0
 23 22  1  0  0  0  0
 23 24  2  0  0  0  0
 24 25  1  0  0  0  0
 25 26  2  0  0  0  0
 25 49  1  0  0  0  0
 26 50  1  0  0  0  0
 27  2  1  0  0  0  0
 27 32  1  0  0  0  0
 28 27  2  0  0  0  0
 29 28  1  0  0  0  0
 29 30  2  0  0  0  0
 30 31  1  0  0  0  0
 31 32  2  0  0  0  0
 31 54  1  0  0  0  0
 32 55  1  0  0  0  0
 33  1  1  0  0  0  0
 34  2  1  0  0  0  0
 38  8  1  0  0  0  0
 39 11  1  0  0  0  0
 40 12  1  0  0  0  0
 41 13  1  0  0  0  0
 42 16  1  0  0  0  0
 46 22  1  0  0  0  0
 47 23  1  0  0  0  0
 48 24  1  0  0  0  0
 51 28  1  0  0  0  0
 52 29  1  0  0  0  0
 53 30  1  0  0  0  0
M  END
