1,2
 OpenBabel05122313063D

 21 20  0  0  0  0  0  0  0  0999 V2000
    2.6292    1.3861    0.4187 P   0  0  0  0  0  0  0  0  0  0  0  0
    2.7107   -1.3490    0.3482 P   0  0  0  0  0  0  0  0  0  0  0  0
    3.9285    0.0625    0.2905 C   0  0  0  0  0  0  0  0  0  0  0  0
    4.7108    0.0651    1.0766 H   0  0  0  0  0  0  0  0  0  0  0  0
    4.3912    0.1007   -0.7139 H   0  0  0  0  0  0  0  0  0  0  0  0
    2.9714    2.1383    2.0743 C   0  0  0  0  0  0  0  0  0  0  0  0
    3.9742    2.6099    2.0546 H   0  0  0  0  0  0  0  0  0  0  0  0
    2.9558    1.3719    2.8687 H   0  0  0  0  0  0  0  0  0  0  0  0
    2.2203    2.9148    2.3169 H   0  0  0  0  0  0  0  0  0  0  0  0
    3.2135    2.7519   -0.6770 C   0  0  0  0  0  0  0  0  0  0  0  0
    4.2662    2.9926   -0.4290 H   0  0  0  0  0  0  0  0  0  0  0  0
    2.6012    3.6632   -0.5312 H   0  0  0  0  0  0  0  0  0  0  0  0
    3.1436    2.4131   -1.7269 H   0  0  0  0  0  0  0  0  0  0  0  0
    3.0882   -2.0920    2.0038 C   0  0  0  0  0  0  0  0  0  0  0  0
    4.1757   -2.2939    2.0745 H   0  0  0  0  0  0  0  0  0  0  0  0
    2.5512   -3.0514    2.1345 H   0  0  0  0  0  0  0  0  0  0  0  0
    2.8000   -1.4075    2.8240 H   0  0  0  0  0  0  0  0  0  0  0  0
    3.4268   -2.6420   -0.7551 C   0  0  0  0  0  0  0  0  0  0  0  0
    4.5102   -2.7428   -0.5452 H   0  0  0  0  0  0  0  0  0  0  0  0
    3.2783   -2.3276   -1.8049 H   0  0  0  0  0  0  0  0  0  0  0  0
    2.9362   -3.6171   -0.5748 H   0  0  0  0  0  0  0  0  0  0  0  0
  1  6  1  0  0  0  0
  2 14  1  0  0  0  0
  3  2  1  0  0  0  0
  3  1  1  0  0  0  0
  3  4  1  0  0  0  0
  5  3  1  0  0  0  0
  6  9  1  0  0  0  0
  6  8  1  0  0  0  0
  7  6  1  0  0  0  0
 10 12  1  0  0  0  0
 10 11  1  0  0  0  0
 10  1  1  0  0  0  0
 13 10  1  0  0  0  0
 14 15  1  0  0  0  0
 14 16  1  0  0  0  0
 14 17  1  0  0  0  0
 18 21  1  0  0  0  0
 18 19  1  0  0  0  0
 18  2  1  0  0  0  0
 20 18  1  0  0  0  0
M  END
