1,3
 OpenBabel05122313063D

 48 50  0  0  1  0  0  0  0  0999 V2000
   -1.1615    0.1315   -0.5510 P   0  0  0  0  0  0  0  0  0  0  0  0
   -2.0173    1.6888   -0.1007 C   0  0  0  0  0  0  0  0  0  0  0  0
    1.9314    0.3417   -0.8381 P   0  0  1  0  0  0  0  0  0  0  0  0
   -2.4042    1.8391    1.2495 C   0  0  0  0  0  0  0  0  0  0  0  0
   -2.1701    1.0347    1.9689 H   0  0  0  0  0  0  0  0  0  0  0  0
   -3.0657    3.0053    1.6565 C   0  0  0  0  0  0  0  0  0  0  0  0
   -3.3664    3.1175    2.7092 H   0  0  0  0  0  0  0  0  0  0  0  0
   -3.3344    4.0299    0.7331 C   0  0  0  0  0  0  0  0  0  0  0  0
   -3.8476    4.9471    1.0599 H   0  0  0  0  0  0  0  0  0  0  0  0
   -2.9420    3.8862   -0.6062 C   0  0  0  0  0  0  0  0  0  0  0  0
   -3.1464    4.6876   -1.3324 H   0  0  0  0  0  0  0  0  0  0  0  0
   -2.2863    2.7174   -1.0261 C   0  0  0  0  0  0  0  0  0  0  0  0
   -1.9891    2.6189   -2.0809 H   0  0  0  0  0  0  0  0  0  0  0  0
   -2.4793   -1.1126   -0.7921 C   0  0  0  0  0  0  0  0  0  0  0  0
   -3.7446   -0.7396   -1.2875 C   0  0  0  0  0  0  0  0  0  0  0  0
   -3.9739    0.3210   -1.4748 H   0  0  0  0  0  0  0  0  0  0  0  0
   -4.7172   -1.7224   -1.5237 C   0  0  0  0  0  0  0  0  0  0  0  0
   -5.7071   -1.4308   -1.9063 H   0  0  0  0  0  0  0  0  0  0  0  0
   -4.4314   -3.0722   -1.2617 C   0  0  0  0  0  0  0  0  0  0  0  0
   -5.1990   -3.8405   -1.4406 H   0  0  0  0  0  0  0  0  0  0  0  0
   -3.1733   -3.4413   -0.7586 C   0  0  0  0  0  0  0  0  0  0  0  0
   -2.9547   -4.4965   -0.5360 H   0  0  0  0  0  0  0  0  0  0  0  0
   -2.1956   -2.4654   -0.5182 C   0  0  0  0  0  0  0  0  0  0  0  0
   -1.2178   -2.7364   -0.0916 H   0  0  0  0  0  0  0  0  0  0  0  0
   -0.4508    0.3851   -2.2594 C   0  0  0  0  0  0  0  0  0  0  0  0
   -0.3066   -0.6416   -2.6560 H   0  0  0  0  0  0  0  0  0  0  0  0
   -1.1825    0.8869   -2.9249 H   0  0  0  0  0  0  0  0  0  0  0  0
    0.8796    1.1364   -2.1616 C   0  0  0  0  0  0  0  0  0  0  0  0
    0.7087    2.1873   -1.8473 H   0  0  0  0  0  0  0  0  0  0  0  0
    1.4208    1.1583   -3.1299 H   0  0  0  0  0  0  0  0  0  0  0  0
    3.0249   -0.9308   -1.6854 C   0  0  1  0  0  0  0  0  0  0  0  0
    2.9082   -0.7280   -2.7742 H   0  0  0  0  0  0  0  0  0  0  0  0
    4.4470   -0.5164   -1.2513 C   0  0  0  0  0  0  0  0  0  0  0  0
    4.6265   -0.9121   -0.2290 H   0  0  0  0  0  0  0  0  0  0  0  0
    5.2092   -0.9601   -1.9249 H   0  0  0  0  0  0  0  0  0  0  0  0
    4.5116    1.0162   -1.2205 C   0  0  0  0  0  0  0  0  0  0  0  0
    4.4450    1.4272   -2.2536 H   0  0  0  0  0  0  0  0  0  0  0  0
    5.4669    1.3830   -0.7904 H   0  0  0  0  0  0  0  0  0  0  0  0
    3.3160    1.5080   -0.3825 C   0  0  1  0  0  0  0  0  0  0  0  0
    3.4891    1.2202    0.6783 H   0  0  0  0  0  0  0  0  0  0  0  0
    2.6553   -2.3794   -1.3729 C   0  0  0  0  0  0  0  0  0  0  0  0
    3.3471   -3.0748   -1.8915 H   0  0  0  0  0  0  0  0  0  0  0  0
    1.6214   -2.6191   -1.6930 H   0  0  0  0  0  0  0  0  0  0  0  0
    2.7170   -2.5589   -0.2808 H   0  0  0  0  0  0  0  0  0  0  0  0
    2.9862    2.9933   -0.4716 C   0  0  0  0  0  0  0  0  0  0  0  0
    3.8314    3.5961   -0.0810 H   0  0  0  0  0  0  0  0  0  0  0  0
    2.0918    3.2478    0.1326 H   0  0  0  0  0  0  0  0  0  0  0  0
    2.8057    3.3187   -1.5173 H   0  0  0  0  0  0  0  0  0  0  0  0
  1  2  1  0  0  0  0
  2  4  1  0  0  0  0
  3 28  1  6  0  0  0
  3 39  1  0  0  0  0
  4  6  2  0  0  0  0
  4  5  1  0  0  0  0
  6  7  1  0  0  0  0
  8  9  1  0  0  0  0
  8  6  1  0  0  0  0
 10  8  2  0  0  0  0
 11 10  1  0  0  0  0
 12 10  1  0  0  0  0
 12  2  2  0  0  0  0
 13 12  1  0  0  0  0
 14  1  1  0  0  0  0
 14 23  1  0  0  0  0
 15 14  2  0  0  0  0
 16 15  1  0  0  0  0
 17 15  1  0  0  0  0
 17 19  2  0  0  0  0
 18 17  1  0  0  0  0
 19 21  1  0  0  0  0
 20 19  1  0  0  0  0
 21 22  1  0  0  0  0
 21 23  2  0  0  0  0
 23 24  1  0  0  0  0
 25 28  1  0  0  0  0
 25  1  1  0  0  0  0
 26 25  1  0  0  0  0
 27 25  1  0  0  0  0
 28 29  1  0  0  0  0
 30 28  1  0  0  0  0
 31 32  1  6  0  0  0
 31 41  1  0  0  0  0
 31 33  1  0  0  0  0
 31  3  1  0  0  0  0
 33 36  1  0  0  0  0
 33 34  1  0  0  0  0
 35 33  1  0  0  0  0
 36 38  1  0  0  0  0
 36 39  1  0  0  0  0
 37 36  1  0  0  0  0
 39 40  1  1  0  0  0
 41 44  1  0  0  0  0
 42 41  1  0  0  0  0
 43 41  1  0  0  0  0
 45 39  1  0  0  0  0
 45 46  1  0  0  0  0
 45 47  1  0  0  0  0
 48 45  1  0  0  0  0
M  END
