1,2
 OpenBabel05122313063D

 82 88  0  0  0  0  0  0  0  0999 V2000
    0.9722    1.9096    0.5767 P   0  0  0  0  0  0  0  0  0  0  0  0
    2.1438   -1.4033    0.2822 P   0  0  0  0  0  0  0  0  0  0  0  0
    1.8390    0.1461    2.5866 N   0  0  0  0  0  0  0  0  0  0  0  0
    1.9169    1.5163    2.1607 C   0  0  0  0  0  0  0  0  0  0  0  0
    2.9687    1.7859    1.9131 H   0  0  0  0  0  0  0  0  0  0  0  0
    1.5928    2.2053    2.9672 H   0  0  0  0  0  0  0  0  0  0  0  0
    2.7469   -0.7648    1.9490 C   0  0  0  0  0  0  0  0  0  0  0  0
    2.9920   -1.6197    2.6113 H   0  0  0  0  0  0  0  0  0  0  0  0
    3.7100   -0.2571    1.7133 H   0  0  0  0  0  0  0  0  0  0  0  0
   -0.7432    2.3242    1.0992 C   0  0  0  0  0  0  0  0  0  0  0  0
   -1.7483    2.4260    0.1141 C   0  0  0  0  0  0  0  0  0  0  0  0
   -1.4759    2.2893   -0.9444 H   0  0  0  0  0  0  0  0  0  0  0  0
   -3.0762    2.6792    0.4864 C   0  0  0  0  0  0  0  0  0  0  0  0
   -3.8532    2.7369   -0.2905 H   0  0  0  0  0  0  0  0  0  0  0  0
   -3.4190    2.8195    1.8384 C   0  0  0  0  0  0  0  0  0  0  0  0
   -4.4673    2.9849    2.1287 H   0  0  0  0  0  0  0  0  0  0  0  0
   -2.4221    2.7329    2.8228 C   0  0  0  0  0  0  0  0  0  0  0  0
   -2.6801    2.8308    3.8875 H   0  0  0  0  0  0  0  0  0  0  0  0
   -1.0901    2.4965    2.4565 C   0  0  0  0  0  0  0  0  0  0  0  0
   -0.3372    2.4226    3.2528 H   0  0  0  0  0  0  0  0  0  0  0  0
    1.7462    3.4925    0.0804 C   0  0  0  0  0  0  0  0  0  0  0  0
    1.2929    4.7152    0.6130 C   0  0  0  0  0  0  0  0  0  0  0  0
    0.4069    4.7363    1.2660 H   0  0  0  0  0  0  0  0  0  0  0  0
    1.9614    5.9065    0.2916 C   0  0  0  0  0  0  0  0  0  0  0  0
    1.6001    6.8617    0.7017 H   0  0  0  0  0  0  0  0  0  0  0  0
    3.0793    5.8813   -0.5570 C   0  0  0  0  0  0  0  0  0  0  0  0
    3.5971    6.8183   -0.8125 H   0  0  0  0  0  0  0  0  0  0  0  0
    3.5291    4.6622   -1.0911 C   0  0  0  0  0  0  0  0  0  0  0  0
    4.3946    4.6422   -1.7704 H   0  0  0  0  0  0  0  0  0  0  0  0
    2.8640    3.4692   -0.7783 C   0  0  0  0  0  0  0  0  0  0  0  0
    3.1850    2.5130   -1.2202 H   0  0  0  0  0  0  0  0  0  0  0  0
    3.6749   -2.1193   -0.4166 C   0  0  0  0  0  0  0  0  0  0  0  0
    4.5457   -1.2714   -1.1315 C   0  0  0  0  0  0  0  0  0  0  0  0
    4.2374   -0.2359   -1.3449 H   0  0  0  0  0  0  0  0  0  0  0  0
    5.7733   -1.7617   -1.5951 C   0  0  0  0  0  0  0  0  0  0  0  0
    6.4465   -1.1000   -2.1606 H   0  0  0  0  0  0  0  0  0  0  0  0
    6.1335   -3.0988   -1.3574 C   0  0  0  0  0  0  0  0  0  0  0  0
    7.0937   -3.4849   -1.7319 H   0  0  0  0  0  0  0  0  0  0  0  0
    5.2628   -3.9459   -0.6545 C   0  0  0  0  0  0  0  0  0  0  0  0
    5.5368   -4.9971   -0.4783 H   0  0  0  0  0  0  0  0  0  0  0  0
    4.0341   -3.4601   -0.1809 C   0  0  0  0  0  0  0  0  0  0  0  0
    3.3461   -4.1292    0.3578 H   0  0  0  0  0  0  0  0  0  0  0  0
    1.0263   -2.8110    0.6866 C   0  0  0  0  0  0  0  0  0  0  0  0
    1.1028   -3.4888    1.9232 C   0  0  0  0  0  0  0  0  0  0  0  0
    1.8644   -3.2229    2.6697 H   0  0  0  0  0  0  0  0  0  0  0  0
    0.1970   -4.5150    2.2268 C   0  0  0  0  0  0  0  0  0  0  0  0
    0.2601   -5.0261    3.1991 H   0  0  0  0  0  0  0  0  0  0  0  0
   -0.7912   -4.8790    1.2989 C   0  0  0  0  0  0  0  0  0  0  0  0
   -1.5117   -5.6735    1.5450 H   0  0  0  0  0  0  0  0  0  0  0  0
   -0.8576   -4.2249    0.0600 C   0  0  0  0  0  0  0  0  0  0  0  0
   -1.6284   -4.5048   -0.6734 H   0  0  0  0  0  0  0  0  0  0  0  0
    0.0435   -3.1968   -0.2498 C   0  0  0  0  0  0  0  0  0  0  0  0
    0.0012   -2.6857   -1.2243 H   0  0  0  0  0  0  0  0  0  0  0  0
    0.9845   -0.2491    3.6830 C   0  0  0  0  0  0  0  0  0  0  0  0
    1.0050    0.5151    4.4921 H   0  0  0  0  0  0  0  0  0  0  0  0
    1.3878   -1.1769    4.1425 H   0  0  0  0  0  0  0  0  0  0  0  0
   -0.5242   -0.5086    3.4308 C   0  0  0  0  0  0  0  0  0  0  0  0
   -1.2901   -0.5694    4.3908 O   0  0  0  0  0  0  0  0  0  0  0  0
   -0.8672   -0.6576    2.1164 N   0  0  0  0  0  0  0  0  0  0  0  0
   -0.1006   -0.5380    1.4443 H   0  0  0  0  0  0  0  0  0  0  0  0
   -2.1360   -0.7503    1.5206 C   0  0  0  0  0  0  0  0  0  0  0  0
   -2.1741   -0.7047    0.1071 C   0  0  0  0  0  0  0  0  0  0  0  0
   -1.2353   -0.6149   -0.4663 H   0  0  0  0  0  0  0  0  0  0  0  0
   -3.4032   -0.7113   -0.5410 C   0  0  0  0  0  0  0  0  0  0  0  0
   -3.6985   -0.6095   -2.0196 C   0  0  0  0  0  0  0  0  0  0  0  0
   -3.2540    0.3085   -2.4646 H   0  0  0  0  0  0  0  0  0  0  0  0
   -3.2597   -1.4570   -2.5910 H   0  0  0  0  0  0  0  0  0  0  0  0
   -5.2116   -0.6116   -2.0639 C   0  0  0  0  0  0  0  0  0  0  0  0
   -6.0730   -0.5320   -3.1623 C   0  0  0  0  0  0  0  0  0  0  0  0
   -5.6714   -0.4518   -4.1846 H   0  0  0  0  0  0  0  0  0  0  0  0
   -7.4636   -0.5550   -2.9451 C   0  0  0  0  0  0  0  0  0  0  0  0
   -8.1511   -0.4926   -3.8025 H   0  0  0  0  0  0  0  0  0  0  0  0
   -7.9829   -0.6571   -1.6410 C   0  0  0  0  0  0  0  0  0  0  0  0
   -9.0732   -0.6743   -1.4895 H   0  0  0  0  0  0  0  0  0  0  0  0
   -7.1252   -0.7371   -0.5323 C   0  0  0  0  0  0  0  0  0  0  0  0
   -7.5359   -0.8169    0.4860 H   0  0  0  0  0  0  0  0  0  0  0  0
   -5.7359   -0.7141   -0.7445 C   0  0  0  0  0  0  0  0  0  0  0  0
   -4.6135   -0.7704    0.1999 C   0  0  0  0  0  0  0  0  0  0  0  0
   -4.5693   -0.8450    1.6030 C   0  0  0  0  0  0  0  0  0  0  0  0
   -5.4986   -0.8979    2.1911 H   0  0  0  0  0  0  0  0  0  0  0  0
   -3.3347   -0.8369    2.2672 C   0  0  0  0  0  0  0  0  0  0  0  0
   -3.2696   -0.8733    3.3610 H   0  0  0  0  0  0  0  0  0  0  0  0
  1 10  1  0  0  0  0
  1  4  1  0  0  0  0
  2 43  1  0  0  0  0
  2  7  1  0  0  0  0
  3 54  1  0  0  0  0
  4  3  1  0  0  0  0
  4  6  1  0  0  0  0
  5  4  1  0  0  0  0
  7  3  1  0  0  0  0
  7  8  1  0  0  0  0
  9  7  1  0  0  0  0
 10 19  1  0  0  0  0
 11 13  1  0  0  0  0
 11 10  2  0  0  0  0
 12 11  1  0  0  0  0
 13 15  2  0  0  0  0
 14 13  1  0  0  0  0
 15 16  1  0  0  0  0
 15 17  1  0  0  0  0
 17 18  1  0  0  0  0
 19 17  2  0  0  0  0
 19 20  1  0  0  0  0
 21  1  1  0  0  0  0
 21 22  1  0  0  0  0
 22 23  1  0  0  0  0
 24 22  2  0  0  0  0
 24 25  1  0  0  0  0
 26 24  1  0  0  0  0
 27 26  1  0  0  0  0
 28 30  1  0  0  0  0
 28 26  2  0  0  0  0
 29 28  1  0  0  0  0
 30 21  2  0  0  0  0
 31 30  1  0  0  0  0
 32 41  1  0  0  0  0
 32  2  1  0  0  0  0
 33 32  2  0  0  0  0
 34 33  1  0  0  0  0
 35 37  2  0  0  0  0
 35 33  1  0  0  0  0
 36 35  1  0  0  0  0
 37 39  1  0  0  0  0
 38 37  1  0  0  0  0
 39 40  1  0  0  0  0
 39 41  2  0  0  0  0
 41 42  1  0  0  0  0
 43 44  1  0  0  0  0
 44 46  2  0  0  0  0
 44 45  1  0  0  0  0
 46 47  1  0  0  0  0
 48 49  1  0  0  0  0
 48 46  1  0  0  0  0
 50 48  2  0  0  0  0
 51 50  1  0  0  0  0
 52 50  1  0  0  0  0
 52 43  2  0  0  0  0
 53 52  1  0  0  0  0
 54 56  1  0  0  0  0
 54 55  1  0  0  0  0
 57 54  1  0  0  0  0
 57 58  2  0  0  0  0
 59 57  1  0  0  0  0
 60 59  1  0  0  0  0
 61 59  1  0  0  0  0
 61 81  1  0  0  0  0
 62 61  2  0  0  0  0
 63 62  1  0  0  0  0
 64 62  1  0  0  0  0
 64 78  2  0  0  0  0
 65 64  1  0  0  0  0
 66 65  1  0  0  0  0
 67 65  1  0  0  0  0
 68 65  1  0  0  0  0
 68 77  1  0  0  0  0
 69 71  1  0  0  0  0
 69 68  2  0  0  0  0
 70 69  1  0  0  0  0
 71 73  2  0  0  0  0
 72 71  1  0  0  0  0
 73 74  1  0  0  0  0
 73 75  1  0  0  0  0
 75 76  1  0  0  0  0
 77 75  2  0  0  0  0
 77 78  1  0  0  0  0
 78 79  1  0  0  0  0
 79 80  1  0  0  0  0
 79 81  2  0  0  0  0
 81 82  1  0  0  0  0
M  END
