2,3
 OpenBabel05122313063D

 64 67  0  0  1  0  0  0  0  0999 V2000
    2.6889   -1.1030   -2.7963 Cl  0  0  0  0  0  0  0  0  0  0  0  0
    1.8950   -0.6294   -0.8610 P   0  0  2  0  0  0  0  0  0  0  0  0
   -1.1088   -0.6303   -0.0798 P   0  0  0  0  0  0  0  0  0  0  0  0
    3.1859   -0.4856    0.2056 N   0  0  0  0  0  0  0  0  0  0  0  0
   -2.7828   -0.7942   -0.4327 N   0  0  0  0  0  0  0  0  0  0  0  0
   -1.0715   -0.9074    1.6069 N   0  0  0  0  0  0  0  0  0  0  0  0
    1.0888   -2.2580   -0.4331 C   0  0  1  0  0  0  0  0  0  0  0  0
    1.0830   -2.2592    0.6793 H   0  0  0  0  0  0  0  0  0  0  0  0
   -0.3748   -2.1284   -0.9225 C   0  0  1  0  0  0  0  0  0  0  0  0
   -0.3318   -1.8609   -2.0040 H   0  0  0  0  0  0  0  0  0  0  0  0
   -0.9101   -3.5573   -0.7965 C   0  0  0  0  0  0  0  0  0  0  0  0
   -1.0749   -3.8152    0.2684 H   0  0  0  0  0  0  0  0  0  0  0  0
   -1.8690   -3.7131   -1.3288 H   0  0  0  0  0  0  0  0  0  0  0  0
    0.2559   -4.3841   -1.3791 C   0  0  0  0  0  0  0  0  0  0  0  0
    0.1728   -4.4041   -2.4850 H   0  0  0  0  0  0  0  0  0  0  0  0
    0.2434   -5.4381   -1.0374 H   0  0  0  0  0  0  0  0  0  0  0  0
    1.5564   -3.6335   -0.9668 C   0  0  0  0  0  0  0  0  0  0  0  0
    2.2354   -3.5020   -1.8319 H   0  0  0  0  0  0  0  0  0  0  0  0
    2.1173   -4.1824   -0.1847 H   0  0  0  0  0  0  0  0  0  0  0  0
    4.0801   -1.5862    0.5677 C   0  0  0  0  0  0  0  0  0  0  0  0
    5.0173   -1.5199   -0.0362 H   0  0  0  0  0  0  0  0  0  0  0  0
    3.6040   -2.5515    0.3117 H   0  0  0  0  0  0  0  0  0  0  0  0
    4.4122   -1.5201    2.0637 C   0  0  0  0  0  0  0  0  0  0  0  0
    3.4799   -1.7137    2.6391 H   0  0  0  0  0  0  0  0  0  0  0  0
    5.1276   -2.3295    2.3197 H   0  0  0  0  0  0  0  0  0  0  0  0
    4.9779   -0.1458    2.4457 C   0  0  0  0  0  0  0  0  0  0  0  0
    5.9746   -0.0196    1.9660 H   0  0  0  0  0  0  0  0  0  0  0  0
    5.1480   -0.0869    3.5408 H   0  0  0  0  0  0  0  0  0  0  0  0
    4.0507    0.9815    1.9724 C   0  0  0  0  0  0  0  0  0  0  0  0
    3.0912    0.9470    2.5340 H   0  0  0  0  0  0  0  0  0  0  0  0
    4.5041    1.9752    2.1673 H   0  0  0  0  0  0  0  0  0  0  0  0
    3.7472    0.8473    0.4789 C   0  0  0  0  0  0  0  0  0  0  0  0
    3.0350    1.6179    0.1207 H   0  0  0  0  0  0  0  0  0  0  0  0
    4.6839    0.9797   -0.1137 H   0  0  0  0  0  0  0  0  0  0  0  0
   -3.1804   -0.9510   -1.8365 C   0  0  0  0  0  0  0  0  0  0  0  0
   -2.3698   -1.4489   -2.4015 H   0  0  0  0  0  0  0  0  0  0  0  0
   -3.3250    0.0508   -2.3109 H   0  0  0  0  0  0  0  0  0  0  0  0
   -4.4768   -1.7633   -1.9289 C   0  0  0  0  0  0  0  0  0  0  0  0
   -4.2747   -2.7955   -1.5678 H   0  0  0  0  0  0  0  0  0  0  0  0
   -4.7875   -1.8427   -2.9915 H   0  0  0  0  0  0  0  0  0  0  0  0
   -5.5858   -1.1275   -1.0814 C   0  0  0  0  0  0  0  0  0  0  0  0
   -6.4994   -1.7572   -1.0939 H   0  0  0  0  0  0  0  0  0  0  0  0
   -5.8708   -0.1502   -1.5320 H   0  0  0  0  0  0  0  0  0  0  0  0
   -5.1039   -0.8900    0.3555 C   0  0  0  0  0  0  0  0  0  0  0  0
   -5.8703   -0.3430    0.9434 H   0  0  0  0  0  0  0  0  0  0  0  0
   -4.9367   -1.8649    0.8643 H   0  0  0  0  0  0  0  0  0  0  0  0
   -3.7961   -0.0932    0.3614 C   0  0  0  0  0  0  0  0  0  0  0  0
   -3.9837    0.9258   -0.0550 H   0  0  0  0  0  0  0  0  0  0  0  0
   -3.4104    0.0476    1.3878 H   0  0  0  0  0  0  0  0  0  0  0  0
   -1.7314   -2.0606    2.2237 C   0  0  0  0  0  0  0  0  0  0  0  0
   -0.9982   -2.8965    2.3575 H   0  0  0  0  0  0  0  0  0  0  0  0
   -2.5224   -2.4219    1.5380 H   0  0  0  0  0  0  0  0  0  0  0  0
   -2.3114   -1.6968    3.5948 C   0  0  0  0  0  0  0  0  0  0  0  0
   -3.1319   -0.9591    3.4577 H   0  0  0  0  0  0  0  0  0  0  0  0
   -2.7627   -2.6020    4.0524 H   0  0  0  0  0  0  0  0  0  0  0  0
   -1.2280   -1.1026    4.5021 C   0  0  0  0  0  0  0  0  0  0  0  0
   -0.4660   -1.8860    4.7180 H   0  0  0  0  0  0  0  0  0  0  0  0
   -1.6554   -0.8023    5.4810 H   0  0  0  0  0  0  0  0  0  0  0  0
   -0.5507    0.0886    3.8148 C   0  0  0  0  0  0  0  0  0  0  0  0
   -1.2772    0.9211    3.7050 H   0  0  0  0  0  0  0  0  0  0  0  0
    0.2915    0.4745    4.4264 H   0  0  0  0  0  0  0  0  0  0  0  0
   -0.0232   -0.2964    2.4305 C   0  0  0  0  0  0  0  0  0  0  0  0
    0.3700    0.5842    1.8795 H   0  0  0  0  0  0  0  0  0  0  0  0
    0.8363   -1.0047    2.5511 H   0  0  0  0  0  0  0  0  0  0  0  0
  2  1  1  6  0  0  0
  2  7  1  0  0  0  0
  2  4  1  0  0  0  0
  3  6  1  0  0  0  0
  4 32  1  0  0  0  0
  4 20  1  0  0  0  0
  5  3  1  0  0  0  0
  5 47  1  0  0  0  0
  6 50  1  0  0  0  0
  6 62  1  0  0  0  0
  7  8  1  1  0  0  0
  9 10  1  6  0  0  0
  9 11  1  0  0  0  0
  9  7  1  0  0  0  0
  9  3  1  0  0  0  0
 11 12  1  0  0  0  0
 13 11  1  0  0  0  0
 14 16  1  0  0  0  0
 14 17  1  0  0  0  0
 14 11  1  0  0  0  0
 15 14  1  0  0  0  0
 17  7  1  0  0  0  0
 17 19  1  0  0  0  0
 18 17  1  0  0  0  0
 20 23  1  0  0  0  0
 21 20  1  0  0  0  0
 22 20  1  0  0  0  0
 23 25  1  0  0  0  0
 23 26  1  0  0  0  0
 23 24  1  0  0  0  0
 26 28  1  0  0  0  0
 27 26  1  0  0  0  0
 29 31  1  0  0  0  0
 29 26  1  0  0  0  0
 29 30  1  0  0  0  0
 32 29  1  0  0  0  0
 33 32  1  0  0  0  0
 34 32  1  0  0  0  0
 35  5  1  0  0  0  0
 36 35  1  0  0  0  0
 37 35  1  0  0  0  0
 38 35  1  0  0  0  0
 38 39  1  0  0  0  0
 38 41  1  0  0  0  0
 40 38  1  0  0  0  0
 41 44  1  0  0  0  0
 42 41  1  0  0  0  0
 43 41  1  0  0  0  0
 44 47  1  0  0  0  0
 44 46  1  0  0  0  0
 44 45  1  0  0  0  0
 47 49  1  0  0  0  0
 48 47  1  0  0  0  0
 50 51  1  0  0  0  0
 50 53  1  0  0  0  0
 52 50  1  0  0  0  0
 53 55  1  0  0  0  0
 53 56  1  0  0  0  0
 54 53  1  0  0  0  0
 56 57  1  0  0  0  0
 56 58  1  0  0  0  0
 59 61  1  0  0  0  0
 59 56  1  0  0  0  0
 60 59  1  0  0  0  0
 62 64  1  0  0  0  0
 62 59  1  0  0  0  0
 63 62  1  0  0  0  0
M  END
