1,2
 OpenBabel05122313063D

 58 62  0  0  0  0  0  0  0  0999 V2000
   -1.2199    0.6011    0.1882 P   0  0  0  0  0  0  0  0  0  0  0  0
    0.8570   -0.9453    0.0576 P   0  0  0  0  0  0  0  0  0  0  0  0
    1.7781    3.5888    0.7925 S   0  0  0  0  0  0  0  0  0  0  0  0
    0.3429    0.4693    0.9411 N   0  0  0  0  0  0  0  0  0  0  0  0
   -1.3449    2.3046   -0.4461 C   0  0  0  0  0  0  0  0  0  0  0  0
   -0.9804    2.5271   -1.7892 C   0  0  0  0  0  0  0  0  0  0  0  0
   -0.7695    1.6608   -2.4357 H   0  0  0  0  0  0  0  0  0  0  0  0
   -0.9218    3.8365   -2.2844 C   0  0  0  0  0  0  0  0  0  0  0  0
   -0.6404    4.0111   -3.3337 H   0  0  0  0  0  0  0  0  0  0  0  0
   -1.2374    4.9210   -1.4482 C   0  0  0  0  0  0  0  0  0  0  0  0
   -1.1953    5.9481   -1.8418 H   0  0  0  0  0  0  0  0  0  0  0  0
   -1.6197    4.6983   -0.1158 C   0  0  0  0  0  0  0  0  0  0  0  0
   -1.8749    5.5476    0.5359 H   0  0  0  0  0  0  0  0  0  0  0  0
   -1.6747    3.3907    0.3897 C   0  0  0  0  0  0  0  0  0  0  0  0
   -1.9802    3.2140    1.4326 H   0  0  0  0  0  0  0  0  0  0  0  0
   -2.4528    0.4456    1.5177 C   0  0  0  0  0  0  0  0  0  0  0  0
   -2.1293   -0.2512    2.7001 C   0  0  0  0  0  0  0  0  0  0  0  0
   -1.1115   -0.6448    2.8439 H   0  0  0  0  0  0  0  0  0  0  0  0
   -3.1106   -0.4581    3.6798 C   0  0  0  0  0  0  0  0  0  0  0  0
   -2.8534   -0.9978    4.6038 H   0  0  0  0  0  0  0  0  0  0  0  0
   -4.4182    0.0126    3.4774 C   0  0  0  0  0  0  0  0  0  0  0  0
   -5.1879   -0.1539    4.2463 H   0  0  0  0  0  0  0  0  0  0  0  0
   -4.7474    0.6846    2.2885 C   0  0  0  0  0  0  0  0  0  0  0  0
   -5.7760    1.0376    2.1205 H   0  0  0  0  0  0  0  0  0  0  0  0
   -3.7719    0.8994    1.3053 C   0  0  0  0  0  0  0  0  0  0  0  0
   -4.0323    1.3999    0.3607 H   0  0  0  0  0  0  0  0  0  0  0  0
    2.4256   -0.5765   -0.7838 C   0  0  0  0  0  0  0  0  0  0  0  0
    2.6800    0.7283   -1.2496 C   0  0  0  0  0  0  0  0  0  0  0  0
    1.9711    1.5392   -1.0271 H   0  0  0  0  0  0  0  0  0  0  0  0
    3.8452    0.9924   -1.9804 C   0  0  0  0  0  0  0  0  0  0  0  0
    4.0484    2.0178   -2.3238 H   0  0  0  0  0  0  0  0  0  0  0  0
    4.7465   -0.0456   -2.2698 C   0  0  0  0  0  0  0  0  0  0  0  0
    5.6605    0.1635   -2.8463 H   0  0  0  0  0  0  0  0  0  0  0  0
    4.4767   -1.3528   -1.8334 C   0  0  0  0  0  0  0  0  0  0  0  0
    5.1722   -2.1708   -2.0747 H   0  0  0  0  0  0  0  0  0  0  0  0
    3.3158   -1.6249   -1.0953 C   0  0  0  0  0  0  0  0  0  0  0  0
    3.0915   -2.6517   -0.7706 H   0  0  0  0  0  0  0  0  0  0  0  0
    1.2231   -2.1974    1.3309 C   0  0  0  0  0  0  0  0  0  0  0  0
    2.3842   -2.1169    2.1284 C   0  0  0  0  0  0  0  0  0  0  0  0
    3.1531   -1.3606    1.9059 H   0  0  0  0  0  0  0  0  0  0  0  0
    2.5640   -3.0183    3.1889 C   0  0  0  0  0  0  0  0  0  0  0  0
    3.4695   -2.9582    3.8116 H   0  0  0  0  0  0  0  0  0  0  0  0
    1.5934   -4.0002    3.4485 C   0  0  0  0  0  0  0  0  0  0  0  0
    1.7399   -4.7093    4.2776 H   0  0  0  0  0  0  0  0  0  0  0  0
    0.4440   -4.0881    2.6453 C   0  0  0  0  0  0  0  0  0  0  0  0
   -0.3069   -4.8690    2.8383 H   0  0  0  0  0  0  0  0  0  0  0  0
    0.2546   -3.1891    1.5863 C   0  0  0  0  0  0  0  0  0  0  0  0
   -0.6244   -3.2579    0.9264 H   0  0  0  0  0  0  0  0  0  0  0  0
    0.9283    1.2000    2.0650 C   0  0  0  0  0  0  0  0  0  0  0  0
    1.3064    0.4737    2.8183 H   0  0  0  0  0  0  0  0  0  0  0  0
    0.1035    1.7576    2.5578 H   0  0  0  0  0  0  0  0  0  0  0  0
    2.0571    2.1194    1.6948 C   0  0  0  0  0  0  0  0  0  0  0  0
    3.4119    1.9237    1.9019 C   0  0  0  0  0  0  0  0  0  0  0  0
    3.8067    1.0519    2.4429 H   0  0  0  0  0  0  0  0  0  0  0  0
    4.2249    2.9520    1.3344 C   0  0  0  0  0  0  0  0  0  0  0  0
    5.3217    2.9749    1.3910 H   0  0  0  0  0  0  0  0  0  0  0  0
    3.4762    3.9221    0.6973 C   0  0  0  0  0  0  0  0  0  0  0  0
    3.8266    4.8262    0.1844 H   0  0  0  0  0  0  0  0  0  0  0  0
  1  4  1  0  0  0  0
  1 16  1  0  0  0  0
  2  4  1  0  0  0  0
  2 38  1  0  0  0  0
  3 52  1  0  0  0  0
  4 49  1  0  0  0  0
  5  1  1  0  0  0  0
  5 14  1  0  0  0  0
  6  5  2  0  0  0  0
  7  6  1  0  0  0  0
  8  6  1  0  0  0  0
  8 10  2  0  0  0  0
  9  8  1  0  0  0  0
 10 12  1  0  0  0  0
 11 10  1  0  0  0  0
 12 14  2  0  0  0  0
 12 13  1  0  0  0  0
 14 15  1  0  0  0  0
 16 17  1  0  0  0  0
 17 18  1  0  0  0  0
 17 19  2  0  0  0  0
 19 20  1  0  0  0  0
 21 19  1  0  0  0  0
 21 22  1  0  0  0  0
 23 21  2  0  0  0  0
 24 23  1  0  0  0  0
 25 16  2  0  0  0  0
 25 23  1  0  0  0  0
 26 25  1  0  0  0  0
 27  2  1  0  0  0  0
 28 29  1  0  0  0  0
 28 27  2  0  0  0  0
 30 28  1  0  0  0  0
 31 30  1  0  0  0  0
 32 30  2  0  0  0  0
 32 34  1  0  0  0  0
 33 32  1  0  0  0  0
 34 36  2  0  0  0  0
 35 34  1  0  0  0  0
 36 27  1  0  0  0  0
 36 37  1  0  0  0  0
 38 47  2  0  0  0  0
 38 39  1  0  0  0  0
 39 41  2  0  0  0  0
 40 39  1  0  0  0  0
 41 43  1  0  0  0  0
 41 42  1  0  0  0  0
 43 44  1  0  0  0  0
 45 46  1  0  0  0  0
 45 43  2  0  0  0  0
 47 45  1  0  0  0  0
 48 47  1  0  0  0  0
 49 51  1  0  0  0  0
 49 50  1  0  0  0  0
 52 53  2  0  0  0  0
 52 49  1  0  0  0  0
 53 54  1  0  0  0  0
 55 56  1  0  0  0  0
 55 53  1  0  0  0  0
 57  3  1  0  0  0  0
 57 55  2  0  0  0  0
 58 57  1  0  0  0  0
M  END
