1,2
 OpenBabel05122313063D

 61 61  0  0  1  0  0  0  0  0999 V2000
    1.6473    0.5404    0.3789 P   0  0  0  0  0  0  0  0  0  0  0  0
   -2.0425    0.1832    0.0203 P   0  0  0  0  0  0  0  0  0  0  0  0
    0.1161    0.5296    2.5763 C   0  0  1  0  0  0  0  0  0  0  0  0
   -0.1097   -0.5183    2.2919 H   0  0  0  0  0  0  0  0  0  0  0  0
    0.2506    0.7192    4.0905 C   0  0  0  0  0  0  0  0  0  0  0  0
   -0.4191   -0.0114    4.5906 H   0  0  0  0  0  0  0  0  0  0  0  0
    1.2834    0.5227    4.4352 H   0  0  0  0  0  0  0  0  0  0  0  0
   -0.2629    2.1474    4.3308 C   0  0  0  0  0  0  0  0  0  0  0  0
   -0.4937    2.3640    5.3919 H   0  0  0  0  0  0  0  0  0  0  0  0
    0.4994    2.8820    3.9947 H   0  0  0  0  0  0  0  0  0  0  0  0
   -1.4951    2.2053    3.4172 C   0  0  0  0  0  0  0  0  0  0  0  0
   -1.8763    3.2234    3.2126 H   0  0  0  0  0  0  0  0  0  0  0  0
   -2.3244    1.6110    3.8555 H   0  0  0  0  0  0  0  0  0  0  0  0
   -1.0370    1.4858    2.1405 C   0  0  2  0  0  0  0  0  0  0  0  0
   -0.6307    2.2099    1.4054 H   0  0  0  0  0  0  0  0  0  0  0  0
    3.7322   -0.6826    1.5984 C   0  0  0  0  0  0  0  0  0  0  0  0
    3.7036    0.2635    2.1789 H   0  0  0  0  0  0  0  0  0  0  0  0
    3.4688   -1.8266    2.5998 C   0  0  0  0  0  0  0  0  0  0  0  0
    5.1216   -0.7724    0.9298 C   0  0  0  0  0  0  0  0  0  0  0  0
    2.6825    2.7888   -0.7378 C   0  0  0  0  0  0  0  0  0  0  0  0
    1.9185    2.5819   -1.5188 H   0  0  0  0  0  0  0  0  0  0  0  0
    4.0290    2.9416   -1.4717 C   0  0  0  0  0  0  0  0  0  0  0  0
    2.2223    4.0484    0.0220 C   0  0  0  0  0  0  0  0  0  0  0  0
   -4.3233    1.6080   -0.1684 C   0  0  0  0  0  0  0  0  0  0  0  0
   -4.4812    1.1564    0.8333 H   0  0  0  0  0  0  0  0  0  0  0  0
   -5.5066    1.1761   -1.0580 C   0  0  0  0  0  0  0  0  0  0  0  0
   -4.2200    3.1348    0.0333 C   0  0  0  0  0  0  0  0  0  0  0  0
   -2.7048   -2.2571    0.8788 C   0  0  0  0  0  0  0  0  0  0  0  0
   -1.6014   -2.2781    1.0058 H   0  0  0  0  0  0  0  0  0  0  0  0
   -3.3195   -2.3906    2.2871 C   0  0  0  0  0  0  0  0  0  0  0  0
   -3.0497   -3.4315   -0.0603 C   0  0  0  0  0  0  0  0  0  0  0  0
    1.3581    0.9440    1.9605 O   0  0  0  0  0  0  0  0  0  0  0  0
    2.8133    1.7259    0.1691 O   0  0  0  0  0  0  0  0  0  0  0  0
    2.7409   -0.7269    0.5960 O   0  0  0  0  0  0  0  0  0  0  0  0
   -3.1485   -1.0675    0.2752 O   0  0  0  0  0  0  0  0  0  0  0  0
   -3.1310    1.1576   -0.7796 O   0  0  0  0  0  0  0  0  0  0  0  0
   -2.1425    0.7730    1.5667 O   0  0  0  0  0  0  0  0  0  0  0  0
   -2.6171   -3.1497   -1.3089 F   0  0  0  0  0  0  0  0  0  0  0  0
   -2.4209   -4.5614    0.3429 F   0  0  0  0  0  0  0  0  0  0  0  0
   -4.3671   -3.6770   -0.1169 F   0  0  0  0  0  0  0  0  0  0  0  0
   -3.1340   -3.6399    2.7700 F   0  0  0  0  0  0  0  0  0  0  0  0
   -4.6311   -2.1168    2.2929 F   0  0  0  0  0  0  0  0  0  0  0  0
   -2.7083   -1.5333    3.1396 F   0  0  0  0  0  0  0  0  0  0  0  0
   -5.5872   -0.1664   -1.0864 F   0  0  0  0  0  0  0  0  0  0  0  0
   -6.6660    1.6590   -0.5595 F   0  0  0  0  0  0  0  0  0  0  0  0
   -5.3693    1.6161   -2.3192 F   0  0  0  0  0  0  0  0  0  0  0  0
   -5.2552    3.5845    0.7701 F   0  0  0  0  0  0  0  0  0  0  0  0
   -4.2006    3.8015   -1.1310 F   0  0  0  0  0  0  0  0  0  0  0  0
   -3.0779    3.4301    0.6987 F   0  0  0  0  0  0  0  0  0  0  0  0
    4.2430   -1.7038    3.6905 F   0  0  0  0  0  0  0  0  0  0  0  0
    3.6996   -3.0433    2.0525 F   0  0  0  0  0  0  0  0  0  0  0  0
    2.1764   -1.8047    2.9993 F   0  0  0  0  0  0  0  0  0  0  0  0
    6.0860   -0.8873    1.8674 F   0  0  0  0  0  0  0  0  0  0  0  0
    5.3636    0.3305    0.2068 F   0  0  0  0  0  0  0  0  0  0  0  0
    5.2075   -1.8392    0.1066 F   0  0  0  0  0  0  0  0  0  0  0  0
    4.3209    1.7893   -2.1038 F   0  0  0  0  0  0  0  0  0  0  0  0
    5.0350    3.2273   -0.6265 F   0  0  0  0  0  0  0  0  0  0  0  0
    3.9516    3.9231   -2.3921 F   0  0  0  0  0  0  0  0  0  0  0  0
    3.0785    4.3903    0.9986 F   0  0  0  0  0  0  0  0  0  0  0  0
    1.0180    3.7987    0.5991 F   0  0  0  0  0  0  0  0  0  0  0  0
    2.0752    5.0927   -0.8099 F   0  0  0  0  0  0  0  0  0  0  0  0
  1 34  1  0  0  0  0
  1 32  1  0  0  0  0
  2 35  1  0  0  0  0
  2 37  1  0  0  0  0
  3  4  1  6  0  0  0
  3  5  1  0  0  0  0
  5  8  1  0  0  0  0
  5  7  1  0  0  0  0
  5  6  1  0  0  0  0
  8  9  1  0  0  0  0
 10  8  1  0  0  0  0
 11 13  1  0  0  0  0
 11  8  1  0  0  0  0
 12 11  1  0  0  0  0
 14 15  1  6  0  0  0
 14  3  1  0  0  0  0
 14 11  1  0  0  0  0
 16 17  1  0  0  0  0
 16 18  1  0  0  0  0
 18 52  1  0  0  0  0
 18 50  1  0  0  0  0
 19 16  1  0  0  0  0
 19 53  1  0  0  0  0
 20 23  1  0  0  0  0
 20 33  1  0  0  0  0
 21 20  1  0  0  0  0
 22 20  1  0  0  0  0
 22 57  1  0  0  0  0
 23 60  1  0  0  0  0
 23 59  1  0  0  0  0
 24 27  1  0  0  0  0
 24 25  1  0  0  0  0
 26 45  1  0  0  0  0
 26 24  1  0  0  0  0
 27 49  1  0  0  0  0
 27 47  1  0  0  0  0
 28 29  1  0  0  0  0
 28 30  1  0  0  0  0
 30 42  1  0  0  0  0
 30 41  1  0  0  0  0
 30 43  1  0  0  0  0
 31 39  1  0  0  0  0
 31 28  1  0  0  0  0
 32  3  1  0  0  0  0
 33  1  1  0  0  0  0
 34 16  1  0  0  0  0
 35 28  1  0  0  0  0
 36 24  1  0  0  0  0
 36  2  1  0  0  0  0
 37 14  1  0  0  0  0
 38 31  1  0  0  0  0
 40 31  1  0  0  0  0
 44 26  1  0  0  0  0
 46 26  1  0  0  0  0
 48 27  1  0  0  0  0
 51 18  1  0  0  0  0
 54 19  1  0  0  0  0
 55 19  1  0  0  0  0
 56 22  1  0  0  0  0
 58 22  1  0  0  0  0
 61 23  1  0  0  0  0
M  END
