1,6
 OpenBabel05122313063D

 71 76  0  0  0  0  0  0  0  0999 V2000
   -1.8834   -0.1102    0.5490 P   0  0  0  0  0  0  0  0  0  0  0  0
   -3.6965   -0.3342    0.5440 C   0  0  0  0  0  0  0  0  0  0  0  0
    0.9459   -1.9213    3.0357 C   0  0  0  0  0  0  0  0  0  0  0  0
    0.1660   -1.1635    3.2382 H   0  0  0  0  0  0  0  0  0  0  0  0
    1.0207   -2.5678    3.9337 H   0  0  0  0  0  0  0  0  0  0  0  0
    1.2105    0.5426   -0.4837 P   0  0  0  0  0  0  0  0  0  0  0  0
   -1.6546    1.3475    1.6273 C   0  0  0  0  0  0  0  0  0  0  0  0
    1.6025    2.3282   -0.5084 C   0  0  0  0  0  0  0  0  0  0  0  0
    1.7396    3.0460    0.6968 C   0  0  0  0  0  0  0  0  0  0  0  0
    1.6444    2.5263    1.6605 H   0  0  0  0  0  0  0  0  0  0  0  0
   -1.5273    2.6103    1.0182 C   0  0  0  0  0  0  0  0  0  0  0  0
   -1.5023    2.6862   -0.0810 H   0  0  0  0  0  0  0  0  0  0  0  0
   -1.4028   -1.3554    1.5657 O   0  0  0  0  0  0  0  0  0  0  0  0
   -4.2881   -1.4300    1.1973 C   0  0  0  0  0  0  0  0  0  0  0  0
   -3.6543   -2.1767    1.6964 H   0  0  0  0  0  0  0  0  0  0  0  0
   -4.5005    0.6273   -0.1006 C   0  0  0  0  0  0  0  0  0  0  0  0
   -4.0354    1.4693   -0.6342 H   0  0  0  0  0  0  0  0  0  0  0  0
   -5.8935    0.4933   -0.0788 C   0  0  0  0  0  0  0  0  0  0  0  0
   -6.5202    1.2416   -0.5867 H   0  0  0  0  0  0  0  0  0  0  0  0
    2.6152   -0.3702   -1.2004 C   0  0  0  0  0  0  0  0  0  0  0  0
    2.4861   -1.7723   -1.2527 C   0  0  0  0  0  0  0  0  0  0  0  0
    1.5530   -2.2519   -0.9233 H   0  0  0  0  0  0  0  0  0  0  0  0
    3.7907    0.2530   -1.6564 C   0  0  0  0  0  0  0  0  0  0  0  0
    3.8837    1.3489   -1.6271 H   0  0  0  0  0  0  0  0  0  0  0  0
    4.7223   -1.9297   -2.1908 C   0  0  0  0  0  0  0  0  0  0  0  0
    5.5504   -2.5408   -2.5808 H   0  0  0  0  0  0  0  0  0  0  0  0
    3.5453   -2.5482   -1.7379 C   0  0  0  0  0  0  0  0  0  0  0  0
    3.4416   -3.6431   -1.7714 H   0  0  0  0  0  0  0  0  0  0  0  0
    2.4221   -0.2047    1.8680 C   0  0  0  0  0  0  0  0  0  0  0  0
    2.2776   -1.2348    2.8283 C   0  0  0  0  0  0  0  0  0  0  0  0
    3.4100   -1.5964    3.5806 C   0  0  0  0  0  0  0  0  0  0  0  0
    3.3052   -2.3947    4.3325 H   0  0  0  0  0  0  0  0  0  0  0  0
    3.6555    0.4426    1.6865 C   0  0  0  0  0  0  0  0  0  0  0  0
    3.7476    1.2532    0.9534 H   0  0  0  0  0  0  0  0  0  0  0  0
    4.6511   -0.9690    3.3950 C   0  0  0  0  0  0  0  0  0  0  0  0
    5.5205   -1.2771    3.9943 H   0  0  0  0  0  0  0  0  0  0  0  0
   -5.6862   -1.5606    1.2069 C   0  0  0  0  0  0  0  0  0  0  0  0
   -6.1485   -2.4206    1.7147 H   0  0  0  0  0  0  0  0  0  0  0  0
   -6.4884   -0.6007    0.5731 C   0  0  0  0  0  0  0  0  0  0  0  0
   -7.5839   -0.7062    0.5814 H   0  0  0  0  0  0  0  0  0  0  0  0
   -1.4047    3.7592    1.8146 C   0  0  0  0  0  0  0  0  0  0  0  0
   -1.2983    4.7435    1.3350 H   0  0  0  0  0  0  0  0  0  0  0  0
   -1.6524    1.2333    3.0313 C   0  0  0  0  0  0  0  0  0  0  0  0
   -1.7615    0.2441    3.4993 H   0  0  0  0  0  0  0  0  0  0  0  0
    1.6671    3.0048   -1.7469 C   0  0  0  0  0  0  0  0  0  0  0  0
    1.5047    2.4395   -2.6792 H   0  0  0  0  0  0  0  0  0  0  0  0
    1.9043    4.3862   -1.7686 C   0  0  0  0  0  0  0  0  0  0  0  0
    1.9580    4.9109   -2.7345 H   0  0  0  0  0  0  0  0  0  0  0  0
   -0.6452   -2.4260    1.1129 C   0  0  0  0  0  0  0  0  0  0  0  0
   -1.0374   -3.1606   -0.0203 C   0  0  0  0  0  0  0  0  0  0  0  0
   -1.9284   -2.8583   -0.5917 H   0  0  0  0  0  0  0  0  0  0  0  0
    0.5108   -2.7584    1.8489 C   0  0  0  0  0  0  0  0  0  0  0  0
    1.2570   -3.8756    1.4264 C   0  0  0  0  0  0  0  0  0  0  0  0
    2.1700   -4.1402    1.9828 H   0  0  0  0  0  0  0  0  0  0  0  0
    0.8738   -4.6289    0.3074 C   0  0  0  0  0  0  0  0  0  0  0  0
    1.4751   -5.4963   -0.0035 H   0  0  0  0  0  0  0  0  0  0  0  0
   -0.2707   -4.2641   -0.4214 C   0  0  0  0  0  0  0  0  0  0  0  0
   -0.5721   -4.8342   -1.3124 H   0  0  0  0  0  0  0  0  0  0  0  0
    1.9731    4.4289    0.6618 C   0  0  0  0  0  0  0  0  0  0  0  0
    2.0774    4.9847    1.6059 H   0  0  0  0  0  0  0  0  0  0  0  0
    2.0616    5.0994   -0.5679 C   0  0  0  0  0  0  0  0  0  0  0  0
    2.2449    6.1845   -0.5917 H   0  0  0  0  0  0  0  0  0  0  0  0
   -1.3896    3.6464    3.2129 C   0  0  0  0  0  0  0  0  0  0  0  0
   -1.2817    4.5467    3.8369 H   0  0  0  0  0  0  0  0  0  0  0  0
   -1.5089    2.3833    3.8192 C   0  0  0  0  0  0  0  0  0  0  0  0
   -1.4954    2.2950    4.9162 H   0  0  0  0  0  0  0  0  0  0  0  0
    4.8407   -0.5310   -2.1555 C   0  0  0  0  0  0  0  0  0  0  0  0
    5.7586   -0.0449   -2.5188 H   0  0  0  0  0  0  0  0  0  0  0  0
    1.2809    0.1500    1.1615 O   0  0  0  0  0  0  0  0  0  0  0  0
    4.7693    0.0546    2.4457 C   0  0  0  0  0  0  0  0  0  0  0  0
    5.7321    0.5636    2.2890 H   0  0  0  0  0  0  0  0  0  0  0  0
  1 13  1  0  0  0  0
  1  7  1  0  0  0  0
  2  1  1  0  0  0  0
  2 14  1  0  0  0  0
  3  4  1  0  0  0  0
  3  5  1  0  0  0  0
  6 69  1  0  0  0  0
  7 43  1  0  0  0  0
  8  6  1  0  0  0  0
  8  9  1  0  0  0  0
  9 10  1  0  0  0  0
 11  7  2  0  0  0  0
 11 41  1  0  0  0  0
 12 11  1  0  0  0  0
 14 37  2  0  0  0  0
 14 15  1  0  0  0  0
 16 18  1  0  0  0  0
 16  2  2  0  0  0  0
 17 16  1  0  0  0  0
 18 39  2  0  0  0  0
 19 18  1  0  0  0  0
 20  6  1  0  0  0  0
 21 20  1  0  0  0  0
 21 22  1  0  0  0  0
 23 24  1  0  0  0  0
 23 20  2  0  0  0  0
 25 67  2  0  0  0  0
 25 27  1  0  0  0  0
 26 25  1  0  0  0  0
 27 21  2  0  0  0  0
 28 27  1  0  0  0  0
 29 30  1  0  0  0  0
 30  3  1  0  0  0  0
 30 31  2  0  0  0  0
 31 32  1  0  0  0  0
 33 29  2  0  0  0  0
 33 70  1  0  0  0  0
 34 33  1  0  0  0  0
 35 31  1  0  0  0  0
 35 36  1  0  0  0  0
 37 38  1  0  0  0  0
 39 40  1  0  0  0  0
 39 37  1  0  0  0  0
 41 63  2  0  0  0  0
 42 41  1  0  0  0  0
 43 44  1  0  0  0  0
 43 65  2  0  0  0  0
 45  8  2  0  0  0  0
 46 45  1  0  0  0  0
 47 45  1  0  0  0  0
 47 61  2  0  0  0  0
 48 47  1  0  0  0  0
 49 13  1  0  0  0  0
 49 52  1  0  0  0  0
 50 49  2  0  0  0  0
 51 50  1  0  0  0  0
 52  3  1  0  0  0  0
 53 52  2  0  0  0  0
 53 54  1  0  0  0  0
 55 53  1  0  0  0  0
 56 55  1  0  0  0  0
 57 50  1  0  0  0  0
 57 55  2  0  0  0  0
 58 57  1  0  0  0  0
 59  9  2  0  0  0  0
 59 60  1  0  0  0  0
 61 59  1  0  0  0  0
 62 61  1  0  0  0  0
 63 65  1  0  0  0  0
 63 64  1  0  0  0  0
 65 66  1  0  0  0  0
 67 23  1  0  0  0  0
 68 67  1  0  0  0  0
 69 29  1  0  0  0  0
 70 35  2  0  0  0  0
 71 70  1  0  0  0  0
M  END
