1,2
 OpenBabel05122313063D

 61 63  0  0  0  0  0  0  0  0999 V2000
    2.3557    0.0133    0.0998 P   0  0  0  0  0  0  0  0  0  0  0  0
   -2.4155   -0.2657    0.0820 P   0  0  0  0  0  0  0  0  0  0  0  0
   -0.1185    1.5061    0.2797 O   0  0  0  0  0  0  0  0  0  0  0  0
    3.3720   -0.1933    1.6799 C   0  0  0  0  0  0  0  0  0  0  0  0
    4.3898    0.1293    1.3704 H   0  0  0  0  0  0  0  0  0  0  0  0
    3.4226   -1.6570    2.1322 C   0  0  0  0  0  0  0  0  0  0  0  0
    4.1642   -1.7630    2.9518 H   0  0  0  0  0  0  0  0  0  0  0  0
    3.6814   -2.3533    1.3135 H   0  0  0  0  0  0  0  0  0  0  0  0
    2.4292   -1.9622    2.5141 H   0  0  0  0  0  0  0  0  0  0  0  0
    2.9003    0.7350    2.8072 C   0  0  0  0  0  0  0  0  0  0  0  0
    1.8529    0.5114    3.0888 H   0  0  0  0  0  0  0  0  0  0  0  0
    2.9788    1.8051    2.5345 H   0  0  0  0  0  0  0  0  0  0  0  0
    3.5391    0.5679    3.7000 H   0  0  0  0  0  0  0  0  0  0  0  0
    3.4991   -0.4816   -1.3227 C   0  0  0  0  0  0  0  0  0  0  0  0
    3.1086   -1.5023   -1.5194 H   0  0  0  0  0  0  0  0  0  0  0  0
    4.9838   -0.5967   -0.9651 C   0  0  0  0  0  0  0  0  0  0  0  0
    5.5402   -0.9552   -1.8567 H   0  0  0  0  0  0  0  0  0  0  0  0
    5.1751   -1.3169   -0.1471 H   0  0  0  0  0  0  0  0  0  0  0  0
    5.4271    0.3813   -0.6816 H   0  0  0  0  0  0  0  0  0  0  0  0
    3.2819    0.3988   -2.5587 C   0  0  0  0  0  0  0  0  0  0  0  0
    3.6938    1.4183   -2.4136 H   0  0  0  0  0  0  0  0  0  0  0  0
    2.2084    0.4870   -2.8138 H   0  0  0  0  0  0  0  0  0  0  0  0
    3.8094   -0.0534   -3.4249 H   0  0  0  0  0  0  0  0  0  0  0  0
    2.2382    1.8773    0.0223 C   0  0  0  0  0  0  0  0  0  0  0  0
    3.2111    2.8897   -0.1183 C   0  0  0  0  0  0  0  0  0  0  0  0
    4.2755    2.6238   -0.2011 H   0  0  0  0  0  0  0  0  0  0  0  0
    2.8357    4.2539   -0.1627 C   0  0  0  0  0  0  0  0  0  0  0  0
    3.6249    5.0117   -0.2788 H   0  0  0  0  0  0  0  0  0  0  0  0
    1.4952    4.6787   -0.0829 C   0  0  0  0  0  0  0  0  0  0  0  0
    1.2462    5.7480   -0.1456 H   0  0  0  0  0  0  0  0  0  0  0  0
    0.4909    3.7012    0.0625 C   0  0  0  0  0  0  0  0  0  0  0  0
    0.9445    2.3663    0.1297 C   0  0  0  0  0  0  0  0  0  0  0  0
   -0.9754    3.6191    0.1134 C   0  0  0  0  0  0  0  0  0  0  0  0
   -2.0868    4.4790    0.0329 C   0  0  0  0  0  0  0  0  0  0  0  0
   -1.9614    5.5691   -0.0408 H   0  0  0  0  0  0  0  0  0  0  0  0
   -3.3739    3.9073    0.0237 C   0  0  0  0  0  0  0  0  0  0  0  0
   -4.2488    4.5707   -0.0455 H   0  0  0  0  0  0  0  0  0  0  0  0
   -3.5906    2.5101    0.0669 C   0  0  0  0  0  0  0  0  0  0  0  0
   -4.6216    2.1335    0.0090 H   0  0  0  0  0  0  0  0  0  0  0  0
   -2.5063    1.6069    0.1537 C   0  0  0  0  0  0  0  0  0  0  0  0
   -1.2725    2.2396    0.2052 C   0  0  0  0  0  0  0  0  0  0  0  0
   -3.3131   -0.7679    1.6628 C   0  0  0  0  0  0  0  0  0  0  0  0
   -2.5449   -0.5081    2.4240 H   0  0  0  0  0  0  0  0  0  0  0  0
   -3.5070   -2.2858    1.7133 C   0  0  0  0  0  0  0  0  0  0  0  0
   -3.8928   -2.5787    2.7117 H   0  0  0  0  0  0  0  0  0  0  0  0
   -2.5480   -2.8128    1.5639 H   0  0  0  0  0  0  0  0  0  0  0  0
   -4.2401   -2.6432    0.9604 H   0  0  0  0  0  0  0  0  0  0  0  0
   -4.6117   -0.0170    1.9569 C   0  0  0  0  0  0  0  0  0  0  0  0
   -5.3758   -0.1601    1.1627 H   0  0  0  0  0  0  0  0  0  0  0  0
   -4.4490    1.0684    2.0925 H   0  0  0  0  0  0  0  0  0  0  0  0
   -5.0535   -0.4042    2.8991 H   0  0  0  0  0  0  0  0  0  0  0  0
   -3.6281   -0.6978   -1.3058 C   0  0  0  0  0  0  0  0  0  0  0  0
   -4.6235   -0.7455   -0.8100 H   0  0  0  0  0  0  0  0  0  0  0  0
   -3.6744    0.3266   -2.4467 C   0  0  0  0  0  0  0  0  0  0  0  0
   -2.6632    0.4661   -2.8774 H   0  0  0  0  0  0  0  0  0  0  0  0
   -4.0517    1.3142   -2.1253 H   0  0  0  0  0  0  0  0  0  0  0  0
   -4.3484   -0.0486   -3.2455 H   0  0  0  0  0  0  0  0  0  0  0  0
   -3.2686   -2.0817   -1.8590 C   0  0  0  0  0  0  0  0  0  0  0  0
   -4.0562   -2.4303   -2.5589 H   0  0  0  0  0  0  0  0  0  0  0  0
   -3.1557   -2.8479   -1.0669 H   0  0  0  0  0  0  0  0  0  0  0  0
   -2.3150   -2.0044   -2.4155 H   0  0  0  0  0  0  0  0  0  0  0  0
  1  4  1  0  0  0  0
  2 40  1  0  0  0  0
  2 42  1  0  0  0  0
  4  6  1  0  0  0  0
  4 10  1  0  0  0  0
  5  4  1  0  0  0  0
  6  9  1  0  0  0  0
  6  7  1  0  0  0  0
  8  6  1  0  0  0  0
 10 11  1  0  0  0  0
 10 13  1  0  0  0  0
 12 10  1  0  0  0  0
 14 16  1  0  0  0  0
 14  1  1  0  0  0  0
 15 14  1  0  0  0  0
 16 19  1  0  0  0  0
 16 18  1  0  0  0  0
 17 16  1  0  0  0  0
 20 21  1  0  0  0  0
 20 14  1  0  0  0  0
 22 20  1  0  0  0  0
 23 20  1  0  0  0  0
 24  1  1  0  0  0  0
 24 32  1  0  0  0  0
 25 24  2  0  0  0  0
 26 25  1  0  0  0  0
 27 25  1  0  0  0  0
 27 29  2  0  0  0  0
 28 27  1  0  0  0  0
 29 31  1  0  0  0  0
 30 29  1  0  0  0  0
 31 33  1  0  0  0  0
 31 32  2  0  0  0  0
 32  3  1  0  0  0  0
 33 41  1  0  0  0  0
 34 33  2  0  0  0  0
 35 34  1  0  0  0  0
 36 34  1  0  0  0  0
 36 38  2  0  0  0  0
 37 36  1  0  0  0  0
 38 40  1  0  0  0  0
 39 38  1  0  0  0  0
 40 41  2  0  0  0  0
 41  3  1  0  0  0  0
 42 44  1  0  0  0  0
 42 48  1  0  0  0  0
 42 43  1  0  0  0  0
 44 45  1  0  0  0  0
 46 44  1  0  0  0  0
 47 44  1  0  0  0  0
 48 50  1  0  0  0  0
 48 51  1  0  0  0  0
 49 48  1  0  0  0  0
 52 53  1  0  0  0  0
 52  2  1  0  0  0  0
 54 56  1  0  0  0  0
 54 52  1  0  0  0  0
 55 54  1  0  0  0  0
 57 54  1  0  0  0  0
 58 52  1  0  0  0  0
 58 60  1  0  0  0  0
 59 58  1  0  0  0  0
 61 58  1  0  0  0  0
M  END
