3,4
 OpenBabel05122313063D

 49 52  0  0  0  0  0  0  0  0999 V2000
   -1.3693    0.1984   -2.7145 Br  0  0  0  0  0  0  0  0  0  0  0  0
   -0.2895    0.0510   -1.1069 C   0  0  0  0  0  0  0  0  0  0  0  0
   -0.1957    1.4674    0.1220 P   0  0  0  0  0  0  0  0  0  0  0  0
   -0.5393   -1.3355    0.1415 P   0  0  0  0  0  0  0  0  0  0  0  0
   -1.7496    2.4077    0.0137 C   0  0  0  0  0  0  0  0  0  0  0  0
   -1.7207    3.8176    0.0163 C   0  0  0  0  0  0  0  0  0  0  0  0
   -2.9242    4.5373   -0.0146 C   0  0  0  0  0  0  0  0  0  0  0  0
   -4.1520    3.8587   -0.0518 C   0  0  0  0  0  0  0  0  0  0  0  0
   -4.1802    2.4544   -0.0546 C   0  0  0  0  0  0  0  0  0  0  0  0
   -2.9852    1.7255   -0.0161 C   0  0  0  0  0  0  0  0  0  0  0  0
    1.1160    2.5684   -0.5189 C   0  0  0  0  0  0  0  0  0  0  0  0
    2.1278    3.0486    0.3363 C   0  0  0  0  0  0  0  0  0  0  0  0
    3.1490    3.8648   -0.1753 C   0  0  0  0  0  0  0  0  0  0  0  0
    3.1710    4.1947   -1.5394 C   0  0  0  0  0  0  0  0  0  0  0  0
    2.1599    3.7220   -2.3934 C   0  0  0  0  0  0  0  0  0  0  0  0
    1.1283    2.9184   -1.8881 C   0  0  0  0  0  0  0  0  0  0  0  0
    0.5328   -2.6959   -0.4615 C   0  0  0  0  0  0  0  0  0  0  0  0
    0.8985   -3.7091    0.4493 C   0  0  0  0  0  0  0  0  0  0  0  0
    1.7040   -4.7756    0.0254 C   0  0  0  0  0  0  0  0  0  0  0  0
    2.1480   -4.8406   -1.3056 C   0  0  0  0  0  0  0  0  0  0  0  0
    1.7802   -3.8377   -2.2162 C   0  0  0  0  0  0  0  0  0  0  0  0
    0.9743   -2.7660   -1.7994 C   0  0  0  0  0  0  0  0  0  0  0  0
   -2.2302   -2.0102    0.0041 C   0  0  0  0  0  0  0  0  0  0  0  0
   -3.1241   -1.9513    1.0923 C   0  0  0  0  0  0  0  0  0  0  0  0
   -4.4161   -2.4842    0.9679 C   0  0  0  0  0  0  0  0  0  0  0  0
   -4.8184   -3.0799   -0.2368 C   0  0  0  0  0  0  0  0  0  0  0  0
   -3.9226   -3.1599   -1.3163 C   0  0  0  0  0  0  0  0  0  0  0  0
   -2.6287   -2.6369   -1.1990 C   0  0  0  0  0  0  0  0  0  0  0  0
    0.7613   -0.0670   -1.4441 H   0  0  0  0  0  0  0  0  0  0  0  0
   -0.7604    4.3540    0.0381 H   0  0  0  0  0  0  0  0  0  0  0  0
   -2.8996    5.6371   -0.0119 H   0  0  0  0  0  0  0  0  0  0  0  0
   -5.0935    4.4272   -0.0785 H   0  0  0  0  0  0  0  0  0  0  0  0
   -5.1406    1.9190   -0.0860 H   0  0  0  0  0  0  0  0  0  0  0  0
   -3.0249    0.6260   -0.0145 H   0  0  0  0  0  0  0  0  0  0  0  0
    2.1232    2.7940    1.4047 H   0  0  0  0  0  0  0  0  0  0  0  0
    3.9305    4.2455    0.4992 H   0  0  0  0  0  0  0  0  0  0  0  0
    3.9752    4.8304   -1.9391 H   0  0  0  0  0  0  0  0  0  0  0  0
    2.1694    3.9871   -3.4611 H   0  0  0  0  0  0  0  0  0  0  0  0
    0.3332    2.5613   -2.5605 H   0  0  0  0  0  0  0  0  0  0  0  0
    0.5558   -3.6717    1.4939 H   0  0  0  0  0  0  0  0  0  0  0  0
    1.9861   -5.5615    0.7417 H   0  0  0  0  0  0  0  0  0  0  0  0
    2.7795   -5.6790   -1.6354 H   0  0  0  0  0  0  0  0  0  0  0  0
    2.1167   -3.8895   -3.2625 H   0  0  0  0  0  0  0  0  0  0  0  0
    0.6795   -1.9994   -2.5326 H   0  0  0  0  0  0  0  0  0  0  0  0
   -2.8168   -1.5023    2.0449 H   0  0  0  0  0  0  0  0  0  0  0  0
   -5.1071   -2.4381    1.8225 H   0  0  0  0  0  0  0  0  0  0  0  0
   -5.8319   -3.4973   -0.3323 H   0  0  0  0  0  0  0  0  0  0  0  0
   -4.2306   -3.6416   -2.2561 H   0  0  0  0  0  0  0  0  0  0  0  0
   -1.9269   -2.7266   -2.0403 H   0  0  0  0  0  0  0  0  0  0  0  0
  1  2  1  0  0  0  0
  2  3  1  0  0  0  0
  2  4  1  0  0  0  0
  5  6  1  0  0  0  0
  5  3  1  0  0  0  0
  6 30  1  0  0  0  0
  7 31  1  0  0  0  0
  7  6  2  0  0  0  0
  8  7  1  0  0  0  0
  9  8  2  0  0  0  0
  9 10  1  0  0  0  0
 10 34  1  0  0  0  0
 10  5  2  0  0  0  0
 11  3  1  0  0  0  0
 11 12  1  0  0  0  0
 12 35  1  0  0  0  0
 13 12  2  0  0  0  0
 13 36  1  0  0  0  0
 14 13  1  0  0  0  0
 15 16  1  0  0  0  0
 15 14  2  0  0  0  0
 16 11  2  0  0  0  0
 17  4  1  0  0  0  0
 17 18  1  0  0  0  0
 18 40  1  0  0  0  0
 19 18  2  0  0  0  0
 19 41  1  0  0  0  0
 20 19  1  0  0  0  0
 21 22  1  0  0  0  0
 21 20  2  0  0  0  0
 22 17  2  0  0  0  0
 23  4  1  0  0  0  0
 23 24  1  0  0  0  0
 24 45  1  0  0  0  0
 25 24  2  0  0  0  0
 25 46  1  0  0  0  0
 26 25  1  0  0  0  0
 27 28  1  0  0  0  0
 27 26  2  0  0  0  0
 28 23  2  0  0  0  0
 29  2  1  0  0  0  0
 32  8  1  0  0  0  0
 33  9  1  0  0  0  0
 37 14  1  0  0  0  0
 38 15  1  0  0  0  0
 39 16  1  0  0  0  0
 42 20  1  0  0  0  0
 43 21  1  0  0  0  0
 44 22  1  0  0  0  0
 47 26  1  0  0  0  0
 48 27  1  0  0  0  0
 49 28  1  0  0  0  0
M  END
