1,2
 OpenBabel05122313063D

 64 68  0  0  0  0  0  0  0  0999 V2000
   -0.3832    1.5553   -0.3668 P   0  0  2  0  0  0  0  0  0  0  0  0
   -0.2009   -1.4962   -0.5358 P   0  0  1  0  0  0  0  0  0  0  0  0
   -2.5241   -0.0709   -1.2017 N   0  0  0  0  0  0  0  0  0  0  0  0
   -0.5452   -0.1351    1.9015 N   0  0  0  0  0  0  0  0  0  0  0  0
   -0.9966   -1.3010    1.1980 C   0  0  0  0  0  0  0  0  0  0  0  0
   -2.0921   -1.2418    1.0528 H   0  0  0  0  0  0  0  0  0  0  0  0
   -0.7992   -2.2213    1.7745 H   0  0  0  0  0  0  0  0  0  0  0  0
   -1.0475    1.1090    1.3843 C   0  0  0  0  0  0  0  0  0  0  0  0
   -0.7747    1.9561    2.0347 H   0  0  0  0  0  0  0  0  0  0  0  0
   -2.1540    1.0844    1.3244 H   0  0  0  0  0  0  0  0  0  0  0  0
    0.5630   -0.2041    2.7634 C   0  0  0  0  0  0  0  0  0  0  0  0
    2.0467    0.8153    4.4253 C   0  0  0  0  0  0  0  0  0  0  0  0
    2.3287    1.7065    5.0085 H   0  0  0  0  0  0  0  0  0  0  0  0
    2.3697   -1.4811    3.8203 C   0  0  0  0  0  0  0  0  0  0  0  0
    2.9194   -2.4322    3.9048 H   0  0  0  0  0  0  0  0  0  0  0  0
    2.7811   -0.3761    4.5870 C   0  0  0  0  0  0  0  0  0  0  0  0
    1.2964   -1.4068    2.9258 C   0  0  0  0  0  0  0  0  0  0  0  0
    1.0590   -2.2946    2.3257 H   0  0  0  0  0  0  0  0  0  0  0  0
    0.9668    0.9079    3.5434 C   0  0  0  0  0  0  0  0  0  0  0  0
    0.4329    1.8650    3.4734 H   0  0  0  0  0  0  0  0  0  0  0  0
   -0.0580   -3.3418   -0.6335 C   0  0  0  0  0  0  0  0  0  0  0  0
   -1.2180   -4.0201   -0.5203 N   0  0  0  0  0  0  0  0  0  0  0  0
    0.0258   -6.0867   -0.6557 C   0  0  0  0  0  0  0  0  0  0  0  0
    0.0089   -7.1866   -0.6607 H   0  0  0  0  0  0  0  0  0  0  0  0
    1.1927   -3.9737   -0.7655 C   0  0  0  0  0  0  0  0  0  0  0  0
    2.1090   -3.3763   -0.8661 H   0  0  0  0  0  0  0  0  0  0  0  0
   -1.1709   -5.3606   -0.5316 C   0  0  0  0  0  0  0  0  0  0  0  0
   -2.1377   -5.8859   -0.4379 H   0  0  0  0  0  0  0  0  0  0  0  0
    1.2287   -5.3760   -0.7763 C   0  0  0  0  0  0  0  0  0  0  0  0
    2.1880   -5.9053   -0.8811 H   0  0  0  0  0  0  0  0  0  0  0  0
   -0.4831    3.4041   -0.2770 C   0  0  0  0  0  0  0  0  0  0  0  0
   -1.7092    3.9026   -0.0168 N   0  0  0  0  0  0  0  0  0  0  0  0
    0.6588    4.2115   -0.4324 C   0  0  0  0  0  0  0  0  0  0  0  0
    1.6336    3.7568   -0.6555 H   0  0  0  0  0  0  0  0  0  0  0  0
   -3.7187   -0.1893   -0.4684 C   0  0  0  0  0  0  0  0  0  0  0  0
   -4.4021    0.9525    0.0299 C   0  0  0  0  0  0  0  0  0  0  0  0
   -3.9854    1.9609   -0.0963 H   0  0  0  0  0  0  0  0  0  0  0  0
   -5.4987   -1.5589    0.5230 C   0  0  0  0  0  0  0  0  0  0  0  0
   -5.9034   -2.5644    0.7220 H   0  0  0  0  0  0  0  0  0  0  0  0
   -5.6060    0.8224    0.7326 C   0  0  0  0  0  0  0  0  0  0  0  0
   -6.0966    1.7376    1.1017 H   0  0  0  0  0  0  0  0  0  0  0  0
   -1.8386    5.2324    0.1036 C   0  0  0  0  0  0  0  0  0  0  0  0
   -2.8547    5.6088    0.3166 H   0  0  0  0  0  0  0  0  0  0  0  0
   -4.2942   -1.4565   -0.1829 C   0  0  0  0  0  0  0  0  0  0  0  0
   -3.7909   -2.3859   -0.4808 H   0  0  0  0  0  0  0  0  0  0  0  0
   -1.9070    1.2081   -1.4535 C   0  0  0  0  0  0  0  0  0  0  0  0
   -2.6156    2.0403   -1.3051 H   0  0  0  0  0  0  0  0  0  0  0  0
   -1.5349    1.2476   -2.4988 H   0  0  0  0  0  0  0  0  0  0  0  0
   -1.7517   -1.2191   -1.6102 C   0  0  0  0  0  0  0  0  0  0  0  0
   -1.3883   -1.0820   -2.6495 H   0  0  0  0  0  0  0  0  0  0  0  0
   -2.3418   -2.1500   -1.5659 H   0  0  0  0  0  0  0  0  0  0  0  0
   -6.1960   -0.4292    0.9915 C   0  0  0  0  0  0  0  0  0  0  0  0
   -0.7615    6.1247   -0.0318 C   0  0  0  0  0  0  0  0  0  0  0  0
   -0.9225    7.2077    0.0732 H   0  0  0  0  0  0  0  0  0  0  0  0
   -7.5101   -0.5528    1.7196 C   0  0  0  0  0  0  0  0  0  0  0  0
   -7.6630    0.2827    2.4317 H   0  0  0  0  0  0  0  0  0  0  0  0
   -7.5748   -1.5021    2.2882 H   0  0  0  0  0  0  0  0  0  0  0  0
   -8.3693   -0.5386    1.0137 H   0  0  0  0  0  0  0  0  0  0  0  0
    0.5098    5.6005   -0.3073 C   0  0  0  0  0  0  0  0  0  0  0  0
    1.3793    6.2646   -0.4270 H   0  0  0  0  0  0  0  0  0  0  0  0
    3.9814   -0.4441    5.4953 C   0  0  0  0  0  0  0  0  0  0  0  0
    4.1639   -1.4756    5.8567 H   0  0  0  0  0  0  0  0  0  0  0  0
    3.8647    0.2139    6.3798 H   0  0  0  0  0  0  0  0  0  0  0  0
    4.9018   -0.1158    4.9647 H   0  0  0  0  0  0  0  0  0  0  0  0
  1 31  1  1  0  0  0
  1  8  1  0  0  0  0
  2 21  1  1  0  0  0
  2  5  1  0  0  0  0
  3 35  1  0  0  0  0
  4 11  1  0  0  0  0
  5  7  1  0  0  0  0
  5  4  1  0  0  0  0
  6  5  1  0  0  0  0
  8  4  1  0  0  0  0
  8  9  1  0  0  0  0
 10  8  1  0  0  0  0
 11 17  2  0  0  0  0
 11 19  1  0  0  0  0
 12 16  1  0  0  0  0
 12 13  1  0  0  0  0
 14 15  1  0  0  0  0
 14 16  2  0  0  0  0
 16 61  1  0  0  0  0
 17 14  1  0  0  0  0
 18 17  1  0  0  0  0
 19 12  2  0  0  0  0
 20 19  1  0  0  0  0
 21 22  1  0  0  0  0
 23 27  1  0  0  0  0
 24 23  1  0  0  0  0
 25 21  2  0  0  0  0
 26 25  1  0  0  0  0
 27 22  2  0  0  0  0
 27 28  1  0  0  0  0
 29 25  1  0  0  0  0
 29 23  2  0  0  0  0
 30 29  1  0  0  0  0
 31 32  1  0  0  0  0
 32 42  2  0  0  0  0
 33 59  1  0  0  0  0
 33 31  2  0  0  0  0
 34 33  1  0  0  0  0
 35 44  2  0  0  0  0
 35 36  1  0  0  0  0
 36 40  2  0  0  0  0
 37 36  1  0  0  0  0
 38 39  1  0  0  0  0
 38 52  2  0  0  0  0
 40 52  1  0  0  0  0
 40 41  1  0  0  0  0
 42 43  1  0  0  0  0
 44 38  1  0  0  0  0
 45 44  1  0  0  0  0
 46 47  1  0  0  0  0
 46  3  1  0  0  0  0
 46  1  1  0  0  0  0
 48 46  1  0  0  0  0
 49 51  1  0  0  0  0
 49  3  1  0  0  0  0
 49  2  1  0  0  0  0
 50 49  1  0  0  0  0
 52 55  1  0  0  0  0
 53 54  1  0  0  0  0
 53 42  1  0  0  0  0
 55 57  1  0  0  0  0
 55 56  1  0  0  0  0
 58 55  1  0  0  0  0
 59 53  2  0  0  0  0
 60 59  1  0  0  0  0
 61 62  1  0  0  0  0
 61 63  1  0  0  0  0
 64 61  1  0  0  0  0
M  END
