1,2
 OpenBabel05122313063D

 66 68  0  0  1  0  0  0  0  0999 V2000
   -1.9554    0.1421   -0.3878 P   0  0  2  0  0  0  0  0  0  0  0  0
    1.9555    0.1422   -0.3877 P   0  0  2  0  0  0  0  0  0  0  0  0
   -1.5407    1.6371   -1.4491 C   0  0  0  0  0  0  0  0  0  0  0  0
   -1.0123    1.1923   -2.3185 H   0  0  0  0  0  0  0  0  0  0  0  0
   -2.4765    2.0816   -1.8350 H   0  0  0  0  0  0  0  0  0  0  0  0
   -0.7110    2.7111   -0.7876 C   0  0  0  0  0  0  0  0  0  0  0  0
   -1.3831    3.8111   -0.2099 C   0  0  0  0  0  0  0  0  0  0  0  0
   -2.4798    3.8413   -0.2591 H   0  0  0  0  0  0  0  0  0  0  0  0
   -0.7010    4.8741    0.3917 C   0  0  0  0  0  0  0  0  0  0  0  0
   -1.2639    5.7092    0.8350 H   0  0  0  0  0  0  0  0  0  0  0  0
    0.6999    4.8741    0.3921 C   0  0  0  0  0  0  0  0  0  0  0  0
    1.2626    5.7091    0.8358 H   0  0  0  0  0  0  0  0  0  0  0  0
    1.3824    3.8112   -0.2091 C   0  0  0  0  0  0  0  0  0  0  0  0
    2.4791    3.8413   -0.2577 H   0  0  0  0  0  0  0  0  0  0  0  0
    0.7106    2.7112   -0.7873 C   0  0  0  0  0  0  0  0  0  0  0  0
    1.5407    1.6373   -1.4486 C   0  0  0  0  0  0  0  0  0  0  0  0
    2.4764    2.0821   -1.8343 H   0  0  0  0  0  0  0  0  0  0  0  0
    1.0125    1.1926   -2.3182 H   0  0  0  0  0  0  0  0  0  0  0  0
   -3.3972   -0.7693   -1.2927 C   0  0  0  0  0  0  0  0  0  0  0  0
   -4.2068   -0.6810    0.0460 C   0  0  1  0  0  0  0  0  0  0  0  0
   -3.9464   -1.5917    0.6257 H   0  0  0  0  0  0  0  0  0  0  0  0
   -3.4705    0.5135    0.7502 C   0  0  0  0  0  0  0  0  0  0  0  0
   -3.1538   -2.2046   -1.7503 C   0  0  0  0  0  0  0  0  0  0  0  0
   -4.1319   -2.6861   -1.9680 H   0  0  0  0  0  0  0  0  0  0  0  0
   -2.6467   -2.8100   -0.9772 H   0  0  0  0  0  0  0  0  0  0  0  0
   -2.5476   -2.2496   -2.6754 H   0  0  0  0  0  0  0  0  0  0  0  0
   -4.0007    0.0247   -2.4575 C   0  0  0  0  0  0  0  0  0  0  0  0
   -3.2895    0.0836   -3.3060 H   0  0  0  0  0  0  0  0  0  0  0  0
   -4.3040    1.0551   -2.1948 H   0  0  0  0  0  0  0  0  0  0  0  0
   -4.9084   -0.4947   -2.8305 H   0  0  0  0  0  0  0  0  0  0  0  0
   -5.7278   -0.6207   -0.0536 C   0  0  0  0  0  0  0  0  0  0  0  0
   -6.1877   -0.5728    0.9547 H   0  0  0  0  0  0  0  0  0  0  0  0
   -6.1232   -1.5312   -0.5487 H   0  0  0  0  0  0  0  0  0  0  0  0
   -6.0862    0.2559   -0.6284 H   0  0  0  0  0  0  0  0  0  0  0  0
   -4.1463    1.8718    0.5442 C   0  0  0  0  0  0  0  0  0  0  0  0
   -5.1498    1.8589    1.0188 H   0  0  0  0  0  0  0  0  0  0  0  0
   -4.2914    2.1558   -0.5151 H   0  0  0  0  0  0  0  0  0  0  0  0
   -3.5649    2.6708    1.0409 H   0  0  0  0  0  0  0  0  0  0  0  0
   -3.2547    0.2989    2.2467 C   0  0  0  0  0  0  0  0  0  0  0  0
   -2.6618    1.1196    2.6954 H   0  0  0  0  0  0  0  0  0  0  0  0
   -2.7395   -0.6543    2.4637 H   0  0  0  0  0  0  0  0  0  0  0  0
   -4.2401    0.2756    2.7606 H   0  0  0  0  0  0  0  0  0  0  0  0
    3.4706    0.5135    0.7503 C   0  0  0  0  0  0  0  0  0  0  0  0
    4.2071   -0.6807    0.0457 C   0  0  1  0  0  0  0  0  0  0  0  0
    3.9470   -1.5916    0.6252 H   0  0  0  0  0  0  0  0  0  0  0  0
    3.3972   -0.7688   -1.2928 C   0  0  0  0  0  0  0  0  0  0  0  0
    3.2551    0.2983    2.2468 C   0  0  0  0  0  0  0  0  0  0  0  0
    4.2406    0.2750    2.7605 H   0  0  0  0  0  0  0  0  0  0  0  0
    2.7400   -0.6550    2.4635 H   0  0  0  0  0  0  0  0  0  0  0  0
    2.6622    1.1189    2.6959 H   0  0  0  0  0  0  0  0  0  0  0  0
    4.1462    1.8720    0.5447 C   0  0  0  0  0  0  0  0  0  0  0  0
    3.5647    2.6707    1.0418 H   0  0  0  0  0  0  0  0  0  0  0  0
    4.2911    2.1564   -0.5146 H   0  0  0  0  0  0  0  0  0  0  0  0
    5.1498    1.8591    1.0191 H   0  0  0  0  0  0  0  0  0  0  0  0
    5.7281   -0.6200   -0.0542 C   0  0  0  0  0  0  0  0  0  0  0  0
    6.1236   -1.5303   -0.5495 H   0  0  0  0  0  0  0  0  0  0  0  0
    6.1881   -0.5721    0.9541 H   0  0  0  0  0  0  0  0  0  0  0  0
    6.0862    0.2568   -0.6289 H   0  0  0  0  0  0  0  0  0  0  0  0
    4.0005    0.0253   -2.4577 C   0  0  0  0  0  0  0  0  0  0  0  0
    4.9082   -0.4940   -2.8309 H   0  0  0  0  0  0  0  0  0  0  0  0
    4.3037    1.0557   -2.1950 H   0  0  0  0  0  0  0  0  0  0  0  0
    3.2892    0.0842   -3.3060 H   0  0  0  0  0  0  0  0  0  0  0  0
    3.1540   -2.2042   -1.7506 C   0  0  0  0  0  0  0  0  0  0  0  0
    2.5475   -2.2492   -2.6756 H   0  0  0  0  0  0  0  0  0  0  0  0
    2.6471   -2.8097   -0.9775 H   0  0  0  0  0  0  0  0  0  0  0  0
    4.1321   -2.6855   -1.9685 H   0  0  0  0  0  0  0  0  0  0  0  0
  1  3  1  6  0  0  0
  1 22  1  0  0  0  0
  2 16  1  6  0  0  0
  2 43  1  0  0  0  0
  3  6  1  0  0  0  0
  4  3  1  0  0  0  0
  5  3  1  0  0  0  0
  6 15  2  0  0  0  0
  6  7  1  0  0  0  0
  7  9  2  0  0  0  0
  8  7  1  0  0  0  0
  9 11  1  0  0  0  0
  9 10  1  0  0  0  0
 11 12  1  0  0  0  0
 13 11  2  0  0  0  0
 14 13  1  0  0  0  0
 15 13  1  0  0  0  0
 16 15  1  0  0  0  0
 17 16  1  0  0  0  0
 18 16  1  0  0  0  0
 19  1  1  0  0  0  0
 19 20  1  0  0  0  0
 20 21  1  1  0  0  0
 20 22  1  0  0  0  0
 22 39  1  0  0  0  0
 23 19  1  0  0  0  0
 23 25  1  0  0  0  0
 24 23  1  0  0  0  0
 26 23  1  0  0  0  0
 27 29  1  0  0  0  0
 27 19  1  0  0  0  0
 28 27  1  0  0  0  0
 30 27  1  0  0  0  0
 31 20  1  0  0  0  0
 31 32  1  0  0  0  0
 33 31  1  0  0  0  0
 34 31  1  0  0  0  0
 35 22  1  0  0  0  0
 35 36  1  0  0  0  0
 35 38  1  0  0  0  0
 37 35  1  0  0  0  0
 39 41  1  0  0  0  0
 39 40  1  0  0  0  0
 39 42  1  0  0  0  0
 43 47  1  0  0  0  0
 44 45  1  1  0  0  0
 44 43  1  0  0  0  0
 46  2  1  0  0  0  0
 46 44  1  0  0  0  0
 47 49  1  0  0  0  0
 47 50  1  0  0  0  0
 47 48  1  0  0  0  0
 51 43  1  0  0  0  0
 51 54  1  0  0  0  0
 51 52  1  0  0  0  0
 53 51  1  0  0  0  0
 55 44  1  0  0  0  0
 55 57  1  0  0  0  0
 56 55  1  0  0  0  0
 58 55  1  0  0  0  0
 59 61  1  0  0  0  0
 59 46  1  0  0  0  0
 60 59  1  0  0  0  0
 62 59  1  0  0  0  0
 63 46  1  0  0  0  0
 63 65  1  0  0  0  0
 64 63  1  0  0  0  0
 66 63  1  0  0  0  0
M  END
