1,2
 OpenBabel05122313063D

 45 48  0  0  0  0  0  0  0  0999 V2000
    1.2615    0.0515    0.4210 P   0  0  0  0  0  0  0  0  0  0  0  0
   -1.4246   -0.0604    0.6903 P   0  0  0  0  0  0  0  0  0  0  0  0
   -2.5063   -1.1944    1.3991 N   0  0  0  0  0  0  0  0  0  0  0  0
   -2.2150    1.4782    0.7361 N   0  0  0  0  0  0  0  0  0  0  0  0
    2.5946   -1.0917    0.8933 C   0  0  0  0  0  0  0  0  0  0  0  0
    3.1715   -1.9016   -0.1062 C   0  0  0  0  0  0  0  0  0  0  0  0
    2.7932   -1.8363   -1.1415 H   0  0  0  0  0  0  0  0  0  0  0  0
    4.2142   -2.7757    0.2366 C   0  0  0  0  0  0  0  0  0  0  0  0
    4.6644   -3.4115   -0.5403 H   0  0  0  0  0  0  0  0  0  0  0  0
    4.6748   -2.8470    1.5609 C   0  0  0  0  0  0  0  0  0  0  0  0
    5.4888   -3.5396    1.8237 H   0  0  0  0  0  0  0  0  0  0  0  0
    4.0965   -2.0398    2.5551 C   0  0  0  0  0  0  0  0  0  0  0  0
    4.4561   -2.0970    3.5935 H   0  0  0  0  0  0  0  0  0  0  0  0
    3.0565   -1.1594    2.2252 C   0  0  0  0  0  0  0  0  0  0  0  0
    2.6092   -0.5242    3.0060 H   0  0  0  0  0  0  0  0  0  0  0  0
    1.9678    1.7333    0.3298 C   0  0  0  0  0  0  0  0  0  0  0  0
    3.3062    1.9993    0.6776 C   0  0  0  0  0  0  0  0  0  0  0  0
    3.9678    1.1813    0.9989 H   0  0  0  0  0  0  0  0  0  0  0  0
    3.7944    3.3132    0.6035 C   0  0  0  0  0  0  0  0  0  0  0  0
    4.8420    3.5196    0.8698 H   0  0  0  0  0  0  0  0  0  0  0  0
    2.9537    4.3567    0.1867 C   0  0  0  0  0  0  0  0  0  0  0  0
    3.3416    5.3849    0.1283 H   0  0  0  0  0  0  0  0  0  0  0  0
    1.6214    4.0878   -0.1695 C   0  0  0  0  0  0  0  0  0  0  0  0
    0.9618    4.8999   -0.5098 H   0  0  0  0  0  0  0  0  0  0  0  0
    1.1271    2.7787   -0.1097 C   0  0  0  0  0  0  0  0  0  0  0  0
    0.0918    2.5656   -0.4203 H   0  0  0  0  0  0  0  0  0  0  0  0
   -2.8517   -1.3059    2.7497 C   0  0  0  0  0  0  0  0  0  0  0  0
   -2.3509   -0.7034    3.5151 H   0  0  0  0  0  0  0  0  0  0  0  0
   -3.8533   -2.2537    2.8472 C   0  0  0  0  0  0  0  0  0  0  0  0
   -4.3296   -2.5817    3.7786 H   0  0  0  0  0  0  0  0  0  0  0  0
   -4.1377   -2.7277    1.5224 C   0  0  0  0  0  0  0  0  0  0  0  0
   -4.8754   -3.4884    1.2434 H   0  0  0  0  0  0  0  0  0  0  0  0
   -3.3039   -2.0631    0.6440 C   0  0  0  0  0  0  0  0  0  0  0  0
   -3.1862   -2.0946   -0.4483 H   0  0  0  0  0  0  0  0  0  0  0  0
   -2.4662    2.2854    1.8468 C   0  0  0  0  0  0  0  0  0  0  0  0
   -2.1572    1.9822    2.8525 H   0  0  0  0  0  0  0  0  0  0  0  0
   -3.1314    3.4149    1.4046 C   0  0  0  0  0  0  0  0  0  0  0  0
   -3.4624    4.2465    2.0376 H   0  0  0  0  0  0  0  0  0  0  0  0
   -3.3009    3.2936   -0.0150 C   0  0  0  0  0  0  0  0  0  0  0  0
   -3.7915    4.0125   -0.6808 H   0  0  0  0  0  0  0  0  0  0  0  0
   -2.7349    2.0951   -0.4084 C   0  0  0  0  0  0  0  0  0  0  0  0
   -2.6635    1.5877   -1.3797 H   0  0  0  0  0  0  0  0  0  0  0  0
    0.0177    0.0967    1.8417 C   0  0  0  0  0  0  0  0  0  0  0  0
    0.1128   -0.8166    2.4625 H   0  0  0  0  0  0  0  0  0  0  0  0
    0.0543    1.0056    2.4723 H   0  0  0  0  0  0  0  0  0  0  0  0
  1  5  1  0  0  0  0
  1 43  1  0  0  0  0
  2  4  1  0  0  0  0
  2  3  1  0  0  0  0
  2 43  1  0  0  0  0
  3 27  1  0  0  0  0
  4 35  1  0  0  0  0
  5 14  1  0  0  0  0
  6  8  1  0  0  0  0
  6  5  2  0  0  0  0
  7  6  1  0  0  0  0
  8 10  2  0  0  0  0
  9  8  1  0  0  0  0
 10 11  1  0  0  0  0
 10 12  1  0  0  0  0
 12 13  1  0  0  0  0
 14 12  2  0  0  0  0
 14 15  1  0  0  0  0
 16  1  1  0  0  0  0
 16 17  1  0  0  0  0
 17 18  1  0  0  0  0
 19 17  2  0  0  0  0
 19 20  1  0  0  0  0
 21 19  1  0  0  0  0
 22 21  1  0  0  0  0
 23 25  1  0  0  0  0
 23 21  2  0  0  0  0
 24 23  1  0  0  0  0
 25 16  2  0  0  0  0
 26 25  1  0  0  0  0
 27 29  2  0  0  0  0
 27 28  1  0  0  0  0
 29 30  1  0  0  0  0
 31 29  1  0  0  0  0
 32 31  1  0  0  0  0
 33  3  1  0  0  0  0
 33 31  2  0  0  0  0
 34 33  1  0  0  0  0
 35 36  1  0  0  0  0
 37 35  2  0  0  0  0
 37 38  1  0  0  0  0
 39 37  1  0  0  0  0
 40 39  1  0  0  0  0
 41 39  2  0  0  0  0
 41  4  1  0  0  0  0
 42 41  1  0  0  0  0
 43 44  1  0  0  0  0
 43 45  1  0  0  0  0
M  END
