1,2
 OpenBabel05122313063D

 75 81  0  0  0  0  0  0  0  0999 V2000
    0.9660   -1.6840    0.3267 P   0  0  0  0  0  0  0  0  0  0  0  0
    0.9663    1.6838   -0.3267 P   0  0  0  0  0  0  0  0  0  0  0  0
   -0.6948   -1.6227    0.0464 O   0  0  0  0  0  0  0  0  0  0  0  0
   -0.6945    1.6229   -0.0468 O   0  0  0  0  0  0  0  0  0  0  0  0
   -1.5670   -0.8716    0.8887 C   0  0  0  0  0  0  0  0  0  0  0  0
   -0.9953   -0.2209    1.5849 H   0  0  0  0  0  0  0  0  0  0  0  0
   -2.1791   -1.5705    1.4968 H   0  0  0  0  0  0  0  0  0  0  0  0
   -1.5668    0.8719   -0.8891 C   0  0  0  0  0  0  0  0  0  0  0  0
   -0.9952    0.2211   -1.5852 H   0  0  0  0  0  0  0  0  0  0  0  0
   -2.1788    1.5709   -1.4971 H   0  0  0  0  0  0  0  0  0  0  0  0
   -2.4740    0.0002   -0.0002 C   0  0  0  0  0  0  0  0  0  0  0  0
   -3.4312   -0.8328   -0.8466 C   0  0  0  0  0  0  0  0  0  0  0  0
   -4.7765   -0.5133   -0.5249 C   0  0  0  0  0  0  0  0  0  0  0  0
   -5.8375   -1.1596   -1.1798 C   0  0  0  0  0  0  0  0  0  0  0  0
   -6.8821   -0.9147   -0.9340 H   0  0  0  0  0  0  0  0  0  0  0  0
   -5.5430   -2.1265   -2.1546 C   0  0  0  0  0  0  0  0  0  0  0  0
   -6.3637   -2.6414   -2.6771 H   0  0  0  0  0  0  0  0  0  0  0  0
   -4.2093   -2.4466   -2.4676 C   0  0  0  0  0  0  0  0  0  0  0  0
   -3.9963   -3.2127   -3.2285 H   0  0  0  0  0  0  0  0  0  0  0  0
   -3.1423   -1.8011   -1.8147 C   0  0  0  0  0  0  0  0  0  0  0  0
   -2.1019   -2.0689   -2.0454 H   0  0  0  0  0  0  0  0  0  0  0  0
   -3.4311    0.8334    0.8463 C   0  0  0  0  0  0  0  0  0  0  0  0
   -4.7764    0.5143    0.5246 C   0  0  0  0  0  0  0  0  0  0  0  0
   -5.8373    1.1608    1.1793 C   0  0  0  0  0  0  0  0  0  0  0  0
   -6.8820    0.9161    0.9336 H   0  0  0  0  0  0  0  0  0  0  0  0
   -5.5426    2.1276    2.1542 C   0  0  0  0  0  0  0  0  0  0  0  0
   -6.3632    2.6427    2.6766 H   0  0  0  0  0  0  0  0  0  0  0  0
   -4.2088    2.4474    2.4672 C   0  0  0  0  0  0  0  0  0  0  0  0
   -3.9957    3.2135    3.2281 H   0  0  0  0  0  0  0  0  0  0  0  0
   -3.1420    1.8017    1.8144 C   0  0  0  0  0  0  0  0  0  0  0  0
   -2.1015    2.0692    2.0451 H   0  0  0  0  0  0  0  0  0  0  0  0
    0.9788   -2.4083    2.0090 C   0  0  0  0  0  0  0  0  0  0  0  0
    1.7455   -1.8300    3.0383 C   0  0  0  0  0  0  0  0  0  0  0  0
    2.4285   -1.0018    2.7980 H   0  0  0  0  0  0  0  0  0  0  0  0
    1.6592   -2.3403    4.3412 C   0  0  0  0  0  0  0  0  0  0  0  0
    2.2623   -1.8893    5.1436 H   0  0  0  0  0  0  0  0  0  0  0  0
    0.8130   -3.4262    4.6199 C   0  0  0  0  0  0  0  0  0  0  0  0
    0.7513   -3.8273    5.6431 H   0  0  0  0  0  0  0  0  0  0  0  0
    0.0439   -4.0007    3.5945 C   0  0  0  0  0  0  0  0  0  0  0  0
   -0.6206   -4.8509    3.8114 H   0  0  0  0  0  0  0  0  0  0  0  0
    0.1171   -3.4891    2.2909 C   0  0  0  0  0  0  0  0  0  0  0  0
   -0.4952   -3.9245    1.4861 H   0  0  0  0  0  0  0  0  0  0  0  0
    1.2567   -3.0172   -0.8917 C   0  0  0  0  0  0  0  0  0  0  0  0
    0.8199   -2.8117   -2.2155 C   0  0  0  0  0  0  0  0  0  0  0  0
    0.3214   -1.8699   -2.4921 H   0  0  0  0  0  0  0  0  0  0  0  0
    1.0318   -3.8015   -3.1861 C   0  0  0  0  0  0  0  0  0  0  0  0
    0.6903   -3.6352   -4.2190 H   0  0  0  0  0  0  0  0  0  0  0  0
    1.6822   -4.9967   -2.8403 C   0  0  0  0  0  0  0  0  0  0  0  0
    1.8498   -5.7729   -3.6023 H   0  0  0  0  0  0  0  0  0  0  0  0
    2.1279   -5.1959   -1.5238 C   0  0  0  0  0  0  0  0  0  0  0  0
    2.6477   -6.1270   -1.2519 H   0  0  0  0  0  0  0  0  0  0  0  0
    1.9237   -4.2077   -0.5501 C   0  0  0  0  0  0  0  0  0  0  0  0
    2.2917   -4.3517    0.4757 H   0  0  0  0  0  0  0  0  0  0  0  0
    1.2571    3.0169    0.8918 C   0  0  0  0  0  0  0  0  0  0  0  0
    1.9241    4.2074    0.5503 C   0  0  0  0  0  0  0  0  0  0  0  0
    2.2923    4.3515   -0.4754 H   0  0  0  0  0  0  0  0  0  0  0  0
    2.1283    5.1955    1.5241 C   0  0  0  0  0  0  0  0  0  0  0  0
    2.6482    6.1266    1.2524 H   0  0  0  0  0  0  0  0  0  0  0  0
    1.6825    4.9962    2.8406 C   0  0  0  0  0  0  0  0  0  0  0  0
    1.8502    5.7723    3.6027 H   0  0  0  0  0  0  0  0  0  0  0  0
    1.0321    3.8009    3.1862 C   0  0  0  0  0  0  0  0  0  0  0  0
    0.6905    3.6346    4.2191 H   0  0  0  0  0  0  0  0  0  0  0  0
    0.8202    2.8113    2.2156 C   0  0  0  0  0  0  0  0  0  0  0  0
    0.3217    1.8695    2.4921 H   0  0  0  0  0  0  0  0  0  0  0  0
    0.9795    2.4081   -2.0090 C   0  0  0  0  0  0  0  0  0  0  0  0
    1.7465    1.8298   -3.0381 C   0  0  0  0  0  0  0  0  0  0  0  0
    2.4293    1.0015   -2.7977 H   0  0  0  0  0  0  0  0  0  0  0  0
    1.6606    2.3403   -4.3410 C   0  0  0  0  0  0  0  0  0  0  0  0
    2.2639    1.8893   -5.1433 H   0  0  0  0  0  0  0  0  0  0  0  0
    0.8147    3.4263   -4.6199 C   0  0  0  0  0  0  0  0  0  0  0  0
    0.7533    3.8276   -5.6430 H   0  0  0  0  0  0  0  0  0  0  0  0
    0.0453    4.0008   -3.5946 C   0  0  0  0  0  0  0  0  0  0  0  0
   -0.6190    4.8511   -3.8117 H   0  0  0  0  0  0  0  0  0  0  0  0
    0.1181    3.4890   -2.2910 C   0  0  0  0  0  0  0  0  0  0  0  0
   -0.4944    3.9245   -1.4864 H   0  0  0  0  0  0  0  0  0  0  0  0
  1 32  1  0  0  0  0
  2  4  1  0  0  0  0
  2 54  1  0  0  0  0
  3  1  1  0  0  0  0
  3  5  1  0  0  0  0
  5  7  1  0  0  0  0
  5  6  1  0  0  0  0
  8  4  1  0  0  0  0
  8 11  1  0  0  0  0
  9  8  1  0  0  0  0
 10  8  1  0  0  0  0
 11 22  1  0  0  0  0
 11  5  1  0  0  0  0
 12 13  1  0  0  0  0
 12 11  1  0  0  0  0
 13 23  1  0  0  0  0
 14 15  1  0  0  0  0
 14 13  2  0  0  0  0
 16 14  1  0  0  0  0
 17 16  1  0  0  0  0
 18 16  2  0  0  0  0
 18 20  1  0  0  0  0
 19 18  1  0  0  0  0
 20 12  2  0  0  0  0
 21 20  1  0  0  0  0
 22 30  1  0  0  0  0
 23 22  2  0  0  0  0
 23 24  1  0  0  0  0
 24 26  2  0  0  0  0
 25 24  1  0  0  0  0
 26 28  1  0  0  0  0
 26 27  1  0  0  0  0
 28 29  1  0  0  0  0
 30 31  1  0  0  0  0
 30 28  2  0  0  0  0
 32 41  2  0  0  0  0
 32 33  1  0  0  0  0
 33 35  2  0  0  0  0
 34 33  1  0  0  0  0
 35 37  1  0  0  0  0
 35 36  1  0  0  0  0
 37 38  1  0  0  0  0
 39 40  1  0  0  0  0
 39 37  2  0  0  0  0
 41 39  1  0  0  0  0
 42 41  1  0  0  0  0
 43 52  1  0  0  0  0
 43  1  1  0  0  0  0
 44 43  2  0  0  0  0
 45 44  1  0  0  0  0
 46 48  2  0  0  0  0
 46 44  1  0  0  0  0
 47 46  1  0  0  0  0
 48 50  1  0  0  0  0
 49 48  1  0  0  0  0
 50 51  1  0  0  0  0
 50 52  2  0  0  0  0
 52 53  1  0  0  0  0
 54 63  1  0  0  0  0
 55 54  2  0  0  0  0
 55 57  1  0  0  0  0
 56 55  1  0  0  0  0
 57 59  2  0  0  0  0
 58 57  1  0  0  0  0
 59 61  1  0  0  0  0
 59 60  1  0  0  0  0
 61 62  1  0  0  0  0
 63 64  1  0  0  0  0
 63 61  2  0  0  0  0
 65  2  1  0  0  0  0
 66 67  1  0  0  0  0
 66 65  2  0  0  0  0
 68 66  1  0  0  0  0
 69 68  1  0  0  0  0
 70 68  2  0  0  0  0
 70 72  1  0  0  0  0
 71 70  1  0  0  0  0
 72 74  2  0  0  0  0
 73 72  1  0  0  0  0
 74 65  1  0  0  0  0
 74 75  1  0  0  0  0
M  END
