1,2
 OpenBabel05122313063D

 57 60  0  0  0  0  0  0  0  0999 V2000
    1.3042    0.1106   -0.1082 P   0  0  0  0  0  0  0  0  0  0  0  0
   -1.3489    0.0368   -0.0826 P   0  0  0  0  0  0  0  0  0  0  0  0
   -0.0348    0.0682   -1.2331 N   0  0  0  0  0  0  0  0  0  0  0  0
    2.2522    1.6371   -0.3772 C   0  0  0  0  0  0  0  0  0  0  0  0
    1.6392    2.7652   -0.9577 C   0  0  0  0  0  0  0  0  0  0  0  0
    0.6073    2.6903   -1.3298 H   0  0  0  0  0  0  0  0  0  0  0  0
    2.3386    3.9770   -1.0348 C   0  0  0  0  0  0  0  0  0  0  0  0
    1.8597    4.8549   -1.4941 H   0  0  0  0  0  0  0  0  0  0  0  0
    3.6398    4.0739   -0.5146 C   0  0  0  0  0  0  0  0  0  0  0  0
    4.1857    5.0277   -0.5723 H   0  0  0  0  0  0  0  0  0  0  0  0
    4.2364    2.9598    0.0980 C   0  0  0  0  0  0  0  0  0  0  0  0
    5.2454    3.0409    0.5293 H   0  0  0  0  0  0  0  0  0  0  0  0
    3.5464    1.7420    0.1764 C   0  0  0  0  0  0  0  0  0  0  0  0
    3.9982    0.8793    0.6884 H   0  0  0  0  0  0  0  0  0  0  0  0
    2.4366   -1.2846   -0.4173 C   0  0  0  0  0  0  0  0  0  0  0  0
    3.4788   -1.2127   -1.3647 C   0  0  0  0  0  0  0  0  0  0  0  0
    3.6751   -0.2717   -1.9007 H   0  0  0  0  0  0  0  0  0  0  0  0
    4.2713   -2.3417   -1.6162 C   0  0  0  0  0  0  0  0  0  0  0  0
    5.0838   -2.2856   -2.3563 H   0  0  0  0  0  0  0  0  0  0  0  0
    4.0306   -3.5388   -0.9212 C   0  0  0  0  0  0  0  0  0  0  0  0
    4.6554   -4.4230   -1.1194 H   0  0  0  0  0  0  0  0  0  0  0  0
    3.0072   -3.6040    0.0385 C   0  0  0  0  0  0  0  0  0  0  0  0
    2.8344   -4.5341    0.6002 H   0  0  0  0  0  0  0  0  0  0  0  0
    2.2134   -2.4785    0.2984 C   0  0  0  0  0  0  0  0  0  0  0  0
    1.4294   -2.5040    1.0709 H   0  0  0  0  0  0  0  0  0  0  0  0
   -2.3751   -1.4318   -0.4222 C   0  0  0  0  0  0  0  0  0  0  0  0
   -2.1370   -2.5999    0.3308 C   0  0  0  0  0  0  0  0  0  0  0  0
   -1.4074   -2.5695    1.1552 H   0  0  0  0  0  0  0  0  0  0  0  0
   -2.8541   -3.7692    0.0414 C   0  0  0  0  0  0  0  0  0  0  0  0
   -2.6750   -4.6792    0.6334 H   0  0  0  0  0  0  0  0  0  0  0  0
   -3.8089   -3.7743   -0.9891 C   0  0  0  0  0  0  0  0  0  0  0  0
   -4.3719   -4.6935   -1.2114 H   0  0  0  0  0  0  0  0  0  0  0  0
   -4.0622   -2.6040   -1.7241 C   0  0  0  0  0  0  0  0  0  0  0  0
   -4.8233   -2.6045   -2.5189 H   0  0  0  0  0  0  0  0  0  0  0  0
   -3.3529   -1.4285   -1.4383 C   0  0  0  0  0  0  0  0  0  0  0  0
   -3.5655   -0.5036   -1.9967 H   0  0  0  0  0  0  0  0  0  0  0  0
   -2.4211    1.4713   -0.4081 C   0  0  0  0  0  0  0  0  0  0  0  0
   -2.3215    2.2706   -1.5638 C   0  0  0  0  0  0  0  0  0  0  0  0
   -1.5719    2.0405   -2.3351 H   0  0  0  0  0  0  0  0  0  0  0  0
   -3.1792    3.3701   -1.7247 C   0  0  0  0  0  0  0  0  0  0  0  0
   -3.1043    3.9934   -2.6287 H   0  0  0  0  0  0  0  0  0  0  0  0
   -4.1251    3.6757   -0.7334 C   0  0  0  0  0  0  0  0  0  0  0  0
   -4.7934    4.5408   -0.8610 H   0  0  0  0  0  0  0  0  0  0  0  0
   -4.2088    2.8884    0.4278 C   0  0  0  0  0  0  0  0  0  0  0  0
   -4.9341    3.1417    1.2157 H   0  0  0  0  0  0  0  0  0  0  0  0
   -3.3583    1.7879    0.5999 C   0  0  0  0  0  0  0  0  0  0  0  0
   -3.3797    1.1883    1.5269 H   0  0  0  0  0  0  0  0  0  0  0  0
   -0.1048   -0.3336   -2.6562 C   0  0  0  0  0  0  0  0  0  0  0  0
   -1.1534   -0.1142   -2.9571 H   0  0  0  0  0  0  0  0  0  0  0  0
    0.8229    0.5163   -3.5269 C   0  0  0  0  0  0  0  0  0  0  0  0
    0.5846    1.5948   -3.4552 H   0  0  0  0  0  0  0  0  0  0  0  0
    0.7353    0.2080   -4.5876 H   0  0  0  0  0  0  0  0  0  0  0  0
    1.8818    0.3849   -3.2279 H   0  0  0  0  0  0  0  0  0  0  0  0
    0.1256   -1.8377   -2.8599 C   0  0  0  0  0  0  0  0  0  0  0  0
   -0.5359   -2.4323   -2.2016 H   0  0  0  0  0  0  0  0  0  0  0  0
    1.1739   -2.1187   -2.6433 H   0  0  0  0  0  0  0  0  0  0  0  0
   -0.0932   -2.1155   -3.9107 H   0  0  0  0  0  0  0  0  0  0  0  0
  3  1  1  0  0  0  0
  3  2  1  0  0  0  0
  4  1  1  0  0  0  0
  4 13  1  0  0  0  0
  5  4  2  0  0  0  0
  6  5  1  0  0  0  0
  7  5  1  0  0  0  0
  7  9  2  0  0  0  0
  8  7  1  0  0  0  0
  9 11  1  0  0  0  0
 10  9  1  0  0  0  0
 11 13  2  0  0  0  0
 11 12  1  0  0  0  0
 13 14  1  0  0  0  0
 15  1  1  0  0  0  0
 15 24  1  0  0  0  0
 16 15  2  0  0  0  0
 17 16  1  0  0  0  0
 18 16  1  0  0  0  0
 18 20  2  0  0  0  0
 19 18  1  0  0  0  0
 20 22  1  0  0  0  0
 21 20  1  0  0  0  0
 22 24  2  0  0  0  0
 22 23  1  0  0  0  0
 24 25  1  0  0  0  0
 26  2  1  0  0  0  0
 26 27  1  0  0  0  0
 27 28  1  0  0  0  0
 29 27  2  0  0  0  0
 29 30  1  0  0  0  0
 31 29  1  0  0  0  0
 32 31  1  0  0  0  0
 33 35  1  0  0  0  0
 33 31  2  0  0  0  0
 34 33  1  0  0  0  0
 35 26  2  0  0  0  0
 36 35  1  0  0  0  0
 37  2  1  0  0  0  0
 37 46  1  0  0  0  0
 38 37  2  0  0  0  0
 39 38  1  0  0  0  0
 40 38  1  0  0  0  0
 40 42  2  0  0  0  0
 41 40  1  0  0  0  0
 42 44  1  0  0  0  0
 43 42  1  0  0  0  0
 44 46  2  0  0  0  0
 44 45  1  0  0  0  0
 46 47  1  0  0  0  0
 48  3  1  0  0  0  0
 49 48  1  0  0  0  0
 50 51  1  0  0  0  0
 50 53  1  0  0  0  0
 50 48  1  0  0  0  0
 52 50  1  0  0  0  0
 54 48  1  0  0  0  0
 54 56  1  0  0  0  0
 54 55  1  0  0  0  0
 57 54  1  0  0  0  0
M  END
