1,2
 OpenBabel05122313063D

 70 74  0  0  1  0  0  0  0  0999 V2000
   -1.7374    0.2595    0.3545 P   0  0  0  0  0  0  0  0  0  0  0  0
    1.6590   -0.4538   -0.2528 P   0  0  0  0  0  0  0  0  0  0  0  0
    1.0107    3.1405    0.1164 C   0  0  0  0  0  0  0  0  0  0  0  0
    1.0323    4.0639    1.1868 C   0  0  0  0  0  0  0  0  0  0  0  0
    0.1669    4.1255    1.8619 H   0  0  0  0  0  0  0  0  0  0  0  0
    2.1433    4.8903    1.3937 C   0  0  0  0  0  0  0  0  0  0  0  0
    2.1411    5.5992    2.2359 H   0  0  0  0  0  0  0  0  0  0  0  0
    3.2452    4.8213    0.5293 C   0  0  0  0  0  0  0  0  0  0  0  0
    4.1180    5.4733    0.6794 H   0  0  0  0  0  0  0  0  0  0  0  0
    3.2212    3.9079   -0.5392 C   0  0  0  0  0  0  0  0  0  0  0  0
    4.0925    3.8498   -1.2086 H   0  0  0  0  0  0  0  0  0  0  0  0
    2.1323    3.0502   -0.7654 C   0  0  0  0  0  0  0  0  0  0  0  0
    2.1880    1.9676   -1.8404 C   0  0  2  0  0  0  0  0  0  0  0  0
    1.1612    1.7649   -2.2193 H   0  0  0  0  0  0  0  0  0  0  0  0
    2.7429    0.6212   -1.3031 C   0  0  0  0  0  0  0  0  0  0  0  0
    3.7143    0.7779   -0.7904 H   0  0  0  0  0  0  0  0  0  0  0  0
    2.9147   -0.0585   -2.1642 H   0  0  0  0  0  0  0  0  0  0  0  0
    3.0058    2.3730   -3.0767 C   0  0  0  0  0  0  0  0  0  0  0  0
    2.6779    3.3575   -3.4643 H   0  0  0  0  0  0  0  0  0  0  0  0
    2.8760    1.6193   -3.8780 H   0  0  0  0  0  0  0  0  0  0  0  0
    4.0905    2.4372   -2.8542 H   0  0  0  0  0  0  0  0  0  0  0  0
    2.6173   -2.0256   -0.1034 C   0  0  0  0  0  0  0  0  0  0  0  0
    3.9616   -1.9671    0.3191 C   0  0  0  0  0  0  0  0  0  0  0  0
    4.4393   -0.9969    0.5265 H   0  0  0  0  0  0  0  0  0  0  0  0
    4.6968   -3.1474    0.4975 C   0  0  0  0  0  0  0  0  0  0  0  0
    5.7481   -3.0923    0.8183 H   0  0  0  0  0  0  0  0  0  0  0  0
    4.0890   -4.3940    0.2767 C   0  0  0  0  0  0  0  0  0  0  0  0
    4.6652   -5.3207    0.4204 H   0  0  0  0  0  0  0  0  0  0  0  0
    2.7453   -4.4552   -0.1231 C   0  0  0  0  0  0  0  0  0  0  0  0
    2.2631   -5.4291   -0.2959 H   0  0  0  0  0  0  0  0  0  0  0  0
    2.0092   -3.2768   -0.3179 C   0  0  0  0  0  0  0  0  0  0  0  0
    0.9630   -3.3218   -0.6532 H   0  0  0  0  0  0  0  0  0  0  0  0
    1.7625    0.0911    1.5003 C   0  0  0  0  0  0  0  0  0  0  0  0
    2.5685    1.1543    1.9497 C   0  0  0  0  0  0  0  0  0  0  0  0
    3.1581    1.7530    1.2424 H   0  0  0  0  0  0  0  0  0  0  0  0
    2.6024    1.4783    3.3163 C   0  0  0  0  0  0  0  0  0  0  0  0
    3.2218    2.3234    3.6519 H   0  0  0  0  0  0  0  0  0  0  0  0
    1.8467    0.7413    4.2400 C   0  0  0  0  0  0  0  0  0  0  0  0
    1.8759    1.0012    5.3091 H   0  0  0  0  0  0  0  0  0  0  0  0
    1.0550   -0.3327    3.7970 C   0  0  0  0  0  0  0  0  0  0  0  0
    0.4594   -0.9193    4.5123 H   0  0  0  0  0  0  0  0  0  0  0  0
    1.0144   -0.6577    2.4352 C   0  0  0  0  0  0  0  0  0  0  0  0
    0.3943   -1.4997    2.0896 H   0  0  0  0  0  0  0  0  0  0  0  0
   -0.9138    1.8183    0.9981 C   0  0  0  0  0  0  0  0  0  0  0  0
   -1.7299    2.5277    1.2622 H   0  0  0  0  0  0  0  0  0  0  0  0
   -0.3356    1.5885    1.9215 H   0  0  0  0  0  0  0  0  0  0  0  0
   -0.0685    2.2941   -0.0690 N   0  0  0  0  0  0  0  0  0  0  0  0
    0.0198    1.6290   -0.8475 H   0  0  0  0  0  0  0  0  0  0  0  0
   -2.3464   -0.6637    1.8068 C   0  0  0  0  0  0  0  0  0  0  0  0
   -2.8019   -1.9807    1.5793 C   0  0  0  0  0  0  0  0  0  0  0  0
   -2.7848   -2.3849    0.5529 H   0  0  0  0  0  0  0  0  0  0  0  0
   -3.2773   -2.7459    2.6533 C   0  0  0  0  0  0  0  0  0  0  0  0
   -3.6307   -3.7724    2.4741 H   0  0  0  0  0  0  0  0  0  0  0  0
   -3.2995   -2.2082    3.9513 C   0  0  0  0  0  0  0  0  0  0  0  0
   -3.6680   -2.8144    4.7928 H   0  0  0  0  0  0  0  0  0  0  0  0
   -2.8535   -0.8959    4.1755 C   0  0  0  0  0  0  0  0  0  0  0  0
   -2.8737   -0.4704    5.1903 H   0  0  0  0  0  0  0  0  0  0  0  0
   -2.3788   -0.1203    3.1064 C   0  0  0  0  0  0  0  0  0  0  0  0
   -2.0276    0.9042    3.2964 H   0  0  0  0  0  0  0  0  0  0  0  0
   -3.2362    0.9826   -0.4258 C   0  0  0  0  0  0  0  0  0  0  0  0
   -4.4707    1.0146    0.2477 C   0  0  0  0  0  0  0  0  0  0  0  0
   -4.5797    0.5257    1.2273 H   0  0  0  0  0  0  0  0  0  0  0  0
   -5.5700    1.6613   -0.3400 C   0  0  0  0  0  0  0  0  0  0  0  0
   -6.5371    1.6753    0.1851 H   0  0  0  0  0  0  0  0  0  0  0  0
   -5.4378    2.2808   -1.5915 C   0  0  0  0  0  0  0  0  0  0  0  0
   -6.3017    2.7845   -2.0511 H   0  0  0  0  0  0  0  0  0  0  0  0
   -4.2041    2.2476   -2.2633 C   0  0  0  0  0  0  0  0  0  0  0  0
   -4.0992    2.7198   -3.2516 H   0  0  0  0  0  0  0  0  0  0  0  0
   -3.1065    1.5952   -1.6887 C   0  0  0  0  0  0  0  0  0  0  0  0
   -2.1500    1.5368   -2.2291 H   0  0  0  0  0  0  0  0  0  0  0  0
  1 44  1  0  0  0  0
  1 49  1  0  0  0  0
  2 22  1  0  0  0  0
  2 33  1  0  0  0  0
  3  4  1  0  0  0  0
  4  6  2  0  0  0  0
  4  5  1  0  0  0  0
  6  7  1  0  0  0  0
  8  9  1  0  0  0  0
  8  6  1  0  0  0  0
 10  8  2  0  0  0  0
 11 10  1  0  0  0  0
 12 10  1  0  0  0  0
 12  3  2  0  0  0  0
 13 14  1  6  0  0  0
 13 15  1  0  0  0  0
 13 12  1  0  0  0  0
 15 16  1  0  0  0  0
 15  2  1  0  0  0  0
 17 15  1  0  0  0  0
 18 21  1  0  0  0  0
 18 13  1  0  0  0  0
 19 18  1  0  0  0  0
 20 18  1  0  0  0  0
 22 23  1  0  0  0  0
 23 25  2  0  0  0  0
 23 24  1  0  0  0  0
 25 26  1  0  0  0  0
 27 28  1  0  0  0  0
 27 25  1  0  0  0  0
 29 27  2  0  0  0  0
 30 29  1  0  0  0  0
 31 29  1  0  0  0  0
 31 22  2  0  0  0  0
 32 31  1  0  0  0  0
 33 34  2  0  0  0  0
 33 42  1  0  0  0  0
 34 36  1  0  0  0  0
 35 34  1  0  0  0  0
 36 37  1  0  0  0  0
 36 38  2  0  0  0  0
 38 39  1  0  0  0  0
 40 38  1  0  0  0  0
 40 41  1  0  0  0  0
 42 40  2  0  0  0  0
 43 42  1  0  0  0  0
 44 45  1  0  0  0  0
 44 46  1  0  0  0  0
 47  3  1  0  0  0  0
 47 44  1  0  0  0  0
 48 47  1  0  0  0  0
 49 58  1  0  0  0  0
 50 49  2  0  0  0  0
 50 52  1  0  0  0  0
 51 50  1  0  0  0  0
 52 54  2  0  0  0  0
 53 52  1  0  0  0  0
 54 56  1  0  0  0  0
 54 55  1  0  0  0  0
 56 57  1  0  0  0  0
 58 59  1  0  0  0  0
 58 56  2  0  0  0  0
 60 61  1  0  0  0  0
 60  1  1  0  0  0  0
 61 62  1  0  0  0  0
 63 64  1  0  0  0  0
 63 61  2  0  0  0  0
 65 63  1  0  0  0  0
 66 65  1  0  0  0  0
 67 69  1  0  0  0  0
 67 65  2  0  0  0  0
 68 67  1  0  0  0  0
 69 60  2  0  0  0  0
 70 69  1  0  0  0  0
M  END
