1,2
 OpenBabel05122313063D

 42 44  0  0  0  0  0  0  0  0999 V2000
   -0.3316    1.6057    0.0377 P   0  0  1  0  0  0  0  0  0  0  0  0
   -0.6374   -1.4821   -0.4349 P   0  0  2  0  0  0  0  0  0  0  0  0
   -0.8087    0.5702    1.4840 C   0  0  0  0  0  0  0  0  0  0  0  0
   -0.9196   -0.8250    1.2782 C   0  0  0  0  0  0  0  0  0  0  0  0
   -1.2471   -1.6636    2.3600 C   0  0  0  0  0  0  0  0  0  0  0  0
   -1.4832   -1.1206    3.6302 C   0  0  0  0  0  0  0  0  0  0  0  0
   -1.3906    0.2669    3.8312 C   0  0  0  0  0  0  0  0  0  0  0  0
   -1.0510    1.1085    2.7633 C   0  0  0  0  0  0  0  0  0  0  0  0
   -1.3799    3.1109    0.1712 C   0  0  0  0  0  0  0  0  0  0  0  0
    1.3792    2.1561    0.4053 C   0  0  0  0  0  0  0  0  0  0  0  0
    2.1296    1.6592    1.4918 C   0  0  0  0  0  0  0  0  0  0  0  0
    3.4710    2.0394    1.6556 C   0  0  0  0  0  0  0  0  0  0  0  0
    4.0754    2.9179    0.7436 C   0  0  0  0  0  0  0  0  0  0  0  0
    3.3361    3.4097   -0.3452 C   0  0  0  0  0  0  0  0  0  0  0  0
    2.0013    3.0227   -0.5215 C   0  0  0  0  0  0  0  0  0  0  0  0
   -2.0111   -2.6775   -0.6605 C   0  0  0  0  0  0  0  0  0  0  0  0
    0.8945   -2.4707   -0.2351 C   0  0  0  0  0  0  0  0  0  0  0  0
    0.9201   -3.8788   -0.1961 C   0  0  0  0  0  0  0  0  0  0  0  0
    2.1409   -4.5570   -0.0486 C   0  0  0  0  0  0  0  0  0  0  0  0
    3.3405   -3.8381    0.0658 C   0  0  0  0  0  0  0  0  0  0  0  0
    3.3205   -2.4336    0.0215 C   0  0  0  0  0  0  0  0  0  0  0  0
    2.1073   -1.7526   -0.1378 C   0  0  0  0  0  0  0  0  0  0  0  0
   -1.3176   -2.7522    2.2117 H   0  0  0  0  0  0  0  0  0  0  0  0
   -1.7451   -1.7830    4.4691 H   0  0  0  0  0  0  0  0  0  0  0  0
   -1.5832    0.6948    4.8265 H   0  0  0  0  0  0  0  0  0  0  0  0
   -0.9696    2.1935    2.9295 H   0  0  0  0  0  0  0  0  0  0  0  0
    1.6643    0.9703    2.2121 H   0  0  0  0  0  0  0  0  0  0  0  0
    4.0462    1.6458    2.5076 H   0  0  0  0  0  0  0  0  0  0  0  0
    5.1268    3.2149    0.8758 H   0  0  0  0  0  0  0  0  0  0  0  0
    3.8069    4.0896   -1.0713 H   0  0  0  0  0  0  0  0  0  0  0  0
    1.4391    3.3871   -1.3962 H   0  0  0  0  0  0  0  0  0  0  0  0
   -0.0119   -4.4567   -0.2832 H   0  0  0  0  0  0  0  0  0  0  0  0
    2.1522   -5.6574   -0.0224 H   0  0  0  0  0  0  0  0  0  0  0  0
    4.2949   -4.3735    0.1822 H   0  0  0  0  0  0  0  0  0  0  0  0
    4.2577   -1.8620    0.1009 H   0  0  0  0  0  0  0  0  0  0  0  0
    2.0974   -0.6528   -0.1956 H   0  0  0  0  0  0  0  0  0  0  0  0
   -1.2017    3.6616    1.1151 H   0  0  0  0  0  0  0  0  0  0  0  0
   -1.1583    3.7734   -0.6872 H   0  0  0  0  0  0  0  0  0  0  0  0
   -2.4382    2.7876    0.1057 H   0  0  0  0  0  0  0  0  0  0  0  0
   -2.9552   -2.0981   -0.6249 H   0  0  0  0  0  0  0  0  0  0  0  0
   -1.9175   -3.1447   -1.6598 H   0  0  0  0  0  0  0  0  0  0  0  0
   -2.0340   -3.4647    0.1184 H   0  0  0  0  0  0  0  0  0  0  0  0
  1  9  1  1  0  0  0
  1 10  1  0  0  0  0
  1  3  1  0  0  0  0
  2 16  1  1  0  0  0
  2 17  1  0  0  0  0
  2  4  1  0  0  0  0
  3  8  1  0  0  0  0
  4  3  2  0  0  0  0
  4  5  1  0  0  0  0
  5  6  2  0  0  0  0
  6  7  1  0  0  0  0
  6 24  1  0  0  0  0
  7 25  1  0  0  0  0
  8 26  1  0  0  0  0
  8  7  2  0  0  0  0
  9 37  1  0  0  0  0
 10 11  1  0  0  0  0
 11 12  2  0  0  0  0
 11 27  1  0  0  0  0
 12 28  1  0  0  0  0
 13 29  1  0  0  0  0
 13 12  1  0  0  0  0
 14 13  2  0  0  0  0
 15 14  1  0  0  0  0
 15 10  2  0  0  0  0
 16 40  1  0  0  0  0
 16 42  1  0  0  0  0
 17 18  2  0  0  0  0
 17 22  1  0  0  0  0
 18 19  1  0  0  0  0
 19 33  1  0  0  0  0
 19 20  2  0  0  0  0
 20 34  1  0  0  0  0
 21 20  1  0  0  0  0
 21 35  1  0  0  0  0
 22 21  2  0  0  0  0
 23  5  1  0  0  0  0
 30 14  1  0  0  0  0
 31 15  1  0  0  0  0
 32 18  1  0  0  0  0
 36 22  1  0  0  0  0
 38  9  1  0  0  0  0
 39  9  1  0  0  0  0
 41 16  1  0  0  0  0
M  END
