1,2
 OpenBabel05122313063D

 58 62  0  0  0  0  0  0  0  0999 V2000
    2.1412   -0.7382    0.0640 P   0  0  1  0  0  0  0  0  0  0  0  0
   -2.1412   -0.7381    0.0640 P   0  0  1  0  0  0  0  0  0  0  0  0
    0.0000    1.2986   -0.5577 O   0  0  0  0  0  0  0  0  0  0  0  0
    3.2694   -1.2950   -1.2399 C   0  0  0  0  0  0  0  0  0  0  0  0
    3.0595   -1.1791   -2.3102 H   0  0  0  0  0  0  0  0  0  0  0  0
    4.3307   -1.9574   -0.6956 C   0  0  0  0  0  0  0  0  0  0  0  0
    4.3159   -1.9929    0.7989 C   0  0  0  0  0  0  0  0  0  0  0  0
    3.2523   -1.3423    1.3561 C   0  0  0  0  0  0  0  0  0  0  0  0
    3.0217   -1.2655    2.4260 H   0  0  0  0  0  0  0  0  0  0  0  0
    5.3794   -2.7167    1.5703 C   0  0  0  0  0  0  0  0  0  0  0  0
    5.2156   -2.6347    2.6609 H   0  0  0  0  0  0  0  0  0  0  0  0
    6.3897   -2.3175    1.3385 H   0  0  0  0  0  0  0  0  0  0  0  0
    5.4022   -3.7953    1.3046 H   0  0  0  0  0  0  0  0  0  0  0  0
    5.4210   -2.6266   -1.4794 C   0  0  0  0  0  0  0  0  0  0  0  0
    5.2752   -2.4949   -2.5676 H   0  0  0  0  0  0  0  0  0  0  0  0
    5.4565   -3.7164   -1.2665 H   0  0  0  0  0  0  0  0  0  0  0  0
    6.4202   -2.2223   -1.2107 H   0  0  0  0  0  0  0  0  0  0  0  0
    2.2918    1.1069    0.0728 C   0  0  0  0  0  0  0  0  0  0  0  0
    3.5077    1.7316    0.4053 C   0  0  0  0  0  0  0  0  0  0  0  0
    4.3826    1.1057    0.6384 H   0  0  0  0  0  0  0  0  0  0  0  0
    3.5907    3.1280    0.4655 C   0  0  0  0  0  0  0  0  0  0  0  0
    4.5405    3.6100    0.7405 H   0  0  0  0  0  0  0  0  0  0  0  0
    2.4641    3.9171    0.1791 C   0  0  0  0  0  0  0  0  0  0  0  0
    2.5485    5.0117    0.2278 H   0  0  0  0  0  0  0  0  0  0  0  0
    1.2408    3.3301   -0.1843 C   0  0  0  0  0  0  0  0  0  0  0  0
    1.1807    1.9219   -0.2231 C   0  0  0  0  0  0  0  0  0  0  0  0
    0.0001    4.1101   -0.6373 C   0  0  0  0  0  0  0  0  0  0  0  0
   -1.2407    3.3302   -0.1843 C   0  0  0  0  0  0  0  0  0  0  0  0
   -2.4639    3.9172    0.1791 C   0  0  0  0  0  0  0  0  0  0  0  0
   -2.5484    5.0118    0.2278 H   0  0  0  0  0  0  0  0  0  0  0  0
   -3.5906    3.1281    0.4655 C   0  0  0  0  0  0  0  0  0  0  0  0
   -4.5404    3.6102    0.7405 H   0  0  0  0  0  0  0  0  0  0  0  0
   -3.5077    1.7317    0.4053 C   0  0  0  0  0  0  0  0  0  0  0  0
   -4.3826    1.1059    0.6384 H   0  0  0  0  0  0  0  0  0  0  0  0
   -2.2918    1.1070    0.0728 C   0  0  0  0  0  0  0  0  0  0  0  0
   -1.1807    1.9219   -0.2231 C   0  0  0  0  0  0  0  0  0  0  0  0
    0.0002    5.5502   -0.1080 C   0  0  0  0  0  0  0  0  0  0  0  0
   -0.8860    6.1034   -0.4742 H   0  0  0  0  0  0  0  0  0  0  0  0
    0.8865    6.1032   -0.4741 H   0  0  0  0  0  0  0  0  0  0  0  0
    0.0001    5.5793    0.9994 H   0  0  0  0  0  0  0  0  0  0  0  0
    0.0001    4.1354   -2.1922 C   0  0  0  0  0  0  0  0  0  0  0  0
    0.0000    3.1087   -2.6077 H   0  0  0  0  0  0  0  0  0  0  0  0
    0.9021    4.6599   -2.5673 H   0  0  0  0  0  0  0  0  0  0  0  0
   -0.9018    4.6601   -2.5673 H   0  0  0  0  0  0  0  0  0  0  0  0
   -3.2524   -1.3422    1.3561 C   0  0  0  0  0  0  0  0  0  0  0  0
   -3.0218   -1.2654    2.4260 H   0  0  0  0  0  0  0  0  0  0  0  0
   -4.3160   -1.9928    0.7988 C   0  0  0  0  0  0  0  0  0  0  0  0
   -4.3308   -1.9574   -0.6956 C   0  0  0  0  0  0  0  0  0  0  0  0
   -3.2694   -1.2949   -1.2399 C   0  0  0  0  0  0  0  0  0  0  0  0
   -3.0596   -1.1790   -2.3102 H   0  0  0  0  0  0  0  0  0  0  0  0
   -5.4211   -2.6266   -1.4794 C   0  0  0  0  0  0  0  0  0  0  0  0
   -5.2751   -2.4949   -2.5676 H   0  0  0  0  0  0  0  0  0  0  0  0
   -6.4202   -2.2222   -1.2107 H   0  0  0  0  0  0  0  0  0  0  0  0
   -5.4566   -3.7163   -1.2664 H   0  0  0  0  0  0  0  0  0  0  0  0
   -5.3795   -2.7166    1.5703 C   0  0  0  0  0  0  0  0  0  0  0  0
   -5.2156   -2.6346    2.6609 H   0  0  0  0  0  0  0  0  0  0  0  0
   -5.4024   -3.7951    1.3045 H   0  0  0  0  0  0  0  0  0  0  0  0
   -6.3898   -2.3172    1.3386 H   0  0  0  0  0  0  0  0  0  0  0  0
  1 18  1  1  0  0  0
  1  8  1  0  0  0  0
  2 35  1  1  0  0  0
  2 45  1  0  0  0  0
  3 36  1  0  0  0  0
  3 26  1  0  0  0  0
  4  6  2  0  0  0  0
  4  1  1  0  0  0  0
  5  4  1  0  0  0  0
  6  7  1  0  0  0  0
  7  8  2  0  0  0  0
  7 10  1  0  0  0  0
  8  9  1  0  0  0  0
 10 11  1  0  0  0  0
 12 10  1  0  0  0  0
 13 10  1  0  0  0  0
 14 16  1  0  0  0  0
 14 17  1  0  0  0  0
 14  6  1  0  0  0  0
 15 14  1  0  0  0  0
 18 19  1  0  0  0  0
 19 21  2  0  0  0  0
 19 20  1  0  0  0  0
 21 22  1  0  0  0  0
 23 24  1  0  0  0  0
 23 21  1  0  0  0  0
 25 23  2  0  0  0  0
 26 25  1  0  0  0  0
 26 18  2  0  0  0  0
 27 25  1  0  0  0  0
 27 28  1  0  0  0  0
 27 37  1  0  0  0  0
 28 29  1  0  0  0  0
 29 30  1  0  0  0  0
 29 31  2  0  0  0  0
 31 32  1  0  0  0  0
 33 31  1  0  0  0  0
 33 34  1  0  0  0  0
 35 33  2  0  0  0  0
 36 28  2  0  0  0  0
 36 35  1  0  0  0  0
 37 40  1  0  0  0  0
 38 37  1  0  0  0  0
 39 37  1  0  0  0  0
 41 27  1  0  0  0  0
 42 41  1  0  0  0  0
 43 41  1  0  0  0  0
 44 41  1  0  0  0  0
 45 46  1  0  0  0  0
 47 45  2  0  0  0  0
 47 55  1  0  0  0  0
 48 47  1  0  0  0  0
 49 48  2  0  0  0  0
 49  2  1  0  0  0  0
 50 49  1  0  0  0  0
 51 54  1  0  0  0  0
 51 53  1  0  0  0  0
 51 48  1  0  0  0  0
 52 51  1  0  0  0  0
 55 56  1  0  0  0  0
 57 55  1  0  0  0  0
 58 55  1  0  0  0  0
M  END
