2,3
 OpenBabel05122313063D

 54 57  0  0  0  0  0  0  0  0999 V2000
    0.6106    1.3048   -2.6034 Cl  0  0  0  0  0  0  0  0  0  0  0  0
    0.7653    1.0611   -0.5131 P   0  0  2  0  0  0  0  0  0  0  0  0
   -0.8271   -1.7676    0.0041 P   0  0  0  0  0  0  0  0  0  0  0  0
   -0.8744    1.7019   -0.0089 C   0  0  0  0  0  0  0  0  0  0  0  0
   -0.9800    3.0797    0.2363 C   0  0  0  0  0  0  0  0  0  0  0  0
   -2.2138    3.7456    0.4449 C   0  0  0  0  0  0  0  0  0  0  0  0
   -3.3816    3.0072    0.3437 C   0  0  0  0  0  0  0  0  0  0  0  0
   -3.2920    1.6100    0.0971 C   0  0  0  0  0  0  0  0  0  0  0  0
   -4.5843    1.0343   -0.0220 C   0  0  0  0  0  0  0  0  0  0  0  0
   -4.6837   -0.3221   -0.2857 C   0  0  0  0  0  0  0  0  0  0  0  0
   -3.4876   -1.0807   -0.3472 C   0  0  0  0  0  0  0  0  0  0  0  0
   -2.1974   -0.5423   -0.1961 C   0  0  0  0  0  0  0  0  0  0  0  0
   -2.0642    0.8846   -0.0320 C   0  0  0  0  0  0  0  0  0  0  0  0
   -4.8361    3.4120    0.4412 C   0  0  0  0  0  0  0  0  0  0  0  0
   -5.6377    2.1061    0.1536 C   0  0  0  0  0  0  0  0  0  0  0  0
    1.9304    2.3803   -0.0094 C   0  0  0  0  0  0  0  0  0  0  0  0
    2.4081    3.3681   -0.8861 C   0  0  0  0  0  0  0  0  0  0  0  0
    3.2583    4.3743   -0.3997 C   0  0  0  0  0  0  0  0  0  0  0  0
    3.6229    4.3974    0.9544 C   0  0  0  0  0  0  0  0  0  0  0  0
    3.1447    3.4056    1.8281 C   0  0  0  0  0  0  0  0  0  0  0  0
    2.3073    2.3910    1.3501 C   0  0  0  0  0  0  0  0  0  0  0  0
   -1.0917   -2.9405   -1.4352 C   0  0  0  0  0  0  0  0  0  0  0  0
   -0.6663   -2.2208   -2.7217 C   0  0  0  0  0  0  0  0  0  0  0  0
   -0.3829   -4.2862   -1.2637 C   0  0  0  0  0  0  0  0  0  0  0  0
   -1.2325   -2.6438    1.6091 C   0  0  0  0  0  0  0  0  0  0  0  0
   -1.1141   -1.6355    2.7579 C   0  0  0  0  0  0  0  0  0  0  0  0
   -2.5401   -3.4339    1.6567 C   0  0  0  0  0  0  0  0  0  0  0  0
   -0.0598    3.6811    0.2456 H   0  0  0  0  0  0  0  0  0  0  0  0
   -2.2228    4.8276    0.6438 H   0  0  0  0  0  0  0  0  0  0  0  0
   -5.6551   -0.8214   -0.4194 H   0  0  0  0  0  0  0  0  0  0  0  0
   -3.5925   -2.1624   -0.5058 H   0  0  0  0  0  0  0  0  0  0  0  0
   -5.0775    4.2214   -0.2785 H   0  0  0  0  0  0  0  0  0  0  0  0
   -5.0617    3.8212    1.4486 H   0  0  0  0  0  0  0  0  0  0  0  0
   -6.3373    1.8522    0.9769 H   0  0  0  0  0  0  0  0  0  0  0  0
   -6.2611    2.1978   -0.7606 H   0  0  0  0  0  0  0  0  0  0  0  0
    2.1203    3.3426   -1.9467 H   0  0  0  0  0  0  0  0  0  0  0  0
    3.6402    5.1423   -1.0892 H   0  0  0  0  0  0  0  0  0  0  0  0
    4.2918    5.1860    1.3312 H   0  0  0  0  0  0  0  0  0  0  0  0
    3.4421    3.4104    2.8873 H   0  0  0  0  0  0  0  0  0  0  0  0
    1.9580    1.5935    2.0231 H   0  0  0  0  0  0  0  0  0  0  0  0
   -2.1885   -3.1164   -1.4692 H   0  0  0  0  0  0  0  0  0  0  0  0
   -0.9112   -2.8485   -3.6029 H   0  0  0  0  0  0  0  0  0  0  0  0
    0.4267   -2.0344   -2.7200 H   0  0  0  0  0  0  0  0  0  0  0  0
   -1.1712   -1.2419   -2.8435 H   0  0  0  0  0  0  0  0  0  0  0  0
    0.7103   -4.1547   -1.1494 H   0  0  0  0  0  0  0  0  0  0  0  0
   -0.5791   -4.9131   -2.1583 H   0  0  0  0  0  0  0  0  0  0  0  0
   -0.7400   -4.8430   -0.3752 H   0  0  0  0  0  0  0  0  0  0  0  0
   -0.3633   -3.3373    1.6664 H   0  0  0  0  0  0  0  0  0  0  0  0
   -1.2339   -2.1566    3.7299 H   0  0  0  0  0  0  0  0  0  0  0  0
   -1.8974   -0.8508    2.6950 H   0  0  0  0  0  0  0  0  0  0  0  0
   -0.1218   -1.1418    2.7531 H   0  0  0  0  0  0  0  0  0  0  0  0
   -3.4259   -2.7689    1.7038 H   0  0  0  0  0  0  0  0  0  0  0  0
   -2.5524   -4.0562    2.5757 H   0  0  0  0  0  0  0  0  0  0  0  0
   -2.6620   -4.1209    0.7954 H   0  0  0  0  0  0  0  0  0  0  0  0
  2  1  1  6  0  0  0
  2 16  1  0  0  0  0
  2  4  1  0  0  0  0
  3 25  1  0  0  0  0
  4  5  1  0  0  0  0
  5 28  1  0  0  0  0
  5  6  2  0  0  0  0
  6 29  1  0  0  0  0
  7 14  1  0  0  0  0
  7  6  1  0  0  0  0
  8  7  2  0  0  0  0
  9  8  1  0  0  0  0
  9 15  1  0  0  0  0
 10  9  2  0  0  0  0
 11 10  1  0  0  0  0
 11 12  2  0  0  0  0
 12 13  1  0  0  0  0
 12  3  1  0  0  0  0
 13  4  2  0  0  0  0
 13  8  1  0  0  0  0
 14 33  1  0  0  0  0
 15 14  1  0  0  0  0
 15 34  1  0  0  0  0
 16 21  1  0  0  0  0
 17 18  1  0  0  0  0
 17 16  2  0  0  0  0
 18 19  2  0  0  0  0
 19 38  1  0  0  0  0
 19 20  1  0  0  0  0
 20 39  1  0  0  0  0
 21 20  2  0  0  0  0
 21 40  1  0  0  0  0
 22 24  1  0  0  0  0
 22  3  1  0  0  0  0
 23 43  1  0  0  0  0
 23 22  1  0  0  0  0
 24 45  1  0  0  0  0
 24 47  1  0  0  0  0
 25 27  1  0  0  0  0
 25 48  1  0  0  0  0
 25 26  1  0  0  0  0
 26 49  1  0  0  0  0
 27 52  1  0  0  0  0
 27 53  1  0  0  0  0
 30 10  1  0  0  0  0
 31 11  1  0  0  0  0
 32 14  1  0  0  0  0
 35 15  1  0  0  0  0
 36 17  1  0  0  0  0
 37 18  1  0  0  0  0
 41 22  1  0  0  0  0
 42 23  1  0  0  0  0
 44 23  1  0  0  0  0
 46 24  1  0  0  0  0
 50 26  1  0  0  0  0
 51 26  1  0  0  0  0
 54 27  1  0  0  0  0
M  END
