1,2
 OpenBabel05122313063D

 70 75  0  0  1  0  0  0  0  0999 V2000
   -1.5802    0.0602    0.1340 P   0  0  0  0  0  0  0  0  0  0  0  0
    1.7356   -0.0466    0.2900 P   0  0  0  0  0  0  0  0  0  0  0  0
   -1.3647   -0.0788    1.8482 N   0  0  0  0  0  0  0  0  0  0  0  0
    1.5702   -1.0393    1.6643 N   0  0  0  0  0  0  0  0  0  0  0  0
   -0.7569   -1.2457    2.5257 C   0  0  1  0  0  0  0  0  0  0  0  0
   -0.3351   -0.8375    3.4770 H   0  0  0  0  0  0  0  0  0  0  0  0
   -1.9525   -2.1596    2.8833 C   0  0  0  0  0  0  0  0  0  0  0  0
   -2.1581   -2.8479    2.0383 H   0  0  0  0  0  0  0  0  0  0  0  0
   -1.7438   -2.7812    3.7753 H   0  0  0  0  0  0  0  0  0  0  0  0
   -3.1287   -1.1770    3.0917 C   0  0  0  0  0  0  0  0  0  0  0  0
   -3.9863   -1.4437    2.4449 H   0  0  0  0  0  0  0  0  0  0  0  0
   -3.4908   -1.1654    4.1386 H   0  0  0  0  0  0  0  0  0  0  0  0
   -2.5491    0.2016    2.6876 C   0  0  0  0  0  0  0  0  0  0  0  0
   -2.2044    0.7601    3.5864 H   0  0  0  0  0  0  0  0  0  0  0  0
   -3.2736    0.8494    2.1616 H   0  0  0  0  0  0  0  0  0  0  0  0
    0.4070   -1.9340    1.8186 C   0  0  2  0  0  0  0  0  0  0  0  0
    0.0764   -2.2759    0.8108 H   0  0  0  0  0  0  0  0  0  0  0  0
    0.9528   -3.1237    2.6541 C   0  0  0  0  0  0  0  0  0  0  0  0
    0.5553   -4.0934    2.2987 H   0  0  0  0  0  0  0  0  0  0  0  0
    0.6442   -3.0098    3.7147 H   0  0  0  0  0  0  0  0  0  0  0  0
    2.4794   -3.0068    2.5532 C   0  0  0  0  0  0  0  0  0  0  0  0
    2.8482   -3.4458    1.6029 H   0  0  0  0  0  0  0  0  0  0  0  0
    3.0102   -3.4999    3.3912 H   0  0  0  0  0  0  0  0  0  0  0  0
    2.6785   -1.4901    2.5141 C   0  0  0  0  0  0  0  0  0  0  0  0
    3.6527   -1.1772    2.0933 H   0  0  0  0  0  0  0  0  0  0  0  0
    2.6013   -1.0548    3.5394 H   0  0  0  0  0  0  0  0  0  0  0  0
   -4.4068   -0.2182   -0.1055 C   0  0  0  0  0  0  0  0  0  0  0  0
   -5.5809   -0.9782   -0.2377 C   0  0  0  0  0  0  0  0  0  0  0  0
   -5.5037   -2.3545   -0.4966 C   0  0  0  0  0  0  0  0  0  0  0  0
   -4.2479   -2.9702   -0.6430 C   0  0  0  0  0  0  0  0  0  0  0  0
   -3.0759   -2.2146   -0.5203 C   0  0  0  0  0  0  0  0  0  0  0  0
   -3.1477   -0.8352   -0.2330 C   0  0  0  0  0  0  0  0  0  0  0  0
   -4.4739    0.8639    0.0836 H   0  0  0  0  0  0  0  0  0  0  0  0
   -6.5613   -0.4873   -0.1416 H   0  0  0  0  0  0  0  0  0  0  0  0
   -6.4243   -2.9488   -0.6005 H   0  0  0  0  0  0  0  0  0  0  0  0
   -4.1831   -4.0443   -0.8738 H   0  0  0  0  0  0  0  0  0  0  0  0
   -2.0918   -2.6835   -0.6739 H   0  0  0  0  0  0  0  0  0  0  0  0
   -2.5035    2.2864   -1.2828 C   0  0  0  0  0  0  0  0  0  0  0  0
   -2.7454    3.6522   -1.4826 C   0  0  0  0  0  0  0  0  0  0  0  0
   -2.4569    4.5809   -0.4680 C   0  0  0  0  0  0  0  0  0  0  0  0
   -1.9131    4.1398    0.7476 C   0  0  0  0  0  0  0  0  0  0  0  0
   -1.6687    2.7746    0.9584 C   0  0  0  0  0  0  0  0  0  0  0  0
   -1.9778    1.8418   -0.0495 C   0  0  0  0  0  0  0  0  0  0  0  0
   -2.6847    1.5561   -2.0882 H   0  0  0  0  0  0  0  0  0  0  0  0
   -3.1540    3.9941   -2.4456 H   0  0  0  0  0  0  0  0  0  0  0  0
   -2.6466    5.6529   -0.6315 H   0  0  0  0  0  0  0  0  0  0  0  0
   -1.6625    4.8626    1.5387 H   0  0  0  0  0  0  0  0  0  0  0  0
   -1.2111    2.4316    1.8964 H   0  0  0  0  0  0  0  0  0  0  0  0
    1.6272    2.0192    2.2287 C   0  0  0  0  0  0  0  0  0  0  0  0
    1.5682    3.3647    2.6260 C   0  0  0  0  0  0  0  0  0  0  0  0
    1.5508    4.3835    1.6598 C   0  0  0  0  0  0  0  0  0  0  0  0
    1.5790    4.0580    0.2929 C   0  0  0  0  0  0  0  0  0  0  0  0
    1.6314    2.7169   -0.1098 C   0  0  0  0  0  0  0  0  0  0  0  0
    1.6688    1.6946    0.8611 C   0  0  0  0  0  0  0  0  0  0  0  0
    1.6268    1.2108    2.9749 H   0  0  0  0  0  0  0  0  0  0  0  0
    1.5349    3.6187    3.6966 H   0  0  0  0  0  0  0  0  0  0  0  0
    1.5036    5.4377    1.9730 H   0  0  0  0  0  0  0  0  0  0  0  0
    1.5427    4.8540   -0.4657 H   0  0  0  0  0  0  0  0  0  0  0  0
    1.6290    2.4512   -1.1793 H   0  0  0  0  0  0  0  0  0  0  0  0
    4.4703    0.6966    0.0103 C   0  0  0  0  0  0  0  0  0  0  0  0
    5.8130    0.4263   -0.3031 C   0  0  0  0  0  0  0  0  0  0  0  0
    6.1789   -0.8297   -0.8077 C   0  0  0  0  0  0  0  0  0  0  0  0
    5.2000   -1.8189   -1.0075 C   0  0  0  0  0  0  0  0  0  0  0  0
    3.8588   -1.5518   -0.7087 C   0  0  0  0  0  0  0  0  0  0  0  0
    3.4897   -0.2923   -0.1878 C   0  0  0  0  0  0  0  0  0  0  0  0
    4.1874    1.6804    0.4124 H   0  0  0  0  0  0  0  0  0  0  0  0
    6.5755    1.2048   -0.1488 H   0  0  0  0  0  0  0  0  0  0  0  0
    7.2312   -1.0396   -1.0530 H   0  0  0  0  0  0  0  0  0  0  0  0
    5.4818   -2.8002   -1.4180 H   0  0  0  0  0  0  0  0  0  0  0  0
    3.0864   -2.3119   -0.8951 H   0  0  0  0  0  0  0  0  0  0  0  0
  1  3  1  0  0  0  0
  2 54  1  0  0  0  0
  2  4  1  0  0  0  0
  3  5  1  0  0  0  0
  3 13  1  0  0  0  0
  4 16  1  0  0  0  0
  4 24  1  0  0  0  0
  5  7  1  0  0  0  0
  5  6  1  1  0  0  0
  7 10  1  0  0  0  0
  7  9  1  0  0  0  0
  8  7  1  0  0  0  0
 10 12  1  0  0  0  0
 11 10  1  0  0  0  0
 13 10  1  0  0  0  0
 13 14  1  0  0  0  0
 15 13  1  0  0  0  0
 16 17  1  6  0  0  0
 16  5  1  0  0  0  0
 16 18  1  0  0  0  0
 18 20  1  0  0  0  0
 19 18  1  0  0  0  0
 21 18  1  0  0  0  0
 21 23  1  0  0  0  0
 22 21  1  0  0  0  0
 24 21  1  0  0  0  0
 24 26  1  0  0  0  0
 25 24  1  0  0  0  0
 27 33  1  0  0  0  0
 28 34  1  0  0  0  0
 28 27  2  0  0  0  0
 29 28  1  0  0  0  0
 30 31  1  0  0  0  0
 30 29  2  0  0  0  0
 31 32  2  0  0  0  0
 32 27  1  0  0  0  0
 32  1  1  0  0  0  0
 35 29  1  0  0  0  0
 36 30  1  0  0  0  0
 37 31  1  0  0  0  0
 38 43  1  0  0  0  0
 39 38  2  0  0  0  0
 39 40  1  0  0  0  0
 40 41  2  0  0  0  0
 41 42  1  0  0  0  0
 41 47  1  0  0  0  0
 42 48  1  0  0  0  0
 43  1  1  0  0  0  0
 43 42  2  0  0  0  0
 44 38  1  0  0  0  0
 45 39  1  0  0  0  0
 46 40  1  0  0  0  0
 49 50  1  0  0  0  0
 49 55  1  0  0  0  0
 50 56  1  0  0  0  0
 51 57  1  0  0  0  0
 51 50  2  0  0  0  0
 52 51  1  0  0  0  0
 53 52  2  0  0  0  0
 53 54  1  0  0  0  0
 54 49  2  0  0  0  0
 58 52  1  0  0  0  0
 59 53  1  0  0  0  0
 60 66  1  0  0  0  0
 61 67  1  0  0  0  0
 61 60  2  0  0  0  0
 62 61  1  0  0  0  0
 63 62  2  0  0  0  0
 63 64  1  0  0  0  0
 64 65  2  0  0  0  0
 65 60  1  0  0  0  0
 65  2  1  0  0  0  0
 68 62  1  0  0  0  0
 69 63  1  0  0  0  0
 70 64  1  0  0  0  0
M  END
