1,2
 OpenBabel05122313063D

 28 28  0  0  0  0  0  0  0  0999 V2000
   -1.7063   -1.0372    1.3381 P   0  0  0  0  0  0  0  0  0  0  0  0
   -1.8891    0.6462   -1.3359 P   0  0  0  0  0  0  0  0  0  0  0  0
   -1.7415   -2.8798    1.6451 C   0  0  0  0  0  0  0  0  0  0  0  0
   -2.2746   -3.1246    2.5840 H   0  0  0  0  0  0  0  0  0  0  0  0
   -0.7089   -3.2740    1.7036 H   0  0  0  0  0  0  0  0  0  0  0  0
   -2.2597   -3.3798    0.8079 H   0  0  0  0  0  0  0  0  0  0  0  0
   -2.0430   -0.4486    3.0710 C   0  0  0  0  0  0  0  0  0  0  0  0
   -2.9384   -0.9472    3.4901 H   0  0  0  0  0  0  0  0  0  0  0  0
   -2.2143    0.6429    3.0745 H   0  0  0  0  0  0  0  0  0  0  0  0
   -1.1755   -0.6797    3.7162 H   0  0  0  0  0  0  0  0  0  0  0  0
   -3.3848   -0.7673    0.5834 C   0  0  0  0  0  0  0  0  0  0  0  0
   -4.5601   -1.2988    1.1533 C   0  0  0  0  0  0  0  0  0  0  0  0
   -4.5068   -1.9189    2.0617 H   0  0  0  0  0  0  0  0  0  0  0  0
   -5.8096   -1.0445    0.5720 C   0  0  0  0  0  0  0  0  0  0  0  0
   -6.7211   -1.4640    1.0235 H   0  0  0  0  0  0  0  0  0  0  0  0
   -5.8961   -0.2501   -0.5838 C   0  0  0  0  0  0  0  0  0  0  0  0
   -6.8761   -0.0413   -1.0385 H   0  0  0  0  0  0  0  0  0  0  0  0
   -4.7313    0.2731   -1.1610 C   0  0  0  0  0  0  0  0  0  0  0  0
   -4.8127    0.8905   -2.0693 H   0  0  0  0  0  0  0  0  0  0  0  0
   -3.4696    0.0127   -0.5873 C   0  0  0  0  0  0  0  0  0  0  0  0
   -2.0859    0.0085   -3.0728 C   0  0  0  0  0  0  0  0  0  0  0  0
   -3.0664    0.3043   -3.4936 H   0  0  0  0  0  0  0  0  0  0  0  0
   -2.0175   -1.0943   -3.0814 H   0  0  0  0  0  0  0  0  0  0  0  0
   -1.2868    0.4246   -3.7135 H   0  0  0  0  0  0  0  0  0  0  0  0
   -2.3248    2.4383   -1.6333 C   0  0  0  0  0  0  0  0  0  0  0  0
   -2.9048    2.5650   -2.5678 H   0  0  0  0  0  0  0  0  0  0  0  0
   -1.4030    3.0477   -1.6957 H   0  0  0  0  0  0  0  0  0  0  0  0
   -2.9333    2.8108   -0.7904 H   0  0  0  0  0  0  0  0  0  0  0  0
  1  3  1  0  0  0  0
  1  7  1  0  0  0  0
  2 20  1  0  0  0  0
  3  5  1  0  0  0  0
  3  4  1  0  0  0  0
  6  3  1  0  0  0  0
  7  9  1  0  0  0  0
  7  8  1  0  0  0  0
  7 10  1  0  0  0  0
 11 12  1  0  0  0  0
 11  1  1  0  0  0  0
 12 13  1  0  0  0  0
 14 15  1  0  0  0  0
 14 12  2  0  0  0  0
 16 14  1  0  0  0  0
 17 16  1  0  0  0  0
 18 20  1  0  0  0  0
 18 16  2  0  0  0  0
 19 18  1  0  0  0  0
 20 11  2  0  0  0  0
 21  2  1  0  0  0  0
 22 21  1  0  0  0  0
 23 21  1  0  0  0  0
 24 21  1  0  0  0  0
 25  2  1  0  0  0  0
 25 28  1  0  0  0  0
 26 25  1  0  0  0  0
 27 25  1  0  0  0  0
M  END
