1,15
 OpenBabel05122313063D

 57 60  0  0  0  0  0  0  0  0999 V2000
    1.8195   -0.0268    0.3847 P   0  0  0  0  0  0  0  0  0  0  0  0
    3.0387   -1.4037    0.1565 C   0  0  0  0  0  0  0  0  0  0  0  0
    3.2843   -1.9501   -1.1168 C   0  0  0  0  0  0  0  0  0  0  0  0
    4.2259   -2.9804   -1.2729 C   0  0  0  0  0  0  0  0  0  0  0  0
    4.9201   -3.4763   -0.1594 C   0  0  0  0  0  0  0  0  0  0  0  0
    4.6760   -2.9351    1.1147 C   0  0  0  0  0  0  0  0  0  0  0  0
    3.7426   -1.9015    1.2729 C   0  0  0  0  0  0  0  0  0  0  0  0
    2.9220    1.4404    0.5162 C   0  0  0  0  0  0  0  0  0  0  0  0
    3.8814    1.6763   -0.4887 C   0  0  0  0  0  0  0  0  0  0  0  0
    4.6599    2.8412   -0.4526 C   0  0  0  0  0  0  0  0  0  0  0  0
    4.4845    3.7771    0.5804 C   0  0  0  0  0  0  0  0  0  0  0  0
    3.5288    3.5419    1.5806 C   0  0  0  0  0  0  0  0  0  0  0  0
    2.7475    2.3764    1.5513 C   0  0  0  0  0  0  0  0  0  0  0  0
    1.3971   -0.2085    2.0513 N   0  0  0  0  0  2  0  0  0  0  0  0
   -1.8194   -0.0269    0.3842 P   0  0  0  0  0  0  0  0  0  0  0  0
   -3.0383   -1.4041    0.1561 C   0  0  0  0  0  0  0  0  0  0  0  0
   -3.2831   -1.9510   -1.1171 C   0  0  0  0  0  0  0  0  0  0  0  0
   -4.2245   -2.9816   -1.2734 C   0  0  0  0  0  0  0  0  0  0  0  0
   -4.9192   -3.4772   -0.1600 C   0  0  0  0  0  0  0  0  0  0  0  0
   -4.6758   -2.9355    1.1141 C   0  0  0  0  0  0  0  0  0  0  0  0
   -3.7426   -1.9016    1.2723 C   0  0  0  0  0  0  0  0  0  0  0  0
   -2.9226    1.4398    0.5156 C   0  0  0  0  0  0  0  0  0  0  0  0
   -2.7508    2.3745    1.5524 C   0  0  0  0  0  0  0  0  0  0  0  0
   -3.5329    3.5394    1.5816 C   0  0  0  0  0  0  0  0  0  0  0  0
   -4.4867    3.7754    0.5798 C   0  0  0  0  0  0  0  0  0  0  0  0
   -4.6594    2.8409   -0.4550 C   0  0  0  0  0  0  0  0  0  0  0  0
   -3.8800    1.6765   -0.4911 C   0  0  0  0  0  0  0  0  0  0  0  0
   -1.3972   -0.2083    2.0510 N   0  0  0  0  0  2  0  0  0  0  0  0
   -0.0002   -0.8508    2.3952 S   0  0  0  0  0  0  0  0  0  0  0  0
   -0.0002   -2.6249    1.9448 C   0  0  0  0  0  0  0  0  0  0  0  0
   -0.0004   -0.8808    4.1838 C   0  0  0  0  0  0  0  0  0  0  0  0
    2.7331   -1.5719   -1.9896 H   0  0  0  0  0  0  0  0  0  0  0  0
    4.4099   -3.4016   -2.2728 H   0  0  0  0  0  0  0  0  0  0  0  0
    5.6529   -4.2883   -0.2826 H   0  0  0  0  0  0  0  0  0  0  0  0
    5.2216   -3.3196    1.9905 H   0  0  0  0  0  0  0  0  0  0  0  0
    3.5430   -1.4678    2.2649 H   0  0  0  0  0  0  0  0  0  0  0  0
    4.0218    0.9504   -1.3038 H   0  0  0  0  0  0  0  0  0  0  0  0
    5.4087    3.0196   -1.2393 H   0  0  0  0  0  0  0  0  0  0  0  0
    5.0945    4.6929    0.6039 H   0  0  0  0  0  0  0  0  0  0  0  0
    3.3873    4.2728    2.3916 H   0  0  0  0  0  0  0  0  0  0  0  0
    1.9980    2.1767    2.3311 H   0  0  0  0  0  0  0  0  0  0  0  0
   -2.7317   -1.5731   -1.9898 H   0  0  0  0  0  0  0  0  0  0  0  0
   -4.4080   -3.4032   -2.2732 H   0  0  0  0  0  0  0  0  0  0  0  0
   -5.6518   -4.2894   -0.2832 H   0  0  0  0  0  0  0  0  0  0  0  0
   -5.2217   -3.3197    1.9897 H   0  0  0  0  0  0  0  0  0  0  0  0
   -3.5436   -1.4675    2.2643 H   0  0  0  0  0  0  0  0  0  0  0  0
   -2.0028    2.1742    2.3333 H   0  0  0  0  0  0  0  0  0  0  0  0
   -3.3937    4.2693    2.3939 H   0  0  0  0  0  0  0  0  0  0  0  0
   -5.0974    4.6908    0.6033 H   0  0  0  0  0  0  0  0  0  0  0  0
   -5.4066    3.0199   -1.2429 H   0  0  0  0  0  0  0  0  0  0  0  0
   -4.0182    0.9517   -1.3075 H   0  0  0  0  0  0  0  0  0  0  0  0
   -0.9235   -3.0919    2.3346 H   0  0  0  0  0  0  0  0  0  0  0  0
    0.9228   -3.0921    2.3350 H   0  0  0  0  0  0  0  0  0  0  0  0
   -0.0001   -2.6511    0.8381 H   0  0  0  0  0  0  0  0  0  0  0  0
   -0.9210   -1.3900    4.5193 H   0  0  0  0  0  0  0  0  0  0  0  0
   -0.0004    0.1812    4.4881 H   0  0  0  0  0  0  0  0  0  0  0  0
    0.9202   -1.3900    4.5195 H   0  0  0  0  0  0  0  0  0  0  0  0
  1  8  1  0  0  0  0
  1 14  1  0  0  0  0
  2  1  1  0  0  0  0
  2  7  1  0  0  0  0
  3  2  2  0  0  0  0
  4  3  1  0  0  0  0
  4  5  2  0  0  0  0
  5  6  1  0  0  0  0
  6  7  2  0  0  0  0
  6 35  1  0  0  0  0
  7 36  1  0  0  0  0
  8 13  1  0  0  0  0
  9 10  1  0  0  0  0
  9  8  2  0  0  0  0
 10 11  2  0  0  0  0
 11 39  1  0  0  0  0
 11 12  1  0  0  0  0
 12 40  1  0  0  0  0
 13 12  2  0  0  0  0
 13 41  1  0  0  0  0
 14 29  1  0  0  0  0
 15 22  1  0  0  0  0
 15 28  1  0  0  0  0
 16 15  1  0  0  0  0
 16 21  1  0  0  0  0
 17 16  2  0  0  0  0
 18 17  1  0  0  0  0
 18 19  2  0  0  0  0
 19 20  1  0  0  0  0
 20 21  2  0  0  0  0
 20 45  1  0  0  0  0
 21 46  1  0  0  0  0
 22 23  1  0  0  0  0
 23 24  2  0  0  0  0
 23 47  1  0  0  0  0
 24 48  1  0  0  0  0
 25 49  1  0  0  0  0
 25 24  1  0  0  0  0
 26 25  2  0  0  0  0
 27 26  1  0  0  0  0
 27 22  2  0  0  0  0
 28 29  1  0  0  0  0
 29 31  1  0  0  0  0
 30 52  1  0  0  0  0
 30 53  1  0  0  0  0
 30 29  1  0  0  0  0
 31 56  1  0  0  0  0
 31 55  1  0  0  0  0
 31 57  1  0  0  0  0
 32  3  1  0  0  0  0
 33  4  1  0  0  0  0
 34  5  1  0  0  0  0
 37  9  1  0  0  0  0
 38 10  1  0  0  0  0
 42 17  1  0  0  0  0
 43 18  1  0  0  0  0
 44 19  1  0  0  0  0
 50 26  1  0  0  0  0
 51 27  1  0  0  0  0
 54 30  1  0  0  0  0
M  END
