1,24
 OpenBabel05122313063D

 64 65  0  0  0  0  0  0  0  0999 V2000
   -0.5380   -1.7657    0.3306 P   0  0  0  0  0  0  0  0  0  0  0  0
    0.9927   -1.6506    1.4342 C   0  0  0  0  0  0  0  0  0  0  0  0
    0.7566   -0.9397    2.2417 H   0  0  0  0  0  0  0  0  0  0  0  0
    1.0231   -2.6449    1.9189 H   0  0  0  0  0  0  0  0  0  0  0  0
    2.3341   -1.4371    0.7777 C   0  0  0  0  0  0  0  0  0  0  0  0
    3.0084   -2.6208    0.4513 C   0  0  0  0  0  0  0  0  0  0  0  0
    2.5523   -3.5772    0.7501 H   0  0  0  0  0  0  0  0  0  0  0  0
    4.2392   -2.6496   -0.2373 C   0  0  0  0  0  0  0  0  0  0  0  0
    4.7096   -3.6126   -0.4846 H   0  0  0  0  0  0  0  0  0  0  0  0
    4.8399   -1.4544   -0.5777 C   0  0  0  0  0  0  0  0  0  0  0  0
    5.8037   -1.4359   -1.1089 H   0  0  0  0  0  0  0  0  0  0  0  0
    4.2487   -0.2127   -0.2072 C   0  0  0  0  0  0  0  0  0  0  0  0
    4.9736    0.9799   -0.4922 C   0  0  0  0  0  0  0  0  0  0  0  0
    5.9328    0.8928   -1.0249 H   0  0  0  0  0  0  0  0  0  0  0  0
    4.5044    2.2077   -0.0703 C   0  0  0  0  0  0  0  0  0  0  0  0
    5.0791    3.1280   -0.2509 H   0  0  0  0  0  0  0  0  0  0  0  0
    3.2680    2.2677    0.6063 C   0  0  0  0  0  0  0  0  0  0  0  0
    2.9064    3.2472    0.9559 H   0  0  0  0  0  0  0  0  0  0  0  0
    2.4679    1.1441    0.8499 C   0  0  0  0  0  0  0  0  0  0  0  0
    2.9613   -0.1660    0.4766 C   0  0  0  0  0  0  0  0  0  0  0  0
    1.1317    1.4624    1.4710 C   0  0  0  0  0  0  0  0  0  0  0  0
    1.2453    2.4101    2.0305 H   0  0  0  0  0  0  0  0  0  0  0  0
    0.7697    0.7259    2.2038 H   0  0  0  0  0  0  0  0  0  0  0  0
   -0.3142    1.8034    0.3036 P   0  0  0  0  0  0  0  0  0  0  0  0
    0.0650   -2.8794   -1.0620 C   0  0  0  0  0  0  0  0  0  0  0  0
    0.8893   -3.4626   -0.5994 H   0  0  0  0  0  0  0  0  0  0  0  0
    0.6545   -2.0029   -2.1745 C   0  0  0  0  0  0  0  0  0  0  0  0
    1.1042   -2.6444   -2.9602 H   0  0  0  0  0  0  0  0  0  0  0  0
    1.4438   -1.3217   -1.8015 H   0  0  0  0  0  0  0  0  0  0  0  0
   -0.1419   -1.3869   -2.6394 H   0  0  0  0  0  0  0  0  0  0  0  0
   -0.9756   -3.8598   -1.6126 C   0  0  0  0  0  0  0  0  0  0  0  0
   -0.4979   -4.4776   -2.4018 H   0  0  0  0  0  0  0  0  0  0  0  0
   -1.8363   -3.3179   -2.0475 H   0  0  0  0  0  0  0  0  0  0  0  0
   -1.3653   -4.5497   -0.8394 H   0  0  0  0  0  0  0  0  0  0  0  0
   -1.6697   -2.7855    1.4278 C   0  0  0  0  0  0  0  0  0  0  0  0
   -2.4845   -3.0256    0.7118 H   0  0  0  0  0  0  0  0  0  0  0  0
   -1.0531   -4.0748    1.9781 C   0  0  0  0  0  0  0  0  0  0  0  0
   -1.8541   -4.7126    2.4059 H   0  0  0  0  0  0  0  0  0  0  0  0
   -0.3314   -3.8806    2.7988 H   0  0  0  0  0  0  0  0  0  0  0  0
   -0.5371   -4.6740    1.2014 H   0  0  0  0  0  0  0  0  0  0  0  0
   -2.2656   -1.9019    2.5301 C   0  0  0  0  0  0  0  0  0  0  0  0
   -2.9872   -2.4882    3.1357 H   0  0  0  0  0  0  0  0  0  0  0  0
   -2.8072   -1.0393    2.0946 H   0  0  0  0  0  0  0  0  0  0  0  0
   -1.4903   -1.5152    3.2257 H   0  0  0  0  0  0  0  0  0  0  0  0
    0.4805    2.7777   -1.0949 C   0  0  0  0  0  0  0  0  0  0  0  0
    1.3507    3.2765   -0.6173 H   0  0  0  0  0  0  0  0  0  0  0  0
    1.0019    1.7951   -2.1514 C   0  0  0  0  0  0  0  0  0  0  0  0
    1.5531    2.3484   -2.9394 H   0  0  0  0  0  0  0  0  0  0  0  0
    0.1559    1.2591   -2.6276 H   0  0  0  0  0  0  0  0  0  0  0  0
    1.6900    1.0406   -1.7240 H   0  0  0  0  0  0  0  0  0  0  0  0
   -0.4168    3.8486   -1.7239 C   0  0  0  0  0  0  0  0  0  0  0  0
    0.1561    4.3687   -2.5200 H   0  0  0  0  0  0  0  0  0  0  0  0
   -0.7461    4.6145   -0.9954 H   0  0  0  0  0  0  0  0  0  0  0  0
   -1.3229    3.3940   -2.1672 H   0  0  0  0  0  0  0  0  0  0  0  0
   -1.3112    3.0136    1.3348 C   0  0  0  0  0  0  0  0  0  0  0  0
   -2.0735    3.3362    0.5940 H   0  0  0  0  0  0  0  0  0  0  0  0
   -0.5261    4.2251    1.8456 C   0  0  0  0  0  0  0  0  0  0  0  0
   -1.2342    4.9795    2.2468 H   0  0  0  0  0  0  0  0  0  0  0  0
    0.0679    4.7216    1.0528 H   0  0  0  0  0  0  0  0  0  0  0  0
    0.1612    3.9644    2.6777 H   0  0  0  0  0  0  0  0  0  0  0  0
   -2.0408    2.2674    2.4578 C   0  0  0  0  0  0  0  0  0  0  0  0
   -2.6857    2.9717    3.0228 H   0  0  0  0  0  0  0  0  0  0  0  0
   -1.3373    1.8089    3.1851 H   0  0  0  0  0  0  0  0  0  0  0  0
   -2.6880    1.4691    2.0442 H   0  0  0  0  0  0  0  0  0  0  0  0
  1 35  1  0  0  0  0
  1  2  1  0  0  0  0
  2  4  1  0  0  0  0
  2  3  1  0  0  0  0
  5  2  1  0  0  0  0
  6  7  1  0  0  0  0
  6  5  2  0  0  0  0
  8  6  1  0  0  0  0
  9  8  1  0  0  0  0
 10  8  2  0  0  0  0
 10 12  1  0  0  0  0
 11 10  1  0  0  0  0
 12 20  1  0  0  0  0
 13 12  2  0  0  0  0
 13 15  1  0  0  0  0
 14 13  1  0  0  0  0
 15 17  2  0  0  0  0
 16 15  1  0  0  0  0
 17 19  1  0  0  0  0
 17 18  1  0  0  0  0
 19 21  1  0  0  0  0
 20  5  1  0  0  0  0
 20 19  2  0  0  0  0
 21 22  1  0  0  0  0
 21 23  1  0  0  0  0
 24 55  1  0  0  0  0
 24 21  1  0  0  0  0
 25 26  1  0  0  0  0
 25  1  1  0  0  0  0
 27 29  1  0  0  0  0
 27 25  1  0  0  0  0
 28 27  1  0  0  0  0
 30 27  1  0  0  0  0
 31 25  1  0  0  0  0
 31 34  1  0  0  0  0
 32 31  1  0  0  0  0
 33 31  1  0  0  0  0
 35 37  1  0  0  0  0
 35 41  1  0  0  0  0
 36 35  1  0  0  0  0
 37 38  1  0  0  0  0
 37 39  1  0  0  0  0
 40 37  1  0  0  0  0
 41 42  1  0  0  0  0
 41 44  1  0  0  0  0
 43 41  1  0  0  0  0
 45 46  1  0  0  0  0
 45 24  1  0  0  0  0
 47 50  1  0  0  0  0
 47 45  1  0  0  0  0
 48 47  1  0  0  0  0
 49 47  1  0  0  0  0
 51 45  1  0  0  0  0
 51 53  1  0  0  0  0
 52 51  1  0  0  0  0
 54 51  1  0  0  0  0
 55 57  1  0  0  0  0
 55 61  1  0  0  0  0
 56 55  1  0  0  0  0
 57 58  1  0  0  0  0
 57 60  1  0  0  0  0
 59 57  1  0  0  0  0
 61 62  1  0  0  0  0
 61 63  1  0  0  0  0
 64 61  1  0  0  0  0
M  END
