1,2
 OpenBabel05122313063D

 57 61  0  0  1  0  0  0  0  0999 V2000
   -1.6723   -0.5170    0.8127 P   0  0  1  0  0  0  0  0  0  0  0  0
    1.2630    0.2884    0.1202 P   0  0  0  0  0  0  0  0  0  0  0  0
   -0.3640    2.3578    0.5615 O   0  0  0  0  0  0  0  0  0  0  0  0
   -0.8456    0.6687    2.0474 C   0  0  1  0  0  0  0  0  0  0  0  0
   -0.5330    0.0576    2.9178 H   0  0  0  0  0  0  0  0  0  0  0  0
    0.3460    1.3768    1.3468 C   0  0  1  0  0  0  0  0  0  0  0  0
    1.1543    2.2455    2.3524 C   0  0  0  0  0  0  0  0  0  0  0  0
    2.1515    2.4924    1.9416 H   0  0  0  0  0  0  0  0  0  0  0  0
    1.3039    1.7324    3.3208 H   0  0  0  0  0  0  0  0  0  0  0  0
    0.2480    3.5030    2.4740 C   0  0  0  0  0  0  0  0  0  0  0  0
    0.0092    3.7728    3.5210 H   0  0  0  0  0  0  0  0  0  0  0  0
    0.7127    4.3799    1.9840 H   0  0  0  0  0  0  0  0  0  0  0  0
   -0.9813    3.0408    1.6748 C   0  0  2  0  0  0  0  0  0  0  0  0
   -1.6397    3.8381    1.2846 H   0  0  0  0  0  0  0  0  0  0  0  0
   -1.7060    1.9032    2.4456 C   0  0  0  0  0  0  0  0  0  0  0  0
   -2.7602    1.8032    2.1272 H   0  0  0  0  0  0  0  0  0  0  0  0
   -1.6965    2.0756    3.5396 H   0  0  0  0  0  0  0  0  0  0  0  0
   -2.1648   -1.9778    1.8244 C   0  0  0  0  0  0  0  0  0  0  0  0
   -2.7375   -1.6315    2.7111 H   0  0  0  0  0  0  0  0  0  0  0  0
   -2.8467   -2.5476    1.1596 H   0  0  0  0  0  0  0  0  0  0  0  0
   -0.9570   -2.8330    2.2128 C   0  0  0  0  0  0  0  0  0  0  0  0
   -0.4356   -3.1921    1.3034 H   0  0  0  0  0  0  0  0  0  0  0  0
   -1.2794   -3.7130    2.8040 H   0  0  0  0  0  0  0  0  0  0  0  0
   -0.2166   -2.2736    2.8214 H   0  0  0  0  0  0  0  0  0  0  0  0
   -3.2201    0.2887    0.2633 C   0  0  0  0  0  0  0  0  0  0  0  0
   -4.4681    0.0386    0.8675 C   0  0  0  0  0  0  0  0  0  0  0  0
   -4.5562   -0.6795    1.6958 H   0  0  0  0  0  0  0  0  0  0  0  0
   -5.6165    0.7008    0.4055 C   0  0  0  0  0  0  0  0  0  0  0  0
   -6.5904    0.4949    0.8749 H   0  0  0  0  0  0  0  0  0  0  0  0
   -5.5240    1.6156   -0.6545 C   0  0  0  0  0  0  0  0  0  0  0  0
   -6.4267    2.1301   -1.0173 H   0  0  0  0  0  0  0  0  0  0  0  0
   -4.2806    1.8646   -1.2596 C   0  0  0  0  0  0  0  0  0  0  0  0
   -4.2068    2.5712   -2.0999 H   0  0  0  0  0  0  0  0  0  0  0  0
   -3.1324    1.2014   -0.8082 C   0  0  0  0  0  0  0  0  0  0  0  0
   -2.1541    1.3748   -1.2806 H   0  0  0  0  0  0  0  0  0  0  0  0
    2.2272    1.4797   -0.8687 C   0  0  0  0  0  0  0  0  0  0  0  0
    3.5014    1.9193   -0.4579 C   0  0  0  0  0  0  0  0  0  0  0  0
    3.9701    1.4909    0.4414 H   0  0  0  0  0  0  0  0  0  0  0  0
    4.1818    2.8858   -1.2142 C   0  0  0  0  0  0  0  0  0  0  0  0
    5.1793    3.2256   -0.8968 H   0  0  0  0  0  0  0  0  0  0  0  0
    3.5951    3.4079   -2.3779 C   0  0  0  0  0  0  0  0  0  0  0  0
    4.1335    4.1607   -2.9737 H   0  0  0  0  0  0  0  0  0  0  0  0
    2.3297    2.9594   -2.7921 C   0  0  0  0  0  0  0  0  0  0  0  0
    1.8783    3.3552   -3.7142 H   0  0  0  0  0  0  0  0  0  0  0  0
    1.6442    1.9939   -2.0434 C   0  0  0  0  0  0  0  0  0  0  0  0
    0.6660    1.6113   -2.3702 H   0  0  0  0  0  0  0  0  0  0  0  0
    2.4902   -0.7089    1.0434 C   0  0  0  0  0  0  0  0  0  0  0  0
    3.3581   -1.4962    0.2521 C   0  0  0  0  0  0  0  0  0  0  0  0
    3.2633   -1.4660   -0.8466 H   0  0  0  0  0  0  0  0  0  0  0  0
    4.2869   -2.3445    0.8676 C   0  0  0  0  0  0  0  0  0  0  0  0
    4.9574   -2.9552    0.2443 H   0  0  0  0  0  0  0  0  0  0  0  0
    4.3512   -2.4313    2.2687 C   0  0  0  0  0  0  0  0  0  0  0  0
    5.0791   -3.1035    2.7479 H   0  0  0  0  0  0  0  0  0  0  0  0
    3.4754   -1.6692    3.0556 C   0  0  0  0  0  0  0  0  0  0  0  0
    3.5120   -1.7410    4.1532 H   0  0  0  0  0  0  0  0  0  0  0  0
    2.5459   -0.8103    2.4471 C   0  0  0  0  0  0  0  0  0  0  0  0
    1.8647   -0.2256    3.0794 H   0  0  0  0  0  0  0  0  0  0  0  0
  1 18  1  1  0  0  0
  1  4  1  0  0  0  0
  2 47  1  0  0  0  0
  3  6  1  0  0  0  0
  3 13  1  0  0  0  0
  4 15  1  0  0  0  0
  4  5  1  1  0  0  0
  6  2  1  6  0  0  0
  6  4  1  0  0  0  0
  6  7  1  0  0  0  0
  7 10  1  0  0  0  0
  7  9  1  0  0  0  0
  8  7  1  0  0  0  0
 10 11  1  0  0  0  0
 12 10  1  0  0  0  0
 13 14  1  6  0  0  0
 13 15  1  0  0  0  0
 13 10  1  0  0  0  0
 15 17  1  0  0  0  0
 16 15  1  0  0  0  0
 18 21  1  0  0  0  0
 18 19  1  0  0  0  0
 20 18  1  0  0  0  0
 21 23  1  0  0  0  0
 21 24  1  0  0  0  0
 22 21  1  0  0  0  0
 25  1  1  0  0  0  0
 25 26  1  0  0  0  0
 26 27  1  0  0  0  0
 28 26  2  0  0  0  0
 28 29  1  0  0  0  0
 30 28  1  0  0  0  0
 31 30  1  0  0  0  0
 32 34  1  0  0  0  0
 32 30  2  0  0  0  0
 33 32  1  0  0  0  0
 34 25  2  0  0  0  0
 35 34  1  0  0  0  0
 36 37  1  0  0  0  0
 36  2  1  0  0  0  0
 37 38  1  0  0  0  0
 39 40  1  0  0  0  0
 39 37  2  0  0  0  0
 41 39  1  0  0  0  0
 42 41  1  0  0  0  0
 43 41  2  0  0  0  0
 43 45  1  0  0  0  0
 44 43  1  0  0  0  0
 45 36  2  0  0  0  0
 46 45  1  0  0  0  0
 47 56  1  0  0  0  0
 48 50  1  0  0  0  0
 48 47  2  0  0  0  0
 49 48  1  0  0  0  0
 50 52  2  0  0  0  0
 51 50  1  0  0  0  0
 52 53  1  0  0  0  0
 52 54  1  0  0  0  0
 54 55  1  0  0  0  0
 56 54  2  0  0  0  0
 56 57  1  0  0  0  0
M  END
