1,2
 OpenBabel05122313063D

 67 66  0  0  0  0  0  0  0  0999 V2000
   -0.0476   -2.2295    0.3388 P   0  0  0  0  0  0  0  0  0  0  0  0
   -0.1098    1.1016    0.5319 P   0  0  0  0  0  0  0  0  0  0  0  0
   -3.1209   -2.2032    0.5131 O   0  0  0  0  0  0  0  0  0  0  0  0
    2.9536   -1.5291    1.4946 O   0  0  0  0  0  0  0  0  0  0  0  0
    3.7598    2.2407   -0.0202 O   0  0  0  0  0  0  0  0  0  0  0  0
   -3.3260    3.4825   -0.3761 O   0  0  0  0  0  0  0  0  0  0  0  0
   -0.4178   -1.9785    2.1385 C   0  0  0  0  0  0  0  0  0  0  0  0
   -1.5233   -2.0508    2.1942 H   0  0  0  0  0  0  0  0  0  0  0  0
    0.0057   -2.8550    2.6726 H   0  0  0  0  0  0  0  0  0  0  0  0
    0.0739   -0.6778    2.7791 C   0  0  0  0  0  0  0  0  0  0  0  0
   -0.1280   -0.7382    3.8695 H   0  0  0  0  0  0  0  0  0  0  0  0
    1.1759   -0.6122    2.6725 H   0  0  0  0  0  0  0  0  0  0  0  0
   -0.6079    0.5885    2.2422 C   0  0  0  0  0  0  0  0  0  0  0  0
   -0.3869    1.4548    2.9018 H   0  0  0  0  0  0  0  0  0  0  0  0
   -1.7116    0.4624    2.2306 H   0  0  0  0  0  0  0  0  0  0  0  0
   -1.2489   -3.5711   -0.1102 C   0  0  0  0  0  0  0  0  0  0  0  0
   -0.8083   -4.1086   -0.9711 H   0  0  0  0  0  0  0  0  0  0  0  0
   -1.3443   -4.2635    0.7531 H   0  0  0  0  0  0  0  0  0  0  0  0
   -2.5949   -3.0035   -0.5339 C   0  0  0  0  0  0  0  0  0  0  0  0
   -2.4435   -2.3999   -1.4598 H   0  0  0  0  0  0  0  0  0  0  0  0
   -3.3001   -3.8357   -0.7814 H   0  0  0  0  0  0  0  0  0  0  0  0
   -4.2554   -1.4471    0.1203 C   0  0  0  0  0  0  0  0  0  0  0  0
   -5.0206   -2.1176   -0.3433 H   0  0  0  0  0  0  0  0  0  0  0  0
   -3.9645   -0.7021   -0.6604 H   0  0  0  0  0  0  0  0  0  0  0  0
   -4.8333   -0.7614    1.3442 C   0  0  0  0  0  0  0  0  0  0  0  0
   -5.7234   -0.1614    1.0713 H   0  0  0  0  0  0  0  0  0  0  0  0
   -4.0876   -0.0806    1.8039 H   0  0  0  0  0  0  0  0  0  0  0  0
   -5.1311   -1.5067    2.1082 H   0  0  0  0  0  0  0  0  0  0  0  0
    1.6005   -3.0696    0.2147 C   0  0  0  0  0  0  0  0  0  0  0  0
    1.6801   -3.8472    1.0036 H   0  0  0  0  0  0  0  0  0  0  0  0
    1.5618   -3.5589   -0.7803 H   0  0  0  0  0  0  0  0  0  0  0  0
    2.8112   -2.1494    0.2288 C   0  0  0  0  0  0  0  0  0  0  0  0
    3.7226   -2.7549   -0.0009 H   0  0  0  0  0  0  0  0  0  0  0  0
    2.7106   -1.3886   -0.5843 H   0  0  0  0  0  0  0  0  0  0  0  0
    4.1909   -0.8343    1.6350 C   0  0  0  0  0  0  0  0  0  0  0  0
    4.2625   -0.0094    0.8859 H   0  0  0  0  0  0  0  0  0  0  0  0
    5.0355   -1.5401    1.4379 H   0  0  0  0  0  0  0  0  0  0  0  0
    4.2867   -0.2688    3.0397 C   0  0  0  0  0  0  0  0  0  0  0  0
    5.2665    0.2271    3.1859 H   0  0  0  0  0  0  0  0  0  0  0  0
    4.1802   -1.0706    3.7974 H   0  0  0  0  0  0  0  0  0  0  0  0
    3.4977    0.4889    3.2210 H   0  0  0  0  0  0  0  0  0  0  0  0
    1.6096    1.7100    0.8158 C   0  0  0  0  0  0  0  0  0  0  0  0
    1.5727    2.6105    1.4653 H   0  0  0  0  0  0  0  0  0  0  0  0
    2.0999    0.8972    1.3881 H   0  0  0  0  0  0  0  0  0  0  0  0
    2.4321    1.9763   -0.4384 C   0  0  0  0  0  0  0  0  0  0  0  0
    2.3896    1.0935   -1.1215 H   0  0  0  0  0  0  0  0  0  0  0  0
    2.0152    2.8291   -1.0254 H   0  0  0  0  0  0  0  0  0  0  0  0
    4.6287    2.5343   -1.1027 C   0  0  0  0  0  0  0  0  0  0  0  0
    4.2626    3.4368   -1.6527 H   0  0  0  0  0  0  0  0  0  0  0  0
    4.6241    1.6938   -1.8408 H   0  0  0  0  0  0  0  0  0  0  0  0
    6.0262    2.7683   -0.5591 C   0  0  0  0  0  0  0  0  0  0  0  0
    6.7238    3.0312   -1.3786 H   0  0  0  0  0  0  0  0  0  0  0  0
    6.4116    1.8600   -0.0533 H   0  0  0  0  0  0  0  0  0  0  0  0
    6.0235    3.5963    0.1776 H   0  0  0  0  0  0  0  0  0  0  0  0
   -1.1325    2.6070    0.2358 C   0  0  0  0  0  0  0  0  0  0  0  0
   -1.1130    3.2059    1.1722 H   0  0  0  0  0  0  0  0  0  0  0  0
   -0.6272    3.1742   -0.5700 H   0  0  0  0  0  0  0  0  0  0  0  0
   -2.5685    2.2985   -0.2110 C   0  0  0  0  0  0  0  0  0  0  0  0
   -2.5177    1.7980   -1.1992 H   0  0  0  0  0  0  0  0  0  0  0  0
   -3.0633    1.5938    0.4997 H   0  0  0  0  0  0  0  0  0  0  0  0
   -3.9158    3.9925    0.8101 C   0  0  0  0  0  0  0  0  0  0  0  0
   -4.0745    5.0768    0.6300 H   0  0  0  0  0  0  0  0  0  0  0  0
   -3.2129    3.9155    1.6764 H   0  0  0  0  0  0  0  0  0  0  0  0
   -5.2446    3.3210    1.1482 C   0  0  0  0  0  0  0  0  0  0  0  0
   -5.7043    3.7873    2.0437 H   0  0  0  0  0  0  0  0  0  0  0  0
   -5.1159    2.2408    1.3619 H   0  0  0  0  0  0  0  0  0  0  0  0
   -5.9515    3.4193    0.3003 H   0  0  0  0  0  0  0  0  0  0  0  0
  1  7  1  0  0  0  0
  2 42  1  0  0  0  0
  2 13  1  0  0  0  0
  4 35  1  0  0  0  0
  6 58  1  0  0  0  0
  6 61  1  0  0  0  0
  7  8  1  0  0  0  0
  7  9  1  0  0  0  0
  7 10  1  0  0  0  0
 10 11  1  0  0  0  0
 12 10  1  0  0  0  0
 13 10  1  0  0  0  0
 13 14  1  0  0  0  0
 15 13  1  0  0  0  0
 16  1  1  0  0  0  0
 16 18  1  0  0  0  0
 17 16  1  0  0  0  0
 19 16  1  0  0  0  0
 19  3  1  0  0  0  0
 20 19  1  0  0  0  0
 21 19  1  0  0  0  0
 22  3  1  0  0  0  0
 22 25  1  0  0  0  0
 23 22  1  0  0  0  0
 24 22  1  0  0  0  0
 25 27  1  0  0  0  0
 25 28  1  0  0  0  0
 26 25  1  0  0  0  0
 29 32  1  0  0  0  0
 29  1  1  0  0  0  0
 29 30  1  0  0  0  0
 31 29  1  0  0  0  0
 32  4  1  0  0  0  0
 33 32  1  0  0  0  0
 34 32  1  0  0  0  0
 35 38  1  0  0  0  0
 36 35  1  0  0  0  0
 37 35  1  0  0  0  0
 38 39  1  0  0  0  0
 38 41  1  0  0  0  0
 38 40  1  0  0  0  0
 42 44  1  0  0  0  0
 42 43  1  0  0  0  0
 45  5  1  0  0  0  0
 45 42  1  0  0  0  0
 46 45  1  0  0  0  0
 47 45  1  0  0  0  0
 48 51  1  0  0  0  0
 48  5  1  0  0  0  0
 49 48  1  0  0  0  0
 50 48  1  0  0  0  0
 51 53  1  0  0  0  0
 51 54  1  0  0  0  0
 52 51  1  0  0  0  0
 55  2  1  0  0  0  0
 55 56  1  0  0  0  0
 57 55  1  0  0  0  0
 58 55  1  0  0  0  0
 58 60  1  0  0  0  0
 59 58  1  0  0  0  0
 61 64  1  0  0  0  0
 61 63  1  0  0  0  0
 62 61  1  0  0  0  0
 64 66  1  0  0  0  0
 64 65  1  0  0  0  0
 67 64  1  0  0  0  0
M  END
