1,2
 OpenBabel05122313063D

 51 53  0  0  1  0  0  0  0  0999 V2000
   -1.5520    1.1422   -0.0382 P   0  0  1  0  0  0  0  0  0  0  0  0
    1.6057    1.0612    0.0641 P   0  0  2  0  0  0  0  0  0  0  0  0
   -0.5861    2.6990   -0.3806 C   0  0  2  0  0  0  0  0  0  0  0  0
   -0.3257    2.6192   -1.4619 H   0  0  0  0  0  0  0  0  0  0  0  0
    0.7207    2.6599    0.4384 C   0  0  2  0  0  0  0  0  0  0  0  0
    0.4395    2.5523    1.5109 H   0  0  0  0  0  0  0  0  0  0  0  0
    1.3523    4.0517    0.2234 C   0  0  0  0  0  0  0  0  0  0  0  0
    2.1114    4.0297   -0.5842 H   0  0  0  0  0  0  0  0  0  0  0  0
    1.8769    4.3961    1.1359 H   0  0  0  0  0  0  0  0  0  0  0  0
    0.1643    4.9834   -0.1754 C   0  0  0  0  0  0  0  0  0  0  0  0
    0.3070    5.3539   -1.2105 H   0  0  0  0  0  0  0  0  0  0  0  0
    0.0912    5.8787    0.4728 H   0  0  0  0  0  0  0  0  0  0  0  0
   -1.1129    4.1112   -0.1026 C   0  0  0  0  0  0  0  0  0  0  0  0
   -1.5498    4.1552    0.9175 H   0  0  0  0  0  0  0  0  0  0  0  0
   -1.9007    4.4348   -0.8112 H   0  0  0  0  0  0  0  0  0  0  0  0
   -2.5905    1.4459    1.4996 C   0  0  2  0  0  0  0  0  0  0  0  0
   -2.4757    2.5323    1.7104 H   0  0  0  0  0  0  0  0  0  0  0  0
   -2.1696    0.6378    2.7250 C   0  0  0  0  0  0  0  0  0  0  0  0
   -2.2188   -0.4492    2.5136 H   0  0  0  0  0  0  0  0  0  0  0  0
   -2.8388    0.8634    3.5810 H   0  0  0  0  0  0  0  0  0  0  0  0
   -1.1298    0.8691    3.0318 H   0  0  0  0  0  0  0  0  0  0  0  0
   -4.0339    1.1950    1.0123 C   0  0  0  0  0  0  0  0  0  0  0  0
   -4.2268    0.1007    1.0300 H   0  0  0  0  0  0  0  0  0  0  0  0
   -4.7667    1.6742    1.6943 H   0  0  0  0  0  0  0  0  0  0  0  0
   -4.1534    1.7094   -0.4284 C   0  0  0  0  0  0  0  0  0  0  0  0
   -4.0873    2.8209   -0.4482 H   0  0  0  0  0  0  0  0  0  0  0  0
   -5.1277    1.4375   -0.8860 H   0  0  0  0  0  0  0  0  0  0  0  0
   -2.9892    1.0993   -1.2318 C   0  0  1  0  0  0  0  0  0  0  0  0
   -3.1703    0.0064   -1.3373 H   0  0  0  0  0  0  0  0  0  0  0  0
   -2.7178    1.7051   -2.6040 C   0  0  0  0  0  0  0  0  0  0  0  0
   -2.5263    2.7969   -2.5499 H   0  0  0  0  0  0  0  0  0  0  0  0
   -3.5952    1.5569   -3.2663 H   0  0  0  0  0  0  0  0  0  0  0  0
   -1.8490    1.2222   -3.0960 H   0  0  0  0  0  0  0  0  0  0  0  0
    3.0452    0.9246    1.2462 C   0  0  2  0  0  0  0  0  0  0  0  0
    3.1745   -0.1777    1.3281 H   0  0  0  0  0  0  0  0  0  0  0  0
    2.8104    1.5134    2.6324 C   0  0  0  0  0  0  0  0  0  0  0  0
    2.6752    2.6145    2.6026 H   0  0  0  0  0  0  0  0  0  0  0  0
    3.6816    1.3064    3.2871 H   0  0  0  0  0  0  0  0  0  0  0  0
    1.9201    1.0645    3.1181 H   0  0  0  0  0  0  0  0  0  0  0  0
    4.2323    1.4952    0.4475 C   0  0  0  0  0  0  0  0  0  0  0  0
    4.2184    2.6080    0.4893 H   0  0  0  0  0  0  0  0  0  0  0  0
    5.1952    1.1696    0.8939 H   0  0  0  0  0  0  0  0  0  0  0  0
    4.0818    1.0135   -1.0019 C   0  0  0  0  0  0  0  0  0  0  0  0
    4.2263   -0.0876   -1.0404 H   0  0  0  0  0  0  0  0  0  0  0  0
    4.8314    1.4721   -1.6797 H   0  0  0  0  0  0  0  0  0  0  0  0
    2.6476    1.3344   -1.4763 C   0  0  1  0  0  0  0  0  0  0  0  0
    2.5789    2.4269   -1.6769 H   0  0  0  0  0  0  0  0  0  0  0  0
    2.1831    0.5593   -2.7074 C   0  0  0  0  0  0  0  0  0  0  0  0
    2.1871   -0.5312   -2.5090 H   0  0  0  0  0  0  0  0  0  0  0  0
    2.8546    0.7665   -3.5663 H   0  0  0  0  0  0  0  0  0  0  0  0
    1.1516    0.8383   -3.0025 H   0  0  0  0  0  0  0  0  0  0  0  0
  1  3  1  6  0  0  0
  1 16  1  0  0  0  0
  2  5  1  1  0  0  0
  2 34  1  0  0  0  0
  3  4  1  6  0  0  0
  3 13  1  0  0  0  0
  3  5  1  0  0  0  0
  5  6  1  1  0  0  0
  7  5  1  0  0  0  0
  7  9  1  0  0  0  0
  8  7  1  0  0  0  0
 10 13  1  0  0  0  0
 10  7  1  0  0  0  0
 10 12  1  0  0  0  0
 11 10  1  0  0  0  0
 13 14  1  0  0  0  0
 15 13  1  0  0  0  0
 16 17  1  1  0  0  0
 16 18  1  0  0  0  0
 18 21  1  0  0  0  0
 18 20  1  0  0  0  0
 19 18  1  0  0  0  0
 22 23  1  0  0  0  0
 22 16  1  0  0  0  0
 22 24  1  0  0  0  0
 25 22  1  0  0  0  0
 26 25  1  0  0  0  0
 27 25  1  0  0  0  0
 28 29  1  6  0  0  0
 28 25  1  0  0  0  0
 28  1  1  0  0  0  0
 30 31  1  0  0  0  0
 30 28  1  0  0  0  0
 32 30  1  0  0  0  0
 33 30  1  0  0  0  0
 34 35  1  1  0  0  0
 34 36  1  0  0  0  0
 36 39  1  0  0  0  0
 36 38  1  0  0  0  0
 37 36  1  0  0  0  0
 40 41  1  0  0  0  0
 40 42  1  0  0  0  0
 40 34  1  0  0  0  0
 43 40  1  0  0  0  0
 44 43  1  0  0  0  0
 45 43  1  0  0  0  0
 46 47  1  6  0  0  0
 46 43  1  0  0  0  0
 46  2  1  0  0  0  0
 48 49  1  0  0  0  0
 48 46  1  0  0  0  0
 50 48  1  0  0  0  0
 51 48  1  0  0  0  0
M  END
