1,16
 OpenBabel05122313063D

 60 64  0  0  0  0  0  0  0  0999 V2000
   -1.7136    0.0402    0.2973 P   0  0  0  0  0  0  0  0  0  0  0  0
   -1.3391   -0.1333    1.9936 N   0  0  0  0  0  0  0  0  0  0  0  0
   -0.8555    1.0317    2.7288 C   0  0  0  0  0  0  0  0  0  0  0  0
   -1.5168    1.8994    2.5408 H   0  0  0  0  0  0  0  0  0  0  0  0
   -0.9389    0.8009    3.8136 H   0  0  0  0  0  0  0  0  0  0  0  0
    0.6025    1.3611    2.3430 C   0  0  0  0  0  0  0  0  0  0  0  0
    1.1225    1.9051    3.1663 H   0  0  0  0  0  0  0  0  0  0  0  0
    0.6076    2.0411    1.4659 H   0  0  0  0  0  0  0  0  0  0  0  0
    1.3391    0.1334    1.9936 N   0  0  0  0  0  0  0  0  0  0  0  0
    0.8554   -1.0314    2.7290 C   0  0  0  0  0  0  0  0  0  0  0  0
    1.5168   -1.8992    2.5412 H   0  0  0  0  0  0  0  0  0  0  0  0
    0.9387   -0.8005    3.8138 H   0  0  0  0  0  0  0  0  0  0  0  0
   -0.6025   -1.3609    2.3431 C   0  0  0  0  0  0  0  0  0  0  0  0
   -0.6076   -2.0409    1.4659 H   0  0  0  0  0  0  0  0  0  0  0  0
   -1.1226   -1.9049    3.1663 H   0  0  0  0  0  0  0  0  0  0  0  0
    1.7136   -0.0401    0.2974 P   0  0  0  0  0  0  0  0  0  0  0  0
   -2.6782    1.5980    0.2971 C   0  0  0  0  0  0  0  0  0  0  0  0
   -2.0845    2.7496   -0.2566 C   0  0  0  0  0  0  0  0  0  0  0  0
   -1.0969    2.6682   -0.7373 H   0  0  0  0  0  0  0  0  0  0  0  0
   -2.7621    3.9761   -0.2123 C   0  0  0  0  0  0  0  0  0  0  0  0
   -2.2966    4.8721   -0.6494 H   0  0  0  0  0  0  0  0  0  0  0  0
   -4.0364    4.0550    0.3724 C   0  0  0  0  0  0  0  0  0  0  0  0
   -4.5713    5.0166    0.3987 H   0  0  0  0  0  0  0  0  0  0  0  0
   -4.6347    2.9050    0.9130 C   0  0  0  0  0  0  0  0  0  0  0  0
   -5.6387    2.9627    1.3600 H   0  0  0  0  0  0  0  0  0  0  0  0
   -3.9595    1.6760    0.8767 C   0  0  0  0  0  0  0  0  0  0  0  0
   -4.4357    0.7745    1.2890 H   0  0  0  0  0  0  0  0  0  0  0  0
   -2.8934   -1.3695    0.1303 C   0  0  0  0  0  0  0  0  0  0  0  0
   -3.0442   -2.0554   -1.0915 C   0  0  0  0  0  0  0  0  0  0  0  0
   -2.4693   -1.7237   -1.9701 H   0  0  0  0  0  0  0  0  0  0  0  0
   -3.9474   -3.1251   -1.1837 C   0  0  0  0  0  0  0  0  0  0  0  0
   -4.0602   -3.6534   -2.1425 H   0  0  0  0  0  0  0  0  0  0  0  0
   -4.7019   -3.5196   -0.0680 C   0  0  0  0  0  0  0  0  0  0  0  0
   -5.4082   -4.3603   -0.1471 H   0  0  0  0  0  0  0  0  0  0  0  0
   -4.5489   -2.8424    1.1525 C   0  0  0  0  0  0  0  0  0  0  0  0
   -5.1328   -3.1497    2.0337 H   0  0  0  0  0  0  0  0  0  0  0  0
   -3.6455   -1.7753    1.2562 C   0  0  0  0  0  0  0  0  0  0  0  0
   -3.5014   -1.2552    2.2148 H   0  0  0  0  0  0  0  0  0  0  0  0
    2.8935    1.3695    0.1304 C   0  0  0  0  0  0  0  0  0  0  0  0
    3.6457    1.7752    1.2563 C   0  0  0  0  0  0  0  0  0  0  0  0
    3.5015    1.2551    2.2148 H   0  0  0  0  0  0  0  0  0  0  0  0
    4.5492    2.8422    1.1525 C   0  0  0  0  0  0  0  0  0  0  0  0
    5.1332    3.1494    2.0337 H   0  0  0  0  0  0  0  0  0  0  0  0
    4.7022    3.5194   -0.0680 C   0  0  0  0  0  0  0  0  0  0  0  0
    5.4087    4.3600   -0.1471 H   0  0  0  0  0  0  0  0  0  0  0  0
    3.9476    3.1249   -1.1837 C   0  0  0  0  0  0  0  0  0  0  0  0
    4.0605    3.6532   -2.1425 H   0  0  0  0  0  0  0  0  0  0  0  0
    3.0444    2.0554   -1.0915 C   0  0  0  0  0  0  0  0  0  0  0  0
    2.4694    1.7238   -1.9701 H   0  0  0  0  0  0  0  0  0  0  0  0
    2.6781   -1.5980    0.2972 C   0  0  0  0  0  0  0  0  0  0  0  0
    3.9595   -1.6761    0.8766 C   0  0  0  0  0  0  0  0  0  0  0  0
    4.4358   -0.7746    1.2888 H   0  0  0  0  0  0  0  0  0  0  0  0
    4.6346   -2.9050    0.9128 C   0  0  0  0  0  0  0  0  0  0  0  0
    5.6387   -2.9629    1.3596 H   0  0  0  0  0  0  0  0  0  0  0  0
    4.0361   -4.0551    0.3724 C   0  0  0  0  0  0  0  0  0  0  0  0
    4.5709   -5.0168    0.3987 H   0  0  0  0  0  0  0  0  0  0  0  0
    2.7617   -3.9761   -0.2121 C   0  0  0  0  0  0  0  0  0  0  0  0
    2.2961   -4.8721   -0.6491 H   0  0  0  0  0  0  0  0  0  0  0  0
    2.0842   -2.7496   -0.2563 C   0  0  0  0  0  0  0  0  0  0  0  0
    1.0965   -2.6681   -0.7368 H   0  0  0  0  0  0  0  0  0  0  0  0
  1  2  1  0  0  0  0
  2 13  1  0  0  0  0
  2  3  1  0  0  0  0
  3  5  1  0  0  0  0
  4  3  1  0  0  0  0
  6  3  1  0  0  0  0
  6  7  1  0  0  0  0
  8  6  1  0  0  0  0
  9  6  1  0  0  0  0
  9 10  1  0  0  0  0
 10 12  1  0  0  0  0
 11 10  1  0  0  0  0
 13 10  1  0  0  0  0
 13 15  1  0  0  0  0
 14 13  1  0  0  0  0
 16  9  1  0  0  0  0
 17  1  1  0  0  0  0
 17 26  1  0  0  0  0
 18 20  1  0  0  0  0
 18 17  2  0  0  0  0
 19 18  1  0  0  0  0
 20 22  2  0  0  0  0
 21 20  1  0  0  0  0
 22 23  1  0  0  0  0
 22 24  1  0  0  0  0
 24 25  1  0  0  0  0
 26 24  2  0  0  0  0
 26 27  1  0  0  0  0
 28  1  1  0  0  0  0
 28 37  1  0  0  0  0
 29 28  2  0  0  0  0
 30 29  1  0  0  0  0
 31 29  1  0  0  0  0
 31 33  2  0  0  0  0
 32 31  1  0  0  0  0
 33 35  1  0  0  0  0
 34 33  1  0  0  0  0
 35 37  2  0  0  0  0
 35 36  1  0  0  0  0
 37 38  1  0  0  0  0
 39 16  1  0  0  0  0
 39 40  1  0  0  0  0
 40 41  1  0  0  0  0
 42 40  2  0  0  0  0
 42 43  1  0  0  0  0
 44 42  1  0  0  0  0
 45 44  1  0  0  0  0
 46 48  1  0  0  0  0
 46 44  2  0  0  0  0
 47 46  1  0  0  0  0
 48 39  2  0  0  0  0
 49 48  1  0  0  0  0
 50 16  1  0  0  0  0
 50 51  1  0  0  0  0
 51 53  2  0  0  0  0
 51 52  1  0  0  0  0
 53 54  1  0  0  0  0
 55 56  1  0  0  0  0
 55 53  1  0  0  0  0
 57 55  2  0  0  0  0
 58 57  1  0  0  0  0
 59 57  1  0  0  0  0
 59 50  2  0  0  0  0
 60 59  1  0  0  0  0
M  END
