1,2
 OpenBabel05122313063D

 56 55  0  0  0  0  0  0  0  0999 V2000
   -1.3406   -1.2968   -0.0266 P   0  0  0  0  0  0  0  0  0  0  0  0
    1.3403   -1.2970    0.0266 P   0  0  0  0  0  0  0  0  0  0  0  0
   -0.0002   -2.4307   -0.0001 C   0  0  0  0  0  3  0  0  0  0  0  0
   -0.0003   -3.5312   -0.0001 H   0  0  0  0  0  0  0  0  0  0  0  0
   -2.4358   -1.5071   -1.6030 C   0  0  0  0  0  0  0  0  0  0  0  0
   -1.4820   -1.5518   -2.8019 C   0  0  0  0  0  0  0  0  0  0  0  0
   -0.9981   -0.5678   -2.9527 H   0  0  0  0  0  0  0  0  0  0  0  0
   -2.0618   -1.7894   -3.7188 H   0  0  0  0  0  0  0  0  0  0  0  0
   -0.6946   -2.3187   -2.6715 H   0  0  0  0  0  0  0  0  0  0  0  0
   -3.3849   -0.3130   -1.8163 C   0  0  0  0  0  0  0  0  0  0  0  0
   -2.8480    0.6466   -1.6736 H   0  0  0  0  0  0  0  0  0  0  0  0
   -4.2579   -0.3206   -1.1427 H   0  0  0  0  0  0  0  0  0  0  0  0
   -3.7734   -0.3399   -2.8569 H   0  0  0  0  0  0  0  0  0  0  0  0
   -3.1819   -2.8502   -1.5311 C   0  0  0  0  0  0  0  0  0  0  0  0
   -3.9398   -2.8849   -0.7262 H   0  0  0  0  0  0  0  0  0  0  0  0
   -2.4759   -3.6932   -1.3809 H   0  0  0  0  0  0  0  0  0  0  0  0
   -3.7120   -3.0301   -2.4914 H   0  0  0  0  0  0  0  0  0  0  0  0
   -2.5058   -1.4188    1.5229 C   0  0  0  0  0  0  0  0  0  0  0  0
   -2.5411   -2.8894    1.9685 C   0  0  0  0  0  0  0  0  0  0  0  0
   -1.5167   -3.2781    2.1353 H   0  0  0  0  0  0  0  0  0  0  0  0
   -3.0374   -3.5443    1.2257 H   0  0  0  0  0  0  0  0  0  0  0  0
   -3.1031   -2.9766    2.9233 H   0  0  0  0  0  0  0  0  0  0  0  0
   -1.8899   -0.5523    2.6332 C   0  0  0  0  0  0  0  0  0  0  0  0
   -1.8343    0.5118    2.3284 H   0  0  0  0  0  0  0  0  0  0  0  0
   -0.8765   -0.8865    2.9012 H   0  0  0  0  0  0  0  0  0  0  0  0
   -2.5235   -0.6241    3.5437 H   0  0  0  0  0  0  0  0  0  0  0  0
   -3.9277   -0.8878    1.2872 C   0  0  0  0  0  0  0  0  0  0  0  0
   -4.5085   -1.4852    0.5610 H   0  0  0  0  0  0  0  0  0  0  0  0
   -3.9160    0.1682    0.9544 H   0  0  0  0  0  0  0  0  0  0  0  0
   -4.4775   -0.9260    2.2522 H   0  0  0  0  0  0  0  0  0  0  0  0
    2.5055   -1.4190   -1.5229 C   0  0  0  0  0  0  0  0  0  0  0  0
    1.8898   -0.5521   -2.6331 C   0  0  0  0  0  0  0  0  0  0  0  0
    0.8763   -0.8859   -2.9010 H   0  0  0  0  0  0  0  0  0  0  0  0
    2.5232   -0.6241   -3.5436 H   0  0  0  0  0  0  0  0  0  0  0  0
    1.8347    0.5120   -2.3281 H   0  0  0  0  0  0  0  0  0  0  0  0
    3.9275   -0.8883   -1.2873 C   0  0  0  0  0  0  0  0  0  0  0  0
    3.9162    0.1676   -0.9543 H   0  0  0  0  0  0  0  0  0  0  0  0
    4.4773   -0.9266   -2.2524 H   0  0  0  0  0  0  0  0  0  0  0  0
    4.5083   -1.4859   -0.5612 H   0  0  0  0  0  0  0  0  0  0  0  0
    2.5404   -2.8894   -1.9688 C   0  0  0  0  0  0  0  0  0  0  0  0
    1.5159   -3.2779   -2.1359 H   0  0  0  0  0  0  0  0  0  0  0  0
    3.0364   -3.5447   -1.2260 H   0  0  0  0  0  0  0  0  0  0  0  0
    3.1026   -2.9767   -2.9235 H   0  0  0  0  0  0  0  0  0  0  0  0
    2.4355   -1.5077    1.6029 C   0  0  0  0  0  0  0  0  0  0  0  0
    3.1814   -2.8509    1.5308 C   0  0  0  0  0  0  0  0  0  0  0  0
    2.4754   -3.6938    1.3804 H   0  0  0  0  0  0  0  0  0  0  0  0
    3.7116   -3.0310    2.4910 H   0  0  0  0  0  0  0  0  0  0  0  0
    3.9394   -2.8855    0.7259 H   0  0  0  0  0  0  0  0  0  0  0  0
    1.4818   -1.5525    2.8018 C   0  0  0  0  0  0  0  0  0  0  0  0
    0.6944   -2.3194    2.6714 H   0  0  0  0  0  0  0  0  0  0  0  0
    0.9979   -0.5685    2.9528 H   0  0  0  0  0  0  0  0  0  0  0  0
    2.0616   -1.7903    3.7187 H   0  0  0  0  0  0  0  0  0  0  0  0
    3.3847   -0.3138    1.8164 C   0  0  0  0  0  0  0  0  0  0  0  0
    2.8478    0.6459    1.6745 H   0  0  0  0  0  0  0  0  0  0  0  0
    4.2574   -0.3210    1.1423 H   0  0  0  0  0  0  0  0  0  0  0  0
    3.7738   -0.3413    2.8568 H   0  0  0  0  0  0  0  0  0  0  0  0
  1  3  1  0  0  0  0
  1 18  1  0  0  0  0
  2 44  1  0  0  0  0
  3  2  1  0  0  0  0
  4  3  1  0  0  0  0
  5 14  1  0  0  0  0
  5  1  1  0  0  0  0
  6  9  1  0  0  0  0
  6  5  1  0  0  0  0
  7  6  1  0  0  0  0
  8  6  1  0  0  0  0
 10 11  1  0  0  0  0
 10  5  1  0  0  0  0
 10 12  1  0  0  0  0
 13 10  1  0  0  0  0
 14 16  1  0  0  0  0
 14 15  1  0  0  0  0
 17 14  1  0  0  0  0
 18 19  1  0  0  0  0
 18 23  1  0  0  0  0
 19 20  1  0  0  0  0
 19 22  1  0  0  0  0
 21 19  1  0  0  0  0
 23 25  1  0  0  0  0
 23 26  1  0  0  0  0
 24 23  1  0  0  0  0
 27 18  1  0  0  0  0
 27 30  1  0  0  0  0
 28 27  1  0  0  0  0
 29 27  1  0  0  0  0
 31 36  1  0  0  0  0
 31  2  1  0  0  0  0
 32 35  1  0  0  0  0
 32 31  1  0  0  0  0
 33 32  1  0  0  0  0
 34 32  1  0  0  0  0
 36 37  1  0  0  0  0
 36 39  1  0  0  0  0
 38 36  1  0  0  0  0
 40 31  1  0  0  0  0
 40 42  1  0  0  0  0
 41 40  1  0  0  0  0
 43 40  1  0  0  0  0
 44 53  1  0  0  0  0
 44 49  1  0  0  0  0
 45 44  1  0  0  0  0
 45 47  1  0  0  0  0
 46 45  1  0  0  0  0
 48 45  1  0  0  0  0
 49 51  1  0  0  0  0
 49 52  1  0  0  0  0
 50 49  1  0  0  0  0
 53 56  1  0  0  0  0
 54 53  1  0  0  0  0
 55 53  1  0  0  0  0
M  END
