1,2
 OpenBabel05122313063D

 76 81  0  0  1  0  0  0  0  0999 V2000
   -0.5028    1.8916    0.1803 P   0  0  1  0  0  0  0  0  0  0  0  0
   -1.3580   -1.5780    0.0755 P   0  0  2  0  0  0  0  0  0  0  0  0
    0.4129   -2.1450   -0.1626 C   0  0  0  0  0  0  0  0  0  0  0  0
    0.4045   -3.1948    0.1993 H   0  0  0  0  0  0  0  0  0  0  0  0
    0.5833   -2.1757   -1.2609 H   0  0  0  0  0  0  0  0  0  0  0  0
    1.5228   -1.3488    0.5167 C   0  0  1  0  0  0  0  0  0  0  0  0
    1.3189   -1.3042    1.6063 H   0  0  0  0  0  0  0  0  0  0  0  0
    2.9192   -2.0641    0.3742 C   0  0  2  0  0  0  0  0  0  0  0  0
    2.8524   -3.1178    0.7079 H   0  0  0  0  0  0  0  0  0  0  0  0
    3.8731   -1.2517    1.2278 C   0  0  0  0  0  0  0  0  0  0  0  0
    4.5723   -1.6963    2.3561 C   0  0  0  0  0  0  0  0  0  0  0  0
    4.4864   -2.7450    2.6819 H   0  0  0  0  0  0  0  0  0  0  0  0
    5.3867   -0.7946    3.0658 C   0  0  0  0  0  0  0  0  0  0  0  0
    5.9449   -1.1408    3.9489 H   0  0  0  0  0  0  0  0  0  0  0  0
    5.4915    0.5427    2.6517 C   0  0  0  0  0  0  0  0  0  0  0  0
    6.1310    1.2420    3.2114 H   0  0  0  0  0  0  0  0  0  0  0  0
    4.7849    0.9926    1.5212 C   0  0  0  0  0  0  0  0  0  0  0  0
    4.8660    2.0409    1.1927 H   0  0  0  0  0  0  0  0  0  0  0  0
    3.9801    0.0950    0.8093 C   0  0  0  0  0  0  0  0  0  0  0  0
    3.1367    0.4001   -0.4105 C   0  0  1  0  0  0  0  0  0  0  0  0
    3.2449    1.4477   -0.7523 H   0  0  0  0  0  0  0  0  0  0  0  0
    3.3496   -1.9413   -1.0734 C   0  0  0  0  0  0  0  0  0  0  0  0
    3.5767   -2.9886   -1.9747 C   0  0  0  0  0  0  0  0  0  0  0  0
    3.4695   -4.0340   -1.6449 H   0  0  0  0  0  0  0  0  0  0  0  0
    3.9443   -2.6940   -3.3007 C   0  0  0  0  0  0  0  0  0  0  0  0
    4.1293   -3.5133   -4.0118 H   0  0  0  0  0  0  0  0  0  0  0  0
    4.0761   -1.3607   -3.7197 C   0  0  0  0  0  0  0  0  0  0  0  0
    4.3640   -1.1377   -4.7582 H   0  0  0  0  0  0  0  0  0  0  0  0
    3.8411   -0.3066   -2.8176 C   0  0  0  0  0  0  0  0  0  0  0  0
    3.9388    0.7406   -3.1448 H   0  0  0  0  0  0  0  0  0  0  0  0
    3.4830   -0.5986   -1.4961 C   0  0  0  0  0  0  0  0  0  0  0  0
    1.6422    0.1027   -0.0340 C   0  0  2  0  0  0  0  0  0  0  0  0
    1.0856    0.1263   -0.9957 H   0  0  0  0  0  0  0  0  0  0  0  0
    1.0459    1.1623    0.9088 C   0  0  0  0  0  0  0  0  0  0  0  0
    1.7454    2.0027    1.0956 H   0  0  0  0  0  0  0  0  0  0  0  0
    0.7808    0.7382    1.8984 H   0  0  0  0  0  0  0  0  0  0  0  0
   -0.8981    3.2075    1.3769 C   0  0  0  0  0  0  0  0  0  0  0  0
   -0.4846    4.4029    0.8524 C   0  0  0  0  0  0  0  0  0  0  0  0
    0.0883    4.3252   -0.5227 C   0  0  0  0  0  0  0  0  0  0  0  0
    0.1420    3.0672   -1.0623 C   0  0  0  0  0  0  0  0  0  0  0  0
   -1.5676    2.9082    2.6770 C   0  0  0  0  0  0  0  0  0  0  0  0
   -2.5734    2.4715    2.4957 H   0  0  0  0  0  0  0  0  0  0  0  0
   -1.6948    3.8133    3.3016 H   0  0  0  0  0  0  0  0  0  0  0  0
   -0.9968    2.1653    3.2766 H   0  0  0  0  0  0  0  0  0  0  0  0
   -0.6202    5.7329    1.5350 C   0  0  0  0  0  0  0  0  0  0  0  0
   -1.0436    5.6393    2.5518 H   0  0  0  0  0  0  0  0  0  0  0  0
   -1.2840    6.4084    0.9548 H   0  0  0  0  0  0  0  0  0  0  0  0
    0.3594    6.2486    1.6194 H   0  0  0  0  0  0  0  0  0  0  0  0
    0.4905    5.5829   -1.2372 C   0  0  0  0  0  0  0  0  0  0  0  0
    0.9384    5.3764   -2.2265 H   0  0  0  0  0  0  0  0  0  0  0  0
    1.2230    6.1715   -0.6465 H   0  0  0  0  0  0  0  0  0  0  0  0
   -0.3893    6.2419   -1.3979 H   0  0  0  0  0  0  0  0  0  0  0  0
    0.4929    2.6445   -2.4517 C   0  0  0  0  0  0  0  0  0  0  0  0
    0.9143    3.4777   -3.0468 H   0  0  0  0  0  0  0  0  0  0  0  0
   -0.4256    2.2856   -2.9655 H   0  0  0  0  0  0  0  0  0  0  0  0
    1.2216    1.8067   -2.4763 H   0  0  0  0  0  0  0  0  0  0  0  0
   -1.7799   -2.0465    1.7882 C   0  0  0  0  0  0  0  0  0  0  0  0
   -2.5173   -3.2028    1.7450 C   0  0  0  0  0  0  0  0  0  0  0  0
   -2.7204   -3.7796    0.3853 C   0  0  0  0  0  0  0  0  0  0  0  0
   -2.1852   -3.0460   -0.6382 C   0  0  0  0  0  0  0  0  0  0  0  0
   -1.4499   -1.1823    2.9646 C   0  0  0  0  0  0  0  0  0  0  0  0
   -1.9358   -1.5411    3.8924 H   0  0  0  0  0  0  0  0  0  0  0  0
   -1.7862   -0.1387    2.7899 H   0  0  0  0  0  0  0  0  0  0  0  0
   -0.3559   -1.1393    3.1619 H   0  0  0  0  0  0  0  0  0  0  0  0
   -3.1232   -3.8810    2.9393 C   0  0  0  0  0  0  0  0  0  0  0  0
   -2.7416   -4.9180    3.0492 H   0  0  0  0  0  0  0  0  0  0  0  0
   -4.2251   -3.9625    2.8301 H   0  0  0  0  0  0  0  0  0  0  0  0
   -2.9138   -3.3426    3.8817 H   0  0  0  0  0  0  0  0  0  0  0  0
   -3.4997   -5.0514    0.2134 C   0  0  0  0  0  0  0  0  0  0  0  0
   -3.5139   -5.3885   -0.8391 H   0  0  0  0  0  0  0  0  0  0  0  0
   -4.5551   -4.9120    0.5314 H   0  0  0  0  0  0  0  0  0  0  0  0
   -3.0868   -5.8752    0.8323 H   0  0  0  0  0  0  0  0  0  0  0  0
   -2.2041   -3.2965   -2.1085 C   0  0  0  0  0  0  0  0  0  0  0  0
   -1.1907   -3.2085   -2.5571 H   0  0  0  0  0  0  0  0  0  0  0  0
   -2.8486   -2.5326   -2.5939 H   0  0  0  0  0  0  0  0  0  0  0  0
   -2.5983   -4.3013   -2.3550 H   0  0  0  0  0  0  0  0  0  0  0  0
  1 34  1  1  0  0  0
  1 37  1  0  0  0  0
  2  3  1  1  0  0  0
  2 57  1  0  0  0  0
  3  4  1  0  0  0  0
  3  6  1  0  0  0  0
  5  3  1  0  0  0  0
  6  7  1  1  0  0  0
  8  6  1  0  0  0  0
  8  9  1  1  0  0  0
  8 10  1  0  0  0  0
 10 11  1  0  0  0  0
 11 12  1  0  0  0  0
 11 13  2  0  0  0  0
 13 14  1  0  0  0  0
 15 13  1  0  0  0  0
 15 16  1  0  0  0  0
 17 15  2  0  0  0  0
 18 17  1  0  0  0  0
 19 10  2  0  0  0  0
 19 17  1  0  0  0  0
 20 21  1  6  0  0  0
 20 32  1  0  0  0  0
 20 19  1  0  0  0  0
 22  8  1  0  0  0  0
 23 24  1  0  0  0  0
 23 22  2  0  0  0  0
 25 23  1  0  0  0  0
 26 25  1  0  0  0  0
 27 25  2  0  0  0  0
 27 29  1  0  0  0  0
 28 27  1  0  0  0  0
 29 31  2  0  0  0  0
 30 29  1  0  0  0  0
 31 22  1  0  0  0  0
 31 20  1  0  0  0  0
 32 33  1  6  0  0  0
 32  6  1  0  0  0  0
 32 34  1  0  0  0  0
 34 35  1  0  0  0  0
 34 36  1  0  0  0  0
 37 41  1  0  0  0  0
 38 37  2  0  0  0  0
 38 45  1  0  0  0  0
 39 38  1  0  0  0  0
 40 39  2  0  0  0  0
 40  1  1  0  0  0  0
 41 44  1  0  0  0  0
 41 43  1  0  0  0  0
 42 41  1  0  0  0  0
 45 48  1  0  0  0  0
 45 46  1  0  0  0  0
 47 45  1  0  0  0  0
 49 51  1  0  0  0  0
 49 39  1  0  0  0  0
 50 49  1  0  0  0  0
 52 49  1  0  0  0  0
 53 40  1  0  0  0  0
 54 53  1  0  0  0  0
 55 53  1  0  0  0  0
 56 53  1  0  0  0  0
 57 61  1  0  0  0  0
 58 57  2  0  0  0  0
 58 65  1  0  0  0  0
 59 58  1  0  0  0  0
 60  2  1  0  0  0  0
 60 59  2  0  0  0  0
 61 64  1  0  0  0  0
 61 62  1  0  0  0  0
 63 61  1  0  0  0  0
 65 66  1  0  0  0  0
 65 68  1  0  0  0  0
 67 65  1  0  0  0  0
 69 59  1  0  0  0  0
 69 71  1  0  0  0  0
 69 72  1  0  0  0  0
 70 69  1  0  0  0  0
 73 60  1  0  0  0  0
 74 73  1  0  0  0  0
 75 73  1  0  0  0  0
 76 73  1  0  0  0  0
M  END
