6,7
 OpenBabel05122313063D

 82 86  0  0  0  0  0  0  0  0999 V2000
   -1.0577    1.2368   -0.3647 O   0  0  0  0  0  0  0  0  0  0  0  0
   -1.2371   -0.8087    1.2144 O   0  0  0  0  0  0  0  0  0  0  0  0
    0.5741    0.8239    1.6148 O   0  0  0  0  0  0  0  0  0  0  0  0
   -5.6041   -2.9190   -1.4747 O   0  0  0  0  0  0  0  0  0  0  0  0
   -5.7636    3.5478    1.4622 O   0  0  0  0  0  0  0  0  0  0  0  0
    2.9077    0.0713    0.3416 P   0  0  0  0  0  0  0  0  0  0  0  0
   -0.1600    0.0679    0.3279 P   0  0  0  0  0  0  0  0  0  0  0  0
    1.9270    0.5194    1.9068 C   0  0  0  0  0  0  0  0  0  0  0  0
    1.9959   -0.3521    2.5941 H   0  0  0  0  0  0  0  0  0  0  0  0
    2.3697    1.4123    2.3911 H   0  0  0  0  0  0  0  0  0  0  0  0
    3.6067    1.6556   -0.2523 C   0  0  0  0  0  0  0  0  0  0  0  0
    4.8339    2.1620    0.2209 C   0  0  0  0  0  0  0  0  0  0  0  0
    5.4428    1.5744    0.9244 H   0  0  0  0  0  0  0  0  0  0  0  0
    5.2878    3.4129   -0.2220 C   0  0  0  0  0  0  0  0  0  0  0  0
    6.2491    3.8038    0.1443 H   0  0  0  0  0  0  0  0  0  0  0  0
    4.5255    4.1590   -1.1360 C   0  0  0  0  0  0  0  0  0  0  0  0
    4.8884    5.1381   -1.4835 H   0  0  0  0  0  0  0  0  0  0  0  0
    3.3102    3.6484   -1.6185 C   0  0  0  0  0  0  0  0  0  0  0  0
    2.7161    4.2197   -2.3474 H   0  0  0  0  0  0  0  0  0  0  0  0
    2.8524    2.3963   -1.1855 C   0  0  0  0  0  0  0  0  0  0  0  0
    1.9142    1.9784   -1.5830 H   0  0  0  0  0  0  0  0  0  0  0  0
    4.2840   -0.9284    1.0112 C   0  0  0  0  0  0  0  0  0  0  0  0
    4.8164   -0.6498    2.2913 C   0  0  0  0  0  0  0  0  0  0  0  0
    4.4206    0.1750    2.9032 H   0  0  0  0  0  0  0  0  0  0  0  0
    5.8688   -1.4270    2.7965 C   0  0  0  0  0  0  0  0  0  0  0  0
    6.2789   -1.2065    3.7936 H   0  0  0  0  0  0  0  0  0  0  0  0
    6.3940   -2.4815    2.0324 C   0  0  0  0  0  0  0  0  0  0  0  0
    7.2187   -3.0910    2.4323 H   0  0  0  0  0  0  0  0  0  0  0  0
    5.8657   -2.7574    0.7617 C   0  0  0  0  0  0  0  0  0  0  0  0
    6.2739   -3.5840    0.1609 H   0  0  0  0  0  0  0  0  0  0  0  0
    4.8126   -1.9877    0.2455 C   0  0  0  0  0  0  0  0  0  0  0  0
    4.3908   -2.1877   -0.7547 H   0  0  0  0  0  0  0  0  0  0  0  0
   -2.3397   -1.3979    0.5744 C   0  0  0  0  0  0  0  0  0  0  0  0
   -2.4337   -2.8044    0.4861 C   0  0  0  0  0  0  0  0  0  0  0  0
   -3.5483   -3.3169   -0.2080 C   0  0  0  0  0  0  0  0  0  0  0  0
   -3.6461   -4.4009   -0.3196 H   0  0  0  0  0  0  0  0  0  0  0  0
   -4.5290   -2.4756   -0.7654 C   0  0  0  0  0  0  0  0  0  0  0  0
   -4.4428   -1.0866   -0.5805 C   0  0  0  0  0  0  0  0  0  0  0  0
   -5.2305   -0.4455   -0.9988 H   0  0  0  0  0  0  0  0  0  0  0  0
   -3.3497   -0.5277    0.1007 C   0  0  0  0  0  0  0  0  0  0  0  0
   -3.3494    0.9402    0.3674 C   0  0  0  0  0  0  0  0  0  0  0  0
   -4.5560    1.5171    0.8268 C   0  0  0  0  0  0  0  0  0  0  0  0
   -5.3983    0.8491    1.0442 H   0  0  0  0  0  0  0  0  0  0  0  0
   -4.6534    2.9029    1.0057 C   0  0  0  0  0  0  0  0  0  0  0  0
   -3.5544    3.7251    0.6873 C   0  0  0  0  0  0  0  0  0  0  0  0
   -3.6985    4.8051    0.8071 H   0  0  0  0  0  0  0  0  0  0  0  0
   -2.3345    3.2048    0.2318 C   0  0  0  0  0  0  0  0  0  0  0  0
   -2.2478    1.7888    0.1276 C   0  0  0  0  0  0  0  0  0  0  0  0
   -1.4189   -3.7577    1.1571 C   0  0  0  0  0  0  0  0  0  0  0  0
   -1.8411   -5.2315    0.9949 C   0  0  0  0  0  0  0  0  0  0  0  0
   -2.8415   -5.4308    1.4294 H   0  0  0  0  0  0  0  0  0  0  0  0
   -1.1136   -5.8777    1.5250 H   0  0  0  0  0  0  0  0  0  0  0  0
   -1.8476   -5.5469   -0.0678 H   0  0  0  0  0  0  0  0  0  0  0  0
   -1.3614   -3.4527    2.6732 C   0  0  0  0  0  0  0  0  0  0  0  0
   -2.3548   -3.6009    3.1436 H   0  0  0  0  0  0  0  0  0  0  0  0
   -1.0386   -2.4136    2.8698 H   0  0  0  0  0  0  0  0  0  0  0  0
   -0.6430   -4.1386    3.1683 H   0  0  0  0  0  0  0  0  0  0  0  0
   -0.0131   -3.6177    0.5323 C   0  0  0  0  0  0  0  0  0  0  0  0
    0.4514   -2.6391    0.7590 H   0  0  0  0  0  0  0  0  0  0  0  0
   -0.0492   -3.7084   -0.5704 H   0  0  0  0  0  0  0  0  0  0  0  0
    0.6593   -4.4021    0.9372 H   0  0  0  0  0  0  0  0  0  0  0  0
   -5.7136   -4.3052   -1.7330 C   0  0  0  0  0  0  0  0  0  0  0  0
   -6.6227   -4.4380   -2.3485 H   0  0  0  0  0  0  0  0  0  0  0  0
   -5.8246   -4.8977   -0.7964 H   0  0  0  0  0  0  0  0  0  0  0  0
   -4.8353   -4.6927   -2.2965 H   0  0  0  0  0  0  0  0  0  0  0  0
   -1.1883    4.1511   -0.1933 C   0  0  0  0  0  0  0  0  0  0  0  0
   -1.6060    5.6300   -0.0756 C   0  0  0  0  0  0  0  0  0  0  0  0
   -2.4816    5.8688   -0.7117 H   0  0  0  0  0  0  0  0  0  0  0  0
   -0.7660    6.2705   -0.4107 H   0  0  0  0  0  0  0  0  0  0  0  0
   -1.8437    5.9161    0.9686 H   0  0  0  0  0  0  0  0  0  0  0  0
   -0.8245    3.8921   -1.6760 C   0  0  0  0  0  0  0  0  0  0  0  0
   -1.6978    4.0840   -2.3314 H   0  0  0  0  0  0  0  0  0  0  0  0
   -0.4909    2.8537   -1.8519 H   0  0  0  0  0  0  0  0  0  0  0  0
   -0.0098    4.5791   -1.9862 H   0  0  0  0  0  0  0  0  0  0  0  0
    0.0501    3.9522    0.7082 C   0  0  0  0  0  0  0  0  0  0  0  0
    0.4604    2.9322    0.6386 H   0  0  0  0  0  0  0  0  0  0  0  0
   -0.2034    4.1431    1.7707 H   0  0  0  0  0  0  0  0  0  0  0  0
    0.8505    4.6607    0.4109 H   0  0  0  0  0  0  0  0  0  0  0  0
   -6.9058    2.7719    1.7677 C   0  0  0  0  0  0  0  0  0  0  0  0
   -7.6825    3.4787    2.1141 H   0  0  0  0  0  0  0  0  0  0  0  0
   -6.7029    2.0332    2.5759 H   0  0  0  0  0  0  0  0  0  0  0  0
   -7.2874    2.2244    0.8762 H   0  0  0  0  0  0  0  0  0  0  0  0
  1 48  1  0  0  0  0
  1  7  1  0  0  0  0
  3  8  1  0  0  0  0
  4 37  1  0  0  0  0
  5 79  1  0  0  0  0
  6 22  1  0  0  0  0
  6  8  1  0  0  0  0
  7  2  1  0  0  0  0
  7  3  1  0  0  0  0
  8 10  1  0  0  0  0
  8  9  1  0  0  0  0
 11 12  1  0  0  0  0
 11  6  1  0  0  0  0
 12 13  1  0  0  0  0
 14 15  1  0  0  0  0
 14 12  2  0  0  0  0
 16 14  1  0  0  0  0
 17 16  1  0  0  0  0
 18 20  1  0  0  0  0
 18 16  2  0  0  0  0
 19 18  1  0  0  0  0
 20 11  2  0  0  0  0
 21 20  1  0  0  0  0
 22 23  1  0  0  0  0
 23 25  2  0  0  0  0
 23 24  1  0  0  0  0
 25 26  1  0  0  0  0
 27 28  1  0  0  0  0
 27 25  1  0  0  0  0
 29 27  2  0  0  0  0
 30 29  1  0  0  0  0
 31 29  1  0  0  0  0
 31 22  2  0  0  0  0
 32 31  1  0  0  0  0
 33  2  1  0  0  0  0
 34 33  1  0  0  0  0
 34 49  1  0  0  0  0
 35 34  2  0  0  0  0
 36 35  1  0  0  0  0
 37 38  2  0  0  0  0
 37 35  1  0  0  0  0
 38 40  1  0  0  0  0
 39 38  1  0  0  0  0
 40 41  1  0  0  0  0
 40 33  2  0  0  0  0
 41 42  1  0  0  0  0
 42 44  2  0  0  0  0
 42 43  1  0  0  0  0
 44  5  1  0  0  0  0
 45 46  1  0  0  0  0
 45 44  1  0  0  0  0
 47 45  2  0  0  0  0
 48 47  1  0  0  0  0
 48 41  2  0  0  0  0
 49 54  1  0  0  0  0
 50 49  1  0  0  0  0
 50 51  1  0  0  0  0
 50 52  1  0  0  0  0
 53 50  1  0  0  0  0
 54 56  1  0  0  0  0
 54 55  1  0  0  0  0
 54 57  1  0  0  0  0
 58 59  1  0  0  0  0
 58 61  1  0  0  0  0
 58 49  1  0  0  0  0
 60 58  1  0  0  0  0
 62  4  1  0  0  0  0
 62 64  1  0  0  0  0
 63 62  1  0  0  0  0
 65 62  1  0  0  0  0
 66 67  1  0  0  0  0
 66 47  1  0  0  0  0
 66 75  1  0  0  0  0
 67 70  1  0  0  0  0
 68 67  1  0  0  0  0
 69 67  1  0  0  0  0
 71 66  1  0  0  0  0
 72 71  1  0  0  0  0
 73 71  1  0  0  0  0
 74 71  1  0  0  0  0
 75 77  1  0  0  0  0
 76 75  1  0  0  0  0
 78 75  1  0  0  0  0
 79 80  1  0  0  0  0
 79 81  1  0  0  0  0
 82 79  1  0  0  0  0
M  END
