1,2
 OpenBabel05122313063D

 72 79  0  0  0  0  0  0  0  0999 V2000
   -1.7789   -0.5258   -0.2939 P   0  0  0  0  0  0  0  0  0  0  0  0
    1.6289   -0.7222   -0.0940 P   0  0  0  0  0  0  0  0  0  0  0  0
   -0.3186    1.5777    0.9604 N   0  0  0  0  0  0  0  0  0  0  0  0
   -1.9203    0.6725    2.2535 N   0  0  0  0  0  0  0  0  0  0  0  0
    0.4272    1.8446   -0.1514 N   0  0  0  0  0  0  0  0  0  0  0  0
    1.8061    1.4877   -1.8894 N   0  0  0  0  0  0  0  0  0  0  0  0
   -1.7375    0.4468   -1.8435 C   0  0  0  0  0  0  0  0  0  0  0  0
   -2.4033    1.6858   -1.9545 C   0  0  0  0  0  0  0  0  0  0  0  0
   -2.3513    2.4006   -3.1586 C   0  0  0  0  0  0  0  0  0  0  0  0
   -1.6385    1.8837   -4.2531 C   0  0  0  0  0  0  0  0  0  0  0  0
   -0.9852    0.6458   -4.1487 C   0  0  0  0  0  0  0  0  0  0  0  0
   -1.0339   -0.0752   -2.9465 C   0  0  0  0  0  0  0  0  0  0  0  0
   -3.5345   -0.9382   -0.0013 C   0  0  0  0  0  0  0  0  0  0  0  0
   -3.9171   -1.4814    1.2431 C   0  0  0  0  0  0  0  0  0  0  0  0
   -5.2559   -1.8261    1.4627 C   0  0  0  0  0  0  0  0  0  0  0  0
   -6.2092   -1.6607    0.4441 C   0  0  0  0  0  0  0  0  0  0  0  0
   -5.8214   -1.1461   -0.8013 C   0  0  0  0  0  0  0  0  0  0  0  0
   -4.4846   -0.7842   -1.0288 C   0  0  0  0  0  0  0  0  0  0  0  0
    3.0652   -1.2573   -1.0863 C   0  0  0  0  0  0  0  0  0  0  0  0
    2.9729   -1.2668   -2.4921 C   0  0  0  0  0  0  0  0  0  0  0  0
    4.0477   -1.7440   -3.2542 C   0  0  0  0  0  0  0  0  0  0  0  0
    5.2083   -2.2173   -2.6217 C   0  0  0  0  0  0  0  0  0  0  0  0
    5.2918   -2.2193   -1.2206 C   0  0  0  0  0  0  0  0  0  0  0  0
    4.2208   -1.7477   -0.4489 C   0  0  0  0  0  0  0  0  0  0  0  0
    2.2205   -0.2784    1.5831 C   0  0  0  0  0  0  0  0  0  0  0  0
    3.2444    0.6801    1.7367 C   0  0  0  0  0  0  0  0  0  0  0  0
    3.6342    1.0803    3.0220 C   0  0  0  0  0  0  0  0  0  0  0  0
    2.9948    0.5406    4.1508 C   0  0  0  0  0  0  0  0  0  0  0  0
    1.9772   -0.4129    3.9959 C   0  0  0  0  0  0  0  0  0  0  0  0
    1.5926   -0.8333    2.7138 C   0  0  0  0  0  0  0  0  0  0  0  0
   -1.4117    0.6955    1.0397 C   0  0  0  0  0  0  0  0  0  0  0  0
   -0.1461    2.1545    2.2176 C   0  0  0  0  0  0  0  0  0  0  0  0
    0.7635    3.0967    2.7106 C   0  0  0  0  0  0  0  0  0  0  0  0
    0.6243    3.4359    4.0633 C   0  0  0  0  0  0  0  0  0  0  0  0
   -0.3839    2.8607    4.8760 C   0  0  0  0  0  0  0  0  0  0  0  0
   -1.2934    1.9270    4.3665 C   0  0  0  0  0  0  0  0  0  0  0  0
   -1.1736    1.5667    3.0103 C   0  0  0  0  0  0  0  0  0  0  0  0
    1.3318    0.9702   -0.7753 C   0  0  0  0  0  0  0  0  0  0  0  0
    0.3327    2.9921   -0.9343 C   0  0  0  0  0  0  0  0  0  0  0  0
   -0.4084    4.1721   -0.8000 C   0  0  0  0  0  0  0  0  0  0  0  0
   -0.2557    5.1137   -1.8272 C   0  0  0  0  0  0  0  0  0  0  0  0
    0.6057    4.8806   -2.9283 C   0  0  0  0  0  0  0  0  0  0  0  0
    1.3508    3.7010   -3.0411 C   0  0  0  0  0  0  0  0  0  0  0  0
    1.2131    2.7368   -2.0244 C   0  0  0  0  0  0  0  0  0  0  0  0
   -2.9581    2.0917   -1.0943 H   0  0  0  0  0  0  0  0  0  0  0  0
   -2.8572    3.3739   -3.2381 H   0  0  0  0  0  0  0  0  0  0  0  0
   -1.5900    2.4535   -5.1931 H   0  0  0  0  0  0  0  0  0  0  0  0
   -0.4279    0.2395   -5.0057 H   0  0  0  0  0  0  0  0  0  0  0  0
   -0.5251   -1.0479   -2.8480 H   0  0  0  0  0  0  0  0  0  0  0  0
   -3.1707   -1.6247    2.0342 H   0  0  0  0  0  0  0  0  0  0  0  0
   -5.5539   -2.2435    2.4361 H   0  0  0  0  0  0  0  0  0  0  0  0
   -7.2579   -1.9444    0.6202 H   0  0  0  0  0  0  0  0  0  0  0  0
   -6.5607   -1.0267   -1.6076 H   0  0  0  0  0  0  0  0  0  0  0  0
   -4.1851   -0.3885   -2.0097 H   0  0  0  0  0  0  0  0  0  0  0  0
    2.0698   -0.8899   -2.9902 H   0  0  0  0  0  0  0  0  0  0  0  0
    3.9755   -1.7479   -4.3522 H   0  0  0  0  0  0  0  0  0  0  0  0
    6.0487   -2.5945   -3.2240 H   0  0  0  0  0  0  0  0  0  0  0  0
    6.1933   -2.6035   -0.7202 H   0  0  0  0  0  0  0  0  0  0  0  0
    4.2744   -1.7755    0.6484 H   0  0  0  0  0  0  0  0  0  0  0  0
    3.7325    1.1111    0.8483 H   0  0  0  0  0  0  0  0  0  0  0  0
    4.4351    1.8254    3.1430 H   0  0  0  0  0  0  0  0  0  0  0  0
    3.2911    0.8690    5.1585 H   0  0  0  0  0  0  0  0  0  0  0  0
    1.4759   -0.8360    4.8788 H   0  0  0  0  0  0  0  0  0  0  0  0
    0.8102   -1.5956    2.5784 H   0  0  0  0  0  0  0  0  0  0  0  0
    1.5480    3.5312    2.0760 H   0  0  0  0  0  0  0  0  0  0  0  0
    1.3203    4.1639    4.5062 H   0  0  0  0  0  0  0  0  0  0  0  0
   -0.4508    3.1592    5.9328 H   0  0  0  0  0  0  0  0  0  0  0  0
   -2.0792    1.4767    4.9894 H   0  0  0  0  0  0  0  0  0  0  0  0
   -1.0760    4.3432    0.0564 H   0  0  0  0  0  0  0  0  0  0  0  0
   -0.8184    6.0578   -1.7764 H   0  0  0  0  0  0  0  0  0  0  0  0
    0.6917    5.6511   -3.7090 H   0  0  0  0  0  0  0  0  0  0  0  0
    2.0223    3.5137   -3.8908 H   0  0  0  0  0  0  0  0  0  0  0  0
  1 13  1  0  0  0  0
  1 31  1  0  0  0  0
  2 25  1  0  0  0  0
  3 31  1  0  0  0  0
  3 32  1  0  0  0  0
  4 37  1  0  0  0  0
  5  3  1  0  0  0  0
  6 38  2  0  0  0  0
  7  1  1  0  0  0  0
  8  7  1  0  0  0  0
  8 45  1  0  0  0  0
  9  8  2  0  0  0  0
 10 11  2  0  0  0  0
 10  9  1  0  0  0  0
 11 12  1  0  0  0  0
 12 49  1  0  0  0  0
 12  7  2  0  0  0  0
 13 14  1  0  0  0  0
 14 15  2  0  0  0  0
 14 50  1  0  0  0  0
 15 51  1  0  0  0  0
 16 52  1  0  0  0  0
 16 15  1  0  0  0  0
 17 16  2  0  0  0  0
 18 17  1  0  0  0  0
 18 13  2  0  0  0  0
 19 24  1  0  0  0  0
 19  2  1  0  0  0  0
 20 19  2  0  0  0  0
 21 22  2  0  0  0  0
 21 20  1  0  0  0  0
 22 23  1  0  0  0  0
 23 58  1  0  0  0  0
 23 24  2  0  0  0  0
 24 59  1  0  0  0  0
 25 26  2  0  0  0  0
 25 30  1  0  0  0  0
 26 27  1  0  0  0  0
 27 61  1  0  0  0  0
 27 28  2  0  0  0  0
 28 62  1  0  0  0  0
 29 28  1  0  0  0  0
 29 63  1  0  0  0  0
 30 29  2  0  0  0  0
 31  4  2  0  0  0  0
 32 33  2  0  0  0  0
 32 37  1  0  0  0  0
 33 34  1  0  0  0  0
 34 66  1  0  0  0  0
 34 35  2  0  0  0  0
 35 67  1  0  0  0  0
 36 35  1  0  0  0  0
 36 68  1  0  0  0  0
 37 36  2  0  0  0  0
 38  5  1  0  0  0  0
 38  2  1  0  0  0  0
 39 40  1  0  0  0  0
 39  5  1  0  0  0  0
 40 69  1  0  0  0  0
 41 70  1  0  0  0  0
 41 40  2  0  0  0  0
 42 41  1  0  0  0  0
 43 42  2  0  0  0  0
 43 44  1  0  0  0  0
 44  6  1  0  0  0  0
 44 39  2  0  0  0  0
 46  9  1  0  0  0  0
 47 10  1  0  0  0  0
 48 11  1  0  0  0  0
 53 17  1  0  0  0  0
 54 18  1  0  0  0  0
 55 20  1  0  0  0  0
 56 21  1  0  0  0  0
 57 22  1  0  0  0  0
 60 26  1  0  0  0  0
 64 30  1  0  0  0  0
 65 33  1  0  0  0  0
 71 42  1  0  0  0  0
 72 43  1  0  0  0  0
M  END
