1,2
 OpenBabel05122313063D

 28 27  0  0  0  0  0  0  0  0999 V2000
    1.4500   -1.3852   -1.7038 P   0  0  0  0  0  0  0  0  0  0  0  0
   -0.5353   -1.7319   -2.3091 P   0  0  0  0  0  1  0  0  0  0  0  0
    2.6293   -0.3284   -2.7919 C   0  0  0  0  0  0  0  0  0  0  0  0
    3.5250   -1.2081   -3.6776 C   0  0  0  0  0  0  0  0  0  0  0  0
    4.2499   -1.8040   -3.0897 H   0  0  0  0  0  0  0  0  0  0  0  0
    4.1129   -0.5624   -4.3656 H   0  0  0  0  0  0  0  0  0  0  0  0
    2.9243   -1.9022   -4.2991 H   0  0  0  0  0  0  0  0  0  0  0  0
    1.7233    0.5338   -3.6838 C   0  0  0  0  0  0  0  0  0  0  0  0
    1.0782   -0.0888   -4.3340 H   0  0  0  0  0  0  0  0  0  0  0  0
    2.3566    1.1930   -4.3162 H   0  0  0  0  0  0  0  0  0  0  0  0
    1.0463    1.1654   -3.0754 H   0  0  0  0  0  0  0  0  0  0  0  0
    3.4699    0.5948   -1.8936 C   0  0  0  0  0  0  0  0  0  0  0  0
    4.1738    0.0403   -1.2460 H   0  0  0  0  0  0  0  0  0  0  0  0
    2.8166    1.2089   -1.2425 H   0  0  0  0  0  0  0  0  0  0  0  0
    4.0665    1.2878   -2.5261 H   0  0  0  0  0  0  0  0  0  0  0  0
    2.3642   -2.8289   -0.8262 C   0  0  0  0  0  0  0  0  0  0  0  0
    2.5779   -3.9784   -1.8258 C   0  0  0  0  0  0  0  0  0  0  0  0
    1.6156   -4.2675   -2.2948 H   0  0  0  0  0  0  0  0  0  0  0  0
    2.9820   -4.8668   -1.2931 H   0  0  0  0  0  0  0  0  0  0  0  0
    3.2917   -3.7180   -2.6299 H   0  0  0  0  0  0  0  0  0  0  0  0
    3.6881   -2.3725   -0.1963 C   0  0  0  0  0  0  0  0  0  0  0  0
    4.4428   -2.0827   -0.9532 H   0  0  0  0  0  0  0  0  0  0  0  0
    4.1218   -3.2097    0.3927 H   0  0  0  0  0  0  0  0  0  0  0  0
    3.5392   -1.5215    0.4977 H   0  0  0  0  0  0  0  0  0  0  0  0
    1.4161   -3.3064    0.2861 C   0  0  0  0  0  0  0  0  0  0  0  0
    0.4395   -3.6204   -0.1312 H   0  0  0  0  0  0  0  0  0  0  0  0
    1.2176   -2.4998    1.0201 H   0  0  0  0  0  0  0  0  0  0  0  0
    1.8804   -4.1669    0.8148 H   0  0  0  0  0  0  0  0  0  0  0  0
  1 16  1  0  0  0  0
  2  1  1  0  0  0  0
  3 12  1  0  0  0  0
  3  1  1  0  0  0  0
  4  5  1  0  0  0  0
  4  3  1  0  0  0  0
  6  4  1  0  0  0  0
  7  4  1  0  0  0  0
  8 11  1  0  0  0  0
  8  3  1  0  0  0  0
  9  8  1  0  0  0  0
 10  8  1  0  0  0  0
 12 13  1  0  0  0  0
 12 14  1  0  0  0  0
 15 12  1  0  0  0  0
 16 21  1  0  0  0  0
 16 25  1  0  0  0  0
 17 19  1  0  0  0  0
 17 16  1  0  0  0  0
 18 17  1  0  0  0  0
 20 17  1  0  0  0  0
 21 23  1  0  0  0  0
 21 24  1  0  0  0  0
 22 21  1  0  0  0  0
 25 28  1  0  0  0  0
 25 27  1  0  0  0  0
 26 25  1  0  0  0  0
M  END
