2
 OpenBabel05122313063D

 32 33  0  0  0  0  0  0  0  0999 V2000
   -0.6393   -1.4732    1.0490 P   0  0  0  0  0  0  0  0  0  0  0  0
    1.8594   -1.1414   -0.6309 P   0  0  0  0  0  0  0  0  0  0  0  0
   -1.3468   -1.1370    2.7575 C   0  0  0  0  0  0  0  0  0  0  0  0
   -2.1998   -2.3611    3.1155 C   0  0  0  0  0  0  0  0  0  0  0  0
   -2.9663   -2.7550    1.8424 C   0  0  0  0  0  0  0  0  0  0  0  0
   -1.9839   -2.7413    0.6591 C   0  0  0  0  0  0  0  0  0  0  0  0
    0.8240   -2.5886    1.4662 C   0  0  0  0  0  0  0  0  0  0  0  0
    1.6276   -2.8083    0.1849 C   0  0  0  0  0  0  0  0  0  0  0  0
    3.5316   -0.5601   -0.0150 C   0  0  0  0  0  0  0  0  0  0  0  0
    4.5564   -1.0515   -1.0483 C   0  0  0  0  0  0  0  0  0  0  0  0
    3.8916   -0.8849   -2.4251 C   0  0  0  0  0  0  0  0  0  0  0  0
    2.4954   -1.5180   -2.3458 C   0  0  0  0  0  0  0  0  0  0  0  0
   -0.5401   -0.9297    3.4863 H   0  0  0  0  0  0  0  0  0  0  0  0
   -1.9747   -0.2244    2.6815 H   0  0  0  0  0  0  0  0  0  0  0  0
   -2.8831   -2.1561    3.9664 H   0  0  0  0  0  0  0  0  0  0  0  0
   -1.5392   -3.1970    3.4338 H   0  0  0  0  0  0  0  0  0  0  0  0
   -3.7715   -2.0096    1.6651 H   0  0  0  0  0  0  0  0  0  0  0  0
   -3.4676   -3.7389    1.9499 H   0  0  0  0  0  0  0  0  0  0  0  0
   -2.4300   -2.4825   -0.3193 H   0  0  0  0  0  0  0  0  0  0  0  0
   -1.4834   -3.7212    0.5213 H   0  0  0  0  0  0  0  0  0  0  0  0
    1.4331   -2.0514    2.2253 H   0  0  0  0  0  0  0  0  0  0  0  0
    0.4809   -3.5384    1.9266 H   0  0  0  0  0  0  0  0  0  0  0  0
    1.0421   -3.4079   -0.5440 H   0  0  0  0  0  0  0  0  0  0  0  0
    2.5965   -3.3207    0.3607 H   0  0  0  0  0  0  0  0  0  0  0  0
    3.7226   -0.9029    1.0220 H   0  0  0  0  0  0  0  0  0  0  0  0
    3.4950    0.5471   -0.0072 H   0  0  0  0  0  0  0  0  0  0  0  0
    5.5164   -0.4985   -0.9736 H   0  0  0  0  0  0  0  0  0  0  0  0
    4.7886   -2.1252   -0.8711 H   0  0  0  0  0  0  0  0  0  0  0  0
    4.5011   -1.3277   -3.2398 H   0  0  0  0  0  0  0  0  0  0  0  0
    3.7733    0.1973   -2.6468 H   0  0  0  0  0  0  0  0  0  0  0  0
    2.5311   -2.6206   -2.4665 H   0  0  0  0  0  0  0  0  0  0  0  0
    1.7683   -1.1068   -3.0699 H   0  0  0  0  0  0  0  0  0  0  0  0
  1  7  1  0  0  0  0
  1  3  1  0  0  0  0
  2  9  1  0  0  0  0
  2  8  1  0  0  0  0
  3  4  1  0  0  0  0
  3 13  1  0  0  0  0
  4 16  1  0  0  0  0
  4 15  1  0  0  0  0
  5 18  1  0  0  0  0
  5  4  1  0  0  0  0
  6  1  1  0  0  0  0
  6  5  1  0  0  0  0
  7 22  1  0  0  0  0
  7 21  1  0  0  0  0
  8 24  1  0  0  0  0
  8  7  1  0  0  0  0
  9 26  1  0  0  0  0
  9 25  1  0  0  0  0
 10 27  1  0  0  0  0
 10 28  1  0  0  0  0
 10  9  1  0  0  0  0
 11 12  1  0  0  0  0
 11 10  1  0  0  0  0
 12  2  1  0  0  0  0
 14  3  1  0  0  0  0
 17  5  1  0  0  0  0
 19  6  1  0  0  0  0
 20  6  1  0  0  0  0
 23  8  1  0  0  0  0
 29 11  1  0  0  0  0
 30 11  1  0  0  0  0
 31 12  1  0  0  0  0
 32 12  1  0  0  0  0
M  END
