61,62
 OpenBabel05122313063D

 62 65  0  0  1  0  0  0  0  0999 V2000
    3.0844   -0.9707   -0.3494 C   0  0  0  0  0  0  0  0  0  0  0  0
    3.4114   -2.1760    0.3068 C   0  0  0  0  0  0  0  0  0  0  0  0
    2.8035   -2.5533    1.1414 H   0  0  0  0  0  0  0  0  0  0  0  0
    4.5526   -2.8979   -0.0744 C   0  0  0  0  0  0  0  0  0  0  0  0
    4.7996   -3.8338    0.4489 H   0  0  0  0  0  0  0  0  0  0  0  0
    5.3739   -2.4280   -1.1102 C   0  0  0  0  0  0  0  0  0  0  0  0
    6.2675   -2.9975   -1.4080 H   0  0  0  0  0  0  0  0  0  0  0  0
    5.0511   -1.2295   -1.7658 C   0  0  0  0  0  0  0  0  0  0  0  0
    5.6858   -0.8580   -2.5844 H   0  0  0  0  0  0  0  0  0  0  0  0
    3.9096   -0.5052   -1.3966 C   0  0  0  0  0  0  0  0  0  0  0  0
    3.6436    0.4153   -1.9323 H   0  0  0  0  0  0  0  0  0  0  0  0
    1.9732    1.7330   -0.0178 C   0  0  0  0  0  0  0  0  0  0  0  0
    3.2534    2.2255    0.3140 C   0  0  0  0  0  0  0  0  0  0  0  0
    4.0651    1.5271    0.5642 H   0  0  0  0  0  0  0  0  0  0  0  0
    3.4996    3.6063    0.3038 C   0  0  0  0  0  0  0  0  0  0  0  0
    4.5031    3.9821    0.5553 H   0  0  0  0  0  0  0  0  0  0  0  0
    2.4739    4.5057   -0.0317 C   0  0  0  0  0  0  0  0  0  0  0  0
    2.6728    5.5883   -0.0406 H   0  0  0  0  0  0  0  0  0  0  0  0
    1.2011    4.0206   -0.3690 C   0  0  0  0  0  0  0  0  0  0  0  0
    0.3939    4.7152   -0.6461 H   0  0  0  0  0  0  0  0  0  0  0  0
    0.9526    2.6402   -0.3701 C   0  0  0  0  0  0  0  0  0  0  0  0
   -0.0374    2.2576   -0.6617 H   0  0  0  0  0  0  0  0  0  0  0  0
    1.3663   -0.3622    1.9174 C   0  0  1  0  0  0  0  0  0  0  0  0
    1.2339   -1.4636    1.9879 H   0  0  0  0  0  0  0  0  0  0  0  0
    2.6229    0.0050    2.7293 C   0  0  0  0  0  0  0  0  0  0  0  0
    3.5384   -0.2191    2.1463 H   0  0  0  0  0  0  0  0  0  0  0  0
    2.6360    1.0940    2.9429 H   0  0  0  0  0  0  0  0  0  0  0  0
    2.7116   -0.7742    4.0388 C   0  0  0  0  0  0  0  0  0  0  0  0
    3.6323   -0.4536    4.5837 H   0  0  0  0  0  0  0  0  0  0  0  0
    1.8443   -0.5226    4.6995 H   0  0  0  0  0  0  0  0  0  0  0  0
    0.1023    0.3053    2.4881 C   0  0  0  0  0  0  0  0  0  0  0  0
    0.2139    0.3483    3.5927 H   0  0  0  0  0  0  0  0  0  0  0  0
    0.0484    1.3654    2.1554 H   0  0  0  0  0  0  0  0  0  0  0  0
   -1.2027   -0.4348    2.1800 C   0  0  0  0  0  0  0  0  0  0  0  0
   -2.0233   -0.1281    2.8613 H   0  0  0  0  0  0  0  0  0  0  0  0
   -1.0745   -1.5275    2.3287 H   0  0  0  0  0  0  0  0  0  0  0  0
   -3.2558   -1.3912    0.4704 C   0  0  0  0  0  0  0  0  0  0  0  0
   -3.0857   -2.7213    0.0378 C   0  0  0  0  0  0  0  0  0  0  0  0
   -2.1295   -3.0279   -0.4122 H   0  0  0  0  0  0  0  0  0  0  0  0
   -4.1468   -3.6299    0.1488 C   0  0  0  0  0  0  0  0  0  0  0  0
   -4.0140   -4.6663   -0.1966 H   0  0  0  0  0  0  0  0  0  0  0  0
   -5.3814   -3.2145    0.6754 C   0  0  0  0  0  0  0  0  0  0  0  0
   -6.2163   -3.9279    0.7493 H   0  0  0  0  0  0  0  0  0  0  0  0
   -5.5545   -1.8865    1.0946 C   0  0  0  0  0  0  0  0  0  0  0  0
   -6.5240   -1.5547    1.4964 H   0  0  0  0  0  0  0  0  0  0  0  0
   -4.4931   -0.9730    0.9955 C   0  0  0  0  0  0  0  0  0  0  0  0
   -4.6327    0.0718    1.3138 H   0  0  0  0  0  0  0  0  0  0  0  0
   -2.5091    1.4517    0.3692 C   0  0  0  0  0  0  0  0  0  0  0  0
   -2.8844    1.9605   -0.8949 C   0  0  0  0  0  0  0  0  0  0  0  0
   -2.7832    1.3137   -1.7836 H   0  0  0  0  0  0  0  0  0  0  0  0
   -3.3676    3.2713   -1.0077 C   0  0  0  0  0  0  0  0  0  0  0  0
   -3.6567    3.6561   -1.9975 H   0  0  0  0  0  0  0  0  0  0  0  0
   -3.4746    4.0913    0.1282 C   0  0  0  0  0  0  0  0  0  0  0  0
   -3.8454    5.1234    0.0335 H   0  0  0  0  0  0  0  0  0  0  0  0
   -3.1066    3.5895    1.3854 C   0  0  0  0  0  0  0  0  0  0  0  0
   -3.1893    4.2239    2.2810 H   0  0  0  0  0  0  0  0  0  0  0  0
   -2.6288    2.2748    1.5084 C   0  0  0  0  0  0  0  0  0  0  0  0
   -2.3480    1.9046    2.5046 H   0  0  0  0  0  0  0  0  0  0  0  0
    2.7385   -2.1592    3.7251 O   0  0  0  0  0  0  0  0  0  0  0  0
    2.7482   -2.6603    4.5591 H   0  0  0  0  0  0  0  0  0  0  0  0
    1.5540   -0.0539    0.0764 P   0  0  0  0  0  0  0  0  0  0  0  0
   -1.8165   -0.2562    0.4423 P   0  0  0  0  0  0  0  0  0  0  0  0
  1 61  1  0  0  0  0
  1  2  1  0  0  0  0
  2  3  1  0  0  0  0
  4  2  2  0  0  0  0
  4  5  1  0  0  0  0
  6  4  1  0  0  0  0
  7  6  1  0  0  0  0
  8 10  1  0  0  0  0
  8  6  2  0  0  0  0
  9  8  1  0  0  0  0
 10  1  2  0  0  0  0
 11 10  1  0  0  0  0
 12 61  1  0  0  0  0
 12 13  1  0  0  0  0
 13 14  1  0  0  0  0
 15 13  2  0  0  0  0
 15 16  1  0  0  0  0
 17 15  1  0  0  0  0
 18 17  1  0  0  0  0
 19 17  2  0  0  0  0
 20 19  1  0  0  0  0
 21 19  1  0  0  0  0
 21 12  2  0  0  0  0
 22 21  1  0  0  0  0
 23 24  1  1  0  0  0
 23 31  1  0  0  0  0
 23 25  1  0  0  0  0
 25 27  1  0  0  0  0
 25 28  1  0  0  0  0
 26 25  1  0  0  0  0
 28 29  1  0  0  0  0
 28 30  1  0  0  0  0
 31 32  1  0  0  0  0
 33 31  1  0  0  0  0
 34 36  1  0  0  0  0
 34 31  1  0  0  0  0
 34 35  1  0  0  0  0
 37 46  1  0  0  0  0
 38 40  1  0  0  0  0
 38 37  2  0  0  0  0
 39 38  1  0  0  0  0
 40 42  2  0  0  0  0
 41 40  1  0  0  0  0
 42 43  1  0  0  0  0
 42 44  1  0  0  0  0
 44 45  1  0  0  0  0
 46 44  2  0  0  0  0
 46 47  1  0  0  0  0
 48 62  1  0  0  0  0
 48 57  1  0  0  0  0
 49 48  2  0  0  0  0
 50 49  1  0  0  0  0
 51 49  1  0  0  0  0
 51 53  2  0  0  0  0
 52 51  1  0  0  0  0
 53 55  1  0  0  0  0
 54 53  1  0  0  0  0
 55 57  2  0  0  0  0
 55 56  1  0  0  0  0
 57 58  1  0  0  0  0
 59 28  1  0  0  0  0
 59 60  1  0  0  0  0
 61 23  1  0  0  0  0
 62 37  1  0  0  0  0
 62 34  1  0  0  0  0
M  END
