1,2
 OpenBabel05122313063D

 68 73  0  0  1  0  0  0  0  0999 V2000
    2.2986   -0.5346   -0.0662 P   0  0  0  0  0  0  0  0  0  0  0  0
   -2.2813   -0.3036   -0.1251 P   0  0  0  0  0  0  0  0  0  0  0  0
    2.5488    1.1298   -0.3833 O   0  0  0  0  0  0  0  0  0  0  0  0
   -2.3511    1.3782   -0.4472 O   0  0  0  0  0  0  0  0  0  0  0  0
    1.4521    1.9634   -0.1982 C   0  0  1  0  0  0  0  0  0  0  0  0
   -1.1793    2.0973   -0.2327 C   0  0  1  0  0  0  0  0  0  0  0  0
    3.4232   -1.3168   -1.3564 C   0  0  0  0  0  0  0  0  0  0  0  0
    4.2216   -1.7756   -0.7325 H   0  0  0  0  0  0  0  0  0  0  0  0
    4.0744   -0.2799   -2.2810 C   0  0  0  0  0  0  0  0  0  0  0  0
    3.3138    0.2322   -2.9004 H   0  0  0  0  0  0  0  0  0  0  0  0
    4.7853   -0.7992   -2.9563 H   0  0  0  0  0  0  0  0  0  0  0  0
    4.6290    0.4946   -1.7195 H   0  0  0  0  0  0  0  0  0  0  0  0
    2.7228   -2.4401   -2.1282 C   0  0  0  0  0  0  0  0  0  0  0  0
    2.3468   -3.2377   -1.4588 H   0  0  0  0  0  0  0  0  0  0  0  0
    3.4426   -2.9061   -2.8318 H   0  0  0  0  0  0  0  0  0  0  0  0
    1.8710   -2.0483   -2.7173 H   0  0  0  0  0  0  0  0  0  0  0  0
    3.2431   -0.7384    1.5285 C   0  0  0  0  0  0  0  0  0  0  0  0
    2.6016   -0.2025    2.2602 H   0  0  0  0  0  0  0  0  0  0  0  0
    4.6191   -0.0676    1.4995 C   0  0  0  0  0  0  0  0  0  0  0  0
    5.3070   -0.5643    0.7842 H   0  0  0  0  0  0  0  0  0  0  0  0
    5.0885   -0.1314    2.5026 H   0  0  0  0  0  0  0  0  0  0  0  0
    4.5423    1.0007    1.2213 H   0  0  0  0  0  0  0  0  0  0  0  0
    3.2984   -2.2214    1.9163 C   0  0  0  0  0  0  0  0  0  0  0  0
    2.2937   -2.6890    1.9298 H   0  0  0  0  0  0  0  0  0  0  0  0
    3.7345   -2.3301    2.9299 H   0  0  0  0  0  0  0  0  0  0  0  0
    3.9367   -2.8045    1.2203 H   0  0  0  0  0  0  0  0  0  0  0  0
   -3.2273   -0.9267   -1.6026 C   0  0  0  0  0  0  0  0  0  0  0  0
   -2.4273   -0.8614   -2.3720 H   0  0  0  0  0  0  0  0  0  0  0  0
   -4.3848   -0.0293   -2.0549 C   0  0  0  0  0  0  0  0  0  0  0  0
   -5.2505   -0.0830   -1.3668 H   0  0  0  0  0  0  0  0  0  0  0  0
   -4.7314   -0.3674   -3.0533 H   0  0  0  0  0  0  0  0  0  0  0  0
   -4.0703    1.0271   -2.1410 H   0  0  0  0  0  0  0  0  0  0  0  0
   -3.6374   -2.3951   -1.4395 C   0  0  0  0  0  0  0  0  0  0  0  0
   -2.8121   -3.0333   -1.0671 H   0  0  0  0  0  0  0  0  0  0  0  0
   -3.9485   -2.7993   -2.4242 H   0  0  0  0  0  0  0  0  0  0  0  0
   -4.5002   -2.5068   -0.7529 H   0  0  0  0  0  0  0  0  0  0  0  0
   -3.2870   -0.4008    1.4421 C   0  0  0  0  0  0  0  0  0  0  0  0
   -2.6143    0.1623    2.1266 H   0  0  0  0  0  0  0  0  0  0  0  0
   -4.6306    0.3319    1.3851 C   0  0  0  0  0  0  0  0  0  0  0  0
   -4.5271    1.3432    0.9473 H   0  0  0  0  0  0  0  0  0  0  0  0
   -5.0362    0.4427    2.4118 H   0  0  0  0  0  0  0  0  0  0  0  0
   -5.3789   -0.2332    0.7948 H   0  0  0  0  0  0  0  0  0  0  0  0
   -3.4075   -1.8370    1.9684 C   0  0  0  0  0  0  0  0  0  0  0  0
   -4.1554   -2.4200    1.3975 H   0  0  0  0  0  0  0  0  0  0  0  0
   -3.7372   -1.8184    3.0269 H   0  0  0  0  0  0  0  0  0  0  0  0
   -2.4453   -2.3843    1.9271 H   0  0  0  0  0  0  0  0  0  0  0  0
    0.0850    1.1885    0.4173 B   0  0  2  0  0  0  0  0  0  0  0  0
    0.1342    1.7053   -1.2956 B   0  0  0  0  0  0  0  0  0  0  0  0
   -0.7449    2.4085    1.4061 B   0  0  1  0  0  0  0  0  0  0  0  0
   -1.4981    2.0575    2.2810 H   0  0  0  0  0  0  0  0  0  0  0  0
    1.0086    2.3185    1.4295 B   0  0  2  0  0  0  0  0  0  0  0  0
    1.6996    1.8917    2.3218 H   0  0  0  0  0  0  0  0  0  0  0  0
   -0.6744    3.2848   -1.3616 B   0  0  2  0  0  0  0  0  0  0  0  0
   -1.3763    3.5351   -2.3089 H   0  0  0  0  0  0  0  0  0  0  0  0
   -1.2280    3.7143    0.2882 B   0  0  0  0  0  0  0  0  0  0  0  0
   -2.2948    4.2570    0.4300 H   0  0  0  0  0  0  0  0  0  0  0  0
    0.2116    3.8990    1.3349 B   0  0  1  0  0  0  0  0  0  0  0  0
    0.2387    4.6773    2.2583 H   0  0  0  0  0  0  0  0  0  0  0  0
    1.6519    3.5671    0.3267 B   0  0  2  0  0  0  0  0  0  0  0  0
    2.7646    3.9979    0.4975 H   0  0  0  0  0  0  0  0  0  0  0  0
    1.1014    3.1939   -1.3377 B   0  0  1  0  0  0  0  0  0  0  0  0
    1.8496    3.3692   -2.2661 H   0  0  0  0  0  0  0  0  0  0  0  0
    0.2621    4.4374   -0.3776 B   0  0  0  0  0  0  0  0  0  0  0  0
    0.3254    5.6082   -0.6682 H   0  0  0  0  0  0  0  0  0  0  0  0
    0.1018    0.3357   -2.2930 B   0  0  0  0  0  0  0  0  0  0  0  0
   -0.0321   -0.8769   -1.7405 H   0  0  0  0  0  0  0  0  0  0  0  0
    1.1491    0.1534   -2.9028 H   0  0  0  0  0  0  0  0  0  0  0  0
   -0.8944    0.2637   -3.0089 H   0  0  0  0  0  0  0  0  0  0  0  0
  1 17  1  0  0  0  0
  2 37  1  0  0  0  0
  3  1  1  0  0  0  0
  4  2  1  0  0  0  0
  5  3  1  6  0  0  0
  5 59  1  0  0  0  0
  5 47  1  0  0  0  0
  6  4  1  6  0  0  0
  6 55  1  0  0  0  0
  6 47  1  0  0  0  0
  7  8  1  0  0  0  0
  7  1  1  0  0  0  0
  9 12  1  0  0  0  0
  9  7  1  0  0  0  0
 10  9  1  0  0  0  0
 11  9  1  0  0  0  0
 13 14  1  0  0  0  0
 13  7  1  0  0  0  0
 15 13  1  0  0  0  0
 16 13  1  0  0  0  0
 17 23  1  0  0  0  0
 17 18  1  0  0  0  0
 19 17  1  0  0  0  0
 19 21  1  0  0  0  0
 20 19  1  0  0  0  0
 22 19  1  0  0  0  0
 23 24  1  0  0  0  0
 23 25  1  0  0  0  0
 26 23  1  0  0  0  0
 27 33  1  0  0  0  0
 27  2  1  0  0  0  0
 28 27  1  0  0  0  0
 29 27  1  0  0  0  0
 29 30  1  0  0  0  0
 31 29  1  0  0  0  0
 32 29  1  0  0  0  0
 33 34  1  0  0  0  0
 33 36  1  0  0  0  0
 35 33  1  0  0  0  0
 37 43  1  0  0  0  0
 37 38  1  0  0  0  0
 39 37  1  0  0  0  0
 39 41  1  0  0  0  0
 40 39  1  0  0  0  0
 42 39  1  0  0  0  0
 43 45  1  0  0  0  0
 44 43  1  0  0  0  0
 46 43  1  0  0  0  0
 47 49  1  0  0  0  0
 47 51  1  0  0  0  0
 49 51  1  0  0  0  0
 49 50  1  1  0  0  0
 51 52  1  1  0  0  0
 53 54  1  6  0  0  0
 53 61  1  0  0  0  0
 53 48  1  0  0  0  0
 53  6  1  0  0  0  0
 55 56  1  0  0  0  0
 57 49  1  0  0  0  0
 57 51  1  0  0  0  0
 57 58  1  0  0  0  0
 59 60  1  1  0  0  0
 59 57  1  0  0  0  0
 61 62  1  6  0  0  0
 61 48  1  0  0  0  0
 61  5  1  0  0  0  0
 63 55  1  0  0  0  0
 63 59  1  0  0  0  0
 64 63  1  0  0  0  0
 65 66  1  0  0  0  0
 65 48  1  0  0  0  0
 67 65  1  0  0  0  0
 68 65  1  0  0  0  0
M  END
