1,2
 OpenBabel05122313063D

 70 73  0  0  1  0  0  0  0  0999 V2000
    2.3530    0.2290    0.3910 P   0  0  0  0  0  0  0  0  0  0  0  0
   -1.0254    0.0849   -0.0702 P   0  0  1  0  0  0  0  0  0  0  0  0
   -2.7843   -1.1937    1.5935 O   0  0  0  0  0  0  0  0  0  0  0  0
   -3.5279    0.8193   -1.0098 O   0  0  0  0  0  0  0  0  0  0  0  0
   -4.7713   -0.3719    0.6104 O   0  0  0  0  0  0  0  0  0  0  0  0
    1.4488    1.6217    1.2602 C   0  0  0  0  0  0  0  0  0  0  0  0
    0.8979    1.0995    2.0625 H   0  0  0  0  0  0  0  0  0  0  0  0
    2.1801    2.2906    1.7512 H   0  0  0  0  0  0  0  0  0  0  0  0
    0.5167    2.4352    0.4027 C   0  0  0  0  0  0  0  0  0  0  0  0
   -0.5932    1.8789   -0.2968 C   0  0  0  0  0  0  0  0  0  0  0  0
   -1.3493    2.7264   -1.1420 C   0  0  0  0  0  0  0  0  0  0  0  0
   -2.2216    2.3241   -1.6676 H   0  0  0  0  0  0  0  0  0  0  0  0
   -1.0514    4.0884   -1.2758 C   0  0  0  0  0  0  0  0  0  0  0  0
   -1.6623    4.7129   -1.9448 H   0  0  0  0  0  0  0  0  0  0  0  0
   -0.0016    4.6488   -0.5373 C   0  0  0  0  0  0  0  0  0  0  0  0
    0.2249    5.7234   -0.6045 H   0  0  0  0  0  0  0  0  0  0  0  0
    0.7644    3.8208    0.2899 C   0  0  0  0  0  0  0  0  0  0  0  0
    1.5904    4.2549    0.8744 H   0  0  0  0  0  0  0  0  0  0  0  0
    3.5070    1.1097   -0.8691 C   0  0  0  0  0  0  0  0  0  0  0  0
    2.6775    1.2215   -2.1651 C   0  0  0  0  0  0  0  0  0  0  0  0
    1.7266    1.7688   -2.0084 H   0  0  0  0  0  0  0  0  0  0  0  0
    2.4454    0.2161   -2.5671 H   0  0  0  0  0  0  0  0  0  0  0  0
    3.2694    1.7785   -2.9222 H   0  0  0  0  0  0  0  0  0  0  0  0
    3.9127    2.5137   -0.3868 C   0  0  0  0  0  0  0  0  0  0  0  0
    4.6303    2.9350   -1.1221 H   0  0  0  0  0  0  0  0  0  0  0  0
    4.4227    2.5022    0.5957 H   0  0  0  0  0  0  0  0  0  0  0  0
    3.0561    3.2084   -0.3382 H   0  0  0  0  0  0  0  0  0  0  0  0
    4.7838    0.2985   -1.1500 C   0  0  0  0  0  0  0  0  0  0  0  0
    4.5469   -0.7436   -1.4330 H   0  0  0  0  0  0  0  0  0  0  0  0
    5.4755    0.2996   -0.2849 H   0  0  0  0  0  0  0  0  0  0  0  0
    5.3165    0.7824   -1.9960 H   0  0  0  0  0  0  0  0  0  0  0  0
    3.3126   -0.5420    1.8737 C   0  0  0  0  0  0  0  0  0  0  0  0
    4.2175    0.5013    2.5527 C   0  0  0  0  0  0  0  0  0  0  0  0
    4.6883    0.0342    3.4434 H   0  0  0  0  0  0  0  0  0  0  0  0
    3.6671    1.3943    2.9086 H   0  0  0  0  0  0  0  0  0  0  0  0
    5.0381    0.8343    1.8883 H   0  0  0  0  0  0  0  0  0  0  0  0
    4.1615   -1.7547    1.4556 C   0  0  0  0  0  0  0  0  0  0  0  0
    4.9798   -1.4867    0.7653 H   0  0  0  0  0  0  0  0  0  0  0  0
    3.5528   -2.5328    0.9606 H   0  0  0  0  0  0  0  0  0  0  0  0
    4.6181   -2.1808    2.3741 H   0  0  0  0  0  0  0  0  0  0  0  0
    2.2473   -1.0461    2.8681 C   0  0  0  0  0  0  0  0  0  0  0  0
    2.7546   -1.6185    3.6720 H   0  0  0  0  0  0  0  0  0  0  0  0
    1.5257   -1.7277    2.3719 H   0  0  0  0  0  0  0  0  0  0  0  0
    1.6884   -0.2261    3.3594 H   0  0  0  0  0  0  0  0  0  0  0  0
   -2.1272    0.0661    1.5336 C   0  0  2  0  0  0  0  0  0  0  0  0
   -3.1572    1.1968    1.3909 C   0  0  0  0  0  0  0  0  0  0  0  0
   -3.7212    1.2659    2.3443 H   0  0  0  0  0  0  0  0  0  0  0  0
   -2.6623    2.1693    1.2089 H   0  0  0  0  0  0  0  0  0  0  0  0
   -4.1665    0.8714    0.2780 C   0  0  1  0  0  0  0  0  0  0  0  0
   -2.5608   -0.2294   -1.2011 C   0  0  2  0  0  0  0  0  0  0  0  0
   -3.2068   -1.5494   -0.7760 C   0  0  0  0  0  0  0  0  0  0  0  0
   -4.0215   -1.7610   -1.4993 H   0  0  0  0  0  0  0  0  0  0  0  0
   -2.4632   -2.3698   -0.8189 H   0  0  0  0  0  0  0  0  0  0  0  0
   -3.8154   -1.4362    0.6156 C   0  0  1  0  0  0  0  0  0  0  0  0
   -1.3331    0.1757    2.8228 C   0  0  0  0  0  0  0  0  0  0  0  0
   -2.0288    0.0175    3.6714 H   0  0  0  0  0  0  0  0  0  0  0  0
   -0.8807    1.1800    2.9273 H   0  0  0  0  0  0  0  0  0  0  0  0
   -0.5491   -0.6021    2.8666 H   0  0  0  0  0  0  0  0  0  0  0  0
   -5.2730    1.8998    0.1497 C   0  0  0  0  0  0  0  0  0  0  0  0
   -5.9543    1.5924   -0.6656 H   0  0  0  0  0  0  0  0  0  0  0  0
   -4.8450    2.8922   -0.0867 H   0  0  0  0  0  0  0  0  0  0  0  0
   -5.8434    1.9593    1.0951 H   0  0  0  0  0  0  0  0  0  0  0  0
   -2.1480   -0.2555   -2.6651 C   0  0  0  0  0  0  0  0  0  0  0  0
   -3.0581   -0.3475   -3.2916 H   0  0  0  0  0  0  0  0  0  0  0  0
   -1.4998   -1.1387   -2.8289 H   0  0  0  0  0  0  0  0  0  0  0  0
   -1.5968    0.6540   -2.9701 H   0  0  0  0  0  0  0  0  0  0  0  0
   -4.5313   -2.6905    1.0701 C   0  0  0  0  0  0  0  0  0  0  0  0
   -3.8188   -3.5357    1.0956 H   0  0  0  0  0  0  0  0  0  0  0  0
   -5.3566   -2.9252    0.3728 H   0  0  0  0  0  0  0  0  0  0  0  0
   -4.9455   -2.5258    2.0827 H   0  0  0  0  0  0  0  0  0  0  0  0
  1  6  1  0  0  0  0
  1 32  1  0  0  0  0
  2 10  1  6  0  0  0
  2 45  1  0  0  0  0
  4 49  1  0  0  0  0
  5 54  1  0  0  0  0
  6  8  1  0  0  0  0
  6  7  1  0  0  0  0
  9  6  1  0  0  0  0
 10  9  2  0  0  0  0
 11 10  1  0  0  0  0
 12 11  1  0  0  0  0
 13 11  2  0  0  0  0
 13 15  1  0  0  0  0
 14 13  1  0  0  0  0
 15 17  2  0  0  0  0
 16 15  1  0  0  0  0
 17  9  1  0  0  0  0
 17 18  1  0  0  0  0
 19 24  1  0  0  0  0
 19  1  1  0  0  0  0
 20 21  1  0  0  0  0
 20 19  1  0  0  0  0
 22 20  1  0  0  0  0
 23 20  1  0  0  0  0
 24 27  1  0  0  0  0
 24 26  1  0  0  0  0
 25 24  1  0  0  0  0
 28 19  1  0  0  0  0
 28 30  1  0  0  0  0
 29 28  1  0  0  0  0
 31 28  1  0  0  0  0
 32 33  1  0  0  0  0
 32 41  1  0  0  0  0
 33 35  1  0  0  0  0
 33 34  1  0  0  0  0
 36 33  1  0  0  0  0
 37 32  1  0  0  0  0
 37 40  1  0  0  0  0
 38 37  1  0  0  0  0
 39 37  1  0  0  0  0
 41 44  1  0  0  0  0
 41 42  1  0  0  0  0
 43 41  1  0  0  0  0
 45  3  1  0  0  0  0
 45 55  1  1  0  0  0
 46 45  1  0  0  0  0
 46 47  1  0  0  0  0
 48 46  1  0  0  0  0
 49 59  1  6  0  0  0
 49  5  1  0  0  0  0
 49 46  1  0  0  0  0
 50 63  1  6  0  0  0
 50  4  1  0  0  0  0
 50 51  1  0  0  0  0
 50  2  1  0  0  0  0
 51 54  1  0  0  0  0
 52 51  1  0  0  0  0
 53 51  1  0  0  0  0
 54 67  1  1  0  0  0
 54  3  1  0  0  0  0
 55 58  1  0  0  0  0
 55 57  1  0  0  0  0
 55 56  1  0  0  0  0
 59 62  1  0  0  0  0
 60 59  1  0  0  0  0
 61 59  1  0  0  0  0
 64 63  1  0  0  0  0
 65 63  1  0  0  0  0
 66 63  1  0  0  0  0
 67 68  1  0  0  0  0
 67 70  1  0  0  0  0
 69 67  1  0  0  0  0
M  END
