1,2
 OpenBabel05122313063D

 55 58  0  0  1  0  0  0  0  0999 V2000
    1.5124   -0.1098   -0.1835 P   0  0  0  0  0  0  0  0  0  0  0  0
   -1.5075   -0.1637   -0.1979 P   0  0  0  0  0  0  0  0  0  0  0  0
    2.9298   -2.4748    0.3712 C   0  0  0  0  0  0  0  0  0  0  0  0
    2.2510   -2.5461    1.2338 H   0  0  0  0  0  0  0  0  0  0  0  0
    3.8967   -3.4668    0.1415 C   0  0  0  0  0  0  0  0  0  0  0  0
    3.9794   -4.3180    0.8344 H   0  0  0  0  0  0  0  0  0  0  0  0
    4.7507   -3.3750   -0.9678 C   0  0  0  0  0  0  0  0  0  0  0  0
    5.5067   -4.1542   -1.1492 H   0  0  0  0  0  0  0  0  0  0  0  0
    4.6397   -2.2850   -1.8479 C   0  0  0  0  0  0  0  0  0  0  0  0
    5.3098   -2.2067   -2.7177 H   0  0  0  0  0  0  0  0  0  0  0  0
    3.6760   -1.2927   -1.6190 C   0  0  0  0  0  0  0  0  0  0  0  0
    3.6067   -0.4338   -2.3050 H   0  0  0  0  0  0  0  0  0  0  0  0
    2.8103   -1.3821   -0.5072 C   0  0  0  0  0  0  0  0  0  0  0  0
    3.8560    1.4974    0.1825 C   0  0  0  0  0  0  0  0  0  0  0  0
    4.4304    0.5604    0.2252 H   0  0  0  0  0  0  0  0  0  0  0  0
    4.5124    2.7254    0.3643 C   0  0  0  0  0  0  0  0  0  0  0  0
    5.5981    2.7387    0.5463 H   0  0  0  0  0  0  0  0  0  0  0  0
    3.7922    3.9282    0.3162 C   0  0  0  0  0  0  0  0  0  0  0  0
    4.3095    4.8892    0.4585 H   0  0  0  0  0  0  0  0  0  0  0  0
    2.4046    3.8988    0.0975 C   0  0  0  0  0  0  0  0  0  0  0  0
    1.8269    4.8353    0.0732 H   0  0  0  0  0  0  0  0  0  0  0  0
    1.7441    2.6759   -0.0754 C   0  0  0  0  0  0  0  0  0  0  0  0
    0.6508    2.6678   -0.2123 H   0  0  0  0  0  0  0  0  0  0  0  0
    2.4670    1.4618   -0.0516 C   0  0  0  0  0  0  0  0  0  0  0  0
   -3.1922   -2.2838    0.5493 C   0  0  0  0  0  0  0  0  0  0  0  0
   -2.3463   -2.5937    1.1804 H   0  0  0  0  0  0  0  0  0  0  0  0
   -4.3664   -3.0515    0.5117 C   0  0  0  0  0  0  0  0  0  0  0  0
   -4.4370   -3.9692    1.1153 H   0  0  0  0  0  0  0  0  0  0  0  0
   -5.4496   -2.6454   -0.2834 C   0  0  0  0  0  0  0  0  0  0  0  0
   -6.3727   -3.2446   -0.3062 H   0  0  0  0  0  0  0  0  0  0  0  0
   -5.3571   -1.4676   -1.0436 C   0  0  0  0  0  0  0  0  0  0  0  0
   -6.2073   -1.1417   -1.6624 H   0  0  0  0  0  0  0  0  0  0  0  0
   -4.1839   -0.6999   -1.0127 C   0  0  0  0  0  0  0  0  0  0  0  0
   -4.1184    0.2283   -1.6012 H   0  0  0  0  0  0  0  0  0  0  0  0
   -3.0908   -1.1079   -0.2199 C   0  0  0  0  0  0  0  0  0  0  0  0
   -2.0111    2.2788   -1.6547 C   0  0  0  0  0  0  0  0  0  0  0  0
   -1.6258    1.7898   -2.5614 H   0  0  0  0  0  0  0  0  0  0  0  0
   -2.4284    3.6184   -1.7305 C   0  0  0  0  0  0  0  0  0  0  0  0
   -2.3548    4.1576   -2.6874 H   0  0  0  0  0  0  0  0  0  0  0  0
   -2.9385    4.2643   -0.5949 C   0  0  0  0  0  0  0  0  0  0  0  0
   -3.2632    5.3141   -0.6550 H   0  0  0  0  0  0  0  0  0  0  0  0
   -3.0309    3.5644    0.6202 C   0  0  0  0  0  0  0  0  0  0  0  0
   -3.4293    4.0630    1.5167 H   0  0  0  0  0  0  0  0  0  0  0  0
   -2.6019    2.2337    0.7007 C   0  0  0  0  0  0  0  0  0  0  0  0
   -2.6550    1.6964    1.6598 H   0  0  0  0  0  0  0  0  0  0  0  0
   -2.0870    1.5726   -0.4363 C   0  0  0  0  0  0  0  0  0  0  0  0
   -0.6981   -0.6228   -1.8467 C   0  0  1  0  0  0  0  0  0  0  0  0
   -1.3368   -0.2610   -2.6811 H   0  0  0  0  0  0  0  0  0  0  0  0
    0.6603    0.0908   -1.8636 C   0  0  0  0  0  0  0  0  0  0  0  0
    1.3121   -0.2953   -2.6737 H   0  0  0  0  0  0  0  0  0  0  0  0
    0.5427    1.1810   -2.0216 H   0  0  0  0  0  0  0  0  0  0  0  0
   -0.5563   -2.1454   -1.9327 C   0  0  0  0  0  0  0  0  0  0  0  0
   -1.5426   -2.6473   -1.9694 H   0  0  0  0  0  0  0  0  0  0  0  0
   -0.0088   -2.5364   -1.0497 H   0  0  0  0  0  0  0  0  0  0  0  0
    0.0149   -2.4284   -2.8404 H   0  0  0  0  0  0  0  0  0  0  0  0
  1 24  1  0  0  0  0
  3  4  1  0  0  0  0
  5  3  1  0  0  0  0
  5  6  1  0  0  0  0
  7  5  2  0  0  0  0
  8  7  1  0  0  0  0
  9 11  2  0  0  0  0
  9  7  1  0  0  0  0
 10  9  1  0  0  0  0
 11 13  1  0  0  0  0
 12 11  1  0  0  0  0
 13  1  1  0  0  0  0
 13  3  2  0  0  0  0
 14 15  1  0  0  0  0
 14 16  1  0  0  0  0
 16 17  1  0  0  0  0
 18 16  2  0  0  0  0
 18 19  1  0  0  0  0
 20 18  1  0  0  0  0
 21 20  1  0  0  0  0
 22 24  1  0  0  0  0
 22 20  2  0  0  0  0
 23 22  1  0  0  0  0
 24 14  2  0  0  0  0
 25 26  1  0  0  0  0
 27 25  1  0  0  0  0
 27 28  1  0  0  0  0
 29 27  2  0  0  0  0
 30 29  1  0  0  0  0
 31 33  2  0  0  0  0
 31 29  1  0  0  0  0
 32 31  1  0  0  0  0
 33 35  1  0  0  0  0
 34 33  1  0  0  0  0
 35  2  1  0  0  0  0
 35 25  2  0  0  0  0
 36 46  1  0  0  0  0
 37 36  1  0  0  0  0
 38 36  2  0  0  0  0
 38 40  1  0  0  0  0
 39 38  1  0  0  0  0
 40 42  2  0  0  0  0
 41 40  1  0  0  0  0
 42 44  1  0  0  0  0
 42 43  1  0  0  0  0
 44 45  1  0  0  0  0
 46  2  1  0  0  0  0
 46 44  2  0  0  0  0
 47 48  1  6  0  0  0
 47  2  1  0  0  0  0
 49 47  1  0  0  0  0
 49  1  1  0  0  0  0
 50 49  1  0  0  0  0
 51 49  1  0  0  0  0
 52 47  1  0  0  0  0
 52 54  1  0  0  0  0
 53 52  1  0  0  0  0
 55 52  1  0  0  0  0
M  END
