1,37
 OpenBabel05122313063D

 71 74  0  0  0  0  0  0  0  0999 V2000
    1.6298   -0.1088    0.3072 P   0  0  0  0  0  0  0  0  0  0  0  0
    3.1553    0.8378    2.8216 O   0  0  0  0  0  0  0  0  0  0  0  0
    1.5119   -2.7788   -0.7864 O   0  0  0  0  0  0  0  0  0  0  0  0
    2.3306    1.5398    0.7120 C   0  0  0  0  0  0  0  0  0  0  0  0
    2.2102    2.5354   -0.2766 C   0  0  0  0  0  0  0  0  0  0  0  0
    1.7425    2.2517   -1.2340 H   0  0  0  0  0  0  0  0  0  0  0  0
    2.7028    3.8314   -0.0660 C   0  0  0  0  0  0  0  0  0  0  0  0
    2.6037    4.5930   -0.8531 H   0  0  0  0  0  0  0  0  0  0  0  0
    3.3223    4.1410    1.1521 C   0  0  0  0  0  0  0  0  0  0  0  0
    3.7044    5.1565    1.3382 H   0  0  0  0  0  0  0  0  0  0  0  0
    3.4775    3.1617    2.1458 C   0  0  0  0  0  0  0  0  0  0  0  0
    3.9807    3.4210    3.0865 H   0  0  0  0  0  0  0  0  0  0  0  0
    2.9984    1.8542    1.9260 C   0  0  0  0  0  0  0  0  0  0  0  0
    3.8601    1.0840    4.0248 C   0  0  0  0  0  0  0  0  0  0  0  0
    3.8847    0.1232    4.5712 H   0  0  0  0  0  0  0  0  0  0  0  0
    3.3509    1.8469    4.6548 H   0  0  0  0  0  0  0  0  0  0  0  0
    4.9033    1.4168    3.8294 H   0  0  0  0  0  0  0  0  0  0  0  0
    3.0751   -1.1435   -0.1248 C   0  0  0  0  0  0  0  0  0  0  0  0
    4.4002   -0.7002    0.0103 C   0  0  0  0  0  0  0  0  0  0  0  0
    4.5971    0.2915    0.4422 H   0  0  0  0  0  0  0  0  0  0  0  0
    5.4670   -1.4915   -0.4428 C   0  0  0  0  0  0  0  0  0  0  0  0
    6.5011   -1.1319   -0.3384 H   0  0  0  0  0  0  0  0  0  0  0  0
    5.2024   -2.7252   -1.0552 C   0  0  0  0  0  0  0  0  0  0  0  0
    6.0318   -3.3435   -1.4311 H   0  0  0  0  0  0  0  0  0  0  0  0
    3.8844   -3.1819   -1.2054 C   0  0  0  0  0  0  0  0  0  0  0  0
    3.6875   -4.1448   -1.6959 H   0  0  0  0  0  0  0  0  0  0  0  0
    2.8176   -2.4021   -0.7232 C   0  0  0  0  0  0  0  0  0  0  0  0
    1.1023   -3.5997   -1.8756 C   0  0  0  0  0  0  0  0  0  0  0  0
   -0.0013   -3.6218   -1.8428 H   0  0  0  0  0  0  0  0  0  0  0  0
    1.4869   -4.6386   -1.7784 H   0  0  0  0  0  0  0  0  0  0  0  0
    1.4280   -3.1507   -2.8369 H   0  0  0  0  0  0  0  0  0  0  0  0
    0.9726   -0.8771    1.8628 C   0  0  0  0  0  0  0  0  0  0  0  0
    0.4752   -1.7932    1.4810 H   0  0  0  0  0  0  0  0  0  0  0  0
    1.8259   -1.1899    2.4915 H   0  0  0  0  0  0  0  0  0  0  0  0
    0.0003   -0.0007    2.6681 C   0  0  0  0  0  0  0  0  0  0  0  0
   -0.5880   -0.6671    3.3319 H   0  0  0  0  0  0  0  0  0  0  0  0
   -1.6298    0.1088    0.3076 P   0  0  0  0  0  0  0  0  0  0  0  0
   -3.1534   -0.8409    2.8222 O   0  0  0  0  0  0  0  0  0  0  0  0
   -1.5123    2.7793   -0.7858 O   0  0  0  0  0  0  0  0  0  0  0  0
   -2.3307   -1.5401    0.7109 C   0  0  0  0  0  0  0  0  0  0  0  0
   -2.2115   -2.5344   -0.2792 C   0  0  0  0  0  0  0  0  0  0  0  0
   -1.7445   -2.2495   -1.2367 H   0  0  0  0  0  0  0  0  0  0  0  0
   -2.7041   -3.8306   -0.0699 C   0  0  0  0  0  0  0  0  0  0  0  0
   -2.6060   -4.5911   -0.8582 H   0  0  0  0  0  0  0  0  0  0  0  0
   -3.3226   -4.1417    1.1484 C   0  0  0  0  0  0  0  0  0  0  0  0
   -3.7047   -5.1574    1.3334 H   0  0  0  0  0  0  0  0  0  0  0  0
   -3.4766   -3.1638    2.1435 C   0  0  0  0  0  0  0  0  0  0  0  0
   -3.9790   -3.4243    3.0844 H   0  0  0  0  0  0  0  0  0  0  0  0
   -2.9975   -1.8560    1.9251 C   0  0  0  0  0  0  0  0  0  0  0  0
   -3.8571   -1.0886    4.0258 C   0  0  0  0  0  0  0  0  0  0  0  0
   -3.8811   -0.1286    4.5734 H   0  0  0  0  0  0  0  0  0  0  0  0
   -3.3473   -1.8525    4.6542 H   0  0  0  0  0  0  0  0  0  0  0  0
   -4.9005   -1.4210    3.8309 H   0  0  0  0  0  0  0  0  0  0  0  0
   -3.0752    1.1439   -0.1233 C   0  0  0  0  0  0  0  0  0  0  0  0
   -4.4003    0.7009    0.0130 C   0  0  0  0  0  0  0  0  0  0  0  0
   -4.5970   -0.2908    0.4450 H   0  0  0  0  0  0  0  0  0  0  0  0
   -5.4673    1.4925   -0.4391 C   0  0  0  0  0  0  0  0  0  0  0  0
   -6.5014    1.1331   -0.3337 H   0  0  0  0  0  0  0  0  0  0  0  0
   -5.2030    2.7261   -1.0516 C   0  0  0  0  0  0  0  0  0  0  0  0
   -6.0326    3.3447   -1.4269 H   0  0  0  0  0  0  0  0  0  0  0  0
   -3.8850    3.1826   -1.2029 C   0  0  0  0  0  0  0  0  0  0  0  0
   -3.6883    4.1454   -1.6936 H   0  0  0  0  0  0  0  0  0  0  0  0
   -2.8180    2.4026   -0.7218 C   0  0  0  0  0  0  0  0  0  0  0  0
   -1.1033    3.5989   -1.8762 C   0  0  0  0  0  0  0  0  0  0  0  0
    0.0004    3.6210   -1.8441 H   0  0  0  0  0  0  0  0  0  0  0  0
   -1.4877    4.6380   -1.7799 H   0  0  0  0  0  0  0  0  0  0  0  0
   -1.4295    3.1487   -2.8367 H   0  0  0  0  0  0  0  0  0  0  0  0
   -0.9724    0.8760    1.8636 C   0  0  0  0  0  0  0  0  0  0  0  0
   -0.4753    1.7924    1.4823 H   0  0  0  0  0  0  0  0  0  0  0  0
   -1.8256    1.1882    2.4927 H   0  0  0  0  0  0  0  0  0  0  0  0
    0.5890    0.6655    3.3319 H   0  0  0  0  0  0  0  0  0  0  0  0
  1  4  1  0  0  0  0
  1 32  1  0  0  0  0
  2 14  1  0  0  0  0
  3 27  1  0  0  0  0
  4 13  1  0  0  0  0
  5  7  1  0  0  0  0
  5  4  2  0  0  0  0
  6  5  1  0  0  0  0
  7  9  2  0  0  0  0
  8  7  1  0  0  0  0
  9 10  1  0  0  0  0
  9 11  1  0  0  0  0
 11 12  1  0  0  0  0
 13 11  2  0  0  0  0
 13  2  1  0  0  0  0
 14 15  1  0  0  0  0
 14 16  1  0  0  0  0
 17 14  1  0  0  0  0
 18 19  1  0  0  0  0
 18  1  1  0  0  0  0
 19 20  1  0  0  0  0
 21 22  1  0  0  0  0
 21 19  2  0  0  0  0
 23 21  1  0  0  0  0
 24 23  1  0  0  0  0
 25 23  2  0  0  0  0
 25 27  1  0  0  0  0
 26 25  1  0  0  0  0
 27 18  2  0  0  0  0
 28 29  1  0  0  0  0
 28 30  1  0  0  0  0
 28  3  1  0  0  0  0
 31 28  1  0  0  0  0
 32 34  1  0  0  0  0
 32 35  1  0  0  0  0
 33 32  1  0  0  0  0
 35 71  1  0  0  0  0
 35 36  1  0  0  0  0
 37 40  1  0  0  0  0
 37 68  1  0  0  0  0
 38 50  1  0  0  0  0
 39 63  1  0  0  0  0
 40 49  1  0  0  0  0
 41 43  1  0  0  0  0
 41 40  2  0  0  0  0
 42 41  1  0  0  0  0
 43 45  2  0  0  0  0
 44 43  1  0  0  0  0
 45 46  1  0  0  0  0
 45 47  1  0  0  0  0
 47 48  1  0  0  0  0
 49 47  2  0  0  0  0
 49 38  1  0  0  0  0
 50 51  1  0  0  0  0
 50 52  1  0  0  0  0
 53 50  1  0  0  0  0
 54 55  1  0  0  0  0
 54 37  1  0  0  0  0
 55 56  1  0  0  0  0
 57 58  1  0  0  0  0
 57 55  2  0  0  0  0
 59 57  1  0  0  0  0
 60 59  1  0  0  0  0
 61 59  2  0  0  0  0
 61 63  1  0  0  0  0
 62 61  1  0  0  0  0
 63 54  2  0  0  0  0
 64 65  1  0  0  0  0
 64 66  1  0  0  0  0
 64 39  1  0  0  0  0
 67 64  1  0  0  0  0
 68 70  1  0  0  0  0
 68 35  1  0  0  0  0
 69 68  1  0  0  0  0
M  END
