1,2
 OpenBabel05122313063D

 50 51  0  0  0  0  0  0  0  0999 V2000
    1.6534    0.5545    0.0355 P   0  0  0  0  0  0  0  0  0  0  0  0
   -1.7714    0.4816   -0.0667 P   0  0  0  0  0  0  0  0  0  0  0  0
    2.4830    0.4315    1.5139 N   0  0  0  0  0  0  0  0  0  0  0  0
    3.0875    0.4346   -0.9211 N   0  0  0  0  0  0  0  0  0  0  0  0
   -2.1526    0.9880    1.5160 N   0  0  0  0  0  0  0  0  0  0  0  0
   -3.3927    0.0108   -0.3331 N   0  0  0  0  0  0  0  0  0  0  0  0
    1.2020    2.2385   -0.0532 N   0  0  0  0  0  0  0  0  0  0  0  0
   -1.5923    1.7890   -1.1408 N   0  0  0  0  0  0  0  0  0  0  0  0
    3.9370    0.3840    1.3130 C   0  0  0  0  0  0  0  0  0  0  0  0
    4.1867   -0.1083   -0.1190 C   0  0  0  0  0  0  0  0  0  0  0  0
    1.9130   -0.2790    2.6513 C   0  0  0  0  0  0  0  0  0  0  0  0
    2.9991   -0.0704   -2.2850 C   0  0  0  0  0  0  0  0  0  0  0  0
   -3.5201    0.7062    1.9253 C   0  0  0  0  0  0  0  0  0  0  0  0
   -4.0439   -0.3341    0.9245 C   0  0  0  0  0  0  0  0  0  0  0  0
   -1.3092    1.8268    2.3314 C   0  0  0  0  0  0  0  0  0  0  0  0
   -3.7834   -0.6805   -1.5482 C   0  0  0  0  0  0  0  0  0  0  0  0
    0.7189    2.7459   -1.3402 C   0  0  0  0  0  0  0  0  0  0  0  0
   -0.4087    1.9259   -1.9691 C   0  0  0  0  0  0  0  0  0  0  0  0
    2.1362    3.1790    0.5615 C   0  0  0  0  0  0  0  0  0  0  0  0
   -2.4954    2.9239   -1.0487 C   0  0  0  0  0  0  0  0  0  0  0  0
    4.3886   -0.3078    2.0516 H   0  0  0  0  0  0  0  0  0  0  0  0
    4.3894    1.3909    1.4696 H   0  0  0  0  0  0  0  0  0  0  0  0
    5.1600    0.2637   -0.5082 H   0  0  0  0  0  0  0  0  0  0  0  0
    4.1802   -1.2219   -0.1564 H   0  0  0  0  0  0  0  0  0  0  0  0
    2.1951   -1.3551    2.6476 H   0  0  0  0  0  0  0  0  0  0  0  0
    2.2365    0.1929    3.6035 H   0  0  0  0  0  0  0  0  0  0  0  0
    0.8086   -0.2347    2.5987 H   0  0  0  0  0  0  0  0  0  0  0  0
    3.8974    0.2427   -2.8579 H   0  0  0  0  0  0  0  0  0  0  0  0
    2.9100   -1.1806   -2.3111 H   0  0  0  0  0  0  0  0  0  0  0  0
    2.1126    0.3528   -2.7966 H   0  0  0  0  0  0  0  0  0  0  0  0
   -4.1454    1.6346    1.9071 H   0  0  0  0  0  0  0  0  0  0  0  0
   -3.5415    0.3099    2.9639 H   0  0  0  0  0  0  0  0  0  0  0  0
   -3.7855   -1.3707    1.2444 H   0  0  0  0  0  0  0  0  0  0  0  0
   -5.1464   -0.2644    0.8081 H   0  0  0  0  0  0  0  0  0  0  0  0
   -1.0989    1.3651    3.3228 H   0  0  0  0  0  0  0  0  0  0  0  0
   -0.3484    2.0006    1.8073 H   0  0  0  0  0  0  0  0  0  0  0  0
   -1.7792    2.8230    2.5140 H   0  0  0  0  0  0  0  0  0  0  0  0
   -4.8540   -0.4729   -1.7614 H   0  0  0  0  0  0  0  0  0  0  0  0
   -3.1854   -0.2854   -2.3938 H   0  0  0  0  0  0  0  0  0  0  0  0
   -3.6134   -1.7770   -1.4866 H   0  0  0  0  0  0  0  0  0  0  0  0
    1.5540    2.8347   -2.0812 H   0  0  0  0  0  0  0  0  0  0  0  0
    0.3578    3.7836   -1.1645 H   0  0  0  0  0  0  0  0  0  0  0  0
   -0.6973    2.4112   -2.9272 H   0  0  0  0  0  0  0  0  0  0  0  0
   -0.0516    0.9073   -2.2298 H   0  0  0  0  0  0  0  0  0  0  0  0
    1.6419    4.1686    0.6533 H   0  0  0  0  0  0  0  0  0  0  0  0
    2.4092    2.8250    1.5723 H   0  0  0  0  0  0  0  0  0  0  0  0
    3.0700    3.3096   -0.0366 H   0  0  0  0  0  0  0  0  0  0  0  0
   -2.7667    3.2848   -2.0647 H   0  0  0  0  0  0  0  0  0  0  0  0
   -3.4279    2.6022   -0.5464 H   0  0  0  0  0  0  0  0  0  0  0  0
   -2.0627    3.7788   -0.4799 H   0  0  0  0  0  0  0  0  0  0  0  0
  1  3  1  0  0  0  0
  2  5  1  0  0  0  0
  3 11  1  0  0  0  0
  4 10  1  0  0  0  0
  4  1  1  0  0  0  0
  5 13  1  0  0  0  0
  5 15  1  0  0  0  0
  6  2  1  0  0  0  0
  6 14  1  0  0  0  0
  7  1  1  0  0  0  0
  7 19  1  0  0  0  0
  8 20  1  0  0  0  0
  8  2  1  0  0  0  0
  9 22  1  0  0  0  0
  9  3  1  0  0  0  0
  9 21  1  0  0  0  0
 10  9  1  0  0  0  0
 11 26  1  0  0  0  0
 12  4  1  0  0  0  0
 13 32  1  0  0  0  0
 14 33  1  0  0  0  0
 14 13  1  0  0  0  0
 15 37  1  0  0  0  0
 15 35  1  0  0  0  0
 16 40  1  0  0  0  0
 16  6  1  0  0  0  0
 17 42  1  0  0  0  0
 17  7  1  0  0  0  0
 18 17  1  0  0  0  0
 18  8  1  0  0  0  0
 19 45  1  0  0  0  0
 19 46  1  0  0  0  0
 20 49  1  0  0  0  0
 20 50  1  0  0  0  0
 23 10  1  0  0  0  0
 24 10  1  0  0  0  0
 25 11  1  0  0  0  0
 27 11  1  0  0  0  0
 28 12  1  0  0  0  0
 29 12  1  0  0  0  0
 30 12  1  0  0  0  0
 31 13  1  0  0  0  0
 34 14  1  0  0  0  0
 36 15  1  0  0  0  0
 38 16  1  0  0  0  0
 39 16  1  0  0  0  0
 41 17  1  0  0  0  0
 43 18  1  0  0  0  0
 44 18  1  0  0  0  0
 47 19  1  0  0  0  0
 48 20  1  0  0  0  0
M  END
