1,2
 OpenBabel05122313063D

 59 63  0  0  1  0  0  0  0  0999 V2000
   -1.2472    0.0760    0.3078 P   0  0  2  0  0  0  0  0  0  0  0  0
    1.8630    0.0705    0.4480 P   0  0  0  0  0  0  0  0  0  0  0  0
   -0.4295    0.9557    1.7504 C   0  0  0  0  0  0  0  0  0  0  0  0
   -0.3117    2.0216    1.4615 H   0  0  0  0  0  0  0  0  0  0  0  0
   -1.1064    0.9118    2.6277 H   0  0  0  0  0  0  0  0  0  0  0  0
    0.9399    0.3391    2.0527 C   0  0  0  0  0  0  0  0  0  0  0  0
    0.8168   -0.6596    2.5190 H   0  0  0  0  0  0  0  0  0  0  0  0
    1.5346    0.9691    2.7459 H   0  0  0  0  0  0  0  0  0  0  0  0
   -2.6014    1.2732   -0.2919 C   0  0  2  0  0  0  0  0  0  0  0  0
   -3.3955    1.8113    0.9033 C   0  0  0  0  0  0  0  0  0  0  0  0
   -4.1393    2.5471    0.5315 H   0  0  0  0  0  0  0  0  0  0  0  0
   -2.7384    2.3268    1.6299 H   0  0  0  0  0  0  0  0  0  0  0  0
   -4.1653    0.6626    1.5836 C   0  0  2  0  0  0  0  0  0  0  0  0
   -3.2683   -0.3121    2.1366 O   0  0  0  0  0  0  0  0  0  0  0  0
   -2.4930   -1.0629    1.1835 C   0  0  1  0  0  0  0  0  0  0  0  0
   -3.4071   -1.6113    0.0824 C   0  0  0  0  0  0  0  0  0  0  0  0
   -2.8057   -2.0738   -0.7235 H   0  0  0  0  0  0  0  0  0  0  0  0
   -4.0757   -2.3814    0.5205 H   0  0  0  0  0  0  0  0  0  0  0  0
   -3.4910    0.5186   -1.1350 O   0  0  0  0  0  0  0  0  0  0  0  0
   -4.2825   -0.4820   -0.4844 C   0  0  2  0  0  0  0  0  0  0  0  0
   -5.0214    0.0796    0.6052 O   0  0  0  0  0  0  0  0  0  0  0  0
   -1.9999    2.3580   -1.1689 C   0  0  0  0  0  0  0  0  0  0  0  0
   -1.4687    1.8946   -2.0232 H   0  0  0  0  0  0  0  0  0  0  0  0
   -1.2784    2.9756   -0.5984 H   0  0  0  0  0  0  0  0  0  0  0  0
   -2.8054    3.0150   -1.5561 H   0  0  0  0  0  0  0  0  0  0  0  0
   -5.0434    1.1224    2.7312 C   0  0  0  0  0  0  0  0  0  0  0  0
   -5.7828    1.8611    2.3699 H   0  0  0  0  0  0  0  0  0  0  0  0
   -4.4232    1.5784    3.5256 H   0  0  0  0  0  0  0  0  0  0  0  0
   -5.5775    0.2467    3.1453 H   0  0  0  0  0  0  0  0  0  0  0  0
   -1.7843   -2.1622    1.9569 C   0  0  0  0  0  0  0  0  0  0  0  0
   -1.1888   -1.7371    2.7888 H   0  0  0  0  0  0  0  0  0  0  0  0
   -1.1102   -2.7253    1.2819 H   0  0  0  0  0  0  0  0  0  0  0  0
   -2.5322   -2.8555    2.3934 H   0  0  0  0  0  0  0  0  0  0  0  0
   -5.2861   -0.9573   -1.5155 C   0  0  0  0  0  0  0  0  0  0  0  0
   -5.9681   -1.7017   -1.0642 H   0  0  0  0  0  0  0  0  0  0  0  0
   -4.7555   -1.4127   -2.3725 H   0  0  0  0  0  0  0  0  0  0  0  0
   -5.8752   -0.0908   -1.8699 H   0  0  0  0  0  0  0  0  0  0  0  0
    3.4171   -0.7783    0.9248 C   0  0  0  0  0  0  0  0  0  0  0  0
    4.5198   -0.6899    0.0459 C   0  0  0  0  0  0  0  0  0  0  0  0
    4.4509   -0.0587   -0.8532 H   0  0  0  0  0  0  0  0  0  0  0  0
    5.6990   -1.3980    0.3139 C   0  0  0  0  0  0  0  0  0  0  0  0
    6.5507   -1.3187   -0.3787 H   0  0  0  0  0  0  0  0  0  0  0  0
    5.7937   -2.2071    1.4581 C   0  0  0  0  0  0  0  0  0  0  0  0
    6.7204   -2.7626    1.6674 H   0  0  0  0  0  0  0  0  0  0  0  0
    4.6998   -2.3069    2.3312 C   0  0  0  0  0  0  0  0  0  0  0  0
    4.7656   -2.9400    3.2292 H   0  0  0  0  0  0  0  0  0  0  0  0
    3.5163   -1.6007    2.0658 C   0  0  0  0  0  0  0  0  0  0  0  0
    2.6674   -1.6979    2.7585 H   0  0  0  0  0  0  0  0  0  0  0  0
    2.4334    1.7816    0.0545 C   0  0  0  0  0  0  0  0  0  0  0  0
    3.3391    2.4732    0.8861 C   0  0  0  0  0  0  0  0  0  0  0  0
    3.7688    1.9709    1.7676 H   0  0  0  0  0  0  0  0  0  0  0  0
    3.7052    3.7925    0.5845 C   0  0  0  0  0  0  0  0  0  0  0  0
    4.4138    4.3271    1.2357 H   0  0  0  0  0  0  0  0  0  0  0  0
    3.1725    4.4303   -0.5496 C   0  0  0  0  0  0  0  0  0  0  0  0
    3.4631    5.4656   -0.7848 H   0  0  0  0  0  0  0  0  0  0  0  0
    2.2774    3.7440   -1.3847 C   0  0  0  0  0  0  0  0  0  0  0  0
    1.8659    4.2372   -2.2785 H   0  0  0  0  0  0  0  0  0  0  0  0
    1.9095    2.4220   -1.0858 C   0  0  0  0  0  0  0  0  0  0  0  0
    1.2152    1.8579   -1.7311 H   0  0  0  0  0  0  0  0  0  0  0  0
  1 15  1  0  0  0  0
  1  3  1  1  0  0  0
  2 38  1  0  0  0  0
  2  6  1  0  0  0  0
  3  6  1  0  0  0  0
  3  5  1  0  0  0  0
  4  3  1  0  0  0  0
  6  7  1  0  0  0  0
  6  8  1  0  0  0  0
  9 22  1  6  0  0  0
  9  1  1  0  0  0  0
  9 10  1  0  0  0  0
 10 13  1  0  0  0  0
 10 12  1  0  0  0  0
 11 10  1  0  0  0  0
 13 14  1  0  0  0  0
 13 26  1  1  0  0  0
 15 30  1  1  0  0  0
 15 14  1  0  0  0  0
 16 18  1  0  0  0  0
 16 15  1  0  0  0  0
 17 16  1  0  0  0  0
 19 20  1  0  0  0  0
 19  9  1  0  0  0  0
 20 34  1  6  0  0  0
 20 16  1  0  0  0  0
 20 21  1  0  0  0  0
 21 13  1  0  0  0  0
 22 24  1  0  0  0  0
 23 22  1  0  0  0  0
 25 22  1  0  0  0  0
 26 29  1  0  0  0  0
 26 28  1  0  0  0  0
 27 26  1  0  0  0  0
 30 33  1  0  0  0  0
 30 31  1  0  0  0  0
 32 30  1  0  0  0  0
 34 35  1  0  0  0  0
 36 34  1  0  0  0  0
 37 34  1  0  0  0  0
 38 47  1  0  0  0  0
 39 41  1  0  0  0  0
 39 38  2  0  0  0  0
 40 39  1  0  0  0  0
 41 43  2  0  0  0  0
 42 41  1  0  0  0  0
 43 44  1  0  0  0  0
 43 45  1  0  0  0  0
 45 46  1  0  0  0  0
 47 45  2  0  0  0  0
 47 48  1  0  0  0  0
 49  2  1  0  0  0  0
 49 50  1  0  0  0  0
 50 51  1  0  0  0  0
 52 50  2  0  0  0  0
 52 53  1  0  0  0  0
 54 52  1  0  0  0  0
 55 54  1  0  0  0  0
 56 58  1  0  0  0  0
 56 54  2  0  0  0  0
 57 56  1  0  0  0  0
 58 49  2  0  0  0  0
 59 58  1  0  0  0  0
M  END
