1,2
 OpenBabel05122313063D

  3  2  0  0  0  0  0  0  0  0999 V2000
   -0.0560   -1.9210    1.8236 P   0  0  0  0  0  0  0  0  0  0  0  0
    0.0566   -1.9210   -1.8236 P   0  0  0  0  0  0  0  0  0  0  0  0
    0.0004   -3.0071   -0.0000 P   0  0  0  0  0  0  0  0  0  0  0  0
  2  3  1  0  0  0  0
  3  1  1  0  0  0  0
M  END
