1,3
 OpenBabel05122313063D

 70 69  0  0  0  0  0  0  0  0999 V2000
   -1.4766    0.1393    0.0716 P   0  0  0  0  0  2  0  0  0  0  0  0
   -0.0000    1.8239    0.0872 P   0  0  0  0  0  0  0  0  0  0  0  0
    1.4766    0.1394    0.0717 P   0  0  0  0  0  2  0  0  0  0  0  0
   -4.3335   -0.8338    0.1030 Si  0  0  0  0  0  0  0  0  0  0  0  0
   -3.7454    2.2576   -0.7925 Si  0  0  0  0  0  0  0  0  0  0  0  0
    3.7454    2.2576   -0.7925 Si  0  0  0  0  0  0  0  0  0  0  0  0
    4.3335   -0.8336    0.1031 Si  0  0  0  0  0  0  0  0  0  0  0  0
   -3.0860    0.6067   -0.1233 C   0  0  0  0  0  3  0  0  0  0  0  0
   -3.8555   -1.8622    1.6182 C   0  0  0  0  0  0  0  0  0  0  0  0
   -2.7988   -2.1862    1.6080 H   0  0  0  0  0  0  0  0  0  0  0  0
   -4.4926   -2.7681    1.6817 H   0  0  0  0  0  0  0  0  0  0  0  0
   -4.0183   -1.2614    2.5368 H   0  0  0  0  0  0  0  0  0  0  0  0
   -4.3747   -1.8416   -1.4976 C   0  0  0  0  0  0  0  0  0  0  0  0
   -3.3508   -2.0884   -1.8382 H   0  0  0  0  0  0  0  0  0  0  0  0
   -4.8718   -1.2645   -2.3030 H   0  0  0  0  0  0  0  0  0  0  0  0
   -4.9281   -2.7922   -1.3554 H   0  0  0  0  0  0  0  0  0  0  0  0
   -6.0828   -0.2010    0.4814 C   0  0  0  0  0  0  0  0  0  0  0  0
   -6.5203    0.4373   -0.3097 H   0  0  0  0  0  0  0  0  0  0  0  0
   -6.1099    0.3593    1.4377 H   0  0  0  0  0  0  0  0  0  0  0  0
   -6.7416   -1.0870    0.5984 H   0  0  0  0  0  0  0  0  0  0  0  0
   -4.8128    3.1565    0.4896 C   0  0  0  0  0  0  0  0  0  0  0  0
   -5.6602    2.5373    0.8393 H   0  0  0  0  0  0  0  0  0  0  0  0
   -5.2275    4.0818    0.0379 H   0  0  0  0  0  0  0  0  0  0  0  0
   -4.2145    3.4528    1.3744 H   0  0  0  0  0  0  0  0  0  0  0  0
   -2.4429    3.4729   -1.4321 C   0  0  0  0  0  0  0  0  0  0  0  0
   -1.8213    3.9319   -0.6406 H   0  0  0  0  0  0  0  0  0  0  0  0
   -2.9916    4.2887   -1.9502 H   0  0  0  0  0  0  0  0  0  0  0  0
   -1.7575    3.0024   -2.1646 H   0  0  0  0  0  0  0  0  0  0  0  0
   -4.7919    1.8206   -2.3178 C   0  0  0  0  0  0  0  0  0  0  0  0
   -5.6543    1.1655   -2.0908 H   0  0  0  0  0  0  0  0  0  0  0  0
   -4.1653    1.3102   -3.0773 H   0  0  0  0  0  0  0  0  0  0  0  0
   -5.1844    2.7547   -2.7710 H   0  0  0  0  0  0  0  0  0  0  0  0
   -0.0002    2.2859    1.9842 C   0  0  0  0  0  0  0  0  0  0  0  0
   -0.0004    1.0772    2.9251 C   0  0  0  0  0  0  0  0  0  0  0  0
    0.8959    0.4401    2.7846 H   0  0  0  0  0  0  0  0  0  0  0  0
   -0.8967    0.4402    2.7843 H   0  0  0  0  0  0  0  0  0  0  0  0
   -0.0005    1.4298    3.9791 H   0  0  0  0  0  0  0  0  0  0  0  0
   -1.2636    3.1275    2.2091 C   0  0  0  0  0  0  0  0  0  0  0  0
   -1.2825    4.0309    1.5672 H   0  0  0  0  0  0  0  0  0  0  0  0
   -1.2990    3.4630    3.2680 H   0  0  0  0  0  0  0  0  0  0  0  0
   -2.1819    2.5380    2.0131 H   0  0  0  0  0  0  0  0  0  0  0  0
    1.2633    3.1273    2.2093 C   0  0  0  0  0  0  0  0  0  0  0  0
    1.2824    4.0307    1.5675 H   0  0  0  0  0  0  0  0  0  0  0  0
    2.1815    2.5377    2.0136 H   0  0  0  0  0  0  0  0  0  0  0  0
    1.2985    3.4629    3.2682 H   0  0  0  0  0  0  0  0  0  0  0  0
    3.0861    0.6068   -0.1232 C   0  0  0  0  0  3  0  0  0  0  0  0
    4.7916    1.8207   -2.3180 C   0  0  0  0  0  0  0  0  0  0  0  0
    5.6540    1.1656   -2.0911 H   0  0  0  0  0  0  0  0  0  0  0  0
    5.1841    2.7547   -2.7712 H   0  0  0  0  0  0  0  0  0  0  0  0
    4.1649    1.3102   -3.0774 H   0  0  0  0  0  0  0  0  0  0  0  0
    4.8129    3.1566    0.4894 C   0  0  0  0  0  0  0  0  0  0  0  0
    5.6604    2.5373    0.8391 H   0  0  0  0  0  0  0  0  0  0  0  0
    4.2147    3.4530    1.3743 H   0  0  0  0  0  0  0  0  0  0  0  0
    5.2277    4.0818    0.0377 H   0  0  0  0  0  0  0  0  0  0  0  0
    2.4427    3.4730   -1.4320 C   0  0  0  0  0  0  0  0  0  0  0  0
    1.8213    3.9321   -0.6404 H   0  0  0  0  0  0  0  0  0  0  0  0
    1.7572    3.0025   -2.1643 H   0  0  0  0  0  0  0  0  0  0  0  0
    2.9914    4.2887   -1.9501 H   0  0  0  0  0  0  0  0  0  0  0  0
    6.0829   -0.2007    0.4814 C   0  0  0  0  0  0  0  0  0  0  0  0
    6.5203    0.4375   -0.3098 H   0  0  0  0  0  0  0  0  0  0  0  0
    6.7418   -1.0868    0.5983 H   0  0  0  0  0  0  0  0  0  0  0  0
    6.1100    0.3594    1.4377 H   0  0  0  0  0  0  0  0  0  0  0  0
    3.8556   -1.8620    1.6183 C   0  0  0  0  0  0  0  0  0  0  0  0
    2.7990   -2.1862    1.6081 H   0  0  0  0  0  0  0  0  0  0  0  0
    4.0183   -1.2611    2.5369 H   0  0  0  0  0  0  0  0  0  0  0  0
    4.4929   -2.7678    1.6819 H   0  0  0  0  0  0  0  0  0  0  0  0
    4.3747   -1.8415   -1.4975 C   0  0  0  0  0  0  0  0  0  0  0  0
    4.8719   -1.2645   -2.3028 H   0  0  0  0  0  0  0  0  0  0  0  0
    3.3508   -2.0883   -1.8381 H   0  0  0  0  0  0  0  0  0  0  0  0
    4.9280   -2.7922   -1.3552 H   0  0  0  0  0  0  0  0  0  0  0  0
  1  2  1  0  0  0  0
  2 33  1  0  0  0  0
  3  2  1  0  0  0  0
  4 17  1  0  0  0  0
  4  9  1  0  0  0  0
  5  8  1  0  0  0  0
  5 21  1  0  0  0  0
  6 46  1  0  0  0  0
  6 51  1  0  0  0  0
  7 59  1  0  0  0  0
  7 63  1  0  0  0  0
  8  1  1  0  0  0  0
  8  4  1  0  0  0  0
  9 11  1  0  0  0  0
  9 12  1  0  0  0  0
 10  9  1  0  0  0  0
 13 16  1  0  0  0  0
 13  4  1  0  0  0  0
 14 13  1  0  0  0  0
 15 13  1  0  0  0  0
 17 20  1  0  0  0  0
 17 19  1  0  0  0  0
 18 17  1  0  0  0  0
 21 22  1  0  0  0  0
 21 24  1  0  0  0  0
 23 21  1  0  0  0  0
 25  5  1  0  0  0  0
 25 26  1  0  0  0  0
 27 25  1  0  0  0  0
 28 25  1  0  0  0  0
 29 30  1  0  0  0  0
 29  5  1  0  0  0  0
 31 29  1  0  0  0  0
 32 29  1  0  0  0  0
 33 38  1  0  0  0  0
 33 42  1  0  0  0  0
 33 34  1  0  0  0  0
 34 37  1  0  0  0  0
 35 34  1  0  0  0  0
 36 34  1  0  0  0  0
 38 40  1  0  0  0  0
 39 38  1  0  0  0  0
 41 38  1  0  0  0  0
 42 45  1  0  0  0  0
 43 42  1  0  0  0  0
 44 42  1  0  0  0  0
 46  3  1  0  0  0  0
 46  7  1  0  0  0  0
 47 48  1  0  0  0  0
 47  6  1  0  0  0  0
 49 47  1  0  0  0  0
 50 47  1  0  0  0  0
 51 52  1  0  0  0  0
 51 53  1  0  0  0  0
 54 51  1  0  0  0  0
 55  6  1  0  0  0  0
 55 56  1  0  0  0  0
 57 55  1  0  0  0  0
 58 55  1  0  0  0  0
 59 61  1  0  0  0  0
 59 62  1  0  0  0  0
 60 59  1  0  0  0  0
 63 66  1  0  0  0  0
 63 65  1  0  0  0  0
 64 63  1  0  0  0  0
 67 70  1  0  0  0  0
 67  7  1  0  0  0  0
 68 67  1  0  0  0  0
 69 67  1  0  0  0  0
M  END
