1,2
 OpenBabel05122313063D

 46 46  0  0  0  0  0  0  0  0999 V2000
    0.0859    1.3578    0.5954 P   0  0  1  0  0  0  0  0  0  0  0  0
   -0.7604   -1.3204   -0.5500 P   0  0  1  0  0  0  0  0  0  0  0  0
    0.6921    2.8459   -0.4300 C   0  0  0  0  0  0  0  0  0  0  0  0
   -0.2755    4.0344   -0.4267 C   0  0  0  0  0  0  0  0  0  0  0  0
    0.1917    4.8789   -0.9773 H   0  0  0  0  0  0  0  0  0  0  0  0
   -0.4918    4.3998    0.5985 H   0  0  0  0  0  0  0  0  0  0  0  0
   -1.2348    3.8001   -0.9282 H   0  0  0  0  0  0  0  0  0  0  0  0
    2.0537    3.2561    0.1640 C   0  0  0  0  0  0  0  0  0  0  0  0
    2.5422    3.9790   -0.5233 H   0  0  0  0  0  0  0  0  0  0  0  0
    2.7198    2.3765    0.2888 H   0  0  0  0  0  0  0  0  0  0  0  0
    1.9366    3.7617    1.1438 H   0  0  0  0  0  0  0  0  0  0  0  0
    0.8837    2.3151   -1.8614 C   0  0  0  0  0  0  0  0  0  0  0  0
   -0.0620    1.9160   -2.2842 H   0  0  0  0  0  0  0  0  0  0  0  0
    1.6441    1.5089   -1.8761 H   0  0  0  0  0  0  0  0  0  0  0  0
    1.2320    3.1369   -2.5226 H   0  0  0  0  0  0  0  0  0  0  0  0
    0.1356    1.9264    2.3473 C   0  0  0  0  0  0  0  0  0  0  0  0
   -0.3067    2.9327    2.4900 H   0  0  0  0  0  0  0  0  0  0  0  0
    1.1950    1.9377    2.6674 H   0  0  0  0  0  0  0  0  0  0  0  0
   -0.4120    1.1926    2.9694 H   0  0  0  0  0  0  0  0  0  0  0  0
   -1.3003   -2.5897    0.7758 C   0  0  0  0  0  0  0  0  0  0  0  0
   -0.2406   -3.7043    0.7942 C   0  0  0  0  0  0  0  0  0  0  0  0
   -0.4889   -4.4350    1.5928 H   0  0  0  0  0  0  0  0  0  0  0  0
    0.7666   -3.2916    0.9975 H   0  0  0  0  0  0  0  0  0  0  0  0
   -0.1991   -4.2606   -0.1640 H   0  0  0  0  0  0  0  0  0  0  0  0
   -1.2861   -1.8468    2.1223 C   0  0  0  0  0  0  0  0  0  0  0  0
   -2.0472   -1.0413    2.1578 H   0  0  0  0  0  0  0  0  0  0  0  0
   -0.2907   -1.3948    2.3107 H   0  0  0  0  0  0  0  0  0  0  0  0
   -1.5052   -2.5592    2.9454 H   0  0  0  0  0  0  0  0  0  0  0  0
   -2.6904   -3.1788    0.5086 C   0  0  0  0  0  0  0  0  0  0  0  0
   -3.4818   -2.4042    0.5256 H   0  0  0  0  0  0  0  0  0  0  0  0
   -2.9336   -3.9156    1.3039 H   0  0  0  0  0  0  0  0  0  0  0  0
   -2.7416   -3.7175   -0.4590 H   0  0  0  0  0  0  0  0  0  0  0  0
   -1.0547   -2.1385   -2.1736 C   0  0  0  0  0  0  0  0  0  0  0  0
   -2.0866   -2.5231   -2.2847 H   0  0  0  0  0  0  0  0  0  0  0  0
   -0.3388   -2.9733   -2.2948 H   0  0  0  0  0  0  0  0  0  0  0  0
   -0.8530   -1.3943   -2.9679 H   0  0  0  0  0  0  0  0  0  0  0  0
   -1.7181    1.1692    0.2239 C   0  0  0  0  0  0  0  0  0  0  0  0
   -2.0806   -0.0216   -0.4560 C   0  0  0  0  0  0  0  0  0  0  0  0
   -3.4044   -0.1913   -0.9067 C   0  0  0  0  0  0  0  0  0  0  0  0
   -3.6889   -1.0947   -1.4665 H   0  0  0  0  0  0  0  0  0  0  0  0
   -4.3754    0.7852   -0.6365 C   0  0  0  0  0  0  0  0  0  0  0  0
   -5.4073    0.6458   -0.9930 H   0  0  0  0  0  0  0  0  0  0  0  0
   -4.0349    1.9269    0.1067 C   0  0  0  0  0  0  0  0  0  0  0  0
   -4.8023    2.6789    0.3454 H   0  0  0  0  0  0  0  0  0  0  0  0
   -2.7112    2.1204    0.5303 C   0  0  0  0  0  0  0  0  0  0  0  0
   -2.4522    3.0262    1.0975 H   0  0  0  0  0  0  0  0  0  0  0  0
  1  3  1  6  0  0  0
  1 16  1  0  0  0  0
  2 33  1  6  0  0  0
  2 38  1  0  0  0  0
  2 20  1  0  0  0  0
  3  4  1  0  0  0  0
  3  8  1  0  0  0  0
  4  6  1  0  0  0  0
  5  4  1  0  0  0  0
  7  4  1  0  0  0  0
  8 10  1  0  0  0  0
  8 11  1  0  0  0  0
  9  8  1  0  0  0  0
 12  3  1  0  0  0  0
 13 12  1  0  0  0  0
 14 12  1  0  0  0  0
 15 12  1  0  0  0  0
 16 17  1  0  0  0  0
 16 18  1  0  0  0  0
 16 19  1  0  0  0  0
 20 21  1  0  0  0  0
 20 25  1  0  0  0  0
 21 23  1  0  0  0  0
 21 22  1  0  0  0  0
 24 21  1  0  0  0  0
 25 26  1  0  0  0  0
 25 27  1  0  0  0  0
 25 28  1  0  0  0  0
 29 30  1  0  0  0  0
 29 20  1  0  0  0  0
 29 31  1  0  0  0  0
 32 29  1  0  0  0  0
 34 33  1  0  0  0  0
 35 33  1  0  0  0  0
 36 33  1  0  0  0  0
 37 45  1  0  0  0  0
 37  1  1  0  0  0  0
 38 37  2  0  0  0  0
 39 41  2  0  0  0  0
 39 38  1  0  0  0  0
 40 39  1  0  0  0  0
 41 43  1  0  0  0  0
 42 41  1  0  0  0  0
 43 44  1  0  0  0  0
 43 45  2  0  0  0  0
 45 46  1  0  0  0  0
M  END
