50,51
 OpenBabel05122313063D

 51 53  0  0  1  0  0  0  0  0999 V2000
   -1.8804   -3.6004   -0.6540 C   0  0  0  0  0  0  0  0  0  0  0  0
   -1.0885   -3.6068   -1.4307 H   0  0  0  0  0  0  0  0  0  0  0  0
   -2.4959   -4.5108   -0.7968 H   0  0  0  0  0  0  0  0  0  0  0  0
   -1.3998   -3.6578    0.3424 H   0  0  0  0  0  0  0  0  0  0  0  0
   -2.7611   -2.3518   -0.7242 C   0  0  0  0  0  0  0  0  0  0  0  0
   -3.4824   -2.3394    0.1176 H   0  0  0  0  0  0  0  0  0  0  0  0
   -3.3272   -2.2910   -1.6779 H   0  0  0  0  0  0  0  0  0  0  0  0
   -2.9869    0.5867   -0.4706 C   0  0  0  0  0  0  0  0  0  0  0  0
   -4.2261    0.5413   -1.1434 C   0  0  0  0  0  0  0  0  0  0  0  0
   -4.5294   -0.3611   -1.6944 H   0  0  0  0  0  0  0  0  0  0  0  0
   -5.0873    1.6480   -1.1071 C   0  0  0  0  0  0  0  0  0  0  0  0
   -6.0555    1.6028   -1.6285 H   0  0  0  0  0  0  0  0  0  0  0  0
   -4.7186    2.8065   -0.4046 C   0  0  0  0  0  0  0  0  0  0  0  0
   -5.3985    3.6715   -0.3756 H   0  0  0  0  0  0  0  0  0  0  0  0
   -3.4892    2.8553    0.2712 C   0  0  0  0  0  0  0  0  0  0  0  0
   -3.2024    3.7549    0.8362 H   0  0  0  0  0  0  0  0  0  0  0  0
   -2.6283    1.7486    0.2455 C   0  0  0  0  0  0  0  0  0  0  0  0
   -1.6766    1.7668    0.8015 H   0  0  0  0  0  0  0  0  0  0  0  0
   -0.8466   -0.5633   -2.1342 C   0  0  1  0  0  0  0  0  0  0  0  0
   -0.2763   -1.5150   -2.2308 H   0  0  0  0  0  0  0  0  0  0  0  0
   -1.7167   -0.3547   -3.3738 C   0  0  0  0  0  0  0  0  0  0  0  0
   -2.3068    0.5809   -3.2970 H   0  0  0  0  0  0  0  0  0  0  0  0
   -2.4241   -1.1941   -3.5267 H   0  0  0  0  0  0  0  0  0  0  0  0
   -1.0860   -0.2858   -4.2838 H   0  0  0  0  0  0  0  0  0  0  0  0
    0.1472    0.5797   -1.9017 C   0  0  0  0  0  0  0  0  0  0  0  0
   -0.4020    1.5366   -1.7681 H   0  0  0  0  0  0  0  0  0  0  0  0
    0.8293    0.6977   -2.7684 H   0  0  0  0  0  0  0  0  0  0  0  0
    1.8179    1.9359    0.0791 C   0  0  0  0  0  0  0  0  0  0  0  0
    1.8799    2.9780   -0.8713 C   0  0  0  0  0  0  0  0  0  0  0  0
    1.4902    2.8386   -1.8903 H   0  0  0  0  0  0  0  0  0  0  0  0
    2.4444    4.2143   -0.5222 C   0  0  0  0  0  0  0  0  0  0  0  0
    2.4886    5.0225   -1.2681 H   0  0  0  0  0  0  0  0  0  0  0  0
    2.9478    4.4189    0.7718 C   0  0  0  0  0  0  0  0  0  0  0  0
    3.3877    5.3906    1.0435 H   0  0  0  0  0  0  0  0  0  0  0  0
    2.8851    3.3832    1.7180 C   0  0  0  0  0  0  0  0  0  0  0  0
    3.2734    3.5399    2.7358 H   0  0  0  0  0  0  0  0  0  0  0  0
    2.3227    2.1441    1.3802 C   0  0  0  0  0  0  0  0  0  0  0  0
    2.2571    1.3251    2.1179 H   0  0  0  0  0  0  0  0  0  0  0  0
    2.5574   -0.7245   -0.8775 C   0  0  0  0  0  0  0  0  0  0  0  0
    3.3850   -0.2797   -1.9298 C   0  0  0  0  0  0  0  0  0  0  0  0
    3.2023    0.6958   -2.4082 H   0  0  0  0  0  0  0  0  0  0  0  0
    4.4606   -1.0700   -2.3571 C   0  0  0  0  0  0  0  0  0  0  0  0
    5.1049   -0.7199   -3.1778 H   0  0  0  0  0  0  0  0  0  0  0  0
    4.7199   -2.3014   -1.7309 C   0  0  0  0  0  0  0  0  0  0  0  0
    5.5666   -2.9197   -2.0661 H   0  0  0  0  0  0  0  0  0  0  0  0
    3.9084   -2.7351   -0.6718 C   0  0  0  0  0  0  0  0  0  0  0  0
    4.1196   -3.6905   -0.1683 H   0  0  0  0  0  0  0  0  0  0  0  0
    2.8272   -1.9506   -0.2391 C   0  0  0  0  0  0  0  0  0  0  0  0
    2.2096   -2.2587    0.6191 H   0  0  0  0  0  0  0  0  0  0  0  0
   -1.7919   -0.7985   -0.5193 P   0  0  2  0  0  0  0  0  0  0  0  0
    1.1220    0.2877   -0.3351 P   0  0  0  0  0  0  0  0  0  0  0  0
  1  4  1  0  0  0  0
  2  1  1  0  0  0  0
  3  1  1  0  0  0  0
  5  1  1  0  0  0  0
  5  6  1  0  0  0  0
  7  5  1  0  0  0  0
  8 17  1  0  0  0  0
  9 11  1  0  0  0  0
  9  8  2  0  0  0  0
 10  9  1  0  0  0  0
 11 13  2  0  0  0  0
 12 11  1  0  0  0  0
 13 14  1  0  0  0  0
 13 15  1  0  0  0  0
 15 16  1  0  0  0  0
 17 15  2  0  0  0  0
 17 18  1  0  0  0  0
 19 20  1  6  0  0  0
 19 25  1  0  0  0  0
 19 50  1  0  0  0  0
 21 22  1  0  0  0  0
 21 19  1  0  0  0  0
 23 21  1  0  0  0  0
 24 21  1  0  0  0  0
 25 26  1  0  0  0  0
 25 51  1  0  0  0  0
 27 25  1  0  0  0  0
 28 37  1  0  0  0  0
 29 31  1  0  0  0  0
 29 28  2  0  0  0  0
 30 29  1  0  0  0  0
 31 33  2  0  0  0  0
 32 31  1  0  0  0  0
 33 34  1  0  0  0  0
 33 35  1  0  0  0  0
 35 36  1  0  0  0  0
 37 35  2  0  0  0  0
 37 38  1  0  0  0  0
 39 51  1  0  0  0  0
 39 48  1  0  0  0  0
 40 39  2  0  0  0  0
 41 40  1  0  0  0  0
 42 40  1  0  0  0  0
 42 44  2  0  0  0  0
 43 42  1  0  0  0  0
 44 46  1  0  0  0  0
 45 44  1  0  0  0  0
 46 48  2  0  0  0  0
 46 47  1  0  0  0  0
 48 49  1  0  0  0  0
 50  5  1  6  0  0  0
 50  8  1  0  0  0  0
 51 28  1  0  0  0  0
M  END
