3,4
 OpenBabel05122313063D

 61 65  0  0  1  0  0  0  0  0999 V2000
   -1.4189    3.4522    0.3957 S   0  0  0  0  0  0  0  0  0  0  0  0
   -3.1524    1.0818    0.3891 S   0  0  0  0  0  0  0  0  0  0  0  0
    1.7812    0.6403    0.0255 P   0  0  0  0  0  0  0  0  0  0  0  0
   -0.9392   -0.9326   -0.2165 P   0  0  0  0  0  0  0  0  0  0  0  0
    0.7493    1.9700    0.1095 N   0  0  0  0  0  2  0  0  0  0  0  0
   -4.0942    3.5656    0.7519 N   0  0  0  0  0  0  0  0  0  0  0  0
   -0.5484    1.8505    0.2184 C   0  0  0  0  0  0  0  0  0  0  0  0
   -1.4351    0.7538    0.1909 C   0  0  0  0  0  0  0  0  0  0  0  0
   -3.0140    2.7971    0.5382 C   0  0  2  0  0  3  0  0  0  0  0  0
   -3.9629    5.0200    0.7969 C   0  0  0  0  0  0  0  0  0  0  0  0
   -3.0731    5.3020    1.3962 H   0  0  0  0  0  0  0  0  0  0  0  0
   -4.8592    5.4505    1.2775 H   0  0  0  0  0  0  0  0  0  0  0  0
   -3.8562    5.4505   -0.2222 H   0  0  0  0  0  0  0  0  0  0  0  0
   -5.4123    2.9383    0.7904 C   0  0  0  0  0  0  0  0  0  0  0  0
   -5.4127    2.0995    1.5191 H   0  0  0  0  0  0  0  0  0  0  0  0
   -5.6951    2.5365   -0.2069 H   0  0  0  0  0  0  0  0  0  0  0  0
   -6.1628    3.6831    1.1061 H   0  0  0  0  0  0  0  0  0  0  0  0
    3.3609    1.4020   -0.4834 C   0  0  0  0  0  0  0  0  0  0  0  0
    3.3472    2.6012   -1.2211 C   0  0  0  0  0  0  0  0  0  0  0  0
    2.3905    3.1115   -1.4055 H   0  0  0  0  0  0  0  0  0  0  0  0
    4.5547    3.1384   -1.6913 C   0  0  0  0  0  0  0  0  0  0  0  0
    4.5463    4.0787   -2.2627 H   0  0  0  0  0  0  0  0  0  0  0  0
    5.7689    2.4835   -1.4314 C   0  0  0  0  0  0  0  0  0  0  0  0
    6.7135    2.9078   -1.8031 H   0  0  0  0  0  0  0  0  0  0  0  0
    5.7795    1.2885   -0.6935 C   0  0  0  0  0  0  0  0  0  0  0  0
    6.7306    0.7778   -0.4821 H   0  0  0  0  0  0  0  0  0  0  0  0
    4.5781    0.7438   -0.2198 C   0  0  0  0  0  0  0  0  0  0  0  0
    4.5955   -0.1896    0.3638 H   0  0  0  0  0  0  0  0  0  0  0  0
    2.0378    0.1556    1.7860 C   0  0  0  0  0  0  0  0  0  0  0  0
    1.7082    1.1001    2.7818 C   0  0  0  0  0  0  0  0  0  0  0  0
    1.2974    2.0763    2.4860 H   0  0  0  0  0  0  0  0  0  0  0  0
    1.9117    0.7949    4.1345 C   0  0  0  0  0  0  0  0  0  0  0  0
    1.6543    1.5382    4.9043 H   0  0  0  0  0  0  0  0  0  0  0  0
    2.4484   -0.4481    4.5065 C   0  0  0  0  0  0  0  0  0  0  0  0
    2.6057   -0.6862    5.5691 H   0  0  0  0  0  0  0  0  0  0  0  0
    2.7908   -1.3830    3.5182 C   0  0  0  0  0  0  0  0  0  0  0  0
    3.2158   -2.3576    3.8002 H   0  0  0  0  0  0  0  0  0  0  0  0
    2.5884   -1.0843    2.1626 C   0  0  0  0  0  0  0  0  0  0  0  0
    2.8642   -1.8333    1.4115 H   0  0  0  0  0  0  0  0  0  0  0  0
   -2.4771   -1.5774   -1.0062 C   0  0  0  0  0  0  0  0  0  0  0  0
   -3.3361   -2.4722   -0.3368 C   0  0  0  0  0  0  0  0  0  0  0  0
   -3.0820   -2.8377    0.6683 H   0  0  0  0  0  0  0  0  0  0  0  0
   -4.5238   -2.8968   -0.9539 C   0  0  0  0  0  0  0  0  0  0  0  0
   -5.1864   -3.5998   -0.4273 H   0  0  0  0  0  0  0  0  0  0  0  0
   -4.8632   -2.4306   -2.2322 C   0  0  0  0  0  0  0  0  0  0  0  0
   -5.7916   -2.7707   -2.7148 H   0  0  0  0  0  0  0  0  0  0  0  0
   -4.0139   -1.5303   -2.8976 C   0  0  0  0  0  0  0  0  0  0  0  0
   -4.2746   -1.1616   -3.9008 H   0  0  0  0  0  0  0  0  0  0  0  0
   -2.8257   -1.1057   -2.2909 C   0  0  0  0  0  0  0  0  0  0  0  0
   -2.1742   -0.3951   -2.8206 H   0  0  0  0  0  0  0  0  0  0  0  0
   -0.8131   -1.8422    1.3719 C   0  0  0  0  0  0  0  0  0  0  0  0
   -0.9045   -1.1616    2.6003 C   0  0  0  0  0  0  0  0  0  0  0  0
   -1.0829   -0.0768    2.6104 H   0  0  0  0  0  0  0  0  0  0  0  0
   -0.7488   -1.8653    3.8034 C   0  0  0  0  0  0  0  0  0  0  0  0
   -0.8076   -1.3251    4.7597 H   0  0  0  0  0  0  0  0  0  0  0  0
   -0.5119   -3.2481    3.7866 C   0  0  0  0  0  0  0  0  0  0  0  0
   -0.3886   -3.7977    4.7317 H   0  0  0  0  0  0  0  0  0  0  0  0
   -0.4335   -3.9324    2.5623 C   0  0  0  0  0  0  0  0  0  0  0  0
   -0.2547   -5.0177    2.5446 H   0  0  0  0  0  0  0  0  0  0  0  0
   -0.5789   -3.2335    1.3561 C   0  0  0  0  0  0  0  0  0  0  0  0
   -0.5199   -3.7804    0.4027 H   0  0  0  0  0  0  0  0  0  0  0  0
  1  9  1  0  0  0  0
  2  9  1  0  0  0  0
  3  5  1  0  0  0  0
  3 29  1  0  0  0  0
  4  8  1  0  0  0  0
  4 51  1  0  0  0  0
  5  7  1  0  0  0  0
  6 14  1  0  0  0  0
  6 10  1  0  0  0  0
  7  1  1  0  0  0  0
  8  7  2  0  0  0  0
  8  2  1  0  0  0  0
  9  6  1  6  0  0  0
 10 12  1  0  0  0  0
 10 11  1  0  0  0  0
 13 10  1  0  0  0  0
 14 17  1  0  0  0  0
 14 15  1  0  0  0  0
 16 14  1  0  0  0  0
 18 27  1  0  0  0  0
 18  3  1  0  0  0  0
 19 18  2  0  0  0  0
 20 19  1  0  0  0  0
 21 23  2  0  0  0  0
 21 19  1  0  0  0  0
 22 21  1  0  0  0  0
 23 25  1  0  0  0  0
 24 23  1  0  0  0  0
 25 26  1  0  0  0  0
 25 27  2  0  0  0  0
 27 28  1  0  0  0  0
 29 38  2  0  0  0  0
 29 30  1  0  0  0  0
 30 32  2  0  0  0  0
 31 30  1  0  0  0  0
 32 34  1  0  0  0  0
 32 33  1  0  0  0  0
 34 35  1  0  0  0  0
 36 37  1  0  0  0  0
 36 34  2  0  0  0  0
 38 36  1  0  0  0  0
 39 38  1  0  0  0  0
 40 41  1  0  0  0  0
 40  4  1  0  0  0  0
 41 42  1  0  0  0  0
 43 44  1  0  0  0  0
 43 41  2  0  0  0  0
 45 43  1  0  0  0  0
 46 45  1  0  0  0  0
 47 49  1  0  0  0  0
 47 45  2  0  0  0  0
 48 47  1  0  0  0  0
 49 40  2  0  0  0  0
 50 49  1  0  0  0  0
 51 52  1  0  0  0  0
 52 53  1  0  0  0  0
 52 54  2  0  0  0  0
 54 55  1  0  0  0  0
 56 54  1  0  0  0  0
 56 57  1  0  0  0  0
 58 56  2  0  0  0  0
 59 58  1  0  0  0  0
 60 51  2  0  0  0  0
 60 58  1  0  0  0  0
 61 60  1  0  0  0  0
M  END
