1,3
 OpenBabel05122313063D

 60 63  0  0  1  0  0  0  0  0999 V2000
   -1.3777   -0.0238   -0.1001 P   0  0  0  0  0  0  0  0  0  0  0  0
    0.0907    0.1447   -1.0493 N   0  0  0  0  0  0  0  0  0  0  0  0
    1.2262   -0.5411    0.1025 P   0  0  0  0  0  0  0  0  0  0  0  0
    0.4380    1.0648   -2.1256 C   0  0  2  0  0  0  0  0  0  0  0  0
    1.3474    0.6683   -2.6268 H   0  0  0  0  0  0  0  0  0  0  0  0
    0.8392    2.4456   -1.5717 C   0  0  0  0  0  0  0  0  0  0  0  0
    0.5569    2.8817   -0.4758 O   0  0  0  0  0  0  0  0  0  0  0  0
    2.0328    4.4097   -2.0803 C   0  0  0  0  0  0  0  0  0  0  0  0
    2.5491    4.8432   -2.9548 H   0  0  0  0  0  0  0  0  0  0  0  0
    2.7339    4.3037   -1.2276 H   0  0  0  0  0  0  0  0  0  0  0  0
    1.1879    5.0536   -1.7654 H   0  0  0  0  0  0  0  0  0  0  0  0
    1.5632    3.1175   -2.4948 O   0  0  0  0  0  0  0  0  0  0  0  0
   -0.6591    1.2108   -3.1874 C   0  0  0  0  0  0  0  0  0  0  0  0
   -0.8995    0.2315   -3.6417 H   0  0  0  0  0  0  0  0  0  0  0  0
   -0.3120    1.8992   -3.9808 H   0  0  0  0  0  0  0  0  0  0  0  0
   -1.5828    1.6304   -2.7467 H   0  0  0  0  0  0  0  0  0  0  0  0
   -2.2630    1.5534    0.1090 C   0  0  0  0  0  0  0  0  0  0  0  0
   -3.3020    1.9502   -0.7575 C   0  0  0  0  0  0  0  0  0  0  0  0
   -3.6141    1.2944   -1.5846 H   0  0  0  0  0  0  0  0  0  0  0  0
   -3.9537    3.1746   -0.5495 C   0  0  0  0  0  0  0  0  0  0  0  0
   -4.7661    3.4827   -1.2249 H   0  0  0  0  0  0  0  0  0  0  0  0
   -3.5765    3.9970    0.5243 C   0  0  0  0  0  0  0  0  0  0  0  0
   -4.0938    4.9544    0.6898 H   0  0  0  0  0  0  0  0  0  0  0  0
   -2.5516    3.5938    1.3961 C   0  0  0  0  0  0  0  0  0  0  0  0
   -2.2663    4.2307    2.2464 H   0  0  0  0  0  0  0  0  0  0  0  0
   -1.8967    2.3729    1.1956 C   0  0  0  0  0  0  0  0  0  0  0  0
   -1.1026    2.0400    1.8796 H   0  0  0  0  0  0  0  0  0  0  0  0
   -2.4966   -1.1389   -1.0005 C   0  0  0  0  0  0  0  0  0  0  0  0
   -2.0525   -1.9125   -2.0899 C   0  0  0  0  0  0  0  0  0  0  0  0
   -1.0218   -1.7957   -2.4537 H   0  0  0  0  0  0  0  0  0  0  0  0
   -2.9164   -2.8440   -2.6836 C   0  0  0  0  0  0  0  0  0  0  0  0
   -2.5682   -3.4436   -3.5382 H   0  0  0  0  0  0  0  0  0  0  0  0
   -4.2151   -3.0202   -2.1801 C   0  0  0  0  0  0  0  0  0  0  0  0
   -4.8905   -3.7545   -2.6448 H   0  0  0  0  0  0  0  0  0  0  0  0
   -4.6452   -2.2750   -1.0693 C   0  0  0  0  0  0  0  0  0  0  0  0
   -5.6525   -2.4319   -0.6553 H   0  0  0  0  0  0  0  0  0  0  0  0
   -3.7908   -1.3395   -0.4707 C   0  0  0  0  0  0  0  0  0  0  0  0
   -4.1065   -0.7882    0.4282 H   0  0  0  0  0  0  0  0  0  0  0  0
    2.0338   -1.9554   -0.7107 C   0  0  0  0  0  0  0  0  0  0  0  0
    2.7498   -2.8304    0.1352 C   0  0  0  0  0  0  0  0  0  0  0  0
    2.7587   -2.6441    1.2236 H   0  0  0  0  0  0  0  0  0  0  0  0
    3.3939   -3.9466   -0.4155 C   0  0  0  0  0  0  0  0  0  0  0  0
    3.9453   -4.6344    0.2431 H   0  0  0  0  0  0  0  0  0  0  0  0
    3.3221   -4.1981   -1.7963 C   0  0  0  0  0  0  0  0  0  0  0  0
    3.8272   -5.0782   -2.2223 H   0  0  0  0  0  0  0  0  0  0  0  0
    2.5932   -3.3372   -2.6321 C   0  0  0  0  0  0  0  0  0  0  0  0
    2.5251   -3.5408   -3.7116 H   0  0  0  0  0  0  0  0  0  0  0  0
    1.9427   -2.2170   -2.0916 C   0  0  0  0  0  0  0  0  0  0  0  0
    1.3577   -1.5523   -2.7447 H   0  0  0  0  0  0  0  0  0  0  0  0
    2.5540    0.6725    0.3966 C   0  0  0  0  0  0  0  0  0  0  0  0
    2.5214    1.4247    1.5875 C   0  0  0  0  0  0  0  0  0  0  0  0
    1.7545    1.2001    2.3449 H   0  0  0  0  0  0  0  0  0  0  0  0
    3.4779    2.4269    1.7977 C   0  0  0  0  0  0  0  0  0  0  0  0
    3.4578    3.0116    2.7294 H   0  0  0  0  0  0  0  0  0  0  0  0
    4.4621    2.6794    0.8276 C   0  0  0  0  0  0  0  0  0  0  0  0
    5.2119    3.4672    0.9979 H   0  0  0  0  0  0  0  0  0  0  0  0
    4.5060    1.9155   -0.3512 C   0  0  0  0  0  0  0  0  0  0  0  0
    5.2890    2.1001   -1.1023 H   0  0  0  0  0  0  0  0  0  0  0  0
    3.5588    0.9034   -0.5653 C   0  0  0  0  0  0  0  0  0  0  0  0
    3.6080    0.2849   -1.4753 H   0  0  0  0  0  0  0  0  0  0  0  0
  1 17  1  0  0  0  0
  2  1  1  0  0  0  0
  2  3  1  0  0  0  0
  3 50  1  0  0  0  0
  4  5  1  6  0  0  0
  4  6  1  0  0  0  0
  4  2  1  0  0  0  0
  6  7  2  0  0  0  0
  8 11  1  0  0  0  0
  8 10  1  0  0  0  0
  9  8  1  0  0  0  0
 12  8  1  0  0  0  0
 12  6  1  0  0  0  0
 13 16  1  0  0  0  0
 13  4  1  0  0  0  0
 14 13  1  0  0  0  0
 15 13  1  0  0  0  0
 17 26  1  0  0  0  0
 18 20  1  0  0  0  0
 18 17  2  0  0  0  0
 19 18  1  0  0  0  0
 20 22  2  0  0  0  0
 21 20  1  0  0  0  0
 22 23  1  0  0  0  0
 22 24  1  0  0  0  0
 24 25  1  0  0  0  0
 26 24  2  0  0  0  0
 26 27  1  0  0  0  0
 28 37  1  0  0  0  0
 28  1  1  0  0  0  0
 29 28  2  0  0  0  0
 30 29  1  0  0  0  0
 31 33  2  0  0  0  0
 31 29  1  0  0  0  0
 32 31  1  0  0  0  0
 33 35  1  0  0  0  0
 34 33  1  0  0  0  0
 35 36  1  0  0  0  0
 35 37  2  0  0  0  0
 37 38  1  0  0  0  0
 39  3  1  0  0  0  0
 39 40  1  0  0  0  0
 40 41  1  0  0  0  0
 42 40  2  0  0  0  0
 42 43  1  0  0  0  0
 44 42  1  0  0  0  0
 45 44  1  0  0  0  0
 46 48  1  0  0  0  0
 46 44  2  0  0  0  0
 47 46  1  0  0  0  0
 48 39  2  0  0  0  0
 49 48  1  0  0  0  0
 50 51  1  0  0  0  0
 51 53  2  0  0  0  0
 51 52  1  0  0  0  0
 53 54  1  0  0  0  0
 55 56  1  0  0  0  0
 55 53  1  0  0  0  0
 57 55  2  0  0  0  0
 58 57  1  0  0  0  0
 59 57  1  0  0  0  0
 59 50  2  0  0  0  0
 60 59  1  0  0  0  0
M  END
