8,22
 OpenBabel05122313063D

 68 72  0  0  1  0  0  0  0  0999 V2000
    0.8721    1.9466    2.0369 C   0  0  2  0  0  0  0  0  0  0  0  0
    0.6740    2.3465    3.5106 C   0  0  0  0  0  0  0  0  0  0  0  0
    0.0352    3.7340    3.6464 C   0  0  0  0  0  0  0  0  0  0  0  0
   -1.2874    3.8166    2.8745 C   0  0  0  0  0  0  0  0  0  0  0  0
   -1.0920    3.4273    1.4050 C   0  0  0  0  0  0  0  0  0  0  0  0
   -0.4546    2.0338    1.2458 C   0  0  2  0  0  0  0  0  0  0  0  0
   -1.4266    0.8925    1.6243 C   0  0  0  0  0  0  0  0  0  0  0  0
   -1.7479   -0.1978    0.1565 P   0  0  0  0  0  0  0  0  0  0  0  0
   -2.8666   -1.4923    0.8098 C   0  0  0  0  0  0  0  0  0  0  0  0
   -2.5510   -2.1256    2.0298 C   0  0  0  0  0  0  0  0  0  0  0  0
   -3.3581   -3.1630    2.5187 C   0  0  0  0  0  0  0  0  0  0  0  0
   -4.4825   -3.5806    1.7897 C   0  0  0  0  0  0  0  0  0  0  0  0
   -4.7910   -2.9636    0.5668 C   0  0  0  0  0  0  0  0  0  0  0  0
   -3.9855   -1.9289    0.0709 C   0  0  0  0  0  0  0  0  0  0  0  0
   -2.7777    0.9356   -0.8601 C   0  0  0  0  0  0  0  0  0  0  0  0
   -4.0232    1.3878   -0.3771 C   0  0  0  0  0  0  0  0  0  0  0  0
   -4.7601    2.3324   -1.1064 C   0  0  0  0  0  0  0  0  0  0  0  0
   -4.2532    2.8393   -2.3144 C   0  0  0  0  0  0  0  0  0  0  0  0
   -3.0124    2.3931   -2.7955 C   0  0  0  0  0  0  0  0  0  0  0  0
   -2.2772    1.4393   -2.0759 C   0  0  0  0  0  0  0  0  0  0  0  0
    1.5530    0.5773    1.9301 C   0  0  0  0  0  0  0  0  0  0  0  0
    1.8077   -0.1204    0.2141 P   0  0  0  0  0  0  0  0  0  0  0  0
    2.9990   -1.4609    0.6109 C   0  0  0  0  0  0  0  0  0  0  0  0
    2.4800   -2.6161    1.2306 C   0  0  0  0  0  0  0  0  0  0  0  0
    3.3362   -3.6657    1.5889 C   0  0  0  0  0  0  0  0  0  0  0  0
    4.7114   -3.5754    1.3180 C   0  0  0  0  0  0  0  0  0  0  0  0
    5.2250   -2.4344    0.6830 C   0  0  0  0  0  0  0  0  0  0  0  0
    4.3737   -1.3766    0.3276 C   0  0  0  0  0  0  0  0  0  0  0  0
    2.7283    1.2288   -0.6278 C   0  0  0  0  0  0  0  0  0  0  0  0
    2.4124    1.5679   -1.9586 C   0  0  0  0  0  0  0  0  0  0  0  0
    3.0787    2.6285   -2.5903 C   0  0  0  0  0  0  0  0  0  0  0  0
    4.0658    3.3540   -1.9056 C   0  0  0  0  0  0  0  0  0  0  0  0
    4.3894    3.0170   -0.5814 C   0  0  0  0  0  0  0  0  0  0  0  0
    3.7220    1.9616    0.0577 C   0  0  0  0  0  0  0  0  0  0  0  0
    1.5556    2.6964    1.5794 H   0  0  0  0  0  0  0  0  0  0  0  0
    0.0278    1.5902    4.0122 H   0  0  0  0  0  0  0  0  0  0  0  0
    1.6501    2.3108    4.0400 H   0  0  0  0  0  0  0  0  0  0  0  0
   -0.1192    3.9820    4.7172 H   0  0  0  0  0  0  0  0  0  0  0  0
    0.7388    4.4983    3.2462 H   0  0  0  0  0  0  0  0  0  0  0  0
   -1.7177    4.8371    2.9461 H   0  0  0  0  0  0  0  0  0  0  0  0
   -2.0308    3.1363    3.3482 H   0  0  0  0  0  0  0  0  0  0  0  0
   -2.0536    3.4568    0.8507 H   0  0  0  0  0  0  0  0  0  0  0  0
   -0.4260    4.1727    0.9171 H   0  0  0  0  0  0  0  0  0  0  0  0
   -0.1901    1.9228    0.1690 H   0  0  0  0  0  0  0  0  0  0  0  0
   -2.4085    1.2717    1.9727 H   0  0  0  0  0  0  0  0  0  0  0  0
   -1.0357    0.2584    2.4438 H   0  0  0  0  0  0  0  0  0  0  0  0
   -1.6619   -1.8204    2.6031 H   0  0  0  0  0  0  0  0  0  0  0  0
   -3.1031   -3.6504    3.4718 H   0  0  0  0  0  0  0  0  0  0  0  0
   -5.1153   -4.3959    2.1718 H   0  0  0  0  0  0  0  0  0  0  0  0
   -5.6624   -3.2984   -0.0159 H   0  0  0  0  0  0  0  0  0  0  0  0
   -4.2077   -1.4675   -0.9011 H   0  0  0  0  0  0  0  0  0  0  0  0
   -4.4273    0.9924    0.5682 H   0  0  0  0  0  0  0  0  0  0  0  0
   -5.7362    2.6735   -0.7291 H   0  0  0  0  0  0  0  0  0  0  0  0
   -4.8316    3.5817   -2.8851 H   0  0  0  0  0  0  0  0  0  0  0  0
   -2.6152    2.7819   -3.7451 H   0  0  0  0  0  0  0  0  0  0  0  0
   -1.3162    1.0640   -2.4587 H   0  0  0  0  0  0  0  0  0  0  0  0
    0.9893   -0.2048    2.4820 H   0  0  0  0  0  0  0  0  0  0  0  0
    2.5531    0.6083    2.4108 H   0  0  0  0  0  0  0  0  0  0  0  0
    1.3944   -2.7070    1.3992 H   0  0  0  0  0  0  0  0  0  0  0  0
    2.9238   -4.5677    2.0657 H   0  0  0  0  0  0  0  0  0  0  0  0
    5.3822   -4.4047    1.5892 H   0  0  0  0  0  0  0  0  0  0  0  0
    6.2986   -2.3688    0.4496 H   0  0  0  0  0  0  0  0  0  0  0  0
    4.7773   -0.4951   -0.1909 H   0  0  0  0  0  0  0  0  0  0  0  0
    1.6623    0.9711   -2.4990 H   0  0  0  0  0  0  0  0  0  0  0  0
    2.8266    2.8838   -3.6306 H   0  0  0  0  0  0  0  0  0  0  0  0
    4.5881    4.1841   -2.4052 H   0  0  0  0  0  0  0  0  0  0  0  0
    5.1658    3.5791   -0.0405 H   0  0  0  0  0  0  0  0  0  0  0  0
    3.9867    1.7078    1.0955 H   0  0  0  0  0  0  0  0  0  0  0  0
  1 35  1  6  0  0  0
  1  2  1  0  0  0  0
  2  3  1  0  0  0  0
  2 36  1  0  0  0  0
  2 37  1  0  0  0  0
  3 38  1  0  0  0  0
  4 40  1  0  0  0  0
  4 41  1  0  0  0  0
  4  3  1  0  0  0  0
  5  4  1  0  0  0  0
  6 44  1  6  0  0  0
  6  5  1  0  0  0  0
  6  7  1  0  0  0  0
  6  1  1  0  0  0  0
  7 45  1  0  0  0  0
  7 46  1  0  0  0  0
  8  9  1  0  0  0  0
  8  7  1  0  0  0  0
  9 10  1  0  0  0  0
 10 11  2  0  0  0  0
 10 47  1  0  0  0  0
 11 48  1  0  0  0  0
 12 49  1  0  0  0  0
 12 11  1  0  0  0  0
 13 12  2  0  0  0  0
 14 13  1  0  0  0  0
 14  9  2  0  0  0  0
 15 16  1  0  0  0  0
 15  8  1  0  0  0  0
 16 52  1  0  0  0  0
 17 53  1  0  0  0  0
 17 16  2  0  0  0  0
 18 17  1  0  0  0  0
 19 18  2  0  0  0  0
 19 20  1  0  0  0  0
 20 15  2  0  0  0  0
 21  1  1  0  0  0  0
 21 58  1  0  0  0  0
 21 57  1  0  0  0  0
 22 23  1  0  0  0  0
 22 21  1  0  0  0  0
 23 24  1  0  0  0  0
 24 59  1  0  0  0  0
 24 25  2  0  0  0  0
 25 60  1  0  0  0  0
 26 25  1  0  0  0  0
 26 61  1  0  0  0  0
 27 26  2  0  0  0  0
 28 23  2  0  0  0  0
 28 27  1  0  0  0  0
 29 34  1  0  0  0  0
 29 22  1  0  0  0  0
 30 29  2  0  0  0  0
 31 30  1  0  0  0  0
 31 32  2  0  0  0  0
 32 33  1  0  0  0  0
 33 67  1  0  0  0  0
 33 34  2  0  0  0  0
 34 68  1  0  0  0  0
 39  3  1  0  0  0  0
 42  5  1  0  0  0  0
 43  5  1  0  0  0  0
 50 13  1  0  0  0  0
 51 14  1  0  0  0  0
 54 18  1  0  0  0  0
 55 19  1  0  0  0  0
 56 20  1  0  0  0  0
 62 27  1  0  0  0  0
 63 28  1  0  0  0  0
 64 30  1  0  0  0  0
 65 31  1  0  0  0  0
 66 32  1  0  0  0  0
M  END
