1,2
 OpenBabel05122313063D

 66 70  0  0  1  0  0  0  0  0999 V2000
   -1.5343    0.2928    0.2507 P   0  0  2  0  0  0  0  0  0  0  0  0
    1.4712    0.3445    0.2424 P   0  0  1  0  0  0  0  0  0  0  0  0
   -1.8912    0.0893    2.0714 C   0  0  1  0  0  0  0  0  0  0  0  0
   -2.6596   -0.7168    2.0424 H   0  0  0  0  0  0  0  0  0  0  0  0
    1.7723    0.1682    2.1024 C   0  0  1  0  0  0  0  0  0  0  0  0
    2.5209    0.9613    2.3139 H   0  0  0  0  0  0  0  0  0  0  0  0
   -0.6842   -0.4621    2.8528 C   0  0  0  0  0  0  0  0  0  0  0  0
   -1.0576   -0.7021    3.8708 H   0  0  0  0  0  0  0  0  0  0  0  0
   -0.3832   -1.4312    2.4026 H   0  0  0  0  0  0  0  0  0  0  0  0
    0.5374    0.4739    2.9736 C   0  0  0  0  0  0  0  0  0  0  0  0
    0.9077    0.4400    4.0209 H   0  0  0  0  0  0  0  0  0  0  0  0
    0.2329    1.5286    2.8081 H   0  0  0  0  0  0  0  0  0  0  0  0
    2.3998   -1.2037    2.3717 C   0  0  0  0  0  0  0  0  0  0  0  0
    2.6323   -1.3017    3.4527 H   0  0  0  0  0  0  0  0  0  0  0  0
    3.3402   -1.3427    1.8042 H   0  0  0  0  0  0  0  0  0  0  0  0
    1.7248   -2.0305    2.0746 H   0  0  0  0  0  0  0  0  0  0  0  0
   -2.5192    1.3480    2.6771 C   0  0  0  0  0  0  0  0  0  0  0  0
   -2.7659    1.1717    3.7446 H   0  0  0  0  0  0  0  0  0  0  0  0
   -3.4557    1.6242    2.1557 H   0  0  0  0  0  0  0  0  0  0  0  0
   -1.8344    2.2182    2.6247 H   0  0  0  0  0  0  0  0  0  0  0  0
   -0.7573    1.9142   -0.1521 C   0  0  2  0  0  3  0  0  0  0  0  0
   -1.6286    2.6112   -0.9836 C   0  0  0  0  0  0  0  0  0  0  0  0
   -2.9813    2.0335   -1.0703 C   0  0  0  0  0  0  0  0  0  0  0  0
   -3.1462    0.8095   -0.4408 C   0  0  2  0  0  3  0  0  0  0  0  0
    0.6711    1.9777   -0.0023 C   0  0  2  0  0  3  0  0  0  0  0  0
    1.6459    2.9455   -0.1830 C   0  0  0  0  0  0  0  0  0  0  0  0
    3.0054    2.3882   -0.3305 C   0  0  0  0  0  0  0  0  0  0  0  0
    3.1209    1.0102   -0.2384 C   0  0  1  0  0  3  0  0  0  0  0  0
   -1.2132    3.7482   -1.8698 C   0  0  0  0  0  0  0  0  0  0  0  0
   -1.8079    3.7695   -2.8025 H   0  0  0  0  0  0  0  0  0  0  0  0
   -0.1465    3.6486   -2.1456 H   0  0  0  0  0  0  0  0  0  0  0  0
   -1.3409    4.7400   -1.3857 H   0  0  0  0  0  0  0  0  0  0  0  0
   -4.0587    2.7299   -1.8529 C   0  0  0  0  0  0  0  0  0  0  0  0
   -4.3452    3.6989   -1.3908 H   0  0  0  0  0  0  0  0  0  0  0  0
   -4.9652    2.1063   -1.9465 H   0  0  0  0  0  0  0  0  0  0  0  0
   -3.7025    2.9657   -2.8773 H   0  0  0  0  0  0  0  0  0  0  0  0
   -4.4002    0.1114   -0.1341 C   0  0  0  0  0  0  0  0  0  0  0  0
   -5.5541    0.8413    0.2575 C   0  0  0  0  0  0  0  0  0  0  0  0
   -5.5067    1.9381    0.3255 H   0  0  0  0  0  0  0  0  0  0  0  0
   -6.7404    0.1806    0.5987 C   0  0  0  0  0  0  0  0  0  0  0  0
   -7.6206    0.7663    0.9054 H   0  0  0  0  0  0  0  0  0  0  0  0
   -6.8027   -1.2226    0.5661 C   0  0  0  0  0  0  0  0  0  0  0  0
   -7.7353   -1.7410    0.8363 H   0  0  0  0  0  0  0  0  0  0  0  0
   -5.6631   -1.9568    0.2004 C   0  0  0  0  0  0  0  0  0  0  0  0
   -5.6969   -3.0567    0.1769 H   0  0  0  0  0  0  0  0  0  0  0  0
   -4.4714   -1.3032   -0.1392 C   0  0  0  0  0  0  0  0  0  0  0  0
   -3.5828   -1.8880   -0.4383 H   0  0  0  0  0  0  0  0  0  0  0  0
    1.4267    4.4324   -0.1772 C   0  0  0  0  0  0  0  0  0  0  0  0
    0.4004    4.6882    0.1387 H   0  0  0  0  0  0  0  0  0  0  0  0
    1.6160    4.9062   -1.1637 H   0  0  0  0  0  0  0  0  0  0  0  0
    2.1280    4.9150    0.5358 H   0  0  0  0  0  0  0  0  0  0  0  0
    4.1589    3.3123   -0.6096 C   0  0  0  0  0  0  0  0  0  0  0  0
    4.4242    3.9199    0.2823 H   0  0  0  0  0  0  0  0  0  0  0  0
    3.8969    4.0322   -1.4120 H   0  0  0  0  0  0  0  0  0  0  0  0
    5.0619    2.7570   -0.9209 H   0  0  0  0  0  0  0  0  0  0  0  0
    4.3696    0.2341   -0.1838 C   0  0  0  0  0  0  0  0  0  0  0  0
    5.4450    0.6622    0.6359 C   0  0  0  0  0  0  0  0  0  0  0  0
    5.3296    1.5690    1.2482 H   0  0  0  0  0  0  0  0  0  0  0  0
    6.6336   -0.0759    0.7042 C   0  0  0  0  0  0  0  0  0  0  0  0
    7.4529    0.2673    1.3543 H   0  0  0  0  0  0  0  0  0  0  0  0
    6.7718   -1.2579   -0.0421 C   0  0  0  0  0  0  0  0  0  0  0  0
    7.7039   -1.8407    0.0142 H   0  0  0  0  0  0  0  0  0  0  0  0
    5.7092   -1.6991   -0.8470 C   0  0  0  0  0  0  0  0  0  0  0  0
    5.8006   -2.6329   -1.4221 H   0  0  0  0  0  0  0  0  0  0  0  0
    4.5173   -0.9665   -0.9171 C   0  0  0  0  0  0  0  0  0  0  0  0
    3.6743   -1.3407   -1.5164 H   0  0  0  0  0  0  0  0  0  0  0  0
  1  3  1  0  0  0  0
  2  5  1  0  0  0  0
  3 17  1  0  0  0  0
  3  7  1  0  0  0  0
  4  3  1  0  0  0  0
  5  6  1  0  0  0  0
  5 13  1  0  0  0  0
  5 10  1  0  0  0  0
  7 10  1  0  0  0  0
  7  8  1  0  0  0  0
  9  7  1  0  0  0  0
 10 11  1  0  0  0  0
 12 10  1  0  0  0  0
 13 14  1  0  0  0  0
 15 13  1  0  0  0  0
 16 13  1  0  0  0  0
 17 18  1  0  0  0  0
 19 17  1  0  0  0  0
 20 17  1  0  0  0  0
 21 25  1  0  0  0  0
 21  1  1  0  0  0  0
 22 21  1  0  0  0  0
 23 22  2  0  0  0  0
 23 24  1  0  0  0  0
 24 37  1  0  0  0  0
 24  1  1  0  0  0  0
 25  2  1  0  0  0  0
 26 48  1  0  0  0  0
 26 25  1  0  0  0  0
 27 28  1  0  0  0  0
 27 26  2  0  0  0  0
 28 56  1  0  0  0  0
 28  2  1  0  0  0  0
 29 32  1  0  0  0  0
 29 22  1  0  0  0  0
 30 29  1  0  0  0  0
 31 29  1  0  0  0  0
 33 34  1  0  0  0  0
 33 23  1  0  0  0  0
 35 33  1  0  0  0  0
 36 33  1  0  0  0  0
 37 38  1  0  0  0  0
 38 39  1  0  0  0  0
 38 40  2  0  0  0  0
 40 41  1  0  0  0  0
 42 40  1  0  0  0  0
 42 43  1  0  0  0  0
 44 42  2  0  0  0  0
 45 44  1  0  0  0  0
 46 37  2  0  0  0  0
 46 44  1  0  0  0  0
 47 46  1  0  0  0  0
 48 49  1  0  0  0  0
 48 51  1  0  0  0  0
 50 48  1  0  0  0  0
 52 27  1  0  0  0  0
 52 53  1  0  0  0  0
 54 52  1  0  0  0  0
 55 52  1  0  0  0  0
 56 57  1  0  0  0  0
 57 59  2  0  0  0  0
 57 58  1  0  0  0  0
 59 60  1  0  0  0  0
 61 62  1  0  0  0  0
 61 59  1  0  0  0  0
 63 61  2  0  0  0  0
 64 63  1  0  0  0  0
 65 63  1  0  0  0  0
 65 56  2  0  0  0  0
 66 65  1  0  0  0  0
M  END
