1,2
 OpenBabel05122313063D

 76 82  0  0  1  0  0  0  0  0999 V2000
    1.5535   -0.6128   -0.5398 P   0  0  0  0  0  0  0  0  0  0  0  0
   -1.5164   -0.7161    0.4878 P   0  0  0  0  0  0  0  0  0  0  0  0
    0.7282    0.8492    0.2243 C   0  0  1  0  0  0  0  0  0  0  0  0
    0.8019    0.6853    1.3229 H   0  0  0  0  0  0  0  0  0  0  0  0
    0.7316    2.3806   -0.0643 C   0  0  2  0  0  0  0  0  0  0  0  0
    0.9202    2.5511   -1.1440 H   0  0  0  0  0  0  0  0  0  0  0  0
    1.6107    3.2756    0.7621 C   0  0  0  0  0  0  0  0  0  0  0  0
    2.5829    4.0858    0.1427 C   0  0  0  0  0  0  0  0  0  0  0  0
    2.6621    4.0818   -0.9561 H   0  0  0  0  0  0  0  0  0  0  0  0
    3.4501    4.8823    0.9055 C   0  0  0  0  0  0  0  0  0  0  0  0
    4.2049    5.5059    0.4029 H   0  0  0  0  0  0  0  0  0  0  0  0
    3.3562    4.8817    2.3057 C   0  0  0  0  0  0  0  0  0  0  0  0
    4.0362    5.5040    2.9068 H   0  0  0  0  0  0  0  0  0  0  0  0
    2.3873    4.0832    2.9359 C   0  0  0  0  0  0  0  0  0  0  0  0
    2.3056    4.0784    4.0335 H   0  0  0  0  0  0  0  0  0  0  0  0
    1.5222    3.2883    2.1709 C   0  0  0  0  0  0  0  0  0  0  0  0
    0.7727    2.6623    2.6815 H   0  0  0  0  0  0  0  0  0  0  0  0
   -0.7508    0.8233   -0.1851 C   0  0  2  0  0  0  0  0  0  0  0  0
   -0.8192    0.7197   -1.2912 H   0  0  0  0  0  0  0  0  0  0  0  0
   -0.8227    2.3374    0.1831 C   0  0  2  0  0  0  0  0  0  0  0  0
   -1.0181    2.4408    1.2699 H   0  0  0  0  0  0  0  0  0  0  0  0
   -1.7395    3.2390   -0.5937 C   0  0  0  0  0  0  0  0  0  0  0  0
   -2.7227    3.9973    0.0730 C   0  0  0  0  0  0  0  0  0  0  0  0
   -2.7862    3.9438    1.1715 H   0  0  0  0  0  0  0  0  0  0  0  0
   -3.6187    4.8052   -0.6436 C   0  0  0  0  0  0  0  0  0  0  0  0
   -4.3812    5.3882   -0.1049 H   0  0  0  0  0  0  0  0  0  0  0  0
   -3.5429    4.8681   -2.0434 C   0  0  0  0  0  0  0  0  0  0  0  0
   -4.2453    5.4995   -2.6083 H   0  0  0  0  0  0  0  0  0  0  0  0
   -2.5637    4.1215   -2.7199 C   0  0  0  0  0  0  0  0  0  0  0  0
   -2.4969    4.1662   -3.8176 H   0  0  0  0  0  0  0  0  0  0  0  0
   -1.6700    3.3153   -2.0017 C   0  0  0  0  0  0  0  0  0  0  0  0
   -0.9141    2.7289   -2.5485 H   0  0  0  0  0  0  0  0  0  0  0  0
    1.5788   -0.2106   -2.3270 C   0  0  0  0  0  0  0  0  0  0  0  0
    0.6289   -0.8063   -3.1800 C   0  0  0  0  0  0  0  0  0  0  0  0
   -0.0458   -1.5773   -2.7725 H   0  0  0  0  0  0  0  0  0  0  0  0
    0.5622   -0.4203   -4.5281 C   0  0  0  0  0  0  0  0  0  0  0  0
   -0.1772   -0.8903   -5.1938 H   0  0  0  0  0  0  0  0  0  0  0  0
    1.4418    0.5542   -5.0256 C   0  0  0  0  0  0  0  0  0  0  0  0
    1.3903    0.8528   -6.0838 H   0  0  0  0  0  0  0  0  0  0  0  0
    2.3975    1.1412   -4.1779 C   0  0  0  0  0  0  0  0  0  0  0  0
    3.0943    1.8968   -4.5717 H   0  0  0  0  0  0  0  0  0  0  0  0
    2.4707    0.7598   -2.8305 C   0  0  0  0  0  0  0  0  0  0  0  0
    3.2256    1.2088   -2.1657 H   0  0  0  0  0  0  0  0  0  0  0  0
    3.3010   -0.5924   -0.0118 C   0  0  0  0  0  0  0  0  0  0  0  0
    3.7818    0.4303    0.8325 C   0  0  0  0  0  0  0  0  0  0  0  0
    3.1132    1.2200    1.2025 H   0  0  0  0  0  0  0  0  0  0  0  0
    5.1362    0.4575    1.1997 C   0  0  0  0  0  0  0  0  0  0  0  0
    5.5019    1.2630    1.8543 H   0  0  0  0  0  0  0  0  0  0  0  0
    6.0125   -0.5330    0.7314 C   0  0  0  0  0  0  0  0  0  0  0  0
    7.0741   -0.5111    1.0214 H   0  0  0  0  0  0  0  0  0  0  0  0
    5.5326   -1.5549   -0.1051 C   0  0  0  0  0  0  0  0  0  0  0  0
    6.2153   -2.3388   -0.4663 H   0  0  0  0  0  0  0  0  0  0  0  0
    4.1829   -1.5909   -0.4795 C   0  0  0  0  0  0  0  0  0  0  0  0
    3.7920   -2.4082   -1.1030 H   0  0  0  0  0  0  0  0  0  0  0  0
   -1.8091   -0.3335    2.2551 C   0  0  0  0  0  0  0  0  0  0  0  0
   -0.9760   -0.9121    3.2326 C   0  0  0  0  0  0  0  0  0  0  0  0
   -0.2284   -1.6601    2.9238 H   0  0  0  0  0  0  0  0  0  0  0  0
   -1.1240   -0.5437    4.5791 C   0  0  0  0  0  0  0  0  0  0  0  0
   -0.4769   -1.0013    5.3425 H   0  0  0  0  0  0  0  0  0  0  0  0
   -2.0997    0.3943    4.9513 C   0  0  0  0  0  0  0  0  0  0  0  0
   -2.2155    0.6781    6.0085 H   0  0  0  0  0  0  0  0  0  0  0  0
   -2.9389    0.9630    3.9774 C   0  0  0  0  0  0  0  0  0  0  0  0
   -3.7126    1.6890    4.2706 H   0  0  0  0  0  0  0  0  0  0  0  0
   -2.7985    0.5996    2.6304 C   0  0  0  0  0  0  0  0  0  0  0  0
   -3.4645    1.0342    1.8682 H   0  0  0  0  0  0  0  0  0  0  0  0
   -3.1632   -0.8487   -0.3024 C   0  0  0  0  0  0  0  0  0  0  0  0
   -3.8570   -2.0771   -0.2998 C   0  0  0  0  0  0  0  0  0  0  0  0
   -3.3792   -2.9610    0.1544 H   0  0  0  0  0  0  0  0  0  0  0  0
   -5.1257   -2.1584   -0.8910 C   0  0  0  0  0  0  0  0  0  0  0  0
   -5.6605   -3.1203   -0.8905 H   0  0  0  0  0  0  0  0  0  0  0  0
   -5.7100   -1.0276   -1.4852 C   0  0  0  0  0  0  0  0  0  0  0  0
   -6.7058   -1.0999   -1.9490 H   0  0  0  0  0  0  0  0  0  0  0  0
   -5.0191    0.1938   -1.4919 C   0  0  0  0  0  0  0  0  0  0  0  0
   -5.4647    1.0856   -1.9583 H   0  0  0  0  0  0  0  0  0  0  0  0
   -3.7481    0.2869   -0.9046 C   0  0  0  0  0  0  0  0  0  0  0  0
   -3.2224    1.2521   -0.9227 H   0  0  0  0  0  0  0  0  0  0  0  0
  1 44  1  0  0  0  0
  1  3  1  0  0  0  0
  2 55  1  0  0  0  0
  3  4  1  1  0  0  0
  5  6  1  6  0  0  0
  5 20  1  0  0  0  0
  5  3  1  0  0  0  0
  5  7  1  0  0  0  0
  7 16  1  0  0  0  0
  8  7  2  0  0  0  0
  8 10  1  0  0  0  0
  9  8  1  0  0  0  0
 10 12  2  0  0  0  0
 11 10  1  0  0  0  0
 12 13  1  0  0  0  0
 12 14  1  0  0  0  0
 14 15  1  0  0  0  0
 16 17  1  0  0  0  0
 16 14  2  0  0  0  0
 18 19  1  6  0  0  0
 18 20  1  0  0  0  0
 18  3  1  0  0  0  0
 18  2  1  0  0  0  0
 20 21  1  1  0  0  0
 22 23  1  0  0  0  0
 22 20  1  0  0  0  0
 23 24  1  0  0  0  0
 25 26  1  0  0  0  0
 25 23  2  0  0  0  0
 27 25  1  0  0  0  0
 28 27  1  0  0  0  0
 29 27  2  0  0  0  0
 29 31  1  0  0  0  0
 30 29  1  0  0  0  0
 31 22  2  0  0  0  0
 32 31  1  0  0  0  0
 33  1  1  0  0  0  0
 34 35  1  0  0  0  0
 34 33  2  0  0  0  0
 36 34  1  0  0  0  0
 37 36  1  0  0  0  0
 38 36  2  0  0  0  0
 38 40  1  0  0  0  0
 39 38  1  0  0  0  0
 40 42  2  0  0  0  0
 41 40  1  0  0  0  0
 42 33  1  0  0  0  0
 42 43  1  0  0  0  0
 44 45  1  0  0  0  0
 45 47  2  0  0  0  0
 45 46  1  0  0  0  0
 47 48  1  0  0  0  0
 49 50  1  0  0  0  0
 49 47  1  0  0  0  0
 51 49  2  0  0  0  0
 52 51  1  0  0  0  0
 53 51  1  0  0  0  0
 53 44  2  0  0  0  0
 54 53  1  0  0  0  0
 55 64  2  0  0  0  0
 55 56  1  0  0  0  0
 56 58  2  0  0  0  0
 57 56  1  0  0  0  0
 58 60  1  0  0  0  0
 58 59  1  0  0  0  0
 60 61  1  0  0  0  0
 62 63  1  0  0  0  0
 62 60  2  0  0  0  0
 64 62  1  0  0  0  0
 65 64  1  0  0  0  0
 66 67  1  0  0  0  0
 66  2  1  0  0  0  0
 67 68  1  0  0  0  0
 69 70  1  0  0  0  0
 69 67  2  0  0  0  0
 71 69  1  0  0  0  0
 72 71  1  0  0  0  0
 73 71  2  0  0  0  0
 73 75  1  0  0  0  0
 74 73  1  0  0  0  0
 75 66  2  0  0  0  0
 76 75  1  0  0  0  0
M  END
