3,4
 OpenBabel05122313063D

 64 68  0  0  0  0  0  0  0  0999 V2000
   -6.4613   -0.0009   -0.4085 Br  0  0  0  0  0  0  0  0  0  0  0  0
   -0.4858   -0.0001   -1.8569 N   0  0  0  0  0  0  0  0  0  0  0  0
    1.0499    1.7330   -0.2468 P   0  0  0  0  0  0  0  0  0  0  0  0
    1.0508   -1.7327   -0.2470 P   0  0  0  0  0  0  0  0  0  0  0  0
    0.2916    1.2104   -1.9093 C   0  0  0  0  0  0  0  0  0  0  0  0
   -0.3085    2.0500   -2.3111 H   0  0  0  0  0  0  0  0  0  0  0  0
    1.1484    1.0538   -2.5968 H   0  0  0  0  0  0  0  0  0  0  0  0
    0.2919   -1.2105   -1.9093 C   0  0  0  0  0  0  0  0  0  0  0  0
    1.1484   -1.0538   -2.5971 H   0  0  0  0  0  0  0  0  0  0  0  0
   -0.3082   -2.0503   -2.3109 H   0  0  0  0  0  0  0  0  0  0  0  0
   -1.8468   -0.0003   -1.5134 C   0  0  0  0  0  0  0  0  0  0  0  0
   -2.5656   -1.2120   -1.3484 C   0  0  0  0  0  0  0  0  0  0  0  0
   -2.0651   -2.1841   -1.4308 H   0  0  0  0  0  0  0  0  0  0  0  0
   -3.9283   -1.2129   -1.0322 C   0  0  0  0  0  0  0  0  0  0  0  0
   -4.4505   -2.1700   -0.8945 H   0  0  0  0  0  0  0  0  0  0  0  0
   -3.9288    1.2118   -1.0330 C   0  0  0  0  0  0  0  0  0  0  0  0
   -4.4514    2.1687   -0.8959 H   0  0  0  0  0  0  0  0  0  0  0  0
   -2.5662    1.2112   -1.3491 C   0  0  0  0  0  0  0  0  0  0  0  0
   -2.0660    2.1834   -1.4322 H   0  0  0  0  0  0  0  0  0  0  0  0
   -0.2370    2.8452    0.4443 C   0  0  0  0  0  0  0  0  0  0  0  0
   -0.4584    4.1278   -0.0950 C   0  0  0  0  0  0  0  0  0  0  0  0
    0.2243    4.5383   -0.8544 H   0  0  0  0  0  0  0  0  0  0  0  0
   -1.5461    4.8954    0.3499 C   0  0  0  0  0  0  0  0  0  0  0  0
   -1.7125    5.8991   -0.0700 H   0  0  0  0  0  0  0  0  0  0  0  0
   -2.4115    4.3892    1.3333 C   0  0  0  0  0  0  0  0  0  0  0  0
   -3.2639    4.9930    1.6799 H   0  0  0  0  0  0  0  0  0  0  0  0
   -2.1787    3.1188    1.8844 C   0  0  0  0  0  0  0  0  0  0  0  0
   -2.8462    2.7226    2.6640 H   0  0  0  0  0  0  0  0  0  0  0  0
   -1.0932    2.3491    1.4467 C   0  0  0  0  0  0  0  0  0  0  0  0
   -0.8997    1.3577    1.8816 H   0  0  0  0  0  0  0  0  0  0  0  0
    2.4502    2.7864   -0.8081 C   0  0  0  0  0  0  0  0  0  0  0  0
    3.6168    2.8808   -0.0208 C   0  0  0  0  0  0  0  0  0  0  0  0
    3.6552    2.3498    0.9434 H   0  0  0  0  0  0  0  0  0  0  0  0
    4.6926    3.6696   -0.4533 C   0  0  0  0  0  0  0  0  0  0  0  0
    5.5965    3.7370    0.1707 H   0  0  0  0  0  0  0  0  0  0  0  0
    4.6211    4.3680   -1.6687 C   0  0  0  0  0  0  0  0  0  0  0  0
    5.4689    4.9847   -2.0039 H   0  0  0  0  0  0  0  0  0  0  0  0
    3.4643    4.2770   -2.4577 C   0  0  0  0  0  0  0  0  0  0  0  0
    3.3991    4.8213   -3.4120 H   0  0  0  0  0  0  0  0  0  0  0  0
    2.3834    3.4891   -2.0336 C   0  0  0  0  0  0  0  0  0  0  0  0
    1.4896    3.4343   -2.6721 H   0  0  0  0  0  0  0  0  0  0  0  0
   -0.2353   -2.8457    0.4443 C   0  0  0  0  0  0  0  0  0  0  0  0
   -1.0917   -2.3501    1.4468 C   0  0  0  0  0  0  0  0  0  0  0  0
   -0.8987   -1.3584    1.8816 H   0  0  0  0  0  0  0  0  0  0  0  0
   -2.1766   -3.1204    1.8849 C   0  0  0  0  0  0  0  0  0  0  0  0
   -2.8442   -2.7245    2.6646 H   0  0  0  0  0  0  0  0  0  0  0  0
   -2.4087   -4.3910    1.3340 C   0  0  0  0  0  0  0  0  0  0  0  0
   -3.2606   -4.9953    1.6808 H   0  0  0  0  0  0  0  0  0  0  0  0
   -1.5432   -4.8968    0.3505 C   0  0  0  0  0  0  0  0  0  0  0  0
   -1.7090   -5.9006   -0.0693 H   0  0  0  0  0  0  0  0  0  0  0  0
   -0.4561   -4.1285   -0.0947 C   0  0  0  0  0  0  0  0  0  0  0  0
    0.2268   -4.5387   -0.8542 H   0  0  0  0  0  0  0  0  0  0  0  0
    2.4516   -2.7852   -0.8086 C   0  0  0  0  0  0  0  0  0  0  0  0
    2.3848   -3.4883   -2.0340 C   0  0  0  0  0  0  0  0  0  0  0  0
    1.4906   -3.4343   -2.6720 H   0  0  0  0  0  0  0  0  0  0  0  0
    3.4661   -4.2753   -2.4584 C   0  0  0  0  0  0  0  0  0  0  0  0
    3.4009   -4.8199   -3.4126 H   0  0  0  0  0  0  0  0  0  0  0  0
    4.6234   -4.3652   -1.6700 C   0  0  0  0  0  0  0  0  0  0  0  0
    5.4715   -4.9813   -2.0054 H   0  0  0  0  0  0  0  0  0  0  0  0
    4.6949   -3.6665   -0.4548 C   0  0  0  0  0  0  0  0  0  0  0  0
    5.5991   -3.7331    0.1689 H   0  0  0  0  0  0  0  0  0  0  0  0
    3.6186   -2.8785   -0.0218 C   0  0  0  0  0  0  0  0  0  0  0  0
    3.6571   -2.3473    0.9422 H   0  0  0  0  0  0  0  0  0  0  0  0
   -4.6141   -0.0007   -0.8708 C   0  0  0  0  0  0  0  0  0  0  0  0
  2 11  1  0  0  0  0
  3 20  1  0  0  0  0
  4 42  1  0  0  0  0
  5  2  1  0  0  0  0
  5  3  1  0  0  0  0
  6  5  1  0  0  0  0
  7  5  1  0  0  0  0
  8  2  1  0  0  0  0
  8  4  1  0  0  0  0
  9  8  1  0  0  0  0
 10  8  1  0  0  0  0
 11 18  2  0  0  0  0
 11 12  1  0  0  0  0
 12 14  2  0  0  0  0
 13 12  1  0  0  0  0
 14 15  1  0  0  0  0
 14 64  1  0  0  0  0
 16 17  1  0  0  0  0
 16 64  2  0  0  0  0
 18 16  1  0  0  0  0
 19 18  1  0  0  0  0
 20 29  1  0  0  0  0
 21 23  1  0  0  0  0
 21 20  2  0  0  0  0
 22 21  1  0  0  0  0
 23 25  2  0  0  0  0
 24 23  1  0  0  0  0
 25 26  1  0  0  0  0
 25 27  1  0  0  0  0
 27 28  1  0  0  0  0
 29 30  1  0  0  0  0
 29 27  2  0  0  0  0
 31  3  1  0  0  0  0
 31 32  1  0  0  0  0
 32 33  1  0  0  0  0
 34 32  2  0  0  0  0
 34 35  1  0  0  0  0
 36 34  1  0  0  0  0
 37 36  1  0  0  0  0
 38 40  1  0  0  0  0
 38 36  2  0  0  0  0
 39 38  1  0  0  0  0
 40 31  2  0  0  0  0
 41 40  1  0  0  0  0
 42 43  1  0  0  0  0
 43 44  1  0  0  0  0
 43 45  2  0  0  0  0
 45 46  1  0  0  0  0
 47 48  1  0  0  0  0
 47 45  1  0  0  0  0
 49 47  2  0  0  0  0
 50 49  1  0  0  0  0
 51 49  1  0  0  0  0
 51 42  2  0  0  0  0
 52 51  1  0  0  0  0
 53  4  1  0  0  0  0
 53 62  1  0  0  0  0
 54 53  2  0  0  0  0
 55 54  1  0  0  0  0
 56 54  1  0  0  0  0
 56 58  2  0  0  0  0
 57 56  1  0  0  0  0
 58 60  1  0  0  0  0
 59 58  1  0  0  0  0
 60 62  2  0  0  0  0
 60 61  1  0  0  0  0
 62 63  1  0  0  0  0
 64  1  1  0  0  0  0
M  END
