1,2
 OpenBabel05122313063D

 59 61  0  0  1  0  0  0  0  0999 V2000
   -0.4955    1.4717    0.8443 P   0  0  1  0  0  0  0  0  0  0  0  0
    0.0510   -1.1940   -0.8456 P   0  0  1  0  0  0  0  0  0  0  0  0
    2.8823   -0.2419   -0.7226 C   0  0  0  0  0  0  0  0  0  0  0  0
    1.3878    0.0999   -0.6699 C   0  0  2  0  0  0  0  0  0  0  0  0
    1.2369    0.7923    0.6957 C   0  0  1  0  0  0  0  0  0  0  0  0
    2.4926    1.6676    0.7631 C   0  0  0  0  0  0  0  0  0  0  0  0
    3.4812    0.8376    0.0712 N   0  0  0  0  0  0  0  0  0  0  0  0
    4.8204    0.9642    0.3436 C   0  0  0  0  0  0  0  0  0  0  0  0
    5.2831    1.8167    1.0936 O   0  0  0  0  0  0  0  0  0  0  0  0
    5.5133    0.0101   -0.3370 O   0  0  0  0  0  0  0  0  0  0  0  0
    6.9764   -0.0820   -0.2151 C   0  0  0  0  0  0  0  0  0  0  0  0
    7.6244    1.2084   -0.7285 C   0  0  0  0  0  0  0  0  0  0  0  0
    7.3173   -1.2645   -1.1244 C   0  0  0  0  0  0  0  0  0  0  0  0
    7.3593   -0.3822    1.2383 C   0  0  0  0  0  0  0  0  0  0  0  0
   -0.6361    1.9582    2.6051 C   0  0  0  0  0  0  0  0  0  0  0  0
    0.1246   -1.6803   -2.6109 C   0  0  0  0  0  0  0  0  0  0  0  0
    0.1448    4.1919    0.3124 C   0  0  0  0  0  0  0  0  0  0  0  0
    0.1604    5.3376   -0.4966 C   0  0  0  0  0  0  0  0  0  0  0  0
   -0.4602    5.3196   -1.7564 C   0  0  0  0  0  0  0  0  0  0  0  0
   -1.1052    4.1565   -2.2048 C   0  0  0  0  0  0  0  0  0  0  0  0
   -1.1284    3.0097   -1.3976 C   0  0  0  0  0  0  0  0  0  0  0  0
   -0.4951    3.0175   -0.1378 C   0  0  0  0  0  0  0  0  0  0  0  0
    0.0736   -2.8567    1.3958 C   0  0  0  0  0  0  0  0  0  0  0  0
    0.5403   -3.9071    2.1995 C   0  0  0  0  0  0  0  0  0  0  0  0
    1.5707   -4.7415    1.7388 C   0  0  0  0  0  0  0  0  0  0  0  0
    2.1335   -4.5274    0.4701 C   0  0  0  0  0  0  0  0  0  0  0  0
    1.6747   -3.4743   -0.3351 C   0  0  0  0  0  0  0  0  0  0  0  0
    0.6448   -2.6276    0.1272 C   0  0  0  0  0  0  0  0  0  0  0  0
    3.2858   -0.2574   -1.7554 H   0  0  0  0  0  0  0  0  0  0  0  0
    3.0970   -1.2320   -0.2637 H   0  0  0  0  0  0  0  0  0  0  0  0
    1.1504    0.8441   -1.4652 H   0  0  0  0  0  0  0  0  0  0  0  0
    1.2928    0.0133    1.4914 H   0  0  0  0  0  0  0  0  0  0  0  0
    2.3391    2.6359    0.2355 H   0  0  0  0  0  0  0  0  0  0  0  0
    2.8362    1.8934    1.7915 H   0  0  0  0  0  0  0  0  0  0  0  0
    7.3514    2.0652   -0.0863 H   0  0  0  0  0  0  0  0  0  0  0  0
    7.2962    1.4172   -1.7664 H   0  0  0  0  0  0  0  0  0  0  0  0
    8.7271    1.0984   -0.7316 H   0  0  0  0  0  0  0  0  0  0  0  0
    8.4097   -1.4464   -1.1219 H   0  0  0  0  0  0  0  0  0  0  0  0
    6.9973   -1.0608   -2.1654 H   0  0  0  0  0  0  0  0  0  0  0  0
    6.8070   -2.1839   -0.7753 H   0  0  0  0  0  0  0  0  0  0  0  0
    8.4518   -0.5536    1.3104 H   0  0  0  0  0  0  0  0  0  0  0  0
    6.8430   -1.2976    1.5907 H   0  0  0  0  0  0  0  0  0  0  0  0
    7.0847    0.4613    1.8972 H   0  0  0  0  0  0  0  0  0  0  0  0
   -0.5697    1.0407    3.2209 H   0  0  0  0  0  0  0  0  0  0  0  0
   -1.6344    2.4116    2.7548 H   0  0  0  0  0  0  0  0  0  0  0  0
    0.1671    2.6620    2.8993 H   0  0  0  0  0  0  0  0  0  0  0  0
   -0.1650   -0.8027   -3.2203 H   0  0  0  0  0  0  0  0  0  0  0  0
   -0.6196   -2.4830   -2.7739 H   0  0  0  0  0  0  0  0  0  0  0  0
    1.1393   -2.0159   -2.9019 H   0  0  0  0  0  0  0  0  0  0  0  0
    0.6286    4.2236    1.3004 H   0  0  0  0  0  0  0  0  0  0  0  0
    0.6580    6.2513   -0.1383 H   0  0  0  0  0  0  0  0  0  0  0  0
   -0.4488    6.2216   -2.3868 H   0  0  0  0  0  0  0  0  0  0  0  0
   -1.6085    4.1443   -3.1832 H   0  0  0  0  0  0  0  0  0  0  0  0
   -1.6642    2.1022   -1.7212 H   0  0  0  0  0  0  0  0  0  0  0  0
   -0.7612   -2.2188    1.7296 H   0  0  0  0  0  0  0  0  0  0  0  0
    0.0839   -4.0832    3.1851 H   0  0  0  0  0  0  0  0  0  0  0  0
    1.9308   -5.5706    2.3665 H   0  0  0  0  0  0  0  0  0  0  0  0
    2.9332   -5.1874    0.1015 H   0  0  0  0  0  0  0  0  0  0  0  0
    2.1191   -3.3243   -1.3306 H   0  0  0  0  0  0  0  0  0  0  0  0
  1 15  1  1  0  0  0
  2 16  1  6  0  0  0
  2  4  1  0  0  0  0
  2 28  1  0  0  0  0
  3  4  1  0  0  0  0
  3 30  1  0  0  0  0
  3  7  1  0  0  0  0
  4 31  1  6  0  0  0
  4  5  1  0  0  0  0
  5  6  1  0  0  0  0
  5  1  1  0  0  0  0
  5 32  1  1  0  0  0
  6 34  1  0  0  0  0
  7  8  1  0  0  0  0
  7  6  1  0  0  0  0
  8  9  2  0  0  0  0
 10 11  1  0  0  0  0
 10  8  1  0  0  0  0
 11 14  1  0  0  0  0
 12 11  1  0  0  0  0
 12 35  1  0  0  0  0
 13 38  1  0  0  0  0
 13 40  1  0  0  0  0
 13 11  1  0  0  0  0
 14 41  1  0  0  0  0
 14 42  1  0  0  0  0
 14 43  1  0  0  0  0
 15 45  1  0  0  0  0
 15 46  1  0  0  0  0
 15 44  1  0  0  0  0
 17 50  1  0  0  0  0
 18 51  1  0  0  0  0
 18 17  2  0  0  0  0
 19 18  1  0  0  0  0
 20 19  2  0  0  0  0
 20 21  1  0  0  0  0
 21 22  2  0  0  0  0
 22 17  1  0  0  0  0
 22  1  1  0  0  0  0
 23 55  1  0  0  0  0
 23 24  1  0  0  0  0
 24 56  1  0  0  0  0
 25 24  2  0  0  0  0
 25 57  1  0  0  0  0
 26 25  1  0  0  0  0
 27 28  1  0  0  0  0
 27 26  2  0  0  0  0
 28 23  2  0  0  0  0
 29  3  1  0  0  0  0
 33  6  1  0  0  0  0
 36 12  1  0  0  0  0
 37 12  1  0  0  0  0
 39 13  1  0  0  0  0
 47 16  1  0  0  0  0
 48 16  1  0  0  0  0
 49 16  1  0  0  0  0
 52 19  1  0  0  0  0
 53 20  1  0  0  0  0
 54 21  1  0  0  0  0
 58 26  1  0  0  0  0
 59 27  1  0  0  0  0
M  END
