4,18
 OpenBabel05122313063D

 50 54  0  0  1  0  0  0  0  0999 V2000
    2.4828   -2.2726   -0.9686 N   0  0  0  0  0  0  0  0  0  0  0  0
    2.4879   -3.2851   -1.1021 H   0  0  0  0  0  0  0  0  0  0  0  0
    1.3305   -1.5212   -1.0873 C   0  0  1  0  0  3  0  0  0  0  0  0
    1.6275    0.1541   -0.7187 P   0  0  0  0  0  2  0  0  0  0  0  0
    3.3287   -0.1931   -0.3287 C   0  0  0  0  0  0  0  0  0  0  0  0
    4.3646    0.6588    0.1167 C   0  0  0  0  0  0  0  0  0  0  0  0
    4.1547    1.7281    0.2767 H   0  0  0  0  0  0  0  0  0  0  0  0
    5.6449    0.1493    0.3584 C   0  0  0  0  0  0  0  0  0  0  0  0
    5.8826   -1.2396    0.1423 C   0  0  0  0  0  0  0  0  0  0  0  0
    6.8908   -1.6406    0.3313 H   0  0  0  0  0  0  0  0  0  0  0  0
    4.8844   -2.1058   -0.2995 C   0  0  0  0  0  0  0  0  0  0  0  0
    5.0944   -3.1745   -0.4595 H   0  0  0  0  0  0  0  0  0  0  0  0
    3.5973   -1.5810   -0.5380 C   0  0  0  0  0  0  0  0  0  0  0  0
    6.7647    1.0362    0.8416 C   0  0  0  0  0  0  0  0  0  0  0  0
    6.4321    2.0855    0.9563 H   0  0  0  0  0  0  0  0  0  0  0  0
    7.6212    1.0265    0.1351 H   0  0  0  0  0  0  0  0  0  0  0  0
    7.1552    0.6949    1.8234 H   0  0  0  0  0  0  0  0  0  0  0  0
   -1.3750   -0.2923    0.1312 P   0  0  0  0  0  0  0  0  0  0  0  0
    0.0838   -2.0988   -1.5874 C   0  0  0  0  0  0  0  0  0  0  0  0
   -1.2003   -1.6251   -1.1659 C   0  0  0  0  0  0  0  0  0  0  0  0
   -2.3539   -2.2121   -1.7181 C   0  0  0  0  0  0  0  0  0  0  0  0
   -3.3433   -1.8562   -1.3992 H   0  0  0  0  0  0  0  0  0  0  0  0
   -2.2737   -3.2547   -2.6545 C   0  0  0  0  0  0  0  0  0  0  0  0
   -3.1963   -3.6896   -3.0667 H   0  0  0  0  0  0  0  0  0  0  0  0
   -1.0194   -3.7364   -3.0523 C   0  0  0  0  0  0  0  0  0  0  0  0
   -0.9409   -4.5506   -3.7884 H   0  0  0  0  0  0  0  0  0  0  0  0
    0.1409   -3.1598   -2.5249 C   0  0  0  0  0  0  0  0  0  0  0  0
    1.1238   -3.5062   -2.8805 H   0  0  0  0  0  0  0  0  0  0  0  0
   -0.9181   -1.1841    1.6848 C   0  0  0  0  0  0  0  0  0  0  0  0
   -1.0035   -0.4572    2.8907 C   0  0  0  0  0  0  0  0  0  0  0  0
   -1.3415    0.5900    2.8731 H   0  0  0  0  0  0  0  0  0  0  0  0
   -0.6652   -1.0622    4.1080 C   0  0  0  0  0  0  0  0  0  0  0  0
   -0.7359   -0.4836    5.0413 H   0  0  0  0  0  0  0  0  0  0  0  0
   -0.2264   -2.3967    4.1337 C   0  0  0  0  0  0  0  0  0  0  0  0
    0.0505   -2.8684    5.0887 H   0  0  0  0  0  0  0  0  0  0  0  0
   -0.1435   -3.1252    2.9381 C   0  0  0  0  0  0  0  0  0  0  0  0
    0.1939   -4.1730    2.9523 H   0  0  0  0  0  0  0  0  0  0  0  0
   -0.4939   -2.5257    1.7171 C   0  0  0  0  0  0  0  0  0  0  0  0
   -0.4421   -3.1087    0.7864 H   0  0  0  0  0  0  0  0  0  0  0  0
   -3.2115   -0.1488    0.2877 C   0  0  0  0  0  0  0  0  0  0  0  0
   -3.8887    0.7666   -0.5436 C   0  0  0  0  0  0  0  0  0  0  0  0
   -3.3171    1.3881   -1.2485 H   0  0  0  0  0  0  0  0  0  0  0  0
   -5.2836    0.8885   -0.4725 C   0  0  0  0  0  0  0  0  0  0  0  0
   -5.8006    1.6080   -1.1251 H   0  0  0  0  0  0  0  0  0  0  0  0
   -6.0138    0.1070    0.4373 C   0  0  0  0  0  0  0  0  0  0  0  0
   -7.1076    0.2118    0.5009 H   0  0  0  0  0  0  0  0  0  0  0  0
   -5.3444   -0.8037    1.2699 C   0  0  0  0  0  0  0  0  0  0  0  0
   -5.9116   -1.4173    1.9865 H   0  0  0  0  0  0  0  0  0  0  0  0
   -3.9495   -0.9369    1.1945 C   0  0  0  0  0  0  0  0  0  0  0  0
   -3.4306   -1.6560    1.8452 H   0  0  0  0  0  0  0  0  0  0  0  0
  1 13  1  0  0  0  0
  2  1  1  0  0  0  0
  3 19  1  6  0  0  0
  3  1  1  0  0  0  0
  3  4  1  0  0  0  0
  4  5  1  0  0  0  0
  5  6  1  0  0  0  0
  6  7  1  0  0  0  0
  6  8  2  0  0  0  0
  8 14  1  0  0  0  0
  9 10  1  0  0  0  0
  9  8  1  0  0  0  0
 11  9  2  0  0  0  0
 12 11  1  0  0  0  0
 13  5  2  0  0  0  0
 13 11  1  0  0  0  0
 14 15  1  0  0  0  0
 14 17  1  0  0  0  0
 16 14  1  0  0  0  0
 18 40  1  0  0  0  0
 18 29  1  0  0  0  0
 19 20  1  0  0  0  0
 20 18  1  0  0  0  0
 21 22  1  0  0  0  0
 21 20  2  0  0  0  0
 23 21  1  0  0  0  0
 24 23  1  0  0  0  0
 25 23  2  0  0  0  0
 25 27  1  0  0  0  0
 26 25  1  0  0  0  0
 27 19  2  0  0  0  0
 28 27  1  0  0  0  0
 29 38  2  0  0  0  0
 29 30  1  0  0  0  0
 30 32  2  0  0  0  0
 31 30  1  0  0  0  0
 32 34  1  0  0  0  0
 32 33  1  0  0  0  0
 34 35  1  0  0  0  0
 36 37  1  0  0  0  0
 36 34  2  0  0  0  0
 38 36  1  0  0  0  0
 39 38  1  0  0  0  0
 40 49  1  0  0  0  0
 41 43  1  0  0  0  0
 41 40  2  0  0  0  0
 42 41  1  0  0  0  0
 43 45  2  0  0  0  0
 44 43  1  0  0  0  0
 45 46  1  0  0  0  0
 45 47  1  0  0  0  0
 47 48  1  0  0  0  0
 49 47  2  0  0  0  0
 49 50  1  0  0  0  0
M  END
