1,2
 OpenBabel05122313063D

 56 61  0  0  0  0  0  0  0  0999 V2000
    1.2242    0.3574   -0.4688 P   0  0  1  0  0  0  0  0  0  0  0  0
   -1.4010    0.0722   -0.0593 P   0  0  0  0  0  0  0  0  0  0  0  0
    0.1227   -0.1549    0.7826 N   0  0  0  0  0  0  0  0  0  0  0  0
    2.3083    1.5729    0.3802 C   0  0  0  0  0  0  0  0  0  0  0  0
    3.6910    1.6221    0.1189 C   0  0  0  0  0  0  0  0  0  0  0  0
    4.1515    0.8803   -0.5518 H   0  0  0  0  0  0  0  0  0  0  0  0
    4.4830    2.6099    0.7236 C   0  0  0  0  0  0  0  0  0  0  0  0
    5.5635    2.6453    0.5174 H   0  0  0  0  0  0  0  0  0  0  0  0
    3.9009    3.5442    1.5948 C   0  0  0  0  0  0  0  0  0  0  0  0
    4.5245    4.3156    2.0714 H   0  0  0  0  0  0  0  0  0  0  0  0
    2.5223    3.4926    1.8599 C   0  0  0  0  0  0  0  0  0  0  0  0
    2.0640    4.2210    2.5460 H   0  0  0  0  0  0  0  0  0  0  0  0
    1.7246    2.5148    1.2508 C   0  0  0  0  0  0  0  0  0  0  0  0
    0.6445    2.4716    1.4593 H   0  0  0  0  0  0  0  0  0  0  0  0
    2.2631   -1.1375   -0.5547 C   0  0  0  0  0  0  0  0  0  0  0  0
    2.3972   -1.9440    0.6135 C   0  0  0  0  0  0  0  0  0  0  0  0
    3.1582   -3.1318    0.4860 C   0  0  0  0  0  0  0  0  0  0  0  0
    3.2414   -3.8136    1.3444 H   0  0  0  0  0  0  0  0  0  0  0  0
    3.7810   -3.4806   -0.7183 C   0  0  0  0  0  0  0  0  0  0  0  0
    4.3644   -4.4121   -0.7750 H   0  0  0  0  0  0  0  0  0  0  0  0
    3.6441   -2.6664   -1.8539 C   0  0  0  0  0  0  0  0  0  0  0  0
    4.1220   -2.9463   -2.8043 H   0  0  0  0  0  0  0  0  0  0  0  0
    2.8677   -1.5034   -1.7702 C   0  0  0  0  0  0  0  0  0  0  0  0
    2.7174   -0.8685   -2.6574 H   0  0  0  0  0  0  0  0  0  0  0  0
    0.5556   -0.7998    1.9574 C   0  0  0  0  0  0  0  0  0  0  0  0
    1.7324   -1.6125    1.9008 C   0  0  0  0  0  0  0  0  0  0  0  0
    2.2052   -2.1551    3.1187 C   0  0  0  0  0  0  0  0  0  0  0  0
    3.1410   -2.7323    3.1159 H   0  0  0  0  0  0  0  0  0  0  0  0
    1.5262   -1.9693    4.3268 C   0  0  0  0  0  0  0  0  0  0  0  0
    1.9270   -2.4059    5.2533 H   0  0  0  0  0  0  0  0  0  0  0  0
    0.3411   -1.2152    4.3501 C   0  0  0  0  0  0  0  0  0  0  0  0
   -0.2021   -1.0599    5.2944 H   0  0  0  0  0  0  0  0  0  0  0  0
   -0.1311   -0.6221    3.1749 C   0  0  0  0  0  0  0  0  0  0  0  0
   -1.0287    0.0100    3.1884 H   0  0  0  0  0  0  0  0  0  0  0  0
   -2.1617   -1.5920   -0.1700 C   0  0  0  0  0  0  0  0  0  0  0  0
   -1.3940   -2.7583    0.0107 C   0  0  0  0  0  0  0  0  0  0  0  0
   -0.3413   -2.6857    0.3178 H   0  0  0  0  0  0  0  0  0  0  0  0
   -1.9692   -4.0178   -0.2166 C   0  0  0  0  0  0  0  0  0  0  0  0
   -1.3631   -4.9244   -0.0695 H   0  0  0  0  0  0  0  0  0  0  0  0
   -3.3037   -4.1212   -0.6367 C   0  0  0  0  0  0  0  0  0  0  0  0
   -3.7501   -5.1106   -0.8182 H   0  0  0  0  0  0  0  0  0  0  0  0
   -4.0663   -2.9583   -0.8369 C   0  0  0  0  0  0  0  0  0  0  0  0
   -5.1094   -3.0328   -1.1797 H   0  0  0  0  0  0  0  0  0  0  0  0
   -3.4994   -1.6973   -0.6082 C   0  0  0  0  0  0  0  0  0  0  0  0
   -4.0978   -0.7883   -0.7785 H   0  0  0  0  0  0  0  0  0  0  0  0
   -2.5301    0.9662    1.0915 C   0  0  0  0  0  0  0  0  0  0  0  0
   -3.3446    0.2821    2.0204 C   0  0  0  0  0  0  0  0  0  0  0  0
   -3.3449   -0.8178    2.0441 H   0  0  0  0  0  0  0  0  0  0  0  0
   -4.1496    1.0011    2.9154 C   0  0  0  0  0  0  0  0  0  0  0  0
   -4.7809    0.4598    3.6364 H   0  0  0  0  0  0  0  0  0  0  0  0
   -4.1522    2.4057    2.8910 C   0  0  0  0  0  0  0  0  0  0  0  0
   -4.7871    2.9676    3.5928 H   0  0  0  0  0  0  0  0  0  0  0  0
   -3.3507    3.0905    1.9644 C   0  0  0  0  0  0  0  0  0  0  0  0
   -3.3559    4.1904    1.9334 H   0  0  0  0  0  0  0  0  0  0  0  0
   -2.5469    2.3753    1.0637 C   0  0  0  0  0  0  0  0  0  0  0  0
   -1.9313    2.9170    0.3330 H   0  0  0  0  0  0  0  0  0  0  0  0
  1  4  1  1  0  0  0
  1  3  1  0  0  0  0
  2  3  1  0  0  0  0
  2 46  1  0  0  0  0
  3 25  1  0  0  0  0
  4 13  1  0  0  0  0
  5  4  2  0  0  0  0
  5  7  1  0  0  0  0
  6  5  1  0  0  0  0
  7  9  2  0  0  0  0
  8  7  1  0  0  0  0
  9 11  1  0  0  0  0
  9 10  1  0  0  0  0
 11 12  1  0  0  0  0
 13 14  1  0  0  0  0
 13 11  2  0  0  0  0
 15  1  1  0  0  0  0
 15 16  1  0  0  0  0
 16 26  1  0  0  0  0
 17 16  2  0  0  0  0
 17 18  1  0  0  0  0
 19 17  1  0  0  0  0
 20 19  1  0  0  0  0
 21 23  1  0  0  0  0
 21 19  2  0  0  0  0
 22 21  1  0  0  0  0
 23 15  2  0  0  0  0
 24 23  1  0  0  0  0
 25 33  1  0  0  0  0
 26 25  2  0  0  0  0
 26 27  1  0  0  0  0
 27 29  2  0  0  0  0
 28 27  1  0  0  0  0
 29 31  1  0  0  0  0
 29 30  1  0  0  0  0
 31 32  1  0  0  0  0
 33 34  1  0  0  0  0
 33 31  2  0  0  0  0
 35  2  1  0  0  0  0
 35 36  1  0  0  0  0
 36 37  1  0  0  0  0
 38 39  1  0  0  0  0
 38 36  2  0  0  0  0
 40 38  1  0  0  0  0
 41 40  1  0  0  0  0
 42 40  2  0  0  0  0
 42 44  1  0  0  0  0
 43 42  1  0  0  0  0
 44 35  2  0  0  0  0
 45 44  1  0  0  0  0
 46 47  1  0  0  0  0
 47 48  1  0  0  0  0
 47 49  2  0  0  0  0
 49 50  1  0  0  0  0
 51 49  1  0  0  0  0
 51 52  1  0  0  0  0
 53 51  2  0  0  0  0
 54 53  1  0  0  0  0
 55 46  2  0  0  0  0
 55 53  1  0  0  0  0
 56 55  1  0  0  0  0
M  END
