1,2
 OpenBabel05122313063D

 75 77  0  0  0  0  0  0  0  0999 V2000
   -2.2239   -0.0956   -0.6539 P   0  0  0  0  0  0  0  0  0  0  0  0
    2.1639   -0.7645   -0.5916 P   0  0  0  0  0  0  0  0  0  0  0  0
    0.2529    1.8853    0.8416 Si  0  0  0  0  0  0  0  0  0  0  0  0
    5.0177    1.8662    0.7975 C   0  0  0  0  0  0  0  0  0  0  0  0
    6.1164    1.8864    0.8604 H   0  0  0  0  0  0  0  0  0  0  0  0
    0.1813    3.4320    1.5267 F   0  0  0  0  0  0  0  0  0  0  0  0
   -2.0590    0.8096    4.1428 C   0  0  0  0  0  0  0  0  0  0  0  0
   -2.9353    1.2331    4.6577 H   0  0  0  0  0  0  0  0  0  0  0  0
   -1.4674   -0.3732    4.6167 C   0  0  0  0  0  0  0  0  0  0  0  0
   -1.8874   -0.8875    5.4947 H   0  0  0  0  0  0  0  0  0  0  0  0
    2.9566    0.6854    0.2034 C   0  0  0  0  0  0  0  0  0  0  0  0
   -1.5308    1.4569    3.0157 C   0  0  0  0  0  0  0  0  0  0  0  0
   -1.9842    2.3994    2.6697 H   0  0  0  0  0  0  0  0  0  0  0  0
   -0.8599    2.3685   -0.6553 C   0  0  0  0  0  0  0  0  0  0  0  0
    2.1672    1.7774    0.6582 C   0  0  0  0  0  0  0  0  0  0  0  0
   -2.4081    3.4669   -2.7749 C   0  0  0  0  0  0  0  0  0  0  0  0
   -3.0073    3.8818   -3.5996 H   0  0  0  0  0  0  0  0  0  0  0  0
   -1.9302    1.6307   -1.2297 C   0  0  0  0  0  0  0  0  0  0  0  0
    4.3653    0.7353    0.2904 C   0  0  0  0  0  0  0  0  0  0  0  0
    4.9661   -0.1241   -0.0415 H   0  0  0  0  0  0  0  0  0  0  0  0
    0.1959   -0.2388    2.8495 C   0  0  0  0  0  0  0  0  0  0  0  0
    1.0981   -0.6499    2.3730 H   0  0  0  0  0  0  0  0  0  0  0  0
   -0.4106    0.9281    2.3318 C   0  0  0  0  0  0  0  0  0  0  0  0
   -3.5516    0.0434    0.6560 C   0  0  0  0  0  0  0  0  0  0  0  0
   -3.1539    0.8901    1.2545 H   0  0  0  0  0  0  0  0  0  0  0  0
    2.8571    2.9125    1.1539 C   0  0  0  0  0  0  0  0  0  0  0  0
    2.2698    3.7659    1.5196 H   0  0  0  0  0  0  0  0  0  0  0  0
    3.1940   -2.2625   -0.1640 C   0  0  0  0  0  0  0  0  0  0  0  0
    4.2533   -2.0146   -0.3964 H   0  0  0  0  0  0  0  0  0  0  0  0
    1.6709    0.8226   -2.8456 C   0  0  0  0  0  0  0  0  0  0  0  0
    2.1465    1.7144   -2.3884 H   0  0  0  0  0  0  0  0  0  0  0  0
    0.6092    0.8141   -2.5327 H   0  0  0  0  0  0  0  0  0  0  0  0
    1.7107    0.9454   -3.9475 H   0  0  0  0  0  0  0  0  0  0  0  0
   -0.6010    3.6610   -1.1678 C   0  0  0  0  0  0  0  0  0  0  0  0
    0.2008    4.2651   -0.7182 H   0  0  0  0  0  0  0  0  0  0  0  0
    4.2567    2.9643    1.2183 C   0  0  0  0  0  0  0  0  0  0  0  0
    4.7514    3.8638    1.6158 H   0  0  0  0  0  0  0  0  0  0  0  0
    2.3930   -0.4646   -2.4343 C   0  0  0  0  0  0  0  0  0  0  0  0
    1.8596   -1.3308   -2.8849 H   0  0  0  0  0  0  0  0  0  0  0  0
   -1.8766   -1.0579   -3.2425 C   0  0  0  0  0  0  0  0  0  0  0  0
   -0.9877   -1.6339   -2.9112 H   0  0  0  0  0  0  0  0  0  0  0  0
   -1.5392   -0.0474   -3.5471 H   0  0  0  0  0  0  0  0  0  0  0  0
   -2.2977   -1.5636   -4.1359 H   0  0  0  0  0  0  0  0  0  0  0  0
   -2.7067    2.1956   -2.2628 C   0  0  0  0  0  0  0  0  0  0  0  0
   -3.5439    1.6278   -2.6959 H   0  0  0  0  0  0  0  0  0  0  0  0
    3.0462   -2.5519    1.3358 C   0  0  0  0  0  0  0  0  0  0  0  0
    1.9969   -2.8371    1.5620 H   0  0  0  0  0  0  0  0  0  0  0  0
    3.3334   -1.6819    1.9608 H   0  0  0  0  0  0  0  0  0  0  0  0
    3.6993   -3.4026    1.6204 H   0  0  0  0  0  0  0  0  0  0  0  0
    2.7500   -3.4621   -1.0135 C   0  0  0  0  0  0  0  0  0  0  0  0
    3.3580   -4.3490   -0.7390 H   0  0  0  0  0  0  0  0  0  0  0  0
    2.8876   -3.2906   -2.0999 H   0  0  0  0  0  0  0  0  0  0  0  0
    1.6840   -3.7048   -0.8124 H   0  0  0  0  0  0  0  0  0  0  0  0
   -1.3434    4.1972   -2.2306 C   0  0  0  0  0  0  0  0  0  0  0  0
   -1.0940    5.1938   -2.6262 H   0  0  0  0  0  0  0  0  0  0  0  0
    3.8544   -0.4742   -2.8899 C   0  0  0  0  0  0  0  0  0  0  0  0
    3.9032   -0.3588   -3.9927 H   0  0  0  0  0  0  0  0  0  0  0  0
    4.3783   -1.4157   -2.6322 H   0  0  0  0  0  0  0  0  0  0  0  0
    4.4178    0.3713   -2.4455 H   0  0  0  0  0  0  0  0  0  0  0  0
   -0.3319   -0.8898    3.9747 C   0  0  0  0  0  0  0  0  0  0  0  0
    0.1446   -1.8107    4.3424 H   0  0  0  0  0  0  0  0  0  0  0  0
   -2.9268   -1.0138   -2.1243 C   0  0  0  0  0  0  0  0  0  0  0  0
   -3.8111   -0.4366   -2.4742 H   0  0  0  0  0  0  0  0  0  0  0  0
   -3.3734   -2.4256   -1.7173 C   0  0  0  0  0  0  0  0  0  0  0  0
   -3.6630   -2.9940   -2.6254 H   0  0  0  0  0  0  0  0  0  0  0  0
   -4.2525   -2.4059   -1.0448 H   0  0  0  0  0  0  0  0  0  0  0  0
   -2.5580   -2.9779   -1.2006 H   0  0  0  0  0  0  0  0  0  0  0  0
   -3.5806   -1.1896    1.5668 C   0  0  0  0  0  0  0  0  0  0  0  0
   -4.1787   -0.9645    2.4737 H   0  0  0  0  0  0  0  0  0  0  0  0
   -2.5636   -1.4901    1.8857 H   0  0  0  0  0  0  0  0  0  0  0  0
   -4.0349   -2.0660    1.0658 H   0  0  0  0  0  0  0  0  0  0  0  0
   -4.9216    0.4374    0.0989 C   0  0  0  0  0  0  0  0  0  0  0  0
   -5.3640   -0.3721   -0.5169 H   0  0  0  0  0  0  0  0  0  0  0  0
   -4.8733    1.3576   -0.5177 H   0  0  0  0  0  0  0  0  0  0  0  0
   -5.6252    0.6336    0.9348 H   0  0  0  0  0  0  0  0  0  0  0  0
  1 24  1  0  0  0  0
  2 28  1  0  0  0  0
  2 11  1  0  0  0  0
  3  6  1  0  0  0  0
  3 23  1  0  0  0  0
  4  5  1  0  0  0  0
  4 36  1  0  0  0  0
  7  9  1  0  0  0  0
  7  8  1  0  0  0  0
  9 10  1  0  0  0  0
 11 19  1  0  0  0  0
 11 15  2  0  0  0  0
 12  7  2  0  0  0  0
 13 12  1  0  0  0  0
 14  3  1  0  0  0  0
 15  3  1  0  0  0  0
 15 26  1  0  0  0  0
 16 44  2  0  0  0  0
 16 54  1  0  0  0  0
 17 16  1  0  0  0  0
 18 14  2  0  0  0  0
 18  1  1  0  0  0  0
 19  4  2  0  0  0  0
 20 19  1  0  0  0  0
 21 60  1  0  0  0  0
 22 21  1  0  0  0  0
 23 21  2  0  0  0  0
 23 12  1  0  0  0  0
 24 25  1  0  0  0  0
 24 68  1  0  0  0  0
 26 36  2  0  0  0  0
 26 27  1  0  0  0  0
 28 46  1  0  0  0  0
 29 28  1  0  0  0  0
 30 32  1  0  0  0  0
 30 38  1  0  0  0  0
 30 31  1  0  0  0  0
 33 30  1  0  0  0  0
 34 35  1  0  0  0  0
 34 14  1  0  0  0  0
 36 37  1  0  0  0  0
 38  2  1  0  0  0  0
 39 38  1  0  0  0  0
 40 41  1  0  0  0  0
 40 62  1  0  0  0  0
 42 40  1  0  0  0  0
 43 40  1  0  0  0  0
 44 18  1  0  0  0  0
 45 44  1  0  0  0  0
 46 47  1  0  0  0  0
 46 49  1  0  0  0  0
 46 48  1  0  0  0  0
 50 53  1  0  0  0  0
 50 51  1  0  0  0  0
 50 28  1  0  0  0  0
 52 50  1  0  0  0  0
 54 34  2  0  0  0  0
 55 54  1  0  0  0  0
 56 58  1  0  0  0  0
 56 59  1  0  0  0  0
 56 38  1  0  0  0  0
 57 56  1  0  0  0  0
 60 61  1  0  0  0  0
 60  9  2  0  0  0  0
 62 64  1  0  0  0  0
 62  1  1  0  0  0  0
 63 62  1  0  0  0  0
 64 67  1  0  0  0  0
 64 66  1  0  0  0  0
 65 64  1  0  0  0  0
 68 70  1  0  0  0  0
 68 69  1  0  0  0  0
 71 68  1  0  0  0  0
 72 24  1  0  0  0  0
 72 75  1  0  0  0  0
 73 72  1  0  0  0  0
 74 72  1  0  0  0  0
M  END
