1,2
 OpenBabel05122313063D

 50 52  0  0  0  0  0  0  0  0999 V2000
   -1.2298    0.6212   -0.1526 P   0  0  0  0  0  0  0  0  0  0  0  0
    1.2890    0.8263   -1.0482 P   0  0  1  0  0  0  0  0  0  0  0  0
   -0.1617    1.7886   -0.8834 N   0  0  0  0  0  0  0  0  0  0  0  0
    1.7750    0.7666   -2.8085 C   0  0  0  0  0  0  0  0  0  0  0  0
    2.6295    1.6736   -0.1449 C   0  0  0  0  0  0  0  0  0  0  0  0
    2.6440    1.5411    1.2594 C   0  0  0  0  0  0  0  0  0  0  0  0
    3.6066    2.2173    2.0182 C   0  0  0  0  0  0  0  0  0  0  0  0
    4.5707    3.0171    1.3811 C   0  0  0  0  0  0  0  0  0  0  0  0
    4.5745    3.1330   -0.0176 C   0  0  0  0  0  0  0  0  0  0  0  0
    3.6074    2.4623   -0.7823 C   0  0  0  0  0  0  0  0  0  0  0  0
   -2.7107    0.5494   -1.2082 C   0  0  0  0  0  0  0  0  0  0  0  0
   -2.6741    1.0147   -2.5375 C   0  0  0  0  0  0  0  0  0  0  0  0
   -3.8006    0.8705   -3.3603 C   0  0  0  0  0  0  0  0  0  0  0  0
   -4.9575    0.2469   -2.8658 C   0  0  0  0  0  0  0  0  0  0  0  0
   -4.9869   -0.2368   -1.5471 C   0  0  0  0  0  0  0  0  0  0  0  0
   -3.8686   -0.0902   -0.7151 C   0  0  0  0  0  0  0  0  0  0  0  0
   -1.8094    1.2834    1.4483 C   0  0  0  0  0  0  0  0  0  0  0  0
   -2.8172    2.2686    1.5163 C   0  0  0  0  0  0  0  0  0  0  0  0
   -3.1639    2.8267    2.7550 C   0  0  0  0  0  0  0  0  0  0  0  0
   -2.5164    2.3980    3.9261 C   0  0  0  0  0  0  0  0  0  0  0  0
   -1.5289    1.4014    3.8622 C   0  0  0  0  0  0  0  0  0  0  0  0
   -1.1759    0.8397    2.6268 C   0  0  0  0  0  0  0  0  0  0  0  0
   -0.3889    3.2443   -0.9872 C   0  0  0  0  0  0  0  0  0  0  0  0
    0.1166    4.0134    0.2414 C   0  0  0  0  0  0  0  0  0  0  0  0
    0.1920    3.8102   -2.2859 C   0  0  0  0  0  0  0  0  0  0  0  0
    2.6175    0.0490   -2.8754 H   0  0  0  0  0  0  0  0  0  0  0  0
    2.0621    1.7482   -3.2289 H   0  0  0  0  0  0  0  0  0  0  0  0
    0.9169    0.3520   -3.3704 H   0  0  0  0  0  0  0  0  0  0  0  0
    1.8988    0.8937    1.7475 H   0  0  0  0  0  0  0  0  0  0  0  0
    3.6136    2.1091    3.1131 H   0  0  0  0  0  0  0  0  0  0  0  0
    5.3314    3.5427    1.9779 H   0  0  0  0  0  0  0  0  0  0  0  0
    5.3377    3.7466   -0.5195 H   0  0  0  0  0  0  0  0  0  0  0  0
    3.6247    2.5575   -1.8780 H   0  0  0  0  0  0  0  0  0  0  0  0
   -1.7567    1.4845   -2.9226 H   0  0  0  0  0  0  0  0  0  0  0  0
   -3.7723    1.2422   -4.3957 H   0  0  0  0  0  0  0  0  0  0  0  0
   -5.8387    0.1294   -3.5144 H   0  0  0  0  0  0  0  0  0  0  0  0
   -5.8868   -0.7405   -1.1636 H   0  0  0  0  0  0  0  0  0  0  0  0
   -3.8822   -0.4884    0.3110 H   0  0  0  0  0  0  0  0  0  0  0  0
   -3.3350    2.5932    0.6006 H   0  0  0  0  0  0  0  0  0  0  0  0
   -3.9481    3.5971    2.8076 H   0  0  0  0  0  0  0  0  0  0  0  0
   -2.7944    2.8348    4.8973 H   0  0  0  0  0  0  0  0  0  0  0  0
   -1.0394    1.0475    4.7818 H   0  0  0  0  0  0  0  0  0  0  0  0
   -0.4308    0.0301    2.5641 H   0  0  0  0  0  0  0  0  0  0  0  0
   -1.4960    3.3525   -1.0359 H   0  0  0  0  0  0  0  0  0  0  0  0
   -0.2930    3.5866    1.1763 H   0  0  0  0  0  0  0  0  0  0  0  0
   -0.1952    5.0758    0.1816 H   0  0  0  0  0  0  0  0  0  0  0  0
    1.2221    3.9831    0.3025 H   0  0  0  0  0  0  0  0  0  0  0  0
   -0.0922    4.8751   -2.3970 H   0  0  0  0  0  0  0  0  0  0  0  0
   -0.1740    3.2594   -3.1748 H   0  0  0  0  0  0  0  0  0  0  0  0
    1.3001    3.7673   -2.2747 H   0  0  0  0  0  0  0  0  0  0  0  0
  1 17  1  0  0  0  0
  2  4  1  6  0  0  0
  2  3  1  0  0  0  0
  2  5  1  0  0  0  0
  3  1  1  0  0  0  0
  5  6  1  0  0  0  0
  6 29  1  0  0  0  0
  6  7  2  0  0  0  0
  7 30  1  0  0  0  0
  8 31  1  0  0  0  0
  8  7  1  0  0  0  0
  9  8  2  0  0  0  0
 10  5  2  0  0  0  0
 10  9  1  0  0  0  0
 11 16  1  0  0  0  0
 11  1  1  0  0  0  0
 12 11  2  0  0  0  0
 13 14  2  0  0  0  0
 13 12  1  0  0  0  0
 14 15  1  0  0  0  0
 15 37  1  0  0  0  0
 15 16  2  0  0  0  0
 16 38  1  0  0  0  0
 17 18  2  0  0  0  0
 17 22  1  0  0  0  0
 18 19  1  0  0  0  0
 19 40  1  0  0  0  0
 19 20  2  0  0  0  0
 20 41  1  0  0  0  0
 21 20  1  0  0  0  0
 21 42  1  0  0  0  0
 22 21  2  0  0  0  0
 23  3  1  0  0  0  0
 23 24  1  0  0  0  0
 24 47  1  0  0  0  0
 24 45  1  0  0  0  0
 25 50  1  0  0  0  0
 25 23  1  0  0  0  0
 26  4  1  0  0  0  0
 27  4  1  0  0  0  0
 28  4  1  0  0  0  0
 32  9  1  0  0  0  0
 33 10  1  0  0  0  0
 34 12  1  0  0  0  0
 35 13  1  0  0  0  0
 36 14  1  0  0  0  0
 39 18  1  0  0  0  0
 43 22  1  0  0  0  0
 44 23  1  0  0  0  0
 46 24  1  0  0  0  0
 48 25  1  0  0  0  0
 49 25  1  0  0  0  0
M  END
