5,6
 OpenBabel05122313063D

 16 15  0  0  0  0  0  0  0  0999 V2000
    2.2574   -2.5674    1.6489 Cl  0  0  0  0  0  0  0  0  0  0  0  0
    2.2752   -2.5762   -1.5289 Cl  0  0  0  0  0  0  0  0  0  0  0  0
    1.3006    3.4476    0.8536 Cl  0  0  0  0  0  0  0  0  0  0  0  0
    2.1126    2.3202   -2.0546 Cl  0  0  0  0  0  0  0  0  0  0  0  0
    1.9038   -1.2754    0.0322 P   0  0  0  0  0  0  0  0  0  0  0  0
    1.5410    1.6761   -0.1724 P   0  0  0  0  0  0  0  0  0  0  0  0
    3.2362   -0.1900   -0.1097 N   0  0  0  0  0  0  0  0  0  0  0  0
    3.0561    1.0832    0.4573 N   0  0  0  0  0  0  0  0  0  0  0  0
    4.5921   -0.5088   -0.5243 C   0  0  0  0  0  0  0  0  0  0  0  0
    5.2909   -0.5515    0.3393 H   0  0  0  0  0  0  0  0  0  0  0  0
    4.5911   -1.4920   -1.0281 H   0  0  0  0  0  0  0  0  0  0  0  0
    4.9366    0.2643   -1.2398 H   0  0  0  0  0  0  0  0  0  0  0  0
    3.4414    1.2226    1.8688 C   0  0  0  0  0  0  0  0  0  0  0  0
    4.5116    0.9490    1.9614 H   0  0  0  0  0  0  0  0  0  0  0  0
    3.3338    2.2836    2.1557 H   0  0  0  0  0  0  0  0  0  0  0  0
    2.8139    0.5978    2.5377 H   0  0  0  0  0  0  0  0  0  0  0  0
  2  5  1  0  0  0  0
  4  6  1  0  0  0  0
  5  1  1  0  0  0  0
  6  8  1  0  0  0  0
  6  3  1  0  0  0  0
  7  5  1  0  0  0  0
  7  8  1  0  0  0  0
  8 13  1  0  0  0  0
  9  7  1  0  0  0  0
  9 10  1  0  0  0  0
 11  9  1  0  0  0  0
 12  9  1  0  0  0  0
 13 14  1  0  0  0  0
 13 15  1  0  0  0  0
 13 16  1  0  0  0  0
M  END
