1,2
 OpenBabel05122313063D

 42 43  0  0  0  0  0  0  0  0999 V2000
   -0.2606    0.2881   -1.1240 P   0  0  0  0  0  2  0  0  0  0  0  0
    0.9373    0.5314    0.6962 P   0  0  0  0  0  2  0  0  0  0  0  0
    2.1919   -2.1992   -0.7630 F   0  0  0  0  0  0  0  0  0  0  0  0
    1.8624   -1.1189   -2.6377 F   0  0  0  0  0  0  0  0  0  0  0  0
    3.7550   -2.1009   -2.2606 F   0  0  0  0  0  0  0  0  0  0  0  0
    6.8442    1.3710   -2.7219 F   0  0  0  0  0  0  0  0  0  0  0  0
    6.9416    2.9884   -1.2508 F   0  0  0  0  0  0  0  0  0  0  0  0
    7.6642    0.9979   -0.7358 F   0  0  0  0  0  0  0  0  0  0  0  0
    2.7366    1.3769    2.9486 F   0  0  0  0  0  0  0  0  0  0  0  0
    4.1154    2.9985    2.5189 F   0  0  0  0  0  0  0  0  0  0  0  0
    2.0698    3.1382    1.8233 F   0  0  0  0  0  0  0  0  0  0  0  0
   -1.8607   -0.5729   -3.3394 F   0  0  0  0  0  0  0  0  0  0  0  0
   -4.0274   -0.5871   -3.3595 F   0  0  0  0  0  0  0  0  0  0  0  0
   -2.9666   -1.6532   -1.7922 F   0  0  0  0  0  0  0  0  0  0  0  0
   -5.8430    4.3471   -0.3208 F   0  0  0  0  0  0  0  0  0  0  0  0
   -6.4497    2.3989    0.4512 F   0  0  0  0  0  0  0  0  0  0  0  0
   -6.6399    2.8272   -1.6785 F   0  0  0  0  0  0  0  0  0  0  0  0
   -1.3463    4.6129    0.5164 F   0  0  0  0  0  0  0  0  0  0  0  0
    0.1732    3.3046   -0.3029 F   0  0  0  0  0  0  0  0  0  0  0  0
   -0.7412    2.8662    1.6511 F   0  0  0  0  0  0  0  0  0  0  0  0
    2.7060    0.5883    0.0547 C   0  0  0  0  0  0  0  0  0  0  0  0
    3.3385   -0.1218   -1.0142 C   0  0  0  0  0  0  0  0  0  0  0  0
    4.6042    0.2541   -1.4966 C   0  0  0  0  0  0  0  0  0  0  0  0
    5.3211    1.2966   -0.9073 C   0  0  0  0  0  0  0  0  0  0  0  0
    4.7906    1.9249    0.2232 C   0  0  0  0  0  0  0  0  0  0  0  0
    3.5225    1.5734    0.7055 C   0  0  0  0  0  0  0  0  0  0  0  0
   -1.8635    1.2534   -0.9495 C   0  0  0  0  0  0  0  0  0  0  0  0
   -2.9950    0.7380   -1.6718 C   0  0  0  0  0  0  0  0  0  0  0  0
   -4.2579    1.3386   -1.5908 C   0  0  0  0  0  0  0  0  0  0  0  0
   -4.4584    2.4844   -0.8145 C   0  0  0  0  0  0  0  0  0  0  0  0
   -3.3558    3.0763   -0.1978 C   0  0  0  0  0  0  0  0  0  0  0  0
   -2.0778    2.5001   -0.2863 C   0  0  0  0  0  0  0  0  0  0  0  0
    2.7719   -1.3698   -1.6752 C   0  0  0  0  0  0  0  0  0  0  0  0
    6.6954    1.6676   -1.4105 C   0  0  0  0  0  0  0  0  0  0  0  0
    3.0915    2.2831    1.9886 C   0  0  0  0  0  0  0  0  0  0  0  0
   -2.9477   -0.5129   -2.5421 C   0  0  0  0  0  0  0  0  0  0  0  0
   -5.8482    3.0232   -0.5979 C   0  0  0  0  0  0  0  0  0  0  0  0
   -0.9813    3.3079    0.3929 C   0  0  0  0  0  0  0  0  0  0  0  0
    5.0446   -0.2924   -2.3402 H   0  0  0  0  0  0  0  0  0  0  0  0
    5.3675    2.7055    0.7348 H   0  0  0  0  0  0  0  0  0  0  0  0
   -5.1011    0.9019   -2.1402 H   0  0  0  0  0  0  0  0  0  0  0  0
   -3.4838    4.0169    0.3529 H   0  0  0  0  0  0  0  0  0  0  0  0
  1 27  1  0  0  0  0
  1  2  1  0  0  0  0
  4 33  1  0  0  0  0
  5 33  1  0  0  0  0
  6 34  1  0  0  0  0
 11 35  1  0  0  0  0
 12 36  1  0  0  0  0
 13 36  1  0  0  0  0
 17 37  1  0  0  0  0
 19 38  1  0  0  0  0
 21  2  1  0  0  0  0
 21 26  1  0  0  0  0
 22 21  2  0  0  0  0
 23 22  1  0  0  0  0
 23 24  2  0  0  0  0
 24 25  1  0  0  0  0
 25 26  2  0  0  0  0
 25 40  1  0  0  0  0
 26 35  1  0  0  0  0
 27 32  1  0  0  0  0
 28 29  1  0  0  0  0
 28 27  2  0  0  0  0
 29 30  2  0  0  0  0
 30 37  1  0  0  0  0
 30 31  1  0  0  0  0
 31 42  1  0  0  0  0
 32 31  2  0  0  0  0
 32 38  1  0  0  0  0
 33 22  1  0  0  0  0
 33  3  1  0  0  0  0
 34  7  1  0  0  0  0
 34 24  1  0  0  0  0
 34  8  1  0  0  0  0
 35 10  1  0  0  0  0
 35  9  1  0  0  0  0
 36 14  1  0  0  0  0
 36 28  1  0  0  0  0
 37 15  1  0  0  0  0
 37 16  1  0  0  0  0
 38 18  1  0  0  0  0
 38 20  1  0  0  0  0
 39 23  1  0  0  0  0
 41 29  1  0  0  0  0
M  END
