1,2
 OpenBabel05122313063D

 74 81  0  0  1  0  0  0  0  0999 V2000
   -2.1446   -0.5203    0.0410 P   0  0  0  0  0  0  0  0  0  0  0  0
    2.1445   -0.5205    0.0411 P   0  0  0  0  0  0  0  0  0  0  0  0
   -2.2419    1.0534   -0.9220 C   0  0  0  0  0  0  0  0  0  0  0  0
   -3.2864    1.3038   -1.8357 C   0  0  0  0  0  0  0  0  0  0  0  0
   -4.0838    0.5582   -1.9686 H   0  0  0  0  0  0  0  0  0  0  0  0
   -3.3040    2.4857   -2.5917 C   0  0  0  0  0  0  0  0  0  0  0  0
   -4.1249    2.6615   -3.3033 H   0  0  0  0  0  0  0  0  0  0  0  0
   -2.2702    3.4293   -2.4661 C   0  0  0  0  0  0  0  0  0  0  0  0
   -2.2713    4.3442   -3.0792 H   0  0  0  0  0  0  0  0  0  0  0  0
    2.2706    3.4290   -2.4661 C   0  0  0  0  0  0  0  0  0  0  0  0
    2.2719    4.3439   -3.0792 H   0  0  0  0  0  0  0  0  0  0  0  0
    3.3043    2.4853   -2.5917 C   0  0  0  0  0  0  0  0  0  0  0  0
    4.1253    2.6610   -3.3033 H   0  0  0  0  0  0  0  0  0  0  0  0
    3.2865    1.3034   -1.8356 C   0  0  0  0  0  0  0  0  0  0  0  0
    4.0839    0.5576   -1.9684 H   0  0  0  0  0  0  0  0  0  0  0  0
    2.2420    1.0532   -0.9220 C   0  0  0  0  0  0  0  0  0  0  0  0
    0.0001    1.9270    0.1224 C   0  0  1  0  0  0  0  0  0  0  0  0
    0.0000    1.0070    0.7462 H   0  0  0  0  0  0  0  0  0  0  0  0
    0.0002    4.0604   -1.3455 C   0  0  2  0  0  0  0  0  0  0  0  0
    0.0003    4.9469   -2.0082 H   0  0  0  0  0  0  0  0  0  0  0  0
    0.0003    4.4726    0.1612 C   0  0  0  0  0  0  0  0  0  0  0  0
    0.8932    5.0968    0.3630 H   0  0  0  0  0  0  0  0  0  0  0  0
   -0.8925    5.0969    0.3630 H   0  0  0  0  0  0  0  0  0  0  0  0
    0.0002    3.1930    1.0354 C   0  0  0  0  0  0  0  0  0  0  0  0
   -0.8898    3.1492    1.6928 H   0  0  0  0  0  0  0  0  0  0  0  0
    0.8902    3.1491    1.6928 H   0  0  0  0  0  0  0  0  0  0  0  0
   -1.2163    2.0111   -0.7830 C   0  0  0  0  0  0  0  0  0  0  0  0
   -1.2228    3.1853   -1.5690 C   0  0  0  0  0  0  0  0  0  0  0  0
    1.2164    2.0109   -0.7830 C   0  0  0  0  0  0  0  0  0  0  0  0
    1.2231    3.1851   -1.5690 C   0  0  0  0  0  0  0  0  0  0  0  0
   -3.3924   -1.6416   -0.7117 C   0  0  0  0  0  0  0  0  0  0  0  0
   -2.9706   -2.6111   -1.6441 C   0  0  0  0  0  0  0  0  0  0  0  0
   -1.9057   -2.6640   -1.9169 H   0  0  0  0  0  0  0  0  0  0  0  0
   -3.9090   -3.4743   -2.2283 C   0  0  0  0  0  0  0  0  0  0  0  0
   -3.5730   -4.2285   -2.9562 H   0  0  0  0  0  0  0  0  0  0  0  0
   -5.2672   -3.3825   -1.8847 C   0  0  0  0  0  0  0  0  0  0  0  0
   -6.0000   -4.0645   -2.3425 H   0  0  0  0  0  0  0  0  0  0  0  0
   -5.6893   -2.4222   -0.9511 C   0  0  0  0  0  0  0  0  0  0  0  0
   -6.7523   -2.3489   -0.6747 H   0  0  0  0  0  0  0  0  0  0  0  0
   -4.7572   -1.5548   -0.3625 C   0  0  0  0  0  0  0  0  0  0  0  0
   -5.0887   -0.8099    0.3764 H   0  0  0  0  0  0  0  0  0  0  0  0
   -2.9130   -0.0789    1.6502 C   0  0  0  0  0  0  0  0  0  0  0  0
   -3.2976    1.2407    1.9581 C   0  0  0  0  0  0  0  0  0  0  0  0
   -3.1618    2.0386    1.2133 H   0  0  0  0  0  0  0  0  0  0  0  0
   -3.8706    1.5373    3.2057 C   0  0  0  0  0  0  0  0  0  0  0  0
   -4.1699    2.5715    3.4350 H   0  0  0  0  0  0  0  0  0  0  0  0
   -4.0681    0.5191    4.1500 C   0  0  0  0  0  0  0  0  0  0  0  0
   -4.5182    0.7520    5.1271 H   0  0  0  0  0  0  0  0  0  0  0  0
   -3.6913   -0.7997    3.8445 C   0  0  0  0  0  0  0  0  0  0  0  0
   -3.8423   -1.6020    4.5825 H   0  0  0  0  0  0  0  0  0  0  0  0
   -3.1107   -1.1001    2.6058 C   0  0  0  0  0  0  0  0  0  0  0  0
   -2.7994   -2.1290    2.3774 H   0  0  0  0  0  0  0  0  0  0  0  0
    2.9128   -0.0790    1.6504 C   0  0  0  0  0  0  0  0  0  0  0  0
    3.2979    1.2405    1.9580 C   0  0  0  0  0  0  0  0  0  0  0  0
    3.1624    2.0383    1.2130 H   0  0  0  0  0  0  0  0  0  0  0  0
    3.8708    1.5373    3.2056 C   0  0  0  0  0  0  0  0  0  0  0  0
    4.1704    2.5714    3.4346 H   0  0  0  0  0  0  0  0  0  0  0  0
    4.0677    0.5193    4.1502 C   0  0  0  0  0  0  0  0  0  0  0  0
    4.5179    0.7522    5.1273 H   0  0  0  0  0  0  0  0  0  0  0  0
    3.6906   -0.7995    3.8450 C   0  0  0  0  0  0  0  0  0  0  0  0
    3.8411   -1.6017    4.5832 H   0  0  0  0  0  0  0  0  0  0  0  0
    3.1100   -1.1000    2.6062 C   0  0  0  0  0  0  0  0  0  0  0  0
    2.7983   -2.1288    2.3781 H   0  0  0  0  0  0  0  0  0  0  0  0
    3.3924   -1.6418   -0.7115 C   0  0  0  0  0  0  0  0  0  0  0  0
    4.7571   -1.5556   -0.3615 C   0  0  0  0  0  0  0  0  0  0  0  0
    5.0885   -0.8112    0.3779 H   0  0  0  0  0  0  0  0  0  0  0  0
    5.6892   -2.4230   -0.9503 C   0  0  0  0  0  0  0  0  0  0  0  0
    6.7521   -2.3501   -0.6732 H   0  0  0  0  0  0  0  0  0  0  0  0
    5.2674   -3.3824   -1.8847 C   0  0  0  0  0  0  0  0  0  0  0  0
    6.0002   -4.0644   -2.3426 H   0  0  0  0  0  0  0  0  0  0  0  0
    3.9092   -3.4736   -2.2291 C   0  0  0  0  0  0  0  0  0  0  0  0
    3.5735   -4.2272   -2.9577 H   0  0  0  0  0  0  0  0  0  0  0  0
    2.9709   -2.6106   -1.6448 C   0  0  0  0  0  0  0  0  0  0  0  0
    1.9061   -2.6629   -1.9182 H   0  0  0  0  0  0  0  0  0  0  0  0
  1 42  1  0  0  0  0
  2 53  1  0  0  0  0
  3 27  1  0  0  0  0
  3  1  1  0  0  0  0
  4  3  2  0  0  0  0
  5  4  1  0  0  0  0
  6  8  2  0  0  0  0
  6  4  1  0  0  0  0
  7  6  1  0  0  0  0
  8 28  1  0  0  0  0
  9  8  1  0  0  0  0
 10 30  1  0  0  0  0
 11 10  1  0  0  0  0
 12 10  2  0  0  0  0
 12 14  1  0  0  0  0
 13 12  1  0  0  0  0
 14 16  2  0  0  0  0
 15 14  1  0  0  0  0
 16 29  1  0  0  0  0
 16  2  1  0  0  0  0
 17 18  1  1  0  0  0
 17 24  1  0  0  0  0
 19 20  1  6  0  0  0
 19 21  1  0  0  0  0
 21 22  1  0  0  0  0
 21 23  1  0  0  0  0
 21 24  1  0  0  0  0
 24 26  1  0  0  0  0
 24 25  1  0  0  0  0
 27 17  1  0  0  0  0
 28 19  1  0  0  0  0
 28 27  2  0  0  0  0
 29 17  1  0  0  0  0
 30 19  1  0  0  0  0
 30 29  2  0  0  0  0
 31 40  1  0  0  0  0
 31  1  1  0  0  0  0
 32 31  2  0  0  0  0
 33 32  1  0  0  0  0
 34 36  2  0  0  0  0
 34 32  1  0  0  0  0
 35 34  1  0  0  0  0
 36 38  1  0  0  0  0
 37 36  1  0  0  0  0
 38 39  1  0  0  0  0
 38 40  2  0  0  0  0
 40 41  1  0  0  0  0
 42 43  2  0  0  0  0
 42 51  1  0  0  0  0
 43 45  1  0  0  0  0
 44 43  1  0  0  0  0
 45 46  1  0  0  0  0
 45 47  2  0  0  0  0
 47 48  1  0  0  0  0
 49 47  1  0  0  0  0
 49 50  1  0  0  0  0
 51 49  2  0  0  0  0
 52 51  1  0  0  0  0
 53 54  2  0  0  0  0
 53 62  1  0  0  0  0
 54 56  1  0  0  0  0
 55 54  1  0  0  0  0
 56 57  1  0  0  0  0
 56 58  2  0  0  0  0
 58 59  1  0  0  0  0
 60 58  1  0  0  0  0
 60 61  1  0  0  0  0
 62 60  2  0  0  0  0
 63 62  1  0  0  0  0
 64 65  1  0  0  0  0
 64  2  1  0  0  0  0
 65 66  1  0  0  0  0
 67 68  1  0  0  0  0
 67 65  2  0  0  0  0
 69 67  1  0  0  0  0
 70 69  1  0  0  0  0
 71 69  2  0  0  0  0
 71 73  1  0  0  0  0
 72 71  1  0  0  0  0
 73 64  2  0  0  0  0
 74 73  1  0  0  0  0
M  END
