1,2
 OpenBabel05122313063D

 75 80  0  0  0  0  0  0  0  0999 V2000
    1.3156   -1.0588   -0.1825 P   0  0  0  0  0  0  0  0  0  0  0  0
   -1.7128   -0.5523    0.2338 P   0  0  0  0  0  0  0  0  0  0  0  0
    2.1427    3.0538    1.5023 N   0  0  0  0  0  0  0  0  0  0  0  0
    1.7868    4.3432    1.6840 N   0  0  0  0  0  0  0  0  0  0  0  0
    1.0537    0.7738   -0.4043 C   0  0  0  0  0  0  0  0  0  0  0  0
    2.0251    1.2633   -0.6176 H   0  0  0  0  0  0  0  0  0  0  0  0
    0.4779    0.7982   -1.3499 H   0  0  0  0  0  0  0  0  0  0  0  0
   -0.8368    0.6875    1.3183 C   0  0  0  0  0  0  0  0  0  0  0  0
   -1.5916    1.3206    1.8215 H   0  0  0  0  0  0  0  0  0  0  0  0
   -0.3727    0.0567    2.1066 H   0  0  0  0  0  0  0  0  0  0  0  0
    1.2034    2.0028    1.8346 C   0  0  0  0  0  0  0  0  0  0  0  0
    0.5891    2.3907    2.6687 H   0  0  0  0  0  0  0  0  0  0  0  0
    1.7665    1.1219    2.1999 H   0  0  0  0  0  0  0  0  0  0  0  0
    0.2593    1.5654    0.6596 C   0  0  0  0  0  0  0  0  0  0  0  0
    3.3776   -2.4145   -1.5356 C   0  0  0  0  0  0  0  0  0  0  0  0
    3.5080   -2.9575   -0.5894 H   0  0  0  0  0  0  0  0  0  0  0  0
    4.1696   -2.7299   -2.6473 C   0  0  0  0  0  0  0  0  0  0  0  0
    4.9420   -3.5087   -2.5584 H   0  0  0  0  0  0  0  0  0  0  0  0
    3.9712   -2.0701   -3.8710 C   0  0  0  0  0  0  0  0  0  0  0  0
    4.5916   -2.3248   -4.7435 H   0  0  0  0  0  0  0  0  0  0  0  0
    2.9709   -1.0927   -3.9801 C   0  0  0  0  0  0  0  0  0  0  0  0
    2.7990   -0.5798   -4.9384 H   0  0  0  0  0  0  0  0  0  0  0  0
    2.1791   -0.7671   -2.8684 C   0  0  0  0  0  0  0  0  0  0  0  0
    1.3892   -0.0103   -2.9827 H   0  0  0  0  0  0  0  0  0  0  0  0
    2.3850   -1.4162   -1.6334 C   0  0  0  0  0  0  0  0  0  0  0  0
    1.8588   -1.8807    2.4228 C   0  0  0  0  0  0  0  0  0  0  0  0
    0.8649   -2.3484    2.3434 H   0  0  0  0  0  0  0  0  0  0  0  0
    2.6084   -1.9491    3.6063 C   0  0  0  0  0  0  0  0  0  0  0  0
    2.1875   -2.4492    4.4915 H   0  0  0  0  0  0  0  0  0  0  0  0
    3.8989   -1.3967    3.6555 C   0  0  0  0  0  0  0  0  0  0  0  0
    4.4865   -1.4520    4.5844 H   0  0  0  0  0  0  0  0  0  0  0  0
    4.4500   -0.7916    2.5133 C   0  0  0  0  0  0  0  0  0  0  0  0
    5.4694   -0.3779    2.5445 H   0  0  0  0  0  0  0  0  0  0  0  0
    3.7020   -0.7180    1.3286 C   0  0  0  0  0  0  0  0  0  0  0  0
    4.1420   -0.2680    0.4244 H   0  0  0  0  0  0  0  0  0  0  0  0
    2.3954   -1.2439    1.2871 C   0  0  0  0  0  0  0  0  0  0  0  0
   -1.9671   -0.0348   -2.4869 C   0  0  0  0  0  0  0  0  0  0  0  0
   -1.3983   -0.9733   -2.5863 H   0  0  0  0  0  0  0  0  0  0  0  0
   -2.3461    0.7154   -3.6104 C   0  0  0  0  0  0  0  0  0  0  0  0
   -2.0514    0.3794   -4.6162 H   0  0  0  0  0  0  0  0  0  0  0  0
   -3.1082    1.8837   -3.4503 C   0  0  0  0  0  0  0  0  0  0  0  0
   -3.4000    2.4750   -4.3317 H   0  0  0  0  0  0  0  0  0  0  0  0
   -3.5087    2.2955   -2.1680 C   0  0  0  0  0  0  0  0  0  0  0  0
   -4.1067    3.2100   -2.0413 H   0  0  0  0  0  0  0  0  0  0  0  0
   -3.1349    1.5495   -1.0423 C   0  0  0  0  0  0  0  0  0  0  0  0
   -3.4475    1.8767   -0.0398 H   0  0  0  0  0  0  0  0  0  0  0  0
   -2.3486    0.3913   -1.1999 C   0  0  0  0  0  0  0  0  0  0  0  0
   -4.4110   -1.2252    0.6372 C   0  0  0  0  0  0  0  0  0  0  0  0
   -4.4848   -1.1854   -0.4584 H   0  0  0  0  0  0  0  0  0  0  0  0
   -5.5288   -1.5628    1.4113 C   0  0  0  0  0  0  0  0  0  0  0  0
   -6.4885   -1.7726    0.9155 H   0  0  0  0  0  0  0  0  0  0  0  0
   -5.4245   -1.6463    2.8094 C   0  0  0  0  0  0  0  0  0  0  0  0
   -6.3037   -1.9171    3.4135 H   0  0  0  0  0  0  0  0  0  0  0  0
   -4.1942   -1.3917    3.4338 C   0  0  0  0  0  0  0  0  0  0  0  0
   -4.1024   -1.4651    4.5280 H   0  0  0  0  0  0  0  0  0  0  0  0
   -3.0728   -1.0465    2.6644 C   0  0  0  0  0  0  0  0  0  0  0  0
   -2.1131   -0.8630    3.1700 H   0  0  0  0  0  0  0  0  0  0  0  0
   -3.1770   -0.9507    1.2621 C   0  0  0  0  0  0  0  0  0  0  0  0
   -0.0618    3.2738   -1.2632 C   0  0  0  0  0  0  0  0  0  0  0  0
    0.6314    2.7068   -1.8978 H   0  0  0  0  0  0  0  0  0  0  0  0
   -0.6404    4.4388   -1.7912 C   0  0  0  0  0  0  0  0  0  0  0  0
   -0.3932    4.7460   -2.8186 H   0  0  0  0  0  0  0  0  0  0  0  0
   -1.5259    5.2024   -1.0208 C   0  0  0  0  0  0  0  0  0  0  0  0
   -1.9823    6.1141   -1.4350 H   0  0  0  0  0  0  0  0  0  0  0  0
   -1.8126    4.7977    0.2924 C   0  0  0  0  0  0  0  0  0  0  0  0
   -2.4878    5.3966    0.9221 H   0  0  0  0  0  0  0  0  0  0  0  0
   -1.2317    3.6357    0.8123 C   0  0  0  0  0  0  0  0  0  0  0  0
   -1.4597    3.3574    1.8523 H   0  0  0  0  0  0  0  0  0  0  0  0
   -0.3628    2.8361    0.0395 C   0  0  0  0  0  0  0  0  0  0  0  0
    2.8179    5.0571    1.2136 C   0  0  0  0  0  0  0  0  0  0  0  0
    2.7818    6.1532    1.2553 H   0  0  0  0  0  0  0  0  0  0  0  0
    3.8553    4.2222    0.7219 C   0  0  0  0  0  0  0  0  0  0  0  0
    4.8208    4.5138    0.2957 H   0  0  0  0  0  0  0  0  0  0  0  0
    3.3810    2.9295    0.9268 C   0  0  0  0  0  0  0  0  0  0  0  0
    3.8320    1.9484    0.7504 H   0  0  0  0  0  0  0  0  0  0  0  0
  1 36  1  0  0  0  0
  2 58  1  0  0  0  0
  2  8  1  0  0  0  0
  3  4  1  0  0  0  0
  3 11  1  0  0  0  0
  5  1  1  0  0  0  0
  5 14  1  0  0  0  0
  6  5  1  0  0  0  0
  7  5  1  0  0  0  0
  8  9  1  0  0  0  0
  8 10  1  0  0  0  0
 11 13  1  0  0  0  0
 11 12  1  0  0  0  0
 14  8  1  0  0  0  0
 14 11  1  0  0  0  0
 15 16  1  0  0  0  0
 17 18  1  0  0  0  0
 17 15  2  0  0  0  0
 19 17  1  0  0  0  0
 20 19  1  0  0  0  0
 21 19  2  0  0  0  0
 21 23  1  0  0  0  0
 22 21  1  0  0  0  0
 23 25  2  0  0  0  0
 24 23  1  0  0  0  0
 25 15  1  0  0  0  0
 25  1  1  0  0  0  0
 26 28  1  0  0  0  0
 27 26  1  0  0  0  0
 28 30  2  0  0  0  0
 28 29  1  0  0  0  0
 30 31  1  0  0  0  0
 32 33  1  0  0  0  0
 32 30  1  0  0  0  0
 34 32  2  0  0  0  0
 35 34  1  0  0  0  0
 36 34  1  0  0  0  0
 36 26  2  0  0  0  0
 37 47  1  0  0  0  0
 38 37  1  0  0  0  0
 39 41  1  0  0  0  0
 39 37  2  0  0  0  0
 40 39  1  0  0  0  0
 41 43  2  0  0  0  0
 42 41  1  0  0  0  0
 43 44  1  0  0  0  0
 43 45  1  0  0  0  0
 45 46  1  0  0  0  0
 47 45  2  0  0  0  0
 47  2  1  0  0  0  0
 48 58  2  0  0  0  0
 48 50  1  0  0  0  0
 49 48  1  0  0  0  0
 50 52  2  0  0  0  0
 51 50  1  0  0  0  0
 52 53  1  0  0  0  0
 52 54  1  0  0  0  0
 54 55  1  0  0  0  0
 56 57  1  0  0  0  0
 56 54  2  0  0  0  0
 58 56  1  0  0  0  0
 59 69  1  0  0  0  0
 60 59  1  0  0  0  0
 61 59  2  0  0  0  0
 61 63  1  0  0  0  0
 62 61  1  0  0  0  0
 63 65  2  0  0  0  0
 64 63  1  0  0  0  0
 65 67  1  0  0  0  0
 65 66  1  0  0  0  0
 67 68  1  0  0  0  0
 69 14  1  0  0  0  0
 69 67  2  0  0  0  0
 70 71  1  0  0  0  0
 70  4  2  0  0  0  0
 72 74  2  0  0  0  0
 72 70  1  0  0  0  0
 73 72  1  0  0  0  0
 74  3  1  0  0  0  0
 75 74  1  0  0  0  0
M  END
