1,2
 OpenBabel05122313063D

 63 63  0  0  0  0  0  0  0  0999 V2000
    1.8358   -1.0908   -0.0920 P   0  0  0  0  0  0  0  0  0  0  0  0
   -0.1379    1.4490   -0.1225 P   0  0  0  0  0  0  0  0  0  0  0  0
   -0.8957   -1.1815   -0.7724 N   0  0  0  0  0  0  0  0  0  0  0  0
    0.4028   -1.7374   -1.1256 C   0  0  0  0  0  0  0  0  0  0  0  0
    0.6466   -1.5607   -2.2084 H   0  0  0  0  0  0  0  0  0  0  0  0
    0.3650   -2.8373   -0.9845 H   0  0  0  0  0  0  0  0  0  0  0  0
   -1.0341    0.2035   -1.2015 C   0  0  0  0  0  0  0  0  0  0  0  0
   -2.1068    0.4750   -1.1919 H   0  0  0  0  0  0  0  0  0  0  0  0
   -0.6804    0.3408   -2.2582 H   0  0  0  0  0  0  0  0  0  0  0  0
    1.8038   -2.3649    1.3010 C   0  0  0  0  0  0  0  0  0  0  0  0
    1.6918   -3.3498    0.7936 H   0  0  0  0  0  0  0  0  0  0  0  0
    3.0861   -2.3788    2.1359 C   0  0  0  0  0  0  0  0  0  0  0  0
    3.9880   -2.6049    1.5327 H   0  0  0  0  0  0  0  0  0  0  0  0
    3.0103   -3.1544    2.9269 H   0  0  0  0  0  0  0  0  0  0  0  0
    3.2439   -1.3998    2.6297 H   0  0  0  0  0  0  0  0  0  0  0  0
    0.5709   -2.1209    2.1805 C   0  0  0  0  0  0  0  0  0  0  0  0
    0.6837   -1.1714    2.7422 H   0  0  0  0  0  0  0  0  0  0  0  0
    0.4521   -2.9429    2.9176 H   0  0  0  0  0  0  0  0  0  0  0  0
   -0.3560   -2.0370    1.5796 H   0  0  0  0  0  0  0  0  0  0  0  0
    3.2764   -1.6354   -1.1778 C   0  0  0  0  0  0  0  0  0  0  0  0
    4.1490   -1.5267   -0.4999 H   0  0  0  0  0  0  0  0  0  0  0  0
    3.4556   -0.6292   -2.3207 C   0  0  0  0  0  0  0  0  0  0  0  0
    2.5987   -0.6526   -3.0270 H   0  0  0  0  0  0  0  0  0  0  0  0
    4.3700   -0.8612   -2.9058 H   0  0  0  0  0  0  0  0  0  0  0  0
    3.5436    0.4028   -1.9286 H   0  0  0  0  0  0  0  0  0  0  0  0
    3.2192   -3.0840   -1.6718 C   0  0  0  0  0  0  0  0  0  0  0  0
    3.1079   -3.8113   -0.8427 H   0  0  0  0  0  0  0  0  0  0  0  0
    4.1557   -3.3416   -2.2103 H   0  0  0  0  0  0  0  0  0  0  0  0
    2.3842   -3.2474   -2.3839 H   0  0  0  0  0  0  0  0  0  0  0  0
   -1.4735    1.9920    1.0905 C   0  0  0  0  0  0  0  0  0  0  0  0
   -1.0608    2.9462    1.4819 H   0  0  0  0  0  0  0  0  0  0  0  0
   -1.5371    0.9991    2.2556 C   0  0  0  0  0  0  0  0  0  0  0  0
   -1.8766    0.0026    1.9116 H   0  0  0  0  0  0  0  0  0  0  0  0
   -2.2505    1.3525    3.0296 H   0  0  0  0  0  0  0  0  0  0  0  0
   -0.5412    0.8793    2.7251 H   0  0  0  0  0  0  0  0  0  0  0  0
   -2.8512    2.2667    0.4817 C   0  0  0  0  0  0  0  0  0  0  0  0
   -2.8052    2.9410   -0.3976 H   0  0  0  0  0  0  0  0  0  0  0  0
   -3.5080    2.7512    1.2346 H   0  0  0  0  0  0  0  0  0  0  0  0
   -3.3632    1.3322    0.1728 H   0  0  0  0  0  0  0  0  0  0  0  0
   -0.0605    2.8451   -1.3965 C   0  0  0  0  0  0  0  0  0  0  0  0
   -0.9947    2.7516   -1.9963 H   0  0  0  0  0  0  0  0  0  0  0  0
   -0.0074    4.2509   -0.7921 C   0  0  0  0  0  0  0  0  0  0  0  0
   -0.8902    4.4816   -0.1640 H   0  0  0  0  0  0  0  0  0  0  0  0
    0.0262    5.0063   -1.6054 H   0  0  0  0  0  0  0  0  0  0  0  0
    0.9003    4.3840   -0.1719 H   0  0  0  0  0  0  0  0  0  0  0  0
    1.1459    2.6018   -2.3135 C   0  0  0  0  0  0  0  0  0  0  0  0
    2.0894    2.7237   -1.7425 H   0  0  0  0  0  0  0  0  0  0  0  0
    1.1511    3.3288   -3.1530 H   0  0  0  0  0  0  0  0  0  0  0  0
    1.1519    1.5819   -2.7478 H   0  0  0  0  0  0  0  0  0  0  0  0
   -1.9979   -2.0181   -1.2655 C   0  0  0  0  0  0  0  0  0  0  0  0
   -1.7660   -3.0660   -0.9788 H   0  0  0  0  0  0  0  0  0  0  0  0
   -2.0636   -2.0003   -2.3860 H   0  0  0  0  0  0  0  0  0  0  0  0
   -3.3306   -1.6179   -0.6713 C   0  0  0  0  0  0  0  0  0  0  0  0
   -4.3356   -1.0239   -1.4570 C   0  0  0  0  0  0  0  0  0  0  0  0
   -4.1610   -0.8813   -2.5355 H   0  0  0  0  0  0  0  0  0  0  0  0
   -5.5465   -0.6060   -0.8801 C   0  0  0  0  0  0  0  0  0  0  0  0
   -6.3205   -0.1389   -1.5079 H   0  0  0  0  0  0  0  0  0  0  0  0
   -5.7648   -0.7794    0.4947 C   0  0  0  0  0  0  0  0  0  0  0  0
   -6.7109   -0.4498    0.9503 H   0  0  0  0  0  0  0  0  0  0  0  0
   -4.7708   -1.3779    1.2878 C   0  0  0  0  0  0  0  0  0  0  0  0
   -4.9375   -1.5198    2.3665 H   0  0  0  0  0  0  0  0  0  0  0  0
   -3.5642   -1.7922    0.7079 C   0  0  0  0  0  0  0  0  0  0  0  0
   -2.7818   -2.2552    1.3290 H   0  0  0  0  0  0  0  0  0  0  0  0
  1 10  1  0  0  0  0
  2 30  1  0  0  0  0
  4  6  1  0  0  0  0
  4  3  1  0  0  0  0
  4  1  1  0  0  0  0
  5  4  1  0  0  0  0
  7  8  1  0  0  0  0
  7  3  1  0  0  0  0
  7  2  1  0  0  0  0
  9  7  1  0  0  0  0
 10 12  1  0  0  0  0
 10 16  1  0  0  0  0
 11 10  1  0  0  0  0
 12 15  1  0  0  0  0
 12 14  1  0  0  0  0
 13 12  1  0  0  0  0
 16 17  1  0  0  0  0
 16 18  1  0  0  0  0
 19 16  1  0  0  0  0
 20 21  1  0  0  0  0
 20  1  1  0  0  0  0
 22 25  1  0  0  0  0
 22 20  1  0  0  0  0
 23 22  1  0  0  0  0
 24 22  1  0  0  0  0
 26 20  1  0  0  0  0
 26 27  1  0  0  0  0
 28 26  1  0  0  0  0
 29 26  1  0  0  0  0
 30 31  1  0  0  0  0
 30 32  1  0  0  0  0
 32 35  1  0  0  0  0
 32 34  1  0  0  0  0
 33 32  1  0  0  0  0
 36 30  1  0  0  0  0
 36 38  1  0  0  0  0
 37 36  1  0  0  0  0
 39 36  1  0  0  0  0
 40 42  1  0  0  0  0
 40  2  1  0  0  0  0
 41 40  1  0  0  0  0
 42 45  1  0  0  0  0
 42 43  1  0  0  0  0
 44 42  1  0  0  0  0
 46 47  1  0  0  0  0
 46 40  1  0  0  0  0
 48 46  1  0  0  0  0
 49 46  1  0  0  0  0
 50 51  1  0  0  0  0
 50  3  1  0  0  0  0
 50 53  1  0  0  0  0
 52 50  1  0  0  0  0
 53 62  1  0  0  0  0
 54 56  1  0  0  0  0
 54 53  2  0  0  0  0
 55 54  1  0  0  0  0
 56 58  2  0  0  0  0
 57 56  1  0  0  0  0
 58 59  1  0  0  0  0
 58 60  1  0  0  0  0
 60 61  1  0  0  0  0
 62 60  2  0  0  0  0
 62 63  1  0  0  0  0
M  END
