1,2
 OpenBabel05122313063D

 59 58  0  0  0  0  0  0  0  0999 V2000
    1.0777    1.5945   -0.0023 P   0  0  0  0  0  0  0  0  0  0  0  0
    0.1963   -1.4791    0.5889 P   0  0  0  0  0  0  0  0  0  0  0  0
    2.6382   -0.6364   -0.5721 N   0  0  0  0  0  0  0  0  0  0  0  0
    2.7261    0.7077   -0.0212 C   0  0  0  0  0  0  0  0  0  0  0  0
    3.4185    1.3087   -0.6453 H   0  0  0  0  0  0  0  0  0  0  0  0
    3.1389    0.7184    1.0227 H   0  0  0  0  0  0  0  0  0  0  0  0
    2.0704   -1.5636    0.3871 C   0  0  0  0  0  0  0  0  0  0  0  0
    2.5078   -1.4328    1.4113 H   0  0  0  0  0  0  0  0  0  0  0  0
    2.2960   -2.6030    0.0816 H   0  0  0  0  0  0  0  0  0  0  0  0
    1.4230    3.0089    1.1786 C   0  0  0  0  0  0  0  0  0  0  0  0
    0.5369    3.6577    1.0138 H   0  0  0  0  0  0  0  0  0  0  0  0
    2.7092    3.7837    0.8797 C   0  0  0  0  0  0  0  0  0  0  0  0
    3.6166    3.1693    1.0561 H   0  0  0  0  0  0  0  0  0  0  0  0
    2.7835    4.6665    1.5492 H   0  0  0  0  0  0  0  0  0  0  0  0
    2.7486    4.1590   -0.1625 H   0  0  0  0  0  0  0  0  0  0  0  0
    1.3514    2.5103    2.6256 C   0  0  0  0  0  0  0  0  0  0  0  0
    0.3669    2.0435    2.8224 H   0  0  0  0  0  0  0  0  0  0  0  0
    1.4784    3.3589    3.3299 H   0  0  0  0  0  0  0  0  0  0  0  0
    2.1481    1.7709    2.8550 H   0  0  0  0  0  0  0  0  0  0  0  0
    1.1112    2.3815   -1.7154 C   0  0  0  0  0  0  0  0  0  0  0  0
    2.1612    2.7302   -1.8440 H   0  0  0  0  0  0  0  0  0  0  0  0
    0.1703    3.5820   -1.8443 C   0  0  0  0  0  0  0  0  0  0  0  0
   -0.8632    3.3136   -1.5503 H   0  0  0  0  0  0  0  0  0  0  0  0
    0.1648    3.9406   -2.8950 H   0  0  0  0  0  0  0  0  0  0  0  0
    0.4830    4.4289   -1.2020 H   0  0  0  0  0  0  0  0  0  0  0  0
    0.8222    1.3048   -2.7689 C   0  0  0  0  0  0  0  0  0  0  0  0
    1.4799    0.4218   -2.6478 H   0  0  0  0  0  0  0  0  0  0  0  0
    0.9612    1.7188   -3.7895 H   0  0  0  0  0  0  0  0  0  0  0  0
   -0.2258    0.9567   -2.6836 H   0  0  0  0  0  0  0  0  0  0  0  0
    0.1321   -2.2551    2.3129 C   0  0  0  0  0  0  0  0  0  0  0  0
    0.9873   -2.9692    2.3157 H   0  0  0  0  0  0  0  0  0  0  0  0
    0.4013   -1.1574    3.3505 C   0  0  0  0  0  0  0  0  0  0  0  0
    1.3353   -0.5974    3.1456 H   0  0  0  0  0  0  0  0  0  0  0  0
    0.4862   -1.5966    4.3665 H   0  0  0  0  0  0  0  0  0  0  0  0
   -0.4293   -0.4225    3.3572 H   0  0  0  0  0  0  0  0  0  0  0  0
   -1.1409   -3.0329    2.6588 C   0  0  0  0  0  0  0  0  0  0  0  0
   -2.0114   -2.3567    2.7533 H   0  0  0  0  0  0  0  0  0  0  0  0
   -1.0052   -3.5434    3.6354 H   0  0  0  0  0  0  0  0  0  0  0  0
   -1.3916   -3.8108    1.9113 H   0  0  0  0  0  0  0  0  0  0  0  0
   -0.4133   -2.8119   -0.5911 C   0  0  0  0  0  0  0  0  0  0  0  0
   -1.4727   -2.9398   -0.2843 H   0  0  0  0  0  0  0  0  0  0  0  0
    0.2917   -4.1661   -0.4791 C   0  0  0  0  0  0  0  0  0  0  0  0
    1.3289   -4.1281   -0.8706 H   0  0  0  0  0  0  0  0  0  0  0  0
   -0.2476   -4.9203   -1.0894 H   0  0  0  0  0  0  0  0  0  0  0  0
    0.3319   -4.5497    0.5597 H   0  0  0  0  0  0  0  0  0  0  0  0
   -0.4027   -2.2599   -2.0196 C   0  0  0  0  0  0  0  0  0  0  0  0
   -0.9532   -1.3016   -2.0670 H   0  0  0  0  0  0  0  0  0  0  0  0
   -0.8822   -2.9755   -2.7193 H   0  0  0  0  0  0  0  0  0  0  0  0
    0.6303   -2.0705   -2.3725 H   0  0  0  0  0  0  0  0  0  0  0  0
    3.8947   -1.0894   -1.2150 C   0  0  0  0  0  0  0  0  0  0  0  0
    4.2109   -0.2242   -1.8382 H   0  0  0  0  0  0  0  0  0  0  0  0
    5.0312   -1.3943   -0.2240 C   0  0  0  0  0  0  0  0  0  0  0  0
    5.2118   -0.5436    0.4639 H   0  0  0  0  0  0  0  0  0  0  0  0
    5.9785   -1.5967   -0.7627 H   0  0  0  0  0  0  0  0  0  0  0  0
    4.8021   -2.2882    0.3922 H   0  0  0  0  0  0  0  0  0  0  0  0
    3.6474   -2.2576   -2.1718 C   0  0  0  0  0  0  0  0  0  0  0  0
    3.3403   -3.1798   -1.6363 H   0  0  0  0  0  0  0  0  0  0  0  0
    4.5753   -2.5014   -2.7261 H   0  0  0  0  0  0  0  0  0  0  0  0
    2.8566   -2.0071   -2.9056 H   0  0  0  0  0  0  0  0  0  0  0  0
  1 10  1  0  0  0  0
  2 30  1  0  0  0  0
  3  4  1  0  0  0  0
  3  7  1  0  0  0  0
  4  1  1  0  0  0  0
  4  6  1  0  0  0  0
  5  4  1  0  0  0  0
  7  2  1  0  0  0  0
  7  8  1  0  0  0  0
  9  7  1  0  0  0  0
 10 16  1  0  0  0  0
 11 10  1  0  0  0  0
 12 13  1  0  0  0  0
 12 10  1  0  0  0  0
 12 14  1  0  0  0  0
 15 12  1  0  0  0  0
 16 17  1  0  0  0  0
 16 19  1  0  0  0  0
 16 18  1  0  0  0  0
 20  1  1  0  0  0  0
 21 20  1  0  0  0  0
 22 20  1  0  0  0  0
 22 23  1  0  0  0  0
 22 25  1  0  0  0  0
 24 22  1  0  0  0  0
 26 29  1  0  0  0  0
 26 27  1  0  0  0  0
 26 20  1  0  0  0  0
 28 26  1  0  0  0  0
 30 31  1  0  0  0  0
 30 36  1  0  0  0  0
 30 32  1  0  0  0  0
 32 35  1  0  0  0  0
 32 34  1  0  0  0  0
 33 32  1  0  0  0  0
 36 37  1  0  0  0  0
 36 38  1  0  0  0  0
 39 36  1  0  0  0  0
 40 42  1  0  0  0  0
 40 41  1  0  0  0  0
 40  2  1  0  0  0  0
 42 45  1  0  0  0  0
 43 42  1  0  0  0  0
 44 42  1  0  0  0  0
 46 40  1  0  0  0  0
 47 46  1  0  0  0  0
 48 46  1  0  0  0  0
 49 46  1  0  0  0  0
 50  3  1  0  0  0  0
 50 52  1  0  0  0  0
 51 50  1  0  0  0  0
 52 55  1  0  0  0  0
 52 53  1  0  0  0  0
 54 52  1  0  0  0  0
 56 57  1  0  0  0  0
 56 50  1  0  0  0  0
 58 56  1  0  0  0  0
 59 56  1  0  0  0  0
M  END
