1,2
 OpenBabel05122313063D

 70 73  0  0  1  0  0  0  0  0999 V2000
   -2.1918   -1.0237    0.1081 P   0  0  0  0  0  0  0  0  0  0  0  0
    2.1918   -1.0237    0.1081 P   0  0  0  0  0  0  0  0  0  0  0  0
   -2.2603    0.7807   -0.3688 C   0  0  0  0  0  0  0  0  0  0  0  0
   -3.3200    1.2822   -1.1640 C   0  0  0  0  0  0  0  0  0  0  0  0
   -4.1471    0.6179   -1.4524 H   0  0  0  0  0  0  0  0  0  0  0  0
   -3.3378    2.6087   -1.6179 C   0  0  0  0  0  0  0  0  0  0  0  0
   -4.1761    2.9598   -2.2389 H   0  0  0  0  0  0  0  0  0  0  0  0
   -2.2823    3.4796   -1.3014 C   0  0  0  0  0  0  0  0  0  0  0  0
   -2.2768    4.5155   -1.6759 H   0  0  0  0  0  0  0  0  0  0  0  0
    2.2823    3.4796   -1.3015 C   0  0  0  0  0  0  0  0  0  0  0  0
    2.2768    4.5154   -1.6760 H   0  0  0  0  0  0  0  0  0  0  0  0
    3.3377    2.6086   -1.6181 C   0  0  0  0  0  0  0  0  0  0  0  0
    4.1759    2.9596   -2.2392 H   0  0  0  0  0  0  0  0  0  0  0  0
    3.3199    1.2821   -1.1642 C   0  0  0  0  0  0  0  0  0  0  0  0
    4.1469    0.6177   -1.4527 H   0  0  0  0  0  0  0  0  0  0  0  0
    2.2602    0.7806   -0.3689 C   0  0  0  0  0  0  0  0  0  0  0  0
   -0.0000    1.4038    0.8372 C   0  0  1  0  0  0  0  0  0  0  0  0
   -0.0000    0.3563    1.2167 H   0  0  0  0  0  0  0  0  0  0  0  0
    0.0000    3.8081   -0.1050 C   0  0  2  0  0  0  0  0  0  0  0  0
    0.0001    4.8187   -0.5570 H   0  0  0  0  0  0  0  0  0  0  0  0
   -0.0000    3.8795    1.4534 C   0  0  0  0  0  0  0  0  0  0  0  0
    0.8933    4.4423    1.7897 H   0  0  0  0  0  0  0  0  0  0  0  0
   -0.8934    4.4422    1.7897 H   0  0  0  0  0  0  0  0  0  0  0  0
    0.0000    2.4340    2.0090 C   0  0  0  0  0  0  0  0  0  0  0  0
   -0.8903    2.2475    2.6409 H   0  0  0  0  0  0  0  0  0  0  0  0
    0.8904    2.2475    2.6408 H   0  0  0  0  0  0  0  0  0  0  0  0
   -1.2220    1.6798   -0.0227 C   0  0  0  0  0  0  0  0  0  0  0  0
   -1.2270    3.0094   -0.5123 C   0  0  0  0  0  0  0  0  0  0  0  0
    1.2220    1.6797   -0.0227 C   0  0  0  0  0  0  0  0  0  0  0  0
    1.2270    3.0094   -0.5124 C   0  0  0  0  0  0  0  0  0  0  0  0
   -3.3328   -1.1003    1.6143 C   0  0  0  0  0  0  0  0  0  0  0  0
   -3.3654   -2.1894    1.8385 H   0  0  0  0  0  0  0  0  0  0  0  0
   -4.7543   -0.5860    1.3823 C   0  0  0  0  0  0  0  0  0  0  0  0
   -5.3622   -0.7013    2.3049 H   0  0  0  0  0  0  0  0  0  0  0  0
   -5.2776   -1.1344    0.5732 H   0  0  0  0  0  0  0  0  0  0  0  0
   -4.7518    0.4916    1.1187 H   0  0  0  0  0  0  0  0  0  0  0  0
   -2.6498   -0.3926    2.7892 C   0  0  0  0  0  0  0  0  0  0  0  0
   -2.5797    0.6999    2.6051 H   0  0  0  0  0  0  0  0  0  0  0  0
   -1.6220   -0.7783    2.9490 H   0  0  0  0  0  0  0  0  0  0  0  0
   -3.2299   -0.5365    3.7246 H   0  0  0  0  0  0  0  0  0  0  0  0
   -3.1669   -1.8793   -1.2534 C   0  0  0  0  0  0  0  0  0  0  0  0
   -4.1638   -1.3975   -1.3499 H   0  0  0  0  0  0  0  0  0  0  0  0
   -3.3670   -3.3500   -0.8674 C   0  0  0  0  0  0  0  0  0  0  0  0
   -3.8642   -3.8997   -1.6938 H   0  0  0  0  0  0  0  0  0  0  0  0
   -3.9949   -3.4700    0.0380 H   0  0  0  0  0  0  0  0  0  0  0  0
   -2.3881   -3.8366   -0.6704 H   0  0  0  0  0  0  0  0  0  0  0  0
   -2.4040   -1.7451   -2.5764 C   0  0  0  0  0  0  0  0  0  0  0  0
   -1.3895   -2.1863   -2.4801 H   0  0  0  0  0  0  0  0  0  0  0  0
   -2.2788   -0.6868   -2.8791 H   0  0  0  0  0  0  0  0  0  0  0  0
   -2.9421   -2.2761   -3.3896 H   0  0  0  0  0  0  0  0  0  0  0  0
    3.3330   -1.1002    1.6142 C   0  0  0  0  0  0  0  0  0  0  0  0
    3.3656   -2.1893    1.8386 H   0  0  0  0  0  0  0  0  0  0  0  0
    2.6503   -0.3922    2.7891 C   0  0  0  0  0  0  0  0  0  0  0  0
    3.2304   -0.5360    3.7245 H   0  0  0  0  0  0  0  0  0  0  0  0
    1.6224   -0.7778    2.9491 H   0  0  0  0  0  0  0  0  0  0  0  0
    2.5802    0.7002    2.6048 H   0  0  0  0  0  0  0  0  0  0  0  0
    4.7545   -0.5859    1.3820 C   0  0  0  0  0  0  0  0  0  0  0  0
    4.7519    0.4916    1.1179 H   0  0  0  0  0  0  0  0  0  0  0  0
    5.2778   -1.1346    0.5731 H   0  0  0  0  0  0  0  0  0  0  0  0
    5.3624   -0.7008    2.3046 H   0  0  0  0  0  0  0  0  0  0  0  0
    3.1667   -1.8794   -1.2534 C   0  0  0  0  0  0  0  0  0  0  0  0
    4.1637   -1.3977   -1.3500 H   0  0  0  0  0  0  0  0  0  0  0  0
    3.3668   -3.3501   -0.8674 C   0  0  0  0  0  0  0  0  0  0  0  0
    2.3880   -3.8367   -0.6701 H   0  0  0  0  0  0  0  0  0  0  0  0
    3.9949   -3.4701    0.0379 H   0  0  0  0  0  0  0  0  0  0  0  0
    3.8637   -3.8999   -1.6939 H   0  0  0  0  0  0  0  0  0  0  0  0
    2.4037   -1.7451   -2.5763 C   0  0  0  0  0  0  0  0  0  0  0  0
    2.9418   -2.2760   -3.3896 H   0  0  0  0  0  0  0  0  0  0  0  0
    2.2785   -0.6868   -2.8789 H   0  0  0  0  0  0  0  0  0  0  0  0
    1.3893   -2.1863   -2.4800 H   0  0  0  0  0  0  0  0  0  0  0  0
  1 31  1  0  0  0  0
  2 51  1  0  0  0  0
  3 27  1  0  0  0  0
  3  1  1  0  0  0  0
  4  3  2  0  0  0  0
  5  4  1  0  0  0  0
  6  8  2  0  0  0  0
  6  4  1  0  0  0  0
  7  6  1  0  0  0  0
  8 28  1  0  0  0  0
  9  8  1  0  0  0  0
 10 30  1  0  0  0  0
 11 10  1  0  0  0  0
 12 10  2  0  0  0  0
 12 14  1  0  0  0  0
 13 12  1  0  0  0  0
 14 16  2  0  0  0  0
 15 14  1  0  0  0  0
 16 29  1  0  0  0  0
 16  2  1  0  0  0  0
 17 18  1  1  0  0  0
 17 24  1  0  0  0  0
 19 20  1  6  0  0  0
 19 21  1  0  0  0  0
 21 23  1  0  0  0  0
 21 22  1  0  0  0  0
 21 24  1  0  0  0  0
 24 26  1  0  0  0  0
 24 25  1  0  0  0  0
 27 17  1  0  0  0  0
 28 19  1  0  0  0  0
 28 27  2  0  0  0  0
 29 17  1  0  0  0  0
 30 19  1  0  0  0  0
 30 29  2  0  0  0  0
 31 32  1  0  0  0  0
 31 37  1  0  0  0  0
 33 31  1  0  0  0  0
 33 34  1  0  0  0  0
 35 33  1  0  0  0  0
 36 33  1  0  0  0  0
 37 39  1  0  0  0  0
 37 40  1  0  0  0  0
 38 37  1  0  0  0  0
 41 43  1  0  0  0  0
 41  1  1  0  0  0  0
 42 41  1  0  0  0  0
 43 46  1  0  0  0  0
 43 45  1  0  0  0  0
 44 43  1  0  0  0  0
 47 48  1  0  0  0  0
 47 41  1  0  0  0  0
 49 47  1  0  0  0  0
 50 47  1  0  0  0  0
 51 52  1  0  0  0  0
 51 53  1  0  0  0  0
 53 55  1  0  0  0  0
 53 54  1  0  0  0  0
 56 53  1  0  0  0  0
 57 51  1  0  0  0  0
 57 60  1  0  0  0  0
 58 57  1  0  0  0  0
 59 57  1  0  0  0  0
 61 63  1  0  0  0  0
 61  2  1  0  0  0  0
 62 61  1  0  0  0  0
 63 64  1  0  0  0  0
 63 65  1  0  0  0  0
 66 63  1  0  0  0  0
 67 70  1  0  0  0  0
 67 61  1  0  0  0  0
 68 67  1  0  0  0  0
 69 67  1  0  0  0  0
M  END
