4,5
 OpenBabel05122313063D

 41 42  0  0  0  0  0  0  0  0999 V2000
    3.3586    2.1244   -0.6169 C   0  0  0  0  0  0  0  0  0  0  0  0
    1.2066    1.9279   -0.1125 N   0  0  0  0  0  0  0  0  0  0  0  0
   -0.3112    2.7215    0.4703 Si  0  0  0  0  0  0  0  0  0  0  0  0
    1.6389    0.2684   -0.2677 P   0  0  0  0  0  0  0  0  0  0  0  0
   -1.7197   -0.1093   -0.1436 P   0  0  0  0  0  2  0  0  0  0  0  0
    3.2643    0.6984   -0.6472 C   0  0  0  0  0  0  0  0  0  0  0  0
    2.2361    2.7884   -0.3188 N   0  0  0  0  0  0  0  0  0  0  0  0
    4.3742   -0.2550   -0.9755 C   0  0  0  0  0  0  0  0  0  0  0  0
    4.0463   -1.3096   -0.9033 H   0  0  0  0  0  0  0  0  0  0  0  0
    5.2350   -0.1263   -0.2867 H   0  0  0  0  0  0  0  0  0  0  0  0
    4.7548   -0.0900   -2.0059 H   0  0  0  0  0  0  0  0  0  0  0  0
   -2.8613    2.2158   -0.1141 N   0  0  0  0  0  2  0  0  0  0  0  0
    5.4947    3.0110    0.4199 C   0  0  0  0  0  0  0  0  0  0  0  0
    6.4154    3.5966    0.2243 H   0  0  0  0  0  0  0  0  0  0  0  0
    5.8020    2.0115    0.7893 H   0  0  0  0  0  0  0  0  0  0  0  0
    4.9357    3.5105    1.2363 H   0  0  0  0  0  0  0  0  0  0  0  0
   -1.6535    1.6057   -0.0007 N   0  0  0  0  0  0  0  0  0  0  0  0
    4.6260    2.9065   -0.8428 C   0  0  0  0  0  0  0  0  0  0  0  0
    4.3404    3.9205   -1.1878 H   0  0  0  0  0  0  0  0  0  0  0  0
    5.2068    2.4364   -1.6641 H   0  0  0  0  0  0  0  0  0  0  0  0
   -3.8284    1.3197   -0.3307 C   0  0  0  0  0  0  0  0  0  0  0  0
   -3.4235   -0.0510   -0.3875 C   0  0  0  0  0  0  0  0  0  0  0  0
   -5.4478    3.2895   -0.3883 C   0  0  0  0  0  0  0  0  0  0  0  0
   -6.5130    3.5604   -0.5257 H   0  0  0  0  0  0  0  0  0  0  0  0
   -4.8485    3.8272   -1.1489 H   0  0  0  0  0  0  0  0  0  0  0  0
   -5.1178    3.6591    0.6023 H   0  0  0  0  0  0  0  0  0  0  0  0
   -5.2535    1.7791   -0.5037 C   0  0  0  0  0  0  0  0  0  0  0  0
   -5.8850    1.2493    0.2444 H   0  0  0  0  0  0  0  0  0  0  0  0
   -5.6202    1.4166   -1.4904 H   0  0  0  0  0  0  0  0  0  0  0  0
   -4.3316   -1.2183   -0.6269 C   0  0  0  0  0  0  0  0  0  0  0  0
   -3.7921   -2.1827   -0.5689 H   0  0  0  0  0  0  0  0  0  0  0  0
   -4.8119   -1.1578   -1.6270 H   0  0  0  0  0  0  0  0  0  0  0  0
   -5.1511   -1.2466    0.1224 H   0  0  0  0  0  0  0  0  0  0  0  0
   -0.2483    2.8317    2.3336 C   0  0  0  0  0  0  0  0  0  0  0  0
   -1.1893    3.2678    2.7251 H   0  0  0  0  0  0  0  0  0  0  0  0
    0.5996    3.4705    2.6529 H   0  0  0  0  0  0  0  0  0  0  0  0
   -0.1164    1.8255    2.7795 H   0  0  0  0  0  0  0  0  0  0  0  0
   -0.5273    4.3300   -0.4369 C   0  0  0  0  0  0  0  0  0  0  0  0
   -1.4700    4.8178   -0.1228 H   0  0  0  0  0  0  0  0  0  0  0  0
   -0.5740    4.1432   -1.5277 H   0  0  0  0  0  0  0  0  0  0  0  0
    0.3328    4.9955   -0.2304 H   0  0  0  0  0  0  0  0  0  0  0  0
  1  7  2  0  0  0  0
  2  3  1  0  0  0  0
  3 34  1  0  0  0  0
  4  2  1  0  0  0  0
  5 17  1  0  0  0  0
  6  1  1  0  0  0  0
  6  4  2  0  0  0  0
  7  2  1  0  0  0  0
  8  9  1  0  0  0  0
  8  6  1  0  0  0  0
  8 10  1  0  0  0  0
 11  8  1  0  0  0  0
 12 17  1  0  0  0  0
 13 15  1  0  0  0  0
 13 16  1  0  0  0  0
 14 13  1  0  0  0  0
 17  3  1  0  0  0  0
 18  1  1  0  0  0  0
 18 13  1  0  0  0  0
 19 18  1  0  0  0  0
 20 18  1  0  0  0  0
 21 12  1  0  0  0  0
 22 21  2  0  0  0  0
 22  5  1  0  0  0  0
 23 26  1  0  0  0  0
 24 23  1  0  0  0  0
 25 23  1  0  0  0  0
 27 23  1  0  0  0  0
 27 21  1  0  0  0  0
 27 28  1  0  0  0  0
 29 27  1  0  0  0  0
 30 31  1  0  0  0  0
 30 22  1  0  0  0  0
 30 33  1  0  0  0  0
 32 30  1  0  0  0  0
 34 36  1  0  0  0  0
 34 35  1  0  0  0  0
 34 37  1  0  0  0  0
 38 41  1  0  0  0  0
 38 39  1  0  0  0  0
 38  3  1  0  0  0  0
 40 38  1  0  0  0  0
M  END
