1,2
 OpenBabel05122313063D

 69 72  0  0  0  0  0  0  0  0999 V2000
    1.8700   -0.0629    0.2053 P   0  0  0  0  0  0  0  0  0  0  0  0
   -1.6883    0.3727    0.1827 P   0  0  0  0  0  0  0  0  0  0  0  0
   -0.1512   -2.0608    1.5972 N   0  0  0  0  0  0  0  0  0  0  0  0
    2.2196   -1.2567    1.5740 C   0  0  0  0  0  0  0  0  0  0  0  0
    0.9687   -1.5500    2.4064 C   0  0  0  0  0  0  0  0  0  0  0  0
   -1.4685   -1.6448    2.1046 C   0  0  0  0  0  0  0  0  0  0  0  0
   -1.7178   -0.1415    1.9572 C   0  0  0  0  0  0  0  0  0  0  0  0
   -0.0721   -3.5291    1.4032 C   0  0  0  0  0  0  0  0  0  0  0  0
   -0.3438   -4.4043    2.6336 C   0  0  0  0  0  0  0  0  0  0  0  0
   -0.1458   -5.8851    2.3035 C   0  0  0  0  0  0  0  0  0  0  0  0
    1.8148    1.6042    0.9873 C   0  0  0  0  0  0  0  0  0  0  0  0
    1.7017    2.7098    0.1166 C   0  0  0  0  0  0  0  0  0  0  0  0
    1.7020    4.0137    0.6239 C   0  0  0  0  0  0  0  0  0  0  0  0
    1.7938    4.2335    2.0087 C   0  0  0  0  0  0  0  0  0  0  0  0
    1.8929    3.1415    2.8817 C   0  0  0  0  0  0  0  0  0  0  0  0
    1.9107    1.8309    2.3741 C   0  0  0  0  0  0  0  0  0  0  0  0
    3.4505    0.0723   -0.7317 C   0  0  0  0  0  0  0  0  0  0  0  0
    4.6168    0.4927   -0.0591 C   0  0  0  0  0  0  0  0  0  0  0  0
    5.8233    0.6288   -0.7596 C   0  0  0  0  0  0  0  0  0  0  0  0
    5.8675    0.3613   -2.1380 C   0  0  0  0  0  0  0  0  0  0  0  0
    4.7040   -0.0418   -2.8111 C   0  0  0  0  0  0  0  0  0  0  0  0
    3.4953   -0.1907   -2.1134 C   0  0  0  0  0  0  0  0  0  0  0  0
   -1.5304    2.2077    0.1996 C   0  0  0  0  0  0  0  0  0  0  0  0
   -1.3910    2.8539   -1.0469 C   0  0  0  0  0  0  0  0  0  0  0  0
   -1.3891    4.2527   -1.1198 C   0  0  0  0  0  0  0  0  0  0  0  0
   -1.5118    5.0212    0.0497 C   0  0  0  0  0  0  0  0  0  0  0  0
   -1.6314    4.3824    1.2925 C   0  0  0  0  0  0  0  0  0  0  0  0
   -1.6478    2.9809    1.3697 C   0  0  0  0  0  0  0  0  0  0  0  0
   -3.4274    0.2452   -0.4307 C   0  0  0  0  0  0  0  0  0  0  0  0
   -3.6253    0.0751   -1.8160 C   0  0  0  0  0  0  0  0  0  0  0  0
   -4.9225    0.0835   -2.3462 C   0  0  0  0  0  0  0  0  0  0  0  0
   -6.0318    0.2480   -1.5009 C   0  0  0  0  0  0  0  0  0  0  0  0
   -5.8393    0.4167   -0.1214 C   0  0  0  0  0  0  0  0  0  0  0  0
   -4.5406    0.4233    0.4114 C   0  0  0  0  0  0  0  0  0  0  0  0
    1.6210    2.5388   -0.9679 H   0  0  0  0  0  0  0  0  0  0  0  0
    1.6170    4.8656   -0.0662 H   0  0  0  0  0  0  0  0  0  0  0  0
    1.7859    5.2596    2.4062 H   0  0  0  0  0  0  0  0  0  0  0  0
    1.9711    3.3059    3.9673 H   0  0  0  0  0  0  0  0  0  0  0  0
    2.0236    0.9907    3.0745 H   0  0  0  0  0  0  0  0  0  0  0  0
    4.5813    0.7321    1.0156 H   0  0  0  0  0  0  0  0  0  0  0  0
    6.7313    0.9526   -0.2283 H   0  0  0  0  0  0  0  0  0  0  0  0
    6.8137    0.4717   -2.6895 H   0  0  0  0  0  0  0  0  0  0  0  0
    4.7343   -0.2500   -3.8912 H   0  0  0  0  0  0  0  0  0  0  0  0
    2.5864   -0.5260   -2.6321 H   0  0  0  0  0  0  0  0  0  0  0  0
   -1.2751    2.2518   -1.9614 H   0  0  0  0  0  0  0  0  0  0  0  0
   -1.2866    4.7463   -2.0982 H   0  0  0  0  0  0  0  0  0  0  0  0
   -1.5088    6.1203   -0.0077 H   0  0  0  0  0  0  0  0  0  0  0  0
   -1.7157    4.9776    2.2144 H   0  0  0  0  0  0  0  0  0  0  0  0
   -1.7550    2.5013    2.3532 H   0  0  0  0  0  0  0  0  0  0  0  0
   -2.7571   -0.0835   -2.4723 H   0  0  0  0  0  0  0  0  0  0  0  0
   -5.0674   -0.0556   -3.4281 H   0  0  0  0  0  0  0  0  0  0  0  0
   -7.0501    0.2434   -1.9186 H   0  0  0  0  0  0  0  0  0  0  0  0
   -6.7039    0.5489    0.5468 H   0  0  0  0  0  0  0  0  0  0  0  0
   -4.4093    0.5785    1.4932 H   0  0  0  0  0  0  0  0  0  0  0  0
    3.0517   -0.8931    2.2105 H   0  0  0  0  0  0  0  0  0  0  0  0
    2.5653   -2.1647    1.0384 H   0  0  0  0  0  0  0  0  0  0  0  0
    1.2329   -2.2663    3.2190 H   0  0  0  0  0  0  0  0  0  0  0  0
    0.6425   -0.6254    2.9203 H   0  0  0  0  0  0  0  0  0  0  0  0
   -1.6059   -1.9239    3.1775 H   0  0  0  0  0  0  0  0  0  0  0  0
   -2.2264   -2.2024    1.5162 H   0  0  0  0  0  0  0  0  0  0  0  0
   -2.6754    0.1362    2.4395 H   0  0  0  0  0  0  0  0  0  0  0  0
   -0.9245    0.4497    2.4595 H   0  0  0  0  0  0  0  0  0  0  0  0
    0.9292   -3.7502    0.9835 H   0  0  0  0  0  0  0  0  0  0  0  0
   -0.7821   -3.7789    0.5887 H   0  0  0  0  0  0  0  0  0  0  0  0
   -1.3819   -4.2447    2.9974 H   0  0  0  0  0  0  0  0  0  0  0  0
    0.3239   -4.1224    3.4783 H   0  0  0  0  0  0  0  0  0  0  0  0
   -0.3588   -6.5328    3.1772 H   0  0  0  0  0  0  0  0  0  0  0  0
   -0.8138   -6.2017    1.4762 H   0  0  0  0  0  0  0  0  0  0  0  0
    0.8952   -6.0882    1.9772 H   0  0  0  0  0  0  0  0  0  0  0  0
  1 11  1  0  0  0  0
  1  4  1  0  0  0  0
  2 23  1  0  0  0  0
  2  7  1  0  0  0  0
  3  6  1  0  0  0  0
  3  5  1  0  0  0  0
  4 55  1  0  0  0  0
  4  5  1  0  0  0  0
  5 58  1  0  0  0  0
  5 57  1  0  0  0  0
  6 59  1  0  0  0  0
  7  6  1  0  0  0  0
  7 61  1  0  0  0  0
  7 62  1  0  0  0  0
  8  3  1  0  0  0  0
  8  9  1  0  0  0  0
  9 65  1  0  0  0  0
  9 66  1  0  0  0  0
 10  9  1  0  0  0  0
 10 67  1  0  0  0  0
 11 16  1  0  0  0  0
 12 13  1  0  0  0  0
 12 11  2  0  0  0  0
 13 14  2  0  0  0  0
 14 37  1  0  0  0  0
 14 15  1  0  0  0  0
 15 38  1  0  0  0  0
 16 15  2  0  0  0  0
 16 39  1  0  0  0  0
 17 18  1  0  0  0  0
 17  1  1  0  0  0  0
 18 40  1  0  0  0  0
 19 41  1  0  0  0  0
 19 18  2  0  0  0  0
 20 19  1  0  0  0  0
 21 20  2  0  0  0  0
 21 22  1  0  0  0  0
 22 17  2  0  0  0  0
 23 28  1  0  0  0  0
 24 23  2  0  0  0  0
 25 24  1  0  0  0  0
 25 26  2  0  0  0  0
 26 27  1  0  0  0  0
 27 28  2  0  0  0  0
 27 48  1  0  0  0  0
 28 49  1  0  0  0  0
 29  2  1  0  0  0  0
 29 34  1  0  0  0  0
 30 29  2  0  0  0  0
 31 30  1  0  0  0  0
 31 32  2  0  0  0  0
 32 33  1  0  0  0  0
 33 34  2  0  0  0  0
 33 53  1  0  0  0  0
 34 54  1  0  0  0  0
 35 12  1  0  0  0  0
 36 13  1  0  0  0  0
 42 20  1  0  0  0  0
 43 21  1  0  0  0  0
 44 22  1  0  0  0  0
 45 24  1  0  0  0  0
 46 25  1  0  0  0  0
 47 26  1  0  0  0  0
 50 30  1  0  0  0  0
 51 31  1  0  0  0  0
 52 32  1  0  0  0  0
 56  4  1  0  0  0  0
 60  6  1  0  0  0  0
 63  8  1  0  0  0  0
 64  8  1  0  0  0  0
 68 10  1  0  0  0  0
 69 10  1  0  0  0  0
M  END
