1,3
 OpenBabel05122313063D

 60 64  0  0  0  0  0  0  0  0999 V2000
   -0.6550    1.8067   -0.7550 P   0  0  0  0  0  0  0  0  0  0  0  0
   -0.6078    2.3684   -2.0712 H   0  0  0  0  0  0  0  0  0  0  0  0
   -1.1798   -1.1391    0.0741 P   0  0  0  0  0  0  0  0  0  0  0  0
   -2.4194    1.2638   -0.6005 C   0  0  0  0  0  0  0  0  0  0  0  0
   -2.6574   -0.0417   -0.2590 C   0  0  0  0  0  0  0  0  0  0  0  0
   -3.4756    2.2923   -0.7758 C   0  0  0  0  0  0  0  0  0  0  0  0
   -4.4967    2.4457    0.1904 C   0  0  0  0  0  0  0  0  0  0  0  0
   -4.5104    1.7853    1.0688 H   0  0  0  0  0  0  0  0  0  0  0  0
   -5.4775    3.4334    0.0414 C   0  0  0  0  0  0  0  0  0  0  0  0
   -6.2590    3.5430    0.8083 H   0  0  0  0  0  0  0  0  0  0  0  0
   -5.4639    4.2814   -1.0779 C   0  0  0  0  0  0  0  0  0  0  0  0
   -6.2370    5.0557   -1.1950 H   0  0  0  0  0  0  0  0  0  0  0  0
   -4.4545    4.1412   -2.0429 C   0  0  0  0  0  0  0  0  0  0  0  0
   -4.4348    4.8018   -2.9226 H   0  0  0  0  0  0  0  0  0  0  0  0
   -3.4628    3.1633   -1.8884 C   0  0  0  0  0  0  0  0  0  0  0  0
   -2.6762    3.0635   -2.6511 H   0  0  0  0  0  0  0  0  0  0  0  0
   -4.0293   -0.6110   -0.1904 C   0  0  0  0  0  0  0  0  0  0  0  0
   -4.8291   -0.6337   -1.3558 C   0  0  0  0  0  0  0  0  0  0  0  0
   -4.4240   -0.2230   -2.2927 H   0  0  0  0  0  0  0  0  0  0  0  0
   -6.1258   -1.1610   -1.3229 C   0  0  0  0  0  0  0  0  0  0  0  0
   -6.7312   -1.1749   -2.2418 H   0  0  0  0  0  0  0  0  0  0  0  0
   -6.6527   -1.6646   -0.1227 C   0  0  0  0  0  0  0  0  0  0  0  0
   -7.6723   -2.0777   -0.0965 H   0  0  0  0  0  0  0  0  0  0  0  0
   -5.8748   -1.6296    1.0445 C   0  0  0  0  0  0  0  0  0  0  0  0
   -6.2851   -2.0060    1.9938 H   0  0  0  0  0  0  0  0  0  0  0  0
   -4.5724   -1.1100    1.0141 C   0  0  0  0  0  0  0  0  0  0  0  0
   -3.9803   -1.0643    1.9376 H   0  0  0  0  0  0  0  0  0  0  0  0
   -0.4740    3.2920    0.2847 C   0  0  0  0  0  0  0  0  0  0  0  0
   -1.0837    3.3453    1.5531 C   0  0  0  0  0  0  0  0  0  0  0  0
   -1.7952    2.5619    1.8574 H   0  0  0  0  0  0  0  0  0  0  0  0
   -0.7680    4.3884    2.4337 C   0  0  0  0  0  0  0  0  0  0  0  0
   -1.2484    4.4320    3.4228 H   0  0  0  0  0  0  0  0  0  0  0  0
    0.1708    5.3649    2.0628 C   0  0  0  0  0  0  0  0  0  0  0  0
    0.4313    6.1718    2.7641 H   0  0  0  0  0  0  0  0  0  0  0  0
    0.7838    5.3081    0.8016 C   0  0  0  0  0  0  0  0  0  0  0  0
    1.5280    6.0654    0.5134 H   0  0  0  0  0  0  0  0  0  0  0  0
    0.4574    4.2795   -0.0936 C   0  0  0  0  0  0  0  0  0  0  0  0
    0.9538    4.2275   -1.0751 H   0  0  0  0  0  0  0  0  0  0  0  0
   -1.4092   -2.6697   -0.8883 C   0  0  0  0  0  0  0  0  0  0  0  0
   -2.0254   -2.6310   -2.1547 C   0  0  0  0  0  0  0  0  0  0  0  0
   -2.5174   -1.7108   -2.5008 H   0  0  0  0  0  0  0  0  0  0  0  0
   -1.9919   -3.7582   -2.9865 C   0  0  0  0  0  0  0  0  0  0  0  0
   -2.4789   -3.7220   -3.9726 H   0  0  0  0  0  0  0  0  0  0  0  0
   -1.3242   -4.9215   -2.5719 C   0  0  0  0  0  0  0  0  0  0  0  0
   -1.2831   -5.7988   -3.2346 H   0  0  0  0  0  0  0  0  0  0  0  0
   -0.6965   -4.9595   -1.3174 C   0  0  0  0  0  0  0  0  0  0  0  0
   -0.1519   -5.8602   -0.9974 H   0  0  0  0  0  0  0  0  0  0  0  0
   -0.7426   -3.8428   -0.4714 C   0  0  0  0  0  0  0  0  0  0  0  0
   -0.2287   -3.8722    0.5005 H   0  0  0  0  0  0  0  0  0  0  0  0
   -1.3199   -1.5972    1.8462 C   0  0  0  0  0  0  0  0  0  0  0  0
   -0.6666   -0.7620    2.7775 C   0  0  0  0  0  0  0  0  0  0  0  0
   -0.0672    0.0890    2.4152 H   0  0  0  0  0  0  0  0  0  0  0  0
   -0.7498   -1.0446    4.1482 C   0  0  0  0  0  0  0  0  0  0  0  0
   -0.2280   -0.3967    4.8682 H   0  0  0  0  0  0  0  0  0  0  0  0
   -1.4733   -2.1620    4.5949 C   0  0  0  0  0  0  0  0  0  0  0  0
   -1.5273   -2.3886    5.6706 H   0  0  0  0  0  0  0  0  0  0  0  0
   -2.1162   -3.0002    3.6687 C   0  0  0  0  0  0  0  0  0  0  0  0
   -2.6761   -3.8815    4.0167 H   0  0  0  0  0  0  0  0  0  0  0  0
   -2.0445   -2.7208    2.2962 C   0  0  0  0  0  0  0  0  0  0  0  0
   -2.5525   -3.3755    1.5731 H   0  0  0  0  0  0  0  0  0  0  0  0
  1  4  1  0  0  0  0
  1 28  1  0  0  0  0
  2  1  1  0  0  0  0
  3 50  1  0  0  0  0
  4  5  2  0  0  0  0
  5 17  1  0  0  0  0
  5  3  1  0  0  0  0
  6  4  1  0  0  0  0
  6  7  1  0  0  0  0
  7  8  1  0  0  0  0
  9  7  2  0  0  0  0
  9 10  1  0  0  0  0
 11  9  1  0  0  0  0
 12 11  1  0  0  0  0
 13 15  1  0  0  0  0
 13 11  2  0  0  0  0
 14 13  1  0  0  0  0
 15  6  2  0  0  0  0
 16 15  1  0  0  0  0
 17 26  1  0  0  0  0
 18 20  1  0  0  0  0
 18 17  2  0  0  0  0
 19 18  1  0  0  0  0
 20 22  2  0  0  0  0
 21 20  1  0  0  0  0
 22 23  1  0  0  0  0
 22 24  1  0  0  0  0
 24 25  1  0  0  0  0
 26 24  2  0  0  0  0
 26 27  1  0  0  0  0
 28 29  1  0  0  0  0
 29 30  1  0  0  0  0
 29 31  2  0  0  0  0
 31 32  1  0  0  0  0
 33 31  1  0  0  0  0
 33 34  1  0  0  0  0
 35 33  2  0  0  0  0
 36 35  1  0  0  0  0
 37 28  2  0  0  0  0
 37 35  1  0  0  0  0
 38 37  1  0  0  0  0
 39 48  1  0  0  0  0
 39  3  1  0  0  0  0
 40 39  2  0  0  0  0
 41 40  1  0  0  0  0
 42 44  2  0  0  0  0
 42 40  1  0  0  0  0
 43 42  1  0  0  0  0
 44 46  1  0  0  0  0
 45 44  1  0  0  0  0
 46 47  1  0  0  0  0
 46 48  2  0  0  0  0
 48 49  1  0  0  0  0
 50 59  2  0  0  0  0
 50 51  1  0  0  0  0
 51 53  2  0  0  0  0
 52 51  1  0  0  0  0
 53 55  1  0  0  0  0
 53 54  1  0  0  0  0
 55 56  1  0  0  0  0
 57 58  1  0  0  0  0
 57 55  2  0  0  0  0
 59 57  1  0  0  0  0
 60 59  1  0  0  0  0
M  END
