1,2
 OpenBabel05122313063D

 50 53  0  0  0  0  0  0  0  0999 V2000
    0.0930    1.7530    0.4406 P   0  0  0  0  0  0  0  0  0  0  0  0
    1.7064   -0.5114    0.4239 P   0  0  0  0  0  0  0  0  0  0  0  0
    1.6682    1.1552    1.1965 C   0  0  0  0  0  0  0  0  0  0  0  0
    2.3768    1.6256    2.2395 C   0  0  0  0  0  0  0  0  0  0  0  0
    2.1211    2.5863    2.7176 H   0  0  0  0  0  0  0  0  0  0  0  0
    3.2114    1.0454    2.6684 H   0  0  0  0  0  0  0  0  0  0  0  0
    0.6352    2.5922   -1.0916 C   0  0  0  0  0  0  0  0  0  0  0  0
    0.1906    2.0858   -2.3289 C   0  0  0  0  0  0  0  0  0  0  0  0
   -0.5144    1.2393   -2.3472 H   0  0  0  0  0  0  0  0  0  0  0  0
    0.6717    2.6401   -3.5249 C   0  0  0  0  0  0  0  0  0  0  0  0
    0.3307    2.2378   -4.4902 H   0  0  0  0  0  0  0  0  0  0  0  0
    1.5913    3.6993   -3.4869 C   0  0  0  0  0  0  0  0  0  0  0  0
    1.9701    4.1316   -4.4252 H   0  0  0  0  0  0  0  0  0  0  0  0
    2.0346    4.2078   -2.2532 C   0  0  0  0  0  0  0  0  0  0  0  0
    2.7584    5.0362   -2.2260 H   0  0  0  0  0  0  0  0  0  0  0  0
    1.5646    3.6535   -1.0554 C   0  0  0  0  0  0  0  0  0  0  0  0
    1.9297    4.0368   -0.0899 H   0  0  0  0  0  0  0  0  0  0  0  0
   -0.6094    3.0115    1.5623 C   0  0  0  0  0  0  0  0  0  0  0  0
   -0.9122    2.6167    2.8847 C   0  0  0  0  0  0  0  0  0  0  0  0
   -0.6704    1.5972    3.2250 H   0  0  0  0  0  0  0  0  0  0  0  0
   -1.5244    3.5210    3.7624 C   0  0  0  0  0  0  0  0  0  0  0  0
   -1.7526    3.2119    4.7934 H   0  0  0  0  0  0  0  0  0  0  0  0
   -1.8525    4.8159    3.3248 C   0  0  0  0  0  0  0  0  0  0  0  0
   -2.3370    5.5230    4.0145 H   0  0  0  0  0  0  0  0  0  0  0  0
   -1.5659    5.2046    2.0073 C   0  0  0  0  0  0  0  0  0  0  0  0
   -1.8253    6.2164    1.6613 H   0  0  0  0  0  0  0  0  0  0  0  0
   -0.9460    4.3077    1.1230 C   0  0  0  0  0  0  0  0  0  0  0  0
   -0.7279    4.6166    0.0900 H   0  0  0  0  0  0  0  0  0  0  0  0
    2.6539   -1.6303    1.5028 C   0  0  0  0  0  0  0  0  0  0  0  0
    2.0154   -2.1432    2.6526 C   0  0  0  0  0  0  0  0  0  0  0  0
    0.9576   -1.9019    2.8441 H   0  0  0  0  0  0  0  0  0  0  0  0
    2.7260   -2.9748    3.5273 C   0  0  0  0  0  0  0  0  0  0  0  0
    2.2298   -3.3790    4.4221 H   0  0  0  0  0  0  0  0  0  0  0  0
    4.0656   -3.3026    3.2542 C   0  0  0  0  0  0  0  0  0  0  0  0
    4.6190   -3.9618    3.9396 H   0  0  0  0  0  0  0  0  0  0  0  0
    4.6967   -2.7999    2.1054 C   0  0  0  0  0  0  0  0  0  0  0  0
    5.7430   -3.0629    1.8899 H   0  0  0  0  0  0  0  0  0  0  0  0
    3.9949   -1.9628    1.2241 C   0  0  0  0  0  0  0  0  0  0  0  0
    4.4851   -1.5729    0.3192 H   0  0  0  0  0  0  0  0  0  0  0  0
    2.6107   -0.3276   -1.1513 C   0  0  0  0  0  0  0  0  0  0  0  0
    3.5676    0.6920   -1.3271 C   0  0  0  0  0  0  0  0  0  0  0  0
    3.7963    1.3828   -0.5018 H   0  0  0  0  0  0  0  0  0  0  0  0
    4.2074    0.8383   -2.5665 C   0  0  0  0  0  0  0  0  0  0  0  0
    4.9463    1.6412   -2.7071 H   0  0  0  0  0  0  0  0  0  0  0  0
    3.9004   -0.0317   -3.6249 C   0  0  0  0  0  0  0  0  0  0  0  0
    4.4023    0.0881   -4.5968 H   0  0  0  0  0  0  0  0  0  0  0  0
    2.9492   -1.0505   -3.4482 C   0  0  0  0  0  0  0  0  0  0  0  0
    2.7058   -1.7294   -4.2790 H   0  0  0  0  0  0  0  0  0  0  0  0
    2.2959   -1.1976   -2.2169 C   0  0  0  0  0  0  0  0  0  0  0  0
    1.5296   -1.9769   -2.0830 H   0  0  0  0  0  0  0  0  0  0  0  0
  1  3  1  0  0  0  0
  1 18  1  0  0  0  0
  2  3  1  0  0  0  0
  2 29  1  0  0  0  0
  3  4  2  0  0  0  0
  4  6  1  0  0  0  0
  4  5  1  0  0  0  0
  7 16  1  0  0  0  0
  7  1  1  0  0  0  0
  8  7  2  0  0  0  0
  9  8  1  0  0  0  0
 10 12  2  0  0  0  0
 10  8  1  0  0  0  0
 11 10  1  0  0  0  0
 12 14  1  0  0  0  0
 13 12  1  0  0  0  0
 14 15  1  0  0  0  0
 14 16  2  0  0  0  0
 16 17  1  0  0  0  0
 18 19  1  0  0  0  0
 19 20  1  0  0  0  0
 19 21  2  0  0  0  0
 21 22  1  0  0  0  0
 23 21  1  0  0  0  0
 23 24  1  0  0  0  0
 25 23  2  0  0  0  0
 26 25  1  0  0  0  0
 27 18  2  0  0  0  0
 27 25  1  0  0  0  0
 28 27  1  0  0  0  0
 29 30  1  0  0  0  0
 30 31  1  0  0  0  0
 30 32  2  0  0  0  0
 32 33  1  0  0  0  0
 34 32  1  0  0  0  0
 34 35  1  0  0  0  0
 36 34  2  0  0  0  0
 37 36  1  0  0  0  0
 38 29  2  0  0  0  0
 38 36  1  0  0  0  0
 39 38  1  0  0  0  0
 40  2  1  0  0  0  0
 41 40  1  0  0  0  0
 41 42  1  0  0  0  0
 43 41  2  0  0  0  0
 44 43  1  0  0  0  0
 45 47  2  0  0  0  0
 45 43  1  0  0  0  0
 46 45  1  0  0  0  0
 47 49  1  0  0  0  0
 48 47  1  0  0  0  0
 49 50  1  0  0  0  0
 49 40  2  0  0  0  0
M  END
