1,11
 OpenBabel05122313063D

 64 64  0  0  0  0  0  0  0  0999 V2000
   -0.3714    1.3038    0.7316 P   0  0  1  0  0  0  0  0  0  0  0  0
    0.0417    0.8825    2.4858 C   0  0  0  0  0  0  0  0  0  0  0  0
    0.8959    1.5331    2.7702 H   0  0  0  0  0  0  0  0  0  0  0  0
   -0.8063    1.1881    3.1268 H   0  0  0  0  0  0  0  0  0  0  0  0
    0.3809   -0.5885    2.7228 C   0  0  0  0  0  0  0  0  0  0  0  0
    0.2970   -0.7902    3.8122 H   0  0  0  0  0  0  0  0  0  0  0  0
   -0.3791   -1.2351    2.2415 H   0  0  0  0  0  0  0  0  0  0  0  0
    1.8001   -0.9696    2.3009 C   0  0  0  0  0  0  0  0  0  0  0  0
    2.0581   -1.9750    2.6900 H   0  0  0  0  0  0  0  0  0  0  0  0
    2.5004   -0.2645    2.7919 H   0  0  0  0  0  0  0  0  0  0  0  0
    2.2748   -0.9412    0.4962 P   0  0  0  0  0  0  0  0  0  0  0  0
   -1.9838    0.4465    0.4623 C   0  0  0  0  0  0  0  0  0  0  0  0
   -2.3687    0.1393   -0.8612 C   0  0  0  0  0  0  0  0  0  0  0  0
   -1.7081    0.4341   -1.6942 H   0  0  0  0  0  0  0  0  0  0  0  0
   -3.5818   -0.5127   -1.1115 C   0  0  0  0  0  0  0  0  0  0  0  0
   -3.8715   -0.7541   -2.1443 H   0  0  0  0  0  0  0  0  0  0  0  0
   -4.4244   -0.8723   -0.0453 C   0  0  0  0  0  0  0  0  0  0  0  0
   -4.0493   -0.5730    1.2744 C   0  0  0  0  0  0  0  0  0  0  0  0
   -4.7043   -0.8639    2.1079 H   0  0  0  0  0  0  0  0  0  0  0  0
   -2.8373    0.0840    1.5255 C   0  0  0  0  0  0  0  0  0  0  0  0
   -2.5651    0.3025    2.5679 H   0  0  0  0  0  0  0  0  0  0  0  0
   -5.7542   -1.5353   -0.3217 C   0  0  0  0  0  0  0  0  0  0  0  0
   -6.7261   -0.6146   -0.5390 F   0  0  0  0  0  0  0  0  0  0  0  0
   -6.1591   -2.3027    0.7195 F   0  0  0  0  0  0  0  0  0  0  0  0
   -5.7017   -2.3258   -1.4187 F   0  0  0  0  0  0  0  0  0  0  0  0
   -0.7893    3.1818    0.8401 C   0  0  0  0  0  0  0  0  0  0  0  0
   -1.8931    3.5321   -0.1717 C   0  0  0  0  0  0  0  0  0  0  0  0
   -2.0556    4.6304   -0.1448 H   0  0  0  0  0  0  0  0  0  0  0  0
   -2.8525    3.0416    0.0868 H   0  0  0  0  0  0  0  0  0  0  0  0
   -1.6033    3.2438   -1.1988 H   0  0  0  0  0  0  0  0  0  0  0  0
   -1.2946    3.5433    2.2482 C   0  0  0  0  0  0  0  0  0  0  0  0
   -1.6121    4.6069    2.2349 H   0  0  0  0  0  0  0  0  0  0  0  0
   -0.5180    3.4466    3.0311 H   0  0  0  0  0  0  0  0  0  0  0  0
   -2.1821    2.9465    2.5434 H   0  0  0  0  0  0  0  0  0  0  0  0
    0.5106    3.9423    0.5278 C   0  0  0  0  0  0  0  0  0  0  0  0
    0.3355    5.0321    0.6498 H   0  0  0  0  0  0  0  0  0  0  0  0
    0.8376    3.7490   -0.5121 H   0  0  0  0  0  0  0  0  0  0  0  0
    1.3353    3.6561    1.2141 H   0  0  0  0  0  0  0  0  0  0  0  0
    4.1936   -0.7840    0.6730 C   0  0  0  0  0  0  0  0  0  0  0  0
    4.4610    0.7334    0.7122 C   0  0  0  0  0  0  0  0  0  0  0  0
    5.5409    0.9084    0.9037 H   0  0  0  0  0  0  0  0  0  0  0  0
    3.8928    1.2390    1.5217 H   0  0  0  0  0  0  0  0  0  0  0  0
    4.1882    1.2020   -0.2533 H   0  0  0  0  0  0  0  0  0  0  0  0
    4.7228   -1.4351    1.9682 C   0  0  0  0  0  0  0  0  0  0  0  0
    5.8309   -1.3716    1.9486 H   0  0  0  0  0  0  0  0  0  0  0  0
    4.4593   -2.5065    2.0520 H   0  0  0  0  0  0  0  0  0  0  0  0
    4.3923   -0.9194    2.8893 H   0  0  0  0  0  0  0  0  0  0  0  0
    4.9452   -1.4098   -0.5152 C   0  0  0  0  0  0  0  0  0  0  0  0
    6.0207   -1.1504   -0.4171 H   0  0  0  0  0  0  0  0  0  0  0  0
    4.5757   -1.0136   -1.4785 H   0  0  0  0  0  0  0  0  0  0  0  0
    4.8757   -2.5150   -0.5166 H   0  0  0  0  0  0  0  0  0  0  0  0
    1.7479   -2.6751   -0.1367 C   0  0  0  0  0  0  0  0  0  0  0  0
    2.4662   -3.8066    0.6175 C   0  0  0  0  0  0  0  0  0  0  0  0
    2.0553   -4.7789    0.2722 H   0  0  0  0  0  0  0  0  0  0  0  0
    2.3103   -3.7636    1.7143 H   0  0  0  0  0  0  0  0  0  0  0  0
    3.5541   -3.8217    0.4170 H   0  0  0  0  0  0  0  0  0  0  0  0
    2.0108   -2.8054   -1.6465 C   0  0  0  0  0  0  0  0  0  0  0  0
    1.6414   -3.7995   -1.9770 H   0  0  0  0  0  0  0  0  0  0  0  0
    3.0819   -2.7345   -1.9042 H   0  0  0  0  0  0  0  0  0  0  0  0
    1.4857   -2.0216   -2.2236 H   0  0  0  0  0  0  0  0  0  0  0  0
    0.2276   -2.7911    0.0928 C   0  0  0  0  0  0  0  0  0  0  0  0
   -0.1379   -3.7109   -0.4099 H   0  0  0  0  0  0  0  0  0  0  0  0
   -0.3228   -1.9317   -0.3409 H   0  0  0  0  0  0  0  0  0  0  0  0
   -0.0367   -2.8798    1.1641 H   0  0  0  0  0  0  0  0  0  0  0  0
  1 26  1  1  0  0  0
  1  2  1  0  0  0  0
  2  5  1  0  0  0  0
  2  3  1  0  0  0  0
  2  4  1  0  0  0  0
  5  6  1  0  0  0  0
  7  5  1  0  0  0  0
  8  9  1  0  0  0  0
  8  5  1  0  0  0  0
  8 10  1  0  0  0  0
 11 39  1  0  0  0  0
 11  8  1  0  0  0  0
 12  1  1  0  0  0  0
 12 20  1  0  0  0  0
 13 12  2  0  0  0  0
 14 13  1  0  0  0  0
 15 13  1  0  0  0  0
 15 17  2  0  0  0  0
 16 15  1  0  0  0  0
 17 18  1  0  0  0  0
 18 20  2  0  0  0  0
 18 19  1  0  0  0  0
 20 21  1  0  0  0  0
 22 17  1  0  0  0  0
 22 24  1  0  0  0  0
 23 22  1  0  0  0  0
 25 22  1  0  0  0  0
 26 31  1  0  0  0  0
 27 28  1  0  0  0  0
 27 29  1  0  0  0  0
 27 26  1  0  0  0  0
 30 27  1  0  0  0  0
 31 34  1  0  0  0  0
 31 33  1  0  0  0  0
 32 31  1  0  0  0  0
 35 36  1  0  0  0  0
 35 26  1  0  0  0  0
 35 38  1  0  0  0  0
 37 35  1  0  0  0  0
 39 40  1  0  0  0  0
 39 44  1  0  0  0  0
 40 41  1  0  0  0  0
 40 42  1  0  0  0  0
 43 40  1  0  0  0  0
 44 46  1  0  0  0  0
 44 47  1  0  0  0  0
 45 44  1  0  0  0  0
 48 49  1  0  0  0  0
 48 39  1  0  0  0  0
 50 48  1  0  0  0  0
 51 48  1  0  0  0  0
 52 61  1  0  0  0  0
 52 11  1  0  0  0  0
 52 53  1  0  0  0  0
 53 55  1  0  0  0  0
 54 53  1  0  0  0  0
 56 53  1  0  0  0  0
 57 52  1  0  0  0  0
 58 57  1  0  0  0  0
 59 57  1  0  0  0  0
 60 57  1  0  0  0  0
 61 64  1  0  0  0  0
 62 61  1  0  0  0  0
 63 61  1  0  0  0  0
M  END
