1,2
 OpenBabel05122313063D

 57 63  0  0  1  0  0  0  0  0999 V2000
   -2.0278   -0.0197   -0.4730 P   0  0  2  0  0  0  0  0  0  0  0  0
    1.6662    0.0250    0.0138 P   0  0  2  0  0  0  0  0  0  0  0  0
   -0.4994    3.2722   -2.3548 O   0  0  0  0  0  0  0  0  0  0  0  0
    1.0139    2.1126   -3.4995 O   0  0  0  0  0  0  0  0  0  0  0  0
   -1.8104    1.3052   -1.7789 C   0  0  0  0  0  0  0  0  0  0  0  0
   -0.4586    1.9924   -1.6692 C   0  0  1  0  0  0  0  0  0  0  0  0
    0.7054    1.2499   -2.3693 C   0  0  2  0  0  0  0  0  0  0  0  0
    1.9588    1.0538   -1.5357 C   0  0  0  0  0  0  0  0  0  0  0  0
    0.3404    3.2638   -3.3984 C   0  0  1  0  0  3  0  0  0  0  0  0
    0.6294    5.3005   -5.0512 C   0  0  0  0  0  3  0  0  0  0  0  0
    0.4870    4.3086   -4.2548 C   0  0  0  0  0  0  0  0  0  0  0  0
   -3.6895   -0.6570   -0.9453 C   0  0  0  0  0  0  0  0  0  0  0  0
   -3.7468   -1.7394   -1.8464 C   0  0  0  0  0  0  0  0  0  0  0  0
   -4.9880   -2.2428   -2.2604 C   0  0  0  0  0  0  0  0  0  0  0  0
   -6.1761   -1.6807   -1.7668 C   0  0  0  0  0  0  0  0  0  0  0  0
   -6.1215   -0.6046   -0.8673 C   0  0  0  0  0  0  0  0  0  0  0  0
   -4.8830   -0.0857   -0.4605 C   0  0  0  0  0  0  0  0  0  0  0  0
    1.9602    1.2440    1.3626 C   0  0  0  0  0  0  0  0  0  0  0  0
    3.2127    1.8829    1.4929 C   0  0  0  0  0  0  0  0  0  0  0  0
    3.4220    2.8137    2.5193 C   0  0  0  0  0  0  0  0  0  0  0  0
    2.3842    3.1222    3.4156 C   0  0  0  0  0  0  0  0  0  0  0  0
    1.1387    2.4891    3.2891 C   0  0  0  0  0  0  0  0  0  0  0  0
    0.9302    1.5468    2.2702 C   0  0  0  0  0  0  0  0  0  0  0  0
   -2.4061    1.1247    0.9128 C   0  0  1  0  0  3  0  0  0  0  0  0
   -2.6461    1.2204    2.2507 C   0  0  1  0  0  3  0  0  0  0  0  0
   -2.7981    1.7653    3.5163 C   0  0  0  0  0  0  0  0  0  0  0  0
   -2.6410    3.1767    3.4138 C   0  0  0  0  0  0  0  0  0  0  0  0
   -2.3898    3.5803    2.0729 C   0  0  0  0  0  3  0  0  0  0  0  0
   -2.3757    2.4488    1.2666 C   0  0  1  0  0  3  0  0  0  0  0  0
    3.2782   -0.8626   -0.0071 C   0  0  1  0  0  3  0  0  0  0  0  0
    4.2936   -1.3590    0.7503 C   0  0  1  0  0  3  0  0  0  0  0  0
    5.4479   -2.0497    1.0883 C   0  0  0  0  0  0  0  0  0  0  0  0
    5.9628   -2.6671   -0.0834 C   0  0  0  0  0  0  0  0  0  0  0  0
    5.1560   -2.3883   -1.2214 C   0  0  0  0  0  3  0  0  0  0  0  0
    4.0934   -1.5875   -0.8298 C   0  0  1  0  0  3  0  0  0  0  0  0
   -1.9454    0.8314   -2.7723 H   0  0  0  0  0  0  0  0  0  0  0  0
   -0.2229    2.2213   -0.6099 H   0  0  0  0  0  0  0  0  0  0  0  0
   -2.6212    2.0472   -1.6348 H   0  0  0  0  0  0  0  0  0  0  0  0
    0.3705    0.2856   -2.7967 H   0  0  0  0  0  0  0  0  0  0  0  0
    2.3726    2.0340   -1.2271 H   0  0  0  0  0  0  0  0  0  0  0  0
    2.7193    0.5242   -2.1420 H   0  0  0  0  0  0  0  0  0  0  0  0
   -2.9918    1.2021    4.4385 H   0  0  0  0  0  0  0  0  0  0  0  0
   -2.6902    3.8702    4.2707 H   0  0  0  0  0  0  0  0  0  0  0  0
   -2.2212    4.6120    1.7372 H   0  0  0  0  0  0  0  0  0  0  0  0
    5.8796   -2.1124    2.0957 H   0  0  0  0  0  0  0  0  0  0  0  0
    6.8716   -3.2923   -0.1067 H   0  0  0  0  0  0  0  0  0  0  0  0
    5.3384   -2.7566   -2.2402 H   0  0  0  0  0  0  0  0  0  0  0  0
   -2.8171   -2.1949   -2.2199 H   0  0  0  0  0  0  0  0  0  0  0  0
   -5.0247   -3.0880   -2.9636 H   0  0  0  0  0  0  0  0  0  0  0  0
   -7.1493   -2.0857   -2.0821 H   0  0  0  0  0  0  0  0  0  0  0  0
   -7.0498   -0.1633   -0.4747 H   0  0  0  0  0  0  0  0  0  0  0  0
   -4.8513    0.7586    0.2437 H   0  0  0  0  0  0  0  0  0  0  0  0
    4.0334    1.6453    0.7991 H   0  0  0  0  0  0  0  0  0  0  0  0
    4.4031    3.3013    2.6204 H   0  0  0  0  0  0  0  0  0  0  0  0
    2.5504    3.8574    4.2173 H   0  0  0  0  0  0  0  0  0  0  0  0
    0.3183    2.7206    3.9840 H   0  0  0  0  0  0  0  0  0  0  0  0
   -0.0394    1.0406    2.1861 H   0  0  0  0  0  0  0  0  0  0  0  0
  1  5  1  6  0  0  0
  2  8  1  6  0  0  0
  2 18  1  0  0  0  0
  3  6  1  0  0  0  0
  4  9  1  0  0  0  0
  4  7  1  0  0  0  0
  5  6  1  0  0  0  0
  5 38  1  0  0  0  0
  6 37  1  1  0  0  0
  7 39  1  6  0  0  0
  7  6  1  0  0  0  0
  7  8  1  0  0  0  0
  8 40  1  0  0  0  0
  9 11  1  6  0  0  0
  9  3  1  0  0  0  0
 10 11  3  0  0  0  0
 12  1  1  0  0  0  0
 12 17  1  0  0  0  0
 13 12  2  0  0  0  0
 14 13  1  0  0  0  0
 14 15  2  0  0  0  0
 15 16  1  0  0  0  0
 16 51  1  0  0  0  0
 16 17  2  0  0  0  0
 17 52  1  0  0  0  0
 18 19  2  0  0  0  0
 18 23  1  0  0  0  0
 19 20  1  0  0  0  0
 20 54  1  0  0  0  0
 20 21  2  0  0  0  0
 21 55  1  0  0  0  0
 22 21  1  0  0  0  0
 22 56  1  0  0  0  0
 23 22  2  0  0  0  0
 24  1  1  1  0  0  0
 24 29  1  0  0  0  0
 24 25  1  0  0  0  0
 25 26  1  1  0  0  0
 26 42  1  0  0  0  0
 27 26  2  0  0  0  0
 27 43  1  0  0  0  0
 28 27  1  0  0  0  0
 29 28  1  1  0  0  0
 29 25  1  0  0  0  0
 30  2  1  1  0  0  0
 30 31  1  0  0  0  0
 31 32  1  1  0  0  0
 32 45  1  0  0  0  0
 33 32  2  0  0  0  0
 34 33  1  0  0  0  0
 35 34  1  1  0  0  0
 35 30  1  0  0  0  0
 35 31  1  0  0  0  0
 36  5  1  0  0  0  0
 41  8  1  0  0  0  0
 44 28  1  0  0  0  0
 46 33  1  0  0  0  0
 47 34  1  0  0  0  0
 48 13  1  0  0  0  0
 49 14  1  0  0  0  0
 50 15  1  0  0  0  0
 53 19  1  0  0  0  0
 57 23  1  0  0  0  0
M  END
