1,2
 OpenBabel05122313063D

 59 63  0  0  0  0  0  0  0  0999 V2000
    0.6174   -1.2304   -0.2068 P   0  0  0  0  0  0  0  0  0  0  0  0
   -1.3333    0.6188   -0.0109 P   0  0  0  0  0  0  0  0  0  0  0  0
    0.3212    0.3466    0.5083 N   0  0  0  0  0  0  0  0  0  0  0  0
    5.3329    3.5103   -0.0653 N   0  0  0  0  0  0  0  0  0  0  0  0
    1.1383   -2.3424    1.1356 C   0  0  0  0  0  0  0  0  0  0  0  0
    0.5874   -3.6417    1.1526 C   0  0  0  0  0  0  0  0  0  0  0  0
   -0.1091   -3.9423    0.3493 H   0  0  0  0  0  0  0  0  0  0  0  0
    0.9426   -4.5265    2.1821 C   0  0  0  0  0  0  0  0  0  0  0  0
    0.5160   -5.5408    2.1953 H   0  0  0  0  0  0  0  0  0  0  0  0
    1.8299   -4.1202    3.1913 C   0  0  0  0  0  0  0  0  0  0  0  0
    2.1004   -4.8168    3.9995 H   0  0  0  0  0  0  0  0  0  0  0  0
    2.3747   -2.8249    3.1739 C   0  0  0  0  0  0  0  0  0  0  0  0
    3.0703   -2.5067    3.9651 H   0  0  0  0  0  0  0  0  0  0  0  0
    2.0354   -1.9323    2.1471 C   0  0  0  0  0  0  0  0  0  0  0  0
    2.4680   -0.9210    2.1375 H   0  0  0  0  0  0  0  0  0  0  0  0
    2.0300   -1.0128   -1.3359 C   0  0  0  0  0  0  0  0  0  0  0  0
    3.3150   -1.5182   -1.0616 C   0  0  0  0  0  0  0  0  0  0  0  0
    3.4892   -2.1257   -0.1613 H   0  0  0  0  0  0  0  0  0  0  0  0
    4.3732   -1.2363   -1.9400 C   0  0  0  0  0  0  0  0  0  0  0  0
    5.3795   -1.6251   -1.7237 H   0  0  0  0  0  0  0  0  0  0  0  0
    4.1501   -0.4600   -3.0874 C   0  0  0  0  0  0  0  0  0  0  0  0
    4.9838   -0.2374   -3.7702 H   0  0  0  0  0  0  0  0  0  0  0  0
    2.8612    0.0256   -3.3725 C   0  0  0  0  0  0  0  0  0  0  0  0
    2.6828    0.6203   -4.2807 H   0  0  0  0  0  0  0  0  0  0  0  0
    1.7988   -0.2553   -2.5055 C   0  0  0  0  0  0  0  0  0  0  0  0
    0.7835    0.1137   -2.7237 H   0  0  0  0  0  0  0  0  0  0  0  0
    1.2054    1.2351    1.1719 C   0  0  0  0  0  0  0  0  0  0  0  0
    0.9442    1.6339    2.5021 C   0  0  0  0  0  0  0  0  0  0  0  0
    0.0614    1.2298    3.0163 H   0  0  0  0  0  0  0  0  0  0  0  0
    1.8059    2.5296    3.1515 C   0  0  0  0  0  0  0  0  0  0  0  0
    1.5912    2.8373    4.1856 H   0  0  0  0  0  0  0  0  0  0  0  0
    2.9472    3.0196    2.5041 C   0  0  0  0  0  0  0  0  0  0  0  0
    3.6329    3.7108    3.0136 H   0  0  0  0  0  0  0  0  0  0  0  0
    3.2189    2.6164    1.1757 C   0  0  0  0  0  0  0  0  0  0  0  0
    2.3399    1.7377    0.5056 C   0  0  0  0  0  0  0  0  0  0  0  0
    2.5360    1.4519   -0.5353 H   0  0  0  0  0  0  0  0  0  0  0  0
    4.3814    3.1097    0.4935 C   0  0  0  0  0  0  0  0  0  0  0  0
   -1.3365    2.1363   -1.0144 C   0  0  0  0  0  0  0  0  0  0  0  0
   -0.7518    3.3367   -0.5508 C   0  0  0  0  0  0  0  0  0  0  0  0
   -0.3320    3.4001    0.4639 H   0  0  0  0  0  0  0  0  0  0  0  0
   -0.7066    4.4554   -1.3945 C   0  0  0  0  0  0  0  0  0  0  0  0
   -0.2439    5.3884   -1.0389 H   0  0  0  0  0  0  0  0  0  0  0  0
   -1.2498    4.3848   -2.6888 C   0  0  0  0  0  0  0  0  0  0  0  0
   -1.2118    5.2665   -3.3466 H   0  0  0  0  0  0  0  0  0  0  0  0
   -1.8436    3.1961   -3.1420 C   0  0  0  0  0  0  0  0  0  0  0  0
   -2.2778    3.1442   -4.1517 H   0  0  0  0  0  0  0  0  0  0  0  0
   -1.8867    2.0656   -2.3121 C   0  0  0  0  0  0  0  0  0  0  0  0
   -2.3627    1.1265   -2.6439 H   0  0  0  0  0  0  0  0  0  0  0  0
   -2.2886    0.9390    1.5057 C   0  0  0  0  0  0  0  0  0  0  0  0
   -3.0463    2.1098    1.6953 C   0  0  0  0  0  0  0  0  0  0  0  0
   -3.0658    2.8865    0.9169 H   0  0  0  0  0  0  0  0  0  0  0  0
   -3.7789    2.2783    2.8815 C   0  0  0  0  0  0  0  0  0  0  0  0
   -4.3711    3.1937    3.0300 H   0  0  0  0  0  0  0  0  0  0  0  0
   -3.7598    1.2834    3.8702 C   0  0  0  0  0  0  0  0  0  0  0  0
   -4.3375    1.4186    4.7971 H   0  0  0  0  0  0  0  0  0  0  0  0
   -3.0158    0.1057    3.6728 C   0  0  0  0  0  0  0  0  0  0  0  0
   -3.0149   -0.6830    4.4400 H   0  0  0  0  0  0  0  0  0  0  0  0
   -2.2882   -0.0733    2.4909 C   0  0  0  0  0  0  0  0  0  0  0  0
   -1.7185   -1.0009    2.3199 H   0  0  0  0  0  0  0  0  0  0  0  0
  1  3  1  0  0  0  0
  1  5  1  0  0  0  0
  2  3  1  0  0  0  0
  2 49  1  0  0  0  0
  3 27  1  0  0  0  0
  4 37  3  0  0  0  0
  5  6  2  0  0  0  0
  5 14  1  0  0  0  0
  6  8  1  0  0  0  0
  7  6  1  0  0  0  0
  8  9  1  0  0  0  0
  8 10  2  0  0  0  0
 10 11  1  0  0  0  0
 12 10  1  0  0  0  0
 12 13  1  0  0  0  0
 14 12  2  0  0  0  0
 15 14  1  0  0  0  0
 16 17  1  0  0  0  0
 16  1  1  0  0  0  0
 17 18  1  0  0  0  0
 19 20  1  0  0  0  0
 19 17  2  0  0  0  0
 21 19  1  0  0  0  0
 22 21  1  0  0  0  0
 23 21  2  0  0  0  0
 23 25  1  0  0  0  0
 24 23  1  0  0  0  0
 25 16  2  0  0  0  0
 26 25  1  0  0  0  0
 27 28  1  0  0  0  0
 28 29  1  0  0  0  0
 28 30  2  0  0  0  0
 30 31  1  0  0  0  0
 32 33  1  0  0  0  0
 32 30  1  0  0  0  0
 34 32  2  0  0  0  0
 35 27  2  0  0  0  0
 35 34  1  0  0  0  0
 36 35  1  0  0  0  0
 37 34  1  0  0  0  0
 38 39  1  0  0  0  0
 38  2  1  0  0  0  0
 39 40  1  0  0  0  0
 41 42  1  0  0  0  0
 41 39  2  0  0  0  0
 43 41  1  0  0  0  0
 44 43  1  0  0  0  0
 45 43  2  0  0  0  0
 45 47  1  0  0  0  0
 46 45  1  0  0  0  0
 47 38  2  0  0  0  0
 48 47  1  0  0  0  0
 49 50  2  0  0  0  0
 49 58  1  0  0  0  0
 50 52  1  0  0  0  0
 51 50  1  0  0  0  0
 52 53  1  0  0  0  0
 52 54  2  0  0  0  0
 54 55  1  0  0  0  0
 56 54  1  0  0  0  0
 56 57  1  0  0  0  0
 58 56  2  0  0  0  0
 59 58  1  0  0  0  0
M  END
