1,2
 OpenBabel05122313063D

 33 32  0  0  0  0  0  0  0  0999 V2000
   -1.4507    1.1920    0.3392 P   0  0  0  0  0  0  0  0  0  0  0  0
    1.0484    0.3814    0.1542 P   0  0  0  0  0  0  0  0  0  0  0  0
    0.2158    2.0147    0.5833 C   0  0  0  0  0  0  0  0  0  0  0  0
    0.4248    2.8333   -0.1355 H   0  0  0  0  0  0  0  0  0  0  0  0
    0.4158    2.3795    1.6114 H   0  0  0  0  0  0  0  0  0  0  0  0
   -2.3786    2.1123   -0.9417 C   0  0  0  0  0  0  0  0  0  0  0  0
   -3.2674    1.4918   -1.1715 H   0  0  0  0  0  0  0  0  0  0  0  0
   -1.7582    2.1807   -1.8555 H   0  0  0  0  0  0  0  0  0  0  0  0
   -2.6722    3.1247   -0.5992 H   0  0  0  0  0  0  0  0  0  0  0  0
   -2.4404    1.3476    1.8702 C   0  0  0  0  0  0  0  0  0  0  0  0
   -2.7398    2.3958    2.0701 H   0  0  0  0  0  0  0  0  0  0  0  0
   -1.8611    0.9447    2.7225 H   0  0  0  0  0  0  0  0  0  0  0  0
   -3.3268    0.7006    1.7160 H   0  0  0  0  0  0  0  0  0  0  0  0
    2.1764    0.6567   -1.2957 C   0  0  0  0  0  0  0  0  0  0  0  0
    2.6177   -0.3556   -1.4276 H   0  0  0  0  0  0  0  0  0  0  0  0
    1.3309    0.9566   -2.5379 C   0  0  0  0  0  0  0  0  0  0  0  0
    0.7943    1.9253   -2.4501 H   0  0  0  0  0  0  0  0  0  0  0  0
    0.5865    0.1515   -2.6977 H   0  0  0  0  0  0  0  0  0  0  0  0
    1.9788    1.0206   -3.4361 H   0  0  0  0  0  0  0  0  0  0  0  0
    3.2652    1.6952   -1.0234 C   0  0  0  0  0  0  0  0  0  0  0  0
    3.9281    1.7954   -1.9080 H   0  0  0  0  0  0  0  0  0  0  0  0
    3.9036    1.4237   -0.1592 H   0  0  0  0  0  0  0  0  0  0  0  0
    2.8312    2.6979   -0.8252 H   0  0  0  0  0  0  0  0  0  0  0  0
    2.0900   -0.0958    1.6276 C   0  0  0  0  0  0  0  0  0  0  0  0
    2.6701    0.8153    1.8991 H   0  0  0  0  0  0  0  0  0  0  0  0
    3.0388   -1.2471    1.2731 C   0  0  0  0  0  0  0  0  0  0  0  0
    3.5630   -1.5940    2.1874 H   0  0  0  0  0  0  0  0  0  0  0  0
    3.8118   -0.9437    0.5397 H   0  0  0  0  0  0  0  0  0  0  0  0
    2.4688   -2.0956    0.8412 H   0  0  0  0  0  0  0  0  0  0  0  0
    1.1473   -0.4735    2.7771 C   0  0  0  0  0  0  0  0  0  0  0  0
    0.5172   -1.3374    2.4826 H   0  0  0  0  0  0  0  0  0  0  0  0
    0.4747    0.3593    3.0669 H   0  0  0  0  0  0  0  0  0  0  0  0
    1.7329   -0.7555    3.6762 H   0  0  0  0  0  0  0  0  0  0  0  0
  1  3  1  0  0  0  0
  1 10  1  0  0  0  0
  2  3  1  0  0  0  0
  2 24  1  0  0  0  0
  3  5  1  0  0  0  0
  4  3  1  0  0  0  0
  6  9  1  0  0  0  0
  6  1  1  0  0  0  0
  7  6  1  0  0  0  0
  8  6  1  0  0  0  0
 10 11  1  0  0  0  0
 10 12  1  0  0  0  0
 13 10  1  0  0  0  0
 14 20  1  0  0  0  0
 14  2  1  0  0  0  0
 15 14  1  0  0  0  0
 16 17  1  0  0  0  0
 16 14  1  0  0  0  0
 18 16  1  0  0  0  0
 19 16  1  0  0  0  0
 20 23  1  0  0  0  0
 20 22  1  0  0  0  0
 21 20  1  0  0  0  0
 24 25  1  0  0  0  0
 24 30  1  0  0  0  0
 26 24  1  0  0  0  0
 26 27  1  0  0  0  0
 28 26  1  0  0  0  0
 29 26  1  0  0  0  0
 30 32  1  0  0  0  0
 30 33  1  0  0  0  0
 31 30  1  0  0  0  0
M  END
