1,2
 OpenBabel05122313063D

 74 79  0  0  1  0  0  0  0  0999 V2000
    1.6654    0.4861   -0.5196 P   0  0  0  0  0  0  0  0  0  0  0  0
   -0.8314   -1.3361    0.2770 P   0  0  0  0  0  0  0  0  0  0  0  0
    0.8015    1.4572   -1.5511 O   0  0  0  0  0  0  0  0  0  0  0  0
   -1.1392   -0.4628   -1.1324 O   0  0  0  0  0  0  0  0  0  0  0  0
   -0.5221   -2.9864   -0.4072 C   0  0  0  0  0  0  0  0  0  0  0  0
   -0.0961   -3.9884    0.4906 C   0  0  0  0  0  0  0  0  0  0  0  0
    0.0166   -3.7459    1.5608 H   0  0  0  0  0  0  0  0  0  0  0  0
    0.1944   -5.2689    0.0019 C   0  0  0  0  0  0  0  0  0  0  0  0
    0.5265   -6.0541    0.6977 H   0  0  0  0  0  0  0  0  0  0  0  0
    0.0702   -5.5476   -1.3703 C   0  0  0  0  0  0  0  0  0  0  0  0
    0.3065   -6.5534   -1.7499 H   0  0  0  0  0  0  0  0  0  0  0  0
   -0.3473   -4.5443   -2.2586 C   0  0  0  0  0  0  0  0  0  0  0  0
   -0.4318   -4.7589   -3.3346 H   0  0  0  0  0  0  0  0  0  0  0  0
   -0.6471   -3.2593   -1.7826 C   0  0  0  0  0  0  0  0  0  0  0  0
   -0.9517   -2.4597   -2.4720 H   0  0  0  0  0  0  0  0  0  0  0  0
   -2.4986   -1.3683    1.0289 C   0  0  0  0  0  0  0  0  0  0  0  0
   -3.5321   -2.0128    0.3173 C   0  0  0  0  0  0  0  0  0  0  0  0
   -3.2972   -2.6057   -0.5799 H   0  0  0  0  0  0  0  0  0  0  0  0
   -4.8594   -1.8837    0.7459 C   0  0  0  0  0  0  0  0  0  0  0  0
   -5.6651   -2.3825    0.1868 H   0  0  0  0  0  0  0  0  0  0  0  0
   -5.1591   -1.1129    1.8815 C   0  0  0  0  0  0  0  0  0  0  0  0
   -6.2033   -1.0092    2.2139 H   0  0  0  0  0  0  0  0  0  0  0  0
   -4.1297   -0.4778    2.5933 C   0  0  0  0  0  0  0  0  0  0  0  0
   -4.3623    0.1198    3.4874 H   0  0  0  0  0  0  0  0  0  0  0  0
   -2.7978   -0.6002    2.1708 C   0  0  0  0  0  0  0  0  0  0  0  0
   -1.9816   -0.1210    2.7308 H   0  0  0  0  0  0  0  0  0  0  0  0
    2.0940   -0.9309   -1.6053 C   0  0  0  0  0  0  0  0  0  0  0  0
    2.5769   -2.1210   -1.0252 C   0  0  0  0  0  0  0  0  0  0  0  0
    2.6485   -2.2035    0.0715 H   0  0  0  0  0  0  0  0  0  0  0  0
    2.9266   -3.2048   -1.8430 C   0  0  0  0  0  0  0  0  0  0  0  0
    3.2920   -4.1361   -1.3856 H   0  0  0  0  0  0  0  0  0  0  0  0
    2.7810   -3.1097   -3.2358 C   0  0  0  0  0  0  0  0  0  0  0  0
    3.0430   -3.9661   -3.8756 H   0  0  0  0  0  0  0  0  0  0  0  0
    2.2895   -1.9269   -3.8126 C   0  0  0  0  0  0  0  0  0  0  0  0
    2.1705   -1.8540   -4.9046 H   0  0  0  0  0  0  0  0  0  0  0  0
    1.9504   -0.8342   -3.0017 C   0  0  0  0  0  0  0  0  0  0  0  0
    1.5657    0.0975   -3.4415 H   0  0  0  0  0  0  0  0  0  0  0  0
    3.2086    1.4625   -0.4417 C   0  0  0  0  0  0  0  0  0  0  0  0
    4.3738    0.8519    0.0638 C   0  0  0  0  0  0  0  0  0  0  0  0
    4.3449   -0.1874    0.4217 H   0  0  0  0  0  0  0  0  0  0  0  0
    5.5684    1.5788    0.1263 C   0  0  0  0  0  0  0  0  0  0  0  0
    6.4757    1.1003    0.5241 H   0  0  0  0  0  0  0  0  0  0  0  0
    5.6045    2.9166   -0.3021 C   0  0  0  0  0  0  0  0  0  0  0  0
    6.5442    3.4869   -0.2457 H   0  0  0  0  0  0  0  0  0  0  0  0
    4.4419    3.5252   -0.7970 C   0  0  0  0  0  0  0  0  0  0  0  0
    4.4647    4.5735   -1.1312 H   0  0  0  0  0  0  0  0  0  0  0  0
    3.2413    2.8015   -0.8706 C   0  0  0  0  0  0  0  0  0  0  0  0
    2.3294    3.2713   -1.2636 H   0  0  0  0  0  0  0  0  0  0  0  0
   -0.7242    3.2594   -1.0002 C   0  0  0  0  0  0  0  0  0  0  0  0
   -1.4524    4.2405   -1.6952 C   0  0  0  0  0  0  0  0  0  0  0  0
   -1.8839    3.9991   -2.6793 H   0  0  0  0  0  0  0  0  0  0  0  0
   -1.6416    5.5136   -1.1360 C   0  0  0  0  0  0  0  0  0  0  0  0
   -2.2148    6.2740   -1.6878 H   0  0  0  0  0  0  0  0  0  0  0  0
   -1.0978    5.8155    0.1221 C   0  0  0  0  0  0  0  0  0  0  0  0
   -1.2422    6.8149    0.5601 H   0  0  0  0  0  0  0  0  0  0  0  0
   -0.3663    4.8399    0.8202 C   0  0  0  0  0  0  0  0  0  0  0  0
    0.0659    5.0687    1.8059 H   0  0  0  0  0  0  0  0  0  0  0  0
   -0.1822    3.5656    0.2657 C   0  0  0  0  0  0  0  0  0  0  0  0
    0.3920    2.8101    0.8284 H   0  0  0  0  0  0  0  0  0  0  0  0
   -2.9743    1.1359   -1.1603 C   0  0  0  0  0  0  0  0  0  0  0  0
   -3.5390    0.5644   -2.3161 C   0  0  0  0  0  0  0  0  0  0  0  0
   -2.9185   -0.0819   -2.9550 H   0  0  0  0  0  0  0  0  0  0  0  0
   -4.8858    0.7927   -2.6319 C   0  0  0  0  0  0  0  0  0  0  0  0
   -5.3219    0.3366   -3.5338 H   0  0  0  0  0  0  0  0  0  0  0  0
   -5.6788    1.5958   -1.7958 C   0  0  0  0  0  0  0  0  0  0  0  0
   -6.7373    1.7713   -2.0412 H   0  0  0  0  0  0  0  0  0  0  0  0
   -5.1191    2.1687   -0.6431 C   0  0  0  0  0  0  0  0  0  0  0  0
   -5.7368    2.7930    0.0198 H   0  0  0  0  0  0  0  0  0  0  0  0
   -3.7725    1.9388   -0.3261 C   0  0  0  0  0  0  0  0  0  0  0  0
   -3.3335    2.3808    0.5812 H   0  0  0  0  0  0  0  0  0  0  0  0
   -0.5728    1.8625   -1.5689 C   0  0  2  0  0  0  0  0  0  0  0  0
   -0.8522    1.8596   -2.6435 H   0  0  0  0  0  0  0  0  0  0  0  0
   -1.5200    0.8938   -0.8249 C   0  0  2  0  0  0  0  0  0  0  0  0
   -1.3687    1.0831    0.2625 H   0  0  0  0  0  0  0  0  0  0  0  0
  1 38  1  0  0  0  0
  2 16  1  0  0  0  0
  3  1  1  0  0  0  0
  4 73  1  0  0  0  0
  4  2  1  0  0  0  0
  5  2  1  0  0  0  0
  5  6  1  0  0  0  0
  6  7  1  0  0  0  0
  8  6  2  0  0  0  0
  8  9  1  0  0  0  0
 10  8  1  0  0  0  0
 11 10  1  0  0  0  0
 12 14  1  0  0  0  0
 12 10  2  0  0  0  0
 13 12  1  0  0  0  0
 14  5  2  0  0  0  0
 15 14  1  0  0  0  0
 16 25  1  0  0  0  0
 17 19  1  0  0  0  0
 17 16  2  0  0  0  0
 18 17  1  0  0  0  0
 19 21  2  0  0  0  0
 20 19  1  0  0  0  0
 21 22  1  0  0  0  0
 21 23  1  0  0  0  0
 23 24  1  0  0  0  0
 25 23  2  0  0  0  0
 25 26  1  0  0  0  0
 27 28  1  0  0  0  0
 27  1  1  0  0  0  0
 28 29  1  0  0  0  0
 30 31  1  0  0  0  0
 30 28  2  0  0  0  0
 32 30  1  0  0  0  0
 33 32  1  0  0  0  0
 34 32  2  0  0  0  0
 34 36  1  0  0  0  0
 35 34  1  0  0  0  0
 36 27  2  0  0  0  0
 37 36  1  0  0  0  0
 38 39  1  0  0  0  0
 39 41  2  0  0  0  0
 39 40  1  0  0  0  0
 41 42  1  0  0  0  0
 43 44  1  0  0  0  0
 43 41  1  0  0  0  0
 45 43  2  0  0  0  0
 46 45  1  0  0  0  0
 47 45  1  0  0  0  0
 47 38  2  0  0  0  0
 48 47  1  0  0  0  0
 49 58  1  0  0  0  0
 50 52  1  0  0  0  0
 50 49  2  0  0  0  0
 51 50  1  0  0  0  0
 52 54  2  0  0  0  0
 53 52  1  0  0  0  0
 54 55  1  0  0  0  0
 54 56  1  0  0  0  0
 56 57  1  0  0  0  0
 58 56  2  0  0  0  0
 58 59  1  0  0  0  0
 60 73  1  0  0  0  0
 60 69  1  0  0  0  0
 61 60  2  0  0  0  0
 62 61  1  0  0  0  0
 63 61  1  0  0  0  0
 63 65  2  0  0  0  0
 64 63  1  0  0  0  0
 65 67  1  0  0  0  0
 66 65  1  0  0  0  0
 67 69  2  0  0  0  0
 67 68  1  0  0  0  0
 69 70  1  0  0  0  0
 71 72  1  6  0  0  0
 71  3  1  0  0  0  0
 71 49  1  0  0  0  0
 71 73  1  0  0  0  0
 73 74  1  1  0  0  0
M  END
