71,72
 OpenBabel05122313063D

 72 78  0  0  1  0  0  0  0  0999 V2000
    3.5484    1.8677   -0.0955 C   0  0  0  0  0  0  0  0  0  0  0  0
    4.1383    2.7050   -1.0603 C   0  0  0  0  0  0  0  0  0  0  0  0
    3.5733    3.0071   -1.9535 H   0  0  0  0  0  0  0  0  0  0  0  0
    5.4613    3.1374   -0.8899 C   0  0  0  0  0  0  0  0  0  0  0  0
    5.9246    3.7854   -1.6491 H   0  0  0  0  0  0  0  0  0  0  0  0
    6.1939    2.7394    0.2394 C   0  0  0  0  0  0  0  0  0  0  0  0
    7.2331    3.0781    0.3677 H   0  0  0  0  0  0  0  0  0  0  0  0
    5.6068    1.8979    1.1986 C   0  0  0  0  0  0  0  0  0  0  0  0
    6.1842    1.5724    2.0768 H   0  0  0  0  0  0  0  0  0  0  0  0
    4.2888    1.4538    1.0304 C   0  0  0  0  0  0  0  0  0  0  0  0
    3.8376    0.7647    1.7616 H   0  0  0  0  0  0  0  0  0  0  0  0
    0.8587    2.3220   -1.4304 C   0  0  2  0  0  0  0  0  0  0  0  0
    1.1023    2.2204   -2.5027 H   0  0  0  0  0  0  0  0  0  0  0  0
    1.0088    3.7119   -0.8273 C   0  0  0  0  0  0  0  0  0  0  0  0
    1.0881    4.9162   -1.7052 C   0  0  0  0  0  0  0  0  0  0  0  0
    1.2129    5.8516   -1.1274 H   0  0  0  0  0  0  0  0  0  0  0  0
    0.1609    5.0019   -2.3112 H   0  0  0  0  0  0  0  0  0  0  0  0
    1.9334    4.8400   -2.4225 H   0  0  0  0  0  0  0  0  0  0  0  0
    0.9471    3.6450    0.5333 C   0  0  0  0  0  0  0  0  0  0  0  0
    1.0407    4.7580    1.5275 C   0  0  0  0  0  0  0  0  0  0  0  0
    1.8974    4.5921    2.2165 H   0  0  0  0  0  0  0  0  0  0  0  0
    0.1335    4.8190    2.1673 H   0  0  0  0  0  0  0  0  0  0  0  0
    1.1799    5.7428    1.0427 H   0  0  0  0  0  0  0  0  0  0  0  0
    0.7665    2.2109    0.9911 C   0  0  1  0  0  0  0  0  0  0  0  0
    0.9784    2.0255    2.0597 H   0  0  0  0  0  0  0  0  0  0  0  0
   -0.6105    1.6265    0.5055 C   0  0  2  0  0  0  0  0  0  0  0  0
   -0.5678    1.8180   -1.0667 C   0  0  1  0  0  0  0  0  0  0  0  0
   -0.8214    0.8865   -1.6158 H   0  0  0  0  0  0  0  0  0  0  0  0
   -1.8815    2.3923    0.9227 C   0  0  0  0  0  0  0  0  0  0  0  0
   -2.5984    1.8036    1.5207 H   0  0  0  0  0  0  0  0  0  0  0  0
   -1.6234    3.2967    1.5066 H   0  0  0  0  0  0  0  0  0  0  0  0
   -2.5244    2.8329   -0.4045 C   0  0  1  0  0  0  0  0  0  0  0  0
   -2.9901    3.8373   -0.3543 H   0  0  0  0  0  0  0  0  0  0  0  0
   -4.7338    1.9530   -0.2111 C   0  0  0  0  0  0  0  0  0  0  0  0
   -5.7741    1.1203   -0.8785 C   0  0  0  0  0  0  0  0  0  0  0  0
   -5.5809    0.5674   -2.1599 C   0  0  0  0  0  0  0  0  0  0  0  0
   -4.6342    0.7514   -2.6856 H   0  0  0  0  0  0  0  0  0  0  0  0
   -6.5889   -0.2126   -2.7417 C   0  0  0  0  0  0  0  0  0  0  0  0
   -6.4400   -0.6418   -3.7441 H   0  0  0  0  0  0  0  0  0  0  0  0
   -7.7846   -0.4528   -2.0443 C   0  0  0  0  0  0  0  0  0  0  0  0
   -8.5722   -1.0715   -2.5011 H   0  0  0  0  0  0  0  0  0  0  0  0
   -7.9800    0.1009   -0.7666 C   0  0  0  0  0  0  0  0  0  0  0  0
   -8.9190   -0.0844   -0.2235 H   0  0  0  0  0  0  0  0  0  0  0  0
   -6.9811    0.8930   -0.1882 C   0  0  0  0  0  0  0  0  0  0  0  0
   -7.1065    1.3452    0.8066 H   0  0  0  0  0  0  0  0  0  0  0  0
   -0.4542   -0.3595    2.7308 C   0  0  0  0  0  0  0  0  0  0  0  0
   -0.0150   -1.5970    3.2498 C   0  0  0  0  0  0  0  0  0  0  0  0
    0.2679   -2.4066    2.5555 H   0  0  0  0  0  0  0  0  0  0  0  0
    0.0618   -1.7895    4.6359 C   0  0  0  0  0  0  0  0  0  0  0  0
    0.4045   -2.7589    5.0281 H   0  0  0  0  0  0  0  0  0  0  0  0
   -0.2855   -0.7526    5.5171 C   0  0  0  0  0  0  0  0  0  0  0  0
   -0.2174   -0.9049    6.6050 H   0  0  0  0  0  0  0  0  0  0  0  0
   -0.7160    0.4812    5.0062 C   0  0  0  0  0  0  0  0  0  0  0  0
   -0.9889    1.2993    5.6900 H   0  0  0  0  0  0  0  0  0  0  0  0
   -0.8047    0.6794    3.6192 C   0  0  0  0  0  0  0  0  0  0  0  0
   -1.1494    1.6514    3.2419 H   0  0  0  0  0  0  0  0  0  0  0  0
   -2.1775   -0.9155    0.4549 C   0  0  0  0  0  0  0  0  0  0  0  0
   -3.2375   -0.9231    1.3850 C   0  0  0  0  0  0  0  0  0  0  0  0
   -3.0879   -0.5238    2.3994 H   0  0  0  0  0  0  0  0  0  0  0  0
   -4.4781   -1.4716    1.0269 C   0  0  0  0  0  0  0  0  0  0  0  0
   -5.3037   -1.4736    1.7539 H   0  0  0  0  0  0  0  0  0  0  0  0
   -4.6631   -2.0191   -0.2513 C   0  0  0  0  0  0  0  0  0  0  0  0
   -5.6393   -2.4425   -0.5310 H   0  0  0  0  0  0  0  0  0  0  0  0
   -3.6080   -2.0143   -1.1769 C   0  0  0  0  0  0  0  0  0  0  0  0
   -3.7482   -2.4514   -2.1766 H   0  0  0  0  0  0  0  0  0  0  0  0
   -2.3651   -1.4695   -0.8283 C   0  0  0  0  0  0  0  0  0  0  0  0
   -1.5209   -1.5094   -1.5331 H   0  0  0  0  0  0  0  0  0  0  0  0
   -1.5255    2.8361   -1.3645 O   0  0  0  0  0  0  0  0  0  0  0  0
   -3.5419    1.9017   -0.8597 O   0  0  0  0  0  0  0  0  0  0  0  0
   -4.9121    2.6168    0.8005 O   0  0  0  0  0  0  0  0  0  0  0  0
    1.8446    1.2547   -0.2341 P   0  0  2  0  0  0  0  0  0  0  0  0
   -0.5469   -0.2225    0.9001 P   0  0  0  0  0  0  0  0  0  0  0  0
  1 10  1  0  0  0  0
  2  4  1  0  0  0  0
  2  1  2  0  0  0  0
  3  2  1  0  0  0  0
  4  6  2  0  0  0  0
  5  4  1  0  0  0  0
  6  7  1  0  0  0  0
  6  8  1  0  0  0  0
  8  9  1  0  0  0  0
 10  8  2  0  0  0  0
 10 11  1  0  0  0  0
 12 13  1  6  0  0  0
 12 27  1  0  0  0  0
 12 14  1  0  0  0  0
 12 71  1  0  0  0  0
 14 19  2  0  0  0  0
 15 16  1  0  0  0  0
 15 14  1  0  0  0  0
 17 15  1  0  0  0  0
 18 15  1  0  0  0  0
 19 24  1  0  0  0  0
 19 20  1  0  0  0  0
 20 22  1  0  0  0  0
 20 21  1  0  0  0  0
 23 20  1  0  0  0  0
 24 25  1  1  0  0  0
 26 72  1  1  0  0  0
 26 29  1  0  0  0  0
 26 24  1  0  0  0  0
 27 28  1  6  0  0  0
 27 26  1  0  0  0  0
 29 31  1  0  0  0  0
 29 30  1  0  0  0  0
 32 33  1  1  0  0  0
 32 29  1  0  0  0  0
 34 70  2  0  0  0  0
 35 34  1  0  0  0  0
 35 44  1  0  0  0  0
 36 35  2  0  0  0  0
 37 36  1  0  0  0  0
 38 36  1  0  0  0  0
 38 40  2  0  0  0  0
 39 38  1  0  0  0  0
 40 42  1  0  0  0  0
 41 40  1  0  0  0  0
 42 43  1  0  0  0  0
 42 44  2  0  0  0  0
 44 45  1  0  0  0  0
 46 47  2  0  0  0  0
 46 55  1  0  0  0  0
 47 49  1  0  0  0  0
 48 47  1  0  0  0  0
 49 50  1  0  0  0  0
 49 51  2  0  0  0  0
 51 52  1  0  0  0  0
 53 51  1  0  0  0  0
 53 54  1  0  0  0  0
 55 53  2  0  0  0  0
 56 55  1  0  0  0  0
 57 72  1  0  0  0  0
 57 58  1  0  0  0  0
 58 59  1  0  0  0  0
 60 58  2  0  0  0  0
 60 61  1  0  0  0  0
 62 60  1  0  0  0  0
 63 62  1  0  0  0  0
 64 66  1  0  0  0  0
 64 62  2  0  0  0  0
 65 64  1  0  0  0  0
 66 57  2  0  0  0  0
 67 66  1  0  0  0  0
 68 27  1  0  0  0  0
 68 32  1  0  0  0  0
 69 32  1  0  0  0  0
 69 34  1  0  0  0  0
 71  1  1  1  0  0  0
 71 24  1  0  0  0  0
 72 46  1  0  0  0  0
M  END
