1,2
 OpenBabel05122313063D

 66 69  0  0  0  0  0  0  0  0999 V2000
   -1.4928    0.0910    0.0282 P   0  0  0  0  0  0  0  0  0  0  0  0
    2.2079   -0.9106   -0.1256 P   0  0  0  0  0  0  0  0  0  0  0  0
    0.9661    1.8303    0.4147 N   0  0  0  0  0  0  0  0  0  0  0  0
    0.6417    0.8896    0.7187 H   0  0  0  0  0  0  0  0  0  0  0  0
   -2.6762   -0.6827   -1.1590 C   0  0  0  0  0  0  0  0  0  0  0  0
   -2.1485   -1.4357   -2.2281 C   0  0  0  0  0  0  0  0  0  0  0  0
   -1.0588   -1.5693   -2.3084 H   0  0  0  0  0  0  0  0  0  0  0  0
   -3.0018   -2.0229   -3.1717 C   0  0  0  0  0  0  0  0  0  0  0  0
   -2.5777   -2.6076   -4.0021 H   0  0  0  0  0  0  0  0  0  0  0  0
   -4.3938   -1.8798   -3.0481 C   0  0  0  0  0  0  0  0  0  0  0  0
   -5.0645   -2.3499   -3.7833 H   0  0  0  0  0  0  0  0  0  0  0  0
   -4.9263   -1.1442   -1.9783 C   0  0  0  0  0  0  0  0  0  0  0  0
   -6.0165   -1.0346   -1.8719 H   0  0  0  0  0  0  0  0  0  0  0  0
   -4.0734   -0.5449   -1.0376 C   0  0  0  0  0  0  0  0  0  0  0  0
   -4.4957    0.0321   -0.2013 H   0  0  0  0  0  0  0  0  0  0  0  0
   -2.5921    0.5722    1.4312 C   0  0  0  0  0  0  0  0  0  0  0  0
   -3.0188   -0.4461    2.3107 C   0  0  0  0  0  0  0  0  0  0  0  0
   -2.6818   -1.4810    2.1422 H   0  0  0  0  0  0  0  0  0  0  0  0
   -3.8562   -0.1422    3.3915 C   0  0  0  0  0  0  0  0  0  0  0  0
   -4.1872   -0.9447    4.0681 H   0  0  0  0  0  0  0  0  0  0  0  0
   -4.2589    1.1850    3.6200 C   0  0  0  0  0  0  0  0  0  0  0  0
   -4.9071    1.4251    4.4765 H   0  0  0  0  0  0  0  0  0  0  0  0
   -3.8258    2.2029    2.7575 C   0  0  0  0  0  0  0  0  0  0  0  0
   -4.1328    3.2451    2.9350 H   0  0  0  0  0  0  0  0  0  0  0  0
   -3.0000    1.8996    1.6622 C   0  0  0  0  0  0  0  0  0  0  0  0
   -2.6682    2.6984    0.9821 H   0  0  0  0  0  0  0  0  0  0  0  0
   -1.1323    1.7117   -0.7913 C   0  0  0  0  0  0  0  0  0  0  0  0
   -2.0177    2.2566   -1.7431 C   0  0  0  0  0  0  0  0  0  0  0  0
   -2.9651    1.7364   -1.9484 H   0  0  0  0  0  0  0  0  0  0  0  0
   -1.7083    3.4279   -2.4460 C   0  0  0  0  0  0  0  0  0  0  0  0
   -2.4170    3.8356   -3.1813 H   0  0  0  0  0  0  0  0  0  0  0  0
   -0.4756    4.0589   -2.2092 C   0  0  0  0  0  0  0  0  0  0  0  0
   -0.2044    4.9685   -2.7672 H   0  0  0  0  0  0  0  0  0  0  0  0
    0.4224    3.5445   -1.2695 C   0  0  0  0  0  0  0  0  0  0  0  0
    1.3876    4.0418   -1.1080 H   0  0  0  0  0  0  0  0  0  0  0  0
    0.1069    2.3791   -0.5302 C   0  0  0  0  0  0  0  0  0  0  0  0
    2.3685    1.8885    0.4199 C   0  0  0  0  0  0  0  0  0  0  0  0
    3.0500    3.1046    0.6420 C   0  0  0  0  0  0  0  0  0  0  0  0
    2.4622    4.0161    0.8186 H   0  0  0  0  0  0  0  0  0  0  0  0
    4.4481    3.1414    0.6908 C   0  0  0  0  0  0  0  0  0  0  0  0
    4.9625    4.0987    0.8650 H   0  0  0  0  0  0  0  0  0  0  0  0
    5.1857    1.9564    0.5508 C   0  0  0  0  0  0  0  0  0  0  0  0
    6.2845    1.9732    0.6025 H   0  0  0  0  0  0  0  0  0  0  0  0
    4.5143    0.7419    0.3475 C   0  0  0  0  0  0  0  0  0  0  0  0
    5.1116   -0.1750    0.2410 H   0  0  0  0  0  0  0  0  0  0  0  0
    3.1083    0.6767    0.2586 C   0  0  0  0  0  0  0  0  0  0  0  0
    2.3542   -0.9908   -2.0092 C   0  0  0  0  0  0  0  0  0  0  0  0
    1.8379   -1.9508   -2.2364 H   0  0  0  0  0  0  0  0  0  0  0  0
    1.5555    0.1488   -2.6469 C   0  0  0  0  0  0  0  0  0  0  0  0
    1.5092    0.0179   -3.7477 H   0  0  0  0  0  0  0  0  0  0  0  0
    2.0280    1.1324   -2.4475 H   0  0  0  0  0  0  0  0  0  0  0  0
    0.5184    0.1966   -2.2640 H   0  0  0  0  0  0  0  0  0  0  0  0
    3.7852   -1.0396   -2.5472 C   0  0  0  0  0  0  0  0  0  0  0  0
    3.7698   -1.1090   -3.6553 H   0  0  0  0  0  0  0  0  0  0  0  0
    4.3591   -1.9096   -2.1719 H   0  0  0  0  0  0  0  0  0  0  0  0
    4.3419   -0.1171   -2.2833 H   0  0  0  0  0  0  0  0  0  0  0  0
    3.4259   -2.2179    0.4656 C   0  0  0  0  0  0  0  0  0  0  0  0
    4.4104   -1.9589    0.0209 H   0  0  0  0  0  0  0  0  0  0  0  0
    3.5460   -2.1868    1.9926 C   0  0  0  0  0  0  0  0  0  0  0  0
    4.3263   -2.9009    2.3285 H   0  0  0  0  0  0  0  0  0  0  0  0
    2.5883   -2.4814    2.4648 H   0  0  0  0  0  0  0  0  0  0  0  0
    3.8153   -1.1817    2.3733 H   0  0  0  0  0  0  0  0  0  0  0  0
    3.0332   -3.6103   -0.0401 C   0  0  0  0  0  0  0  0  0  0  0  0
    3.7855   -4.3548    0.2934 H   0  0  0  0  0  0  0  0  0  0  0  0
    2.9783   -3.6657   -1.1455 H   0  0  0  0  0  0  0  0  0  0  0  0
    2.0505   -3.9215    0.3643 H   0  0  0  0  0  0  0  0  0  0  0  0
  1 16  1  0  0  0  0
  2 46  1  0  0  0  0
  2 57  1  0  0  0  0
  3 37  1  0  0  0  0
  3  4  1  0  0  0  0
  5 14  1  0  0  0  0
  5  1  1  0  0  0  0
  6  5  2  0  0  0  0
  7  6  1  0  0  0  0
  8 10  2  0  0  0  0
  8  6  1  0  0  0  0
  9  8  1  0  0  0  0
 10 12  1  0  0  0  0
 11 10  1  0  0  0  0
 12 13  1  0  0  0  0
 12 14  2  0  0  0  0
 14 15  1  0  0  0  0
 16 25  2  0  0  0  0
 16 17  1  0  0  0  0
 17 19  2  0  0  0  0
 18 17  1  0  0  0  0
 19 21  1  0  0  0  0
 19 20  1  0  0  0  0
 21 22  1  0  0  0  0
 23 24  1  0  0  0  0
 23 21  2  0  0  0  0
 25 23  1  0  0  0  0
 26 25  1  0  0  0  0
 27 36  1  0  0  0  0
 27  1  1  0  0  0  0
 28 27  2  0  0  0  0
 29 28  1  0  0  0  0
 30 32  2  0  0  0  0
 30 28  1  0  0  0  0
 31 30  1  0  0  0  0
 32 34  1  0  0  0  0
 33 32  1  0  0  0  0
 34 35  1  0  0  0  0
 34 36  2  0  0  0  0
 36  3  1  0  0  0  0
 37 38  1  0  0  0  0
 38 40  2  0  0  0  0
 38 39  1  0  0  0  0
 40 41  1  0  0  0  0
 42 43  1  0  0  0  0
 42 40  1  0  0  0  0
 44 42  2  0  0  0  0
 45 44  1  0  0  0  0
 46 44  1  0  0  0  0
 46 37  2  0  0  0  0
 47  2  1  0  0  0  0
 48 47  1  0  0  0  0
 49 51  1  0  0  0  0
 49 52  1  0  0  0  0
 49 47  1  0  0  0  0
 50 49  1  0  0  0  0
 53 56  1  0  0  0  0
 53 55  1  0  0  0  0
 53 47  1  0  0  0  0
 54 53  1  0  0  0  0
 57 59  1  0  0  0  0
 58 57  1  0  0  0  0
 59 60  1  0  0  0  0
 59 62  1  0  0  0  0
 59 61  1  0  0  0  0
 63 64  1  0  0  0  0
 63 66  1  0  0  0  0
 63 57  1  0  0  0  0
 65 63  1  0  0  0  0
M  END
