1,4,5,6
 OpenBabel05122313063D

 59 63  0  0  0  0  0  0  0  0999 V2000
    1.1550   -0.2729   -0.0442 P   0  0  0  0  0  0  0  0  0  0  0  0
   -1.5291   -3.7012    0.5179 O   0  0  0  0  0  0  0  0  0  0  0  0
   -3.9703    2.8560   -0.4009 O   0  0  0  0  0  0  0  0  0  0  0  0
   -1.6345   -1.4467   -0.0773 N   0  0  0  0  0  2  0  0  0  0  0  0
   -2.6313    0.9465   -0.1329 N   0  0  0  0  0  2  0  0  0  0  0  0
   -0.4466    2.2195    0.2158 C   0  0  0  0  0  3  0  0  0  0  0  0
    0.7353    2.9092    0.5669 C   0  0  0  0  0  0  0  0  0  0  0  0
    1.6684    2.3681    0.7866 H   0  0  0  0  0  0  0  0  0  0  0  0
    0.7806    4.3160    0.6470 C   0  0  0  0  0  0  0  0  0  0  0  0
    1.7285    4.8087    0.9214 H   0  0  0  0  0  0  0  0  0  0  0  0
   -0.3603    5.0875    0.3753 C   0  0  0  0  0  0  0  0  0  0  0  0
   -0.3164    6.1874    0.4287 H   0  0  0  0  0  0  0  0  0  0  0  0
   -1.5598    4.4315    0.0545 C   0  0  0  0  0  0  0  0  0  0  0  0
   -2.5015    4.9724   -0.1356 H   0  0  0  0  0  0  0  0  0  0  0  0
   -1.5913    3.0323   -0.0082 C   0  0  0  0  0  0  0  0  0  0  0  0
   -2.8752    2.2975   -0.2225 C   0  0  0  0  0  0  0  0  0  0  0  0
   -3.5916   -0.0561   -0.1190 C   0  0  0  0  0  0  0  0  0  0  0  0
   -4.9908    0.1426   -0.1868 C   0  0  0  0  0  0  0  0  0  0  0  0
   -5.3540    1.1720   -0.2877 H   0  0  0  0  0  0  0  0  0  0  0  0
   -5.8579   -0.9571   -0.1239 C   0  0  0  0  0  0  0  0  0  0  0  0
   -6.9471   -0.7929   -0.1690 H   0  0  0  0  0  0  0  0  0  0  0  0
   -5.3395   -2.2548    0.0089 C   0  0  0  0  0  0  0  0  0  0  0  0
   -6.0180   -3.1211    0.0748 H   0  0  0  0  0  0  0  0  0  0  0  0
   -3.9530   -2.4675    0.0757 C   0  0  0  0  0  0  0  0  0  0  0  0
   -3.5451   -3.4741    0.2088 H   0  0  0  0  0  0  0  0  0  0  0  0
   -3.0514   -1.3790   -0.0072 C   0  0  0  0  0  0  0  0  0  0  0  0
   -1.0208   -2.6673    0.0370 C   0  0  0  0  0  0  0  0  0  0  0  0
    0.3315   -2.8629   -0.6429 C   0  0  0  0  0  0  0  0  0  0  0  0
    0.5480   -4.1711   -1.1369 C   0  0  0  0  0  0  0  0  0  0  0  0
   -0.2441   -4.9065   -0.9362 H   0  0  0  0  0  0  0  0  0  0  0  0
    1.7066   -4.5100   -1.8434 C   0  0  0  0  0  0  0  0  0  0  0  0
    1.8294   -5.5325   -2.2349 H   0  0  0  0  0  0  0  0  0  0  0  0
    2.7080   -3.5480   -2.0539 C   0  0  0  0  0  0  0  0  0  0  0  0
    3.6230   -3.8001   -2.6123 H   0  0  0  0  0  0  0  0  0  0  0  0
    2.5364   -2.2575   -1.5340 C   0  0  0  0  0  0  0  0  0  0  0  0
    3.3234   -1.5020   -1.6767 H   0  0  0  0  0  0  0  0  0  0  0  0
    1.3635   -1.9127   -0.8290 C   0  0  0  0  0  0  0  0  0  0  0  0
    1.9400   -0.5200    1.6149 C   0  0  0  0  0  0  0  0  0  0  0  0
    2.9812   -1.4429    1.8437 C   0  0  0  0  0  0  0  0  0  0  0  0
    3.3619   -2.0548    1.0115 H   0  0  0  0  0  0  0  0  0  0  0  0
    3.5142   -1.6003    3.1326 C   0  0  0  0  0  0  0  0  0  0  0  0
    4.3234   -2.3276    3.3036 H   0  0  0  0  0  0  0  0  0  0  0  0
    3.0087   -0.8440    4.2026 C   0  0  0  0  0  0  0  0  0  0  0  0
    3.4241   -0.9738    5.2142 H   0  0  0  0  0  0  0  0  0  0  0  0
    1.9604    0.0640    3.9822 C   0  0  0  0  0  0  0  0  0  0  0  0
    1.5478    0.6474    4.8198 H   0  0  0  0  0  0  0  0  0  0  0  0
    1.4211    0.2211    2.6968 C   0  0  0  0  0  0  0  0  0  0  0  0
    0.5842    0.9136    2.5162 H   0  0  0  0  0  0  0  0  0  0  0  0
    2.3790    0.7437   -0.9868 C   0  0  0  0  0  0  0  0  0  0  0  0
    3.7148    0.9381   -0.5889 C   0  0  0  0  0  0  0  0  0  0  0  0
    4.0782    0.4869    0.3469 H   0  0  0  0  0  0  0  0  0  0  0  0
    4.5788    1.7187   -1.3748 C   0  0  0  0  0  0  0  0  0  0  0  0
    5.6210    1.8716   -1.0530 H   0  0  0  0  0  0  0  0  0  0  0  0
    4.1143    2.3076   -2.5610 C   0  0  0  0  0  0  0  0  0  0  0  0
    4.7908    2.9243   -3.1731 H   0  0  0  0  0  0  0  0  0  0  0  0
    2.7794    2.1196   -2.9578 C   0  0  0  0  0  0  0  0  0  0  0  0
    2.4043    2.5928   -3.8783 H   0  0  0  0  0  0  0  0  0  0  0  0
    1.9136    1.3482   -2.1717 C   0  0  0  0  0  0  0  0  0  0  0  0
    0.8550    1.2269   -2.4516 H   0  0  0  0  0  0  0  0  0  0  0  0
  1 38  1  0  0  0  0
  3 16  2  0  0  0  0
  4 26  1  0  0  0  0
  4 27  1  0  0  0  0
  5 17  1  0  0  0  0
  6  7  1  0  0  0  0
  7  9  2  0  0  0  0
  7  8  1  0  0  0  0
  9 10  1  0  0  0  0
 11 12  1  0  0  0  0
 11  9  1  0  0  0  0
 13 11  2  0  0  0  0
 14 13  1  0  0  0  0
 15 13  1  0  0  0  0
 15  6  2  0  0  0  0
 16  5  1  0  0  0  0
 16 15  1  0  0  0  0
 17 26  1  0  0  0  0
 18 20  1  0  0  0  0
 18 17  2  0  0  0  0
 19 18  1  0  0  0  0
 20 22  2  0  0  0  0
 21 20  1  0  0  0  0
 22 23  1  0  0  0  0
 22 24  1  0  0  0  0
 24 25  1  0  0  0  0
 26 24  2  0  0  0  0
 27  2  2  0  0  0  0
 28 27  1  0  0  0  0
 29 30  1  0  0  0  0
 29 28  2  0  0  0  0
 31 29  1  0  0  0  0
 32 31  1  0  0  0  0
 33 31  2  0  0  0  0
 33 35  1  0  0  0  0
 34 33  1  0  0  0  0
 35 37  2  0  0  0  0
 36 35  1  0  0  0  0
 37 28  1  0  0  0  0
 37  1  1  0  0  0  0
 38 39  2  0  0  0  0
 38 47  1  0  0  0  0
 39 41  1  0  0  0  0
 40 39  1  0  0  0  0
 41 42  1  0  0  0  0
 41 43  2  0  0  0  0
 43 44  1  0  0  0  0
 45 43  1  0  0  0  0
 45 46  1  0  0  0  0
 47 45  2  0  0  0  0
 48 47  1  0  0  0  0
 49 50  1  0  0  0  0
 49  1  1  0  0  0  0
 50 51  1  0  0  0  0
 52 53  1  0  0  0  0
 52 50  2  0  0  0  0
 54 52  1  0  0  0  0
 55 54  1  0  0  0  0
 56 54  2  0  0  0  0
 56 58  1  0  0  0  0
 57 56  1  0  0  0  0
 58 49  2  0  0  0  0
 59 58  1  0  0  0  0
M  END
