1,2,3,55
 OpenBabel05122313063D

 63 67  0  0  1  0  0  0  0  0999 V2000
    1.4375   -0.2069   -0.0095 P   0  0  0  0  0  0  0  0  0  0  0  0
   -1.2409    0.2400    1.8219 N   0  0  0  0  0  0  0  0  0  0  0  0
   -2.8031    0.9705   -0.3262 N   0  0  0  0  0  2  0  0  0  0  0  0
    2.6766    1.1355   -0.2491 C   0  0  0  0  0  0  0  0  0  0  0  0
    2.6296    1.8995   -1.4376 C   0  0  0  0  0  0  0  0  0  0  0  0
    1.8474    1.6938   -2.1872 H   0  0  0  0  0  0  0  0  0  0  0  0
    3.5611    2.9276   -1.6462 C   0  0  0  0  0  0  0  0  0  0  0  0
    3.5303    3.5041   -2.5837 H   0  0  0  0  0  0  0  0  0  0  0  0
    4.5289    3.2193   -0.6692 C   0  0  0  0  0  0  0  0  0  0  0  0
    5.2595    4.0250   -0.8372 H   0  0  0  0  0  0  0  0  0  0  0  0
    4.5638    2.4749    0.5198 C   0  0  0  0  0  0  0  0  0  0  0  0
    5.3177    2.6979    1.2896 H   0  0  0  0  0  0  0  0  0  0  0  0
    3.6458    1.4332    0.7303 C   0  0  0  0  0  0  0  0  0  0  0  0
    3.6917    0.8515    1.6622 H   0  0  0  0  0  0  0  0  0  0  0  0
    1.9518   -1.5910   -1.0935 C   0  0  0  0  0  0  0  0  0  0  0  0
    1.4726   -2.8884   -0.8077 C   0  0  0  0  0  0  0  0  0  0  0  0
    0.8436   -3.0687    0.0759 H   0  0  0  0  0  0  0  0  0  0  0  0
    1.7961   -3.9558   -1.6551 C   0  0  0  0  0  0  0  0  0  0  0  0
    1.4172   -4.9626   -1.4252 H   0  0  0  0  0  0  0  0  0  0  0  0
    2.5866   -3.7385   -2.7950 C   0  0  0  0  0  0  0  0  0  0  0  0
    2.8359   -4.5781   -3.4610 H   0  0  0  0  0  0  0  0  0  0  0  0
    3.0601   -2.4494   -3.0824 C   0  0  0  0  0  0  0  0  0  0  0  0
    3.6828   -2.2741   -3.9722 H   0  0  0  0  0  0  0  0  0  0  0  0
    2.7467   -1.3755   -2.2356 C   0  0  0  0  0  0  0  0  0  0  0  0
    3.1315   -0.3729   -2.4665 H   0  0  0  0  0  0  0  0  0  0  0  0
    1.7726   -0.8122    1.6971 C   0  0  0  0  0  0  0  0  0  0  0  0
    2.8381   -1.7152    1.8956 C   0  0  0  0  0  0  0  0  0  0  0  0
    3.4124   -2.0677    1.0263 H   0  0  0  0  0  0  0  0  0  0  0  0
    3.1761   -2.1669    3.1786 C   0  0  0  0  0  0  0  0  0  0  0  0
    4.0124   -2.8694    3.3094 H   0  0  0  0  0  0  0  0  0  0  0  0
    2.4423   -1.7202    4.2858 C   0  0  0  0  0  0  0  0  0  0  0  0
    2.6918   -2.0700    5.2984 H   0  0  0  0  0  0  0  0  0  0  0  0
    1.3786   -0.8274    4.0974 C   0  0  0  0  0  0  0  0  0  0  0  0
    0.7995   -0.4838    4.9691 H   0  0  0  0  0  0  0  0  0  0  0  0
    1.0273   -0.3546    2.8159 C   0  0  0  0  0  0  0  0  0  0  0  0
   -0.1108    0.6397    2.7296 C   0  0  0  0  0  0  0  0  0  0  0  0
   -0.5200    0.7847    3.7529 H   0  0  0  0  0  0  0  0  0  0  0  0
    0.2428    1.6260    2.3673 H   0  0  0  0  0  0  0  0  0  0  0  0
   -2.3701    1.2058    2.0297 C   0  0  0  0  0  0  0  0  0  0  0  0
   -2.8573    1.0287    3.0117 H   0  0  0  0  0  0  0  0  0  0  0  0
   -1.9227    2.2220    2.0508 H   0  0  0  0  0  0  0  0  0  0  0  0
   -3.3616    1.1403    0.8987 C   0  0  1  0  0  3  0  0  0  0  0  0
   -4.7454    1.2802    1.0491 C   0  0  0  0  0  0  0  0  0  0  0  0
   -5.1810    1.4065    2.0505 H   0  0  0  0  0  0  0  0  0  0  0  0
   -5.5560    1.2529   -0.0971 C   0  0  0  0  0  0  0  0  0  0  0  0
   -6.6470    1.3590   -0.0054 H   0  0  0  0  0  0  0  0  0  0  0  0
   -4.9602    1.0759   -1.3535 C   0  0  0  0  0  0  0  0  0  0  0  0
   -5.5626    1.0408   -2.2719 H   0  0  0  0  0  0  0  0  0  0  0  0
   -3.5709    0.9250   -1.4322 C   0  0  0  0  0  0  0  0  0  0  0  0
   -3.0242    0.7675   -2.3765 H   0  0  0  0  0  0  0  0  0  0  0  0
   -1.6933   -1.1836    2.1031 C   0  0  0  0  0  0  0  0  0  0  0  0
   -0.9349   -1.6446    2.7675 H   0  0  0  0  0  0  0  0  0  0  0  0
   -2.6398   -1.1460    2.6819 H   0  0  0  0  0  0  0  0  0  0  0  0
   -1.8370   -1.9911    0.8412 C   0  0  0  0  0  0  0  0  0  0  0  0
   -1.3756   -1.4313   -0.3759 C   0  0  0  0  0  3  0  0  0  0  0  0
   -1.4910   -2.1978   -1.5527 C   0  0  0  0  0  0  0  0  0  0  0  0
   -1.1380   -1.7731   -2.5036 H   0  0  0  0  0  0  0  0  0  0  0  0
   -2.0351   -3.4910   -1.5153 C   0  0  0  0  0  0  0  0  0  0  0  0
   -2.1122   -4.0752   -2.4451 H   0  0  0  0  0  0  0  0  0  0  0  0
   -2.4741   -4.0435   -0.3007 C   0  0  0  0  0  0  0  0  0  0  0  0
   -2.8974   -5.0585   -0.2709 H   0  0  0  0  0  0  0  0  0  0  0  0
   -2.3779   -3.2902    0.8779 C   0  0  0  0  0  0  0  0  0  0  0  0
   -2.7264   -3.7164    1.8328 H   0  0  0  0  0  0  0  0  0  0  0  0
  1 26  1  0  0  0  0
  2 39  1  0  0  0  0
  2 51  1  0  0  0  0
  2 36  1  0  0  0  0
  3 42  1  0  0  0  0
  4  1  1  0  0  0  0
  4 13  1  0  0  0  0
  5  4  2  0  0  0  0
  6  5  1  0  0  0  0
  7  5  1  0  0  0  0
  7  9  2  0  0  0  0
  8  7  1  0  0  0  0
  9 11  1  0  0  0  0
 10  9  1  0  0  0  0
 11 13  2  0  0  0  0
 11 12  1  0  0  0  0
 13 14  1  0  0  0  0
 15 16  1  0  0  0  0
 15  1  1  0  0  0  0
 16 17  1  0  0  0  0
 18 19  1  0  0  0  0
 18 16  2  0  0  0  0
 20 18  1  0  0  0  0
 21 20  1  0  0  0  0
 22 20  2  0  0  0  0
 22 24  1  0  0  0  0
 23 22  1  0  0  0  0
 24 15  2  0  0  0  0
 25 24  1  0  0  0  0
 26 27  2  0  0  0  0
 26 35  1  0  0  0  0
 27 29  1  0  0  0  0
 28 27  1  0  0  0  0
 29 30  1  0  0  0  0
 29 31  2  0  0  0  0
 31 32  1  0  0  0  0
 33 31  1  0  0  0  0
 33 34  1  0  0  0  0
 35 33  2  0  0  0  0
 36 35  1  0  0  0  0
 36 37  1  0  0  0  0
 38 36  1  0  0  0  0
 39 41  1  0  0  0  0
 39 40  1  0  0  0  0
 42 43  1  0  0  0  0
 42 39  1  6  0  0  0
 43 44  1  0  0  0  0
 45 46  1  0  0  0  0
 45 43  2  0  0  0  0
 47 45  1  0  0  0  0
 48 47  1  0  0  0  0
 49 47  2  0  0  0  0
 49  3  1  0  0  0  0
 50 49  1  0  0  0  0
 51 53  1  0  0  0  0
 51 52  1  0  0  0  0
 54 62  1  0  0  0  0
 54 51  1  0  0  0  0
 55 54  2  0  0  0  0
 56 58  2  0  0  0  0
 56 55  1  0  0  0  0
 57 56  1  0  0  0  0
 58 60  1  0  0  0  0
 59 58  1  0  0  0  0
 60 61  1  0  0  0  0
 60 62  2  0  0  0  0
 62 63  1  0  0  0  0
M  END
