1,3,4,5
 OpenBabel05122313063D

 34 33  0  0  0  0  0  0  0  0999 V2000
    0.7609   -0.5543   -2.6355 S   0  0  0  0  0  5  0  0  0  0  0  0
    4.0131    0.1709    0.5487 S   0  0  0  0  0  3  0  0  0  0  0  0
    1.6312   -2.8485   -0.8438 N   0  0  0  0  0  0  0  0  0  0  0  0
    1.4230   -1.6913    1.9600 N   0  0  0  0  0  0  0  0  0  0  0  0
    2.7648   -0.2242   -0.4251 O   0  0  0  0  0  1  0  0  0  0  0  0
    4.8817   -1.0687    0.6785 O   0  0  0  0  0  1  0  0  0  0  0  0
   -0.5517   -0.9557   -3.2689 O   0  0  0  0  0  0  0  0  0  0  0  0
    1.4239    0.6882   -3.1839 O   0  0  0  0  0  0  0  0  0  0  0  0
    1.9266   -1.9570   -3.1598 C   0  0  0  0  0  0  0  0  0  0  0  0
    2.5825   -2.6569   -1.9809 C   0  0  0  0  0  0  0  0  0  0  0  0
    0.5185   -3.7391   -1.2514 C   0  0  0  0  0  0  0  0  0  0  0  0
    2.3411   -3.3789    0.3504 C   0  0  0  0  0  0  0  0  0  0  0  0
    1.5369   -3.1367    1.6211 C   0  0  0  0  0  0  0  0  0  0  0  0
    0.3290   -1.5110    2.9360 C   0  0  0  0  0  0  0  0  0  0  0  0
    2.7013   -1.2055    2.5577 C   0  0  0  0  0  0  0  0  0  0  0  0
    3.0789    0.2116    2.1861 C   0  0  0  0  0  0  0  0  0  0  0  0
    2.6777   -1.4690   -3.8070 H   0  0  0  0  0  0  0  0  0  0  0  0
    1.2821   -2.6130   -3.7740 H   0  0  0  0  0  0  0  0  0  0  0  0
    2.9831   -3.6511   -2.2887 H   0  0  0  0  0  0  0  0  0  0  0  0
    3.4181   -2.0497   -1.5905 H   0  0  0  0  0  0  0  0  0  0  0  0
   -0.1641   -3.9140   -0.4011 H   0  0  0  0  0  0  0  0  0  0  0  0
    0.9170   -4.7138   -1.6114 H   0  0  0  0  0  0  0  0  0  0  0  0
   -0.0734   -3.2524   -2.0482 H   0  0  0  0  0  0  0  0  0  0  0  0
    2.5378   -4.4688    0.2290 H   0  0  0  0  0  0  0  0  0  0  0  0
    3.3218   -2.8621    0.4122 H   0  0  0  0  0  0  0  0  0  0  0  0
    0.5062   -3.5284    1.5083 H   0  0  0  0  0  0  0  0  0  0  0  0
    1.9982   -3.6922    2.4708 H   0  0  0  0  0  0  0  0  0  0  0  0
   -0.6448   -1.7691    2.4798 H   0  0  0  0  0  0  0  0  0  0  0  0
    0.2996   -0.4592    3.2653 H   0  0  0  0  0  0  0  0  0  0  0  0
    0.4969   -2.1568    3.8296 H   0  0  0  0  0  0  0  0  0  0  0  0
    3.5426   -1.8448    2.2076 H   0  0  0  0  0  0  0  0  0  0  0  0
    2.6454   -1.3251    3.6628 H   0  0  0  0  0  0  0  0  0  0  0  0
    2.2191    0.8985    2.0737 H   0  0  0  0  0  0  0  0  0  0  0  0
    3.7996    0.6379    2.9122 H   0  0  0  0  0  0  0  0  0  0  0  0
  2  6  1  0  0  0  0
  2 16  1  0  0  0  0
  3 12  1  0  0  0  0
  4 15  1  0  0  0  0
  4 14  1  0  0  0  0
  5  2  1  0  0  0  0
  7  1  2  0  0  0  0
  8  1  2  0  0  0  0
  9  1  1  0  0  0  0
  9 10  1  0  0  0  0
 10 20  1  0  0  0  0
 10  3  1  0  0  0  0
 11  3  1  0  0  0  0
 11 21  1  0  0  0  0
 12 25  1  0  0  0  0
 12 13  1  0  0  0  0
 13  4  1  0  0  0  0
 13 27  1  0  0  0  0
 14 29  1  0  0  0  0
 14 30  1  0  0  0  0
 15 32  1  0  0  0  0
 16 15  1  0  0  0  0
 16 34  1  0  0  0  0
 17  9  1  0  0  0  0
 18  9  1  0  0  0  0
 19 10  1  0  0  0  0
 22 11  1  0  0  0  0
 23 11  1  0  0  0  0
 24 12  1  0  0  0  0
 26 13  1  0  0  0  0
 28 14  1  0  0  0  0
 31 15  1  0  0  0  0
 33 16  1  0  0  0  0
M  END
