2,6,9,10
 OpenBabel05122313063D

 48 47  0  0  0  0  0  0  0  0999 V2000
    0.3762    2.2738    0.7041 S   0  0  0  0  0  0  0  0  0  0  0  0
    0.8836   -0.9954    1.3295 S   0  0  0  0  0  5  0  0  0  0  0  0
   -0.9397   -0.8388   -1.7737 S   0  0  0  0  0  0  0  0  0  0  0  0
    0.1154   -2.2379    1.7212 O   0  0  0  0  0  0  0  0  0  0  0  0
    1.3972   -0.1630    2.4863 O   0  0  0  0  0  0  0  0  0  0  0  0
   -1.0386    0.7586   -1.9357 O   0  0  0  0  0  1  0  0  0  0  0  0
    3.9475   -0.3743   -1.0191 O   0  0  0  0  0  0  0  0  0  0  0  0
   -3.9480   -0.5127    0.7775 O   0  0  0  0  0  0  0  0  0  0  0  0
    1.7251    0.2916   -0.9970 N   0  0  0  0  0  2  0  0  0  0  0  0
   -1.7224    0.1280    0.7820 N   0  0  0  0  0  2  0  0  0  0  0  0
   -1.8576    0.7594    2.0835 C   0  0  0  0  0  0  0  0  0  0  0  0
   -2.1083    2.2772    1.9778 C   0  0  0  0  0  0  0  0  0  0  0  0
   -1.3497    2.9164    0.8159 C   0  0  0  0  0  0  0  0  0  0  0  0
    0.8605    3.2261   -0.7965 C   0  0  0  0  0  0  0  0  0  0  0  0
    2.1456    2.6999   -1.4287 C   0  0  0  0  0  0  0  0  0  0  0  0
    1.9994    1.2885   -2.0137 C   0  0  0  0  0  0  0  0  0  0  0  0
   -2.5374   -1.3578   -0.9822 C   0  0  0  0  0  0  0  0  0  0  0  0
   -2.8020   -0.5007    0.2819 C   0  0  0  0  0  0  0  0  0  0  0  0
   -2.3072   -2.8096   -0.5384 C   0  0  0  0  0  0  0  0  0  0  0  0
   -3.6724   -1.1946   -1.9890 C   0  0  0  0  0  0  0  0  0  0  0  0
    2.4114   -1.5905    0.3956 C   0  0  0  0  0  0  0  0  0  0  0  0
    2.7771   -0.4658   -0.5957 C   0  0  0  0  0  0  0  0  0  0  0  0
    2.0204   -2.8402   -0.3955 C   0  0  0  0  0  0  0  0  0  0  0  0
    3.5286   -1.8553    1.3937 C   0  0  0  0  0  0  0  0  0  0  0  0
   -0.9188    0.5803    2.6521 H   0  0  0  0  0  0  0  0  0  0  0  0
   -2.6950    0.2879    2.6382 H   0  0  0  0  0  0  0  0  0  0  0  0
   -3.1893    2.4670    1.8039 H   0  0  0  0  0  0  0  0  0  0  0  0
   -1.8358    2.7654    2.9385 H   0  0  0  0  0  0  0  0  0  0  0  0
   -1.2978    4.0218    0.9063 H   0  0  0  0  0  0  0  0  0  0  0  0
   -1.8184    2.6437   -0.1509 H   0  0  0  0  0  0  0  0  0  0  0  0
    0.0156    3.1504   -1.5121 H   0  0  0  0  0  0  0  0  0  0  0  0
    0.9657    4.2827   -0.4697 H   0  0  0  0  0  0  0  0  0  0  0  0
    2.9754    2.7063   -0.6892 H   0  0  0  0  0  0  0  0  0  0  0  0
    2.4310    3.4077   -2.2395 H   0  0  0  0  0  0  0  0  0  0  0  0
    1.1657    1.2893   -2.7491 H   0  0  0  0  0  0  0  0  0  0  0  0
    2.9466    1.0138   -2.5248 H   0  0  0  0  0  0  0  0  0  0  0  0
   -3.2326   -3.1736   -0.0475 H   0  0  0  0  0  0  0  0  0  0  0  0
   -1.4779   -2.8538    0.1999 H   0  0  0  0  0  0  0  0  0  0  0  0
   -2.0829   -3.4699   -1.4038 H   0  0  0  0  0  0  0  0  0  0  0  0
   -3.6648   -0.1689   -2.4108 H   0  0  0  0  0  0  0  0  0  0  0  0
   -4.6281   -1.3366   -1.4442 H   0  0  0  0  0  0  0  0  0  0  0  0
   -3.5963   -1.9283   -2.8176 H   0  0  0  0  0  0  0  0  0  0  0  0
    1.6909   -3.6448    0.2904 H   0  0  0  0  0  0  0  0  0  0  0  0
    2.8964   -3.1791   -0.9869 H   0  0  0  0  0  0  0  0  0  0  0  0
    1.1936   -2.6197   -1.0996 H   0  0  0  0  0  0  0  0  0  0  0  0
    3.3055   -2.7496    2.0094 H   0  0  0  0  0  0  0  0  0  0  0  0
    3.6530   -0.9863    2.0677 H   0  0  0  0  0  0  0  0  0  0  0  0
    4.4684   -2.0073    0.8252 H   0  0  0  0  0  0  0  0  0  0  0  0
  1 13  1  0  0  0  0
  2  4  2  0  0  0  0
  2  5  2  0  0  0  0
  3 17  1  0  0  0  0
  6  3  1  0  0  0  0
  7 22  2  0  0  0  0
  9 22  1  0  0  0  0
 10 11  1  0  0  0  0
 11 26  1  0  0  0  0
 11 25  1  0  0  0  0
 12 11  1  0  0  0  0
 12 28  1  0  0  0  0
 13 29  1  0  0  0  0
 13 12  1  0  0  0  0
 14 32  1  0  0  0  0
 14  1  1  0  0  0  0
 15 14  1  0  0  0  0
 15 33  1  0  0  0  0
 16 15  1  0  0  0  0
 16  9  1  0  0  0  0
 17 19  1  0  0  0  0
 17 18  1  0  0  0  0
 18  8  2  0  0  0  0
 18 10  1  0  0  0  0
 19 37  1  0  0  0  0
 19 38  1  0  0  0  0
 20 41  1  0  0  0  0
 20 17  1  0  0  0  0
 21  2  1  0  0  0  0
 21 24  1  0  0  0  0
 22 21  1  0  0  0  0
 23 43  1  0  0  0  0
 23 21  1  0  0  0  0
 24 46  1  0  0  0  0
 24 47  1  0  0  0  0
 27 12  1  0  0  0  0
 30 13  1  0  0  0  0
 31 14  1  0  0  0  0
 34 15  1  0  0  0  0
 35 16  1  0  0  0  0
 36 16  1  0  0  0  0
 39 19  1  0  0  0  0
 40 20  1  0  0  0  0
 42 20  1  0  0  0  0
 44 23  1  0  0  0  0
 45 23  1  0  0  0  0
 48 24  1  0  0  0  0
M  END
