1,3,4,5
 OpenBabel05122313063D

 42 44  0  0  0  0  0  0  0  0999 V2000
   -1.7394   -1.2727   -1.9051 S   0  0  0  0  0  1  0  0  0  0  0  0
    1.4523    1.4690   -0.9496 S   0  0  0  0  0  0  0  0  0  0  0  0
   -1.0882   -1.0620    0.8951 N   0  0  0  0  0  2  0  0  0  0  0  0
    0.5659    1.1300    0.4061 N   0  0  0  0  0  2  0  0  0  0  0  0
    0.3710    1.1020   -1.9681 O   0  0  0  0  0  1  0  0  0  0  0  0
    2.0501    2.8161   -1.0285 O   0  0  0  0  0  1  0  0  0  0  0  0
   -2.0959   -2.0458    0.6825 C   0  0  0  0  0  0  0  0  0  0  0  0
   -2.4588   -2.2769   -0.6746 C   0  0  0  0  0  0  0  0  0  0  0  0
   -3.3962   -3.2938   -0.9768 C   0  0  0  0  0  0  0  0  0  0  0  0
   -3.9896   -4.0369    0.0446 C   0  0  0  0  0  0  0  0  0  0  0  0
   -3.6639   -3.7757    1.3923 C   0  0  0  0  0  0  0  0  0  0  0  0
   -2.7248   -2.7900    1.7071 C   0  0  0  0  0  0  0  0  0  0  0  0
   -0.5283   -0.9330    2.0903 C   0  0  0  0  0  3  0  0  0  0  0  0
    0.5141   -0.0362    2.5113 C   0  0  0  0  0  0  0  0  0  0  0  0
    1.0108   -0.1663    3.8391 C   0  0  0  0  0  0  0  0  0  0  0  0
    2.0755    0.6021    4.3019 C   0  0  0  0  0  0  0  0  0  0  0  0
    2.6792    1.5415    3.4383 C   0  0  0  0  0  0  0  0  0  0  0  0
    2.2042    1.7176    2.1375 C   0  0  0  0  0  0  0  0  0  0  0  0
    1.1160    0.9479    1.6578 C   0  0  0  0  0  0  0  0  0  0  0  0
    4.0903    0.6882   -1.1158 C   0  0  0  0  0  0  0  0  0  0  0  0
    5.1104   -0.2715   -1.1817 C   0  0  0  0  0  0  0  0  0  0  0  0
    4.8175   -1.6497   -1.1953 C   0  0  0  0  0  0  0  0  0  0  0  0
    3.4620   -2.0500   -1.1439 C   0  0  0  0  0  0  0  0  0  0  0  0
    2.4286   -1.1131   -1.0771 C   0  0  0  0  0  0  0  0  0  0  0  0
    2.7595    0.2541   -1.0647 C   0  0  0  0  0  0  0  0  0  0  0  0
    5.9126   -2.6819   -1.2617 C   0  0  0  0  0  0  0  0  0  0  0  0
   -3.6595   -3.4734   -2.0301 H   0  0  0  0  0  0  0  0  0  0  0  0
   -4.7263   -4.8162   -0.2034 H   0  0  0  0  0  0  0  0  0  0  0  0
   -4.1553   -4.3367    2.2008 H   0  0  0  0  0  0  0  0  0  0  0  0
   -2.5051   -2.5886    2.7648 H   0  0  0  0  0  0  0  0  0  0  0  0
   -0.8624   -1.6330    2.8748 H   0  0  0  0  0  0  0  0  0  0  0  0
    0.5406   -0.9107    4.5012 H   0  0  0  0  0  0  0  0  0  0  0  0
    2.4436    0.4759    5.3304 H   0  0  0  0  0  0  0  0  0  0  0  0
    3.5220    2.1543    3.7926 H   0  0  0  0  0  0  0  0  0  0  0  0
    2.6451    2.4753    1.4742 H   0  0  0  0  0  0  0  0  0  0  0  0
    4.3104    1.7651   -1.1110 H   0  0  0  0  0  0  0  0  0  0  0  0
    6.1599    0.0588   -1.2244 H   0  0  0  0  0  0  0  0  0  0  0  0
    3.2128   -3.1227   -1.1577 H   0  0  0  0  0  0  0  0  0  0  0  0
    1.3704   -1.4252   -1.0348 H   0  0  0  0  0  0  0  0  0  0  0  0
    6.9149   -2.2157   -1.3124 H   0  0  0  0  0  0  0  0  0  0  0  0
    5.8884   -3.3462   -0.3728 H   0  0  0  0  0  0  0  0  0  0  0  0
    5.7921   -3.3347   -2.1510 H   0  0  0  0  0  0  0  0  0  0  0  0
  1  8  1  0  0  0  0
  2  4  1  0  0  0  0
  3 13  1  0  0  0  0
  4 19  1  0  0  0  0
  5  2  1  0  0  0  0
  6  2  1  0  0  0  0
  7  3  1  0  0  0  0
  7 12  1  0  0  0  0
  8  7  2  0  0  0  0
  9  8  1  0  0  0  0
  9 10  2  0  0  0  0
 10 11  1  0  0  0  0
 11 12  2  0  0  0  0
 11 29  1  0  0  0  0
 12 30  1  0  0  0  0
 13 14  1  0  0  0  0
 13 31  1  0  0  0  0
 14 15  1  0  0  0  0
 15 16  2  0  0  0  0
 15 32  1  0  0  0  0
 16 33  1  0  0  0  0
 17 34  1  0  0  0  0
 17 16  1  0  0  0  0
 18 17  2  0  0  0  0
 19 18  1  0  0  0  0
 19 14  2  0  0  0  0
 20 36  1  0  0  0  0
 20 25  1  0  0  0  0
 21 20  2  0  0  0  0
 22 21  1  0  0  0  0
 22 23  2  0  0  0  0
 23 24  1  0  0  0  0
 24 25  2  0  0  0  0
 24 39  1  0  0  0  0
 25  2  1  0  0  0  0
 26 22  1  0  0  0  0
 26 41  1  0  0  0  0
 27  9  1  0  0  0  0
 28 10  1  0  0  0  0
 35 18  1  0  0  0  0
 37 21  1  0  0  0  0
 38 23  1  0  0  0  0
 40 26  1  0  0  0  0
 42 26  1  0  0  0  0
M  END
