1,2,6,7
 OpenBabel05122313063D

 56 56  0  0  0  0  0  0  0  0999 V2000
   -3.2059    1.8182    0.0000 S   0  0  0  0  0  1  0  0  0  0  0  0
   -0.1059    1.4819    0.0000 O   0  5  0  0  0  0  0  0  0  0  0  0
   -5.7399    0.9566    0.0001 N   0  0  0  0  0  0  0  0  0  0  0  0
   -5.9085    1.9621    0.0000 H   0  0  0  0  0  0  0  0  0  0  0  0
   -4.1937   -0.7463   -0.0000 N   0  0  0  0  0  0  0  0  0  0  0  0
   -2.8685   -0.9852    0.0000 N   0  0  0  0  0  2  0  0  0  0  0  0
   -0.3703   -1.0784   -0.0000 N   0  0  0  0  0  2  0  0  0  0  0  0
   -4.4452    0.5647    0.0000 C   0  0  0  0  0  0  0  0  0  0  0  0
   -6.8574    0.0347   -0.0000 C   0  0  0  0  0  0  0  0  0  0  0  0
   -6.8341   -0.6225   -0.8943 H   0  0  0  0  0  0  0  0  0  0  0  0
   -7.8010    0.6105    0.0003 H   0  0  0  0  0  0  0  0  0  0  0  0
   -6.8337   -0.6230    0.8939 H   0  0  0  0  0  0  0  0  0  0  0  0
   -2.3909   -2.2318   -0.0000 C   0  0  0  0  0  0  0  0  0  0  0  0
   -3.2851   -3.4299   -0.0001 C   0  0  0  0  0  0  0  0  0  0  0  0
   -3.1136   -4.0656   -0.8942 H   0  0  0  0  0  0  0  0  0  0  0  0
   -4.3366   -3.0919   -0.0002 H   0  0  0  0  0  0  0  0  0  0  0  0
   -3.1137   -4.0657    0.8941 H   0  0  0  0  0  0  0  0  0  0  0  0
   -0.9312   -2.2831   -0.0000 C   0  0  0  0  0  0  0  0  0  0  0  0
   -0.1863   -3.5834    0.0000 C   0  0  0  0  0  0  0  0  0  0  0  0
    0.4682   -3.6727   -0.8920 H   0  0  0  0  0  0  0  0  0  0  0  0
   -0.8821   -4.4409    0.0000 H   0  0  0  0  0  0  0  0  0  0  0  0
    0.4682   -3.6727    0.8921 H   0  0  0  0  0  0  0  0  0  0  0  0
    1.0226    0.7949   -0.0000 C   0  0  0  0  0  0  0  0  0  0  0  0
    2.3068    1.4307   -0.0000 C   0  0  0  0  0  0  0  0  0  0  0  0
    3.4320    0.5969   -0.0000 C   0  0  0  0  0  0  0  0  0  0  0  0
    4.4209    1.0754   -0.0000 H   0  0  0  0  0  0  0  0  0  0  0  0
    3.3880   -0.8232    0.0000 C   0  0  0  0  0  0  0  0  0  0  0  0
    2.1316   -1.4354    0.0000 C   0  0  0  0  0  0  0  0  0  0  0  0
    2.0576   -2.5252    0.0000 H   0  0  0  0  0  0  0  0  0  0  0  0
    0.9584   -0.6442    0.0000 C   0  0  0  0  0  0  0  0  0  0  0  0
    4.7029   -1.6223    0.0000 C   0  0  0  0  0  0  0  0  0  0  0  0
    5.5212   -1.2647   -1.2618 C   0  0  0  0  0  0  0  0  0  0  0  0
    4.9579   -1.5188   -2.1825 H   0  0  0  0  0  0  0  0  0  0  0  0
    6.4811   -1.8222   -1.2774 H   0  0  0  0  0  0  0  0  0  0  0  0
    5.7602   -0.1834   -1.3025 H   0  0  0  0  0  0  0  0  0  0  0  0
    5.5212   -1.2647    1.2619 C   0  0  0  0  0  0  0  0  0  0  0  0
    5.7602   -0.1834    1.3025 H   0  0  0  0  0  0  0  0  0  0  0  0
    6.4811   -1.8222    1.2774 H   0  0  0  0  0  0  0  0  0  0  0  0
    4.9579   -1.5188    2.1825 H   0  0  0  0  0  0  0  0  0  0  0  0
    4.4546   -3.1405    0.0000 C   0  0  0  0  0  0  0  0  0  0  0  0
    3.8915   -3.4653    0.8986 H   0  0  0  0  0  0  0  0  0  0  0  0
    5.4219   -3.6822    0.0000 H   0  0  0  0  0  0  0  0  0  0  0  0
    3.8915   -3.4653   -0.8985 H   0  0  0  0  0  0  0  0  0  0  0  0
    2.4113    2.9640   -0.0000 C   0  0  0  0  0  0  0  0  0  0  0  0
    3.8729    3.4433   -0.0000 C   0  0  0  0  0  0  0  0  0  0  0  0
    3.8973    4.5517   -0.0001 H   0  0  0  0  0  0  0  0  0  0  0  0
    4.4247    3.0990   -0.8988 H   0  0  0  0  0  0  0  0  0  0  0  0
    4.4247    3.0990    0.8987 H   0  0  0  0  0  0  0  0  0  0  0  0
    1.7177    3.5217    1.2656 C   0  0  0  0  0  0  0  0  0  0  0  0
    2.2222    3.1541    2.1826 H   0  0  0  0  0  0  0  0  0  0  0  0
    0.6564    3.2124    1.2993 H   0  0  0  0  0  0  0  0  0  0  0  0
    1.7639    4.6308    1.2695 H   0  0  0  0  0  0  0  0  0  0  0  0
    1.7176    3.5217   -1.2657 C   0  0  0  0  0  0  0  0  0  0  0  0
    1.7639    4.6308   -1.2696 H   0  0  0  0  0  0  0  0  0  0  0  0
    0.6564    3.2124   -1.2993 H   0  0  0  0  0  0  0  0  0  0  0  0
    2.2221    3.1541   -2.1827 H   0  0  0  0  0  0  0  0  0  0  0  0
  4  3  1  0  0  0  0
  5  6  1  0  0  0  0
  5  8  2  0  0  0  0
  7 30  1  0  0  0  0
  8  1  1  0  0  0  0
  8  3  1  0  0  0  0
  9  3  1  0  0  0  0
  9 11  1  0  0  0  0
  9 12  1  0  0  0  0
 10  9  1  0  0  0  0
 13 18  2  0  0  0  0
 13  6  1  0  0  0  0
 14 13  1  0  0  0  0
 14 17  1  0  0  0  0
 15 14  1  0  0  0  0
 16 14  1  0  0  0  0
 18  7  1  0  0  0  0
 18 19  1  0  0  0  0
 19 22  1  0  0  0  0
 20 19  1  0  0  0  0
 21 19  1  0  0  0  0
 23  2  1  0  0  0  0
 23 30  1  0  0  0  0
 24 25  1  0  0  0  0
 24 23  2  0  0  0  0
 25 27  2  0  0  0  0
 26 25  1  0  0  0  0
 27 28  1  0  0  0  0
 27 31  1  0  0  0  0
 28 29  1  0  0  0  0
 30 28  2  0  0  0  0
 31 40  1  0  0  0  0
 31 36  1  0  0  0  0
 32 31  1  0  0  0  0
 33 32  1  0  0  0  0
 34 32  1  0  0  0  0
 35 32  1  0  0  0  0
 36 38  1  0  0  0  0
 36 37  1  0  0  0  0
 36 39  1  0  0  0  0
 40 41  1  0  0  0  0
 42 40  1  0  0  0  0
 43 40  1  0  0  0  0
 44 24  1  0  0  0  0
 44 49  1  0  0  0  0
 45 44  1  0  0  0  0
 45 48  1  0  0  0  0
 46 45  1  0  0  0  0
 47 45  1  0  0  0  0
 49 52  1  0  0  0  0
 49 51  1  0  0  0  0
 49 50  1  0  0  0  0
 53 44  1  0  0  0  0
 54 53  1  0  0  0  0
 55 53  1  0  0  0  0
 56 53  1  0  0  0  0
M  CHG  1   2  -1
M  END
