1,2,4,5
 OpenBabel05122313063D

 59 59  0  0  1  0  0  0  0  0999 V2000
    2.6949    1.8655    0.0363 S   0  0  0  0  0  1  0  0  0  0  0  0
   -0.0250    0.8604    0.1183 O   0  5  0  0  0  0  0  0  0  0  0  0
    4.4037   -0.2435   -0.1887 N   0  0  0  0  0  0  0  0  0  0  0  0
    3.2134   -0.8863   -0.1069 N   0  0  0  0  0  2  0  0  0  0  0  0
    0.8440   -1.7225   -0.0227 N   0  0  0  0  0  2  0  0  0  0  0  0
    5.3665    1.8506   -0.1751 N   0  0  0  0  0  0  0  0  0  0  0  0
    5.2204    2.8586   -0.1871 H   0  0  0  0  0  0  0  0  0  0  0  0
    1.7482   -3.6044    1.3320 C   0  0  0  0  0  0  0  0  0  0  0  0
    1.9028   -2.9147    2.1853 H   0  0  0  0  0  0  0  0  0  0  0  0
    2.5231   -4.3954    1.3682 H   0  0  0  0  0  0  0  0  0  0  0  0
    0.7582   -4.0888    1.4435 H   0  0  0  0  0  0  0  0  0  0  0  0
    3.1899   -2.2011   -0.1728 C   0  0  1  0  0  3  0  0  0  0  0  0
   -2.8414   -1.5216   -0.1543 C   0  0  0  0  0  3  0  0  0  0  0  0
   -2.9874   -2.6084   -0.2402 H   0  0  0  0  0  0  0  0  0  0  0  0
   -0.4395   -1.9995   -0.0887 C   0  0  0  0  0  0  0  0  0  0  0  0
   -0.7345   -3.0663   -0.1632 H   0  0  0  0  0  0  0  0  0  0  0  0
   -3.6374    0.7346   -0.0105 C   0  0  0  0  0  0  0  0  0  0  0  0
   -4.4890    1.4279    0.0113 H   0  0  0  0  0  0  0  0  0  0  0  0
   -2.3569    1.2778    0.0759 C   0  0  0  0  0  0  0  0  0  0  0  0
    6.6957    1.3099   -0.3601 C   0  0  0  0  0  0  0  0  0  0  0  0
    6.8937    0.5092    0.3811 H   0  0  0  0  0  0  0  0  0  0  0  0
    7.4393    2.1176   -0.2264 H   0  0  0  0  0  0  0  0  0  0  0  0
    6.8285    0.8621   -1.3700 H   0  0  0  0  0  0  0  0  0  0  0  0
    4.4311   -3.0132   -0.3330 C   0  0  0  0  0  0  0  0  0  0  0  0
    5.0706   -2.5723   -1.1238 H   0  0  0  0  0  0  0  0  0  0  0  0
    4.1986   -4.0663   -0.5812 H   0  0  0  0  0  0  0  0  0  0  0  0
    5.0430   -2.9951    0.5956 H   0  0  0  0  0  0  0  0  0  0  0  0
   -6.0543   -0.4862   -1.4568 C   0  0  0  0  0  0  0  0  0  0  0  0
   -6.0327    0.6210   -1.4131 H   0  0  0  0  0  0  0  0  0  0  0  0
   -7.1167   -0.7987   -1.5336 H   0  0  0  0  0  0  0  0  0  0  0  0
   -5.5340   -0.7960   -2.3856 H   0  0  0  0  0  0  0  0  0  0  0  0
   -1.5008   -1.0439   -0.0694 C   0  0  0  0  0  0  0  0  0  0  0  0
   -3.9258   -0.6571   -0.1274 C   0  0  0  0  0  0  0  0  0  0  0  0
   -1.3666    3.1057    1.5106 C   0  0  0  0  0  0  0  0  0  0  0  0
   -1.9586    2.7742    2.3883 H   0  0  0  0  0  0  0  0  0  0  0  0
   -1.2014    4.1994    1.6031 H   0  0  0  0  0  0  0  0  0  0  0  0
   -0.3840    2.6006    1.5372 H   0  0  0  0  0  0  0  0  0  0  0  0
    4.2520    1.0762   -0.1239 C   0  0  0  0  0  0  0  0  0  0  0  0
   -1.2314    0.3689    0.0444 C   0  0  0  0  0  0  0  0  0  0  0  0
   -5.3884   -1.1219   -0.2150 C   0  0  0  0  0  0  0  0  0  0  0  0
   -1.2943    3.2911   -1.0163 C   0  0  0  0  0  0  0  0  0  0  0  0
   -0.3098    2.7910   -1.0627 H   0  0  0  0  0  0  0  0  0  0  0  0
   -1.1277    4.3858   -0.9379 H   0  0  0  0  0  0  0  0  0  0  0  0
   -1.8351    3.0950   -1.9648 H   0  0  0  0  0  0  0  0  0  0  0  0
   -3.4447    3.5800    0.2150 C   0  0  0  0  0  0  0  0  0  0  0  0
   -4.0314    3.4340   -0.7150 H   0  0  0  0  0  0  0  0  0  0  0  0
   -3.2272    4.6634    0.3029 H   0  0  0  0  0  0  0  0  0  0  0  0
   -4.0842    3.2987    1.0767 H   0  0  0  0  0  0  0  0  0  0  0  0
   -6.1446   -0.6775    1.0579 C   0  0  0  0  0  0  0  0  0  0  0  0
   -6.1264    0.4235    1.1834 H   0  0  0  0  0  0  0  0  0  0  0  0
   -5.6901   -1.1265    1.9640 H   0  0  0  0  0  0  0  0  0  0  0  0
   -7.2080   -0.9927    1.0109 H   0  0  0  0  0  0  0  0  0  0  0  0
   -2.1206    2.7948    0.1951 C   0  0  0  0  0  0  0  0  0  0  0  0
   -5.4990   -2.6511   -0.3353 C   0  0  0  0  0  0  0  0  0  0  0  0
   -6.5650   -2.9499   -0.3967 H   0  0  0  0  0  0  0  0  0  0  0  0
   -5.0582   -3.1652    0.5428 H   0  0  0  0  0  0  0  0  0  0  0  0
   -4.9932   -3.0289   -1.2470 H   0  0  0  0  0  0  0  0  0  0  0  0
    1.8303   -2.8158    0.0111 C   0  0  2  0  0  0  0  0  0  0  0  0
    1.6297   -3.5182   -0.8342 H   0  0  0  0  0  0  0  0  0  0  0  0
  3 38  2  0  0  0  0
  3  4  1  0  0  0  0
  5 58  1  0  0  0  0
  6 38  1  0  0  0  0
  7  6  1  0  0  0  0
  8 10  1  0  0  0  0
  8 11  1  0  0  0  0
  8  9  1  0  0  0  0
 12  4  1  1  0  0  0
 12 58  1  0  0  0  0
 13 33  1  0  0  0  0
 13 32  1  0  0  0  0
 14 13  1  0  0  0  0
 15 32  2  0  0  0  0
 15  5  1  0  0  0  0
 16 15  1  0  0  0  0
 17 18  1  0  0  0  0
 17 19  1  0  0  0  0
 19 53  1  0  0  0  0
 20 22  1  0  0  0  0
 20  6  1  0  0  0  0
 20 21  1  0  0  0  0
 23 20  1  0  0  0  0
 24 12  1  0  0  0  0
 24 27  1  0  0  0  0
 25 24  1  0  0  0  0
 26 24  1  0  0  0  0
 28 29  1  0  0  0  0
 28 40  1  0  0  0  0
 30 28  1  0  0  0  0
 31 28  1  0  0  0  0
 32 39  1  0  0  0  0
 33 17  2  0  0  0  0
 34 37  1  0  0  0  0
 34 36  1  0  0  0  0
 34 35  1  0  0  0  0
 38  1  1  0  0  0  0
 39 19  2  0  0  0  0
 39  2  1  0  0  0  0
 40 33  1  0  0  0  0
 40 49  1  0  0  0  0
 41 43  1  0  0  0  0
 41 53  1  0  0  0  0
 42 41  1  0  0  0  0
 44 41  1  0  0  0  0
 45 47  1  0  0  0  0
 45 48  1  0  0  0  0
 46 45  1  0  0  0  0
 49 50  1  0  0  0  0
 49 51  1  0  0  0  0
 52 49  1  0  0  0  0
 53 45  1  0  0  0  0
 53 34  1  0  0  0  0
 54 40  1  0  0  0  0
 54 56  1  0  0  0  0
 55 54  1  0  0  0  0
 57 54  1  0  0  0  0
 58 59  1  6  0  0  0
 58  8  1  0  0  0  0
M  CHG  1   2  -1
M  END
