1,12,23
 OpenBabel05122313063D

 28 29  0  0  1  0  0  0  0  0999 V2000
    0.5373    1.4222   -0.1376 N   0  0  0  0  0  2  0  0  0  0  0  0
    1.0440    2.6447   -0.4064 C   0  0  0  0  0  3  0  0  0  0  0  0
    2.1362    2.7014   -0.5219 H   0  0  0  0  0  0  0  0  0  0  0  0
    0.2281    3.7720   -0.5273 C   0  0  0  0  0  0  0  0  0  0  0  0
    0.6796    4.7485   -0.7530 H   0  0  0  0  0  0  0  0  0  0  0  0
   -1.1567    3.6249   -0.3442 C   0  0  0  0  0  0  0  0  0  0  0  0
   -1.8261    4.4952   -0.4199 H   0  0  0  0  0  0  0  0  0  0  0  0
   -1.6752    2.3564   -0.0537 C   0  0  0  0  0  0  0  0  0  0  0  0
   -2.7439    2.1855    0.1343 H   0  0  0  0  0  0  0  0  0  0  0  0
   -0.8058    1.2597    0.0290 C   0  0  0  0  0  0  0  0  0  0  0  0
   -1.1524   -0.2041    0.3143 C   0  0  2  0  0  0  0  0  0  0  0  0
   -0.2831   -0.9815   -0.4560 O   0  0  0  0  0  1  0  0  0  0  0  0
   -2.6018   -0.5646    0.0087 C   0  0  0  0  0  0  0  0  0  0  0  0
   -3.5653    0.0826    0.6934 N   0  0  0  0  0  0  0  0  0  0  0  0
   -4.8427   -0.2670    0.4725 C   0  0  0  0  0  0  0  0  0  0  0  0
   -5.6070    0.2853    1.0488 H   0  0  0  0  0  0  0  0  0  0  0  0
   -5.2265   -1.2711   -0.4297 C   0  0  0  0  0  0  0  0  0  0  0  0
   -6.2894   -1.5205   -0.5666 H   0  0  0  0  0  0  0  0  0  0  0  0
   -4.2193   -1.9360   -1.1456 C   0  0  0  0  0  0  0  0  0  0  0  0
   -4.4746   -2.7267   -1.8684 H   0  0  0  0  0  0  0  0  0  0  0  0
   -2.8830   -1.5792   -0.9261 C   0  0  0  0  0  0  0  0  0  0  0  0
   -2.0414   -2.0564   -1.4458 H   0  0  0  0  0  0  0  0  0  0  0  0
    0.6982   -0.3022    1.9834 C   0  0  0  0  0  3  0  0  0  0  0  0
    1.1626   -1.1053    2.5875 H   0  0  0  0  0  0  0  0  0  0  0  0
    0.9615    0.6779    2.4308 H   0  0  0  0  0  0  0  0  0  0  0  0
   -0.8086   -0.4883    1.8146 C   0  0  0  0  0  0  0  0  0  0  0  0
   -1.4216    0.1490    2.4851 H   0  0  0  0  0  0  0  0  0  0  0  0
   -1.1007   -1.5441    1.9877 H   0  0  0  0  0  0  0  0  0  0  0  0
  1 10  1  0  0  0  0
  2  1  1  0  0  0  0
  3  2  1  0  0  0  0
  4  2  1  0  0  0  0
  4  6  2  0  0  0  0
  5  4  1  0  0  0  0
  6  8  1  0  0  0  0
  7  6  1  0  0  0  0
  8 10  2  0  0  0  0
  8  9  1  0  0  0  0
 10 11  1  0  0  0  0
 11 12  1  6  0  0  0
 11 26  1  0  0  0  0
 13 11  1  0  0  0  0
 13 14  1  0  0  0  0
 15 14  2  0  0  0  0
 15 16  1  0  0  0  0
 17 15  1  0  0  0  0
 18 17  1  0  0  0  0
 19 21  1  0  0  0  0
 19 17  2  0  0  0  0
 20 19  1  0  0  0  0
 21 13  2  0  0  0  0
 22 21  1  0  0  0  0
 23 25  1  0  0  0  0
 23 24  1  0  0  0  0
 26 23  1  0  0  0  0
 26 28  1  0  0  0  0
 26 27  1  0  0  0  0
M  END
