1,4,5
 OpenBabel05122313063D

 30 30  0  0  0  0  0  0  0  0999 V2000
    1.9903   -0.8698   -0.1643 O   0  5  0  0  0  0  0  0  0  0  0  0
    3.7630    0.4562    0.3186 O   0  0  0  0  0  0  0  0  0  0  0  0
   -0.3913    2.3398   -0.2646 O   0  0  0  0  0  0  0  0  0  0  0  0
    0.3727    1.2264   -0.1625 N   0  0  0  0  0  2  0  0  0  0  0  0
   -2.1747   -0.1719    0.0819 C   0  0  0  0  0  3  0  0  0  0  0  0
   -3.0785   -1.0187    0.7538 C   0  0  0  0  0  0  0  0  0  0  0  0
   -2.7803   -2.0479    0.9921 H   0  0  0  0  0  0  0  0  0  0  0  0
   -4.3588   -0.5535    1.0985 C   0  0  0  0  0  0  0  0  0  0  0  0
   -5.0531   -1.2302    1.6211 H   0  0  0  0  0  0  0  0  0  0  0  0
   -4.7543    0.7559    0.7866 C   0  0  0  0  0  0  0  0  0  0  0  0
   -5.7566    1.1182    1.0603 H   0  0  0  0  0  0  0  0  0  0  0  0
   -3.8555    1.6032    0.1262 C   0  0  0  0  0  0  0  0  0  0  0  0
   -4.1495    2.6360   -0.1237 H   0  0  0  0  0  0  0  0  0  0  0  0
   -2.5705    1.1478   -0.2341 C   0  0  0  0  0  0  0  0  0  0  0  0
   -1.6432    2.0687   -0.9707 C   0  0  0  0  0  0  0  0  0  0  0  0
   -1.3664    1.6649   -1.9686 H   0  0  0  0  0  0  0  0  0  0  0  0
   -2.0770    3.0784   -1.0920 H   0  0  0  0  0  0  0  0  0  0  0  0
    1.6542    1.4828    0.0412 C   0  0  0  0  0  0  0  0  0  0  0  0
    2.2019    2.8641    0.1703 C   0  0  0  0  0  0  0  0  0  0  0  0
    1.8922    3.4837   -0.6963 H   0  0  0  0  0  0  0  0  0  0  0  0
    3.3026    2.8374    0.2382 H   0  0  0  0  0  0  0  0  0  0  0  0
    1.7933    3.3642    1.0733 H   0  0  0  0  0  0  0  0  0  0  0  0
    2.4686    0.2528    0.0632 C   0  0  0  0  0  0  0  0  0  0  0  0
    4.6113   -0.7243    0.3170 C   0  0  0  0  0  0  0  0  0  0  0  0
    4.5233   -1.2139   -0.6752 H   0  0  0  0  0  0  0  0  0  0  0  0
    4.2123   -1.4387    1.0665 H   0  0  0  0  0  0  0  0  0  0  0  0
    6.0235   -0.2803    0.6265 C   0  0  0  0  0  0  0  0  0  0  0  0
    6.3964    0.4317   -0.1361 H   0  0  0  0  0  0  0  0  0  0  0  0
    6.6959   -1.1605    0.6345 H   0  0  0  0  0  0  0  0  0  0  0  0
    6.0813    0.2070    1.6197 H   0  0  0  0  0  0  0  0  0  0  0  0
  1 23  1  0  0  0  0
  3  4  1  0  0  0  0
  4 18  1  0  0  0  0
  5  6  1  0  0  0  0
  6  7  1  0  0  0  0
  6  8  2  0  0  0  0
  8  9  1  0  0  0  0
 10 11  1  0  0  0  0
 10  8  1  0  0  0  0
 12 10  2  0  0  0  0
 13 12  1  0  0  0  0
 14  5  2  0  0  0  0
 14 12  1  0  0  0  0
 15  3  1  0  0  0  0
 15 14  1  0  0  0  0
 16 15  1  0  0  0  0
 17 15  1  0  0  0  0
 18 23  2  0  0  0  0
 18 19  1  0  0  0  0
 19 21  1  0  0  0  0
 19 22  1  0  0  0  0
 20 19  1  0  0  0  0
 23  2  1  0  0  0  0
 24  2  1  0  0  0  0
 24 27  1  0  0  0  0
 24 26  1  0  0  0  0
 25 24  1  0  0  0  0
 27 29  1  0  0  0  0
 27 30  1  0  0  0  0
 28 27  1  0  0  0  0
M  CHG  1   1  -1
M  END
