1,3,6
 OpenBabel05122313063D

 38 40  0  0  1  0  0  0  0  0999 V2000
   -2.5935    0.9200    0.0023 O   0  0  0  0  0  1  0  0  0  0  0  0
    5.9285   -1.1484    0.0360 O   0  0  0  0  0  0  0  0  0  0  0  0
   -0.5752   -0.8283   -0.0133 N   0  0  0  0  0  2  0  0  0  0  0  0
   -1.8878   -1.2377   -0.0225 N   0  0  0  0  0  0  0  0  0  0  0  0
   -2.0874   -2.2366    0.0899 H   0  0  0  0  0  0  0  0  0  0  0  0
    1.6226    1.0723   -0.0830 C   0  0  0  0  0  3  0  0  0  0  0  0
    2.3446    2.2697   -0.2200 C   0  0  0  0  0  0  0  0  0  0  0  0
    1.7839    3.2120   -0.2804 H   0  0  0  0  0  0  0  0  0  0  0  0
    3.7542    2.3003   -0.2620 C   0  0  0  0  0  0  0  0  0  0  0  0
    4.2680    3.2685   -0.3674 H   0  0  0  0  0  0  0  0  0  0  0  0
    4.4845    1.1276   -0.1629 C   0  0  0  0  0  3  0  0  0  0  0  0
    5.5818    1.1307   -0.1821 H   0  0  0  0  0  0  0  0  0  0  0  0
    4.5874   -1.3208    0.0577 C   0  0  0  0  0  0  0  0  0  0  0  0
    3.9720   -2.5718    0.1625 C   0  0  0  0  0  0  0  0  0  0  0  0
    4.5580   -3.4961    0.2352 H   0  0  0  0  0  0  0  0  0  0  0  0
    2.5731   -2.6331    0.1639 C   0  0  0  0  0  0  0  0  0  0  0  0
    2.0881   -3.6198    0.2301 H   0  0  0  0  0  0  0  0  0  0  0  0
    1.7588   -1.4881    0.0791 C   0  0  0  0  0  0  0  0  0  0  0  0
    2.3562   -0.1662   -0.0100 C   0  0  0  0  0  0  0  0  0  0  0  0
    3.8067   -0.1117   -0.0384 C   0  0  0  0  0  0  0  0  0  0  0  0
    0.3517   -1.7509    0.0663 C   0  0  0  0  0  0  0  0  0  0  0  0
    0.0329   -2.8106    0.1215 H   0  0  0  0  0  0  0  0  0  0  0  0
   -2.8823   -0.2954   -0.0189 C   0  0  1  0  0  3  0  0  0  0  0  0
   -4.2868   -0.7782   -0.0249 C   0  0  0  0  0  0  0  0  0  0  0  0
   -5.2855    0.1345    0.3761 C   0  0  0  0  0  0  0  0  0  0  0  0
   -4.9782    1.1492    0.6678 H   0  0  0  0  0  0  0  0  0  0  0  0
   -6.6284   -0.2589    0.3966 C   0  0  0  0  0  0  0  0  0  0  0  0
   -7.4016    0.4557    0.7160 H   0  0  0  0  0  0  0  0  0  0  0  0
   -6.9893   -1.5602    0.0088 C   0  0  0  0  0  0  0  0  0  0  0  0
   -8.0461   -1.8669    0.0232 H   0  0  0  0  0  0  0  0  0  0  0  0
   -6.0022   -2.4678   -0.4089 C   0  0  0  0  0  0  0  0  0  0  0  0
   -6.2840   -3.4806   -0.7333 H   0  0  0  0  0  0  0  0  0  0  0  0
   -4.6563   -2.0799   -0.4290 C   0  0  0  0  0  0  0  0  0  0  0  0
   -3.9020   -2.7911   -0.8012 H   0  0  0  0  0  0  0  0  0  0  0  0
    6.7728   -2.2832    0.1251 C   0  0  0  0  0  0  0  0  0  0  0  0
    7.8096   -1.9019    0.0886 H   0  0  0  0  0  0  0  0  0  0  0  0
    6.6112   -2.9821   -0.7248 H   0  0  0  0  0  0  0  0  0  0  0  0
    6.6203   -2.8336    1.0794 H   0  0  0  0  0  0  0  0  0  0  0  0
  2 13  1  0  0  0  0
  2 35  1  0  0  0  0
  3 21  1  0  0  0  0
  4 23  1  0  0  0  0
  4  3  1  0  0  0  0
  4  5  1  0  0  0  0
  6 19  2  0  0  0  0
  7  6  1  0  0  0  0
  8  7  1  0  0  0  0
  9  7  2  0  0  0  0
  9 11  1  0  0  0  0
 10  9  1  0  0  0  0
 11 20  1  0  0  0  0
 12 11  1  0  0  0  0
 13 14  1  0  0  0  0
 14 16  2  0  0  0  0
 14 15  1  0  0  0  0
 16 17  1  0  0  0  0
 18 16  1  0  0  0  0
 19 18  1  0  0  0  0
 20 19  1  0  0  0  0
 20 13  2  0  0  0  0
 21 18  2  0  0  0  0
 21 22  1  0  0  0  0
 23  1  1  1  0  0  0
 24 23  1  0  0  0  0
 24 25  1  0  0  0  0
 25 27  2  0  0  0  0
 25 26  1  0  0  0  0
 27 28  1  0  0  0  0
 29 30  1  0  0  0  0
 29 27  1  0  0  0  0
 31 29  2  0  0  0  0
 32 31  1  0  0  0  0
 33 31  1  0  0  0  0
 33 24  2  0  0  0  0
 34 33  1  0  0  0  0
 35 38  1  0  0  0  0
 36 35  1  0  0  0  0
 37 35  1  0  0  0  0
M  END
