1,6,17
 OpenBabel05122313063D

 40 41  0  0  1  0  0  0  0  0999 V2000
   -1.4142   -2.3264   -0.1972 O   0  5  0  0  0  0  0  0  0  0  0  0
   -0.6095    3.5937   -0.0652 O   0  0  0  0  0  0  0  0  0  0  0  0
   -0.5985    1.7478    2.1758 O   0  0  0  0  0  0  0  0  0  0  0  0
    1.9162    1.7148   -1.8195 O   0  0  0  0  0  0  0  0  0  0  0  0
    2.9328    1.2636    0.1495 O   0  0  0  0  0  0  0  0  0  0  0  0
   -1.8695    0.2933   -0.2422 N   0  0  0  0  0  2  0  0  0  0  0  0
   -2.6735   -1.9281   -0.1443 C   0  0  0  0  0  0  0  0  0  0  0  0
   -3.7977   -2.7772   -0.0790 C   0  0  0  0  0  0  0  0  0  0  0  0
   -5.1049   -2.2334   -0.0142 C   0  0  0  0  0  0  0  0  0  0  0  0
   -5.3652   -0.8606   -0.0194 C   0  0  0  0  0  0  0  0  0  0  0  0
   -4.2725    0.0464   -0.0958 C   0  0  0  0  0  0  0  0  0  0  0  0
   -2.9619   -0.5173   -0.1570 C   0  0  2  0  0  3  0  0  0  0  0  0
   -4.3411    1.4755   -0.1190 C   0  0  0  0  0  0  0  0  0  0  0  0
   -3.1945    2.2573   -0.2189 C   0  0  0  0  0  0  0  0  0  0  0  0
   -1.9289    1.6235   -0.2878 C   0  0  0  0  0  0  0  0  0  0  0  0
   -0.5796    2.2539   -0.5092 C   0  0  2  0  0  0  0  0  0  0  0  0
    0.5363    1.3641    0.1270 C   0  0  2  0  0  3  0  0  0  0  0  0
    0.4384    1.3551    1.6399 C   0  0  0  0  0  0  0  0  0  0  0  0
    1.5739    0.8393    2.5122 C   0  0  0  0  0  0  0  0  0  0  0  0
    1.8225    1.4791   -0.6169 C   0  0  0  0  0  0  0  0  0  0  0  0
    4.2050    1.3816   -0.5127 C   0  0  0  0  0  0  0  0  0  0  0  0
    5.2636    0.8138    0.4114 C   0  0  0  0  0  0  0  0  0  0  0  0
    0.5144    4.3605   -0.4337 C   0  0  0  0  0  0  0  0  0  0  0  0
   -3.6429   -3.8660   -0.0747 H   0  0  0  0  0  0  0  0  0  0  0  0
   -5.9534   -2.9336    0.0420 H   0  0  0  0  0  0  0  0  0  0  0  0
   -6.3944   -0.4769    0.0321 H   0  0  0  0  0  0  0  0  0  0  0  0
   -5.3292    1.9587   -0.0602 H   0  0  0  0  0  0  0  0  0  0  0  0
   -3.2313    3.3545   -0.2366 H   0  0  0  0  0  0  0  0  0  0  0  0
   -0.3819    2.2296   -1.6107 H   0  0  0  0  0  0  0  0  0  0  0  0
    2.0682   -0.0542    2.0900 H   0  0  0  0  0  0  0  0  0  0  0  0
    1.1577    0.6284    3.5145 H   0  0  0  0  0  0  0  0  0  0  0  0
    2.3576    1.6181    2.6018 H   0  0  0  0  0  0  0  0  0  0  0  0
    4.3869    2.4531   -0.7469 H   0  0  0  0  0  0  0  0  0  0  0  0
    4.1670    0.8521   -1.4873 H   0  0  0  0  0  0  0  0  0  0  0  0
    6.2662    0.9125   -0.0502 H   0  0  0  0  0  0  0  0  0  0  0  0
    5.2761    1.3488    1.3818 H   0  0  0  0  0  0  0  0  0  0  0  0
    5.0772   -0.2603    0.6127 H   0  0  0  0  0  0  0  0  0  0  0  0
    0.2938    5.4117   -0.1649 H   0  0  0  0  0  0  0  0  0  0  0  0
    1.4364    4.0513    0.1145 H   0  0  0  0  0  0  0  0  0  0  0  0
    0.7317    4.2949   -1.5256 H   0  0  0  0  0  0  0  0  0  0  0  0
  1  7  1  0  0  0  0
  4 20  2  0  0  0  0
  7  8  2  0  0  0  0
  8 24  1  0  0  0  0
  8  9  1  0  0  0  0
  9 25  1  0  0  0  0
 10  9  2  0  0  0  0
 10 26  1  0  0  0  0
 11 10  1  0  0  0  0
 12  6  1  6  0  0  0
 12  7  1  0  0  0  0
 12 11  1  0  0  0  0
 13 11  2  0  0  0  0
 13 27  1  0  0  0  0
 14 13  1  0  0  0  0
 15  6  1  0  0  0  0
 15 14  2  0  0  0  0
 16 29  1  6  0  0  0
 16 15  1  0  0  0  0
 16  2  1  0  0  0  0
 16 17  1  0  0  0  0
 17 20  1  1  0  0  0
 17 18  1  0  0  0  0
 18  3  2  0  0  0  0
 18 19  1  0  0  0  0
 19 32  1  0  0  0  0
 19 31  1  0  0  0  0
 20  5  1  0  0  0  0
 21  5  1  0  0  0  0
 21 22  1  0  0  0  0
 22 37  1  0  0  0  0
 22 36  1  0  0  0  0
 23 38  1  0  0  0  0
 23  2  1  0  0  0  0
 23 39  1  0  0  0  0
 28 14  1  0  0  0  0
 30 19  1  0  0  0  0
 33 21  1  0  0  0  0
 34 21  1  0  0  0  0
 35 22  1  0  0  0  0
 40 23  1  0  0  0  0
M  CHG  1   1  -1
M  END
