14,17,35
 OpenBabel05122313063D

 35 37  0  0  1  0  0  0  0  0999 V2000
    1.6586    0.9047    1.7374 N   0  0  0  0  0  0  0  0  0  0  0  0
    2.0759    0.6722    2.9905 C   0  0  0  0  0  0  0  0  0  0  0  0
    1.3133    0.7705    3.7832 H   0  0  0  0  0  0  0  0  0  0  0  0
    3.3961    0.3209    3.3099 C   0  0  0  0  0  0  0  0  0  0  0  0
    3.6880    0.1397    4.3549 H   0  0  0  0  0  0  0  0  0  0  0  0
    4.3236    0.2107    2.2623 C   0  0  0  0  0  0  0  0  0  0  0  0
    5.3703   -0.0637    2.4645 H   0  0  0  0  0  0  0  0  0  0  0  0
    3.8997    0.4514    0.9508 C   0  0  0  0  0  0  0  0  0  0  0  0
    4.5801    0.3439    0.0948 H   0  0  0  0  0  0  0  0  0  0  0  0
    2.5479    0.7920    0.7374 C   0  0  0  0  0  0  0  0  0  0  0  0
    2.0349    1.0211   -0.6731 C   0  0  1  0  0  0  0  0  0  0  0  0
    2.7673    1.6213   -1.2469 H   0  0  0  0  0  0  0  0  0  0  0  0
    2.1053   -0.5988   -1.6392 S   0  0  0  0  0  0  0  0  0  0  0  0
    1.4233   -1.5839   -0.6207 O   0  0  0  0  0  1  0  0  0  0  0  0
    1.3008   -0.3897   -2.8654 O   0  0  0  0  0  1  0  0  0  0  0  0
    3.5427   -0.9196   -1.7782 O   0  0  0  0  0  1  0  0  0  0  0  0
   -0.4464    1.0831   -0.3877 N   0  0  0  0  0  2  0  0  0  0  0  0
    0.7061    1.7258   -0.7254 C   0  0  0  0  0  0  0  0  0  0  0  0
    0.6759    3.0895   -1.0565 C   0  0  0  0  0  0  0  0  0  0  0  0
    1.6154    3.5835   -1.3387 H   0  0  0  0  0  0  0  0  0  0  0  0
   -0.5294    3.8007   -1.0073 C   0  0  0  0  0  0  0  0  0  0  0  0
   -0.5570    4.8686   -1.2692 H   0  0  0  0  0  0  0  0  0  0  0  0
   -1.6910    3.1375   -0.6101 C   0  0  0  0  0  0  0  0  0  0  0  0
   -2.6517    3.6651   -0.5447 H   0  0  0  0  0  0  0  0  0  0  0  0
   -1.6408    1.7687   -0.2987 C   0  0  0  0  0  0  0  0  0  0  0  0
   -2.7591    0.9427    0.1432 C   0  0  0  0  0  0  0  0  0  0  0  0
   -4.0690    1.4062    0.3809 C   0  0  0  0  0  3  0  0  0  0  0  0
   -4.3281    2.4625    0.2094 H   0  0  0  0  0  0  0  0  0  0  0  0
   -5.0472    0.5192    0.8456 C   0  0  0  0  0  0  0  0  0  0  0  0
   -6.0703    0.8768    1.0335 H   0  0  0  0  0  0  0  0  0  0  0  0
   -4.7150   -0.8291    1.0779 C   0  0  0  0  0  0  0  0  0  0  0  0
   -5.4839   -1.5232    1.4522 H   0  0  0  0  0  0  0  0  0  0  0  0
   -3.4132   -1.2996    0.8392 C   0  0  0  0  0  0  0  0  0  0  0  0
   -3.1718   -2.3566    1.0345 H   0  0  0  0  0  0  0  0  0  0  0  0
   -2.4176   -0.4262    0.3608 C   0  0  0  0  0  3  0  0  0  0  0  0
  1  2  1  0  0  0  0
  2  4  2  0  0  0  0
  2  3  1  0  0  0  0
  4  5  1  0  0  0  0
  6  7  1  0  0  0  0
  6  4  1  0  0  0  0
  8  6  2  0  0  0  0
  9  8  1  0  0  0  0
 10  8  1  0  0  0  0
 10  1  2  0  0  0  0
 11 12  1  6  0  0  0
 11 10  1  0  0  0  0
 13 11  1  0  0  0  0
 13 14  1  0  0  0  0
 15 13  1  0  0  0  0
 16 13  1  0  0  0  0
 17 25  1  0  0  0  0
 18 11  1  0  0  0  0
 18 17  1  0  0  0  0
 19 21  1  0  0  0  0
 19 18  2  0  0  0  0
 20 19  1  0  0  0  0
 21 23  2  0  0  0  0
 22 21  1  0  0  0  0
 23 24  1  0  0  0  0
 23 25  1  0  0  0  0
 25 26  2  0  0  0  0
 26 35  1  0  0  0  0
 26 27  1  0  0  0  0
 27 29  1  0  0  0  0
 28 27  1  0  0  0  0
 29 30  1  0  0  0  0
 29 31  2  0  0  0  0
 31 32  1  0  0  0  0
 33 34  1  0  0  0  0
 33 31  1  0  0  0  0
 35 33  2  0  0  0  0
M  END
