2,3,5
 OpenBabel05122313063D

 32 34  0  0  0  0  0  0  0  0999 V2000
   -0.8414   -2.2766    0.1178 N   0  0  0  0  0  0  0  0  0  0  0  0
   -1.4260   -1.1349    0.0459 N   0  0  0  0  0  2  0  0  0  0  0  0
   -2.3594    1.3957   -0.0742 O   0  5  0  0  0  0  0  0  0  0  0  0
    0.5390   -2.1243    0.0814 C   0  0  0  0  0  0  0  0  0  0  0  0
    1.0988   -0.7735   -0.0145 C   0  0  0  0  0  2  0  0  0  0  0  0
    2.4687   -0.6560   -0.1361 C   0  0  0  0  0  0  0  0  0  0  0  0
    2.9421    0.3321   -0.2590 H   0  0  0  0  0  0  0  0  0  0  0  0
    4.7527   -1.6724   -0.2319 C   0  0  0  0  0  0  0  0  0  0  0  0
    5.1863   -0.6653   -0.3389 H   0  0  0  0  0  0  0  0  0  0  0  0
    5.5788   -2.7928   -0.2070 C   0  0  0  0  0  0  0  0  0  0  0  0
    6.6696   -2.6734   -0.2942 H   0  0  0  0  0  0  0  0  0  0  0  0
    5.0215   -4.0892   -0.0704 C   0  0  0  0  0  0  0  0  0  0  0  0
    5.6811   -4.9698   -0.0517 H   0  0  0  0  0  0  0  0  0  0  0  0
    3.6446   -4.2467    0.0372 C   0  0  0  0  0  0  0  0  0  0  0  0
    3.2040   -5.2507    0.1404 H   0  0  0  0  0  0  0  0  0  0  0  0
    1.3597   -3.2499    0.1064 C   0  0  0  0  0  0  0  0  0  0  0  0
    0.8988   -4.2458    0.1849 H   0  0  0  0  0  0  0  0  0  0  0  0
    3.3424   -1.7989   -0.1204 C   0  0  0  0  0  0  0  0  0  0  0  0
    2.7748   -3.1192    0.0146 C   0  0  0  0  0  0  0  0  0  0  0  0
   -2.8044   -0.9664    0.0304 C   0  0  0  0  0  0  0  0  0  0  0  0
   -3.2216    0.4194   -0.0407 C   0  0  0  0  0  0  0  0  0  0  0  0
   -4.6347    0.6446   -0.0688 C   0  0  0  0  0  0  0  0  0  0  0  0
   -4.9855    1.6856   -0.1224 H   0  0  0  0  0  0  0  0  0  0  0  0
   -5.5253   -0.4198   -0.0281 C   0  0  0  0  0  0  0  0  0  0  0  0
   -6.6075   -0.2090   -0.0512 H   0  0  0  0  0  0  0  0  0  0  0  0
   -5.0996   -1.7831    0.0441 C   0  0  0  0  0  0  0  0  0  0  0  0
   -3.7304   -2.0368    0.0719 C   0  0  0  0  0  0  0  0  0  0  0  0
   -3.3341   -3.0613    0.1255 H   0  0  0  0  0  0  0  0  0  0  0  0
   -6.1179   -2.8939    0.0871 C   0  0  0  0  0  0  0  0  0  0  0  0
   -6.7880   -2.7982    0.9680 H   0  0  0  0  0  0  0  0  0  0  0  0
   -5.6324   -3.8874    0.1394 H   0  0  0  0  0  0  0  0  0  0  0  0
   -6.7708   -2.8832   -0.8116 H   0  0  0  0  0  0  0  0  0  0  0  0
  2  1  1  0  0  0  0
  3 21  1  0  0  0  0
  4 16  1  0  0  0  0
  4  1  2  0  0  0  0
  5  4  1  0  0  0  0
  6 18  2  0  0  0  0
  6  5  1  0  0  0  0
  7  6  1  0  0  0  0
  8 10  2  0  0  0  0
  8 18  1  0  0  0  0
  9  8  1  0  0  0  0
 10 12  1  0  0  0  0
 11 10  1  0  0  0  0
 12 13  1  0  0  0  0
 12 14  2  0  0  0  0
 14 15  1  0  0  0  0
 16 17  1  0  0  0  0
 18 19  1  0  0  0  0
 19 14  1  0  0  0  0
 19 16  2  0  0  0  0
 20  2  1  0  0  0  0
 20 27  1  0  0  0  0
 21 20  2  0  0  0  0
 22 21  1  0  0  0  0
 22 24  2  0  0  0  0
 23 22  1  0  0  0  0
 24 26  1  0  0  0  0
 25 24  1  0  0  0  0
 26 27  2  0  0  0  0
 26 29  1  0  0  0  0
 27 28  1  0  0  0  0
 29 31  1  0  0  0  0
 29 30  1  0  0  0  0
 32 29  1  0  0  0  0
M  CHG  1   3  -1
M  END
