1,2,3
 OpenBabel05122313063D

 54 56  0  0  1  0  0  0  0  0999 V2000
    0.3508    1.0006   -0.7500 O   0  5  0  0  0  0  0  0  0  0  0  0
   -0.4272   -1.6617   -0.8084 N   0  0  0  0  0  2  0  0  0  0  0  0
   -3.0760   -1.2714   -0.1708 C   0  0  0  0  0  3  0  0  0  0  0  0
   -4.3982   -1.1289    0.3077 C   0  0  0  0  0  0  0  0  0  0  0  0
   -4.7418   -0.1524    0.6891 H   0  0  0  0  0  0  0  0  0  0  0  0
   -5.3004   -2.2060    0.3360 C   0  0  0  0  0  0  0  0  0  0  0  0
   -6.3227   -2.0661    0.7223 H   0  0  0  0  0  0  0  0  0  0  0  0
   -4.8902   -3.4687   -0.1241 C   0  0  0  0  0  0  0  0  0  0  0  0
   -5.5864   -4.3209   -0.1028 H   0  0  0  0  0  0  0  0  0  0  0  0
   -3.5847   -3.6471   -0.5983 C   0  0  0  0  0  0  0  0  0  0  0  0
   -3.2771   -4.6507   -0.9285 H   0  0  0  0  0  0  0  0  0  0  0  0
   -2.6815   -2.5592   -0.6178 C   0  0  0  0  0  0  0  0  0  0  0  0
   -1.2776   -2.7175   -1.0520 C   0  0  2  0  0  3  0  0  0  0  0  0
   -0.8240   -3.8956   -1.6731 C   0  0  0  0  0  0  0  0  0  0  0  0
   -1.5319   -4.7066   -1.8824 H   0  0  0  0  0  0  0  0  0  0  0  0
    0.5142   -4.0056   -2.0511 C   0  0  0  0  0  0  0  0  0  0  0  0
    0.8775   -4.8991   -2.5806 H   0  0  0  0  0  0  0  0  0  0  0  0
    1.3832   -2.9613   -1.7461 C   0  0  0  0  0  0  0  0  0  0  0  0
    2.4377   -3.0123   -2.0416 H   0  0  0  0  0  0  0  0  0  0  0  0
    0.9091   -1.8013   -1.0836 C   0  0  0  0  0  0  0  0  0  0  0  0
    1.9185   -0.7818   -0.7108 C   0  0  0  0  0  0  0  0  0  0  0  0
    1.6216    0.6090   -0.6473 C   0  0  0  0  0  0  0  0  0  0  0  0
    2.6685    1.5601   -0.4460 C   0  0  0  0  0  0  0  0  0  0  0  0
    3.9596    1.0649   -0.1960 C   0  0  0  0  0  0  0  0  0  0  0  0
    4.7606    1.7889   -0.0126 H   0  0  0  0  0  0  0  0  0  0  0  0
    4.2706   -0.3091   -0.1459 C   0  0  0  0  0  0  0  0  0  0  0  0
    3.2361   -1.2071   -0.4335 C   0  0  0  0  0  0  0  0  0  0  0  0
    3.4369   -2.2869   -0.3922 H   0  0  0  0  0  0  0  0  0  0  0  0
    2.3895    3.0757   -0.4880 C   0  0  0  0  0  0  0  0  0  0  0  0
    1.7411    3.4406   -1.8444 C   0  0  0  0  0  0  0  0  0  0  0  0
    1.4892    4.5212   -1.8727 H   0  0  0  0  0  0  0  0  0  0  0  0
    0.8176    2.8601   -2.0220 H   0  0  0  0  0  0  0  0  0  0  0  0
    2.4411    3.2315   -2.6786 H   0  0  0  0  0  0  0  0  0  0  0  0
    3.6813    3.9042   -0.3565 C   0  0  0  0  0  0  0  0  0  0  0  0
    3.4332    4.9822   -0.4288 H   0  0  0  0  0  0  0  0  0  0  0  0
    4.4078    3.6737   -1.1617 H   0  0  0  0  0  0  0  0  0  0  0  0
    4.1828    3.7469    0.6199 H   0  0  0  0  0  0  0  0  0  0  0  0
    1.4608    3.4744    0.6825 C   0  0  0  0  0  0  0  0  0  0  0  0
    1.2420    4.5623    0.6456 H   0  0  0  0  0  0  0  0  0  0  0  0
    1.9476    3.2614    1.6561 H   0  0  0  0  0  0  0  0  0  0  0  0
    0.5018    2.9287    0.6484 H   0  0  0  0  0  0  0  0  0  0  0  0
    5.6656   -0.8385    0.2330 C   0  0  0  0  0  0  0  0  0  0  0  0
    5.5537   -1.6312    1.5559 C   0  0  0  0  0  0  0  0  0  0  0  0
    5.1850   -0.9809    2.3753 H   0  0  0  0  0  0  0  0  0  0  0  0
    6.5423   -2.0367    1.8566 H   0  0  0  0  0  0  0  0  0  0  0  0
    4.8522   -2.4845    1.4624 H   0  0  0  0  0  0  0  0  0  0  0  0
    6.1927   -1.7689   -0.8822 C   0  0  0  0  0  0  0  0  0  0  0  0
    5.5267   -2.6401   -1.0428 H   0  0  0  0  0  0  0  0  0  0  0  0
    7.1970   -2.1616   -0.6198 H   0  0  0  0  0  0  0  0  0  0  0  0
    6.2754   -1.2249   -1.8448 H   0  0  0  0  0  0  0  0  0  0  0  0
    6.6822    0.2991    0.4321 C   0  0  0  0  0  0  0  0  0  0  0  0
    6.3850    0.9801    1.2548 H   0  0  0  0  0  0  0  0  0  0  0  0
    6.8079    0.9046   -0.4883 H   0  0  0  0  0  0  0  0  0  0  0  0
    7.6734   -0.1236    0.6928 H   0  0  0  0  0  0  0  0  0  0  0  0
  1 22  1  0  0  0  0
  3  4  1  0  0  0  0
  4  6  2  0  0  0  0
  4  5  1  0  0  0  0
  6  7  1  0  0  0  0
  8  9  1  0  0  0  0
  8  6  1  0  0  0  0
 10  8  2  0  0  0  0
 11 10  1  0  0  0  0
 12 10  1  0  0  0  0
 12  3  2  0  0  0  0
 13  2  1  0  0  0  0
 13 12  1  1  0  0  0
 14 13  1  0  0  0  0
 15 14  1  0  0  0  0
 16 18  1  0  0  0  0
 16 14  2  0  0  0  0
 17 16  1  0  0  0  0
 18 20  2  0  0  0  0
 19 18  1  0  0  0  0
 20  2  1  0  0  0  0
 20 21  1  0  0  0  0
 21 22  2  0  0  0  0
 21 27  1  0  0  0  0
 22 23  1  0  0  0  0
 23 24  2  0  0  0  0
 24 26  1  0  0  0  0
 24 25  1  0  0  0  0
 26 42  1  0  0  0  0
 27 28  1  0  0  0  0
 27 26  2  0  0  0  0
 29 23  1  0  0  0  0
 29 34  1  0  0  0  0
 29 38  1  0  0  0  0
 30 29  1  0  0  0  0
 31 30  1  0  0  0  0
 32 30  1  0  0  0  0
 33 30  1  0  0  0  0
 34 37  1  0  0  0  0
 35 34  1  0  0  0  0
 36 34  1  0  0  0  0
 38 40  1  0  0  0  0
 39 38  1  0  0  0  0
 41 38  1  0  0  0  0
 42 51  1  0  0  0  0
 42 43  1  0  0  0  0
 43 45  1  0  0  0  0
 43 44  1  0  0  0  0
 46 43  1  0  0  0  0
 47 49  1  0  0  0  0
 47 42  1  0  0  0  0
 48 47  1  0  0  0  0
 50 47  1  0  0  0  0
 51 54  1  0  0  0  0
 51 52  1  0  0  0  0
 53 51  1  0  0  0  0
M  CHG  1   1  -1
M  END
