1,2,4
 OpenBabel05122313063D

 26 26  0  0  1  0  0  0  0  0999 V2000
   -2.6347    0.3580    0.0268 N   0  0  0  0  0  2  0  0  0  0  0  0
   -0.5355    2.4912   -0.4502 O   0  5  0  0  0  0  0  0  0  0  0  0
    0.1288   -2.3786    0.6230 O   0  0  0  0  0  0  0  0  0  0  0  0
   -0.7461   -1.5802    0.3352 C   0  0  0  0  0  3  0  0  0  0  0  0
   -2.1800   -1.9836    0.1778 C   0  0  0  0  0  0  0  0  0  0  0  0
   -3.1369   -0.9515   -0.0344 C   0  0  0  0  0  0  0  0  0  0  0  0
   -4.4593   -1.3446   -0.3572 C   0  0  0  0  0  0  0  0  0  0  0  0
   -5.2148   -0.6006   -0.6299 H   0  0  0  0  0  0  0  0  0  0  0  0
   -4.8099   -2.7025   -0.3811 C   0  0  0  0  0  0  0  0  0  0  0  0
   -5.8434   -2.9780   -0.6427 H   0  0  0  0  0  0  0  0  0  0  0  0
   -3.8703   -3.7081   -0.0944 C   0  0  0  0  0  0  0  0  0  0  0  0
   -4.1637   -4.7680   -0.1157 H   0  0  0  0  0  0  0  0  0  0  0  0
   -2.5471   -3.3388    0.1756 C   0  0  0  0  0  0  0  0  0  0  0  0
   -1.7597   -4.0840    0.3634 H   0  0  0  0  0  0  0  0  0  0  0  0
   -3.3567    1.4695    0.2798 C   0  0  2  0  0  3  0  0  0  0  0  0
   -2.8492    2.7813    0.1456 C   0  0  0  0  0  0  0  0  0  0  0  0
   -3.5713    3.5804    0.3631 H   0  0  0  0  0  0  0  0  0  0  0  0
   -1.5633    3.2201   -0.2691 C   0  0  0  0  0  0  0  0  0  0  0  0
   -1.3574    4.7027   -0.5208 C   0  0  0  0  0  0  0  0  0  0  0  0
   -2.2400    5.3167   -0.2634 H   0  0  0  0  0  0  0  0  0  0  0  0
   -1.1155    4.8558   -1.5931 H   0  0  0  0  0  0  0  0  0  0  0  0
   -0.4788    5.0558    0.0557 H   0  0  0  0  0  0  0  0  0  0  0  0
   -4.7872    1.3878    0.7813 C   0  0  0  0  0  0  0  0  0  0  0  0
   -5.5207    1.3734   -0.0511 H   0  0  0  0  0  0  0  0  0  0  0  0
   -5.0099    2.2821    1.3921 H   0  0  0  0  0  0  0  0  0  0  0  0
   -4.9584    0.4845    1.3965 H   0  0  0  0  0  0  0  0  0  0  0  0
  2 18  1  0  0  0  0
  4  3  2  0  0  0  0
  5  4  1  0  0  0  0
  6  1  1  0  0  0  0
  6  5  2  0  0  0  0
  7  6  1  0  0  0  0
  8  7  1  0  0  0  0
  9  7  2  0  0  0  0
  9 11  1  0  0  0  0
 10  9  1  0  0  0  0
 11 13  2  0  0  0  0
 12 11  1  0  0  0  0
 13  5  1  0  0  0  0
 13 14  1  0  0  0  0
 15  1  1  1  0  0  0
 15 23  1  0  0  0  0
 16 15  1  0  0  0  0
 16 17  1  0  0  0  0
 18 16  2  0  0  0  0
 19 18  1  0  0  0  0
 19 20  1  0  0  0  0
 19 22  1  0  0  0  0
 21 19  1  0  0  0  0
 23 25  1  0  0  0  0
 23 26  1  0  0  0  0
 24 23  1  0  0  0  0
M  CHG  1   2  -1
M  END
