1,2,6
 OpenBabel05122313063D

 48 51  0  0  1  0  0  0  0  0999 V2000
    1.6737   -1.4964    0.2025 O   0  0  0  0  0  1  0  0  0  0  0  0
   -0.3030    0.2736   -0.0595 N   0  0  0  0  0  2  0  0  0  0  0  0
    1.0164    0.6499   -0.1311 N   0  0  0  0  0  0  0  0  0  0  0  0
    1.2294    1.6323   -0.3256 H   0  0  0  0  0  0  0  0  0  0  0  0
    7.5119    1.1767   -0.1411 N   0  0  0  0  0  0  0  0  0  0  0  0
   -2.5093   -1.5384   -0.1369 C   0  0  0  0  0  2  0  0  0  0  0  0
   -3.2273   -2.7199   -0.3640 C   0  0  0  0  0  3  0  0  0  0  0  0
   -2.6752   -3.6693   -0.3687 H   0  0  0  0  0  0  0  0  0  0  0  0
   -4.6344   -2.7432   -0.5451 C   0  0  0  0  0  0  0  0  0  0  0  0
   -5.1386   -3.7074   -0.7134 H   0  0  0  0  0  0  0  0  0  0  0  0
   -5.3542   -1.5704   -0.4872 C   0  0  0  0  0  0  0  0  0  0  0  0
   -6.4490   -1.5588   -0.6000 H   0  0  0  0  0  0  0  0  0  0  0  0
   -5.6924    3.2907    0.0152 C   0  0  0  0  0  3  0  0  0  0  0  0
   -6.7818    3.1670   -0.0847 H   0  0  0  0  0  0  0  0  0  0  0  0
   -5.1374    4.5401    0.2067 C   0  0  0  0  0  0  0  0  0  0  0  0
   -5.7742    5.4354    0.2609 H   0  0  0  0  0  0  0  0  0  0  0  0
   -3.7266    4.6577    0.3467 C   0  0  0  0  0  0  0  0  0  0  0  0
   -3.2770    5.6469    0.5216 H   0  0  0  0  0  0  0  0  0  0  0  0
   -2.9082    3.5414    0.2789 C   0  0  0  0  0  0  0  0  0  0  0  0
   -1.8308    3.6953    0.4251 H   0  0  0  0  0  0  0  0  0  0  0  0
   -2.6238    1.0299   -0.0218 C   0  0  0  0  0  0  0  0  0  0  0  0
   -5.4412    0.8500   -0.2410 C   0  0  0  0  0  0  0  0  0  0  0  0
   -6.5340    0.7708   -0.3580 H   0  0  0  0  0  0  0  0  0  0  0  0
   -4.8716    2.1197   -0.0524 C   0  0  0  0  0  0  0  0  0  0  0  0
   -3.4342    2.2267    0.0657 C   0  0  0  0  0  0  0  0  0  0  0  0
   -3.2238   -0.2796   -0.1318 C   0  0  0  0  0  0  0  0  0  0  0  0
   -4.6781   -0.3287   -0.2817 C   0  0  0  0  0  0  0  0  0  0  0  0
   -1.2049    1.2275   -0.0449 C   0  0  0  0  0  0  0  0  0  0  0  0
   -0.8226    2.2615   -0.0773 H   0  0  0  0  0  0  0  0  0  0  0  0
    1.9991   -0.2977    0.0361 C   0  0  2  0  0  3  0  0  0  0  0  0
    3.4022    0.1451   -0.0055 C   0  0  0  0  0  0  0  0  0  0  0  0
    3.8182    1.4954    0.0411 C   0  0  0  0  0  0  0  0  0  0  0  0
    3.0862    2.3128    0.1431 H   0  0  0  0  0  0  0  0  0  0  0  0
    5.1660    1.8436   -0.0017 C   0  0  0  0  0  0  0  0  0  0  0  0
    5.4376    2.9050    0.0484 H   0  0  0  0  0  0  0  0  0  0  0  0
    6.1789    0.8418   -0.0922 C   0  0  0  0  0  0  0  0  0  0  0  0
    5.7532   -0.5206   -0.1234 C   0  0  0  0  0  0  0  0  0  0  0  0
    6.4908   -1.3304   -0.1842 H   0  0  0  0  0  0  0  0  0  0  0  0
    4.4038   -0.8508   -0.0772 C   0  0  0  0  0  0  0  0  0  0  0  0
    4.0854   -1.9031   -0.0983 H   0  0  0  0  0  0  0  0  0  0  0  0
    8.5214    0.1359   -0.2135 C   0  0  0  0  0  0  0  0  0  0  0  0
    9.5229    0.6004   -0.2465 H   0  0  0  0  0  0  0  0  0  0  0  0
    8.4066   -0.4921   -1.1246 H   0  0  0  0  0  0  0  0  0  0  0  0
    8.4876   -0.5406    0.6693 H   0  0  0  0  0  0  0  0  0  0  0  0
    7.9148    2.5699   -0.1039 C   0  0  0  0  0  0  0  0  0  0  0  0
    9.0155    2.6341   -0.1677 H   0  0  0  0  0  0  0  0  0  0  0  0
    7.5984    3.0727    0.8375 H   0  0  0  0  0  0  0  0  0  0  0  0
    7.4906    3.1482   -0.9547 H   0  0  0  0  0  0  0  0  0  0  0  0
  2 28  1  0  0  0  0
  3  2  1  0  0  0  0
  3 30  1  0  0  0  0
  4  3  1  0  0  0  0
  5 45  1  0  0  0  0
  5 36  1  0  0  0  0
  6 26  1  0  0  0  0
  7  6  1  0  0  0  0
  8  7  1  0  0  0  0
  9 11  2  0  0  0  0
  9  7  1  0  0  0  0
 10  9  1  0  0  0  0
 11 27  1  0  0  0  0
 12 11  1  0  0  0  0
 13 15  1  0  0  0  0
 14 13  1  0  0  0  0
 15 16  1  0  0  0  0
 15 17  2  0  0  0  0
 17 18  1  0  0  0  0
 19 17  1  0  0  0  0
 19 20  1  0  0  0  0
 21 25  1  0  0  0  0
 22 24  2  0  0  0  0
 23 22  1  0  0  0  0
 24 13  1  0  0  0  0
 24 25  1  0  0  0  0
 25 19  2  0  0  0  0
 26 21  1  0  0  0  0
 27 22  1  0  0  0  0
 27 26  2  0  0  0  0
 28 21  2  0  0  0  0
 29 28  1  0  0  0  0
 30  1  1  6  0  0  0
 31 30  1  0  0  0  0
 31 32  1  0  0  0  0
 32 33  1  0  0  0  0
 34 32  2  0  0  0  0
 34 35  1  0  0  0  0
 36 34  1  0  0  0  0
 37 36  2  0  0  0  0
 37 39  1  0  0  0  0
 38 37  1  0  0  0  0
 39 31  2  0  0  0  0
 40 39  1  0  0  0  0
 41  5  1  0  0  0  0
 41 44  1  0  0  0  0
 42 41  1  0  0  0  0
 43 41  1  0  0  0  0
 45 47  1  0  0  0  0
 46 45  1  0  0  0  0
 48 45  1  0  0  0  0
M  END
