1,2,4
 OpenBabel05122313063D

 38 42  0  0  0  0  0  0  0  0999 V2000
    1.9447   -1.8795    0.2479 O   0  5  0  0  0  0  0  0  0  0  0  0
   -0.5224   -1.4843   -0.2609 N   0  0  0  0  0  2  0  0  0  0  0  0
   -0.2382   -2.7587    0.2266 C   0  0  0  0  0  0  0  0  0  0  0  0
   -0.3261    0.8920   -1.2124 C   0  0  0  0  0  3  0  0  0  0  0  0
   -1.7211   -0.8636   -0.2898 C   0  0  0  0  0  0  0  0  0  0  0  0
    1.1439   -2.8862    0.5716 C   0  0  0  0  0  0  0  0  0  0  0  0
   -5.1543    1.5573   -0.6094 N   0  0  0  0  0  0  0  0  0  0  0  0
   -5.2628   -0.9784    0.6368 O   0  0  0  0  0  0  0  0  0  0  0  0
   -1.6365    0.4573   -0.8534 C   0  0  0  0  0  0  0  0  0  0  0  0
   -2.7757    1.2963   -0.9792 C   0  0  0  0  0  0  0  0  0  0  0  0
   -6.3367    1.0544   -0.1098 C   0  0  0  0  0  0  0  0  0  0  0  0
   -8.7321    1.3018    0.3094 C   0  0  0  0  0  0  0  0  0  0  0  0
   -9.6558    1.8930    0.2267 H   0  0  0  0  0  0  0  0  0  0  0  0
   -4.0719    0.8081   -0.5042 C   0  0  0  0  0  0  0  0  0  0  0  0
   -1.3341    3.0111   -1.9199 C   0  0  0  0  0  0  0  0  0  0  0  0
   -1.2090    4.0095   -2.3668 H   0  0  0  0  0  0  0  0  0  0  0  0
   -0.1998    2.1998   -1.7411 C   0  0  0  0  0  0  0  0  0  0  0  0
    0.7869    2.5653   -2.0532 H   0  0  0  0  0  0  0  0  0  0  0  0
   -2.6104    2.5839   -1.5270 C   0  0  0  0  0  0  0  0  0  0  0  0
   -3.4948    3.2291   -1.6251 H   0  0  0  0  0  0  0  0  0  0  0  0
    1.6087   -4.0316    1.2507 C   0  0  0  0  0  0  0  0  0  0  0  0
    2.6672   -4.0817    1.5414 H   0  0  0  0  0  0  0  0  0  0  0  0
   -2.9715   -1.3220    0.2312 C   0  0  0  0  0  0  0  0  0  0  0  0
   -3.0771   -2.2794    0.7506 H   0  0  0  0  0  0  0  0  0  0  0  0
   -6.3966   -0.2177    0.5254 C   0  0  0  0  0  0  0  0  0  0  0  0
   -4.0847   -0.5127    0.1179 C   0  0  0  0  0  0  0  0  0  0  0  0
   -1.1031   -3.8585    0.4204 C   0  0  0  0  0  0  0  0  0  0  0  0
   -2.1335   -3.8304    0.0470 H   0  0  0  0  0  0  0  0  0  0  0  0
    0.7242   -5.0915    1.4703 C   0  0  0  0  0  0  0  0  0  0  0  0
    1.0881   -6.0068    1.9611 H   0  0  0  0  0  0  0  0  0  0  0  0
   -8.7597    0.0400    0.9367 C   0  0  0  0  0  0  0  0  0  0  0  0
   -9.7036   -0.3531    1.3426 H   0  0  0  0  0  0  0  0  0  0  0  0
   -7.5342    1.8033   -0.2066 C   0  0  0  0  0  3  0  0  0  0  0  0
   -7.4756    2.7842   -0.7000 H   0  0  0  0  0  0  0  0  0  0  0  0
   -0.6173   -5.0160    1.0378 C   0  0  0  0  0  0  0  0  0  0  0  0
   -1.2876   -5.8766    1.1768 H   0  0  0  0  0  0  0  0  0  0  0  0
   -7.5900   -0.7264    1.0486 C   0  0  0  0  0  0  0  0  0  0  0  0
   -7.5845   -1.7143    1.5309 H   0  0  0  0  0  0  0  0  0  0  0  0
  1  6  1  0  0  0  0
  2  3  1  0  0  0  0
  3 27  2  0  0  0  0
  3  6  1  0  0  0  0
  4  9  1  0  0  0  0
  5  2  1  0  0  0  0
  5 23  1  0  0  0  0
  6 21  2  0  0  0  0
  7 14  1  0  0  0  0
  7 11  2  0  0  0  0
  9  5  2  0  0  0  0
 10  9  1  0  0  0  0
 10 14  2  0  0  0  0
 11 25  1  0  0  0  0
 12 31  2  0  0  0  0
 13 12  1  0  0  0  0
 14 26  1  0  0  0  0
 15 17  1  0  0  0  0
 15 19  2  0  0  0  0
 16 15  1  0  0  0  0
 17  4  2  0  0  0  0
 18 17  1  0  0  0  0
 19 10  1  0  0  0  0
 20 19  1  0  0  0  0
 21 29  1  0  0  0  0
 21 22  1  0  0  0  0
 23 24  1  0  0  0  0
 25  8  1  0  0  0  0
 25 37  2  0  0  0  0
 26 23  2  0  0  0  0
 26  8  1  0  0  0  0
 27 35  1  0  0  0  0
 28 27  1  0  0  0  0
 29 30  1  0  0  0  0
 31 37  1  0  0  0  0
 31 32  1  0  0  0  0
 33 11  1  0  0  0  0
 33 12  1  0  0  0  0
 34 33  1  0  0  0  0
 35 36  1  0  0  0  0
 35 29  2  0  0  0  0
 37 38  1  0  0  0  0
M  CHG  1   1  -1
M  END
