3,4,5
 OpenBabel05122313063D

 54 56  0  0  1  0  0  0  0  0999 V2000
    4.2386   -2.6244    0.8818 Cl  0  0  0  0  0  0  0  0  0  0  0  0
    4.1679    3.6321    0.2675 Cl  0  0  0  0  0  0  0  0  0  0  0  0
   -0.9781   -1.4168   -0.0288 O   0  5  0  0  0  0  0  0  0  0  0  0
    0.5941    0.8651   -0.4244 N   0  0  0  0  0  2  0  0  0  0  0  0
    3.0139   -0.2933    0.1475 C   0  0  0  0  0  3  0  0  0  0  0  0
    4.2056   -0.8731    0.5834 C   0  0  0  0  0  0  0  0  0  0  0  0
    5.3765   -0.1425    0.8365 C   0  0  0  0  0  0  0  0  0  0  0  0
    6.2995   -0.6362    1.1733 H   0  0  0  0  0  0  0  0  0  0  0  0
    5.3174    1.2470    0.6874 C   0  0  0  0  0  0  0  0  0  0  0  0
    6.1887    1.8717    0.9276 H   0  0  0  0  0  0  0  0  0  0  0  0
    4.1360    1.8708    0.2445 C   0  0  0  0  0  0  0  0  0  0  0  0
    2.9886    1.1060   -0.0871 C   0  0  0  0  0  0  0  0  0  0  0  0
    1.7177    1.6306   -0.6397 C   0  0  1  0  0  3  0  0  0  0  0  0
    1.6731    2.8039   -1.4111 C   0  0  0  0  0  0  0  0  0  0  0  0
    2.5966    3.3586   -1.6047 H   0  0  0  0  0  0  0  0  0  0  0  0
    0.4584    3.2150   -1.9609 C   0  0  0  0  0  0  0  0  0  0  0  0
    0.4116    4.0908   -2.6249 H   0  0  0  0  0  0  0  0  0  0  0  0
   -0.6909    2.4959   -1.6545 C   0  0  0  0  0  0  0  0  0  0  0  0
   -1.6588    2.7957   -2.0725 H   0  0  0  0  0  0  0  0  0  0  0  0
   -0.6240    1.3411   -0.8340 C   0  0  0  0  0  0  0  0  0  0  0  0
   -1.9162    0.7233   -0.4381 C   0  0  0  0  0  0  0  0  0  0  0  0
   -2.0674   -0.6558   -0.1172 C   0  0  0  0  0  0  0  0  0  0  0  0
   -3.3585   -1.2106    0.1324 C   0  0  0  0  0  0  0  0  0  0  0  0
   -4.4514   -0.3272    0.1539 C   0  0  0  0  0  0  0  0  0  0  0  0
   -5.4434   -0.7400    0.3649 H   0  0  0  0  0  0  0  0  0  0  0  0
   -4.3315    1.0606   -0.0580 C   0  0  0  0  0  0  0  0  0  0  0  0
   -3.0582    1.5525   -0.3705 C   0  0  0  0  0  0  0  0  0  0  0  0
   -2.9301    2.6328   -0.5228 H   0  0  0  0  0  0  0  0  0  0  0  0
   -3.5487   -2.7213    0.3808 C   0  0  0  0  0  0  0  0  0  0  0  0
   -2.9765   -3.5259   -0.8100 C   0  0  0  0  0  0  0  0  0  0  0  0
   -1.8917   -3.3534   -0.9291 H   0  0  0  0  0  0  0  0  0  0  0  0
   -3.4819   -3.2422   -1.7555 H   0  0  0  0  0  0  0  0  0  0  0  0
   -3.1378   -4.6117   -0.6490 H   0  0  0  0  0  0  0  0  0  0  0  0
   -2.8372   -3.1402    1.6882 C   0  0  0  0  0  0  0  0  0  0  0  0
   -1.7506   -2.9495    1.6361 H   0  0  0  0  0  0  0  0  0  0  0  0
   -2.9883   -4.2235    1.8755 H   0  0  0  0  0  0  0  0  0  0  0  0
   -3.2486   -2.5854    2.5562 H   0  0  0  0  0  0  0  0  0  0  0  0
   -5.0371   -3.0937    0.5200 C   0  0  0  0  0  0  0  0  0  0  0  0
   -5.1276   -4.1886    0.6670 H   0  0  0  0  0  0  0  0  0  0  0  0
   -5.6189   -2.8291   -0.3860 H   0  0  0  0  0  0  0  0  0  0  0  0
   -5.5124   -2.6041    1.3939 H   0  0  0  0  0  0  0  0  0  0  0  0
   -5.5204    2.0310    0.0626 C   0  0  0  0  0  0  0  0  0  0  0  0
   -5.6859    2.8172   -1.2574 C   0  0  0  0  0  0  0  0  0  0  0  0
   -6.5371    3.5256   -1.1849 H   0  0  0  0  0  0  0  0  0  0  0  0
   -5.8801    2.1300   -2.1056 H   0  0  0  0  0  0  0  0  0  0  0  0
   -4.7808    3.4083   -1.5022 H   0  0  0  0  0  0  0  0  0  0  0  0
   -6.8400    1.2960    0.3552 C   0  0  0  0  0  0  0  0  0  0  0  0
   -7.6696    2.0277    0.4272 H   0  0  0  0  0  0  0  0  0  0  0  0
   -6.8009    0.7427    1.3150 H   0  0  0  0  0  0  0  0  0  0  0  0
   -7.0979    0.5763   -0.4478 H   0  0  0  0  0  0  0  0  0  0  0  0
   -5.2435    3.0178    1.2202 C   0  0  0  0  0  0  0  0  0  0  0  0
   -4.3192    3.6044    1.0460 H   0  0  0  0  0  0  0  0  0  0  0  0
   -5.1218    2.4756    2.1799 H   0  0  0  0  0  0  0  0  0  0  0  0
   -6.0828    3.7354    1.3331 H   0  0  0  0  0  0  0  0  0  0  0  0
  5  6  1  0  0  0  0
  6  7  2  0  0  0  0
  6  1  1  0  0  0  0
  7  8  1  0  0  0  0
  9  7  1  0  0  0  0
  9 10  1  0  0  0  0
 11  2  1  0  0  0  0
 11  9  2  0  0  0  0
 12  5  2  0  0  0  0
 12 11  1  0  0  0  0
 13  4  1  0  0  0  0
 13 12  1  6  0  0  0
 14 13  1  0  0  0  0
 15 14  1  0  0  0  0
 16 18  1  0  0  0  0
 16 14  2  0  0  0  0
 17 16  1  0  0  0  0
 18 20  2  0  0  0  0
 19 18  1  0  0  0  0
 20 21  1  0  0  0  0
 20  4  1  0  0  0  0
 21 27  2  0  0  0  0
 21 22  1  0  0  0  0
 22  3  1  0  0  0  0
 22 23  2  0  0  0  0
 23 24  1  0  0  0  0
 23 29  1  0  0  0  0
 24 25  1  0  0  0  0
 26 42  1  0  0  0  0
 26 24  2  0  0  0  0
 27 26  1  0  0  0  0
 28 27  1  0  0  0  0
 29 38  1  0  0  0  0
 29 34  1  0  0  0  0
 30 33  1  0  0  0  0
 30 29  1  0  0  0  0
 31 30  1  0  0  0  0
 32 30  1  0  0  0  0
 34 36  1  0  0  0  0
 34 37  1  0  0  0  0
 35 34  1  0  0  0  0
 38 39  1  0  0  0  0
 38 41  1  0  0  0  0
 40 38  1  0  0  0  0
 42 47  1  0  0  0  0
 42 51  1  0  0  0  0
 43 44  1  0  0  0  0
 43 42  1  0  0  0  0
 45 43  1  0  0  0  0
 46 43  1  0  0  0  0
 47 48  1  0  0  0  0
 47 49  1  0  0  0  0
 50 47  1  0  0  0  0
 51 54  1  0  0  0  0
 51 53  1  0  0  0  0
 52 51  1  0  0  0  0
M  CHG  1   3  -1
M  END
