1,6,16
 OpenBabel05122313063D

 40 41  0  0  1  0  0  0  0  0999 V2000
   -1.6617    2.1175    0.0849 O   0  5  0  0  0  0  0  0  0  0  0  0
   -0.0671   -2.6133    1.6984 O   0  0  0  0  0  0  0  0  0  0  0  0
    1.6000   -1.0831    1.6513 O   0  0  0  0  0  0  0  0  0  0  0  0
    1.4378   -1.5909   -2.5592 O   0  0  0  0  0  0  0  0  0  0  0  0
    2.7418   -1.2440   -0.7451 O   0  0  0  0  0  0  0  0  0  0  0  0
   -2.0771   -0.4790   -0.3281 N   0  0  0  0  0  2  0  0  0  0  0  0
   -2.9045    1.6873    0.1440 C   0  0  0  0  0  0  0  0  0  0  0  0
   -4.0380    2.4922    0.3942 C   0  0  0  0  0  0  0  0  0  0  0  0
   -5.3320    1.9195    0.4397 C   0  0  0  0  0  0  0  0  0  0  0  0
   -5.5761    0.5583    0.2358 C   0  0  0  0  0  0  0  0  0  0  0  0
   -4.4768   -0.3024   -0.0314 C   0  0  0  0  0  0  0  0  0  0  0  0
   -3.1752    0.2856   -0.0643 C   0  0  1  0  0  3  0  0  0  0  0  0
   -4.5306   -1.7089   -0.2801 C   0  0  0  0  0  0  0  0  0  0  0  0
   -3.3802   -2.4410   -0.5571 C   0  0  0  0  0  0  0  0  0  0  0  0
   -2.1166   -1.7913   -0.5890 C   0  0  0  0  0  0  0  0  0  0  0  0
    0.3817   -1.5003   -0.3918 C   0  0  0  0  0  3  0  0  0  0  0  0
    1.5406   -1.4623   -1.3436 C   0  0  0  0  0  0  0  0  0  0  0  0
    3.8846   -1.1911   -1.6146 C   0  0  0  0  0  0  0  0  0  0  0  0
    5.0841   -0.8211   -0.7651 C   0  0  0  0  0  0  0  0  0  0  0  0
    0.6064   -1.8096    1.0680 C   0  0  0  0  0  0  0  0  0  0  0  0
    1.8567   -1.3714    3.0360 C   0  0  0  0  0  0  0  0  0  0  0  0
    3.1711   -0.7138    3.4091 C   0  0  0  0  0  0  0  0  0  0  0  0
   -0.7796   -2.3664   -0.9479 C   0  0  0  0  0  0  0  0  0  0  0  0
   -3.8962    3.5710    0.5545 H   0  0  0  0  0  0  0  0  0  0  0  0
   -6.1853    2.5859    0.6435 H   0  0  0  0  0  0  0  0  0  0  0  0
   -6.5966    0.1507    0.2737 H   0  0  0  0  0  0  0  0  0  0  0  0
   -5.5084   -2.2153   -0.2548 H   0  0  0  0  0  0  0  0  0  0  0  0
   -3.4328   -3.5213   -0.7527 H   0  0  0  0  0  0  0  0  0  0  0  0
    4.0094   -2.1767   -2.1129 H   0  0  0  0  0  0  0  0  0  0  0  0
    3.7008   -0.4532   -2.4244 H   0  0  0  0  0  0  0  0  0  0  0  0
    6.0003   -0.7847   -1.3873 H   0  0  0  0  0  0  0  0  0  0  0  0
    4.9402    0.1718   -0.2937 H   0  0  0  0  0  0  0  0  0  0  0  0
    5.2408   -1.5643    0.0419 H   0  0  0  0  0  0  0  0  0  0  0  0
    1.0103   -0.9923    3.6504 H   0  0  0  0  0  0  0  0  0  0  0  0
    1.8824   -2.4714    3.1818 H   0  0  0  0  0  0  0  0  0  0  0  0
    3.1254    0.3860    3.2777 H   0  0  0  0  0  0  0  0  0  0  0  0
    3.4179   -0.9238    4.4688 H   0  0  0  0  0  0  0  0  0  0  0  0
    3.9944   -1.0972    2.7739 H   0  0  0  0  0  0  0  0  0  0  0  0
   -0.6892   -3.4146   -0.5957 H   0  0  0  0  0  0  0  0  0  0  0  0
   -0.6812   -2.3723   -2.0545 H   0  0  0  0  0  0  0  0  0  0  0  0
  1  7  1  0  0  0  0
  3 21  1  0  0  0  0
  4 17  2  0  0  0  0
  7  8  2  0  0  0  0
  8  9  1  0  0  0  0
  8 24  1  0  0  0  0
  9 25  1  0  0  0  0
 10 26  1  0  0  0  0
 10  9  2  0  0  0  0
 11 10  1  0  0  0  0
 12  6  1  6  0  0  0
 12 11  1  0  0  0  0
 12  7  1  0  0  0  0
 13 27  1  0  0  0  0
 13 11  2  0  0  0  0
 14 13  1  0  0  0  0
 15 14  2  0  0  0  0
 15  6  1  0  0  0  0
 16 20  1  0  0  0  0
 17  5  1  0  0  0  0
 17 16  1  0  0  0  0
 18 19  1  0  0  0  0
 18  5  1  0  0  0  0
 19 32  1  0  0  0  0
 19 33  1  0  0  0  0
 20  3  1  0  0  0  0
 20  2  2  0  0  0  0
 21 35  1  0  0  0  0
 21 22  1  0  0  0  0
 21 34  1  0  0  0  0
 22 37  1  0  0  0  0
 23 39  1  0  0  0  0
 23 15  1  0  0  0  0
 23 16  1  0  0  0  0
 28 14  1  0  0  0  0
 29 18  1  0  0  0  0
 30 18  1  0  0  0  0
 31 19  1  0  0  0  0
 36 22  1  0  0  0  0
 38 22  1  0  0  0  0
 40 23  1  0  0  0  0
M  CHG  1   1  -1
M  END
