16,22,36
 OpenBabel05122313063D

 69 70  0  0  1  0  0  0  0  0999 V2000
    0.6318   -1.4088   -2.2299 C   0  0  0  0  0  0  0  0  0  0  0  0
    0.0594   -0.2913   -1.5569 C   0  0  0  0  0  0  0  0  0  0  0  0
   -1.2862    0.0234   -1.8526 C   0  0  0  0  0  0  0  0  0  0  0  0
   -1.7398    0.9472   -1.4773 H   0  0  0  0  0  0  0  0  0  0  0  0
   -2.0827   -0.8412   -2.5990 C   0  0  0  0  0  0  0  0  0  0  0  0
   -1.5592   -1.9955   -3.1900 C   0  0  0  0  0  0  0  0  0  0  0  0
   -2.2147   -2.6589   -3.7682 H   0  0  0  0  0  0  0  0  0  0  0  0
   -0.1940   -2.2309   -3.0329 C   0  0  0  0  0  0  0  0  0  0  0  0
    0.2598   -3.0952   -3.5433 H   0  0  0  0  0  0  0  0  0  0  0  0
    2.1062   -1.7969   -2.2057 C   0  0  2  0  0  0  0  0  0  0  0  0
    2.3521   -2.0878   -3.2536 H   0  0  0  0  0  0  0  0  0  0  0  0
    2.4276   -2.9912   -1.3013 C   0  0  0  0  0  0  0  0  0  0  0  0
    1.8167   -3.8651   -1.5993 H   0  0  0  0  0  0  0  0  0  0  0  0
    2.2246   -2.7441   -0.2414 H   0  0  0  0  0  0  0  0  0  0  0  0
    3.4985   -3.2642   -1.3862 H   0  0  0  0  0  0  0  0  0  0  0  0
    2.9696   -0.6471   -1.8629 N   0  0  0  0  0  0  0  0  0  0  0  0
    2.7917    0.1535   -2.4935 H   0  0  0  0  0  0  0  0  0  0  0  0
    3.9763   -0.8967   -1.8853 H   0  0  0  0  0  0  0  0  0  0  0  0
   -3.5247   -0.5414   -2.7338 N   0  0  0  0  0  0  0  0  0  0  0  0
   -3.9608    0.4409   -2.1256 O   0  0  0  0  0  0  0  0  0  0  0  0
   -4.2007   -1.2926   -3.4325 O   0  0  0  0  0  0  0  0  0  0  0  0
    0.7411    0.5554   -0.4986 C   0  0  1  0  0  3  0  0  0  0  0  0
    1.1850    1.9201   -0.9090 C   0  0  0  0  0  0  0  0  0  0  0  0
    2.0473    3.2345   -2.6784 C   0  0  0  0  0  0  0  0  0  0  0  0
    2.2244    3.1317   -3.7642 H   0  0  0  0  0  0  0  0  0  0  0  0
    2.9937    3.4762   -2.1527 H   0  0  0  0  0  0  0  0  0  0  0  0
    1.3205    4.0476   -2.4834 H   0  0  0  0  0  0  0  0  0  0  0  0
    1.2570    2.9024   -0.1762 O   0  0  0  0  0  0  0  0  0  0  0  0
    1.5269    1.9726   -2.2415 O   0  0  0  0  0  0  0  0  0  0  0  0
   -0.0564    0.5963    0.8840 C   0  0  2  0  0  0  0  0  0  0  0  0
    0.9311    1.0178    1.9738 C   0  0  2  0  0  3  0  0  0  0  0  0
    1.2547    1.9706    4.0986 C   0  0  0  0  0  0  0  0  0  0  0  0
    1.8855    1.1345    4.4572 H   0  0  0  0  0  0  0  0  0  0  0  0
    0.5960    2.3473    4.8988 H   0  0  0  0  0  0  0  0  0  0  0  0
    1.9025    2.7798    3.7106 H   0  0  0  0  0  0  0  0  0  0  0  0
    2.1571    0.8587    1.8696 O   0  0  0  0  0  1  0  0  0  0  0  0
    0.3693    1.5168    3.0543 O   0  0  0  0  0  0  0  0  0  0  0  0
   -0.6729   -0.7730    1.1916 C   0  0  0  0  0  0  0  0  0  0  0  0
    0.1138   -1.9826    1.4602 C   0  0  0  0  0  0  0  0  0  0  0  0
    0.0238   -4.3271    1.7269 C   0  0  0  0  0  0  0  0  0  0  0  0
   -0.7576   -5.1074    1.7470 H   0  0  0  0  0  0  0  0  0  0  0  0
    0.5341   -4.2565    2.7081 H   0  0  0  0  0  0  0  0  0  0  0  0
    0.7832   -4.5679    0.9560 H   0  0  0  0  0  0  0  0  0  0  0  0
    1.3106   -1.9998    1.7197 O   0  0  0  0  0  0  0  0  0  0  0  0
   -0.6491   -3.1044    1.4105 O   0  0  0  0  0  0  0  0  0  0  0  0
   -2.0417   -0.6745    1.1676 C   0  0  0  0  0  0  0  0  0  0  0  0
   -3.0096   -1.8199    1.1115 C   0  0  0  0  0  0  0  0  0  0  0  0
   -4.3718   -3.2797    2.3326 C   0  0  0  0  0  0  0  0  0  0  0  0
   -4.6285   -3.4587    3.3914 H   0  0  0  0  0  0  0  0  0  0  0  0
   -3.9274   -4.1893    1.8806 H   0  0  0  0  0  0  0  0  0  0  0  0
   -5.2762   -3.0075    1.7522 H   0  0  0  0  0  0  0  0  0  0  0  0
   -3.3660   -2.3120    0.0586 O   0  0  0  0  0  0  0  0  0  0  0  0
   -3.4268   -2.2010    2.3290 O   0  0  0  0  0  0  0  0  0  0  0  0
   -2.4235    0.7255    0.9785 C   0  0  0  0  0  0  0  0  0  0  0  0
   -3.7991    1.2710    0.8370 C   0  0  0  0  0  0  0  0  0  0  0  0
   -6.0549    0.6445    0.5133 C   0  0  0  0  0  0  0  0  0  0  0  0
   -6.7019   -0.1925    0.8304 H   0  0  0  0  0  0  0  0  0  0  0  0
   -6.0997    0.7681   -0.5877 H   0  0  0  0  0  0  0  0  0  0  0  0
   -6.3572    1.5891    1.0053 H   0  0  0  0  0  0  0  0  0  0  0  0
   -4.0590    2.4505    0.6788 O   0  0  0  0  0  0  0  0  0  0  0  0
   -4.7188    0.2810    0.8853 O   0  0  0  0  0  0  0  0  0  0  0  0
   -1.2901    1.4869    0.8394 C   0  0  0  0  0  0  0  0  0  0  0  0
   -1.2901    2.9745    0.6624 C   0  0  0  0  0  0  0  0  0  0  0  0
   -1.5702    4.7020   -0.9019 C   0  0  0  0  0  0  0  0  0  0  0  0
   -1.7436    4.7927   -1.9886 H   0  0  0  0  0  0  0  0  0  0  0  0
   -0.6110    5.1763   -0.6135 H   0  0  0  0  0  0  0  0  0  0  0  0
   -2.3971    5.1763   -0.3373 H   0  0  0  0  0  0  0  0  0  0  0  0
   -1.1251    3.7608    1.5711 O   0  0  0  0  0  0  0  0  0  0  0  0
   -1.5263    3.2963   -0.6255 O   0  0  0  0  0  0  0  0  0  0  0  0
  1 10  1  0  0  0  0
  1  2  1  0  0  0  0
  2 22  1  0  0  0  0
  3  2  2  0  0  0  0
  3  4  1  0  0  0  0
  5  3  1  0  0  0  0
  6  8  1  0  0  0  0
  6  5  2  0  0  0  0
  7  6  1  0  0  0  0
  8  1  2  0  0  0  0
  9  8  1  0  0  0  0
 10 11  1  6  0  0  0
 10 16  1  0  0  0  0
 10 12  1  0  0  0  0
 12 14  1  0  0  0  0
 13 12  1  0  0  0  0
 15 12  1  0  0  0  0
 17 16  1  0  0  0  0
 18 16  1  0  0  0  0
 19  5  1  0  0  0  0
 19 20  2  0  0  0  0
 21 19  2  0  0  0  0
 22 23  1  6  0  0  0
 23 28  2  0  0  0  0
 24 27  1  0  0  0  0
 24 29  1  0  0  0  0
 24 26  1  0  0  0  0
 25 24  1  0  0  0  0
 29 23  1  0  0  0  0
 30 22  1  6  0  0  0
 30 38  1  0  0  0  0
 30 31  1  0  0  0  0
 31 36  1  1  0  0  0
 31 37  1  0  0  0  0
 32 33  1  0  0  0  0
 32 34  1  0  0  0  0
 35 32  1  0  0  0  0
 37 32  1  0  0  0  0
 38 39  1  0  0  0  0
 39 44  2  0  0  0  0
 40 41  1  0  0  0  0
 40 42  1  0  0  0  0
 43 40  1  0  0  0  0
 45 39  1  0  0  0  0
 45 40  1  0  0  0  0
 46 38  2  0  0  0  0
 47 46  1  0  0  0  0
 47 53  1  0  0  0  0
 48 49  1  0  0  0  0
 50 48  1  0  0  0  0
 51 48  1  0  0  0  0
 52 47  2  0  0  0  0
 53 48  1  0  0  0  0
 54 46  1  0  0  0  0
 55 61  1  0  0  0  0
 55 54  1  0  0  0  0
 56 57  1  0  0  0  0
 56 61  1  0  0  0  0
 56 59  1  0  0  0  0
 58 56  1  0  0  0  0
 60 55  2  0  0  0  0
 62 30  1  0  0  0  0
 62 54  2  0  0  0  0
 63 62  1  0  0  0  0
 63 68  2  0  0  0  0
 64 69  1  0  0  0  0
 64 66  1  0  0  0  0
 64 67  1  0  0  0  0
 65 64  1  0  0  0  0
 69 63  1  0  0  0  0
M  END
