2,3,4
 OpenBabel05122313063D

 29 28  0  0  0  0  0  0  0  0999 V2000
   -2.6587    0.0003    0.0004 Si  0  0  0  0  0  0  0  0  0  0  0  0
   -0.3237    1.8430    0.6251 S   0  0  0  0  0  0  0  0  0  0  0  0
   -0.3231   -1.4636    1.2816 S   0  0  0  0  0  0  0  0  0  0  0  0
   -0.3233   -0.3802   -1.9090 S   0  0  0  0  0  0  0  0  0  0  0  0
   -4.5413   -0.0004    0.0018 C   0  0  0  0  0  0  0  0  0  0  0  0
   -4.9365    0.5557    0.8762 H   0  0  0  0  0  0  0  0  0  0  0  0
   -4.9365   -1.0357    0.0469 H   0  0  0  0  0  0  0  0  0  0  0  0
   -4.9381    0.4783   -0.9166 H   0  0  0  0  0  0  0  0  0  0  0  0
   -1.9731    1.7727   -0.1832 C   0  0  0  0  0  0  0  0  0  0  0  0
   -1.8719    2.0174   -1.2623 H   0  0  0  0  0  0  0  0  0  0  0  0
   -2.6423    2.5230    0.2889 H   0  0  0  0  0  0  0  0  0  0  0  0
    0.3173    3.3970   -0.0722 C   0  0  0  0  0  0  0  0  0  0  0  0
   -0.3440    4.2391    0.2111 H   0  0  0  0  0  0  0  0  0  0  0  0
    0.4138    3.3163   -1.1716 H   0  0  0  0  0  0  0  0  0  0  0  0
    1.3221    3.5395    0.3669 H   0  0  0  0  0  0  0  0  0  0  0  0
   -1.9716   -0.7275    1.6266 C   0  0  0  0  0  0  0  0  0  0  0  0
   -1.8689    0.0847    2.3780 H   0  0  0  0  0  0  0  0  0  0  0  0
   -2.6409   -1.5110    2.0409 H   0  0  0  0  0  0  0  0  0  0  0  0
    0.3190   -1.6381    2.9754 C   0  0  0  0  0  0  0  0  0  0  0  0
   -0.3431   -2.3031    3.5637 H   0  0  0  0  0  0  0  0  0  0  0  0
    0.4181   -0.6457    3.4547 H   0  0  0  0  0  0  0  0  0  0  0  0
    1.3229   -2.0917    2.8782 H   0  0  0  0  0  0  0  0  0  0  0  0
   -1.9729   -1.0446   -1.4429 C   0  0  0  0  0  0  0  0  0  0  0  0
   -1.8715   -2.1015   -1.1151 H   0  0  0  0  0  0  0  0  0  0  0  0
   -2.6422   -1.0111   -2.3287 H   0  0  0  0  0  0  0  0  0  0  0  0
    0.3171   -1.7628   -2.9040 C   0  0  0  0  0  0  0  0  0  0  0  0
   -0.3451   -1.9406   -3.7738 H   0  0  0  0  0  0  0  0  0  0  0  0
    0.4144   -2.6731   -2.2823 H   0  0  0  0  0  0  0  0  0  0  0  0
    1.3215   -1.4543   -3.2487 H   0  0  0  0  0  0  0  0  0  0  0  0
  1  5  1  0  0  0  0
  1 16  1  0  0  0  0
  3 16  1  0  0  0  0
  3 19  1  0  0  0  0
  4 23  1  0  0  0  0
  5  7  1  0  0  0  0
  5  6  1  0  0  0  0
  8  5  1  0  0  0  0
  9  1  1  0  0  0  0
  9 11  1  0  0  0  0
  9  2  1  0  0  0  0
 10  9  1  0  0  0  0
 12 13  1  0  0  0  0
 12 15  1  0  0  0  0
 12  2  1  0  0  0  0
 14 12  1  0  0  0  0
 16 18  1  0  0  0  0
 16 17  1  0  0  0  0
 19 21  1  0  0  0  0
 19 20  1  0  0  0  0
 22 19  1  0  0  0  0
 23 24  1  0  0  0  0
 23  1  1  0  0  0  0
 25 23  1  0  0  0  0
 26 28  1  0  0  0  0
 26  4  1  0  0  0  0
 27 26  1  0  0  0  0
 29 26  1  0  0  0  0
M  END
