1,2,3
 OpenBabel05122313063D

 36 35  0  0  0  0  0  0  0  0999 V2000
    2.2051   -0.9349   -0.1750 S   0  0  0  0  0  0  0  0  0  0  0  0
    0.4139    1.8285    0.4824 S   0  0  0  0  0  3  0  0  0  0  0  0
   -2.4404    0.0217   -0.0315 S   0  0  0  0  0  0  0  0  0  0  0  0
    0.5908    2.2693    1.9297 O   0  0  0  0  0  1  0  0  0  0  0  0
    4.3193   -1.2314   -1.9682 C   0  0  0  0  0  0  0  0  0  0  0  0
    2.8637   -0.7933   -1.8804 C   0  0  0  0  0  0  0  0  0  0  0  0
    3.1467    0.3256    0.7634 C   0  0  0  0  0  0  0  0  0  0  0  0
    3.2122    1.7515    0.2077 C   0  0  0  0  0  0  0  0  0  0  0  0
    1.9403    2.3233   -0.4186 C   0  0  0  0  0  0  0  0  0  0  0  0
   -0.7222    3.0673   -0.2685 C   0  0  0  0  0  0  0  0  0  0  0  0
   -2.1678    2.8187    0.1493 C   0  0  0  0  0  0  0  0  0  0  0  0
   -2.8688    1.7072   -0.6324 C   0  0  0  0  0  0  0  0  0  0  0  0
   -4.6816   -0.9606   -1.4171 C   0  0  0  0  0  0  0  0  0  0  0  0
   -3.1609   -0.9601   -1.4092 C   0  0  0  0  0  0  0  0  0  0  0  0
    4.6478   -1.2362   -3.0277 H   0  0  0  0  0  0  0  0  0  0  0  0
    4.4590   -2.2536   -1.5628 H   0  0  0  0  0  0  0  0  0  0  0  0
    4.9975   -0.5492   -1.4156 H   0  0  0  0  0  0  0  0  0  0  0  0
    2.1826   -1.4629   -2.4427 H   0  0  0  0  0  0  0  0  0  0  0  0
    2.6876    0.2275   -2.2692 H   0  0  0  0  0  0  0  0  0  0  0  0
    2.6195    0.2826    1.7384 H   0  0  0  0  0  0  0  0  0  0  0  0
    4.1675   -0.0738    0.9264 H   0  0  0  0  0  0  0  0  0  0  0  0
    4.0094    1.8266   -0.5623 H   0  0  0  0  0  0  0  0  0  0  0  0
    3.5296    2.4030    1.0482 H   0  0  0  0  0  0  0  0  0  0  0  0
    1.7416    1.9591   -1.4477 H   0  0  0  0  0  0  0  0  0  0  0  0
    1.9614    3.4310   -0.4137 H   0  0  0  0  0  0  0  0  0  0  0  0
   -0.5840    2.9895   -1.3653 H   0  0  0  0  0  0  0  0  0  0  0  0
   -0.3403    4.0326    0.1189 H   0  0  0  0  0  0  0  0  0  0  0  0
   -2.2156    2.6377    1.2462 H   0  0  0  0  0  0  0  0  0  0  0  0
   -2.7329    3.7591   -0.0219 H   0  0  0  0  0  0  0  0  0  0  0  0
   -2.5837    1.7357   -1.7040 H   0  0  0  0  0  0  0  0  0  0  0  0
   -3.9688    1.7960   -0.5369 H   0  0  0  0  0  0  0  0  0  0  0  0
   -5.0960   -1.3263   -0.4558 H   0  0  0  0  0  0  0  0  0  0  0  0
   -5.0447   -1.6348   -2.2198 H   0  0  0  0  0  0  0  0  0  0  0  0
   -5.1100    0.0427   -1.6167 H   0  0  0  0  0  0  0  0  0  0  0  0
   -2.6976   -0.5616   -2.3349 H   0  0  0  0  0  0  0  0  0  0  0  0
   -2.7194   -1.9645   -1.2509 H   0  0  0  0  0  0  0  0  0  0  0  0
  1  7  1  0  0  0  0
  2  4  1  0  0  0  0
  5  6  1  0  0  0  0
  5 16  1  0  0  0  0
  5 17  1  0  0  0  0
  6  1  1  0  0  0  0
  7 21  1  0  0  0  0
  7 20  1  0  0  0  0
  8  7  1  0  0  0  0
  8 23  1  0  0  0  0
  9 25  1  0  0  0  0
  9  8  1  0  0  0  0
  9  2  1  0  0  0  0
 10 27  1  0  0  0  0
 10 11  1  0  0  0  0
 10  2  1  0  0  0  0
 11 28  1  0  0  0  0
 12 31  1  0  0  0  0
 12  3  1  0  0  0  0
 12 11  1  0  0  0  0
 13 14  1  0  0  0  0
 13 32  1  0  0  0  0
 14 36  1  0  0  0  0
 14  3  1  0  0  0  0
 15  5  1  0  0  0  0
 18  6  1  0  0  0  0
 19  6  1  0  0  0  0
 22  8  1  0  0  0  0
 24  9  1  0  0  0  0
 26 10  1  0  0  0  0
 29 11  1  0  0  0  0
 30 12  1  0  0  0  0
 33 13  1  0  0  0  0
 34 13  1  0  0  0  0
 35 14  1  0  0  0  0
M  END
