1,2,3
 OpenBabel05122313063D

 25 26  0  0  0  0  0  0  0  0999 V2000
   -0.9512    1.6295    0.6338 S   0  0  0  0  0  0  0  0  0  0  0  0
   -0.9511   -1.6297    0.6334 S   0  0  0  0  0  0  0  0  0  0  0  0
    0.1505    0.0003   -2.0025 S   0  0  0  0  0  0  0  0  0  0  0  0
   -0.9361    2.4233   -1.0398 C   0  0  0  0  0  0  0  0  0  0  0  0
   -1.0413    1.4259   -2.1775 C   0  0  0  0  0  0  0  0  0  0  0  0
   -1.0416   -1.4250   -2.1778 C   0  0  0  0  0  0  0  0  0  0  0  0
   -0.9362   -2.4228   -1.0405 C   0  0  0  0  0  0  0  0  0  0  0  0
   -2.5121   -0.7039    0.5308 C   0  0  0  0  0  0  0  0  0  0  0  0
   -3.7325   -1.4044    0.5095 C   0  0  0  0  0  0  0  0  0  0  0  0
   -4.9443   -0.7031    0.4547 C   0  0  0  0  0  0  0  0  0  0  0  0
   -4.9443    0.7029    0.4547 C   0  0  0  0  0  0  0  0  0  0  0  0
   -3.7326    1.4042    0.5096 C   0  0  0  0  0  0  0  0  0  0  0  0
   -2.5122    0.7037    0.5308 C   0  0  0  0  0  0  0  0  0  0  0  0
    0.0516    2.9334   -1.0261 H   0  0  0  0  0  0  0  0  0  0  0  0
   -1.7487    3.1767   -1.0867 H   0  0  0  0  0  0  0  0  0  0  0  0
   -2.0624    1.0022   -2.2456 H   0  0  0  0  0  0  0  0  0  0  0  0
   -0.8078    1.9265   -3.1385 H   0  0  0  0  0  0  0  0  0  0  0  0
   -0.8086   -1.9252   -3.1391 H   0  0  0  0  0  0  0  0  0  0  0  0
   -2.0626   -1.0011   -2.2453 H   0  0  0  0  0  0  0  0  0  0  0  0
   -1.7486   -3.1763   -1.0877 H   0  0  0  0  0  0  0  0  0  0  0  0
    0.0516   -2.9328   -1.0272 H   0  0  0  0  0  0  0  0  0  0  0  0
   -3.7272   -2.5050    0.5406 H   0  0  0  0  0  0  0  0  0  0  0  0
   -5.8949   -1.2562    0.4305 H   0  0  0  0  0  0  0  0  0  0  0  0
   -5.8950    1.2560    0.4305 H   0  0  0  0  0  0  0  0  0  0  0  0
   -3.7273    2.5048    0.5408 H   0  0  0  0  0  0  0  0  0  0  0  0
  4 14  1  0  0  0  0
  4  1  1  0  0  0  0
  5  3  1  0  0  0  0
  5  4  1  0  0  0  0
  6  3  1  0  0  0  0
  6  7  1  0  0  0  0
  7 21  1  0  0  0  0
  7  2  1  0  0  0  0
  8 13  1  0  0  0  0
  8  2  1  0  0  0  0
  9  8  2  0  0  0  0
  9 22  1  0  0  0  0
 10 11  2  0  0  0  0
 10  9  1  0  0  0  0
 11 12  1  0  0  0  0
 12 13  2  0  0  0  0
 12 25  1  0  0  0  0
 13  1  1  0  0  0  0
 15  4  1  0  0  0  0
 16  5  1  0  0  0  0
 17  5  1  0  0  0  0
 18  6  1  0  0  0  0
 19  6  1  0  0  0  0
 20  7  1  0  0  0  0
 23 10  1  0  0  0  0
 24 11  1  0  0  0  0
M  END
