1,7,13
 OpenBabel05122313063D

 64 64  0  0  0  0  0  0  0  0999 V2000
    0.0841   -1.8658   -0.8328 S   0  0  0  0  0  0  0  0  0  0  0  0
    1.4339   -3.1154   -0.5527 C   0  0  0  0  0  0  0  0  0  0  0  0
    2.7950   -2.7341   -1.1830 C   0  0  0  0  0  0  0  0  0  0  0  0
    3.4205   -1.4660   -0.5506 C   0  0  0  0  0  0  0  0  0  0  0  0
    2.6644   -2.5760   -2.7085 C   0  0  0  0  0  0  0  0  0  0  0  0
    3.7648   -3.8928   -0.8605 C   0  0  0  0  0  0  0  0  0  0  0  0
    2.3392    0.0000   -0.7978 S   0  0  0  0  0  0  0  0  0  0  0  0
    3.4205    1.4661   -0.5512 C   0  0  0  0  0  0  0  0  0  0  0  0
    2.7946    2.7343   -1.1832 C   0  0  0  0  0  0  0  0  0  0  0  0
    1.4338    3.1154   -0.5523 C   0  0  0  0  0  0  0  0  0  0  0  0
    2.6634    2.5763   -2.7087 C   0  0  0  0  0  0  0  0  0  0  0  0
    3.7644    3.8930   -0.8611 C   0  0  0  0  0  0  0  0  0  0  0  0
    0.0839    1.8658   -0.8325 S   0  0  0  0  0  0  0  0  0  0  0  0
   -1.4215    2.8610   -0.4328 C   0  0  0  0  0  0  0  0  0  0  0  0
   -2.5285    2.7697   -1.5088 C   0  0  0  0  0  0  0  0  0  0  0  0
   -3.2026    1.3811   -1.5049 C   0  0  0  0  0  0  0  0  0  0  0  0
   -1.9905    3.1306   -2.9030 C   0  0  0  0  0  0  0  0  0  0  0  0
   -3.6079    3.7911   -1.0852 C   0  0  0  0  0  0  0  0  0  0  0  0
   -2.0889    0.0000   -1.9838 S   0  0  0  0  0  0  0  0  0  0  0  0
   -3.2025   -1.3812   -1.5050 C   0  0  0  0  0  0  0  0  0  0  0  0
   -2.5282   -2.7697   -1.5091 C   0  0  0  0  0  0  0  0  0  0  0  0
   -1.4213   -2.8610   -0.4332 C   0  0  0  0  0  0  0  0  0  0  0  0
   -1.9904   -3.1305   -2.9034 C   0  0  0  0  0  0  0  0  0  0  0  0
   -3.6076   -3.7913   -1.0855 C   0  0  0  0  0  0  0  0  0  0  0  0
    1.0713   -4.0437   -1.0384 H   0  0  0  0  0  0  0  0  0  0  0  0
    1.5286   -3.3054    0.5346 H   0  0  0  0  0  0  0  0  0  0  0  0
    3.6199   -1.5923    0.5315 H   0  0  0  0  0  0  0  0  0  0  0  0
    4.3756   -1.2303   -1.0630 H   0  0  0  0  0  0  0  0  0  0  0  0
    1.9788   -1.7512   -2.9850 H   0  0  0  0  0  0  0  0  0  0  0  0
    2.2715   -3.5086   -3.1603 H   0  0  0  0  0  0  0  0  0  0  0  0
    3.6533   -2.3720   -3.1657 H   0  0  0  0  0  0  0  0  0  0  0  0
    4.7677   -3.6936   -1.2882 H   0  0  0  0  0  0  0  0  0  0  0  0
    3.3957   -4.8405   -1.3004 H   0  0  0  0  0  0  0  0  0  0  0  0
    3.8786   -4.0416    0.2322 H   0  0  0  0  0  0  0  0  0  0  0  0
    4.3753    1.2305   -1.0641 H   0  0  0  0  0  0  0  0  0  0  0  0
    3.6205    1.5925    0.5308 H   0  0  0  0  0  0  0  0  0  0  0  0
    1.5289    3.3050    0.5349 H   0  0  0  0  0  0  0  0  0  0  0  0
    1.0711    4.0439   -1.0376 H   0  0  0  0  0  0  0  0  0  0  0  0
    1.9780    1.7512   -2.9850 H   0  0  0  0  0  0  0  0  0  0  0  0
    3.6522    2.3726   -3.1663 H   0  0  0  0  0  0  0  0  0  0  0  0
    2.2701    3.5087   -3.1603 H   0  0  0  0  0  0  0  0  0  0  0  0
    4.7672    3.6938   -1.2890 H   0  0  0  0  0  0  0  0  0  0  0  0
    3.8786    4.0418    0.2316 H   0  0  0  0  0  0  0  0  0  0  0  0
    3.3952    4.8407   -1.3009 H   0  0  0  0  0  0  0  0  0  0  0  0
   -1.0692    3.9069   -0.3367 H   0  0  0  0  0  0  0  0  0  0  0  0
   -1.7975    2.5229    0.5531 H   0  0  0  0  0  0  0  0  0  0  0  0
   -3.5869    1.1555   -0.4878 H   0  0  0  0  0  0  0  0  0  0  0  0
   -4.0612    1.3864   -2.2084 H   0  0  0  0  0  0  0  0  0  0  0  0
   -1.2263    2.4073   -3.2508 H   0  0  0  0  0  0  0  0  0  0  0  0
   -1.5361    4.1429   -2.9013 H   0  0  0  0  0  0  0  0  0  0  0  0
   -2.8130    3.1329   -3.6455 H   0  0  0  0  0  0  0  0  0  0  0  0
   -4.4624    3.7655   -1.7902 H   0  0  0  0  0  0  0  0  0  0  0  0
   -3.1995    4.8217   -1.0891 H   0  0  0  0  0  0  0  0  0  0  0  0
   -3.9961    3.5771   -0.0689 H   0  0  0  0  0  0  0  0  0  0  0  0
   -4.0611   -1.3864   -2.2085 H   0  0  0  0  0  0  0  0  0  0  0  0
   -3.5869   -1.1557   -0.4879 H   0  0  0  0  0  0  0  0  0  0  0  0
   -1.7972   -2.5231    0.5528 H   0  0  0  0  0  0  0  0  0  0  0  0
   -1.0689   -3.9069   -0.3372 H   0  0  0  0  0  0  0  0  0  0  0  0
   -1.2262   -2.4071   -3.2511 H   0  0  0  0  0  0  0  0  0  0  0  0
   -2.8129   -3.1328   -3.6458 H   0  0  0  0  0  0  0  0  0  0  0  0
   -1.5359   -4.1427   -2.9018 H   0  0  0  0  0  0  0  0  0  0  0  0
   -4.4621   -3.7656   -1.7904 H   0  0  0  0  0  0  0  0  0  0  0  0
   -3.9957   -3.5774   -0.0691 H   0  0  0  0  0  0  0  0  0  0  0  0
   -3.1991   -4.8219   -1.0895 H   0  0  0  0  0  0  0  0  0  0  0  0
  1  2  1  0  0  0  0
  1 22  1  0  0  0  0
  2 26  1  0  0  0  0
  3  6  1  0  0  0  0
  3  2  1  0  0  0  0
  3  4  1  0  0  0  0
  4 27  1  0  0  0  0
  5  3  1  0  0  0  0
  6 34  1  0  0  0  0
  7  8  1  0  0  0  0
  7  4  1  0  0  0  0
  8 36  1  0  0  0  0
  9 12  1  0  0  0  0
  9 10  1  0  0  0  0
  9  8  1  0  0  0  0
 10 37  1  0  0  0  0
 11  9  1  0  0  0  0
 12 43  1  0  0  0  0
 13 10  1  0  0  0  0
 13 14  1  0  0  0  0
 14 45  1  0  0  0  0
 14 46  1  0  0  0  0
 15 16  1  0  0  0  0
 15 18  1  0  0  0  0
 15 14  1  0  0  0  0
 16 47  1  0  0  0  0
 17 50  1  0  0  0  0
 17 15  1  0  0  0  0
 18 54  1  0  0  0  0
 19 20  1  0  0  0  0
 19 16  1  0  0  0  0
 20 56  1  0  0  0  0
 21 20  1  0  0  0  0
 21 24  1  0  0  0  0
 21 22  1  0  0  0  0
 22 58  1  0  0  0  0
 22 57  1  0  0  0  0
 23 61  1  0  0  0  0
 23 21  1  0  0  0  0
 24 63  1  0  0  0  0
 25  2  1  0  0  0  0
 28  4  1  0  0  0  0
 29  5  1  0  0  0  0
 30  5  1  0  0  0  0
 31  5  1  0  0  0  0
 32  6  1  0  0  0  0
 33  6  1  0  0  0  0
 35  8  1  0  0  0  0
 38 10  1  0  0  0  0
 39 11  1  0  0  0  0
 40 11  1  0  0  0  0
 41 11  1  0  0  0  0
 42 12  1  0  0  0  0
 44 12  1  0  0  0  0
 48 16  1  0  0  0  0
 49 17  1  0  0  0  0
 51 17  1  0  0  0  0
 52 18  1  0  0  0  0
 53 18  1  0  0  0  0
 55 20  1  0  0  0  0
 59 23  1  0  0  0  0
 60 23  1  0  0  0  0
 62 24  1  0  0  0  0
 64 24  1  0  0  0  0
M  END
