1,2,3
 OpenBabel05122313063D

 51 52  0  0  0  0  0  0  0  0999 V2000
   -1.4407   -1.6329   -1.3350 S   0  0  0  0  0  0  0  0  0  0  0  0
   -3.6404    0.0949    0.5791 S   0  0  0  0  0  0  0  0  0  0  0  0
   -1.3703    1.6073   -1.4279 S   0  0  0  0  0  0  0  0  0  0  0  0
   -0.9657   -3.3478   -0.7634 C   0  0  0  0  0  0  0  0  0  0  0  0
   -1.5480   -3.6065    0.1412 H   0  0  0  0  0  0  0  0  0  0  0  0
   -1.2611   -4.0100   -1.6033 H   0  0  0  0  0  0  0  0  0  0  0  0
   -3.2671   -1.7209   -1.6100 C   0  0  0  0  0  0  0  0  0  0  0  0
   -3.4606   -1.0392   -2.4608 H   0  0  0  0  0  0  0  0  0  0  0  0
   -3.4833   -2.7480   -1.9698 H   0  0  0  0  0  0  0  0  0  0  0  0
   -4.1331   -1.3869   -0.4064 C   0  0  0  0  0  0  0  0  0  0  0  0
   -4.0990   -2.1934    0.3545 H   0  0  0  0  0  0  0  0  0  0  0  0
   -5.1959   -1.2543   -0.6969 H   0  0  0  0  0  0  0  0  0  0  0  0
   -4.0597    1.5638   -0.4574 C   0  0  0  0  0  0  0  0  0  0  0  0
   -5.1319    1.4829   -0.7314 H   0  0  0  0  0  0  0  0  0  0  0  0
   -3.9686    2.3947    0.2721 H   0  0  0  0  0  0  0  0  0  0  0  0
   -3.1919    1.8011   -1.6827 C   0  0  0  0  0  0  0  0  0  0  0  0
   -3.3484    2.8268   -2.0757 H   0  0  0  0  0  0  0  0  0  0  0  0
   -3.4417    1.1042   -2.5061 H   0  0  0  0  0  0  0  0  0  0  0  0
   -0.7751    3.3173   -0.9608 C   0  0  0  0  0  0  0  0  0  0  0  0
   -1.0546    3.9518   -1.8270 H   0  0  0  0  0  0  0  0  0  0  0  0
   -1.3130    3.6574   -0.0559 H   0  0  0  0  0  0  0  0  0  0  0  0
    0.5119   -3.3359   -0.5099 C   0  0  0  0  0  0  0  0  0  0  0  0
    1.0307   -3.5432    0.7887 C   0  0  0  0  0  0  0  0  0  0  0  0
    0.3496   -3.7732    1.6211 H   0  0  0  0  0  0  0  0  0  0  0  0
    2.4005   -3.4688    1.0334 C   0  0  0  0  0  0  0  0  0  0  0  0
    2.8115   -3.6336    2.0394 H   0  0  0  0  0  0  0  0  0  0  0  0
    3.2981   -3.1670   -0.0169 C   0  0  0  0  0  0  0  0  0  0  0  0
    2.7942   -2.9744   -1.3238 C   0  0  0  0  0  0  0  0  0  0  0  0
    3.4681   -2.7545   -2.1617 H   0  0  0  0  0  0  0  0  0  0  0  0
    1.4171   -3.0633   -1.5561 C   0  0  0  0  0  0  0  0  0  0  0  0
    1.0400   -2.9049   -2.5791 H   0  0  0  0  0  0  0  0  0  0  0  0
    4.6019   -3.0869    0.3215 O   0  0  0  0  0  0  0  0  0  0  0  0
    5.5542   -2.7634   -0.6822 C   0  0  0  0  0  0  0  0  0  0  0  0
    6.5385   -2.7467   -0.1807 H   0  0  0  0  0  0  0  0  0  0  0  0
    5.3536   -1.7638   -1.1268 H   0  0  0  0  0  0  0  0  0  0  0  0
    5.5733   -3.5259   -1.4912 H   0  0  0  0  0  0  0  0  0  0  0  0
    0.7058    3.2270   -0.7501 C   0  0  0  0  0  0  0  0  0  0  0  0
    1.5611    2.8602   -1.8177 C   0  0  0  0  0  0  0  0  0  0  0  0
    1.1413    2.6844   -2.8208 H   0  0  0  0  0  0  0  0  0  0  0  0
    2.9297    2.7072   -1.6179 C   0  0  0  0  0  0  0  0  0  0  0  0
    3.6013    2.4205   -2.4395 H   0  0  0  0  0  0  0  0  0  0  0  0
    3.4930    2.9226   -0.3366 C   0  0  0  0  0  0  0  0  0  0  0  0
    2.6550    3.3133    0.7302 C   0  0  0  0  0  0  0  0  0  0  0  0
    3.0640    3.5045    1.7306 H   0  0  0  0  0  0  0  0  0  0  0  0
    1.2770    3.4529    0.5163 C   0  0  0  0  0  0  0  0  0  0  0  0
    0.6372    3.7516    1.3598 H   0  0  0  0  0  0  0  0  0  0  0  0
    4.8258    2.7338   -0.2384 O   0  0  0  0  0  0  0  0  0  0  0  0
    5.4567    2.9383    1.0189 C   0  0  0  0  0  0  0  0  0  0  0  0
    6.5308    2.7315    0.8638 H   0  0  0  0  0  0  0  0  0  0  0  0
    5.0591    2.2452    1.7923 H   0  0  0  0  0  0  0  0  0  0  0  0
    5.3362    3.9858    1.3715 H   0  0  0  0  0  0  0  0  0  0  0  0
  1  4  1  0  0  0  0
  3 19  1  0  0  0  0
  4 22  1  0  0  0  0
  4  5  1  0  0  0  0
  6  4  1  0  0  0  0
  7  1  1  0  0  0  0
  7 10  1  0  0  0  0
  8  7  1  0  0  0  0
  9  7  1  0  0  0  0
 10 11  1  0  0  0  0
 10  2  1  0  0  0  0
 12 10  1  0  0  0  0
 13 15  1  0  0  0  0
 13  2  1  0  0  0  0
 14 13  1  0  0  0  0
 16  3  1  0  0  0  0
 16 13  1  0  0  0  0
 17 16  1  0  0  0  0
 18 16  1  0  0  0  0
 19 37  1  0  0  0  0
 19 21  1  0  0  0  0
 20 19  1  0  0  0  0
 22 23  1  0  0  0  0
 23 25  2  0  0  0  0
 23 24  1  0  0  0  0
 25 26  1  0  0  0  0
 27 32  1  0  0  0  0
 27 25  1  0  0  0  0
 28 27  2  0  0  0  0
 29 28  1  0  0  0  0
 30 28  1  0  0  0  0
 30 22  2  0  0  0  0
 31 30  1  0  0  0  0
 33 34  1  0  0  0  0
 33 32  1  0  0  0  0
 35 33  1  0  0  0  0
 36 33  1  0  0  0  0
 37 45  1  0  0  0  0
 38 40  1  0  0  0  0
 38 37  2  0  0  0  0
 39 38  1  0  0  0  0
 40 42  2  0  0  0  0
 41 40  1  0  0  0  0
 42 47  1  0  0  0  0
 42 43  1  0  0  0  0
 43 44  1  0  0  0  0
 45 43  2  0  0  0  0
 45 46  1  0  0  0  0
 47 48  1  0  0  0  0
 48 51  1  0  0  0  0
 48 50  1  0  0  0  0
 49 48  1  0  0  0  0
M  END
