1,3,4,5,6,8
 OpenBabel05122313063D

 48 49  0  0  0  0  0  0  0  0999 V2000
   -1.2913   -1.1676   -0.4979 N   0  0  0  0  0  0  0  0  0  0  0  0
   -2.9054   -2.6822   -0.9235 N   0  0  0  0  0  0  0  0  0  0  0  0
    0.4897    0.0687   -1.9000 N   0  0  0  0  0  2  0  0  0  0  0  0
    1.3216    1.5920    0.4332 N   0  0  0  0  0  0  0  0  0  0  0  0
   -1.3215    1.5922   -0.4331 N   0  0  0  0  0  0  0  0  0  0  0  0
   -0.4897    0.0687    1.9000 N   0  0  0  0  0  2  0  0  0  0  0  0
    2.9053   -2.6823    0.9234 N   0  0  0  0  0  0  0  0  0  0  0  0
    1.2912   -1.1677    0.4979 N   0  0  0  0  0  0  0  0  0  0  0  0
   -2.2283   -1.9851    0.0205 C   0  0  0  0  0  3  0  0  0  0  0  0
   -2.3761   -2.3090   -2.1082 C   0  0  0  0  0  0  0  0  0  0  0  0
   -1.3515   -1.3597   -1.8794 C   0  0  0  0  0  0  0  0  0  0  0  0
   -0.3306   -0.6965   -2.5993 C   0  0  0  0  0  3  0  0  0  0  0  0
    1.7371    0.5216   -2.5090 C   0  0  0  0  0  0  0  0  0  0  0  0
    2.3341    1.7751   -1.8767 C   0  0  0  0  0  0  0  0  0  0  0  0
    2.5683    1.6449   -0.3763 C   0  0  0  0  0  0  0  0  0  0  0  0
    0.5724    2.8770    0.5034 C   0  0  0  0  0  0  0  0  0  0  0  0
   -0.5722    2.8771   -0.5031 C   0  0  0  0  0  0  0  0  0  0  0  0
   -2.5681    1.6450    0.3763 C   0  0  0  0  0  0  0  0  0  0  0  0
   -2.3340    1.7752    1.8767 C   0  0  0  0  0  0  0  0  0  0  0  0
   -1.7371    0.5217    2.5090 C   0  0  0  0  0  0  0  0  0  0  0  0
    0.3304   -0.6966    2.5993 C   0  0  0  0  0  3  0  0  0  0  0  0
    1.3514   -1.3599    1.8794 C   0  0  0  0  0  0  0  0  0  0  0  0
    2.3759   -2.3092    2.1081 C   0  0  0  0  0  3  0  0  0  0  0  0
    2.2282   -1.9852   -0.0205 C   0  0  0  0  0  0  0  0  0  0  0  0
   -2.4115   -2.0915    1.0978 H   0  0  0  0  0  0  0  0  0  0  0  0
   -2.7217   -2.7274   -3.0631 H   0  0  0  0  0  0  0  0  0  0  0  0
   -0.1785   -0.8475   -3.6841 H   0  0  0  0  0  0  0  0  0  0  0  0
    1.5806    0.6815   -3.5980 H   0  0  0  0  0  0  0  0  0  0  0  0
    2.4877   -0.2961   -2.4190 H   0  0  0  0  0  0  0  0  0  0  0  0
    1.7280    2.6748   -2.1102 H   0  0  0  0  0  0  0  0  0  0  0  0
    3.3182    1.9559   -2.3543 H   0  0  0  0  0  0  0  0  0  0  0  0
    3.1300    0.7141   -0.1604 H   0  0  0  0  0  0  0  0  0  0  0  0
    3.1845    2.4959   -0.0133 H   0  0  0  0  0  0  0  0  0  0  0  0
    1.6068    1.3400    1.3905 H   0  0  0  0  0  0  0  0  0  0  0  0
    0.1798    2.9762    1.5320 H   0  0  0  0  0  0  0  0  0  0  0  0
    1.2473    3.7415    0.3268 H   0  0  0  0  0  0  0  0  0  0  0  0
   -1.2471    3.7416   -0.3265 H   0  0  0  0  0  0  0  0  0  0  0  0
   -0.1796    2.9764   -1.5318 H   0  0  0  0  0  0  0  0  0  0  0  0
   -1.6067    1.3402   -1.3905 H   0  0  0  0  0  0  0  0  0  0  0  0
   -3.1844    2.4961    0.0133 H   0  0  0  0  0  0  0  0  0  0  0  0
   -3.1299    0.7143    0.1603 H   0  0  0  0  0  0  0  0  0  0  0  0
   -3.3181    1.9559    2.3543 H   0  0  0  0  0  0  0  0  0  0  0  0
   -1.7280    2.6749    2.1103 H   0  0  0  0  0  0  0  0  0  0  0  0
   -2.4878   -0.2960    2.4190 H   0  0  0  0  0  0  0  0  0  0  0  0
   -1.5805    0.6815    3.5980 H   0  0  0  0  0  0  0  0  0  0  0  0
    0.1784   -0.8477    3.6840 H   0  0  0  0  0  0  0  0  0  0  0  0
    2.7215   -2.7277    3.0630 H   0  0  0  0  0  0  0  0  0  0  0  0
    2.4115   -2.0915   -1.0978 H   0  0  0  0  0  0  0  0  0  0  0  0
  1  9  1  0  0  0  0
  2  9  1  0  0  0  0
  4 16  1  0  0  0  0
  4 34  1  0  0  0  0
  5 18  1  0  0  0  0
  6 20  1  0  0  0  0
  6 21  1  0  0  0  0
  7 23  1  0  0  0  0
  8 22  2  0  0  0  0
  9 25  1  0  0  0  0
 10 11  1  0  0  0  0
 10  2  2  0  0  0  0
 11  1  2  0  0  0  0
 12  3  1  0  0  0  0
 12 11  1  0  0  0  0
 13 29  1  0  0  0  0
 13  3  1  0  0  0  0
 13 14  1  0  0  0  0
 14 15  1  0  0  0  0
 15 32  1  0  0  0  0
 15 33  1  0  0  0  0
 15  4  1  0  0  0  0
 16 35  1  0  0  0  0
 17  5  1  0  0  0  0
 17 37  1  0  0  0  0
 17 16  1  0  0  0  0
 18 19  1  0  0  0  0
 19 43  1  0  0  0  0
 19 42  1  0  0  0  0
 19 20  1  0  0  0  0
 20 45  1  0  0  0  0
 21 46  1  0  0  0  0
 22 23  1  0  0  0  0
 22 21  1  0  0  0  0
 23 47  1  0  0  0  0
 24  8  1  0  0  0  0
 24  7  2  0  0  0  0
 26 10  1  0  0  0  0
 27 12  1  0  0  0  0
 28 13  1  0  0  0  0
 30 14  1  0  0  0  0
 31 14  1  0  0  0  0
 36 16  1  0  0  0  0
 38 17  1  0  0  0  0
 39  5  1  0  0  0  0
 40 18  1  0  0  0  0
 41 18  1  0  0  0  0
 44 20  1  0  0  0  0
 48 24  1  0  0  0  0
M  END
