9,10,11,12,13,14
 OpenBabel05122313063D

 72 75  0  0  0  0  0  0  0  0999 V2000
   -1.2426    1.3475    0.3075 O   0  0  0  0  0  0  0  0  0  0  0  0
    3.7880    1.3750   -0.6587 O   0  0  0  0  0  1  0  0  0  0  0  0
   -1.2552   -0.4828   -1.3105 O   0  0  0  0  0  0  0  0  0  0  0  0
    3.8248   -1.1098   -1.0585 O   0  0  0  0  0  0  0  0  0  0  0  0
    4.0035   -0.0887   -0.9112 H   0  0  0  0  0  0  0  0  0  0  0  0
   -1.1732   -0.9922    1.0660 O   0  0  0  0  0  0  0  0  0  0  0  0
    3.8007    0.2238    1.6054 O   0  0  0  0  0  0  0  0  0  0  0  0
    3.9783    0.7727    0.7559 H   0  0  0  0  0  0  0  0  0  0  0  0
    0.0854    1.4834    0.0978 N   0  0  0  0  0  2  0  0  0  0  0  0
    2.4649    1.4848   -0.5688 N   0  0  0  0  0  2  0  0  0  0  0  0
    0.0782   -0.6758   -1.3527 N   0  0  0  0  0  2  0  0  0  0  0  0
    2.4706   -1.1147   -1.1101 N   0  0  0  0  0  2  0  0  0  0  0  0
    0.1641   -0.8823    1.2013 N   0  0  0  0  0  2  0  0  0  0  0  0
    2.5124   -0.1714    1.4800 N   0  0  0  0  0  2  0  0  0  0  0  0
    0.5320    2.6938   -0.2018 C   0  0  0  0  0  0  0  0  0  0  0  0
    1.9275    2.7014   -0.5258 C   0  0  0  0  0  0  0  0  0  0  0  0
    2.7042    3.9682   -0.7194 C   0  0  0  0  0  0  0  0  0  0  0  0
    3.4882    3.7983   -1.4845 H   0  0  0  0  0  0  0  0  0  0  0  0
    3.2562    4.1990    0.2215 H   0  0  0  0  0  0  0  0  0  0  0  0
    1.7684    5.1314   -1.0853 C   0  0  0  0  0  0  0  0  0  0  0  0
    2.3302    6.0868   -1.0543 H   0  0  0  0  0  0  0  0  0  0  0  0
    1.4184    5.0057   -2.1338 H   0  0  0  0  0  0  0  0  0  0  0  0
    0.5510    5.1954   -0.1522 C   0  0  0  0  0  0  0  0  0  0  0  0
   -0.0667    6.0876   -0.3798 H   0  0  0  0  0  0  0  0  0  0  0  0
    0.9023    5.3156    0.8965 H   0  0  0  0  0  0  0  0  0  0  0  0
   -0.3162    3.9294   -0.2543 C   0  0  0  0  0  0  0  0  0  0  0  0
   -1.0834    3.8836    0.5442 H   0  0  0  0  0  0  0  0  0  0  0  0
   -0.8844    3.9269   -1.2133 H   0  0  0  0  0  0  0  0  0  0  0  0
    0.5127   -1.5985   -2.2028 C   0  0  0  0  0  0  0  0  0  0  0  0
    1.9243   -1.7950   -2.1116 C   0  0  0  0  0  0  0  0  0  0  0  0
    2.6890   -2.6367   -3.0879 C   0  0  0  0  0  0  0  0  0  0  0  0
    3.0541   -3.5488   -2.5636 H   0  0  0  0  0  0  0  0  0  0  0  0
    3.6066   -2.0897   -3.3896 H   0  0  0  0  0  0  0  0  0  0  0  0
    1.8109   -3.0247   -4.2883 C   0  0  0  0  0  0  0  0  0  0  0  0
    1.7035   -2.1505   -4.9678 H   0  0  0  0  0  0  0  0  0  0  0  0
    2.3147   -3.8183   -4.8759 H   0  0  0  0  0  0  0  0  0  0  0  0
    0.4170   -3.4858   -3.8389 C   0  0  0  0  0  0  0  0  0  0  0  0
    0.5264   -4.3345   -3.1280 H   0  0  0  0  0  0  0  0  0  0  0  0
   -0.1640   -3.8721   -4.7002 H   0  0  0  0  0  0  0  0  0  0  0  0
   -0.3616   -2.3461   -3.1625 C   0  0  0  0  0  0  0  0  0  0  0  0
   -0.7485   -1.6309   -3.9232 H   0  0  0  0  0  0  0  0  0  0  0  0
   -1.2633   -2.7096   -2.6259 H   0  0  0  0  0  0  0  0  0  0  0  0
    0.6749   -1.2439    2.3693 C   0  0  0  0  0  0  0  0  0  0  0  0
    2.0559   -0.8900    2.4977 C   0  0  0  0  0  0  0  0  0  0  0  0
    2.8697   -1.2297    3.7106 C   0  0  0  0  0  0  0  0  0  0  0  0
    3.0999   -0.2864    4.2561 H   0  0  0  0  0  0  0  0  0  0  0  0
    3.8567   -1.6219    3.3868 H   0  0  0  0  0  0  0  0  0  0  0  0
    2.1249   -2.2161    4.6227 C   0  0  0  0  0  0  0  0  0  0  0  0
    2.1643   -3.2353    4.1787 H   0  0  0  0  0  0  0  0  0  0  0  0
    2.6427   -2.2803    5.6008 H   0  0  0  0  0  0  0  0  0  0  0  0
    0.6582   -1.8059    4.8110 C   0  0  0  0  0  0  0  0  0  0  0  0
    0.6186   -0.7723    5.2203 H   0  0  0  0  0  0  0  0  0  0  0  0
    0.1619   -2.4579    5.5575 H   0  0  0  0  0  0  0  0  0  0  0  0
   -0.1150   -1.8614    3.4842 C   0  0  0  0  0  0  0  0  0  0  0  0
   -0.3460   -2.9175    3.2157 H   0  0  0  0  0  0  0  0  0  0  0  0
   -1.1002   -1.3543    3.5477 H   0  0  0  0  0  0  0  0  0  0  0  0
   -3.3308   -0.0770    0.0972 C   0  0  0  0  0  0  0  0  0  0  0  0
   -4.1021    1.0247   -0.3379 C   0  0  0  0  0  0  0  0  0  0  0  0
   -3.5856    1.9314   -0.6905 H   0  0  0  0  0  0  0  0  0  0  0  0
   -5.4996    0.9932   -0.3241 C   0  0  0  0  0  0  0  0  0  0  0  0
   -6.0646    1.8725   -0.6702 H   0  0  0  0  0  0  0  0  0  0  0  0
   -6.1958   -0.1526    0.1299 C   0  0  0  0  0  0  0  0  0  0  0  0
   -5.4262   -1.2554    0.5678 C   0  0  0  0  0  0  0  0  0  0  0  0
   -5.9475   -2.1573    0.9285 H   0  0  0  0  0  0  0  0  0  0  0  0
   -4.0263   -1.2165    0.5513 C   0  0  0  0  0  0  0  0  0  0  0  0
   -3.4546   -2.0890    0.9051 H   0  0  0  0  0  0  0  0  0  0  0  0
   -7.6633   -0.2421    0.1667 C   0  0  0  0  0  0  0  0  0  0  0  0
   -8.0528   -1.2035    0.5479 H   0  0  0  0  0  0  0  0  0  0  0  0
   -8.5574    0.6995   -0.2053 C   0  0  0  0  0  0  0  0  0  0  0  0
   -8.2501    1.6830   -0.5950 H   0  0  0  0  0  0  0  0  0  0  0  0
   -9.6391    0.5133   -0.1306 H   0  0  0  0  0  0  0  0  0  0  0  0
   -1.7390   -0.0422    0.0477 B   0  0  1  0  0  0  0  0  0  0  0  0
  2 10  1  0  0  0  0
  4  5  1  0  0  0  0
  6 13  1  0  0  0  0
  8  7  1  0  0  0  0
  9  1  1  0  0  0  0
 10 16  1  0  0  0  0
 11  3  1  0  0  0  0
 12  4  1  0  0  0  0
 13 43  1  0  0  0  0
 14  7  1  0  0  0  0
 14 44  1  0  0  0  0
 15  9  1  0  0  0  0
 16 15  2  0  0  0  0
 17 16  1  0  0  0  0
 17 19  1  0  0  0  0
 18 17  1  0  0  0  0
 20 21  1  0  0  0  0
 20 17  1  0  0  0  0
 20 23  1  0  0  0  0
 22 20  1  0  0  0  0
 23 25  1  0  0  0  0
 24 23  1  0  0  0  0
 26 15  1  0  0  0  0
 26 23  1  0  0  0  0
 26 27  1  0  0  0  0
 28 26  1  0  0  0  0
 29 30  2  0  0  0  0
 29 11  1  0  0  0  0
 30 12  1  0  0  0  0
 31 32  1  0  0  0  0
 31 30  1  0  0  0  0
 33 31  1  0  0  0  0
 34 37  1  0  0  0  0
 34 31  1  0  0  0  0
 35 34  1  0  0  0  0
 36 34  1  0  0  0  0
 37 40  1  0  0  0  0
 37 38  1  0  0  0  0
 39 37  1  0  0  0  0
 40 42  1  0  0  0  0
 40 29  1  0  0  0  0
 41 40  1  0  0  0  0
 43 44  2  0  0  0  0
 43 54  1  0  0  0  0
 44 45  1  0  0  0  0
 45 46  1  0  0  0  0
 45 48  1  0  0  0  0
 47 45  1  0  0  0  0
 48 51  1  0  0  0  0
 48 50  1  0  0  0  0
 49 48  1  0  0  0  0
 51 52  1  0  0  0  0
 51 53  1  0  0  0  0
 54 56  1  0  0  0  0
 54 51  1  0  0  0  0
 55 54  1  0  0  0  0
 57 65  1  0  0  0  0
 58 60  1  0  0  0  0
 58 57  2  0  0  0  0
 59 58  1  0  0  0  0
 60 62  2  0  0  0  0
 61 60  1  0  0  0  0
 62 67  1  0  0  0  0
 62 63  1  0  0  0  0
 63 64  1  0  0  0  0
 65 63  2  0  0  0  0
 65 66  1  0  0  0  0
 67 68  1  0  0  0  0
 69 71  1  0  0  0  0
 69 67  2  0  0  0  0
 70 69  1  0  0  0  0
 72  3  1  6  0  0  0
 72 57  1  0  0  0  0
 72  1  1  0  0  0  0
 72  6  1  0  0  0  0
M  END
