1,3,5,7,9,11
 OpenBabel05122313063D

 78 84  0  0  1  0  0  0  0  0999 V2000
    1.1329   -1.0610   -1.0739 N   0  0  0  0  0  2  0  0  0  0  0  0
    0.9139   -1.4793   -2.3296 O   0  0  0  0  0  0  0  0  0  0  0  0
   -1.4466   -0.6147   -1.1515 N   0  0  0  0  0  2  0  0  0  0  0  0
   -1.4216   -0.7959   -2.4800 O   0  0  0  0  0  0  0  0  0  0  0  0
    0.2288    1.2952   -1.7715 N   0  0  0  0  0  2  0  0  0  0  0  0
    0.3481    0.8009   -3.0066 O   0  0  0  0  0  0  0  0  0  0  0  0
    1.4797    0.1482    1.0195 N   0  0  0  0  0  2  0  0  0  0  0  0
    1.4387    0.7155    2.2370 O   0  0  0  0  0  0  0  0  0  0  0  0
   -1.0546   -0.4675    1.2547 N   0  0  0  0  0  2  0  0  0  0  0  0
   -0.8312   -0.1248    2.5344 O   0  0  0  0  0  0  0  0  0  0  0  0
   -0.3495    1.9508    0.5294 N   0  0  0  0  0  2  0  0  0  0  0  0
   -0.4665    2.1888    1.8419 O   0  0  0  0  0  0  0  0  0  0  0  0
   -0.0619   -0.6371   -3.0877 B   0  0  1  0  0  0  0  0  0  0  0  0
   -0.0944   -1.0294   -4.3801 F   0  0  0  0  0  0  0  0  0  0  0  0
    0.0581    1.0617    2.6889 B   0  0  2  0  0  0  0  0  0  0  0  0
    0.0855    1.4530    3.9828 F   0  0  0  0  0  0  0  0  0  0  0  0
    2.3196   -1.3375   -0.5285 C   0  0  1  0  0  3  0  0  0  0  0  0
    3.3792   -2.1054   -1.2120 C   0  0  0  0  0  0  0  0  0  0  0  0
    3.0875   -3.2879   -1.9292 C   0  0  0  0  0  0  0  0  0  0  0  0
    2.0496   -3.6389   -1.9980 H   0  0  0  0  0  0  0  0  0  0  0  0
    4.1156   -4.0093   -2.5488 C   0  0  0  0  0  0  0  0  0  0  0  0
    3.8753   -4.9310   -3.0998 H   0  0  0  0  0  0  0  0  0  0  0  0
    5.4435   -3.5587   -2.4751 C   0  0  0  0  0  0  0  0  0  0  0  0
    6.2475   -4.1259   -2.9681 H   0  0  0  0  0  0  0  0  0  0  0  0
    5.7407   -2.3785   -1.7751 C   0  0  0  0  0  0  0  0  0  0  0  0
    6.7772   -2.0131   -1.7203 H   0  0  0  0  0  0  0  0  0  0  0  0
    4.7193   -1.6585   -1.1442 C   0  0  0  0  0  0  0  0  0  0  0  0
    4.9568   -0.7342   -0.5984 H   0  0  0  0  0  0  0  0  0  0  0  0
    2.4723   -0.7079    0.7680 C   0  0  2  0  0  3  0  0  0  0  0  0
    3.5374   -1.0398    1.7349 C   0  0  0  0  0  0  0  0  0  0  0  0
    3.9342   -2.3874    1.8993 C   0  0  0  0  0  0  0  0  0  0  0  0
    3.4355   -3.1752    1.3168 H   0  0  0  0  0  0  0  0  0  0  0  0
    4.9495   -2.7239    2.8023 C   0  0  0  0  0  0  0  0  0  0  0  0
    5.2416   -3.7778    2.9241 H   0  0  0  0  0  0  0  0  0  0  0  0
    5.5909   -1.7222    3.5483 C   0  0  0  0  0  0  0  0  0  0  0  0
    6.3919   -1.9870    4.2551 H   0  0  0  0  0  0  0  0  0  0  0  0
    5.2033   -0.3816    3.3921 C   0  0  0  0  0  0  0  0  0  0  0  0
    5.7000    0.4079    3.9758 H   0  0  0  0  0  0  0  0  0  0  0  0
    4.1808   -0.0393    2.4984 C   0  0  0  0  0  0  0  0  0  0  0  0
    3.8761    1.0092    2.3853 H   0  0  0  0  0  0  0  0  0  0  0  0
   -2.2064   -1.0805    0.9730 C   0  0  1  0  0  3  0  0  0  0  0  0
   -3.2206   -1.4303    1.9873 C   0  0  0  0  0  0  0  0  0  0  0  0
   -2.8591   -2.0131    3.2232 C   0  0  0  0  0  0  0  0  0  0  0  0
   -1.8003   -2.1973    3.4474 H   0  0  0  0  0  0  0  0  0  0  0  0
   -3.8449   -2.3555    4.1571 C   0  0  0  0  0  0  0  0  0  0  0  0
   -3.5502   -2.8137    5.1132 H   0  0  0  0  0  0  0  0  0  0  0  0
   -5.2000   -2.1118    3.8811 C   0  0  0  0  0  0  0  0  0  0  0  0
   -5.9709   -2.3780    4.6201 H   0  0  0  0  0  0  0  0  0  0  0  0
   -5.5672   -1.5223    2.6608 C   0  0  0  0  0  0  0  0  0  0  0  0
   -6.6259   -1.3198    2.4400 H   0  0  0  0  0  0  0  0  0  0  0  0
   -4.5877   -1.1877    1.7183 C   0  0  0  0  0  0  0  0  0  0  0  0
   -4.8801   -0.7261    0.7643 H   0  0  0  0  0  0  0  0  0  0  0  0
   -2.3790   -1.2669   -0.4539 C   0  0  2  0  0  3  0  0  0  0  0  0
   -3.3968   -2.1464   -1.0623 C   0  0  0  0  0  0  0  0  0  0  0  0
   -4.0928   -1.7705   -2.2337 C   0  0  0  0  0  0  0  0  0  0  0  0
   -3.8656   -0.8109   -2.7159 H   0  0  0  0  0  0  0  0  0  0  0  0
   -5.0687   -2.6158   -2.7765 C   0  0  0  0  0  0  0  0  0  0  0  0
   -5.6070   -2.3084   -3.6856 H   0  0  0  0  0  0  0  0  0  0  0  0
   -5.3563   -3.8496   -2.1711 C   0  0  0  0  0  0  0  0  0  0  0  0
   -6.1206   -4.5127   -2.6040 H   0  0  0  0  0  0  0  0  0  0  0  0
   -4.6614   -4.2363   -1.0139 C   0  0  0  0  0  0  0  0  0  0  0  0
   -4.8745   -5.2051   -0.5377 H   0  0  0  0  0  0  0  0  0  0  0  0
   -3.6926   -3.3913   -0.4599 C   0  0  0  0  0  0  0  0  0  0  0  0
   -3.1513   -3.6985    0.4464 H   0  0  0  0  0  0  0  0  0  0  0  0
    0.0169    2.5975   -1.6353 C   0  0  0  0  0  0  0  0  0  0  0  0
   -0.0124    3.6620   -2.9734 Cl  0  0  0  0  0  0  0  0  0  0  0  0
   -0.2446    2.9970   -0.2826 C   0  0  0  0  0  0  0  0  0  0  0  0
   -0.3230    4.4175    0.1968 C   0  0  0  0  0  0  0  0  0  0  0  0
   -0.4281    4.4251    1.3107 H   0  0  0  0  0  0  0  0  0  0  0  0
    0.8722    5.0833   -0.1717 O   0  0  0  0  0  0  0  0  0  0  0  0
   -1.4970    6.3971    0.0025 C   0  0  0  0  0  0  0  0  0  0  0  0
   -2.3476    6.8679   -0.5245 H   0  0  0  0  0  0  0  0  0  0  0  0
   -1.6403    6.4603    1.1157 H   0  0  0  0  0  0  0  0  0  0  0  0
   -0.3230    7.0807   -0.3678 O   0  0  0  0  0  0  0  0  0  0  0  0
    0.7895    6.4427    0.2126 C   0  0  0  0  0  0  0  0  0  0  0  0
    0.7266    6.5094    1.3330 H   0  0  0  0  0  0  0  0  0  0  0  0
    1.7029    6.9465   -0.1542 H   0  0  0  0  0  0  0  0  0  0  0  0
   -1.4551    5.0382   -0.3889 O   0  0  0  0  0  0  0  0  0  0  0  0
  1 17  1  0  0  0  0
  2  1  1  0  0  0  0
  3 53  1  0  0  0  0
  4  3  1  0  0  0  0
  5 65  1  0  0  0  0
  6  5  1  0  0  0  0
  7  8  1  0  0  0  0
  8 15  1  0  0  0  0
  9 10  1  0  0  0  0
 10 15  1  0  0  0  0
 11 12  1  0  0  0  0
 12 15  1  0  0  0  0
 13 14  1  6  0  0  0
 13  6  1  0  0  0  0
 13  4  1  0  0  0  0
 13  2  1  0  0  0  0
 15 16  1  1  0  0  0
 17 18  1  6  0  0  0
 17 29  1  0  0  0  0
 18 27  1  0  0  0  0
 19 18  2  0  0  0  0
 20 19  1  0  0  0  0
 21 23  2  0  0  0  0
 21 19  1  0  0  0  0
 22 21  1  0  0  0  0
 23 25  1  0  0  0  0
 24 23  1  0  0  0  0
 25 26  1  0  0  0  0
 25 27  2  0  0  0  0
 27 28  1  0  0  0  0
 29  7  1  0  0  0  0
 29 30  1  1  0  0  0
 30 31  2  0  0  0  0
 30 39  1  0  0  0  0
 31 33  1  0  0  0  0
 32 31  1  0  0  0  0
 33 34  1  0  0  0  0
 33 35  2  0  0  0  0
 35 36  1  0  0  0  0
 37 35  1  0  0  0  0
 37 38  1  0  0  0  0
 39 37  2  0  0  0  0
 40 39  1  0  0  0  0
 41  9  1  0  0  0  0
 41 42  1  6  0  0  0
 42 43  1  0  0  0  0
 43 44  1  0  0  0  0
 43 45  2  0  0  0  0
 45 46  1  0  0  0  0
 47 45  1  0  0  0  0
 47 48  1  0  0  0  0
 49 47  2  0  0  0  0
 50 49  1  0  0  0  0
 51 42  2  0  0  0  0
 51 49  1  0  0  0  0
 52 51  1  0  0  0  0
 53 54  1  1  0  0  0
 53 41  1  0  0  0  0
 54 63  1  0  0  0  0
 55 54  2  0  0  0  0
 56 55  1  0  0  0  0
 57 55  1  0  0  0  0
 57 59  2  0  0  0  0
 58 57  1  0  0  0  0
 59 61  1  0  0  0  0
 60 59  1  0  0  0  0
 61 62  1  0  0  0  0
 61 63  2  0  0  0  0
 63 64  1  0  0  0  0
 65 67  2  0  0  0  0
 66 65  1  0  0  0  0
 67 68  1  0  0  0  0
 67 11  1  0  0  0  0
 68 69  1  0  0  0  0
 70 68  1  0  0  0  0
 70 75  1  0  0  0  0
 71 73  1  0  0  0  0
 72 71  1  0  0  0  0
 74 71  1  0  0  0  0
 74 75  1  0  0  0  0
 75 76  1  0  0  0  0
 77 75  1  0  0  0  0
 78 71  1  0  0  0  0
 78 68  1  0  0  0  0
M  END
