9,10,11,12,13,14
 OpenBabel05122313063D

 82 88  0  0  1  0  0  0  0  0999 V2000
   -0.0827    1.2493    4.1678 F   0  0  0  0  0  0  0  0  0  0  0  0
    0.0609   -0.2655   -4.4150 F   0  0  0  0  0  0  0  0  0  0  0  0
    0.5255    2.2098    2.1386 O   0  0  0  0  0  0  0  0  0  0  0  0
   -0.3564    1.4092   -2.8510 O   0  0  0  0  0  0  0  0  0  0  0  0
    0.7770   -0.1907    2.5509 O   0  0  0  0  0  0  0  0  0  0  0  0
    1.3874   -0.2746   -2.5014 O   0  0  0  0  0  0  0  0  0  0  0  0
   -1.4530    0.7818    2.3447 O   0  0  0  0  0  0  0  0  0  0  0  0
   -0.9654   -0.9238   -2.4274 O   0  0  0  0  0  0  0  0  0  0  0  0
    0.4495    2.1086    0.7923 N   0  0  0  0  0  2  0  0  0  0  0  0
   -0.2484    1.7452   -1.5344 N   0  0  0  0  0  2  0  0  0  0  0  0
    0.9960   -0.4092    1.2423 N   0  0  0  0  0  2  0  0  0  0  0  0
    1.4114   -0.2549   -1.1561 N   0  0  0  0  0  2  0  0  0  0  0  0
   -1.5114    0.3605    1.0690 N   0  0  0  0  0  2  0  0  0  0  0  0
   -1.1872   -0.6492   -1.1291 N   0  0  0  0  0  2  0  0  0  0  0  0
    0.5460    4.5149    0.6277 N   0  0  0  0  0  0  0  0  0  0  0  0
    0.3363    3.8992   -2.3167 N   0  0  0  0  0  0  0  0  0  0  0  0
    0.2601    3.4553   -3.2380 H   0  0  0  0  0  0  0  0  0  0  0  0
    0.4189    3.2464    0.1010 C   0  0  2  0  0  3  0  0  0  0  0  0
    0.1473    2.9899   -1.3076 C   0  0  2  0  0  3  0  0  0  0  0  0
    2.1404   -1.0065    0.8955 C   0  0  1  0  0  3  0  0  0  0  0  0
    2.3187   -1.0225   -0.5430 C   0  0  1  0  0  3  0  0  0  0  0  0
   -2.5440   -0.4138    0.7197 C   0  0  1  0  0  3  0  0  0  0  0  0
   -2.4019   -0.9075   -0.6364 C   0  0  1  0  0  3  0  0  0  0  0  0
    3.1442   -1.4849    1.8664 C   0  0  0  0  0  0  0  0  0  0  0  0
    2.7660   -2.1737    3.0417 C   0  0  0  0  0  0  0  0  0  0  0  0
    1.7020   -2.3444    3.2505 H   0  0  0  0  0  0  0  0  0  0  0  0
    3.7405   -2.6364    3.9350 C   0  0  0  0  0  0  0  0  0  0  0  0
    3.4307   -3.1754    4.8431 H   0  0  0  0  0  0  0  0  0  0  0  0
    5.1029   -2.4121    3.6798 C   0  0  0  0  0  0  0  0  0  0  0  0
    5.8650   -2.7742    4.3865 H   0  0  0  0  0  0  0  0  0  0  0  0
    5.4879   -1.7191    2.5209 C   0  0  0  0  0  0  0  0  0  0  0  0
    6.5528   -1.5316    2.3161 H   0  0  0  0  0  0  0  0  0  0  0  0
    4.5191   -1.2618    1.6197 C   0  0  0  0  0  0  0  0  0  0  0  0
    4.8260   -0.7195    0.7140 H   0  0  0  0  0  0  0  0  0  0  0  0
    3.3041   -1.8638   -1.2504 C   0  0  0  0  0  0  0  0  0  0  0  0
    3.5594   -3.1766   -0.7893 C   0  0  0  0  0  0  0  0  0  0  0  0
    3.0092   -3.5613    0.0813 H   0  0  0  0  0  0  0  0  0  0  0  0
    4.4976   -3.9895   -1.4363 C   0  0  0  0  0  0  0  0  0  0  0  0
    4.6782   -5.0105   -1.0676 H   0  0  0  0  0  0  0  0  0  0  0  0
    5.2021   -3.5058   -2.5503 C   0  0  0  0  0  0  0  0  0  0  0  0
    5.9415   -4.1444   -3.0572 H   0  0  0  0  0  0  0  0  0  0  0  0
    4.9542   -2.2052   -3.0177 C   0  0  0  0  0  0  0  0  0  0  0  0
    5.4990   -1.8208   -3.8933 H   0  0  0  0  0  0  0  0  0  0  0  0
    4.0104   -1.3902   -2.3798 C   0  0  0  0  0  0  0  0  0  0  0  0
    3.8134   -0.3778   -2.7550 H   0  0  0  0  0  0  0  0  0  0  0  0
   -3.6319   -0.8031    1.6383 C   0  0  0  0  0  0  0  0  0  0  0  0
   -4.1043   -2.1365    1.6362 C   0  0  0  0  0  0  0  0  0  0  0  0
   -3.6445   -2.8729    0.9618 H   0  0  0  0  0  0  0  0  0  0  0  0
   -5.1437   -2.5256    2.4894 C   0  0  0  0  0  0  0  0  0  0  0  0
   -5.4941   -3.5688    2.4789 H   0  0  0  0  0  0  0  0  0  0  0  0
   -5.7342   -1.5909    3.3549 C   0  0  0  0  0  0  0  0  0  0  0  0
   -6.5532   -1.8965    4.0237 H   0  0  0  0  0  0  0  0  0  0  0  0
   -5.2706   -0.2655    3.3667 C   0  0  0  0  0  0  0  0  0  0  0  0
   -5.7255    0.4718    4.0455 H   0  0  0  0  0  0  0  0  0  0  0  0
   -4.2253    0.1279    2.5216 C   0  0  0  0  0  0  0  0  0  0  0  0
   -3.8609    1.1631    2.5410 H   0  0  0  0  0  0  0  0  0  0  0  0
   -3.4929   -1.5211   -1.4190 C   0  0  0  0  0  0  0  0  0  0  0  0
   -3.2579   -2.6152   -2.2829 C   0  0  0  0  0  0  0  0  0  0  0  0
   -2.2397   -3.0109   -2.3906 H   0  0  0  0  0  0  0  0  0  0  0  0
   -4.3156   -3.1921   -2.9972 C   0  0  0  0  0  0  0  0  0  0  0  0
   -4.1181   -4.0465   -3.6621 H   0  0  0  0  0  0  0  0  0  0  0  0
   -5.6184   -2.6834   -2.8727 C   0  0  0  0  0  0  0  0  0  0  0  0
   -6.4458   -3.1373   -3.4391 H   0  0  0  0  0  0  0  0  0  0  0  0
   -5.8596   -1.5896   -2.0260 C   0  0  0  0  0  0  0  0  0  0  0  0
   -6.8757   -1.1785   -1.9284 H   0  0  0  0  0  0  0  0  0  0  0  0
   -4.8084   -1.0145   -1.3023 C   0  0  0  0  0  0  0  0  0  0  0  0
   -5.0022   -0.1574   -0.6416 H   0  0  0  0  0  0  0  0  0  0  0  0
   -0.0799    5.6131   -0.1029 C   0  0  0  0  0  0  0  0  0  0  0  0
   -0.2812    6.4309    0.6201 H   0  0  0  0  0  0  0  0  0  0  0  0
   -1.0679    5.2609   -0.4606 H   0  0  0  0  0  0  0  0  0  0  0  0
    0.7306    6.1425   -1.2990 C   0  0  0  0  0  0  0  0  0  0  0  0
    1.5762    6.7786   -0.9628 H   0  0  0  0  0  0  0  0  0  0  0  0
    0.0634    6.7890   -1.9067 H   0  0  0  0  0  0  0  0  0  0  0  0
    1.2922    4.9905   -2.1485 C   0  0  0  0  0  0  0  0  0  0  0  0
    1.5671    5.3579   -3.1560 H   0  0  0  0  0  0  0  0  0  0  0  0
    2.2330    4.6118   -1.6847 H   0  0  0  0  0  0  0  0  0  0  0  0
    1.5959    4.8379    1.5833 C   0  0  0  0  0  0  0  0  0  0  0  0
    1.8084    3.9596    2.2181 H   0  0  0  0  0  0  0  0  0  0  0  0
    1.2535    5.6620    2.2410 H   0  0  0  0  0  0  0  0  0  0  0  0
    2.5384    5.1595    1.0799 H   0  0  0  0  0  0  0  0  0  0  0  0
   -0.0595    1.0195    2.8322 B   0  0  1  0  0  0  0  0  0  0  0  0
    0.0300   -0.0166   -3.0821 B   0  0  2  0  0  0  0  0  0  0  0  0
  3 81  1  0  0  0  0
  4 10  1  0  0  0  0
  5 81  1  0  0  0  0
  6 12  1  0  0  0  0
  7 81  1  0  0  0  0
  8 14  1  0  0  0  0
  9  3  1  0  0  0  0
 11  5  1  0  0  0  0
 12 21  1  0  0  0  0
 13  7  1  0  0  0  0
 14 23  1  0  0  0  0
 15 77  1  0  0  0  0
 16 74  1  0  0  0  0
 16 19  1  0  0  0  0
 17 16  1  0  0  0  0
 18 15  1  0  0  0  0
 18  9  1  1  0  0  0
 19 10  1  6  0  0  0
 19 18  1  0  0  0  0
 20 11  1  0  0  0  0
 20 24  1  1  0  0  0
 21 35  1  6  0  0  0
 21 20  1  0  0  0  0
 22 13  1  0  0  0  0
 22 46  1  1  0  0  0
 23 57  1  6  0  0  0
 23 22  1  0  0  0  0
 24 25  1  0  0  0  0
 25 26  1  0  0  0  0
 25 27  2  0  0  0  0
 27 28  1  0  0  0  0
 29 27  1  0  0  0  0
 29 30  1  0  0  0  0
 31 29  2  0  0  0  0
 32 31  1  0  0  0  0
 33 24  2  0  0  0  0
 33 31  1  0  0  0  0
 34 33  1  0  0  0  0
 35 36  1  0  0  0  0
 36 37  1  0  0  0  0
 38 39  1  0  0  0  0
 38 36  2  0  0  0  0
 40 38  1  0  0  0  0
 41 40  1  0  0  0  0
 42 40  2  0  0  0  0
 42 44  1  0  0  0  0
 43 42  1  0  0  0  0
 44 35  2  0  0  0  0
 45 44  1  0  0  0  0
 46 55  1  0  0  0  0
 47 46  2  0  0  0  0
 47 49  1  0  0  0  0
 48 47  1  0  0  0  0
 49 51  2  0  0  0  0
 50 49  1  0  0  0  0
 51 53  1  0  0  0  0
 51 52  1  0  0  0  0
 53 54  1  0  0  0  0
 55 56  1  0  0  0  0
 55 53  2  0  0  0  0
 57 66  1  0  0  0  0
 58 57  2  0  0  0  0
 59 58  1  0  0  0  0
 60 62  2  0  0  0  0
 60 58  1  0  0  0  0
 61 60  1  0  0  0  0
 62 64  1  0  0  0  0
 63 62  1  0  0  0  0
 64 65  1  0  0  0  0
 64 66  2  0  0  0  0
 66 67  1  0  0  0  0
 68 69  1  0  0  0  0
 68 15  1  0  0  0  0
 70 68  1  0  0  0  0
 71 72  1  0  0  0  0
 71 68  1  0  0  0  0
 73 71  1  0  0  0  0
 74 76  1  0  0  0  0
 74 71  1  0  0  0  0
 75 74  1  0  0  0  0
 77 78  1  0  0  0  0
 77 79  1  0  0  0  0
 80 77  1  0  0  0  0
 81  1  1  1  0  0  0
 82  2  1  6  0  0  0
 82  4  1  0  0  0  0
 82  6  1  0  0  0  0
 82  8  1  0  0  0  0
M  END
