9,10,11,12,13,14
 OpenBabel05122313063D

 78 85  0  0  1  0  0  0  0  0999 V2000
   -4.0876   -0.4190   -1.7925 S   0  0  0  0  0  0  0  0  0  0  0  0
   -4.1041   -0.1326    1.8015 S   0  0  0  0  0  0  0  0  0  0  0  0
   -1.3799   -0.4999   -2.5183 O   0  0  0  0  0  0  0  0  0  0  0  0
   -1.4277    0.3010    2.5239 O   0  0  0  0  0  0  0  0  0  0  0  0
    0.1116    1.4390   -2.4706 O   0  0  0  0  0  0  0  0  0  0  0  0
    0.9370    0.9342    2.5302 O   0  0  0  0  0  0  0  0  0  0  0  0
    1.0478   -0.8123   -2.5297 O   0  0  0  0  0  0  0  0  0  0  0  0
    0.3082   -1.4218    2.4728 O   0  0  0  0  0  0  0  0  0  0  0  0
   -1.4928   -0.4041   -1.1818 N   0  0  0  0  0  2  0  0  0  0  0  0
   -1.5299    0.1948    1.1876 N   0  0  0  0  0  2  0  0  0  0  0  0
    0.3148    1.4859   -1.1435 N   0  0  0  0  0  2  0  0  0  0  0  0
    0.8983    1.1512    1.2045 N   0  0  0  0  0  2  0  0  0  0  0  0
    1.0406   -1.0329   -1.2041 N   0  0  0  0  0  2  0  0  0  0  0  0
    0.5119   -1.4415    1.1451 N   0  0  0  0  0  2  0  0  0  0  0  0
   -0.0712    0.0547   -3.0089 B   0  0  1  0  0  0  0  0  0  0  0  0
   -0.0556   -0.0740    3.0116 B   0  0  2  0  0  0  0  0  0  0  0  0
   -0.0758    0.0904   -4.3603 F   0  0  0  0  0  0  0  0  0  0  0  0
   -0.0527   -0.1098    4.3629 F   0  0  0  0  0  0  0  0  0  0  0  0
   -2.7255   -0.3202   -0.7005 C   0  0  0  0  0  0  0  0  0  0  0  0
   -2.7425   -0.0456    0.7077 C   0  0  0  0  0  0  0  0  0  0  0  0
    1.0366    2.5006   -0.6601 C   0  0  1  0  0  3  0  0  0  0  0  0
    1.2764    2.3534    0.7621 C   0  0  1  0  0  3  0  0  0  0  0  0
    1.5743   -2.1751   -0.7631 C   0  0  1  0  0  3  0  0  0  0  0  0
    1.3596   -2.3525    0.6596 C   0  0  1  0  0  3  0  0  0  0  0  0
   -5.4939   -0.3933   -0.7017 C   0  0  0  0  0  0  0  0  0  0  0  0
   -6.7253   -0.5021   -1.3865 C   0  0  0  0  0  0  0  0  0  0  0  0
   -6.7129   -0.5881   -2.4846 H   0  0  0  0  0  0  0  0  0  0  0  0
   -7.9420   -0.5054   -0.6996 C   0  0  0  0  0  0  0  0  0  0  0  0
   -8.8839   -0.5921   -1.2603 H   0  0  0  0  0  0  0  0  0  0  0  0
   -7.9485   -0.3984    0.7007 C   0  0  0  0  0  0  0  0  0  0  0  0
   -8.8956   -0.3996    1.2594 H   0  0  0  0  0  0  0  0  0  0  0  0
   -6.7382   -0.2865    1.3900 C   0  0  0  0  0  0  0  0  0  0  0  0
   -6.7362   -0.1971    2.4879 H   0  0  0  0  0  0  0  0  0  0  0  0
   -5.5006   -0.2812    0.7079 C   0  0  0  0  0  0  0  0  0  0  0  0
    1.5999    3.5817   -1.4927 C   0  0  0  0  0  0  0  0  0  0  0  0
    2.9241    4.0218   -1.2611 C   0  0  0  0  0  0  0  0  0  0  0  0
    3.5246    3.5445   -0.4736 H   0  0  0  0  0  0  0  0  0  0  0  0
    3.4760    5.0520   -2.0316 C   0  0  0  0  0  0  0  0  0  0  0  0
    4.5102    5.3775   -1.8435 H   0  0  0  0  0  0  0  0  0  0  0  0
    2.7145    5.6654   -3.0393 C   0  0  0  0  0  0  0  0  0  0  0  0
    3.1478    6.4776   -3.6425 H   0  0  0  0  0  0  0  0  0  0  0  0
    1.3994    5.2346   -3.2772 C   0  0  0  0  0  0  0  0  0  0  0  0
    0.7981    5.7084   -4.0677 H   0  0  0  0  0  0  0  0  0  0  0  0
    0.8447    4.1975   -2.5167 C   0  0  0  0  0  0  0  0  0  0  0  0
   -0.1809    3.8589   -2.7125 H   0  0  0  0  0  0  0  0  0  0  0  0
    1.7758    3.4310    1.6389 C   0  0  0  0  0  0  0  0  0  0  0  0
    1.3247    4.7570    1.4428 C   0  0  0  0  0  0  0  0  0  0  0  0
    0.5931    4.9700    0.6504 H   0  0  0  0  0  0  0  0  0  0  0  0
    1.7955    5.7953    2.2552 C   0  0  0  0  0  0  0  0  0  0  0  0
    1.4287    6.8203    2.0947 H   0  0  0  0  0  0  0  0  0  0  0  0
    2.7290    5.5297    3.2698 C   0  0  0  0  0  0  0  0  0  0  0  0
    3.1012    6.3470    3.9060 H   0  0  0  0  0  0  0  0  0  0  0  0
    3.1814    4.2160    3.4730 C   0  0  0  0  0  0  0  0  0  0  0  0
    3.9097    4.0001    4.2691 H   0  0  0  0  0  0  0  0  0  0  0  0
    2.7066    3.1711    2.6705 C   0  0  0  0  0  0  0  0  0  0  0  0
    3.0564    2.1443    2.8393 H   0  0  0  0  0  0  0  0  0  0  0  0
    2.2077   -3.1785   -1.6416 C   0  0  0  0  0  0  0  0  0  0  0  0
    3.0927   -2.7998   -2.6767 C   0  0  0  0  0  0  0  0  0  0  0  0
    3.3050   -1.7363   -2.8469 H   0  0  0  0  0  0  0  0  0  0  0  0
    3.6967   -3.7743   -3.4811 C   0  0  0  0  0  0  0  0  0  0  0  0
    4.3876   -3.4656   -4.2800 H   0  0  0  0  0  0  0  0  0  0  0  0
    3.4202   -5.1357   -3.2762 C   0  0  0  0  0  0  0  0  0  0  0  0
    3.8934   -5.8977   -3.9139 H   0  0  0  0  0  0  0  0  0  0  0  0
    2.5333   -5.5203   -2.2580 C   0  0  0  0  0  0  0  0  0  0  0  0
    2.3038   -6.5842   -2.0962 H   0  0  0  0  0  0  0  0  0  0  0  0
    1.9342   -4.5519   -1.4439 C   0  0  0  0  0  0  0  0  0  0  0  0
    1.2394   -4.8580   -0.6488 H   0  0  0  0  0  0  0  0  0  0  0  0
    2.0618   -3.3507    1.4901 C   0  0  0  0  0  0  0  0  0  0  0  0
    1.3961   -4.0613    2.5149 C   0  0  0  0  0  0  0  0  0  0  0  0
    0.3356   -3.8597    2.7138 H   0  0  0  0  0  0  0  0  0  0  0  0
    2.0834   -5.0184    3.2719 C   0  0  0  0  0  0  0  0  0  0  0  0
    1.5512   -5.5680    4.0629 H   0  0  0  0  0  0  0  0  0  0  0  0
    3.4428   -5.2737    3.0298 C   0  0  0  0  0  0  0  0  0  0  0  0
    3.9799   -6.0235    3.6302 H   0  0  0  0  0  0  0  0  0  0  0  0
    4.1152   -4.5644    2.0217 C   0  0  0  0  0  0  0  0  0  0  0  0
    5.1825   -4.7519    1.8303 H   0  0  0  0  0  0  0  0  0  0  0  0
    3.4315   -3.6137    1.2547 C   0  0  0  0  0  0  0  0  0  0  0  0
    3.9624   -3.0610    0.4665 H   0  0  0  0  0  0  0  0  0  0  0  0
  1 25  1  0  0  0  0
  1 19  1  0  0  0  0
  3  9  1  0  0  0  0
  4 16  1  0  0  0  0
  5 11  1  0  0  0  0
  6 16  1  0  0  0  0
  7 13  1  0  0  0  0
  8 16  1  0  0  0  0
  9 19  1  0  0  0  0
 10  4  1  0  0  0  0
 11 21  1  0  0  0  0
 12  6  1  0  0  0  0
 13 23  1  0  0  0  0
 14  8  1  0  0  0  0
 15 17  1  6  0  0  0
 15  7  1  0  0  0  0
 15  3  1  0  0  0  0
 15  5  1  0  0  0  0
 16 18  1  1  0  0  0
 19 20  2  0  0  0  0
 20 10  1  0  0  0  0
 20  2  1  0  0  0  0
 21 35  1  6  0  0  0
 21 22  1  0  0  0  0
 22 12  1  0  0  0  0
 22 46  1  1  0  0  0
 23 57  1  6  0  0  0
 23 24  1  0  0  0  0
 24 14  1  0  0  0  0
 24 68  1  1  0  0  0
 25 34  1  0  0  0  0
 26 25  2  0  0  0  0
 26 28  1  0  0  0  0
 27 26  1  0  0  0  0
 28 30  2  0  0  0  0
 29 28  1  0  0  0  0
 30 31  1  0  0  0  0
 30 32  1  0  0  0  0
 32 33  1  0  0  0  0
 34 32  2  0  0  0  0
 34  2  1  0  0  0  0
 35 36  1  0  0  0  0
 36 37  1  0  0  0  0
 38 39  1  0  0  0  0
 38 36  2  0  0  0  0
 40 38  1  0  0  0  0
 41 40  1  0  0  0  0
 42 40  2  0  0  0  0
 42 44  1  0  0  0  0
 43 42  1  0  0  0  0
 44 35  2  0  0  0  0
 45 44  1  0  0  0  0
 46 55  1  0  0  0  0
 47 46  2  0  0  0  0
 47 49  1  0  0  0  0
 48 47  1  0  0  0  0
 49 51  2  0  0  0  0
 50 49  1  0  0  0  0
 51 53  1  0  0  0  0
 51 52  1  0  0  0  0
 53 54  1  0  0  0  0
 55 56  1  0  0  0  0
 55 53  2  0  0  0  0
 57 66  1  0  0  0  0
 58 57  2  0  0  0  0
 59 58  1  0  0  0  0
 60 62  2  0  0  0  0
 60 58  1  0  0  0  0
 61 60  1  0  0  0  0
 62 64  1  0  0  0  0
 63 62  1  0  0  0  0
 64 65  1  0  0  0  0
 64 66  2  0  0  0  0
 66 67  1  0  0  0  0
 68 69  1  0  0  0  0
 69 70  1  0  0  0  0
 69 71  2  0  0  0  0
 71 72  1  0  0  0  0
 73 71  1  0  0  0  0
 73 74  1  0  0  0  0
 75 73  2  0  0  0  0
 76 75  1  0  0  0  0
 77 68  2  0  0  0  0
 77 75  1  0  0  0  0
 78 77  1  0  0  0  0
M  END
