1,2,3,4,5,7
 OpenBabel05122313063D

 50 54  0  0  0  0  0  0  0  0999 V2000
    2.5831   -0.9585    0.1671 N   0  0  0  0  0  2  0  0  0  0  0  0
   -0.3766    2.4824    0.8892 N   0  0  0  0  0  2  0  0  0  0  0  0
    2.1673    1.6972    0.1038 N   0  0  0  0  0  2  0  0  0  0  0  0
   -2.5830    0.9585    0.1670 N   0  0  0  0  0  2  0  0  0  0  0  0
   -2.1672   -1.6972    0.1043 N   0  0  0  0  0  2  0  0  0  0  0  0
    3.6384   -0.1687   -0.2913 C   0  0  0  0  0  0  0  0  0  0  0  0
    0.3767   -2.4822    0.8897 N   0  0  0  0  0  2  0  0  0  0  0  0
    5.8538    0.1672   -1.2496 C   0  0  0  0  0  0  0  0  0  0  0  0
    6.7902   -0.2527   -1.6455 H   0  0  0  0  0  0  0  0  0  0  0  0
    3.4192    1.2435   -0.3194 C   0  0  0  0  0  0  0  0  0  0  0  0
    4.8602   -0.6900   -0.7632 C   0  0  0  0  0  0  0  0  0  0  0  0
    5.0001   -1.7800   -0.8005 H   0  0  0  0  0  0  0  0  0  0  0  0
   -0.5367   -4.5194    1.8096 C   0  0  0  0  0  0  0  0  0  0  0  0
   -1.4248   -5.1310    2.0263 H   0  0  0  0  0  0  0  0  0  0  0  0
    1.8435   -4.1476    1.8397 C   0  0  0  0  0  0  0  0  0  0  0  0
    2.8699   -4.4606    2.0810 H   0  0  0  0  0  0  0  0  0  0  0  0
   -0.7463    4.9566    2.1567 C   0  0  0  0  0  0  0  0  0  0  0  0
   -0.8908    5.9221    2.6633 H   0  0  0  0  0  0  0  0  0  0  0  0
   -2.7575    2.0650    0.8057 C   0  0  0  0  0  0  0  0  0  0  0  0
   -3.7679    2.4253    1.0981 H   0  0  0  0  0  0  0  0  0  0  0  0
   -3.4191   -1.2436   -0.3189 C   0  0  0  0  0  0  0  0  0  0  0  0
   -3.6384    0.1686   -0.2911 C   0  0  0  0  0  0  0  0  0  0  0  0
   -2.0146   -2.7965    0.7615 C   0  0  0  0  0  0  0  0  0  0  0  0
   -2.8809   -3.4202    1.0724 H   0  0  0  0  0  0  0  0  0  0  0  0
    2.7576   -2.0648    0.8060 C   0  0  0  0  0  3  0  0  0  0  0  0
    3.7680   -2.4250    1.0984 H   0  0  0  0  0  0  0  0  0  0  0  0
    2.0148    2.7966    0.7610 C   0  0  0  0  0  3  0  0  0  0  0  0
    2.8811    3.4202    1.0718 H   0  0  0  0  0  0  0  0  0  0  0  0
   -0.6809   -3.2699    1.1649 C   0  0  0  0  0  0  0  0  0  0  0  0
   -1.6179    2.9110    1.1928 C   0  0  0  0  0  0  0  0  0  0  0  0
   -5.8539   -0.1676   -1.2491 C   0  0  0  0  0  0  0  0  0  0  0  0
   -6.7904    0.2522   -1.6449 H   0  0  0  0  0  0  0  0  0  0  0  0
   -4.4340   -2.0927   -0.8037 C   0  0  0  0  0  0  0  0  0  0  0  0
   -4.2436   -3.1739   -0.8689 H   0  0  0  0  0  0  0  0  0  0  0  0
    0.7466   -4.9562    2.1576 C   0  0  0  0  0  0  0  0  0  0  0  0
    0.8911   -5.9216    2.6644 H   0  0  0  0  0  0  0  0  0  0  0  0
    0.6811    3.2701    1.1643 C   0  0  0  0  0  0  0  0  0  0  0  0
    4.4341    2.0925   -0.8044 C   0  0  0  0  0  0  0  0  0  0  0  0
    4.2438    3.1736   -0.8697 H   0  0  0  0  0  0  0  0  0  0  0  0
    1.6181   -2.9107    1.1934 C   0  0  0  0  0  0  0  0  0  0  0  0
   -4.8603    0.6898   -0.7629 C   0  0  0  0  0  0  0  0  0  0  0  0
   -5.0002    1.7797   -0.8004 H   0  0  0  0  0  0  0  0  0  0  0  0
   -5.6422   -1.5577   -1.2668 C   0  0  0  0  0  0  0  0  0  0  0  0
   -6.4141   -2.2274   -1.6741 H   0  0  0  0  0  0  0  0  0  0  0  0
   -1.8433    4.1479    1.8389 C   0  0  0  0  0  0  0  0  0  0  0  0
   -2.8696    4.4611    2.0801 H   0  0  0  0  0  0  0  0  0  0  0  0
    5.6422    1.5574   -1.2675 C   0  0  0  0  0  0  0  0  0  0  0  0
    6.4140    2.2269   -1.6751 H   0  0  0  0  0  0  0  0  0  0  0  0
    0.5370    4.5197    1.8088 C   0  0  0  0  0  0  0  0  0  0  0  0
    1.4250    5.1313    2.0254 H   0  0  0  0  0  0  0  0  0  0  0  0
  1 25  1  0  0  0  0
  2 37  1  0  0  0  0
  2 30  1  0  0  0  0
  3 27  1  0  0  0  0
  4 19  1  0  0  0  0
  5 23  1  0  0  0  0
  6  1  1  0  0  0  0
  7 29  1  0  0  0  0
  7 40  1  0  0  0  0
  8 11  1  0  0  0  0
  9  8  1  0  0  0  0
 10  6  1  0  0  0  0
 10  3  1  0  0  0  0
 11  6  2  0  0  0  0
 12 11  1  0  0  0  0
 13 14  1  0  0  0  0
 13 35  2  0  0  0  0
 15 16  1  0  0  0  0
 15 35  1  0  0  0  0
 17 18  1  0  0  0  0
 19 20  1  0  0  0  0
 19 30  2  0  0  0  0
 21 22  1  0  0  0  0
 21  5  1  0  0  0  0
 22  4  1  0  0  0  0
 23 24  1  0  0  0  0
 23 29  2  0  0  0  0
 25 26  1  0  0  0  0
 25 40  1  0  0  0  0
 27 28  1  0  0  0  0
 27 37  1  0  0  0  0
 29 13  1  0  0  0  0
 30 45  1  0  0  0  0
 31 41  1  0  0  0  0
 32 31  1  0  0  0  0
 33 21  2  0  0  0  0
 34 33  1  0  0  0  0
 35 36  1  0  0  0  0
 37 49  2  0  0  0  0
 38 10  2  0  0  0  0
 39 38  1  0  0  0  0
 40 15  2  0  0  0  0
 41 22  2  0  0  0  0
 42 41  1  0  0  0  0
 43 31  2  0  0  0  0
 43 33  1  0  0  0  0
 44 43  1  0  0  0  0
 45 46  1  0  0  0  0
 45 17  2  0  0  0  0
 47  8  2  0  0  0  0
 47 38  1  0  0  0  0
 48 47  1  0  0  0  0
 49 50  1  0  0  0  0
 49 17  1  0  0  0  0
M  END
