5,6,8,9,11,12
 OpenBabel05122313063D

 66 69  0  0  0  0  0  0  0  0999 V2000
    2.3864   -0.0010    0.0432 B   0  0  1  0  0  0  0  0  0  0  0  0
    1.9052   -1.2279    0.7710 O   0  0  0  0  0  0  0  0  0  0  0  0
    1.9249   -0.0230   -1.3966 O   0  0  0  0  0  0  0  0  0  0  0  0
    1.9058    1.2490    0.7315 O   0  0  0  0  0  0  0  0  0  0  0  0
    0.5835   -1.3470    0.9291 N   0  0  0  0  0  2  0  0  0  0  0  0
   -2.0401   -1.3539    1.2091 N   0  0  0  0  0  2  0  0  0  0  0  0
   -2.1334   -3.1755    2.4823 N   0  0  0  0  0  0  0  0  0  0  0  0
    0.6077   -0.1220   -1.6102 N   0  0  0  0  0  2  0  0  0  0  0  0
   -2.0106   -0.3827   -1.8172 N   0  0  0  0  0  2  0  0  0  0  0  0
   -2.0487   -0.5837   -4.0323 N   0  0  0  0  0  0  0  0  0  0  0  0
    0.5870    1.4668    0.7198 N   0  0  0  0  0  2  0  0  0  0  0  0
   -2.0318    1.7407    0.5473 N   0  0  0  0  0  2  0  0  0  0  0  0
   -2.1156    3.7585    1.4798 N   0  0  0  0  0  0  0  0  0  0  0  0
    1.0751   -3.2765    2.3923 C   0  0  0  0  0  0  0  0  0  0  0  0
    2.1121   -2.9110    2.2851 H   0  0  0  0  0  0  0  0  0  0  0  0
    1.0239   -4.2920    1.9475 H   0  0  0  0  0  0  0  0  0  0  0  0
    0.8391   -3.3665    3.4698 H   0  0  0  0  0  0  0  0  0  0  0  0
    0.1560   -2.3195    1.6965 C   0  0  0  0  0  0  0  0  0  0  0  0
   -1.3062   -2.3124    1.8035 C   0  0  0  0  0  0  0  0  0  0  0  0
   -3.3519   -1.5951    1.5156 C   0  0  0  0  0  0  0  0  0  0  0  0
   -4.1641   -0.9478    1.1681 H   0  0  0  0  0  0  0  0  0  0  0  0
   -3.4319   -2.7258    2.3078 C   0  0  0  0  0  0  0  0  0  0  0  0
   -4.2835   -3.2458    2.7576 H   0  0  0  0  0  0  0  0  0  0  0  0
   -1.7779   -4.3565    3.2620 C   0  0  0  0  0  0  0  0  0  0  0  0
   -1.2618   -4.0771    4.2006 H   0  0  0  0  0  0  0  0  0  0  0  0
   -1.1295   -5.0332    2.6770 H   0  0  0  0  0  0  0  0  0  0  0  0
   -2.7056   -4.8977    3.5188 H   0  0  0  0  0  0  0  0  0  0  0  0
    1.1500   -0.3398   -4.0120 C   0  0  0  0  0  0  0  0  0  0  0  0
    2.1855   -0.2879   -3.6315 H   0  0  0  0  0  0  0  0  0  0  0  0
    0.9946    0.5053   -4.7128 H   0  0  0  0  0  0  0  0  0  0  0  0
    1.0315   -1.2800   -4.5860 H   0  0  0  0  0  0  0  0  0  0  0  0
    0.2082   -0.2755   -2.8487 C   0  0  0  0  0  0  0  0  0  0  0  0
   -1.2506   -0.4035   -2.9276 C   0  0  0  0  0  0  0  0  0  0  0  0
   -3.3103   -0.5585   -2.2090 C   0  0  0  0  0  0  0  0  0  0  0  0
   -4.1387   -0.5982   -1.4937 H   0  0  0  0  0  0  0  0  0  0  0  0
   -3.3559   -0.6848   -3.5853 C   0  0  0  0  0  0  0  0  0  0  0  0
   -4.1885   -0.8367   -4.2792 H   0  0  0  0  0  0  0  0  0  0  0  0
   -1.6575   -0.6688   -5.4356 C   0  0  0  0  0  0  0  0  0  0  0  0
   -1.0947    0.2310   -5.7443 H   0  0  0  0  0  0  0  0  0  0  0  0
   -2.5728   -0.7367   -6.0493 H   0  0  0  0  0  0  0  0  0  0  0  0
   -1.0401   -1.5672   -5.6241 H   0  0  0  0  0  0  0  0  0  0  0  0
    1.0706    3.6204    1.8325 C   0  0  0  0  0  0  0  0  0  0  0  0
    2.0949    3.2087    1.8648 H   0  0  0  0  0  0  0  0  0  0  0  0
    0.7656    3.8910    2.8621 H   0  0  0  0  0  0  0  0  0  0  0  0
    1.0920    4.5519    1.2305 H   0  0  0  0  0  0  0  0  0  0  0  0
    0.1588    2.5939    1.2328 C   0  0  0  0  0  0  0  0  0  0  0  0
   -1.2976    2.7162    1.1130 C   0  0  0  0  0  0  0  0  0  0  0  0
   -3.3350    2.1589    0.5461 C   0  0  0  0  0  0  0  0  0  0  0  0
   -4.1446    1.5545    0.1235 H   0  0  0  0  0  0  0  0  0  0  0  0
   -3.4090    3.4130    1.1241 C   0  0  0  0  0  0  0  0  0  0  0  0
   -4.2529    4.0848    1.3094 H   0  0  0  0  0  0  0  0  0  0  0  0
   -1.7551    5.0188    2.1208 C   0  0  0  0  0  0  0  0  0  0  0  0
   -1.3352    4.8465    3.1295 H   0  0  0  0  0  0  0  0  0  0  0  0
   -2.6674    5.6325    2.2211 H   0  0  0  0  0  0  0  0  0  0  0  0
   -1.0218    5.5783    1.5114 H   0  0  0  0  0  0  0  0  0  0  0  0
    3.9811   -0.0010    0.0452 C   0  0  0  0  0  0  0  0  0  0  0  0
    4.7125   -1.2079    0.0893 C   0  0  0  0  0  0  0  0  0  0  0  0
    4.1704   -2.1646    0.1552 H   0  0  0  0  0  0  0  0  0  0  0  0
    6.1155   -1.2122    0.0539 C   0  0  0  0  0  0  0  0  0  0  0  0
    6.6652   -2.1656    0.0913 H   0  0  0  0  0  0  0  0  0  0  0  0
    6.8191    0.0000   -0.0281 C   0  0  0  0  0  0  0  0  0  0  0  0
    7.9196    0.0005   -0.0546 H   0  0  0  0  0  0  0  0  0  0  0  0
    6.1114    1.2118   -0.0755 C   0  0  0  0  0  0  0  0  0  0  0  0
    6.6578    2.1656   -0.1400 H   0  0  0  0  0  0  0  0  0  0  0  0
    4.7085    1.2062   -0.0397 C   0  0  0  0  0  0  0  0  0  0  0  0
    4.1630    2.1627   -0.0758 H   0  0  0  0  0  0  0  0  0  0  0  0
  1  3  1  6  0  0  0
  1 56  1  0  0  0  0
  1  4  1  0  0  0  0
  1  2  1  0  0  0  0
  2  5  1  0  0  0  0
  5 18  1  0  0  0  0
  6 20  1  0  0  0  0
  6 19  1  0  0  0  0
  7 24  1  0  0  0  0
  8  3  1  0  0  0  0
 10 36  1  0  0  0  0
 10 33  1  0  0  0  0
 11  4  1  0  0  0  0
 11 46  1  0  0  0  0
 12 47  1  0  0  0  0
 13 52  1  0  0  0  0
 14 17  1  0  0  0  0
 15 14  1  0  0  0  0
 16 14  1  0  0  0  0
 18 19  2  0  0  0  0
 18 14  1  0  0  0  0
 19  7  1  0  0  0  0
 20 22  2  0  0  0  0
 21 20  1  0  0  0  0
 22  7  1  0  0  0  0
 22 23  1  0  0  0  0
 24 27  1  0  0  0  0
 24 25  1  0  0  0  0
 26 24  1  0  0  0  0
 28 29  1  0  0  0  0
 28 32  1  0  0  0  0
 30 28  1  0  0  0  0
 31 28  1  0  0  0  0
 32  8  1  0  0  0  0
 33 32  2  0  0  0  0
 33  9  1  0  0  0  0
 34  9  1  0  0  0  0
 34 35  1  0  0  0  0
 36 34  2  0  0  0  0
 37 36  1  0  0  0  0
 38 10  1  0  0  0  0
 39 38  1  0  0  0  0
 40 38  1  0  0  0  0
 41 38  1  0  0  0  0
 42 43  1  0  0  0  0
 42 44  1  0  0  0  0
 45 42  1  0  0  0  0
 46 42  1  0  0  0  0
 47 46  2  0  0  0  0
 47 13  1  0  0  0  0
 48 12  1  0  0  0  0
 48 50  2  0  0  0  0
 49 48  1  0  0  0  0
 50 51  1  0  0  0  0
 50 13  1  0  0  0  0
 52 54  1  0  0  0  0
 52 53  1  0  0  0  0
 55 52  1  0  0  0  0
 56 57  1  0  0  0  0
 57 58  1  0  0  0  0
 59 57  2  0  0  0  0
 59 60  1  0  0  0  0
 61 59  1  0  0  0  0
 62 61  1  0  0  0  0
 63 65  1  0  0  0  0
 63 61  2  0  0  0  0
 64 63  1  0  0  0  0
 65 56  2  0  0  0  0
 66 65  1  0  0  0  0
M  END
