7,8,9,10,11,12
 OpenBabel05122313063D

 56 59  0  0  0  0  0  0  0  0999 V2000
   -2.5117   -0.9847    1.1296 O   0  0  0  0  0  0  0  0  0  0  0  0
    2.5764   -0.4322    1.2873 O   0  0  0  0  0  0  0  0  0  0  0  0
   -2.5316    1.3280    0.3448 O   0  0  0  0  0  0  0  0  0  0  0  0
    2.5315    1.3068   -0.4190 O   0  0  0  0  0  0  0  0  0  0  0  0
   -2.5764   -0.5026   -1.2629 O   0  0  0  0  0  0  0  0  0  0  0  0
    2.5119   -1.0453   -1.0753 O   0  0  0  0  0  0  0  0  0  0  0  0
   -1.1779   -0.9505    1.2313 N   0  0  0  0  0  2  0  0  0  0  0  0
    1.2474   -0.5648    1.3729 N   0  0  0  0  0  2  0  0  0  0  0  0
   -1.2039    1.4321    0.2093 N   0  0  0  0  0  2  0  0  0  0  0  0
    1.2037    1.4183   -0.2900 N   0  0  0  0  0  2  0  0  0  0  0  0
   -1.2474   -0.6398   -1.3414 N   0  0  0  0  0  2  0  0  0  0  0  0
    1.1781   -1.0164   -1.1792 N   0  0  0  0  0  2  0  0  0  0  0  0
   -3.0650   -0.0569    0.0920 B   0  0  1  0  0  0  0  0  0  0  0  0
    3.0651   -0.0625   -0.0899 B   0  0  2  0  0  0  0  0  0  0  0  0
   -0.6379   -1.4253    2.3455 C   0  0  0  0  0  0  0  0  0  0  0  0
   -1.2670   -1.8733    3.1276 H   0  0  0  0  0  0  0  0  0  0  0  0
    0.7664   -1.2501    2.4017 C   0  0  0  0  0  0  0  0  0  0  0  0
    1.4394   -1.6450    3.1757 H   0  0  0  0  0  0  0  0  0  0  0  0
   -0.6984    2.6469    0.0441 C   0  0  0  0  0  0  0  0  0  0  0  0
   -1.3486    3.5327    0.0697 H   0  0  0  0  0  0  0  0  0  0  0  0
    0.6982    2.6404   -0.1925 C   0  0  0  0  0  0  0  0  0  0  0  0
    1.3484    3.5234   -0.2671 H   0  0  0  0  0  0  0  0  0  0  0  0
   -0.7662   -1.3803   -2.3311 C   0  0  0  0  0  0  0  0  0  0  0  0
   -1.4392   -1.8172   -3.0823 H   0  0  0  0  0  0  0  0  0  0  0  0
    0.6381   -1.5519   -2.2655 C   0  0  0  0  0  0  0  0  0  0  0  0
    1.2671   -2.0424   -3.0217 H   0  0  0  0  0  0  0  0  0  0  0  0
   -4.6522   -0.0478    0.1232 C   0  0  0  0  0  0  0  0  0  0  0  0
   -5.3937   -0.9153    0.9502 C   0  0  0  0  0  0  0  0  0  0  0  0
   -4.8610   -1.6186    1.6086 H   0  0  0  0  0  0  0  0  0  0  0  0
   -6.7944   -0.8962    0.9499 C   0  0  0  0  0  0  0  0  0  0  0  0
   -7.3530   -1.5839    1.6055 H   0  0  0  0  0  0  0  0  0  0  0  0
   -7.5163   -0.0068    0.1212 C   0  0  0  0  0  0  0  0  0  0  0  0
   -6.7725    0.8666   -0.7088 C   0  0  0  0  0  0  0  0  0  0  0  0
   -7.2994    1.5750   -1.3661 H   0  0  0  0  0  0  0  0  0  0  0  0
   -5.3756    0.8427   -0.7039 C   0  0  0  0  0  0  0  0  0  0  0  0
   -4.8256    1.5369   -1.3593 H   0  0  0  0  0  0  0  0  0  0  0  0
   -8.9865   -0.0262    0.1569 C   0  0  0  0  0  0  0  0  0  0  0  0
   -9.4172   -0.7592    0.8626 H   0  0  0  0  0  0  0  0  0  0  0  0
   -9.8379    0.7357   -0.5631 C   0  0  0  0  0  0  0  0  0  0  0  0
   -9.4880    1.4879   -1.2880 H   0  0  0  0  0  0  0  0  0  0  0  0
  -10.9269    0.6292   -0.4487 H   0  0  0  0  0  0  0  0  0  0  0  0
    4.6523   -0.0548   -0.1204 C   0  0  0  0  0  0  0  0  0  0  0  0
    5.3942   -0.9100   -0.9597 C   0  0  0  0  0  0  0  0  0  0  0  0
    4.8618   -1.6068   -1.6252 H   0  0  0  0  0  0  0  0  0  0  0  0
    6.7949   -0.8876   -0.9617 C   0  0  0  0  0  0  0  0  0  0  0  0
    7.3539   -1.5659   -1.6268 H   0  0  0  0  0  0  0  0  0  0  0  0
    7.5163   -0.0067   -0.1236 C   0  0  0  0  0  0  0  0  0  0  0  0
    6.7721    0.8534    0.7197 C   0  0  0  0  0  0  0  0  0  0  0  0
    7.2985    1.5531    1.3866 H   0  0  0  0  0  0  0  0  0  0  0  0
    5.3752    0.8262    0.7173 C   0  0  0  0  0  0  0  0  0  0  0  0
    4.8250    1.5085    1.3848 H   0  0  0  0  0  0  0  0  0  0  0  0
    8.9864   -0.0212   -0.1632 C   0  0  0  0  0  0  0  0  0  0  0  0
    9.4176   -0.7526   -0.8703 H   0  0  0  0  0  0  0  0  0  0  0  0
    9.8372    0.7443    0.5537 C   0  0  0  0  0  0  0  0  0  0  0  0
    9.4867    1.4964    1.2783 H   0  0  0  0  0  0  0  0  0  0  0  0
   10.9262    0.6414    0.4363 H   0  0  0  0  0  0  0  0  0  0  0  0
  1  7  1  0  0  0  0
  2  8  1  0  0  0  0
  4 10  1  0  0  0  0
  4 14  1  0  0  0  0
  5 13  1  0  0  0  0
  6 14  1  0  0  0  0
  7 15  1  0  0  0  0
  8 17  1  0  0  0  0
  9  3  1  0  0  0  0
 10 21  1  0  0  0  0
 11  5  1  0  0  0  0
 12  6  1  0  0  0  0
 13 27  1  1  0  0  0
 13  3  1  0  0  0  0
 13  1  1  0  0  0  0
 14 42  1  6  0  0  0
 14  2  1  0  0  0  0
 15 17  2  0  0  0  0
 15 16  1  0  0  0  0
 17 18  1  0  0  0  0
 19 20  1  0  0  0  0
 19  9  1  0  0  0  0
 21 19  2  0  0  0  0
 22 21  1  0  0  0  0
 23 25  2  0  0  0  0
 23 11  1  0  0  0  0
 24 23  1  0  0  0  0
 25 12  1  0  0  0  0
 26 25  1  0  0  0  0
 27 28  1  0  0  0  0
 28 29  1  0  0  0  0
 30 28  2  0  0  0  0
 30 31  1  0  0  0  0
 32 37  1  0  0  0  0
 32 30  1  0  0  0  0
 33 35  1  0  0  0  0
 33 32  2  0  0  0  0
 34 33  1  0  0  0  0
 35 27  2  0  0  0  0
 36 35  1  0  0  0  0
 37 38  1  0  0  0  0
 39 41  1  0  0  0  0
 39 37  2  0  0  0  0
 40 39  1  0  0  0  0
 42 50  1  0  0  0  0
 43 42  2  0  0  0  0
 44 43  1  0  0  0  0
 45 43  1  0  0  0  0
 45 47  2  0  0  0  0
 46 45  1  0  0  0  0
 47 48  1  0  0  0  0
 48 49  1  0  0  0  0
 50 48  2  0  0  0  0
 50 51  1  0  0  0  0
 52 47  1  0  0  0  0
 52 54  2  0  0  0  0
 53 52  1  0  0  0  0
 54 55  1  0  0  0  0
 56 54  1  0  0  0  0
M  END
