1,2,3,4,5,6
 OpenBabel05122313063D

 60 63  0  0  1  0  0  0  0  0999 V2000
   -0.4751   -1.4403   -1.8631 N   0  0  0  0  0  0  0  0  0  0  0  0
    0.4749    1.4407   -1.8630 N   0  0  0  0  0  0  0  0  0  0  0  0
    2.2342    1.5873    0.3724 N   0  0  0  0  0  2  0  0  0  0  0  0
   -2.0164    1.5873   -0.5410 N   0  0  0  0  0  2  0  0  0  0  0  0
    2.0165   -1.5875   -0.5417 N   0  0  0  0  0  2  0  0  0  0  0  0
   -2.2337   -1.5876    0.3725 N   0  0  0  0  0  2  0  0  0  0  0  0
    0.1215   -0.7523   -3.0273 C   0  0  0  0  0  0  0  0  0  0  0  0
   -0.1217    0.7528   -3.0272 C   0  0  0  0  0  0  0  0  0  0  0  0
    1.9295    1.6052   -2.0449 C   0  0  0  0  0  0  0  0  0  0  0  0
    2.6309    2.1154   -0.8066 C   0  0  2  0  0  3  0  0  0  0  0  0
    3.6639    3.0630   -0.8863 C   0  0  0  0  0  0  0  0  0  0  0  0
    4.3094    3.4636    0.2926 C   0  0  0  0  0  0  0  0  0  0  0  0
    3.8931    2.9154    1.5131 C   0  0  0  0  0  0  0  0  0  0  0  0
    2.8457    1.9845    1.5070 C   0  0  0  0  0  0  0  0  0  0  0  0
   -0.1629    2.7525   -1.6357 C   0  0  0  0  0  0  0  0  0  0  0  0
   -1.6299    2.6509   -1.2832 C   0  0  2  0  0  3  0  0  0  0  0  0
   -2.5334    3.6557   -1.6661 C   0  0  0  0  0  0  0  0  0  0  0  0
   -3.8675    3.5700   -1.2455 C   0  0  0  0  0  0  0  0  0  0  0  0
   -4.2618    2.4743   -0.4659 C   0  0  0  0  0  0  0  0  0  0  0  0
   -3.3033    1.5062   -0.1428 C   0  0  0  0  0  0  0  0  0  0  0  0
    0.1625   -2.7523   -1.6361 C   0  0  0  0  0  0  0  0  0  0  0  0
    1.6295   -2.6510   -1.2838 C   0  0  2  0  0  3  0  0  0  0  0  0
    2.5328   -3.6562   -1.6667 C   0  0  0  0  0  0  0  0  0  0  0  0
    3.8669   -3.5708   -1.2464 C   0  0  0  0  0  0  0  0  0  0  0  0
    4.2617   -2.4751   -0.4670 C   0  0  0  0  0  0  0  0  0  0  0  0
    3.3035   -1.5067   -0.1438 C   0  0  0  0  0  0  0  0  0  0  0  0
   -1.9298   -1.6045   -2.0448 C   0  0  0  0  0  0  0  0  0  0  0  0
   -2.6312   -2.1147   -0.8066 C   0  0  2  0  0  3  0  0  0  0  0  0
   -3.6651   -3.0614   -0.8864 C   0  0  0  0  0  0  0  0  0  0  0  0
   -4.3105   -3.4620    0.2925 C   0  0  0  0  0  0  0  0  0  0  0  0
   -3.8933   -2.9148    1.5131 C   0  0  0  0  0  0  0  0  0  0  0  0
   -2.8451   -1.9848    1.5071 C   0  0  0  0  0  0  0  0  0  0  0  0
    1.2093   -0.9584   -3.0216 H   0  0  0  0  0  0  0  0  0  0  0  0
   -0.2661   -1.1802   -3.9829 H   0  0  0  0  0  0  0  0  0  0  0  0
   -1.2095    0.9590   -3.0216 H   0  0  0  0  0  0  0  0  0  0  0  0
    0.2659    1.1807   -3.9829 H   0  0  0  0  0  0  0  0  0  0  0  0
    2.1500    2.2797   -2.9067 H   0  0  0  0  0  0  0  0  0  0  0  0
    2.3565    0.6125   -2.2993 H   0  0  0  0  0  0  0  0  0  0  0  0
    3.9541    3.4826   -1.8608 H   0  0  0  0  0  0  0  0  0  0  0  0
    5.1221    4.2046    0.2574 H   0  0  0  0  0  0  0  0  0  0  0  0
    4.3630    3.2058    2.4632 H   0  0  0  0  0  0  0  0  0  0  0  0
    2.4810    1.5297    2.4409 H   0  0  0  0  0  0  0  0  0  0  0  0
    0.3558    3.2400   -0.7811 H   0  0  0  0  0  0  0  0  0  0  0  0
   -0.0330    3.4248   -2.5173 H   0  0  0  0  0  0  0  0  0  0  0  0
   -2.1881    4.5007   -2.2797 H   0  0  0  0  0  0  0  0  0  0  0  0
   -4.5902    4.3513   -1.5243 H   0  0  0  0  0  0  0  0  0  0  0  0
   -5.2947    2.3672   -0.1063 H   0  0  0  0  0  0  0  0  0  0  0  0
   -3.5626    0.6343    0.4764 H   0  0  0  0  0  0  0  0  0  0  0  0
   -0.3562   -3.2399   -0.7816 H   0  0  0  0  0  0  0  0  0  0  0  0
    0.0324   -3.4243   -2.5179 H   0  0  0  0  0  0  0  0  0  0  0  0
    2.1871   -4.5011   -2.2801 H   0  0  0  0  0  0  0  0  0  0  0  0
    4.5893   -4.3523   -1.5253 H   0  0  0  0  0  0  0  0  0  0  0  0
    5.2947   -2.3681   -0.1077 H   0  0  0  0  0  0  0  0  0  0  0  0
    3.5631   -0.6348    0.4752 H   0  0  0  0  0  0  0  0  0  0  0  0
   -2.3565   -0.6117   -2.2991 H   0  0  0  0  0  0  0  0  0  0  0  0
   -2.1504   -2.2789   -2.9067 H   0  0  0  0  0  0  0  0  0  0  0  0
   -3.9559   -3.4802   -1.8610 H   0  0  0  0  0  0  0  0  0  0  0  0
   -5.1239   -4.2022    0.2571 H   0  0  0  0  0  0  0  0  0  0  0  0
   -4.3632   -3.2053    2.4632 H   0  0  0  0  0  0  0  0  0  0  0  0
   -2.4797   -1.5309    2.4412 H   0  0  0  0  0  0  0  0  0  0  0  0
  1 21  1  0  0  0  0
  2 15  1  0  0  0  0
  3 14  1  0  0  0  0
  4 20  1  0  0  0  0
  5 26  1  0  0  0  0
  6 32  1  0  0  0  0
  7  8  1  0  0  0  0
  7 33  1  0  0  0  0
  7  1  1  0  0  0  0
  8 35  1  0  0  0  0
  8  2  1  0  0  0  0
  9  2  1  0  0  0  0
 10  9  1  6  0  0  0
 10  3  1  0  0  0  0
 11 10  1  0  0  0  0
 11 12  2  0  0  0  0
 12 13  1  0  0  0  0
 13 41  1  0  0  0  0
 14 13  2  0  0  0  0
 14 42  1  0  0  0  0
 15 43  1  0  0  0  0
 16 15  1  1  0  0  0
 16  4  1  0  0  0  0
 17 16  1  0  0  0  0
 17 18  2  0  0  0  0
 18 19  1  0  0  0  0
 19 20  2  0  0  0  0
 19 47  1  0  0  0  0
 20 48  1  0  0  0  0
 21 49  1  0  0  0  0
 22 21  1  1  0  0  0
 22  5  1  0  0  0  0
 23 22  1  0  0  0  0
 23 24  2  0  0  0  0
 24 25  1  0  0  0  0
 25 26  2  0  0  0  0
 25 53  1  0  0  0  0
 26 54  1  0  0  0  0
 27  1  1  0  0  0  0
 28 27  1  6  0  0  0
 28  6  1  0  0  0  0
 29 28  1  0  0  0  0
 29 30  2  0  0  0  0
 30 31  1  0  0  0  0
 31 59  1  0  0  0  0
 32 31  2  0  0  0  0
 32 60  1  0  0  0  0
 34  7  1  0  0  0  0
 36  8  1  0  0  0  0
 37  9  1  0  0  0  0
 38  9  1  0  0  0  0
 39 11  1  0  0  0  0
 40 12  1  0  0  0  0
 44 15  1  0  0  0  0
 45 17  1  0  0  0  0
 46 18  1  0  0  0  0
 50 21  1  0  0  0  0
 51 23  1  0  0  0  0
 52 24  1  0  0  0  0
 55 27  1  0  0  0  0
 56 27  1  0  0  0  0
 57 29  1  0  0  0  0
 58 30  1  0  0  0  0
M  END
