1,2,3,4,5,6
 OpenBabel05122313063D

 66 70  0  0  1  0  0  0  0  0999 V2000
    1.7671    0.0866    1.4945 N   0  0  0  0  0  0  0  0  0  0  0  0
    1.7646   -0.0683   -1.4977 N   0  0  0  0  0  0  0  0  0  0  0  0
    0.5023    2.4874    0.5854 N   0  0  0  0  0  2  0  0  0  0  0  0
   -0.5723   -1.4629    2.2556 N   0  0  0  0  0  2  0  0  0  0  0  0
   -0.5925    1.4573   -2.2535 N   0  0  0  0  0  2  0  0  0  0  0  0
    0.5278   -2.4822   -0.5853 N   0  0  0  0  0  2  0  0  0  0  0  0
    1.3784    4.9118    1.7050 N   0  0  0  0  0  0  0  0  0  0  0  0
   -0.4969   -2.7836    4.7200 N   0  0  0  0  0  0  0  0  0  0  0  0
   -0.5362    2.7782   -4.7183 N   0  0  0  0  0  0  0  0  0  0  0  0
    1.4273   -4.8973   -1.7065 N   0  0  0  0  0  0  0  0  0  0  0  0
    1.4732    1.1990    2.4303 C   0  0  0  0  0  0  0  0  0  0  0  0
    2.2781    1.3275    3.1903 H   0  0  0  0  0  0  0  0  0  0  0  0
    0.5456    0.9419    2.9920 H   0  0  0  0  0  0  0  0  0  0  0  0
    1.2233    2.5089    1.7300 C   0  0  2  0  0  3  0  0  0  0  0  0
    1.6607    3.7333    2.2720 C   0  0  0  0  0  0  0  0  0  0  0  0
    2.2606    3.7484    3.1993 H   0  0  0  0  0  0  0  0  0  0  0  0
    0.6500    4.8806    0.5800 C   0  0  0  0  0  0  0  0  0  0  0  0
    0.4006    5.8446    0.1051 H   0  0  0  0  0  0  0  0  0  0  0  0
    0.2156    3.6722    0.0138 C   0  0  0  0  0  0  0  0  0  0  0  0
   -0.3893    3.6577   -0.9055 H   0  0  0  0  0  0  0  0  0  0  0  0
    1.8786   -1.1819    2.2474 C   0  0  0  0  0  0  0  0  0  0  0  0
    2.2015   -1.9726    1.5367 H   0  0  0  0  0  0  0  0  0  0  0  0
    2.6607   -1.1267    3.0368 H   0  0  0  0  0  0  0  0  0  0  0  0
    0.5973   -1.6391    2.9057 C   0  0  2  0  0  3  0  0  0  0  0  0
    0.6112   -2.2884    4.1578 C   0  0  0  0  0  0  0  0  0  0  0  0
    1.5571   -2.4059    4.7162 H   0  0  0  0  0  0  0  0  0  0  0  0
   -1.6482   -2.6206    4.0512 C   0  0  0  0  0  0  0  0  0  0  0  0
   -2.5670   -3.0277    4.5055 H   0  0  0  0  0  0  0  0  0  0  0  0
   -1.6981   -1.9406    2.8232 C   0  0  0  0  0  0  0  0  0  0  0  0
   -2.6467   -1.7599    2.2911 H   0  0  0  0  0  0  0  0  0  0  0  0
    1.8611    1.2013   -2.2507 C   0  0  0  0  0  0  0  0  0  0  0  0
    2.6421    1.1544   -3.0417 H   0  0  0  0  0  0  0  0  0  0  0  0
    2.1771    1.9953   -1.5406 H   0  0  0  0  0  0  0  0  0  0  0  0
    0.5737    1.6452   -2.9063 C   0  0  2  0  0  3  0  0  0  0  0  0
    0.5781    2.2943   -4.1586 C   0  0  0  0  0  0  0  0  0  0  0  0
    1.5215    2.4212   -4.7193 H   0  0  0  0  0  0  0  0  0  0  0  0
   -1.6843    2.6037   -4.0467 C   0  0  0  0  0  0  0  0  0  0  0  0
   -2.6081    3.0015   -4.4989 H   0  0  0  0  0  0  0  0  0  0  0  0
   -1.7244    1.9235   -2.8185 C   0  0  0  0  0  0  0  0  0  0  0  0
   -2.6698    1.7336   -2.2839 H   0  0  0  0  0  0  0  0  0  0  0  0
    1.4801   -1.1838   -2.4328 C   0  0  0  0  0  0  0  0  0  0  0  0
    2.2842   -1.3037   -3.1950 H   0  0  0  0  0  0  0  0  0  0  0  0
    0.5481   -0.9367   -2.9918 H   0  0  0  0  0  0  0  0  0  0  0  0
    1.2461   -2.4962   -1.7317 C   0  0  2  0  0  3  0  0  0  0  0  0
    1.6954   -3.7159   -2.2745 C   0  0  0  0  0  0  0  0  0  0  0  0
    2.2932   -3.7248   -3.2032 H   0  0  0  0  0  0  0  0  0  0  0  0
    0.7013   -4.8737   -0.5798 C   0  0  0  0  0  0  0  0  0  0  0  0
    0.4635   -5.8402   -0.1041 H   0  0  0  0  0  0  0  0  0  0  0  0
    0.2552   -3.6700   -0.0128 C   0  0  0  0  0  0  0  0  0  0  0  0
   -0.3476   -3.6617    0.9079 H   0  0  0  0  0  0  0  0  0  0  0  0
    2.9963    0.3857    0.6745 C   0  0  2  0  0  0  0  0  0  0  0  0
    2.9422    1.4718    0.4511 H   0  0  0  0  0  0  0  0  0  0  0  0
    2.9986   -0.3546   -0.6805 C   0  0  2  0  0  0  0  0  0  0  0  0
    2.9564   -1.4411   -0.4569 H   0  0  0  0  0  0  0  0  0  0  0  0
    4.3068   -0.1019   -1.4603 C   0  0  0  0  0  0  0  0  0  0  0  0
    4.2998   -0.7009   -2.3944 H   0  0  0  0  0  0  0  0  0  0  0  0
    4.3536    0.9637   -1.7677 H   0  0  0  0  0  0  0  0  0  0  0  0
    5.5637   -0.3976   -0.6402 C   0  0  0  0  0  0  0  0  0  0  0  0
    5.6014   -1.4756   -0.3684 H   0  0  0  0  0  0  0  0  0  0  0  0
    6.4645   -0.1979   -1.2541 H   0  0  0  0  0  0  0  0  0  0  0  0
    5.5607    0.4551    0.6285 C   0  0  0  0  0  0  0  0  0  0  0  0
    5.5866    1.5335    0.3566 H   0  0  0  0  0  0  0  0  0  0  0  0
    6.4649    0.2648    1.2404 H   0  0  0  0  0  0  0  0  0  0  0  0
    4.3088    0.1464    1.4513 C   0  0  0  0  0  0  0  0  0  0  0  0
    4.3671   -0.9187    1.7584 H   0  0  0  0  0  0  0  0  0  0  0  0
    4.2977    0.7452    2.3856 H   0  0  0  0  0  0  0  0  0  0  0  0
  1 21  1  0  0  0  0
  1 11  1  0  0  0  0
  2 53  1  0  0  0  0
  3 14  1  0  0  0  0
  4 29  1  0  0  0  0
  4 24  1  0  0  0  0
  6 49  1  0  0  0  0
  7 15  2  0  0  0  0
  9 35  2  0  0  0  0
  9 37  1  0  0  0  0
 10 47  1  0  0  0  0
 11 13  1  0  0  0  0
 11 12  1  0  0  0  0
 14 15  1  0  0  0  0
 14 11  1  1  0  0  0
 15 16  1  0  0  0  0
 17  7  1  0  0  0  0
 18 17  1  0  0  0  0
 19 17  2  0  0  0  0
 19  3  1  0  0  0  0
 20 19  1  0  0  0  0
 21 23  1  0  0  0  0
 22 21  1  0  0  0  0
 24 21  1  6  0  0  0
 24 25  1  0  0  0  0
 25 26  1  0  0  0  0
 25  8  2  0  0  0  0
 27 28  1  0  0  0  0
 27  8  1  0  0  0  0
 29 27  2  0  0  0  0
 30 29  1  0  0  0  0
 31 33  1  0  0  0  0
 31  2  1  0  0  0  0
 32 31  1  0  0  0  0
 34  5  1  0  0  0  0
 34 31  1  1  0  0  0
 35 34  1  0  0  0  0
 36 35  1  0  0  0  0
 37 39  2  0  0  0  0
 38 37  1  0  0  0  0
 39 40  1  0  0  0  0
 39  5  1  0  0  0  0
 41  2  1  0  0  0  0
 42 41  1  0  0  0  0
 43 41  1  0  0  0  0
 44 41  1  6  0  0  0
 44  6  1  0  0  0  0
 45 44  1  0  0  0  0
 45 10  2  0  0  0  0
 46 45  1  0  0  0  0
 47 48  1  0  0  0  0
 47 49  2  0  0  0  0
 49 50  1  0  0  0  0
 51 52  1  6  0  0  0
 51 64  1  0  0  0  0
 51  1  1  0  0  0  0
 53 54  1  1  0  0  0
 53 51  1  0  0  0  0
 55 53  1  0  0  0  0
 55 58  1  0  0  0  0
 56 55  1  0  0  0  0
 57 55  1  0  0  0  0
 58 59  1  0  0  0  0
 58 61  1  0  0  0  0
 60 58  1  0  0  0  0
 61 63  1  0  0  0  0
 61 64  1  0  0  0  0
 62 61  1  0  0  0  0
 64 65  1  0  0  0  0
 64 66  1  0  0  0  0
M  END
