1,2,3,4,5,6
 OpenBabel05122313063D

 68 71  0  0  1  0  0  0  0  0999 V2000
    1.7873    1.5429   -0.8342 N   0  0  0  0  0  2  0  0  0  0  0  0
    2.4988   -0.5238    0.7915 N   0  0  0  0  0  2  0  0  0  0  0  0
    1.0910   -3.0241    0.3248 N   0  0  0  0  0  0  0  0  0  0  0  0
   -1.0035   -2.7151   -1.6770 N   0  0  0  0  0  0  0  0  0  0  0  0
   -2.5994   -0.7857   -0.2081 N   0  0  0  0  0  2  0  0  0  0  0  0
   -1.3296    1.4690    0.7098 N   0  0  0  0  0  2  0  0  0  0  0  0
    1.4463    2.5333   -1.6773 C   0  0  0  0  0  3  0  0  0  0  0  0
    0.4326    2.4744   -2.1051 H   0  0  0  0  0  0  0  0  0  0  0  0
    2.3179    3.5815   -2.0120 C   0  0  0  0  0  0  0  0  0  0  0  0
    1.9871    4.3638   -2.7096 H   0  0  0  0  0  0  0  0  0  0  0  0
    3.5960    3.5984   -1.4395 C   0  0  0  0  0  0  0  0  0  0  0  0
    4.3082    4.4038   -1.6734 H   0  0  0  0  0  0  0  0  0  0  0  0
    3.9622    2.5614   -0.5734 C   0  0  0  0  0  0  0  0  0  0  0  0
    4.9611    2.5238   -0.1188 H   0  0  0  0  0  0  0  0  0  0  0  0
    3.0356    1.5372   -0.2991 C   0  0  0  0  0  0  0  0  0  0  0  0
    3.3938    0.3896    0.5846 C   0  0  1  0  0  3  0  0  0  0  0  0
    4.7547    0.3733    1.2138 C   0  0  0  0  0  0  0  0  0  0  0  0
    4.9141    0.8784    2.5212 C   0  0  0  0  0  0  0  0  0  0  0  0
    4.0424    1.2834    3.0584 H   0  0  0  0  0  0  0  0  0  0  0  0
    6.1760    0.8622    3.1336 C   0  0  0  0  0  0  0  0  0  0  0  0
    6.2928    1.2584    4.1537 H   0  0  0  0  0  0  0  0  0  0  0  0
    7.2842    0.3402    2.4475 C   0  0  0  0  0  0  0  0  0  0  0  0
    8.2736    0.3265    2.9295 H   0  0  0  0  0  0  0  0  0  0  0  0
    7.1268   -0.1661    1.1474 C   0  0  0  0  0  0  0  0  0  0  0  0
    7.9923   -0.5794    0.6075 H   0  0  0  0  0  0  0  0  0  0  0  0
    5.8688   -0.1501    0.5259 C   0  0  0  0  0  0  0  0  0  0  0  0
    5.7251   -0.5400   -0.4956 H   0  0  0  0  0  0  0  0  0  0  0  0
    2.7900   -1.7188    1.5656 C   0  0  0  0  0  0  0  0  0  0  0  0
    2.1093   -1.7153    2.4453 H   0  0  0  0  0  0  0  0  0  0  0  0
    3.8380   -1.7572    1.9307 H   0  0  0  0  0  0  0  0  0  0  0  0
    2.4986   -2.9647    0.7185 C   0  0  0  0  0  0  0  0  0  0  0  0
    3.1146   -2.9285   -0.2045 H   0  0  0  0  0  0  0  0  0  0  0  0
    2.8174   -3.8675    1.2951 H   0  0  0  0  0  0  0  0  0  0  0  0
    0.7588   -4.0931   -0.6136 C   0  0  0  0  0  0  0  0  0  0  0  0
    0.9537   -5.1116   -0.1965 H   0  0  0  0  0  0  0  0  0  0  0  0
    1.4130   -3.9715   -1.5031 H   0  0  0  0  0  0  0  0  0  0  0  0
   -0.7045   -4.0033   -1.0387 C   0  0  0  0  0  0  0  0  0  0  0  0
   -0.9514   -4.8664   -1.7029 H   0  0  0  0  0  0  0  0  0  0  0  0
   -1.3553   -4.1053   -0.1429 H   0  0  0  0  0  0  0  0  0  0  0  0
   -2.4247   -2.4831   -1.9726 C   0  0  0  0  0  0  0  0  0  0  0  0
   -2.9217   -3.3984   -2.3740 H   0  0  0  0  0  0  0  0  0  0  0  0
   -2.4783   -1.6954   -2.7493 H   0  0  0  0  0  0  0  0  0  0  0  0
   -3.1931   -2.0034   -0.7367 C   0  0  0  0  0  0  0  0  0  0  0  0
   -4.2687   -1.8856   -0.9900 H   0  0  0  0  0  0  0  0  0  0  0  0
   -3.1441   -2.7748    0.0660 H   0  0  0  0  0  0  0  0  0  0  0  0
   -3.3420    0.1574    0.2815 C   0  0  0  0  0  0  0  0  0  0  0  0
   -4.8369    0.0688    0.3506 C   0  0  0  0  0  0  0  0  0  0  0  0
   -5.4516   -0.6149    1.4207 C   0  0  0  0  0  0  0  0  0  0  0  0
   -4.8189   -1.0403    2.2167 H   0  0  0  0  0  0  0  0  0  0  0  0
   -6.8496   -0.7217    1.4695 C   0  0  0  0  0  0  0  0  0  0  0  0
   -7.3248   -1.2512    2.3094 H   0  0  0  0  0  0  0  0  0  0  0  0
   -7.6392   -0.1545    0.4562 C   0  0  0  0  0  0  0  0  0  0  0  0
   -8.7358   -0.2414    0.4978 H   0  0  0  0  0  0  0  0  0  0  0  0
   -7.0271    0.5258   -0.6088 C   0  0  0  0  0  0  0  0  0  0  0  0
   -7.6415    0.9728   -1.4052 H   0  0  0  0  0  0  0  0  0  0  0  0
   -5.6299    0.6432   -0.6657 C   0  0  0  0  0  0  0  0  0  0  0  0
   -5.1337    1.1779   -1.4927 H   0  0  0  0  0  0  0  0  0  0  0  0
   -2.6799    1.3802    0.8168 C   0  0  0  0  0  0  0  0  0  0  0  0
   -3.4401    2.3962    1.4298 C   0  0  0  0  0  0  0  0  0  0  0  0
   -4.5301    2.2849    1.4978 H   0  0  0  0  0  0  0  0  0  0  0  0
   -2.7923    3.5217    1.9458 C   0  0  0  0  0  0  0  0  0  0  0  0
   -3.3702    4.3238    2.4283 H   0  0  0  0  0  0  0  0  0  0  0  0
   -1.3972    3.6032    1.8425 C   0  0  0  0  0  0  0  0  0  0  0  0
   -0.8385    4.4637    2.2372 H   0  0  0  0  0  0  0  0  0  0  0  0
   -0.7156    2.5510    1.2158 C   0  0  0  0  0  0  0  0  0  0  0  0
    0.3816    2.5801    1.1119 H   0  0  0  0  0  0  0  0  0  0  0  0
    0.4955   -3.0613    1.1688 H   0  0  0  0  0  0  0  0  0  0  0  0
   -0.4336   -2.6109   -2.5294 H   0  0  0  0  0  0  0  0  0  0  0  0
  1 15  1  0  0  0  0
  2 28  1  0  0  0  0
  3 31  1  0  0  0  0
  3 67  1  0  0  0  0
  4 37  1  0  0  0  0
  5 46  1  0  0  0  0
  6 58  1  0  0  0  0
  6 65  1  0  0  0  0
  7  1  1  0  0  0  0
  8  7  1  0  0  0  0
  9  7  1  0  0  0  0
  9 11  2  0  0  0  0
 10  9  1  0  0  0  0
 11 13  1  0  0  0  0
 12 11  1  0  0  0  0
 13 15  2  0  0  0  0
 13 14  1  0  0  0  0
 15 16  1  0  0  0  0
 16  2  1  1  0  0  0
 16 17  1  0  0  0  0
 17 18  1  0  0  0  0
 18 19  1  0  0  0  0
 18 20  2  0  0  0  0
 20 21  1  0  0  0  0
 22 23  1  0  0  0  0
 22 20  1  0  0  0  0
 24 22  2  0  0  0  0
 25 24  1  0  0  0  0
 26 24  1  0  0  0  0
 26 17  2  0  0  0  0
 27 26  1  0  0  0  0
 28 30  1  0  0  0  0
 28 29  1  0  0  0  0
 31 33  1  0  0  0  0
 31 28  1  0  0  0  0
 32 31  1  0  0  0  0
 34 35  1  0  0  0  0
 34  3  1  0  0  0  0
 36 34  1  0  0  0  0
 37 34  1  0  0  0  0
 37 39  1  0  0  0  0
 38 37  1  0  0  0  0
 40  4  1  0  0  0  0
 40 43  1  0  0  0  0
 41 40  1  0  0  0  0
 42 40  1  0  0  0  0
 43  5  1  0  0  0  0
 43 45  1  0  0  0  0
 44 43  1  0  0  0  0
 46 47  1  0  0  0  0
 46 58  2  0  0  0  0
 47 48  1  0  0  0  0
 48 50  2  0  0  0  0
 48 49  1  0  0  0  0
 50 51  1  0  0  0  0
 52 53  1  0  0  0  0
 52 50  1  0  0  0  0
 54 52  2  0  0  0  0
 55 54  1  0  0  0  0
 56 54  1  0  0  0  0
 56 47  2  0  0  0  0
 57 56  1  0  0  0  0
 58 59  1  0  0  0  0
 59 60  1  0  0  0  0
 59 61  2  0  0  0  0
 61 62  1  0  0  0  0
 63 61  1  0  0  0  0
 63 64  1  0  0  0  0
 65 63  2  0  0  0  0
 66 65  1  0  0  0  0
 68  4  1  0  0  0  0
M  END
