1,2,3,4,5,6
 OpenBabel05122313063D

 49 48  0  0  0  0  0  0  0  0999 V2000
    1.7678   -1.3036   -0.6870 N   0  0  0  0  0  2  0  0  0  0  0  0
   -1.7677   -1.3046   -0.6863 N   0  0  0  0  0  2  0  0  0  0  0  0
    0.0005   -1.7970    1.1891 N   0  0  0  0  0  2  0  0  0  0  0  0
    1.4882    1.1646   -0.3382 N   0  0  0  0  0  2  0  0  0  0  0  0
   -1.4895    1.1636   -0.3359 N   0  0  0  0  0  2  0  0  0  0  0  0
    0.0013    0.5922    1.7074 N   0  0  0  0  0  2  0  0  0  0  0  0
    1.8801   -2.6330   -0.8676 O   0  0  0  0  0  0  0  0  0  0  0  0
   -1.8781   -2.6338   -0.8687 O   0  0  0  0  0  0  0  0  0  0  0  0
    0.0005   -3.0469    0.7363 O   0  0  0  0  0  1  0  0  0  0  0  0
    1.2520    2.4692   -0.1157 O   0  0  0  0  0  0  0  0  0  0  0  0
   -1.2539    2.4683   -0.1131 O   0  0  0  0  0  0  0  0  0  0  0  0
    0.0015    1.9233    1.9128 O   0  0  0  0  0  0  0  0  0  0  0  0
    4.0235   -1.2512   -1.6387 C   0  0  0  0  0  0  0  0  0  0  0  0
    2.8229   -0.5852   -1.0495 C   0  0  0  0  0  0  0  0  0  0  0  0
    2.6665    0.8379   -0.8462 C   0  0  0  0  0  0  0  0  0  0  0  0
    3.6688    1.8946   -1.1736 C   0  0  0  0  0  0  0  0  0  0  0  0
   -4.0243   -1.2525   -1.6366 C   0  0  0  0  0  0  0  0  0  0  0  0
   -2.8238   -0.5867   -1.0470 C   0  0  0  0  0  0  0  0  0  0  0  0
   -2.6683    0.8363   -0.8427 C   0  0  0  0  0  0  0  0  0  0  0  0
   -3.6719    1.8922   -1.1686 C   0  0  0  0  0  0  0  0  0  0  0  0
    0.0024   -2.6632    3.5114 C   0  0  0  0  0  0  0  0  0  0  0  0
    0.0015   -1.5597    2.5024 C   0  0  0  0  0  0  0  0  0  0  0  0
    0.0018   -0.1620    2.8039 C   0  0  0  0  0  0  0  0  0  0  0  0
    0.0024    0.4497    4.1665 C   0  0  0  0  0  0  0  0  0  0  0  0
   -0.0004    4.3189    1.0648 C   0  0  0  0  0  0  0  0  0  0  0  0
   -0.0003    2.7751    0.6767 B   0  0  1  0  0  0  0  0  0  0  0  0
   -1.1084   -2.9935   -0.2730 H   0  0  0  0  0  0  0  0  0  0  0  0
    1.1102   -2.9930   -0.2725 H   0  0  0  0  0  0  0  0  0  0  0  0
    4.3252   -2.1148   -1.0140 H   0  0  0  0  0  0  0  0  0  0  0  0
    3.7720   -1.6618   -2.6396 H   0  0  0  0  0  0  0  0  0  0  0  0
    4.8752   -0.5573   -1.7446 H   0  0  0  0  0  0  0  0  0  0  0  0
    3.8158    2.5640   -0.3027 H   0  0  0  0  0  0  0  0  0  0  0  0
    4.6400    1.4697   -1.4802 H   0  0  0  0  0  0  0  0  0  0  0  0
    3.2814    2.5343   -1.9945 H   0  0  0  0  0  0  0  0  0  0  0  0
   -4.3183   -2.1238   -1.0190 H   0  0  0  0  0  0  0  0  0  0  0  0
   -4.8797   -0.5616   -1.7312 H   0  0  0  0  0  0  0  0  0  0  0  0
   -3.7763   -1.6515   -2.6431 H   0  0  0  0  0  0  0  0  0  0  0  0
   -3.8126    2.5657   -0.2999 H   0  0  0  0  0  0  0  0  0  0  0  0
   -3.2895    2.5276   -1.9952 H   0  0  0  0  0  0  0  0  0  0  0  0
   -4.6452    1.4664   -1.4670 H   0  0  0  0  0  0  0  0  0  0  0  0
    0.0034   -3.6333    2.9841 H   0  0  0  0  0  0  0  0  0  0  0  0
    0.8964   -2.6092    4.1665 H   0  0  0  0  0  0  0  0  0  0  0  0
   -0.8918   -2.6110    4.1663 H   0  0  0  0  0  0  0  0  0  0  0  0
   -0.8838    1.1040    4.2988 H   0  0  0  0  0  0  0  0  0  0  0  0
    0.0026   -0.3229    4.9556 H   0  0  0  0  0  0  0  0  0  0  0  0
    0.8889    1.1038    4.2983 H   0  0  0  0  0  0  0  0  0  0  0  0
    0.8965    4.5808    1.6612 H   0  0  0  0  0  0  0  0  0  0  0  0
    0.0005    4.9520    0.1545 H   0  0  0  0  0  0  0  0  0  0  0  0
   -0.8982    4.5812    1.6598 H   0  0  0  0  0  0  0  0  0  0  0  0
  3 22  1  0  0  0  0
  4 10  1  0  0  0  0
  5 11  1  0  0  0  0
  6 12  1  0  0  0  0
  6 23  1  0  0  0  0
  7  1  1  0  0  0  0
  7 28  1  0  0  0  0
  8  2  1  0  0  0  0
  8 27  1  0  0  0  0
  9  3  1  0  0  0  0
 11 26  1  0  0  0  0
 13 14  1  0  0  0  0
 13 29  1  0  0  0  0
 14 15  2  0  0  0  0
 14  1  1  0  0  0  0
 15  4  1  0  0  0  0
 16 15  1  0  0  0  0
 16 32  1  0  0  0  0
 17 18  1  0  0  0  0
 17 35  1  0  0  0  0
 18 19  2  0  0  0  0
 18  2  1  0  0  0  0
 19  5  1  0  0  0  0
 20 19  1  0  0  0  0
 20 38  1  0  0  0  0
 21 43  1  0  0  0  0
 21 42  1  0  0  0  0
 22 23  2  0  0  0  0
 22 21  1  0  0  0  0
 23 24  1  0  0  0  0
 24 46  1  0  0  0  0
 24 44  1  0  0  0  0
 24 45  1  0  0  0  0
 25 49  1  0  0  0  0
 25 47  1  0  0  0  0
 26 10  1  6  0  0  0
 26 25  1  0  0  0  0
 26 12  1  0  0  0  0
 30 13  1  0  0  0  0
 31 13  1  0  0  0  0
 33 16  1  0  0  0  0
 34 16  1  0  0  0  0
 36 17  1  0  0  0  0
 37 17  1  0  0  0  0
 39 20  1  0  0  0  0
 40 20  1  0  0  0  0
 41 21  1  0  0  0  0
 48 25  1  0  0  0  0
M  END
