13,14,15,16,17,18
 OpenBabel05122313063D

 68 73  0  0  1  0  0  0  0  0999 V2000
    0.1483    1.6587    4.8702 Cl  0  0  0  0  0  0  0  0  0  0  0  0
   -0.1485   -1.6585    4.8702 Cl  0  0  0  0  0  0  0  0  0  0  0  0
   -0.1280    4.3624    0.7562 F   0  0  0  0  0  0  0  0  0  0  0  0
    0.1280   -4.3623    0.7563 F   0  0  0  0  0  0  0  0  0  0  0  0
   -0.0861    3.0123    0.7621 B   0  0  1  0  0  0  0  0  0  0  0  0
    0.0862   -3.0123    0.7622 B   0  0  2  0  0  0  0  0  0  0  0  0
    0.3852    2.5326    2.1058 O   0  0  0  0  0  0  0  0  0  0  0  0
   -0.3852   -2.5325    2.1059 O   0  0  0  0  0  0  0  0  0  0  0  0
   -1.4532    2.4640    0.5010 O   0  0  0  0  0  0  0  0  0  0  0  0
   -0.8503   -2.5299   -0.2967 O   0  0  0  0  0  0  0  0  0  0  0  0
    0.8503    2.5299   -0.2967 O   0  0  0  0  0  0  0  0  0  0  0  0
    1.4533   -2.4639    0.5011 O   0  0  0  0  0  0  0  0  0  0  0  0
    0.2881    1.2077    2.2333 N   0  0  0  0  0  2  0  0  0  0  0  0
   -0.2882   -1.2076    2.2333 N   0  0  0  0  0  2  0  0  0  0  0  0
   -1.4750    1.1369    0.2983 N   0  0  0  0  0  2  0  0  0  0  0  0
   -1.0824   -1.2082   -0.2600 N   0  0  0  0  0  2  0  0  0  0  0  0
    1.0824    1.2082   -0.2600 N   0  0  0  0  0  2  0  0  0  0  0  0
    1.4751   -1.1369    0.2984 N   0  0  0  0  0  2  0  0  0  0  0  0
    0.1321    0.7067    3.4496 C   0  0  0  0  0  0  0  0  0  0  0  0
   -0.1322   -0.7066    3.4496 C   0  0  0  0  0  0  0  0  0  0  0  0
   -2.4306    0.6466   -0.4944 C   0  0  2  0  0  3  0  0  0  0  0  0
   -2.2558   -0.7738   -0.7254 C   0  0  2  0  0  3  0  0  0  0  0  0
    2.2558    0.7738   -0.7254 C   0  0  2  0  0  3  0  0  0  0  0  0
    2.4306   -0.6466   -0.4944 C   0  0  2  0  0  3  0  0  0  0  0  0
   -3.4744    1.4719   -1.1337 C   0  0  0  0  0  0  0  0  0  0  0  0
   -3.8125    1.2402   -2.4875 C   0  0  0  0  0  0  0  0  0  0  0  0
   -3.2854    0.4587   -3.0531 H   0  0  0  0  0  0  0  0  0  0  0  0
   -4.8055    2.0038   -3.1124 C   0  0  0  0  0  0  0  0  0  0  0  0
   -5.0514    1.8165   -4.1684 H   0  0  0  0  0  0  0  0  0  0  0  0
   -5.4829    3.0031   -2.3955 C   0  0  0  0  0  0  0  0  0  0  0  0
   -6.2663    3.6003   -2.8862 H   0  0  0  0  0  0  0  0  0  0  0  0
   -5.1536    3.2404   -1.0513 C   0  0  0  0  0  0  0  0  0  0  0  0
   -5.6783    4.0244   -0.4847 H   0  0  0  0  0  0  0  0  0  0  0  0
   -4.1535    2.4878   -0.4232 C   0  0  0  0  0  0  0  0  0  0  0  0
   -3.8940    2.6833    0.6253 H   0  0  0  0  0  0  0  0  0  0  0  0
   -3.2859   -1.6560   -1.3086 C   0  0  0  0  0  0  0  0  0  0  0  0
   -2.9499   -2.6789   -2.2244 C   0  0  0  0  0  0  0  0  0  0  0  0
   -1.8991   -2.8373   -2.5002 H   0  0  0  0  0  0  0  0  0  0  0  0
   -3.9509   -3.4862   -2.7789 C   0  0  0  0  0  0  0  0  0  0  0  0
   -3.6762   -4.2755   -3.4947 H   0  0  0  0  0  0  0  0  0  0  0  0
   -5.2955   -3.2967   -2.4212 C   0  0  0  0  0  0  0  0  0  0  0  0
   -6.0781   -3.9371   -2.8554 H   0  0  0  0  0  0  0  0  0  0  0  0
   -5.6369   -2.2908   -1.5031 C   0  0  0  0  0  0  0  0  0  0  0  0
   -6.6870   -2.1414   -1.2104 H   0  0  0  0  0  0  0  0  0  0  0  0
   -4.6426   -1.4729   -0.9537 C   0  0  0  0  0  0  0  0  0  0  0  0
   -4.9150   -0.6869   -0.2349 H   0  0  0  0  0  0  0  0  0  0  0  0
    3.2859    1.6559   -1.3086 C   0  0  0  0  0  0  0  0  0  0  0  0
    4.6427    1.4729   -0.9537 C   0  0  0  0  0  0  0  0  0  0  0  0
    4.9150    0.6869   -0.2348 H   0  0  0  0  0  0  0  0  0  0  0  0
    5.6370    2.2907   -1.5031 C   0  0  0  0  0  0  0  0  0  0  0  0
    6.6871    2.1414   -1.2104 H   0  0  0  0  0  0  0  0  0  0  0  0
    5.2955    3.2966   -2.4213 C   0  0  0  0  0  0  0  0  0  0  0  0
    6.0782    3.9370   -2.8554 H   0  0  0  0  0  0  0  0  0  0  0  0
    3.9510    3.4860   -2.7791 C   0  0  0  0  0  0  0  0  0  0  0  0
    3.6763    4.2753   -3.4949 H   0  0  0  0  0  0  0  0  0  0  0  0
    2.9500    2.6788   -2.2245 C   0  0  0  0  0  0  0  0  0  0  0  0
    1.8992    2.8371   -2.5003 H   0  0  0  0  0  0  0  0  0  0  0  0
    3.4744   -1.4719   -1.1336 C   0  0  0  0  0  0  0  0  0  0  0  0
    4.1534   -2.4878   -0.4230 C   0  0  0  0  0  0  0  0  0  0  0  0
    3.8939   -2.6833    0.6255 H   0  0  0  0  0  0  0  0  0  0  0  0
    5.1536   -3.2405   -1.0511 C   0  0  0  0  0  0  0  0  0  0  0  0
    5.6782   -4.0244   -0.4845 H   0  0  0  0  0  0  0  0  0  0  0  0
    5.4829   -3.0032   -2.3953 C   0  0  0  0  0  0  0  0  0  0  0  0
    6.2663   -3.6005   -2.8859 H   0  0  0  0  0  0  0  0  0  0  0  0
    4.8055   -2.0039   -3.1123 C   0  0  0  0  0  0  0  0  0  0  0  0
    5.0515   -1.8167   -4.1683 H   0  0  0  0  0  0  0  0  0  0  0  0
    3.8126   -1.2403   -2.4874 C   0  0  0  0  0  0  0  0  0  0  0  0
    3.2855   -0.4588   -3.0530 H   0  0  0  0  0  0  0  0  0  0  0  0
  5  3  1  6  0  0  0
  5  7  1  0  0  0  0
  6  4  1  6  0  0  0
  6  8  1  0  0  0  0
  7 13  1  0  0  0  0
  8 14  1  0  0  0  0
  9  5  1  0  0  0  0
 10 16  1  0  0  0  0
 10  6  1  0  0  0  0
 11 17  1  0  0  0  0
 11  5  1  0  0  0  0
 12  6  1  0  0  0  0
 13 19  1  0  0  0  0
 14 20  1  0  0  0  0
 15  9  1  0  0  0  0
 18 12  1  0  0  0  0
 19 20  2  0  0  0  0
 19  1  1  0  0  0  0
 20  2  1  0  0  0  0
 21 25  1  6  0  0  0
 21 15  1  0  0  0  0
 22 36  1  1  0  0  0
 22 21  1  0  0  0  0
 22 16  1  0  0  0  0
 23 47  1  1  0  0  0
 23 24  1  0  0  0  0
 23 17  1  0  0  0  0
 24 58  1  6  0  0  0
 24 18  1  0  0  0  0
 25 34  1  0  0  0  0
 26 25  2  0  0  0  0
 27 26  1  0  0  0  0
 28 26  1  0  0  0  0
 28 30  2  0  0  0  0
 29 28  1  0  0  0  0
 30 32  1  0  0  0  0
 31 30  1  0  0  0  0
 32 33  1  0  0  0  0
 32 34  2  0  0  0  0
 34 35  1  0  0  0  0
 36 45  1  0  0  0  0
 37 36  2  0  0  0  0
 38 37  1  0  0  0  0
 39 41  2  0  0  0  0
 39 37  1  0  0  0  0
 40 39  1  0  0  0  0
 41 43  1  0  0  0  0
 42 41  1  0  0  0  0
 43 44  1  0  0  0  0
 43 45  2  0  0  0  0
 45 46  1  0  0  0  0
 47 48  1  0  0  0  0
 48 49  1  0  0  0  0
 50 51  1  0  0  0  0
 50 48  2  0  0  0  0
 52 50  1  0  0  0  0
 53 52  1  0  0  0  0
 54 52  2  0  0  0  0
 54 56  1  0  0  0  0
 55 54  1  0  0  0  0
 56 47  2  0  0  0  0
 57 56  1  0  0  0  0
 58 59  1  0  0  0  0
 59 60  1  0  0  0  0
 61 62  1  0  0  0  0
 61 59  2  0  0  0  0
 63 61  1  0  0  0  0
 64 63  1  0  0  0  0
 65 67  1  0  0  0  0
 65 63  2  0  0  0  0
 66 65  1  0  0  0  0
 67 58  2  0  0  0  0
 68 67  1  0  0  0  0
M  END
