13,14,15,16,17,18
 OpenBabel05122313063D

 81 87  0  0  1  0  0  0  0  0999 V2000
    0.7694    3.3229   -3.2717 Cl  0  0  0  0  0  0  0  0  0  0  0  0
   -0.2205   -0.8285   -3.0591 B   0  0  1  0  0  0  0  0  0  0  0  0
    0.1978    1.2473    2.5685 B   0  0  2  0  0  0  0  0  0  0  0  0
   -0.3134   -1.2914   -4.3259 F   0  0  0  0  0  0  0  0  0  0  0  0
    0.2840    1.7002    3.8421 F   0  0  0  0  0  0  0  0  0  0  0  0
   -0.3196    0.6723   -3.0720 O   0  0  0  0  0  0  0  0  0  0  0  0
    0.9355    2.1711    1.6609 O   0  0  0  0  0  0  0  0  0  0  0  0
   -1.3267   -1.3950   -2.2318 O   0  0  0  0  0  0  0  0  0  0  0  0
   -1.2417    1.1800    2.1608 O   0  0  0  0  0  0  0  0  0  0  0  0
    1.0962   -1.2257   -2.4741 O   0  0  0  0  0  0  0  0  0  0  0  0
    0.7930   -0.1258    2.4866 O   0  0  0  0  0  0  0  0  0  0  0  0
    2.5212    6.6689   -0.0907 O   0  0  0  0  0  0  0  0  0  0  0  0
   -0.0750    1.2124   -1.8753 N   0  0  0  0  0  2  0  0  0  0  0  0
    0.7539    1.8630    0.3548 N   0  0  0  0  0  2  0  0  0  0  0  0
   -1.4164   -0.8577   -1.0030 N   0  0  0  0  0  2  0  0  0  0  0  0
   -1.4384    0.5554    0.9888 N   0  0  0  0  0  2  0  0  0  0  0  0
    1.2017   -0.9652   -1.1593 N   0  0  0  0  0  2  0  0  0  0  0  0
    0.9071   -0.5968    1.2347 N   0  0  0  0  0  2  0  0  0  0  0  0
    1.2977    4.1323   -0.2313 N   0  0  0  0  0  0  0  0  0  0  0  0
    0.4365    2.4308   -1.8373 C   0  0  0  0  0  0  0  0  0  0  0  0
    0.8499    2.8679   -0.5176 C   0  0  0  0  0  0  0  0  0  0  0  0
   -2.6235   -0.8160   -0.4342 C   0  0  1  0  0  3  0  0  0  0  0  0
   -2.6014   -0.0770    0.8132 C   0  0  1  0  0  3  0  0  0  0  0  0
    1.9910   -1.7612   -0.4328 C   0  0  1  0  0  3  0  0  0  0  0  0
    1.9004   -1.4531    0.9808 C   0  0  1  0  0  3  0  0  0  0  0  0
    0.5650    5.3305   -0.6417 C   0  0  0  0  0  0  0  0  0  0  0  0
   -0.0301    5.7139    0.2214 H   0  0  0  0  0  0  0  0  0  0  0  0
   -0.1382    5.0826   -1.4585 H   0  0  0  0  0  0  0  0  0  0  0  0
    1.5560    6.4024   -1.0942 C   0  0  0  0  0  0  0  0  0  0  0  0
    2.0511    6.0559   -2.0352 H   0  0  0  0  0  0  0  0  0  0  0  0
    1.0300    7.3562   -1.2996 H   0  0  0  0  0  0  0  0  0  0  0  0
    3.2507    5.4974    0.2387 C   0  0  0  0  0  0  0  0  0  0  0  0
    3.9877    5.7850    1.0151 H   0  0  0  0  0  0  0  0  0  0  0  0
    3.8059    5.1202   -0.6565 H   0  0  0  0  0  0  0  0  0  0  0  0
    2.3369    4.3885    0.7666 C   0  0  0  0  0  0  0  0  0  0  0  0
    2.9140    3.4632    0.9458 H   0  0  0  0  0  0  0  0  0  0  0  0
    1.8856    4.6934    1.7372 H   0  0  0  0  0  0  0  0  0  0  0  0
   -3.8450   -1.3647   -1.0557 C   0  0  0  0  0  0  0  0  0  0  0  0
   -3.8454   -2.6236   -1.6988 C   0  0  0  0  0  0  0  0  0  0  0  0
   -2.9153   -3.2040   -1.7555 H   0  0  0  0  0  0  0  0  0  0  0  0
   -5.0245   -3.1294   -2.2603 C   0  0  0  0  0  0  0  0  0  0  0  0
   -5.0114   -4.1131   -2.7534 H   0  0  0  0  0  0  0  0  0  0  0  0
   -6.2148   -2.3870   -2.2016 C   0  0  0  0  0  0  0  0  0  0  0  0
   -7.1379   -2.7863   -2.6485 H   0  0  0  0  0  0  0  0  0  0  0  0
   -6.2212   -1.1304   -1.5751 C   0  0  0  0  0  0  0  0  0  0  0  0
   -7.1474   -0.5378   -1.5321 H   0  0  0  0  0  0  0  0  0  0  0  0
   -5.0485   -0.6237   -1.0027 C   0  0  0  0  0  0  0  0  0  0  0  0
   -5.0587    0.3608   -0.5137 H   0  0  0  0  0  0  0  0  0  0  0  0
   -3.6859   -0.1025    1.8145 C   0  0  0  0  0  0  0  0  0  0  0  0
   -4.3682   -1.3145    2.0721 C   0  0  0  0  0  0  0  0  0  0  0  0
   -4.0741   -2.2275    1.5350 H   0  0  0  0  0  0  0  0  0  0  0  0
   -5.4067   -1.3608    3.0098 C   0  0  0  0  0  0  0  0  0  0  0  0
   -5.9222   -2.3135    3.2034 H   0  0  0  0  0  0  0  0  0  0  0  0
   -5.7872   -0.1986    3.6995 C   0  0  0  0  0  0  0  0  0  0  0  0
   -6.6060   -0.2348    4.4340 H   0  0  0  0  0  0  0  0  0  0  0  0
   -5.1149    1.0090    3.4517 C   0  0  0  0  0  0  0  0  0  0  0  0
   -5.4053    1.9229    3.9916 H   0  0  0  0  0  0  0  0  0  0  0  0
   -4.0683    1.0598    2.5224 C   0  0  0  0  0  0  0  0  0  0  0  0
   -3.5399    2.0043    2.3392 H   0  0  0  0  0  0  0  0  0  0  0  0
    2.7723   -2.8812   -0.9935 C   0  0  0  0  0  0  0  0  0  0  0  0
    2.8121   -4.1169   -0.3061 C   0  0  0  0  0  0  0  0  0  0  0  0
    2.2483   -4.2353    0.6303 H   0  0  0  0  0  0  0  0  0  0  0  0
    3.5549   -5.1895   -0.8134 C   0  0  0  0  0  0  0  0  0  0  0  0
    3.5691   -6.1462   -0.2700 H   0  0  0  0  0  0  0  0  0  0  0  0
    4.2761   -5.0456   -2.0095 C   0  0  0  0  0  0  0  0  0  0  0  0
    4.8625   -5.8882   -2.4062 H   0  0  0  0  0  0  0  0  0  0  0  0
    4.2416   -3.8233   -2.6998 C   0  0  0  0  0  0  0  0  0  0  0  0
    4.8011   -3.7047   -3.6400 H   0  0  0  0  0  0  0  0  0  0  0  0
    3.4925   -2.7494   -2.2028 C   0  0  0  0  0  0  0  0  0  0  0  0
    3.4618   -1.7991   -2.7513 H   0  0  0  0  0  0  0  0  0  0  0  0
    2.8499   -1.9368    2.0024 C   0  0  0  0  0  0  0  0  0  0  0  0
    2.4153   -2.3297    3.2890 C   0  0  0  0  0  0  0  0  0  0  0  0
    1.3503   -2.2604    3.5462 H   0  0  0  0  0  0  0  0  0  0  0  0
    3.3360   -2.8055    4.2310 C   0  0  0  0  0  0  0  0  0  0  0  0
    2.9827   -3.1127    5.2268 H   0  0  0  0  0  0  0  0  0  0  0  0
    4.7012   -2.8860    3.9125 C   0  0  0  0  0  0  0  0  0  0  0  0
    5.4218   -3.2565    4.6574 H   0  0  0  0  0  0  0  0  0  0  0  0
    5.1438   -2.4872    2.6411 C   0  0  0  0  0  0  0  0  0  0  0  0
    6.2128   -2.5393    2.3853 H   0  0  0  0  0  0  0  0  0  0  0  0
    4.2273   -2.0201    1.6916 C   0  0  0  0  0  0  0  0  0  0  0  0
    4.5790   -1.7092    0.6974 H   0  0  0  0  0  0  0  0  0  0  0  0
  1 20  1  0  0  0  0
  2  4  1  6  0  0  0
  2 10  1  0  0  0  0
  2  8  1  0  0  0  0
  3  5  1  1  0  0  0
  6  2  1  0  0  0  0
  6 13  1  0  0  0  0
  7  3  1  0  0  0  0
  8 15  1  0  0  0  0
  9  3  1  0  0  0  0
 10 17  1  0  0  0  0
 11  3  1  0  0  0  0
 12 32  1  0  0  0  0
 13 20  1  0  0  0  0
 14  7  1  0  0  0  0
 15 22  1  0  0  0  0
 16  9  1  0  0  0  0
 17 24  1  0  0  0  0
 18 11  1  0  0  0  0
 19 35  1  0  0  0  0
 20 21  2  0  0  0  0
 21 19  1  0  0  0  0
 21 14  1  0  0  0  0
 22 38  1  6  0  0  0
 22 23  1  0  0  0  0
 23 16  1  0  0  0  0
 23 49  1  1  0  0  0
 24 60  1  1  0  0  0
 24 25  1  0  0  0  0
 25 18  1  0  0  0  0
 25 71  1  6  0  0  0
 26 19  1  0  0  0  0
 26 27  1  0  0  0  0
 28 26  1  0  0  0  0
 29 26  1  0  0  0  0
 29 12  1  0  0  0  0
 30 29  1  0  0  0  0
 31 29  1  0  0  0  0
 32 35  1  0  0  0  0
 32 33  1  0  0  0  0
 34 32  1  0  0  0  0
 35 36  1  0  0  0  0
 35 37  1  0  0  0  0
 38 47  1  0  0  0  0
 39 38  2  0  0  0  0
 40 39  1  0  0  0  0
 41 43  2  0  0  0  0
 41 39  1  0  0  0  0
 42 41  1  0  0  0  0
 43 45  1  0  0  0  0
 44 43  1  0  0  0  0
 45 46  1  0  0  0  0
 45 47  2  0  0  0  0
 47 48  1  0  0  0  0
 49 50  2  0  0  0  0
 49 58  1  0  0  0  0
 50 52  1  0  0  0  0
 51 50  1  0  0  0  0
 52 53  1  0  0  0  0
 52 54  2  0  0  0  0
 54 55  1  0  0  0  0
 56 54  1  0  0  0  0
 56 57  1  0  0  0  0
 58 56  2  0  0  0  0
 59 58  1  0  0  0  0
 60 61  1  0  0  0  0
 61 62  1  0  0  0  0
 63 61  2  0  0  0  0
 63 64  1  0  0  0  0
 65 63  1  0  0  0  0
 66 65  1  0  0  0  0
 67 69  1  0  0  0  0
 67 65  2  0  0  0  0
 68 67  1  0  0  0  0
 69 60  2  0  0  0  0
 70 69  1  0  0  0  0
 71 72  1  0  0  0  0
 72 73  1  0  0  0  0
 72 74  2  0  0  0  0
 74 75  1  0  0  0  0
 76 74  1  0  0  0  0
 76 77  1  0  0  0  0
 78 76  2  0  0  0  0
 79 78  1  0  0  0  0
 80 71  2  0  0  0  0
 80 78  1  0  0  0  0
 81 80  1  0  0  0  0
M  END
