4,5,6,42,43,44
 OpenBabel05122313063D

 76 82  0  0  0  0  0  0  0  0999 V2000
   -2.5377    1.3762    0.3442 O   0  0  0  0  0  0  0  0  0  0  0  0
   -2.5407   -0.9798    0.9982 O   0  0  0  0  0  0  0  0  0  0  0  0
   -2.5340   -0.3715   -1.3666 O   0  0  0  0  0  0  0  0  0  0  0  0
   -1.1994    1.4867    0.2377 N   0  0  0  0  0  2  0  0  0  0  0  0
   -1.2025   -0.9392    1.1555 N   0  0  0  0  0  2  0  0  0  0  0  0
   -1.1954   -0.5252   -1.4027 N   0  0  0  0  0  2  0  0  0  0  0  0
   -7.4919   -0.0579    0.0008 N   0  0  0  0  0  0  0  0  0  0  0  0
   -3.0475    0.0139   -0.0104 B   0  0  2  0  0  0  0  0  0  0  0  0
   -0.7073    2.7130    0.1028 C   0  0  0  0  0  0  0  0  0  0  0  0
   -1.5260    3.9673    0.1474 C   0  0  0  0  0  0  0  0  0  0  0  0
   -1.8901    4.1182    1.1891 H   0  0  0  0  0  0  0  0  0  0  0  0
   -2.4420    3.8249   -0.4634 H   0  0  0  0  0  0  0  0  0  0  0  0
   -0.7001    5.1788   -0.3146 C   0  0  0  0  0  0  0  0  0  0  0  0
   -1.2411    6.1130   -0.0638 H   0  0  0  0  0  0  0  0  0  0  0  0
   -0.6023    5.1601   -1.4224 H   0  0  0  0  0  0  0  0  0  0  0  0
   -0.7144   -1.4352    2.2864 C   0  0  0  0  0  0  0  0  0  0  0  0
   -1.5365   -2.1035    3.3460 C   0  0  0  0  0  0  0  0  0  0  0  0
   -1.8936   -3.0830    2.9545 H   0  0  0  0  0  0  0  0  0  0  0  0
   -2.4574   -1.5087    3.5201 H   0  0  0  0  0  0  0  0  0  0  0  0
   -0.7178   -2.3028    4.6316 C   0  0  0  0  0  0  0  0  0  0  0  0
   -0.6264   -1.3323    5.1674 H   0  0  0  0  0  0  0  0  0  0  0  0
   -1.2604   -2.9873    5.3137 H   0  0  0  0  0  0  0  0  0  0  0  0
   -0.7000   -1.2549   -2.3953 C   0  0  0  0  0  0  0  0  0  0  0  0
   -1.5139   -1.8381   -3.5103 C   0  0  0  0  0  0  0  0  0  0  0  0
   -1.8734   -1.0081   -4.1599 H   0  0  0  0  0  0  0  0  0  0  0  0
   -2.4341   -2.2947   -3.0894 H   0  0  0  0  0  0  0  0  0  0  0  0
   -0.6863   -2.8437   -4.3271 C   0  0  0  0  0  0  0  0  0  0  0  0
   -0.5946   -3.7961   -3.7597 H   0  0  0  0  0  0  0  0  0  0  0  0
   -1.2227   -3.0885   -5.2655 H   0  0  0  0  0  0  0  0  0  0  0  0
   -4.6428    0.0047   -0.0136 C   0  0  0  0  0  0  0  0  0  0  0  0
   -5.3663   -1.0600   -0.5880 C   0  0  0  0  0  0  0  0  0  0  0  0
   -4.8373   -1.9006   -1.0644 H   0  0  0  0  0  0  0  0  0  0  0  0
   -6.7695   -1.0447   -0.5554 C   0  0  0  0  0  0  0  0  0  0  0  0
   -7.3435   -1.8765   -1.0048 H   0  0  0  0  0  0  0  0  0  0  0  0
   -6.8074    0.9598    0.5488 C   0  0  0  0  0  0  0  0  0  0  0  0
   -7.4124    1.7670    1.0023 H   0  0  0  0  0  0  0  0  0  0  0  0
   -5.4055    1.0371    0.5671 C   0  0  0  0  0  0  0  0  0  0  0  0
   -4.9060    1.9021    1.0305 H   0  0  0  0  0  0  0  0  0  0  0  0
    2.5377    1.3762   -0.3442 O   0  0  0  0  0  0  0  0  0  0  0  0
    2.5407   -0.9798   -0.9982 O   0  0  0  0  0  0  0  0  0  0  0  0
    2.5340   -0.3715    1.3666 O   0  0  0  0  0  0  0  0  0  0  0  0
    1.1994    1.4867   -0.2377 N   0  0  0  0  0  2  0  0  0  0  0  0
    1.2025   -0.9392   -1.1555 N   0  0  0  0  0  2  0  0  0  0  0  0
    1.1954   -0.5252    1.4027 N   0  0  0  0  0  2  0  0  0  0  0  0
    7.4919   -0.0579   -0.0008 N   0  0  0  0  0  0  0  0  0  0  0  0
    3.0475    0.0139    0.0104 B   0  0  2  0  0  0  0  0  0  0  0  0
    0.7073    2.7130   -0.1028 C   0  0  0  0  0  0  0  0  0  0  0  0
    1.5260    3.9673   -0.1474 C   0  0  0  0  0  0  0  0  0  0  0  0
    1.8901    4.1182   -1.1891 H   0  0  0  0  0  0  0  0  0  0  0  0
    2.4420    3.8249    0.4635 H   0  0  0  0  0  0  0  0  0  0  0  0
    0.7001    5.1788    0.3146 C   0  0  0  0  0  0  0  0  0  0  0  0
    1.2411    6.1130    0.0638 H   0  0  0  0  0  0  0  0  0  0  0  0
    0.6023    5.1601    1.4224 H   0  0  0  0  0  0  0  0  0  0  0  0
    0.7144   -1.4352   -2.2864 C   0  0  0  0  0  0  0  0  0  0  0  0
    1.5365   -2.1035   -3.3460 C   0  0  0  0  0  0  0  0  0  0  0  0
    1.8936   -3.0830   -2.9545 H   0  0  0  0  0  0  0  0  0  0  0  0
    2.4574   -1.5086   -3.5201 H   0  0  0  0  0  0  0  0  0  0  0  0
    0.7178   -2.3027   -4.6316 C   0  0  0  0  0  0  0  0  0  0  0  0
    0.6264   -1.3323   -5.1674 H   0  0  0  0  0  0  0  0  0  0  0  0
    1.2604   -2.9873   -5.3137 H   0  0  0  0  0  0  0  0  0  0  0  0
    0.7000   -1.2549    2.3953 C   0  0  0  0  0  0  0  0  0  0  0  0
    1.5139   -1.8381    3.5103 C   0  0  0  0  0  0  0  0  0  0  0  0
    1.8734   -1.0081    4.1599 H   0  0  0  0  0  0  0  0  0  0  0  0
    2.4341   -2.2947    3.0894 H   0  0  0  0  0  0  0  0  0  0  0  0
    0.6863   -2.8437    4.3270 C   0  0  0  0  0  0  0  0  0  0  0  0
    0.5946   -3.7961    3.7597 H   0  0  0  0  0  0  0  0  0  0  0  0
    1.2227   -3.0886    5.2655 H   0  0  0  0  0  0  0  0  0  0  0  0
    4.6428    0.0047    0.0136 C   0  0  0  0  0  0  0  0  0  0  0  0
    5.3663   -1.0600    0.5880 C   0  0  0  0  0  0  0  0  0  0  0  0
    4.8373   -1.9006    1.0644 H   0  0  0  0  0  0  0  0  0  0  0  0
    6.7695   -1.0447    0.5555 C   0  0  0  0  0  0  0  0  0  0  0  0
    7.3435   -1.8765    1.0048 H   0  0  0  0  0  0  0  0  0  0  0  0
    6.8074    0.9598   -0.5488 C   0  0  0  0  0  0  0  0  0  0  0  0
    7.4124    1.7670   -1.0023 H   0  0  0  0  0  0  0  0  0  0  0  0
    5.4055    1.0371   -0.5671 C   0  0  0  0  0  0  0  0  0  0  0  0
    4.9060    1.9021   -1.0305 H   0  0  0  0  0  0  0  0  0  0  0  0
  2  5  1  0  0  0  0
  3  8  1  0  0  0  0
  4  1  1  0  0  0  0
  5 16  1  0  0  0  0
  6  3  1  0  0  0  0
  7 35  1  0  0  0  0
  8 30  1  6  0  0  0
  8  1  1  0  0  0  0
  8  2  1  0  0  0  0
  9 10  1  0  0  0  0
  9  4  1  0  0  0  0
 10 11  1  0  0  0  0
 12 10  1  0  0  0  0
 13 14  1  0  0  0  0
 13 10  1  0  0  0  0
 13 51  1  0  0  0  0
 15 13  1  0  0  0  0
 16 61  2  0  0  0  0
 16 17  1  0  0  0  0
 17 19  1  0  0  0  0
 17 20  1  0  0  0  0
 18 17  1  0  0  0  0
 20 21  1  0  0  0  0
 20 22  1  0  0  0  0
 23 54  2  0  0  0  0
 23  6  1  0  0  0  0
 24 26  1  0  0  0  0
 24 23  1  0  0  0  0
 25 24  1  0  0  0  0
 27 28  1  0  0  0  0
 27 24  1  0  0  0  0
 29 27  1  0  0  0  0
 30 37  1  0  0  0  0
 31 33  1  0  0  0  0
 31 30  2  0  0  0  0
 32 31  1  0  0  0  0
 33  7  2  0  0  0  0
 34 33  1  0  0  0  0
 35 37  2  0  0  0  0
 35 36  1  0  0  0  0
 37 38  1  0  0  0  0
 39 42  1  0  0  0  0
 39 46  1  0  0  0  0
 40 46  1  0  0  0  0
 41 44  1  0  0  0  0
 42 47  1  0  0  0  0
 43 40  1  0  0  0  0
 44 61  1  0  0  0  0
 45 71  1  0  0  0  0
 46 68  1  1  0  0  0
 46 41  1  0  0  0  0
 47  9  2  0  0  0  0
 48 47  1  0  0  0  0
 48 51  1  0  0  0  0
 48 50  1  0  0  0  0
 49 48  1  0  0  0  0
 51 53  1  0  0  0  0
 52 51  1  0  0  0  0
 54 43  1  0  0  0  0
 55 56  1  0  0  0  0
 55 54  1  0  0  0  0
 57 55  1  0  0  0  0
 58 27  1  0  0  0  0
 58 55  1  0  0  0  0
 59 58  1  0  0  0  0
 60 58  1  0  0  0  0
 61 62  1  0  0  0  0
 62 63  1  0  0  0  0
 62 65  1  0  0  0  0
 64 62  1  0  0  0  0
 65 20  1  0  0  0  0
 65 67  1  0  0  0  0
 66 65  1  0  0  0  0
 68 69  1  0  0  0  0
 69 70  1  0  0  0  0
 71 69  2  0  0  0  0
 71 72  1  0  0  0  0
 73 45  2  0  0  0  0
 74 73  1  0  0  0  0
 75 73  1  0  0  0  0
 75 68  2  0  0  0  0
 76 75  1  0  0  0  0
M  END
