1,2,3
 OpenBabel05122313063D

 43 43  0  0  1  0  0  0  0  0999 V2000
   -0.0254    2.2789    0.6098 S   0  0  0  0  0  0  0  0  0  0  0  0
   -1.3518   -1.9613   -0.8459 S   0  0  0  0  0  0  0  0  0  0  0  0
   -1.5329   -0.0652    1.4294 N   0  0  0  0  0  2  0  0  0  0  0  0
   -1.7917    0.9935    2.2590 C   0  0  2  0  0  3  0  0  0  0  0  0
   -2.3277    0.8002    3.5385 C   0  0  0  0  0  0  0  0  0  0  0  0
   -2.5018    1.6703    4.1870 H   0  0  0  0  0  0  0  0  0  0  0  0
   -2.6476   -0.4946    3.9678 C   0  0  0  0  0  0  0  0  0  0  0  0
   -3.0752   -0.6642    4.9663 H   0  0  0  0  0  0  0  0  0  0  0  0
   -2.4135   -1.5668    3.0993 C   0  0  0  0  0  0  0  0  0  0  0  0
   -2.6526   -2.5977    3.3965 H   0  0  0  0  0  0  0  0  0  0  0  0
   -1.8452   -1.3310    1.8403 C   0  0  0  0  0  0  0  0  0  0  0  0
   -1.4952    2.3693    1.7274 C   0  0  0  0  0  0  0  0  0  0  0  0
   -1.3148    3.0845    2.5521 H   0  0  0  0  0  0  0  0  0  0  0  0
   -2.3512    2.7343    1.1216 H   0  0  0  0  0  0  0  0  0  0  0  0
   -0.0461    3.9545   -0.2846 C   0  0  0  0  0  0  0  0  0  0  0  0
   -1.2595    4.1083   -1.1958 C   0  0  0  0  0  0  0  0  0  0  0  0
   -2.2141    4.0938   -0.6316 H   0  0  0  0  0  0  0  0  0  0  0  0
   -1.2652    3.3176   -1.9701 H   0  0  0  0  0  0  0  0  0  0  0  0
   -1.1951    5.0944   -1.7014 H   0  0  0  0  0  0  0  0  0  0  0  0
    0.0134    5.0341    0.7997 C   0  0  0  0  0  0  0  0  0  0  0  0
    0.1762    6.0181    0.3129 H   0  0  0  0  0  0  0  0  0  0  0  0
    0.8548    4.8618    1.5001 H   0  0  0  0  0  0  0  0  0  0  0  0
   -0.9287    5.1090    1.3786 H   0  0  0  0  0  0  0  0  0  0  0  0
    1.2466    3.9132   -1.1063 C   0  0  0  0  0  0  0  0  0  0  0  0
    1.3567    4.8781   -1.6427 H   0  0  0  0  0  0  0  0  0  0  0  0
    1.2096    3.0982   -1.8551 H   0  0  0  0  0  0  0  0  0  0  0  0
    2.1381    3.7718   -0.4650 H   0  0  0  0  0  0  0  0  0  0  0  0
   -1.5005   -2.4617    0.9156 C   0  0  0  0  0  0  0  0  0  0  0  0
   -2.2053   -3.3097    1.0127 H   0  0  0  0  0  0  0  0  0  0  0  0
   -0.4936   -2.8497    1.1758 H   0  0  0  0  0  0  0  0  0  0  0  0
   -3.0938   -2.2923   -1.5208 C   0  0  0  0  0  0  0  0  0  0  0  0
   -3.2115   -3.8166   -1.6472 C   0  0  0  0  0  0  0  0  0  0  0  0
   -4.1876   -4.0679   -2.1123 H   0  0  0  0  0  0  0  0  0  0  0  0
   -3.1804   -4.3266   -0.6631 H   0  0  0  0  0  0  0  0  0  0  0  0
   -2.4085   -4.2352   -2.2843 H   0  0  0  0  0  0  0  0  0  0  0  0
   -4.1837   -1.7324   -0.6067 C   0  0  0  0  0  0  0  0  0  0  0  0
   -4.0443   -0.6574   -0.4007 H   0  0  0  0  0  0  0  0  0  0  0  0
   -4.2250   -2.2675    0.3623 H   0  0  0  0  0  0  0  0  0  0  0  0
   -5.1717   -1.8705   -1.0939 H   0  0  0  0  0  0  0  0  0  0  0  0
   -3.0793   -1.6430   -2.9099 C   0  0  0  0  0  0  0  0  0  0  0  0
   -2.2967   -2.0930   -3.5525 H   0  0  0  0  0  0  0  0  0  0  0  0
   -2.8803   -0.5570   -2.8648 H   0  0  0  0  0  0  0  0  0  0  0  0
   -4.0589   -1.8147   -3.4013 H   0  0  0  0  0  0  0  0  0  0  0  0
  1 12  1  0  0  0  0
  2 28  1  0  0  0  0
  3 11  1  0  0  0  0
  3  4  1  0  0  0  0
  4 12  1  6  0  0  0
  4  5  1  0  0  0  0
  5  7  2  0  0  0  0
  5  6  1  0  0  0  0
  7  8  1  0  0  0  0
  9 10  1  0  0  0  0
  9  7  1  0  0  0  0
 11  9  2  0  0  0  0
 12 13  1  0  0  0  0
 14 12  1  0  0  0  0
 15  1  1  0  0  0  0
 15 20  1  0  0  0  0
 16 17  1  0  0  0  0
 16 15  1  0  0  0  0
 18 16  1  0  0  0  0
 19 16  1  0  0  0  0
 20 23  1  0  0  0  0
 20 22  1  0  0  0  0
 21 20  1  0  0  0  0
 24 27  1  0  0  0  0
 24 15  1  0  0  0  0
 25 24  1  0  0  0  0
 26 24  1  0  0  0  0
 28 29  1  0  0  0  0
 28 30  1  0  0  0  0
 28 11  1  0  0  0  0
 31  2  1  0  0  0  0
 31 36  1  0  0  0  0
 32 31  1  0  0  0  0
 32 34  1  0  0  0  0
 33 32  1  0  0  0  0
 35 32  1  0  0  0  0
 36 37  1  0  0  0  0
 36 38  1  0  0  0  0
 39 36  1  0  0  0  0
 40 42  1  0  0  0  0
 40 31  1  0  0  0  0
 41 40  1  0  0  0  0
 43 40  1  0  0  0  0
M  END
