1,2,3
 OpenBabel05122313063D

 17 17  0  0  1  0  0  0  0  0999 V2000
    2.2378   -2.2091   -0.4458 S   0  0  0  0  0  1  0  0  0  0  0  0
   -0.2141    1.2594   -0.3741 S   0  0  0  0  0  1  0  0  0  0  0  0
    2.5947    0.6359    0.0081 N   0  0  0  0  0  2  0  0  0  0  0  0
    1.0682    2.5333   -0.0186 C   0  0  0  0  0  0  0  0  0  0  0  0
    0.9397    3.4033   -0.6945 H   0  0  0  0  0  0  0  0  0  0  0  0
    0.9067    2.9008    1.0196 H   0  0  0  0  0  0  0  0  0  0  0  0
    2.4550    1.9826   -0.1344 C   0  0  2  0  0  3  0  0  0  0  0  0
    3.8145    0.0450   -0.1306 C   0  0  0  0  0  0  0  0  0  0  0  0
    3.8596   -1.4465   -0.0138 C   0  0  0  0  0  0  0  0  0  0  0  0
    4.0992   -1.7269    1.0362 H   0  0  0  0  0  0  0  0  0  0  0  0
    4.6633   -1.8623   -0.6550 H   0  0  0  0  0  0  0  0  0  0  0  0
    3.5705    2.7948   -0.3914 C   0  0  0  0  0  0  0  0  0  0  0  0
    3.4343    3.8797   -0.5014 H   0  0  0  0  0  0  0  0  0  0  0  0
    4.8337    2.2053   -0.5194 C   0  0  0  0  0  0  0  0  0  0  0  0
    5.7167    2.8245   -0.7383 H   0  0  0  0  0  0  0  0  0  0  0  0
    4.9577    0.8172   -0.3897 C   0  0  0  0  0  0  0  0  0  0  0  0
    5.9315    0.3198   -0.4989 H   0  0  0  0  0  0  0  0  0  0  0  0
  1  9  1  0  0  0  0
  2  4  1  0  0  0  0
  4  6  1  0  0  0  0
  5  4  1  0  0  0  0
  7  4  1  6  0  0  0
  7  3  1  0  0  0  0
  8  9  1  0  0  0  0
  8  3  1  0  0  0  0
  9 10  1  0  0  0  0
 11  9  1  0  0  0  0
 12  7  1  0  0  0  0
 13 12  1  0  0  0  0
 14 12  2  0  0  0  0
 14 16  1  0  0  0  0
 15 14  1  0  0  0  0
 16  8  2  0  0  0  0
 17 16  1  0  0  0  0
M  END
