1,9,30
 OpenBabel05122313063D

 36 36  0  0  0  0  0  0  0  0999 V2000
    1.1373    0.4664    1.6100 N   0  0  0  0  0  0  0  0  0  0  0  0
    2.1178    0.4066    1.2341 H   0  0  0  0  0  0  0  0  0  0  0  0
    0.8407    1.7963    2.1281 C   0  0  0  0  0  0  0  0  0  0  0  0
    1.4020    1.9912    3.0754 H   0  0  0  0  0  0  0  0  0  0  0  0
   -0.2432    1.8606    2.3658 H   0  0  0  0  0  0  0  0  0  0  0  0
    1.2342    2.8785    1.1246 C   0  0  0  0  0  0  0  0  0  0  0  0
    2.2906    2.7482    0.8089 H   0  0  0  0  0  0  0  0  0  0  0  0
    1.1526    3.8841    1.5837 H   0  0  0  0  0  0  0  0  0  0  0  0
    0.2947    2.8943   -0.4490 S   0  0  0  0  0  0  0  0  0  0  0  0
   -1.3332    3.5339    0.1292 C   0  0  0  0  0  0  0  0  0  0  0  0
   -1.2022    3.8970    1.1690 H   0  0  0  0  0  0  0  0  0  0  0  0
   -1.5732    4.4109   -0.5047 H   0  0  0  0  0  0  0  0  0  0  0  0
   -2.4754    2.5386    0.0415 C   0  0  0  0  0  0  0  0  0  0  0  0
   -3.4151    3.0579    0.3578 H   0  0  0  0  0  0  0  0  0  0  0  0
   -2.6132    2.1912   -1.0076 H   0  0  0  0  0  0  0  0  0  0  0  0
   -2.2227    1.4261    0.8832 O   0  0  0  0  0  0  0  0  0  0  0  0
   -3.2611    0.4621    0.8017 C   0  0  0  0  0  0  0  0  0  0  0  0
   -3.4766    0.2154   -0.2628 H   0  0  0  0  0  0  0  0  0  0  0  0
   -4.1980    0.8544    1.2692 H   0  0  0  0  0  0  0  0  0  0  0  0
   -2.8517   -0.7964    1.5297 C   0  0  0  0  0  0  0  0  0  0  0  0
   -2.5542   -0.5612    2.5820 H   0  0  0  0  0  0  0  0  0  0  0  0
   -3.7334   -1.4788    1.5745 H   0  0  0  0  0  0  0  0  0  0  0  0
   -1.7813   -1.4244    0.8414 O   0  0  0  0  0  0  0  0  0  0  0  0
   -1.4984   -2.7240    1.3180 C   0  0  0  0  0  0  0  0  0  0  0  0
   -2.4098   -3.3673    1.2465 H   0  0  0  0  0  0  0  0  0  0  0  0
   -1.2169   -2.6928    2.4004 H   0  0  0  0  0  0  0  0  0  0  0  0
   -0.3993   -3.3647    0.4889 C   0  0  0  0  0  0  0  0  0  0  0  0
   -0.7321   -3.4719   -0.5636 H   0  0  0  0  0  0  0  0  0  0  0  0
   -0.1627   -4.3667    0.9012 H   0  0  0  0  0  0  0  0  0  0  0  0
    1.1567   -2.4127    0.3223 S   0  0  0  0  0  0  0  0  0  0  0  0
    1.5625   -1.9325    2.0445 C   0  0  0  0  0  0  0  0  0  0  0  0
    1.3249   -2.7770    2.7221 H   0  0  0  0  0  0  0  0  0  0  0  0
    2.6645   -1.8197    2.0144 H   0  0  0  0  0  0  0  0  0  0  0  0
    0.9218   -0.6330    2.5478 C   0  0  0  0  0  0  0  0  0  0  0  0
   -0.1674   -0.7525    2.7223 H   0  0  0  0  0  0  0  0  0  0  0  0
    1.3824   -0.4061    3.5407 H   0  0  0  0  0  0  0  0  0  0  0  0
  1  3  1  0  0  0  0
  1 34  1  0  0  0  0
  2  1  1  0  0  0  0
  3  5  1  0  0  0  0
  3  4  1  0  0  0  0
  6  8  1  0  0  0  0
  6  3  1  0  0  0  0
  7  6  1  0  0  0  0
  9 10  1  0  0  0  0
  9  6  1  0  0  0  0
 10 11  1  0  0  0  0
 12 10  1  0  0  0  0
 13 10  1  0  0  0  0
 13 14  1  0  0  0  0
 13 16  1  0  0  0  0
 15 13  1  0  0  0  0
 17 16  1  0  0  0  0
 17 19  1  0  0  0  0
 17 20  1  0  0  0  0
 18 17  1  0  0  0  0
 20 22  1  0  0  0  0
 20 21  1  0  0  0  0
 23 24  1  0  0  0  0
 23 20  1  0  0  0  0
 24 26  1  0  0  0  0
 25 24  1  0  0  0  0
 27 29  1  0  0  0  0
 27 24  1  0  0  0  0
 28 27  1  0  0  0  0
 30 27  1  0  0  0  0
 30 31  1  0  0  0  0
 31 34  1  0  0  0  0
 31 32  1  0  0  0  0
 33 31  1  0  0  0  0
 34 35  1  0  0  0  0
 34 36  1  0  0  0  0
M  END
