1,2,7
 OpenBabel05122313063D

 57 59  0  0  1  0  0  0  0  0999 V2000
    1.8147   -0.4296   -1.8052 S   0  0  0  0  0  1  0  0  0  0  0  0
   -1.8018   -1.0155   -0.8883 S   0  0  0  0  0  1  0  0  0  0  0  0
    3.4296    2.3119    0.5179 C   0  0  0  0  0  0  0  0  0  0  0  0
    3.3278    3.2256    1.1093 H   0  0  0  0  0  0  0  0  0  0  0  0
    4.0649    0.4060   -0.4438 N   0  0  0  0  0  0  0  0  0  0  0  0
   -2.3190    1.4009    0.4358 N   0  0  0  0  0  0  0  0  0  0  0  0
    0.0027    1.6040   -0.0173 N   0  0  0  0  0  2  0  0  0  0  0  0
   -4.2412    0.9460    1.4574 C   0  0  0  0  0  0  0  0  0  0  0  0
   -5.1495    0.9376    2.0654 H   0  0  0  0  0  0  0  0  0  0  0  0
   -3.8217   -0.1730    0.7512 N   0  0  0  0  0  0  0  0  0  0  0  0
    4.4863    1.4642    0.3524 C   0  0  0  0  0  0  0  0  0  0  0  0
    5.5028    1.5148    0.7507 H   0  0  0  0  0  0  0  0  0  0  0  0
    2.3578    1.7591   -0.1886 N   0  0  0  0  0  0  0  0  0  0  0  0
    4.9278   -0.7073   -0.8640 C   0  0  0  0  0  0  0  0  0  0  0  0
    5.9273   -0.2638   -1.0446 H   0  0  0  0  0  0  0  0  0  0  0  0
    4.5330   -1.0684   -1.8336 H   0  0  0  0  0  0  0  0  0  0  0  0
    0.9871    3.7381   -0.5703 C   0  0  0  0  0  0  0  0  0  0  0  0
    1.8906    4.3182   -0.8010 H   0  0  0  0  0  0  0  0  0  0  0  0
    5.0506   -1.8899    0.1354 C   0  0  0  0  0  0  0  0  0  0  0  0
   -5.7242   -1.5153   -0.2934 C   0  0  0  0  0  0  0  0  0  0  0  0
    1.0795    2.3688   -0.2788 C   0  0  2  0  0  3  0  0  0  0  0  0
   -5.2462   -1.2383   -1.7287 C   0  0  0  0  0  0  0  0  0  0  0  0
   -6.0985   -1.3114   -2.4332 H   0  0  0  0  0  0  0  0  0  0  0  0
   -4.4741   -1.9647   -2.0502 H   0  0  0  0  0  0  0  0  0  0  0  0
   -4.8210   -0.2186   -1.8337 H   0  0  0  0  0  0  0  0  0  0  0  0
   -1.2101    2.1796    0.0017 C   0  0  0  0  0  0  0  0  0  0  0  0
   -0.2859    4.3213   -0.5916 C   0  0  0  0  0  0  0  0  0  0  0  0
   -0.4042    5.3843   -0.8465 H   0  0  0  0  0  0  0  0  0  0  0  0
    2.7540    0.5658   -0.7823 C   0  0  1  0  0  3  0  0  0  0  0  0
   -6.8231   -0.5092    0.0927 C   0  0  0  0  0  0  0  0  0  0  0  0
   -7.1656   -0.6552    1.1386 H   0  0  0  0  0  0  0  0  0  0  0  0
   -7.7057   -0.6402   -0.5644 H   0  0  0  0  0  0  0  0  0  0  0  0
   -6.4890    0.5419   -0.0264 H   0  0  0  0  0  0  0  0  0  0  0  0
   -1.4089    3.5383   -0.3027 C   0  0  0  0  0  0  0  0  0  0  0  0
   -2.4210    3.9632   -0.3281 H   0  0  0  0  0  0  0  0  0  0  0  0
    5.3746   -1.3853    1.5517 C   0  0  0  0  0  0  0  0  0  0  0  0
    5.5488   -2.2470    2.2261 H   0  0  0  0  0  0  0  0  0  0  0  0
    4.5325   -0.8044    1.9799 H   0  0  0  0  0  0  0  0  0  0  0  0
    6.2942   -0.7627    1.5723 H   0  0  0  0  0  0  0  0  0  0  0  0
    6.2092   -2.7572   -0.3938 C   0  0  0  0  0  0  0  0  0  0  0  0
    6.0148   -3.1079   -1.4282 H   0  0  0  0  0  0  0  0  0  0  0  0
    6.3347   -3.6541    0.2441 H   0  0  0  0  0  0  0  0  0  0  0  0
    7.1715   -2.2044   -0.3926 H   0  0  0  0  0  0  0  0  0  0  0  0
   -2.6335    0.0816    0.1228 C   0  0  1  0  0  3  0  0  0  0  0  0
   -3.3155    1.9290    1.2674 C   0  0  0  0  0  0  0  0  0  0  0  0
   -3.2421    2.9317    1.6958 H   0  0  0  0  0  0  0  0  0  0  0  0
    3.7571   -2.7227    0.1673 C   0  0  0  0  0  0  0  0  0  0  0  0
    2.8985   -2.1432    0.5593 H   0  0  0  0  0  0  0  0  0  0  0  0
    3.8932   -3.5960    0.8367 H   0  0  0  0  0  0  0  0  0  0  0  0
    3.4974   -3.1013   -0.8415 H   0  0  0  0  0  0  0  0  0  0  0  0
   -4.5376   -1.4524    0.7042 C   0  0  0  0  0  0  0  0  0  0  0  0
   -4.8961   -1.6569    1.7332 H   0  0  0  0  0  0  0  0  0  0  0  0
   -3.7791   -2.2167    0.4429 H   0  0  0  0  0  0  0  0  0  0  0  0
   -6.2792   -2.9488   -0.1931 C   0  0  0  0  0  0  0  0  0  0  0  0
   -5.5113   -3.7010   -0.4657 H   0  0  0  0  0  0  0  0  0  0  0  0
   -7.1360   -3.0769   -0.8836 H   0  0  0  0  0  0  0  0  0  0  0  0
   -6.6367   -3.1779    0.8318 H   0  0  0  0  0  0  0  0  0  0  0  0
  3  4  1  0  0  0  0
  5 11  1  0  0  0  0
  6 45  1  0  0  0  0
  7 26  1  0  0  0  0
  8  9  1  0  0  0  0
 10  8  1  0  0  0  0
 11  3  2  0  0  0  0
 11 12  1  0  0  0  0
 13  3  1  0  0  0  0
 14  5  1  0  0  0  0
 14 19  1  0  0  0  0
 15 14  1  0  0  0  0
 16 14  1  0  0  0  0
 17 21  1  0  0  0  0
 18 17  1  0  0  0  0
 19 47  1  0  0  0  0
 19 36  1  0  0  0  0
 20 54  1  0  0  0  0
 20 30  1  0  0  0  0
 20 51  1  0  0  0  0
 21 13  1  1  0  0  0
 21  7  1  0  0  0  0
 22 20  1  0  0  0  0
 23 22  1  0  0  0  0
 24 22  1  0  0  0  0
 25 22  1  0  0  0  0
 26  6  1  0  0  0  0
 27 17  2  0  0  0  0
 27 34  1  0  0  0  0
 28 27  1  0  0  0  0
 29  1  1  6  0  0  0
 29  5  1  0  0  0  0
 29 13  1  0  0  0  0
 30 31  1  0  0  0  0
 32 30  1  0  0  0  0
 33 30  1  0  0  0  0
 34 26  2  0  0  0  0
 35 34  1  0  0  0  0
 36 39  1  0  0  0  0
 36 38  1  0  0  0  0
 36 37  1  0  0  0  0
 40 43  1  0  0  0  0
 40 19  1  0  0  0  0
 40 42  1  0  0  0  0
 41 40  1  0  0  0  0
 44  2  1  6  0  0  0
 44  6  1  0  0  0  0
 44 10  1  0  0  0  0
 45  8  2  0  0  0  0
 45 46  1  0  0  0  0
 47 48  1  0  0  0  0
 47 49  1  0  0  0  0
 50 47  1  0  0  0  0
 51 10  1  0  0  0  0
 51 52  1  0  0  0  0
 53 51  1  0  0  0  0
 54 57  1  0  0  0  0
 55 54  1  0  0  0  0
 56 54  1  0  0  0  0
M  END
