1,2,3
 OpenBabel05122313063D

 22 21  0  0  0  0  0  0  0  0999 V2000
   -1.0715    2.3090    0.3986 S   0  0  0  0  0  1  0  0  0  0  0  0
   -1.2141   -2.3124   -0.5248 S   0  0  0  0  0  1  0  0  0  0  0  0
   -3.1496    0.0401    0.0102 N   0  0  0  0  0  0  0  0  0  0  0  0
   -2.9021    2.4568    0.6221 C   0  0  0  0  0  0  0  0  0  0  0  0
   -3.0883    3.1747    1.4463 H   0  0  0  0  0  0  0  0  0  0  0  0
   -3.3811    2.8807   -0.2867 H   0  0  0  0  0  0  0  0  0  0  0  0
   -3.4914    1.1101    1.0035 C   0  0  0  0  0  0  0  0  0  0  0  0
   -3.5518   -1.2970    0.5555 C   0  0  0  0  0  0  0  0  0  0  0  0
   -3.0476   -2.4408   -0.3061 C   0  0  0  0  0  0  0  0  0  0  0  0
   -3.5614   -2.4815   -1.2906 H   0  0  0  0  0  0  0  0  0  0  0  0
   -3.2633   -3.3988    0.2082 H   0  0  0  0  0  0  0  0  0  0  0  0
   -3.7548    0.3072   -1.3454 C   0  0  0  0  0  0  0  0  0  0  0  0
   -5.2794    0.3304   -1.4049 C   0  0  0  0  0  0  0  0  0  0  0  0
   -5.5861    0.5475   -2.4470 H   0  0  0  0  0  0  0  0  0  0  0  0
   -5.7204    1.1184   -0.7631 H   0  0  0  0  0  0  0  0  0  0  0  0
   -5.7324   -0.6414   -1.1263 H   0  0  0  0  0  0  0  0  0  0  0  0
   -4.5968    1.1578    1.1252 H   0  0  0  0  0  0  0  0  0  0  0  0
   -3.0472    0.7783    1.9619 H   0  0  0  0  0  0  0  0  0  0  0  0
   -4.6574   -1.3247    0.6805 H   0  0  0  0  0  0  0  0  0  0  0  0
   -3.0835   -1.3616    1.5565 H   0  0  0  0  0  0  0  0  0  0  0  0
   -3.3392    1.2719   -1.6926 H   0  0  0  0  0  0  0  0  0  0  0  0
   -3.3519   -0.4633   -2.0297 H   0  0  0  0  0  0  0  0  0  0  0  0
  1  4  1  0  0  0  0
  2  9  1  0  0  0  0
  3  8  1  0  0  0  0
  3  7  1  0  0  0  0
  4  7  1  0  0  0  0
  4  5  1  0  0  0  0
  6  4  1  0  0  0  0
  7 17  1  0  0  0  0
  7 18  1  0  0  0  0
  8 19  1  0  0  0  0
  8 20  1  0  0  0  0
  9 11  1  0  0  0  0
  9  8  1  0  0  0  0
 10  9  1  0  0  0  0
 12  3  1  0  0  0  0
 13 12  1  0  0  0  0
 13 16  1  0  0  0  0
 13 15  1  0  0  0  0
 14 13  1  0  0  0  0
 21 12  1  0  0  0  0
 22 12  1  0  0  0  0
M  END
