1,2,5
 OpenBabel05122313063D

 48 49  0  0  1  0  0  0  0  0999 V2000
   -2.6367   -1.1108   -0.2110 S   0  0  0  0  0  1  0  0  0  0  0  0
    1.9794   -1.9517   -0.0828 S   0  0  0  0  0  1  0  0  0  0  0  0
    6.5337    0.6409   -0.6337 O   0  0  0  0  0  0  0  0  0  0  0  0
   -1.8499    1.5536   -0.2897 N   0  0  0  0  0  0  0  0  0  0  0  0
    0.3073    0.5180   -0.1223 N   0  0  0  0  0  2  0  0  0  0  0  0
    1.6340    0.7694   -0.1389 N   0  0  0  0  0  0  0  0  0  0  0  0
    3.8186    0.0287   -0.1514 N   0  0  0  0  0  0  0  0  0  0  0  0
   -4.0030    1.0695   -0.8951 N   0  0  0  0  0  0  0  0  0  0  0  0
   -0.5425    1.5627   -0.0243 C   0  0  1  0  0  3  0  0  0  0  0  0
   -2.7703    0.6303   -0.4851 C   0  0  0  0  0  0  0  0  0  0  0  0
    2.4724   -0.2368   -0.1215 C   0  0  0  0  0  0  0  0  0  0  0  0
   -0.0089    2.9053    0.3756 C   0  0  0  0  0  0  0  0  0  0  0  0
    0.9301    3.0564    1.4191 C   0  0  0  0  0  0  0  0  0  0  0  0
    1.3312    2.1665    1.9224 H   0  0  0  0  0  0  0  0  0  0  0  0
    1.3369    4.3334    1.8250 C   0  0  0  0  0  0  0  0  0  0  0  0
    2.0561    4.4373    2.6517 H   0  0  0  0  0  0  0  0  0  0  0  0
    0.8304    5.4771    1.1844 C   0  0  0  0  0  0  0  0  0  0  0  0
    1.1615    6.4787    1.4985 H   0  0  0  0  0  0  0  0  0  0  0  0
   -0.1043    5.3356    0.1472 C   0  0  0  0  0  0  0  0  0  0  0  0
   -0.5077    6.2258   -0.3589 H   0  0  0  0  0  0  0  0  0  0  0  0
   -0.5307    4.0594   -0.2451 C   0  0  0  0  0  0  0  0  0  0  0  0
   -1.2723    3.9374   -1.0469 H   0  0  0  0  0  0  0  0  0  0  0  0
    4.8364   -1.0066   -0.0353 C   0  0  0  0  0  0  0  0  0  0  0  0
    4.4091   -1.9812   -0.3458 H   0  0  0  0  0  0  0  0  0  0  0  0
    5.1685   -1.1041    1.0257 H   0  0  0  0  0  0  0  0  0  0  0  0
    4.3109    1.3937    0.0313 C   0  0  0  0  0  0  0  0  0  0  0  0
    4.5903    1.5499    1.1003 H   0  0  0  0  0  0  0  0  0  0  0  0
    3.4954    2.0978   -0.2179 H   0  0  0  0  0  0  0  0  0  0  0  0
    6.0340   -0.6532   -0.9204 C   0  0  0  0  0  0  0  0  0  0  0  0
    6.8611   -1.3692   -0.7441 H   0  0  0  0  0  0  0  0  0  0  0  0
    5.7262   -0.7239   -1.9936 H   0  0  0  0  0  0  0  0  0  0  0  0
    5.5328    1.6216   -0.8564 C   0  0  0  0  0  0  0  0  0  0  0  0
    5.2147    1.6149   -1.9287 H   0  0  0  0  0  0  0  0  0  0  0  0
    5.9882    2.6068   -0.6328 H   0  0  0  0  0  0  0  0  0  0  0  0
   -4.2456    2.5139   -1.0194 C   0  0  0  0  0  0  0  0  0  0  0  0
   -5.1463    2.6252   -1.6558 H   0  0  0  0  0  0  0  0  0  0  0  0
   -3.3941    2.9597   -1.5703 H   0  0  0  0  0  0  0  0  0  0  0  0
   -4.4345    3.2385    0.3138 C   0  0  0  0  0  0  0  0  0  0  0  0
   -5.2935    2.8327    0.8833 H   0  0  0  0  0  0  0  0  0  0  0  0
   -4.6204    4.3166    0.1338 H   0  0  0  0  0  0  0  0  0  0  0  0
   -3.5217    3.1468    0.9327 H   0  0  0  0  0  0  0  0  0  0  0  0
   -5.1209    0.1542   -1.1231 C   0  0  0  0  0  0  0  0  0  0  0  0
   -4.7060   -0.7943   -1.5249 H   0  0  0  0  0  0  0  0  0  0  0  0
   -5.7465    0.5965   -1.9259 H   0  0  0  0  0  0  0  0  0  0  0  0
   -5.9682   -0.1330    0.1192 C   0  0  0  0  0  0  0  0  0  0  0  0
   -5.3473   -0.5720    0.9251 H   0  0  0  0  0  0  0  0  0  0  0  0
   -6.7687   -0.8589   -0.1276 H   0  0  0  0  0  0  0  0  0  0  0  0
   -6.4492    0.7861    0.5085 H   0  0  0  0  0  0  0  0  0  0  0  0
  5  9  1  0  0  0  0
  6  5  1  0  0  0  0
  6 11  2  0  0  0  0
  7 11  1  0  0  0  0
  7 23  1  0  0  0  0
  7 26  1  0  0  0  0
  8 10  1  0  0  0  0
  9  4  1  6  0  0  0
  9 12  1  0  0  0  0
 10  4  2  0  0  0  0
 10  1  1  0  0  0  0
 11  2  1  0  0  0  0
 12 13  1  0  0  0  0
 13 15  2  0  0  0  0
 13 14  1  0  0  0  0
 15 16  1  0  0  0  0
 17 18  1  0  0  0  0
 17 15  1  0  0  0  0
 19 17  2  0  0  0  0
 20 19  1  0  0  0  0
 21 19  1  0  0  0  0
 21 12  2  0  0  0  0
 22 21  1  0  0  0  0
 23 25  1  0  0  0  0
 24 23  1  0  0  0  0
 26 27  1  0  0  0  0
 28 26  1  0  0  0  0
 29 30  1  0  0  0  0
 29  3  1  0  0  0  0
 29 23  1  0  0  0  0
 31 29  1  0  0  0  0
 32  3  1  0  0  0  0
 32 34  1  0  0  0  0
 32 26  1  0  0  0  0
 33 32  1  0  0  0  0
 35  8  1  0  0  0  0
 35 38  1  0  0  0  0
 36 35  1  0  0  0  0
 37 35  1  0  0  0  0
 38 39  1  0  0  0  0
 38 41  1  0  0  0  0
 40 38  1  0  0  0  0
 42  8  1  0  0  0  0
 42 45  1  0  0  0  0
 43 42  1  0  0  0  0
 44 42  1  0  0  0  0
 45 48  1  0  0  0  0
 45 46  1  0  0  0  0
 47 45  1  0  0  0  0
M  END
