1,2,6
 OpenBabel05122313063D

 49 51  0  0  1  0  0  0  0  0999 V2000
    1.8843   -1.7907   -0.4637 S   0  0  0  0  0  1  0  0  0  0  0  0
   -1.8835   -1.7907    0.4555 S   0  0  0  0  0  1  0  0  0  0  0  0
    4.2827   -0.5079   -0.0012 N   0  0  0  0  0  0  0  0  0  0  0  0
    4.9414    0.6580   -0.2470 N   0  0  0  0  0  0  0  0  0  0  0  0
    2.8846    0.7387   -1.0828 N   0  0  0  0  0  0  0  0  0  0  0  0
    0.0013    1.3566   -0.0001 N   0  0  0  0  0  2  0  0  0  0  0  0
   -2.8829    0.7367    1.0843 N   0  0  0  0  0  0  0  0  0  0  0  0
   -4.9420    0.6574    0.2539 N   0  0  0  0  0  0  0  0  0  0  0  0
   -4.2833   -0.5073    0.0028 N   0  0  0  0  0  0  0  0  0  0  0  0
    0.7971    2.0477   -0.8586 C   0  0  1  0  0  3  0  0  0  0  0  0
    0.8168    3.4502   -0.8841 C   0  0  0  0  0  0  0  0  0  0  0  0
    1.4700    3.9763   -1.5956 H   0  0  0  0  0  0  0  0  0  0  0  0
   -0.0016    4.1652   -0.0002 C   0  0  0  0  0  0  0  0  0  0  0  0
   -0.0027    5.2650   -0.0003 H   0  0  0  0  0  0  0  0  0  0  0  0
   -0.8184    3.4486    0.8838 C   0  0  0  0  0  0  0  0  0  0  0  0
   -1.4725    3.9735    1.5954 H   0  0  0  0  0  0  0  0  0  0  0  0
   -0.7958    2.0461    0.8584 C   0  0  0  0  0  0  0  0  0  0  0  0
    1.6956    1.2342   -1.7692 C   0  0  0  0  0  0  0  0  0  0  0  0
    1.1508    0.3424   -2.1446 H   0  0  0  0  0  0  0  0  0  0  0  0
    2.0252    1.8413   -2.6331 H   0  0  0  0  0  0  0  0  0  0  0  0
    3.0117   -0.5123   -0.4953 C   0  0  1  0  0  3  0  0  0  0  0  0
    4.0805    1.4013   -0.8943 C   0  0  0  0  0  0  0  0  0  0  0  0
    4.2766    2.4193   -1.2514 H   0  0  0  0  0  0  0  0  0  0  0  0
    4.9613   -1.6168    0.7010 C   0  0  0  0  0  0  0  0  0  0  0  0
    4.1526   -2.3633    0.8450 H   0  0  0  0  0  0  0  0  0  0  0  0
    6.0510   -2.2041   -0.1968 C   0  0  0  0  0  0  0  0  0  0  0  0
    5.6298   -2.5629   -1.1563 H   0  0  0  0  0  0  0  0  0  0  0  0
    6.5290   -3.0636    0.3113 H   0  0  0  0  0  0  0  0  0  0  0  0
    6.8320   -1.4474   -0.4100 H   0  0  0  0  0  0  0  0  0  0  0  0
    5.4747   -1.1342    2.0566 C   0  0  0  0  0  0  0  0  0  0  0  0
    6.2383   -0.3421    1.9294 H   0  0  0  0  0  0  0  0  0  0  0  0
    5.9380   -1.9812    2.5979 H   0  0  0  0  0  0  0  0  0  0  0  0
    4.6507   -0.7362    2.6807 H   0  0  0  0  0  0  0  0  0  0  0  0
   -1.6925    1.2309    1.7692 C   0  0  0  0  0  0  0  0  0  0  0  0
   -1.1468    0.3384    2.1418 H   0  0  0  0  0  0  0  0  0  0  0  0
   -2.0204    1.8363    2.6350 H   0  0  0  0  0  0  0  0  0  0  0  0
   -3.0110   -0.5127    0.4936 C   0  0  2  0  0  3  0  0  0  0  0  0
   -4.0797    1.3992    0.9011 C   0  0  0  0  0  0  0  0  0  0  0  0
   -4.2754    2.4160    1.2618 H   0  0  0  0  0  0  0  0  0  0  0  0
   -4.9633   -1.6149   -0.7003 C   0  0  0  0  0  0  0  0  0  0  0  0
   -4.1540   -2.3594   -0.8511 H   0  0  0  0  0  0  0  0  0  0  0  0
   -5.4845   -1.1282   -2.0514 C   0  0  0  0  0  0  0  0  0  0  0  0
   -6.2491   -0.3382   -1.9174 H   0  0  0  0  0  0  0  0  0  0  0  0
   -5.9487   -1.9741   -2.5936 H   0  0  0  0  0  0  0  0  0  0  0  0
   -4.6644   -0.7261   -2.6781 H   0  0  0  0  0  0  0  0  0  0  0  0
   -6.0474   -2.2077    0.2008 C   0  0  0  0  0  0  0  0  0  0  0  0
   -5.6206   -2.5694    1.1567 H   0  0  0  0  0  0  0  0  0  0  0  0
   -6.5263   -3.0662   -0.3081 H   0  0  0  0  0  0  0  0  0  0  0  0
   -6.8286   -1.4533    0.4208 H   0  0  0  0  0  0  0  0  0  0  0  0
  3 24  1  0  0  0  0
  4  3  1  0  0  0  0
  5 22  1  0  0  0  0
  5 21  1  0  0  0  0
  6 17  1  0  0  0  0
  7 34  1  0  0  0  0
  8 38  2  0  0  0  0
  9  8  1  0  0  0  0
  9 37  1  0  0  0  0
 10 18  1  1  0  0  0
 10  6  1  0  0  0  0
 11 10  1  0  0  0  0
 11 13  2  0  0  0  0
 12 11  1  0  0  0  0
 13 15  1  0  0  0  0
 14 13  1  0  0  0  0
 15 16  1  0  0  0  0
 17 15  2  0  0  0  0
 17 34  1  0  0  0  0
 18  5  1  0  0  0  0
 19 18  1  0  0  0  0
 20 18  1  0  0  0  0
 21  1  1  6  0  0  0
 21  3  1  0  0  0  0
 22  4  2  0  0  0  0
 23 22  1  0  0  0  0
 24 25  1  0  0  0  0
 24 30  1  0  0  0  0
 26 28  1  0  0  0  0
 26 24  1  0  0  0  0
 27 26  1  0  0  0  0
 29 26  1  0  0  0  0
 30 32  1  0  0  0  0
 30 33  1  0  0  0  0
 31 30  1  0  0  0  0
 34 35  1  0  0  0  0
 34 36  1  0  0  0  0
 37  2  1  1  0  0  0
 37  7  1  0  0  0  0
 38  7  1  0  0  0  0
 38 39  1  0  0  0  0
 40  9  1  0  0  0  0
 40 46  1  0  0  0  0
 41 40  1  0  0  0  0
 42 43  1  0  0  0  0
 42 40  1  0  0  0  0
 44 42  1  0  0  0  0
 45 42  1  0  0  0  0
 46 49  1  0  0  0  0
 46 47  1  0  0  0  0
 48 46  1  0  0  0  0
M  END
