1,2,3
 OpenBabel05122313063D

 47 49  0  0  0  0  0  0  0  0999 V2000
   -2.9032   -1.2979    2.1512 S   0  0  0  0  0  0  0  0  0  0  0  0
   -2.7365   -1.6443   -1.5894 S   0  0  0  0  0  0  0  0  0  0  0  0
   -0.3988   -2.3801    0.4673 N   0  0  0  0  0  0  0  0  0  0  0  0
   -0.5224   -2.7720    1.8831 C   0  0  0  0  0  0  0  0  0  0  0  0
   -0.0215   -3.7476    2.0910 H   0  0  0  0  0  0  0  0  0  0  0  0
    0.0160   -2.0103    2.4842 H   0  0  0  0  0  0  0  0  0  0  0  0
   -1.9659   -2.8822    2.3712 C   0  0  0  0  0  0  0  0  0  0  0  0
   -1.9723   -3.1437    3.4480 H   0  0  0  0  0  0  0  0  0  0  0  0
   -2.5212   -3.6770    1.8355 H   0  0  0  0  0  0  0  0  0  0  0  0
   -4.5770   -1.8901    1.6187 C   0  0  0  0  0  0  0  0  0  0  0  0
   -4.6714   -2.9333    1.9849 H   0  0  0  0  0  0  0  0  0  0  0  0
   -5.2828   -1.2800    2.2162 H   0  0  0  0  0  0  0  0  0  0  0  0
   -4.9325   -1.7797    0.1358 C   0  0  0  0  0  0  0  0  0  0  0  0
   -5.9956   -2.0931    0.0538 H   0  0  0  0  0  0  0  0  0  0  0  0
   -4.9182   -0.7139   -0.1808 H   0  0  0  0  0  0  0  0  0  0  0  0
   -4.1109   -2.6288   -0.8483 C   0  0  0  0  0  0  0  0  0  0  0  0
   -4.7432   -2.9775   -1.6879 H   0  0  0  0  0  0  0  0  0  0  0  0
   -3.6875   -3.5276   -0.3557 H   0  0  0  0  0  0  0  0  0  0  0  0
   -1.3914   -2.8791   -1.7858 C   0  0  0  0  0  0  0  0  0  0  0  0
   -1.7401   -3.7038   -2.4400 H   0  0  0  0  0  0  0  0  0  0  0  0
   -0.6159   -2.3199   -2.3494 H   0  0  0  0  0  0  0  0  0  0  0  0
   -0.8476   -3.4292   -0.4673 C   0  0  0  0  0  0  0  0  0  0  0  0
   -1.6356   -4.0303    0.0277 H   0  0  0  0  0  0  0  0  0  0  0  0
   -0.0247   -4.1449   -0.6982 H   0  0  0  0  0  0  0  0  0  0  0  0
    0.9474   -1.8521    0.1309 C   0  0  0  0  0  0  0  0  0  0  0  0
    1.0576   -0.8816    0.6521 H   0  0  0  0  0  0  0  0  0  0  0  0
    0.9515   -1.6076   -0.9487 H   0  0  0  0  0  0  0  0  0  0  0  0
    2.1617   -2.7444    0.4535 C   0  0  0  0  0  0  0  0  0  0  0  0
    2.0322   -3.7511    0.0054 H   0  0  0  0  0  0  0  0  0  0  0  0
    2.2464   -2.8940    1.5505 H   0  0  0  0  0  0  0  0  0  0  0  0
    3.4269   -2.1239   -0.0982 C   0  0  0  0  0  0  0  0  0  0  0  0
    4.0051   -2.6452   -1.2526 C   0  0  0  0  0  0  0  0  0  0  0  0
    3.5636   -3.5425   -1.7150 H   0  0  0  0  0  0  0  0  0  0  0  0
    5.1510   -2.0565   -1.8460 C   0  0  0  0  0  0  0  0  0  0  0  0
    5.5869   -2.5068   -2.7501 H   0  0  0  0  0  0  0  0  0  0  0  0
    5.7149   -0.9219   -1.2871 C   0  0  0  0  0  0  0  0  0  0  0  0
    6.6014   -0.4529   -1.7413 H   0  0  0  0  0  0  0  0  0  0  0  0
    5.1549   -0.3380   -0.1128 C   0  0  0  0  0  0  0  0  0  0  0  0
    5.7018    0.8510    0.4547 C   0  0  0  0  0  0  0  0  0  0  0  0
    6.5795    1.3076   -0.0285 H   0  0  0  0  0  0  0  0  0  0  0  0
    5.1465    1.4253    1.5876 C   0  0  0  0  0  0  0  0  0  0  0  0
    5.5761    2.3457    2.0101 H   0  0  0  0  0  0  0  0  0  0  0  0
    4.0284    0.8147    2.2132 C   0  0  0  0  0  0  0  0  0  0  0  0
    3.5946    1.2637    3.1182 H   0  0  0  0  0  0  0  0  0  0  0  0
    3.4761   -0.3448    1.6883 C   0  0  0  0  0  0  0  0  0  0  0  0
    2.6175   -0.7999    2.2023 H   0  0  0  0  0  0  0  0  0  0  0  0
    4.0004   -0.9502    0.5059 C   0  0  0  0  0  0  0  0  0  0  0  0
  1  7  1  0  0  0  0
  2 16  1  0  0  0  0
  3  4  1  0  0  0  0
  4  5  1  0  0  0  0
  4  7  1  0  0  0  0
  4  6  1  0  0  0  0
  7  8  1  0  0  0  0
  9  7  1  0  0  0  0
 10 11  1  0  0  0  0
 10  1  1  0  0  0  0
 10 12  1  0  0  0  0
 13 10  1  0  0  0  0
 14 13  1  0  0  0  0
 15 13  1  0  0  0  0
 16 18  1  0  0  0  0
 16 13  1  0  0  0  0
 17 16  1  0  0  0  0
 19  2  1  0  0  0  0
 19 22  1  0  0  0  0
 20 19  1  0  0  0  0
 21 19  1  0  0  0  0
 22 23  1  0  0  0  0
 22  3  1  0  0  0  0
 24 22  1  0  0  0  0
 25 28  1  0  0  0  0
 25  3  1  0  0  0  0
 25 26  1  0  0  0  0
 27 25  1  0  0  0  0
 28 30  1  0  0  0  0
 29 28  1  0  0  0  0
 31 28  1  0  0  0  0
 31 47  1  0  0  0  0
 32 31  2  0  0  0  0
 33 32  1  0  0  0  0
 34 36  2  0  0  0  0
 34 32  1  0  0  0  0
 35 34  1  0  0  0  0
 36 38  1  0  0  0  0
 37 36  1  0  0  0  0
 38 39  2  0  0  0  0
 38 47  1  0  0  0  0
 39 41  1  0  0  0  0
 40 39  1  0  0  0  0
 41 42  1  0  0  0  0
 41 43  2  0  0  0  0
 43 44  1  0  0  0  0
 45 46  1  0  0  0  0
 45 43  1  0  0  0  0
 47 45  2  0  0  0  0
M  END
