1,2,3
 OpenBabel05122313063D

 38 40  0  0  0  0  0  0  0  0999 V2000
    0.8570    1.1011   -1.4584 S   0  0  0  0  0  0  0  0  0  0  0  0
    1.0310   -0.2418    1.4124 S   0  0  0  0  0  0  0  0  0  0  0  0
    1.9032   -1.6787   -1.4347 N   0  0  0  0  0  0  0  0  0  0  0  0
    2.1044   -2.9818    1.9793 N   0  0  0  0  0  0  0  0  0  0  0  0
    2.5906    0.6400   -1.8095 C   0  0  0  0  0  0  0  0  0  0  0  0
    2.9357   -0.7235   -1.7308 C   0  0  0  0  0  0  0  0  0  0  0  0
    4.2731   -1.1033   -1.9269 C   0  0  0  0  0  0  0  0  0  0  0  0
    5.2473   -0.1365   -2.2083 C   0  0  0  0  0  0  0  0  0  0  0  0
    4.8894    1.2169   -2.3208 C   0  0  0  0  0  0  0  0  0  0  0  0
    3.5555    1.6051   -2.1301 C   0  0  0  0  0  0  0  0  0  0  0  0
    1.1472    2.1577    0.0008 C   0  0  0  0  0  0  0  0  0  0  0  0
    1.1926    1.5605    1.2696 C   0  0  0  0  0  0  0  0  0  0  0  0
    1.3303    2.3515    2.4181 C   0  0  0  0  0  0  0  0  0  0  0  0
    1.4241    3.7474    2.2870 C   0  0  0  0  0  0  0  0  0  0  0  0
    1.3821    4.3431    1.0169 C   0  0  0  0  0  0  0  0  0  0  0  0
    1.2399    3.5484   -0.1332 C   0  0  0  0  0  0  0  0  0  0  0  0
    2.7964   -0.6850    1.4744 C   0  0  0  0  0  0  0  0  0  0  0  0
    3.0933   -2.0523    1.7642 C   0  0  0  0  0  0  0  0  0  0  0  0
    4.4661   -2.4078    1.8595 C   0  0  0  0  0  0  0  0  0  0  0  0
    5.4843   -1.4687    1.6778 C   0  0  0  0  0  0  0  0  0  0  0  0
    5.1722   -0.1322    1.3806 C   0  0  0  0  0  0  0  0  0  0  0  0
    3.8273    0.2475    1.2798 C   0  0  0  0  0  0  0  0  0  0  0  0
    2.2540   -2.5087   -0.9362 H   0  0  0  0  0  0  0  0  0  0  0  0
    1.4116   -1.9968   -2.3040 H   0  0  0  0  0  0  0  0  0  0  0  0
    2.4183   -3.9461    2.0933 H   0  0  0  0  0  0  0  0  0  0  0  0
    1.2013   -2.9197    1.4671 H   0  0  0  0  0  0  0  0  0  0  0  0
    4.5477   -2.1651   -1.8352 H   0  0  0  0  0  0  0  0  0  0  0  0
    6.2951   -0.4437   -2.3416 H   0  0  0  0  0  0  0  0  0  0  0  0
    5.6525    1.9754   -2.5500 H   0  0  0  0  0  0  0  0  0  0  0  0
    3.2662    2.6646   -2.1976 H   0  0  0  0  0  0  0  0  0  0  0  0
    1.3635    1.8692    3.4067 H   0  0  0  0  0  0  0  0  0  0  0  0
    1.5200    4.3734    3.1868 H   0  0  0  0  0  0  0  0  0  0  0  0
    1.4367    5.4376    0.9187 H   0  0  0  0  0  0  0  0  0  0  0  0
    1.1665    4.0060   -1.1309 H   0  0  0  0  0  0  0  0  0  0  0  0
    4.7158   -3.4569    2.0858 H   0  0  0  0  0  0  0  0  0  0  0  0
    6.5343   -1.7883    1.7618 H   0  0  0  0  0  0  0  0  0  0  0  0
    5.9647    0.6127    1.2211 H   0  0  0  0  0  0  0  0  0  0  0  0
    3.5778    1.2898    1.0421 H   0  0  0  0  0  0  0  0  0  0  0  0
  1 11  1  0  0  0  0
  2 17  1  0  0  0  0
  3 23  1  0  0  0  0
  4 25  1  0  0  0  0
  5  6  1  0  0  0  0
  5  1  1  0  0  0  0
  6  3  1  0  0  0  0
  7 27  1  0  0  0  0
  7  6  2  0  0  0  0
  8  7  1  0  0  0  0
  9  8  2  0  0  0  0
  9 10  1  0  0  0  0
 10  5  2  0  0  0  0
 11 12  1  0  0  0  0
 12  2  1  0  0  0  0
 12 13  2  0  0  0  0
 13 31  1  0  0  0  0
 14 13  1  0  0  0  0
 14 32  1  0  0  0  0
 15 14  2  0  0  0  0
 16 11  2  0  0  0  0
 16 15  1  0  0  0  0
 17 18  1  0  0  0  0
 18 19  2  0  0  0  0
 18  4  1  0  0  0  0
 19 35  1  0  0  0  0
 20 36  1  0  0  0  0
 20 19  1  0  0  0  0
 21 20  2  0  0  0  0
 22 21  1  0  0  0  0
 22 17  2  0  0  0  0
 24  3  1  0  0  0  0
 26  4  1  0  0  0  0
 28  8  1  0  0  0  0
 29  9  1  0  0  0  0
 30 10  1  0  0  0  0
 33 15  1  0  0  0  0
 34 16  1  0  0  0  0
 37 21  1  0  0  0  0
 38 22  1  0  0  0  0
M  END
