1,3,4
 OpenBabel05122313063D

 29 29  0  0  0  0  0  0  0  0999 V2000
   -1.0873    1.4571    1.0591 N   0  0  0  0  0  0  0  0  0  0  0  0
   -1.9906    0.9777    1.1995 H   0  0  0  0  0  0  0  0  0  0  0  0
    0.9651   -0.8469    2.2149 S   0  0  0  0  0  0  0  0  0  0  0  0
   -0.2908    1.5161   -2.1268 S   0  0  0  0  0  0  0  0  0  0  0  0
    2.0086    1.3801    0.1475 O   0  0  0  0  0  0  0  0  0  0  0  0
   -0.4296    1.6319    2.3502 C   0  0  0  0  0  0  0  0  0  0  0  0
   -1.0279    2.2805    3.0368 H   0  0  0  0  0  0  0  0  0  0  0  0
    0.5299    2.1600    2.1673 H   0  0  0  0  0  0  0  0  0  0  0  0
   -0.1734    0.3093    3.0682 C   0  0  0  0  0  0  0  0  0  0  0  0
   -1.1098   -0.2774    3.1715 H   0  0  0  0  0  0  0  0  0  0  0  0
    0.2230    0.4982    4.0859 H   0  0  0  0  0  0  0  0  0  0  0  0
    2.5206    0.1422    2.1581 C   0  0  0  0  0  0  0  0  0  0  0  0
    2.3784    1.0344    2.8012 H   0  0  0  0  0  0  0  0  0  0  0  0
    3.3081   -0.4824    2.6245 H   0  0  0  0  0  0  0  0  0  0  0  0
    2.9733    0.5356    0.7623 C   0  0  0  0  0  0  0  0  0  0  0  0
    3.9523    1.0689    0.8510 H   0  0  0  0  0  0  0  0  0  0  0  0
    3.1288   -0.3707    0.1337 H   0  0  0  0  0  0  0  0  0  0  0  0
    2.3683    1.7175   -1.1863 C   0  0  0  0  0  0  0  0  0  0  0  0
    2.6006    0.7930   -1.7618 H   0  0  0  0  0  0  0  0  0  0  0  0
    3.2849    2.3584   -1.1852 H   0  0  0  0  0  0  0  0  0  0  0  0
    1.2481    2.4943   -1.8604 C   0  0  0  0  0  0  0  0  0  0  0  0
    1.5959    2.8273   -2.8585 H   0  0  0  0  0  0  0  0  0  0  0  0
    0.9914    3.4015   -1.2775 H   0  0  0  0  0  0  0  0  0  0  0  0
   -1.5449    2.4655   -1.1831 C   0  0  0  0  0  0  0  0  0  0  0  0
   -1.7140    3.4380   -1.6872 H   0  0  0  0  0  0  0  0  0  0  0  0
   -2.4569    1.8456   -1.3126 H   0  0  0  0  0  0  0  0  0  0  0  0
   -1.2313    2.6911    0.2949 C   0  0  0  0  0  0  0  0  0  0  0  0
   -2.0259    3.3538    0.7166 H   0  0  0  0  0  0  0  0  0  0  0  0
   -0.2807    3.2561    0.3941 H   0  0  0  0  0  0  0  0  0  0  0  0
  1  2  1  0  0  0  0
  1  6  1  0  0  0  0
  3  9  1  0  0  0  0
  4 21  1  0  0  0  0
  4 24  1  0  0  0  0
  5 15  1  0  0  0  0
  6  7  1  0  0  0  0
  6  9  1  0  0  0  0
  8  6  1  0  0  0  0
  9 10  1  0  0  0  0
  9 11  1  0  0  0  0
 12  3  1  0  0  0  0
 12 14  1  0  0  0  0
 12 13  1  0  0  0  0
 15 16  1  0  0  0  0
 15 12  1  0  0  0  0
 17 15  1  0  0  0  0
 18 20  1  0  0  0  0
 18  5  1  0  0  0  0
 19 18  1  0  0  0  0
 21 23  1  0  0  0  0
 21 18  1  0  0  0  0
 22 21  1  0  0  0  0
 24 27  1  0  0  0  0
 25 24  1  0  0  0  0
 26 24  1  0  0  0  0
 27 29  1  0  0  0  0
 27 28  1  0  0  0  0
 27  1  1  0  0  0  0
M  END
