4,35,47
 OpenBabel05122313063D

 47 49  0  0  1  0  0  0  0  0999 V2000
    0.0070   -2.7868   -0.7107 C   0  0  0  0  0  0  0  0  0  0  0  0
    0.0171   -3.7653   -1.2289 H   0  0  0  0  0  0  0  0  0  0  0  0
   -0.5027   -2.8816    0.2712 H   0  0  0  0  0  0  0  0  0  0  0  0
    1.7586   -2.3183   -0.3186 S   0  0  0  0  0  0  0  0  0  0  0  0
    1.8384   -2.6551    1.4908 C   0  0  0  0  0  0  0  0  0  0  0  0
    1.4872   -3.7005    1.6119 H   0  0  0  0  0  0  0  0  0  0  0  0
    2.9228   -2.6211    1.7140 H   0  0  0  0  0  0  0  0  0  0  0  0
    1.0893   -1.6739    2.3759 C   0  0  0  0  0  0  0  0  0  0  0  0
    1.1621   -2.0459    3.4276 H   0  0  0  0  0  0  0  0  0  0  0  0
    1.5873   -0.6776    2.3246 H   0  0  0  0  0  0  0  0  0  0  0  0
   -0.2536   -1.5805    1.9440 O   0  0  0  0  0  0  0  0  0  0  0  0
   -1.0790   -0.7474    2.7678 C   0  0  0  0  0  0  0  0  0  0  0  0
   -0.4699    0.0766    3.1904 H   0  0  0  0  0  0  0  0  0  0  0  0
   -1.4781   -1.3497    3.6175 H   0  0  0  0  0  0  0  0  0  0  0  0
   -2.2144   -0.2133    1.9258 C   0  0  0  0  0  0  0  0  0  0  0  0
   -3.2078   -1.1112    1.4899 C   0  0  0  0  0  0  0  0  0  0  0  0
   -3.1524   -2.1632    1.8118 H   0  0  0  0  0  0  0  0  0  0  0  0
   -4.2653   -0.6891    0.6716 C   0  0  0  0  0  0  0  0  0  0  0  0
   -5.0343   -1.4074    0.3498 H   0  0  0  0  0  0  0  0  0  0  0  0
   -4.3496    0.6572    0.2877 C   0  0  0  0  0  0  0  0  0  0  0  0
   -5.1859    1.0071   -0.3359 H   0  0  0  0  0  0  0  0  0  0  0  0
   -3.3687    1.5622    0.7190 C   0  0  0  0  0  0  0  0  0  0  0  0
   -3.4437    2.6233    0.4303 H   0  0  0  0  0  0  0  0  0  0  0  0
   -2.2937    1.1458    1.5287 C   0  0  0  0  0  0  0  0  0  0  0  0
   -1.2399    2.1500    1.9356 C   0  0  0  0  0  0  0  0  0  0  0  0
   -1.4999    3.1505    1.5180 H   0  0  0  0  0  0  0  0  0  0  0  0
   -1.1953    2.2690    3.0451 H   0  0  0  0  0  0  0  0  0  0  0  0
    0.0248    1.6951    1.4481 O   0  0  0  0  0  0  0  0  0  0  0  0
    1.0780    2.6415    1.4186 C   0  0  0  0  0  0  0  0  0  0  0  0
    2.0145    2.0840    1.6259 H   0  0  0  0  0  0  0  0  0  0  0  0
    0.9550    3.4293    2.1964 H   0  0  0  0  0  0  0  0  0  0  0  0
    1.2167    3.3156    0.0509 C   0  0  0  0  0  0  0  0  0  0  0  0
    2.1823    3.8547   -0.0199 H   0  0  0  0  0  0  0  0  0  0  0  0
    0.4085    4.0410   -0.1758 H   0  0  0  0  0  0  0  0  0  0  0  0
    1.2306    2.1373   -1.3721 S   0  0  0  0  0  0  0  0  0  0  0  0
   -0.5872    1.9690   -1.6932 C   0  0  0  0  0  0  0  0  0  0  0  0
   -1.1052    2.2802   -0.7639 H   0  0  0  0  0  0  0  0  0  0  0  0
   -0.8675    2.6636   -2.5085 H   0  0  0  0  0  0  0  0  0  0  0  0
   -1.0083    0.5597   -1.9913 C   0  0  2  0  0  3  0  0  0  0  0  0
   -2.1568    0.2839   -2.7445 C   0  0  0  0  0  0  0  0  0  0  0  0
   -2.7128    1.1090   -3.2105 H   0  0  0  0  0  0  0  0  0  0  0  0
   -2.5816   -1.0431   -2.8842 C   0  0  0  0  0  0  0  0  0  0  0  0
   -3.4755   -1.2804   -3.4791 H   0  0  0  0  0  0  0  0  0  0  0  0
   -1.8635   -2.0629   -2.2504 C   0  0  0  0  0  0  0  0  0  0  0  0
   -2.1853   -3.1111   -2.3236 H   0  0  0  0  0  0  0  0  0  0  0  0
   -0.7187   -1.7414   -1.5056 C   0  0  0  0  0  0  0  0  0  0  0  0
   -0.2942   -0.4494   -1.4175 N   0  0  0  0  0  2  0  0  0  0  0  0
  1  4  1  0  0  0  0
  1  3  1  0  0  0  0
  2  1  1  0  0  0  0
  4  5  1  0  0  0  0
  5  6  1  0  0  0  0
  5  7  1  0  0  0  0
  5  8  1  0  0  0  0
  8  9  1  0  0  0  0
 10  8  1  0  0  0  0
 11  8  1  0  0  0  0
 11 12  1  0  0  0  0
 12 13  1  0  0  0  0
 12 14  1  0  0  0  0
 15 12  1  0  0  0  0
 16 17  1  0  0  0  0
 16 15  2  0  0  0  0
 18 16  1  0  0  0  0
 19 18  1  0  0  0  0
 20 18  2  0  0  0  0
 20 22  1  0  0  0  0
 21 20  1  0  0  0  0
 22 24  2  0  0  0  0
 23 22  1  0  0  0  0
 24 15  1  0  0  0  0
 24 25  1  0  0  0  0
 25 27  1  0  0  0  0
 26 25  1  0  0  0  0
 28 25  1  0  0  0  0
 29 28  1  0  0  0  0
 29 30  1  0  0  0  0
 29 31  1  0  0  0  0
 32 29  1  0  0  0  0
 33 32  1  0  0  0  0
 34 32  1  0  0  0  0
 35 32  1  0  0  0  0
 36 35  1  0  0  0  0
 36 37  1  0  0  0  0
 38 36  1  0  0  0  0
 39 40  1  1  0  0  0
 39 36  1  0  0  0  0
 39 47  1  0  0  0  0
 41 40  1  0  0  0  0
 42 40  2  0  0  0  0
 42 44  1  0  0  0  0
 43 42  1  0  0  0  0
 44 46  2  0  0  0  0
 45 44  1  0  0  0  0
 46 47  1  0  0  0  0
 46  1  1  0  0  0  0
M  END
