1,2,3
 OpenBabel05122313063D

 40 39  0  0  0  0  0  0  0  0999 V2000
   -1.0074   -3.3290    0.6137 S   0  0  0  0  0  1  0  0  0  0  0  0
   -0.8855    0.6207    1.1391 S   0  0  0  0  0  1  0  0  0  0  0  0
    1.2798   -1.3325    0.2463 N   0  0  0  0  0  0  0  0  0  0  0  0
    0.7906   -3.7076    0.9070 C   0  0  0  0  0  0  0  0  0  0  0  0
    1.6987   -2.7627    0.1438 C   0  0  0  0  0  0  0  0  0  0  0  0
    1.4446   -0.7964    1.6281 C   0  0  0  0  0  0  0  0  0  0  0  0
    0.8714    0.6062    1.7346 C   0  0  0  0  0  0  0  0  0  0  0  0
    2.0222   -0.5013   -0.7626 C   0  0  0  0  0  0  0  0  0  0  0  0
    3.5219   -0.3154   -0.5291 C   0  0  0  0  0  0  0  0  0  0  0  0
    4.1531    0.4942   -1.6696 C   0  0  0  0  0  0  0  0  0  0  0  0
    5.6657    0.7090   -1.5327 C   0  0  0  0  0  0  0  0  0  0  0  0
    6.0909    1.5584   -0.3302 C   0  0  0  0  0  0  0  0  0  0  0  0
    7.5982    1.8183   -0.2660 C   0  0  0  0  0  0  0  0  0  0  0  0
    8.0326    2.6611    0.9369 C   0  0  0  0  0  0  0  0  0  0  0  0
    9.5393    2.9158    0.9909 C   0  0  0  0  0  0  0  0  0  0  0  0
    0.9679   -3.6752    2.0021 H   0  0  0  0  0  0  0  0  0  0  0  0
    0.9831   -4.7476    0.5766 H   0  0  0  0  0  0  0  0  0  0  0  0
    1.6674   -3.0118   -0.9352 H   0  0  0  0  0  0  0  0  0  0  0  0
    2.7508   -2.8746    0.4914 H   0  0  0  0  0  0  0  0  0  0  0  0
    2.5184   -0.8247    1.9195 H   0  0  0  0  0  0  0  0  0  0  0  0
    0.8871   -1.4682    2.3099 H   0  0  0  0  0  0  0  0  0  0  0  0
    1.4776    1.3518    1.1800 H   0  0  0  0  0  0  0  0  0  0  0  0
    0.8498    0.9249    2.7956 H   0  0  0  0  0  0  0  0  0  0  0  0
    1.8363   -0.9744   -1.7456 H   0  0  0  0  0  0  0  0  0  0  0  0
    1.5179    0.4836   -0.8099 H   0  0  0  0  0  0  0  0  0  0  0  0
    4.0353   -1.2990   -0.4565 H   0  0  0  0  0  0  0  0  0  0  0  0
    3.7032    0.2048    0.4345 H   0  0  0  0  0  0  0  0  0  0  0  0
    3.9423   -0.0187   -2.6330 H   0  0  0  0  0  0  0  0  0  0  0  0
    3.6451    1.4826   -1.7381 H   0  0  0  0  0  0  0  0  0  0  0  0
    6.0407    1.1915   -2.4615 H   0  0  0  0  0  0  0  0  0  0  0  0
    6.1753   -0.2800   -1.4832 H   0  0  0  0  0  0  0  0  0  0  0  0
    5.7718    1.0676    0.6165 H   0  0  0  0  0  0  0  0  0  0  0  0
    5.5495    2.5315   -0.3601 H   0  0  0  0  0  0  0  0  0  0  0  0
    8.1386    0.8444   -0.2473 H   0  0  0  0  0  0  0  0  0  0  0  0
    7.9250    2.3205   -1.2048 H   0  0  0  0  0  0  0  0  0  0  0  0
    7.7040    2.1560    1.8728 H   0  0  0  0  0  0  0  0  0  0  0  0
    7.4886    3.6318    0.9161 H   0  0  0  0  0  0  0  0  0  0  0  0
    9.8221    3.5272    1.8713 H   0  0  0  0  0  0  0  0  0  0  0  0
    9.8899    3.4527    0.0847 H   0  0  0  0  0  0  0  0  0  0  0  0
   10.1074    1.9638    1.0485 H   0  0  0  0  0  0  0  0  0  0  0  0
  1  4  1  0  0  0  0
  2  7  1  0  0  0  0
  3  6  1  0  0  0  0
  4 16  1  0  0  0  0
  5  3  1  0  0  0  0
  5 19  1  0  0  0  0
  5  4  1  0  0  0  0
  6  7  1  0  0  0  0
  6 20  1  0  0  0  0
  6 21  1  0  0  0  0
  7 23  1  0  0  0  0
  8  9  1  0  0  0  0
  8  3  1  0  0  0  0
  9 26  1  0  0  0  0
  9 27  1  0  0  0  0
 10 11  1  0  0  0  0
 10  9  1  0  0  0  0
 11 31  1  0  0  0  0
 11 12  1  0  0  0  0
 12 13  1  0  0  0  0
 12 32  1  0  0  0  0
 13 34  1  0  0  0  0
 13 14  1  0  0  0  0
 14 15  1  0  0  0  0
 14 36  1  0  0  0  0
 15 40  1  0  0  0  0
 15 38  1  0  0  0  0
 17  4  1  0  0  0  0
 18  5  1  0  0  0  0
 22  7  1  0  0  0  0
 24  8  1  0  0  0  0
 25  8  1  0  0  0  0
 28 10  1  0  0  0  0
 29 10  1  0  0  0  0
 30 11  1  0  0  0  0
 33 12  1  0  0  0  0
 35 13  1  0  0  0  0
 37 14  1  0  0  0  0
 39 15  1  0  0  0  0
M  END
