4,11,47
 OpenBabel05122313063D

 47 49  0  0  1  0  0  0  0  0999 V2000
    3.7570    0.9834   -0.9399 C   0  0  0  0  0  0  0  0  0  0  0  0
    4.0152    0.0600   -1.5131 H   0  0  0  0  0  0  0  0  0  0  0  0
    4.6184    1.6805   -0.9510 H   0  0  0  0  0  0  0  0  0  0  0  0
    2.3837    1.6301   -1.9503 S   0  0  0  0  0  0  0  0  0  0  0  0
    1.6865    3.0067   -0.9804 C   0  0  0  0  0  0  0  0  0  0  0  0
    2.4774    3.7406   -0.7155 H   0  0  0  0  0  0  0  0  0  0  0  0
    1.0194    3.5075   -1.7127 H   0  0  0  0  0  0  0  0  0  0  0  0
    0.9070    2.6281    0.2833 C   0  0  0  0  0  0  0  0  0  0  0  0
    0.2748    3.4725    0.6290 H   0  0  0  0  0  0  0  0  0  0  0  0
    1.5916    2.3762    1.1162 H   0  0  0  0  0  0  0  0  0  0  0  0
   -0.1922    1.1582    0.1678 S   0  0  0  0  0  0  0  0  0  0  0  0
   -1.5700    1.7588   -0.9325 C   0  0  0  0  0  0  0  0  0  0  0  0
   -1.2998    2.7896   -1.2326 H   0  0  0  0  0  0  0  0  0  0  0  0
   -1.5237    1.0972   -1.8206 H   0  0  0  0  0  0  0  0  0  0  0  0
   -2.8571    1.7287   -0.1519 C   0  0  0  0  0  0  0  0  0  0  0  0
   -3.1339    2.8219    0.7014 C   0  0  0  0  0  0  0  0  0  0  0  0
   -2.4358    3.6751    0.7126 H   0  0  0  0  0  0  0  0  0  0  0  0
   -4.2622    2.8449    1.5256 C   0  0  0  0  0  0  0  0  0  0  0  0
   -4.4566    3.7118    2.1749 H   0  0  0  0  0  0  0  0  0  0  0  0
   -5.1389    1.7474    1.5159 C   0  0  0  0  0  0  0  0  0  0  0  0
   -6.0290    1.7410    2.1633 H   0  0  0  0  0  0  0  0  0  0  0  0
   -4.8799    0.6610    0.6742 C   0  0  0  0  0  0  0  0  0  0  0  0
   -5.5554   -0.2084    0.6750 H   0  0  0  0  0  0  0  0  0  0  0  0
   -3.7548    0.6267   -0.1777 C   0  0  0  0  0  0  0  0  0  0  0  0
   -3.5944   -0.5409   -1.1327 C   0  0  0  0  0  0  0  0  0  0  0  0
   -2.5871   -0.5922   -1.5937 H   0  0  0  0  0  0  0  0  0  0  0  0
   -4.3162   -0.4230   -1.9686 H   0  0  0  0  0  0  0  0  0  0  0  0
   -3.9470   -2.2110   -0.4401 S   0  0  0  0  0  0  0  0  0  0  0  0
   -2.2476   -2.7733   -0.0622 C   0  0  0  0  0  0  0  0  0  0  0  0
   -2.3477   -3.8521    0.1765 H   0  0  0  0  0  0  0  0  0  0  0  0
   -1.6248   -2.6727   -0.9761 H   0  0  0  0  0  0  0  0  0  0  0  0
   -1.6117   -2.0036    1.0875 C   0  0  0  0  0  0  0  0  0  0  0  0
   -2.1564   -2.1744    2.0388 H   0  0  0  0  0  0  0  0  0  0  0  0
   -1.6314   -0.9168    0.8662 H   0  0  0  0  0  0  0  0  0  0  0  0
    0.1539   -2.4970    1.2343 S   0  0  0  0  0  0  0  0  0  0  0  0
    0.7390   -1.1750    2.3604 C   0  0  0  0  0  0  0  0  0  0  0  0
   -0.0195   -0.3638    2.3205 H   0  0  0  0  0  0  0  0  0  0  0  0
    0.7749   -1.5430    3.4049 H   0  0  0  0  0  0  0  0  0  0  0  0
    2.0817   -0.5839    2.0115 C   0  0  2  0  0  3  0  0  0  0  0  0
    3.0545   -0.4483    3.0166 C   0  0  0  0  0  0  0  0  0  0  0  0
    2.8433   -0.8528    4.0166 H   0  0  0  0  0  0  0  0  0  0  0  0
    4.2566    0.2122    2.7432 C   0  0  0  0  0  0  0  0  0  0  0  0
    5.0227    0.3320    3.5233 H   0  0  0  0  0  0  0  0  0  0  0  0
    4.4597    0.7203    1.4567 C   0  0  0  0  0  0  0  0  0  0  0  0
    5.3861    1.2507    1.1938 H   0  0  0  0  0  0  0  0  0  0  0  0
    3.4795    0.5312    0.4689 C   0  0  0  0  0  0  0  0  0  0  0  0
    2.3141   -0.1157    0.7526 N   0  0  0  0  0  2  0  0  0  0  0  0
  1 46  1  0  0  0  0
  2  1  1  0  0  0  0
  3  1  1  0  0  0  0
  4  5  1  0  0  0  0
  4  1  1  0  0  0  0
  5  6  1  0  0  0  0
  5  8  1  0  0  0  0
  7  5  1  0  0  0  0
  8  9  1  0  0  0  0
  8 10  1  0  0  0  0
 11  8  1  0  0  0  0
 12 15  1  0  0  0  0
 12 11  1  0  0  0  0
 13 12  1  0  0  0  0
 14 12  1  0  0  0  0
 15 16  1  0  0  0  0
 16 17  1  0  0  0  0
 16 18  2  0  0  0  0
 18 19  1  0  0  0  0
 20 18  1  0  0  0  0
 20 21  1  0  0  0  0
 22 23  1  0  0  0  0
 22 20  2  0  0  0  0
 24 15  2  0  0  0  0
 24 22  1  0  0  0  0
 25 28  1  0  0  0  0
 25 24  1  0  0  0  0
 26 25  1  0  0  0  0
 27 25  1  0  0  0  0
 28 29  1  0  0  0  0
 29 30  1  0  0  0  0
 29 32  1  0  0  0  0
 31 29  1  0  0  0  0
 32 35  1  0  0  0  0
 32 33  1  0  0  0  0
 34 32  1  0  0  0  0
 35 36  1  0  0  0  0
 36 38  1  0  0  0  0
 37 36  1  0  0  0  0
 39 47  1  1  0  0  0
 39 36  1  0  0  0  0
 39 40  1  0  0  0  0
 40 41  1  0  0  0  0
 42 40  2  0  0  0  0
 42 43  1  0  0  0  0
 44 42  1  0  0  0  0
 45 44  1  0  0  0  0
 46 47  1  0  0  0  0
 46 44  2  0  0  0  0
M  END
