6,7,8
 OpenBabel05122313063D

 69 74  0  0  1  0  0  0  0  0999 V2000
    1.8285   -1.3760    1.6871 N   0  0  0  0  0  0  0  0  0  0  0  0
    3.4783   -1.6605    0.2580 N   0  0  0  0  0  0  0  0  0  0  0  0
   -0.6703   -1.6711    2.2189 N   0  0  0  0  0  0  0  0  0  0  0  0
   -2.3895   -2.6461    1.2454 N   0  0  0  0  0  0  0  0  0  0  0  0
    0.3522    0.6221    2.4491 N   0  0  0  0  0  0  0  0  0  0  0  0
   -0.5923    1.0968    1.5861 N   0  0  0  0  0  2  0  0  0  0  0  0
    2.2620    0.7630   -0.0627 S   0  0  0  0  0  1  0  0  0  0  0  0
   -0.5216   -1.7912   -0.5629 S   0  0  0  0  0  1  0  0  0  0  0  0
    5.3865    0.2412    0.5127 O   0  0  0  0  0  0  0  0  0  0  0  0
   -3.6677   -0.9922   -0.5240 O   0  0  0  0  0  0  0  0  0  0  0  0
    0.6354   -0.8846    2.5573 B   0  0  2  0  0  0  0  0  0  0  0  0
    0.9047   -1.1517    3.7248 H   0  0  0  0  0  0  0  0  0  0  0  0
    0.8595    1.6322    3.2117 C   0  0  2  0  0  3  0  0  0  0  0  0
    0.1916    2.8065    2.8457 C   0  0  0  0  0  0  0  0  0  0  0  0
    0.3172    3.7982    3.2915 H   0  0  0  0  0  0  0  0  0  0  0  0
   -0.7221    2.4254    1.8362 C   0  0  0  0  0  0  0  0  0  0  0  0
    1.9489    1.4204    4.2089 C   0  0  0  0  0  0  0  0  0  0  0  0
    2.8849    1.1057    3.7020 H   0  0  0  0  0  0  0  0  0  0  0  0
    1.6912    0.6273    4.9392 H   0  0  0  0  0  0  0  0  0  0  0  0
    2.1518    2.3569    4.7600 H   0  0  0  0  0  0  0  0  0  0  0  0
   -1.7487    3.2265    1.1581 C   0  0  0  0  0  0  0  0  0  0  0  0
   -1.5454    4.5967    0.8932 C   0  0  0  0  0  0  0  0  0  0  0  0
   -0.5848    5.0618    1.1609 H   0  0  0  0  0  0  0  0  0  0  0  0
   -2.5400    5.3513    0.2582 C   0  0  0  0  0  0  0  0  0  0  0  0
   -2.3632    6.4157    0.0413 H   0  0  0  0  0  0  0  0  0  0  0  0
   -3.7530    4.7500   -0.1141 C   0  0  0  0  0  0  0  0  0  0  0  0
   -4.5324    5.3436   -0.6154 H   0  0  0  0  0  0  0  0  0  0  0  0
   -3.9659    3.3881    0.1531 C   0  0  0  0  0  0  0  0  0  0  0  0
   -4.9163    2.9128   -0.1347 H   0  0  0  0  0  0  0  0  0  0  0  0
   -2.9726    2.6292    0.7831 C   0  0  0  0  0  0  0  0  0  0  0  0
   -3.1296    1.5614    0.9976 H   0  0  0  0  0  0  0  0  0  0  0  0
    2.5051   -0.7679    0.6662 C   0  0  1  0  0  3  0  0  0  0  0  0
    2.3699   -2.6380    1.8996 C   0  0  0  0  0  0  0  0  0  0  0  0
    1.9765   -3.2990    2.6768 H   0  0  0  0  0  0  0  0  0  0  0  0
    3.3964   -2.8241    1.0156 C   0  0  0  0  0  0  0  0  0  0  0  0
    4.0902   -3.6551    0.8651 H   0  0  0  0  0  0  0  0  0  0  0  0
    4.3940   -1.4330   -0.8094 C   0  0  0  0  0  0  0  0  0  0  0  0
    5.3725   -0.4149   -0.6702 C   0  0  0  0  0  0  0  0  0  0  0  0
    6.2481   -0.1683   -1.7454 C   0  0  0  0  0  0  0  0  0  0  0  0
    7.0036    0.6251   -1.6717 H   0  0  0  0  0  0  0  0  0  0  0  0
    6.1642   -0.9440   -2.9126 C   0  0  0  0  0  0  0  0  0  0  0  0
    6.8593   -0.7391   -3.7409 H   0  0  0  0  0  0  0  0  0  0  0  0
    5.2092   -1.9629   -3.0355 C   0  0  0  0  0  0  0  0  0  0  0  0
    5.1423   -2.5590   -3.9566 H   0  0  0  0  0  0  0  0  0  0  0  0
    4.3159   -2.1971   -1.9791 C   0  0  0  0  0  0  0  0  0  0  0  0
    3.5249   -2.9573   -2.0569 H   0  0  0  0  0  0  0  0  0  0  0  0
    6.1247    1.4468    0.6089 C   0  0  0  0  0  0  0  0  0  0  0  0
    5.9020    1.8670    1.6068 H   0  0  0  0  0  0  0  0  0  0  0  0
    5.8092    2.1743   -0.1700 H   0  0  0  0  0  0  0  0  0  0  0  0
    7.2207    1.2716    0.5265 H   0  0  0  0  0  0  0  0  0  0  0  0
   -1.1893   -2.0097    1.0007 C   0  0  2  0  0  3  0  0  0  0  0  0
   -1.5472   -2.0865    3.2121 C   0  0  0  0  0  0  0  0  0  0  0  0
   -1.3317   -1.9022    4.2679 H   0  0  0  0  0  0  0  0  0  0  0  0
   -2.6170   -2.6991    2.6177 C   0  0  0  0  0  0  0  0  0  0  0  0
   -3.5223   -3.1524    3.0295 H   0  0  0  0  0  0  0  0  0  0  0  0
   -3.2601   -3.1856    0.2515 C   0  0  0  0  0  0  0  0  0  0  0  0
   -3.9040   -2.3108   -0.6656 C   0  0  0  0  0  0  0  0  0  0  0  0
   -4.7466   -2.8764   -1.6459 C   0  0  0  0  0  0  0  0  0  0  0  0
   -5.2447   -2.2275   -2.3776 H   0  0  0  0  0  0  0  0  0  0  0  0
   -4.9646   -4.2616   -1.6833 C   0  0  0  0  0  0  0  0  0  0  0  0
   -5.6323   -4.6761   -2.4538 H   0  0  0  0  0  0  0  0  0  0  0  0
   -4.3467   -5.1148   -0.7581 C   0  0  0  0  0  0  0  0  0  0  0  0
   -4.5181   -6.2001   -0.7930 H   0  0  0  0  0  0  0  0  0  0  0  0
   -3.4866   -4.5670    0.2048 C   0  0  0  0  0  0  0  0  0  0  0  0
   -2.9609   -5.2093    0.9268 H   0  0  0  0  0  0  0  0  0  0  0  0
   -4.0787   -0.1149   -1.5694 C   0  0  0  0  0  0  0  0  0  0  0  0
   -3.6369    0.8712   -1.3426 H   0  0  0  0  0  0  0  0  0  0  0  0
   -5.1875   -0.0381   -1.6205 H   0  0  0  0  0  0  0  0  0  0  0  0
   -3.6777   -0.4502   -2.5484 H   0  0  0  0  0  0  0  0  0  0  0  0
  1 33  1  0  0  0  0
  1 11  1  0  0  0  0
  2 32  1  0  0  0  0
  2 35  1  0  0  0  0
  3 11  1  0  0  0  0
  3 52  1  0  0  0  0
  4 54  1  0  0  0  0
  5 11  1  0  0  0  0
  5 13  1  0  0  0  0
  6 16  1  0  0  0  0
  6  5  1  0  0  0  0
  9 47  1  0  0  0  0
 11 12  1  1  0  0  0
 13 17  1  6  0  0  0
 14 13  1  0  0  0  0
 14 15  1  0  0  0  0
 16 14  2  0  0  0  0
 17 20  1  0  0  0  0
 17 19  1  0  0  0  0
 18 17  1  0  0  0  0
 21 16  1  0  0  0  0
 22 21  1  0  0  0  0
 22 23  1  0  0  0  0
 24 22  2  0  0  0  0
 25 24  1  0  0  0  0
 26 28  2  0  0  0  0
 26 24  1  0  0  0  0
 27 26  1  0  0  0  0
 28 30  1  0  0  0  0
 29 28  1  0  0  0  0
 30 31  1  0  0  0  0
 30 21  2  0  0  0  0
 32  7  1  6  0  0  0
 32  1  1  0  0  0  0
 33 34  1  0  0  0  0
 35 33  2  0  0  0  0
 36 35  1  0  0  0  0
 37 38  1  0  0  0  0
 37  2  1  0  0  0  0
 38  9  1  0  0  0  0
 39 40  1  0  0  0  0
 39 38  2  0  0  0  0
 41 39  1  0  0  0  0
 42 41  1  0  0  0  0
 43 41  2  0  0  0  0
 43 45  1  0  0  0  0
 44 43  1  0  0  0  0
 45 37  2  0  0  0  0
 46 45  1  0  0  0  0
 47 48  1  0  0  0  0
 49 47  1  0  0  0  0
 50 47  1  0  0  0  0
 51  8  1  1  0  0  0
 51  4  1  0  0  0  0
 51  3  1  0  0  0  0
 52 53  1  0  0  0  0
 54 55  1  0  0  0  0
 54 52  2  0  0  0  0
 56  4  1  0  0  0  0
 57 10  1  0  0  0  0
 57 56  2  0  0  0  0
 58 57  1  0  0  0  0
 59 58  1  0  0  0  0
 60 58  2  0  0  0  0
 60 62  1  0  0  0  0
 61 60  1  0  0  0  0
 62 64  2  0  0  0  0
 63 62  1  0  0  0  0
 64 56  1  0  0  0  0
 64 65  1  0  0  0  0
 66 67  1  0  0  0  0
 66 10  1  0  0  0  0
 68 66  1  0  0  0  0
 69 66  1  0  0  0  0
M  END
