1,2,3
 OpenBabel05122313063D

 26 26  0  0  0  0  0  0  0  0999 V2000
   -1.1775   -1.1336    1.2750 S   0  0  0  0  0  1  0  0  0  0  0  0
    0.6909    2.3117    0.7665 S   0  0  0  0  0  1  0  0  0  0  0  0
    1.8592   -0.5526    0.8277 N   0  0  0  0  0  0  0  0  0  0  0  0
    2.1970    0.3263    2.0015 C   0  0  0  0  0  0  0  0  0  0  0  0
    2.2550    1.7939    1.6194 C   0  0  0  0  0  0  0  0  0  0  0  0
    1.5182   -1.9398    1.2784 C   0  0  0  0  0  0  0  0  0  0  0  0
    0.2305   -2.0354    2.0731 C   0  0  0  0  0  0  0  0  0  0  0  0
    3.0029   -0.5608   -0.1138 C   0  0  0  0  0  0  0  0  0  0  0  0
    3.9655   -1.5885   -0.0756 C   0  0  0  0  0  0  0  0  0  0  0  0
    5.0667   -1.5654   -0.9461 C   0  0  0  0  0  0  0  0  0  0  0  0
    5.2295   -0.5158   -1.8588 C   0  0  0  0  0  0  0  0  0  0  0  0
    4.2774    0.5135   -1.8929 C   0  0  0  0  0  0  0  0  0  0  0  0
    3.1711    0.4927   -1.0335 C   0  0  0  0  0  0  0  0  0  0  0  0
    1.3987    0.1800    2.7555 H   0  0  0  0  0  0  0  0  0  0  0  0
    3.1639   -0.0170    2.4345 H   0  0  0  0  0  0  0  0  0  0  0  0
    3.1374    2.0230    0.9891 H   0  0  0  0  0  0  0  0  0  0  0  0
    2.3297    2.4112    2.5370 H   0  0  0  0  0  0  0  0  0  0  0  0
    1.4361   -2.5463    0.3560 H   0  0  0  0  0  0  0  0  0  0  0  0
    2.3474   -2.3517    1.8953 H   0  0  0  0  0  0  0  0  0  0  0  0
    0.3411   -1.6464    3.1067 H   0  0  0  0  0  0  0  0  0  0  0  0
   -0.0505   -3.1042    2.1601 H   0  0  0  0  0  0  0  0  0  0  0  0
    3.8781   -2.4240    0.6294 H   0  0  0  0  0  0  0  0  0  0  0  0
    5.8006   -2.3842   -0.9041 H   0  0  0  0  0  0  0  0  0  0  0  0
    6.0904   -0.5018   -2.5435 H   0  0  0  0  0  0  0  0  0  0  0  0
    4.3813    1.3431   -2.6078 H   0  0  0  0  0  0  0  0  0  0  0  0
    2.4237    1.2950   -1.0920 H   0  0  0  0  0  0  0  0  0  0  0  0
  1  7  1  0  0  0  0
  2  5  1  0  0  0  0
  3  6  1  0  0  0  0
  3  4  1  0  0  0  0
  4 15  1  0  0  0  0
  4 14  1  0  0  0  0
  5  4  1  0  0  0  0
  5 17  1  0  0  0  0
  6 19  1  0  0  0  0
  6  7  1  0  0  0  0
  7 21  1  0  0  0  0
  7 20  1  0  0  0  0
  8  9  1  0  0  0  0
  8  3  1  0  0  0  0
  9 22  1  0  0  0  0
 10 23  1  0  0  0  0
 10  9  2  0  0  0  0
 11 10  1  0  0  0  0
 12 11  2  0  0  0  0
 12 13  1  0  0  0  0
 13  8  2  0  0  0  0
 16  5  1  0  0  0  0
 18  6  1  0  0  0  0
 24 11  1  0  0  0  0
 25 12  1  0  0  0  0
 26 13  1  0  0  0  0
M  END
