1,2,3
 OpenBabel05122313063D

 37 37  0  0  0  0  0  0  0  0999 V2000
    0.9482   -2.5316   -0.6208 S   0  0  0  0  0  0  0  0  0  0  0  0
   -1.9552    1.0355    0.1727 S   0  0  0  0  0  0  0  0  0  0  0  0
   -2.0794   -2.1808   -0.2114 N   0  0  0  0  0  0  0  0  0  0  0  0
   -2.3346   -2.0408   -1.2097 H   0  0  0  0  0  0  0  0  0  0  0  0
    1.7651   -3.2625    0.8634 C   0  0  0  0  0  0  0  0  0  0  0  0
    2.3260   -2.4103    1.2911 H   0  0  0  0  0  0  0  0  0  0  0  0
    0.9796   -3.5122    1.6024 H   0  0  0  0  0  0  0  0  0  0  0  0
   -0.3648   -3.7908   -0.9281 C   0  0  0  0  0  0  0  0  0  0  0  0
   -0.6339   -3.6575   -1.9957 H   0  0  0  0  0  0  0  0  0  0  0  0
    0.0593   -4.8053   -0.7956 H   0  0  0  0  0  0  0  0  0  0  0  0
   -3.2516   -1.9017    0.6516 C   0  0  0  0  0  0  0  0  0  0  0  0
   -2.8483   -1.6533    1.6579 H   0  0  0  0  0  0  0  0  0  0  0  0
   -3.8710   -2.8207    0.7523 H   0  0  0  0  0  0  0  0  0  0  0  0
   -3.6438    0.5004   -0.1680 C   0  0  0  0  0  0  0  0  0  0  0  0
   -2.1241    1.5458    1.9421 C   0  0  0  0  0  0  0  0  0  0  0  0
   -2.4569    0.6653    2.5232 H   0  0  0  0  0  0  0  0  0  0  0  0
   -1.0708    1.7344    2.2278 H   0  0  0  0  0  0  0  0  0  0  0  0
   -1.5582   -3.5483   -0.0215 C   0  0  0  0  0  0  0  0  0  0  0  0
   -2.3540   -4.3016   -0.2336 H   0  0  0  0  0  0  0  0  0  0  0  0
   -1.2727   -3.6434    1.0469 H   0  0  0  0  0  0  0  0  0  0  0  0
   -4.1204   -0.8089    0.0828 C   0  0  0  0  0  0  0  0  0  0  0  0
   -5.4603   -1.0968   -0.2460 C   0  0  0  0  0  0  0  0  0  0  0  0
   -5.8406   -2.1146   -0.0630 H   0  0  0  0  0  0  0  0  0  0  0  0
   -4.4873    1.4668   -0.7463 C   0  0  0  0  0  0  0  0  0  0  0  0
   -4.0772    2.4651   -0.9590 H   0  0  0  0  0  0  0  0  0  0  0  0
    2.6827   -4.4215    0.5057 C   0  0  0  0  0  0  0  0  0  0  0  0
    3.4605   -4.1092   -0.2197 H   0  0  0  0  0  0  0  0  0  0  0  0
    2.1335   -5.2809    0.0680 H   0  0  0  0  0  0  0  0  0  0  0  0
    3.1955   -4.7900    1.4180 H   0  0  0  0  0  0  0  0  0  0  0  0
   -5.8213    1.1618   -1.0510 C   0  0  0  0  0  0  0  0  0  0  0  0
   -6.4722    1.9289   -1.4968 H   0  0  0  0  0  0  0  0  0  0  0  0
   -6.3103   -0.1268   -0.7958 C   0  0  0  0  0  0  0  0  0  0  0  0
   -7.3524   -0.3846   -1.0376 H   0  0  0  0  0  0  0  0  0  0  0  0
   -2.9977    2.7758    2.1208 C   0  0  0  0  0  0  0  0  0  0  0  0
   -2.6126    3.6289    1.5270 H   0  0  0  0  0  0  0  0  0  0  0  0
   -3.0019    3.0784    3.1884 H   0  0  0  0  0  0  0  0  0  0  0  0
   -4.0486    2.5853    1.8233 H   0  0  0  0  0  0  0  0  0  0  0  0
  1  5  1  0  0  0  0
  2 15  1  0  0  0  0
  3 18  1  0  0  0  0
  3 11  1  0  0  0  0
  4  3  1  0  0  0  0
  5  6  1  0  0  0  0
  5  7  1  0  0  0  0
  8 10  1  0  0  0  0
  8  1  1  0  0  0  0
  8 18  1  0  0  0  0
  9  8  1  0  0  0  0
 11 13  1  0  0  0  0
 11 12  1  0  0  0  0
 14 21  1  0  0  0  0
 14  2  1  0  0  0  0
 15 34  1  0  0  0  0
 15 17  1  0  0  0  0
 15 16  1  0  0  0  0
 18 20  1  0  0  0  0
 19 18  1  0  0  0  0
 21 11  1  0  0  0  0
 22 23  1  0  0  0  0
 22 21  2  0  0  0  0
 24 14  2  0  0  0  0
 25 24  1  0  0  0  0
 26  5  1  0  0  0  0
 26 29  1  0  0  0  0
 27 26  1  0  0  0  0
 28 26  1  0  0  0  0
 30 32  2  0  0  0  0
 30 24  1  0  0  0  0
 31 30  1  0  0  0  0
 32 22  1  0  0  0  0
 33 32  1  0  0  0  0
 34 36  1  0  0  0  0
 35 34  1  0  0  0  0
 37 34  1  0  0  0  0
M  END
