1,2,3
 OpenBabel05122313063D

 45 47  0  0  1  0  0  0  0  0999 V2000
    2.2063   -0.1217    1.2070 S   0  0  0  0  0  1  0  0  0  0  0  0
   -1.5577   -1.3279   -1.3888 S   0  0  0  0  0  1  0  0  0  0  0  0
    0.0010    1.0385   -0.4100 N   0  0  0  0  0  2  0  0  0  0  0  0
    3.1195    2.3454    0.9036 N   0  0  0  0  0  0  0  0  0  0  0  0
   -3.4375    0.5603   -1.3965 N   0  0  0  0  0  0  0  0  0  0  0  0
    2.1086    1.4912    0.6778 C   0  0  0  0  0  0  0  0  0  0  0  0
   -2.1455    0.2689   -1.2244 C   0  0  2  0  0  3  0  0  0  0  0  0
    0.8831    1.9863    0.0039 C   0  0  0  0  0  0  0  0  0  0  0  0
    0.5826    3.3548   -0.1466 C   0  0  0  0  0  0  0  0  0  0  0  0
   -0.6311    3.7301   -0.7312 C   0  0  0  0  0  0  0  0  0  0  0  0
   -1.5433    2.7399   -1.1110 C   0  0  0  0  0  0  0  0  0  0  0  0
   -1.2142    1.3856   -0.9082 C   0  0  0  0  0  0  0  0  0  0  0  0
    4.4098    1.9532    1.4774 C   0  0  0  0  0  0  0  0  0  0  0  0
    5.1310    0.9004    0.6507 C   0  0  0  0  0  0  0  0  0  0  0  0
    5.1659    0.9888   -0.7546 C   0  0  0  0  0  0  0  0  0  0  0  0
    5.8399    0.0188   -1.5090 C   0  0  0  0  0  0  0  0  0  0  0  0
    6.4976   -1.0416   -0.8642 C   0  0  0  0  0  0  0  0  0  0  0  0
    6.4753   -1.1291    0.5363 C   0  0  0  0  0  0  0  0  0  0  0  0
    5.7879   -0.1669    1.2903 C   0  0  0  0  0  0  0  0  0  0  0  0
   -4.5288   -0.4136   -1.4991 C   0  0  0  0  0  0  0  0  0  0  0  0
   -5.5344   -0.1754   -0.3968 C   0  0  0  0  0  0  0  0  0  0  0  0
   -6.8796    0.1136   -0.6933 C   0  0  0  0  0  0  0  0  0  0  0  0
   -7.8003    0.3230    0.3449 C   0  0  0  0  0  0  0  0  0  0  0  0
   -7.3784    0.2533    1.6818 C   0  0  0  0  0  0  0  0  0  0  0  0
   -6.0349   -0.0293    1.9822 C   0  0  0  0  0  0  0  0  0  0  0  0
   -5.1127   -0.2448    0.9496 C   0  0  0  0  0  0  0  0  0  0  0  0
    3.0221    3.3084    0.5778 H   0  0  0  0  0  0  0  0  0  0  0  0
   -3.7410    1.5204   -1.2039 H   0  0  0  0  0  0  0  0  0  0  0  0
    1.2726    4.1323    0.2101 H   0  0  0  0  0  0  0  0  0  0  0  0
   -0.8739    4.7928   -0.8738 H   0  0  0  0  0  0  0  0  0  0  0  0
   -2.4983    3.0287   -1.5715 H   0  0  0  0  0  0  0  0  0  0  0  0
    4.2456    1.5764    2.5100 H   0  0  0  0  0  0  0  0  0  0  0  0
    5.0112    2.8808    1.5608 H   0  0  0  0  0  0  0  0  0  0  0  0
    4.6556    1.8187   -1.2691 H   0  0  0  0  0  0  0  0  0  0  0  0
    5.8567    0.0931   -2.6064 H   0  0  0  0  0  0  0  0  0  0  0  0
    7.0286   -1.8018   -1.4562 H   0  0  0  0  0  0  0  0  0  0  0  0
    6.9866   -1.9588    1.0465 H   0  0  0  0  0  0  0  0  0  0  0  0
    5.7535   -0.2513    2.3880 H   0  0  0  0  0  0  0  0  0  0  0  0
   -4.0656   -1.4202   -1.4265 H   0  0  0  0  0  0  0  0  0  0  0  0
   -4.9963   -0.3352   -2.5026 H   0  0  0  0  0  0  0  0  0  0  0  0
   -7.2116    0.1653   -1.7424 H   0  0  0  0  0  0  0  0  0  0  0  0
   -8.8522    0.5409    0.1077 H   0  0  0  0  0  0  0  0  0  0  0  0
   -8.1013    0.4168    2.4950 H   0  0  0  0  0  0  0  0  0  0  0  0
   -5.7043   -0.0911    3.0298 H   0  0  0  0  0  0  0  0  0  0  0  0
   -4.0611   -0.4760    1.1907 H   0  0  0  0  0  0  0  0  0  0  0  0
  3  8  1  0  0  0  0
  4 13  1  0  0  0  0
  5  7  1  0  0  0  0
  5 28  1  0  0  0  0
  6  4  1  0  0  0  0
  6  1  1  0  0  0  0
  7  2  1  6  0  0  0
  7 12  1  0  0  0  0
  8  6  2  0  0  0  0
  9  8  1  0  0  0  0
  9 29  1  0  0  0  0
 10  9  2  0  0  0  0
 11 12  2  0  0  0  0
 11 10  1  0  0  0  0
 12  3  1  0  0  0  0
 13 33  1  0  0  0  0
 13 32  1  0  0  0  0
 14 19  1  0  0  0  0
 14 13  1  0  0  0  0
 15 14  2  0  0  0  0
 16 17  2  0  0  0  0
 16 15  1  0  0  0  0
 17 18  1  0  0  0  0
 18 37  1  0  0  0  0
 18 19  2  0  0  0  0
 19 38  1  0  0  0  0
 20 39  1  0  0  0  0
 20  5  1  0  0  0  0
 20 21  1  0  0  0  0
 21 26  1  0  0  0  0
 22 21  2  0  0  0  0
 22 23  1  0  0  0  0
 23 24  2  0  0  0  0
 24 25  1  0  0  0  0
 24 43  1  0  0  0  0
 25 44  1  0  0  0  0
 26 45  1  0  0  0  0
 26 25  2  0  0  0  0
 27  4  1  0  0  0  0
 30 10  1  0  0  0  0
 31 11  1  0  0  0  0
 34 15  1  0  0  0  0
 35 16  1  0  0  0  0
 36 17  1  0  0  0  0
 40 20  1  0  0  0  0
 41 22  1  0  0  0  0
 42 23  1  0  0  0  0
M  END
