1,2,3
 OpenBabel05122313063D

 47 47  0  0  0  0  0  0  0  0999 V2000
    1.3920   -1.5536    0.1832 S   0  0  0  0  0  1  0  0  0  0  0  0
    0.7633    2.4479    0.6436 S   0  0  0  0  0  1  0  0  0  0  0  0
   -1.1399    0.0549    0.8793 N   0  0  0  0  0  0  0  0  0  0  0  0
   -0.0713   -2.2894    1.0853 C   0  0  0  0  0  0  0  0  0  0  0  0
   -0.7951   -1.1133    1.7503 C   0  0  0  0  0  0  0  0  0  0  0  0
   -1.4210    1.2394    1.7579 C   0  0  0  0  0  0  0  0  0  0  0  0
   -1.0149    2.6070    1.1960 C   0  0  0  0  0  0  0  0  0  0  0  0
   -2.3221   -0.2135   -0.0079 C   0  0  0  0  0  0  0  0  0  0  0  0
   -3.5674   -0.8149    0.6623 C   0  0  0  0  0  0  0  0  0  0  0  0
   -0.8961   -3.1437    0.1137 C   0  0  0  0  0  0  0  0  0  0  0  0
    0.4913   -3.1871    2.1998 C   0  0  0  0  0  0  0  0  0  0  0  0
   -1.8621    3.1039    0.0173 C   0  0  0  0  0  0  0  0  0  0  0  0
   -1.0569    3.6325    2.3384 C   0  0  0  0  0  0  0  0  0  0  0  0
   -4.6954   -0.7433   -0.2510 N   0  0  0  0  0  0  0  0  0  0  0  0
   -5.3323    0.5693   -0.2977 C   0  0  0  0  0  0  0  0  0  0  0  0
   -6.4200    0.5866   -1.3704 C   0  0  0  0  0  0  0  0  0  0  0  0
   -7.3852   -0.4267   -1.1464 O   0  0  0  0  0  0  0  0  0  0  0  0
   -6.7682   -1.7027   -1.1246 C   0  0  0  0  0  0  0  0  0  0  0  0
   -5.6935   -1.7868   -0.0412 C   0  0  0  0  0  0  0  0  0  0  0  0
   -1.7052   -1.4688    2.2847 H   0  0  0  0  0  0  0  0  0  0  0  0
   -0.1039   -0.7189    2.5189 H   0  0  0  0  0  0  0  0  0  0  0  0
   -2.4994    1.2467    2.0328 H   0  0  0  0  0  0  0  0  0  0  0  0
   -0.8514    1.0939    2.6946 H   0  0  0  0  0  0  0  0  0  0  0  0
   -2.5860    0.7474   -0.4772 H   0  0  0  0  0  0  0  0  0  0  0  0
   -2.0092   -0.8669   -0.8372 H   0  0  0  0  0  0  0  0  0  0  0  0
   -3.3897   -1.8840    0.8937 H   0  0  0  0  0  0  0  0  0  0  0  0
   -3.7912   -0.3169    1.6443 H   0  0  0  0  0  0  0  0  0  0  0  0
   -0.2874   -4.0027   -0.2304 H   0  0  0  0  0  0  0  0  0  0  0  0
   -1.2033   -2.5863   -0.7890 H   0  0  0  0  0  0  0  0  0  0  0  0
   -1.8018   -3.5522    0.6120 H   0  0  0  0  0  0  0  0  0  0  0  0
    1.1260   -2.6113    2.9021 H   0  0  0  0  0  0  0  0  0  0  0  0
    1.1107   -3.9962    1.7652 H   0  0  0  0  0  0  0  0  0  0  0  0
   -0.3326   -3.6613    2.7749 H   0  0  0  0  0  0  0  0  0  0  0  0
   -1.5527    4.1309   -0.2587 H   0  0  0  0  0  0  0  0  0  0  0  0
   -1.7312    2.4760   -0.8852 H   0  0  0  0  0  0  0  0  0  0  0  0
   -2.9401    3.1330    0.2897 H   0  0  0  0  0  0  0  0  0  0  0  0
   -0.6878    4.6155    1.9854 H   0  0  0  0  0  0  0  0  0  0  0  0
   -0.4244    3.3158    3.1916 H   0  0  0  0  0  0  0  0  0  0  0  0
   -2.0971    3.7706    2.7033 H   0  0  0  0  0  0  0  0  0  0  0  0
   -4.5782    1.3495   -0.5310 H   0  0  0  0  0  0  0  0  0  0  0  0
   -5.7907    0.8343    0.6944 H   0  0  0  0  0  0  0  0  0  0  0  0
   -6.9588    1.5550   -1.3603 H   0  0  0  0  0  0  0  0  0  0  0  0
   -5.9409    0.4563   -2.3724 H   0  0  0  0  0  0  0  0  0  0  0  0
   -7.5681   -2.4465   -0.9366 H   0  0  0  0  0  0  0  0  0  0  0  0
   -6.2994   -1.9262   -2.1153 H   0  0  0  0  0  0  0  0  0  0  0  0
   -6.1854   -1.6989    0.9656 H   0  0  0  0  0  0  0  0  0  0  0  0
   -5.1979   -2.7797   -0.0864 H   0  0  0  0  0  0  0  0  0  0  0  0
  1  4  1  0  0  0  0
  2  7  1  0  0  0  0
  3  5  1  0  0  0  0
  3  6  1  0  0  0  0
  4  5  1  0  0  0  0
  4 11  1  0  0  0  0
  5 20  1  0  0  0  0
  5 21  1  0  0  0  0
  6 22  1  0  0  0  0
  6 23  1  0  0  0  0
  7  6  1  0  0  0  0
  7 13  1  0  0  0  0
  8  9  1  0  0  0  0
  8  3  1  0  0  0  0
  9 26  1  0  0  0  0
  9 27  1  0  0  0  0
 10 30  1  0  0  0  0
 10  4  1  0  0  0  0
 11 33  1  0  0  0  0
 11 31  1  0  0  0  0
 12 36  1  0  0  0  0
 12  7  1  0  0  0  0
 13 39  1  0  0  0  0
 13 38  1  0  0  0  0
 14 19  1  0  0  0  0
 14  9  1  0  0  0  0
 15 14  1  0  0  0  0
 15 41  1  0  0  0  0
 16 42  1  0  0  0  0
 16 17  1  0  0  0  0
 16 15  1  0  0  0  0
 17 18  1  0  0  0  0
 18 44  1  0  0  0  0
 18 19  1  0  0  0  0
 19 46  1  0  0  0  0
 24  8  1  0  0  0  0
 25  8  1  0  0  0  0
 28 10  1  0  0  0  0
 29 10  1  0  0  0  0
 32 11  1  0  0  0  0
 34 12  1  0  0  0  0
 35 12  1  0  0  0  0
 37 13  1  0  0  0  0
 40 15  1  0  0  0  0
 43 16  1  0  0  0  0
 45 18  1  0  0  0  0
 47 19  1  0  0  0  0
M  END
