1,3,4
 OpenBabel05122313063D

 38 39  0  0  0  0  0  0  0  0999 V2000
    0.6182   -1.4716   -0.4196 N   0  0  0  0  0  0  0  0  0  0  0  0
    1.1793   -1.6823   -1.2621 H   0  0  0  0  0  0  0  0  0  0  0  0
   -2.0552   -0.2724   -1.4392 S   0  0  0  0  0  0  0  0  0  0  0  0
    1.9734    1.4986    0.0677 S   0  0  0  0  0  0  0  0  0  0  0  0
   -4.5458   -0.6348   -0.3597 C   0  0  0  0  0  0  0  0  0  0  0  0
   -4.8523   -0.8251   -1.3994 H   0  0  0  0  0  0  0  0  0  0  0  0
   -5.4871   -0.6837    0.6789 C   0  0  0  0  0  0  0  0  0  0  0  0
   -6.5356   -0.9242    0.4494 H   0  0  0  0  0  0  0  0  0  0  0  0
   -5.0971   -0.4076    1.9992 C   0  0  0  0  0  0  0  0  0  0  0  0
   -5.8421   -0.4360    2.8080 H   0  0  0  0  0  0  0  0  0  0  0  0
   -3.7628   -0.0794    2.2883 C   0  0  0  0  0  0  0  0  0  0  0  0
   -3.4620    0.1544    3.3202 H   0  0  0  0  0  0  0  0  0  0  0  0
   -2.8086   -0.0346    1.2615 C   0  0  0  0  0  0  0  0  0  0  0  0
   -1.7656    0.2507    1.4692 H   0  0  0  0  0  0  0  0  0  0  0  0
   -3.2067   -0.3259   -0.0560 C   0  0  0  0  0  0  0  0  0  0  0  0
   -1.5212   -2.0475   -1.5266 C   0  0  0  0  0  0  0  0  0  0  0  0
   -2.4280   -2.6824   -1.4999 H   0  0  0  0  0  0  0  0  0  0  0  0
   -1.0530   -2.1550   -2.5274 H   0  0  0  0  0  0  0  0  0  0  0  0
   -0.5650   -2.3817   -0.4000 C   0  0  0  0  0  0  0  0  0  0  0  0
   -1.0702   -2.2557    0.5796 H   0  0  0  0  0  0  0  0  0  0  0  0
   -0.2295   -3.4411   -0.4699 H   0  0  0  0  0  0  0  0  0  0  0  0
    1.4988   -1.6683    0.7716 C   0  0  0  0  0  0  0  0  0  0  0  0
    1.5555   -2.7533    1.0022 H   0  0  0  0  0  0  0  0  0  0  0  0
    0.9969   -1.1805    1.6335 H   0  0  0  0  0  0  0  0  0  0  0  0
    2.9018   -1.1538    0.5550 C   0  0  0  0  0  0  0  0  0  0  0  0
    3.9749   -2.0630    0.6408 C   0  0  0  0  0  0  0  0  0  0  0  0
    3.7608   -3.1194    0.8665 H   0  0  0  0  0  0  0  0  0  0  0  0
    5.3031   -1.6530    0.4535 C   0  0  0  0  0  0  0  0  0  0  0  0
    6.1175   -2.3879    0.5323 H   0  0  0  0  0  0  0  0  0  0  0  0
    5.5858   -0.3133    0.1563 C   0  0  0  0  0  0  0  0  0  0  0  0
    6.6224    0.0179   -0.0025 H   0  0  0  0  0  0  0  0  0  0  0  0
    4.5356    0.6101    0.0501 C   0  0  0  0  0  0  0  0  0  0  0  0
    4.7433    1.6615   -0.2000 H   0  0  0  0  0  0  0  0  0  0  0  0
    3.2069    0.1997    0.2619 C   0  0  0  0  0  0  0  0  0  0  0  0
    1.6650    2.0118    1.7972 C   0  0  0  0  0  0  0  0  0  0  0  0
    1.3549    1.1557    2.4238 H   0  0  0  0  0  0  0  0  0  0  0  0
    0.8540    2.7614    1.7258 H   0  0  0  0  0  0  0  0  0  0  0  0
    2.5931    2.4700    2.1872 H   0  0  0  0  0  0  0  0  0  0  0  0
  1 19  1  0  0  0  0
  1 22  1  0  0  0  0
  2  1  1  0  0  0  0
  3 15  1  0  0  0  0
  4 34  1  0  0  0  0
  4 35  1  0  0  0  0
  5 15  2  0  0  0  0
  5  7  1  0  0  0  0
  6  5  1  0  0  0  0
  7  9  2  0  0  0  0
  8  7  1  0  0  0  0
  9 11  1  0  0  0  0
  9 10  1  0  0  0  0
 11 12  1  0  0  0  0
 13 14  1  0  0  0  0
 13 11  2  0  0  0  0
 15 13  1  0  0  0  0
 16 17  1  0  0  0  0
 16  3  1  0  0  0  0
 16 19  1  0  0  0  0
 18 16  1  0  0  0  0
 19 20  1  0  0  0  0
 21 19  1  0  0  0  0
 22 23  1  0  0  0  0
 22 24  1  0  0  0  0
 25 26  1  0  0  0  0
 25 22  1  0  0  0  0
 26 27  1  0  0  0  0
 28 29  1  0  0  0  0
 28 26  2  0  0  0  0
 30 28  1  0  0  0  0
 31 30  1  0  0  0  0
 32 30  2  0  0  0  0
 32 34  1  0  0  0  0
 33 32  1  0  0  0  0
 34 25  2  0  0  0  0
 35 38  1  0  0  0  0
 35 36  1  0  0  0  0
 37 35  1  0  0  0  0
M  END
