1,2,3
 OpenBabel05122313063D

 35 36  0  0  0  0  0  0  0  0999 V2000
   -0.5591    1.6123    1.3565 S   0  0  0  0  0  0  0  0  0  0  0  0
    0.9101   -1.5556   -1.5105 S   0  0  0  0  0  0  0  0  0  0  0  0
    1.8175    1.1170   -0.0753 N   0  0  0  0  0  0  0  0  0  0  0  0
    2.1969    0.9343    0.8672 H   0  0  0  0  0  0  0  0  0  0  0  0
    0.3707    2.9567    0.6269 C   0  0  0  0  0  0  0  0  0  0  0  0
    1.5010    2.5432   -0.1172 C   0  0  0  0  0  0  0  0  0  0  0  0
    2.2361    3.4992   -0.8315 C   0  0  0  0  0  0  0  0  0  0  0  0
    3.0928    3.2043   -1.4510 H   0  0  0  0  0  0  0  0  0  0  0  0
    1.8730    4.8568   -0.7678 C   0  0  0  0  0  0  0  0  0  0  0  0
    2.4502    5.5963   -1.3413 H   0  0  0  0  0  0  0  0  0  0  0  0
    0.7958    5.2672    0.0286 C   0  0  0  0  0  0  0  0  0  0  0  0
    0.5263    6.3314    0.0925 H   0  0  0  0  0  0  0  0  0  0  0  0
    0.0438    4.3145    0.7364 C   0  0  0  0  0  0  0  0  0  0  0  0
   -0.8150    4.6303    1.3463 H   0  0  0  0  0  0  0  0  0  0  0  0
   -2.2903    2.2006    1.3076 C   0  0  0  0  0  0  0  0  0  0  0  0
   -2.8739    1.3355    0.9400 H   0  0  0  0  0  0  0  0  0  0  0  0
   -2.6051    2.4783    2.3294 H   0  0  0  0  0  0  0  0  0  0  0  0
   -2.3927    3.0535    0.6140 H   0  0  0  0  0  0  0  0  0  0  0  0
    2.8632    0.6535   -1.0343 C   0  0  0  0  0  0  0  0  0  0  0  0
    3.7298    1.3452   -1.0320 H   0  0  0  0  0  0  0  0  0  0  0  0
    2.4115    0.6723   -2.0489 H   0  0  0  0  0  0  0  0  0  0  0  0
    2.5129   -1.8543   -0.7696 C   0  0  0  0  0  0  0  0  0  0  0  0
    3.3520   -0.7174   -0.6450 C   0  0  0  0  0  0  0  0  0  0  0  0
    4.6291   -0.8795   -0.0795 C   0  0  0  0  0  0  0  0  0  0  0  0
    5.2852    0.0002    0.0163 H   0  0  0  0  0  0  0  0  0  0  0  0
    5.0753   -2.1361    0.3595 C   0  0  0  0  0  0  0  0  0  0  0  0
    6.0791   -2.2438    0.7950 H   0  0  0  0  0  0  0  0  0  0  0  0
    4.2320   -3.2490    0.2368 C   0  0  0  0  0  0  0  0  0  0  0  0
    4.5681   -4.2393    0.5782 H   0  0  0  0  0  0  0  0  0  0  0  0
    2.9537   -3.1137   -0.3286 C   0  0  0  0  0  0  0  0  0  0  0  0
    2.3110   -3.9984   -0.4203 H   0  0  0  0  0  0  0  0  0  0  0  0
    0.1007   -3.1745   -1.3817 C   0  0  0  0  0  0  0  0  0  0  0  0
   -0.9100   -3.0293   -1.8070 H   0  0  0  0  0  0  0  0  0  0  0  0
    0.6566   -3.9060   -1.9970 H   0  0  0  0  0  0  0  0  0  0  0  0
    0.0348   -3.4967   -0.3252 H   0  0  0  0  0  0  0  0  0  0  0  0
  2 32  1  0  0  0  0
  2 22  1  0  0  0  0
  3  4  1  0  0  0  0
  5 13  1  0  0  0  0
  5  1  1  0  0  0  0
  6  3  1  0  0  0  0
  6  5  2  0  0  0  0
  7  9  2  0  0  0  0
  7  6  1  0  0  0  0
  8  7  1  0  0  0  0
  9 11  1  0  0  0  0
 10  9  1  0  0  0  0
 11 12  1  0  0  0  0
 11 13  2  0  0  0  0
 13 14  1  0  0  0  0
 15  1  1  0  0  0  0
 15 17  1  0  0  0  0
 16 15  1  0  0  0  0
 18 15  1  0  0  0  0
 19 20  1  0  0  0  0
 19 23  1  0  0  0  0
 19  3  1  0  0  0  0
 21 19  1  0  0  0  0
 22 23  2  0  0  0  0
 22 30  1  0  0  0  0
 23 24  1  0  0  0  0
 24 25  1  0  0  0  0
 24 26  2  0  0  0  0
 26 27  1  0  0  0  0
 28 26  1  0  0  0  0
 28 29  1  0  0  0  0
 30 28  2  0  0  0  0
 31 30  1  0  0  0  0
 32 35  1  0  0  0  0
 33 32  1  0  0  0  0
 34 32  1  0  0  0  0
M  END
