1,2,3
 OpenBabel05122313063D

 28 29  0  0  0  0  0  0  0  0999 V2000
   -2.0573    0.1953   -0.7567 O   0  5  0  0  0  0  0  0  0  0  0  0
   -0.5741   -1.9478    0.0801 N   0  0  0  0  0  2  0  0  0  0  0  0
    1.3449   -1.1540   -1.2472 N   0  0  0  0  0  1  0  0  0  0  0  0
   -3.0783   -0.3502   -0.1114 C   0  0  0  0  0  0  0  0  0  0  0  0
   -4.3086    0.3383   -0.0748 C   0  0  0  0  0  0  0  0  0  0  0  0
   -4.3675    1.3108   -0.5830 H   0  0  0  0  0  0  0  0  0  0  0  0
   -5.4116   -0.2134    0.5906 C   0  0  0  0  0  0  0  0  0  0  0  0
   -6.3629    0.3405    0.6045 H   0  0  0  0  0  0  0  0  0  0  0  0
   -5.3151   -1.4599    1.2373 C   0  0  0  0  0  0  0  0  0  0  0  0
   -6.1844   -1.8893    1.7554 H   0  0  0  0  0  0  0  0  0  0  0  0
   -4.0964   -2.1430    1.2168 C   0  0  0  0  0  0  0  0  0  0  0  0
   -3.9981   -3.1154    1.7257 H   0  0  0  0  0  0  0  0  0  0  0  0
   -2.9619   -1.6145    0.5519 C   0  0  0  0  0  0  0  0  0  0  0  0
   -1.7101   -2.3234    0.6308 C   0  0  0  0  0  3  0  0  0  0  0  0
   -1.7098   -3.2334    1.2567 H   0  0  0  0  0  0  0  0  0  0  0  0
    0.6316   -2.6367    0.3881 C   0  0  0  0  0  0  0  0  0  0  0  0
    1.7274   -2.1517   -0.3836 C   0  0  0  0  0  0  0  0  0  0  0  0
    3.0389   -2.6522   -0.2282 C   0  0  0  0  0  0  0  0  0  0  0  0
    3.2191   -3.6657    0.7345 C   0  0  0  0  0  0  0  0  0  0  0  0
    4.2271   -4.0810    0.8877 H   0  0  0  0  0  0  0  0  0  0  0  0
    2.1457   -4.1478    1.5012 C   0  0  0  0  0  0  0  0  0  0  0  0
    2.3244   -4.9355    2.2481 H   0  0  0  0  0  0  0  0  0  0  0  0
    0.8444   -3.6371    1.3419 C   0  0  0  0  0  0  0  0  0  0  0  0
    0.0278   -4.0117    1.9743 H   0  0  0  0  0  0  0  0  0  0  0  0
    4.1654   -2.0784   -1.0397 C   0  0  0  0  0  0  0  0  0  0  0  0
    5.0807   -2.6944   -0.9581 H   0  0  0  0  0  0  0  0  0  0  0  0
    4.4112   -1.0492   -0.6997 H   0  0  0  0  0  0  0  0  0  0  0  0
    3.8815   -1.9947   -2.1081 H   0  0  0  0  0  0  0  0  0  0  0  0
  1  4  1  0  0  0  0
  2 16  1  0  0  0  0
  2 14  1  0  0  0  0
  3 17  1  0  0  0  0
  4  5  2  0  0  0  0
  4 13  1  0  0  0  0
  5  7  1  0  0  0  0
  6  5  1  0  0  0  0
  7  8  1  0  0  0  0
  7  9  2  0  0  0  0
  9 10  1  0  0  0  0
 11  9  1  0  0  0  0
 11 12  1  0  0  0  0
 13 14  1  0  0  0  0
 13 11  2  0  0  0  0
 14 15  1  0  0  0  0
 16 23  1  0  0  0  0
 17 18  1  0  0  0  0
 17 16  2  0  0  0  0
 18 19  2  0  0  0  0
 19 20  1  0  0  0  0
 19 21  1  0  0  0  0
 21 22  1  0  0  0  0
 23 21  2  0  0  0  0
 23 24  1  0  0  0  0
 25 26  1  0  0  0  0
 25 27  1  0  0  0  0
 25 18  1  0  0  0  0
 28 25  1  0  0  0  0
M  CHG  1   1  -1
M  END
