1,3,4
 OpenBabel05122313063D

 80 85  0  0  0  0  0  0  0  0999 V2000
   -0.2408   -2.5429    0.3765 S   0  0  0  0  0  0  0  0  0  0  0  0
   -3.5094   -3.5325   -0.1371 S   0  0  0  0  0  0  0  0  0  0  0  0
    1.9956   -0.1113   -0.1549 P   0  0  0  0  0  0  0  0  0  0  0  0
   -1.5456    0.7047   -0.0507 P   0  0  0  0  0  0  0  0  0  0  0  0
    1.5029   -3.0962    0.6835 C   0  0  0  0  0  0  0  0  0  0  0  0
    1.4784   -4.1508    1.0239 H   0  0  0  0  0  0  0  0  0  0  0  0
    2.0456   -3.0345   -0.2820 H   0  0  0  0  0  0  0  0  0  0  0  0
   -0.7747   -3.8220   -0.8320 C   0  0  0  0  0  0  0  0  0  0  0  0
   -0.0347   -3.8331   -1.6606 H   0  0  0  0  0  0  0  0  0  0  0  0
   -0.7741   -4.8049   -0.3156 H   0  0  0  0  0  0  0  0  0  0  0  0
   -2.1619   -3.4932   -1.3766 C   0  0  0  0  0  0  0  0  0  0  0  0
   -2.4353   -4.2444   -2.1453 H   0  0  0  0  0  0  0  0  0  0  0  0
   -2.1616   -2.4981   -1.8695 H   0  0  0  0  0  0  0  0  0  0  0  0
   -3.5147   -1.7884    0.4437 C   0  0  0  0  0  0  0  0  0  0  0  0
   -4.2230   -1.8057    1.2992 H   0  0  0  0  0  0  0  0  0  0  0  0
   -2.5256   -1.5513    0.8755 H   0  0  0  0  0  0  0  0  0  0  0  0
    2.1028   -2.2128    1.7453 C   0  0  0  0  0  0  0  0  0  0  0  0
    2.4140   -0.8417    1.5040 C   0  0  0  0  0  0  0  0  0  0  0  0
    2.9452   -0.0702    2.5582 C   0  0  0  0  0  0  0  0  0  0  0  0
    3.2027    0.9833    2.3778 H   0  0  0  0  0  0  0  0  0  0  0  0
    3.1512   -0.6205    3.8321 C   0  0  0  0  0  0  0  0  0  0  0  0
    3.5711    0.0050    4.6347 H   0  0  0  0  0  0  0  0  0  0  0  0
    2.8282   -1.9633    4.0744 C   0  0  0  0  0  0  0  0  0  0  0  0
    2.9809   -2.4046    5.0707 H   0  0  0  0  0  0  0  0  0  0  0  0
    2.3102   -2.7450    3.0325 C   0  0  0  0  0  0  0  0  0  0  0  0
    2.0543   -3.8007    3.2151 H   0  0  0  0  0  0  0  0  0  0  0  0
    3.4207   -0.7634   -1.1544 C   0  0  0  0  0  0  0  0  0  0  0  0
    3.2283   -1.0640   -2.5165 C   0  0  0  0  0  0  0  0  0  0  0  0
    2.2344   -0.9232   -2.9657 H   0  0  0  0  0  0  0  0  0  0  0  0
    4.2940   -1.5429   -3.2955 C   0  0  0  0  0  0  0  0  0  0  0  0
    4.1312   -1.7700   -4.3603 H   0  0  0  0  0  0  0  0  0  0  0  0
    5.5573   -1.7403   -2.7170 C   0  0  0  0  0  0  0  0  0  0  0  0
    6.3902   -2.1249   -3.3255 H   0  0  0  0  0  0  0  0  0  0  0  0
    5.7549   -1.4490   -1.3567 C   0  0  0  0  0  0  0  0  0  0  0  0
    6.7433   -1.6033   -0.8969 H   0  0  0  0  0  0  0  0  0  0  0  0
    4.6945   -0.9608   -0.5796 C   0  0  0  0  0  0  0  0  0  0  0  0
    4.8549   -0.7305    0.4846 H   0  0  0  0  0  0  0  0  0  0  0  0
    2.4483    1.6685    0.0328 C   0  0  0  0  0  0  0  0  0  0  0  0
    1.7104    2.4652    0.9378 C   0  0  0  0  0  0  0  0  0  0  0  0
    0.9304    2.0063    1.5632 H   0  0  0  0  0  0  0  0  0  0  0  0
    1.9528    3.8399    1.0409 C   0  0  0  0  0  0  0  0  0  0  0  0
    1.3661    4.4420    1.7505 H   0  0  0  0  0  0  0  0  0  0  0  0
    2.9134    4.4504    0.2173 C   0  0  0  0  0  0  0  0  0  0  0  0
    3.0915    5.5343    0.2854 H   0  0  0  0  0  0  0  0  0  0  0  0
    3.6351    3.6724   -0.6999 C   0  0  0  0  0  0  0  0  0  0  0  0
    4.3866    4.1429   -1.3527 H   0  0  0  0  0  0  0  0  0  0  0  0
    3.4108    2.2886   -0.7888 C   0  0  0  0  0  0  0  0  0  0  0  0
    3.9884    1.6870   -1.5060 H   0  0  0  0  0  0  0  0  0  0  0  0
   -1.9455    0.7290    1.7572 C   0  0  0  0  0  0  0  0  0  0  0  0
   -3.2010    1.1173    2.2707 C   0  0  0  0  0  0  0  0  0  0  0  0
   -4.0032    1.4205    1.5796 H   0  0  0  0  0  0  0  0  0  0  0  0
   -3.4343    1.0999    3.6545 C   0  0  0  0  0  0  0  0  0  0  0  0
   -4.4174    1.4034    4.0466 H   0  0  0  0  0  0  0  0  0  0  0  0
   -2.4203    0.6929    4.5385 C   0  0  0  0  0  0  0  0  0  0  0  0
   -2.6089    0.6775    5.6229 H   0  0  0  0  0  0  0  0  0  0  0  0
   -1.1735    0.2915    4.0335 C   0  0  0  0  0  0  0  0  0  0  0  0
   -0.3768   -0.0468    4.7137 H   0  0  0  0  0  0  0  0  0  0  0  0
   -0.9421    0.3016    2.6499 C   0  0  0  0  0  0  0  0  0  0  0  0
    0.0181   -0.0509    2.2441 H   0  0  0  0  0  0  0  0  0  0  0  0
   -3.9512   -0.7615   -0.5807 C   0  0  0  0  0  0  0  0  0  0  0  0
   -3.2127    0.4303   -0.8250 C   0  0  0  0  0  0  0  0  0  0  0  0
   -3.7039    1.3576   -1.7705 C   0  0  0  0  0  0  0  0  0  0  0  0
   -3.1360    2.2785   -1.9667 H   0  0  0  0  0  0  0  0  0  0  0  0
   -4.8961    1.1229   -2.4675 C   0  0  0  0  0  0  0  0  0  0  0  0
   -5.2534    1.8611   -3.2016 H   0  0  0  0  0  0  0  0  0  0  0  0
   -5.6240   -0.0520   -2.2274 C   0  0  0  0  0  0  0  0  0  0  0  0
   -6.5612   -0.2489   -2.7700 H   0  0  0  0  0  0  0  0  0  0  0  0
   -5.1478   -0.9787   -1.2922 C   0  0  0  0  0  0  0  0  0  0  0  0
   -5.6954   -1.9169   -1.1114 H   0  0  0  0  0  0  0  0  0  0  0  0
   -1.2283    2.4941   -0.4183 C   0  0  0  0  0  0  0  0  0  0  0  0
   -1.7489    3.5558    0.3474 C   0  0  0  0  0  0  0  0  0  0  0  0
   -2.3966    3.3468    1.2114 H   0  0  0  0  0  0  0  0  0  0  0  0
   -1.4322    4.8838    0.0209 C   0  0  0  0  0  0  0  0  0  0  0  0
   -1.8384    5.7062    0.6300 H   0  0  0  0  0  0  0  0  0  0  0  0
   -0.6001    5.1641   -1.0749 C   0  0  0  0  0  0  0  0  0  0  0  0
   -0.3497    6.2065   -1.3252 H   0  0  0  0  0  0  0  0  0  0  0  0
   -0.0776    4.1103   -1.8412 C   0  0  0  0  0  0  0  0  0  0  0  0
    0.5913    4.3202   -2.6894 H   0  0  0  0  0  0  0  0  0  0  0  0
   -0.3807    2.7835   -1.5076 C   0  0  0  0  0  0  0  0  0  0  0  0
    0.0577    1.9449   -2.0706 H   0  0  0  0  0  0  0  0  0  0  0  0
  1  5  1  0  0  0  0
  2 14  1  0  0  0  0
  3 38  1  0  0  0  0
  3 18  1  0  0  0  0
  4 49  1  0  0  0  0
  5  6  1  0  0  0  0
  5 17  1  0  0  0  0
  7  5  1  0  0  0  0
  8 10  1  0  0  0  0
  8  1  1  0  0  0  0
  9  8  1  0  0  0  0
 11  8  1  0  0  0  0
 11  2  1  0  0  0  0
 12 11  1  0  0  0  0
 13 11  1  0  0  0  0
 14 16  1  0  0  0  0
 14 15  1  0  0  0  0
 17 25  1  0  0  0  0
 18 17  2  0  0  0  0
 18 19  1  0  0  0  0
 19 21  2  0  0  0  0
 20 19  1  0  0  0  0
 21 23  1  0  0  0  0
 21 22  1  0  0  0  0
 23 24  1  0  0  0  0
 25 26  1  0  0  0  0
 25 23  2  0  0  0  0
 27 36  1  0  0  0  0
 27  3  1  0  0  0  0
 28 27  2  0  0  0  0
 29 28  1  0  0  0  0
 30 32  2  0  0  0  0
 30 28  1  0  0  0  0
 31 30  1  0  0  0  0
 32 34  1  0  0  0  0
 33 32  1  0  0  0  0
 34 35  1  0  0  0  0
 34 36  2  0  0  0  0
 36 37  1  0  0  0  0
 38 39  1  0  0  0  0
 39 41  2  0  0  0  0
 39 40  1  0  0  0  0
 41 42  1  0  0  0  0
 43 44  1  0  0  0  0
 43 41  1  0  0  0  0
 45 43  2  0  0  0  0
 46 45  1  0  0  0  0
 47 45  1  0  0  0  0
 47 38  2  0  0  0  0
 48 47  1  0  0  0  0
 49 50  2  0  0  0  0
 49 58  1  0  0  0  0
 50 52  1  0  0  0  0
 51 50  1  0  0  0  0
 52 53  1  0  0  0  0
 52 54  2  0  0  0  0
 54 55  1  0  0  0  0
 56 54  1  0  0  0  0
 56 57  1  0  0  0  0
 58 56  2  0  0  0  0
 59 58  1  0  0  0  0
 60 14  1  0  0  0  0
 61 60  1  0  0  0  0
 61  4  1  0  0  0  0
 62 61  2  0  0  0  0
 63 62  1  0  0  0  0
 64 66  2  0  0  0  0
 64 62  1  0  0  0  0
 65 64  1  0  0  0  0
 66 68  1  0  0  0  0
 67 66  1  0  0  0  0
 68 69  1  0  0  0  0
 68 60  2  0  0  0  0
 70  4  1  0  0  0  0
 70 71  1  0  0  0  0
 71 72  1  0  0  0  0
 73 71  2  0  0  0  0
 73 74  1  0  0  0  0
 75 73  1  0  0  0  0
 76 75  1  0  0  0  0
 77 79  1  0  0  0  0
 77 75  2  0  0  0  0
 78 77  1  0  0  0  0
 79 70  2  0  0  0  0
 80 79  1  0  0  0  0
M  END
