1,2,3
 OpenBabel05122313063D

 53 56  0  0  0  0  0  0  0  0999 V2000
    1.6141    0.2684    0.1737 P   0  0  2  0  0  0  0  0  0  0  0  0
   -1.6142    0.2683    0.1737 P   0  0  1  0  0  0  0  0  0  0  0  0
   -0.0004    3.0419   -1.3545 S   0  0  0  0  0  0  0  0  0  0  0  0
    2.6500    1.6962    0.7725 C   0  0  0  0  0  0  0  0  0  0  0  0
    1.8632    3.0071    0.9130 C   0  0  0  0  0  0  0  0  0  0  0  0
    1.4268    3.6901   -0.3929 C   0  0  0  0  0  0  0  0  0  0  0  0
   -1.4281    3.6894   -0.3932 C   0  0  0  0  0  0  0  0  0  0  0  0
   -1.8639    3.0067    0.9132 C   0  0  0  0  0  0  0  0  0  0  0  0
   -2.6504    1.6957    0.7733 C   0  0  0  0  0  0  0  0  0  0  0  0
   -0.7094   -0.2260    1.7297 C   0  0  0  0  0  0  0  0  0  0  0  0
    0.7095   -0.2259    1.7297 C   0  0  0  0  0  0  0  0  0  0  0  0
    1.3987   -0.6139    2.8968 C   0  0  0  0  0  0  0  0  0  0  0  0
    0.7025   -0.9900    4.0527 C   0  0  0  0  0  0  0  0  0  0  0  0
   -0.7023   -0.9902    4.0527 C   0  0  0  0  0  0  0  0  0  0  0  0
   -1.3986   -0.6142    2.8967 C   0  0  0  0  0  0  0  0  0  0  0  0
    3.1274    1.4443    1.7432 H   0  0  0  0  0  0  0  0  0  0  0  0
    3.4685    1.8124    0.0297 H   0  0  0  0  0  0  0  0  0  0  0  0
    0.9928    2.8572    1.5853 H   0  0  0  0  0  0  0  0  0  0  0  0
    2.5160    3.7376    1.4395 H   0  0  0  0  0  0  0  0  0  0  0  0
    2.2589    3.6713   -1.1282 H   0  0  0  0  0  0  0  0  0  0  0  0
    1.1962    4.7594   -0.2029 H   0  0  0  0  0  0  0  0  0  0  0  0
   -1.1984    4.7590   -0.2037 H   0  0  0  0  0  0  0  0  0  0  0  0
   -2.2602    3.6695   -1.1283 H   0  0  0  0  0  0  0  0  0  0  0  0
   -2.5165    3.7373    1.4398 H   0  0  0  0  0  0  0  0  0  0  0  0
   -0.9932    2.8571    1.5851 H   0  0  0  0  0  0  0  0  0  0  0  0
   -3.4695    1.8118    0.0310 H   0  0  0  0  0  0  0  0  0  0  0  0
   -3.1270    1.4435    1.7443 H   0  0  0  0  0  0  0  0  0  0  0  0
    2.4993   -0.6412    2.8979 H   0  0  0  0  0  0  0  0  0  0  0  0
    1.2567   -1.2951    4.9536 H   0  0  0  0  0  0  0  0  0  0  0  0
   -1.2565   -1.2953    4.9535 H   0  0  0  0  0  0  0  0  0  0  0  0
   -2.4991   -0.6416    2.8979 H   0  0  0  0  0  0  0  0  0  0  0  0
    2.8361   -1.0781   -0.0853 C   0  0  0  0  0  0  0  0  0  0  0  0
    4.0339   -1.2333    0.6445 C   0  0  0  0  0  0  0  0  0  0  0  0
    4.8988   -2.3006    0.3604 C   0  0  0  0  0  0  0  0  0  0  0  0
    4.5760   -3.2161   -0.6553 C   0  0  0  0  0  0  0  0  0  0  0  0
    3.3968   -3.0511   -1.3989 C   0  0  0  0  0  0  0  0  0  0  0  0
    2.5289   -1.9827   -1.1255 C   0  0  0  0  0  0  0  0  0  0  0  0
    4.3077   -0.5167    1.4346 H   0  0  0  0  0  0  0  0  0  0  0  0
    5.8319   -2.4169    0.9331 H   0  0  0  0  0  0  0  0  0  0  0  0
    5.2563   -4.0530   -0.8762 H   0  0  0  0  0  0  0  0  0  0  0  0
    3.1538   -3.7510   -2.2130 H   0  0  0  0  0  0  0  0  0  0  0  0
    1.6294   -1.8092   -1.7457 H   0  0  0  0  0  0  0  0  0  0  0  0
   -2.8358   -1.0786   -0.0852 C   0  0  0  0  0  0  0  0  0  0  0  0
   -2.5280   -1.9835   -1.1250 C   0  0  0  0  0  0  0  0  0  0  0  0
   -3.3956   -3.0520   -1.3985 C   0  0  0  0  0  0  0  0  0  0  0  0
   -4.5752   -3.2170   -0.6554 C   0  0  0  0  0  0  0  0  0  0  0  0
   -4.8984   -2.3013    0.3599 C   0  0  0  0  0  0  0  0  0  0  0  0
   -4.0339   -1.2338    0.6441 C   0  0  0  0  0  0  0  0  0  0  0  0
   -1.6284   -1.8101   -1.7450 H   0  0  0  0  0  0  0  0  0  0  0  0
   -3.1522   -3.7520   -2.2124 H   0  0  0  0  0  0  0  0  0  0  0  0
   -5.2553   -4.0541   -0.8763 H   0  0  0  0  0  0  0  0  0  0  0  0
   -5.8317   -2.4176    0.9323 H   0  0  0  0  0  0  0  0  0  0  0  0
   -4.3081   -0.5170    1.4339 H   0  0  0  0  0  0  0  0  0  0  0  0
  1 32  1  1  0  0  0
  1  4  1  0  0  0  0
  1 11  1  0  0  0  0
  2 43  1  1  0  0  0
  2  9  1  0  0  0  0
  2 10  1  0  0  0  0
  3  7  1  0  0  0  0
  3  6  1  0  0  0  0
  4  5  1  0  0  0  0
  4 16  1  0  0  0  0
  5 19  1  0  0  0  0
  5 18  1  0  0  0  0
  6 21  1  0  0  0  0
  6  5  1  0  0  0  0
  7 22  1  0  0  0  0
  7  8  1  0  0  0  0
  8 24  1  0  0  0  0
  8 25  1  0  0  0  0
  9  8  1  0  0  0  0
  9 27  1  0  0  0  0
 10 11  2  0  0  0  0
 10 15  1  0  0  0  0
 11 12  1  0  0  0  0
 12 28  1  0  0  0  0
 12 13  2  0  0  0  0
 13 29  1  0  0  0  0
 14 13  1  0  0  0  0
 14 30  1  0  0  0  0
 15 31  1  0  0  0  0
 15 14  2  0  0  0  0
 17  4  1  0  0  0  0
 20  6  1  0  0  0  0
 23  7  1  0  0  0  0
 26  9  1  0  0  0  0
 32 33  1  0  0  0  0
 33 38  1  0  0  0  0
 34 33  2  0  0  0  0
 34 39  1  0  0  0  0
 35 34  1  0  0  0  0
 36 37  1  0  0  0  0
 36 35  2  0  0  0  0
 37 32  2  0  0  0  0
 40 35  1  0  0  0  0
 41 36  1  0  0  0  0
 42 37  1  0  0  0  0
 43 48  1  0  0  0  0
 44 43  2  0  0  0  0
 45 44  1  0  0  0  0
 45 46  2  0  0  0  0
 46 47  1  0  0  0  0
 47 48  2  0  0  0  0
 47 52  1  0  0  0  0
 48 53  1  0  0  0  0
 49 44  1  0  0  0  0
 50 45  1  0  0  0  0
 51 46  1  0  0  0  0
M  END
