1,3,4
 OpenBabel05122313063D

 62 65  0  0  0  0  0  0  0  0999 V2000
    0.0260    0.2071   -2.8416 S   0  0  0  0  0  0  0  0  0  0  0  0
   -1.2696    0.2277   -3.3293 H   0  0  0  0  0  0  0  0  0  0  0  0
   -1.1221   -1.1401   -0.2680 P   0  0  0  0  0  0  0  0  0  0  0  0
    1.8493   -0.3828   -0.4041 P   0  0  0  0  0  0  0  0  0  0  0  0
   -0.4152   -2.6941   -1.0672 C   0  0  0  0  0  0  0  0  0  0  0  0
   -0.0522   -3.3418   -0.2434 H   0  0  0  0  0  0  0  0  0  0  0  0
   -1.2420   -3.2491   -1.5548 H   0  0  0  0  0  0  0  0  0  0  0  0
    2.0267   -1.9702   -1.3942 C   0  0  0  0  0  0  0  0  0  0  0  0
    2.7972   -1.7764   -2.1683 H   0  0  0  0  0  0  0  0  0  0  0  0
    2.4399   -2.7561   -0.7306 H   0  0  0  0  0  0  0  0  0  0  0  0
    0.3447   -1.5879   -3.2628 C   0  0  0  0  0  0  0  0  0  0  0  0
   -0.5591   -1.9821   -3.7680 H   0  0  0  0  0  0  0  0  0  0  0  0
    1.1674   -1.5759   -4.0059 H   0  0  0  0  0  0  0  0  0  0  0  0
    0.7403   -2.4934   -2.0782 C   0  0  0  0  0  0  0  0  0  0  0  0
    1.0703   -3.8760   -2.6841 C   0  0  0  0  0  0  0  0  0  0  0  0
    1.9253   -3.8110   -3.3877 H   0  0  0  0  0  0  0  0  0  0  0  0
    0.2013   -4.2913   -3.2345 H   0  0  0  0  0  0  0  0  0  0  0  0
    1.3412   -4.5957   -1.8848 H   0  0  0  0  0  0  0  0  0  0  0  0
   -3.2529   -1.5986   -2.1235 C   0  0  0  0  0  0  0  0  0  0  0  0
   -2.4967   -1.9987   -2.8163 H   0  0  0  0  0  0  0  0  0  0  0  0
   -4.5857   -1.5039   -2.5577 C   0  0  0  0  0  0  0  0  0  0  0  0
   -4.8520   -1.8256   -3.5763 H   0  0  0  0  0  0  0  0  0  0  0  0
   -5.5719   -1.0055   -1.6949 C   0  0  0  0  0  0  0  0  0  0  0  0
   -6.6164   -0.9309   -2.0334 H   0  0  0  0  0  0  0  0  0  0  0  0
   -5.2184   -0.5996   -0.3968 C   0  0  0  0  0  0  0  0  0  0  0  0
   -5.9853   -0.2017    0.2850 H   0  0  0  0  0  0  0  0  0  0  0  0
   -3.8891   -0.6888    0.0342 C   0  0  0  0  0  0  0  0  0  0  0  0
   -3.6163   -0.3528    1.0458 H   0  0  0  0  0  0  0  0  0  0  0  0
   -2.8905   -1.1974   -0.8229 C   0  0  0  0  0  0  0  0  0  0  0  0
   -1.8088   -2.9065    1.8525 C   0  0  0  0  0  0  0  0  0  0  0  0
   -2.1509   -3.6006    1.0684 H   0  0  0  0  0  0  0  0  0  0  0  0
   -1.9010   -3.2840    3.1997 C   0  0  0  0  0  0  0  0  0  0  0  0
   -2.2986   -4.2761    3.4643 H   0  0  0  0  0  0  0  0  0  0  0  0
   -1.4960   -2.3936    4.2094 C   0  0  0  0  0  0  0  0  0  0  0  0
   -1.5684   -2.6920    5.2667 H   0  0  0  0  0  0  0  0  0  0  0  0
   -1.0046   -1.1254    3.8666 C   0  0  0  0  0  0  0  0  0  0  0  0
   -0.6831   -0.4235    4.6508 H   0  0  0  0  0  0  0  0  0  0  0  0
   -0.9008   -0.7480    2.5190 C   0  0  0  0  0  0  0  0  0  0  0  0
   -0.4885    0.2344    2.2361 H   0  0  0  0  0  0  0  0  0  0  0  0
   -1.2948   -1.6389    1.5057 C   0  0  0  0  0  0  0  0  0  0  0  0
    2.8531    0.0653    2.1854 C   0  0  0  0  0  0  0  0  0  0  0  0
    3.1038    1.0663    1.8056 H   0  0  0  0  0  0  0  0  0  0  0  0
    3.0765   -0.2453    3.5345 C   0  0  0  0  0  0  0  0  0  0  0  0
    3.5067    0.5171    4.2019 H   0  0  0  0  0  0  0  0  0  0  0  0
    2.7547   -1.5178    4.0330 C   0  0  0  0  0  0  0  0  0  0  0  0
    2.9286   -1.7575    5.0930 H   0  0  0  0  0  0  0  0  0  0  0  0
    2.2083   -2.4818    3.1725 C   0  0  0  0  0  0  0  0  0  0  0  0
    1.9418   -3.4793    3.5528 H   0  0  0  0  0  0  0  0  0  0  0  0
    1.9809   -2.1715    1.8242 C   0  0  0  0  0  0  0  0  0  0  0  0
    1.5297   -2.9364    1.1759 H   0  0  0  0  0  0  0  0  0  0  0  0
    2.3019   -0.8980    1.3122 C   0  0  0  0  0  0  0  0  0  0  0  0
    3.2243    1.7873   -1.5504 C   0  0  0  0  0  0  0  0  0  0  0  0
    2.2147    2.2162   -1.6508 H   0  0  0  0  0  0  0  0  0  0  0  0
    4.3553    2.4852   -2.0039 C   0  0  0  0  0  0  0  0  0  0  0  0
    4.2335    3.4681   -2.4842 H   0  0  0  0  0  0  0  0  0  0  0  0
    5.6352    1.9346   -1.8385 C   0  0  0  0  0  0  0  0  0  0  0  0
    6.5218    2.4830   -2.1923 H   0  0  0  0  0  0  0  0  0  0  0  0
    5.7868    0.6848   -1.2125 C   0  0  0  0  0  0  0  0  0  0  0  0
    6.7911    0.2556   -1.0733 H   0  0  0  0  0  0  0  0  0  0  0  0
    4.6596   -0.0133   -0.7569 C   0  0  0  0  0  0  0  0  0  0  0  0
    4.7816   -0.9842   -0.2507 H   0  0  0  0  0  0  0  0  0  0  0  0
    3.3709    0.5337   -0.9293 C   0  0  0  0  0  0  0  0  0  0  0  0
  2  1  1  0  0  0  0
  3 40  1  0  0  0  0
  4 51  1  0  0  0  0
  5  3  1  0  0  0  0
  5  6  1  0  0  0  0
  7  5  1  0  0  0  0
  8 10  1  0  0  0  0
  8  4  1  0  0  0  0
  9  8  1  0  0  0  0
 11  1  1  0  0  0  0
 11 14  1  0  0  0  0
 12 11  1  0  0  0  0
 13 11  1  0  0  0  0
 14  8  1  0  0  0  0
 14  5  1  0  0  0  0
 15 14  1  0  0  0  0
 15 18  1  0  0  0  0
 16 15  1  0  0  0  0
 17 15  1  0  0  0  0
 19 29  1  0  0  0  0
 20 19  1  0  0  0  0
 21 19  2  0  0  0  0
 21 23  1  0  0  0  0
 22 21  1  0  0  0  0
 23 25  2  0  0  0  0
 24 23  1  0  0  0  0
 25 27  1  0  0  0  0
 25 26  1  0  0  0  0
 27 28  1  0  0  0  0
 29  3  1  0  0  0  0
 29 27  2  0  0  0  0
 30 32  1  0  0  0  0
 31 30  1  0  0  0  0
 32 33  1  0  0  0  0
 32 34  2  0  0  0  0
 34 35  1  0  0  0  0
 36 34  1  0  0  0  0
 36 37  1  0  0  0  0
 38 36  2  0  0  0  0
 39 38  1  0  0  0  0
 40 30  2  0  0  0  0
 40 38  1  0  0  0  0
 41 43  1  0  0  0  0
 42 41  1  0  0  0  0
 43 45  2  0  0  0  0
 43 44  1  0  0  0  0
 45 46  1  0  0  0  0
 47 48  1  0  0  0  0
 47 45  1  0  0  0  0
 49 47  2  0  0  0  0
 50 49  1  0  0  0  0
 51 49  1  0  0  0  0
 51 41  2  0  0  0  0
 52 62  1  0  0  0  0
 53 52  1  0  0  0  0
 54 56  1  0  0  0  0
 54 52  2  0  0  0  0
 55 54  1  0  0  0  0
 56 58  2  0  0  0  0
 57 56  1  0  0  0  0
 58 59  1  0  0  0  0
 58 60  1  0  0  0  0
 60 61  1  0  0  0  0
 62 60  2  0  0  0  0
 62  4  1  0  0  0  0
M  END
