1,5,9
 OpenBabel05122313063D

 65 68  0  0  0  0  0  0  0  0999 V2000
   -2.1511    0.0285    0.3370 P   0  0  0  0  0  0  0  0  0  0  0  0
   -3.0660   -0.3054    1.9116 C   0  0  0  0  0  0  0  0  0  0  0  0
   -2.7563   -1.7063    2.4562 C   0  0  0  0  0  0  0  0  0  0  0  0
   -1.3459   -1.8571    3.0222 C   0  0  0  0  0  0  0  0  0  0  0  0
    0.0003   -2.0553    1.7726 S   0  0  0  0  0  0  0  0  0  0  0  0
    1.3463   -1.8565    3.0224 C   0  0  0  0  0  0  0  0  0  0  0  0
    2.7568   -1.7051    2.4565 C   0  0  0  0  0  0  0  0  0  0  0  0
    3.0660   -0.3042    1.9117 C   0  0  0  0  0  0  0  0  0  0  0  0
    2.1510    0.0290    0.3370 P   0  0  0  0  0  0  0  0  0  0  0  0
   -2.9836   -1.1538   -0.8016 C   0  0  0  0  0  0  0  0  0  0  0  0
   -4.3577   -1.0419   -1.0972 C   0  0  0  0  0  0  0  0  0  0  0  0
   -4.9882   -2.0089   -1.8943 C   0  0  0  0  0  0  0  0  0  0  0  0
   -4.2529   -3.0952   -2.3971 C   0  0  0  0  0  0  0  0  0  0  0  0
   -2.8848   -3.2103   -2.1045 C   0  0  0  0  0  0  0  0  0  0  0  0
   -2.2508   -2.2415   -1.3128 C   0  0  0  0  0  0  0  0  0  0  0  0
   -2.6977    1.6904   -0.1909 C   0  0  0  0  0  0  0  0  0  0  0  0
   -2.9939    1.9497   -1.5456 C   0  0  0  0  0  0  0  0  0  0  0  0
   -3.3498    3.2437   -1.9508 C   0  0  0  0  0  0  0  0  0  0  0  0
   -3.3994    4.2893   -1.0153 C   0  0  0  0  0  0  0  0  0  0  0  0
   -3.0758    4.0399    0.3279 C   0  0  0  0  0  0  0  0  0  0  0  0
   -2.7178    2.7490    0.7421 C   0  0  0  0  0  0  0  0  0  0  0  0
    2.6972    1.6910   -0.1912 C   0  0  0  0  0  0  0  0  0  0  0  0
    2.9942    1.9499   -1.5459 C   0  0  0  0  0  0  0  0  0  0  0  0
    3.3498    3.2439   -1.9512 C   0  0  0  0  0  0  0  0  0  0  0  0
    3.3983    4.2900   -1.0161 C   0  0  0  0  0  0  0  0  0  0  0  0
    3.0740    4.0408    0.3270 C   0  0  0  0  0  0  0  0  0  0  0  0
    2.7163    2.7499    0.7414 C   0  0  0  0  0  0  0  0  0  0  0  0
    2.9840   -1.1534   -0.8013 C   0  0  0  0  0  0  0  0  0  0  0  0
    2.2513   -2.2409   -1.3128 C   0  0  0  0  0  0  0  0  0  0  0  0
    2.8856   -3.2098   -2.1042 C   0  0  0  0  0  0  0  0  0  0  0  0
    4.2538   -3.0948   -2.3963 C   0  0  0  0  0  0  0  0  0  0  0  0
    4.9890   -2.0086   -1.8931 C   0  0  0  0  0  0  0  0  0  0  0  0
    4.3582   -1.0415   -1.0963 C   0  0  0  0  0  0  0  0  0  0  0  0
   -4.1509   -0.1825    1.7173 H   0  0  0  0  0  0  0  0  0  0  0  0
   -2.7464    0.4696    2.6370 H   0  0  0  0  0  0  0  0  0  0  0  0
   -2.9598   -2.4824    1.6860 H   0  0  0  0  0  0  0  0  0  0  0  0
   -3.4602   -1.9185    3.2891 H   0  0  0  0  0  0  0  0  0  0  0  0
   -1.2770   -2.7479    3.6797 H   0  0  0  0  0  0  0  0  0  0  0  0
   -1.0718   -0.9499    3.6009 H   0  0  0  0  0  0  0  0  0  0  0  0
    1.2777   -2.7472    3.6800 H   0  0  0  0  0  0  0  0  0  0  0  0
    1.0718   -0.9492    3.6008 H   0  0  0  0  0  0  0  0  0  0  0  0
    2.9607   -2.4813    1.6865 H   0  0  0  0  0  0  0  0  0  0  0  0
    3.4606   -1.9170    3.2895 H   0  0  0  0  0  0  0  0  0  0  0  0
    4.1509   -0.1810    1.7175 H   0  0  0  0  0  0  0  0  0  0  0  0
    2.7460    0.4708    2.6369 H   0  0  0  0  0  0  0  0  0  0  0  0
   -4.9364   -0.1872   -0.7128 H   0  0  0  0  0  0  0  0  0  0  0  0
   -6.0601   -1.9127   -2.1258 H   0  0  0  0  0  0  0  0  0  0  0  0
   -4.7490   -3.8527   -3.0231 H   0  0  0  0  0  0  0  0  0  0  0  0
   -2.3038   -4.0566   -2.5016 H   0  0  0  0  0  0  0  0  0  0  0  0
   -1.1759   -2.3015   -1.0907 H   0  0  0  0  0  0  0  0  0  0  0  0
   -2.9333    1.1370   -2.2830 H   0  0  0  0  0  0  0  0  0  0  0  0
   -3.5818    3.4368   -3.0093 H   0  0  0  0  0  0  0  0  0  0  0  0
   -3.6784    5.3046   -1.3367 H   0  0  0  0  0  0  0  0  0  0  0  0
   -3.0890    4.8604    1.0614 H   0  0  0  0  0  0  0  0  0  0  0  0
   -2.4039    2.5714    1.7808 H   0  0  0  0  0  0  0  0  0  0  0  0
    2.9345    1.1370   -2.2831 H   0  0  0  0  0  0  0  0  0  0  0  0
    3.5823    3.4368   -3.0096 H   0  0  0  0  0  0  0  0  0  0  0  0
    3.6770    5.3052   -1.3377 H   0  0  0  0  0  0  0  0  0  0  0  0
    3.0864    4.8616    1.0602 H   0  0  0  0  0  0  0  0  0  0  0  0
    2.4018    2.5725    1.7800 H   0  0  0  0  0  0  0  0  0  0  0  0
    1.1763   -2.3008   -1.0912 H   0  0  0  0  0  0  0  0  0  0  0  0
    2.3047   -4.0560   -2.5016 H   0  0  0  0  0  0  0  0  0  0  0  0
    4.7502   -3.8523   -3.0220 H   0  0  0  0  0  0  0  0  0  0  0  0
    6.0610   -1.9125   -2.1240 H   0  0  0  0  0  0  0  0  0  0  0  0
    4.9368   -0.1869   -0.7116 H   0  0  0  0  0  0  0  0  0  0  0  0
  1  2  1  0  0  0  0
  2  3  1  0  0  0  0
  2 35  1  0  0  0  0
  3  4  1  0  0  0  0
  3 37  1  0  0  0  0
  4 39  1  0  0  0  0
  4 38  1  0  0  0  0
  5  4  1  0  0  0  0
  5  6  1  0  0  0  0
  6 41  1  0  0  0  0
  6 40  1  0  0  0  0
  7  6  1  0  0  0  0
  7 43  1  0  0  0  0
  8  7  1  0  0  0  0
  8 45  1  0  0  0  0
  9  8  1  0  0  0  0
 10  1  1  0  0  0  0
 11 10  1  0  0  0  0
 11 46  1  0  0  0  0
 12 11  2  0  0  0  0
 13 14  2  0  0  0  0
 13 12  1  0  0  0  0
 14 15  1  0  0  0  0
 15 50  1  0  0  0  0
 15 10  2  0  0  0  0
 16  1  1  0  0  0  0
 16 21  1  0  0  0  0
 17 16  2  0  0  0  0
 18 17  1  0  0  0  0
 18 19  2  0  0  0  0
 19 20  1  0  0  0  0
 20 21  2  0  0  0  0
 20 54  1  0  0  0  0
 21 55  1  0  0  0  0
 22  9  1  0  0  0  0
 22 27  1  0  0  0  0
 23 22  2  0  0  0  0
 24 23  1  0  0  0  0
 24 25  2  0  0  0  0
 25 26  1  0  0  0  0
 26 27  2  0  0  0  0
 26 59  1  0  0  0  0
 27 60  1  0  0  0  0
 28  9  1  0  0  0  0
 29 61  1  0  0  0  0
 29 28  2  0  0  0  0
 30 29  1  0  0  0  0
 31 30  2  0  0  0  0
 31 32  1  0  0  0  0
 32 33  2  0  0  0  0
 33 28  1  0  0  0  0
 33 65  1  0  0  0  0
 34  2  1  0  0  0  0
 36  3  1  0  0  0  0
 42  7  1  0  0  0  0
 44  8  1  0  0  0  0
 47 12  1  0  0  0  0
 48 13  1  0  0  0  0
 49 14  1  0  0  0  0
 51 17  1  0  0  0  0
 52 18  1  0  0  0  0
 53 19  1  0  0  0  0
 56 23  1  0  0  0  0
 57 24  1  0  0  0  0
 58 25  1  0  0  0  0
 62 30  1  0  0  0  0
 63 31  1  0  0  0  0
 64 32  1  0  0  0  0
M  END
