1,3,8,9
 OpenBabel05122313063D

 70 69  0  0  0  0  0  0  0  0999 V2000
   -1.3301    0.9571   -1.1023 P   0  0  0  0  0  2  0  0  0  0  0  0
   -0.0405    2.2985    0.1963 P   0  0  0  0  0  0  0  0  0  0  0  0
    1.2842    1.0029   -1.1303 P   0  0  0  0  0  2  0  0  0  0  0  0
   -2.9900   -1.5397   -1.1264 Si  0  0  0  0  0  0  0  0  0  0  0  0
   -2.5873   -0.0236    1.7407 Si  0  0  0  0  0  0  0  0  0  0  0  0
    2.8631    0.0177    1.5731 Si  0  0  0  0  0  0  0  0  0  0  0  0
    2.8066   -1.5664   -1.2750 Si  0  0  0  0  0  0  0  0  0  0  0  0
   -1.9788   -0.3251   -0.0407 C   0  0  0  0  0  3  0  0  0  0  0  0
    2.0093   -0.2669   -0.1070 C   0  0  0  0  0  3  0  0  0  0  0  0
   -0.0953    3.9607   -0.7719 C   0  0  0  0  0  0  0  0  0  0  0  0
   -0.0484    3.8285   -2.2973 C   0  0  0  0  0  0  0  0  0  0  0  0
   -0.0984    4.8367   -2.7635 H   0  0  0  0  0  0  0  0  0  0  0  0
    0.8876    3.3435   -2.6411 H   0  0  0  0  0  0  0  0  0  0  0  0
   -0.8989    3.2331   -2.6873 H   0  0  0  0  0  0  0  0  0  0  0  0
   -1.4086    4.6283   -0.3320 C   0  0  0  0  0  0  0  0  0  0  0  0
   -1.4877    5.6466   -0.7710 H   0  0  0  0  0  0  0  0  0  0  0  0
   -2.2904    4.0465   -0.6731 H   0  0  0  0  0  0  0  0  0  0  0  0
   -1.4697    4.7273    0.7716 H   0  0  0  0  0  0  0  0  0  0  0  0
    1.1179    4.7576   -0.2653 C   0  0  0  0  0  0  0  0  0  0  0  0
    1.1209    5.7770   -0.7089 H   0  0  0  0  0  0  0  0  0  0  0  0
    1.1065    4.8654    0.8389 H   0  0  0  0  0  0  0  0  0  0  0  0
    2.0705    4.2646   -0.5511 H   0  0  0  0  0  0  0  0  0  0  0  0
   -2.4643   -1.4404   -2.9455 C   0  0  0  0  0  0  0  0  0  0  0  0
   -3.0358   -2.1989   -3.5213 H   0  0  0  0  0  0  0  0  0  0  0  0
   -2.6636   -0.4471   -3.3942 H   0  0  0  0  0  0  0  0  0  0  0  0
   -1.3848   -1.6563   -3.0740 H   0  0  0  0  0  0  0  0  0  0  0  0
   -4.8286   -1.0743   -1.0404 C   0  0  0  0  0  0  0  0  0  0  0  0
   -5.4197   -1.7325   -1.7106 H   0  0  0  0  0  0  0  0  0  0  0  0
   -5.2494   -1.1659   -0.0196 H   0  0  0  0  0  0  0  0  0  0  0  0
   -4.9755   -0.0274   -1.3766 H   0  0  0  0  0  0  0  0  0  0  0  0
   -2.7574   -3.3452   -0.6022 C   0  0  0  0  0  0  0  0  0  0  0  0
   -3.4781   -3.9762   -1.1633 H   0  0  0  0  0  0  0  0  0  0  0  0
   -1.7375   -3.6999   -0.8531 H   0  0  0  0  0  0  0  0  0  0  0  0
   -2.9223   -3.5166    0.4779 H   0  0  0  0  0  0  0  0  0  0  0  0
   -1.2412    0.4486    2.9842 C   0  0  0  0  0  0  0  0  0  0  0  0
   -0.4750   -0.3449    3.0873 H   0  0  0  0  0  0  0  0  0  0  0  0
   -0.7324    1.3879    2.6953 H   0  0  0  0  0  0  0  0  0  0  0  0
   -1.7139    0.5937    3.9786 H   0  0  0  0  0  0  0  0  0  0  0  0
   -3.8450    1.3932    1.6689 C   0  0  0  0  0  0  0  0  0  0  0  0
   -4.2702    1.5987    2.6731 H   0  0  0  0  0  0  0  0  0  0  0  0
   -3.3478    2.3187    1.3109 H   0  0  0  0  0  0  0  0  0  0  0  0
   -4.6806    1.1639    0.9780 H   0  0  0  0  0  0  0  0  0  0  0  0
   -3.3994   -1.5865    2.4466 C   0  0  0  0  0  0  0  0  0  0  0  0
   -2.6553   -2.4029    2.5446 H   0  0  0  0  0  0  0  0  0  0  0  0
   -3.7829   -1.3611    3.4635 H   0  0  0  0  0  0  0  0  0  0  0  0
   -4.2482   -1.9622    1.8430 H   0  0  0  0  0  0  0  0  0  0  0  0
    2.5094   -1.3633    2.8220 C   0  0  0  0  0  0  0  0  0  0  0  0
    1.4636   -1.3283    3.1861 H   0  0  0  0  0  0  0  0  0  0  0  0
    2.6901   -2.3721    2.4046 H   0  0  0  0  0  0  0  0  0  0  0  0
    3.1734   -1.2325    3.7019 H   0  0  0  0  0  0  0  0  0  0  0  0
    4.7409    0.0646    1.2698 C   0  0  0  0  0  0  0  0  0  0  0  0
    5.2572    0.2895    2.2263 H   0  0  0  0  0  0  0  0  0  0  0  0
    5.1454   -0.8935    0.8880 H   0  0  0  0  0  0  0  0  0  0  0  0
    5.0061    0.8620    0.5461 H   0  0  0  0  0  0  0  0  0  0  0  0
    2.4476    1.6685    2.3974 C   0  0  0  0  0  0  0  0  0  0  0  0
    1.3928    1.7328    2.7225 H   0  0  0  0  0  0  0  0  0  0  0  0
    3.0954    1.7714    3.2940 H   0  0  0  0  0  0  0  0  0  0  0  0
    2.6509    2.5294    1.7293 H   0  0  0  0  0  0  0  0  0  0  0  0
    1.5521   -2.1177   -2.5891 C   0  0  0  0  0  0  0  0  0  0  0  0
    0.6893   -2.6416   -2.1274 H   0  0  0  0  0  0  0  0  0  0  0  0
    1.1589   -1.2564   -3.1662 H   0  0  0  0  0  0  0  0  0  0  0  0
    2.0334   -2.8203   -3.3016 H   0  0  0  0  0  0  0  0  0  0  0  0
    3.3236   -3.1137   -0.3117 C   0  0  0  0  0  0  0  0  0  0  0  0
    2.4540   -3.5858    0.1871 H   0  0  0  0  0  0  0  0  0  0  0  0
    3.7483   -3.8539   -1.0213 H   0  0  0  0  0  0  0  0  0  0  0  0
    4.0934   -2.9081    0.4577 H   0  0  0  0  0  0  0  0  0  0  0  0
    4.3001   -0.8368   -2.1862 C   0  0  0  0  0  0  0  0  0  0  0  0
    4.7107   -1.5768   -2.9044 H   0  0  0  0  0  0  0  0  0  0  0  0
    3.9944    0.0616   -2.7610 H   0  0  0  0  0  0  0  0  0  0  0  0
    5.1123   -0.5406   -1.4948 H   0  0  0  0  0  0  0  0  0  0  0  0
  1  8  1  0  0  0  0
  1  2  1  0  0  0  0
  3  9  1  0  0  0  0
  3  2  1  0  0  0  0
  4 27  1  0  0  0  0
  4 31  1  0  0  0  0
  4  8  1  0  0  0  0
  5 43  1  0  0  0  0
  5 35  1  0  0  0  0
  6 55  1  0  0  0  0
  6 47  1  0  0  0  0
  7 63  1  0  0  0  0
  7  9  1  0  0  0  0
  8  5  1  0  0  0  0
  9  6  1  0  0  0  0
 10 15  1  0  0  0  0
 10 19  1  0  0  0  0
 10  2  1  0  0  0  0
 11 10  1  0  0  0  0
 12 11  1  0  0  0  0
 13 11  1  0  0  0  0
 14 11  1  0  0  0  0
 15 18  1  0  0  0  0
 16 15  1  0  0  0  0
 17 15  1  0  0  0  0
 19 21  1  0  0  0  0
 20 19  1  0  0  0  0
 22 19  1  0  0  0  0
 23  4  1  0  0  0  0
 24 23  1  0  0  0  0
 25 23  1  0  0  0  0
 26 23  1  0  0  0  0
 27 29  1  0  0  0  0
 28 27  1  0  0  0  0
 30 27  1  0  0  0  0
 31 34  1  0  0  0  0
 32 31  1  0  0  0  0
 33 31  1  0  0  0  0
 35 36  1  0  0  0  0
 35 38  1  0  0  0  0
 37 35  1  0  0  0  0
 39  5  1  0  0  0  0
 39 40  1  0  0  0  0
 41 39  1  0  0  0  0
 42 39  1  0  0  0  0
 43 44  1  0  0  0  0
 43 45  1  0  0  0  0
 46 43  1  0  0  0  0
 47 48  1  0  0  0  0
 47 50  1  0  0  0  0
 49 47  1  0  0  0  0
 51  6  1  0  0  0  0
 51 52  1  0  0  0  0
 53 51  1  0  0  0  0
 54 51  1  0  0  0  0
 55 56  1  0  0  0  0
 55 57  1  0  0  0  0
 58 55  1  0  0  0  0
 59 60  1  0  0  0  0
 59  7  1  0  0  0  0
 61 59  1  0  0  0  0
 62 59  1  0  0  0  0
 63 64  1  0  0  0  0
 63 66  1  0  0  0  0
 65 63  1  0  0  0  0
 67 70  1  0  0  0  0
 67  7  1  0  0  0  0
 68 67  1  0  0  0  0
 69 67  1  0  0  0  0
M  END
