2,3,4,9
 OpenBabel05122313063D

 31 31  0  0  1  0  0  0  0  0999 V2000
    1.0743   -0.2058    1.8630 P   0  0  0  0  0  2  0  0  0  0  0  0
   -1.0626   -0.1930    1.8752 P   0  0  0  0  0  2  0  0  0  0  0  0
   -0.0085   -1.1598   -0.9610 P   0  0  0  0  0  2  0  0  0  0  0  0
    1.3274   -0.7213    0.1419 C   0  0  2  0  0  3  0  0  0  0  0  0
    2.7764   -0.9118   -0.3622 C   0  0  0  0  0  0  0  0  0  0  0  0
    3.0701   -2.4265   -0.2279 C   0  0  0  0  0  0  0  0  0  0  0  0
    2.9252   -0.4940   -1.8393 C   0  0  0  0  0  0  0  0  0  0  0  0
    3.8075   -0.1353    0.4804 C   0  0  0  0  0  0  0  0  0  0  0  0
   -1.3318   -0.7069    0.1574 C   0  0  1  0  0  3  0  0  0  0  0  0
   -2.7871   -0.8939   -0.3299 C   0  0  0  0  0  0  0  0  0  0  0  0
   -3.8003   -0.0719    0.4912 C   0  0  0  0  0  0  0  0  0  0  0  0
   -3.0986   -2.3985   -0.1354 C   0  0  0  0  0  0  0  0  0  0  0  0
   -2.9449   -0.5329   -1.8210 C   0  0  0  0  0  0  0  0  0  0  0  0
    4.1109   -2.6433   -0.5447 H   0  0  0  0  0  0  0  0  0  0  0  0
    2.9505   -2.7623    0.8220 H   0  0  0  0  0  0  0  0  0  0  0  0
    2.3815   -3.0242   -0.8587 H   0  0  0  0  0  0  0  0  0  0  0  0
    2.2213   -1.0443   -2.4956 H   0  0  0  0  0  0  0  0  0  0  0  0
    3.9549   -0.7093   -2.1906 H   0  0  0  0  0  0  0  0  0  0  0  0
    2.7384    0.5895   -1.9722 H   0  0  0  0  0  0  0  0  0  0  0  0
    3.6279    0.9569    0.4525 H   0  0  0  0  0  0  0  0  0  0  0  0
    4.8260   -0.3199    0.0825 H   0  0  0  0  0  0  0  0  0  0  0  0
    3.7986   -0.4562    1.5413 H   0  0  0  0  0  0  0  0  0  0  0  0
   -4.8253   -0.2611    0.1125 H   0  0  0  0  0  0  0  0  0  0  0  0
   -3.7828   -0.3492    1.5642 H   0  0  0  0  0  0  0  0  0  0  0  0
   -3.6090    1.0160    0.4162 H   0  0  0  0  0  0  0  0  0  0  0  0
   -2.9808   -2.6942    0.9267 H   0  0  0  0  0  0  0  0  0  0  0  0
   -2.4185   -3.0288   -0.7434 H   0  0  0  0  0  0  0  0  0  0  0  0
   -4.1425   -2.6150   -0.4421 H   0  0  0  0  0  0  0  0  0  0  0  0
   -2.2603   -1.1232   -2.4627 H   0  0  0  0  0  0  0  0  0  0  0  0
   -2.7411    0.5404   -2.0013 H   0  0  0  0  0  0  0  0  0  0  0  0
   -3.9827   -0.7430   -2.1511 H   0  0  0  0  0  0  0  0  0  0  0  0
  1  2  1  0  0  0  0
  3  4  1  0  0  0  0
  3  9  1  0  0  0  0
  4  5  1  1  0  0  0
  4  1  1  0  0  0  0
  5  6  1  0  0  0  0
  5  8  1  0  0  0  0
  6 15  1  0  0  0  0
  7  5  1  0  0  0  0
  8 22  1  0  0  0  0
  9 10  1  1  0  0  0
  9  2  1  0  0  0  0
 10 12  1  0  0  0  0
 10 11  1  0  0  0  0
 11 24  1  0  0  0  0
 12 26  1  0  0  0  0
 13 10  1  0  0  0  0
 14  6  1  0  0  0  0
 16  6  1  0  0  0  0
 17  7  1  0  0  0  0
 18  7  1  0  0  0  0
 19  7  1  0  0  0  0
 20  8  1  0  0  0  0
 21  8  1  0  0  0  0
 23 11  1  0  0  0  0
 25 11  1  0  0  0  0
 27 12  1  0  0  0  0
 28 12  1  0  0  0  0
 29 13  1  0  0  0  0
 30 13  1  0  0  0  0
 31 13  1  0  0  0  0
M  END
