1,2
 OpenBabel05122313063D

 10 10  0  0  0  0  0  0  0  0999 V2000
    1.7599   -1.7694   -0.0006 Se  0  0  0  0  0  1  0  0  0  0  0  0
    1.7595    1.7693   -0.0007 Se  0  0  0  0  0  1  0  0  0  0  0  0
    3.3469    0.7193    0.0000 C   0  0  0  0  0  0  0  0  0  0  0  0
    4.4974    1.4011    0.0009 N   0  0  0  0  0  0  0  0  0  0  0  0
    5.6460    0.7001    0.0012 C   0  0  0  0  0  0  0  0  0  0  0  0
    6.5898    1.2757    0.0020 H   0  0  0  0  0  0  0  0  0  0  0  0
    3.3471   -0.7190   -0.0003 C   0  0  0  0  0  0  0  0  0  0  0  0
    4.4978   -1.4004   -0.0002 N   0  0  0  0  0  0  0  0  0  0  0  0
    5.6462   -0.6992    0.0005 C   0  0  0  0  0  0  0  0  0  0  0  0
    6.5901   -1.2745    0.0005 H   0  0  0  0  0  0  0  0  0  0  0  0
  1  7  1  0  0  0  0
  2  3  1  0  0  0  0
  3  4  1  0  0  0  0
  4  5  2  0  0  0  0
  5  6  1  0  0  0  0
  7  8  1  0  0  0  0
  7  3  2  0  0  0  0
  8  9  2  0  0  0  0
  9  5  1  0  0  0  0
 10  9  1  0  0  0  0
M  END
