1,2
 OpenBabel05122313063D

 19 18  0  0  0  0  0  0  0  0999 V2000
   -0.9605   -1.7650   -0.1095 Se  0  0  0  0  0  1  0  0  0  0  0  0
   -0.9560    1.7916   -0.2440 Se  0  0  0  0  0  1  0  0  0  0  0  0
   -5.1019   -1.6380    0.1756 O   0  0  0  0  0  0  0  0  0  0  0  0
   -5.7168   -2.1696   -0.3580 H   0  0  0  0  0  0  0  0  0  0  0  0
   -5.0188    1.7231    0.3124 O   0  0  0  0  0  0  0  0  0  0  0  0
   -5.4843    2.2905    0.9500 H   0  0  0  0  0  0  0  0  0  0  0  0
   -2.4159   -0.8957    0.9138 C   0  0  0  0  0  0  0  0  0  0  0  0
   -3.0104   -1.7198    1.3537 H   0  0  0  0  0  0  0  0  0  0  0  0
   -1.9326   -0.3224    1.7265 H   0  0  0  0  0  0  0  0  0  0  0  0
   -3.3368    0.0082    0.0762 C   0  0  0  0  0  0  0  0  0  0  0  0
   -2.5540    0.8621   -0.9373 C   0  0  0  0  0  0  0  0  0  0  0  0
   -3.2091    1.6715   -1.3154 H   0  0  0  0  0  0  0  0  0  0  0  0
   -2.2151    0.2368   -1.7849 H   0  0  0  0  0  0  0  0  0  0  0  0
   -4.3259   -0.8570   -0.7260 C   0  0  0  0  0  0  0  0  0  0  0  0
   -4.9671   -0.1797   -1.3364 H   0  0  0  0  0  0  0  0  0  0  0  0
   -3.7293   -1.5001   -1.4187 H   0  0  0  0  0  0  0  0  0  0  0  0
   -4.1087    0.9154    1.0499 C   0  0  0  0  0  0  0  0  0  0  0  0
   -4.6401    0.2679    1.7861 H   0  0  0  0  0  0  0  0  0  0  0  0
   -3.3582    1.5364    1.5976 H   0  0  0  0  0  0  0  0  0  0  0  0
  1  7  1  0  0  0  0
  4  3  1  0  0  0  0
  5  6  1  0  0  0  0
  5 17  1  0  0  0  0
  7  8  1  0  0  0  0
  7  9  1  0  0  0  0
 10  7  1  0  0  0  0
 10 17  1  0  0  0  0
 11  2  1  0  0  0  0
 11 10  1  0  0  0  0
 12 11  1  0  0  0  0
 13 11  1  0  0  0  0
 14 10  1  0  0  0  0
 14  3  1  0  0  0  0
 15 14  1  0  0  0  0
 16 14  1  0  0  0  0
 17 19  1  0  0  0  0
 17 18  1  0  0  0  0
M  END
