1,2
 OpenBabel05122313063D

 22 22  0  0  0  0  0  0  0  0999 V2000
   -1.8461    1.7198   -0.6489 Se  0  0  0  0  0  1  0  0  0  0  0  0
   -1.8374   -1.7108   -0.6855 Se  0  0  0  0  0  1  0  0  0  0  0  0
   -3.3428    0.6882   -1.2515 C   0  0  0  0  0  0  0  0  0  0  0  0
   -3.3362   -0.6719   -1.2662 C   0  0  0  0  0  0  0  0  0  0  0  0
   -4.5657   -1.4885   -1.5802 C   0  0  0  0  0  0  0  0  0  0  0  0
   -5.2000   -0.9249   -2.2980 H   0  0  0  0  0  0  0  0  0  0  0  0
   -4.2839   -2.4310   -2.0966 H   0  0  0  0  0  0  0  0  0  0  0  0
   -5.3927   -1.8317   -0.3231 C   0  0  0  0  0  0  0  0  0  0  0  0
   -4.8456   -2.6007    0.2635 H   0  0  0  0  0  0  0  0  0  0  0  0
   -6.3466   -2.3051   -0.6478 H   0  0  0  0  0  0  0  0  0  0  0  0
   -5.6953   -0.6432    0.6011 C   0  0  0  0  0  0  0  0  0  0  0  0
   -6.3122   -1.0283    1.4408 H   0  0  0  0  0  0  0  0  0  0  0  0
   -4.7468   -0.2904    1.0607 H   0  0  0  0  0  0  0  0  0  0  0  0
   -6.4230    0.5549   -0.0503 C   0  0  0  0  0  0  0  0  0  0  0  0
   -7.1801    0.9406    0.6654 H   0  0  0  0  0  0  0  0  0  0  0  0
   -7.0110    0.2035   -0.9293 H   0  0  0  0  0  0  0  0  0  0  0  0
   -5.5542    1.7554   -0.4646 C   0  0  0  0  0  0  0  0  0  0  0  0
   -6.2337    2.5845   -0.7617 H   0  0  0  0  0  0  0  0  0  0  0  0
   -4.9925    2.1222    0.4229 H   0  0  0  0  0  0  0  0  0  0  0  0
   -4.5481    1.5326   -1.6118 C   0  0  0  0  0  0  0  0  0  0  0  0
   -4.1942    2.5254   -1.9628 H   0  0  0  0  0  0  0  0  0  0  0  0
   -5.0765    1.0789   -2.4801 H   0  0  0  0  0  0  0  0  0  0  0  0
  3  1  1  0  0  0  0
  4  3  2  0  0  0  0
  4  2  1  0  0  0  0
  5  4  1  0  0  0  0
  5  8  1  0  0  0  0
  6  5  1  0  0  0  0
  7  5  1  0  0  0  0
  8  9  1  0  0  0  0
  8 11  1  0  0  0  0
 10  8  1  0  0  0  0
 11 13  1  0  0  0  0
 11 12  1  0  0  0  0
 14 11  1  0  0  0  0
 14 15  1  0  0  0  0
 16 14  1  0  0  0  0
 17 14  1  0  0  0  0
 17 19  1  0  0  0  0
 18 17  1  0  0  0  0
 20  3  1  0  0  0  0
 20 17  1  0  0  0  0
 21 20  1  0  0  0  0
 22 20  1  0  0  0  0
M  END
