1,2
 OpenBabel05122313063D

 27 28  0  0  1  0  0  0  0  0999 V2000
   -1.9647   -2.5431   -0.6761 Se  0  0  0  0  0  1  0  0  0  0  0  0
    0.8778    0.1344   -1.9091 Se  0  0  0  0  0  1  0  0  0  0  0  0
   -2.6075    0.4894   -2.3795 B   0  0  0  0  0  0  0  0  0  0  0  0
   -3.4985    0.9559   -3.0893 H   0  0  0  0  0  0  0  0  0  0  0  0
   -2.0063   -0.4483   -2.8656 H   0  0  0  0  0  0  0  0  0  0  0  0
   -3.2831    0.0524   -1.0263 N   0  0  0  0  0  0  0  0  0  0  0  0
   -3.9322   -1.0223    0.7872 N   0  0  0  0  0  0  0  0  0  0  0  0
   -1.6052    1.6788   -2.1032 N   0  0  0  0  0  0  0  0  0  0  0  0
    0.1983    2.9098   -1.7681 N   0  0  0  0  0  0  0  0  0  0  0  0
   -3.1023   -1.0899   -0.3088 C   0  0  1  0  0  3  0  0  0  0  0  0
   -4.2184    0.8340   -0.3710 C   0  0  0  0  0  0  0  0  0  0  0  0
   -4.5443    1.7937   -0.7809 H   0  0  0  0  0  0  0  0  0  0  0  0
   -4.6230    0.1768    0.7633 C   0  0  0  0  0  0  0  0  0  0  0  0
   -5.3428    0.4464    1.5414 H   0  0  0  0  0  0  0  0  0  0  0  0
   -4.0036   -1.9960    1.8616 C   0  0  0  0  0  0  0  0  0  0  0  0
   -3.3395   -2.8399    1.5913 H   0  0  0  0  0  0  0  0  0  0  0  0
   -5.0426   -2.3590    1.9864 H   0  0  0  0  0  0  0  0  0  0  0  0
   -3.6493   -1.5407    2.8083 H   0  0  0  0  0  0  0  0  0  0  0  0
   -0.2593    1.6181   -1.9013 C   0  0  2  0  0  3  0  0  0  0  0  0
   -1.9818    3.0107   -2.1099 C   0  0  0  0  0  0  0  0  0  0  0  0
   -3.0202    3.3027   -2.2894 H   0  0  0  0  0  0  0  0  0  0  0  0
   -0.8673    3.7869   -1.9048 C   0  0  0  0  0  0  0  0  0  0  0  0
   -0.7352    4.8720   -1.8658 H   0  0  0  0  0  0  0  0  0  0  0  0
    1.5855    3.2892   -1.5736 C   0  0  0  0  0  0  0  0  0  0  0  0
    2.1095    2.4420   -1.0886 H   0  0  0  0  0  0  0  0  0  0  0  0
    1.6348    4.1838   -0.9257 H   0  0  0  0  0  0  0  0  0  0  0  0
    2.0801    3.4995   -2.5442 H   0  0  0  0  0  0  0  0  0  0  0  0
  3  8  1  0  0  0  0
  3  6  1  0  0  0  0
  4  3  1  0  0  0  0
  5  3  1  0  0  0  0
  6 11  1  0  0  0  0
  6 10  1  0  0  0  0
  7 15  1  0  0  0  0
  8 19  1  0  0  0  0
  9 24  1  0  0  0  0
 10  1  1  6  0  0  0
 10  7  1  0  0  0  0
 11 13  2  0  0  0  0
 12 11  1  0  0  0  0
 13  7  1  0  0  0  0
 13 14  1  0  0  0  0
 15 17  1  0  0  0  0
 15 18  1  0  0  0  0
 16 15  1  0  0  0  0
 19  2  1  6  0  0  0
 19  9  1  0  0  0  0
 20  8  1  0  0  0  0
 20 22  2  0  0  0  0
 21 20  1  0  0  0  0
 22 23  1  0  0  0  0
 22  9  1  0  0  0  0
 24 25  1  0  0  0  0
 24 26  1  0  0  0  0
 27 24  1  0  0  0  0
M  END
