1,2
 OpenBabel05122313063D

 22 24  0  0  0  0  0  0  0  0999 V2000
    1.4817   -0.9090   -2.0167 Se  0  0  0  0  0  1  0  0  0  0  0  0
    1.4002    2.1675   -0.6647 Se  0  0  0  0  0  1  0  0  0  0  0  0
    2.9653   -1.0217   -0.8025 C   0  0  0  0  0  0  0  0  0  0  0  0
    3.6746   -2.2348   -0.8472 C   0  0  0  0  0  0  0  0  0  0  0  0
    4.8497   -2.4839   -0.0934 C   0  0  0  0  0  0  0  0  0  0  0  0
    5.3099   -1.4930    0.7593 C   0  0  0  0  0  0  0  0  0  0  0  0
    4.5960   -0.2656    0.8302 C   0  0  0  0  0  0  0  0  0  0  0  0
    5.2170    0.6282    1.7444 C   0  0  0  0  0  0  0  0  0  0  0  0
    4.6573    1.8820    1.9330 C   0  0  0  0  0  0  0  0  0  0  0  0
    3.4843    2.2150    1.2093 C   0  0  0  0  0  0  0  0  0  0  0  0
    2.8707    1.3544    0.2815 C   0  0  0  0  0  0  0  0  0  0  0  0
    3.4189    0.0372    0.0669 C   0  0  0  0  0  0  0  0  0  0  0  0
    6.4998   -1.4457    1.6963 C   0  0  0  0  0  0  0  0  0  0  0  0
    6.4359   -0.0322    2.3557 C   0  0  0  0  0  0  0  0  0  0  0  0
    3.2899   -3.0284   -1.5067 H   0  0  0  0  0  0  0  0  0  0  0  0
    5.3617   -3.4546   -0.1859 H   0  0  0  0  0  0  0  0  0  0  0  0
    5.0914    2.6127    2.6334 H   0  0  0  0  0  0  0  0  0  0  0  0
    3.0224    3.2011    1.3725 H   0  0  0  0  0  0  0  0  0  0  0  0
    6.4512   -2.2575    2.4531 H   0  0  0  0  0  0  0  0  0  0  0  0
    7.4515   -1.5996    1.1445 H   0  0  0  0  0  0  0  0  0  0  0  0
    6.3486   -0.0961    3.4614 H   0  0  0  0  0  0  0  0  0  0  0  0
    7.3556    0.5577    2.1558 H   0  0  0  0  0  0  0  0  0  0  0  0
  1  3  1  0  0  0  0
  2 11  1  0  0  0  0
  3 12  1  0  0  0  0
  4  3  2  0  0  0  0
  4  5  1  0  0  0  0
  5  6  2  0  0  0  0
  6  7  1  0  0  0  0
  6 13  1  0  0  0  0
  7  8  1  0  0  0  0
  8  9  2  0  0  0  0
  8 14  1  0  0  0  0
  9 17  1  0  0  0  0
 10 18  1  0  0  0  0
 10  9  1  0  0  0  0
 11 10  2  0  0  0  0
 12 11  1  0  0  0  0
 12  7  2  0  0  0  0
 13 14  1  0  0  0  0
 13 19  1  0  0  0  0
 14 21  1  0  0  0  0
 15  4  1  0  0  0  0
 16  5  1  0  0  0  0
 20 13  1  0  0  0  0
 22 14  1  0  0  0  0
M  END
