1,6
 OpenBabel05122313063D

  8  7  0  0  0  0  0  0  0  0999 V2000
    1.5490    1.9709    0.4269 Se  0  0  0  0  0  0  0  0  0  0  0  0
    0.5147    3.3743    1.1851 C   0  0  0  0  0  0  0  0  0  0  0  0
    1.2460    4.4168    1.8141 C   0  0  0  0  0  0  0  0  0  0  0  0
    1.8908    5.2578    2.3274 N   0  0  0  0  0  0  0  0  0  0  0  0
   -0.8629    3.3549    1.0819 C   0  0  0  0  0  0  0  0  0  0  0  0
   -1.7307    1.9243    0.1754 Se  0  0  0  0  0  0  0  0  0  0  0  0
   -1.7111    4.3701    1.5976 C   0  0  0  0  0  0  0  0  0  0  0  0
   -2.4515    5.1866    2.0124 N   0  0  0  0  0  0  0  0  0  0  0  0
  1  2  1  0  0  0  0
  2  3  1  0  0  0  0
  3  4  3  0  0  0  0
  5  2  2  0  0  0  0
  5  7  1  0  0  0  0
  6  5  1  0  0  0  0
  7  8  3  0  0  0  0
M  END
