1,2
 OpenBabel05122313063D

 23 23  0  0  0  0  0  0  0  0999 V2000
   -0.3474   -2.1153   -0.9947 S   0  0  0  0  0  1  0  0  0  0  0  0
   -2.9494   -0.9520   -0.0198 N   0  0  0  0  0  0  0  0  0  0  0  0
   -1.9712   -3.0098   -1.0266 C   0  0  0  0  0  0  0  0  0  0  0  0
   -2.3962   -2.9583   -2.0508 H   0  0  0  0  0  0  0  0  0  0  0  0
   -1.7720   -4.0779   -0.8089 H   0  0  0  0  0  0  0  0  0  0  0  0
   -2.9166   -2.4460    0.0157 C   0  0  0  0  0  0  0  0  0  0  0  0
   -3.4336   -0.4366   -1.3438 C   0  0  0  0  0  0  0  0  0  0  0  0
   -2.7585   -0.8280   -2.1284 H   0  0  0  0  0  0  0  0  0  0  0  0
   -3.2795    0.6606   -1.3214 H   0  0  0  0  0  0  0  0  0  0  0  0
   -4.9039   -0.7543   -1.6221 C   0  0  0  0  0  0  0  0  0  0  0  0
   -5.1725   -0.3071   -2.6013 H   0  0  0  0  0  0  0  0  0  0  0  0
   -5.0583   -1.8497   -1.7349 H   0  0  0  0  0  0  0  0  0  0  0  0
   -5.7989   -0.2032   -0.5050 C   0  0  0  0  0  0  0  0  0  0  0  0
   -6.8599   -0.4788   -0.6752 H   0  0  0  0  0  0  0  0  0  0  0  0
   -5.7525    0.9082   -0.5223 H   0  0  0  0  0  0  0  0  0  0  0  0
   -5.3193   -0.7031    0.8627 C   0  0  0  0  0  0  0  0  0  0  0  0
   -5.5230   -1.7911    0.9645 H   0  0  0  0  0  0  0  0  0  0  0  0
   -5.8809   -0.2112    1.6835 H   0  0  0  0  0  0  0  0  0  0  0  0
   -3.8294   -0.4136    1.0715 C   0  0  0  0  0  0  0  0  0  0  0  0
   -3.9364   -2.8653   -0.1253 H   0  0  0  0  0  0  0  0  0  0  0  0
   -2.5737   -2.7251    1.0317 H   0  0  0  0  0  0  0  0  0  0  0  0
   -3.4551   -0.8246    2.0284 H   0  0  0  0  0  0  0  0  0  0  0  0
   -3.6540    0.6814    1.0977 H   0  0  0  0  0  0  0  0  0  0  0  0
  2  6  1  0  0  0  0
  2 19  1  0  0  0  0
  3  1  1  0  0  0  0
  3  5  1  0  0  0  0
  3  6  1  0  0  0  0
  4  3  1  0  0  0  0
  6 21  1  0  0  0  0
  7  9  1  0  0  0  0
  7  2  1  0  0  0  0
  8  7  1  0  0  0  0
 10  7  1  0  0  0  0
 10 13  1  0  0  0  0
 11 10  1  0  0  0  0
 12 10  1  0  0  0  0
 13 16  1  0  0  0  0
 14 13  1  0  0  0  0
 15 13  1  0  0  0  0
 16 17  1  0  0  0  0
 16 19  1  0  0  0  0
 16 18  1  0  0  0  0
 19 23  1  0  0  0  0
 19 22  1  0  0  0  0
 20  6  1  0  0  0  0
M  END
