1,2
 OpenBabel05122313063D

 17 18  0  0  0  0  0  0  0  0999 V2000
   -1.9222   -1.2272   -1.3077 S   0  0  0  0  0  1  0  0  0  0  0  0
   -0.9925    0.3920    1.0636 N   0  0  0  0  0  2  0  0  0  0  0  0
   -2.6655    0.2491   -0.6900 C   0  0  0  0  0  0  0  0  0  0  0  0
   -3.7946    0.8072   -1.3028 C   0  0  0  0  0  0  0  0  0  0  0  0
   -4.2294    0.2955   -2.1746 H   0  0  0  0  0  0  0  0  0  0  0  0
   -4.3798    2.0006   -0.8200 C   0  0  0  0  0  0  0  0  0  0  0  0
   -5.2673    2.4045   -1.3301 H   0  0  0  0  0  0  0  0  0  0  0  0
   -3.8552    2.6591    0.2850 C   0  0  0  0  0  3  0  0  0  0  0  0
   -4.3104    3.5845    0.6670 H   0  0  0  0  0  0  0  0  0  0  0  0
   -2.7102    2.1299    0.9433 C   0  0  0  0  0  0  0  0  0  0  0  0
   -2.1087    0.9201    0.4462 C   0  0  0  0  0  0  0  0  0  0  0  0
   -2.1237    2.7397    2.0864 C   0  0  0  0  0  0  0  0  0  0  0  0
   -2.5663    3.6666    2.4834 H   0  0  0  0  0  0  0  0  0  0  0  0
   -1.0142    2.1668    2.6876 C   0  0  0  0  0  0  0  0  0  0  0  0
   -0.5427    2.6127    3.5742 H   0  0  0  0  0  0  0  0  0  0  0  0
   -0.4687    0.9841    2.1429 C   0  0  0  0  0  0  0  0  0  0  0  0
    0.4276    0.4962    2.5626 H   0  0  0  0  0  0  0  0  0  0  0  0
  1  3  1  0  0  0  0
  2 16  1  0  0  0  0
  3 11  2  0  0  0  0
  4  6  2  0  0  0  0
  4  3  1  0  0  0  0
  5  4  1  0  0  0  0
  6  8  1  0  0  0  0
  7  6  1  0  0  0  0
  8  9  1  0  0  0  0
  8 10  1  0  0  0  0
 10 12  2  0  0  0  0
 11 10  1  0  0  0  0
 11  2  1  0  0  0  0
 12 13  1  0  0  0  0
 12 14  1  0  0  0  0
 14 15  1  0  0  0  0
 16 17  1  0  0  0  0
 16 14  2  0  0  0  0
M  END
