1,2
 OpenBabel05122313063D

 11 11  0  0  0  0  0  0  0  0999 V2000
   -0.6939    0.5831   -2.2901 S   0  0  0  0  0  1  0  0  0  0  0  0
   -1.5604    1.7601   -0.1721 N   0  0  0  0  0  2  0  0  0  0  0  0
   -2.2706    2.5672    0.6300 C   0  0  0  0  0  3  0  0  0  0  0  0
   -2.0394    2.5021    1.7058 H   0  0  0  0  0  0  0  0  0  0  0  0
   -1.7533    1.7479   -1.5200 C   0  0  0  0  0  0  0  0  0  0  0  0
   -3.2356    3.4364    0.1108 C   0  0  0  0  0  0  0  0  0  0  0  0
   -3.8072    4.0934    0.7804 H   0  0  0  0  0  0  0  0  0  0  0  0
   -2.7117    2.5953   -2.1153 C   0  0  0  0  0  0  0  0  0  0  0  0
   -2.8644    2.5728   -3.2032 H   0  0  0  0  0  0  0  0  0  0  0  0
   -3.4503    3.4410   -1.2829 C   0  0  0  0  0  0  0  0  0  0  0  0
   -4.2063    4.1113   -1.7202 H   0  0  0  0  0  0  0  0  0  0  0  0
  1  5  1  0  0  0  0
  2  3  1  0  0  0  0
  3  4  1  0  0  0  0
  5  2  1  0  0  0  0
  6  3  1  0  0  0  0
  6  7  1  0  0  0  0
  8  5  2  0  0  0  0
  8 10  1  0  0  0  0
  9  8  1  0  0  0  0
 10  6  2  0  0  0  0
 11 10  1  0  0  0  0
M  END
