1,2
 OpenBabel05122313063D

 10  9  0  0  0  0  0  0  0  0999 V2000
    1.9053    0.1008   -1.3171 S   0  0  0  0  0  1  0  0  0  0  0  0
    0.8237   -1.1721    1.1903 N   0  0  0  0  0  0  0  0  0  0  0  0
    0.3597   -2.0718    0.9938 H   0  0  0  0  0  0  0  0  0  0  0  0
    0.5316   -0.9378    2.1512 H   0  0  0  0  0  0  0  0  0  0  0  0
    2.2903   -1.3114    1.0274 C   0  0  0  0  0  0  0  0  0  0  0  0
    2.7627   -0.4110    1.4691 H   0  0  0  0  0  0  0  0  0  0  0  0
    2.6730   -2.2072    1.5684 H   0  0  0  0  0  0  0  0  0  0  0  0
    2.6022   -1.3719   -0.4603 C   0  0  0  0  0  0  0  0  0  0  0  0
    2.2032   -2.3235   -0.8863 H   0  0  0  0  0  0  0  0  0  0  0  0
    3.6997   -1.3923   -0.6218 H   0  0  0  0  0  0  0  0  0  0  0  0
  1  8  1  0  0  0  0
  2  4  1  0  0  0  0
  3  2  1  0  0  0  0
  5  2  1  0  0  0  0
  5  6  1  0  0  0  0
  5  7  1  0  0  0  0
  8  5  1  0  0  0  0
  9  8  1  0  0  0  0
 10  8  1  0  0  0  0
M  END
