1,14
 OpenBabel05122313063D

 19 19  0  0  1  0  0  0  0  0999 V2000
   -0.3788   -3.3171    0.1537 S   0  0  0  0  0  1  0  0  0  0  0  0
   -5.6288    0.9565   -0.4013 C   0  0  0  0  0  0  0  0  0  0  0  0
   -6.5231    1.5944   -0.4736 H   0  0  0  0  0  0  0  0  0  0  0  0
   -4.5243   -1.0460    0.4533 C   0  0  0  0  0  0  0  0  0  0  0  0
   -4.5584   -1.9668    1.0486 H   0  0  0  0  0  0  0  0  0  0  0  0
   -3.3187   -0.6852   -0.2009 C   0  0  0  0  0  0  0  0  0  0  0  0
   -5.6587   -0.2304    0.3495 C   0  0  0  0  0  0  0  0  0  0  0  0
   -6.5820   -0.5263    0.8734 H   0  0  0  0  0  0  0  0  0  0  0  0
   -3.2975    0.5158   -0.9521 C   0  0  0  0  0  0  0  0  0  0  0  0
   -2.3575    0.7981   -1.4460 H   0  0  0  0  0  0  0  0  0  0  0  0
   -4.4372    1.3210   -1.0511 C   0  0  0  0  0  0  0  0  0  0  0  0
   -4.3899    2.2505   -1.6401 H   0  0  0  0  0  0  0  0  0  0  0  0
   -3.0911   -3.5302    0.0638 O   0  0  0  0  0  0  0  0  0  0  0  0
   -2.1335   -1.4208   -0.1147 N   0  0  0  0  0  2  0  0  0  0  0  0
   -2.0009   -2.7241    0.0352 C   0  0  2  0  0  3  0  0  0  0  0  0
   -2.8749   -4.9337    0.1464 C   0  0  0  0  0  0  0  0  0  0  0  0
   -3.8795   -5.3978    0.1503 H   0  0  0  0  0  0  0  0  0  0  0  0
   -2.3246   -5.2009    1.0734 H   0  0  0  0  0  0  0  0  0  0  0  0
   -2.2858   -5.3006   -0.7205 H   0  0  0  0  0  0  0  0  0  0  0  0
  2  7  1  0  0  0  0
  3  2  1  0  0  0  0
  4  5  1  0  0  0  0
  6 14  1  0  0  0  0
  6  4  1  0  0  0  0
  7  4  2  0  0  0  0
  7  8  1  0  0  0  0
  9  6  2  0  0  0  0
 10  9  1  0  0  0  0
 11  9  1  0  0  0  0
 11  2  2  0  0  0  0
 12 11  1  0  0  0  0
 13 16  1  0  0  0  0
 14 15  1  0  0  0  0
 15 13  1  0  0  0  0
 15  1  1  6  0  0  0
 16 17  1  0  0  0  0
 16 18  1  0  0  0  0
 19 16  1  0  0  0  0
M  END
