1,2
 OpenBabel05122313063D

 40 42  0  0  0  0  0  0  0  0999 V2000
    2.2988   -0.0235    1.5355 S   0  0  0  0  0  0  0  0  0  0  0  0
   -0.4825    0.1187    0.2132 N   0  0  0  0  0  0  0  0  0  0  0  0
   -1.1739    0.4654   -1.0717 C   0  0  0  0  0  0  0  0  0  0  0  0
   -1.2592   -0.4860   -1.6349 H   0  0  0  0  0  0  0  0  0  0  0  0
   -0.4929    1.1302   -1.6375 H   0  0  0  0  0  0  0  0  0  0  0  0
   -0.0579    1.3281    0.9623 C   0  0  0  0  0  0  0  0  0  0  0  0
   -0.9442    1.8962    1.3225 H   0  0  0  0  0  0  0  0  0  0  0  0
    0.4849    1.9850    0.2518 H   0  0  0  0  0  0  0  0  0  0  0  0
    3.1872    1.1569    0.4890 C   0  0  0  0  0  0  0  0  0  0  0  0
   -2.5094    1.1229   -0.8297 C   0  0  0  0  0  0  0  0  0  0  0  0
    3.8543    0.6408   -0.6384 C   0  0  0  0  0  0  0  0  0  0  0  0
    3.7712   -0.4339   -0.8733 H   0  0  0  0  0  0  0  0  0  0  0  0
    0.8563    0.9715    2.1182 C   0  0  0  0  0  0  0  0  0  0  0  0
    0.3650    0.3023    2.8542 H   0  0  0  0  0  0  0  0  0  0  0  0
    1.2046    1.8689    2.6657 H   0  0  0  0  0  0  0  0  0  0  0  0
    3.2893    2.5185    0.8257 C   0  0  0  0  0  0  0  0  0  0  0  0
    2.7964    2.9225    1.7217 H   0  0  0  0  0  0  0  0  0  0  0  0
   -3.6003    0.3436   -0.3030 C   0  0  0  0  0  0  0  0  0  0  0  0
   -4.8416    1.0103    0.0165 C   0  0  0  0  0  0  0  0  0  0  0  0
    4.7021    2.8744   -1.1255 C   0  0  0  0  0  0  0  0  0  0  0  0
    5.2907    3.5502   -1.7637 H   0  0  0  0  0  0  0  0  0  0  0  0
   -5.9178    0.2487    0.5594 C   0  0  0  0  0  0  0  0  0  0  0  0
   -6.8599    0.7662    0.7993 H   0  0  0  0  0  0  0  0  0  0  0  0
   -5.7883   -1.1146    0.7773 C   0  0  0  0  0  0  0  0  0  0  0  0
   -6.6277   -1.6893    1.1970 H   0  0  0  0  0  0  0  0  0  0  0  0
    4.0413    3.3755    0.0061 C   0  0  0  0  0  0  0  0  0  0  0  0
    4.1131    4.4431    0.2633 H   0  0  0  0  0  0  0  0  0  0  0  0
   -3.5062   -1.0668   -0.0861 C   0  0  0  0  0  0  0  0  0  0  0  0
   -2.5925   -1.6186   -0.3680 H   0  0  0  0  0  0  0  0  0  0  0  0
    4.6121    1.5080   -1.4378 C   0  0  0  0  0  0  0  0  0  0  0  0
    5.1310    1.1060   -2.3209 H   0  0  0  0  0  0  0  0  0  0  0  0
   -4.5763   -1.7746    0.4455 C   0  0  0  0  0  0  0  0  0  0  0  0
   -4.4838   -2.8605    0.5979 H   0  0  0  0  0  0  0  0  0  0  0  0
   -3.9126    3.1332   -0.7616 C   0  0  0  0  0  0  0  0  0  0  0  0
   -4.0201    4.2109   -0.9557 H   0  0  0  0  0  0  0  0  0  0  0  0
   -2.6829    2.4863   -1.0516 C   0  0  0  0  0  0  0  0  0  0  0  0
   -1.8455    3.0734   -1.4616 H   0  0  0  0  0  0  0  0  0  0  0  0
   -4.9665    2.4102   -0.2274 C   0  0  0  0  0  0  0  0  0  0  0  0
   -5.9203    2.9050    0.0132 H   0  0  0  0  0  0  0  0  0  0  0  0
   -1.1654   -0.4023    0.7880 H   0  0  0  0  0  0  0  0  0  0  0  0
  1 13  1  0  0  0  0
  2 40  1  0  0  0  0
  2  6  1  0  0  0  0
  3 10  1  0  0  0  0
  3  2  1  0  0  0  0
  4  3  1  0  0  0  0
  5  3  1  0  0  0  0
  6  7  1  0  0  0  0
  6 13  1  0  0  0  0
  8  6  1  0  0  0  0
  9 16  1  0  0  0  0
  9  1  1  0  0  0  0
 10 18  1  0  0  0  0
 11  9  2  0  0  0  0
 12 11  1  0  0  0  0
 13 15  1  0  0  0  0
 13 14  1  0  0  0  0
 16 17  1  0  0  0  0
 18 28  2  0  0  0  0
 18 19  1  0  0  0  0
 19 22  2  0  0  0  0
 20 26  1  0  0  0  0
 21 20  1  0  0  0  0
 22 24  1  0  0  0  0
 22 23  1  0  0  0  0
 24 25  1  0  0  0  0
 26 27  1  0  0  0  0
 26 16  2  0  0  0  0
 28 32  1  0  0  0  0
 29 28  1  0  0  0  0
 30 20  2  0  0  0  0
 30 11  1  0  0  0  0
 31 30  1  0  0  0  0
 32 33  1  0  0  0  0
 32 24  2  0  0  0  0
 34 38  2  0  0  0  0
 35 34  1  0  0  0  0
 36 10  2  0  0  0  0
 36 34  1  0  0  0  0
 37 36  1  0  0  0  0
 38 39  1  0  0  0  0
 38 19  1  0  0  0  0
M  END
