1,28
 OpenBabel05122313063D

 44 46  0  0  1  0  0  0  0  0999 V2000
    0.5601   -1.0788   -1.2291 S   0  0  1  0  0  3  0  0  0  0  0  0
    0.6916   -2.2772   -2.1262 O   0  0  0  0  0  1  0  0  0  0  0  0
    1.9947   -0.9800   -0.1246 C   0  0  0  0  0  0  0  0  0  0  0  0
    3.1733   -0.3089   -0.4831 C   0  0  0  0  0  0  0  0  0  0  0  0
    3.2515    0.2261   -1.4405 H   0  0  0  0  0  0  0  0  0  0  0  0
    4.2531   -0.3200    0.4108 C   0  0  0  0  0  0  0  0  0  0  0  0
    5.1794    0.2119    0.1429 H   0  0  0  0  0  0  0  0  0  0  0  0
    4.1738   -0.9970    1.6457 C   0  0  0  0  0  0  0  0  0  0  0  0
    2.9804   -1.6841    1.9579 C   0  0  0  0  0  0  0  0  0  0  0  0
    2.9053   -2.2340    2.9094 H   0  0  0  0  0  0  0  0  0  0  0  0
    1.8862   -1.6864    1.0852 C   0  0  0  0  0  0  0  0  0  0  0  0
    0.9547   -2.2404    1.3054 H   0  0  0  0  0  0  0  0  0  0  0  0
    5.3204   -0.9675    2.6220 C   0  0  0  0  0  0  0  0  0  0  0  0
    5.4629   -1.9517    3.1109 H   0  0  0  0  0  0  0  0  0  0  0  0
    5.1267   -0.2308    3.4314 H   0  0  0  0  0  0  0  0  0  0  0  0
    6.2709   -0.6794    2.1331 H   0  0  0  0  0  0  0  0  0  0  0  0
    0.8254    0.4048   -2.2740 C   0  0  0  0  0  0  0  0  0  0  0  0
    1.2762    0.1368   -3.5677 C   0  0  0  0  0  0  0  0  0  0  0  0
    1.4226   -0.9150   -3.8582 H   0  0  0  0  0  0  0  0  0  0  0  0
    1.5196    1.2012   -4.4524 C   0  0  0  0  0  0  0  0  0  0  0  0
    1.8685    0.9915   -5.4746 H   0  0  0  0  0  0  0  0  0  0  0  0
    1.3156    2.5228   -4.0305 C   0  0  0  0  0  0  0  0  0  0  0  0
    1.5057    3.3592   -4.7190 H   0  0  0  0  0  0  0  0  0  0  0  0
    0.8542    2.7853   -2.7327 C   0  0  0  0  0  0  0  0  0  0  0  0
    0.6775    3.8157   -2.3952 H   0  0  0  0  0  0  0  0  0  0  0  0
    0.5874    1.7304   -1.8353 C   0  0  0  0  0  0  0  0  0  0  0  0
    0.0824    2.0461   -0.4944 C   0  0  2  0  0  3  0  0  0  0  0  0
   -0.5056    1.2296    0.3291 N   0  0  0  0  0  2  0  0  0  0  0  0
   -0.7419    1.9371    1.6045 C   0  0  2  0  0  0  0  0  0  0  0  0
   -1.7803    1.7354    1.9215 H   0  0  0  0  0  0  0  0  0  0  0  0
   -0.5730    3.4014    1.1642 C   0  0  0  0  0  0  0  0  0  0  0  0
   -1.5447    3.8608    0.8956 H   0  0  0  0  0  0  0  0  0  0  0  0
   -0.0201    4.0412    1.8763 H   0  0  0  0  0  0  0  0  0  0  0  0
    0.2180    3.3123   -0.0620 O   0  0  0  0  0  0  0  0  0  0  0  0
    0.2133    1.4271    2.7093 C   0  0  0  0  0  0  0  0  0  0  0  0
    0.0841    0.3218    2.7091 H   0  0  0  0  0  0  0  0  0  0  0  0
    1.6877    1.7333    2.4310 C   0  0  0  0  0  0  0  0  0  0  0  0
    2.0174    1.3289    1.4547 H   0  0  0  0  0  0  0  0  0  0  0  0
    2.3302    1.2705    3.2063 H   0  0  0  0  0  0  0  0  0  0  0  0
    1.8929    2.8245    2.4431 H   0  0  0  0  0  0  0  0  0  0  0  0
   -0.2349    1.9624    4.0739 C   0  0  0  0  0  0  0  0  0  0  0  0
   -0.1564    3.0699    4.1230 H   0  0  0  0  0  0  0  0  0  0  0  0
    0.4012    1.5544    4.8845 H   0  0  0  0  0  0  0  0  0  0  0  0
   -1.2858    1.6865    4.2949 H   0  0  0  0  0  0  0  0  0  0  0  0
  1  2  1  6  0  0  0
  1  3  1  0  0  0  0
  3 11  1  0  0  0  0
  4  3  2  0  0  0  0
  4  6  1  0  0  0  0
  5  4  1  0  0  0  0
  6  8  2  0  0  0  0
  7  6  1  0  0  0  0
  8  9  1  0  0  0  0
  8 13  1  0  0  0  0
  9 10  1  0  0  0  0
 11 12  1  0  0  0  0
 11  9  2  0  0  0  0
 13 14  1  0  0  0  0
 13 15  1  0  0  0  0
 16 13  1  0  0  0  0
 17 26  1  0  0  0  0
 17  1  1  0  0  0  0
 18 17  2  0  0  0  0
 19 18  1  0  0  0  0
 20 22  2  0  0  0  0
 20 18  1  0  0  0  0
 21 20  1  0  0  0  0
 22 24  1  0  0  0  0
 23 22  1  0  0  0  0
 24 25  1  0  0  0  0
 24 26  2  0  0  0  0
 27 26  1  6  0  0  0
 27 34  1  0  0  0  0
 27 28  1  0  0  0  0
 28 29  1  0  0  0  0
 29 30  1  1  0  0  0
 29 35  1  0  0  0  0
 31 29  1  0  0  0  0
 31 33  1  0  0  0  0
 32 31  1  0  0  0  0
 34 31  1  0  0  0  0
 35 41  1  0  0  0  0
 36 35  1  0  0  0  0
 37 40  1  0  0  0  0
 37 35  1  0  0  0  0
 37 39  1  0  0  0  0
 38 37  1  0  0  0  0
 41 42  1  0  0  0  0
 41 44  1  0  0  0  0
 41 43  1  0  0  0  0
M  END
