1,4
 OpenBabel05122313063D

 16 16  0  0  1  0  0  0  0  0999 V2000
    1.4140   -1.2214   -2.3387 S   0  0  0  0  0  1  0  0  0  0  0  0
    5.3822   -3.1952    0.0800 O   0  0  0  0  0  0  0  0  0  0  0  0
    3.5468   -2.3420   -1.0520 N   0  0  0  0  0  0  0  0  0  0  0  0
    1.6201   -1.7773    0.2066 N   0  0  0  0  0  2  0  0  0  0  0  0
    2.1789   -2.2096    1.3470 N   0  0  0  0  0  0  0  0  0  0  0  0
    2.2665   -1.8399   -0.9847 C   0  0  1  0  0  3  0  0  0  0  0  0
    3.4000   -2.7094    1.3319 C   0  0  0  0  0  0  0  0  0  0  0  0
    4.2190   -2.7918    0.1143 C   0  0  0  0  0  0  0  0  0  0  0  0
    4.0135   -3.1907    2.6089 C   0  0  0  0  0  0  0  0  0  0  0  0
    3.2958   -3.0602    3.4391 H   0  0  0  0  0  0  0  0  0  0  0  0
    4.9488   -2.6359    2.8312 H   0  0  0  0  0  0  0  0  0  0  0  0
    4.3043   -4.2590    2.5296 H   0  0  0  0  0  0  0  0  0  0  0  0
    4.2712   -2.3363   -2.3161 C   0  0  0  0  0  0  0  0  0  0  0  0
    5.2492   -2.8150   -2.1321 H   0  0  0  0  0  0  0  0  0  0  0  0
    4.4040   -1.2914   -2.6623 H   0  0  0  0  0  0  0  0  0  0  0  0
    3.6909   -2.8840   -3.0837 H   0  0  0  0  0  0  0  0  0  0  0  0
  2  8  2  0  0  0  0
  3  6  1  0  0  0  0
  3  8  1  0  0  0  0
  4  5  1  0  0  0  0
  6  1  1  1  0  0  0
  6  4  1  0  0  0  0
  7  5  2  0  0  0  0
  7  9  1  0  0  0  0
  8  7  1  0  0  0  0
  9 11  1  0  0  0  0
  9 10  1  0  0  0  0
 12  9  1  0  0  0  0
 13 14  1  0  0  0  0
 13  3  1  0  0  0  0
 15 13  1  0  0  0  0
 16 13  1  0  0  0  0
M  END
