1,2
 OpenBabel05122313063D

 16 16  0  0  1  0  0  0  0  0999 V2000
   -1.1891   -2.0785   -0.0004 S   0  0  0  0  0  1  0  0  0  0  0  0
   -2.0031    0.3353   -0.0007 N   0  0  0  0  0  2  0  0  0  0  0  0
   -3.8080   -1.2345    0.0000 N   0  0  0  0  0  0  0  0  0  0  0  0
   -2.5118   -0.9409   -0.0003 C   0  0  1  0  0  3  0  0  0  0  0  0
   -4.6710   -0.1966    0.0003 C   0  0  0  0  0  0  0  0  0  0  0  0
   -4.2211    1.1403    0.0002 C   0  0  0  0  0  0  0  0  0  0  0  0
   -4.9316    1.9782    0.0005 H   0  0  0  0  0  0  0  0  0  0  0  0
   -2.8355    1.3933   -0.0004 C   0  0  0  0  0  0  0  0  0  0  0  0
   -6.1335   -0.5402    0.0006 C   0  0  0  0  0  0  0  0  0  0  0  0
   -6.7776    0.3583    0.0009 H   0  0  0  0  0  0  0  0  0  0  0  0
   -6.3721   -1.1612    0.8880 H   0  0  0  0  0  0  0  0  0  0  0  0
   -6.3726   -1.1608   -0.8869 H   0  0  0  0  0  0  0  0  0  0  0  0
   -2.2466    2.7685   -0.0006 C   0  0  0  0  0  0  0  0  0  0  0  0
   -3.0334    3.5444   -0.0021 H   0  0  0  0  0  0  0  0  0  0  0  0
   -1.5947    2.9069   -0.8874 H   0  0  0  0  0  0  0  0  0  0  0  0
   -1.5971    2.9081    0.8878 H   0  0  0  0  0  0  0  0  0  0  0  0
  2  8  1  0  0  0  0
  2  4  1  0  0  0  0
  3  5  2  0  0  0  0
  4  1  1  6  0  0  0
  4  3  1  0  0  0  0
  5  9  1  0  0  0  0
  6  5  1  0  0  0  0
  6  7  1  0  0  0  0
  8  6  2  0  0  0  0
  9 10  1  0  0  0  0
  9 11  1  0  0  0  0
 12  9  1  0  0  0  0
 13  8  1  0  0  0  0
 13 16  1  0  0  0  0
 14 13  1  0  0  0  0
 15 13  1  0  0  0  0
M  END
