1,2
 OpenBabel05122313063D

 24 24  0  0  0  0  0  0  0  0999 V2000
    0.8593   -1.7487    0.0228 S   0  0  0  0  0  0  0  0  0  0  0  0
    0.8441    1.4424   -0.0364 N   0  0  0  0  0  0  0  0  0  0  0  0
    2.0236   -1.2490    1.3720 C   0  0  0  0  0  0  0  0  0  0  0  0
    1.6584    0.0875    2.0114 C   0  0  0  0  0  0  0  0  0  0  0  0
    1.7554    1.3526    1.1559 C   0  0  0  0  0  0  0  0  0  0  0  0
    1.8475   -1.3358   -1.4705 C   0  0  0  0  0  0  0  0  0  0  0  0
    2.4915    0.0447   -1.4727 C   0  0  0  0  0  0  0  0  0  0  0  0
    1.5739    1.2567   -1.3327 C   0  0  0  0  0  0  0  0  0  0  0  0
    0.2694    2.8121   -0.0769 C   0  0  0  0  0  0  0  0  0  0  0  0
    3.0589   -1.2750    0.9745 H   0  0  0  0  0  0  0  0  0  0  0  0
    1.9383   -2.0603    2.1215 H   0  0  0  0  0  0  0  0  0  0  0  0
    2.3287    0.2419    2.8860 H   0  0  0  0  0  0  0  0  0  0  0  0
    0.6253    0.0151    2.4141 H   0  0  0  0  0  0  0  0  0  0  0  0
    1.4949    2.1997    1.8186 H   0  0  0  0  0  0  0  0  0  0  0  0
    2.8034    1.5310    0.8265 H   0  0  0  0  0  0  0  0  0  0  0  0
    2.6157   -2.1283   -1.5881 H   0  0  0  0  0  0  0  0  0  0  0  0
    1.1139   -1.4503   -2.2945 H   0  0  0  0  0  0  0  0  0  0  0  0
    3.0172    0.1650   -2.4443 H   0  0  0  0  0  0  0  0  0  0  0  0
    3.2983    0.0861   -0.7112 H   0  0  0  0  0  0  0  0  0  0  0  0
    0.8008    1.2483   -2.1273 H   0  0  0  0  0  0  0  0  0  0  0  0
    2.2017    2.1651   -1.4952 H   0  0  0  0  0  0  0  0  0  0  0  0
   -0.3646    2.9747    0.8110 H   0  0  0  0  0  0  0  0  0  0  0  0
   -0.3871    2.9118   -0.9582 H   0  0  0  0  0  0  0  0  0  0  0  0
    1.0941    3.5600   -0.1199 H   0  0  0  0  0  0  0  0  0  0  0  0
  1  3  1  0  0  0  0
  2  5  1  0  0  0  0
  3  4  1  0  0  0  0
  3 11  1  0  0  0  0
  4 13  1  0  0  0  0
  4 12  1  0  0  0  0
  5 14  1  0  0  0  0
  5  4  1  0  0  0  0
  6  1  1  0  0  0  0
  7  6  1  0  0  0  0
  7  8  1  0  0  0  0
  7 19  1  0  0  0  0
  8  2  1  0  0  0  0
  9  2  1  0  0  0  0
  9 22  1  0  0  0  0
 10  3  1  0  0  0  0
 15  5  1  0  0  0  0
 16  6  1  0  0  0  0
 17  6  1  0  0  0  0
 18  7  1  0  0  0  0
 20  8  1  0  0  0  0
 21  8  1  0  0  0  0
 23  9  1  0  0  0  0
 24  9  1  0  0  0  0
M  END
