1,5
 OpenBabel05122313063D

 36 38  0  0  1  0  0  0  0  0999 V2000
    0.3707   -2.1028   -0.5734 S   0  0  0  0  0  1  0  0  0  0  0  0
    2.6236   -3.7538    0.3920 S   0  0  0  0  0  0  0  0  0  0  0  0
    6.2486    1.1070    0.2025 N   0  0  0  0  0  0  0  0  0  0  0  0
    7.1448    0.6193    0.1943 H   0  0  0  0  0  0  0  0  0  0  0  0
    1.8892    0.0929    0.2826 N   0  0  0  0  0  2  0  0  0  0  0  0
    2.6090   -1.0638    0.5132 N   0  0  0  0  0  2  0  0  0  0  0  0
    6.0616    2.4807    0.1192 C   0  0  0  0  0  0  0  0  0  0  0  0
    6.9960    3.5260    0.0497 C   0  0  0  0  0  0  0  0  0  0  0  0
    8.0785    3.3287    0.0557 H   0  0  0  0  0  0  0  0  0  0  0  0
    6.4955    4.8315   -0.0279 C   0  0  0  0  0  0  0  0  0  0  0  0
    7.1981    5.6764   -0.0842 H   0  0  0  0  0  0  0  0  0  0  0  0
    5.1027    5.0821   -0.0329 C   0  0  0  0  0  0  0  0  0  0  0  0
    4.7436    6.1205   -0.0922 H   0  0  0  0  0  0  0  0  0  0  0  0
    4.1760    4.0353    0.0380 C   0  0  0  0  0  0  0  0  0  0  0  0
    3.0955    4.2456    0.0386 H   0  0  0  0  0  0  0  0  0  0  0  0
    4.6507    2.7105    0.1130 C   0  0  0  0  0  0  0  0  0  0  0  0
    4.0064    1.4040    0.1957 C   0  0  0  0  0  0  0  0  0  0  0  0
    5.0449    0.4618    0.2497 C   0  0  0  0  0  0  0  0  0  0  0  0
    4.9786   -0.6251    0.2964 H   0  0  0  0  0  0  0  0  0  0  0  0
    2.5896    1.2094    0.1637 C   0  0  0  0  0  3  0  0  0  0  0  0
    1.9752    2.1077   -0.0012 H   0  0  0  0  0  0  0  0  0  0  0  0
    1.9483   -2.1376    0.1643 C   0  0  1  0  0  3  0  0  0  0  0  0
    4.2077   -3.4014    1.2243 C   0  0  0  0  0  0  0  0  0  0  0  0
    4.0021   -2.6204    1.9849 H   0  0  0  0  0  0  0  0  0  0  0  0
    4.4403   -4.3421    1.7667 H   0  0  0  0  0  0  0  0  0  0  0  0
    5.3815   -2.9828    0.3603 C   0  0  0  0  0  0  0  0  0  0  0  0
    5.3042   -2.8749   -1.0394 C   0  0  0  0  0  0  0  0  0  0  0  0
    4.3573   -3.1315   -1.5387 H   0  0  0  0  0  0  0  0  0  0  0  0
    6.4057   -2.4236   -1.7837 C   0  0  0  0  0  0  0  0  0  0  0  0
    6.3220   -2.3335   -2.8772 H   0  0  0  0  0  0  0  0  0  0  0  0
    7.6048   -2.0812   -1.1399 C   0  0  0  0  0  0  0  0  0  0  0  0
    8.4681   -1.7305   -1.7260 H   0  0  0  0  0  0  0  0  0  0  0  0
    7.6979   -2.2009    0.2582 C   0  0  0  0  0  0  0  0  0  0  0  0
    8.6386   -1.9526    0.7746 H   0  0  0  0  0  0  0  0  0  0  0  0
    6.5936   -2.6461    1.0005 C   0  0  0  0  0  0  0  0  0  0  0  0
    6.6673   -2.7236    2.0972 H   0  0  0  0  0  0  0  0  0  0  0  0
  2 23  1  0  0  0  0
  3 18  1  0  0  0  0
  4  3  1  0  0  0  0
  5  6  1  0  0  0  0
  7  3  1  0  0  0  0
  8  9  1  0  0  0  0
  8  7  2  0  0  0  0
 10  8  1  0  0  0  0
 11 10  1  0  0  0  0
 12 10  2  0  0  0  0
 12 14  1  0  0  0  0
 13 12  1  0  0  0  0
 14 15  1  0  0  0  0
 14 16  2  0  0  0  0
 16  7  1  0  0  0  0
 16 17  1  0  0  0  0
 17 18  2  0  0  0  0
 18 19  1  0  0  0  0
 20 17  1  0  0  0  0
 20  5  1  0  0  0  0
 21 20  1  0  0  0  0
 22  1  1  6  0  0  0
 22  2  1  0  0  0  0
 22  6  1  0  0  0  0
 23 25  1  0  0  0  0
 23 24  1  0  0  0  0
 26 35  1  0  0  0  0
 26 23  1  0  0  0  0
 27 26  2  0  0  0  0
 28 27  1  0  0  0  0
 29 31  2  0  0  0  0
 29 27  1  0  0  0  0
 30 29  1  0  0  0  0
 31 33  1  0  0  0  0
 32 31  1  0  0  0  0
 33 34  1  0  0  0  0
 33 35  2  0  0  0  0
 35 36  1  0  0  0  0
M  END
