1,3
 OpenBabel05122313063D

 21 22  0  0  1  0  0  0  0  0999 V2000
    1.9904    0.9780   -1.3532 S   0  0  0  0  0  1  0  0  0  0  0  0
    5.0001    1.4781   -1.2717 S   0  0  0  0  0  0  0  0  0  0  0  0
    1.0800   -1.3227    0.4547 N   0  0  0  0  0  2  0  0  0  0  0  0
    0.5235   -2.3100    1.1540 C   0  0  0  0  0  0  0  0  0  0  0  0
    1.2848   -3.1738    1.9730 C   0  0  0  0  0  0  0  0  0  0  0  0
    2.6594   -2.9785    2.0424 C   0  0  0  0  0  0  0  0  0  0  0  0
    3.2792   -1.9408    1.2975 C   0  0  0  0  0  0  0  0  0  0  0  0
    4.6777   -1.6923    1.3125 C   0  0  0  0  0  0  0  0  0  0  0  0
    5.2069   -0.6637    0.5463 C   0  0  0  0  0  0  0  0  0  0  0  0
    4.3829    0.1595   -0.2705 C   0  0  0  0  0  0  0  0  0  0  0  0
    2.9790   -0.0453   -0.3215 C   0  0  0  0  0  0  0  0  0  0  0  0
    2.4320   -1.1053    0.4803 C   0  0  1  0  0  3  0  0  0  0  0  0
    6.7919    1.4117   -0.9658 C   0  0  0  0  0  0  0  0  0  0  0  0
   -0.5694   -2.4188    1.0435 H   0  0  0  0  0  0  0  0  0  0  0  0
    0.7875   -3.9766    2.5350 H   0  0  0  0  0  0  0  0  0  0  0  0
    3.2885   -3.6287    2.6710 H   0  0  0  0  0  0  0  0  0  0  0  0
    5.3327   -2.3223    1.9325 H   0  0  0  0  0  0  0  0  0  0  0  0
    6.2909   -0.4893    0.5728 H   0  0  0  0  0  0  0  0  0  0  0  0
    7.2191    2.2231   -1.5854 H   0  0  0  0  0  0  0  0  0  0  0  0
    7.2350    0.4491   -1.2903 H   0  0  0  0  0  0  0  0  0  0  0  0
    7.0435    1.6082    0.0956 H   0  0  0  0  0  0  0  0  0  0  0  0
  1 11  1  0  0  0  0
  2 13  1  0  0  0  0
  2 10  1  0  0  0  0
  3 12  1  0  0  0  0
  3  4  1  0  0  0  0
  4  5  2  0  0  0  0
  5  6  1  0  0  0  0
  5 15  1  0  0  0  0
  6 16  1  0  0  0  0
  7  8  1  0  0  0  0
  7  6  2  0  0  0  0
  8 17  1  0  0  0  0
  9 18  1  0  0  0  0
  9  8  2  0  0  0  0
 10  9  1  0  0  0  0
 11 10  2  0  0  0  0
 12 11  1  6  0  0  0
 12  7  1  0  0  0  0
 13 21  1  0  0  0  0
 14  4  1  0  0  0  0
 19 13  1  0  0  0  0
 20 13  1  0  0  0  0
M  END
