1,2
 OpenBabel05122313063D

 19 18  0  0  1  0  0  0  0  0999 V2000
   -2.0603   -1.5748    0.6246 S   0  0  0  0  0  0  0  0  0  0  0  0
   -1.7602    0.9519   -1.2224 N   0  0  0  0  0  0  0  0  0  0  0  0
   -1.1991    1.6672   -1.7286 H   0  0  0  0  0  0  0  0  0  0  0  0
   -2.4504    0.5467   -1.8738 H   0  0  0  0  0  0  0  0  0  0  0  0
   -0.2969    2.8720   -0.2543 O   0  5  0  0  0  0  0  0  0  0  0  0
   -0.9810    2.1991    1.8217 O   0  0  0  0  0  0  0  0  0  0  0  0
   -2.3829    1.7631   -0.1214 C   0  0  2  0  0  0  0  0  0  0  0  0
   -2.9254    2.6066   -0.6009 H   0  0  0  0  0  0  0  0  0  0  0  0
   -1.1068    2.3590    0.6017 C   0  0  0  0  0  0  0  0  0  0  0  0
   -3.3770    0.9785    0.7295 C   0  0  0  0  0  0  0  0  0  0  0  0
   -3.7858    1.7005    1.4671 H   0  0  0  0  0  0  0  0  0  0  0  0
   -4.2458    0.6626    0.1113 H   0  0  0  0  0  0  0  0  0  0  0  0
   -2.8453   -0.1893    1.5560 C   0  0  0  0  0  0  0  0  0  0  0  0
   -3.6446   -0.6548    2.1676 H   0  0  0  0  0  0  0  0  0  0  0  0
   -2.0371    0.1772    2.2220 H   0  0  0  0  0  0  0  0  0  0  0  0
   -3.3645   -2.0925   -0.5388 C   0  0  0  0  0  0  0  0  0  0  0  0
   -2.9334   -2.8943   -1.1661 H   0  0  0  0  0  0  0  0  0  0  0  0
   -3.7139   -1.2609   -1.1781 H   0  0  0  0  0  0  0  0  0  0  0  0
   -4.2091   -2.4975    0.0512 H   0  0  0  0  0  0  0  0  0  0  0  0
  1 13  1  0  0  0  0
  2  7  1  0  0  0  0
  3  2  1  0  0  0  0
  4  2  1  0  0  0  0
  5  9  1  0  0  0  0
  7  8  1  6  0  0  0
  7  9  1  0  0  0  0
  7 10  1  0  0  0  0
  9  6  2  0  0  0  0
 10 11  1  0  0  0  0
 10 13  1  0  0  0  0
 12 10  1  0  0  0  0
 13 14  1  0  0  0  0
 13 15  1  0  0  0  0
 16 19  1  0  0  0  0
 16  1  1  0  0  0  0
 17 16  1  0  0  0  0
 18 16  1  0  0  0  0
M  CHG  1   5  -1
M  END
