1,27
 OpenBabel05122313063D

 32 33  0  0  0  0  0  0  0  0999 V2000
    1.7815   -1.1993    1.3187 S   0  0  0  0  0  1  0  0  0  0  0  0
    2.8820   -0.1228   -0.0738 P   0  0  0  0  0  4  0  0  0  0  0  0
    4.5404    0.0961    0.6269 C   0  0  0  0  0  0  0  0  0  0  0  0
    4.7154    0.3216    2.0075 C   0  0  0  0  0  0  0  0  0  0  0  0
    3.8486    0.3097    2.6858 H   0  0  0  0  0  0  0  0  0  0  0  0
    6.0045    0.5330    2.5155 C   0  0  0  0  0  0  0  0  0  0  0  0
    6.1459    0.7021    3.5933 H   0  0  0  0  0  0  0  0  0  0  0  0
    7.1126    0.5189    1.6524 C   0  0  0  0  0  0  0  0  0  0  0  0
    8.1232    0.6835    2.0553 H   0  0  0  0  0  0  0  0  0  0  0  0
    6.9351    0.2860    0.2791 C   0  0  0  0  0  0  0  0  0  0  0  0
    7.8052    0.2644   -0.3939 H   0  0  0  0  0  0  0  0  0  0  0  0
    5.6505    0.0724   -0.2407 C   0  0  0  0  0  0  0  0  0  0  0  0
    5.4921   -0.1274   -1.3103 H   0  0  0  0  0  0  0  0  0  0  0  0
    2.1629    1.5495   -0.3199 C   0  0  0  0  0  0  0  0  0  0  0  0
    1.8949    1.9882   -1.6316 C   0  0  0  0  0  0  0  0  0  0  0  0
    2.1297    1.3237   -2.4767 H   0  0  0  0  0  0  0  0  0  0  0  0
    1.3538    3.2658   -1.8445 C   0  0  0  0  0  0  0  0  0  0  0  0
    1.1484    3.6095   -2.8695 H   0  0  0  0  0  0  0  0  0  0  0  0
    1.0883    4.1093   -0.7532 C   0  0  0  0  0  0  0  0  0  0  0  0
    0.6740    5.1144   -0.9233 H   0  0  0  0  0  0  0  0  0  0  0  0
    1.3682    3.6760    0.5547 C   0  0  0  0  0  0  0  0  0  0  0  0
    1.1764    4.3419    1.4096 H   0  0  0  0  0  0  0  0  0  0  0  0
    1.9073    2.3998    0.7728 C   0  0  0  0  0  0  0  0  0  0  0  0
    2.1391    2.0666    1.7957 H   0  0  0  0  0  0  0  0  0  0  0  0
    3.0801   -0.8270   -1.5401 N   0  0  0  0  0  0  0  0  0  0  0  0
    2.2102   -1.6590   -2.1073 C   0  0  0  0  0  0  0  0  0  0  0  0
    0.9480   -1.8591   -1.7197 N   0  0  0  0  0  2  0  0  0  0  0  0
    0.4815   -2.5970   -2.2556 H   0  0  0  0  0  0  0  0  0  0  0  0
    2.7288   -2.4326   -3.3004 C   0  0  0  0  0  0  0  0  0  0  0  0
    3.1926   -1.7300   -4.0195 H   0  0  0  0  0  0  0  0  0  0  0  0
    1.9412   -3.0147   -3.8152 H   0  0  0  0  0  0  0  0  0  0  0  0
    3.5292   -3.1224   -2.9661 H   0  0  0  0  0  0  0  0  0  0  0  0
  2  3  1  0  0  0  0
  2  1  1  0  0  0  0
  3  4  1  0  0  0  0
  4  6  2  0  0  0  0
  4  5  1  0  0  0  0
  6  7  1  0  0  0  0
  8  9  1  0  0  0  0
  8  6  1  0  0  0  0
 10  8  2  0  0  0  0
 11 10  1  0  0  0  0
 12 10  1  0  0  0  0
 12  3  2  0  0  0  0
 13 12  1  0  0  0  0
 14  2  1  0  0  0  0
 14 23  1  0  0  0  0
 15 14  2  0  0  0  0
 16 15  1  0  0  0  0
 17 15  1  0  0  0  0
 17 19  2  0  0  0  0
 18 17  1  0  0  0  0
 19 21  1  0  0  0  0
 20 19  1  0  0  0  0
 21 23  2  0  0  0  0
 21 22  1  0  0  0  0
 23 24  1  0  0  0  0
 25  2  1  0  0  0  0
 26 27  1  0  0  0  0
 26 25  2  0  0  0  0
 28 27  1  0  0  0  0
 29 32  1  0  0  0  0
 29 26  1  0  0  0  0
 30 29  1  0  0  0  0
 31 29  1  0  0  0  0
M  END
