1,5
 OpenBabel05122313063D

 23 24  0  0  1  0  0  0  0  0999 V2000
   -1.0434   -1.1991    1.0205 S   0  0  0  0  0  1  0  0  0  0  0  0
   -3.6461   -0.9308    0.2619 N   0  0  0  0  0  0  0  0  0  0  0  0
   -2.2917    0.3128   -0.9579 N   0  0  0  0  0  0  0  0  0  0  0  0
   -0.5851    2.1144   -0.3771 N   0  0  0  0  0  0  0  0  0  0  0  0
    0.3551    1.6916    0.5004 N   0  0  0  0  0  2  0  0  0  0  0  0
   -2.3340   -0.5682    0.0843 C   0  0  2  0  0  3  0  0  0  0  0  0
   -4.4312   -0.2774   -0.6833 C   0  0  0  0  0  0  0  0  0  0  0  0
   -5.5136   -0.4246   -0.7370 H   0  0  0  0  0  0  0  0  0  0  0  0
   -3.5831    0.4913   -1.4372 C   0  0  0  0  0  0  0  0  0  0  0  0
   -3.7878    1.1558   -2.2810 H   0  0  0  0  0  0  0  0  0  0  0  0
   -4.0928   -1.8782    1.2652 C   0  0  0  0  0  0  0  0  0  0  0  0
   -3.5422   -2.8340    1.1549 H   0  0  0  0  0  0  0  0  0  0  0  0
   -5.1758   -2.0546    1.1390 H   0  0  0  0  0  0  0  0  0  0  0  0
   -3.8962   -1.4864    2.2835 H   0  0  0  0  0  0  0  0  0  0  0  0
   -0.9896    3.3681   -0.0526 C   0  0  0  0  0  3  0  0  0  0  0  0
   -1.7465    3.8859   -0.6516 H   0  0  0  0  0  0  0  0  0  0  0  0
   -0.2775    3.7697    1.0827 C   0  0  0  0  0  0  0  0  0  0  0  0
   -0.3477    4.7274    1.6074 H   0  0  0  0  0  0  0  0  0  0  0  0
    0.5617    2.6767    1.3910 C   0  0  0  0  0  0  0  0  0  0  0  0
    1.3014    2.5528    2.1900 H   0  0  0  0  0  0  0  0  0  0  0  0
   -1.0416    1.0838   -1.4354 B   0  0  0  0  0  0  0  0  0  0  0  0
   -1.2581    1.5993   -2.5210 H   0  0  0  0  0  0  0  0  0  0  0  0
   -0.0811    0.2503   -1.6580 H   0  0  0  0  0  0  0  0  0  0  0  0
  2 11  1  0  0  0  0
  3  6  1  0  0  0  0
  4 15  1  0  0  0  0
  4  5  1  0  0  0  0
  5 19  1  0  0  0  0
  6  2  1  0  0  0  0
  6  1  1  6  0  0  0
  7  2  1  0  0  0  0
  8  7  1  0  0  0  0
  9  3  1  0  0  0  0
  9  7  2  0  0  0  0
 10  9  1  0  0  0  0
 11 14  1  0  0  0  0
 12 11  1  0  0  0  0
 13 11  1  0  0  0  0
 15 17  1  0  0  0  0
 16 15  1  0  0  0  0
 17 19  2  0  0  0  0
 17 18  1  0  0  0  0
 19 20  1  0  0  0  0
 21  3  1  0  0  0  0
 21  4  1  0  0  0  0
 22 21  1  0  0  0  0
 23 21  1  0  0  0  0
M  END
