1,3
 OpenBabel05122313063D

  4  3  0  0  0  0  0  0  0  0999 V2000
   -1.5903   -1.9517   -0.0136 S   0  0  0  0  0  0  0  0  0  0  0  0
   -3.2555    0.3086    0.0148 S   0  0  0  0  0  0  0  0  0  0  0  0
   -1.8610    1.0815    0.0090 N   0  0  0  0  0  0  0  0  0  0  0  0
   -3.1564   -1.2884    0.0050 N   0  0  0  0  0  0  0  0  0  0  0  0
  1  4  1  0  0  0  0
  3  2  1  0  0  0  0
  4  2  1  0  0  0  0
M  END
