1,2
 OpenBabel05122313063D

 34 34  0  0  1  0  0  0  0  0999 V2000
   -2.5056    1.4295   -0.0011 S   0  0  0  0  0  1  0  0  0  0  0  0
    0.7429    0.9822    0.0005 N   0  0  0  0  0  2  0  0  0  0  0  0
   -1.7250    2.9535   -0.0004 C   0  0  1  0  0  3  0  0  0  0  0  0
   -0.3571    3.1965    0.0003 C   0  0  0  0  0  0  0  0  0  0  0  0
   -0.0799    4.2618    0.0006 H   0  0  0  0  0  0  0  0  0  0  0  0
    0.7700    2.3159    0.0005 C   0  0  0  0  0  0  0  0  0  0  0  0
   -2.6684    4.1381   -0.0007 C   0  0  0  0  0  0  0  0  0  0  0  0
   -2.1197    5.1003   -0.0002 H   0  0  0  0  0  0  0  0  0  0  0  0
   -3.3321    4.1084    0.8880 H   0  0  0  0  0  0  0  0  0  0  0  0
   -3.3311    4.1087   -0.8900 H   0  0  0  0  0  0  0  0  0  0  0  0
    2.1215    3.0130    0.0007 C   0  0  0  0  0  0  0  0  0  0  0  0
    2.7228    2.7193   -0.8828 H   0  0  0  0  0  0  0  0  0  0  0  0
    2.7222    2.7199    0.8849 H   0  0  0  0  0  0  0  0  0  0  0  0
    2.0035    4.1112    0.0003 H   0  0  0  0  0  0  0  0  0  0  0  0
    2.0115    0.3269    0.0006 C   0  0  0  0  0  0  0  0  0  0  0  0
    2.6198   -0.0157    1.2317 C   0  0  0  0  0  0  0  0  0  0  0  0
    3.8599   -0.6785    1.2057 C   0  0  0  0  0  0  0  0  0  0  0  0
    4.3335   -0.9496    2.1638 H   0  0  0  0  0  0  0  0  0  0  0  0
    4.5045   -1.0111    0.0002 C   0  0  0  0  0  0  0  0  0  0  0  0
    3.8593   -0.6785   -1.2056 C   0  0  0  0  0  0  0  0  0  0  0  0
    4.3324   -0.9495   -2.1641 H   0  0  0  0  0  0  0  0  0  0  0  0
    2.6197   -0.0158   -1.2312 C   0  0  0  0  0  0  0  0  0  0  0  0
    1.9215    0.3009    2.5273 C   0  0  0  0  0  0  0  0  0  0  0  0
    0.8996   -0.1370    2.5360 H   0  0  0  0  0  0  0  0  0  0  0  0
    1.7809    1.3933    2.6694 H   0  0  0  0  0  0  0  0  0  0  0  0
    2.4862   -0.0883    3.3958 H   0  0  0  0  0  0  0  0  0  0  0  0
    5.8525   -1.6890   -0.0020 C   0  0  0  0  0  0  0  0  0  0  0  0
    6.0199   -2.2690    0.9271 H   0  0  0  0  0  0  0  0  0  0  0  0
    6.6771   -0.9469   -0.0765 H   0  0  0  0  0  0  0  0  0  0  0  0
    5.9614   -2.3794   -0.8623 H   0  0  0  0  0  0  0  0  0  0  0  0
    1.9207    0.3010   -2.5264 C   0  0  0  0  0  0  0  0  0  0  0  0
    1.7793    1.3933   -2.6678 H   0  0  0  0  0  0  0  0  0  0  0  0
    0.8991   -0.1376   -2.5348 H   0  0  0  0  0  0  0  0  0  0  0  0
    2.4854   -0.0874   -3.3953 H   0  0  0  0  0  0  0  0  0  0  0  0
  2  6  1  0  0  0  0
  2 15  1  0  0  0  0
  3  1  1  6  0  0  0
  3  4  1  0  0  0  0
  4  6  2  0  0  0  0
  4  5  1  0  0  0  0
  6 11  1  0  0  0  0
  7  3  1  0  0  0  0
  7  8  1  0  0  0  0
  7  9  1  0  0  0  0
 10  7  1  0  0  0  0
 11 13  1  0  0  0  0
 12 11  1  0  0  0  0
 14 11  1  0  0  0  0
 15 16  1  0  0  0  0
 16 23  1  0  0  0  0
 17 16  2  0  0  0  0
 17 18  1  0  0  0  0
 19 17  1  0  0  0  0
 20 19  2  0  0  0  0
 21 20  1  0  0  0  0
 22 20  1  0  0  0  0
 22 15  2  0  0  0  0
 23 24  1  0  0  0  0
 23 25  1  0  0  0  0
 23 26  1  0  0  0  0
 27 19  1  0  0  0  0
 27 28  1  0  0  0  0
 29 27  1  0  0  0  0
 30 27  1  0  0  0  0
 31 22  1  0  0  0  0
 32 31  1  0  0  0  0
 33 31  1  0  0  0  0
 34 31  1  0  0  0  0
M  END
