1,5
 OpenBabel05122313063D

 24 24  0  0  1  0  0  0  0  0999 V2000
    0.8762    1.9655   -0.5074 S   0  0  0  0  0  1  0  0  0  0  0  0
    4.9690   -1.4619    0.0626 S   0  0  0  0  0  0  0  0  0  0  0  0
    3.4517    2.4715    0.0412 N   0  0  0  0  0  0  0  0  0  0  0  0
    3.2145    3.4164   -0.2721 H   0  0  0  0  0  0  0  0  0  0  0  0
    1.8103   -0.6278    0.0394 N   0  0  0  0  0  2  0  0  0  0  0  0
    2.8464    0.2471    0.1634 N   0  0  0  0  0  2  0  0  0  0  0  0
    2.5029    1.5071   -0.0531 C   0  0  2  0  0  3  0  0  0  0  0  0
    3.5022   -2.4213   -0.0719 C   0  0  0  0  0  0  0  0  0  0  0  0
    3.8161   -3.7836   -0.1896 C   0  0  0  0  0  0  0  0  0  0  0  0
    3.0388   -4.5548   -0.2836 H   0  0  0  0  0  0  0  0  0  0  0  0
    2.1706   -1.8979   -0.0690 C   0  0  0  0  0  3  0  0  0  0  0  0
    1.3524   -2.6250   -0.1785 H   0  0  0  0  0  0  0  0  0  0  0  0
    5.2638    4.5440   -0.3541 O   0  0  0  0  0  0  0  0  0  0  0  0
    5.6351    4.3068   -1.2249 H   0  0  0  0  0  0  0  0  0  0  0  0
    5.5870    3.4935    0.5472 C   0  0  0  0  0  0  0  0  0  0  0  0
    6.6841    3.3023    0.6073 H   0  0  0  0  0  0  0  0  0  0  0  0
    5.2549    3.8424    1.5470 H   0  0  0  0  0  0  0  0  0  0  0  0
    5.9564   -2.8816   -0.0429 C   0  0  0  0  0  0  0  0  0  0  0  0
    7.0496   -2.7913   -0.0016 H   0  0  0  0  0  0  0  0  0  0  0  0
    5.2085   -4.0433   -0.1733 C   0  0  0  0  0  0  0  0  0  0  0  0
    5.6502   -5.0460   -0.2542 H   0  0  0  0  0  0  0  0  0  0  0  0
    4.8643    2.1959    0.1923 C   0  0  0  0  0  0  0  0  0  0  0  0
    5.0121    1.4283    0.9805 H   0  0  0  0  0  0  0  0  0  0  0  0
    5.2883    1.7548   -0.7442 H   0  0  0  0  0  0  0  0  0  0  0  0
  3 22  1  0  0  0  0
  4  3  1  0  0  0  0
  5  6  1  0  0  0  0
  7  1  1  6  0  0  0
  7  3  1  0  0  0  0
  7  6  1  0  0  0  0
  8 11  1  0  0  0  0
  8  2  1  0  0  0  0
  9 20  1  0  0  0  0
  9  8  2  0  0  0  0
 10  9  1  0  0  0  0
 11  5  1  0  0  0  0
 12 11  1  0  0  0  0
 13 15  1  0  0  0  0
 14 13  1  0  0  0  0
 15 16  1  0  0  0  0
 15 17  1  0  0  0  0
 18 19  1  0  0  0  0
 18  2  1  0  0  0  0
 20 18  2  0  0  0  0
 21 20  1  0  0  0  0
 22 15  1  0  0  0  0
 22 23  1  0  0  0  0
 24 22  1  0  0  0  0
M  END
