1,3
 OpenBabel05122313063D

 20 20  0  0  1  0  0  0  0  0999 V2000
    0.2287   -2.1478   -0.4812 S   0  0  0  0  0  1  0  0  0  0  0  0
   -5.0220   -1.2372    0.1426 S   0  0  0  0  0  0  0  0  0  0  0  0
   -1.8768   -0.3716    0.0673 N   0  0  0  0  0  2  0  0  0  0  0  0
   -2.3284   -1.6491    0.2088 N   0  0  0  0  0  2  0  0  0  0  0  0
   -5.1968    1.3669   -0.1269 C   0  0  0  0  0  0  0  0  0  0  0  0
   -1.7484   -3.8772    0.0859 N   0  0  0  0  0  0  0  0  0  0  0  0
   -2.7386   -4.1116    0.1560 H   0  0  0  0  0  0  0  0  0  0  0  0
   -1.0962   -4.5869   -0.2388 H   0  0  0  0  0  0  0  0  0  0  0  0
   -6.5883   -0.5095    0.0567 C   0  0  0  0  0  0  0  0  0  0  0  0
   -7.4881   -1.1352    0.1182 H   0  0  0  0  0  0  0  0  0  0  0  0
   -1.4060   -2.5644   -0.0194 C   0  0  1  0  0  3  0  0  0  0  0  0
   -4.2436    0.3307   -0.0164 C   0  0  0  0  0  0  0  0  0  0  0  0
   -2.8306    0.5422   -0.0374 C   0  0  0  0  0  3  0  0  0  0  0  0
   -2.4828    1.5772   -0.1638 H   0  0  0  0  0  0  0  0  0  0  0  0
   -6.5277    0.8685   -0.0827 C   0  0  0  0  0  0  0  0  0  0  0  0
   -7.4153    1.5136   -0.1515 H   0  0  0  0  0  0  0  0  0  0  0  0
   -4.8408    2.8198   -0.2793 C   0  0  0  0  0  0  0  0  0  0  0  0
   -4.1759    3.1718    0.5364 H   0  0  0  0  0  0  0  0  0  0  0  0
   -5.7498    3.4508   -0.2693 H   0  0  0  0  0  0  0  0  0  0  0  0
   -4.3083    3.0153   -1.2340 H   0  0  0  0  0  0  0  0  0  0  0  0
  3  4  1  0  0  0  0
  5 15  1  0  0  0  0
  5 12  2  0  0  0  0
  6  7  1  0  0  0  0
  8  6  1  0  0  0  0
  9 10  1  0  0  0  0
  9  2  1  0  0  0  0
 11  1  1  6  0  0  0
 11  6  1  0  0  0  0
 11  4  1  0  0  0  0
 12  2  1  0  0  0  0
 13 12  1  0  0  0  0
 13  3  1  0  0  0  0
 14 13  1  0  0  0  0
 15  9  2  0  0  0  0
 16 15  1  0  0  0  0
 17 19  1  0  0  0  0
 17  5  1  0  0  0  0
 17 18  1  0  0  0  0
 20 17  1  0  0  0  0
M  END
