1,4
 OpenBabel05122313063D

 39 42  0  0  1  0  0  0  0  0999 V2000
   -1.0368   -0.2263   -0.2360 S   0  0  0  0  0  0  0  0  0  0  0  0
    2.2028    3.5027    1.1379 S   0  0  0  0  0  0  0  0  0  0  0  0
   -5.6291   -1.3292   -0.6769 S   0  0  0  0  0  0  0  0  0  0  0  0
    2.0758    1.1287    0.0908 N   0  0  0  0  0  2  0  0  0  0  0  0
   -4.1947    0.4377    0.6131 N   0  0  0  0  0  0  0  0  0  0  0  0
   -1.0236    1.4677    0.4636 C   0  0  0  0  0  0  0  0  0  0  0  0
   -0.9302    2.1446   -0.4091 H   0  0  0  0  0  0  0  0  0  0  0  0
   -2.0404    1.5946    0.8872 H   0  0  0  0  0  0  0  0  0  0  0  0
    0.0765    1.7235    1.5004 C   0  0  0  0  0  0  0  0  0  0  0  0
   -0.1966    2.6093    2.1086 H   0  0  0  0  0  0  0  0  0  0  0  0
    0.1697    0.8509    2.1901 H   0  0  0  0  0  0  0  0  0  0  0  0
    1.4179    1.9598    0.8819 C   0  0  2  0  0  3  0  0  0  0  0  0
    3.5138    3.0091    0.0959 C   0  0  0  0  0  0  0  0  0  0  0  0
    3.2611    1.6954   -0.3940 C   0  0  0  0  0  0  0  0  0  0  0  0
    4.1762    1.1183   -1.2979 C   0  0  0  0  0  0  0  0  0  0  0  0
    3.9868    0.1204   -1.7093 H   0  0  0  0  0  0  0  0  0  0  0  0
    5.3135    1.8411   -1.6662 C   0  0  0  0  0  0  0  0  0  0  0  0
    6.0280    1.3910   -2.3707 H   0  0  0  0  0  0  0  0  0  0  0  0
    5.5600    3.1334   -1.1540 C   0  0  0  0  0  0  0  0  0  0  0  0
    6.4657    3.6786   -1.4580 H   0  0  0  0  0  0  0  0  0  0  0  0
    4.6596    3.7343   -0.2684 C   0  0  0  0  0  0  0  0  0  0  0  0
    4.8388    4.7443    0.1269 H   0  0  0  0  0  0  0  0  0  0  0  0
   -1.8649   -1.1633    1.1266 C   0  0  0  0  0  0  0  0  0  0  0  0
   -1.1338   -1.8979    1.5145 H   0  0  0  0  0  0  0  0  0  0  0  0
   -2.0786   -0.4426    1.9376 H   0  0  0  0  0  0  0  0  0  0  0  0
   -3.1472   -1.8174    0.6263 C   0  0  0  0  0  0  0  0  0  0  0  0
   -2.9379   -2.4826   -0.2382 H   0  0  0  0  0  0  0  0  0  0  0  0
   -3.5351   -2.4851    1.4288 H   0  0  0  0  0  0  0  0  0  0  0  0
   -4.2109   -0.8202    0.2646 C   0  0  0  0  0  0  0  0  0  0  0  0
   -6.2433    0.3058   -0.5742 C   0  0  0  0  0  0  0  0  0  0  0  0
   -5.3183    1.1090    0.1624 C   0  0  0  0  0  0  0  0  0  0  0  0
   -5.6021    2.4748    0.3695 C   0  0  0  0  0  0  0  0  0  0  0  0
   -4.8921    3.0913    0.9395 H   0  0  0  0  0  0  0  0  0  0  0  0
   -6.7832    3.0100   -0.1521 C   0  0  0  0  0  0  0  0  0  0  0  0
   -7.0141    4.0741    0.0051 H   0  0  0  0  0  0  0  0  0  0  0  0
   -7.6875    2.2033   -0.8786 C   0  0  0  0  0  0  0  0  0  0  0  0
   -8.6107    2.6475   -1.2798 H   0  0  0  0  0  0  0  0  0  0  0  0
   -7.4298    0.8442   -1.0982 C   0  0  0  0  0  0  0  0  0  0  0  0
   -8.1360    0.2203   -1.6645 H   0  0  0  0  0  0  0  0  0  0  0  0
  1  6  1  0  0  0  0
  1 23  1  0  0  0  0
  3 30  1  0  0  0  0
  3 29  1  0  0  0  0
  4 12  1  0  0  0  0
  6  8  1  0  0  0  0
  6  9  1  0  0  0  0
  7  6  1  0  0  0  0
  9 10  1  0  0  0  0
  9 11  1  0  0  0  0
 12  2  1  0  0  0  0
 12  9  1  6  0  0  0
 13  2  1  0  0  0  0
 14  4  1  0  0  0  0
 14 13  2  0  0  0  0
 15 14  1  0  0  0  0
 16 15  1  0  0  0  0
 17 15  2  0  0  0  0
 17 19  1  0  0  0  0
 18 17  1  0  0  0  0
 19 21  2  0  0  0  0
 20 19  1  0  0  0  0
 21 13  1  0  0  0  0
 21 22  1  0  0  0  0
 23 24  1  0  0  0  0
 23 25  1  0  0  0  0
 26 23  1  0  0  0  0
 26 28  1  0  0  0  0
 27 26  1  0  0  0  0
 29  5  2  0  0  0  0
 29 26  1  0  0  0  0
 30 31  1  0  0  0  0
 31 32  2  0  0  0  0
 31  5  1  0  0  0  0
 32 33  1  0  0  0  0
 34 35  1  0  0  0  0
 34 32  1  0  0  0  0
 36 34  2  0  0  0  0
 37 36  1  0  0  0  0
 38 36  1  0  0  0  0
 38 30  2  0  0  0  0
 39 38  1  0  0  0  0
M  END
