1,2
 OpenBabel05122313063D

 27 29  0  0  0  0  0  0  0  0999 V2000
    1.5889    2.7815   -0.2100 S   0  0  0  0  0  1  0  0  0  0  0  0
    1.1295    0.0388   -0.9173 N   0  0  0  0  0  2  0  0  0  0  0  0
    0.6681   -1.0886   -1.5052 C   0  0  0  0  0  0  0  0  0  0  0  0
    1.5799   -2.1086   -1.8976 C   0  0  0  0  0  0  0  0  0  0  0  0
    2.9419   -1.9415   -1.7110 C   0  0  0  0  0  0  0  0  0  0  0  0
    3.4463   -0.7054   -1.2128 C   0  0  0  0  0  0  0  0  0  0  0  0
    4.8245   -0.3920   -1.0654 C   0  0  0  0  0  3  0  0  0  0  0  0
    5.1986    0.8874   -0.6544 C   0  0  0  0  0  0  0  0  0  0  0  0
    4.2402    1.8930   -0.3919 C   0  0  0  0  0  0  0  0  0  0  0  0
    2.8678    1.6133   -0.4841 C   0  0  0  0  0  0  0  0  0  0  0  0
    2.4772    0.2906   -0.8661 C   0  0  0  0  0  0  0  0  0  0  0  0
   -0.7797   -1.1846   -1.7810 C   0  0  0  0  0  0  0  0  0  0  0  0
   -1.4788   -0.0249   -2.1921 C   0  0  0  0  0  0  0  0  0  0  0  0
   -2.8573   -0.0754   -2.4328 C   0  0  0  0  0  0  0  0  0  0  0  0
   -3.5574   -1.2823   -2.2779 C   0  0  0  0  0  0  0  0  0  0  0  0
   -2.8673   -2.4450   -1.8954 C   0  0  0  0  0  0  0  0  0  0  0  0
   -1.4880   -2.3993   -1.6529 C   0  0  0  0  0  0  0  0  0  0  0  0
    1.1807   -3.0177   -2.3682 H   0  0  0  0  0  0  0  0  0  0  0  0
    3.6483   -2.7378   -1.9925 H   0  0  0  0  0  0  0  0  0  0  0  0
    5.5795   -1.1562   -1.3017 H   0  0  0  0  0  0  0  0  0  0  0  0
    6.2667    1.1336   -0.5506 H   0  0  0  0  0  0  0  0  0  0  0  0
    4.5647    2.9058   -0.1104 H   0  0  0  0  0  0  0  0  0  0  0  0
   -0.9277    0.9179   -2.3274 H   0  0  0  0  0  0  0  0  0  0  0  0
   -3.3876    0.8392   -2.7358 H   0  0  0  0  0  0  0  0  0  0  0  0
   -4.6429   -1.3170   -2.4530 H   0  0  0  0  0  0  0  0  0  0  0  0
   -3.4122   -3.3924   -1.7658 H   0  0  0  0  0  0  0  0  0  0  0  0
   -0.9597   -3.3046   -1.3170 H   0  0  0  0  0  0  0  0  0  0  0  0
  2 11  1  0  0  0  0
  3  2  1  0  0  0  0
  4  5  1  0  0  0  0
  4  3  2  0  0  0  0
  5  6  2  0  0  0  0
  6  7  1  0  0  0  0
  6 11  1  0  0  0  0
  7  8  1  0  0  0  0
  8 21  1  0  0  0  0
  8  9  2  0  0  0  0
  9 22  1  0  0  0  0
 10  9  1  0  0  0  0
 10  1  1  0  0  0  0
 11 10  2  0  0  0  0
 12 17  1  0  0  0  0
 12  3  1  0  0  0  0
 13 12  2  0  0  0  0
 14 15  2  0  0  0  0
 14 13  1  0  0  0  0
 15 16  1  0  0  0  0
 16 26  1  0  0  0  0
 16 17  2  0  0  0  0
 17 27  1  0  0  0  0
 18  4  1  0  0  0  0
 19  5  1  0  0  0  0
 20  7  1  0  0  0  0
 23 13  1  0  0  0  0
 24 14  1  0  0  0  0
 25 15  1  0  0  0  0
M  END
