1,2
 OpenBabel05122313063D

 28 29  0  0  0  0  0  0  0  0999 V2000
   -3.1698   -0.0350   -0.7288 S   0  0  0  0  0  1  0  0  0  0  0  0
   -1.2072   -0.1500    1.4752 N   0  0  0  0  0  2  0  0  0  0  0  0
   -3.4278   -0.1814    0.9686 C   0  0  0  0  0  0  0  0  0  0  0  0
    1.5946    0.4751    1.0570 N   0  0  0  0  0  0  0  0  0  0  0  0
   -2.4613   -0.2859    1.9105 N   0  0  0  0  0  0  0  0  0  0  0  0
   -4.6919   -0.2430    1.4666 N   0  0  0  0  0  0  0  0  0  0  0  0
   -4.7489   -0.3813    2.4776 H   0  0  0  0  0  0  0  0  0  0  0  0
    2.9272    0.6292    0.8456 C   0  0  0  0  0  0  0  0  0  0  0  0
    1.1772   -0.2981    2.0645 C   0  0  0  0  0  0  0  0  0  0  0  0
   -0.2436   -0.4701    2.3170 C   0  0  0  0  0  3  0  0  0  0  0  0
   -0.5549   -0.9118    3.2800 H   0  0  0  0  0  0  0  0  0  0  0  0
    3.9251   -0.0500    1.6421 C   0  0  0  0  0  0  0  0  0  0  0  0
    2.0965   -0.9725    2.9409 C   0  0  0  0  0  0  0  0  0  0  0  0
    1.7065   -1.5847    3.7681 H   0  0  0  0  0  0  0  0  0  0  0  0
    3.3662    1.5059   -0.1955 C   0  0  0  0  0  0  0  0  0  0  0  0
    2.6009    2.0516   -0.7648 H   0  0  0  0  0  0  0  0  0  0  0  0
    3.4528   -0.8621    2.7144 C   0  0  0  0  0  0  0  0  0  0  0  0
    4.1788   -1.3884    3.3545 H   0  0  0  0  0  0  0  0  0  0  0  0
   -5.8897   -0.2253    0.6632 C   0  0  0  0  0  0  0  0  0  0  0  0
   -5.8845    0.6438   -0.0276 H   0  0  0  0  0  0  0  0  0  0  0  0
   -6.7704   -0.1540    1.3290 H   0  0  0  0  0  0  0  0  0  0  0  0
   -5.9874   -1.1393    0.0350 H   0  0  0  0  0  0  0  0  0  0  0  0
    5.6962    0.9716    0.3105 C   0  0  0  0  0  0  0  0  0  0  0  0
    6.7649    1.1092    0.0866 H   0  0  0  0  0  0  0  0  0  0  0  0
    4.7195    1.6677   -0.4533 C   0  0  0  0  0  0  0  0  0  0  0  0
    5.0444    2.3464   -1.2571 H   0  0  0  0  0  0  0  0  0  0  0  0
    5.3037    0.1321    1.3447 C   0  0  0  0  0  0  0  0  0  0  0  0
    6.0536   -0.3979    1.9537 H   0  0  0  0  0  0  0  0  0  0  0  0
  1  3  1  0  0  0  0
  2  5  1  0  0  0  0
  2 10  1  0  0  0  0
  3  6  1  0  0  0  0
  3  5  2  0  0  0  0
  4  9  1  0  0  0  0
  6  7  1  0  0  0  0
  8  4  2  0  0  0  0
  8 12  1  0  0  0  0
  9 10  1  0  0  0  0
  9 13  2  0  0  0  0
 10 11  1  0  0  0  0
 12 17  2  0  0  0  0
 13 14  1  0  0  0  0
 15  8  1  0  0  0  0
 16 15  1  0  0  0  0
 17 13  1  0  0  0  0
 17 18  1  0  0  0  0
 19 21  1  0  0  0  0
 19  6  1  0  0  0  0
 20 19  1  0  0  0  0
 22 19  1  0  0  0  0
 23 27  2  0  0  0  0
 24 23  1  0  0  0  0
 25 15  2  0  0  0  0
 25 23  1  0  0  0  0
 26 25  1  0  0  0  0
 27 12  1  0  0  0  0
 27 28  1  0  0  0  0
M  END
