1,2
 OpenBabel05122313063D

 33 34  0  0  1  0  0  0  0  0999 V2000
   -1.5226   -0.7882   -1.0891 S   0  0  0  0  0  1  0  0  0  0  0  0
    2.7998    0.5869   -0.4984 N   0  0  0  0  0  2  0  0  0  0  0  0
    0.3210    1.5503   -0.7298 N   0  0  0  0  0  0  0  0  0  0  0  0
   -0.9753    1.8096   -0.5391 N   0  0  0  0  0  0  0  0  0  0  0  0
   -3.1905    1.2825   -0.5861 N   0  0  0  0  0  0  0  0  0  0  0  0
    4.0210    0.0632   -0.6663 C   0  0  0  0  0  3  0  0  0  0  0  0
    5.1586    0.8623   -0.8659 C   0  0  0  0  0  0  0  0  0  0  0  0
    4.9988    2.2543   -0.8849 C   0  0  0  0  0  0  0  0  0  0  0  0
    3.7183    2.7986   -0.7160 C   0  0  0  0  0  0  0  0  0  0  0  0
    2.6237    1.9295   -0.5354 C   0  0  0  0  0  0  0  0  0  0  0  0
    1.2291    2.4155   -0.3838 C   0  0  0  0  0  0  0  0  0  0  0  0
   -1.9196    0.7971   -0.7175 C   0  0  1  0  0  3  0  0  0  0  0  0
   -4.4169    0.5894   -0.4482 C   0  0  0  0  0  0  0  0  0  0  0  0
   -5.5770    1.2144   -0.9493 C   0  0  0  0  0  0  0  0  0  0  0  0
   -6.8277    0.6018   -0.7995 C   0  0  0  0  0  0  0  0  0  0  0  0
   -6.9306   -0.6408   -0.1560 C   0  0  0  0  0  0  0  0  0  0  0  0
   -5.7730   -1.2562    0.3481 C   0  0  0  0  0  0  0  0  0  0  0  0
   -4.5172   -0.6514    0.2124 C   0  0  0  0  0  0  0  0  0  0  0  0
    0.9117    3.7444    0.2390 C   0  0  0  0  0  0  0  0  0  0  0  0
    4.0674   -1.0410   -0.6274 H   0  0  0  0  0  0  0  0  0  0  0  0
    6.1456    0.3953   -0.9932 H   0  0  0  0  0  0  0  0  0  0  0  0
    5.8645    2.9166   -1.0359 H   0  0  0  0  0  0  0  0  0  0  0  0
    3.5679    3.8868   -0.7510 H   0  0  0  0  0  0  0  0  0  0  0  0
   -5.4942    2.1846   -1.4652 H   0  0  0  0  0  0  0  0  0  0  0  0
   -7.7255    1.0989   -1.1960 H   0  0  0  0  0  0  0  0  0  0  0  0
   -7.9108   -1.1269   -0.0436 H   0  0  0  0  0  0  0  0  0  0  0  0
   -5.8445   -2.2243    0.8660 H   0  0  0  0  0  0  0  0  0  0  0  0
   -3.6181   -1.1316    0.6180 H   0  0  0  0  0  0  0  0  0  0  0  0
   -1.2455    2.5829    0.0872 H   0  0  0  0  0  0  0  0  0  0  0  0
   -3.2903    2.2957   -0.7008 H   0  0  0  0  0  0  0  0  0  0  0  0
    0.4936    3.5580    1.2548 H   0  0  0  0  0  0  0  0  0  0  0  0
    0.1631    4.3130   -0.3523 H   0  0  0  0  0  0  0  0  0  0  0  0
    1.8047    4.3797    0.3675 H   0  0  0  0  0  0  0  0  0  0  0  0
  3  4  1  0  0  0  0
  3 11  2  0  0  0  0
  4 29  1  0  0  0  0
  5 13  1  0  0  0  0
  6 20  1  0  0  0  0
  6  2  1  0  0  0  0
  7  6  1  0  0  0  0
  8  7  2  0  0  0  0
  8  9  1  0  0  0  0
  9 10  2  0  0  0  0
 10  2  1  0  0  0  0
 10 11  1  0  0  0  0
 11 19  1  0  0  0  0
 12  1  1  6  0  0  0
 12  5  1  0  0  0  0
 12  4  1  0  0  0  0
 13 18  1  0  0  0  0
 14 15  1  0  0  0  0
 14 13  2  0  0  0  0
 15 16  2  0  0  0  0
 16 26  1  0  0  0  0
 16 17  1  0  0  0  0
 17 27  1  0  0  0  0
 18 17  2  0  0  0  0
 18 28  1  0  0  0  0
 19 33  1  0  0  0  0
 19 31  1  0  0  0  0
 21  7  1  0  0  0  0
 22  8  1  0  0  0  0
 23  9  1  0  0  0  0
 24 14  1  0  0  0  0
 25 15  1  0  0  0  0
 30  5  1  0  0  0  0
 32 19  1  0  0  0  0
M  END
