1,3
 OpenBabel05122313063D

 20 20  0  0  0  0  0  0  0  0999 V2000
   -0.3169    2.3997   -0.0323 S   0  0  0  0  0  1  0  0  0  0  0  0
   -5.6408    1.0029    0.0305 S   0  0  0  0  0  0  0  0  0  0  0  0
   -2.4435    0.4078   -0.0371 N   0  0  0  0  0  2  0  0  0  0  0  0
   -2.5161    3.9176   -0.0884 N   0  0  0  0  0  0  0  0  0  0  0  0
   -3.5139    4.0797    0.0440 H   0  0  0  0  0  0  0  0  0  0  0  0
   -1.8655    4.6802    0.0836 H   0  0  0  0  0  0  0  0  0  0  0  0
   -2.9562    1.6611   -0.0385 N   0  0  0  0  0  0  0  0  0  0  0  0
   -4.7315   -0.5014    0.0247 C   0  0  0  0  0  0  0  0  0  0  0  0
   -2.0658    2.6320   -0.0455 C   0  0  0  0  0  0  0  0  0  0  0  0
   -6.9593   -1.2352    0.0806 C   0  0  0  0  0  0  0  0  0  0  0  0
   -7.7884   -1.9567    0.1047 H   0  0  0  0  0  0  0  0  0  0  0  0
   -5.5902   -1.6204    0.0538 C   0  0  0  0  0  0  0  0  0  0  0  0
   -5.1081   -3.0446    0.0580 C   0  0  0  0  0  0  0  0  0  0  0  0
   -4.4811   -3.2709   -0.8290 H   0  0  0  0  0  0  0  0  0  0  0  0
   -5.9611   -3.7494    0.0585 H   0  0  0  0  0  0  0  0  0  0  0  0
   -4.4858   -3.2658    0.9500 H   0  0  0  0  0  0  0  0  0  0  0  0
   -3.3044   -0.5892   -0.0054 C   0  0  0  0  0  3  0  0  0  0  0  0
   -2.8354   -1.5874   -0.0046 H   0  0  0  0  0  0  0  0  0  0  0  0
   -7.1378    0.1395    0.0722 C   0  0  0  0  0  0  0  0  0  0  0  0
   -8.0876    0.6895    0.0872 H   0  0  0  0  0  0  0  0  0  0  0  0
  2 19  1  0  0  0  0
  3 17  1  0  0  0  0
  4  9  1  0  0  0  0
  4  5  1  0  0  0  0
  4  6  1  0  0  0  0
  7  3  1  0  0  0  0
  8  2  1  0  0  0  0
  8 12  2  0  0  0  0
  9  7  2  0  0  0  0
  9  1  1  0  0  0  0
 10 11  1  0  0  0  0
 12 13  1  0  0  0  0
 12 10  1  0  0  0  0
 13 15  1  0  0  0  0
 13 16  1  0  0  0  0
 14 13  1  0  0  0  0
 17 18  1  0  0  0  0
 17  8  1  0  0  0  0
 19 10  2  0  0  0  0
 19 20  1  0  0  0  0
M  END
