1,5
 OpenBabel05122313063D

 23 23  0  0  0  0  0  0  0  0999 V2000
   -0.4297    2.9798   -0.0120 S   0  0  0  0  0  1  0  0  0  0  0  0
    2.2887    4.0726    0.3218 S   0  0  0  0  0  0  0  0  0  0  0  0
    1.9525   -3.2866   -1.5992 O   0  0  0  0  0  0  0  0  0  0  0  0
    2.2211   -4.2073   -1.7753 H   0  0  0  0  0  0  0  0  0  0  0  0
    1.0500    0.5151   -0.7046 N   0  0  0  0  0  2  0  0  0  0  0  0
    1.8992    1.5405   -0.3975 N   0  0  0  0  0  0  0  0  0  0  0  0
    3.0683   -2.5462   -1.3640 C   0  0  0  0  0  0  0  0  0  0  0  0
    4.3496   -3.1233   -1.3700 C   0  0  0  0  0  0  0  0  0  0  0  0
    4.4541   -4.2014   -1.5763 H   0  0  0  0  0  0  0  0  0  0  0  0
    5.4807   -2.3372   -1.1162 C   0  0  0  0  0  0  0  0  0  0  0  0
    6.4773   -2.8039   -1.1268 H   0  0  0  0  0  0  0  0  0  0  0  0
    5.3404   -0.9640   -0.8515 C   0  0  0  0  0  0  0  0  0  0  0  0
    6.2279   -0.3454   -0.6540 H   0  0  0  0  0  0  0  0  0  0  0  0
    4.0698   -0.3828   -0.8411 C   0  0  0  0  0  0  0  0  0  0  0  0
    3.9287    0.6832   -0.6341 H   0  0  0  0  0  0  0  0  0  0  0  0
    2.9031   -1.1499   -1.0944 C   0  0  0  0  0  0  0  0  0  0  0  0
    1.5403   -0.6544   -1.0518 C   0  0  0  0  0  3  0  0  0  0  0  0
    0.7628   -1.3865   -1.3115 H   0  0  0  0  0  0  0  0  0  0  0  0
    1.3179    2.6725   -0.0815 C   0  0  0  0  0  0  0  0  0  0  0  0
    3.9757    3.4355    0.0979 C   0  0  0  0  0  0  0  0  0  0  0  0
    4.1325    3.1104   -0.9480 H   0  0  0  0  0  0  0  0  0  0  0  0
    4.1618    2.5880    0.7846 H   0  0  0  0  0  0  0  0  0  0  0  0
    4.6527    4.2766    0.3397 H   0  0  0  0  0  0  0  0  0  0  0  0
  3  7  1  0  0  0  0
  4  3  1  0  0  0  0
  5  6  1  0  0  0  0
  6 19  2  0  0  0  0
  7 16  1  0  0  0  0
  8  7  2  0  0  0  0
  8 10  1  0  0  0  0
  9  8  1  0  0  0  0
 10 12  2  0  0  0  0
 11 10  1  0  0  0  0
 12 14  1  0  0  0  0
 12 13  1  0  0  0  0
 14 15  1  0  0  0  0
 16 17  1  0  0  0  0
 16 14  2  0  0  0  0
 17  5  1  0  0  0  0
 18 17  1  0  0  0  0
 19  1  1  0  0  0  0
 19  2  1  0  0  0  0
 20  2  1  0  0  0  0
 20 23  1  0  0  0  0
 20 22  1  0  0  0  0
 21 20  1  0  0  0  0
M  END
