1,4
 OpenBabel05122313063D

 35 35  0  0  0  0  0  0  0  0999 V2000
    0.5026   -0.8924    0.9149 N   0  0  0  0  0  0  0  0  0  0  0  0
    0.4317   -2.2837    0.3471 C   0  0  0  0  0  0  0  0  0  0  0  0
    0.3342   -2.2877   -1.1687 C   0  0  0  0  0  0  0  0  0  0  0  0
   -0.8578   -1.0070   -1.7262 S   0  0  0  0  0  0  0  0  0  0  0  0
   -2.4587   -1.6980   -1.0888 C   0  0  0  0  0  0  0  0  0  0  0  0
   -3.3266   -0.6787   -0.3609 C   0  0  0  0  0  0  0  0  0  0  0  0
   -2.5807    0.2688    1.0166 S   0  0  0  0  0  0  0  0  0  0  0  0
   -1.7883   -1.0080    2.0720 C   0  0  0  0  0  0  0  0  0  0  0  0
   -0.2771   -0.8109    2.1958 C   0  0  0  0  0  0  0  0  0  0  0  0
    1.8981   -0.4358    1.2261 C   0  0  0  0  0  0  0  0  0  0  0  0
    2.9258   -0.3072    0.0665 C   0  0  0  0  0  0  0  0  0  0  0  0
    3.8896    0.8253    0.4500 C   0  0  0  0  0  0  0  0  0  0  0  0
    3.7182   -1.5990   -0.1932 C   0  0  0  0  0  0  0  0  0  0  0  0
    2.1809    0.0666   -1.1065 O   0  0  0  0  0  0  0  0  0  0  0  0
    1.3068   -2.8737    0.6923 H   0  0  0  0  0  0  0  0  0  0  0  0
   -0.4595   -2.7786    0.7762 H   0  0  0  0  0  0  0  0  0  0  0  0
    1.2763   -1.9616   -1.6461 H   0  0  0  0  0  0  0  0  0  0  0  0
    0.0423   -3.2798   -1.5676 H   0  0  0  0  0  0  0  0  0  0  0  0
   -2.2198   -2.5648   -0.4420 H   0  0  0  0  0  0  0  0  0  0  0  0
   -3.0065   -2.0879   -1.9709 H   0  0  0  0  0  0  0  0  0  0  0  0
   -3.6611    0.1247   -1.0496 H   0  0  0  0  0  0  0  0  0  0  0  0
   -4.2403   -1.1931    0.0027 H   0  0  0  0  0  0  0  0  0  0  0  0
   -2.0678   -2.0150    1.7035 H   0  0  0  0  0  0  0  0  0  0  0  0
   -2.2234   -0.9235    3.0878 H   0  0  0  0  0  0  0  0  0  0  0  0
    0.1332   -1.5554    2.9168 H   0  0  0  0  0  0  0  0  0  0  0  0
   -0.0799    0.1946    2.6165 H   0  0  0  0  0  0  0  0  0  0  0  0
    1.7719    0.5634    1.6798 H   0  0  0  0  0  0  0  0  0  0  0  0
    2.3235   -1.1096    2.0030 H   0  0  0  0  0  0  0  0  0  0  0  0
    4.4003    0.6168    1.4114 H   0  0  0  0  0  0  0  0  0  0  0  0
    3.3355    1.7796    0.5432 H   0  0  0  0  0  0  0  0  0  0  0  0
    4.6789    0.9392   -0.3213 H   0  0  0  0  0  0  0  0  0  0  0  0
    4.2897   -1.9046    0.7058 H   0  0  0  0  0  0  0  0  0  0  0  0
    4.4492   -1.4347   -1.0103 H   0  0  0  0  0  0  0  0  0  0  0  0
    3.0723   -2.4452   -0.4945 H   0  0  0  0  0  0  0  0  0  0  0  0
    2.8058    0.4503   -1.7519 H   0  0  0  0  0  0  0  0  0  0  0  0
  1 10  1  0  0  0  0
  1  9  1  0  0  0  0
  2 15  1  0  0  0  0
  2 16  1  0  0  0  0
  2  1  1  0  0  0  0
  3  2  1  0  0  0  0
  4  3  1  0  0  0  0
  4  5  1  0  0  0  0
  5 19  1  0  0  0  0
  5  6  1  0  0  0  0
  6 22  1  0  0  0  0
  6  7  1  0  0  0  0
  7  8  1  0  0  0  0
  8  9  1  0  0  0  0
  8 24  1  0  0  0  0
  9 26  1  0  0  0  0
  9 25  1  0  0  0  0
 10 27  1  0  0  0  0
 10 28  1  0  0  0  0
 11 12  1  0  0  0  0
 11 10  1  0  0  0  0
 12 30  1  0  0  0  0
 12 29  1  0  0  0  0
 13 11  1  0  0  0  0
 13 32  1  0  0  0  0
 14 11  1  0  0  0  0
 17  3  1  0  0  0  0
 18  3  1  0  0  0  0
 20  5  1  0  0  0  0
 21  6  1  0  0  0  0
 23  8  1  0  0  0  0
 31 12  1  0  0  0  0
 33 13  1  0  0  0  0
 34 13  1  0  0  0  0
 35 14  1  0  0  0  0
M  END
