1,2
 OpenBabel05122313063D

 31 32  0  0  0  0  0  0  0  0999 V2000
   -1.3687   -2.8912   -0.7307 S   0  0  0  0  0  1  0  0  0  0  0  0
   -0.9282   -0.0898   -1.1109 N   0  0  0  0  0  2  0  0  0  0  0  0
   -2.6047   -1.7823   -1.2926 C   0  0  0  0  0  0  0  0  0  0  0  0
   -2.2886   -0.3983   -1.3746 C   0  0  0  0  0  0  0  0  0  0  0  0
   -3.2731    0.5390   -1.7443 C   0  0  0  0  0  0  0  0  0  0  0  0
   -3.0410    1.6140   -1.7400 H   0  0  0  0  0  0  0  0  0  0  0  0
   -4.5629    0.1056   -2.0696 C   0  0  0  0  0  0  0  0  0  0  0  0
   -5.3370    0.8410   -2.3335 H   0  0  0  0  0  0  0  0  0  0  0  0
   -4.8670   -1.2725   -2.0497 C   0  0  0  0  0  0  0  0  0  0  0  0
   -5.8781   -1.6152   -2.3179 H   0  0  0  0  0  0  0  0  0  0  0  0
   -3.9016   -2.2073   -1.6644 C   0  0  0  0  0  0  0  0  0  0  0  0
   -4.1425   -3.2801   -1.6236 H   0  0  0  0  0  0  0  0  0  0  0  0
   -0.3669    0.9678   -1.6493 C   0  0  0  0  0  3  0  0  0  0  0  0
   -1.0111    1.6831   -2.1954 H   0  0  0  0  0  0  0  0  0  0  0  0
    1.0618    1.2321   -1.6755 C   0  0  0  0  0  0  0  0  0  0  0  0
    1.5253    2.5631   -1.8109 C   0  0  0  0  0  0  0  0  0  0  0  0
    0.7950    3.3871   -1.8584 H   0  0  0  0  0  0  0  0  0  0  0  0
    2.8985    2.8464   -1.8557 C   0  0  0  0  0  0  0  0  0  0  0  0
    3.8082    1.7672   -1.8015 C   0  0  0  0  0  0  0  0  0  0  0  0
    4.8897    1.9783   -1.8468 H   0  0  0  0  0  0  0  0  0  0  0  0
    3.3787    0.4286   -1.7111 C   0  0  0  0  0  0  0  0  0  0  0  0
    2.0000    0.1740   -1.6460 C   0  0  0  0  0  0  0  0  0  0  0  0
    1.6372   -0.8673   -1.5960 H   0  0  0  0  0  0  0  0  0  0  0  0
    3.4038    4.2634   -1.9697 C   0  0  0  0  0  0  0  0  0  0  0  0
    4.0063    4.4021   -2.8916 H   0  0  0  0  0  0  0  0  0  0  0  0
    4.0628    4.5263   -1.1160 H   0  0  0  0  0  0  0  0  0  0  0  0
    2.5731    4.9947   -1.9950 H   0  0  0  0  0  0  0  0  0  0  0  0
    4.3724   -0.7019   -1.6578 C   0  0  0  0  0  0  0  0  0  0  0  0
    3.8706   -1.6848   -1.7367 H   0  0  0  0  0  0  0  0  0  0  0  0
    4.9192   -0.6882   -0.6922 H   0  0  0  0  0  0  0  0  0  0  0  0
    5.1254   -0.6208   -2.4679 H   0  0  0  0  0  0  0  0  0  0  0  0
  3  1  1  0  0  0  0
  4  3  1  0  0  0  0
  4  2  1  0  0  0  0
  5  6  1  0  0  0  0
  5  4  2  0  0  0  0
  7  9  2  0  0  0  0
  7  5  1  0  0  0  0
  8  7  1  0  0  0  0
  9 11  1  0  0  0  0
 10  9  1  0  0  0  0
 11 12  1  0  0  0  0
 11  3  2  0  0  0  0
 13  2  1  0  0  0  0
 14 13  1  0  0  0  0
 15 13  1  0  0  0  0
 15 22  1  0  0  0  0
 16 15  2  0  0  0  0
 17 16  1  0  0  0  0
 18 16  1  0  0  0  0
 18 19  2  0  0  0  0
 19 21  1  0  0  0  0
 20 19  1  0  0  0  0
 21 28  1  0  0  0  0
 21 22  2  0  0  0  0
 22 23  1  0  0  0  0
 24 18  1  0  0  0  0
 24 26  1  0  0  0  0
 25 24  1  0  0  0  0
 27 24  1  0  0  0  0
 28 30  1  0  0  0  0
 29 28  1  0  0  0  0
 31 28  1  0  0  0  0
M  END
