2,3
 OpenBabel05122313063D

 36 37  0  0  0  0  0  0  0  0999 V2000
   -1.6355   -2.4777    0.5877 S   0  0  0  0  0  0  0  0  0  0  0  0
   -1.3328   -0.1202   -2.1768 S   0  0  0  0  0  0  0  0  0  0  0  0
   -1.0682    0.8220    0.7267 N   0  0  0  0  0  2  0  0  0  0  0  0
   -2.4052    0.7028    0.9406 N   0  0  0  0  0  0  0  0  0  0  0  0
   -2.0960   -4.1478    1.1710 C   0  0  0  0  0  0  0  0  0  0  0  0
   -3.2947   -1.7371    0.4207 C   0  0  0  0  0  0  0  0  0  0  0  0
   -1.5665   -1.8152   -2.8050 C   0  0  0  0  0  0  0  0  0  0  0  0
   -3.0084    0.2304   -1.5387 C   0  0  0  0  0  0  0  0  0  0  0  0
   -5.2003    1.7832    0.0281 C   0  0  0  0  0  0  0  0  0  0  0  0
   -6.5051    2.2891    0.1232 C   0  0  0  0  0  0  0  0  0  0  0  0
   -7.5757    1.4225    0.3984 C   0  0  0  0  0  0  0  0  0  0  0  0
   -7.3183    0.0555    0.5764 C   0  0  0  0  0  0  0  0  0  0  0  0
   -6.0041   -0.4346    0.4830 C   0  0  0  0  0  0  0  0  0  0  0  0
   -4.9039    0.4090    0.2101 C   0  0  0  0  0  0  0  0  0  0  0  0
   -2.7515    1.4660    2.0071 C   0  0  0  0  0  3  0  0  0  0  0  0
   -1.6116    2.1146    2.4952 C   0  0  0  0  0  0  0  0  0  0  0  0
   -0.5766    1.6791    1.6554 C   0  0  0  0  0  0  0  0  0  0  0  0
   -3.3740   -0.1480    0.0171 B   0  0  0  0  0  0  0  0  0  0  0  0
   -1.1589   -4.7117    1.3461 H   0  0  0  0  0  0  0  0  0  0  0  0
   -2.7063   -4.6849    0.4164 H   0  0  0  0  0  0  0  0  0  0  0  0
   -2.6621   -4.0875    2.1230 H   0  0  0  0  0  0  0  0  0  0  0  0
   -3.8728   -2.3399   -0.3143 H   0  0  0  0  0  0  0  0  0  0  0  0
   -3.7872   -1.8687    1.4087 H   0  0  0  0  0  0  0  0  0  0  0  0
   -0.6057   -2.1310   -3.2516 H   0  0  0  0  0  0  0  0  0  0  0  0
   -2.3483   -1.7797   -3.5878 H   0  0  0  0  0  0  0  0  0  0  0  0
   -1.8411   -2.4904   -1.9697 H   0  0  0  0  0  0  0  0  0  0  0  0
   -3.1200    1.3232   -1.6931 H   0  0  0  0  0  0  0  0  0  0  0  0
   -3.7056   -0.2632   -2.2462 H   0  0  0  0  0  0  0  0  0  0  0  0
   -4.3794    2.4894   -0.1836 H   0  0  0  0  0  0  0  0  0  0  0  0
   -6.6896    3.3657   -0.0200 H   0  0  0  0  0  0  0  0  0  0  0  0
   -8.6030    1.8115    0.4730 H   0  0  0  0  0  0  0  0  0  0  0  0
   -8.1471   -0.6372    0.7923 H   0  0  0  0  0  0  0  0  0  0  0  0
   -5.8408   -1.5139    0.6303 H   0  0  0  0  0  0  0  0  0  0  0  0
   -3.7956    1.5073    2.3311 H   0  0  0  0  0  0  0  0  0  0  0  0
   -1.5447    2.8077    3.3391 H   0  0  0  0  0  0  0  0  0  0  0  0
    0.4929    1.9094    1.6801 H   0  0  0  0  0  0  0  0  0  0  0  0
  1  5  1  0  0  0  0
  2  8  1  0  0  0  0
  3  4  1  0  0  0  0
  3 17  1  0  0  0  0
  4 15  1  0  0  0  0
  5 19  1  0  0  0  0
  5 21  1  0  0  0  0
  6  1  1  0  0  0  0
  6 23  1  0  0  0  0
  7  2  1  0  0  0  0
  7 26  1  0  0  0  0
  8 18  1  0  0  0  0
  9 10  2  0  0  0  0
  9 14  1  0  0  0  0
 10 11  1  0  0  0  0
 11 31  1  0  0  0  0
 11 12  2  0  0  0  0
 12 32  1  0  0  0  0
 13 12  1  0  0  0  0
 13 33  1  0  0  0  0
 14 13  2  0  0  0  0
 15 34  1  0  0  0  0
 15 16  1  0  0  0  0
 16 35  1  0  0  0  0
 17 36  1  0  0  0  0
 17 16  2  0  0  0  0
 18 14  1  0  0  0  0
 18  6  1  0  0  0  0
 18  4  1  0  0  0  0
 20  5  1  0  0  0  0
 22  6  1  0  0  0  0
 24  7  1  0  0  0  0
 25  7  1  0  0  0  0
 27  8  1  0  0  0  0
 28  8  1  0  0  0  0
 29  9  1  0  0  0  0
 30 10  1  0  0  0  0
M  END
