1,2
 OpenBabel05122313063D

 35 36  0  0  1  0  0  0  0  0999 V2000
    1.5326   -1.3991   -0.6706 S   0  0  0  0  0  1  0  0  0  0  0  0
   -2.3589    0.9707   -0.7590 N   0  0  0  0  0  2  0  0  0  0  0  0
    0.3245    1.3287   -0.6271 N   0  0  0  0  0  0  0  0  0  0  0  0
    1.5889    1.2454   -0.1628 N   0  0  0  0  0  0  0  0  0  0  0  0
    1.9531    2.0082    0.4232 H   0  0  0  0  0  0  0  0  0  0  0  0
    3.6219    0.1483    0.0323 N   0  0  0  0  0  0  0  0  0  0  0  0
   -0.0405    3.1674    0.8300 N   0  0  0  0  0  0  0  0  0  0  0  0
    0.2620    2.6079    1.6557 H   0  0  0  0  0  0  0  0  0  0  0  0
   -0.8036    3.7765    1.1403 H   0  0  0  0  0  0  0  0  0  0  0  0
   -3.6239    0.8038   -1.1676 C   0  0  0  0  0  3  0  0  0  0  0  0
   -3.9583   -0.2481   -1.2337 H   0  0  0  0  0  0  0  0  0  0  0  0
   -4.4612    1.8915   -1.4662 C   0  0  0  0  0  0  0  0  0  0  0  0
   -5.4956    1.7172   -1.7954 H   0  0  0  0  0  0  0  0  0  0  0  0
   -3.9510    3.1893   -1.3230 C   0  0  0  0  0  0  0  0  0  0  0  0
   -4.5778    4.0656   -1.5471 H   0  0  0  0  0  0  0  0  0  0  0  0
   -2.6254    3.3613   -0.8972 C   0  0  0  0  0  0  0  0  0  0  0  0
   -2.1896    4.3669   -0.7980 H   0  0  0  0  0  0  0  0  0  0  0  0
   -1.8522    2.2169   -0.6334 C   0  0  0  0  0  0  0  0  0  0  0  0
   -0.4441    2.2666   -0.1534 C   0  0  0  0  0  0  0  0  0  0  0  0
    2.2896    0.0649   -0.2465 C   0  0  1  0  0  3  0  0  0  0  0  0
    4.4142    1.3779   -0.0847 C   0  0  0  0  0  0  0  0  0  0  0  0
    4.9226    1.5672    0.8879 H   0  0  0  0  0  0  0  0  0  0  0  0
    3.7541    2.2400   -0.2896 H   0  0  0  0  0  0  0  0  0  0  0  0
    5.4529    1.2437   -1.2107 C   0  0  0  0  0  0  0  0  0  0  0  0
    6.0743    2.1629   -1.2360 H   0  0  0  0  0  0  0  0  0  0  0  0
    4.9110    1.1915   -2.1798 H   0  0  0  0  0  0  0  0  0  0  0  0
    6.3222   -0.0066   -1.0343 C   0  0  0  0  0  0  0  0  0  0  0  0
    7.0115   -0.1203   -1.8959 H   0  0  0  0  0  0  0  0  0  0  0  0
    6.9637    0.1169   -0.1327 H   0  0  0  0  0  0  0  0  0  0  0  0
    5.4479   -1.2553   -0.8645 C   0  0  0  0  0  0  0  0  0  0  0  0
    4.8914   -1.4705   -1.8019 H   0  0  0  0  0  0  0  0  0  0  0  0
    6.0678   -2.1480   -0.6424 H   0  0  0  0  0  0  0  0  0  0  0  0
    4.4347   -1.0500    0.2639 C   0  0  0  0  0  0  0  0  0  0  0  0
    4.9662   -0.9074    1.2328 H   0  0  0  0  0  0  0  0  0  0  0  0
    3.7473   -1.9099    0.3637 H   0  0  0  0  0  0  0  0  0  0  0  0
  2 18  1  0  0  0  0
  3  4  1  0  0  0  0
  3 19  2  0  0  0  0
  4  5  1  0  0  0  0
  6 33  1  0  0  0  0
  7  9  1  0  0  0  0
  7  8  1  0  0  0  0
 10  2  1  0  0  0  0
 11 10  1  0  0  0  0
 12 14  2  0  0  0  0
 12 10  1  0  0  0  0
 13 12  1  0  0  0  0
 14 16  1  0  0  0  0
 15 14  1  0  0  0  0
 16 17  1  0  0  0  0
 16 18  2  0  0  0  0
 18 19  1  0  0  0  0
 19  7  1  0  0  0  0
 20  1  1  1  0  0  0
 20  4  1  0  0  0  0
 20  6  1  0  0  0  0
 21  6  1  0  0  0  0
 21 22  1  0  0  0  0
 23 21  1  0  0  0  0
 24 27  1  0  0  0  0
 24 21  1  0  0  0  0
 25 24  1  0  0  0  0
 26 24  1  0  0  0  0
 27 30  1  0  0  0  0
 27 29  1  0  0  0  0
 28 27  1  0  0  0  0
 30 32  1  0  0  0  0
 30 33  1  0  0  0  0
 31 30  1  0  0  0  0
 33 35  1  0  0  0  0
 33 34  1  0  0  0  0
M  END
