1,5
 OpenBabel05122313063D

 53 57  0  0  0  0  0  0  0  0999 V2000
    2.1101   -1.4119   -1.2615 S   0  0  0  0  0  1  0  0  0  0  0  0
   -3.1021   -1.1184    1.9290 S   0  0  0  0  0  1  0  0  0  0  0  0
    0.4670   -1.4340   -0.0337 P   0  0  0  0  0  4  0  0  0  0  0  0
   -2.9365    0.3878    0.6554 P   0  0  0  0  0  4  0  0  0  0  0  0
    0.9261    1.2271    0.0276 N   0  0  0  0  0  0  0  0  0  0  0  0
    0.3741    2.4433    0.1642 N   0  0  0  0  0  2  0  0  0  0  0  0
   -0.9220    2.3146    0.3831 N   0  0  0  0  0  0  0  0  0  0  0  0
   -1.2384    0.9876    0.3997 C   0  0  0  0  0  0  0  0  0  0  0  0
   -0.0482    0.2737    0.1604 C   0  0  0  0  0  0  0  0  0  0  0  0
   -0.8296   -2.4384   -0.8047 C   0  0  0  0  0  0  0  0  0  0  0  0
   -1.5429   -3.3952   -0.0585 C   0  0  0  0  0  0  0  0  0  0  0  0
   -1.3321   -3.5308    1.0111 H   0  0  0  0  0  0  0  0  0  0  0  0
   -2.5305   -4.1622   -0.6928 C   0  0  0  0  0  0  0  0  0  0  0  0
   -3.0936   -4.9080   -0.1127 H   0  0  0  0  0  0  0  0  0  0  0  0
   -2.8058   -3.9701   -2.0549 C   0  0  0  0  0  0  0  0  0  0  0  0
   -3.5863   -4.5708   -2.5461 H   0  0  0  0  0  0  0  0  0  0  0  0
   -2.0930   -3.0124   -2.7957 C   0  0  0  0  0  0  0  0  0  0  0  0
   -2.3155   -2.8570   -3.8610 H   0  0  0  0  0  0  0  0  0  0  0  0
   -1.1020   -2.2437   -2.1750 C   0  0  0  0  0  0  0  0  0  0  0  0
   -0.5277   -1.5005   -2.7479 H   0  0  0  0  0  0  0  0  0  0  0  0
    0.8768   -2.1026    1.6085 C   0  0  0  0  0  0  0  0  0  0  0  0
    0.2966   -1.5619    2.7724 C   0  0  0  0  0  0  0  0  0  0  0  0
   -0.4570   -0.7637    2.7004 H   0  0  0  0  0  0  0  0  0  0  0  0
    0.6689   -2.0750    4.0236 C   0  0  0  0  0  0  0  0  0  0  0  0
    0.2204   -1.6538    4.9355 H   0  0  0  0  0  0  0  0  0  0  0  0
    1.6080   -3.1144    4.1116 C   0  0  0  0  0  0  0  0  0  0  0  0
    1.9018   -3.5061    5.0973 H   0  0  0  0  0  0  0  0  0  0  0  0
    2.1813   -3.6517    2.9465 C   0  0  0  0  0  0  0  0  0  0  0  0
    2.9229   -4.4614    3.0167 H   0  0  0  0  0  0  0  0  0  0  0  0
    1.8212   -3.1458    1.6911 C   0  0  0  0  0  0  0  0  0  0  0  0
    2.2896   -3.5318    0.7724 H   0  0  0  0  0  0  0  0  0  0  0  0
   -3.5266   -0.0093   -1.0415 C   0  0  0  0  0  0  0  0  0  0  0  0
   -4.5644   -0.9469   -1.1881 C   0  0  0  0  0  0  0  0  0  0  0  0
   -4.9458   -1.4628   -0.2926 H   0  0  0  0  0  0  0  0  0  0  0  0
   -5.0770   -1.2242   -2.4632 C   0  0  0  0  0  0  0  0  0  0  0  0
   -5.8891   -1.9583   -2.5774 H   0  0  0  0  0  0  0  0  0  0  0  0
   -4.5507   -0.5750   -3.5922 C   0  0  0  0  0  0  0  0  0  0  0  0
   -4.9540   -0.7957   -4.5923 H   0  0  0  0  0  0  0  0  0  0  0  0
   -3.5044    0.3504   -3.4468 C   0  0  0  0  0  0  0  0  0  0  0  0
   -3.0836    0.8533   -4.3308 H   0  0  0  0  0  0  0  0  0  0  0  0
   -2.9891    0.6357   -2.1733 C   0  0  0  0  0  0  0  0  0  0  0  0
   -2.1630    1.3548   -2.0599 H   0  0  0  0  0  0  0  0  0  0  0  0
   -3.8878    1.8761    1.1576 C   0  0  0  0  0  0  0  0  0  0  0  0
   -3.9601    3.0137    0.3292 C   0  0  0  0  0  0  0  0  0  0  0  0
   -3.4229    3.0426   -0.6284 H   0  0  0  0  0  0  0  0  0  0  0  0
   -4.7132    4.1213    0.7409 C   0  0  0  0  0  0  0  0  0  0  0  0
   -4.7663    5.0125    0.0976 H   0  0  0  0  0  0  0  0  0  0  0  0
   -5.3931    4.0973    1.9703 C   0  0  0  0  0  0  0  0  0  0  0  0
   -5.9836    4.9703    2.2880 H   0  0  0  0  0  0  0  0  0  0  0  0
   -5.3198    2.9623    2.7923 C   0  0  0  0  0  0  0  0  0  0  0  0
   -5.8518    2.9408    3.7556 H   0  0  0  0  0  0  0  0  0  0  0  0
   -4.5669    1.8497    2.3876 C   0  0  0  0  0  0  0  0  0  0  0  0
   -4.4946    0.9443    3.0118 H   0  0  0  0  0  0  0  0  0  0  0  0
  1  3  1  0  0  0  0
  3  9  1  0  0  0  0
  3 21  1  0  0  0  0
  4 43  1  0  0  0  0
  4  2  1  0  0  0  0
  5  9  2  0  0  0  0
  5  6  1  0  0  0  0
  6  7  1  0  0  0  0
  7  8  2  0  0  0  0
  8  4  1  0  0  0  0
  9  8  1  0  0  0  0
 10 11  1  0  0  0  0
 10  3  1  0  0  0  0
 11 12  1  0  0  0  0
 13 14  1  0  0  0  0
 13 11  2  0  0  0  0
 15 13  1  0  0  0  0
 16 15  1  0  0  0  0
 17 19  1  0  0  0  0
 17 15  2  0  0  0  0
 18 17  1  0  0  0  0
 19 10  2  0  0  0  0
 20 19  1  0  0  0  0
 21 30  2  0  0  0  0
 21 22  1  0  0  0  0
 22 24  2  0  0  0  0
 23 22  1  0  0  0  0
 24 26  1  0  0  0  0
 24 25  1  0  0  0  0
 26 27  1  0  0  0  0
 28 29  1  0  0  0  0
 28 26  2  0  0  0  0
 30 28  1  0  0  0  0
 31 30  1  0  0  0  0
 32  4  1  0  0  0  0
 33 32  1  0  0  0  0
 33 34  1  0  0  0  0
 35 33  2  0  0  0  0
 36 35  1  0  0  0  0
 37 39  2  0  0  0  0
 37 35  1  0  0  0  0
 38 37  1  0  0  0  0
 39 41  1  0  0  0  0
 40 39  1  0  0  0  0
 41 42  1  0  0  0  0
 41 32  2  0  0  0  0
 43 52  1  0  0  0  0
 44 46  1  0  0  0  0
 44 43  2  0  0  0  0
 45 44  1  0  0  0  0
 46 48  2  0  0  0  0
 47 46  1  0  0  0  0
 48 49  1  0  0  0  0
 48 50  1  0  0  0  0
 50 51  1  0  0  0  0
 52 50  2  0  0  0  0
 52 53  1  0  0  0  0
M  END
