1,2
 OpenBabel05122313063D

 22 23  0  0  0  0  0  0  0  0999 V2000
   -2.0939    0.7025   -0.0669 S   0  0  0  0  0  1  0  0  0  0  0  0
   -0.6861   -1.7400   -0.1152 N   0  0  0  0  0  2  0  0  0  0  0  0
   -2.0300   -1.9490   -0.1220 N   0  0  0  0  0  0  0  0  0  0  0  0
   -4.1786   -1.1475   -0.0266 N   0  0  0  0  0  0  0  0  0  0  0  0
   -0.1168   -2.9620   -0.1818 C   0  0  0  0  0  3  0  0  0  0  0  0
   -1.1134   -3.9609   -0.2289 C   0  0  0  0  0  0  0  0  0  0  0  0
   -2.3255   -3.2777   -0.1887 C   0  0  0  0  0  0  0  0  0  0  0  0
   -2.9326   -0.8354   -0.0742 C   0  0  0  0  0  0  0  0  0  0  0  0
   -5.2668   -0.2808   -0.0257 C   0  0  0  0  0  0  0  0  0  0  0  0
   -6.4718   -0.7769    0.5329 C   0  0  0  0  0  0  0  0  0  0  0  0
   -7.6249    0.0135    0.5706 C   0  0  0  0  0  0  0  0  0  0  0  0
   -7.6128    1.3092    0.0260 C   0  0  0  0  0  0  0  0  0  0  0  0
   -6.4331    1.8019   -0.5554 C   0  0  0  0  0  0  0  0  0  0  0  0
   -5.2676    1.0253   -0.5791 C   0  0  0  0  0  0  0  0  0  0  0  0
    0.9747   -3.0579   -0.1953 H   0  0  0  0  0  0  0  0  0  0  0  0
   -0.9646   -5.0433   -0.2883 H   0  0  0  0  0  0  0  0  0  0  0  0
   -3.3749   -3.5873   -0.2017 H   0  0  0  0  0  0  0  0  0  0  0  0
   -6.4664   -1.7985    0.9404 H   0  0  0  0  0  0  0  0  0  0  0  0
   -8.5458   -0.3873    1.0213 H   0  0  0  0  0  0  0  0  0  0  0  0
   -8.5215    1.9294    0.0479 H   0  0  0  0  0  0  0  0  0  0  0  0
   -6.4180    2.8101   -0.9978 H   0  0  0  0  0  0  0  0  0  0  0  0
   -4.3532    1.4171   -1.0463 H   0  0  0  0  0  0  0  0  0  0  0  0
  3  2  1  0  0  0  0
  3  8  1  0  0  0  0
  4  9  1  0  0  0  0
  5  2  1  0  0  0  0
  6  7  2  0  0  0  0
  6  5  1  0  0  0  0
  7  3  1  0  0  0  0
  8  1  1  0  0  0  0
  8  4  2  0  0  0  0
  9 10  1  0  0  0  0
 10 11  2  0  0  0  0
 10 18  1  0  0  0  0
 11 19  1  0  0  0  0
 12 20  1  0  0  0  0
 12 11  1  0  0  0  0
 13 12  2  0  0  0  0
 14 13  1  0  0  0  0
 14  9  2  0  0  0  0
 15  5  1  0  0  0  0
 16  6  1  0  0  0  0
 17  7  1  0  0  0  0
 21 13  1  0  0  0  0
 22 14  1  0  0  0  0
M  END
