1,2
 OpenBabel05122313063D

 43 45  0  0  1  0  0  0  0  0999 V2000
   -2.7732   -0.4572   -1.6128 S   0  0  0  0  0  0  0  0  0  0  0  0
    0.1603   -0.3576   -0.5610 N   0  0  0  0  0  2  0  0  0  0  0  0
    0.4284   -1.7544   -0.8954 C   0  0  1  0  0  0  0  0  0  0  0  0
    1.2436   -1.7839   -1.6553 H   0  0  0  0  0  0  0  0  0  0  0  0
    0.9383   -2.4198    0.3948 C   0  0  0  0  0  0  0  0  0  0  0  0
    0.3245   -3.2887    0.9936 O   0  0  0  0  0  0  0  0  0  0  0  0
    2.1532   -1.9167    0.8567 N   0  0  0  0  0  0  0  0  0  0  0  0
    2.5972   -2.4328    2.1520 C   0  0  0  0  0  0  0  0  0  0  0  0
    1.6998   -2.5493    2.7872 H   0  0  0  0  0  0  0  0  0  0  0  0
    3.2878   -1.7047    2.6130 H   0  0  0  0  0  0  0  0  0  0  0  0
    3.0932   -3.4225    2.0670 H   0  0  0  0  0  0  0  0  0  0  0  0
    3.0145   -1.0980    0.0993 C   0  0  0  0  0  0  0  0  0  0  0  0
    2.5562    0.0473   -0.6273 C   0  0  0  0  0  0  0  0  0  0  0  0
    1.1583    0.4990   -0.5372 C   0  0  2  0  0  3  0  0  0  0  0  0
   -0.8039   -2.4818   -1.4427 C   0  0  0  0  0  0  0  0  0  0  0  0
   -0.4499   -3.4049   -1.9472 H   0  0  0  0  0  0  0  0  0  0  0  0
   -1.4264   -2.8223   -0.5897 H   0  0  0  0  0  0  0  0  0  0  0  0
   -1.6218   -1.6468   -2.4274 C   0  0  0  0  0  0  0  0  0  0  0  0
   -2.2515   -2.2820   -3.0815 H   0  0  0  0  0  0  0  0  0  0  0  0
   -0.9791   -1.0268   -3.0855 H   0  0  0  0  0  0  0  0  0  0  0  0
   -4.1014   -1.5948   -1.1031 C   0  0  0  0  0  0  0  0  0  0  0  0
   -4.7208   -1.8496   -1.9842 H   0  0  0  0  0  0  0  0  0  0  0  0
   -4.6719   -1.0325   -0.3383 H   0  0  0  0  0  0  0  0  0  0  0  0
   -3.6707   -2.4982   -0.6318 H   0  0  0  0  0  0  0  0  0  0  0  0
    0.8806    1.9445   -0.3853 C   0  0  0  0  0  0  0  0  0  0  0  0
   -0.2165    2.5346   -1.0529 C   0  0  0  0  0  0  0  0  0  0  0  0
   -0.8473    1.9193   -1.7099 H   0  0  0  0  0  0  0  0  0  0  0  0
   -0.4950    3.8959   -0.8880 C   0  0  0  0  0  0  0  0  0  0  0  0
   -1.3514    4.3438   -1.4132 H   0  0  0  0  0  0  0  0  0  0  0  0
    0.3099    4.6824   -0.0475 C   0  0  0  0  0  0  0  0  0  0  0  0
    0.0806    5.7495    0.0932 H   0  0  0  0  0  0  0  0  0  0  0  0
    1.4045    4.1051    0.6162 C   0  0  0  0  0  0  0  0  0  0  0  0
    2.0282    4.7152    1.2864 H   0  0  0  0  0  0  0  0  0  0  0  0
    1.6945    2.7466    0.4437 C   0  0  0  0  0  0  0  0  0  0  0  0
    2.5301    2.2843    0.9880 H   0  0  0  0  0  0  0  0  0  0  0  0
    4.4010   -1.3844    0.1088 C   0  0  0  0  0  0  0  0  0  0  0  0
    4.7613   -2.2563    0.6717 H   0  0  0  0  0  0  0  0  0  0  0  0
    5.3075   -0.5950   -0.6011 C   0  0  0  0  0  0  0  0  0  0  0  0
    6.3770   -0.8535   -0.5849 H   0  0  0  0  0  0  0  0  0  0  0  0
    4.8583    0.5148   -1.3407 C   0  0  0  0  0  0  0  0  0  0  0  0
    5.5691    1.1327   -1.9080 H   0  0  0  0  0  0  0  0  0  0  0  0
    3.5005    0.8317   -1.3357 C   0  0  0  0  0  0  0  0  0  0  0  0
    3.1347    1.7124   -1.8832 H   0  0  0  0  0  0  0  0  0  0  0  0
  1 21  1  0  0  0  0
  2 14  1  0  0  0  0
  3  4  1  6  0  0  0
  3  2  1  0  0  0  0
  3  5  1  0  0  0  0
  5  7  1  0  0  0  0
  5  6  2  0  0  0  0
  7  8  1  0  0  0  0
  8 10  1  0  0  0  0
  8  9  1  0  0  0  0
 11  8  1  0  0  0  0
 12 36  1  0  0  0  0
 12  7  1  0  0  0  0
 13 14  1  0  0  0  0
 13 12  2  0  0  0  0
 14 25  1  1  0  0  0
 15  3  1  0  0  0  0
 15 17  1  0  0  0  0
 16 15  1  0  0  0  0
 18  1  1  0  0  0  0
 18 15  1  0  0  0  0
 19 18  1  0  0  0  0
 20 18  1  0  0  0  0
 21 24  1  0  0  0  0
 21 23  1  0  0  0  0
 22 21  1  0  0  0  0
 25 34  1  0  0  0  0
 26 28  1  0  0  0  0
 26 25  2  0  0  0  0
 27 26  1  0  0  0  0
 28 30  2  0  0  0  0
 29 28  1  0  0  0  0
 30 31  1  0  0  0  0
 30 32  1  0  0  0  0
 32 33  1  0  0  0  0
 34 32  2  0  0  0  0
 34 35  1  0  0  0  0
 36 37  1  0  0  0  0
 38 39  1  0  0  0  0
 38 36  2  0  0  0  0
 40 42  2  0  0  0  0
 40 38  1  0  0  0  0
 41 40  1  0  0  0  0
 42 13  1  0  0  0  0
 43 42  1  0  0  0  0
M  END
