1,18
 OpenBabel05122313063D

 61 64  0  0  1  0  0  0  0  0999 V2000
    0.1333   -1.1145    0.0660 S   0  0  0  0  0  1  0  0  0  0  0  0
   -2.1030    2.9837    0.1445 O   0  0  0  0  0  0  0  0  0  0  0  0
    0.6715    1.6068   -0.7042 N   0  0  0  0  0  0  0  0  0  0  0  0
    0.9552    0.3711   -0.1197 C   0  0  2  0  0  3  0  0  0  0  0  0
    2.2475    0.4412    0.3630 N   0  0  0  0  0  0  0  0  0  0  0  0
    2.7891    1.6931    0.1164 C   0  0  0  0  0  0  0  0  0  0  0  0
    1.7956    2.4568   -0.5498 C   0  0  0  0  0  0  0  0  0  0  0  0
    2.0938    3.7909   -0.8908 C   0  0  0  0  0  0  0  0  0  0  0  0
    1.3781    4.4489   -1.3864 H   0  0  0  0  0  0  0  0  0  0  0  0
    3.3663    4.2943   -0.5715 C   0  0  0  0  0  0  0  0  0  0  0  0
    3.5973    5.3358   -0.8388 H   0  0  0  0  0  0  0  0  0  0  0  0
    4.3411    3.5109    0.0735 C   0  0  0  0  0  0  0  0  0  0  0  0
    5.3270    3.9409    0.3023 H   0  0  0  0  0  0  0  0  0  0  0  0
    4.0610    2.1857    0.4313 C   0  0  0  0  0  0  0  0  0  0  0  0
    4.7927    1.5454    0.9428 H   0  0  0  0  0  0  0  0  0  0  0  0
   -0.6084    1.8797   -1.4472 C   0  0  0  0  0  0  0  0  0  0  0  0
   -1.7451    1.8142   -0.4254 C   0  0  2  0  0  3  0  0  0  0  0  0
   -2.4060    0.7724   -0.0469 N   0  0  0  0  0  2  0  0  0  0  0  0
   -3.4125    1.1676    0.9637 C   0  0  2  0  0  0  0  0  0  0  0  0
   -4.3937    0.8445    0.5578 H   0  0  0  0  0  0  0  0  0  0  0  0
   -3.2552    2.7064    0.9954 C   0  0  0  0  0  0  0  0  0  0  0  0
   -4.1215    3.2470    0.5658 H   0  0  0  0  0  0  0  0  0  0  0  0
   -3.0356    3.1148    2.0013 H   0  0  0  0  0  0  0  0  0  0  0  0
   -0.7624    0.8717   -2.6021 C   0  0  0  0  0  0  0  0  0  0  0  0
   -0.6952   -0.1824   -2.2764 H   0  0  0  0  0  0  0  0  0  0  0  0
    0.0321    1.0722   -3.3477 H   0  0  0  0  0  0  0  0  0  0  0  0
   -1.7492    1.0039   -3.0843 H   0  0  0  0  0  0  0  0  0  0  0  0
   -0.6398    3.2842   -2.0715 C   0  0  0  0  0  0  0  0  0  0  0  0
    0.1681    3.3967   -2.8158 H   0  0  0  0  0  0  0  0  0  0  0  0
   -0.5933    4.0881   -1.3190 H   0  0  0  0  0  0  0  0  0  0  0  0
   -1.6046    3.3840   -2.6031 H   0  0  0  0  0  0  0  0  0  0  0  0
   -3.1952    0.4379    2.3073 C   0  0  0  0  0  0  0  0  0  0  0  0
   -3.2759   -0.6420    2.0521 H   0  0  0  0  0  0  0  0  0  0  0  0
   -4.3288    0.7853    3.2782 C   0  0  0  0  0  0  0  0  0  0  0  0
   -4.2353    0.1967    4.2123 H   0  0  0  0  0  0  0  0  0  0  0  0
   -5.3218    0.5639    2.8372 H   0  0  0  0  0  0  0  0  0  0  0  0
   -4.3134    1.8587    3.5675 H   0  0  0  0  0  0  0  0  0  0  0  0
   -1.8099    0.6852    2.9104 C   0  0  0  0  0  0  0  0  0  0  0  0
   -1.6974    0.1219    3.8582 H   0  0  0  0  0  0  0  0  0  0  0  0
   -1.6388    1.7577    3.1472 H   0  0  0  0  0  0  0  0  0  0  0  0
   -1.0084    0.3399    2.2269 H   0  0  0  0  0  0  0  0  0  0  0  0
    2.9252   -0.6315    1.0352 C   0  0  0  0  0  0  0  0  0  0  0  0
    3.4732   -1.7024    0.2928 C   0  0  0  0  0  0  0  0  0  0  0  0
    4.1375   -2.7057    1.0276 C   0  0  0  0  0  0  0  0  0  0  0  0
    4.5729   -3.5593    0.4864 H   0  0  0  0  0  0  0  0  0  0  0  0
    4.2533   -2.6472    2.4224 C   0  0  0  0  0  0  0  0  0  0  0  0
    4.7769   -3.4520    2.9600 H   0  0  0  0  0  0  0  0  0  0  0  0
    3.6995   -1.5714    3.1343 C   0  0  0  0  0  0  0  0  0  0  0  0
    3.7805   -1.5234    4.2300 H   0  0  0  0  0  0  0  0  0  0  0  0
    3.0294   -0.5616    2.4353 C   0  0  0  0  0  0  0  0  0  0  0  0
    2.5700    0.2874    2.9623 H   0  0  0  0  0  0  0  0  0  0  0  0
    3.3833   -1.7789   -1.2243 C   0  0  0  0  0  0  0  0  0  0  0  0
    2.7324   -0.9480   -1.5646 H   0  0  0  0  0  0  0  0  0  0  0  0
    2.7319   -3.0883   -1.6997 C   0  0  0  0  0  0  0  0  0  0  0  0
    1.7154   -3.2142   -1.2767 H   0  0  0  0  0  0  0  0  0  0  0  0
    3.3412   -3.9723   -1.4195 H   0  0  0  0  0  0  0  0  0  0  0  0
    2.6409   -3.0874   -2.8047 H   0  0  0  0  0  0  0  0  0  0  0  0
    4.7709   -1.5620   -1.8554 C   0  0  0  0  0  0  0  0  0  0  0  0
    5.2125   -0.5938   -1.5430 H   0  0  0  0  0  0  0  0  0  0  0  0
    4.6994   -1.5673   -2.9620 H   0  0  0  0  0  0  0  0  0  0  0  0
    5.4767   -2.3660   -1.5606 H   0  0  0  0  0  0  0  0  0  0  0  0
  2 21  1  0  0  0  0
  3  7  1  0  0  0  0
  3  4  1  0  0  0  0
  4  1  1  6  0  0  0
  4  5  1  0  0  0  0
  5 42  1  0  0  0  0
  6  5  1  0  0  0  0
  6 14  1  0  0  0  0
  7  6  2  0  0  0  0
  8 10  2  0  0  0  0
  8  7  1  0  0  0  0
  9  8  1  0  0  0  0
 10 12  1  0  0  0  0
 11 10  1  0  0  0  0
 12 13  1  0  0  0  0
 12 14  2  0  0  0  0
 14 15  1  0  0  0  0
 16  3  1  0  0  0  0
 17 16  1  6  0  0  0
 17 18  1  0  0  0  0
 17  2  1  0  0  0  0
 18 19  1  0  0  0  0
 19 20  1  6  0  0  0
 19 21  1  0  0  0  0
 19 32  1  0  0  0  0
 21 23  1  0  0  0  0
 22 21  1  0  0  0  0
 24 25  1  0  0  0  0
 24 16  1  0  0  0  0
 26 24  1  0  0  0  0
 27 24  1  0  0  0  0
 28 16  1  0  0  0  0
 28 30  1  0  0  0  0
 29 28  1  0  0  0  0
 31 28  1  0  0  0  0
 32 38  1  0  0  0  0
 32 34  1  0  0  0  0
 33 32  1  0  0  0  0
 34 37  1  0  0  0  0
 34 35  1  0  0  0  0
 36 34  1  0  0  0  0
 38 40  1  0  0  0  0
 38 39  1  0  0  0  0
 41 38  1  0  0  0  0
 42 50  1  0  0  0  0
 43 44  1  0  0  0  0
 43 42  2  0  0  0  0
 44 46  2  0  0  0  0
 45 44  1  0  0  0  0
 46 47  1  0  0  0  0
 46 48  1  0  0  0  0
 48 49  1  0  0  0  0
 50 51  1  0  0  0  0
 50 48  2  0  0  0  0
 52 43  1  0  0  0  0
 53 52  1  0  0  0  0
 54 56  1  0  0  0  0
 54 55  1  0  0  0  0
 54 52  1  0  0  0  0
 57 54  1  0  0  0  0
 58 61  1  0  0  0  0
 58 59  1  0  0  0  0
 58 52  1  0  0  0  0
 60 58  1  0  0  0  0
M  END
