1,2
 OpenBabel05122313063D

 30 30  0  0  0  0  0  0  0  0999 V2000
   -1.7580   -1.4952   -0.3438 S   0  0  0  0  0  1  0  0  0  0  0  0
   -1.4714    1.3445   -0.1600 N   0  0  0  0  0  2  0  0  0  0  0  0
   -2.7552    1.0036   -0.0881 N   0  0  0  0  0  0  0  0  0  0  0  0
   -4.3367   -0.6883   -0.0740 N   0  0  0  0  0  0  0  0  0  0  0  0
   -3.0243   -0.3013   -0.1416 C   0  0  0  0  0  0  0  0  0  0  0  0
   -4.7144   -2.0951   -0.1168 C   0  0  0  0  0  0  0  0  0  0  0  0
   -5.6330   -2.2142    0.4961 H   0  0  0  0  0  0  0  0  0  0  0  0
   -3.9130   -2.6803    0.3830 H   0  0  0  0  0  0  0  0  0  0  0  0
   -4.9388   -2.6249   -1.5353 C   0  0  0  0  0  0  0  0  0  0  0  0
   -5.2381   -3.6921   -1.5077 H   0  0  0  0  0  0  0  0  0  0  0  0
   -4.0069   -2.5431   -2.1288 H   0  0  0  0  0  0  0  0  0  0  0  0
   -5.7368   -2.0578   -2.0565 H   0  0  0  0  0  0  0  0  0  0  0  0
   -5.3934    0.3176    0.0422 C   0  0  0  0  0  0  0  0  0  0  0  0
   -6.3018   -0.0984   -0.4419 H   0  0  0  0  0  0  0  0  0  0  0  0
   -5.0826    1.2083   -0.5373 H   0  0  0  0  0  0  0  0  0  0  0  0
   -5.6836    0.7124    1.4908 C   0  0  0  0  0  0  0  0  0  0  0  0
   -6.5030    1.4581    1.5347 H   0  0  0  0  0  0  0  0  0  0  0  0
   -4.7814    1.1610    1.9516 H   0  0  0  0  0  0  0  0  0  0  0  0
   -5.9859   -0.1639    2.1000 H   0  0  0  0  0  0  0  0  0  0  0  0
   -1.2714    2.7404   -0.2433 C   0  0  0  0  0  0  0  0  0  0  0  0
   -0.2690    3.2663   -1.0902 C   0  0  0  0  0  0  0  0  0  0  0  0
    0.3163    2.5775   -1.7125 H   0  0  0  0  0  0  0  0  0  0  0  0
   -0.0681    4.6519   -1.1619 C   0  0  0  0  0  0  0  0  0  0  0  0
    0.7119    5.0485   -1.8296 H   0  0  0  0  0  0  0  0  0  0  0  0
   -0.8628    5.5278   -0.4079 C   0  0  0  0  0  0  0  0  0  0  0  0
   -0.7001    6.6146   -0.4659 H   0  0  0  0  0  0  0  0  0  0  0  0
   -1.8791    5.0067    0.4153 C   0  0  0  0  0  0  0  0  0  0  0  0
   -2.5075    5.6868    1.0108 H   0  0  0  0  0  0  0  0  0  0  0  0
   -2.0930    3.6283    0.4933 C   0  0  0  0  0  0  0  0  0  0  0  0
   -2.8779    3.2057    1.1347 H   0  0  0  0  0  0  0  0  0  0  0  0
  1  5  1  0  0  0  0
  2  3  1  0  0  0  0
  4 13  1  0  0  0  0
  5  3  2  0  0  0  0
  5  4  1  0  0  0  0
  6  4  1  0  0  0  0
  6  8  1  0  0  0  0
  6  7  1  0  0  0  0
  9 10  1  0  0  0  0
  9  6  1  0  0  0  0
 11  9  1  0  0  0  0
 12  9  1  0  0  0  0
 13 16  1  0  0  0  0
 14 13  1  0  0  0  0
 15 13  1  0  0  0  0
 16 17  1  0  0  0  0
 16 18  1  0  0  0  0
 16 19  1  0  0  0  0
 20  2  1  0  0  0  0
 20 29  1  0  0  0  0
 21 20  2  0  0  0  0
 22 21  1  0  0  0  0
 23 21  1  0  0  0  0
 23 25  2  0  0  0  0
 24 23  1  0  0  0  0
 25 27  1  0  0  0  0
 26 25  1  0  0  0  0
 27 29  2  0  0  0  0
 27 28  1  0  0  0  0
 29 30  1  0  0  0  0
M  END
