1,2
 OpenBabel05122313063D

 24 24  0  0  1  0  0  0  0  0999 V2000
    1.5762   -1.8453    0.0700 S   0  0  0  0  0  1  0  0  0  0  0  0
    1.3357    0.8827   -0.5793 N   0  0  0  0  0  2  0  0  0  0  0  0
    2.6520    0.5732   -0.3848 N   0  0  0  0  0  0  0  0  0  0  0  0
    4.1773   -1.0183    0.3664 N   0  0  0  0  0  0  0  0  0  0  0  0
    3.4759    1.5483   -0.9014 C   0  0  2  0  0  3  0  0  0  0  0  0
    2.6259    2.5051   -1.4572 C   0  0  0  0  0  0  0  0  0  0  0  0
    1.2988    2.0503   -1.2571 C   0  0  0  0  0  0  0  0  0  0  0  0
    0.0253    2.6619   -1.7445 C   0  0  0  0  0  0  0  0  0  0  0  0
    4.9631    1.4983   -0.8661 C   0  0  0  0  0  0  0  0  0  0  0  0
    2.9597   -0.7509    0.0694 C   0  0  0  0  0  0  0  0  0  0  0  0
    4.5181   -2.3654    0.7762 C   0  0  0  0  0  0  0  0  0  0  0  0
    5.9792   -2.4616    1.2024 C   0  0  0  0  0  0  0  0  0  0  0  0
    2.9364    3.4171   -1.9780 H   0  0  0  0  0  0  0  0  0  0  0  0
   -0.3323    3.4800   -1.0858 H   0  0  0  0  0  0  0  0  0  0  0  0
    0.1786    3.0947   -2.7523 H   0  0  0  0  0  0  0  0  0  0  0  0
   -0.7748    1.9019   -1.8006 H   0  0  0  0  0  0  0  0  0  0  0  0
    5.3718    2.3878   -1.3815 H   0  0  0  0  0  0  0  0  0  0  0  0
    5.3421    1.4625    0.1735 H   0  0  0  0  0  0  0  0  0  0  0  0
    5.3438    0.5765   -1.3485 H   0  0  0  0  0  0  0  0  0  0  0  0
    3.8436   -2.6954    1.6039 H   0  0  0  0  0  0  0  0  0  0  0  0
    4.3106   -3.0783   -0.0585 H   0  0  0  0  0  0  0  0  0  0  0  0
    6.6525   -2.1751    0.3692 H   0  0  0  0  0  0  0  0  0  0  0  0
    6.1859   -1.7792    2.0515 H   0  0  0  0  0  0  0  0  0  0  0  0
    6.2348   -3.4935    1.5160 H   0  0  0  0  0  0  0  0  0  0  0  0
  2  3  1  0  0  0  0
  3 10  1  0  0  0  0
  4 11  1  0  0  0  0
  5  9  1  6  0  0  0
  5  3  1  0  0  0  0
  6  7  2  0  0  0  0
  6  5  1  0  0  0  0
  7  2  1  0  0  0  0
  8  7  1  0  0  0  0
  8 14  1  0  0  0  0
  9 18  1  0  0  0  0
 10  1  1  0  0  0  0
 10  4  2  0  0  0  0
 11 12  1  0  0  0  0
 11 20  1  0  0  0  0
 12 24  1  0  0  0  0
 12 23  1  0  0  0  0
 13  6  1  0  0  0  0
 15  8  1  0  0  0  0
 16  8  1  0  0  0  0
 17  9  1  0  0  0  0
 19  9  1  0  0  0  0
 21 11  1  0  0  0  0
 22 12  1  0  0  0  0
M  END
