1,7
 OpenBabel05122313063D

 21 21  0  0  0  0  0  0  0  0999 V2000
   -0.5540    2.3823    0.2388 S   0  0  0  0  0  1  0  0  0  0  0  0
    1.1840    2.6156    0.6311 C   0  0  0  0  0  0  0  0  0  0  0  0
    1.4913    3.8437    1.1271 N   0  0  0  0  0  0  0  0  0  0  0  0
    2.4785    4.0815    1.2313 H   0  0  0  0  0  0  0  0  0  0  0  0
    0.8237    4.6080    1.0399 H   0  0  0  0  0  0  0  0  0  0  0  0
    2.1191    1.7144    0.4917 N   0  0  0  0  0  0  0  0  0  0  0  0
    1.7351    0.4959    0.0333 N   0  0  0  0  0  2  0  0  0  0  0  0
    2.6480   -0.4406   -0.1705 C   0  0  0  0  0  3  0  0  0  0  0  0
    2.2148   -1.3802   -0.5506 H   0  0  0  0  0  0  0  0  0  0  0  0
    4.0514   -0.3710    0.0372 C   0  0  0  0  0  0  0  0  0  0  0  0
    4.8578   -1.4802   -0.2651 N   0  0  0  0  0  0  0  0  0  0  0  0
    4.3970   -2.7461   -0.8103 C   0  0  0  0  0  0  0  0  0  0  0  0
    3.9167   -2.6049   -1.7992 H   0  0  0  0  0  0  0  0  0  0  0  0
    3.6708   -3.2346   -0.1303 H   0  0  0  0  0  0  0  0  0  0  0  0
    5.2647   -3.4180   -0.9355 H   0  0  0  0  0  0  0  0  0  0  0  0
    6.1550   -1.1724    0.0159 C   0  0  0  0  0  0  0  0  0  0  0  0
    6.9522   -1.9053   -0.1555 H   0  0  0  0  0  0  0  0  0  0  0  0
    6.2231    0.1395    0.5092 C   0  0  0  0  0  0  0  0  0  0  0  0
    7.1376    0.6567    0.8187 H   0  0  0  0  0  0  0  0  0  0  0  0
    4.9115    0.6458    0.5232 C   0  0  0  0  0  0  0  0  0  0  0  0
    4.5672    1.6321    0.8414 H   0  0  0  0  0  0  0  0  0  0  0  0
  1  2  1  0  0  0  0
  2  3  1  0  0  0  0
  3  4  1  0  0  0  0
  5  3  1  0  0  0  0
  6  2  2  0  0  0  0
  7  6  1  0  0  0  0
  8  7  1  0  0  0  0
  8 10  1  0  0  0  0
  9  8  1  0  0  0  0
 10 20  2  0  0  0  0
 11 16  1  0  0  0  0
 11 10  1  0  0  0  0
 12 11  1  0  0  0  0
 12 14  1  0  0  0  0
 13 12  1  0  0  0  0
 15 12  1  0  0  0  0
 16 18  2  0  0  0  0
 17 16  1  0  0  0  0
 18 20  1  0  0  0  0
 18 19  1  0  0  0  0
 20 21  1  0  0  0  0
M  END
