1,5
 OpenBabel05122313063D

 16 16  0  0  1  0  0  0  0  0999 V2000
   -1.6896    0.6835   -1.8941 S   0  0  0  0  0  1  0  0  0  0  0  0
   -5.3814   -3.7659    0.4946 F   0  0  0  0  0  0  0  0  0  0  0  0
   -6.1419   -1.9883   -0.5196 F   0  0  0  0  0  0  0  0  0  0  0  0
   -5.0123   -3.4819   -1.6382 F   0  0  0  0  0  0  0  0  0  0  0  0
   -1.5722   -0.6637    0.3618 N   0  0  0  0  0  2  0  0  0  0  0  0
   -3.4514   -1.1776   -1.0386 N   0  0  0  0  0  0  0  0  0  0  0  0
   -2.3177   -0.4828   -0.7925 C   0  0  2  0  0  3  0  0  0  0  0  0
   -3.8038   -2.0948   -0.1384 C   0  0  0  0  0  0  0  0  0  0  0  0
   -3.0761   -2.3852    1.0253 C   0  0  0  0  0  0  0  0  0  0  0  0
   -3.3937   -3.1639    1.7293 H   0  0  0  0  0  0  0  0  0  0  0  0
   -1.9170   -1.6121    1.2485 C   0  0  0  0  0  0  0  0  0  0  0  0
   -5.0979   -2.8401   -0.4565 C   0  0  0  0  0  0  0  0  0  0  0  0
   -1.0284   -1.8267    2.4378 C   0  0  0  0  0  0  0  0  0  0  0  0
   -0.3270   -0.9789    2.5715 H   0  0  0  0  0  0  0  0  0  0  0  0
   -0.4129   -2.7382    2.2813 H   0  0  0  0  0  0  0  0  0  0  0  0
   -1.6213   -1.9921    3.3587 H   0  0  0  0  0  0  0  0  0  0  0  0
  3 12  1  0  0  0  0
  4 12  1  0  0  0  0
  5 11  1  0  0  0  0
  6  7  1  0  0  0  0
  6  8  2  0  0  0  0
  7  1  1  6  0  0  0
  7  5  1  0  0  0  0
  8  9  1  0  0  0  0
  9 11  2  0  0  0  0
  9 10  1  0  0  0  0
 11 13  1  0  0  0  0
 12  8  1  0  0  0  0
 12  2  1  0  0  0  0
 13 14  1  0  0  0  0
 13 16  1  0  0  0  0
 15 13  1  0  0  0  0
M  END
