1,4
 OpenBabel05122313063D

 23 23  0  0  1  0  0  0  0  0999 V2000
   -1.4544    1.1010   -0.1696 S   0  0  0  0  0  1  0  0  0  0  0  0
   -4.0596    2.5574   -0.0436 S   0  0  0  0  0  0  0  0  0  0  0  0
   -3.5664   -1.4904   -0.1968 C   0  0  1  0  0  3  0  0  0  0  0  0
   -2.3525   -1.9906   -0.3932 N   0  0  0  0  0  2  0  0  0  0  0  0
   -3.9674   -0.1249   -0.0141 C   0  0  0  0  0  0  0  0  0  0  0  0
   -3.1689    1.0167   -0.0735 C   0  0  0  0  0  0  0  0  0  0  0  0
   -2.7533    3.8165   -0.0591 C   0  0  0  0  0  0  0  0  0  0  0  0
   -2.2836   -3.4195   -0.7207 C   0  0  0  0  0  0  0  0  0  0  0  0
   -4.8264   -2.3588   -0.1937 C   0  0  0  0  0  0  0  0  0  0  0  0
   -5.8876   -1.4828    0.4849 C   0  0  0  0  0  0  0  0  0  0  0  0
   -5.4806   -0.0491    0.1166 C   0  0  0  0  0  0  0  0  0  0  0  0
   -1.3746   -3.6241   -1.3104 H   0  0  0  0  0  0  0  0  0  0  0  0
   -3.1511   -3.7551   -1.3241 H   0  0  0  0  0  0  0  0  0  0  0  0
   -2.2399   -4.0436    0.1998 H   0  0  0  0  0  0  0  0  0  0  0  0
   -4.6756   -3.3306    0.3161 H   0  0  0  0  0  0  0  0  0  0  0  0
   -5.1137   -2.5923   -1.2453 H   0  0  0  0  0  0  0  0  0  0  0  0
   -5.8192   -1.6147    1.5849 H   0  0  0  0  0  0  0  0  0  0  0  0
   -6.9216   -1.7400    0.1823 H   0  0  0  0  0  0  0  0  0  0  0  0
   -5.9412    0.2663   -0.8493 H   0  0  0  0  0  0  0  0  0  0  0  0
   -5.8039    0.6988    0.8711 H   0  0  0  0  0  0  0  0  0  0  0  0
   -3.2885    4.7850   -0.0183 H   0  0  0  0  0  0  0  0  0  0  0  0
   -2.1469    3.7566   -0.9830 H   0  0  0  0  0  0  0  0  0  0  0  0
   -2.0832    3.7141    0.8162 H   0  0  0  0  0  0  0  0  0  0  0  0
  1  6  1  0  0  0  0
  3  4  1  6  0  0  0
  3  9  1  0  0  0  0
  3  5  1  0  0  0  0
  5 11  1  0  0  0  0
  6  2  1  0  0  0  0
  6  5  2  0  0  0  0
  7  2  1  0  0  0  0
  7 21  1  0  0  0  0
  7 23  1  0  0  0  0
  8  4  1  0  0  0  0
  8 14  1  0  0  0  0
  9 15  1  0  0  0  0
  9 10  1  0  0  0  0
 10 17  1  0  0  0  0
 11 10  1  0  0  0  0
 11 20  1  0  0  0  0
 12  8  1  0  0  0  0
 13  8  1  0  0  0  0
 16  9  1  0  0  0  0
 18 10  1  0  0  0  0
 19 11  1  0  0  0  0
 22  7  1  0  0  0  0
M  END
