1,2
 OpenBabel05122313063D

 23 23  0  0  1  0  0  0  0  0999 V2000
    0.7654   -2.2650   -0.0373 S   0  0  0  0  0  1  0  0  0  0  0  0
    2.0458   -0.0619   -0.0695 N   0  0  0  0  0  2  0  0  0  0  0  0
    3.4804   -1.9664   -0.2476 N   0  0  0  0  0  0  0  0  0  0  0  0
    4.2942   -1.3489   -0.3004 H   0  0  0  0  0  0  0  0  0  0  0  0
    2.7642    2.1332   -0.8152 C   0  0  0  0  0  0  0  0  0  0  0  0
    1.8289    2.2033   -1.3903 H   0  0  0  0  0  0  0  0  0  0  0  0
    3.6972    3.1760   -0.8181 C   0  0  0  0  0  0  0  0  0  0  0  0
    3.4944    4.0791   -1.4140 H   0  0  0  0  0  0  0  0  0  0  0  0
    3.0028    0.9606   -0.0611 C   0  0  0  0  0  0  0  0  0  0  0  0
    4.1874    0.8794    0.7140 C   0  0  0  0  0  0  0  0  0  0  0  0
    4.3534    0.0101    1.3681 H   0  0  0  0  0  0  0  0  0  0  0  0
    5.1185    1.9282    0.6975 C   0  0  0  0  0  0  0  0  0  0  0  0
    6.0293    1.8503    1.3112 H   0  0  0  0  0  0  0  0  0  0  0  0
    3.8694   -4.0269    1.1083 C   0  0  0  0  0  0  0  0  0  0  0  0
    4.0141   -5.1233    1.0282 H   0  0  0  0  0  0  0  0  0  0  0  0
    2.9754   -3.8413    1.7361 H   0  0  0  0  0  0  0  0  0  0  0  0
    4.7540   -3.6002    1.6236 H   0  0  0  0  0  0  0  0  0  0  0  0
    3.6781   -3.4083   -0.2778 C   0  0  0  0  0  0  0  0  0  0  0  0
    4.5527   -3.6144   -0.9289 H   0  0  0  0  0  0  0  0  0  0  0  0
    2.7923   -3.8551   -0.7771 H   0  0  0  0  0  0  0  0  0  0  0  0
    4.8841    3.0790   -0.0708 C   0  0  0  0  0  0  0  0  0  0  0  0
    5.6146    3.9015   -0.0766 H   0  0  0  0  0  0  0  0  0  0  0  0
    2.2718   -1.3729   -0.1061 C   0  0  2  0  0  3  0  0  0  0  0  0
  2  9  1  0  0  0  0
  3 23  1  0  0  0  0
  4  3  1  0  0  0  0
  5  9  1  0  0  0  0
  6  5  1  0  0  0  0
  7  5  2  0  0  0  0
  7 21  1  0  0  0  0
  8  7  1  0  0  0  0
  9 10  2  0  0  0  0
 10 11  1  0  0  0  0
 12 10  1  0  0  0  0
 12 13  1  0  0  0  0
 14 17  1  0  0  0  0
 14 16  1  0  0  0  0
 15 14  1  0  0  0  0
 18  3  1  0  0  0  0
 18 14  1  0  0  0  0
 19 18  1  0  0  0  0
 20 18  1  0  0  0  0
 21 12  2  0  0  0  0
 22 21  1  0  0  0  0
 23  2  1  0  0  0  0
 23  1  1  6  0  0  0
M  END
