1,4
 OpenBabel05122313063D

 28 29  0  0  0  0  0  0  0  0999 V2000
    1.4775    2.8902   -0.5013 S   0  0  0  0  0  1  0  0  0  0  0  0
    2.7687    1.7584   -0.8590 C   0  0  0  0  0  0  0  0  0  0  0  0
    2.4373    0.3893   -1.0527 C   0  0  0  0  0  0  0  0  0  0  0  0
    1.0484    0.1048   -1.0002 N   0  0  0  0  0  2  0  0  0  0  0  0
    0.5508   -0.9207   -1.6528 C   0  0  0  0  0  3  0  0  0  0  0  0
   -0.8669   -1.1829   -1.8460 C   0  0  0  0  0  0  0  0  0  0  0  0
   -1.3260   -2.5200   -2.0540 C   0  0  0  0  0  0  0  0  0  0  0  0
   -2.7018   -2.7288   -2.2444 C   0  0  0  0  0  0  0  0  0  0  0  0
   -3.6142   -1.6590   -2.2615 C   0  0  0  0  0  0  0  0  0  0  0  0
   -3.1546   -0.3446   -2.0989 C   0  0  0  0  0  0  0  0  0  0  0  0
   -1.7919   -0.1103   -1.8946 C   0  0  0  0  0  0  0  0  0  0  0  0
   -1.4187    0.9226   -1.7849 H   0  0  0  0  0  0  0  0  0  0  0  0
   -3.8564    0.5020   -2.1157 H   0  0  0  0  0  0  0  0  0  0  0  0
   -4.6866   -1.8565   -2.4094 H   0  0  0  0  0  0  0  0  0  0  0  0
   -3.0681   -3.7587   -2.3808 H   0  0  0  0  0  0  0  0  0  0  0  0
   -0.3689   -3.6855   -2.0448 C   0  0  0  0  0  0  0  0  0  0  0  0
    0.3580   -3.6263   -2.8834 H   0  0  0  0  0  0  0  0  0  0  0  0
    0.2294   -3.7264   -1.1110 H   0  0  0  0  0  0  0  0  0  0  0  0
   -0.9094   -4.6458   -2.1456 H   0  0  0  0  0  0  0  0  0  0  0  0
    1.2621   -1.5985   -2.1598 H   0  0  0  0  0  0  0  0  0  0  0  0
    3.4449   -0.5666   -1.2860 C   0  0  0  0  0  0  0  0  0  0  0  0
    4.7843   -0.1686   -1.3410 C   0  0  0  0  0  0  0  0  0  0  0  0
    5.1188    1.1931   -1.1860 C   0  0  0  0  0  0  0  0  0  0  0  0
    4.1247    2.1483   -0.9521 C   0  0  0  0  0  0  0  0  0  0  0  0
    4.3849    3.2086   -0.8150 H   0  0  0  0  0  0  0  0  0  0  0  0
    6.1728    1.5074   -1.2321 H   0  0  0  0  0  0  0  0  0  0  0  0
    5.5734   -0.9204   -1.4889 H   0  0  0  0  0  0  0  0  0  0  0  0
    3.1864   -1.6324   -1.3696 H   0  0  0  0  0  0  0  0  0  0  0  0
  2  1  1  0  0  0  0
  3  4  1  0  0  0  0
  3  2  2  0  0  0  0
  5  4  1  0  0  0  0
  6  5  1  0  0  0  0
  7 16  1  0  0  0  0
  7  6  2  0  0  0  0
  8  7  1  0  0  0  0
  9  8  2  0  0  0  0
  9 10  1  0  0  0  0
 10 11  2  0  0  0  0
 11  6  1  0  0  0  0
 11 12  1  0  0  0  0
 13 10  1  0  0  0  0
 14  9  1  0  0  0  0
 15  8  1  0  0  0  0
 16 18  1  0  0  0  0
 17 16  1  0  0  0  0
 19 16  1  0  0  0  0
 20  5  1  0  0  0  0
 21  3  1  0  0  0  0
 22 21  2  0  0  0  0
 22 23  1  0  0  0  0
 23 24  2  0  0  0  0
 24  2  1  0  0  0  0
 24 25  1  0  0  0  0
 26 23  1  0  0  0  0
 27 22  1  0  0  0  0
 28 21  1  0  0  0  0
M  END
