1,4
 OpenBabel05122313063D

 21 21  0  0  1  0  0  0  0  0999 V2000
   -1.6664   -0.2287   -0.0193 N   0  0  0  0  0  2  0  0  0  0  0  0
   -2.3752    0.7088   -0.7230 C   0  0  2  0  0  3  0  0  0  0  0  0
   -1.5982    1.8796   -1.2581 C   0  0  0  0  0  0  0  0  0  0  0  0
   -0.2144    2.3099   -0.1089 S   0  0  0  0  0  0  0  0  0  0  0  0
   -1.1570    2.7921    1.3837 C   0  0  0  0  0  0  0  0  0  0  0  0
   -3.7599    0.6161   -0.8950 C   0  0  0  0  0  0  0  0  0  0  0  0
   -4.4456   -0.4652   -0.3260 C   0  0  0  0  0  0  0  0  0  0  0  0
   -3.7269   -1.3676    0.4604 C   0  0  0  0  0  0  0  0  0  0  0  0
   -2.3364   -1.2235    0.6389 C   0  0  0  0  0  0  0  0  0  0  0  0
   -1.5925   -2.1088    1.5833 C   0  0  0  0  0  0  0  0  0  0  0  0
   -2.2486    2.7589   -1.4388 H   0  0  0  0  0  0  0  0  0  0  0  0
   -1.0698    1.6258   -2.2010 H   0  0  0  0  0  0  0  0  0  0  0  0
   -0.4017    2.9232    2.1808 H   0  0  0  0  0  0  0  0  0  0  0  0
   -1.8706    1.9995    1.6761 H   0  0  0  0  0  0  0  0  0  0  0  0
   -1.6780    3.7515    1.1976 H   0  0  0  0  0  0  0  0  0  0  0  0
   -4.2867    1.3904   -1.4704 H   0  0  0  0  0  0  0  0  0  0  0  0
   -5.5309   -0.5782   -0.4636 H   0  0  0  0  0  0  0  0  0  0  0  0
   -4.2357   -2.1931    0.9776 H   0  0  0  0  0  0  0  0  0  0  0  0
   -0.8841   -2.7624    1.0304 H   0  0  0  0  0  0  0  0  0  0  0  0
   -2.2941   -2.7205    2.1793 H   0  0  0  0  0  0  0  0  0  0  0  0
   -0.9565   -1.4989    2.2569 H   0  0  0  0  0  0  0  0  0  0  0  0
  1  9  1  0  0  0  0
  2  3  1  1  0  0  0
  2  1  1  0  0  0  0
  3  4  1  0  0  0  0
  4  5  1  0  0  0  0
  5 14  1  0  0  0  0
  5 13  1  0  0  0  0
  6  2  1  0  0  0  0
  6  7  2  0  0  0  0
  7  8  1  0  0  0  0
  8  9  2  0  0  0  0
  8 18  1  0  0  0  0
  9 10  1  0  0  0  0
 10 20  1  0  0  0  0
 10 21  1  0  0  0  0
 11  3  1  0  0  0  0
 12  3  1  0  0  0  0
 15  5  1  0  0  0  0
 16  6  1  0  0  0  0
 17  7  1  0  0  0  0
 19 10  1  0  0  0  0
M  END
