1,2
 OpenBabel05122313063D

 26 26  0  0  1  0  0  0  0  0999 V2000
   -3.0516    0.1518    0.8464 S   0  0  0  0  0  1  0  0  0  0  0  0
   -0.3212    1.4693    0.5123 N   0  0  0  0  0  2  0  0  0  0  0  0
    2.9377    2.2491   -1.5735 O   0  0  0  0  0  0  0  0  0  0  0  0
    3.6694    2.1403   -2.2091 H   0  0  0  0  0  0  0  0  0  0  0  0
   -1.4159    2.2827    0.6192 N   0  0  0  0  0  0  0  0  0  0  0  0
   -1.3006    3.2567    0.3196 H   0  0  0  0  0  0  0  0  0  0  0  0
   -3.6566    2.7451    0.8638 N   0  0  0  0  0  0  0  0  0  0  0  0
   -3.4470    3.6927    1.1816 H   0  0  0  0  0  0  0  0  0  0  0  0
   -4.6129    2.4121    0.9813 H   0  0  0  0  0  0  0  0  0  0  0  0
    2.0473    1.2375    0.3920 C   0  0  0  0  0  0  0  0  0  0  0  0
    4.2093    0.5028   -0.5034 C   0  0  0  0  0  0  0  0  0  0  0  0
    5.0011    0.5554   -1.2659 H   0  0  0  0  0  0  0  0  0  0  0  0
   -2.6837    1.7987    0.7687 C   0  0  2  0  0  3  0  0  0  0  0  0
    5.4061   -1.2606    0.5064 O   0  0  0  0  0  0  0  0  0  0  0  0
    5.3233   -1.9088    1.2310 H   0  0  0  0  0  0  0  0  0  0  0  0
    3.0912    1.3431   -0.5708 C   0  0  0  0  0  0  0  0  0  0  0  0
    0.8384    2.0623    0.3197 C   0  0  2  0  0  3  0  0  0  0  0  0
    3.2970   -0.5699    1.4895 C   0  0  0  0  0  0  0  0  0  0  0  0
    3.3700   -1.3174    2.2945 H   0  0  0  0  0  0  0  0  0  0  0  0
    2.1896    0.2715    1.4150 C   0  0  0  0  0  0  0  0  0  0  0  0
    1.4005    0.1937    2.1743 H   0  0  0  0  0  0  0  0  0  0  0  0
    4.3106   -0.4651    0.5129 C   0  0  0  0  0  0  0  0  0  0  0  0
    0.9264    3.5469    0.0825 C   0  0  0  0  0  0  0  0  0  0  0  0
    0.3137    3.8376   -0.8002 H   0  0  0  0  0  0  0  0  0  0  0  0
    1.9640    3.8547   -0.1213 H   0  0  0  0  0  0  0  0  0  0  0  0
    0.5641    4.1124    0.9697 H   0  0  0  0  0  0  0  0  0  0  0  0
  2  5  1  0  0  0  0
  3 16  1  0  0  0  0
  4  3  1  0  0  0  0
  5 13  1  0  0  0  0
  6  5  1  0  0  0  0
  7  9  1  0  0  0  0
  7  8  1  0  0  0  0
 10 20  1  0  0  0  0
 11 22  2  0  0  0  0
 12 11  1  0  0  0  0
 13  1  1  1  0  0  0
 13  7  1  0  0  0  0
 14 22  1  0  0  0  0
 14 15  1  0  0  0  0
 16 11  1  0  0  0  0
 16 10  2  0  0  0  0
 17 10  1  0  0  0  0
 17  2  1  1  0  0  0
 18 19  1  0  0  0  0
 20 18  2  0  0  0  0
 20 21  1  0  0  0  0
 22 18  1  0  0  0  0
 23 17  1  0  0  0  0
 23 26  1  0  0  0  0
 24 23  1  0  0  0  0
 25 23  1  0  0  0  0
M  END
