1,14
 OpenBabel05122313063D

 23 23  0  0  1  0  0  0  0  0999 V2000
    1.7734    1.7601    1.3834 S   0  0  0  0  0  1  0  0  0  0  0  0
   -3.0689    1.7564   -0.6588 O   0  0  0  0  0  0  0  0  0  0  0  0
   -3.6867    2.4263   -1.0066 H   0  0  0  0  0  0  0  0  0  0  0  0
   -0.2534    3.4849    1.5440 N   0  0  0  0  0  0  0  0  0  0  0  0
   -1.2214    3.6541    1.8220 H   0  0  0  0  0  0  0  0  0  0  0  0
    0.4533    4.1128    1.9264 H   0  0  0  0  0  0  0  0  0  0  0  0
    0.1595    2.2269    1.2214 C   0  0  2  0  0  3  0  0  0  0  0  0
   -7.2051   -0.6515   -0.0169 O   0  0  0  0  0  0  0  0  0  0  0  0
   -7.5778    0.2154   -0.2641 H   0  0  0  0  0  0  0  0  0  0  0  0
   -0.8271    1.3993    0.7675 N   0  0  0  0  0  0  0  0  0  0  0  0
   -1.6902    1.8191    0.3736 H   0  0  0  0  0  0  0  0  0  0  0  0
   -1.5399   -0.6920    0.0722 C   0  0  0  0  0  3  0  0  0  0  0  0
   -1.1855   -1.7087   -0.1543 H   0  0  0  0  0  0  0  0  0  0  0  0
   -0.5547    0.1159    0.3849 N   0  0  0  0  0  2  0  0  0  0  0  0
   -2.9942   -0.5360    0.0462 C   0  0  0  0  0  0  0  0  0  0  0  0
   -3.7476    0.6189   -0.3000 C   0  0  0  0  0  0  0  0  0  0  0  0
   -5.1504    0.6009   -0.3155 C   0  0  0  0  0  0  0  0  0  0  0  0
   -5.7002    1.5169   -0.5910 H   0  0  0  0  0  0  0  0  0  0  0  0
   -5.8547   -0.5799   -0.0119 C   0  0  0  0  0  0  0  0  0  0  0  0
   -5.1342   -1.7527    0.3016 C   0  0  0  0  0  0  0  0  0  0  0  0
   -5.6875   -2.6755    0.5220 H   0  0  0  0  0  0  0  0  0  0  0  0
   -3.7453   -1.7162    0.3103 C   0  0  0  0  0  0  0  0  0  0  0  0
   -3.1881   -2.6364    0.5425 H   0  0  0  0  0  0  0  0  0  0  0  0
  2 16  1  0  0  0  0
  3  2  1  0  0  0  0
  4  5  1  0  0  0  0
  4  6  1  0  0  0  0
  7  1  1  1  0  0  0
  7  4  1  0  0  0  0
  8 19  1  0  0  0  0
  9  8  1  0  0  0  0
 10  7  1  0  0  0  0
 11 10  1  0  0  0  0
 12 14  1  0  0  0  0
 13 12  1  0  0  0  0
 14 10  1  0  0  0  0
 15 12  1  0  0  0  0
 15 22  1  0  0  0  0
 16 15  2  0  0  0  0
 17 16  1  0  0  0  0
 17 19  2  0  0  0  0
 18 17  1  0  0  0  0
 19 20  1  0  0  0  0
 20 22  2  0  0  0  0
 20 21  1  0  0  0  0
 22 23  1  0  0  0  0
M  END
