2,6
 OpenBabel05122313063D

 46 48  0  0  0  0  0  0  0  0999 V2000
   -1.1343    0.0221    0.0061 P   0  0  0  0  0  4  0  0  0  0  0  0
    0.2857    0.8184   -0.1780 N   0  0  0  0  0  2  0  0  0  0  0  0
    0.3800    2.0893   -0.8890 C   0  0  0  0  0  0  0  0  0  0  0  0
   -0.5917    2.6347   -0.9026 H   0  0  0  0  0  0  0  0  0  0  0  0
    0.6740    1.9447   -1.9563 H   0  0  0  0  0  0  0  0  0  0  0  0
    2.9861    2.0336    0.0827 S   0  0  0  0  0  0  0  0  0  0  0  0
   -1.0592   -0.9934    1.5073 C   0  0  0  0  0  0  0  0  0  0  0  0
   -1.8306   -2.8530    2.8621 C   0  0  0  0  0  0  0  0  0  0  0  0
   -2.4518   -3.7539    2.9766 H   0  0  0  0  0  0  0  0  0  0  0  0
   -0.2136   -0.5742    2.5537 C   0  0  0  0  0  0  0  0  0  0  0  0
    0.4441    0.2946    2.4031 H   0  0  0  0  0  0  0  0  0  0  0  0
    1.4148    2.9669   -0.1882 C   0  0  0  0  0  0  0  0  0  0  0  0
    1.0696    3.2284    0.8321 H   0  0  0  0  0  0  0  0  0  0  0  0
    1.6428    3.9008   -0.7404 H   0  0  0  0  0  0  0  0  0  0  0  0
   -1.8681   -2.1343    1.6596 C   0  0  0  0  0  0  0  0  0  0  0  0
   -2.5006   -2.4826    0.8306 H   0  0  0  0  0  0  0  0  0  0  0  0
   -0.1818   -1.3014    3.7510 C   0  0  0  0  0  0  0  0  0  0  0  0
    0.4937   -0.9857    4.5600 H   0  0  0  0  0  0  0  0  0  0  0  0
   -2.6975    1.7333    1.6067 C   0  0  0  0  0  0  0  0  0  0  0  0
   -2.1731    1.2732    2.4577 H   0  0  0  0  0  0  0  0  0  0  0  0
   -1.7578   -0.9332   -1.4235 C   0  0  0  0  0  0  0  0  0  0  0  0
    3.8032    2.2081   -1.5403 C   0  0  0  0  0  0  0  0  0  0  0  0
    3.0988    1.9822   -2.3627 H   0  0  0  0  0  0  0  0  0  0  0  0
    4.6013    1.4407   -1.5198 H   0  0  0  0  0  0  0  0  0  0  0  0
    4.2264    3.2268   -1.6376 H   0  0  0  0  0  0  0  0  0  0  0  0
   -3.1270    1.8645   -0.7893 C   0  0  0  0  0  0  0  0  0  0  0  0
   -2.9420    1.5070   -1.8136 H   0  0  0  0  0  0  0  0  0  0  0  0
   -2.4452    1.2745    0.2971 C   0  0  0  0  0  0  0  0  0  0  0  0
   -3.1113   -1.3251   -1.5021 C   0  0  0  0  0  0  0  0  0  0  0  0
   -3.8141   -1.0634   -0.6960 H   0  0  0  0  0  0  0  0  0  0  0  0
   -0.8715   -1.2357   -2.4759 C   0  0  0  0  0  0  0  0  0  0  0  0
    0.1866   -0.9490   -2.3911 H   0  0  0  0  0  0  0  0  0  0  0  0
   -0.9900   -2.4386    3.9078 C   0  0  0  0  0  0  0  0  0  0  0  0
   -0.9554   -3.0131    4.8458 H   0  0  0  0  0  0  0  0  0  0  0  0
   -1.3415   -1.9341   -3.5977 C   0  0  0  0  0  0  0  0  0  0  0  0
   -0.6471   -2.1743   -4.4166 H   0  0  0  0  0  0  0  0  0  0  0  0
   -4.0495    2.8977   -0.5650 C   0  0  0  0  0  0  0  0  0  0  0  0
   -4.5776    3.3518   -1.4170 H   0  0  0  0  0  0  0  0  0  0  0  0
   -4.3001    3.3468    0.7412 C   0  0  0  0  0  0  0  0  0  0  0  0
   -5.0281    4.1534    0.9159 H   0  0  0  0  0  0  0  0  0  0  0  0
   -3.6241    2.7628    1.8250 C   0  0  0  0  0  0  0  0  0  0  0  0
   -3.8231    3.1078    2.8509 H   0  0  0  0  0  0  0  0  0  0  0  0
   -3.5689   -2.0360   -2.6215 C   0  0  0  0  0  0  0  0  0  0  0  0
   -4.6226   -2.3483   -2.6782 H   0  0  0  0  0  0  0  0  0  0  0  0
   -2.6837   -2.3399   -3.6687 C   0  0  0  0  0  0  0  0  0  0  0  0
   -3.0446   -2.8953   -4.5478 H   0  0  0  0  0  0  0  0  0  0  0  0
  1 28  1  0  0  0  0
  1  7  1  0  0  0  0
  2  1  1  0  0  0  0
  3 12  1  0  0  0  0
  3  2  1  0  0  0  0
  4  3  1  0  0  0  0
  5  3  1  0  0  0  0
  7 15  2  0  0  0  0
  7 10  1  0  0  0  0
  8  9  1  0  0  0  0
  8 33  2  0  0  0  0
 10 17  2  0  0  0  0
 11 10  1  0  0  0  0
 12  6  1  0  0  0  0
 12 13  1  0  0  0  0
 14 12  1  0  0  0  0
 15  8  1  0  0  0  0
 16 15  1  0  0  0  0
 17 33  1  0  0  0  0
 17 18  1  0  0  0  0
 19 41  1  0  0  0  0
 19 20  1  0  0  0  0
 21  1  1  0  0  0  0
 22 24  1  0  0  0  0
 22  6  1  0  0  0  0
 23 22  1  0  0  0  0
 25 22  1  0  0  0  0
 26 37  2  0  0  0  0
 26 28  1  0  0  0  0
 27 26  1  0  0  0  0
 28 19  2  0  0  0  0
 29 21  1  0  0  0  0
 29 30  1  0  0  0  0
 31 32  1  0  0  0  0
 31 21  2  0  0  0  0
 33 34  1  0  0  0  0
 35 31  1  0  0  0  0
 36 35  1  0  0  0  0
 37 39  1  0  0  0  0
 38 37  1  0  0  0  0
 39 40  1  0  0  0  0
 39 41  2  0  0  0  0
 41 42  1  0  0  0  0
 43 29  2  0  0  0  0
 44 43  1  0  0  0  0
 45 35  2  0  0  0  0
 45 43  1  0  0  0  0
 46 45  1  0  0  0  0
M  END
