1,3
 OpenBabel05122313063D

 26 26  0  0  0  0  0  0  0  0999 V2000
    0.2888   -2.1362   -1.1804 S   0  0  0  0  0  1  0  0  0  0  0  0
   -1.8532   -4.1636   -1.5218 S   0  0  0  0  0  0  0  0  0  0  0  0
   -1.8387   -0.3922   -0.5515 N   0  0  0  0  0  2  0  0  0  0  0  0
   -1.4116   -2.5090   -1.1346 C   0  0  0  0  0  0  0  0  0  0  0  0
   -2.6873    0.4616    0.0182 C   0  0  0  0  0  0  0  0  0  0  0  0
   -2.2828    1.4650    0.2208 H   0  0  0  0  0  0  0  0  0  0  0  0
   -2.3410   -1.6321   -0.8364 N   0  0  0  0  0  0  0  0  0  0  0  0
   -6.2416    0.9428    1.3502 C   0  0  0  0  0  0  0  0  0  0  0  0
   -4.8539    1.1127    0.9452 C   0  0  0  0  0  3  0  0  0  0  0  0
   -4.4283    2.1167    1.1235 H   0  0  0  0  0  0  0  0  0  0  0  0
   -4.0392    0.1690    0.3732 C   0  0  0  0  0  0  0  0  0  0  0  0
   -4.3939   -0.8502    0.1608 H   0  0  0  0  0  0  0  0  0  0  0  0
   -6.9322    2.0408    1.9244 C   0  0  0  0  0  0  0  0  0  0  0  0
   -6.3999    2.9969    2.0497 H   0  0  0  0  0  0  0  0  0  0  0  0
   -3.6637   -4.0965   -1.3622 C   0  0  0  0  0  0  0  0  0  0  0  0
   -3.9524   -3.8460   -0.3241 H   0  0  0  0  0  0  0  0  0  0  0  0
   -4.0280   -5.1075   -1.6265 H   0  0  0  0  0  0  0  0  0  0  0  0
   -4.0837   -3.3438   -2.0547 H   0  0  0  0  0  0  0  0  0  0  0  0
   -6.9472   -0.2798    1.1976 C   0  0  0  0  0  0  0  0  0  0  0  0
   -6.4394   -1.1499    0.7560 H   0  0  0  0  0  0  0  0  0  0  0  0
   -8.2671    1.9260    2.3289 C   0  0  0  0  0  0  0  0  0  0  0  0
   -8.7816    2.7923    2.7717 H   0  0  0  0  0  0  0  0  0  0  0  0
   -8.9479    0.7083    2.1695 C   0  0  0  0  0  0  0  0  0  0  0  0
   -9.9975    0.6145    2.4863 H   0  0  0  0  0  0  0  0  0  0  0  0
   -8.2798   -0.3926    1.6018 C   0  0  0  0  0  0  0  0  0  0  0  0
   -8.8086   -1.3495    1.4745 H   0  0  0  0  0  0  0  0  0  0  0  0
  1  4  1  0  0  0  0
  2 15  1  0  0  0  0
  2  4  1  0  0  0  0
  3  5  1  0  0  0  0
  4  7  2  0  0  0  0
  5  6  1  0  0  0  0
  5 11  2  0  0  0  0
  7  3  1  0  0  0  0
  8 13  1  0  0  0  0
  9 10  1  0  0  0  0
  9  8  1  0  0  0  0
 11  9  1  0  0  0  0
 12 11  1  0  0  0  0
 13 14  1  0  0  0  0
 13 21  2  0  0  0  0
 15 16  1  0  0  0  0
 17 15  1  0  0  0  0
 18 15  1  0  0  0  0
 19  8  2  0  0  0  0
 19 25  1  0  0  0  0
 20 19  1  0  0  0  0
 21 22  1  0  0  0  0
 23 21  1  0  0  0  0
 23 24  1  0  0  0  0
 25 23  2  0  0  0  0
 26 25  1  0  0  0  0
M  END
