1,10
 OpenBabel05122313063D

 37 37  0  0  0  0  0  0  0  0999 V2000
    0.5141    2.3398    0.6855 S   0  0  0  0  0  0  0  0  0  0  0  0
    5.4241   -2.4253   -0.4058 N   0  0  0  0  0  0  0  0  0  0  0  0
    1.8861    2.3716   -0.5418 C   0  0  0  0  0  0  0  0  0  0  0  0
    2.0006    3.3987   -0.9469 H   0  0  0  0  0  0  0  0  0  0  0  0
    2.7778    2.1542    0.0779 H   0  0  0  0  0  0  0  0  0  0  0  0
   -5.5318   -2.5711   -0.2535 N   0  0  0  0  0  0  0  0  0  0  0  0
    1.6960    1.3622   -1.6658 C   0  0  0  0  0  0  0  0  0  0  0  0
    2.6386    1.2671   -2.2483 H   0  0  0  0  0  0  0  0  0  0  0  0
    0.9441    1.7553   -2.3755 H   0  0  0  0  0  0  0  0  0  0  0  0
    1.2452   -0.0001   -1.2175 N   0  0  0  0  0  0  0  0  0  0  0  0
    0.1511   -0.5212   -2.1031 C   0  0  0  0  0  0  0  0  0  0  0  0
   -0.0754   -1.5346   -1.7156 H   0  0  0  0  0  0  0  0  0  0  0  0
    0.5401   -0.6250   -3.1434 H   0  0  0  0  0  0  0  0  0  0  0  0
   -1.1422    0.3152   -2.1385 C   0  0  0  0  0  0  0  0  0  0  0  0
   -0.9554    1.3043   -2.6065 H   0  0  0  0  0  0  0  0  0  0  0  0
   -1.8163   -0.2070   -2.8608 H   0  0  0  0  0  0  0  0  0  0  0  0
   -1.7689    0.5073   -0.8457 N   0  0  0  0  0  0  0  0  0  0  0  0
   -2.0967    1.8459   -0.4017 C   0  0  0  0  0  0  0  0  0  0  0  0
   -2.4925    1.7498    0.6311 H   0  0  0  0  0  0  0  0  0  0  0  0
   -2.8987    2.3425   -1.0117 H   0  0  0  0  0  0  0  0  0  0  0  0
   -0.9320    2.8436   -0.3757 C   0  0  0  0  0  0  0  0  0  0  0  0
   -1.2915    3.8067    0.0372 H   0  0  0  0  0  0  0  0  0  0  0  0
   -0.5362    3.0520   -1.3895 H   0  0  0  0  0  0  0  0  0  0  0  0
   -2.6404   -0.5552   -0.3724 C   0  0  0  0  0  0  0  0  0  0  0  0
   -2.7357   -0.4643    0.7296 H   0  0  0  0  0  0  0  0  0  0  0  0
   -2.1425   -1.5328   -0.5338 H   0  0  0  0  0  0  0  0  0  0  0  0
   -4.0444   -0.5480   -1.0382 C   0  0  0  0  0  0  0  0  0  0  0  0
   -4.5763    0.3990   -0.8038 H   0  0  0  0  0  0  0  0  0  0  0  0
   -3.9487   -0.5915   -2.1452 H   0  0  0  0  0  0  0  0  0  0  0  0
   -4.8829   -1.6638   -0.6109 C   0  0  0  0  0  0  0  0  0  0  0  0
    2.3677   -0.9803   -1.2535 C   0  0  0  0  0  0  0  0  0  0  0  0
    2.8099   -0.9908   -2.2757 H   0  0  0  0  0  0  0  0  0  0  0  0
    1.9263   -1.9720   -1.0359 H   0  0  0  0  0  0  0  0  0  0  0  0
    3.4465   -0.7016   -0.1983 C   0  0  0  0  0  0  0  0  0  0  0  0
    3.8770    0.3170   -0.2994 H   0  0  0  0  0  0  0  0  0  0  0  0
    2.9781   -0.7692    0.8104 H   0  0  0  0  0  0  0  0  0  0  0  0
    4.5450   -1.6592   -0.3000 C   0  0  0  0  0  0  0  0  0  0  0  0
  2 37  3  0  0  0  0
  3  5  1  0  0  0  0
  3  1  1  0  0  0  0
  4  3  1  0  0  0  0
  7 10  1  0  0  0  0
  7  3  1  0  0  0  0
  8  7  1  0  0  0  0
  9  7  1  0  0  0  0
 11 12  1  0  0  0  0
 11 10  1  0  0  0  0
 13 11  1  0  0  0  0
 14 11  1  0  0  0  0
 14 17  1  0  0  0  0
 15 14  1  0  0  0  0
 16 14  1  0  0  0  0
 17 18  1  0  0  0  0
 17 24  1  0  0  0  0
 18 21  1  0  0  0  0
 18 19  1  0  0  0  0
 20 18  1  0  0  0  0
 21 22  1  0  0  0  0
 21  1  1  0  0  0  0
 23 21  1  0  0  0  0
 24 25  1  0  0  0  0
 26 24  1  0  0  0  0
 27 28  1  0  0  0  0
 27 30  1  0  0  0  0
 27 24  1  0  0  0  0
 29 27  1  0  0  0  0
 30  6  3  0  0  0  0
 31 10  1  0  0  0  0
 31 33  1  0  0  0  0
 31 34  1  0  0  0  0
 32 31  1  0  0  0  0
 34 36  1  0  0  0  0
 35 34  1  0  0  0  0
 37 34  1  0  0  0  0
M  END
