24,27
 OpenBabel05122313063D

 33 35  0  0  1  0  0  0  0  0999 V2000
    2.4636   -0.2423    0.2201 C   0  0  1  0  0  3  0  0  0  0  0  0
    1.9740   -0.7021   -1.0987 C   0  0  0  0  0  0  0  0  0  0  0  0
    0.7862   -0.5757   -1.4488 O   0  0  0  0  0  0  0  0  0  0  0  0
    2.9829   -1.2564   -2.0275 C   0  0  0  0  0  0  0  0  0  0  0  0
    2.5956   -1.4773   -3.3670 C   0  0  0  0  0  0  0  0  0  0  0  0
    1.5571   -1.2350   -3.6364 H   0  0  0  0  0  0  0  0  0  0  0  0
    3.5073   -1.9744   -4.2973 C   0  0  0  0  0  0  0  0  0  0  0  0
    3.2056   -2.1340   -5.3435 H   0  0  0  0  0  0  0  0  0  0  0  0
    4.8223   -2.2668   -3.8837 C   0  0  0  0  0  0  0  0  0  0  0  0
    5.5545   -2.6559   -4.6078 H   0  0  0  0  0  0  0  0  0  0  0  0
    5.2089   -2.0658   -2.5563 C   0  0  0  0  0  0  0  0  0  0  0  0
    6.2430   -2.2995   -2.2682 H   0  0  0  0  0  0  0  0  0  0  0  0
    4.3020   -1.5595   -1.5932 C   0  0  0  0  0  0  0  0  0  0  0  0
    4.6647   -1.3663   -0.1792 C   0  0  0  0  0  0  0  0  0  0  0  0
    5.8949   -1.8450    0.3263 C   0  0  0  0  0  0  0  0  0  0  0  0
    6.5891   -2.3637   -0.3487 H   0  0  0  0  0  0  0  0  0  0  0  0
    6.2489   -1.7016    1.6691 C   0  0  0  0  0  0  0  0  0  0  0  0
    7.2133   -2.0915    2.0282 H   0  0  0  0  0  0  0  0  0  0  0  0
    5.3574   -1.0709    2.5532 C   0  0  0  0  0  0  0  0  0  0  0  0
    5.6115   -0.9667    3.6190 H   0  0  0  0  0  0  0  0  0  0  0  0
    4.1407   -0.5754    2.0827 C   0  0  0  0  0  0  0  0  0  0  0  0
    3.4511   -0.0748    2.7701 H   0  0  0  0  0  0  0  0  0  0  0  0
    3.7620   -0.7027    0.7197 C   0  0  0  0  0  0  0  0  0  0  0  0
    1.6596    0.6535    0.8296 N   0  0  0  0  0  2  0  0  0  0  0  0
    2.0811    1.3477    1.8660 N   0  0  0  0  0  0  0  0  0  0  0  0
    1.1557    2.1065    2.4957 C   0  0  0  0  0  0  0  0  0  0  0  0
   -0.5371    2.0624    2.1850 S   0  0  0  0  0  1  0  0  0  0  0  0
    1.6593    2.9167    3.4635 N   0  0  0  0  0  0  0  0  0  0  0  0
    2.6784    2.9257    3.5376 H   0  0  0  0  0  0  0  0  0  0  0  0
    0.8626    3.8064    4.2728 C   0  0  0  0  0  0  0  0  0  0  0  0
    1.4946    4.2316    5.0748 H   0  0  0  0  0  0  0  0  0  0  0  0
    0.0140    3.2575    4.7340 H   0  0  0  0  0  0  0  0  0  0  0  0
    0.4270    4.6383    3.6758 H   0  0  0  0  0  0  0  0  0  0  0  0
  1 23  1  0  0  0  0
  1 24  1  6  0  0  0
  2  1  1  0  0  0  0
  3  2  2  0  0  0  0
  4 13  1  0  0  0  0
  4  2  1  0  0  0  0
  5  4  2  0  0  0  0
  6  5  1  0  0  0  0
  7  9  2  0  0  0  0
  7  5  1  0  0  0  0
  8  7  1  0  0  0  0
  9 11  1  0  0  0  0
 10  9  1  0  0  0  0
 11 12  1  0  0  0  0
 11 13  2  0  0  0  0
 13 14  1  0  0  0  0
 14 15  2  0  0  0  0
 14 23  1  0  0  0  0
 15 17  1  0  0  0  0
 16 15  1  0  0  0  0
 17 18  1  0  0  0  0
 17 19  2  0  0  0  0
 19 20  1  0  0  0  0
 21 19  1  0  0  0  0
 21 22  1  0  0  0  0
 23 21  2  0  0  0  0
 24 25  1  0  0  0  0
 25 26  2  0  0  0  0
 26 28  1  0  0  0  0
 27 26  1  0  0  0  0
 28 29  1  0  0  0  0
 28 30  1  0  0  0  0
 30 32  1  0  0  0  0
 30 31  1  0  0  0  0
 33 30  1  0  0  0  0
M  END
