1,2
 OpenBabel05122313063D

 26 26  0  0  0  0  0  0  0  0999 V2000
    1.7869   -1.8256   -1.0937 S   0  0  0  0  0  1  0  0  0  0  0  0
    1.3944    0.3718    0.9333 N   0  0  0  0  0  2  0  0  0  0  0  0
    2.6977    0.2115    0.5738 N   0  0  0  0  0  0  0  0  0  0  0  0
    4.2473   -0.9853   -0.6801 N   0  0  0  0  0  0  0  0  0  0  0  0
    4.3258   -1.7451   -1.3590 H   0  0  0  0  0  0  0  0  0  0  0  0
    5.4608   -0.3827   -0.3216 C   0  0  0  0  0  0  0  0  0  0  0  0
    6.6309   -0.8893   -0.9391 C   0  0  0  0  0  0  0  0  0  0  0  0
    6.5454   -1.7192   -1.6594 H   0  0  0  0  0  0  0  0  0  0  0  0
    7.8855   -0.3484   -0.6433 C   0  0  0  0  0  0  0  0  0  0  0  0
    8.7797   -0.7597   -1.1359 H   0  0  0  0  0  0  0  0  0  0  0  0
    8.0050    0.7094    0.2737 C   0  0  0  0  0  0  0  0  0  0  0  0
    8.9918    1.1356    0.5073 H   0  0  0  0  0  0  0  0  0  0  0  0
    6.8473    1.2117    0.8866 C   0  0  0  0  0  0  0  0  0  0  0  0
    6.9246    2.0395    1.6086 H   0  0  0  0  0  0  0  0  0  0  0  0
    5.5809    0.6812    0.6021 C   0  0  0  0  0  0  0  0  0  0  0  0
    4.6723    1.0652    1.0771 H   0  0  0  0  0  0  0  0  0  0  0  0
    2.9455   -0.7504   -0.2989 C   0  0  0  0  0  0  0  0  0  0  0  0
    1.1261    1.3524    1.7606 C   0  0  0  0  0  3  0  0  0  0  0  0
    2.2089    2.2627    2.2587 C   0  0  0  0  0  0  0  0  0  0  0  0
    2.9548    1.6853    2.8457 H   0  0  0  0  0  0  0  0  0  0  0  0
    1.8009    3.0735    2.8897 H   0  0  0  0  0  0  0  0  0  0  0  0
    2.7724    2.6972    1.4069 H   0  0  0  0  0  0  0  0  0  0  0  0
   -0.2880    1.5607    2.2026 C   0  0  0  0  0  0  0  0  0  0  0  0
   -0.9313    0.6995    1.9367 H   0  0  0  0  0  0  0  0  0  0  0  0
   -0.7141    2.4809    1.7449 H   0  0  0  0  0  0  0  0  0  0  0  0
   -0.3312    1.7075    3.3020 H   0  0  0  0  0  0  0  0  0  0  0  0
  1 17  1  0  0  0  0
  2 18  1  0  0  0  0
  3  2  1  0  0  0  0
  4  6  1  0  0  0  0
  4 17  1  0  0  0  0
  5  4  1  0  0  0  0
  6 15  1  0  0  0  0
  7  9  1  0  0  0  0
  7  6  2  0  0  0  0
  8  7  1  0  0  0  0
  9 11  2  0  0  0  0
 10  9  1  0  0  0  0
 11 12  1  0  0  0  0
 11 13  1  0  0  0  0
 13 14  1  0  0  0  0
 15 13  2  0  0  0  0
 15 16  1  0  0  0  0
 17  3  2  0  0  0  0
 18 23  1  0  0  0  0
 18 19  1  0  0  0  0
 19 20  1  0  0  0  0
 19 21  1  0  0  0  0
 22 19  1  0  0  0  0
 23 26  1  0  0  0  0
 24 23  1  0  0  0  0
 25 23  1  0  0  0  0
M  END
