1,4
 OpenBabel05122313063D

 24 24  0  0  1  0  0  0  0  0999 V2000
   -1.0204    1.8966   -0.4819 S   0  0  0  0  0  1  0  0  0  0  0  0
   -3.8834    2.5117   -0.0814 S   0  0  0  0  0  0  0  0  0  0  0  0
   -2.8712    0.0323    0.0954 N   0  0  0  0  0  2  0  0  0  0  0  0
   -1.7531   -0.7797   -0.0137 N   0  0  0  0  0  2  0  0  0  0  0  0
   -4.4843   -2.1108    0.0812 N   0  0  0  0  0  0  0  0  0  0  0  0
   -4.4774   -1.0879    0.2176 H   0  0  0  0  0  0  0  0  0  0  0  0
   -2.6095    1.3006   -0.1147 C   0  0  1  0  0  3  0  0  0  0  0  0
   -5.4038    1.4645   -0.0082 C   0  0  0  0  0  0  0  0  0  0  0  0
   -5.2683    0.6702   -0.7716 H   0  0  0  0  0  0  0  0  0  0  0  0
   -5.4693    0.9978    0.9957 H   0  0  0  0  0  0  0  0  0  0  0  0
   -6.5996    2.3138   -0.3084 C   0  0  0  0  0  0  0  0  0  0  0  0
   -6.6635    2.7130   -1.3363 H   0  0  0  0  0  0  0  0  0  0  0  0
   -7.5583    2.6134    0.5853 C   0  0  0  0  0  0  0  0  0  0  0  0
   -7.5140    2.2412    1.6225 H   0  0  0  0  0  0  0  0  0  0  0  0
   -8.4231    3.2368    0.3112 H   0  0  0  0  0  0  0  0  0  0  0  0
   -2.0044   -2.0783   -0.1304 C   0  0  0  0  0  3  0  0  0  0  0  0
   -1.1221   -2.7223   -0.2570 H   0  0  0  0  0  0  0  0  0  0  0  0
   -3.2664   -2.7411   -0.1096 C   0  0  0  0  0  0  0  0  0  0  0  0
   -3.5340   -4.1242   -0.2490 C   0  0  0  0  0  0  0  0  0  0  0  0
   -2.7774   -4.9002   -0.4114 H   0  0  0  0  0  0  0  0  0  0  0  0
   -4.9310   -4.2963   -0.1360 C   0  0  0  0  0  0  0  0  0  0  0  0
   -5.4881   -5.2375   -0.1973 H   0  0  0  0  0  0  0  0  0  0  0  0
   -5.4911   -3.0247    0.0717 C   0  0  0  0  0  0  0  0  0  0  0  0
   -6.5358   -2.7237    0.2091 H   0  0  0  0  0  0  0  0  0  0  0  0
  2  8  1  0  0  0  0
  4  3  1  0  0  0  0
  5  6  1  0  0  0  0
  7  1  1  6  0  0  0
  7  2  1  0  0  0  0
  7  3  1  0  0  0  0
  8 10  1  0  0  0  0
  9  8  1  0  0  0  0
 11  8  1  0  0  0  0
 11 13  2  0  0  0  0
 12 11  1  0  0  0  0
 13 14  1  0  0  0  0
 15 13  1  0  0  0  0
 16 18  1  0  0  0  0
 16  4  1  0  0  0  0
 17 16  1  0  0  0  0
 18  5  1  0  0  0  0
 19 21  1  0  0  0  0
 19 18  2  0  0  0  0
 20 19  1  0  0  0  0
 21 23  2  0  0  0  0
 22 21  1  0  0  0  0
 23  5  1  0  0  0  0
 23 24  1  0  0  0  0
M  END
