4,7
 OpenBabel05122313063D

 27 27  0  0  1  0  0  0  0  0999 V2000
   -0.8448    2.2897    2.0303 H   0  0  0  0  0  0  0  0  0  0  0  0
    2.7900   -1.6461   -1.7824 H   0  0  0  0  0  0  0  0  0  0  0  0
   -0.4268    2.9314    1.3986 O   0  0  0  0  0  0  0  0  0  0  0  0
    0.7865    0.0038   -1.3902 S   0  0  0  0  0  1  0  0  0  0  0  0
    3.1950   -1.0772   -1.0347 N   0  0  0  0  0  0  0  0  0  0  0  0
    2.6964    0.6622    0.4581 N   0  0  0  0  0  0  0  0  0  0  0  0
    1.7225    1.5411    0.7896 N   0  0  0  0  0  2  0  0  0  0  0  0
    7.1637   -2.2148   -0.1607 C   0  0  0  0  0  0  0  0  0  0  0  0
    6.4320   -2.8612   -1.1731 C   0  0  0  0  0  0  0  0  0  0  0  0
    5.1211   -2.4598   -1.4368 C   0  0  0  0  0  0  0  0  0  0  0  0
    4.5237   -1.4142   -0.6978 C   0  0  0  0  0  0  0  0  0  0  0  0
    5.2631   -0.7720    0.3175 C   0  0  0  0  0  0  0  0  0  0  0  0
    6.5777   -1.1746    0.5799 C   0  0  0  0  0  0  0  0  0  0  0  0
    2.3630   -0.1234   -0.5501 C   0  0  0  0  0  0  0  0  0  0  0  0
    1.9567    2.4669    1.6877 C   0  0  1  0  0  3  0  0  0  0  0  0
    3.2831    2.6385    2.3464 C   0  0  0  0  0  0  0  0  0  0  0  0
    0.8150    3.4078    1.9656 C   0  0  0  0  0  0  0  0  0  0  0  0
    8.7945   -2.7058    0.1746 Cl  0  0  0  0  0  0  0  0  0  0  0  0
    6.8943   -3.6745   -1.7491 H   0  0  0  0  0  0  0  0  0  0  0  0
    4.5515   -2.9672   -2.2319 H   0  0  0  0  0  0  0  0  0  0  0  0
    4.7994    0.0343    0.8962 H   0  0  0  0  0  0  0  0  0  0  0  0
    7.1593   -0.6798    1.3701 H   0  0  0  0  0  0  0  0  0  0  0  0
    3.2911    3.5055    3.0325 H   0  0  0  0  0  0  0  0  0  0  0  0
    4.0805    2.7665    1.5852 H   0  0  0  0  0  0  0  0  0  0  0  0
    3.5460    1.7239    2.9194 H   0  0  0  0  0  0  0  0  0  0  0  0
    1.0173    4.3959    1.4968 H   0  0  0  0  0  0  0  0  0  0  0  0
    0.6938    3.5887    3.0552 H   0  0  0  0  0  0  0  0  0  0  0  0
  2  5  1  0  0  0  0
  3 17  1  0  0  0  0
  3  1  1  0  0  0  0
  4 14  1  0  0  0  0
  5 11  1  0  0  0  0
  5 14  1  0  0  0  0
  6  7  1  0  0  0  0
  8 18  1  0  0  0  0
  8 13  1  0  0  0  0
  9  8  2  0  0  0  0
 10  9  1  0  0  0  0
 10 11  2  0  0  0  0
 11 12  1  0  0  0  0
 12 13  2  0  0  0  0
 12 21  1  0  0  0  0
 13 22  1  0  0  0  0
 14  6  2  0  0  0  0
 15  7  1  6  0  0  0
 15 17  1  0  0  0  0
 15 16  1  0  0  0  0
 16 25  1  0  0  0  0
 16 23  1  0  0  0  0
 17 27  1  0  0  0  0
 19  9  1  0  0  0  0
 20 10  1  0  0  0  0
 24 16  1  0  0  0  0
 26 17  1  0  0  0  0
M  END
