1,3
 OpenBabel05122313063D

 28 27  0  0  0  0  0  0  0  0999 V2000
    0.9634    2.0840    0.6771 S   0  0  0  0  0  1  0  0  0  0  0  0
   -1.4278    2.7352   -0.4240 N   0  0  0  0  0  0  0  0  0  0  0  0
   -1.4497    1.3791   -0.6047 N   0  0  0  0  0  2  0  0  0  0  0  0
   -0.3333    3.1530    0.1847 C   0  0  0  0  0  0  0  0  0  0  0  0
   -0.2200    4.4803    0.4704 N   0  0  0  0  0  0  0  0  0  0  0  0
   -3.8692    1.6586   -1.0735 C   0  0  0  0  0  0  0  0  0  0  0  0
   -5.4115    0.0868    0.2352 C   0  0  0  0  0  0  0  0  0  0  0  0
   -2.6119    0.8639   -0.9290 C   0  0  0  0  0  3  0  0  0  0  0  0
   -6.6510   -0.8099    0.2146 C   0  0  0  0  0  0  0  0  0  0  0  0
   -5.1287    0.7863   -1.0980 C   0  0  0  0  0  0  0  0  0  0  0  0
   -6.9361   -1.5043    1.5497 C   0  0  0  0  0  0  0  0  0  0  0  0
   -8.1747   -2.4003    1.5198 C   0  0  0  0  0  0  0  0  0  0  0  0
   -8.3543   -2.8882    2.4991 H   0  0  0  0  0  0  0  0  0  0  0  0
   -9.0860   -1.8203    1.2632 H   0  0  0  0  0  0  0  0  0  0  0  0
   -8.0728   -3.2035    0.7601 H   0  0  0  0  0  0  0  0  0  0  0  0
   -4.5249   -0.5184    0.5319 H   0  0  0  0  0  0  0  0  0  0  0  0
   -5.0354    0.0237   -1.9039 H   0  0  0  0  0  0  0  0  0  0  0  0
    0.6871    4.8506    0.7443 H   0  0  0  0  0  0  0  0  0  0  0  0
   -7.5387   -0.2061   -0.0831 H   0  0  0  0  0  0  0  0  0  0  0  0
   -6.0018    1.4142   -1.3775 H   0  0  0  0  0  0  0  0  0  0  0  0
   -0.9044    5.1140    0.0578 H   0  0  0  0  0  0  0  0  0  0  0  0
   -2.6216   -0.2210   -1.1190 H   0  0  0  0  0  0  0  0  0  0  0  0
   -5.5221    0.8564    1.0325 H   0  0  0  0  0  0  0  0  0  0  0  0
   -6.5349   -1.5794   -0.5824 H   0  0  0  0  0  0  0  0  0  0  0  0
   -6.0460   -2.1040    1.8441 H   0  0  0  0  0  0  0  0  0  0  0  0
   -7.0502   -0.7328    2.3437 H   0  0  0  0  0  0  0  0  0  0  0  0
   -3.7910    2.2689   -2.0037 H   0  0  0  0  0  0  0  0  0  0  0  0
   -3.9083    2.4127   -0.2574 H   0  0  0  0  0  0  0  0  0  0  0  0
  2  4  2  0  0  0  0
  3  2  1  0  0  0  0
  4  5  1  0  0  0  0
  4  1  1  0  0  0  0
  5 18  1  0  0  0  0
  6  8  1  0  0  0  0
  6 28  1  0  0  0  0
  7 16  1  0  0  0  0
  7 23  1  0  0  0  0
  8  3  1  0  0  0  0
  9  7  1  0  0  0  0
  9 11  1  0  0  0  0
 10  6  1  0  0  0  0
 10  7  1  0  0  0  0
 11 25  1  0  0  0  0
 11 26  1  0  0  0  0
 12 11  1  0  0  0  0
 12 13  1  0  0  0  0
 14 12  1  0  0  0  0
 15 12  1  0  0  0  0
 17 10  1  0  0  0  0
 19  9  1  0  0  0  0
 20 10  1  0  0  0  0
 21  5  1  0  0  0  0
 22  8  1  0  0  0  0
 24  9  1  0  0  0  0
 27  6  1  0  0  0  0
M  END
