1,6
 OpenBabel05122313063D

 31 32  0  0  1  0  0  0  0  0999 V2000
   -1.9284   -1.4128   -0.8357 N   0  0  0  0  0  2  0  0  0  0  0  0
   -1.9423   -2.1219   -1.5831 H   0  0  0  0  0  0  0  0  0  0  0  0
   -3.3473   -0.3271    0.7101 N   0  0  0  0  0  2  0  0  0  0  0  0
   -3.0709    1.7493    1.6626 N   0  0  0  0  0  0  0  0  0  0  0  0
   -3.7222    4.4141    0.9614 O   0  0  0  0  0  0  0  0  0  0  0  0
   -0.8223    0.2770    1.6265 S   0  0  0  0  0  1  0  0  0  0  0  0
   -3.0504   -1.3318   -0.1126 C   0  0  1  0  0  3  0  0  0  0  0  0
   -2.5271    0.5616    1.2624 C   0  0  1  0  0  3  0  0  0  0  0  0
   -4.4475    2.1164    1.3338 C   0  0  0  0  0  0  0  0  0  0  0  0
   -4.9805    2.3830    2.2734 H   0  0  0  0  0  0  0  0  0  0  0  0
   -4.9403    1.2429    0.8697 H   0  0  0  0  0  0  0  0  0  0  0  0
   -4.4318    3.3258    0.3934 C   0  0  0  0  0  0  0  0  0  0  0  0
   -3.9715    3.0224   -0.5793 H   0  0  0  0  0  0  0  0  0  0  0  0
   -5.4648    3.6790    0.2003 H   0  0  0  0  0  0  0  0  0  0  0  0
   -2.3056    2.8626    2.2157 C   0  0  0  0  0  0  0  0  0  0  0  0
   -1.2579    2.5408    2.3685 H   0  0  0  0  0  0  0  0  0  0  0  0
   -2.7423    3.1418    3.2000 H   0  0  0  0  0  0  0  0  0  0  0  0
   -2.3797    4.0538    1.2529 C   0  0  0  0  0  0  0  0  0  0  0  0
   -1.8991    4.9435    1.7068 H   0  0  0  0  0  0  0  0  0  0  0  0
   -1.8292    3.7967    0.3159 H   0  0  0  0  0  0  0  0  0  0  0  0
   -4.0852   -2.3935   -0.2727 C   0  0  0  0  0  0  0  0  0  0  0  0
   -5.4430   -2.1216   -0.0032 C   0  0  0  0  0  0  0  0  0  0  0  0
   -5.7219   -1.1084    0.3184 H   0  0  0  0  0  0  0  0  0  0  0  0
   -6.4091   -3.1238   -0.1508 C   0  0  0  0  0  0  0  0  0  0  0  0
   -7.4672   -2.8988    0.0518 H   0  0  0  0  0  0  0  0  0  0  0  0
   -6.0296   -4.4150   -0.5561 C   0  0  0  0  0  0  0  0  0  0  0  0
   -6.7895   -5.2032   -0.6690 H   0  0  0  0  0  0  0  0  0  0  0  0
   -4.6779   -4.6999   -0.8064 C   0  0  0  0  0  0  0  0  0  0  0  0
   -4.3721   -5.7148   -1.1018 H   0  0  0  0  0  0  0  0  0  0  0  0
   -3.7093   -3.6968   -0.6663 C   0  0  0  0  0  0  0  0  0  0  0  0
   -2.6455   -3.9341   -0.8208 H   0  0  0  0  0  0  0  0  0  0  0  0
  2  1  1  0  0  0  0
  3  8  1  0  0  0  0
  4 15  1  0  0  0  0
  5 18  1  0  0  0  0
  7  1  1  6  0  0  0
  7  3  1  0  0  0  0
  8  6  1  1  0  0  0
  8  4  1  0  0  0  0
  9  4  1  0  0  0  0
  9 10  1  0  0  0  0
 11  9  1  0  0  0  0
 12  5  1  0  0  0  0
 12  9  1  0  0  0  0
 13 12  1  0  0  0  0
 14 12  1  0  0  0  0
 15 16  1  0  0  0  0
 15 17  1  0  0  0  0
 18 19  1  0  0  0  0
 18 15  1  0  0  0  0
 20 18  1  0  0  0  0
 21  7  1  0  0  0  0
 21 22  1  0  0  0  0
 22 23  1  0  0  0  0
 24 22  2  0  0  0  0
 24 25  1  0  0  0  0
 26 24  1  0  0  0  0
 27 26  1  0  0  0  0
 28 30  1  0  0  0  0
 28 26  2  0  0  0  0
 29 28  1  0  0  0  0
 30 21  2  0  0  0  0
 31 30  1  0  0  0  0
M  END
