1,4
 OpenBabel05122313063D

 17 17  0  0  1  0  0  0  0  0999 V2000
    3.1858   -0.6188    1.5509 S   0  0  0  0  0  1  0  0  0  0  0  0
    2.3375    1.0543    3.4442 O   0  0  0  0  0  0  0  0  0  0  0  0
   -1.1181   -1.9974   -0.1104 O   0  0  0  0  0  0  0  0  0  0  0  0
    0.2992   -0.7254    1.1105 N   0  0  0  0  0  2  0  0  0  0  0  0
    2.0363    0.3118    2.5159 C   0  0  0  0  0  0  0  0  0  0  0  0
    0.5857    0.0142    2.2049 C   0  0  2  0  0  3  0  0  0  0  0  0
   -0.3951    0.4253    3.1186 C   0  0  0  0  0  0  0  0  0  0  0  0
   -0.0747    1.0423    3.9693 H   0  0  0  0  0  0  0  0  0  0  0  0
   -1.7115   -0.0051    2.9190 C   0  0  0  0  0  0  0  0  0  0  0  0
   -2.5148    0.2936    3.6097 H   0  0  0  0  0  0  0  0  0  0  0  0
   -2.0010   -0.8464    1.8393 C   0  0  0  0  0  0  0  0  0  0  0  0
   -3.0214   -1.2092    1.6664 H   0  0  0  0  0  0  0  0  0  0  0  0
   -0.9589   -1.1890    0.9525 C   0  0  0  0  0  0  0  0  0  0  0  0
   -2.3206   -2.7414   -0.2513 C   0  0  0  0  0  0  0  0  0  0  0  0
   -2.5008   -3.3811    0.6393 H   0  0  0  0  0  0  0  0  0  0  0  0
   -2.1738   -3.3813   -1.1401 H   0  0  0  0  0  0  0  0  0  0  0  0
   -3.1952   -2.0797   -0.4225 H   0  0  0  0  0  0  0  0  0  0  0  0
  1  5  1  0  0  0  0
  3 13  1  0  0  0  0
  4  6  1  0  0  0  0
  5  2  2  0  0  0  0
  6  5  1  1  0  0  0
  6  7  1  0  0  0  0
  7  8  1  0  0  0  0
  9  7  2  0  0  0  0
  9 10  1  0  0  0  0
 11  9  1  0  0  0  0
 12 11  1  0  0  0  0
 13  4  1  0  0  0  0
 13 11  2  0  0  0  0
 14  3  1  0  0  0  0
 14 15  1  0  0  0  0
 16 14  1  0  0  0  0
 17 14  1  0  0  0  0
M  END
