1,2
 OpenBabel05122313063D

 29 30  0  0  0  0  0  0  0  0999 V2000
   -2.4158    1.9869   -0.3336 S   0  0  0  0  0  0  0  0  0  0  0  0
   -0.5478   -0.3367   -0.2544 N   0  0  0  0  0  2  0  0  0  0  0  0
    0.1799   -1.4242    0.0944 C   0  0  0  0  0  3  0  0  0  0  0  0
   -0.4256   -2.3196    0.3220 H   0  0  0  0  0  0  0  0  0  0  0  0
    0.1123    0.8193   -0.5589 C   0  0  0  0  0  0  0  0  0  0  0  0
    1.5049    0.9070   -0.4813 C   0  0  0  0  0  0  0  0  0  0  0  0
    1.9890    1.8555   -0.7539 H   0  0  0  0  0  0  0  0  0  0  0  0
   -0.7195    1.9728   -1.0507 C   0  0  0  0  0  0  0  0  0  0  0  0
   -0.9077    1.8647   -2.1407 H   0  0  0  0  0  0  0  0  0  0  0  0
   -0.2255    2.9510   -0.8881 H   0  0  0  0  0  0  0  0  0  0  0  0
    1.5709   -1.4005    0.1679 C   0  0  0  0  0  0  0  0  0  0  0  0
    2.0935   -2.3134    0.4852 H   0  0  0  0  0  0  0  0  0  0  0  0
   -2.0797    2.5342    1.3766 C   0  0  0  0  0  0  0  0  0  0  0  0
   -3.0253    2.3480    1.9200 H   0  0  0  0  0  0  0  0  0  0  0  0
   -1.8362    3.6146    1.3842 H   0  0  0  0  0  0  0  0  0  0  0  0
   -1.2703    1.9321    1.8300 H   0  0  0  0  0  0  0  0  0  0  0  0
    2.2856   -0.2129   -0.1103 C   0  0  0  0  0  0  0  0  0  0  0  0
    3.7567   -0.1409   -0.0215 C   0  0  0  0  0  0  0  0  0  0  0  0
    4.5602   -1.2898   -0.2272 C   0  0  0  0  0  0  0  0  0  0  0  0
    4.0847   -2.2473   -0.4857 H   0  0  0  0  0  0  0  0  0  0  0  0
    7.9452   -0.0093    0.2200 O   0  0  0  0  0  0  0  0  0  0  0  0
    8.2507    0.8935    0.4285 H   0  0  0  0  0  0  0  0  0  0  0  0
    4.4172    1.0742    0.2732 C   0  0  0  0  0  0  0  0  0  0  0  0
    3.8301    1.9833    0.4708 H   0  0  0  0  0  0  0  0  0  0  0  0
    5.8100    1.1430    0.3630 C   0  0  0  0  0  0  0  0  0  0  0  0
    6.3000    2.0987    0.6111 H   0  0  0  0  0  0  0  0  0  0  0  0
    6.5921   -0.0117    0.1505 C   0  0  0  0  0  0  0  0  0  0  0  0
    5.9511   -1.2327   -0.1488 C   0  0  0  0  0  0  0  0  0  0  0  0
    6.5697   -2.1243   -0.3242 H   0  0  0  0  0  0  0  0  0  0  0  0
  1 13  1  0  0  0  0
  2  3  1  0  0  0  0
  3 11  1  0  0  0  0
  3  4  1  0  0  0  0
  5  6  2  0  0  0  0
  5  2  1  0  0  0  0
  6 17  1  0  0  0  0
  7  6  1  0  0  0  0
  8 10  1  0  0  0  0
  8  5  1  0  0  0  0
  8  1  1  0  0  0  0
  9  8  1  0  0  0  0
 11 12  1  0  0  0  0
 13 15  1  0  0  0  0
 13 16  1  0  0  0  0
 13 14  1  0  0  0  0
 17 18  1  0  0  0  0
 17 11  2  0  0  0  0
 18 23  1  0  0  0  0
 19 28  1  0  0  0  0
 19 18  2  0  0  0  0
 20 19  1  0  0  0  0
 21 22  1  0  0  0  0
 23 25  2  0  0  0  0
 23 24  1  0  0  0  0
 25 26  1  0  0  0  0
 27 21  1  0  0  0  0
 27 25  1  0  0  0  0
 28 27  2  0  0  0  0
 29 28  1  0  0  0  0
M  END
