1,4
 OpenBabel05122313063D

 42 44  0  0  0  0  0  0  0  0999 V2000
    4.6185    1.9389   -0.4500 S   0  0  0  0  0  0  0  0  0  0  0  0
    1.9467   -1.3819    0.1735 C   0  0  0  0  0  3  0  0  0  0  0  0
    2.5295   -2.2670    0.4848 H   0  0  0  0  0  0  0  0  0  0  0  0
    2.7033   -0.3370   -0.2388 N   0  0  0  0  0  2  0  0  0  0  0  0
   -5.7781    0.3352   -0.0214 O   0  0  0  0  0  0  0  0  0  0  0  0
   -1.6010   -0.0513   -0.1398 C   0  0  0  0  0  0  0  0  0  0  0  0
   -2.2493    1.1968    0.0411 C   0  0  0  0  0  0  0  0  0  0  0  0
   -1.6502    2.1079    0.1873 H   0  0  0  0  0  0  0  0  0  0  0  0
    4.2572    2.6241    1.2043 C   0  0  0  0  0  0  0  0  0  0  0  0
    4.0361    3.7062    1.1224 H   0  0  0  0  0  0  0  0  0  0  0  0
    5.1870    2.4630    1.7821 H   0  0  0  0  0  0  0  0  0  0  0  0
    3.4259    2.0749    1.6845 H   0  0  0  0  0  0  0  0  0  0  0  0
   -3.8147   -1.1125   -0.2556 C   0  0  0  0  0  0  0  0  0  0  0  0
   -4.4071   -2.0263   -0.3916 H   0  0  0  0  0  0  0  0  0  0  0  0
   -2.4175   -1.1942   -0.2840 C   0  0  0  0  0  0  0  0  0  0  0  0
   -1.9536   -2.1766   -0.4565 H   0  0  0  0  0  0  0  0  0  0  0  0
    2.0732    0.8035   -0.6473 C   0  0  0  0  0  0  0  0  0  0  0  0
   -3.6373    1.2951    0.0811 C   0  0  0  0  0  0  0  0  0  0  0  0
   -4.1386    2.2611    0.2365 H   0  0  0  0  0  0  0  0  0  0  0  0
   -8.0788   -0.3422    0.0137 C   0  0  0  0  0  0  0  0  0  0  0  0
   -0.1297   -0.1545   -0.1799 C   0  0  0  0  0  0  0  0  0  0  0  0
   -9.1046   -1.0789   -0.6080 C   0  0  0  0  0  0  0  0  0  0  0  0
   -8.8496   -1.9490   -1.2345 H   0  0  0  0  0  0  0  0  0  0  0  0
   -8.4156    0.7773    0.7971 C   0  0  0  0  0  0  0  0  0  0  0  0
   -7.6138    1.3614    1.2709 H   0  0  0  0  0  0  0  0  0  0  0  0
    0.6809    0.9208   -0.6132 C   0  0  0  0  0  0  0  0  0  0  0  0
    0.2215    1.8541   -0.9686 H   0  0  0  0  0  0  0  0  0  0  0  0
  -10.4477   -0.7113   -0.4400 C   0  0  0  0  0  0  0  0  0  0  0  0
  -11.2400   -1.2952   -0.9324 H   0  0  0  0  0  0  0  0  0  0  0  0
   -9.7584    1.1499    0.9573 C   0  0  0  0  0  0  0  0  0  0  0  0
  -10.0104    2.0304    1.5678 H   0  0  0  0  0  0  0  0  0  0  0  0
    0.5552   -1.3287    0.2082 C   0  0  0  0  0  0  0  0  0  0  0  0
    0.0071   -2.2050    0.5813 H   0  0  0  0  0  0  0  0  0  0  0  0
   -6.6451   -0.7908   -0.1296 C   0  0  0  0  0  0  0  0  0  0  0  0
   -6.3920   -1.5306    0.6678 H   0  0  0  0  0  0  0  0  0  0  0  0
   -6.4959   -1.3012   -1.1086 H   0  0  0  0  0  0  0  0  0  0  0  0
  -10.7782    0.4056    0.3434 C   0  0  0  0  0  0  0  0  0  0  0  0
  -11.8311    0.6993    0.4708 H   0  0  0  0  0  0  0  0  0  0  0  0
   -4.4389    0.1400   -0.0683 C   0  0  0  0  0  0  0  0  0  0  0  0
    2.9386    1.9019   -1.2035 C   0  0  0  0  0  0  0  0  0  0  0  0
    2.4605    2.8983   -1.1257 H   0  0  0  0  0  0  0  0  0  0  0  0
    3.1484    1.7093   -2.2778 H   0  0  0  0  0  0  0  0  0  0  0  0
  1  9  1  0  0  0  0
  2 32  1  0  0  0  0
  2  3  1  0  0  0  0
  4  2  1  0  0  0  0
  6  7  1  0  0  0  0
  7 18  2  0  0  0  0
  7  8  1  0  0  0  0
  9 12  1  0  0  0  0
  9 11  1  0  0  0  0
 10  9  1  0  0  0  0
 13 39  2  0  0  0  0
 14 13  1  0  0  0  0
 15 13  1  0  0  0  0
 15  6  2  0  0  0  0
 16 15  1  0  0  0  0
 17 26  2  0  0  0  0
 17  4  1  0  0  0  0
 18 19  1  0  0  0  0
 20 24  1  0  0  0  0
 21  6  1  0  0  0  0
 21 32  2  0  0  0  0
 22 28  1  0  0  0  0
 22 20  2  0  0  0  0
 23 22  1  0  0  0  0
 24 30  2  0  0  0  0
 24 25  1  0  0  0  0
 26 21  1  0  0  0  0
 27 26  1  0  0  0  0
 28 37  2  0  0  0  0
 29 28  1  0  0  0  0
 30 31  1  0  0  0  0
 32 33  1  0  0  0  0
 34  5  1  0  0  0  0
 34 20  1  0  0  0  0
 34 35  1  0  0  0  0
 36 34  1  0  0  0  0
 37 38  1  0  0  0  0
 37 30  1  0  0  0  0
 39  5  1  0  0  0  0
 39 18  1  0  0  0  0
 40 41  1  0  0  0  0
 40 17  1  0  0  0  0
 40  1  1  0  0  0  0
 42 40  1  0  0  0  0
M  END
