1,3
 OpenBabel05122313063D

 34 34  0  0  1  0  0  0  0  0999 V2000
   -2.7741    2.2866    0.7023 S   0  0  0  0  0  1  0  0  0  0  0  0
   -0.2150    4.0388    1.1711 S   0  0  0  0  0  0  0  0  0  0  0  0
   -0.3853    1.4283    0.5289 N   0  0  0  0  0  2  0  0  0  0  0  0
    3.0562    0.3080    0.2317 C   0  0  0  0  0  0  0  0  0  0  0  0
    0.9662    1.4846    0.5433 N   0  0  0  0  0  0  0  0  0  0  0  0
   -1.0559    2.5481    0.8028 C   0  0  2  0  0  3  0  0  0  0  0  0
    1.6150    0.3920    0.2384 C   0  0  0  0  0  0  0  0  0  0  0  0
    1.0470   -0.5237   -0.0242 H   0  0  0  0  0  0  0  0  0  0  0  0
    3.8862    1.4116    0.5607 C   0  0  0  0  0  0  0  0  0  0  0  0
    3.4078    2.3658    0.8263 H   0  0  0  0  0  0  0  0  0  0  0  0
    5.0815   -1.0326   -0.1231 C   0  0  0  0  0  0  0  0  0  0  0  0
    5.5202   -1.9959   -0.4113 H   0  0  0  0  0  0  0  0  0  0  0  0
   -1.6402    5.1413    1.4307 C   0  0  0  0  0  0  0  0  0  0  0  0
   -1.2099    6.1327    1.6667 H   0  0  0  0  0  0  0  0  0  0  0  0
   -2.2585    5.2119    0.5154 H   0  0  0  0  0  0  0  0  0  0  0  0
   -2.2610    4.7951    2.2790 H   0  0  0  0  0  0  0  0  0  0  0  0
    3.6959   -0.9095   -0.1106 C   0  0  0  0  0  0  0  0  0  0  0  0
    3.0788   -1.7828   -0.3792 H   0  0  0  0  0  0  0  0  0  0  0  0
    7.2911   -0.0247    0.2500 N   0  0  0  0  0  0  0  0  0  0  0  0
    5.9206    0.0719    0.2228 C   0  0  0  0  0  0  0  0  0  0  0  0
    5.2695    1.3041    0.5544 C   0  0  0  0  0  0  0  0  0  0  0  0
    5.8673    2.1849    0.8184 H   0  0  0  0  0  0  0  0  0  0  0  0
    7.9803   -1.2552   -0.1113 C   0  0  0  0  0  0  0  0  0  0  0  0
    7.3989   -2.1332    0.2333 H   0  0  0  0  0  0  0  0  0  0  0  0
    8.9432   -1.2826    0.4389 H   0  0  0  0  0  0  0  0  0  0  0  0
    8.1048    1.1572    0.4964 C   0  0  0  0  0  0  0  0  0  0  0  0
    7.9038    1.9562   -0.2485 H   0  0  0  0  0  0  0  0  0  0  0  0
    7.9280    1.5713    1.5130 H   0  0  0  0  0  0  0  0  0  0  0  0
    9.1689    0.8851    0.4013 H   0  0  0  0  0  0  0  0  0  0  0  0
    9.1545   -0.3350   -1.9613 O   0  0  0  0  0  0  0  0  0  0  0  0
    9.2777   -0.3532   -2.9264 H   0  0  0  0  0  0  0  0  0  0  0  0
    8.2745   -1.3831   -1.6049 C   0  0  0  0  0  0  0  0  0  0  0  0
    7.3120   -1.3358   -2.1711 H   0  0  0  0  0  0  0  0  0  0  0  0
    8.7168   -2.3945   -1.7874 H   0  0  0  0  0  0  0  0  0  0  0  0
  2 13  1  0  0  0  0
  3  5  1  0  0  0  0
  3  6  1  0  0  0  0
  4  7  1  0  0  0  0
  4  9  1  0  0  0  0
  6  1  1  6  0  0  0
  6  2  1  0  0  0  0
  7  5  2  0  0  0  0
  8  7  1  0  0  0  0
  9 10  1  0  0  0  0
 11 17  1  0  0  0  0
 11 20  2  0  0  0  0
 12 11  1  0  0  0  0
 13 14  1  0  0  0  0
 13 16  1  0  0  0  0
 15 13  1  0  0  0  0
 17  4  2  0  0  0  0
 18 17  1  0  0  0  0
 19 26  1  0  0  0  0
 20 19  1  0  0  0  0
 20 21  1  0  0  0  0
 21  9  2  0  0  0  0
 21 22  1  0  0  0  0
 23 24  1  0  0  0  0
 23 19  1  0  0  0  0
 23 25  1  0  0  0  0
 26 28  1  0  0  0  0
 27 26  1  0  0  0  0
 29 26  1  0  0  0  0
 30 32  1  0  0  0  0
 31 30  1  0  0  0  0
 32 23  1  0  0  0  0
 33 32  1  0  0  0  0
 34 32  1  0  0  0  0
M  END
