1,2
 OpenBabel05122313063D

 24 24  0  0  0  0  0  0  0  0999 V2000
    2.0699   -2.6118   -0.5051 S   0  0  0  0  0  1  0  0  0  0  0  0
    0.3056   -0.4646   -1.6605 N   0  0  0  0  0  2  0  0  0  0  0  0
    1.4808   -0.5689   -2.3066 N   0  0  0  0  0  0  0  0  0  0  0  0
    3.5155   -1.5843   -2.4847 N   0  0  0  0  0  0  0  0  0  0  0  0
    3.6301   -1.0446   -3.3441 H   0  0  0  0  0  0  0  0  0  0  0  0
    4.1112   -2.3917   -2.3124 H   0  0  0  0  0  0  0  0  0  0  0  0
    2.3103   -1.5041   -1.8487 C   0  0  0  0  0  0  0  0  0  0  0  0
   -0.5383    0.4627   -2.0690 C   0  0  0  0  0  0  0  0  0  0  0  0
   -0.2272    1.1172   -2.9056 H   0  0  0  0  0  0  0  0  0  0  0  0
   -1.8144    0.6075   -1.4447 C   0  0  0  0  0  0  0  0  0  0  0  0
   -2.0486   -0.1370   -0.6658 H   0  0  0  0  0  0  0  0  0  0  0  0
   -2.7365    1.5690   -1.7569 C   0  0  0  0  0  3  0  0  0  0  0  0
   -2.4850    2.3080   -2.5382 H   0  0  0  0  0  0  0  0  0  0  0  0
   -4.0423    1.7212   -1.1258 C   0  0  0  0  0  0  0  0  0  0  0  0
   -4.8608    2.8266   -1.4686 C   0  0  0  0  0  0  0  0  0  0  0  0
   -4.4970    3.5471   -2.2183 H   0  0  0  0  0  0  0  0  0  0  0  0
   -6.1109    3.0165   -0.8667 C   0  0  0  0  0  0  0  0  0  0  0  0
   -6.7274    3.8840   -1.1477 H   0  0  0  0  0  0  0  0  0  0  0  0
   -6.5760    2.1038    0.0938 C   0  0  0  0  0  0  0  0  0  0  0  0
   -7.5572    2.2521    0.5698 H   0  0  0  0  0  0  0  0  0  0  0  0
   -5.7798    0.9963    0.4396 C   0  0  0  0  0  0  0  0  0  0  0  0
   -6.1335    0.2714    1.1889 H   0  0  0  0  0  0  0  0  0  0  0  0
   -4.5340    0.8021   -0.1615 C   0  0  0  0  0  0  0  0  0  0  0  0
   -3.9393   -0.0811    0.1128 H   0  0  0  0  0  0  0  0  0  0  0  0
  3  7  2  0  0  0  0
  3  2  1  0  0  0  0
  4  6  1  0  0  0  0
  4  7  1  0  0  0  0
  5  4  1  0  0  0  0
  7  1  1  0  0  0  0
  8  2  1  0  0  0  0
  8 10  2  0  0  0  0
  9  8  1  0  0  0  0
 10 11  1  0  0  0  0
 12 10  1  0  0  0  0
 12 14  1  0  0  0  0
 13 12  1  0  0  0  0
 14 23  1  0  0  0  0
 15 14  2  0  0  0  0
 15 17  1  0  0  0  0
 16 15  1  0  0  0  0
 17 19  2  0  0  0  0
 18 17  1  0  0  0  0
 19 21  1  0  0  0  0
 19 20  1  0  0  0  0
 21 22  1  0  0  0  0
 23 24  1  0  0  0  0
 23 21  2  0  0  0  0
M  END
