1,5
 OpenBabel05122313063D

 28 28  0  0  1  0  0  0  0  0999 V2000
   -1.4159    2.9272   -0.7293 S   0  0  0  0  0  1  0  0  0  0  0  0
    5.2745   -1.5279   -0.9178 N   0  0  0  0  0  0  0  0  0  0  0  0
    5.7321   -2.6679   -0.8215 O   0  0  0  0  0  0  0  0  0  0  0  0
    5.9405   -0.4905   -0.8054 O   0  0  0  0  0  0  0  0  0  0  0  0
   -0.9130    0.2065   -1.1768 N   0  0  0  0  0  2  0  0  0  0  0  0
   -2.2055    0.4426   -1.5077 N   0  0  0  0  0  2  0  0  0  0  0  0
   -3.8133    2.1020   -1.6030 N   0  0  0  0  0  0  0  0  0  0  0  0
   -4.0503    3.0673   -1.3754 H   0  0  0  0  0  0  0  0  0  0  0  0
    1.0655   -1.1044   -1.5154 C   0  0  0  0  0  0  0  0  0  0  0  0
    1.9282    0.0200   -1.6176 C   0  0  0  0  0  0  0  0  0  0  0  0
    1.5013    1.0054   -1.8585 H   0  0  0  0  0  0  0  0  0  0  0  0
    3.3041   -0.1145   -1.4331 C   0  0  0  0  0  0  0  0  0  0  0  0
    3.9804    0.7484   -1.4853 H   0  0  0  0  0  0  0  0  0  0  0  0
    3.8327   -1.3859   -1.1714 C   0  0  0  0  0  0  0  0  0  0  0  0
    3.0174   -2.5295   -1.1290 C   0  0  0  0  0  0  0  0  0  0  0  0
    3.4824   -3.5052   -0.9361 H   0  0  0  0  0  0  0  0  0  0  0  0
    1.6411   -2.3844   -1.3109 C   0  0  0  0  0  0  0  0  0  0  0  0
    0.9919   -3.2698   -1.2451 H   0  0  0  0  0  0  0  0  0  0  0  0
   -0.3813   -0.9186   -1.6427 C   0  0  2  0  0  3  0  0  0  0  0  0
   -2.5520    1.7089   -1.3073 C   0  0  2  0  0  3  0  0  0  0  0  0
   -1.2492   -1.9163   -2.3467 C   0  0  0  0  0  0  0  0  0  0  0  0
   -1.7187   -1.4469   -3.2358 H   0  0  0  0  0  0  0  0  0  0  0  0
   -2.0891   -2.2252   -1.6903 H   0  0  0  0  0  0  0  0  0  0  0  0
   -0.6747   -2.8018   -2.6713 H   0  0  0  0  0  0  0  0  0  0  0  0
   -4.8623    1.1965   -2.0353 C   0  0  0  0  0  0  0  0  0  0  0  0
   -5.6352    1.7672   -2.5842 H   0  0  0  0  0  0  0  0  0  0  0  0
   -5.3409    0.6730   -1.1782 H   0  0  0  0  0  0  0  0  0  0  0  0
   -4.4280    0.4323   -2.7074 H   0  0  0  0  0  0  0  0  0  0  0  0
  2  3  2  0  0  0  0
  2  4  2  0  0  0  0
  6 20  1  0  0  0  0
  6  5  1  0  0  0  0
  7  8  1  0  0  0  0
  7 20  1  0  0  0  0
  9 17  1  0  0  0  0
 10  9  2  0  0  0  0
 10 12  1  0  0  0  0
 11 10  1  0  0  0  0
 12 14  2  0  0  0  0
 13 12  1  0  0  0  0
 14 15  1  0  0  0  0
 14  2  1  0  0  0  0
 15 16  1  0  0  0  0
 17 18  1  0  0  0  0
 17 15  2  0  0  0  0
 19  9  1  0  0  0  0
 19  5  1  6  0  0  0
 20  1  1  6  0  0  0
 21 23  1  0  0  0  0
 21 19  1  0  0  0  0
 22 21  1  0  0  0  0
 24 21  1  0  0  0  0
 25  7  1  0  0  0  0
 25 27  1  0  0  0  0
 26 25  1  0  0  0  0
 28 25  1  0  0  0  0
M  END
