1,2
 OpenBabel05122313063D

 16 16  0  0  0  0  0  0  0  0999 V2000
   -0.2826    1.9996   -0.3743 S   0  0  0  0  0  0  0  0  0  0  0  0
    1.3424   -0.3850   -0.1133 N   0  0  0  0  0  2  0  0  0  0  0  0
    2.0713   -1.4677    0.1637 N   0  0  0  0  0  0  0  0  0  0  0  0
    3.3844   -1.1486    0.2763 C   0  0  0  0  0  3  0  0  0  0  0  0
    3.4967    0.2301    0.0565 C   0  0  0  0  0  0  0  0  0  0  0  0
    2.1738    0.6766   -0.1854 C   0  0  0  0  0  0  0  0  0  0  0  0
    1.5768    2.0041   -0.5391 C   0  0  0  0  0  0  0  0  0  0  0  0
   -0.4992    2.5382    1.3576 C   0  0  0  0  0  0  0  0  0  0  0  0
    1.5037   -2.3384    0.2773 H   0  0  0  0  0  0  0  0  0  0  0  0
    4.1404   -1.9084    0.5006 H   0  0  0  0  0  0  0  0  0  0  0  0
    4.4152    0.8249    0.0655 H   0  0  0  0  0  0  0  0  0  0  0  0
    1.7592    2.2560   -1.6049 H   0  0  0  0  0  0  0  0  0  0  0  0
    1.9788    2.8357    0.0732 H   0  0  0  0  0  0  0  0  0  0  0  0
   -1.5649    2.3275    1.5722 H   0  0  0  0  0  0  0  0  0  0  0  0
   -0.2864    3.6216    1.4420 H   0  0  0  0  0  0  0  0  0  0  0  0
    0.1376    1.9404    2.0355 H   0  0  0  0  0  0  0  0  0  0  0  0
  1  8  1  0  0  0  0
  2  3  1  0  0  0  0
  3  4  1  0  0  0  0
  3  9  1  0  0  0  0
  4 10  1  0  0  0  0
  5 11  1  0  0  0  0
  5  4  1  0  0  0  0
  6  2  1  0  0  0  0
  6  5  2  0  0  0  0
  7  1  1  0  0  0  0
  7  6  1  0  0  0  0
  7 13  1  0  0  0  0
  8 15  1  0  0  0  0
  8 14  1  0  0  0  0
  8 16  1  0  0  0  0
 12  7  1  0  0  0  0
M  END
