1,13
 OpenBabel05122313063D

 22 22  0  0  1  0  0  0  0  0999 V2000
    3.1441    0.5280   -0.8251 S   0  0  0  0  0  1  0  0  0  0  0  0
    3.2462    3.1737   -1.1244 N   0  0  0  0  0  0  0  0  0  0  0  0
    2.8801    4.1203   -1.0204 H   0  0  0  0  0  0  0  0  0  0  0  0
    4.2516    3.0503   -1.0086 H   0  0  0  0  0  0  0  0  0  0  0  0
    2.4702    2.0772   -0.9209 C   0  0  1  0  0  3  0  0  0  0  0  0
   -3.3929    2.6736    0.9924 Cl  0  0  0  0  0  0  0  0  0  0  0  0
   -5.5192   -1.7102   -0.3644 O   0  0  0  0  0  0  0  0  0  0  0  0
   -5.3594   -2.5425   -0.8486 H   0  0  0  0  0  0  0  0  0  0  0  0
    1.1269    2.2972   -0.8712 N   0  0  0  0  0  0  0  0  0  0  0  0
    0.7609    3.2565   -0.8989 H   0  0  0  0  0  0  0  0  0  0  0  0
   -1.0399    1.6972   -0.6527 C   0  0  0  0  0  3  0  0  0  0  0  0
   -1.2491    2.7867   -0.6456 H   0  0  0  0  0  0  0  0  0  0  0  0
    0.2092    1.3016   -0.6780 N   0  0  0  0  0  2  0  0  0  0  0  0
   -2.1815    0.8075   -0.6104 C   0  0  0  0  0  0  0  0  0  0  0  0
   -3.3492    1.1625    0.1196 C   0  0  0  0  0  0  0  0  0  0  0  0
   -4.4555    0.3181    0.1962 C   0  0  0  0  0  0  0  0  0  0  0  0
   -5.3345    0.5922    0.7934 H   0  0  0  0  0  0  0  0  0  0  0  0
   -4.4306   -0.9187   -0.4829 C   0  0  0  0  0  0  0  0  0  0  0  0
   -3.3049   -1.2737   -1.2573 C   0  0  0  0  0  0  0  0  0  0  0  0
   -3.2913   -2.2244   -1.8129 H   0  0  0  0  0  0  0  0  0  0  0  0
   -2.2068   -0.4207   -1.3163 C   0  0  0  0  0  0  0  0  0  0  0  0
   -1.3416   -0.6971   -1.9311 H   0  0  0  0  0  0  0  0  0  0  0  0
  2  3  1  0  0  0  0
  2  4  1  0  0  0  0
  2  5  1  0  0  0  0
  5  9  1  0  0  0  0
  5  1  1  6  0  0  0
  8  7  1  0  0  0  0
  9 13  1  0  0  0  0
 10  9  1  0  0  0  0
 11 12  1  0  0  0  0
 11 14  1  0  0  0  0
 13 11  1  0  0  0  0
 14 15  1  0  0  0  0
 15 16  2  0  0  0  0
 15  6  1  0  0  0  0
 16 17  1  0  0  0  0
 18  7  1  0  0  0  0
 18 16  1  0  0  0  0
 19 18  2  0  0  0  0
 20 19  1  0  0  0  0
 21 19  1  0  0  0  0
 21 14  2  0  0  0  0
 22 21  1  0  0  0  0
M  END
