1,3
 OpenBabel05122313063D

 26 27  0  0  1  0  0  0  0  0999 V2000
   -1.6782   -1.1374   -1.3740 S   0  0  0  0  0  1  0  0  0  0  0  0
   -3.2809    0.0778    0.5398 N   0  0  0  0  0  0  0  0  0  0  0  0
   -1.0850    0.5935    1.3859 N   0  0  0  0  0  2  0  0  0  0  0  0
   -4.2806   -1.1103   -1.1688 N   0  0  0  0  0  0  0  0  0  0  0  0
   -5.8874   -0.1786    0.2820 N   0  0  0  0  0  0  0  0  0  0  0  0
   -3.1033   -0.6696   -0.5813 C   0  0  1  0  0  3  0  0  0  0  0  0
   -2.4278    0.7023    1.4513 C   0  0  2  0  0  3  0  0  0  0  0  0
   -0.3415    1.2136    2.3330 C   0  0  0  0  0  0  0  0  0  0  0  0
   -0.8858    1.9704    3.3694 C   0  0  0  0  0  0  0  0  0  0  0  0
   -2.2854    2.0934    3.4345 C   0  0  0  0  0  0  0  0  0  0  0  0
   -3.0635    1.4547    2.4719 C   0  0  0  0  0  0  0  0  0  0  0  0
   -5.6169   -0.9194   -0.8096 C   0  0  0  0  0  0  0  0  0  0  0  0
   -7.1710    0.0112    0.6393 C   0  0  0  0  0  0  0  0  0  0  0  0
   -8.2455   -0.5265   -0.0739 C   0  0  0  0  0  0  0  0  0  0  0  0
   -7.9615   -1.3000   -1.2155 C   0  0  0  0  0  0  0  0  0  0  0  0
   -6.6362   -1.5056   -1.5973 C   0  0  0  0  0  0  0  0  0  0  0  0
   -4.3199    0.1928    0.7485 H   0  0  0  0  0  0  0  0  0  0  0  0
   -4.1081   -1.6758   -2.0043 H   0  0  0  0  0  0  0  0  0  0  0  0
    0.7473    1.0717    2.2396 H   0  0  0  0  0  0  0  0  0  0  0  0
   -0.2296    2.4488    4.1094 H   0  0  0  0  0  0  0  0  0  0  0  0
   -2.7646    2.6799    4.2320 H   0  0  0  0  0  0  0  0  0  0  0  0
   -4.1612    1.5231    2.4910 H   0  0  0  0  0  0  0  0  0  0  0  0
   -7.3370    0.6236    1.5407 H   0  0  0  0  0  0  0  0  0  0  0  0
   -9.2783   -0.3464    0.2542 H   0  0  0  0  0  0  0  0  0  0  0  0
   -8.7764   -1.7431   -1.8069 H   0  0  0  0  0  0  0  0  0  0  0  0
   -6.3832   -2.1061   -2.4836 H   0  0  0  0  0  0  0  0  0  0  0  0
  2 17  1  0  0  0  0
  3  7  1  0  0  0  0
  3  8  1  0  0  0  0
  4 12  1  0  0  0  0
  4  6  1  0  0  0  0
  5 13  1  0  0  0  0
  6  1  1  6  0  0  0
  6  2  1  0  0  0  0
  7  2  1  1  0  0  0
  7 11  1  0  0  0  0
  8  9  2  0  0  0  0
  9 10  1  0  0  0  0
  9 20  1  0  0  0  0
 10 21  1  0  0  0  0
 11 22  1  0  0  0  0
 11 10  2  0  0  0  0
 12  5  2  0  0  0  0
 13 23  1  0  0  0  0
 14 24  1  0  0  0  0
 14 13  2  0  0  0  0
 15 14  1  0  0  0  0
 16 15  2  0  0  0  0
 16 12  1  0  0  0  0
 18  4  1  0  0  0  0
 19  8  1  0  0  0  0
 25 15  1  0  0  0  0
 26 16  1  0  0  0  0
M  END
