1,5
 OpenBabel05122313063D

 63 66  0  0  0  0  0  0  0  0999 V2000
    0.3362    1.4576   -1.9928 S   0  0  0  0  0  1  0  0  0  0  0  0
   -0.2893    1.8261   -0.0945 P   0  0  0  0  0  4  0  0  0  0  0  0
   -0.8148   -1.1416    0.3246 P   0  0  0  0  0  4  0  0  0  0  0  0
    0.5317   -3.4500   -1.2538 Si  0  0  0  0  0  0  0  0  0  0  0  0
    0.2386   -1.7916   -0.7398 N   0  0  0  0  0  2  0  0  0  0  0  0
   -1.9912    2.5270   -0.1234 C   0  0  0  0  0  0  0  0  0  0  0  0
   -2.6855    2.7130   -1.3303 C   0  0  0  0  0  0  0  0  0  0  0  0
   -2.1770    2.4758   -2.2779 H   0  0  0  0  0  0  0  0  0  0  0  0
   -4.0110    3.1752   -1.3104 C   0  0  0  0  0  0  0  0  0  0  0  0
   -4.5549    3.3101   -2.2577 H   0  0  0  0  0  0  0  0  0  0  0  0
   -4.6415    3.4590   -0.0897 C   0  0  0  0  0  0  0  0  0  0  0  0
   -5.6803    3.8228   -0.0769 H   0  0  0  0  0  0  0  0  0  0  0  0
   -3.9476    3.2744    1.1191 C   0  0  0  0  0  0  0  0  0  0  0  0
   -4.4403    3.4949    2.0785 H   0  0  0  0  0  0  0  0  0  0  0  0
   -2.6283    2.8032    1.1044 C   0  0  0  0  0  0  0  0  0  0  0  0
   -2.0881    2.6449    2.0516 H   0  0  0  0  0  0  0  0  0  0  0  0
    0.7335    3.1037    0.7287 C   0  0  0  0  0  0  0  0  0  0  0  0
    0.3482    4.4591    0.7184 C   0  0  0  0  0  0  0  0  0  0  0  0
   -0.6170    4.7538    0.2798 H   0  0  0  0  0  0  0  0  0  0  0  0
    1.1964    5.4312    1.2690 C   0  0  0  0  0  0  0  0  0  0  0  0
    0.8900    6.4884    1.2629 H   0  0  0  0  0  0  0  0  0  0  0  0
    2.4322    5.0585    1.8222 C   0  0  0  0  0  0  0  0  0  0  0  0
    3.0973    5.8246    2.2493 H   0  0  0  0  0  0  0  0  0  0  0  0
    2.8218    3.7093    1.8227 C   0  0  0  0  0  0  0  0  0  0  0  0
    3.7957    3.4113    2.2396 H   0  0  0  0  0  0  0  0  0  0  0  0
    1.9782    2.7317    1.2772 C   0  0  0  0  0  0  0  0  0  0  0  0
    2.2938    1.6777    1.2573 H   0  0  0  0  0  0  0  0  0  0  0  0
   -0.1344    0.3845    0.8952 C   0  0  0  0  0  3  0  0  0  0  0  0
   -0.0999    0.5427    1.9852 H   0  0  0  0  0  0  0  0  0  0  0  0
   -2.4561   -0.8920   -0.4435 C   0  0  0  0  0  0  0  0  0  0  0  0
   -2.5732   -0.9940   -1.8418 C   0  0  0  0  0  0  0  0  0  0  0  0
   -1.6881   -1.2856   -2.4258 H   0  0  0  0  0  0  0  0  0  0  0  0
   -3.7947   -0.6961   -2.4656 C   0  0  0  0  0  0  0  0  0  0  0  0
   -3.8820   -0.7742   -3.5600 H   0  0  0  0  0  0  0  0  0  0  0  0
   -4.8974   -0.2923   -1.6979 C   0  0  0  0  0  0  0  0  0  0  0  0
   -5.8538   -0.0559   -2.1888 H   0  0  0  0  0  0  0  0  0  0  0  0
   -4.7776   -0.1720   -0.3025 C   0  0  0  0  0  0  0  0  0  0  0  0
   -5.6345    0.1675    0.2984 H   0  0  0  0  0  0  0  0  0  0  0  0
   -3.5594   -0.4625    0.3242 C   0  0  0  0  0  0  0  0  0  0  0  0
   -3.4590   -0.3416    1.4140 H   0  0  0  0  0  0  0  0  0  0  0  0
   -1.0570   -2.2022    1.7958 C   0  0  0  0  0  0  0  0  0  0  0  0
   -0.0058   -2.2699    2.7356 C   0  0  0  0  0  0  0  0  0  0  0  0
    0.8836   -1.6337    2.6063 H   0  0  0  0  0  0  0  0  0  0  0  0
   -0.0841   -3.1607    3.8143 C   0  0  0  0  0  0  0  0  0  0  0  0
    0.7375   -3.2071    4.5451 H   0  0  0  0  0  0  0  0  0  0  0  0
   -1.2022   -4.0003    3.9556 C   0  0  0  0  0  0  0  0  0  0  0  0
   -1.2591   -4.7039    4.8000 H   0  0  0  0  0  0  0  0  0  0  0  0
   -2.2426   -3.9459    3.0152 C   0  0  0  0  0  0  0  0  0  0  0  0
   -3.1165   -4.6067    3.1196 H   0  0  0  0  0  0  0  0  0  0  0  0
   -2.1729   -3.0504    1.9364 C   0  0  0  0  0  0  0  0  0  0  0  0
   -2.9890   -3.0112    1.1993 H   0  0  0  0  0  0  0  0  0  0  0  0
    1.4741   -4.3970    0.0870 C   0  0  0  0  0  0  0  0  0  0  0  0
    2.4191   -3.8739    0.3417 H   0  0  0  0  0  0  0  0  0  0  0  0
    1.7327   -5.4222   -0.2506 H   0  0  0  0  0  0  0  0  0  0  0  0
    0.8733   -4.4826    1.0154 H   0  0  0  0  0  0  0  0  0  0  0  0
   -1.0871   -4.3627   -1.6155 C   0  0  0  0  0  0  0  0  0  0  0  0
   -1.7163   -4.4262   -0.7037 H   0  0  0  0  0  0  0  0  0  0  0  0
   -0.8834   -5.4000   -1.9536 H   0  0  0  0  0  0  0  0  0  0  0  0
   -1.6805   -3.8552   -2.4023 H   0  0  0  0  0  0  0  0  0  0  0  0
    1.6014   -3.3072   -2.8015 C   0  0  0  0  0  0  0  0  0  0  0  0
    1.0612   -2.7719   -3.6090 H   0  0  0  0  0  0  0  0  0  0  0  0
    1.9043   -4.3024   -3.1862 H   0  0  0  0  0  0  0  0  0  0  0  0
    2.5253   -2.7334   -2.5757 H   0  0  0  0  0  0  0  0  0  0  0  0
  1  2  1  0  0  0  0
  2 17  1  0  0  0  0
  2 28  1  0  0  0  0
  3 28  1  0  0  0  0
  3 41  1  0  0  0  0
  4  5  1  0  0  0  0
  4 52  1  0  0  0  0
  5  3  1  0  0  0  0
  6  2  1  0  0  0  0
  6 15  1  0  0  0  0
  7  9  1  0  0  0  0
  7  6  2  0  0  0  0
  8  7  1  0  0  0  0
  9 11  2  0  0  0  0
 10  9  1  0  0  0  0
 11 12  1  0  0  0  0
 11 13  1  0  0  0  0
 13 14  1  0  0  0  0
 15 13  2  0  0  0  0
 15 16  1  0  0  0  0
 17 26  1  0  0  0  0
 18 17  2  0  0  0  0
 18 20  1  0  0  0  0
 19 18  1  0  0  0  0
 20 22  2  0  0  0  0
 21 20  1  0  0  0  0
 22 24  1  0  0  0  0
 22 23  1  0  0  0  0
 24 25  1  0  0  0  0
 26 24  2  0  0  0  0
 27 26  1  0  0  0  0
 28 29  1  0  0  0  0
 30 39  1  0  0  0  0
 30  3  1  0  0  0  0
 31 30  2  0  0  0  0
 32 31  1  0  0  0  0
 33 31  1  0  0  0  0
 33 35  2  0  0  0  0
 34 33  1  0  0  0  0
 35 37  1  0  0  0  0
 36 35  1  0  0  0  0
 37 38  1  0  0  0  0
 37 39  2  0  0  0  0
 39 40  1  0  0  0  0
 41 50  2  0  0  0  0
 41 42  1  0  0  0  0
 42 44  2  0  0  0  0
 43 42  1  0  0  0  0
 44 46  1  0  0  0  0
 44 45  1  0  0  0  0
 46 47  1  0  0  0  0
 48 49  1  0  0  0  0
 48 46  2  0  0  0  0
 50 48  1  0  0  0  0
 51 50  1  0  0  0  0
 52 53  1  0  0  0  0
 52 55  1  0  0  0  0
 54 52  1  0  0  0  0
 56  4  1  0  0  0  0
 56 57  1  0  0  0  0
 58 56  1  0  0  0  0
 59 56  1  0  0  0  0
 60 63  1  0  0  0  0
 60  4  1  0  0  0  0
 61 60  1  0  0  0  0
 62 60  1  0  0  0  0
M  END
