1,2
 OpenBabel05122313063D

 37 39  0  0  0  0  0  0  0  0999 V2000
   -1.3897    1.1082   -0.2553 S   0  0  0  0  0  1  0  0  0  0  0  0
   -1.3520   -1.9020   -0.2850 N   0  0  0  0  0  2  0  0  0  0  0  0
   -1.1170   -2.8716   -1.2074 C   0  0  0  0  0  3  0  0  0  0  0  0
   -2.0459   -3.8654   -1.5119 C   0  0  0  0  0  0  0  0  0  0  0  0
   -3.2724   -3.8773   -0.8290 C   0  0  0  0  0  0  0  0  0  0  0  0
   -3.5129   -2.8804    0.1224 C   0  0  0  0  0  0  0  0  0  0  0  0
   -2.5444   -1.8950    0.3750 C   0  0  0  0  0  0  0  0  0  0  0  0
   -2.8039   -0.7392    1.2904 C   0  0  0  0  0  0  0  0  0  0  0  0
   -3.0363    0.5620    0.4682 C   0  0  0  0  0  0  0  0  0  0  0  0
   -3.4588    1.7346    1.3494 C   0  0  0  0  0  0  0  0  0  0  0  0
   -3.9931    2.8886    0.7333 C   0  0  0  0  0  0  0  0  0  0  0  0
   -4.3576    4.0076    1.4914 C   0  0  0  0  0  0  0  0  0  0  0  0
   -4.2027    3.9986    2.8876 C   0  0  0  0  0  0  0  0  0  0  0  0
   -3.6734    2.8596    3.5111 C   0  0  0  0  0  0  0  0  0  0  0  0
   -3.3039    1.7396    2.7496 C   0  0  0  0  0  0  0  0  0  0  0  0
   -4.0994    0.2538   -0.5996 C   0  0  0  0  0  0  0  0  0  0  0  0
   -3.7680    0.0109   -1.9439 C   0  0  0  0  0  0  0  0  0  0  0  0
   -4.7511   -0.3846   -2.8653 C   0  0  0  0  0  0  0  0  0  0  0  0
   -6.0843   -0.5391   -2.4576 C   0  0  0  0  0  0  0  0  0  0  0  0
   -6.4293   -0.2879   -1.1189 C   0  0  0  0  0  0  0  0  0  0  0  0
   -5.4458    0.1054   -0.2005 C   0  0  0  0  0  0  0  0  0  0  0  0
   -0.1400   -2.8301   -1.7104 H   0  0  0  0  0  0  0  0  0  0  0  0
   -1.8045   -4.6171   -2.2767 H   0  0  0  0  0  0  0  0  0  0  0  0
   -4.0324   -4.6428   -1.0437 H   0  0  0  0  0  0  0  0  0  0  0  0
   -4.4667   -2.8330    0.6658 H   0  0  0  0  0  0  0  0  0  0  0  0
   -3.6988   -0.9522    1.9099 H   0  0  0  0  0  0  0  0  0  0  0  0
   -1.9328   -0.5830    1.9603 H   0  0  0  0  0  0  0  0  0  0  0  0
   -4.1149    2.9019   -0.3601 H   0  0  0  0  0  0  0  0  0  0  0  0
   -4.7674    4.8961    0.9869 H   0  0  0  0  0  0  0  0  0  0  0  0
   -4.4913    4.8764    3.4854 H   0  0  0  0  0  0  0  0  0  0  0  0
   -3.5429    2.8388    4.6041 H   0  0  0  0  0  0  0  0  0  0  0  0
   -2.8780    0.8674    3.2651 H   0  0  0  0  0  0  0  0  0  0  0  0
   -2.7185    0.1477   -2.2479 H   0  0  0  0  0  0  0  0  0  0  0  0
   -4.4701   -0.5687   -3.9139 H   0  0  0  0  0  0  0  0  0  0  0  0
   -6.8559   -0.8446   -3.1809 H   0  0  0  0  0  0  0  0  0  0  0  0
   -7.4745   -0.3932   -0.7887 H   0  0  0  0  0  0  0  0  0  0  0  0
   -5.7253    0.3105    0.8451 H   0  0  0  0  0  0  0  0  0  0  0  0
  1  9  1  0  0  0  0
  2  7  1  0  0  0  0
  3  2  1  0  0  0  0
  4  3  1  0  0  0  0
  4  5  2  0  0  0  0
  5  6  1  0  0  0  0
  6  7  2  0  0  0  0
  6 25  1  0  0  0  0
  7  8  1  0  0  0  0
  8 26  1  0  0  0  0
  8 27  1  0  0  0  0
  9  8  1  0  0  0  0
  9 10  1  0  0  0  0
 10 15  1  0  0  0  0
 11 10  2  0  0  0  0
 11 12  1  0  0  0  0
 12 13  2  0  0  0  0
 13 30  1  0  0  0  0
 13 14  1  0  0  0  0
 14 31  1  0  0  0  0
 15 32  1  0  0  0  0
 15 14  2  0  0  0  0
 16 21  1  0  0  0  0
 16  9  1  0  0  0  0
 17 16  2  0  0  0  0
 18 19  2  0  0  0  0
 18 17  1  0  0  0  0
 19 20  1  0  0  0  0
 20 36  1  0  0  0  0
 20 21  2  0  0  0  0
 21 37  1  0  0  0  0
 22  3  1  0  0  0  0
 23  4  1  0  0  0  0
 24  5  1  0  0  0  0
 28 11  1  0  0  0  0
 29 12  1  0  0  0  0
 33 17  1  0  0  0  0
 34 18  1  0  0  0  0
 35 19  1  0  0  0  0
M  END
