1,13
 OpenBabel05122313063D

 15 14  0  0  1  0  0  0  0  0999 V2000
    1.8758   -2.1171    0.1908 S   0  0  0  0  0  1  0  0  0  0  0  0
    2.6950   -0.6365   -0.2982 C   0  0  2  0  0  3  0  0  0  0  0  0
    3.8551   -0.4818    1.8968 C   0  0  0  0  0  0  0  0  0  0  0  0
    2.9170   -0.8727    2.3484 H   0  0  0  0  0  0  0  0  0  0  0  0
    4.1456    0.4222    2.4692 H   0  0  0  0  0  0  0  0  0  0  0  0
    4.9500   -1.5457    1.9793 C   0  0  0  0  0  0  0  0  0  0  0  0
    4.6437   -2.4577    1.4287 H   0  0  0  0  0  0  0  0  0  0  0  0
    5.1377   -1.8309    3.0345 H   0  0  0  0  0  0  0  0  0  0  0  0
    5.8998   -1.1778    1.5414 H   0  0  0  0  0  0  0  0  0  0  0  0
    3.5852   -0.0391    0.5357 N   0  0  0  0  0  0  0  0  0  0  0  0
    3.6838    0.9747    0.3585 H   0  0  0  0  0  0  0  0  0  0  0  0
    2.4745   -0.0266   -1.4683 N   0  0  0  0  0  2  0  0  0  0  0  0
    1.3907   -0.5841   -2.2200 N   0  0  0  0  0  0  0  0  0  0  0  0
    1.1418    0.1309   -2.9192 H   0  0  0  0  0  0  0  0  0  0  0  0
    1.7277   -1.4117   -2.7441 H   0  0  0  0  0  0  0  0  0  0  0  0
  2  1  1  1  0  0  0
  2 10  1  0  0  0  0
  3  6  1  0  0  0  0
  3  4  1  0  0  0  0
  3  5  1  0  0  0  0
  6  8  1  0  0  0  0
  7  6  1  0  0  0  0
  9  6  1  0  0  0  0
 10  3  1  0  0  0  0
 11 10  1  0  0  0  0
 12  2  1  0  0  0  0
 13 12  1  0  0  0  0
 14 13  1  0  0  0  0
 15 13  1  0  0  0  0
M  END
