1,14
 OpenBabel05122313063D

 47 49  0  0  1  0  0  0  0  0999 V2000
    0.8198    0.2394    0.6245 S   0  0  1  0  0  3  0  0  0  0  0  0
    0.4399    0.4534    2.0720 O   0  0  0  0  0  1  0  0  0  0  0  0
    0.6799    1.8775   -0.1994 C   0  0  0  0  0  0  0  0  0  0  0  0
    1.8070    2.7002   -0.3207 C   0  0  0  0  0  0  0  0  0  0  0  0
    2.7919    2.3238   -0.0120 H   0  0  0  0  0  0  0  0  0  0  0  0
    1.6797    3.9988   -0.8387 C   0  0  0  0  0  0  0  0  0  0  0  0
    2.5744    4.6306   -0.9416 H   0  0  0  0  0  0  0  0  0  0  0  0
    0.4198    4.4857   -1.2140 C   0  0  0  0  0  0  0  0  0  0  0  0
    0.3151    5.5036   -1.6171 H   0  0  0  0  0  0  0  0  0  0  0  0
   -0.7115    3.6737   -1.0729 C   0  0  0  0  0  0  0  0  0  0  0  0
   -1.7072    4.0435   -1.3532 H   0  0  0  0  0  0  0  0  0  0  0  0
   -0.6024    2.3584   -0.5726 C   0  0  0  0  0  0  0  0  0  0  0  0
   -1.8329    1.5686   -0.4309 C   0  0  1  0  0  3  0  0  0  0  0  0
   -1.9402    0.2777   -0.3118 N   0  0  0  0  0  2  0  0  0  0  0  0
   -3.3504   -0.0554   -0.0096 C   0  0  2  0  0  0  0  0  0  0  0  0
   -3.6321   -0.9036   -0.6660 H   0  0  0  0  0  0  0  0  0  0  0  0
   -4.0532    1.2529   -0.4204 C   0  0  0  0  0  0  0  0  0  0  0  0
   -4.4663    1.2138   -1.4495 H   0  0  0  0  0  0  0  0  0  0  0  0
   -4.8363    1.5934    0.2805 H   0  0  0  0  0  0  0  0  0  0  0  0
   -2.9913    2.2540   -0.4131 O   0  0  0  0  0  0  0  0  0  0  0  0
   -3.5522   -0.4853    1.4799 C   0  0  0  0  0  0  0  0  0  0  0  0
   -3.1383    0.6405    2.4442 C   0  0  0  0  0  0  0  0  0  0  0  0
   -2.0578    0.8693    2.3470 H   0  0  0  0  0  0  0  0  0  0  0  0
   -3.3103    0.3205    3.4918 H   0  0  0  0  0  0  0  0  0  0  0  0
   -3.7191    1.5730    2.2872 H   0  0  0  0  0  0  0  0  0  0  0  0
   -5.0437   -0.8295    1.6541 C   0  0  0  0  0  0  0  0  0  0  0  0
   -5.7076    0.0406    1.4700 H   0  0  0  0  0  0  0  0  0  0  0  0
   -5.2340   -1.1701    2.6915 H   0  0  0  0  0  0  0  0  0  0  0  0
   -5.3491   -1.6464    0.9684 H   0  0  0  0  0  0  0  0  0  0  0  0
   -2.7152   -1.7432    1.7803 C   0  0  0  0  0  0  0  0  0  0  0  0
   -2.8803   -2.5366    1.0245 H   0  0  0  0  0  0  0  0  0  0  0  0
   -2.9847   -2.1425    2.7793 H   0  0  0  0  0  0  0  0  0  0  0  0
   -1.6309   -1.5124    1.7984 H   0  0  0  0  0  0  0  0  0  0  0  0
    2.5985   -0.0424    0.5469 C   0  0  0  0  0  0  0  0  0  0  0  0
    3.2986    0.0498    1.7538 C   0  0  0  0  0  0  0  0  0  0  0  0
    2.7497    0.2856    2.6775 H   0  0  0  0  0  0  0  0  0  0  0  0
    4.6850   -0.1626    1.7421 C   0  0  0  0  0  0  0  0  0  0  0  0
    5.2498   -0.0925    2.6847 H   0  0  0  0  0  0  0  0  0  0  0  0
    5.3654   -0.4668    0.5457 C   0  0  0  0  0  0  0  0  0  0  0  0
    4.6191   -0.5516   -0.6519 C   0  0  0  0  0  0  0  0  0  0  0  0
    5.1337   -0.7965   -1.5940 H   0  0  0  0  0  0  0  0  0  0  0  0
    3.2343   -0.3561   -0.6645 C   0  0  0  0  0  0  0  0  0  0  0  0
    2.6568   -0.4524   -1.5940 H   0  0  0  0  0  0  0  0  0  0  0  0
    6.8484   -0.7308    0.5403 C   0  0  0  0  0  0  0  0  0  0  0  0
    7.3369   -0.3522    1.4586 H   0  0  0  0  0  0  0  0  0  0  0  0
    7.3418   -0.2656   -0.3364 H   0  0  0  0  0  0  0  0  0  0  0  0
    7.0501   -1.8218    0.4813 H   0  0  0  0  0  0  0  0  0  0  0  0
  1  2  1  1  0  0  0
  3  1  1  0  0  0  0
  4  3  1  0  0  0  0
  4  5  1  0  0  0  0
  6  4  2  0  0  0  0
  7  6  1  0  0  0  0
  8 10  2  0  0  0  0
  8  6  1  0  0  0  0
  9  8  1  0  0  0  0
 10 12  1  0  0  0  0
 11 10  1  0  0  0  0
 12  3  2  0  0  0  0
 13 12  1  1  0  0  0
 13 20  1  0  0  0  0
 13 14  1  0  0  0  0
 14 15  1  0  0  0  0
 15 16  1  6  0  0  0
 15 21  1  0  0  0  0
 17 20  1  0  0  0  0
 17 15  1  0  0  0  0
 17 19  1  0  0  0  0
 18 17  1  0  0  0  0
 21 26  1  0  0  0  0
 21 30  1  0  0  0  0
 21 22  1  0  0  0  0
 22 24  1  0  0  0  0
 23 22  1  0  0  0  0
 25 22  1  0  0  0  0
 26 28  1  0  0  0  0
 27 26  1  0  0  0  0
 29 26  1  0  0  0  0
 30 33  1  0  0  0  0
 30 32  1  0  0  0  0
 31 30  1  0  0  0  0
 34  1  1  0  0  0  0
 34 35  1  0  0  0  0
 35 36  1  0  0  0  0
 37 35  2  0  0  0  0
 37 38  1  0  0  0  0
 39 37  1  0  0  0  0
 40 39  2  0  0  0  0
 41 40  1  0  0  0  0
 42 40  1  0  0  0  0
 42 34  2  0  0  0  0
 43 42  1  0  0  0  0
 44 39  1  0  0  0  0
 44 45  1  0  0  0  0
 46 44  1  0  0  0  0
 47 44  1  0  0  0  0
M  END
