1,3
 OpenBabel05122313063D

 32 33  0  0  0  0  0  0  0  0999 V2000
   -1.1138    2.0710    0.5154 S   0  0  0  0  0  0  0  0  0  0  0  0
    2.5807   -2.7066    0.0199 S   0  0  0  0  0  0  0  0  0  0  0  0
   -0.6173   -0.6913    1.7443 N   0  0  0  0  0  0  0  0  0  0  0  0
   -1.2204   -1.4669    2.0652 H   0  0  0  0  0  0  0  0  0  0  0  0
   -0.6770    0.4481    2.6955 C   0  0  0  0  0  0  0  0  0  0  0  0
   -0.0855    0.2247    3.6135 H   0  0  0  0  0  0  0  0  0  0  0  0
   -1.7362    0.5742    2.9965 H   0  0  0  0  0  0  0  0  0  0  0  0
    1.5391    0.6519   -1.1935 C   0  0  0  0  0  0  0  0  0  0  0  0
    0.6554    0.2170   -1.6909 H   0  0  0  0  0  0  0  0  0  0  0  0
   -0.1493    1.7349    2.0602 C   0  0  0  0  0  0  0  0  0  0  0  0
    0.9222    1.6552    1.7856 H   0  0  0  0  0  0  0  0  0  0  0  0
   -0.2695    2.5914    2.7524 H   0  0  0  0  0  0  0  0  0  0  0  0
    0.8629   -2.3440    0.5310 C   0  0  0  0  0  0  0  0  0  0  0  0
    0.2537   -2.1265   -0.3695 H   0  0  0  0  0  0  0  0  0  0  0  0
    0.4480   -3.2837    0.9466 H   0  0  0  0  0  0  0  0  0  0  0  0
    0.1538    2.7043   -0.7051 C   0  0  0  0  0  0  0  0  0  0  0  0
   -0.4165    2.5552   -1.6464 H   0  0  0  0  0  0  0  0  0  0  0  0
    0.2736    3.7869   -0.5061 H   0  0  0  0  0  0  0  0  0  0  0  0
    1.4530    1.9620   -0.6724 C   0  0  0  0  0  0  0  0  0  0  0  0
    2.7322   -1.5677   -1.4268 C   0  0  0  0  0  0  0  0  0  0  0  0
    3.7028   -1.8494   -1.8829 H   0  0  0  0  0  0  0  0  0  0  0  0
    1.9282   -1.8081   -2.1511 H   0  0  0  0  0  0  0  0  0  0  0  0
    0.7700   -1.1964    1.5390 C   0  0  0  0  0  0  0  0  0  0  0  0
    1.1878   -1.5139    2.5214 H   0  0  0  0  0  0  0  0  0  0  0  0
    1.3834   -0.3487    1.1848 H   0  0  0  0  0  0  0  0  0  0  0  0
    3.8232    0.4674   -0.3903 C   0  0  0  0  0  0  0  0  0  0  0  0
    4.7361   -0.1318   -0.2494 H   0  0  0  0  0  0  0  0  0  0  0  0
    2.7070   -0.1145   -1.0315 C   0  0  0  0  0  0  0  0  0  0  0  0
    2.5777    2.5226   -0.0359 C   0  0  0  0  0  0  0  0  0  0  0  0
    2.5227    3.5477    0.3637 H   0  0  0  0  0  0  0  0  0  0  0  0
    3.7657    1.7812    0.0864 C   0  0  0  0  0  0  0  0  0  0  0  0
    4.6449    2.2302    0.5727 H   0  0  0  0  0  0  0  0  0  0  0  0
  1 10  1  0  0  0  0
  2 13  1  0  0  0  0
  3  4  1  0  0  0  0
  3  5  1  0  0  0  0
  5  7  1  0  0  0  0
  5  6  1  0  0  0  0
  8 28  2  0  0  0  0
  8 19  1  0  0  0  0
  9  8  1  0  0  0  0
 10  5  1  0  0  0  0
 10 12  1  0  0  0  0
 11 10  1  0  0  0  0
 13 15  1  0  0  0  0
 13 23  1  0  0  0  0
 14 13  1  0  0  0  0
 16 19  1  0  0  0  0
 16 18  1  0  0  0  0
 16  1  1  0  0  0  0
 17 16  1  0  0  0  0
 19 29  2  0  0  0  0
 20 28  1  0  0  0  0
 20  2  1  0  0  0  0
 21 20  1  0  0  0  0
 22 20  1  0  0  0  0
 23  3  1  0  0  0  0
 23 24  1  0  0  0  0
 25 23  1  0  0  0  0
 26 27  1  0  0  0  0
 26 31  2  0  0  0  0
 28 26  1  0  0  0  0
 29 31  1  0  0  0  0
 29 30  1  0  0  0  0
 31 32  1  0  0  0  0
M  END
