1,2
 OpenBabel05122313063D

 12 13  0  0  0  0  0  0  0  0999 V2000
    1.1943    2.5498   -0.1673 S   0  0  0  0  0  1  0  0  0  0  0  0
   -1.7590    1.7008   -0.4296 N   0  0  0  0  0  2  0  0  0  0  0  0
   -3.0957    1.6581   -0.8008 C   0  0  0  0  0  3  0  0  0  0  0  0
   -3.7002    0.7530   -0.6742 H   0  0  0  0  0  0  0  0  0  0  0  0
   -1.3903    2.9701   -0.7806 C   0  0  0  0  0  0  0  0  0  0  0  0
   -3.5804    2.7843   -1.3300 N   0  0  0  0  0  0  0  0  0  0  0  0
   -0.1355    3.5695   -0.7669 C   0  0  0  0  0  0  0  0  0  0  0  0
   -0.0091    4.8235   -1.2073 N   0  0  0  0  0  0  0  0  0  0  0  0
   -2.5005    3.6488   -1.3288 C   0  0  0  0  0  0  0  0  0  0  0  0
   -2.3853    4.9174   -1.7784 N   0  0  0  0  0  2  0  0  0  0  0  0
   -1.1462    5.4196   -1.6676 C   0  0  0  0  0  0  0  0  0  0  0  0
   -1.0133    6.4615   -2.0130 H   0  0  0  0  0  0  0  0  0  0  0  0
  3  4  1  0  0  0  0
  3  2  1  0  0  0  0
  5  7  2  0  0  0  0
  5  2  1  0  0  0  0
  6  9  2  0  0  0  0
  6  3  1  0  0  0  0
  7  1  1  0  0  0  0
  8  7  1  0  0  0  0
  9  5  1  0  0  0  0
 10 11  1  0  0  0  0
 10  9  1  0  0  0  0
 11  8  2  0  0  0  0
 12 11  1  0  0  0  0
M  END
