1,4
 OpenBabel05122313063D

 24 24  0  0  1  0  0  0  0  0999 V2000
    0.3445    2.1675   -0.2173 S   0  0  0  0  0  1  0  0  0  0  0  0
    2.0068    2.1018    0.3247 C   0  0  1  0  0  3  0  0  0  0  0  0
    2.6679    0.9595    0.4222 N   0  0  0  0  0  2  0  0  0  0  0  0
    1.9125   -0.1410    0.0847 N   0  0  0  0  0  2  0  0  0  0  0  0
    2.5833   -1.2548   -0.1768 C   0  0  0  0  0  3  0  0  0  0  0  0
    3.9966   -1.4608   -0.1317 C   0  0  0  0  0  0  0  0  0  0  0  0
    4.9136   -0.4899    0.2282 N   0  0  0  0  0  0  0  0  0  0  0  0
    6.1765   -0.9960    0.1821 C   0  0  0  0  0  0  0  0  0  0  0  0
    6.0971   -2.3384   -0.2211 C   0  0  0  0  0  0  0  0  0  0  0  0
    4.7290   -2.6361   -0.4189 C   0  0  0  0  0  0  0  0  0  0  0  0
    4.2932   -3.5914   -0.7328 H   0  0  0  0  0  0  0  0  0  0  0  0
    6.9469   -3.0171   -0.3538 H   0  0  0  0  0  0  0  0  0  0  0  0
    7.0482   -0.3819    0.4345 H   0  0  0  0  0  0  0  0  0  0  0  0
    4.5381    0.4399    0.4793 H   0  0  0  0  0  0  0  0  0  0  0  0
    1.9710   -2.1214   -0.4631 H   0  0  0  0  0  0  0  0  0  0  0  0
    2.6636    3.2561    0.6297 N   0  0  0  0  0  0  0  0  0  0  0  0
    2.1315    4.5917    0.4239 C   0  0  0  0  0  0  0  0  0  0  0  0
    2.2908    5.1151   -1.0061 C   0  0  0  0  0  0  0  0  0  0  0  0
    1.8639    6.1344   -1.0979 H   0  0  0  0  0  0  0  0  0  0  0  0
    1.7586    4.4518   -1.7166 H   0  0  0  0  0  0  0  0  0  0  0  0
    3.3585    5.1621   -1.3031 H   0  0  0  0  0  0  0  0  0  0  0  0
    2.6310    5.2682    1.1488 H   0  0  0  0  0  0  0  0  0  0  0  0
    1.0558    4.5621    0.6985 H   0  0  0  0  0  0  0  0  0  0  0  0
    3.6634    3.1515    0.8125 H   0  0  0  0  0  0  0  0  0  0  0  0
  2  1  1  6  0  0  0
  2  3  1  0  0  0  0
  2 16  1  0  0  0  0
  4  3  1  0  0  0  0
  5  6  1  0  0  0  0
  5  4  1  0  0  0  0
  6  7  1  0  0  0  0
  7 14  1  0  0  0  0
  8  7  1  0  0  0  0
  8 13  1  0  0  0  0
  9  8  2  0  0  0  0
 10  9  1  0  0  0  0
 10  6  2  0  0  0  0
 11 10  1  0  0  0  0
 12  9  1  0  0  0  0
 15  5  1  0  0  0  0
 16 24  1  0  0  0  0
 17 16  1  0  0  0  0
 17 23  1  0  0  0  0
 17 22  1  0  0  0  0
 18 17  1  0  0  0  0
 19 18  1  0  0  0  0
 20 18  1  0  0  0  0
 21 18  1  0  0  0  0
M  END
