1,4
 OpenBabel05122313063D

 24 24  0  0  0  0  0  0  0  0999 V2000
    0.6787   -2.2040   -0.3127 S   0  0  0  0  0  1  0  0  0  0  0  0
    2.3862   -1.8899   -0.0993 C   0  0  0  0  0  0  0  0  0  0  0  0
    2.9109   -0.6779    0.0167 N   0  0  0  0  0  0  0  0  0  0  0  0
    2.0195    0.3586   -0.0097 N   0  0  0  0  0  2  0  0  0  0  0  0
    2.5211    1.5850   -0.0316 C   0  0  0  0  0  3  0  0  0  0  0  0
    3.8981    1.9684   -0.0270 C   0  0  0  0  0  0  0  0  0  0  0  0
    4.9527    1.0750    0.0169 N   0  0  0  0  0  0  0  0  0  0  0  0
    6.1373    1.7464    0.0162 C   0  0  0  0  0  0  0  0  0  0  0  0
    5.8620    3.1220   -0.0301 C   0  0  0  0  0  0  0  0  0  0  0  0
    4.4557    3.2675   -0.0568 C   0  0  0  0  0  0  0  0  0  0  0  0
    3.8825    4.2008   -0.0927 H   0  0  0  0  0  0  0  0  0  0  0  0
    6.6093    3.9231   -0.0428 H   0  0  0  0  0  0  0  0  0  0  0  0
    7.0954    1.2156    0.0480 H   0  0  0  0  0  0  0  0  0  0  0  0
    4.7185    0.0695    0.0481 H   0  0  0  0  0  0  0  0  0  0  0  0
    1.7871    2.4012   -0.0626 H   0  0  0  0  0  0  0  0  0  0  0  0
    3.2477   -2.9466   -0.0580 N   0  0  0  0  0  0  0  0  0  0  0  0
    2.8962   -4.3350   -0.2829 C   0  0  0  0  0  0  0  0  0  0  0  0
    3.8540   -5.2721    0.4449 C   0  0  0  0  0  0  0  0  0  0  0  0
    3.5776   -6.3286    0.2603 H   0  0  0  0  0  0  0  0  0  0  0  0
    3.8348   -5.0916    1.5383 H   0  0  0  0  0  0  0  0  0  0  0  0
    4.8988   -5.1391    0.0923 H   0  0  0  0  0  0  0  0  0  0  0  0
    2.8757   -4.5725   -1.3735 H   0  0  0  0  0  0  0  0  0  0  0  0
    1.8569   -4.4759    0.0819 H   0  0  0  0  0  0  0  0  0  0  0  0
    4.2394   -2.6995   -0.0462 H   0  0  0  0  0  0  0  0  0  0  0  0
  1  2  1  0  0  0  0
  2 16  1  0  0  0  0
  2  3  2  0  0  0  0
  4  3  1  0  0  0  0
  5  6  1  0  0  0  0
  5  4  1  0  0  0  0
  6  7  1  0  0  0  0
  7 14  1  0  0  0  0
  8  7  1  0  0  0  0
  8 13  1  0  0  0  0
  9  8  2  0  0  0  0
 10  9  1  0  0  0  0
 10  6  2  0  0  0  0
 11 10  1  0  0  0  0
 12  9  1  0  0  0  0
 15  5  1  0  0  0  0
 16 24  1  0  0  0  0
 17 16  1  0  0  0  0
 17 23  1  0  0  0  0
 17 18  1  0  0  0  0
 18 20  1  0  0  0  0
 19 18  1  0  0  0  0
 21 18  1  0  0  0  0
 22 17  1  0  0  0  0
M  END
