1,2
 OpenBabel05122313063D

 41 43  0  0  0  0  0  0  0  0999 V2000
   -2.1527   -2.9023   -0.0887 S   0  0  0  0  0  1  0  0  0  0  0  0
   -0.1535   -0.6772   -1.6175 N   0  0  0  0  0  2  0  0  0  0  0  0
   -4.5484    0.2055   -0.1954 N   0  0  0  0  0  0  0  0  0  0  0  0
   -4.1187   -1.0350    0.1495 N   0  0  0  0  0  0  0  0  0  0  0  0
   -1.2523    0.0162   -1.7879 C   0  0  0  0  0  3  0  0  0  0  0  0
   -1.2779    0.7818   -2.5899 H   0  0  0  0  0  0  0  0  0  0  0  0
   -2.4451   -0.1612   -1.0219 C   0  0  0  0  0  0  0  0  0  0  0  0
   -3.5586    0.7523   -0.9085 C   0  0  0  0  0  0  0  0  0  0  0  0
   -4.9749   -1.8967    0.9354 C   0  0  0  0  0  0  0  0  0  0  0  0
   -5.6333   -2.5085    0.2843 H   0  0  0  0  0  0  0  0  0  0  0  0
   -5.5924   -1.2575    1.5908 H   0  0  0  0  0  0  0  0  0  0  0  0
   -4.3376   -2.5678    1.5413 H   0  0  0  0  0  0  0  0  0  0  0  0
   -2.8616   -1.3299   -0.3035 C   0  0  0  0  0  0  0  0  0  0  0  0
   -3.6991    2.1224   -1.4284 C   0  0  0  0  0  0  0  0  0  0  0  0
   -4.9902    2.6219   -1.7219 C   0  0  0  0  0  0  0  0  0  0  0  0
   -5.8537    1.9614   -1.5586 H   0  0  0  0  0  0  0  0  0  0  0  0
   -5.1593    3.9217   -2.2112 C   0  0  0  0  0  0  0  0  0  0  0  0
   -6.1712    4.2908   -2.4383 H   0  0  0  0  0  0  0  0  0  0  0  0
   -4.0450    4.7531   -2.4201 C   0  0  0  0  0  0  0  0  0  0  0  0
   -4.1796    5.7736   -2.8094 H   0  0  0  0  0  0  0  0  0  0  0  0
   -2.7606    4.2750   -2.1205 C   0  0  0  0  0  0  0  0  0  0  0  0
   -1.8824    4.9235   -2.2611 H   0  0  0  0  0  0  0  0  0  0  0  0
   -2.5881    2.9748   -1.6238 C   0  0  0  0  0  0  0  0  0  0  0  0
   -1.5807    2.6342   -1.3479 H   0  0  0  0  0  0  0  0  0  0  0  0
    0.9703   -0.4868   -2.4726 C   0  0  0  0  0  0  0  0  0  0  0  0
    1.3116   -1.5397   -3.3620 C   0  0  0  0  0  0  0  0  0  0  0  0
    2.4686   -1.4000   -4.1484 C   0  0  0  0  0  0  0  0  0  0  0  0
    2.7347   -2.2080   -4.8479 H   0  0  0  0  0  0  0  0  0  0  0  0
    3.2784   -0.2598   -4.0496 C   0  0  0  0  0  0  0  0  0  0  0  0
    4.1876   -0.1727   -4.6636 H   0  0  0  0  0  0  0  0  0  0  0  0
    2.9253    0.7686   -3.1682 C   0  0  0  0  0  0  0  0  0  0  0  0
    3.5599    1.6642   -3.0820 H   0  0  0  0  0  0  0  0  0  0  0  0
    1.7655    0.6838   -2.3730 C   0  0  0  0  0  0  0  0  0  0  0  0
    0.4481   -2.7691   -3.4552 C   0  0  0  0  0  0  0  0  0  0  0  0
    0.7814   -3.4288   -4.2785 H   0  0  0  0  0  0  0  0  0  0  0  0
   -0.6200   -2.5174   -3.6129 H   0  0  0  0  0  0  0  0  0  0  0  0
    0.4956   -3.3520   -2.5108 H   0  0  0  0  0  0  0  0  0  0  0  0
    1.3999    1.8163   -1.4489 C   0  0  0  0  0  0  0  0  0  0  0  0
    0.6302    2.4805   -1.8979 H   0  0  0  0  0  0  0  0  0  0  0  0
    2.2815    2.4445   -1.2221 H   0  0  0  0  0  0  0  0  0  0  0  0
    0.9939    1.4469   -0.4893 H   0  0  0  0  0  0  0  0  0  0  0  0
  3  4  1  0  0  0  0
  4  9  1  0  0  0  0
  5  2  1  0  0  0  0
  5  7  1  0  0  0  0
  6  5  1  0  0  0  0
  7  8  1  0  0  0  0
  7 13  2  0  0  0  0
  8  3  2  0  0  0  0
  9 12  1  0  0  0  0
  9 11  1  0  0  0  0
 10  9  1  0  0  0  0
 13  1  1  0  0  0  0
 13  4  1  0  0  0  0
 14  8  1  0  0  0  0
 15 16  1  0  0  0  0
 15 14  2  0  0  0  0
 17 15  1  0  0  0  0
 18 17  1  0  0  0  0
 19 17  2  0  0  0  0
 19 21  1  0  0  0  0
 20 19  1  0  0  0  0
 21 23  2  0  0  0  0
 22 21  1  0  0  0  0
 23 14  1  0  0  0  0
 23 24  1  0  0  0  0
 25 33  1  0  0  0  0
 25  2  1  0  0  0  0
 26 25  2  0  0  0  0
 27 29  2  0  0  0  0
 27 26  1  0  0  0  0
 28 27  1  0  0  0  0
 29 31  1  0  0  0  0
 30 29  1  0  0  0  0
 31 32  1  0  0  0  0
 31 33  2  0  0  0  0
 33 38  1  0  0  0  0
 34 26  1  0  0  0  0
 34 37  1  0  0  0  0
 35 34  1  0  0  0  0
 36 34  1  0  0  0  0
 38 40  1  0  0  0  0
 38 41  1  0  0  0  0
 39 38  1  0  0  0  0
M  END
