1,4
 OpenBabel05122313063D

 21 21  0  0  1  0  0  0  0  0999 V2000
   -1.6681    1.3654   -1.1451 S   0  0  0  0  0  1  0  0  0  0  0  0
   -4.6399    1.0626   -0.7880 S   0  0  0  0  0  0  0  0  0  0  0  0
   -2.8083   -0.3579    0.5708 N   0  0  0  0  0  0  0  0  0  0  0  0
   -1.5121   -0.6946    0.9011 N   0  0  0  0  0  2  0  0  0  0  0  0
   -2.9870    0.6364   -0.4031 C   0  0  2  0  0  3  0  0  0  0  0  0
   -3.7150   -1.1226    1.3249 C   0  0  1  0  0  3  0  0  0  0  0  0
   -2.9400   -1.9408    2.1289 C   0  0  0  0  0  0  0  0  0  0  0  0
   -3.3213   -2.6714    2.8504 H   0  0  0  0  0  0  0  0  0  0  0  0
   -1.5778   -1.6453    1.8378 C   0  0  0  0  0  0  0  0  0  0  0  0
   -4.4130    2.3479   -2.0400 C   0  0  0  0  0  0  0  0  0  0  0  0
   -5.4420    2.6528   -2.3113 H   0  0  0  0  0  0  0  0  0  0  0  0
   -3.8838    1.9429   -2.9231 H   0  0  0  0  0  0  0  0  0  0  0  0
   -3.8531    3.2048   -1.6200 H   0  0  0  0  0  0  0  0  0  0  0  0
   -5.2019   -1.0520    1.2587 C   0  0  0  0  0  0  0  0  0  0  0  0
   -5.6178   -1.7874    1.9717 H   0  0  0  0  0  0  0  0  0  0  0  0
   -5.5925   -1.2949    0.2499 H   0  0  0  0  0  0  0  0  0  0  0  0
   -5.5895   -0.0508    1.5359 H   0  0  0  0  0  0  0  0  0  0  0  0
   -0.3336   -2.2304    2.4123 C   0  0  0  0  0  0  0  0  0  0  0  0
    0.5518   -1.6987    2.0146 H   0  0  0  0  0  0  0  0  0  0  0  0
   -0.2475   -3.3074    2.1601 H   0  0  0  0  0  0  0  0  0  0  0  0
   -0.3324   -2.1522    3.5179 H   0  0  0  0  0  0  0  0  0  0  0  0
  2  5  1  0  0  0  0
  3  4  1  0  0  0  0
  3  6  1  0  0  0  0
  4  9  1  0  0  0  0
  5  1  1  1  0  0  0
  5  3  1  0  0  0  0
  6 14  1  1  0  0  0
  6  7  1  0  0  0  0
  7  8  1  0  0  0  0
  9  7  2  0  0  0  0
  9 18  1  0  0  0  0
 10 13  1  0  0  0  0
 10  2  1  0  0  0  0
 11 10  1  0  0  0  0
 12 10  1  0  0  0  0
 14 17  1  0  0  0  0
 14 15  1  0  0  0  0
 16 14  1  0  0  0  0
 18 21  1  0  0  0  0
 19 18  1  0  0  0  0
 20 18  1  0  0  0  0
M  END
