1,28
 OpenBabel05122313063D

 28 29  0  0  1  0  0  0  0  0999 V2000
    1.4764    1.3329   -0.1335 N   0  0  0  0  0  2  0  0  0  0  0  0
   -3.2472    0.2691   -2.0463 O   0  0  0  0  0  0  0  0  0  0  0  0
   -1.7073   -0.3682    0.4219 C   0  0  0  0  0  0  0  0  0  0  0  0
    0.2231    3.3566   -0.4967 C   0  0  0  0  0  0  0  0  0  0  0  0
   -0.6398    3.8513   -0.9651 H   0  0  0  0  0  0  0  0  0  0  0  0
   -1.1166   -0.5600    1.6824 C   0  0  0  0  0  0  0  0  0  0  0  0
   -0.0311   -0.7462    1.7327 H   0  0  0  0  0  0  0  0  0  0  0  0
   -3.1139   -0.1804    0.3239 C   0  0  0  0  0  0  0  0  0  0  0  0
    0.4287    1.9865   -0.7136 C   0  0  1  0  0  3  0  0  0  0  0  0
   -5.1398   -0.1754   -0.9070 O   0  0  0  0  0  0  0  0  0  0  0  0
   -5.4779   -0.0248   -1.8163 H   0  0  0  0  0  0  0  0  0  0  0  0
    2.2134    3.3932    0.8644 C   0  0  0  0  0  0  0  0  0  0  0  0
    2.9530    3.9109    1.4915 H   0  0  0  0  0  0  0  0  0  0  0  0
    2.3543    2.0218    0.6308 C   0  0  0  0  0  0  0  0  0  0  0  0
    3.1819    1.4112    1.0335 H   0  0  0  0  0  0  0  0  0  0  0  0
   -3.7990   -0.0058   -0.9898 C   0  0  0  0  0  0  0  0  0  0  0  0
   -0.4562    1.1867   -1.6195 C   0  0  0  0  0  0  0  0  0  0  0  0
    0.0280    1.0519   -2.6111 H   0  0  0  0  0  0  0  0  0  0  0  0
   -1.4554    1.6272   -1.7831 H   0  0  0  0  0  0  0  0  0  0  0  0
   -1.8965   -0.5320    2.8474 C   0  0  0  0  0  0  0  0  0  0  0  0
   -1.4115   -0.6793    3.8240 H   0  0  0  0  0  0  0  0  0  0  0  0
    1.1247    4.0733    0.3025 C   0  0  0  0  0  0  0  0  0  0  0  0
    0.9767    5.1487    0.4815 H   0  0  0  0  0  0  0  0  0  0  0  0
   -3.2807   -0.3267    2.7626 C   0  0  0  0  0  0  0  0  0  0  0  0
   -3.8979   -0.3054    3.6729 H   0  0  0  0  0  0  0  0  0  0  0  0
   -3.8806   -0.1620    1.5092 C   0  0  0  0  0  0  0  0  0  0  0  0
   -4.9662   -0.0174    1.4255 H   0  0  0  0  0  0  0  0  0  0  0  0
   -0.6552   -0.5583   -1.0448 S   0  0  0  0  0  0  0  0  0  0  0  0
  1 14  1  0  0  0  0
  2 16  2  0  0  0  0
  3  6  1  0  0  0  0
  4 22  2  0  0  0  0
  5  4  1  0  0  0  0
  6  7  1  0  0  0  0
  6 20  2  0  0  0  0
  8  3  2  0  0  0  0
  8 26  1  0  0  0  0
  9 17  1  6  0  0  0
  9  4  1  0  0  0  0
  9  1  1  0  0  0  0
 11 10  1  0  0  0  0
 12 13  1  0  0  0  0
 14 12  2  0  0  0  0
 14 15  1  0  0  0  0
 16 10  1  0  0  0  0
 16  8  1  0  0  0  0
 17 28  1  0  0  0  0
 18 17  1  0  0  0  0
 19 17  1  0  0  0  0
 20 21  1  0  0  0  0
 22 23  1  0  0  0  0
 22 12  1  0  0  0  0
 24 20  1  0  0  0  0
 24 25  1  0  0  0  0
 26 24  2  0  0  0  0
 27 26  1  0  0  0  0
 28  3  1  0  0  0  0
M  END
