1,13
 OpenBabel05122313063D

 40 41  0  0  1  0  0  0  0  0999 V2000
   -0.7149   -2.1597   -0.4805 S   0  0  0  0  0  1  0  0  0  0  0  0
    0.8153   -2.9156   -0.0864 C   0  0  1  0  0  3  0  0  0  0  0  0
    0.8227   -4.2796   -0.0613 N   0  0  0  0  0  0  0  0  0  0  0  0
    2.0209   -5.0980    0.0238 C   0  0  0  0  0  0  0  0  0  0  0  0
    1.6916   -6.1332    0.2475 H   0  0  0  0  0  0  0  0  0  0  0  0
    2.6137   -4.7608    0.8990 H   0  0  0  0  0  0  0  0  0  0  0  0
    2.8897   -5.0674   -1.2364 C   0  0  0  0  0  0  0  0  0  0  0  0
    3.7902   -5.7018   -1.1037 H   0  0  0  0  0  0  0  0  0  0  0  0
    3.2175   -4.0304   -1.4465 H   0  0  0  0  0  0  0  0  0  0  0  0
    2.3316   -5.4414   -2.1184 H   0  0  0  0  0  0  0  0  0  0  0  0
   -0.0592   -4.7241   -0.3150 H   0  0  0  0  0  0  0  0  0  0  0  0
    1.9435   -2.2629    0.1595 N   0  0  0  0  0  2  0  0  0  0  0  0
    1.8457   -0.9095    0.0635 N   0  0  0  0  0  2  0  0  0  0  0  0
    2.9493   -0.1893    0.0060 C   0  0  0  0  0  3  0  0  0  0  0  0
    2.7877    0.8862   -0.1712 H   0  0  0  0  0  0  0  0  0  0  0  0
    4.3490   -0.5411    0.0329 C   0  0  0  0  0  0  0  0  0  0  0  0
    5.2641    0.5050   -0.4739 C   0  0  0  0  0  0  0  0  0  0  0  0
    6.5726   -0.0287   -0.2857 N   0  0  0  0  0  0  0  0  0  0  0  0
    6.4809   -1.2607    0.3661 N   0  0  0  0  0  0  0  0  0  0  0  0
    5.1406   -1.5881    0.5076 C   0  0  0  0  0  0  0  0  0  0  0  0
    4.7801   -2.8940    1.1262 C   0  0  0  0  0  0  0  0  0  0  0  0
    5.1183   -3.7491    0.5024 H   0  0  0  0  0  0  0  0  0  0  0  0
    5.2467   -3.0005    2.1272 H   0  0  0  0  0  0  0  0  0  0  0  0
    3.6796   -2.9436    1.2012 H   0  0  0  0  0  0  0  0  0  0  0  0
    7.4759   -2.2646    0.0014 C   0  0  0  0  0  0  0  0  0  0  0  0
    8.4876   -1.8258    0.0749 H   0  0  0  0  0  0  0  0  0  0  0  0
    7.4103   -3.1061    0.7136 H   0  0  0  0  0  0  0  0  0  0  0  0
    7.3179   -2.6405   -1.0340 H   0  0  0  0  0  0  0  0  0  0  0  0
    7.7367    0.7627   -0.1500 C   0  0  0  0  0  0  0  0  0  0  0  0
    7.9988    1.7573   -1.1151 C   0  0  0  0  0  0  0  0  0  0  0  0
    9.1359    2.5640   -0.9804 C   0  0  0  0  0  0  0  0  0  0  0  0
    9.3328    3.3428   -1.7328 H   0  0  0  0  0  0  0  0  0  0  0  0
   10.0250    2.3819    0.0915 C   0  0  0  0  0  0  0  0  0  0  0  0
    9.7560    1.3941    1.0516 C   0  0  0  0  0  0  0  0  0  0  0  0
   10.4348    1.2537    1.9066 H   0  0  0  0  0  0  0  0  0  0  0  0
    8.6102    0.5936    0.9453 C   0  0  0  0  0  0  0  0  0  0  0  0
    8.3700   -0.1467    1.7219 H   0  0  0  0  0  0  0  0  0  0  0  0
   10.9218    3.0127    0.1821 H   0  0  0  0  0  0  0  0  0  0  0  0
    7.2957    1.8968   -1.9453 H   0  0  0  0  0  0  0  0  0  0  0  0
    5.0251    1.6187   -0.9247 O   0  0  0  0  0  0  0  0  0  0  0  0
  2  1  1  6  0  0  0
  2  3  1  0  0  0  0
  2 12  1  0  0  0  0
  3  4  1  0  0  0  0
  4  5  1  0  0  0  0
  4  6  1  0  0  0  0
  7  8  1  0  0  0  0
  7  4  1  0  0  0  0
  9  7  1  0  0  0  0
 10  7  1  0  0  0  0
 11  3  1  0  0  0  0
 13 12  1  0  0  0  0
 14 16  1  0  0  0  0
 14 13  1  0  0  0  0
 15 14  1  0  0  0  0
 16 20  2  0  0  0  0
 17 18  1  0  0  0  0
 17 16  1  0  0  0  0
 18 29  1  0  0  0  0
 18 19  1  0  0  0  0
 19 20  1  0  0  0  0
 20 21  1  0  0  0  0
 21 24  1  0  0  0  0
 21 23  1  0  0  0  0
 22 21  1  0  0  0  0
 25 26  1  0  0  0  0
 25 19  1  0  0  0  0
 25 27  1  0  0  0  0
 28 25  1  0  0  0  0
 29 36  1  0  0  0  0
 30 31  1  0  0  0  0
 30 29  2  0  0  0  0
 31 33  2  0  0  0  0
 32 31  1  0  0  0  0
 33 38  1  0  0  0  0
 33 34  1  0  0  0  0
 34 35  1  0  0  0  0
 36 34  2  0  0  0  0
 36 37  1  0  0  0  0
 39 30  1  0  0  0  0
 40 17  2  0  0  0  0
M  END
