1,7
 OpenBabel05122313063D

 22 22  0  0  1  0  0  0  0  0999 V2000
   -2.7261    0.5731   -0.9339 S   0  0  0  0  0  1  0  0  0  0  0  0
    3.4877   -1.3276   -0.4072 S   0  0  0  0  0  0  0  0  0  0  0  0
   -0.4518   -1.2566   -0.5813 N   0  0  0  0  0  0  0  0  0  0  0  0
    1.7847   -0.8522   -0.2989 C   0  0  2  0  0  3  0  0  0  0  0  0
   -1.6307   -1.8494   -0.4249 N   0  0  0  0  0  0  0  0  0  0  0  0
   -1.7046   -2.6812    0.1803 H   0  0  0  0  0  0  0  0  0  0  0  0
    1.5329    0.4166   -0.2476 N   0  0  0  0  0  2  0  0  0  0  0  0
   -2.7743   -1.0591   -0.5688 C   0  0  1  0  0  3  0  0  0  0  0  0
    0.6693   -1.8188   -0.2420 C   0  0  0  0  0  0  0  0  0  0  0  0
   -3.9299   -1.7391   -0.3794 N   0  0  0  0  0  0  0  0  0  0  0  0
   -3.9693   -2.7595   -0.3582 H   0  0  0  0  0  0  0  0  0  0  0  0
   -4.8016   -1.2139   -0.4338 H   0  0  0  0  0  0  0  0  0  0  0  0
    0.8151   -3.1839    0.3562 C   0  0  0  0  0  0  0  0  0  0  0  0
    0.4456   -3.1419    1.4063 H   0  0  0  0  0  0  0  0  0  0  0  0
    1.8724   -3.5054    0.3878 H   0  0  0  0  0  0  0  0  0  0  0  0
    0.2301   -3.9471   -0.1975 H   0  0  0  0  0  0  0  0  0  0  0  0
    2.7058    1.2543   -0.4295 C   0  0  0  0  0  0  0  0  0  0  0  0
    2.5906    2.1783    0.1720 H   0  0  0  0  0  0  0  0  0  0  0  0
    2.7303    1.5774   -1.4953 H   0  0  0  0  0  0  0  0  0  0  0  0
    3.9519    0.4301   -0.0537 C   0  0  0  0  0  0  0  0  0  0  0  0
    4.1984    0.5039    1.0248 H   0  0  0  0  0  0  0  0  0  0  0  0
    4.8458    0.6935   -0.6491 H   0  0  0  0  0  0  0  0  0  0  0  0
  2  4  1  0  0  0  0
  2 20  1  0  0  0  0
  3  5  1  0  0  0  0
  3  9  2  0  0  0  0
  4  7  1  0  0  0  0
  4  9  1  1  0  0  0
  5  6  1  0  0  0  0
  8  1  1  1  0  0  0
  8  5  1  0  0  0  0
  8 10  1  0  0  0  0
  9 13  1  0  0  0  0
 10 11  1  0  0  0  0
 12 10  1  0  0  0  0
 13 15  1  0  0  0  0
 13 14  1  0  0  0  0
 16 13  1  0  0  0  0
 17  7  1  0  0  0  0
 17 20  1  0  0  0  0
 17 18  1  0  0  0  0
 19 17  1  0  0  0  0
 20 21  1  0  0  0  0
 22 20  1  0  0  0  0
M  END
