3,6
 OpenBabel05122313063D

 39 38  0  0  1  0  0  0  0  0999 V2000
    2.9418    1.3534    0.0866 P   0  0  0  0  0  4  0  0  0  0  0  0
    4.8536    0.9574   -0.1755 S   0  0  0  0  0  1  0  0  0  0  0  0
    0.6453   -2.1580   -0.1551 S   0  0  0  0  0  1  0  0  0  0  0  0
    2.5398    2.0784    1.4838 O   0  0  0  0  0  0  0  0  0  0  0  0
    2.3015    2.4968   -0.8679 O   0  0  0  0  0  0  0  0  0  0  0  0
    1.9063    0.0250   -0.0251 N   0  0  0  0  0  2  0  0  0  0  0  0
    3.3550   -1.8393   -0.4192 N   0  0  0  0  0  0  0  0  0  0  0  0
    4.1582   -1.1778   -0.3850 H   0  0  0  0  0  0  0  0  0  0  0  0
    2.1545   -1.2905   -0.2105 C   0  0  2  0  0  3  0  0  0  0  0  0
    2.6827    1.3016    2.7116 C   0  0  0  0  0  0  0  0  0  0  0  0
    3.1804    0.3364    2.4605 H   0  0  0  0  0  0  0  0  0  0  0  0
    1.2866    1.0273    3.2514 C   0  0  0  0  0  0  0  0  0  0  0  0
    0.6805    0.5253    2.4699 H   0  0  0  0  0  0  0  0  0  0  0  0
    1.3304    0.3824    4.1517 H   0  0  0  0  0  0  0  0  0  0  0  0
    0.7775    1.9768    3.5123 H   0  0  0  0  0  0  0  0  0  0  0  0
    3.5861    2.0912    3.6460 C   0  0  0  0  0  0  0  0  0  0  0  0
    4.5776    2.2457    3.1778 H   0  0  0  0  0  0  0  0  0  0  0  0
    3.1402    3.0825    3.8643 H   0  0  0  0  0  0  0  0  0  0  0  0
    3.7240    1.5490    4.6029 H   0  0  0  0  0  0  0  0  0  0  0  0
    2.5714    2.5618   -2.2964 C   0  0  0  0  0  0  0  0  0  0  0  0
    3.6665    2.7260   -2.4149 H   0  0  0  0  0  0  0  0  0  0  0  0
    2.1731    1.2703   -3.0047 C   0  0  0  0  0  0  0  0  0  0  0  0
    2.8199    0.4259   -2.6941 H   0  0  0  0  0  0  0  0  0  0  0  0
    1.1208    1.0080   -2.7762 H   0  0  0  0  0  0  0  0  0  0  0  0
    2.2819    1.3939   -4.1007 H   0  0  0  0  0  0  0  0  0  0  0  0
    1.7976    3.7764   -2.7861 C   0  0  0  0  0  0  0  0  0  0  0  0
    2.0956    4.6804   -2.2208 H   0  0  0  0  0  0  0  0  0  0  0  0
    1.9927    3.9496   -3.8628 H   0  0  0  0  0  0  0  0  0  0  0  0
    0.7105    3.6157   -2.6378 H   0  0  0  0  0  0  0  0  0  0  0  0
    3.5907   -3.2781   -0.5394 C   0  0  0  0  0  0  0  0  0  0  0  0
    2.6726   -3.7016   -1.0035 H   0  0  0  0  0  0  0  0  0  0  0  0
    4.7798   -3.5145   -1.4709 C   0  0  0  0  0  0  0  0  0  0  0  0
    4.6053   -3.0587   -2.4653 H   0  0  0  0  0  0  0  0  0  0  0  0
    5.7080   -3.0761   -1.0475 H   0  0  0  0  0  0  0  0  0  0  0  0
    4.9530   -4.5994   -1.6089 H   0  0  0  0  0  0  0  0  0  0  0  0
    3.7747   -3.9192    0.8420 C   0  0  0  0  0  0  0  0  0  0  0  0
    2.8848   -3.7278    1.4736 H   0  0  0  0  0  0  0  0  0  0  0  0
    3.9052   -5.0162    0.7506 H   0  0  0  0  0  0  0  0  0  0  0  0
    4.6680   -3.5045    1.3531 H   0  0  0  0  0  0  0  0  0  0  0  0
  1  4  1  0  0  0  0
  2  1  1  0  0  0  0
  4 10  1  0  0  0  0
  5  1  1  0  0  0  0
  6  1  1  0  0  0  0
  7  8  1  0  0  0  0
  7  9  1  0  0  0  0
  9  3  1  6  0  0  0
  9  6  1  0  0  0  0
 10 12  1  0  0  0  0
 10 16  1  0  0  0  0
 11 10  1  0  0  0  0
 12 15  1  0  0  0  0
 12 14  1  0  0  0  0
 13 12  1  0  0  0  0
 16 18  1  0  0  0  0
 16 19  1  0  0  0  0
 17 16  1  0  0  0  0
 20  5  1  0  0  0  0
 21 20  1  0  0  0  0
 22 24  1  0  0  0  0
 22 23  1  0  0  0  0
 22 20  1  0  0  0  0
 25 22  1  0  0  0  0
 26 29  1  0  0  0  0
 26 20  1  0  0  0  0
 26 27  1  0  0  0  0
 28 26  1  0  0  0  0
 30  7  1  0  0  0  0
 30 36  1  0  0  0  0
 31 30  1  0  0  0  0
 32 34  1  0  0  0  0
 32 30  1  0  0  0  0
 33 32  1  0  0  0  0
 35 32  1  0  0  0  0
 36 39  1  0  0  0  0
 36 37  1  0  0  0  0
 38 36  1  0  0  0  0
M  END
