1,5
 OpenBabel05122313063D

 30 31  0  0  1  0  0  0  0  0999 V2000
    0.9909    1.7463   -0.9071 S   0  0  0  0  0  1  0  0  0  0  0  0
    4.7853   -1.9706   -0.2373 S   0  0  0  0  0  0  0  0  0  0  0  0
    3.5729    2.2178   -0.4907 N   0  0  0  0  0  0  0  0  0  0  0  0
    3.2455    3.0830   -0.9241 H   0  0  0  0  0  0  0  0  0  0  0  0
    1.7445   -0.7612    0.0375 N   0  0  0  0  0  2  0  0  0  0  0  0
    2.8561    0.0356    0.0274 N   0  0  0  0  0  2  0  0  0  0  0  0
    3.3384   -4.1570   -0.1545 C   0  0  0  0  0  0  0  0  0  0  0  0
    3.2181   -2.7499   -0.1097 C   0  0  0  0  0  0  0  0  0  0  0  0
    4.9214    2.2154   -0.1001 C   0  0  0  0  0  0  0  0  0  0  0  0
    1.9691   -2.0649   -0.0115 C   0  0  0  0  0  3  0  0  0  0  0  0
    1.0640   -2.6894    0.0099 H   0  0  0  0  0  0  0  0  0  0  0  0
    2.5973    1.2612   -0.3857 C   0  0  2  0  0  3  0  0  0  0  0  0
    5.4699    1.2585    0.7801 C   0  0  0  0  0  0  0  0  0  0  0  0
    4.8301    0.4576    1.1672 H   0  0  0  0  0  0  0  0  0  0  0  0
    6.8215    1.3428    1.1386 C   0  0  0  0  0  0  0  0  0  0  0  0
    7.2359    0.5874    1.8240 H   0  0  0  0  0  0  0  0  0  0  0  0
    4.6935   -4.5652   -0.2911 C   0  0  0  0  0  0  0  0  0  0  0  0
    5.0044   -5.6182   -0.3442 H   0  0  0  0  0  0  0  0  0  0  0  0
    5.7452    3.2535   -0.5940 C   0  0  0  0  0  0  0  0  0  0  0  0
    5.3197    4.0036   -1.2800 H   0  0  0  0  0  0  0  0  0  0  0  0
    5.5788   -3.4998   -0.3507 C   0  0  0  0  0  0  0  0  0  0  0  0
    6.6709   -3.5415   -0.4524 H   0  0  0  0  0  0  0  0  0  0  0  0
    7.0919    3.3275   -0.2216 C   0  0  0  0  0  0  0  0  0  0  0  0
    7.7173    4.1418   -0.6179 H   0  0  0  0  0  0  0  0  0  0  0  0
    2.1720   -5.1029   -0.0843 C   0  0  0  0  0  0  0  0  0  0  0  0
    2.5189   -6.1523   -0.0339 H   0  0  0  0  0  0  0  0  0  0  0  0
    1.5151   -5.0108   -0.9750 H   0  0  0  0  0  0  0  0  0  0  0  0
    1.5360   -4.9131    0.8048 H   0  0  0  0  0  0  0  0  0  0  0  0
    7.6427    2.3686    0.6442 C   0  0  0  0  0  0  0  0  0  0  0  0
    8.7028    2.4232    0.9324 H   0  0  0  0  0  0  0  0  0  0  0  0
  2  8  1  0  0  0  0
  3 12  1  0  0  0  0
  3  9  1  0  0  0  0
  4  3  1  0  0  0  0
  6  5  1  0  0  0  0
  7  8  2  0  0  0  0
  7 25  1  0  0  0  0
  8 10  1  0  0  0  0
  9 13  1  0  0  0  0
 10 11  1  0  0  0  0
 10  5  1  0  0  0  0
 12  1  1  6  0  0  0
 12  6  1  0  0  0  0
 13 15  2  0  0  0  0
 13 14  1  0  0  0  0
 15 16  1  0  0  0  0
 17  7  1  0  0  0  0
 18 17  1  0  0  0  0
 19 23  1  0  0  0  0
 19  9  2  0  0  0  0
 20 19  1  0  0  0  0
 21 17  2  0  0  0  0
 21  2  1  0  0  0  0
 22 21  1  0  0  0  0
 23 29  2  0  0  0  0
 24 23  1  0  0  0  0
 25 26  1  0  0  0  0
 25 28  1  0  0  0  0
 27 25  1  0  0  0  0
 29 30  1  0  0  0  0
 29 15  1  0  0  0  0
M  END
