1,2
 OpenBabel05122313063D

 31 32  0  0  1  0  0  0  0  0999 V2000
    0.2240    1.4845    1.6305 S   0  0  0  0  0  1  0  0  0  0  0  0
    2.4766    0.6122   -0.1348 N   0  0  0  0  0  2  0  0  0  0  0  0
    0.7088    2.9106    0.7070 C   0  0  0  0  0  0  0  0  0  0  0  0
   -0.0772    4.0788    0.8522 C   0  0  0  0  0  0  0  0  0  0  0  0
    0.2136    5.2486    0.1440 C   0  0  0  0  0  0  0  0  0  0  0  0
    1.3133    5.2907   -0.7314 C   0  0  0  0  0  0  0  0  0  0  0  0
    2.1319    4.1640   -0.8513 C   0  0  0  0  0  0  0  0  0  0  0  0
    1.8567    2.9648   -0.1521 C   0  0  0  0  0  0  0  0  0  0  0  0
    2.8428    1.8649   -0.2046 C   0  0  1  0  0  3  0  0  0  0  0  0
    4.3004    2.2477   -0.2810 C   0  0  0  0  0  0  0  0  0  0  0  0
    3.4305   -0.4456   -0.0075 C   0  0  0  0  0  0  0  0  0  0  0  0
    3.6968   -0.9650    1.2723 C   0  0  0  0  0  0  0  0  0  0  0  0
    4.6062   -2.0201    1.4177 C   0  0  0  0  0  0  0  0  0  0  0  0
    5.2546   -2.5882    0.3018 C   0  0  0  0  0  0  0  0  0  0  0  0
    4.9632   -2.0569   -0.9711 C   0  0  0  0  0  0  0  0  0  0  0  0
    4.0574   -1.0015   -1.1359 C   0  0  0  0  0  0  0  0  0  0  0  0
    6.1991   -3.7532    0.4598 C   0  0  0  0  0  0  0  0  0  0  0  0
   -0.9544    4.0297    1.5137 H   0  0  0  0  0  0  0  0  0  0  0  0
   -0.4356    6.1301    0.2617 H   0  0  0  0  0  0  0  0  0  0  0  0
    1.5350    6.1985   -1.3113 H   0  0  0  0  0  0  0  0  0  0  0  0
    3.0037    4.2052   -1.5208 H   0  0  0  0  0  0  0  0  0  0  0  0
    4.5066    3.1277    0.3567 H   0  0  0  0  0  0  0  0  0  0  0  0
    4.5611    2.5286   -1.3235 H   0  0  0  0  0  0  0  0  0  0  0  0
    4.9561    1.4080    0.0095 H   0  0  0  0  0  0  0  0  0  0  0  0
    3.1821   -0.5278    2.1403 H   0  0  0  0  0  0  0  0  0  0  0  0
    4.8154   -2.4147    2.4246 H   0  0  0  0  0  0  0  0  0  0  0  0
    5.4508   -2.4868   -1.8603 H   0  0  0  0  0  0  0  0  0  0  0  0
    3.8108   -0.6151   -2.1335 H   0  0  0  0  0  0  0  0  0  0  0  0
    6.9944   -3.7426   -0.3118 H   0  0  0  0  0  0  0  0  0  0  0  0
    6.6837   -3.7556    1.4561 H   0  0  0  0  0  0  0  0  0  0  0  0
    5.6595   -4.7195    0.3564 H   0  0  0  0  0  0  0  0  0  0  0  0
  2 11  1  0  0  0  0
  3  4  1  0  0  0  0
  3  1  1  0  0  0  0
  4 18  1  0  0  0  0
  5 19  1  0  0  0  0
  5  4  2  0  0  0  0
  6  5  1  0  0  0  0
  7  6  2  0  0  0  0
  7  8  1  0  0  0  0
  8  3  2  0  0  0  0
  9  8  1  0  0  0  0
  9  2  1  1  0  0  0
 10  9  1  0  0  0  0
 10 24  1  0  0  0  0
 10 22  1  0  0  0  0
 11 12  1  0  0  0  0
 12 13  2  0  0  0  0
 12 25  1  0  0  0  0
 13 26  1  0  0  0  0
 14 17  1  0  0  0  0
 14 13  1  0  0  0  0
 15 14  2  0  0  0  0
 16 15  1  0  0  0  0
 16 11  2  0  0  0  0
 17 30  1  0  0  0  0
 20  6  1  0  0  0  0
 21  7  1  0  0  0  0
 23 10  1  0  0  0  0
 27 15  1  0  0  0  0
 28 16  1  0  0  0  0
 29 17  1  0  0  0  0
 31 17  1  0  0  0  0
M  END
