2,3
 OpenBabel05122313063D

 42 44  0  0  1  0  0  0  0  0999 V2000
    1.2757   -0.1009   -0.1804 P   0  0  0  0  0  4  0  0  0  0  0  0
    0.2287   -0.8126   -1.7431 S   0  0  0  0  0  1  0  0  0  0  0  0
   -1.4228    0.0676    1.0667 N   0  0  0  0  0  2  0  0  0  0  0  0
    0.8007   -0.7641    1.3351 N   0  0  0  0  0  0  0  0  0  0  0  0
   -0.4058   -0.3139    1.9081 C   0  0  1  0  0  3  0  0  0  0  0  0
   -0.5445   -0.2224    3.3036 C   0  0  0  0  0  0  0  0  0  0  0  0
    0.2982   -0.5327    3.9366 H   0  0  0  0  0  0  0  0  0  0  0  0
   -1.7247    0.2697    3.8713 C   0  0  0  0  0  0  0  0  0  0  0  0
   -1.8388    0.3283    4.9628 H   0  0  0  0  0  0  0  0  0  0  0  0
   -2.7352    0.7228    3.0038 C   0  0  0  0  0  0  0  0  0  0  0  0
   -3.6720    1.1536    3.3839 H   0  0  0  0  0  0  0  0  0  0  0  0
   -2.5421    0.6347    1.6313 C   0  0  0  0  0  0  0  0  0  0  0  0
   -3.2931    0.9958    0.9130 H   0  0  0  0  0  0  0  0  0  0  0  0
    3.0350   -0.5435   -0.3496 C   0  0  0  0  0  0  0  0  0  0  0  0
    4.0309    0.2126    0.3055 C   0  0  0  0  0  0  0  0  0  0  0  0
    3.7502    1.0797    0.9216 H   0  0  0  0  0  0  0  0  0  0  0  0
    5.3800   -0.1365    0.1554 C   0  0  0  0  0  0  0  0  0  0  0  0
    6.1549    0.4548    0.6660 H   0  0  0  0  0  0  0  0  0  0  0  0
    5.7429   -1.2290   -0.6500 C   0  0  0  0  0  0  0  0  0  0  0  0
    6.8037   -1.4975   -0.7667 H   0  0  0  0  0  0  0  0  0  0  0  0
    4.7528   -1.9739   -1.3118 C   0  0  0  0  0  0  0  0  0  0  0  0
    5.0342   -2.8257   -1.9488 H   0  0  0  0  0  0  0  0  0  0  0  0
    3.4007   -1.6360   -1.1642 C   0  0  0  0  0  0  0  0  0  0  0  0
    2.6162   -2.2132   -1.6777 H   0  0  0  0  0  0  0  0  0  0  0  0
    1.1627    1.6917    0.0533 C   0  0  0  0  0  0  0  0  0  0  0  0
    0.9761    2.5112   -1.0764 C   0  0  0  0  0  0  0  0  0  0  0  0
    0.8108    2.0485   -2.0604 H   0  0  0  0  0  0  0  0  0  0  0  0
    0.9755    3.9042   -0.9275 C   0  0  0  0  0  0  0  0  0  0  0  0
    0.8158    4.5425   -1.8089 H   0  0  0  0  0  0  0  0  0  0  0  0
    1.1562    4.4798    0.3402 C   0  0  0  0  0  0  0  0  0  0  0  0
    1.1475    5.5745    0.4528 H   0  0  0  0  0  0  0  0  0  0  0  0
    1.3373    3.6616    1.4675 C   0  0  0  0  0  0  0  0  0  0  0  0
    1.4685    4.1114    2.4632 H   0  0  0  0  0  0  0  0  0  0  0  0
    1.3440    2.2664    1.3301 C   0  0  0  0  0  0  0  0  0  0  0  0
    1.4778    1.6238    2.2119 H   0  0  0  0  0  0  0  0  0  0  0  0
    1.3776   -2.0422    1.8034 C   0  0  0  0  0  0  0  0  0  0  0  0
    1.4405   -1.9997    2.9108 H   0  0  0  0  0  0  0  0  0  0  0  0
    2.4254   -2.0791    1.4472 H   0  0  0  0  0  0  0  0  0  0  0  0
    0.5980   -3.2694    1.3454 C   0  0  0  0  0  0  0  0  0  0  0  0
    0.5610   -3.3289    0.2399 H   0  0  0  0  0  0  0  0  0  0  0  0
   -0.4514   -3.2367    1.6983 H   0  0  0  0  0  0  0  0  0  0  0  0
    1.0725   -4.1913    1.7381 H   0  0  0  0  0  0  0  0  0  0  0  0
  1 25  1  0  0  0  0
  1  4  1  0  0  0  0
  2  1  1  0  0  0  0
  3 12  1  0  0  0  0
  3  5  1  0  0  0  0
  4 36  1  0  0  0  0
  5  4  1  6  0  0  0
  5  6  1  0  0  0  0
  6  8  2  0  0  0  0
  6  7  1  0  0  0  0
  8  9  1  0  0  0  0
 10 11  1  0  0  0  0
 10  8  1  0  0  0  0
 12 10  2  0  0  0  0
 13 12  1  0  0  0  0
 14  1  1  0  0  0  0
 14 15  1  0  0  0  0
 15 16  1  0  0  0  0
 17 15  2  0  0  0  0
 17 18  1  0  0  0  0
 19 17  1  0  0  0  0
 20 19  1  0  0  0  0
 21 23  1  0  0  0  0
 21 19  2  0  0  0  0
 22 21  1  0  0  0  0
 23 14  2  0  0  0  0
 24 23  1  0  0  0  0
 25 34  1  0  0  0  0
 26 28  1  0  0  0  0
 26 25  2  0  0  0  0
 27 26  1  0  0  0  0
 28 30  2  0  0  0  0
 29 28  1  0  0  0  0
 30 31  1  0  0  0  0
 30 32  1  0  0  0  0
 32 33  1  0  0  0  0
 34 32  2  0  0  0  0
 34 35  1  0  0  0  0
 36 37  1  0  0  0  0
 38 36  1  0  0  0  0
 39 41  1  0  0  0  0
 39 42  1  0  0  0  0
 39 36  1  0  0  0  0
 40 39  1  0  0  0  0
M  END
