1,2
 OpenBabel05122313063D

 30 31  0  0  0  0  0  0  0  0999 V2000
   -0.0127    2.2020   -2.5392 S   0  0  0  0  0  1  0  0  0  0  0  0
    1.6744    0.5001   -0.7362 N   0  0  0  0  0  2  0  0  0  0  0  0
    2.0846    1.7889   -0.7456 N   0  0  0  0  0  0  0  0  0  0  0  0
    5.3158    0.6827    1.8269 N   0  0  0  0  0  0  0  0  0  0  0  0
    6.0001    1.3645    2.1498 H   0  0  0  0  0  0  0  0  0  0  0  0
    1.7268    3.9217   -1.5188 N   0  0  0  0  0  0  0  0  0  0  0  0
    1.2249    4.5138   -2.1800 H   0  0  0  0  0  0  0  0  0  0  0  0
    2.3508   -0.3921   -0.0473 C   0  0  0  0  0  3  0  0  0  0  0  0
    1.9415   -1.4134   -0.1268 H   0  0  0  0  0  0  0  0  0  0  0  0
    3.5283   -0.2046    0.7546 C   0  0  0  0  0  0  0  0  0  0  0  0
    4.2059   -1.2626    1.4911 C   0  0  0  0  0  0  0  0  0  0  0  0
    5.3239   -0.6651    2.1524 C   0  0  0  0  0  0  0  0  0  0  0  0
    4.2572    0.9682    0.9987 C   0  0  0  0  0  0  0  0  0  0  0  0
    4.0611    1.9721    0.6149 H   0  0  0  0  0  0  0  0  0  0  0  0
    3.9782   -2.6446    1.6545 C   0  0  0  0  0  0  0  0  0  0  0  0
    3.1273   -3.1348    1.1577 H   0  0  0  0  0  0  0  0  0  0  0  0
    4.8528   -3.3853    2.4573 C   0  0  0  0  0  0  0  0  0  0  0  0
    4.6847   -4.4645    2.5907 H   0  0  0  0  0  0  0  0  0  0  0  0
    5.9536   -2.7722    3.1028 C   0  0  0  0  0  0  0  0  0  0  0  0
    6.6235   -3.3817    3.7275 H   0  0  0  0  0  0  0  0  0  0  0  0
    6.2053   -1.4027    2.9597 C   0  0  0  0  0  0  0  0  0  0  0  0
    7.0608   -0.9247    3.4605 H   0  0  0  0  0  0  0  0  0  0  0  0
    1.3665    2.6047   -1.5159 C   0  0  0  0  0  0  0  0  0  0  0  0
    2.8768    4.4544   -0.8088 C   0  0  0  0  0  0  0  0  0  0  0  0
    2.8847    4.0040    0.2058 H   0  0  0  0  0  0  0  0  0  0  0  0
    2.7112    5.5440   -0.6784 H   0  0  0  0  0  0  0  0  0  0  0  0
    4.2143    4.1942   -1.5091 C   0  0  0  0  0  0  0  0  0  0  0  0
    4.2383    4.6609   -2.5145 H   0  0  0  0  0  0  0  0  0  0  0  0
    4.3757    3.1050   -1.6307 H   0  0  0  0  0  0  0  0  0  0  0  0
    5.0552    4.6113   -0.9177 H   0  0  0  0  0  0  0  0  0  0  0  0
  1 23  1  0  0  0  0
  2  8  1  0  0  0  0
  3  2  1  0  0  0  0
  4  5  1  0  0  0  0
  4 12  1  0  0  0  0
  6 23  1  0  0  0  0
  6 24  1  0  0  0  0
  7  6  1  0  0  0  0
  8 10  1  0  0  0  0
  9  8  1  0  0  0  0
 10 13  2  0  0  0  0
 10 11  1  0  0  0  0
 11 15  2  0  0  0  0
 11 12  1  0  0  0  0
 12 21  2  0  0  0  0
 13  4  1  0  0  0  0
 14 13  1  0  0  0  0
 15 17  1  0  0  0  0
 16 15  1  0  0  0  0
 17 18  1  0  0  0  0
 17 19  2  0  0  0  0
 19 20  1  0  0  0  0
 21 19  1  0  0  0  0
 21 22  1  0  0  0  0
 23  3  2  0  0  0  0
 24 26  1  0  0  0  0
 24 25  1  0  0  0  0
 27 30  1  0  0  0  0
 27 24  1  0  0  0  0
 28 27  1  0  0  0  0
 29 27  1  0  0  0  0
M  END
