1,2
 OpenBabel05122313063D

 26 27  0  0  0  0  0  0  0  0999 V2000
    1.1856   -2.0452    0.3849 S   0  0  0  0  0  1  0  0  0  0  0  0
   -1.2704   -0.8672   -0.5606 N   0  0  0  0  0  2  0  0  0  0  0  0
   -1.4343   -2.2118   -0.3027 C   0  0  0  0  0  0  0  0  0  0  0  0
   -0.3801   -4.3161    0.4549 C   0  0  0  0  0  0  0  0  0  0  0  0
    0.5150   -4.8426    0.8195 H   0  0  0  0  0  0  0  0  0  0  0  0
   -5.6867    1.3517   -0.1086 C   0  0  0  0  0  0  0  0  0  0  0  0
   -6.5547    1.8437   -0.5738 H   0  0  0  0  0  0  0  0  0  0  0  0
   -3.5128    0.2591   -0.3335 C   0  0  0  0  0  0  0  0  0  0  0  0
   -2.6530   -2.9302   -0.4877 C   0  0  0  0  0  0  0  0  0  0  0  0
   -3.5586   -2.4086   -0.8239 H   0  0  0  0  0  0  0  0  0  0  0  0
   -4.6327    0.8927   -0.9107 C   0  0  0  0  0  0  0  0  0  0  0  0
   -4.6757    1.0291   -2.0039 H   0  0  0  0  0  0  0  0  0  0  0  0
   -0.2961   -2.9355    0.1778 C   0  0  0  0  0  0  0  0  0  0  0  0
   -2.3654   -0.1905   -1.2302 C   0  0  0  0  0  0  0  0  0  0  0  0
   -2.7722   -0.8456   -2.0337 H   0  0  0  0  0  0  0  0  0  0  0  0
   -1.9550    0.6904   -1.7660 H   0  0  0  0  0  0  0  0  0  0  0  0
   -5.6366    1.1814    1.2855 C   0  0  0  0  0  0  0  0  0  0  0  0
   -6.4639    1.5402    1.9164 H   0  0  0  0  0  0  0  0  0  0  0  0
   -4.5269    0.5497    1.8663 C   0  0  0  0  0  0  0  0  0  0  0  0
   -4.4800    0.4098    2.9571 H   0  0  0  0  0  0  0  0  0  0  0  0
   -3.4709    0.0907    1.0628 C   0  0  0  0  0  0  0  0  0  0  0  0
   -2.5967   -0.4011    1.5150 H   0  0  0  0  0  0  0  0  0  0  0  0
   -2.7178   -4.2945   -0.2056 C   0  0  0  0  0  0  0  0  0  0  0  0
   -3.6713   -4.8261   -0.3445 H   0  0  0  0  0  0  0  0  0  0  0  0
   -1.5848   -4.9957    0.2650 C   0  0  0  0  0  0  0  0  0  0  0  0
   -1.6511   -6.0713    0.4855 H   0  0  0  0  0  0  0  0  0  0  0  0
  2  3  1  0  0  0  0
  3 13  1  0  0  0  0
  4  5  1  0  0  0  0
  6 17  1  0  0  0  0
  7  6  1  0  0  0  0
  8 21  2  0  0  0  0
  9  3  2  0  0  0  0
  9 23  1  0  0  0  0
 10  9  1  0  0  0  0
 11  8  1  0  0  0  0
 11  6  2  0  0  0  0
 12 11  1  0  0  0  0
 13  1  1  0  0  0  0
 13  4  2  0  0  0  0
 14  2  1  0  0  0  0
 14  8  1  0  0  0  0
 15 14  1  0  0  0  0
 16 14  1  0  0  0  0
 17 19  2  0  0  0  0
 17 18  1  0  0  0  0
 19 20  1  0  0  0  0
 21 22  1  0  0  0  0
 21 19  1  0  0  0  0
 23 25  2  0  0  0  0
 24 23  1  0  0  0  0
 25  4  1  0  0  0  0
 25 26  1  0  0  0  0
M  END
