1,2
 OpenBabel05122313063D

 21 21  0  0  0  0  0  0  0  0999 V2000
    0.6830   -1.9675   -0.8664 S   0  0  0  0  0  0  0  0  0  0  0  0
    1.9138    0.4155    0.0860 N   0  0  0  0  0  2  0  0  0  0  0  0
    2.4275    1.2894    0.9912 C   0  0  0  0  0  3  0  0  0  0  0  0
    1.7007    1.7691    1.6595 H   0  0  0  0  0  0  0  0  0  0  0  0
    3.7914    1.5661    1.0970 C   0  0  0  0  0  0  0  0  0  0  0  0
    4.1334    2.2952    1.8453 H   0  0  0  0  0  0  0  0  0  0  0  0
    4.6950    0.8962    0.2596 C   0  0  0  0  0  0  0  0  0  0  0  0
    5.7766    1.0872    0.3185 H   0  0  0  0  0  0  0  0  0  0  0  0
    4.1798   -0.0457   -0.6405 C   0  0  0  0  0  0  0  0  0  0  0  0
    4.8441   -0.6240   -1.2992 H   0  0  0  0  0  0  0  0  0  0  0  0
    2.7968   -0.2670   -0.7068 C   0  0  0  0  0  0  0  0  0  0  0  0
    2.1998   -1.2795   -1.6328 C   0  0  0  0  0  0  0  0  0  0  0  0
    1.7996   -0.7832   -2.5423 H   0  0  0  0  0  0  0  0  0  0  0  0
    2.9111   -2.0822   -1.9094 H   0  0  0  0  0  0  0  0  0  0  0  0
    1.4185   -3.0690    0.4138 C   0  0  0  0  0  0  0  0  0  0  0  0
    1.9184   -2.4234    1.1635 H   0  0  0  0  0  0  0  0  0  0  0  0
    2.1659   -3.6995   -0.1117 H   0  0  0  0  0  0  0  0  0  0  0  0
    0.3180   -3.8990    1.0613 C   0  0  0  0  0  0  0  0  0  0  0  0
   -0.2362   -4.5031    0.3142 H   0  0  0  0  0  0  0  0  0  0  0  0
    0.7586   -4.5918    1.8066 H   0  0  0  0  0  0  0  0  0  0  0  0
   -0.3875   -3.2320    1.5951 H   0  0  0  0  0  0  0  0  0  0  0  0
  1 15  1  0  0  0  0
  2  3  1  0  0  0  0
  3  5  1  0  0  0  0
  3  4  1  0  0  0  0
  5  6  1  0  0  0  0
  7  8  1  0  0  0  0
  7  5  2  0  0  0  0
  9  7  1  0  0  0  0
 10  9  1  0  0  0  0
 11  9  2  0  0  0  0
 11  2  1  0  0  0  0
 12  1  1  0  0  0  0
 12 11  1  0  0  0  0
 13 12  1  0  0  0  0
 14 12  1  0  0  0  0
 15 18  1  0  0  0  0
 15 16  1  0  0  0  0
 17 15  1  0  0  0  0
 18 21  1  0  0  0  0
 18 20  1  0  0  0  0
 19 18  1  0  0  0  0
M  END
