1,3
 OpenBabel05122313063D

 19 19  0  0  1  0  0  0  0  0999 V2000
    2.0369   -0.0856   -2.3920 S   0  0  0  0  0  1  0  0  0  0  0  0
    3.8811    1.6571   -0.5654 S   0  0  0  0  0  0  0  0  0  0  0  0
    1.2428    1.1156   -0.3121 N   0  0  0  0  0  2  0  0  0  0  0  0
    2.3345    0.9318   -1.0193 C   0  0  2  0  0  3  0  0  0  0  0  0
    4.9067    1.1267   -1.9692 C   0  0  0  0  0  0  0  0  0  0  0  0
    1.1003    1.8809    0.8635 C   0  0  0  0  0  0  0  0  0  0  0  0
    0.3938    3.1009    0.8073 C   0  0  0  0  0  0  0  0  0  0  0  0
    0.1736    3.8337    1.9810 C   0  0  0  0  0  0  0  0  0  0  0  0
    0.6557    3.3598    3.2136 C   0  0  0  0  0  0  0  0  0  0  0  0
    1.3670    2.1497    3.2652 C   0  0  0  0  0  0  0  0  0  0  0  0
    1.5903    1.4058    2.0982 C   0  0  0  0  0  0  0  0  0  0  0  0
    5.9125    1.5489   -1.7837 H   0  0  0  0  0  0  0  0  0  0  0  0
    4.5018    1.5213   -2.9205 H   0  0  0  0  0  0  0  0  0  0  0  0
    4.9659    0.0225   -2.0195 H   0  0  0  0  0  0  0  0  0  0  0  0
    0.0200    3.4435   -0.1683 H   0  0  0  0  0  0  0  0  0  0  0  0
   -0.3850    4.7808    1.9330 H   0  0  0  0  0  0  0  0  0  0  0  0
    0.4763    3.9352    4.1344 H   0  0  0  0  0  0  0  0  0  0  0  0
    1.7451    1.7702    4.2267 H   0  0  0  0  0  0  0  0  0  0  0  0
    2.1277    0.4486    2.1335 H   0  0  0  0  0  0  0  0  0  0  0  0
  3  6  1  0  0  0  0
  4  1  1  1  0  0  0
  4  2  1  0  0  0  0
  4  3  1  0  0  0  0
  5 12  1  0  0  0  0
  5  2  1  0  0  0  0
  6 11  1  0  0  0  0
  7  6  2  0  0  0  0
  7  8  1  0  0  0  0
  8  9  2  0  0  0  0
  9 10  1  0  0  0  0
  9 17  1  0  0  0  0
 10 18  1  0  0  0  0
 11 19  1  0  0  0  0
 11 10  2  0  0  0  0
 13  5  1  0  0  0  0
 14  5  1  0  0  0  0
 15  7  1  0  0  0  0
 16  8  1  0  0  0  0
M  END
