1,4
 OpenBabel05122313063D

 19 20  0  0  1  0  0  0  0  0999 V2000
    0.6123   -2.1132    0.2181 S   0  0  0  0  0  1  0  0  0  0  0  0
    3.3908   -1.1773   -0.1909 S   0  0  0  0  0  0  0  0  0  0  0  0
   -0.0596    2.7586   -0.4352 S   0  0  0  0  0  0  0  0  0  0  0  0
   -0.7704    0.5974    0.9586 N   0  0  0  0  0  2  0  0  0  0  0  0
    1.4568    0.5334    0.1261 N   0  0  1  0  0  0  0  0  0  0  0  0
    1.6843   -0.8324    0.0960 C   0  0  1  0  0  3  0  0  0  0  0  0
    3.8507    0.5867    0.0388 C   0  0  0  0  0  0  0  0  0  0  0  0
    4.1285    0.7546    1.0989 H   0  0  0  0  0  0  0  0  0  0  0  0
    4.7101    0.8332   -0.6114 H   0  0  0  0  0  0  0  0  0  0  0  0
    2.5912    1.3445   -0.3560 C   0  0  0  0  0  0  0  0  0  0  0  0
    2.5488    2.3479    0.1113 H   0  0  0  0  0  0  0  0  0  0  0  0
    2.5162    1.4639   -1.4596 H   0  0  0  0  0  0  0  0  0  0  0  0
    0.2151    1.1459    0.3244 C   0  0  1  0  0  3  0  0  0  0  0  0
   -1.8541    2.5044   -0.0938 C   0  0  0  0  0  0  0  0  0  0  0  0
   -2.3316    3.4819    0.1060 H   0  0  0  0  0  0  0  0  0  0  0  0
   -2.3133    2.0232   -0.9817 H   0  0  0  0  0  0  0  0  0  0  0  0
   -1.8813    1.5449    1.1004 C   0  0  0  0  0  0  0  0  0  0  0  0
   -1.7404    2.0888    2.0626 H   0  0  0  0  0  0  0  0  0  0  0  0
   -2.8388    0.9873    1.1235 H   0  0  0  0  0  0  0  0  0  0  0  0
  2  7  1  0  0  0  0
  2  6  1  0  0  0  0
  3 14  1  0  0  0  0
  4 17  1  0  0  0  0
  5 10  1  6  0  0  0
  5 13  1  0  0  0  0
  6  5  1  0  0  0  0
  6  1  1  6  0  0  0
  7  8  1  0  0  0  0
  9  7  1  0  0  0  0
 10  7  1  0  0  0  0
 10 11  1  0  0  0  0
 12 10  1  0  0  0  0
 13  3  1  6  0  0  0
 13  4  1  0  0  0  0
 14 15  1  0  0  0  0
 14 17  1  0  0  0  0
 16 14  1  0  0  0  0
 17 19  1  0  0  0  0
 17 18  1  0  0  0  0
M  END
