1,2,5
 OpenBabel05122313063D

 79 78  0  0  0  0  0  0  0  0999 V2000
   -2.3407   -0.4312   -0.0818 P   0  0  0  0  0  0  0  0  0  0  0  0
    2.3409   -0.4314    0.0818 P   0  0  0  0  0  0  0  0  0  0  0  0
   -1.5161    2.4691    0.2652 Si  0  0  0  0  0  0  0  0  0  0  0  0
    1.5161    2.4689   -0.2656 Si  0  0  0  0  0  0  0  0  0  0  0  0
    0.0000    1.5351    0.0001 N   0  0  0  0  0  2  0  0  0  0  0  0
   -1.5700    3.0756    2.0580 C   0  0  0  0  0  0  0  0  0  0  0  0
   -0.8734    3.9228    2.2112 H   0  0  0  0  0  0  0  0  0  0  0  0
   -1.2870    2.2671    2.7589 H   0  0  0  0  0  0  0  0  0  0  0  0
   -2.5908    3.4239    2.3196 H   0  0  0  0  0  0  0  0  0  0  0  0
   -1.6670    3.9695   -0.8880 C   0  0  0  0  0  0  0  0  0  0  0  0
   -0.8863    4.7363   -0.7150 H   0  0  0  0  0  0  0  0  0  0  0  0
   -2.6519    4.4543   -0.7220 H   0  0  0  0  0  0  0  0  0  0  0  0
   -1.6180    3.6593   -1.9516 H   0  0  0  0  0  0  0  0  0  0  0  0
   -2.9654    1.3179   -0.1424 C   0  0  0  0  0  0  0  0  0  0  0  0
   -3.8501    1.4800    0.5057 H   0  0  0  0  0  0  0  0  0  0  0  0
   -3.2817    1.5415   -1.1817 H   0  0  0  0  0  0  0  0  0  0  0  0
   -3.0295   -1.2042   -1.7003 C   0  0  0  0  0  0  0  0  0  0  0  0
   -4.5049   -0.8910   -1.9866 C   0  0  0  0  0  0  0  0  0  0  0  0
   -4.7719   -1.2780   -2.9938 H   0  0  0  0  0  0  0  0  0  0  0  0
   -4.7132    0.1979   -1.9904 H   0  0  0  0  0  0  0  0  0  0  0  0
   -5.1886   -1.3666   -1.2599 H   0  0  0  0  0  0  0  0  0  0  0  0
   -2.7932   -2.7240   -1.6695 C   0  0  0  0  0  0  0  0  0  0  0  0
   -2.9268   -3.1396   -2.6914 H   0  0  0  0  0  0  0  0  0  0  0  0
   -3.5188   -3.2390   -1.0098 H   0  0  0  0  0  0  0  0  0  0  0  0
   -1.7689   -2.9634   -1.3195 H   0  0  0  0  0  0  0  0  0  0  0  0
   -2.1549   -0.5930   -2.8151 C   0  0  0  0  0  0  0  0  0  0  0  0
   -2.4623   -1.0128   -3.7972 H   0  0  0  0  0  0  0  0  0  0  0  0
   -1.0819   -0.8169   -2.6431 H   0  0  0  0  0  0  0  0  0  0  0  0
   -2.2569    0.5103   -2.8760 H   0  0  0  0  0  0  0  0  0  0  0  0
   -3.1911   -1.1754    1.4678 C   0  0  0  0  0  0  0  0  0  0  0  0
   -2.6293   -2.5854    1.7246 C   0  0  0  0  0  0  0  0  0  0  0  0
   -2.9625   -2.9324    2.7262 H   0  0  0  0  0  0  0  0  0  0  0  0
   -1.5231   -2.5881    1.6901 H   0  0  0  0  0  0  0  0  0  0  0  0
   -2.9849   -3.3215    0.9806 H   0  0  0  0  0  0  0  0  0  0  0  0
   -2.7490   -0.2717    2.6345 C   0  0  0  0  0  0  0  0  0  0  0  0
   -3.0873   -0.7192    3.5933 H   0  0  0  0  0  0  0  0  0  0  0  0
   -3.1815    0.7458    2.5724 H   0  0  0  0  0  0  0  0  0  0  0  0
   -1.6427   -0.1820    2.6614 H   0  0  0  0  0  0  0  0  0  0  0  0
   -4.7229   -1.2129    1.3962 C   0  0  0  0  0  0  0  0  0  0  0  0
   -5.1328   -1.4921    2.3911 H   0  0  0  0  0  0  0  0  0  0  0  0
   -5.0848   -1.9676    0.6719 H   0  0  0  0  0  0  0  0  0  0  0  0
   -5.1617   -0.2313    1.1232 H   0  0  0  0  0  0  0  0  0  0  0  0
    1.5700    3.0740   -2.0588 C   0  0  0  0  0  0  0  0  0  0  0  0
    1.2867    2.2650   -2.7590 H   0  0  0  0  0  0  0  0  0  0  0  0
    2.5908    3.4219   -2.3209 H   0  0  0  0  0  0  0  0  0  0  0  0
    0.8735    3.9212   -2.2127 H   0  0  0  0  0  0  0  0  0  0  0  0
    1.6671    3.9700    0.8867 C   0  0  0  0  0  0  0  0  0  0  0  0
    0.8864    4.7366    0.7132 H   0  0  0  0  0  0  0  0  0  0  0  0
    2.6520    4.4546    0.7203 H   0  0  0  0  0  0  0  0  0  0  0  0
    1.6182    3.6604    1.9505 H   0  0  0  0  0  0  0  0  0  0  0  0
    2.9655    1.3179    0.1424 C   0  0  0  0  0  0  0  0  0  0  0  0
    3.8499    1.4798   -0.5063 H   0  0  0  0  0  0  0  0  0  0  0  0
    3.2823    1.5417    1.1814 H   0  0  0  0  0  0  0  0  0  0  0  0
    3.0272   -1.2036    1.7016 C   0  0  0  0  0  0  0  0  0  0  0  0
    2.7883   -2.7231    1.6720 C   0  0  0  0  0  0  0  0  0  0  0  0
    2.9188   -3.1378    2.6946 H   0  0  0  0  0  0  0  0  0  0  0  0
    3.5146   -3.2400    1.0145 H   0  0  0  0  0  0  0  0  0  0  0  0
    1.7646   -2.9612    1.3197 H   0  0  0  0  0  0  0  0  0  0  0  0
    4.5029   -0.8926    1.9886 C   0  0  0  0  0  0  0  0  0  0  0  0
    4.7685   -1.2783    2.9967 H   0  0  0  0  0  0  0  0  0  0  0  0
    4.7131    0.1960    1.9907 H   0  0  0  0  0  0  0  0  0  0  0  0
    5.1863   -1.3706    1.2633 H   0  0  0  0  0  0  0  0  0  0  0  0
    2.1528   -0.5900    2.8151 C   0  0  0  0  0  0  0  0  0  0  0  0
    2.4584   -1.0097    3.7978 H   0  0  0  0  0  0  0  0  0  0  0  0
    1.0795   -0.8120    2.6421 H   0  0  0  0  0  0  0  0  0  0  0  0
    2.2567    0.5131    2.8754 H   0  0  0  0  0  0  0  0  0  0  0  0
    3.1934   -1.1759   -1.4665 C   0  0  0  0  0  0  0  0  0  0  0  0
    4.7254   -1.2085   -1.3952 C   0  0  0  0  0  0  0  0  0  0  0  0
    5.1359   -1.4876   -2.3899 H   0  0  0  0  0  0  0  0  0  0  0  0
    5.0898   -1.9613   -0.6701 H   0  0  0  0  0  0  0  0  0  0  0  0
    5.1614   -0.2253   -1.1233 H   0  0  0  0  0  0  0  0  0  0  0  0
    2.7483   -0.2751   -2.6344 C   0  0  0  0  0  0  0  0  0  0  0  0
    3.0882   -0.7227   -3.5926 H   0  0  0  0  0  0  0  0  0  0  0  0
    3.1776    0.7438   -2.5735 H   0  0  0  0  0  0  0  0  0  0  0  0
    1.6418   -0.1889   -2.6614 H   0  0  0  0  0  0  0  0  0  0  0  0
    2.6361   -2.5881   -1.7209 C   0  0  0  0  0  0  0  0  0  0  0  0
    2.9674   -2.9344   -2.7234 H   0  0  0  0  0  0  0  0  0  0  0  0
    1.5301   -2.5953   -1.6824 H   0  0  0  0  0  0  0  0  0  0  0  0
    2.9975   -3.3223   -0.9778 H   0  0  0  0  0  0  0  0  0  0  0  0
  1 30  1  0  0  0  0
  2 51  1  0  0  0  0
  2 54  1  0  0  0  0
  3  6  1  0  0  0  0
  4  5  1  0  0  0  0
  4 51  1  0  0  0  0
  4 47  1  0  0  0  0
  5  3  1  0  0  0  0
  6  7  1  0  0  0  0
  6  9  1  0  0  0  0
  6  8  1  0  0  0  0
 10 12  1  0  0  0  0
 10 11  1  0  0  0  0
 10  3  1  0  0  0  0
 13 10  1  0  0  0  0
 14  1  1  0  0  0  0
 14  3  1  0  0  0  0
 14 15  1  0  0  0  0
 16 14  1  0  0  0  0
 17 22  1  0  0  0  0
 17  1  1  0  0  0  0
 18 17  1  0  0  0  0
 18 21  1  0  0  0  0
 19 18  1  0  0  0  0
 20 18  1  0  0  0  0
 22 25  1  0  0  0  0
 22 24  1  0  0  0  0
 23 22  1  0  0  0  0
 26 28  1  0  0  0  0
 26 17  1  0  0  0  0
 27 26  1  0  0  0  0
 29 26  1  0  0  0  0
 30 31  1  0  0  0  0
 30 35  1  0  0  0  0
 31 32  1  0  0  0  0
 33 31  1  0  0  0  0
 34 31  1  0  0  0  0
 35 38  1  0  0  0  0
 35 36  1  0  0  0  0
 37 35  1  0  0  0  0
 39 30  1  0  0  0  0
 39 40  1  0  0  0  0
 41 39  1  0  0  0  0
 42 39  1  0  0  0  0
 43  4  1  0  0  0  0
 44 43  1  0  0  0  0
 45 43  1  0  0  0  0
 46 43  1  0  0  0  0
 47 50  1  0  0  0  0
 48 47  1  0  0  0  0
 49 47  1  0  0  0  0
 51 53  1  0  0  0  0
 52 51  1  0  0  0  0
 54 59  1  0  0  0  0
 54 63  1  0  0  0  0
 55 54  1  0  0  0  0
 55 56  1  0  0  0  0
 57 55  1  0  0  0  0
 58 55  1  0  0  0  0
 59 61  1  0  0  0  0
 59 60  1  0  0  0  0
 62 59  1  0  0  0  0
 63 66  1  0  0  0  0
 63 64  1  0  0  0  0
 65 63  1  0  0  0  0
 67 68  1  0  0  0  0
 67  2  1  0  0  0  0
 68 71  1  0  0  0  0
 68 70  1  0  0  0  0
 69 68  1  0  0  0  0
 72 74  1  0  0  0  0
 72 67  1  0  0  0  0
 73 72  1  0  0  0  0
 75 72  1  0  0  0  0
 76 78  1  0  0  0  0
 76 67  1  0  0  0  0
 76 79  1  0  0  0  0
 77 76  1  0  0  0  0
M  END
