1,2,3
 OpenBabel05122313063D

 68 67  0  0  0  0  0  0  0  0999 V2000
    2.1995    0.0284    0.2051 P   0  0  0  0  0  0  0  0  0  0  0  0
   -2.1589    0.1030    0.1976 P   0  0  0  0  0  0  0  0  0  0  0  0
    0.0463   -0.1690    2.1035 N   0  0  0  0  0  0  0  0  0  0  0  0
    3.3888   -1.1817   -0.7011 C   0  0  0  0  0  0  0  0  0  0  0  0
   -3.0252   -1.5950   -1.8680 C   0  0  0  0  0  0  0  0  0  0  0  0
   -3.1809   -0.7342   -2.5448 H   0  0  0  0  0  0  0  0  0  0  0  0
   -3.6702   -2.4263   -2.2249 H   0  0  0  0  0  0  0  0  0  0  0  0
   -1.9717   -1.9170   -1.9598 H   0  0  0  0  0  0  0  0  0  0  0  0
   -3.3856   -1.2648   -0.4073 C   0  0  0  0  0  0  0  0  0  0  0  0
    3.2807   -2.5591   -0.0189 C   0  0  0  0  0  0  0  0  0  0  0  0
    3.7332   -2.5626    0.9932 H   0  0  0  0  0  0  0  0  0  0  0  0
    3.8438   -3.2988   -0.6268 H   0  0  0  0  0  0  0  0  0  0  0  0
    2.2383   -2.9165    0.0511 H   0  0  0  0  0  0  0  0  0  0  0  0
    1.2265   -0.8871    2.6281 C   0  0  0  0  0  0  0  0  0  0  0  0
    1.1204   -1.9438    2.3090 H   0  0  0  0  0  0  0  0  0  0  0  0
    1.2457   -0.8595    3.7443 H   0  0  0  0  0  0  0  0  0  0  0  0
    2.8776    1.8418    0.0445 C   0  0  0  0  0  0  0  0  0  0  0  0
    1.8179    2.7017    0.7567 C   0  0  0  0  0  0  0  0  0  0  0  0
    0.8044    2.4135    0.4145 H   0  0  0  0  0  0  0  0  0  0  0  0
    1.9886    3.7762    0.5345 H   0  0  0  0  0  0  0  0  0  0  0  0
    1.8636    2.5897    1.8612 H   0  0  0  0  0  0  0  0  0  0  0  0
   -3.2119    1.8781   -1.7930 C   0  0  0  0  0  0  0  0  0  0  0  0
   -2.3353    1.5812   -2.4001 H   0  0  0  0  0  0  0  0  0  0  0  0
   -3.4748    2.9209   -2.0735 H   0  0  0  0  0  0  0  0  0  0  0  0
   -4.0706    1.2397   -2.0747 H   0  0  0  0  0  0  0  0  0  0  0  0
   -3.1594   -2.5170    0.4617 C   0  0  0  0  0  0  0  0  0  0  0  0
   -2.1037   -2.8407    0.4704 H   0  0  0  0  0  0  0  0  0  0  0  0
   -3.7580   -3.3525    0.0405 H   0  0  0  0  0  0  0  0  0  0  0  0
   -3.5029   -2.3679    1.5057 H   0  0  0  0  0  0  0  0  0  0  0  0
   -2.9074    1.8274   -0.2849 C   0  0  0  0  0  0  0  0  0  0  0  0
    2.9246    2.2422   -1.4397 C   0  0  0  0  0  0  0  0  0  0  0  0
    3.6905    1.6722   -2.0012 H   0  0  0  0  0  0  0  0  0  0  0  0
    3.1916    3.3179   -1.5207 H   0  0  0  0  0  0  0  0  0  0  0  0
    1.9499    2.0965   -1.9418 H   0  0  0  0  0  0  0  0  0  0  0  0
   -2.3789    0.1197    2.0647 C   0  0  0  0  0  0  0  0  0  0  0  0
   -2.3455    1.1780    2.3983 H   0  0  0  0  0  0  0  0  0  0  0  0
   -3.3608   -0.2847    2.3821 H   0  0  0  0  0  0  0  0  0  0  0  0
   -1.2216   -0.6481    2.6856 C   0  0  0  0  0  0  0  0  0  0  0  0
   -1.2149   -0.5393    3.7969 H   0  0  0  0  0  0  0  0  0  0  0  0
   -1.2942   -1.7282    2.4497 H   0  0  0  0  0  0  0  0  0  0  0  0
    4.8645   -0.7578   -0.6819 C   0  0  0  0  0  0  0  0  0  0  0  0
    5.0502    0.1627   -1.2665 H   0  0  0  0  0  0  0  0  0  0  0  0
    5.4736   -1.5649   -1.1428 H   0  0  0  0  0  0  0  0  0  0  0  0
    5.2470   -0.6056    0.3474 H   0  0  0  0  0  0  0  0  0  0  0  0
   -4.1622    2.2119    0.5220 C   0  0  0  0  0  0  0  0  0  0  0  0
   -5.0101    1.5231    0.3700 H   0  0  0  0  0  0  0  0  0  0  0  0
   -4.4968    3.2216    0.1997 H   0  0  0  0  0  0  0  0  0  0  0  0
   -3.9620    2.2757    1.6099 H   0  0  0  0  0  0  0  0  0  0  0  0
    2.8915   -1.2999   -2.1545 C   0  0  0  0  0  0  0  0  0  0  0  0
    1.8634   -1.7048   -2.1934 H   0  0  0  0  0  0  0  0  0  0  0  0
    3.5581   -1.9903   -2.7142 H   0  0  0  0  0  0  0  0  0  0  0  0
    2.8908   -0.3263   -2.6810 H   0  0  0  0  0  0  0  0  0  0  0  0
    2.4907   -0.2729    2.0430 C   0  0  0  0  0  0  0  0  0  0  0  0
    3.3754   -0.9124    2.2266 H   0  0  0  0  0  0  0  0  0  0  0  0
    2.6971    0.7021    2.5291 H   0  0  0  0  0  0  0  0  0  0  0  0
    4.2431    2.1084    0.7025 C   0  0  0  0  0  0  0  0  0  0  0  0
    4.2925    1.7517    1.7510 H   0  0  0  0  0  0  0  0  0  0  0  0
    4.4166    3.2061    0.7294 H   0  0  0  0  0  0  0  0  0  0  0  0
    5.0865    1.6612    0.1492 H   0  0  0  0  0  0  0  0  0  0  0  0
   -1.8153    2.8683    0.0147 C   0  0  0  0  0  0  0  0  0  0  0  0
   -1.4776    2.8384    1.0717 H   0  0  0  0  0  0  0  0  0  0  0  0
   -2.2215    3.8857   -0.1725 H   0  0  0  0  0  0  0  0  0  0  0  0
   -0.9306    2.7199   -0.6297 H   0  0  0  0  0  0  0  0  0  0  0  0
   -4.8734   -0.8961   -0.3018 C   0  0  0  0  0  0  0  0  0  0  0  0
   -5.1698   -0.6271    0.7325 H   0  0  0  0  0  0  0  0  0  0  0  0
   -5.4804   -1.7804   -0.5929 H   0  0  0  0  0  0  0  0  0  0  0  0
   -5.1628   -0.0697   -0.9768 H   0  0  0  0  0  0  0  0  0  0  0  0
    0.1474    0.8314    2.3346 H   0  0  0  0  0  0  0  0  0  0  0  0
  1 53  1  0  0  0  0
  2 35  1  0  0  0  0
  3 68  1  0  0  0  0
  3 14  1  0  0  0  0
  3 38  1  0  0  0  0
  4 41  1  0  0  0  0
  4 10  1  0  0  0  0
  4  1  1  0  0  0  0
  5  9  1  0  0  0  0
  6  5  1  0  0  0  0
  7  5  1  0  0  0  0
  8  5  1  0  0  0  0
  9 64  1  0  0  0  0
  9  2  1  0  0  0  0
  9 26  1  0  0  0  0
 10 13  1  0  0  0  0
 10 11  1  0  0  0  0
 12 10  1  0  0  0  0
 14 16  1  0  0  0  0
 15 14  1  0  0  0  0
 17  1  1  0  0  0  0
 17 56  1  0  0  0  0
 17 18  1  0  0  0  0
 18 21  1  0  0  0  0
 19 18  1  0  0  0  0
 20 18  1  0  0  0  0
 22 30  1  0  0  0  0
 23 22  1  0  0  0  0
 24 22  1  0  0  0  0
 25 22  1  0  0  0  0
 26 27  1  0  0  0  0
 26 29  1  0  0  0  0
 28 26  1  0  0  0  0
 30 60  1  0  0  0  0
 30  2  1  0  0  0  0
 30 45  1  0  0  0  0
 31 17  1  0  0  0  0
 32 31  1  0  0  0  0
 33 31  1  0  0  0  0
 34 31  1  0  0  0  0
 35 37  1  0  0  0  0
 35 36  1  0  0  0  0
 35 38  1  0  0  0  0
 38 39  1  0  0  0  0
 40 38  1  0  0  0  0
 41 44  1  0  0  0  0
 42 41  1  0  0  0  0
 43 41  1  0  0  0  0
 45 48  1  0  0  0  0
 46 45  1  0  0  0  0
 47 45  1  0  0  0  0
 49  4  1  0  0  0  0
 50 49  1  0  0  0  0
 51 49  1  0  0  0  0
 52 49  1  0  0  0  0
 53 54  1  0  0  0  0
 53 55  1  0  0  0  0
 53 14  1  0  0  0  0
 56 58  1  0  0  0  0
 56 57  1  0  0  0  0
 59 56  1  0  0  0  0
 60 61  1  0  0  0  0
 62 60  1  0  0  0  0
 63 60  1  0  0  0  0
 64 65  1  0  0  0  0
 66 64  1  0  0  0  0
 67 64  1  0  0  0  0
M  END
