1,2,5
 OpenBabel05122313063D

 66 66  0  0  1  0  0  0  0  0999 V2000
    2.1571   -0.2170    0.0165 P   0  0  0  0  0  0  0  0  0  0  0  0
   -2.1214   -0.2642   -0.0170 P   0  0  0  0  0  0  0  0  0  0  0  0
   -2.2875    1.4593   -0.1908 N   0  0  0  0  0  0  0  0  0  0  0  0
   -3.1810    1.9544   -0.1819 H   0  0  0  0  0  0  0  0  0  0  0  0
    0.0328    1.5228   -0.0516 N   0  0  0  0  0  2  0  0  0  0  0  0
    2.4103    1.4569    0.0611 N   0  0  0  0  0  2  0  0  0  0  0  0
   -1.1279    2.2350   -0.1261 C   0  0  1  0  0  3  0  0  0  0  0  0
    0.0894    4.3055   -0.0815 C   0  0  0  0  0  0  0  0  0  0  0  0
    0.1050    5.4069   -0.0919 H   0  0  0  0  0  0  0  0  0  0  0  0
   -1.1534    3.6348   -0.1403 C   0  0  0  0  0  0  0  0  0  0  0  0
   -2.1057    4.1786   -0.1994 H   0  0  0  0  0  0  0  0  0  0  0  0
    1.2847    3.6050   -0.0130 C   0  0  0  0  0  0  0  0  0  0  0  0
    2.2577    4.1102    0.0305 H   0  0  0  0  0  0  0  0  0  0  0  0
    1.2828    2.1710    0.0016 C   0  0  0  0  0  0  0  0  0  0  0  0
    2.3366    0.0708   -2.6759 C   0  0  0  0  0  0  0  0  0  0  0  0
    2.7291   -0.2269   -3.6715 H   0  0  0  0  0  0  0  0  0  0  0  0
    2.5427    1.1470   -2.5184 H   0  0  0  0  0  0  0  0  0  0  0  0
    1.2354   -0.0682   -2.6823 H   0  0  0  0  0  0  0  0  0  0  0  0
    3.1605   -2.3753    1.5665 C   0  0  0  0  0  0  0  0  0  0  0  0
    3.4643   -2.7349    2.5731 H   0  0  0  0  0  0  0  0  0  0  0  0
    3.9470   -2.6915    0.8531 H   0  0  0  0  0  0  0  0  0  0  0  0
    2.2125   -2.8830    1.2943 H   0  0  0  0  0  0  0  0  0  0  0  0
    3.0038   -0.7881   -1.5828 C   0  0  0  0  0  0  0  0  0  0  0  0
   -2.9985   -0.6517    1.6233 C   0  0  0  0  0  0  0  0  0  0  0  0
   -3.0308   -0.9237   -1.5431 C   0  0  0  0  0  0  0  0  0  0  0  0
    2.9892   -0.8514    1.5969 C   0  0  0  0  0  0  0  0  0  0  0  0
   -4.3503   -0.1968   -1.8399 C   0  0  0  0  0  0  0  0  0  0  0  0
   -4.7749   -0.5809   -2.7919 H   0  0  0  0  0  0  0  0  0  0  0  0
   -4.1910    0.8921   -1.9730 H   0  0  0  0  0  0  0  0  0  0  0  0
   -5.1119   -0.3502   -1.0525 H   0  0  0  0  0  0  0  0  0  0  0  0
   -3.2508   -2.4360   -1.3879 C   0  0  0  0  0  0  0  0  0  0  0  0
   -3.5735   -2.8640   -2.3605 H   0  0  0  0  0  0  0  0  0  0  0  0
   -4.0383   -2.6721   -0.6453 H   0  0  0  0  0  0  0  0  0  0  0  0
   -2.3145   -2.9481   -1.0856 H   0  0  0  0  0  0  0  0  0  0  0  0
    2.7079   -2.2708   -1.8531 C   0  0  0  0  0  0  0  0  0  0  0  0
    3.0672   -2.5418   -2.8691 H   0  0  0  0  0  0  0  0  0  0  0  0
    1.6186   -2.4685   -1.8000 H   0  0  0  0  0  0  0  0  0  0  0  0
    3.2095   -2.9423   -1.1310 H   0  0  0  0  0  0  0  0  0  0  0  0
    4.5120   -0.5046   -1.5595 C   0  0  0  0  0  0  0  0  0  0  0  0
    4.9375   -0.6635   -2.5740 H   0  0  0  0  0  0  0  0  0  0  0  0
    5.0513   -1.1798   -0.8661 H   0  0  0  0  0  0  0  0  0  0  0  0
    4.7107    0.5438   -1.2605 H   0  0  0  0  0  0  0  0  0  0  0  0
    1.9867   -0.4693    2.7057 C   0  0  0  0  0  0  0  0  0  0  0  0
    2.4003   -0.7491    3.6984 H   0  0  0  0  0  0  0  0  0  0  0  0
    1.0219   -0.9993    2.5653 H   0  0  0  0  0  0  0  0  0  0  0  0
    1.7879    0.6214    2.7082 H   0  0  0  0  0  0  0  0  0  0  0  0
    4.3240   -0.1344    1.8507 C   0  0  0  0  0  0  0  0  0  0  0  0
    4.6786   -0.3657    2.8782 H   0  0  0  0  0  0  0  0  0  0  0  0
    4.1978    0.9613    1.7510 H   0  0  0  0  0  0  0  0  0  0  0  0
    5.1121   -0.4556    1.1440 H   0  0  0  0  0  0  0  0  0  0  0  0
   -4.5122   -0.4051    1.6079 C   0  0  0  0  0  0  0  0  0  0  0  0
   -4.9196   -0.5322    2.6338 H   0  0  0  0  0  0  0  0  0  0  0  0
   -5.0473   -1.1189    0.9514 H   0  0  0  0  0  0  0  0  0  0  0  0
   -4.7656    0.6255    1.2840 H   0  0  0  0  0  0  0  0  0  0  0  0
   -2.0325   -0.6671   -2.6910 C   0  0  0  0  0  0  0  0  0  0  0  0
   -2.4766   -0.9986   -3.6539 H   0  0  0  0  0  0  0  0  0  0  0  0
   -1.0893   -1.2262   -2.5256 H   0  0  0  0  0  0  0  0  0  0  0  0
   -1.7800    0.4089   -2.7779 H   0  0  0  0  0  0  0  0  0  0  0  0
   -2.3225    0.2879    2.6431 C   0  0  0  0  0  0  0  0  0  0  0  0
   -2.6821    0.0403    3.6640 H   0  0  0  0  0  0  0  0  0  0  0  0
   -2.5518    1.3524    2.4427 H   0  0  0  0  0  0  0  0  0  0  0  0
   -1.2192    0.1746    2.6269 H   0  0  0  0  0  0  0  0  0  0  0  0
   -2.6789   -2.1091    2.0028 C   0  0  0  0  0  0  0  0  0  0  0  0
   -3.0169   -2.3028    3.0429 H   0  0  0  0  0  0  0  0  0  0  0  0
   -1.5880   -2.2968    1.9450 H   0  0  0  0  0  0  0  0  0  0  0  0
   -3.1850   -2.8401    1.3444 H   0  0  0  0  0  0  0  0  0  0  0  0
  1  6  1  0  0  0  0
  1 26  1  0  0  0  0
  2 24  1  0  0  0  0
  3  4  1  0  0  0  0
  3  2  1  0  0  0  0
  5 14  1  0  0  0  0
  7  3  1  6  0  0  0
  7  5  1  0  0  0  0
  8 12  1  0  0  0  0
  9  8  1  0  0  0  0
 10  7  1  0  0  0  0
 10  8  2  0  0  0  0
 11 10  1  0  0  0  0
 12 14  2  0  0  0  0
 12 13  1  0  0  0  0
 14  6  1  0  0  0  0
 15 17  1  0  0  0  0
 15 23  1  0  0  0  0
 16 15  1  0  0  0  0
 18 15  1  0  0  0  0
 19 26  1  0  0  0  0
 19 20  1  0  0  0  0
 21 19  1  0  0  0  0
 22 19  1  0  0  0  0
 23 39  1  0  0  0  0
 23  1  1  0  0  0  0
 24 63  1  0  0  0  0
 24 59  1  0  0  0  0
 25 31  1  0  0  0  0
 25  2  1  0  0  0  0
 26 47  1  0  0  0  0
 26 43  1  0  0  0  0
 27 25  1  0  0  0  0
 27 30  1  0  0  0  0
 28 27  1  0  0  0  0
 29 27  1  0  0  0  0
 31 34  1  0  0  0  0
 31 33  1  0  0  0  0
 32 31  1  0  0  0  0
 35 37  1  0  0  0  0
 35 23  1  0  0  0  0
 35 38  1  0  0  0  0
 36 35  1  0  0  0  0
 39 42  1  0  0  0  0
 39 41  1  0  0  0  0
 40 39  1  0  0  0  0
 43 46  1  0  0  0  0
 43 44  1  0  0  0  0
 45 43  1  0  0  0  0
 47 48  1  0  0  0  0
 49 47  1  0  0  0  0
 50 47  1  0  0  0  0
 51 24  1  0  0  0  0
 51 52  1  0  0  0  0
 53 51  1  0  0  0  0
 54 51  1  0  0  0  0
 55 57  1  0  0  0  0
 55 25  1  0  0  0  0
 56 55  1  0  0  0  0
 58 55  1  0  0  0  0
 59 60  1  0  0  0  0
 61 59  1  0  0  0  0
 62 59  1  0  0  0  0
 63 64  1  0  0  0  0
 65 63  1  0  0  0  0
 66 63  1  0  0  0  0
M  END
