1,2,5
 OpenBabel05122313063D

 63 62  0  0  0  0  0  0  0  0999 V2000
    2.3739    0.0007    0.2929 P   0  0  0  0  0  0  0  0  0  0  0  0
   -0.0000   -0.0001    1.9747 N   0  0  0  0  0  2  0  0  0  0  0  0
    2.4123    0.0242    2.0921 C   0  0  0  0  0  0  0  0  0  0  0  0
    3.3404    0.0252    2.6790 H   0  0  0  0  0  0  0  0  0  0  0  0
   -2.3739   -0.0007    0.2929 P   0  0  0  0  0  0  0  0  0  0  0  0
    1.1937    0.0145    2.6936 C   0  0  0  0  0  0  0  0  0  0  0  0
    1.0958    0.0165    3.7938 H   0  0  0  0  0  0  0  0  0  0  0  0
   -1.1937   -0.0148    2.6936 C   0  0  0  0  0  0  0  0  0  0  0  0
   -1.0958   -0.0170    3.7938 H   0  0  0  0  0  0  0  0  0  0  0  0
   -2.4123   -0.0245    2.0921 C   0  0  0  0  0  0  0  0  0  0  0  0
   -3.3404   -0.0255    2.6790 H   0  0  0  0  0  0  0  0  0  0  0  0
   -3.2206   -1.6008   -0.2886 C   0  0  0  0  0  0  0  0  0  0  0  0
   -2.2427   -2.7318    0.0878 C   0  0  0  0  0  0  0  0  0  0  0  0
   -1.2872   -2.6519   -0.4679 H   0  0  0  0  0  0  0  0  0  0  0  0
   -2.7088   -3.7077   -0.1607 H   0  0  0  0  0  0  0  0  0  0  0  0
   -2.0129   -2.7328    1.1723 H   0  0  0  0  0  0  0  0  0  0  0  0
   -4.5541   -1.8179    0.4480 C   0  0  0  0  0  0  0  0  0  0  0  0
   -5.3010   -1.0334    0.2298 H   0  0  0  0  0  0  0  0  0  0  0  0
   -4.4144   -1.8797    1.5447 H   0  0  0  0  0  0  0  0  0  0  0  0
   -4.9849   -2.7857    0.1169 H   0  0  0  0  0  0  0  0  0  0  0  0
   -3.4352   -1.5724   -1.8094 C   0  0  0  0  0  0  0  0  0  0  0  0
   -2.5008   -1.3563   -2.3650 H   0  0  0  0  0  0  0  0  0  0  0  0
   -4.2046   -0.8365   -2.1128 H   0  0  0  0  0  0  0  0  0  0  0  0
   -3.7898   -2.5708   -2.1394 H   0  0  0  0  0  0  0  0  0  0  0  0
    3.1922   -1.6236   -0.2636 C   0  0  0  0  0  0  0  0  0  0  0  0
    2.5180   -2.7242    0.5783 C   0  0  0  0  0  0  0  0  0  0  0  0
    2.8830   -3.7130    0.2317 H   0  0  0  0  0  0  0  0  0  0  0  0
    1.4144   -2.7080    0.4609 H   0  0  0  0  0  0  0  0  0  0  0  0
    2.7539   -2.6295    1.6555 H   0  0  0  0  0  0  0  0  0  0  0  0
    2.9032   -1.8796   -1.7526 C   0  0  0  0  0  0  0  0  0  0  0  0
    3.3027   -1.0905   -2.4160 H   0  0  0  0  0  0  0  0  0  0  0  0
    1.8180   -1.9870   -1.9442 H   0  0  0  0  0  0  0  0  0  0  0  0
    3.3853   -2.8344   -2.0480 H   0  0  0  0  0  0  0  0  0  0  0  0
    4.7059   -1.6034    0.0017 C   0  0  0  0  0  0  0  0  0  0  0  0
    5.1152   -2.6162   -0.1954 H   0  0  0  0  0  0  0  0  0  0  0  0
    4.9479   -1.3503    1.0530 H   0  0  0  0  0  0  0  0  0  0  0  0
    5.2403   -0.8997   -0.6649 H   0  0  0  0  0  0  0  0  0  0  0  0
   -3.1926    1.6233   -0.2634 C   0  0  0  0  0  0  0  0  0  0  0  0
   -2.5187    2.7240    0.5787 C   0  0  0  0  0  0  0  0  0  0  0  0
   -1.4151    2.7081    0.4613 H   0  0  0  0  0  0  0  0  0  0  0  0
   -2.8839    3.7128    0.2321 H   0  0  0  0  0  0  0  0  0  0  0  0
   -2.7547    2.6292    1.6558 H   0  0  0  0  0  0  0  0  0  0  0  0
   -4.7063    1.6028    0.0018 C   0  0  0  0  0  0  0  0  0  0  0  0
   -5.2406    0.8991   -0.6649 H   0  0  0  0  0  0  0  0  0  0  0  0
   -4.9483    1.3495    1.0530 H   0  0  0  0  0  0  0  0  0  0  0  0
   -5.1159    2.6155   -0.1951 H   0  0  0  0  0  0  0  0  0  0  0  0
   -2.9037    1.8797   -1.7524 C   0  0  0  0  0  0  0  0  0  0  0  0
   -1.8185    1.9874   -1.9438 H   0  0  0  0  0  0  0  0  0  0  0  0
   -3.3029    1.0905   -2.4159 H   0  0  0  0  0  0  0  0  0  0  0  0
   -3.3861    2.8343   -2.0477 H   0  0  0  0  0  0  0  0  0  0  0  0
    3.2210    1.6006   -0.2884 C   0  0  0  0  0  0  0  0  0  0  0  0
    2.2433    2.7318    0.0881 C   0  0  0  0  0  0  0  0  0  0  0  0
    2.7097    3.7076   -0.1602 H   0  0  0  0  0  0  0  0  0  0  0  0
    1.2879    2.6523   -0.4676 H   0  0  0  0  0  0  0  0  0  0  0  0
    2.0135    2.7327    1.1726 H   0  0  0  0  0  0  0  0  0  0  0  0
    3.4356    1.5724   -1.8092 C   0  0  0  0  0  0  0  0  0  0  0  0
    4.2049    0.8363   -2.1127 H   0  0  0  0  0  0  0  0  0  0  0  0
    2.5012    1.3566   -2.3649 H   0  0  0  0  0  0  0  0  0  0  0  0
    3.7905    2.5707   -2.1391 H   0  0  0  0  0  0  0  0  0  0  0  0
    4.5545    1.8173    0.4483 C   0  0  0  0  0  0  0  0  0  0  0  0
    4.9856    2.7850    0.1172 H   0  0  0  0  0  0  0  0  0  0  0  0
    4.4148    1.8790    1.5450 H   0  0  0  0  0  0  0  0  0  0  0  0
    5.3013    1.0325    0.2300 H   0  0  0  0  0  0  0  0  0  0  0  0
  1  3  1  0  0  0  0
  2  8  1  0  0  0  0
  2  6  1  0  0  0  0
  3  4  1  0  0  0  0
  3  6  2  0  0  0  0
  5 10  1  0  0  0  0
  6  7  1  0  0  0  0
  8  9  1  0  0  0  0
 10 11  1  0  0  0  0
 10  8  2  0  0  0  0
 12 13  1  0  0  0  0
 12  5  1  0  0  0  0
 12 17  1  0  0  0  0
 13 16  1  0  0  0  0
 14 13  1  0  0  0  0
 15 13  1  0  0  0  0
 17 19  1  0  0  0  0
 18 17  1  0  0  0  0
 20 17  1  0  0  0  0
 21 12  1  0  0  0  0
 22 21  1  0  0  0  0
 23 21  1  0  0  0  0
 24 21  1  0  0  0  0
 25 34  1  0  0  0  0
 25  1  1  0  0  0  0
 25 26  1  0  0  0  0
 26 29  1  0  0  0  0
 27 26  1  0  0  0  0
 28 26  1  0  0  0  0
 30 25  1  0  0  0  0
 31 30  1  0  0  0  0
 32 30  1  0  0  0  0
 33 30  1  0  0  0  0
 34 36  1  0  0  0  0
 35 34  1  0  0  0  0
 37 34  1  0  0  0  0
 38 43  1  0  0  0  0
 38  5  1  0  0  0  0
 38 39  1  0  0  0  0
 39 42  1  0  0  0  0
 40 39  1  0  0  0  0
 41 39  1  0  0  0  0
 43 45  1  0  0  0  0
 44 43  1  0  0  0  0
 46 43  1  0  0  0  0
 47 38  1  0  0  0  0
 48 47  1  0  0  0  0
 49 47  1  0  0  0  0
 50 47  1  0  0  0  0
 51 52  1  0  0  0  0
 51  1  1  0  0  0  0
 51 60  1  0  0  0  0
 52 55  1  0  0  0  0
 53 52  1  0  0  0  0
 54 52  1  0  0  0  0
 56 51  1  0  0  0  0
 57 56  1  0  0  0  0
 58 56  1  0  0  0  0
 59 56  1  0  0  0  0
 60 62  1  0  0  0  0
 61 60  1  0  0  0  0
 63 60  1  0  0  0  0
M  END
