1,2,3
 OpenBabel05122313063D

 61 65  0  0  1  0  0  0  0  0999 V2000
    0.0675    0.1535    1.9794 N   0  0  0  0  0  2  0  0  0  0  0  0
    2.0649    0.1112   -0.1271 P   0  0  0  0  0  0  0  0  0  0  0  0
   -2.0585    0.1260   -0.0370 P   0  0  0  0  0  0  0  0  0  0  0  0
    2.4476   -0.0558    1.7150 C   0  0  0  0  0  0  0  0  0  0  0  0
    2.5362   -1.1541    1.8703 H   0  0  0  0  0  0  0  0  0  0  0  0
    3.4033    0.4195    2.0092 H   0  0  0  0  0  0  0  0  0  0  0  0
    1.2728    0.4666    2.4977 C   0  0  1  0  0  3  0  0  0  0  0  0
    1.3702    1.2513    3.6597 C   0  0  0  0  0  0  0  0  0  0  0  0
    2.3560    1.5143    4.0697 H   0  0  0  0  0  0  0  0  0  0  0  0
    0.1880    1.6919    4.2738 C   0  0  0  0  0  0  0  0  0  0  0  0
    0.2356    2.3088    5.1839 H   0  0  0  0  0  0  0  0  0  0  0  0
   -1.0555    1.3556    3.7164 C   0  0  0  0  0  0  0  0  0  0  0  0
   -1.9951    1.6986    4.1741 H   0  0  0  0  0  0  0  0  0  0  0  0
   -1.0791    0.5748    2.5471 C   0  0  0  0  0  0  0  0  0  0  0  0
   -2.3375    0.1608    1.8248 C   0  0  0  0  0  0  0  0  0  0  0  0
   -3.2203    0.7642    2.1160 H   0  0  0  0  0  0  0  0  0  0  0  0
   -2.5545   -0.9047    2.0591 H   0  0  0  0  0  0  0  0  0  0  0  0
    3.5618   -0.6137   -0.9023 C   0  0  0  0  0  0  0  0  0  0  0  0
    3.7012   -2.0190   -0.8283 C   0  0  0  0  0  0  0  0  0  0  0  0
    2.9267   -2.6223   -0.3229 H   0  0  0  0  0  0  0  0  0  0  0  0
    4.8026   -2.6457   -1.4266 C   0  0  0  0  0  0  0  0  0  0  0  0
    4.9031   -3.7399   -1.3612 H   0  0  0  0  0  0  0  0  0  0  0  0
    5.7608   -1.8876   -2.1206 C   0  0  0  0  0  0  0  0  0  0  0  0
    6.6212   -2.3844   -2.5945 H   0  0  0  0  0  0  0  0  0  0  0  0
    5.6100   -0.4958   -2.2191 C   0  0  0  0  0  0  0  0  0  0  0  0
    6.3496    0.1025   -2.7732 H   0  0  0  0  0  0  0  0  0  0  0  0
    4.5159    0.1423   -1.6137 C   0  0  0  0  0  0  0  0  0  0  0  0
    4.4026    1.2331   -1.7006 H   0  0  0  0  0  0  0  0  0  0  0  0
    2.1953    1.9293   -0.3880 C   0  0  0  0  0  0  0  0  0  0  0  0
    3.2209    2.7284    0.1613 C   0  0  0  0  0  0  0  0  0  0  0  0
    4.0297    2.2652    0.7478 H   0  0  0  0  0  0  0  0  0  0  0  0
    3.2208    4.1161   -0.0420 C   0  0  0  0  0  0  0  0  0  0  0  0
    4.0236    4.7330    0.3903 H   0  0  0  0  0  0  0  0  0  0  0  0
    2.1977    4.7182   -0.7949 C   0  0  0  0  0  0  0  0  0  0  0  0
    2.1990    5.8080   -0.9500 H   0  0  0  0  0  0  0  0  0  0  0  0
    1.1731    3.9309   -1.3418 C   0  0  0  0  0  0  0  0  0  0  0  0
    0.3594    4.3937   -1.9195 H   0  0  0  0  0  0  0  0  0  0  0  0
    1.1702    2.5431   -1.1341 C   0  0  0  0  0  0  0  0  0  0  0  0
    0.3549    1.9208   -1.5347 H   0  0  0  0  0  0  0  0  0  0  0  0
   -3.5677   -0.7350   -0.6354 C   0  0  0  0  0  0  0  0  0  0  0  0
   -3.4439   -2.0979   -0.9750 C   0  0  0  0  0  0  0  0  0  0  0  0
   -2.4597   -2.5908   -0.8903 H   0  0  0  0  0  0  0  0  0  0  0  0
   -4.5717   -2.8151   -1.4033 C   0  0  0  0  0  0  0  0  0  0  0  0
   -4.4693   -3.8793   -1.6649 H   0  0  0  0  0  0  0  0  0  0  0  0
   -5.8185   -2.1782   -1.5038 C   0  0  0  0  0  0  0  0  0  0  0  0
   -6.7000   -2.7420   -1.8460 H   0  0  0  0  0  0  0  0  0  0  0  0
   -5.9421   -0.8182   -1.1711 C   0  0  0  0  0  0  0  0  0  0  0  0
   -6.9189   -0.3168   -1.2510 H   0  0  0  0  0  0  0  0  0  0  0  0
   -4.8218   -0.0963   -0.7356 C   0  0  0  0  0  0  0  0  0  0  0  0
   -4.9179    0.9706   -0.4806 H   0  0  0  0  0  0  0  0  0  0  0  0
   -2.3295    1.8682   -0.5564 C   0  0  0  0  0  0  0  0  0  0  0  0
   -2.5408    2.1306   -1.9299 C   0  0  0  0  0  0  0  0  0  0  0  0
   -2.6282    1.2907   -2.6375 H   0  0  0  0  0  0  0  0  0  0  0  0
   -2.6499    3.4470   -2.3962 C   0  0  0  0  0  0  0  0  0  0  0  0
   -2.8261    3.6326   -3.4669 H   0  0  0  0  0  0  0  0  0  0  0  0
   -2.5361    4.5265   -1.5021 C   0  0  0  0  0  0  0  0  0  0  0  0
   -2.6213    5.5606   -1.8689 H   0  0  0  0  0  0  0  0  0  0  0  0
   -2.3100    4.2762   -0.1406 C   0  0  0  0  0  0  0  0  0  0  0  0
   -2.2113    5.1143    0.5661 H   0  0  0  0  0  0  0  0  0  0  0  0
   -2.2077    2.9578    0.3315 C   0  0  0  0  0  0  0  0  0  0  0  0
   -2.0210    2.7861    1.4014 H   0  0  0  0  0  0  0  0  0  0  0  0
  1  7  1  0  0  0  0
  1 14  1  0  0  0  0
  2  4  1  0  0  0  0
  3 15  1  0  0  0  0
  4  5  1  0  0  0  0
  4  6  1  0  0  0  0
  7  4  1  6  0  0  0
  7  8  1  0  0  0  0
  8  9  1  0  0  0  0
  8 10  2  0  0  0  0
 10 11  1  0  0  0  0
 12 13  1  0  0  0  0
 12 10  1  0  0  0  0
 14 12  2  0  0  0  0
 15 17  1  0  0  0  0
 15 16  1  0  0  0  0
 15 14  1  0  0  0  0
 18 19  1  0  0  0  0
 18  2  1  0  0  0  0
 19 20  1  0  0  0  0
 21 22  1  0  0  0  0
 21 19  2  0  0  0  0
 23 21  1  0  0  0  0
 24 23  1  0  0  0  0
 25 23  2  0  0  0  0
 25 27  1  0  0  0  0
 26 25  1  0  0  0  0
 27 18  2  0  0  0  0
 28 27  1  0  0  0  0
 29  2  1  0  0  0  0
 29 30  1  0  0  0  0
 30 31  1  0  0  0  0
 32 30  2  0  0  0  0
 32 33  1  0  0  0  0
 34 32  1  0  0  0  0
 35 34  1  0  0  0  0
 36 38  1  0  0  0  0
 36 34  2  0  0  0  0
 37 36  1  0  0  0  0
 38 29  2  0  0  0  0
 39 38  1  0  0  0  0
 40  3  1  0  0  0  0
 41 42  1  0  0  0  0
 41 40  2  0  0  0  0
 43 41  1  0  0  0  0
 44 43  1  0  0  0  0
 45 43  2  0  0  0  0
 45 47  1  0  0  0  0
 46 45  1  0  0  0  0
 47 49  2  0  0  0  0
 48 47  1  0  0  0  0
 49 40  1  0  0  0  0
 49 50  1  0  0  0  0
 51  3  1  0  0  0  0
 51 60  1  0  0  0  0
 52 51  2  0  0  0  0
 53 52  1  0  0  0  0
 54 52  1  0  0  0  0
 54 56  2  0  0  0  0
 55 54  1  0  0  0  0
 56 58  1  0  0  0  0
 57 56  1  0  0  0  0
 58 60  2  0  0  0  0
 58 59  1  0  0  0  0
 60 61  1  0  0  0  0
M  END
