1,2,3
 OpenBabel05122313063D

 64 63  0  0  0  0  0  0  0  0999 V2000
    2.3378   -0.0981    0.1960 P   0  0  0  0  0  0  0  0  0  0  0  0
   -2.3081   -0.0020    0.2046 P   0  0  0  0  0  0  0  0  0  0  0  0
    0.0121   -0.3161    1.9642 N   0  0  0  0  0  2  0  0  0  0  0  0
    3.3746   -1.4314   -0.6713 C   0  0  0  0  0  0  0  0  0  0  0  0
   -3.2667    1.5532   -0.3428 C   0  0  0  0  0  0  0  0  0  0  0  0
    1.2344   -0.6001    2.6318 C   0  0  0  0  0  0  0  0  0  0  0  0
    1.1614   -0.8429    3.7068 H   0  0  0  0  0  0  0  0  0  0  0  0
   -1.0883   -0.2999    2.6774 C   0  0  0  0  0  3  0  0  0  0  0  0
   -1.0295   -0.5321    3.7594 H   0  0  0  0  0  0  0  0  0  0  0  0
    2.4095   -0.5497    1.9690 C   0  0  0  0  0  0  0  0  0  0  0  0
    3.3479   -0.7696    2.5012 H   0  0  0  0  0  0  0  0  0  0  0  0
    3.1034   -1.3506   -2.1842 C   0  0  0  0  0  0  0  0  0  0  0  0
    2.0315   -1.5060   -2.4123 H   0  0  0  0  0  0  0  0  0  0  0  0
    3.6759   -2.1528   -2.6943 H   0  0  0  0  0  0  0  0  0  0  0  0
    3.4166   -0.3871   -2.6274 H   0  0  0  0  0  0  0  0  0  0  0  0
   -3.1836   -1.6346   -0.2398 C   0  0  0  0  0  0  0  0  0  0  0  0
    2.8527   -2.7801   -0.1389 C   0  0  0  0  0  0  0  0  0  0  0  0
    3.0855   -2.9292    0.9338 H   0  0  0  0  0  0  0  0  0  0  0  0
    3.3364   -3.6018   -0.7064 H   0  0  0  0  0  0  0  0  0  0  0  0
    1.7561   -2.8756   -0.2735 H   0  0  0  0  0  0  0  0  0  0  0  0
   -3.5653    1.4592   -1.8497 C   0  0  0  0  0  0  0  0  0  0  0  0
   -2.6595    1.2339   -2.4462 H   0  0  0  0  0  0  0  0  0  0  0  0
   -3.9595    2.4353   -2.2010 H   0  0  0  0  0  0  0  0  0  0  0  0
   -4.3344    0.6964   -2.0767 H   0  0  0  0  0  0  0  0  0  0  0  0
    3.0944    1.6547    0.1555 C   0  0  0  0  0  0  0  0  0  0  0  0
   -2.8686   -1.9563   -1.7136 C   0  0  0  0  0  0  0  0  0  0  0  0
   -3.2840   -1.2076   -2.4131 H   0  0  0  0  0  0  0  0  0  0  0  0
   -3.3166   -2.9378   -1.9724 H   0  0  0  0  0  0  0  0  0  0  0  0
   -1.7770   -2.0235   -1.8883 H   0  0  0  0  0  0  0  0  0  0  0  0
    4.8751   -1.2928   -0.3741 C   0  0  0  0  0  0  0  0  0  0  0  0
    5.3082   -0.3747   -0.8150 H   0  0  0  0  0  0  0  0  0  0  0  0
    5.4116   -2.1552   -0.8219 H   0  0  0  0  0  0  0  0  0  0  0  0
    5.0957   -1.2998    0.7121 H   0  0  0  0  0  0  0  0  0  0  0  0
   -4.7009   -1.5906   -0.0064 C   0  0  0  0  0  0  0  0  0  0  0  0
   -4.9653   -1.3049    1.0319 H   0  0  0  0  0  0  0  0  0  0  0  0
   -5.1222   -2.6024   -0.1821 H   0  0  0  0  0  0  0  0  0  0  0  0
   -5.2142   -0.8997   -0.7017 H   0  0  0  0  0  0  0  0  0  0  0  0
    3.4069    2.0381   -1.2997 C   0  0  0  0  0  0  0  0  0  0  0  0
    4.2662    1.4713   -1.7065 H   0  0  0  0  0  0  0  0  0  0  0  0
    3.6748    3.1145   -1.3414 H   0  0  0  0  0  0  0  0  0  0  0  0
    2.5372    1.8853   -1.9701 H   0  0  0  0  0  0  0  0  0  0  0  0
   -4.5640    1.8009    0.4442 C   0  0  0  0  0  0  0  0  0  0  0  0
   -5.3095    0.9979    0.3050 H   0  0  0  0  0  0  0  0  0  0  0  0
   -5.0252    2.7449    0.0853 H   0  0  0  0  0  0  0  0  0  0  0  0
   -4.3885    1.9264    1.5312 H   0  0  0  0  0  0  0  0  0  0  0  0
   -2.5553   -2.7248    0.6509 C   0  0  0  0  0  0  0  0  0  0  0  0
   -1.4505   -2.7455    0.5605 H   0  0  0  0  0  0  0  0  0  0  0  0
   -2.9380   -3.7144    0.3266 H   0  0  0  0  0  0  0  0  0  0  0  0
   -2.8212   -2.6107    1.7206 H   0  0  0  0  0  0  0  0  0  0  0  0
   -2.2841    2.7169   -0.0958 C   0  0  0  0  0  0  0  0  0  0  0  0
   -1.9842    2.8076    0.9692 H   0  0  0  0  0  0  0  0  0  0  0  0
   -2.7672    3.6753   -0.3788 H   0  0  0  0  0  0  0  0  0  0  0  0
   -1.3663    2.6123   -0.7101 H   0  0  0  0  0  0  0  0  0  0  0  0
   -2.3952    0.0748    2.0824 C   0  0  0  0  0  0  0  0  0  0  0  0
   -2.6032    1.1338    2.3598 H   0  0  0  0  0  0  0  0  0  0  0  0
   -3.2292   -0.5086    2.5246 H   0  0  0  0  0  0  0  0  0  0  0  0
    4.3309    1.8247    1.0491 C   0  0  0  0  0  0  0  0  0  0  0  0
    4.1104    1.5936    2.1100 H   0  0  0  0  0  0  0  0  0  0  0  0
    4.6670    2.8823    1.0066 H   0  0  0  0  0  0  0  0  0  0  0  0
    5.1806    1.1970    0.7236 H   0  0  0  0  0  0  0  0  0  0  0  0
    1.9473    2.5405    0.6865 C   0  0  0  0  0  0  0  0  0  0  0  0
    1.0375    2.4601    0.0458 H   0  0  0  0  0  0  0  0  0  0  0  0
    2.2552    3.6072    0.6690 H   0  0  0  0  0  0  0  0  0  0  0  0
    1.6725    2.2887    1.7306 H   0  0  0  0  0  0  0  0  0  0  0  0
  1 10  1  0  0  0  0
  2 54  1  0  0  0  0
  3  6  1  0  0  0  0
  3  8  1  0  0  0  0
  4 30  1  0  0  0  0
  4 17  1  0  0  0  0
  4  1  1  0  0  0  0
  5 50  1  0  0  0  0
  5  2  1  0  0  0  0
  5 42  1  0  0  0  0
  6  7  1  0  0  0  0
  8  9  1  0  0  0  0
 10 11  1  0  0  0  0
 10  6  2  0  0  0  0
 12  4  1  0  0  0  0
 13 12  1  0  0  0  0
 14 12  1  0  0  0  0
 15 12  1  0  0  0  0
 16 34  1  0  0  0  0
 16  2  1  0  0  0  0
 16 46  1  0  0  0  0
 17 18  1  0  0  0  0
 19 17  1  0  0  0  0
 20 17  1  0  0  0  0
 21  5  1  0  0  0  0
 22 21  1  0  0  0  0
 23 21  1  0  0  0  0
 24 21  1  0  0  0  0
 25  1  1  0  0  0  0
 25 61  1  0  0  0  0
 25 57  1  0  0  0  0
 26 16  1  0  0  0  0
 27 26  1  0  0  0  0
 28 26  1  0  0  0  0
 29 26  1  0  0  0  0
 30 33  1  0  0  0  0
 31 30  1  0  0  0  0
 32 30  1  0  0  0  0
 34 35  1  0  0  0  0
 36 34  1  0  0  0  0
 37 34  1  0  0  0  0
 38 25  1  0  0  0  0
 39 38  1  0  0  0  0
 40 38  1  0  0  0  0
 41 38  1  0  0  0  0
 42 45  1  0  0  0  0
 43 42  1  0  0  0  0
 44 42  1  0  0  0  0
 46 49  1  0  0  0  0
 47 46  1  0  0  0  0
 48 46  1  0  0  0  0
 50 51  1  0  0  0  0
 52 50  1  0  0  0  0
 53 50  1  0  0  0  0
 54 55  1  0  0  0  0
 54 56  1  0  0  0  0
 54  8  1  0  0  0  0
 57 58  1  0  0  0  0
 59 57  1  0  0  0  0
 60 57  1  0  0  0  0
 61 64  1  0  0  0  0
 62 61  1  0  0  0  0
 63 61  1  0  0  0  0
M  END
