1,2,5
 OpenBabel05122313063D

 71 74  0  0  0  0  0  0  0  0999 V2000
   -2.2632   -0.1268    0.4666 P   0  0  0  0  0  0  0  0  0  0  0  0
    2.2632   -0.1268   -0.4667 P   0  0  0  0  0  0  0  0  0  0  0  0
   -1.5016    2.7631    0.3182 Si  0  0  0  0  0  0  0  0  0  0  0  0
    1.5017    2.7632   -0.3178 Si  0  0  0  0  0  0  0  0  0  0  0  0
    0.0001    1.9076    0.0002 N   0  0  0  0  0  2  0  0  0  0  0  0
   -2.6108    1.5038    1.2434 C   0  0  0  0  0  0  0  0  0  0  0  0
    2.6109    1.5040   -1.2432 C   0  0  0  0  0  0  0  0  0  0  0  0
   -2.3721    3.2998   -1.2755 C   0  0  0  0  0  0  0  0  0  0  0  0
   -1.2909    4.2718    1.4496 C   0  0  0  0  0  0  0  0  0  0  0  0
    2.3722    3.2999    1.2758 C   0  0  0  0  0  0  0  0  0  0  0  0
    1.2910    4.2719   -1.4492 C   0  0  0  0  0  0  0  0  0  0  0  0
   -3.3710   -0.1820   -1.0044 C   0  0  0  0  0  0  0  0  0  0  0  0
   -2.8460   -0.6829   -2.2127 C   0  0  0  0  0  0  0  0  0  0  0  0
   -3.6424   -0.7216   -3.3675 C   0  0  0  0  0  0  0  0  0  0  0  0
   -4.9664   -0.2565   -3.3262 C   0  0  0  0  0  0  0  0  0  0  0  0
   -5.4959    0.2442   -2.1252 C   0  0  0  0  0  0  0  0  0  0  0  0
   -4.7029    0.2806   -0.9685 C   0  0  0  0  0  0  0  0  0  0  0  0
   -2.9431   -1.4060    1.6081 C   0  0  0  0  0  0  0  0  0  0  0  0
   -2.2143   -1.6459    2.7931 C   0  0  0  0  0  0  0  0  0  0  0  0
   -2.6606   -2.5984    3.7185 C   0  0  0  0  0  0  0  0  0  0  0  0
   -3.8285   -3.3368    3.4614 C   0  0  0  0  0  0  0  0  0  0  0  0
   -4.5438   -3.1190    2.2743 C   0  0  0  0  0  0  0  0  0  0  0  0
   -4.1050   -2.1575    1.3488 C   0  0  0  0  0  0  0  0  0  0  0  0
    3.3708   -0.1821    1.0045 C   0  0  0  0  0  0  0  0  0  0  0  0
    2.8457   -0.6835    2.2126 C   0  0  0  0  0  0  0  0  0  0  0  0
    3.6419   -0.7223    3.3675 C   0  0  0  0  0  0  0  0  0  0  0  0
    4.9658   -0.2570    3.3266 C   0  0  0  0  0  0  0  0  0  0  0  0
    5.4954    0.2441    2.1258 C   0  0  0  0  0  0  0  0  0  0  0  0
    4.7026    0.2807    0.9690 C   0  0  0  0  0  0  0  0  0  0  0  0
    2.9433   -1.4058   -1.6082 C   0  0  0  0  0  0  0  0  0  0  0  0
    2.2145   -1.6458   -2.7933 C   0  0  0  0  0  0  0  0  0  0  0  0
    2.6610   -2.5980   -3.7188 C   0  0  0  0  0  0  0  0  0  0  0  0
    3.8292   -3.3361   -3.4618 C   0  0  0  0  0  0  0  0  0  0  0  0
    4.5444   -3.1183   -2.2747 C   0  0  0  0  0  0  0  0  0  0  0  0
    4.1054   -2.1569   -1.3491 C   0  0  0  0  0  0  0  0  0  0  0  0
   -3.6898    1.7578    1.2700 H   0  0  0  0  0  0  0  0  0  0  0  0
   -2.2432    1.4339    2.2887 H   0  0  0  0  0  0  0  0  0  0  0  0
    3.6899    1.7579   -1.2697 H   0  0  0  0  0  0  0  0  0  0  0  0
    2.2433    1.4343   -2.2885 H   0  0  0  0  0  0  0  0  0  0  0  0
   -3.3709    3.7379   -1.0693 H   0  0  0  0  0  0  0  0  0  0  0  0
   -1.7681    4.0603   -1.8110 H   0  0  0  0  0  0  0  0  0  0  0  0
   -2.5075    2.4324   -1.9519 H   0  0  0  0  0  0  0  0  0  0  0  0
   -2.2769    4.7200    1.6923 H   0  0  0  0  0  0  0  0  0  0  0  0
   -0.7994    3.9843    2.4013 H   0  0  0  0  0  0  0  0  0  0  0  0
   -0.6752    5.0619    0.9733 H   0  0  0  0  0  0  0  0  0  0  0  0
    3.3710    3.7381    1.0697 H   0  0  0  0  0  0  0  0  0  0  0  0
    1.7681    4.0602    1.8115 H   0  0  0  0  0  0  0  0  0  0  0  0
    2.5077    2.4324    1.9522 H   0  0  0  0  0  0  0  0  0  0  0  0
    2.2769    4.7201   -1.6919 H   0  0  0  0  0  0  0  0  0  0  0  0
    0.7994    3.9844   -2.4010 H   0  0  0  0  0  0  0  0  0  0  0  0
    0.6752    5.0620   -0.9729 H   0  0  0  0  0  0  0  0  0  0  0  0
   -1.7958   -1.0189   -2.2252 H   0  0  0  0  0  0  0  0  0  0  0  0
   -3.2233   -1.1106   -4.3081 H   0  0  0  0  0  0  0  0  0  0  0  0
   -5.5886   -0.2797   -4.2340 H   0  0  0  0  0  0  0  0  0  0  0  0
   -6.5327    0.6124   -2.0901 H   0  0  0  0  0  0  0  0  0  0  0  0
   -5.1270    0.6758   -0.0325 H   0  0  0  0  0  0  0  0  0  0  0  0
   -1.2780   -1.0906    2.9672 H   0  0  0  0  0  0  0  0  0  0  0  0
   -2.0869   -2.7761    4.6410 H   0  0  0  0  0  0  0  0  0  0  0  0
   -4.1749   -4.0913    4.1841 H   0  0  0  0  0  0  0  0  0  0  0  0
   -5.4516   -3.7043    2.0617 H   0  0  0  0  0  0  0  0  0  0  0  0
   -4.6676   -1.9966    0.4173 H   0  0  0  0  0  0  0  0  0  0  0  0
    1.7954   -1.0196    2.2248 H   0  0  0  0  0  0  0  0  0  0  0  0
    3.2226   -1.1116    4.3079 H   0  0  0  0  0  0  0  0  0  0  0  0
    5.5879   -0.2803    4.2345 H   0  0  0  0  0  0  0  0  0  0  0  0
    6.5322    0.6125    2.0910 H   0  0  0  0  0  0  0  0  0  0  0  0
    5.1268    0.6762    0.0331 H   0  0  0  0  0  0  0  0  0  0  0  0
    1.2781   -1.0906   -2.9672 H   0  0  0  0  0  0  0  0  0  0  0  0
    2.0873   -2.7758   -4.6413 H   0  0  0  0  0  0  0  0  0  0  0  0
    4.1757   -4.0904   -4.1846 H   0  0  0  0  0  0  0  0  0  0  0  0
    5.4524   -3.7034   -2.0623 H   0  0  0  0  0  0  0  0  0  0  0  0
    4.6680   -1.9960   -0.4176 H   0  0  0  0  0  0  0  0  0  0  0  0
  1  6  1  0  0  0  0
  1 18  1  0  0  0  0
  2 24  1  0  0  0  0
  3  6  1  0  0  0  0
  3  9  1  0  0  0  0
  4  5  1  0  0  0  0
  4 10  1  0  0  0  0
  5  3  1  0  0  0  0
  6 36  1  0  0  0  0
  6 37  1  0  0  0  0
  7  2  1  0  0  0  0
  7  4  1  0  0  0  0
  8 40  1  0  0  0  0
  8  3  1  0  0  0  0
  9 43  1  0  0  0  0
  9 44  1  0  0  0  0
 10 47  1  0  0  0  0
 10 48  1  0  0  0  0
 11 51  1  0  0  0  0
 11  4  1  0  0  0  0
 12 17  1  0  0  0  0
 12  1  1  0  0  0  0
 13 12  2  0  0  0  0
 14 15  2  0  0  0  0
 14 13  1  0  0  0  0
 15 16  1  0  0  0  0
 16 55  1  0  0  0  0
 16 17  2  0  0  0  0
 17 56  1  0  0  0  0
 18 19  1  0  0  0  0
 19 57  1  0  0  0  0
 19 20  2  0  0  0  0
 20 58  1  0  0  0  0
 21 20  1  0  0  0  0
 21 59  1  0  0  0  0
 22 21  2  0  0  0  0
 23 18  2  0  0  0  0
 23 22  1  0  0  0  0
 24 25  1  0  0  0  0
 25 62  1  0  0  0  0
 25 26  2  0  0  0  0
 26 63  1  0  0  0  0
 27 26  1  0  0  0  0
 27 64  1  0  0  0  0
 28 27  2  0  0  0  0
 29 24  2  0  0  0  0
 29 28  1  0  0  0  0
 30 35  1  0  0  0  0
 30  2  1  0  0  0  0
 31 30  2  0  0  0  0
 32 33  2  0  0  0  0
 32 31  1  0  0  0  0
 33 34  1  0  0  0  0
 34 70  1  0  0  0  0
 34 35  2  0  0  0  0
 35 71  1  0  0  0  0
 38  7  1  0  0  0  0
 39  7  1  0  0  0  0
 41  8  1  0  0  0  0
 42  8  1  0  0  0  0
 45  9  1  0  0  0  0
 46 10  1  0  0  0  0
 49 11  1  0  0  0  0
 50 11  1  0  0  0  0
 52 13  1  0  0  0  0
 53 14  1  0  0  0  0
 54 15  1  0  0  0  0
 60 22  1  0  0  0  0
 61 23  1  0  0  0  0
 65 28  1  0  0  0  0
 66 29  1  0  0  0  0
 67 31  1  0  0  0  0
 68 32  1  0  0  0  0
 69 33  1  0  0  0  0
M  END
