1,2,5
 OpenBabel05122313063D

 72 75  0  0  0  0  0  0  0  0999 V2000
   -2.3051    0.3126   -0.0382 P   0  0  0  0  0  0  0  0  0  0  0  0
    2.3125    0.1140    0.0428 P   0  0  0  0  0  0  0  0  0  0  0  0
   -1.6818   -1.8717   -2.0476 Si  0  0  0  0  0  0  0  0  0  0  0  0
    1.5219   -2.1813   -1.7558 Si  0  0  0  0  0  0  0  0  0  0  0  0
   -0.0133   -1.2540   -1.8186 N   0  0  0  0  0  0  0  0  0  0  0  0
   -2.7656   -0.3453   -1.7007 C   0  0  0  0  0  0  0  0  0  0  0  0
    2.8227   -0.8245   -1.4652 C   0  0  0  0  0  0  0  0  0  0  0  0
   -1.9936   -3.2898   -0.8532 C   0  0  0  0  0  0  0  0  0  0  0  0
   -1.9544   -2.4238   -3.8329 C   0  0  0  0  0  0  0  0  0  0  0  0
    1.4886   -3.4321   -0.3530 C   0  0  0  0  0  0  0  0  0  0  0  0
    1.8660   -3.0384   -3.4040 C   0  0  0  0  0  0  0  0  0  0  0  0
   -3.2185   -0.7414    1.1676 C   0  0  0  0  0  0  0  0  0  0  0  0
   -2.6976   -0.8762    2.4705 C   0  0  0  0  0  0  0  0  0  0  0  0
   -3.3740   -1.6432    3.4302 C   0  0  0  0  0  0  0  0  0  0  0  0
   -4.5745   -2.2917    3.0976 C   0  0  0  0  0  0  0  0  0  0  0  0
   -5.1015   -2.1606    1.8032 C   0  0  0  0  0  0  0  0  0  0  0  0
   -4.4306   -1.3844    0.8451 C   0  0  0  0  0  0  0  0  0  0  0  0
   -3.1628    1.9407    0.1096 C   0  0  0  0  0  0  0  0  0  0  0  0
   -2.6097    3.0444   -0.5754 C   0  0  0  0  0  0  0  0  0  0  0  0
   -3.2356    4.2969   -0.4998 C   0  0  0  0  0  0  0  0  0  0  0  0
   -4.4029    4.4653    0.2633 C   0  0  0  0  0  0  0  0  0  0  0  0
   -4.9459    3.3720    0.9550 C   0  0  0  0  0  0  0  0  0  0  0  0
   -4.3304    2.1123    0.8805 C   0  0  0  0  0  0  0  0  0  0  0  0
    3.1630   -0.7786    1.4236 C   0  0  0  0  0  0  0  0  0  0  0  0
    2.4247   -1.2094    2.5411 C   0  0  0  0  0  0  0  0  0  0  0  0
    3.0613   -1.8853    3.5942 C   0  0  0  0  0  0  0  0  0  0  0  0
    4.4407   -2.1355    3.5400 C   0  0  0  0  0  0  0  0  0  0  0  0
    5.1860   -1.6995    2.4313 C   0  0  0  0  0  0  0  0  0  0  0  0
    4.5519   -1.0206    1.3813 C   0  0  0  0  0  0  0  0  0  0  0  0
    3.2353    1.7064   -0.0237 C   0  0  0  0  0  0  0  0  0  0  0  0
    2.7238    2.8013    0.6998 C   0  0  0  0  0  0  0  0  0  0  0  0
    3.4126    4.0218    0.7108 C   0  0  0  0  0  0  0  0  0  0  0  0
    4.6104    4.1638   -0.0085 C   0  0  0  0  0  0  0  0  0  0  0  0
    5.1156    3.0806   -0.7440 C   0  0  0  0  0  0  0  0  0  0  0  0
    4.4307    1.8556   -0.7532 C   0  0  0  0  0  0  0  0  0  0  0  0
    0.1194   -0.4213   -2.4416 H   0  0  0  0  0  0  0  0  0  0  0  0
   -3.8537   -0.4963   -1.8498 H   0  0  0  0  0  0  0  0  0  0  0  0
   -2.4257    0.4445   -2.4071 H   0  0  0  0  0  0  0  0  0  0  0  0
    2.7454   -0.1038   -2.3082 H   0  0  0  0  0  0  0  0  0  0  0  0
    3.8583   -1.2169   -1.4154 H   0  0  0  0  0  0  0  0  0  0  0  0
   -1.6734   -3.0173    0.1712 H   0  0  0  0  0  0  0  0  0  0  0  0
   -3.0737   -3.5370   -0.8187 H   0  0  0  0  0  0  0  0  0  0  0  0
   -1.4452   -4.2009   -1.1669 H   0  0  0  0  0  0  0  0  0  0  0  0
   -1.7281   -1.6003   -4.5405 H   0  0  0  0  0  0  0  0  0  0  0  0
   -1.3050   -3.2850   -4.0911 H   0  0  0  0  0  0  0  0  0  0  0  0
   -3.0077   -2.7327   -3.9961 H   0  0  0  0  0  0  0  0  0  0  0  0
    1.0762   -2.9697    0.5645 H   0  0  0  0  0  0  0  0  0  0  0  0
    0.8790   -4.3212   -0.6086 H   0  0  0  0  0  0  0  0  0  0  0  0
    2.5199   -3.7750   -0.1307 H   0  0  0  0  0  0  0  0  0  0  0  0
    1.8399   -2.3161   -4.2452 H   0  0  0  0  0  0  0  0  0  0  0  0
    2.8646   -3.5224   -3.3989 H   0  0  0  0  0  0  0  0  0  0  0  0
    1.1125   -3.8271   -3.6067 H   0  0  0  0  0  0  0  0  0  0  0  0
   -1.7452   -0.3816    2.7149 H   0  0  0  0  0  0  0  0  0  0  0  0
   -2.9566   -1.7410    4.4440 H   0  0  0  0  0  0  0  0  0  0  0  0
   -5.1004   -2.9011    3.8483 H   0  0  0  0  0  0  0  0  0  0  0  0
   -6.0429   -2.6647    1.5362 H   0  0  0  0  0  0  0  0  0  0  0  0
   -4.8615   -1.2827   -0.1619 H   0  0  0  0  0  0  0  0  0  0  0  0
   -1.6824    2.9119   -1.1602 H   0  0  0  0  0  0  0  0  0  0  0  0
   -2.7988    5.1523   -1.0378 H   0  0  0  0  0  0  0  0  0  0  0  0
   -4.8870    5.4523    0.3241 H   0  0  0  0  0  0  0  0  0  0  0  0
   -5.8558    3.4976    1.5621 H   0  0  0  0  0  0  0  0  0  0  0  0
   -4.7604    1.2630    1.4314 H   0  0  0  0  0  0  0  0  0  0  0  0
    1.3420   -1.0099    2.5636 H   0  0  0  0  0  0  0  0  0  0  0  0
    2.4732   -2.2191    4.4628 H   0  0  0  0  0  0  0  0  0  0  0  0
    4.9396   -2.6671    4.3647 H   0  0  0  0  0  0  0  0  0  0  0  0
    6.2702   -1.8847    2.3872 H   0  0  0  0  0  0  0  0  0  0  0  0
    5.1504   -0.6649    0.5282 H   0  0  0  0  0  0  0  0  0  0  0  0
    1.7674    2.6889    1.2323 H   0  0  0  0  0  0  0  0  0  0  0  0
    3.0030    4.8736    1.2748 H   0  0  0  0  0  0  0  0  0  0  0  0
    5.1462    5.1254   -0.0052 H   0  0  0  0  0  0  0  0  0  0  0  0
    6.0465    3.1903   -1.3213 H   0  0  0  0  0  0  0  0  0  0  0  0
    4.8276    1.0187   -1.3477 H   0  0  0  0  0  0  0  0  0  0  0  0
  1 18  1  0  0  0  0
  1 12  1  0  0  0  0
  2 24  1  0  0  0  0
  3  5  1  0  0  0  0
  3  6  1  0  0  0  0
  3  8  1  0  0  0  0
  4  7  1  0  0  0  0
  4 10  1  0  0  0  0
  5  4  1  0  0  0  0
  6  1  1  0  0  0  0
  7 40  1  0  0  0  0
  7  2  1  0  0  0  0
  8 42  1  0  0  0  0
  8 41  1  0  0  0  0
  9  3  1  0  0  0  0
 10 49  1  0  0  0  0
 10 47  1  0  0  0  0
 11 51  1  0  0  0  0
 11  4  1  0  0  0  0
 12 13  1  0  0  0  0
 13 53  1  0  0  0  0
 13 14  2  0  0  0  0
 14 54  1  0  0  0  0
 15 14  1  0  0  0  0
 15 55  1  0  0  0  0
 16 15  2  0  0  0  0
 17 12  2  0  0  0  0
 17 16  1  0  0  0  0
 18 23  1  0  0  0  0
 19 20  1  0  0  0  0
 19 18  2  0  0  0  0
 20 21  2  0  0  0  0
 21 60  1  0  0  0  0
 21 22  1  0  0  0  0
 22 61  1  0  0  0  0
 23 22  2  0  0  0  0
 23 62  1  0  0  0  0
 24 25  1  0  0  0  0
 25 63  1  0  0  0  0
 25 26  2  0  0  0  0
 26 64  1  0  0  0  0
 27 26  1  0  0  0  0
 27 65  1  0  0  0  0
 28 27  2  0  0  0  0
 29 24  2  0  0  0  0
 29 28  1  0  0  0  0
 30  2  1  0  0  0  0
 30 31  1  0  0  0  0
 31 32  2  0  0  0  0
 31 68  1  0  0  0  0
 32 69  1  0  0  0  0
 33 70  1  0  0  0  0
 33 32  1  0  0  0  0
 34 33  2  0  0  0  0
 35 34  1  0  0  0  0
 35 30  2  0  0  0  0
 36  5  1  0  0  0  0
 37  6  1  0  0  0  0
 38  6  1  0  0  0  0
 39  7  1  0  0  0  0
 43  8  1  0  0  0  0
 44  9  1  0  0  0  0
 45  9  1  0  0  0  0
 46  9  1  0  0  0  0
 48 10  1  0  0  0  0
 50 11  1  0  0  0  0
 52 11  1  0  0  0  0
 56 16  1  0  0  0  0
 57 17  1  0  0  0  0
 58 19  1  0  0  0  0
 59 20  1  0  0  0  0
 66 28  1  0  0  0  0
 67 29  1  0  0  0  0
 71 34  1  0  0  0  0
 72 35  1  0  0  0  0
M  END
