1,2,3
 OpenBabel05122313063D

 51 51  0  0  1  0  0  0  0  0999 V2000
    2.0715   -0.4424   -0.6737 P   0  0  1  0  0  0  0  0  0  0  0  0
   -2.0715   -0.4426    0.6737 P   0  0  1  0  0  0  0  0  0  0  0  0
   -0.0000    1.3853    0.0001 N   0  0  0  0  0  2  0  0  0  0  0  0
    0.9916    2.0808   -0.6518 C   0  0  2  0  0  3  0  0  0  0  0  0
    1.0127    3.4816   -0.6523 C   0  0  0  0  0  0  0  0  0  0  0  0
    1.8223    4.0045   -1.1803 H   0  0  0  0  0  0  0  0  0  0  0  0
   -0.0003    4.1941   -0.0001 C   0  0  0  0  0  0  0  0  0  0  0  0
   -0.0004    5.2938   -0.0001 H   0  0  0  0  0  0  0  0  0  0  0  0
   -1.0131    3.4814    0.6523 C   0  0  0  0  0  0  0  0  0  0  0  0
   -1.8228    4.0043    1.1802 H   0  0  0  0  0  0  0  0  0  0  0  0
   -0.9917    2.0807    0.6519 C   0  0  0  0  0  0  0  0  0  0  0  0
    2.0245    1.2736   -1.3912 C   0  0  0  0  0  0  0  0  0  0  0  0
    3.0074    1.7859   -1.4131 H   0  0  0  0  0  0  0  0  0  0  0  0
    1.7064    1.1508   -2.4504 H   0  0  0  0  0  0  0  0  0  0  0  0
    2.5866   -1.5649   -2.0165 C   0  0  0  0  0  0  0  0  0  0  0  0
    2.4857   -2.6030   -1.6458 H   0  0  0  0  0  0  0  0  0  0  0  0
    3.6237   -1.3729   -2.3530 H   0  0  0  0  0  0  0  0  0  0  0  0
    1.8874   -1.4433   -2.8660 H   0  0  0  0  0  0  0  0  0  0  0  0
    3.3821   -0.4741    0.6745 C   0  0  0  0  0  0  0  0  0  0  0  0
    4.7601   -0.0985    0.1096 C   0  0  0  0  0  0  0  0  0  0  0  0
    5.1070   -0.8114   -0.6641 H   0  0  0  0  0  0  0  0  0  0  0  0
    5.5062   -0.1222    0.9310 H   0  0  0  0  0  0  0  0  0  0  0  0
    4.7817    0.9242   -0.3182 H   0  0  0  0  0  0  0  0  0  0  0  0
    3.3963   -1.9021    1.2519 C   0  0  0  0  0  0  0  0  0  0  0  0
    2.3897   -2.2200    1.5881 H   0  0  0  0  0  0  0  0  0  0  0  0
    4.0858   -1.9351    2.1204 H   0  0  0  0  0  0  0  0  0  0  0  0
    3.7581   -2.6444    0.5132 H   0  0  0  0  0  0  0  0  0  0  0  0
    2.9426    0.5323    1.7531 C   0  0  0  0  0  0  0  0  0  0  0  0
    2.9186    1.5747    1.3750 H   0  0  0  0  0  0  0  0  0  0  0  0
    3.6628    0.5040    2.5964 H   0  0  0  0  0  0  0  0  0  0  0  0
    1.9391    0.2847    2.1548 H   0  0  0  0  0  0  0  0  0  0  0  0
   -2.0244    1.2733    1.3915 C   0  0  0  0  0  0  0  0  0  0  0  0
   -3.0074    1.7855    1.4137 H   0  0  0  0  0  0  0  0  0  0  0  0
   -1.7060    1.1504    2.4505 H   0  0  0  0  0  0  0  0  0  0  0  0
   -2.5865   -1.5653    2.0164 C   0  0  0  0  0  0  0  0  0  0  0  0
   -2.4858   -2.6033    1.6455 H   0  0  0  0  0  0  0  0  0  0  0  0
   -3.6235   -1.3732    2.3530 H   0  0  0  0  0  0  0  0  0  0  0  0
   -1.8872   -1.4438    2.8658 H   0  0  0  0  0  0  0  0  0  0  0  0
   -3.3820   -0.4741   -0.6745 C   0  0  0  0  0  0  0  0  0  0  0  0
   -3.3961   -1.9020   -1.2522 C   0  0  0  0  0  0  0  0  0  0  0  0
   -2.3895   -2.2197   -1.5884 H   0  0  0  0  0  0  0  0  0  0  0  0
   -4.0855   -1.9349   -2.1207 H   0  0  0  0  0  0  0  0  0  0  0  0
   -3.7578   -2.6446   -0.5137 H   0  0  0  0  0  0  0  0  0  0  0  0
   -4.7601   -0.0989   -0.1094 C   0  0  0  0  0  0  0  0  0  0  0  0
   -5.1069   -0.8119    0.6642 H   0  0  0  0  0  0  0  0  0  0  0  0
   -5.5062   -0.1225   -0.9308 H   0  0  0  0  0  0  0  0  0  0  0  0
   -4.7819    0.9238    0.3185 H   0  0  0  0  0  0  0  0  0  0  0  0
   -2.9427    0.5325   -1.7529 C   0  0  0  0  0  0  0  0  0  0  0  0
   -2.9189    1.5749   -1.3745 H   0  0  0  0  0  0  0  0  0  0  0  0
   -3.6629    0.5044   -2.5961 H   0  0  0  0  0  0  0  0  0  0  0  0
   -1.9392    0.2852   -2.1547 H   0  0  0  0  0  0  0  0  0  0  0  0
  1 15  1  6  0  0  0
  1 19  1  0  0  0  0
  2 39  1  6  0  0  0
  2 32  1  0  0  0  0
  2 35  1  0  0  0  0
  3 11  1  0  0  0  0
  4 12  1  6  0  0  0
  4  3  1  0  0  0  0
  5  4  1  0  0  0  0
  5  7  2  0  0  0  0
  6  5  1  0  0  0  0
  7  9  1  0  0  0  0
  8  7  1  0  0  0  0
  9 10  1  0  0  0  0
 11  9  2  0  0  0  0
 11 32  1  0  0  0  0
 12  1  1  0  0  0  0
 13 12  1  0  0  0  0
 14 12  1  0  0  0  0
 15 16  1  0  0  0  0
 17 15  1  0  0  0  0
 18 15  1  0  0  0  0
 19 24  1  0  0  0  0
 19 28  1  0  0  0  0
 20 19  1  0  0  0  0
 20 22  1  0  0  0  0
 21 20  1  0  0  0  0
 23 20  1  0  0  0  0
 24 25  1  0  0  0  0
 24 26  1  0  0  0  0
 27 24  1  0  0  0  0
 28 31  1  0  0  0  0
 28 30  1  0  0  0  0
 29 28  1  0  0  0  0
 32 33  1  0  0  0  0
 32 34  1  0  0  0  0
 35 37  1  0  0  0  0
 35 38  1  0  0  0  0
 36 35  1  0  0  0  0
 39 44  1  0  0  0  0
 40 39  1  0  0  0  0
 40 43  1  0  0  0  0
 41 40  1  0  0  0  0
 42 40  1  0  0  0  0
 44 47  1  0  0  0  0
 44 45  1  0  0  0  0
 46 44  1  0  0  0  0
 48 49  1  0  0  0  0
 48 39  1  0  0  0  0
 50 48  1  0  0  0  0
 51 48  1  0  0  0  0
M  END
