1,2,4
 OpenBabel05122313063D

 55 55  0  0  1  0  0  0  0  0999 V2000
    2.3583   -0.0502    0.1458 P   0  0  0  0  0  0  0  0  0  0  0  0
   -2.2643   -0.0326    0.0816 P   0  0  0  0  0  0  0  0  0  0  0  0
    2.3915    1.6978   -0.0548 N   0  0  0  0  0  0  0  0  0  0  0  0
    0.0571    1.7586   -0.1450 N   0  0  0  0  0  2  0  0  0  0  0  0
   -2.2795    1.7096   -0.1700 N   0  0  0  0  0  0  0  0  0  0  0  0
   -1.1191    2.4504   -0.2057 C   0  0  1  0  0  3  0  0  0  0  0  0
   -1.1466    3.8594   -0.2983 C   0  0  0  0  0  0  0  0  0  0  0  0
    0.0689    4.5494   -0.3207 C   0  0  0  0  0  0  0  0  0  0  0  0
    1.2781    3.8528   -0.2438 C   0  0  0  0  0  0  0  0  0  0  0  0
    1.2386    2.4439   -0.1503 C   0  0  0  0  0  0  0  0  0  0  0  0
   -3.3752   -0.5900   -1.3278 C   0  0  0  0  0  0  0  0  0  0  0  0
   -3.3505   -2.1139   -1.4942 C   0  0  0  0  0  0  0  0  0  0  0  0
   -4.7974   -0.0248   -1.3035 C   0  0  0  0  0  0  0  0  0  0  0  0
   -3.2742   -0.2158    1.6554 C   0  0  0  0  0  0  0  0  0  0  0  0
   -2.7622    0.7430    2.7342 C   0  0  0  0  0  0  0  0  0  0  0  0
   -3.2075   -1.6747    2.1273 C   0  0  0  0  0  0  0  0  0  0  0  0
    3.3389   -0.2343    1.7422 C   0  0  0  0  0  0  0  0  0  0  0  0
    2.7205    0.6142    2.8556 C   0  0  0  0  0  0  0  0  0  0  0  0
    3.4225   -1.7128    2.1424 C   0  0  0  0  0  0  0  0  0  0  0  0
    3.5709   -0.6483   -1.1696 C   0  0  0  0  0  0  0  0  0  0  0  0
    3.3236   -2.1379   -1.4518 C   0  0  0  0  0  0  0  0  0  0  0  0
    3.4502    0.1759   -2.4563 C   0  0  0  0  0  0  0  0  0  0  0  0
   -3.1506    2.2440   -0.1761 H   0  0  0  0  0  0  0  0  0  0  0  0
   -2.1083    4.3876   -0.3493 H   0  0  0  0  0  0  0  0  0  0  0  0
    0.0736    5.6472   -0.3936 H   0  0  0  0  0  0  0  0  0  0  0  0
    2.2441    4.3754   -0.2522 H   0  0  0  0  0  0  0  0  0  0  0  0
   -2.8220   -0.1462   -2.1849 H   0  0  0  0  0  0  0  0  0  0  0  0
   -2.3146   -2.5046   -1.4643 H   0  0  0  0  0  0  0  0  0  0  0  0
   -3.9359   -2.6249   -0.7031 H   0  0  0  0  0  0  0  0  0  0  0  0
   -3.7975   -2.3964   -2.4696 H   0  0  0  0  0  0  0  0  0  0  0  0
   -4.8181    1.0810   -1.2113 H   0  0  0  0  0  0  0  0  0  0  0  0
   -5.3252   -0.2772   -2.2469 H   0  0  0  0  0  0  0  0  0  0  0  0
   -5.3968   -0.4507   -0.4727 H   0  0  0  0  0  0  0  0  0  0  0  0
   -4.3244    0.0449    1.3961 H   0  0  0  0  0  0  0  0  0  0  0  0
   -2.8848    1.8054    2.4456 H   0  0  0  0  0  0  0  0  0  0  0  0
   -3.3152    0.5774    3.6820 H   0  0  0  0  0  0  0  0  0  0  0  0
   -1.6826    0.5631    2.9188 H   0  0  0  0  0  0  0  0  0  0  0  0
   -3.6022   -2.3870    1.3771 H   0  0  0  0  0  0  0  0  0  0  0  0
   -2.1580   -1.9605    2.3427 H   0  0  0  0  0  0  0  0  0  0  0  0
   -3.8000   -1.8021    3.0568 H   0  0  0  0  0  0  0  0  0  0  0  0
    4.3618    0.1433    1.5094 H   0  0  0  0  0  0  0  0  0  0  0  0
    2.7168    1.6933    2.6050 H   0  0  0  0  0  0  0  0  0  0  0  0
    1.6683    0.3070    3.0266 H   0  0  0  0  0  0  0  0  0  0  0  0
    3.2912    0.4794    3.7977 H   0  0  0  0  0  0  0  0  0  0  0  0
    2.4068   -2.1466    2.2474 H   0  0  0  0  0  0  0  0  0  0  0  0
    3.9818   -2.3228    1.4068 H   0  0  0  0  0  0  0  0  0  0  0  0
    3.9400   -1.8138    3.1187 H   0  0  0  0  0  0  0  0  0  0  0  0
    4.5900   -0.5169   -0.7391 H   0  0  0  0  0  0  0  0  0  0  0  0
    3.3811   -2.7667   -0.5428 H   0  0  0  0  0  0  0  0  0  0  0  0
    2.3159   -2.2837   -1.8886 H   0  0  0  0  0  0  0  0  0  0  0  0
    4.0749   -2.5161   -2.1756 H   0  0  0  0  0  0  0  0  0  0  0  0
    3.6937    1.2450   -2.3040 H   0  0  0  0  0  0  0  0  0  0  0  0
    4.1440   -0.2263   -3.2235 H   0  0  0  0  0  0  0  0  0  0  0  0
    2.4240    0.1158   -2.8704 H   0  0  0  0  0  0  0  0  0  0  0  0
    3.2658    2.2263   -0.0254 H   0  0  0  0  0  0  0  0  0  0  0  0
  1 17  1  0  0  0  0
  2 14  1  0  0  0  0
  3 55  1  0  0  0  0
  3  1  1  0  0  0  0
  5  2  1  0  0  0  0
  6  5  1  1  0  0  0
  6  4  1  0  0  0  0
  7  6  1  0  0  0  0
  8  7  2  0  0  0  0
  8  9  1  0  0  0  0
  9 10  2  0  0  0  0
 10  4  1  0  0  0  0
 10  3  1  0  0  0  0
 11 13  1  0  0  0  0
 11  2  1  0  0  0  0
 12 28  1  0  0  0  0
 12 11  1  0  0  0  0
 12 29  1  0  0  0  0
 13 31  1  0  0  0  0
 13 33  1  0  0  0  0
 14 16  1  0  0  0  0
 14 15  1  0  0  0  0
 15 37  1  0  0  0  0
 15 36  1  0  0  0  0
 16 39  1  0  0  0  0
 16 40  1  0  0  0  0
 17 19  1  0  0  0  0
 17 18  1  0  0  0  0
 18 43  1  0  0  0  0
 18 44  1  0  0  0  0
 19 45  1  0  0  0  0
 19 47  1  0  0  0  0
 20 48  1  0  0  0  0
 20  1  1  0  0  0  0
 21 20  1  0  0  0  0
 21 49  1  0  0  0  0
 22 52  1  0  0  0  0
 22 20  1  0  0  0  0
 23  5  1  0  0  0  0
 24  7  1  0  0  0  0
 25  8  1  0  0  0  0
 26  9  1  0  0  0  0
 27 11  1  0  0  0  0
 30 12  1  0  0  0  0
 32 13  1  0  0  0  0
 34 14  1  0  0  0  0
 35 15  1  0  0  0  0
 38 16  1  0  0  0  0
 41 17  1  0  0  0  0
 42 18  1  0  0  0  0
 46 19  1  0  0  0  0
 50 21  1  0  0  0  0
 51 21  1  0  0  0  0
 53 22  1  0  0  0  0
 54 22  1  0  0  0  0
M  END
