1,2,3
 OpenBabel05122313063D

 73 77  0  0  0  0  0  0  0  0999 V2000
    2.1502   -0.1497    0.1478 P   0  0  0  0  0  0  0  0  0  0  0  0
   -2.1371   -0.0189    0.1679 P   0  0  0  0  0  0  0  0  0  0  0  0
    0.0571    1.7919    0.9273 N   0  0  0  0  0  0  0  0  0  0  0  0
    2.5380    1.4269    1.0581 C   0  0  0  0  0  0  0  0  0  0  0  0
    3.3951    1.3136    1.7517 H   0  0  0  0  0  0  0  0  0  0  0  0
    2.8514    2.1610    0.2892 H   0  0  0  0  0  0  0  0  0  0  0  0
    1.2771    1.8579    1.7958 C   0  0  0  0  0  0  0  0  0  0  0  0
    1.0851    1.1728    2.6442 H   0  0  0  0  0  0  0  0  0  0  0  0
    1.3781    2.8837    2.2123 H   0  0  0  0  0  0  0  0  0  0  0  0
   -1.1551    1.9135    1.8041 C   0  0  0  0  0  0  0  0  0  0  0  0
   -1.1854    2.9289    2.2551 H   0  0  0  0  0  0  0  0  0  0  0  0
   -1.0153    1.1852    2.6277 H   0  0  0  0  0  0  0  0  0  0  0  0
   -2.4420    1.5901    1.0597 C   0  0  0  0  0  0  0  0  0  0  0  0
   -2.7112    2.3674    0.3179 H   0  0  0  0  0  0  0  0  0  0  0  0
   -3.2934    1.5029    1.7634 H   0  0  0  0  0  0  0  0  0  0  0  0
    0.0827    2.8460   -0.1653 C   0  0  0  0  0  0  0  0  0  0  0  0
    0.9602    2.6199   -0.8001 H   0  0  0  0  0  0  0  0  0  0  0  0
   -0.8099    2.6701   -0.7950 H   0  0  0  0  0  0  0  0  0  0  0  0
    0.1281    4.2804    0.3087 C   0  0  0  0  0  0  0  0  0  0  0  0
    1.3632    4.9336    0.5052 C   0  0  0  0  0  0  0  0  0  0  0  0
    2.3033    4.4071    0.2760 H   0  0  0  0  0  0  0  0  0  0  0  0
    1.4110    6.2581    0.9634 C   0  0  0  0  0  0  0  0  0  0  0  0
    2.3829    6.7538    1.1046 H   0  0  0  0  0  0  0  0  0  0  0  0
    0.2206    6.9534    1.2273 C   0  0  0  0  0  0  0  0  0  0  0  0
    0.2564    7.9938    1.5829 H   0  0  0  0  0  0  0  0  0  0  0  0
   -1.0161    6.3230    1.0187 C   0  0  0  0  0  0  0  0  0  0  0  0
   -1.9526    6.8697    1.2037 H   0  0  0  0  0  0  0  0  0  0  0  0
   -1.0601    4.9984    0.5602 C   0  0  0  0  0  0  0  0  0  0  0  0
   -2.0370    4.5240    0.3760 H   0  0  0  0  0  0  0  0  0  0  0  0
    2.4111   -1.5128    1.3430 C   0  0  0  0  0  0  0  0  0  0  0  0
    2.2849   -2.8383    0.8677 C   0  0  0  0  0  0  0  0  0  0  0  0
    2.0880   -3.0208   -0.2001 H   0  0  0  0  0  0  0  0  0  0  0  0
    2.3965   -3.9173    1.7539 C   0  0  0  0  0  0  0  0  0  0  0  0
    2.3038   -4.9447    1.3714 H   0  0  0  0  0  0  0  0  0  0  0  0
    2.6237   -3.6898    3.1222 C   0  0  0  0  0  0  0  0  0  0  0  0
    2.7085   -4.5390    3.8167 H   0  0  0  0  0  0  0  0  0  0  0  0
    2.7528   -2.3768    3.5993 C   0  0  0  0  0  0  0  0  0  0  0  0
    2.9426   -2.1920    4.6671 H   0  0  0  0  0  0  0  0  0  0  0  0
    2.6490   -1.2909    2.7157 C   0  0  0  0  0  0  0  0  0  0  0  0
    2.7695   -0.2731    3.1136 H   0  0  0  0  0  0  0  0  0  0  0  0
    3.4294   -0.3159   -1.1342 C   0  0  0  0  0  0  0  0  0  0  0  0
    4.6929   -0.8673   -0.8377 C   0  0  0  0  0  0  0  0  0  0  0  0
    4.9027   -1.2638    0.1676 H   0  0  0  0  0  0  0  0  0  0  0  0
    5.6784   -0.9169   -1.8339 C   0  0  0  0  0  0  0  0  0  0  0  0
    6.6641   -1.3490   -1.6052 H   0  0  0  0  0  0  0  0  0  0  0  0
    5.4070   -0.4216   -3.1201 C   0  0  0  0  0  0  0  0  0  0  0  0
    6.1819   -0.4676   -3.8998 H   0  0  0  0  0  0  0  0  0  0  0  0
    4.1462    0.1209   -3.4171 C   0  0  0  0  0  0  0  0  0  0  0  0
    3.9291    0.4939   -4.4290 H   0  0  0  0  0  0  0  0  0  0  0  0
    3.1531    0.1701   -2.4289 C   0  0  0  0  0  0  0  0  0  0  0  0
    2.1506    0.5593   -2.6663 H   0  0  0  0  0  0  0  0  0  0  0  0
   -2.4443   -1.2993    1.4392 C   0  0  0  0  0  0  0  0  0  0  0  0
   -1.3938   -2.1593    1.8193 C   0  0  0  0  0  0  0  0  0  0  0  0
   -0.4241   -2.0972    1.3026 H   0  0  0  0  0  0  0  0  0  0  0  0
   -1.5938   -3.1036    2.8372 C   0  0  0  0  0  0  0  0  0  0  0  0
   -0.7669   -3.7695    3.1263 H   0  0  0  0  0  0  0  0  0  0  0  0
   -2.8411   -3.1968    3.4730 C   0  0  0  0  0  0  0  0  0  0  0  0
   -2.9999   -3.9398    4.2689 H   0  0  0  0  0  0  0  0  0  0  0  0
   -3.8937   -2.3467    3.0901 C   0  0  0  0  0  0  0  0  0  0  0  0
   -4.8744   -2.4269    3.5824 H   0  0  0  0  0  0  0  0  0  0  0  0
   -3.6998   -1.3970    2.0777 C   0  0  0  0  0  0  0  0  0  0  0  0
   -4.5322   -0.7422    1.7747 H   0  0  0  0  0  0  0  0  0  0  0  0
   -3.4375   -0.1751   -1.0930 C   0  0  0  0  0  0  0  0  0  0  0  0
   -3.7602    0.9271   -1.9135 C   0  0  0  0  0  0  0  0  0  0  0  0
   -3.2741    1.9039   -1.7630 H   0  0  0  0  0  0  0  0  0  0  0  0
   -4.7030    0.7865   -2.9404 C   0  0  0  0  0  0  0  0  0  0  0  0
   -4.9556    1.6511   -3.5718 H   0  0  0  0  0  0  0  0  0  0  0  0
   -5.3189   -0.4557   -3.1646 C   0  0  0  0  0  0  0  0  0  0  0  0
   -6.0578   -0.5646   -3.9724 H   0  0  0  0  0  0  0  0  0  0  0  0
   -4.9865   -1.5587   -2.3630 C   0  0  0  0  0  0  0  0  0  0  0  0
   -5.4607   -2.5350   -2.5424 H   0  0  0  0  0  0  0  0  0  0  0  0
   -4.0452   -1.4253   -1.3326 C   0  0  0  0  0  0  0  0  0  0  0  0
   -3.7810   -2.2942   -0.7123 H   0  0  0  0  0  0  0  0  0  0  0  0
  1  4  1  0  0  0  0
  1 30  1  0  0  0  0
  2 13  1  0  0  0  0
  2 52  1  0  0  0  0
  3  7  1  0  0  0  0
  3 10  1  0  0  0  0
  4  5  1  0  0  0  0
  4  7  1  0  0  0  0
  6  4  1  0  0  0  0
  7  9  1  0  0  0  0
  7  8  1  0  0  0  0
 10 11  1  0  0  0  0
 10 12  1  0  0  0  0
 13 15  1  0  0  0  0
 13 10  1  0  0  0  0
 14 13  1  0  0  0  0
 16 19  1  0  0  0  0
 16  3  1  0  0  0  0
 17 16  1  0  0  0  0
 18 16  1  0  0  0  0
 19 20  2  0  0  0  0
 19 28  1  0  0  0  0
 20 22  1  0  0  0  0
 21 20  1  0  0  0  0
 22 23  1  0  0  0  0
 22 24  2  0  0  0  0
 24 25  1  0  0  0  0
 26 27  1  0  0  0  0
 26 24  1  0  0  0  0
 28 26  2  0  0  0  0
 29 28  1  0  0  0  0
 30 39  1  0  0  0  0
 31 30  2  0  0  0  0
 31 33  1  0  0  0  0
 32 31  1  0  0  0  0
 33 35  2  0  0  0  0
 34 33  1  0  0  0  0
 35 37  1  0  0  0  0
 35 36  1  0  0  0  0
 37 38  1  0  0  0  0
 39 40  1  0  0  0  0
 39 37  2  0  0  0  0
 41 42  1  0  0  0  0
 41  1  1  0  0  0  0
 42 43  1  0  0  0  0
 44 45  1  0  0  0  0
 44 42  2  0  0  0  0
 46 44  1  0  0  0  0
 47 46  1  0  0  0  0
 48 46  2  0  0  0  0
 48 50  1  0  0  0  0
 49 48  1  0  0  0  0
 50 41  2  0  0  0  0
 51 50  1  0  0  0  0
 52 53  2  0  0  0  0
 52 61  1  0  0  0  0
 53 55  1  0  0  0  0
 54 53  1  0  0  0  0
 55 56  1  0  0  0  0
 55 57  2  0  0  0  0
 57 58  1  0  0  0  0
 59 57  1  0  0  0  0
 59 60  1  0  0  0  0
 61 59  2  0  0  0  0
 62 61  1  0  0  0  0
 63  2  1  0  0  0  0
 64 65  1  0  0  0  0
 64 63  2  0  0  0  0
 66 64  1  0  0  0  0
 67 66  1  0  0  0  0
 68 66  2  0  0  0  0
 68 70  1  0  0  0  0
 69 68  1  0  0  0  0
 70 72  2  0  0  0  0
 71 70  1  0  0  0  0
 72 63  1  0  0  0  0
 72 73  1  0  0  0  0
M  END
