1,2,7
 OpenBabel05122313063D

 59 65  0  0  1  0  0  0  0  0999 V2000
    2.2413    0.4364    0.1788 P   0  0  0  0  0  0  0  0  0  0  0  0
   -2.2413    0.4362   -0.1788 P   0  0  0  0  0  0  0  0  0  0  0  0
    3.1653    0.0357    1.4704 O   0  0  0  0  0  0  0  0  0  0  0  0
    3.1506   -0.0275   -1.0978 O   0  0  0  0  0  0  0  0  0  0  0  0
   -3.1506   -0.0277    1.0978 O   0  0  0  0  0  0  0  0  0  0  0  0
   -3.1651    0.0353   -1.4704 O   0  0  0  0  0  0  0  0  0  0  0  0
   -0.0000    2.2421    0.0000 N   0  0  0  0  0  2  0  0  0  0  0  0
    2.3139    2.1457    0.3240 N   0  0  0  0  0  0  0  0  0  0  0  0
    3.2013    2.6249    0.5057 H   0  0  0  0  0  0  0  0  0  0  0  0
   -2.3140    2.1455   -0.3241 N   0  0  0  0  0  0  0  0  0  0  0  0
   -3.2014    2.6247   -0.5056 H   0  0  0  0  0  0  0  0  0  0  0  0
    1.1757    2.9191    0.1635 C   0  0  2  0  0  3  0  0  0  0  0  0
    1.2057    4.3240    0.1662 C   0  0  0  0  0  0  0  0  0  0  0  0
    2.1582    4.8546    0.2934 H   0  0  0  0  0  0  0  0  0  0  0  0
   -0.0001    5.0143   -0.0000 C   0  0  0  0  0  0  0  0  0  0  0  0
   -0.0002    6.1140   -0.0000 H   0  0  0  0  0  0  0  0  0  0  0  0
   -1.2059    4.3239   -0.1662 C   0  0  0  0  0  0  0  0  0  0  0  0
   -2.1585    4.8544   -0.2935 H   0  0  0  0  0  0  0  0  0  0  0  0
   -1.1758    2.9190   -0.1636 C   0  0  0  0  0  0  0  0  0  0  0  0
    4.8697   -1.5240    0.7037 C   0  0  0  0  0  0  0  0  0  0  0  0
    3.7541   -1.2471    1.5244 C   0  0  0  0  0  0  0  0  0  0  0  0
    3.2427   -2.1675    2.4432 C   0  0  0  0  0  0  0  0  0  0  0  0
    2.3654   -1.8943    3.0458 H   0  0  0  0  0  0  0  0  0  0  0  0
    3.8696   -3.4141    2.5743 C   0  0  0  0  0  0  0  0  0  0  0  0
    3.4767   -4.1485    3.2922 H   0  0  0  0  0  0  0  0  0  0  0  0
    4.9921   -3.7195    1.7871 C   0  0  0  0  0  0  0  0  0  0  0  0
    5.4829   -4.6987    1.8840 H   0  0  0  0  0  0  0  0  0  0  0  0
    5.4834   -2.7863    0.8659 C   0  0  0  0  0  0  0  0  0  0  0  0
    6.3467   -3.0394    0.2329 H   0  0  0  0  0  0  0  0  0  0  0  0
    5.3933   -0.5329   -0.2662 C   0  0  0  0  0  0  0  0  0  0  0  0
    4.5407    0.2082   -1.1164 C   0  0  0  0  0  0  0  0  0  0  0  0
    5.0239    1.1332   -2.0492 C   0  0  0  0  0  0  0  0  0  0  0  0
    4.3091    1.6618   -2.6960 H   0  0  0  0  0  0  0  0  0  0  0  0
    6.4072    1.3344   -2.1593 C   0  0  0  0  0  0  0  0  0  0  0  0
    6.7979    2.0533   -2.8943 H   0  0  0  0  0  0  0  0  0  0  0  0
    7.2846    0.6093   -1.3367 C   0  0  0  0  0  0  0  0  0  0  0  0
    8.3704    0.7638   -1.4173 H   0  0  0  0  0  0  0  0  0  0  0  0
    6.7818   -0.3097   -0.4071 C   0  0  0  0  0  0  0  0  0  0  0  0
    7.4716   -0.8630    0.2472 H   0  0  0  0  0  0  0  0  0  0  0  0
   -5.3932   -0.5329    0.2661 C   0  0  0  0  0  0  0  0  0  0  0  0
   -4.5407    0.2083    1.1162 C   0  0  0  0  0  0  0  0  0  0  0  0
   -5.0238    1.1335    2.0489 C   0  0  0  0  0  0  0  0  0  0  0  0
   -4.3090    1.6621    2.6957 H   0  0  0  0  0  0  0  0  0  0  0  0
   -6.4072    1.3349    2.1588 C   0  0  0  0  0  0  0  0  0  0  0  0
   -6.7979    2.0539    2.8936 H   0  0  0  0  0  0  0  0  0  0  0  0
   -7.2845    0.6098    1.3363 C   0  0  0  0  0  0  0  0  0  0  0  0
   -8.3703    0.7643    1.4167 H   0  0  0  0  0  0  0  0  0  0  0  0
   -6.7817   -0.3095    0.4069 C   0  0  0  0  0  0  0  0  0  0  0  0
   -7.4716   -0.8628   -0.2474 H   0  0  0  0  0  0  0  0  0  0  0  0
   -4.8696   -1.5241   -0.7036 C   0  0  0  0  0  0  0  0  0  0  0  0
   -3.7539   -1.2475   -1.5242 C   0  0  0  0  0  0  0  0  0  0  0  0
   -3.2425   -2.1681   -2.4428 C   0  0  0  0  0  0  0  0  0  0  0  0
   -2.3652   -1.8951   -3.0454 H   0  0  0  0  0  0  0  0  0  0  0  0
   -3.8695   -3.4146   -2.5737 C   0  0  0  0  0  0  0  0  0  0  0  0
   -3.4766   -4.1492   -3.2914 H   0  0  0  0  0  0  0  0  0  0  0  0
   -4.9920   -3.7198   -1.7865 C   0  0  0  0  0  0  0  0  0  0  0  0
   -5.4829   -4.6991   -1.8833 H   0  0  0  0  0  0  0  0  0  0  0  0
   -5.4834   -2.7864   -0.8656 C   0  0  0  0  0  0  0  0  0  0  0  0
   -6.3467   -3.0394   -0.2326 H   0  0  0  0  0  0  0  0  0  0  0  0
  1  8  1  0  0  0  0
  1  3  1  0  0  0  0
  2  5  1  0  0  0  0
  3 21  1  0  0  0  0
  4  1  1  0  0  0  0
  5 41  1  0  0  0  0
  6  2  1  0  0  0  0
  7 12  1  0  0  0  0
  8  9  1  0  0  0  0
 10  2  1  0  0  0  0
 10 19  1  0  0  0  0
 11 10  1  0  0  0  0
 12 13  1  0  0  0  0
 12  8  1  1  0  0  0
 13 14  1  0  0  0  0
 15 16  1  0  0  0  0
 15 13  2  0  0  0  0
 17 19  2  0  0  0  0
 17 15  1  0  0  0  0
 18 17  1  0  0  0  0
 19  7  1  0  0  0  0
 20 28  2  0  0  0  0
 20 21  1  0  0  0  0
 21 22  2  0  0  0  0
 22 24  1  0  0  0  0
 22 23  1  0  0  0  0
 24 25  1  0  0  0  0
 26 27  1  0  0  0  0
 26 24  2  0  0  0  0
 28 26  1  0  0  0  0
 29 28  1  0  0  0  0
 30 20  1  0  0  0  0
 31  4  1  0  0  0  0
 31 30  2  0  0  0  0
 32 31  1  0  0  0  0
 33 32  1  0  0  0  0
 34 32  2  0  0  0  0
 34 36  1  0  0  0  0
 35 34  1  0  0  0  0
 36 38  2  0  0  0  0
 37 36  1  0  0  0  0
 38 30  1  0  0  0  0
 38 39  1  0  0  0  0
 40 48  2  0  0  0  0
 40 41  1  0  0  0  0
 41 42  2  0  0  0  0
 42 44  1  0  0  0  0
 42 43  1  0  0  0  0
 44 45  1  0  0  0  0
 46 47  1  0  0  0  0
 46 44  2  0  0  0  0
 48 46  1  0  0  0  0
 49 48  1  0  0  0  0
 50 40  1  0  0  0  0
 51  6  1  0  0  0  0
 51 50  2  0  0  0  0
 52 51  1  0  0  0  0
 53 52  1  0  0  0  0
 54 52  2  0  0  0  0
 54 56  1  0  0  0  0
 55 54  1  0  0  0  0
 56 58  2  0  0  0  0
 57 56  1  0  0  0  0
 58 50  1  0  0  0  0
 58 59  1  0  0  0  0
M  END
