1,2,3
 OpenBabel05122313063D

 69 70  0  0  1  0  0  0  0  0999 V2000
    2.8333   -1.0572   -0.1946 P   0  0  0  0  0  0  0  0  0  0  0  0
   -0.8297    1.6042    0.3947 P   0  0  0  0  0  0  0  0  0  0  0  0
   -0.1052   -1.2578    0.2445 N   0  0  0  0  0  2  0  0  0  0  0  0
   -4.4464   -0.4429   -1.2896 N   0  0  0  0  0  0  0  0  0  0  0  0
    1.8328   -2.6264   -0.3628 C   0  0  0  0  0  0  0  0  0  0  0  0
    1.6750   -2.7316   -1.4593 H   0  0  0  0  0  0  0  0  0  0  0  0
    2.3605   -3.5347   -0.0097 H   0  0  0  0  0  0  0  0  0  0  0  0
    0.4686   -2.4928    0.2590 C   0  0  2  0  0  3  0  0  0  0  0  0
   -0.2237   -3.6085    0.7590 C   0  0  0  0  0  0  0  0  0  0  0  0
    0.2745   -4.5879    0.7850 H   0  0  0  0  0  0  0  0  0  0  0  0
   -1.5411   -3.4525    1.2016 C   0  0  0  0  0  0  0  0  0  0  0  0
   -2.0979   -4.3065    1.6156 H   0  0  0  0  0  0  0  0  0  0  0  0
   -2.1589   -2.2031    1.0669 C   0  0  0  0  0  0  0  0  0  0  0  0
   -3.2147   -2.0756    1.3358 H   0  0  0  0  0  0  0  0  0  0  0  0
   -1.4278   -1.1184    0.5531 C   0  0  0  0  0  0  0  0  0  0  0  0
   -2.0668    0.2060    0.2022 C   0  0  1  0  0  0  0  0  0  0  0  0
   -2.1646    0.1546   -0.9085 H   0  0  0  0  0  0  0  0  0  0  0  0
   -3.4765    0.4603    0.7530 C   0  0  0  0  0  0  0  0  0  0  0  0
   -3.5273    0.2840    1.8462 H   0  0  0  0  0  0  0  0  0  0  0  0
   -3.7122    1.5375    0.6092 H   0  0  0  0  0  0  0  0  0  0  0  0
   -4.5657   -0.3252    0.0455 C   0  0  0  0  0  0  0  0  0  0  0  0
   -5.6583   -0.8747    0.7474 C   0  0  0  0  0  0  0  0  0  0  0  0
   -5.7274   -0.7589    1.8402 H   0  0  0  0  0  0  0  0  0  0  0  0
   -6.6459   -1.5671    0.0339 C   0  0  0  0  0  0  0  0  0  0  0  0
   -7.5072   -2.0085    0.5587 H   0  0  0  0  0  0  0  0  0  0  0  0
   -6.5143   -1.6907   -1.3567 C   0  0  0  0  0  0  0  0  0  0  0  0
   -7.2615   -2.2289   -1.9583 H   0  0  0  0  0  0  0  0  0  0  0  0
   -5.3937   -1.1053   -1.9676 C   0  0  0  0  0  0  0  0  0  0  0  0
   -5.2516   -1.1756   -3.0607 H   0  0  0  0  0  0  0  0  0  0  0  0
    3.9681   -1.4209    1.2535 C   0  0  0  0  0  0  0  0  0  0  0  0
    4.5983   -2.2839    0.9446 H   0  0  0  0  0  0  0  0  0  0  0  0
    3.1466   -1.8176    2.4851 C   0  0  0  0  0  0  0  0  0  0  0  0
    2.4407   -1.0052    2.7550 H   0  0  0  0  0  0  0  0  0  0  0  0
    3.8188   -1.9988    3.3495 H   0  0  0  0  0  0  0  0  0  0  0  0
    2.5529   -2.7396    2.3233 H   0  0  0  0  0  0  0  0  0  0  0  0
    4.8644   -0.2114    1.5442 C   0  0  0  0  0  0  0  0  0  0  0  0
    5.5324    0.0325    0.6952 H   0  0  0  0  0  0  0  0  0  0  0  0
    5.5046   -0.4112    2.4287 H   0  0  0  0  0  0  0  0  0  0  0  0
    4.2517    0.6873    1.7606 H   0  0  0  0  0  0  0  0  0  0  0  0
    3.8832   -1.0770   -1.7479 C   0  0  0  0  0  0  0  0  0  0  0  0
    3.1042   -1.3036   -2.5094 H   0  0  0  0  0  0  0  0  0  0  0  0
    4.9624   -2.1618   -1.7651 C   0  0  0  0  0  0  0  0  0  0  0  0
    5.7762   -1.9452   -1.0423 H   0  0  0  0  0  0  0  0  0  0  0  0
    5.4292   -2.2202   -2.7707 H   0  0  0  0  0  0  0  0  0  0  0  0
    4.5590   -3.1686   -1.5301 H   0  0  0  0  0  0  0  0  0  0  0  0
    4.4123    0.3225   -2.0819 C   0  0  0  0  0  0  0  0  0  0  0  0
    3.5655    1.0261   -2.1969 H   0  0  0  0  0  0  0  0  0  0  0  0
    4.9675    0.2923   -3.0426 H   0  0  0  0  0  0  0  0  0  0  0  0
    5.1019    0.7183   -1.3095 H   0  0  0  0  0  0  0  0  0  0  0  0
   -1.1685    2.2894    2.1128 C   0  0  0  0  0  0  0  0  0  0  0  0
   -2.2301    2.6248    2.1021 H   0  0  0  0  0  0  0  0  0  0  0  0
   -0.2679    3.4985    2.3946 C   0  0  0  0  0  0  0  0  0  0  0  0
    0.8018    3.2200    2.3031 H   0  0  0  0  0  0  0  0  0  0  0  0
   -0.4377    3.8686    3.4272 H   0  0  0  0  0  0  0  0  0  0  0  0
   -0.4624    4.3408    1.7026 H   0  0  0  0  0  0  0  0  0  0  0  0
   -0.9878    1.2061    3.1804 C   0  0  0  0  0  0  0  0  0  0  0  0
   -1.6525    0.3332    3.0246 H   0  0  0  0  0  0  0  0  0  0  0  0
   -1.2024    1.6209    4.1874 H   0  0  0  0  0  0  0  0  0  0  0  0
    0.0558    0.8310    3.1698 H   0  0  0  0  0  0  0  0  0  0  0  0
   -1.4521    2.9684   -0.7530 C   0  0  0  0  0  0  0  0  0  0  0  0
   -2.1410    3.5901   -0.1358 H   0  0  0  0  0  0  0  0  0  0  0  0
   -2.1998    2.4351   -1.9828 C   0  0  0  0  0  0  0  0  0  0  0  0
   -1.5357    1.7650   -2.5672 H   0  0  0  0  0  0  0  0  0  0  0  0
   -2.4831    3.2895   -2.6330 H   0  0  0  0  0  0  0  0  0  0  0  0
   -3.1262    1.8792   -1.7395 H   0  0  0  0  0  0  0  0  0  0  0  0
   -0.2510    3.8179   -1.1998 C   0  0  0  0  0  0  0  0  0  0  0  0
    0.3432    4.2151   -0.3549 H   0  0  0  0  0  0  0  0  0  0  0  0
   -0.6042    4.6786   -1.8050 H   0  0  0  0  0  0  0  0  0  0  0  0
    0.4233    3.1988   -1.8255 H   0  0  0  0  0  0  0  0  0  0  0  0
  1 30  1  0  0  0  0
  2 50  1  0  0  0  0
  3  8  1  0  0  0  0
  3 15  1  0  0  0  0
  4 21  1  0  0  0  0
  5  1  1  0  0  0  0
  5  7  1  0  0  0  0
  6  5  1  0  0  0  0
  8  5  1  6  0  0  0
  8  9  1  0  0  0  0
  9 10  1  0  0  0  0
  9 11  2  0  0  0  0
 11 12  1  0  0  0  0
 13 11  1  0  0  0  0
 13 14  1  0  0  0  0
 15 13  2  0  0  0  0
 16 17  1  6  0  0  0
 16  2  1  0  0  0  0
 16 15  1  0  0  0  0
 16 18  1  0  0  0  0
 18 19  1  0  0  0  0
 20 18  1  0  0  0  0
 21 22  2  0  0  0  0
 21 18  1  0  0  0  0
 22 23  1  0  0  0  0
 24 25  1  0  0  0  0
 24 22  1  0  0  0  0
 26 24  2  0  0  0  0
 27 26  1  0  0  0  0
 28 26  1  0  0  0  0
 28  4  2  0  0  0  0
 29 28  1  0  0  0  0
 30 36  1  0  0  0  0
 30 32  1  0  0  0  0
 31 30  1  0  0  0  0
 32 33  1  0  0  0  0
 32 34  1  0  0  0  0
 35 32  1  0  0  0  0
 36 39  1  0  0  0  0
 36 38  1  0  0  0  0
 37 36  1  0  0  0  0
 40  1  1  0  0  0  0
 41 40  1  0  0  0  0
 42 40  1  0  0  0  0
 42 45  1  0  0  0  0
 42 43  1  0  0  0  0
 44 42  1  0  0  0  0
 46 40  1  0  0  0  0
 46 49  1  0  0  0  0
 47 46  1  0  0  0  0
 48 46  1  0  0  0  0
 50 52  1  0  0  0  0
 50 56  1  0  0  0  0
 51 50  1  0  0  0  0
 52 54  1  0  0  0  0
 53 52  1  0  0  0  0
 55 52  1  0  0  0  0
 56 58  1  0  0  0  0
 57 56  1  0  0  0  0
 59 56  1  0  0  0  0
 60 61  1  0  0  0  0
 60  2  1  0  0  0  0
 62 65  1  0  0  0  0
 62 60  1  0  0  0  0
 63 62  1  0  0  0  0
 64 62  1  0  0  0  0
 66 60  1  0  0  0  0
 66 67  1  0  0  0  0
 68 66  1  0  0  0  0
 69 66  1  0  0  0  0
M  END
