1,2,3
 OpenBabel05122313063D

 65 69  0  0  1  0  0  0  0  0999 V2000
   -1.9998    0.0635   -0.1069 P   0  0  0  0  0  0  0  0  0  0  0  0
    1.9772   -0.0350   -0.1230 P   0  0  0  0  0  0  0  0  0  0  0  0
    0.0282   -0.2583    1.8064 N   0  0  0  0  0  2  0  0  0  0  0  0
   -2.2598    0.0215    1.6509 N   0  0  0  0  0  0  0  0  0  0  0  0
    2.3213   -0.3223    1.6016 N   0  0  0  0  0  0  0  0  0  0  0  0
   -1.1430   -0.1661    2.4583 C   0  0  2  0  0  3  0  0  0  0  0  0
   -1.1786   -0.2199    3.8733 C   0  0  0  0  0  0  0  0  0  0  0  0
   -2.1184   -0.1471    4.4330 H   0  0  0  0  0  0  0  0  0  0  0  0
    0.0473   -0.3709    4.5387 C   0  0  0  0  0  0  0  0  0  0  0  0
    0.0528   -0.4277    5.6382 H   0  0  0  0  0  0  0  0  0  0  0  0
    1.2673   -0.4338    3.8494 C   0  0  0  0  0  0  0  0  0  0  0  0
    2.2177   -0.5246    4.3885 H   0  0  0  0  0  0  0  0  0  0  0  0
    1.2122   -0.3571    2.4364 C   0  0  0  0  0  0  0  0  0  0  0  0
   -3.5532    0.2550    2.2705 C   0  0  0  0  0  0  0  0  0  0  0  0
   -4.3223    0.3757    1.4875 H   0  0  0  0  0  0  0  0  0  0  0  0
   -3.8559   -0.6053    2.9049 H   0  0  0  0  0  0  0  0  0  0  0  0
   -3.5471    1.1724    2.8996 H   0  0  0  0  0  0  0  0  0  0  0  0
    3.6536   -0.4105    2.1717 C   0  0  0  0  0  0  0  0  0  0  0  0
    4.4028   -0.4036    1.3601 H   0  0  0  0  0  0  0  0  0  0  0  0
    3.8727    0.4402    2.8558 H   0  0  0  0  0  0  0  0  0  0  0  0
    3.7793   -1.3566    2.7402 H   0  0  0  0  0  0  0  0  0  0  0  0
   -3.5578   -0.6469   -0.7517 C   0  0  0  0  0  0  0  0  0  0  0  0
   -3.5591   -2.0473   -0.9386 C   0  0  0  0  0  0  0  0  0  0  0  0
   -2.6419   -2.6262   -0.7231 H   0  0  0  0  0  0  0  0  0  0  0  0
   -4.7145   -2.6836   -1.4149 C   0  0  0  0  0  0  0  0  0  0  0  0
   -4.7110   -3.7747   -1.5595 H   0  0  0  0  0  0  0  0  0  0  0  0
   -5.8620   -1.9336   -1.7214 C   0  0  0  0  0  0  0  0  0  0  0  0
   -6.7639   -2.4367   -2.1027 H   0  0  0  0  0  0  0  0  0  0  0  0
   -5.8574   -0.5391   -1.5506 C   0  0  0  0  0  0  0  0  0  0  0  0
   -6.7538    0.0508   -1.7960 H   0  0  0  0  0  0  0  0  0  0  0  0
   -4.7103    0.1059   -1.0646 C   0  0  0  0  0  0  0  0  0  0  0  0
   -4.7061    1.1992   -0.9341 H   0  0  0  0  0  0  0  0  0  0  0  0
   -2.0738    1.8554   -0.4921 C   0  0  0  0  0  0  0  0  0  0  0  0
   -2.2856    2.2751   -1.8247 C   0  0  0  0  0  0  0  0  0  0  0  0
   -2.5445    1.5354   -2.5990 H   0  0  0  0  0  0  0  0  0  0  0  0
   -2.1652    3.6285   -2.1684 C   0  0  0  0  0  0  0  0  0  0  0  0
   -2.3436    3.9440   -3.2080 H   0  0  0  0  0  0  0  0  0  0  0  0
   -1.8114    4.5773   -1.1945 C   0  0  0  0  0  0  0  0  0  0  0  0
   -1.7074    5.6381   -1.4682 H   0  0  0  0  0  0  0  0  0  0  0  0
   -1.5811    4.1639    0.1266 C   0  0  0  0  0  0  0  0  0  0  0  0
   -1.2891    4.8987    0.8920 H   0  0  0  0  0  0  0  0  0  0  0  0
   -1.7122    2.8127    0.4786 C   0  0  0  0  0  0  0  0  0  0  0  0
   -1.5210    2.4938    1.5142 H   0  0  0  0  0  0  0  0  0  0  0  0
    3.4927   -0.6664   -0.9215 C   0  0  0  0  0  0  0  0  0  0  0  0
    3.5190   -2.0533   -1.1932 C   0  0  0  0  0  0  0  0  0  0  0  0
    2.6455   -2.6766   -0.9270 H   0  0  0  0  0  0  0  0  0  0  0  0
    4.6418   -2.6153   -1.8164 C   0  0  0  0  0  0  0  0  0  0  0  0
    4.6616   -3.6957   -2.0261 H   0  0  0  0  0  0  0  0  0  0  0  0
    5.7273   -1.8038   -2.1886 C   0  0  0  0  0  0  0  0  0  0  0  0
    6.6029   -2.2492   -2.6855 H   0  0  0  0  0  0  0  0  0  0  0  0
    5.6929   -0.4225   -1.9359 C   0  0  0  0  0  0  0  0  0  0  0  0
    6.5398    0.2149   -2.2332 H   0  0  0  0  0  0  0  0  0  0  0  0
    4.5799    0.1489   -1.3005 C   0  0  0  0  0  0  0  0  0  0  0  0
    4.5500    1.2307   -1.0982 H   0  0  0  0  0  0  0  0  0  0  0  0
    2.0822    1.7952   -0.2576 C   0  0  0  0  0  0  0  0  0  0  0  0
    2.2802    2.6336    0.8570 C   0  0  0  0  0  0  0  0  0  0  0  0
    2.4728    2.1909    1.8454 H   0  0  0  0  0  0  0  0  0  0  0  0
    2.2190    4.0290    0.7127 C   0  0  0  0  0  0  0  0  0  0  0  0
    2.3745    4.6745    1.5909 H   0  0  0  0  0  0  0  0  0  0  0  0
    1.9577    4.5990   -0.5421 C   0  0  0  0  0  0  0  0  0  0  0  0
    1.9039    5.6927   -0.6522 H   0  0  0  0  0  0  0  0  0  0  0  0
    1.7489    3.7678   -1.6561 C   0  0  0  0  0  0  0  0  0  0  0  0
    1.5248    4.2081   -2.6394 H   0  0  0  0  0  0  0  0  0  0  0  0
    1.8006    2.3759   -1.5141 C   0  0  0  0  0  0  0  0  0  0  0  0
    1.6061    1.7276   -2.3839 H   0  0  0  0  0  0  0  0  0  0  0  0
  1  4  1  0  0  0  0
  2  5  1  0  0  0  0
  3 13  1  0  0  0  0
  3  6  1  0  0  0  0
  4 14  1  0  0  0  0
  5 18  1  0  0  0  0
  5 13  1  0  0  0  0
  6  4  1  1  0  0  0
  6  7  1  0  0  0  0
  7  8  1  0  0  0  0
  7  9  2  0  0  0  0
  9 10  1  0  0  0  0
 11 12  1  0  0  0  0
 11  9  1  0  0  0  0
 13 11  2  0  0  0  0
 14 17  1  0  0  0  0
 14 16  1  0  0  0  0
 15 14  1  0  0  0  0
 18 21  1  0  0  0  0
 18 20  1  0  0  0  0
 19 18  1  0  0  0  0
 22  1  1  0  0  0  0
 23 22  1  0  0  0  0
 23 24  1  0  0  0  0
 25 23  2  0  0  0  0
 26 25  1  0  0  0  0
 27 29  2  0  0  0  0
 27 25  1  0  0  0  0
 28 27  1  0  0  0  0
 29 31  1  0  0  0  0
 30 29  1  0  0  0  0
 31 32  1  0  0  0  0
 31 22  2  0  0  0  0
 33  1  1  0  0  0  0
 33 42  1  0  0  0  0
 34 33  2  0  0  0  0
 35 34  1  0  0  0  0
 36 34  1  0  0  0  0
 36 38  2  0  0  0  0
 37 36  1  0  0  0  0
 38 40  1  0  0  0  0
 39 38  1  0  0  0  0
 40 42  2  0  0  0  0
 40 41  1  0  0  0  0
 42 43  1  0  0  0  0
 44  2  1  0  0  0  0
 45 46  1  0  0  0  0
 45 44  1  0  0  0  0
 47 45  2  0  0  0  0
 48 47  1  0  0  0  0
 49 51  2  0  0  0  0
 49 47  1  0  0  0  0
 50 49  1  0  0  0  0
 51 53  1  0  0  0  0
 52 51  1  0  0  0  0
 53 54  1  0  0  0  0
 53 44  2  0  0  0  0
 55  2  1  0  0  0  0
 55 56  1  0  0  0  0
 56 57  1  0  0  0  0
 58 56  2  0  0  0  0
 58 59  1  0  0  0  0
 60 58  1  0  0  0  0
 61 60  1  0  0  0  0
 62 64  1  0  0  0  0
 62 60  2  0  0  0  0
 63 62  1  0  0  0  0
 64 55  2  0  0  0  0
 65 64  1  0  0  0  0
M  END
