1,2,3
 OpenBabel05122313063D

 58 59  0  0  0  0  0  0  0  0999 V2000
    1.9739   -1.0113    0.3909 P   0  0  2  0  0  0  0  0  0  0  0  0
   -2.0029    1.0019    0.2230 P   0  0  2  0  0  0  0  0  0  0  0  0
    0.0086    0.2220    2.2115 N   0  0  0  0  0  0  0  0  0  0  0  0
   -0.4873   -0.6629    2.4360 H   0  0  0  0  0  0  0  0  0  0  0  0
    2.1053   -1.0476    2.2525 C   0  0  0  0  0  0  0  0  0  0  0  0
    1.6091   -1.9846    2.5835 H   0  0  0  0  0  0  0  0  0  0  0  0
    3.1557   -1.0770    2.6048 H   0  0  0  0  0  0  0  0  0  0  0  0
    1.3645    0.1711    2.7955 C   0  0  0  0  0  0  0  0  0  0  0  0
    1.8799    1.1092    2.5005 H   0  0  0  0  0  0  0  0  0  0  0  0
    1.3103    0.1456    3.9084 H   0  0  0  0  0  0  0  0  0  0  0  0
   -0.7998    1.3653    2.6828 C   0  0  0  0  0  0  0  0  0  0  0  0
   -0.8584    1.3701    3.7957 H   0  0  0  0  0  0  0  0  0  0  0  0
   -0.2723    2.2872    2.3610 H   0  0  0  0  0  0  0  0  0  0  0  0
   -2.1919    1.2964    2.0608 C   0  0  0  0  0  0  0  0  0  0  0  0
   -2.7788    2.2102    2.2806 H   0  0  0  0  0  0  0  0  0  0  0  0
   -2.7545    0.4270    2.4638 H   0  0  0  0  0  0  0  0  0  0  0  0
    2.1964   -2.7645   -0.1190 C   0  0  0  0  0  0  0  0  0  0  0  0
    2.2783   -2.8087   -1.2226 H   0  0  0  0  0  0  0  0  0  0  0  0
    3.1030   -3.2097    0.3346 H   0  0  0  0  0  0  0  0  0  0  0  0
    1.2933   -3.3263    0.1859 H   0  0  0  0  0  0  0  0  0  0  0  0
    3.5372   -0.1782   -0.1968 C   0  0  0  0  0  0  0  0  0  0  0  0
    3.4788    0.8289    0.2729 H   0  0  0  0  0  0  0  0  0  0  0  0
    4.8430   -0.8650    0.2364 C   0  0  0  0  0  0  0  0  0  0  0  0
    4.8795   -0.9976    1.3385 H   0  0  0  0  0  0  0  0  0  0  0  0
    4.8951   -1.8843   -0.2064 H   0  0  0  0  0  0  0  0  0  0  0  0
    6.0649   -0.0598   -0.2336 C   0  0  0  0  0  0  0  0  0  0  0  0
    6.9992   -0.5765    0.0721 H   0  0  0  0  0  0  0  0  0  0  0  0
    6.0678    0.9273    0.2808 H   0  0  0  0  0  0  0  0  0  0  0  0
    6.0403    0.1607   -1.7512 C   0  0  0  0  0  0  0  0  0  0  0  0
    6.1472   -0.8231   -2.2622 H   0  0  0  0  0  0  0  0  0  0  0  0
    6.9118    0.7720   -2.0669 H   0  0  0  0  0  0  0  0  0  0  0  0
    4.7295    0.8202   -2.1960 C   0  0  0  0  0  0  0  0  0  0  0  0
    4.7036    0.9319   -3.3001 H   0  0  0  0  0  0  0  0  0  0  0  0
    4.6704    1.8488   -1.7755 H   0  0  0  0  0  0  0  0  0  0  0  0
    3.5016    0.0307   -1.7224 C   0  0  0  0  0  0  0  0  0  0  0  0
    3.4771   -0.9575   -2.2350 H   0  0  0  0  0  0  0  0  0  0  0  0
    2.5743    0.5674   -2.0027 H   0  0  0  0  0  0  0  0  0  0  0  0
   -2.2230    2.6584   -0.5481 C   0  0  0  0  0  0  0  0  0  0  0  0
   -1.3681    3.2961   -0.2559 H   0  0  0  0  0  0  0  0  0  0  0  0
   -2.1961    2.5447   -1.6496 H   0  0  0  0  0  0  0  0  0  0  0  0
   -3.1821    3.1218   -0.2461 H   0  0  0  0  0  0  0  0  0  0  0  0
   -3.5587    0.0820   -0.2340 C   0  0  0  0  0  0  0  0  0  0  0  0
   -3.4801   -0.8418    0.3817 H   0  0  0  0  0  0  0  0  0  0  0  0
   -3.5432   -0.3520   -1.7101 C   0  0  0  0  0  0  0  0  0  0  0  0
   -2.6193   -0.9242   -1.9232 H   0  0  0  0  0  0  0  0  0  0  0  0
   -3.5256    0.5473   -2.3666 H   0  0  0  0  0  0  0  0  0  0  0  0
   -4.7764   -1.2029   -2.0445 C   0  0  0  0  0  0  0  0  0  0  0  0
   -4.7104   -2.1589   -1.4787 H   0  0  0  0  0  0  0  0  0  0  0  0
   -4.7669   -1.4751   -3.1206 H   0  0  0  0  0  0  0  0  0  0  0  0
   -6.0822   -0.4862   -1.6805 C   0  0  0  0  0  0  0  0  0  0  0  0
   -6.9563   -1.1363   -1.8951 H   0  0  0  0  0  0  0  0  0  0  0  0
   -6.1975    0.4151   -2.3246 H   0  0  0  0  0  0  0  0  0  0  0  0
   -6.0870   -0.0532   -0.2092 C   0  0  0  0  0  0  0  0  0  0  0  0
   -6.0776   -0.9575    0.4396 H   0  0  0  0  0  0  0  0  0  0  0  0
   -7.0197    0.4984    0.0339 H   0  0  0  0  0  0  0  0  0  0  0  0
   -4.8630    0.8144    0.1235 C   0  0  0  0  0  0  0  0  0  0  0  0
   -4.9311    1.7630   -0.4539 H   0  0  0  0  0  0  0  0  0  0  0  0
   -4.8767    1.0958    1.1978 H   0  0  0  0  0  0  0  0  0  0  0  0
  1 17  1  6  0  0  0
  1  5  1  0  0  0  0
  2 38  1  6  0  0  0
  2 14  1  0  0  0  0
  3  4  1  0  0  0  0
  3 11  1  0  0  0  0
  3  8  1  0  0  0  0
  5  6  1  0  0  0  0
  5  7  1  0  0  0  0
  5  8  1  0  0  0  0
  8 10  1  0  0  0  0
  9  8  1  0  0  0  0
 11 12  1  0  0  0  0
 13 11  1  0  0  0  0
 14 15  1  0  0  0  0
 14 16  1  0  0  0  0
 14 11  1  0  0  0  0
 17 20  1  0  0  0  0
 17 19  1  0  0  0  0
 18 17  1  0  0  0  0
 21 23  1  0  0  0  0
 21 22  1  0  0  0  0
 21  1  1  0  0  0  0
 23 24  1  0  0  0  0
 25 23  1  0  0  0  0
 26 27  1  0  0  0  0
 26 23  1  0  0  0  0
 26 28  1  0  0  0  0
 29 26  1  0  0  0  0
 30 29  1  0  0  0  0
 31 29  1  0  0  0  0
 32 34  1  0  0  0  0
 32 29  1  0  0  0  0
 32 35  1  0  0  0  0
 33 32  1  0  0  0  0
 35 21  1  0  0  0  0
 36 35  1  0  0  0  0
 37 35  1  0  0  0  0
 38 39  1  0  0  0  0
 38 41  1  0  0  0  0
 40 38  1  0  0  0  0
 42 56  1  0  0  0  0
 42  2  1  0  0  0  0
 42 43  1  0  0  0  0
 44 42  1  0  0  0  0
 45 44  1  0  0  0  0
 46 44  1  0  0  0  0
 47 44  1  0  0  0  0
 47 50  1  0  0  0  0
 47 48  1  0  0  0  0
 49 47  1  0  0  0  0
 50 53  1  0  0  0  0
 51 50  1  0  0  0  0
 52 50  1  0  0  0  0
 53 55  1  0  0  0  0
 53 56  1  0  0  0  0
 53 54  1  0  0  0  0
 56 58  1  0  0  0  0
 57 56  1  0  0  0  0
M  END
