1,2,30
 OpenBabel05122313063D

 55 55  0  0  1  0  0  0  0  0999 V2000
   -2.1732   -0.0606    0.1336 P   0  0  0  0  0  0  0  0  0  0  0  0
    0.0000    1.7576    0.0000 N   0  0  0  0  0  2  0  0  0  0  0  0
   -2.3192    1.6758    0.0448 N   0  0  0  0  0  0  0  0  0  0  0  0
   -1.1760    2.4416    0.0206 C   0  0  1  0  0  3  0  0  0  0  0  0
   -1.2138    3.8526    0.0192 C   0  0  0  0  0  0  0  0  0  0  0  0
    0.0000    4.5457    0.0001 C   0  0  0  0  0  0  0  0  0  0  0  0
   -3.2461   -0.6839   -1.2274 C   0  0  0  0  0  0  0  0  0  0  0  0
   -4.6570   -0.1000   -1.3307 C   0  0  0  0  0  0  0  0  0  0  0  0
   -5.4404   -0.6790   -2.5114 C   0  0  0  0  0  0  0  0  0  0  0  0
   -3.0737   -0.4694    1.6906 C   0  0  0  0  0  0  0  0  0  0  0  0
   -3.0068   -1.9595    2.0452 C   0  0  0  0  0  0  0  0  0  0  0  0
   -3.7288   -2.2762    3.3556 C   0  0  0  0  0  0  0  0  0  0  0  0
   -2.1777    4.3786    0.0331 H   0  0  0  0  0  0  0  0  0  0  0  0
    0.0000    5.6460    0.0001 H   0  0  0  0  0  0  0  0  0  0  0  0
   -2.6483   -0.5010   -2.1459 H   0  0  0  0  0  0  0  0  0  0  0  0
   -3.2763   -1.7881   -1.0937 H   0  0  0  0  0  0  0  0  0  0  0  0
   -5.2215   -0.2788   -0.3892 H   0  0  0  0  0  0  0  0  0  0  0  0
   -4.5859    1.0041   -1.4471 H   0  0  0  0  0  0  0  0  0  0  0  0
   -6.4542   -0.2360   -2.5844 H   0  0  0  0  0  0  0  0  0  0  0  0
   -4.9156   -0.4879   -3.4698 H   0  0  0  0  0  0  0  0  0  0  0  0
   -5.5586   -1.7779   -2.4127 H   0  0  0  0  0  0  0  0  0  0  0  0
   -2.5552    0.1251    2.4703 H   0  0  0  0  0  0  0  0  0  0  0  0
   -4.1250   -0.1143    1.6106 H   0  0  0  0  0  0  0  0  0  0  0  0
   -3.4348   -2.5737    1.2225 H   0  0  0  0  0  0  0  0  0  0  0  0
   -1.9368   -2.2414    2.1315 H   0  0  0  0  0  0  0  0  0  0  0  0
   -3.6617   -3.3548    3.6025 H   0  0  0  0  0  0  0  0  0  0  0  0
   -3.2811   -1.7101    4.1982 H   0  0  0  0  0  0  0  0  0  0  0  0
   -4.8052   -2.0082    3.3058 H   0  0  0  0  0  0  0  0  0  0  0  0
   -3.2106    2.1688    0.1184 H   0  0  0  0  0  0  0  0  0  0  0  0
    2.1732   -0.0606   -0.1336 P   0  0  0  0  0  0  0  0  0  0  0  0
    2.3192    1.6758   -0.0448 N   0  0  0  0  0  0  0  0  0  0  0  0
    1.1760    2.4416   -0.0205 C   0  0  0  0  0  0  0  0  0  0  0  0
    1.2138    3.8526   -0.0191 C   0  0  0  0  0  0  0  0  0  0  0  0
    3.2461   -0.6839    1.2274 C   0  0  0  0  0  0  0  0  0  0  0  0
    4.6570   -0.1000    1.3307 C   0  0  0  0  0  0  0  0  0  0  0  0
    5.4404   -0.6791    2.5114 C   0  0  0  0  0  0  0  0  0  0  0  0
    3.0737   -0.4693   -1.6906 C   0  0  0  0  0  0  0  0  0  0  0  0
    3.0068   -1.9595   -2.0453 C   0  0  0  0  0  0  0  0  0  0  0  0
    3.7288   -2.2761   -3.3557 C   0  0  0  0  0  0  0  0  0  0  0  0
    2.1778    4.3786   -0.0329 H   0  0  0  0  0  0  0  0  0  0  0  0
    2.6483   -0.5011    2.1458 H   0  0  0  0  0  0  0  0  0  0  0  0
    3.2763   -1.7881    1.0936 H   0  0  0  0  0  0  0  0  0  0  0  0
    5.2215   -0.2787    0.3892 H   0  0  0  0  0  0  0  0  0  0  0  0
    4.5859    1.0041    1.4471 H   0  0  0  0  0  0  0  0  0  0  0  0
    6.4542   -0.2361    2.5844 H   0  0  0  0  0  0  0  0  0  0  0  0
    4.9156   -0.4881    3.4698 H   0  0  0  0  0  0  0  0  0  0  0  0
    5.5586   -1.7780    2.4126 H   0  0  0  0  0  0  0  0  0  0  0  0
    2.5552    0.1252   -2.4703 H   0  0  0  0  0  0  0  0  0  0  0  0
    4.1250   -0.1142   -1.6106 H   0  0  0  0  0  0  0  0  0  0  0  0
    3.4348   -2.5737   -1.2226 H   0  0  0  0  0  0  0  0  0  0  0  0
    1.9368   -2.2414   -2.1317 H   0  0  0  0  0  0  0  0  0  0  0  0
    3.6616   -3.3547   -3.6026 H   0  0  0  0  0  0  0  0  0  0  0  0
    3.2811   -1.7100   -4.1982 H   0  0  0  0  0  0  0  0  0  0  0  0
    4.8052   -2.0081   -3.3059 H   0  0  0  0  0  0  0  0  0  0  0  0
    3.2106    2.1688   -0.1184 H   0  0  0  0  0  0  0  0  0  0  0  0
  1 10  1  0  0  0  0
  2  4  1  0  0  0  0
  3 29  1  0  0  0  0
  3  1  1  0  0  0  0
  4  3  1  1  0  0  0
  5  4  1  0  0  0  0
  5 13  1  0  0  0  0
  6 14  1  0  0  0  0
  6  5  2  0  0  0  0
  7 16  1  0  0  0  0
  7  1  1  0  0  0  0
  8  7  1  0  0  0  0
  8 17  1  0  0  0  0
  9 21  1  0  0  0  0
  9  8  1  0  0  0  0
 10 11  1  0  0  0  0
 10 22  1  0  0  0  0
 11 25  1  0  0  0  0
 11 12  1  0  0  0  0
 12 26  1  0  0  0  0
 12 27  1  0  0  0  0
 15  7  1  0  0  0  0
 18  8  1  0  0  0  0
 19  9  1  0  0  0  0
 20  9  1  0  0  0  0
 23 10  1  0  0  0  0
 24 11  1  0  0  0  0
 28 12  1  0  0  0  0
 30 31  1  0  0  0  0
 30 34  1  0  0  0  0
 31 32  1  0  0  0  0
 32 33  2  0  0  0  0
 32  2  1  0  0  0  0
 33  6  1  0  0  0  0
 34 35  1  0  0  0  0
 34 41  1  0  0  0  0
 35 44  1  0  0  0  0
 35 36  1  0  0  0  0
 36 45  1  0  0  0  0
 36 46  1  0  0  0  0
 37 49  1  0  0  0  0
 37 30  1  0  0  0  0
 38 37  1  0  0  0  0
 38 50  1  0  0  0  0
 39 54  1  0  0  0  0
 39 38  1  0  0  0  0
 40 33  1  0  0  0  0
 42 34  1  0  0  0  0
 43 35  1  0  0  0  0
 47 36  1  0  0  0  0
 48 37  1  0  0  0  0
 51 38  1  0  0  0  0
 52 39  1  0  0  0  0
 53 39  1  0  0  0  0
 55 31  1  0  0  0  0
M  END
