1,5,10,25,26,27
 OpenBabel05122313063D

 48 48  0  0  0  0  0  0  0  0999 V2000
    0.3239    1.2208    1.6008 O   0  5  0  0  0  0  0  0  0  0  0  0
    0.6078    3.3690    2.1662 O   0  0  0  0  0  0  0  0  0  0  0  0
    0.2788    2.5081    1.3670 C   0  0  0  0  0  0  0  0  0  0  0  0
   -0.2871    2.8460   -0.0170 C   0  0  0  0  0  0  0  0  0  0  0  0
   -0.1037    1.7046   -0.9741 N   0  0  0  0  0  0  0  0  0  0  0  0
    1.1851    1.8324   -1.7058 C   0  0  0  0  0  0  0  0  0  0  0  0
    2.3361    1.4608   -0.7898 C   0  0  0  0  0  0  0  0  0  0  0  0
   -1.2682    1.6120   -1.8235 C   0  0  0  0  0  0  0  0  0  0  0  0
   -2.2895    0.8285   -1.4572 C   0  0  0  0  0  0  0  0  0  0  0  0
    2.1651    0.0572   -0.3134 N   0  0  0  0  0  0  0  0  0  0  0  0
    3.0813   -0.2826    0.7524 C   0  0  0  0  0  0  0  0  0  0  0  0
    4.7018   -0.2335    0.3504 C   0  0  0  0  0  0  0  0  0  0  0  0
    4.9464    0.1393   -0.8136 O   0  5  0  0  0  0  0  0  0  0  0  0
    5.3562   -0.5965    1.3297 O   0  0  0  0  0  0  0  0  0  0  0  0
    0.1679    3.7748   -0.4170 H   0  0  0  0  0  0  0  0  0  0  0  0
   -1.3717    3.0293    0.1071 H   0  0  0  0  0  0  0  0  0  0  0  0
    1.1487    1.1495   -2.5770 H   0  0  0  0  0  0  0  0  0  0  0  0
    1.3112    2.8685   -2.0877 H   0  0  0  0  0  0  0  0  0  0  0  0
    2.3888    2.1156    0.1015 H   0  0  0  0  0  0  0  0  0  0  0  0
    3.3199    1.5308   -1.3037 H   0  0  0  0  0  0  0  0  0  0  0  0
   -1.3215    2.2884   -2.6938 H   0  0  0  0  0  0  0  0  0  0  0  0
   -3.2676    0.7867   -1.9684 H   0  0  0  0  0  0  0  0  0  0  0  0
    2.9406    0.4221    1.5934 H   0  0  0  0  0  0  0  0  0  0  0  0
    2.8917   -1.3123    1.1044 H   0  0  0  0  0  0  0  0  0  0  0  0
   -0.3238   -1.2202    1.6012 O   0  5  0  0  0  0  0  0  0  0  0  0
    0.1036   -1.7049   -0.9735 N   0  0  0  0  0  0  0  0  0  0  0  0
   -2.1652   -0.0573   -0.3132 N   0  0  0  0  0  0  0  0  0  0  0  0
    2.2894   -0.8289   -1.4572 C   0  0  0  0  0  0  0  0  0  0  0  0
   -0.2788   -2.5077    1.3678 C   0  0  0  0  0  0  0  0  0  0  0  0
    0.2871   -2.8460   -0.0161 C   0  0  0  0  0  0  0  0  0  0  0  0
   -1.1852   -1.8329   -1.7051 C   0  0  0  0  0  0  0  0  0  0  0  0
    1.2681   -1.6125   -1.8231 C   0  0  0  0  0  0  0  0  0  0  0  0
   -2.3362   -1.4611   -0.7892 C   0  0  0  0  0  0  0  0  0  0  0  0
   -3.0813    0.2828    0.7525 C   0  0  0  0  0  0  0  0  0  0  0  0
    3.2674   -0.7873   -1.9684 H   0  0  0  0  0  0  0  0  0  0  0  0
   -0.6072   -3.3684    2.1674 O   0  0  0  0  0  0  0  0  0  0  0  0
   -0.1678   -3.7749   -0.4158 H   0  0  0  0  0  0  0  0  0  0  0  0
    1.3717   -3.0292    0.1079 H   0  0  0  0  0  0  0  0  0  0  0  0
   -1.1489   -1.1503   -2.5765 H   0  0  0  0  0  0  0  0  0  0  0  0
   -1.3114   -2.8692   -2.0867 H   0  0  0  0  0  0  0  0  0  0  0  0
    1.3213   -2.2892   -2.6932 H   0  0  0  0  0  0  0  0  0  0  0  0
   -2.3888   -2.1155    0.1023 H   0  0  0  0  0  0  0  0  0  0  0  0
   -3.3200   -1.5311   -1.3030 H   0  0  0  0  0  0  0  0  0  0  0  0
   -4.7018    0.2336    0.3504 C   0  0  0  0  0  0  0  0  0  0  0  0
   -2.9407   -0.4216    1.5937 H   0  0  0  0  0  0  0  0  0  0  0  0
   -2.8917    1.3126    1.1042 H   0  0  0  0  0  0  0  0  0  0  0  0
   -4.9464   -0.1394   -0.8135 O   0  5  0  0  0  0  0  0  0  0  0  0
   -5.3562    0.5965    1.3297 O   0  0  0  0  0  0  0  0  0  0  0  0
  3  1  1  0  0  0  0
  3  2  2  0  0  0  0
  4 16  1  0  0  0  0
  4  3  1  0  0  0  0
  5  4  1  0  0  0  0
  6  5  1  0  0  0  0
  6  7  1  0  0  0  0
  7 10  1  0  0  0  0
  7 19  1  0  0  0  0
  8  9  2  0  0  0  0
  8  5  1  0  0  0  0
  9 27  1  0  0  0  0
 10 11  1  0  0  0  0
 11 24  1  0  0  0  0
 11 23  1  0  0  0  0
 12 11  1  0  0  0  0
 12 14  2  0  0  0  0
 13 12  1  0  0  0  0
 15  4  1  0  0  0  0
 17  6  1  0  0  0  0
 18  6  1  0  0  0  0
 20  7  1  0  0  0  0
 21  8  1  0  0  0  0
 22  9  1  0  0  0  0
 26 30  1  0  0  0  0
 27 34  1  0  0  0  0
 28 10  1  0  0  0  0
 29 25  1  0  0  0  0
 29 36  2  0  0  0  0
 30 38  1  0  0  0  0
 30 29  1  0  0  0  0
 31 26  1  0  0  0  0
 31 33  1  0  0  0  0
 32 28  2  0  0  0  0
 32 26  1  0  0  0  0
 33 27  1  0  0  0  0
 33 42  1  0  0  0  0
 34 46  1  0  0  0  0
 34 45  1  0  0  0  0
 35 28  1  0  0  0  0
 37 30  1  0  0  0  0
 39 31  1  0  0  0  0
 40 31  1  0  0  0  0
 41 32  1  0  0  0  0
 43 33  1  0  0  0  0
 44 34  1  0  0  0  0
 44 48  2  0  0  0  0
 47 44  1  0  0  0  0
M  CHG  4   1  -1  13  -1  25  -1  47  -1
M  END
