1,2,3,4,7,8
 OpenBabel05122313063D

 56 57  0  0  1  0  0  0  0  0999 V2000
    2.4036   -1.2319    0.5958 N   0  0  0  0  0  0  0  0  0  0  0  0
    1.7682    1.2281   -0.2163 N   0  0  0  0  0  2  0  0  0  0  0  0
    0.0061   -0.2739    1.3973 N   0  0  0  0  0  2  0  0  0  0  0  0
    1.6481   -1.0902   -2.0176 N   0  0  0  0  0  0  0  0  0  0  0  0
    0.8425   -1.6843   -2.2773 H   0  0  0  0  0  0  0  0  0  0  0  0
    1.8125   -0.4253   -2.7853 H   0  0  0  0  0  0  0  0  0  0  0  0
   -0.5484    0.4253   -1.2898 O   0  5  0  0  0  0  0  0  0  0  0  0
   -0.1721   -2.0600   -0.4845 O   0  5  0  0  0  0  0  0  0  0  0  0
    3.5050   -0.2138    0.6467 C   0  0  0  0  0  0  0  0  0  0  0  0
    3.5980    0.1343    1.6924 H   0  0  0  0  0  0  0  0  0  0  0  0
    4.4731   -0.6867    0.3830 H   0  0  0  0  0  0  0  0  0  0  0  0
    3.2031    0.9887   -0.2519 C   0  0  0  0  0  0  0  0  0  0  0  0
    3.8011    1.8571    0.0883 H   0  0  0  0  0  0  0  0  0  0  0  0
    3.5138    0.7905   -1.3014 H   0  0  0  0  0  0  0  0  0  0  0  0
    1.2386    2.4376   -0.1872 C   0  0  2  0  0  3  0  0  0  0  0  0
   -0.2014    2.6166   -0.2921 C   0  0  0  0  0  0  0  0  0  0  0  0
   -1.0165    1.5849   -0.8938 C   0  0  0  0  0  0  0  0  0  0  0  0
   -2.3970    1.8543   -1.1201 C   0  0  0  0  0  0  0  0  0  0  0  0
   -2.9902    1.0614   -1.5969 H   0  0  0  0  0  0  0  0  0  0  0  0
   -2.9673    3.0612   -0.7294 C   0  0  0  0  0  0  0  0  0  0  0  0
   -4.0405    3.2348   -0.9036 H   0  0  0  0  0  0  0  0  0  0  0  0
   -2.1867    4.0564   -0.0977 C   0  0  0  0  0  0  0  0  0  0  0  0
   -2.6457    4.9989    0.2321 H   0  0  0  0  0  0  0  0  0  0  0  0
   -0.8280    3.8349    0.0976 C   0  0  0  0  0  0  0  0  0  0  0  0
   -0.2324    4.6161    0.5911 H   0  0  0  0  0  0  0  0  0  0  0  0
    2.1435    3.6465   -0.1099 C   0  0  0  0  0  0  0  0  0  0  0  0
    2.7691    3.6364    0.8064 H   0  0  0  0  0  0  0  0  0  0  0  0
    1.5729    4.5879   -0.1270 H   0  0  0  0  0  0  0  0  0  0  0  0
    2.8314    3.6692   -0.9797 H   0  0  0  0  0  0  0  0  0  0  0  0
    1.9248   -1.5509    1.9688 C   0  0  0  0  0  0  0  0  0  0  0  0
    2.7764   -1.7328    2.6605 H   0  0  0  0  0  0  0  0  0  0  0  0
    1.3107   -2.4698    1.9092 H   0  0  0  0  0  0  0  0  0  0  0  0
    1.0371   -0.3836    2.4266 C   0  0  0  0  0  0  0  0  0  0  0  0
    0.6244   -0.5937    3.4327 H   0  0  0  0  0  0  0  0  0  0  0  0
    1.6207    0.5593    2.4924 H   0  0  0  0  0  0  0  0  0  0  0  0
   -1.2686   -0.5106    1.6451 C   0  0  1  0  0  3  0  0  0  0  0  0
   -2.1136   -1.1009    0.6230 C   0  0  0  0  0  0  0  0  0  0  0  0
   -1.4817   -1.9689   -0.3464 C   0  0  0  0  0  0  0  0  0  0  0  0
   -2.3161   -2.7960   -1.1443 C   0  0  0  0  0  0  0  0  0  0  0  0
   -1.8278   -3.4804   -1.8531 H   0  0  0  0  0  0  0  0  0  0  0  0
   -3.7044   -2.7149   -1.0586 C   0  0  0  0  0  0  0  0  0  0  0  0
   -4.3230   -3.3472   -1.7139 H   0  0  0  0  0  0  0  0  0  0  0  0
   -4.3245   -1.8190   -0.1594 C   0  0  0  0  0  0  0  0  0  0  0  0
   -5.4199   -1.7424   -0.1160 H   0  0  0  0  0  0  0  0  0  0  0  0
   -3.5309   -1.0416    0.6787 C   0  0  0  0  0  0  0  0  0  0  0  0
   -4.0130   -0.3509    1.3858 H   0  0  0  0  0  0  0  0  0  0  0  0
   -1.8306   -0.3036    3.0279 C   0  0  0  0  0  0  0  0  0  0  0  0
   -1.9372   -1.2699    3.5644 H   0  0  0  0  0  0  0  0  0  0  0  0
   -2.8489    0.1222    2.9532 H   0  0  0  0  0  0  0  0  0  0  0  0
   -1.2204    0.3871    3.6369 H   0  0  0  0  0  0  0  0  0  0  0  0
    2.7336   -2.4020   -0.2587 C   0  0  0  0  0  0  0  0  0  0  0  0
    1.8958   -3.1185   -0.1583 H   0  0  0  0  0  0  0  0  0  0  0  0
    3.6747   -2.8962    0.0693 H   0  0  0  0  0  0  0  0  0  0  0  0
    2.8355   -1.9270   -1.7098 C   0  0  0  0  0  0  0  0  0  0  0  0
    3.7487   -1.3184   -1.8621 H   0  0  0  0  0  0  0  0  0  0  0  0
    2.9208   -2.7997   -2.3901 H   0  0  0  0  0  0  0  0  0  0  0  0
  1  9  1  0  0  0  0
  1 30  1  0  0  0  0
  3 33  1  0  0  0  0
  4 54  1  0  0  0  0
  5  4  1  0  0  0  0
  6  4  1  0  0  0  0
  7 17  1  0  0  0  0
  8 38  1  0  0  0  0
  9 10  1  0  0  0  0
 11  9  1  0  0  0  0
 12  2  1  0  0  0  0
 12 13  1  0  0  0  0
 12  9  1  0  0  0  0
 14 12  1  0  0  0  0
 15  2  1  6  0  0  0
 15 26  1  0  0  0  0
 16 15  1  0  0  0  0
 16 24  1  0  0  0  0
 17 16  2  0  0  0  0
 18 17  1  0  0  0  0
 18 20  2  0  0  0  0
 19 18  1  0  0  0  0
 20 22  1  0  0  0  0
 21 20  1  0  0  0  0
 22 24  2  0  0  0  0
 22 23  1  0  0  0  0
 24 25  1  0  0  0  0
 26 27  1  0  0  0  0
 28 26  1  0  0  0  0
 29 26  1  0  0  0  0
 30 33  1  0  0  0  0
 30 31  1  0  0  0  0
 32 30  1  0  0  0  0
 33 35  1  0  0  0  0
 33 34  1  0  0  0  0
 36  3  1  1  0  0  0
 36 47  1  0  0  0  0
 37 45  1  0  0  0  0
 37 36  1  0  0  0  0
 38 37  2  0  0  0  0
 39 41  2  0  0  0  0
 39 38  1  0  0  0  0
 40 39  1  0  0  0  0
 41 43  1  0  0  0  0
 42 41  1  0  0  0  0
 43 44  1  0  0  0  0
 43 45  2  0  0  0  0
 45 46  1  0  0  0  0
 47 48  1  0  0  0  0
 47 50  1  0  0  0  0
 49 47  1  0  0  0  0
 51 52  1  0  0  0  0
 51 53  1  0  0  0  0
 51  1  1  0  0  0  0
 54 51  1  0  0  0  0
 55 54  1  0  0  0  0
 56 54  1  0  0  0  0
M  CHG  2   7  -1   8  -1
M  END
