1,3,5,6,7,8
 OpenBabel05122313063D

 49 50  0  0  0  0  0  0  0  0999 V2000
    0.4389   -0.1368   -1.8494 O   0  5  0  0  0  0  0  0  0  0  0  0
    1.8448   -1.1076   -3.3109 O   0  0  0  0  0  0  0  0  0  0  0  0
   -0.4386   -0.1350    1.8495 O   0  5  0  0  0  0  0  0  0  0  0  0
   -1.8473   -1.1007    3.3116 O   0  0  0  0  0  0  0  0  0  0  0  0
    1.4412    1.1809    0.2173 N   0  0  0  0  0  2  0  0  0  0  0  0
    1.4623   -1.4087    0.3239 N   0  0  0  0  0  0  0  0  0  0  0  0
   -1.4413    1.1802   -0.2184 N   0  0  0  0  0  2  0  0  0  0  0  0
   -1.4616   -1.4096   -0.3225 N   0  0  0  0  0  0  0  0  0  0  0  0
    1.5294    2.3859   -0.3835 C   0  0  0  0  0  3  0  0  0  0  0  0
    0.6870    2.6796   -1.0248 H   0  0  0  0  0  0  0  0  0  0  0  0
    2.6527    3.2025   -0.2209 C   0  0  0  0  0  0  0  0  0  0  0  0
    2.6880    4.1812   -0.7194 H   0  0  0  0  0  0  0  0  0  0  0  0
    3.7211    2.7419    0.5623 C   0  0  0  0  0  0  0  0  0  0  0  0
    4.6164    3.3638    0.7089 H   0  0  0  0  0  0  0  0  0  0  0  0
    3.6516    1.4571    1.1205 C   0  0  0  0  0  0  0  0  0  0  0  0
    4.4908    1.0377    1.6934 H   0  0  0  0  0  0  0  0  0  0  0  0
    2.4967    0.6935    0.9177 C   0  0  0  0  0  0  0  0  0  0  0  0
    2.2960   -0.7232    1.3607 C   0  0  0  0  0  0  0  0  0  0  0  0
    3.2570   -1.2575    1.5152 H   0  0  0  0  0  0  0  0  0  0  0  0
    1.7158   -0.7351    2.3060 H   0  0  0  0  0  0  0  0  0  0  0  0
    2.1851   -1.5682   -0.9764 C   0  0  0  0  0  0  0  0  0  0  0  0
    2.3487   -2.6385   -1.2069 H   0  0  0  0  0  0  0  0  0  0  0  0
    3.1901   -1.1066   -0.9080 H   0  0  0  0  0  0  0  0  0  0  0  0
    1.4606   -0.9068   -2.1740 C   0  0  0  0  0  0  0  0  0  0  0  0
    0.9616   -2.6894    0.8895 C   0  0  0  0  0  0  0  0  0  0  0  0
    0.4765   -2.4310    1.8490 H   0  0  0  0  0  0  0  0  0  0  0  0
    1.8361   -3.3285    1.1428 H   0  0  0  0  0  0  0  0  0  0  0  0
    0.0009   -3.4867    0.0014 C   0  0  0  0  0  0  0  0  0  0  0  0
   -0.5580   -4.1611    0.6812 H   0  0  0  0  0  0  0  0  0  0  0  0
    0.5605   -4.1609   -0.6780 H   0  0  0  0  0  0  0  0  0  0  0  0
   -0.9607   -2.6907   -0.8870 C   0  0  0  0  0  0  0  0  0  0  0  0
   -0.4762   -2.4333   -1.8470 H   0  0  0  0  0  0  0  0  0  0  0  0
   -1.8351   -3.3304   -1.1391 H   0  0  0  0  0  0  0  0  0  0  0  0
   -1.5299    2.3858    0.3813 C   0  0  0  0  0  3  0  0  0  0  0  0
   -0.6875    2.6804    1.0222 H   0  0  0  0  0  0  0  0  0  0  0  0
   -2.6534    3.2018    0.2180 C   0  0  0  0  0  0  0  0  0  0  0  0
   -2.6891    4.1809    0.7155 H   0  0  0  0  0  0  0  0  0  0  0  0
   -3.7218    2.7401   -0.5647 C   0  0  0  0  0  0  0  0  0  0  0  0
   -4.6173    3.3615   -0.7118 H   0  0  0  0  0  0  0  0  0  0  0  0
   -3.6519    1.4547   -1.1217 C   0  0  0  0  0  0  0  0  0  0  0  0
   -4.4910    1.0344   -1.6941 H   0  0  0  0  0  0  0  0  0  0  0  0
   -2.4967    0.6918   -0.9182 C   0  0  0  0  0  0  0  0  0  0  0  0
   -2.2955   -0.7253   -1.3599 C   0  0  0  0  0  0  0  0  0  0  0  0
   -1.7153   -0.7378   -2.3052 H   0  0  0  0  0  0  0  0  0  0  0  0
   -3.2563   -1.2601   -1.5138 H   0  0  0  0  0  0  0  0  0  0  0  0
   -2.1842   -1.5681    0.9779 C   0  0  0  0  0  0  0  0  0  0  0  0
   -2.3456   -2.6383    1.2104 H   0  0  0  0  0  0  0  0  0  0  0  0
   -3.1903   -1.1089    0.9086 H   0  0  0  0  0  0  0  0  0  0  0  0
   -1.4613   -0.9033    2.1747 C   0  0  0  0  0  0  0  0  0  0  0  0
  2 24  2  0  0  0  0
  3 49  1  0  0  0  0
  5 17  1  0  0  0  0
  6 25  1  0  0  0  0
  6 18  1  0  0  0  0
  7 34  1  0  0  0  0
  8 46  1  0  0  0  0
  9 11  1  0  0  0  0
  9  5  1  0  0  0  0
 10  9  1  0  0  0  0
 11 13  2  0  0  0  0
 12 11  1  0  0  0  0
 13 14  1  0  0  0  0
 13 15  1  0  0  0  0
 15 16  1  0  0  0  0
 17 15  2  0  0  0  0
 17 18  1  0  0  0  0
 18 19  1  0  0  0  0
 18 20  1  0  0  0  0
 21 23  1  0  0  0  0
 21  6  1  0  0  0  0
 22 21  1  0  0  0  0
 24  1  1  0  0  0  0
 24 21  1  0  0  0  0
 25 27  1  0  0  0  0
 25 26  1  0  0  0  0
 28 29  1  0  0  0  0
 28 25  1  0  0  0  0
 30 28  1  0  0  0  0
 31  8  1  0  0  0  0
 31 28  1  0  0  0  0
 32 31  1  0  0  0  0
 33 31  1  0  0  0  0
 34 35  1  0  0  0  0
 36 34  1  0  0  0  0
 36 37  1  0  0  0  0
 38 36  2  0  0  0  0
 39 38  1  0  0  0  0
 40 42  2  0  0  0  0
 40 38  1  0  0  0  0
 41 40  1  0  0  0  0
 42  7  1  0  0  0  0
 43 42  1  0  0  0  0
 43  8  1  0  0  0  0
 44 43  1  0  0  0  0
 45 43  1  0  0  0  0
 46 47  1  0  0  0  0
 46 49  1  0  0  0  0
 48 46  1  0  0  0  0
 49  4  2  0  0  0  0
M  CHG  2   1  -1   3  -1
M  END
