1,5,12,21,25,27
 OpenBabel05122313063D

 40 39  0  0  1  0  0  0  0  0999 V2000
   -0.4013   -1.1741    1.3101 O   0  5  0  0  0  0  0  0  0  0  0  0
   -2.1065   -2.5156    1.9400 O   0  0  0  0  0  0  0  0  0  0  0  0
   -1.6353   -1.6417    1.2340 C   0  0  0  0  0  0  0  0  0  0  0  0
   -2.4873   -0.9129    0.1831 C   0  0  2  0  0  3  0  0  0  0  0  0
   -1.8356    0.0439   -0.3964 N   0  0  0  0  0  2  0  0  0  0  0  0
   -2.3041    0.9698   -1.4222 C   0  0  0  0  0  0  0  0  0  0  0  0
   -2.7738    1.8477   -0.9259 H   0  0  0  0  0  0  0  0  0  0  0  0
   -3.0778    0.5161   -2.0751 H   0  0  0  0  0  0  0  0  0  0  0  0
   -1.0791    1.3728   -2.2486 C   0  0  0  0  0  0  0  0  0  0  0  0
   -0.8271    0.5433   -2.9365 H   0  0  0  0  0  0  0  0  0  0  0  0
   -1.2698    2.2875   -2.8478 H   0  0  0  0  0  0  0  0  0  0  0  0
    0.1249    1.5416   -1.3757 N   0  0  0  0  0  0  0  0  0  0  0  0
    0.9459    1.3398   -1.9626 H   0  0  0  0  0  0  0  0  0  0  0  0
    0.3382    2.8438   -0.6862 C   0  0  0  0  0  0  0  0  0  0  0  0
   -0.0276    3.6948   -1.2996 H   0  0  0  0  0  0  0  0  0  0  0  0
    1.4321    2.9752   -0.5761 H   0  0  0  0  0  0  0  0  0  0  0  0
   -3.8914   -1.3275   -0.0560 C   0  0  0  0  0  0  0  0  0  0  0  0
   -4.2569   -1.8684    0.8380 H   0  0  0  0  0  0  0  0  0  0  0  0
   -3.9172   -2.0539   -0.8989 H   0  0  0  0  0  0  0  0  0  0  0  0
   -4.5632   -0.4849   -0.3080 H   0  0  0  0  0  0  0  0  0  0  0  0
    0.4013   -1.1740   -1.3101 O   0  5  0  0  0  0  0  0  0  0  0  0
    1.6353   -1.6417   -1.2341 C   0  0  0  0  0  0  0  0  0  0  0  0
    2.1065   -2.5156   -1.9400 O   0  0  0  0  0  0  0  0  0  0  0  0
    2.4873   -0.9129   -0.1831 C   0  0  2  0  0  3  0  0  0  0  0  0
    1.8356    0.0439    0.3964 N   0  0  0  0  0  2  0  0  0  0  0  0
   -0.3382    2.8438    0.6862 C   0  0  0  0  0  0  0  0  0  0  0  0
   -0.1249    1.5416    1.3757 N   0  0  0  0  0  0  0  0  0  0  0  0
    1.0791    1.3728    2.2486 C   0  0  0  0  0  0  0  0  0  0  0  0
    2.3041    0.9697    1.4222 C   0  0  0  0  0  0  0  0  0  0  0  0
    2.7738    1.8477    0.9260 H   0  0  0  0  0  0  0  0  0  0  0  0
    3.0777    0.5161    2.0751 H   0  0  0  0  0  0  0  0  0  0  0  0
    0.8271    0.5433    2.9365 H   0  0  0  0  0  0  0  0  0  0  0  0
    1.2698    2.2874    2.8479 H   0  0  0  0  0  0  0  0  0  0  0  0
   -0.9459    1.3398    1.9626 H   0  0  0  0  0  0  0  0  0  0  0  0
    0.0277    3.6948    1.2996 H   0  0  0  0  0  0  0  0  0  0  0  0
   -1.4321    2.9752    0.5761 H   0  0  0  0  0  0  0  0  0  0  0  0
    3.8914   -1.3275    0.0560 C   0  0  0  0  0  0  0  0  0  0  0  0
    4.2569   -1.8685   -0.8380 H   0  0  0  0  0  0  0  0  0  0  0  0
    3.9172   -2.0539    0.8989 H   0  0  0  0  0  0  0  0  0  0  0  0
    4.5632   -0.4849    0.3080 H   0  0  0  0  0  0  0  0  0  0  0  0
  3  1  1  0  0  0  0
  3  2  2  0  0  0  0
  4  5  1  1  0  0  0
  4  3  1  0  0  0  0
  6  7  1  0  0  0  0
  6  5  1  0  0  0  0
  8  6  1  0  0  0  0
  9  6  1  0  0  0  0
  9 12  1  0  0  0  0
 10  9  1  0  0  0  0
 11  9  1  0  0  0  0
 12 14  1  0  0  0  0
 13 12  1  0  0  0  0
 14 16  1  0  0  0  0
 14 26  1  0  0  0  0
 15 14  1  0  0  0  0
 17  4  1  0  0  0  0
 17 18  1  0  0  0  0
 19 17  1  0  0  0  0
 20 17  1  0  0  0  0
 21 22  1  0  0  0  0
 23 22  2  0  0  0  0
 24 22  1  6  0  0  0
 24 37  1  0  0  0  0
 24 25  1  0  0  0  0
 25 29  1  0  0  0  0
 26 35  1  0  0  0  0
 26 27  1  0  0  0  0
 27 34  1  0  0  0  0
 27 28  1  0  0  0  0
 28 33  1  0  0  0  0
 28 32  1  0  0  0  0
 29 31  1  0  0  0  0
 29 28  1  0  0  0  0
 30 29  1  0  0  0  0
 36 26  1  0  0  0  0
 37 40  1  0  0  0  0
 37 39  1  0  0  0  0
 38 37  1  0  0  0  0
M  CHG  2   1  -1  21  -1
M  END
