3,8,10,12,14,44
 OpenBabel05122313063D

 44 43  0  0  1  0  0  0  0  0999 V2000
    2.4642   -2.2229   -2.0146 O   0  5  0  0  0  0  0  0  0  0  0  0
   -2.4643   -2.2230    2.0145 O   0  5  0  0  0  0  0  0  0  0  0  0
    0.6123   -1.2065   -1.2550 O   0  0  0  0  0  0  0  0  0  0  0  0
    3.8772   -1.4568    0.3987 C   0  0  0  0  0  0  0  0  0  0  0  0
    4.5406   -0.8396    1.0354 H   0  0  0  0  0  0  0  0  0  0  0  0
    4.4674   -1.8610   -0.4461 H   0  0  0  0  0  0  0  0  0  0  0  0
    3.5100   -2.3228    0.9864 H   0  0  0  0  0  0  0  0  0  0  0  0
   -0.3392    1.5197    1.3350 N   0  0  0  0  0  0  0  0  0  0  0  0
   -1.2211    1.3495    1.8378 H   0  0  0  0  0  0  0  0  0  0  0  0
    0.3393    1.5197   -1.3350 N   0  0  0  0  0  0  0  0  0  0  0  0
    1.2212    1.3494   -1.8378 H   0  0  0  0  0  0  0  0  0  0  0  0
   -1.7356   -0.1910   -0.8391 N   0  0  0  0  0  0  0  0  0  0  0  0
   -1.4797   -0.9945   -1.4443 H   0  0  0  0  0  0  0  0  0  0  0  0
    1.7356   -0.1911    0.8391 N   0  0  0  0  0  0  0  0  0  0  0  0
    1.4797   -0.9946    1.4443 H   0  0  0  0  0  0  0  0  0  0  0  0
   -3.8773   -1.4567   -0.3988 C   0  0  0  0  0  0  0  0  0  0  0  0
   -4.5406   -0.8394   -1.0355 H   0  0  0  0  0  0  0  0  0  0  0  0
   -4.4674   -1.8609    0.4460 H   0  0  0  0  0  0  0  0  0  0  0  0
   -3.5101   -2.3226   -0.9865 H   0  0  0  0  0  0  0  0  0  0  0  0
    0.7564    1.4064    2.3508 C   0  0  0  0  0  0  0  0  0  0  0  0
    0.4320    0.6263    3.0676 H   0  0  0  0  0  0  0  0  0  0  0  0
    0.8809    2.3566    2.9114 H   0  0  0  0  0  0  0  0  0  0  0  0
    0.4458    2.8201   -0.6206 C   0  0  0  0  0  0  0  0  0  0  0  0
    0.1840    3.6713   -1.2850 H   0  0  0  0  0  0  0  0  0  0  0  0
    1.5066    2.9553   -0.3352 H   0  0  0  0  0  0  0  0  0  0  0  0
   -0.4456    2.8201    0.6206 C   0  0  0  0  0  0  0  0  0  0  0  0
   -0.1837    3.6713    1.2851 H   0  0  0  0  0  0  0  0  0  0  0  0
   -1.5064    2.9555    0.3352 H   0  0  0  0  0  0  0  0  0  0  0  0
    2.0616    0.9661    1.6923 C   0  0  0  0  0  0  0  0  0  0  0  0
    2.5015    1.7599    1.0562 H   0  0  0  0  0  0  0  0  0  0  0  0
    2.8194    0.7173    2.4656 H   0  0  0  0  0  0  0  0  0  0  0  0
   -0.7564    1.4065   -2.3508 C   0  0  0  0  0  0  0  0  0  0  0  0
   -0.4320    0.6264   -3.0676 H   0  0  0  0  0  0  0  0  0  0  0  0
   -0.8808    2.3567   -2.9113 H   0  0  0  0  0  0  0  0  0  0  0  0
   -2.0616    0.9663   -1.6922 C   0  0  0  0  0  0  0  0  0  0  0  0
   -2.5014    1.7600   -1.0561 H   0  0  0  0  0  0  0  0  0  0  0  0
   -2.8194    0.7175   -2.4655 H   0  0  0  0  0  0  0  0  0  0  0  0
   -2.7138   -0.6594    0.1721 C   0  0  1  0  0  0  0  0  0  0  0  0
   -3.1026    0.2484    0.6889 H   0  0  0  0  0  0  0  0  0  0  0  0
    2.7137   -0.6595   -0.1721 C   0  0  2  0  0  0  0  0  0  0  0  0
    3.1026    0.2483   -0.6889 H   0  0  0  0  0  0  0  0  0  0  0  0
    1.9144   -1.4657   -1.2402 C   0  0  0  0  0  0  0  0  0  0  0  0
   -1.9145   -1.4657    1.2402 C   0  0  0  0  0  0  0  0  0  0  0  0
   -0.6123   -1.2064    1.2551 O   0  0  0  0  0  0  0  0  0  0  0  0
  1 42  1  0  0  0  0
  3 42  2  0  0  0  0
  4  7  1  0  0  0  0
  4  5  1  0  0  0  0
  6  4  1  0  0  0  0
  8  9  1  0  0  0  0
  8 20  1  0  0  0  0
 10 23  1  0  0  0  0
 11 10  1  0  0  0  0
 12 38  1  0  0  0  0
 13 12  1  0  0  0  0
 14 15  1  0  0  0  0
 14 29  1  0  0  0  0
 16 38  1  0  0  0  0
 16 18  1  0  0  0  0
 17 16  1  0  0  0  0
 19 16  1  0  0  0  0
 20 22  1  0  0  0  0
 20 21  1  0  0  0  0
 23 25  1  0  0  0  0
 23 26  1  0  0  0  0
 24 23  1  0  0  0  0
 26 27  1  0  0  0  0
 26  8  1  0  0  0  0
 28 26  1  0  0  0  0
 29 20  1  0  0  0  0
 29 31  1  0  0  0  0
 30 29  1  0  0  0  0
 32 35  1  0  0  0  0
 32 10  1  0  0  0  0
 33 32  1  0  0  0  0
 34 32  1  0  0  0  0
 35 36  1  0  0  0  0
 35 12  1  0  0  0  0
 37 35  1  0  0  0  0
 38 39  1  1  0  0  0
 38 43  1  0  0  0  0
 40 41  1  6  0  0  0
 40  4  1  0  0  0  0
 40 14  1  0  0  0  0
 42 40  1  0  0  0  0
 43 44  2  0  0  0  0
 43  2  1  0  0  0  0
M  CHG  2   1  -1   2  -1
M  END
