1,2,7,8,9,10
 OpenBabel05122313063D

 44 44  0  0  0  0  0  0  0  0999 V2000
    0.2712   -1.8707   -0.2899 O   0  5  0  0  0  0  0  0  0  0  0  0
   -0.2703    1.8777   -0.2425 O   0  5  0  0  0  0  0  0  0  0  0  0
    1.3042   -3.5365    0.8177 O   0  0  0  0  0  0  0  0  0  0  0  0
   -1.3071    3.5151    0.9034 O   0  0  0  0  0  0  0  0  0  0  0  0
    3.0981    0.9312   -0.2463 O   0  0  0  0  0  0  0  0  0  0  0  0
   -3.0972   -0.9271   -0.2685 O   0  0  0  0  0  0  0  0  0  0  0  0
    1.3925    0.0803    1.1902 N   0  0  0  0  0  0  0  0  0  0  0  0
   -1.3919   -0.1098    1.1878 N   0  0  0  0  0  0  0  0  0  0  0  0
   -1.3467   -0.1845   -1.6886 N   0  0  0  0  0  0  0  0  0  0  0  0
    1.3463    0.2267   -1.6840 N   0  0  0  0  0  0  0  0  0  0  0  0
    1.1544   -2.3559    0.5750 C   0  0  0  0  0  0  0  0  0  0  0  0
    2.0351   -1.2683    1.2144 C   0  0  0  0  0  0  0  0  0  0  0  0
    0.6456    0.3682    2.4451 C   0  0  0  0  0  0  0  0  0  0  0  0
   -0.6451   -0.4266    2.4359 C   0  0  0  0  0  0  0  0  0  0  0  0
   -2.0360    1.2372    1.2440 C   0  0  0  0  0  0  0  0  0  0  0  0
   -1.1555    2.3409    0.6324 C   0  0  0  0  0  0  0  0  0  0  0  0
   -0.6070   -0.4173   -2.9543 C   0  0  0  0  0  0  0  0  0  0  0  0
    0.6061    0.4924   -2.9428 C   0  0  0  0  0  0  0  0  0  0  0  0
    2.4040    1.1570    0.9443 C   0  0  0  0  0  0  0  0  0  0  0  0
    2.3911    1.2478   -1.4114 C   0  0  0  0  0  0  0  0  0  0  0  0
   -2.4025   -1.1813    0.9160 C   0  0  0  0  0  0  0  0  0  0  0  0
   -2.3900   -1.2136   -1.4413 C   0  0  0  0  0  0  0  0  0  0  0  0
   -1.7964    0.7469   -1.7308 H   0  0  0  0  0  0  0  0  0  0  0  0
    1.7949   -0.7039   -1.7500 H   0  0  0  0  0  0  0  0  0  0  0  0
    2.9652   -1.2099    0.6133 H   0  0  0  0  0  0  0  0  0  0  0  0
    2.3242   -1.5589    2.2445 H   0  0  0  0  0  0  0  0  0  0  0  0
    0.4392    1.4567    2.4851 H   0  0  0  0  0  0  0  0  0  0  0  0
    1.2624    0.1152    3.3338 H   0  0  0  0  0  0  0  0  0  0  0  0
   -0.4387   -1.5158    2.4511 H   0  0  0  0  0  0  0  0  0  0  0  0
   -1.2621   -0.1942    3.3301 H   0  0  0  0  0  0  0  0  0  0  0  0
   -2.3265    1.5023    2.2806 H   0  0  0  0  0  0  0  0  0  0  0  0
   -2.9653    1.1924    0.6407 H   0  0  0  0  0  0  0  0  0  0  0  0
   -0.2984   -1.4826   -2.9706 H   0  0  0  0  0  0  0  0  0  0  0  0
   -1.2493   -0.2315   -3.8408 H   0  0  0  0  0  0  0  0  0  0  0  0
    1.2479    0.3297   -3.8341 H   0  0  0  0  0  0  0  0  0  0  0  0
    0.2975    1.5578   -2.9313 H   0  0  0  0  0  0  0  0  0  0  0  0
    1.8575    2.1232    0.9315 H   0  0  0  0  0  0  0  0  0  0  0  0
    3.1552    1.1423    1.7617 H   0  0  0  0  0  0  0  0  0  0  0  0
    3.1312    1.2608   -2.2383 H   0  0  0  0  0  0  0  0  0  0  0  0
    1.8737    2.2275   -1.3360 H   0  0  0  0  0  0  0  0  0  0  0  0
   -1.8553   -2.1464    0.8795 H   0  0  0  0  0  0  0  0  0  0  0  0
   -3.1536   -1.1871    1.7338 H   0  0  0  0  0  0  0  0  0  0  0  0
   -1.8712   -2.1940   -1.3905 H   0  0  0  0  0  0  0  0  0  0  0  0
   -3.1303   -1.2069   -2.2681 H   0  0  0  0  0  0  0  0  0  0  0  0
  1 11  1  0  0  0  0
  2 16  1  0  0  0  0
  5 19  1  0  0  0  0
  6 21  1  0  0  0  0
  7 12  1  0  0  0  0
  7 13  1  0  0  0  0
  8 15  1  0  0  0  0
  8 14  1  0  0  0  0
  9 22  1  0  0  0  0
 10 20  1  0  0  0  0
 11  3  2  0  0  0  0
 11 12  1  0  0  0  0
 12 26  1  0  0  0  0
 13 27  1  0  0  0  0
 13 28  1  0  0  0  0
 14 13  1  0  0  0  0
 14 29  1  0  0  0  0
 14 30  1  0  0  0  0
 15 31  1  0  0  0  0
 16  4  2  0  0  0  0
 16 15  1  0  0  0  0
 17 18  1  0  0  0  0
 17  9  1  0  0  0  0
 18 36  1  0  0  0  0
 18 10  1  0  0  0  0
 19  7  1  0  0  0  0
 19 38  1  0  0  0  0
 20 40  1  0  0  0  0
 20  5  1  0  0  0  0
 21  8  1  0  0  0  0
 21 42  1  0  0  0  0
 22 43  1  0  0  0  0
 22  6  1  0  0  0  0
 23  9  1  0  0  0  0
 24 10  1  0  0  0  0
 25 12  1  0  0  0  0
 32 15  1  0  0  0  0
 33 17  1  0  0  0  0
 34 17  1  0  0  0  0
 35 18  1  0  0  0  0
 37 19  1  0  0  0  0
 39 20  1  0  0  0  0
 41 21  1  0  0  0  0
 44 22  1  0  0  0  0
M  CHG  2   1  -1   2  -1
M  END
