1,2,9,10,12,14
 OpenBabel05122313063D

 68 69  0  0  0  0  0  0  0  0999 V2000
    1.1526    0.7415    0.4744 O   0  5  0  0  0  0  0  0  0  0  0  0
   -1.1338   -0.5519   -0.5094 O   0  5  0  0  0  0  0  0  0  0  0  0
    2.7632    0.8215    2.5098 O   0  0  0  0  0  0  0  0  0  0  0  0
    6.6785   -2.0595    1.1700 O   0  0  0  0  0  0  0  0  0  0  0  0
    6.2401   -2.6876   -0.8813 O   0  0  0  0  0  0  0  0  0  0  0  0
   -6.6129   -0.3148    2.5628 O   0  0  0  0  0  0  0  0  0  0  0  0
   -6.6952   -2.3305    1.7126 O   0  0  0  0  0  0  0  0  0  0  0  0
   -2.4761   -2.8760   -0.8636 O   0  0  0  0  0  0  0  0  0  0  0  0
    0.7308    0.1011   -2.2111 N   0  0  0  0  0  2  0  0  0  0  0  0
   -1.4839    1.5031   -2.3432 N   0  0  0  0  0  0  0  0  0  0  0  0
   -2.4322    1.6371   -1.9609 H   0  0  0  0  0  0  0  0  0  0  0  0
    0.5927    2.9239   -1.1936 N   0  0  0  0  0  0  0  0  0  0  0  0
    1.4976    2.8682   -1.6825 H   0  0  0  0  0  0  0  0  0  0  0  0
   -1.1325    2.0328    0.5012 N   0  0  0  0  0  2  0  0  0  0  0  0
    5.9615   -2.0797    0.1602 N   0  0  0  0  0  0  0  0  0  0  0  0
   -6.1351   -1.2440    1.8992 N   0  0  0  0  0  0  0  0  0  0  0  0
    2.2606    0.0997    0.3231 C   0  0  0  0  0  0  0  0  0  0  0  0
    3.1837    0.0837    1.4479 C   0  0  0  0  0  0  0  0  0  0  0  0
    4.3756   -0.6256    1.3912 C   0  0  0  0  0  0  0  0  0  0  0  0
    5.0886   -0.6685    2.2226 H   0  0  0  0  0  0  0  0  0  0  0  0
    4.7062   -1.3335    0.2059 C   0  0  0  0  0  0  0  0  0  0  0  0
    3.8782   -1.3218   -0.9080 C   0  0  0  0  0  0  0  0  0  0  0  0
    4.1908   -1.8751   -1.8044 H   0  0  0  0  0  0  0  0  0  0  0  0
    2.6596   -0.5989   -0.8782 C   0  0  0  0  0  0  0  0  0  0  0  0
    1.8390   -0.5877   -2.0581 C   0  0  0  0  0  3  0  0  0  0  0  0
    2.1875   -1.2212   -2.8991 H   0  0  0  0  0  0  0  0  0  0  0  0
   -0.0019   -0.0604   -3.4717 C   0  0  0  0  0  0  0  0  0  0  0  0
    0.0589   -1.1024   -3.8519 H   0  0  0  0  0  0  0  0  0  0  0  0
    0.4530    0.5845   -4.2596 H   0  0  0  0  0  0  0  0  0  0  0  0
   -1.4632    0.3119   -3.2298 C   0  0  0  0  0  0  0  0  0  0  0  0
   -1.9994    0.4965   -4.1873 H   0  0  0  0  0  0  0  0  0  0  0  0
   -1.9624   -0.5099   -2.6843 H   0  0  0  0  0  0  0  0  0  0  0  0
   -1.0277    2.7397   -3.0264 C   0  0  0  0  0  0  0  0  0  0  0  0
   -1.8547    3.2444   -3.5720 H   0  0  0  0  0  0  0  0  0  0  0  0
   -0.2749    2.4511   -3.7861 H   0  0  0  0  0  0  0  0  0  0  0  0
   -0.3927    3.6746   -2.0110 C   0  0  0  0  0  0  0  0  0  0  0  0
    0.0640    4.5578   -2.5100 H   0  0  0  0  0  0  0  0  0  0  0  0
   -1.1728    4.0604   -1.3260 H   0  0  0  0  0  0  0  0  0  0  0  0
    0.7857    3.5135    0.1526 C   0  0  0  0  0  0  0  0  0  0  0  0
    1.0295    4.5982    0.0997 H   0  0  0  0  0  0  0  0  0  0  0  0
    1.6266    2.9713    0.6204 H   0  0  0  0  0  0  0  0  0  0  0  0
   -0.4900    3.2693    0.9699 C   0  0  0  0  0  0  0  0  0  0  0  0
   -0.2145    3.1770    2.0412 H   0  0  0  0  0  0  0  0  0  0  0  0
   -1.2002    4.1246    0.8954 H   0  0  0  0  0  0  0  0  0  0  0  0
   -2.2300    1.6446    1.1096 C   0  0  0  0  0  3  0  0  0  0  0  0
   -2.6793    2.3109    1.8743 H   0  0  0  0  0  0  0  0  0  0  0  0
   -2.8952    0.3881    0.8811 C   0  0  0  0  0  0  0  0  0  0  0  0
   -4.1598    0.1656    1.4760 C   0  0  0  0  0  0  0  0  0  0  0  0
   -4.6450    0.9399    2.0867 H   0  0  0  0  0  0  0  0  0  0  0  0
   -4.8192   -1.0454    1.2909 C   0  0  0  0  0  0  0  0  0  0  0  0
   -4.2416   -2.0918    0.5316 C   0  0  0  0  0  0  0  0  0  0  0  0
   -4.7866   -3.0344    0.3968 H   0  0  0  0  0  0  0  0  0  0  0  0
   -2.9945   -1.9093   -0.0484 C   0  0  0  0  0  0  0  0  0  0  0  0
   -2.2730   -0.6579    0.0947 C   0  0  0  0  0  0  0  0  0  0  0  0
    3.5833    0.8449    3.6740 C   0  0  0  0  0  0  0  0  0  0  0  0
    4.5939    1.2427    3.4191 H   0  0  0  0  0  0  0  0  0  0  0  0
    3.7291   -0.1935    4.0528 H   0  0  0  0  0  0  0  0  0  0  0  0
    2.8987    1.7133    4.7119 C   0  0  0  0  0  0  0  0  0  0  0  0
    3.5044    1.7547    5.6384 H   0  0  0  0  0  0  0  0  0  0  0  0
    1.8994    1.3071    4.9643 H   0  0  0  0  0  0  0  0  0  0  0  0
    2.7677    2.7475    4.3353 H   0  0  0  0  0  0  0  0  0  0  0  0
   -1.2163   -3.4558   -0.4677 C   0  0  0  0  0  0  0  0  0  0  0  0
   -0.6363   -2.7334    0.1408 H   0  0  0  0  0  0  0  0  0  0  0  0
   -1.4313   -4.3500    0.1616 H   0  0  0  0  0  0  0  0  0  0  0  0
   -0.4418   -3.8379   -1.7124 C   0  0  0  0  0  0  0  0  0  0  0  0
    0.4919   -4.3689   -1.4395 H   0  0  0  0  0  0  0  0  0  0  0  0
   -0.1693   -2.9276   -2.2824 H   0  0  0  0  0  0  0  0  0  0  0  0
   -1.0433   -4.5001   -2.3670 H   0  0  0  0  0  0  0  0  0  0  0  0
  2 54  1  0  0  0  0
  3 55  1  0  0  0  0
  5 15  2  0  0  0  0
  7 16  2  0  0  0  0
  8 62  1  0  0  0  0
  8 53  1  0  0  0  0
  9 25  1  0  0  0  0
 10 11  1  0  0  0  0
 12 39  1  0  0  0  0
 13 12  1  0  0  0  0
 14 42  1  0  0  0  0
 14 45  1  0  0  0  0
 15 21  1  0  0  0  0
 15  4  2  0  0  0  0
 16  6  2  0  0  0  0
 17  1  1  0  0  0  0
 17 18  1  0  0  0  0
 18  3  1  0  0  0  0
 19 18  2  0  0  0  0
 19 20  1  0  0  0  0
 21 19  1  0  0  0  0
 22 24  1  0  0  0  0
 22 21  2  0  0  0  0
 23 22  1  0  0  0  0
 24 17  2  0  0  0  0
 25 24  1  0  0  0  0
 26 25  1  0  0  0  0
 27 30  1  0  0  0  0
 27  9  1  0  0  0  0
 28 27  1  0  0  0  0
 29 27  1  0  0  0  0
 30 32  1  0  0  0  0
 30 10  1  0  0  0  0
 31 30  1  0  0  0  0
 33 10  1  0  0  0  0
 33 36  1  0  0  0  0
 34 33  1  0  0  0  0
 35 33  1  0  0  0  0
 36 38  1  0  0  0  0
 36 12  1  0  0  0  0
 37 36  1  0  0  0  0
 39 41  1  0  0  0  0
 39 42  1  0  0  0  0
 40 39  1  0  0  0  0
 42 43  1  0  0  0  0
 44 42  1  0  0  0  0
 45 46  1  0  0  0  0
 47 45  1  0  0  0  0
 47 48  1  0  0  0  0
 48 49  1  0  0  0  0
 50 48  2  0  0  0  0
 50 16  1  0  0  0  0
 51 50  1  0  0  0  0
 52 51  1  0  0  0  0
 53 54  1  0  0  0  0
 53 51  2  0  0  0  0
 54 47  2  0  0  0  0
 55 57  1  0  0  0  0
 55 58  1  0  0  0  0
 56 55  1  0  0  0  0
 58 60  1  0  0  0  0
 58 59  1  0  0  0  0
 61 58  1  0  0  0  0
 62 63  1  0  0  0  0
 62 64  1  0  0  0  0
 65 66  1  0  0  0  0
 65 62  1  0  0  0  0
 67 65  1  0  0  0  0
 68 65  1  0  0  0  0
M  CHG  2   1  -1   2  -1
M  END
