1,3,5,6,7,10
 OpenBabel05122313063D

 54 57  0  0  1  0  0  0  0  0999 V2000
   -2.3186    0.9618   -0.7255 O   0  5  0  0  0  0  0  0  0  0  0  0
   -4.5163    0.8945   -1.1850 O   0  0  0  0  0  0  0  0  0  0  0  0
   -0.2975   -0.5632   -1.8979 O   0  5  0  0  0  0  0  0  0  0  0  0
   -0.0199   -2.3833   -3.1801 O   0  0  0  0  0  0  0  0  0  0  0  0
   -1.4810    0.1601    1.7770 N   0  0  0  0  0  0  0  0  0  0  0  0
   -2.0776   -1.6340   -0.3602 N   0  0  0  0  0  0  0  0  0  0  0  0
    0.6522   -1.0444    0.6407 N   0  0  0  0  0  2  0  0  0  0  0  0
    1.7828   -1.5818    2.4845 N   0  0  0  0  0  0  0  0  0  0  0  0
    2.0135   -1.6810    3.4739 H   0  0  0  0  0  0  0  0  0  0  0  0
    0.0267    1.5691    0.1485 N   0  0  0  0  0  2  0  0  0  0  0  0
    0.0332    3.4895    1.2633 N   0  0  0  0  0  0  0  0  0  0  0  0
   -0.2358    4.2146    1.9296 H   0  0  0  0  0  0  0  0  0  0  0  0
   -2.7133   -0.6825    1.8238 C   0  0  0  0  0  0  0  0  0  0  0  0
   -3.5439   -0.1046    1.3759 H   0  0  0  0  0  0  0  0  0  0  0  0
   -3.0036   -0.9143    2.8714 H   0  0  0  0  0  0  0  0  0  0  0  0
   -2.4606   -1.9737    1.0360 C   0  0  0  0  0  0  0  0  0  0  0  0
   -1.6290   -2.5533    1.4849 H   0  0  0  0  0  0  0  0  0  0  0  0
   -3.3636   -2.6217    1.0573 H   0  0  0  0  0  0  0  0  0  0  0  0
   -3.2453   -1.1709   -1.1695 C   0  0  0  0  0  0  0  0  0  0  0  0
   -3.0360   -1.3708   -2.2387 H   0  0  0  0  0  0  0  0  0  0  0  0
   -4.1642   -1.7275   -0.8965 H   0  0  0  0  0  0  0  0  0  0  0  0
   -3.4426    0.3416   -1.0273 C   0  0  0  0  0  0  0  0  0  0  0  0
   -1.2852   -2.6240   -1.1245 C   0  0  0  0  0  0  0  0  0  0  0  0
   -0.5639   -3.1261   -0.4492 H   0  0  0  0  0  0  0  0  0  0  0  0
   -1.9202   -3.3990   -1.5996 H   0  0  0  0  0  0  0  0  0  0  0  0
   -0.4833   -1.8389   -2.1930 C   0  0  0  0  0  0  0  0  0  0  0  0
   -0.4320   -0.3266    2.7270 C   0  0  0  0  0  0  0  0  0  0  0  0
    0.0021    0.5420    3.2660 H   0  0  0  0  0  0  0  0  0  0  0  0
   -0.8881   -0.9784    3.5040 H   0  0  0  0  0  0  0  0  0  0  0  0
    0.6512   -1.0238    1.9724 C   0  0  1  0  0  3  0  0  0  0  0  0
    1.8666   -1.6176    0.2369 C   0  0  0  0  0  0  0  0  0  0  0  0
    2.4354   -1.8490   -1.0325 C   0  0  0  0  0  0  0  0  0  0  0  0
    1.9200   -1.5766   -1.9612 H   0  0  0  0  0  0  0  0  0  0  0  0
    3.6966   -2.4526   -1.0666 C   0  0  0  0  0  0  0  0  0  0  0  0
    4.1629   -2.6472   -2.0433 H   0  0  0  0  0  0  0  0  0  0  0  0
    4.3902   -2.8195    0.1116 C   0  0  0  0  0  0  0  0  0  0  0  0
    5.3790   -3.2937    0.0295 H   0  0  0  0  0  0  0  0  0  0  0  0
    3.8482   -2.5860    1.3797 C   0  0  0  0  0  0  0  0  0  0  0  0
    4.3872   -2.8606    2.2975 H   0  0  0  0  0  0  0  0  0  0  0  0
    2.5864   -1.9762    1.4160 C   0  0  0  0  0  0  0  0  0  0  0  0
   -1.6779    1.6378    1.8986 C   0  0  0  0  0  0  0  0  0  0  0  0
   -2.6229    1.8941    1.3780 H   0  0  0  0  0  0  0  0  0  0  0  0
   -1.7427    1.9695    2.9578 H   0  0  0  0  0  0  0  0  0  0  0  0
   -0.5326    2.2543    1.1475 C   0  0  1  0  0  3  0  0  0  0  0  0
    0.9911    2.3723   -0.4368 C   0  0  0  0  0  0  0  0  0  0  0  0
    1.8448    2.1439   -1.5298 C   0  0  0  0  0  0  0  0  0  0  0  0
    1.7942    1.1968   -2.0837 H   0  0  0  0  0  0  0  0  0  0  0  0
    2.7144    3.1815   -1.8763 C   0  0  0  0  0  0  0  0  0  0  0  0
    3.3954    3.0511   -2.7297 H   0  0  0  0  0  0  0  0  0  0  0  0
    2.7349    4.4075   -1.1634 C   0  0  0  0  0  0  0  0  0  0  0  0
    3.4351    5.1957   -1.4762 H   0  0  0  0  0  0  0  0  0  0  0  0
    1.8828    4.6495   -0.0794 C   0  0  0  0  0  0  0  0  0  0  0  0
    1.8983    5.6066    0.4609 H   0  0  0  0  0  0  0  0  0  0  0  0
    1.0071    3.6104    0.2699 C   0  0  0  0  0  0  0  0  0  0  0  0
  2 22  2  0  0  0  0
  4 26  2  0  0  0  0
  5 13  1  0  0  0  0
  5 41  1  0  0  0  0
  5 27  1  0  0  0  0
  6 16  1  0  0  0  0
  7 30  1  0  0  0  0
  8  9  1  0  0  0  0
 10 44  1  0  0  0  0
 11 12  1  0  0  0  0
 13 15  1  0  0  0  0
 14 13  1  0  0  0  0
 16 18  1  0  0  0  0
 16 17  1  0  0  0  0
 16 13  1  0  0  0  0
 19 22  1  0  0  0  0
 19 21  1  0  0  0  0
 19  6  1  0  0  0  0
 20 19  1  0  0  0  0
 22  1  1  0  0  0  0
 23 24  1  0  0  0  0
 23  6  1  0  0  0  0
 25 23  1  0  0  0  0
 26  3  1  0  0  0  0
 26 23  1  0  0  0  0
 27 28  1  0  0  0  0
 27 29  1  0  0  0  0
 30  8  1  0  0  0  0
 30 27  1  6  0  0  0
 31  7  1  0  0  0  0
 31 40  1  0  0  0  0
 32 31  2  0  0  0  0
 33 32  1  0  0  0  0
 34 32  1  0  0  0  0
 34 36  2  0  0  0  0
 35 34  1  0  0  0  0
 36 38  1  0  0  0  0
 37 36  1  0  0  0  0
 38 40  2  0  0  0  0
 38 39  1  0  0  0  0
 40  8  1  0  0  0  0
 41 43  1  0  0  0  0
 42 41  1  0  0  0  0
 44 11  1  0  0  0  0
 44 41  1  6  0  0  0
 45 10  1  0  0  0  0
 45 54  1  0  0  0  0
 46 45  2  0  0  0  0
 47 46  1  0  0  0  0
 48 46  1  0  0  0  0
 48 50  2  0  0  0  0
 49 48  1  0  0  0  0
 50 52  1  0  0  0  0
 51 50  1  0  0  0  0
 52 54  2  0  0  0  0
 52 53  1  0  0  0  0
 54 11  1  0  0  0  0
M  CHG  2   1  -1   3  -1
M  END
