1,14,28,41,55,60
 OpenBabel05122313063D

 76 80  0  0  0  0  0  0  0  0999 V2000
   -1.6521    0.5256    0.9657 O   0  5  0  0  0  0  0  0  0  0  0  0
   -2.1798   -0.6029    1.3555 C   0  0  0  0  0  0  0  0  0  0  0  0
   -4.2550    0.4741    1.1168 O   0  0  0  0  0  0  0  0  0  0  0  0
   -3.6147   -0.6681    1.4731 C   0  0  0  0  0  0  0  0  0  0  0  0
   -4.2290   -1.8503    1.8935 C   0  0  0  0  0  0  0  0  0  0  0  0
   -5.3240   -1.9069    1.9593 H   0  0  0  0  0  0  0  0  0  0  0  0
   -3.4594   -2.9937    2.2293 C   0  0  0  0  0  0  0  0  0  0  0  0
   -3.9726   -3.9080    2.5592 H   0  0  0  0  0  0  0  0  0  0  0  0
   -2.0759   -2.9518    2.1578 C   0  0  0  0  0  0  0  0  0  0  0  0
   -1.4702   -3.8256    2.4413 H   0  0  0  0  0  0  0  0  0  0  0  0
   -1.4191   -1.7660    1.7134 C   0  0  0  0  0  0  0  0  0  0  0  0
    0.0036   -1.6410    1.8020 C   0  0  0  0  0  3  0  0  0  0  0  0
    0.5454   -2.3546    2.4532 H   0  0  0  0  0  0  0  0  0  0  0  0
    0.7046   -0.6744    1.2527 N   0  0  0  0  0  2  0  0  0  0  0  0
    2.0549   -0.4490    1.6418 C   0  0  0  0  0  0  0  0  0  0  0  0
    3.0283   -1.4572    1.5496 C   0  0  0  0  0  0  0  0  0  0  0  0
    2.7502   -2.4419    1.1460 H   0  0  0  0  0  0  0  0  0  0  0  0
    4.3496   -1.1867    1.9358 C   0  0  0  0  0  0  0  0  0  0  0  0
    5.1091   -1.9788    1.8575 H   0  0  0  0  0  0  0  0  0  0  0  0
    4.7014    0.0881    2.4005 C   0  0  0  0  0  0  0  0  0  0  0  0
    5.7384    0.3035    2.6965 H   0  0  0  0  0  0  0  0  0  0  0  0
    3.7247    1.0934    2.4906 C   0  0  0  0  0  0  0  0  0  0  0  0
    3.9964    2.0907    2.8705 H   0  0  0  0  0  0  0  0  0  0  0  0
    2.3950    0.8423    2.1208 C   0  0  0  0  0  0  0  0  0  0  0  0
    1.3125    1.8792    2.3045 C   0  0  0  0  0  0  0  0  0  0  0  0
    0.5374    1.4951    3.0000 H   0  0  0  0  0  0  0  0  0  0  0  0
    1.7369    2.8046    2.7517 H   0  0  0  0  0  0  0  0  0  0  0  0
    0.6019    2.2102    1.0457 N   0  0  0  0  0  0  0  0  0  0  0  0
    1.4349    2.9647    0.0714 C   0  0  0  0  0  0  0  0  0  0  0  0
    2.3906    2.4267   -0.0584 H   0  0  0  0  0  0  0  0  0  0  0  0
    1.6289    3.9840    0.4697 H   0  0  0  0  0  0  0  0  0  0  0  0
    0.6518    2.9845   -1.2619 C   0  0  0  0  0  0  0  0  0  0  0  0
    0.3953    4.0130   -1.5956 H   0  0  0  0  0  0  0  0  0  0  0  0
    1.2400    2.4823   -2.0483 H   0  0  0  0  0  0  0  0  0  0  0  0
   -0.6518    2.9845    1.2619 C   0  0  0  0  0  0  0  0  0  0  0  0
   -0.3954    4.0130    1.5955 H   0  0  0  0  0  0  0  0  0  0  0  0
   -1.2400    2.4822    2.0482 H   0  0  0  0  0  0  0  0  0  0  0  0
   -1.4350    2.9647   -0.0714 C   0  0  0  0  0  0  0  0  0  0  0  0
   -2.3906    2.4267    0.0584 H   0  0  0  0  0  0  0  0  0  0  0  0
   -1.6289    3.9839   -0.4697 H   0  0  0  0  0  0  0  0  0  0  0  0
   -0.6019    2.2102   -1.0457 N   0  0  0  0  0  0  0  0  0  0  0  0
   -1.3126    1.8792   -2.3045 C   0  0  0  0  0  0  0  0  0  0  0  0
   -0.5374    1.4950   -3.0000 H   0  0  0  0  0  0  0  0  0  0  0  0
   -1.7369    2.8045   -2.7518 H   0  0  0  0  0  0  0  0  0  0  0  0
   -2.3950    0.8422   -2.1208 C   0  0  0  0  0  0  0  0  0  0  0  0
   -3.7247    1.0934   -2.4906 C   0  0  0  0  0  0  0  0  0  0  0  0
   -3.9964    2.0906   -2.8705 H   0  0  0  0  0  0  0  0  0  0  0  0
   -4.7014    0.0880   -2.4004 C   0  0  0  0  0  0  0  0  0  0  0  0
   -5.7385    0.3035   -2.6965 H   0  0  0  0  0  0  0  0  0  0  0  0
   -4.3496   -1.1868   -1.9357 C   0  0  0  0  0  0  0  0  0  0  0  0
   -5.1090   -1.9788   -1.8574 H   0  0  0  0  0  0  0  0  0  0  0  0
   -3.0282   -1.4572   -1.5496 C   0  0  0  0  0  0  0  0  0  0  0  0
   -2.7502   -2.4419   -1.1459 H   0  0  0  0  0  0  0  0  0  0  0  0
   -2.0549   -0.4491   -1.6418 C   0  0  0  0  0  0  0  0  0  0  0  0
   -0.7046   -0.6744   -1.2527 N   0  0  0  0  0  2  0  0  0  0  0  0
   -0.0036   -1.6410   -1.8019 C   0  0  0  0  0  3  0  0  0  0  0  0
   -0.5454   -2.3546   -2.4531 H   0  0  0  0  0  0  0  0  0  0  0  0
    1.4191   -1.7660   -1.7133 C   0  0  0  0  0  0  0  0  0  0  0  0
    2.1798   -0.6029   -1.3555 C   0  0  0  0  0  0  0  0  0  0  0  0
    1.6521    0.5256   -0.9658 O   0  5  0  0  0  0  0  0  0  0  0  0
    3.6147   -0.6681   -1.4730 C   0  0  0  0  0  0  0  0  0  0  0  0
    4.2550    0.4741   -1.1168 O   0  0  0  0  0  0  0  0  0  0  0  0
    4.2290   -1.8503   -1.8934 C   0  0  0  0  0  0  0  0  0  0  0  0
    5.3240   -1.9070   -1.9592 H   0  0  0  0  0  0  0  0  0  0  0  0
    3.4595   -2.9937   -2.2292 C   0  0  0  0  0  0  0  0  0  0  0  0
    3.9727   -3.9081   -2.5590 H   0  0  0  0  0  0  0  0  0  0  0  0
    2.0759   -2.9519   -2.1577 C   0  0  0  0  0  0  0  0  0  0  0  0
    1.4702   -3.8256   -2.4412 H   0  0  0  0  0  0  0  0  0  0  0  0
   -5.6720    0.4886    1.1778 C   0  0  0  0  0  0  0  0  0  0  0  0
   -5.9888    1.4927    0.8423 H   0  0  0  0  0  0  0  0  0  0  0  0
   -6.0398    0.3160    2.2133 H   0  0  0  0  0  0  0  0  0  0  0  0
   -6.1173   -0.2748    0.5025 H   0  0  0  0  0  0  0  0  0  0  0  0
    5.6720    0.4886   -1.1778 C   0  0  0  0  0  0  0  0  0  0  0  0
    5.9888    1.4927   -0.8423 H   0  0  0  0  0  0  0  0  0  0  0  0
    6.0399    0.3160   -2.2133 H   0  0  0  0  0  0  0  0  0  0  0  0
    6.1173   -0.2748   -0.5025 H   0  0  0  0  0  0  0  0  0  0  0  0
  1  2  1  0  0  0  0
  2  4  2  0  0  0  0
  2 11  1  0  0  0  0
  3 69  1  0  0  0  0
  3  4  1  0  0  0  0
  4  5  1  0  0  0  0
  5  6  1  0  0  0  0
  5  7  2  0  0  0  0
  7  8  1  0  0  0  0
  9  7  1  0  0  0  0
  9 10  1  0  0  0  0
 11 12  1  0  0  0  0
 11  9  2  0  0  0  0
 12 13  1  0  0  0  0
 14 15  1  0  0  0  0
 14 12  1  0  0  0  0
 15 24  1  0  0  0  0
 16 15  2  0  0  0  0
 16 18  1  0  0  0  0
 17 16  1  0  0  0  0
 18 20  2  0  0  0  0
 19 18  1  0  0  0  0
 20 22  1  0  0  0  0
 20 21  1  0  0  0  0
 22 23  1  0  0  0  0
 24 25  1  0  0  0  0
 24 22  2  0  0  0  0
 25 27  1  0  0  0  0
 25 26  1  0  0  0  0
 28 35  1  0  0  0  0
 28 25  1  0  0  0  0
 29 31  1  0  0  0  0
 29 28  1  0  0  0  0
 30 29  1  0  0  0  0
 32 41  1  0  0  0  0
 32 29  1  0  0  0  0
 33 32  1  0  0  0  0
 34 32  1  0  0  0  0
 35 36  1  0  0  0  0
 35 37  1  0  0  0  0
 38 39  1  0  0  0  0
 38 35  1  0  0  0  0
 40 38  1  0  0  0  0
 41 38  1  0  0  0  0
 42 45  1  0  0  0  0
 42 41  1  0  0  0  0
 43 42  1  0  0  0  0
 44 42  1  0  0  0  0
 45 54  1  0  0  0  0
 46 48  1  0  0  0  0
 46 45  2  0  0  0  0
 47 46  1  0  0  0  0
 48 50  2  0  0  0  0
 49 48  1  0  0  0  0
 50 51  1  0  0  0  0
 50 52  1  0  0  0  0
 52 53  1  0  0  0  0
 54 52  2  0  0  0  0
 54 55  1  0  0  0  0
 56 58  1  0  0  0  0
 56 55  1  0  0  0  0
 57 56  1  0  0  0  0
 58 59  1  0  0  0  0
 59 60  1  0  0  0  0
 61 59  2  0  0  0  0
 61 62  1  0  0  0  0
 63 61  1  0  0  0  0
 64 63  1  0  0  0  0
 65 67  1  0  0  0  0
 65 63  2  0  0  0  0
 66 65  1  0  0  0  0
 67 58  2  0  0  0  0
 68 67  1  0  0  0  0
 69 71  1  0  0  0  0
 70 69  1  0  0  0  0
 72 69  1  0  0  0  0
 73 62  1  0  0  0  0
 73 74  1  0  0  0  0
 73 76  1  0  0  0  0
 75 73  1  0  0  0  0
M  CHG  2   1  -1  60  -1
M  END
