3,4,5,6,43,53
 OpenBabel05122313063D

 62 65  0  0  1  0  0  0  0  0999 V2000
    7.2901    0.4517    0.2531 Br  0  0  0  0  0  0  0  0  0  0  0  0
   -7.2901   -0.4511    0.2534 Br  0  0  0  0  0  0  0  0  0  0  0  0
    1.3066    0.9583    1.1111 O   0  5  0  0  0  0  0  0  0  0  0  0
   -1.3067   -0.9584    1.1113 O   0  5  0  0  0  0  0  0  0  0  0  0
    1.4554    0.2246   -1.8972 N   0  0  0  0  0  0  0  0  0  0  0  0
   -1.4555   -0.2254   -1.8971 N   0  0  0  0  0  0  0  0  0  0  0  0
    2.2807    1.4086   -1.5199 C   0  0  0  0  0  0  0  0  0  0  0  0
    1.5627    2.2106   -1.2426 H   0  0  0  0  0  0  0  0  0  0  0  0
    2.8760    1.7516   -2.3999 H   0  0  0  0  0  0  0  0  0  0  0  0
   -2.2809   -1.4093   -1.5195 C   0  0  0  0  0  0  0  0  0  0  0  0
   -1.5630   -2.2112   -1.2420 H   0  0  0  0  0  0  0  0  0  0  0  0
   -2.8762   -1.7525   -2.3994 H   0  0  0  0  0  0  0  0  0  0  0  0
    2.2726   -0.9912   -2.0243 C   0  0  0  0  0  0  0  0  0  0  0  0
    3.2714   -0.7723   -2.4643 H   0  0  0  0  0  0  0  0  0  0  0  0
    1.7590   -1.6839   -2.7244 H   0  0  0  0  0  0  0  0  0  0  0  0
    0.6117    0.4603   -3.0718 C   0  0  0  0  0  0  0  0  0  0  0  0
    1.1792    0.3405   -4.0264 H   0  0  0  0  0  0  0  0  0  0  0  0
    0.2823    1.5192   -3.0390 H   0  0  0  0  0  0  0  0  0  0  0  0
   -2.2726    0.9904   -2.0247 C   0  0  0  0  0  0  0  0  0  0  0  0
   -3.2714    0.7713   -2.4646 H   0  0  0  0  0  0  0  0  0  0  0  0
   -1.7590    1.6827   -2.7250 H   0  0  0  0  0  0  0  0  0  0  0  0
   -0.6117   -0.4617   -3.0716 C   0  0  0  0  0  0  0  0  0  0  0  0
   -1.1792   -0.3422   -4.0263 H   0  0  0  0  0  0  0  0  0  0  0  0
   -0.2824   -1.5205   -3.0385 H   0  0  0  0  0  0  0  0  0  0  0  0
    2.5975    0.9018    0.9316 C   0  0  0  0  0  0  0  0  0  0  0  0
    3.1923    1.1132   -0.3628 C   0  0  0  0  0  0  0  0  0  0  0  0
    4.5815    0.9994   -0.5459 C   0  0  0  0  0  0  0  0  0  0  0  0
    5.0181    1.1617   -1.5440 H   0  0  0  0  0  0  0  0  0  0  0  0
    5.4096    0.6613    0.5309 C   0  0  0  0  0  0  0  0  0  0  0  0
    4.8629    0.4702    1.8147 C   0  0  0  0  0  0  0  0  0  0  0  0
    5.5226    0.2137    2.6569 H   0  0  0  0  0  0  0  0  0  0  0  0
    3.4872    0.5995    2.0082 C   0  0  0  0  0  0  0  0  0  0  0  0
    3.0434    0.4426    3.0027 H   0  0  0  0  0  0  0  0  0  0  0  0
   -2.5976   -0.9017    0.9318 C   0  0  0  0  0  0  0  0  0  0  0  0
   -3.1924   -1.1135   -0.3625 C   0  0  0  0  0  0  0  0  0  0  0  0
   -4.5816   -0.9995   -0.5455 C   0  0  0  0  0  0  0  0  0  0  0  0
   -5.0183   -1.1620   -1.5436 H   0  0  0  0  0  0  0  0  0  0  0  0
   -5.4096   -0.6609    0.5312 C   0  0  0  0  0  0  0  0  0  0  0  0
   -4.8629   -0.4694    1.8149 C   0  0  0  0  0  0  0  0  0  0  0  0
   -5.5225   -0.2125    2.6570 H   0  0  0  0  0  0  0  0  0  0  0  0
   -3.4872   -0.5989    2.0084 C   0  0  0  0  0  0  0  0  0  0  0  0
   -3.0433   -0.4417    3.0027 H   0  0  0  0  0  0  0  0  0  0  0  0
    1.3044   -1.7635    0.0451 N   0  0  0  0  0  2  0  0  0  0  0  0
    2.4249   -1.7108   -0.7028 C   0  0  1  0  0  3  0  0  0  0  0  0
    3.6174   -2.3332   -0.2985 C   0  0  0  0  0  0  0  0  0  0  0  0
    4.5240   -2.2419   -0.9137 H   0  0  0  0  0  0  0  0  0  0  0  0
    3.6322   -3.0221    0.9191 C   0  0  0  0  0  0  0  0  0  0  0  0
    4.5587   -3.4984    1.2735 H   0  0  0  0  0  0  0  0  0  0  0  0
    2.4601   -3.0740    1.6916 C   0  0  0  0  0  0  0  0  0  0  0  0
    2.4358   -3.5982    2.6576 H   0  0  0  0  0  0  0  0  0  0  0  0
    1.3145   -2.4230    1.2191 C   0  0  0  0  0  0  0  0  0  0  0  0
    0.3650   -2.3859    1.7780 H   0  0  0  0  0  0  0  0  0  0  0  0
   -1.3043    1.7633    0.0444 N   0  0  0  0  0  2  0  0  0  0  0  0
   -2.4249    1.7104   -0.7034 C   0  0  1  0  0  3  0  0  0  0  0  0
   -3.6173    2.3330   -0.2994 C   0  0  0  0  0  0  0  0  0  0  0  0
   -4.5239    2.2415   -0.9145 H   0  0  0  0  0  0  0  0  0  0  0  0
   -3.6321    3.0224    0.9180 C   0  0  0  0  0  0  0  0  0  0  0  0
   -4.5585    3.4988    1.2722 H   0  0  0  0  0  0  0  0  0  0  0  0
   -2.4599    3.0744    1.6905 C   0  0  0  0  0  0  0  0  0  0  0  0
   -2.4356    3.5990    2.6563 H   0  0  0  0  0  0  0  0  0  0  0  0
   -1.3144    2.4232    1.2182 C   0  0  0  0  0  0  0  0  0  0  0  0
   -0.3649    2.3862    1.7771 H   0  0  0  0  0  0  0  0  0  0  0  0
  1 29  1  0  0  0  0
  2 38  1  0  0  0  0
  5  7  1  0  0  0  0
  6 10  1  0  0  0  0
  7  8  1  0  0  0  0
  7 26  1  0  0  0  0
  9  7  1  0  0  0  0
 10 11  1  0  0  0  0
 10 35  1  0  0  0  0
 12 10  1  0  0  0  0
 13  5  1  0  0  0  0
 14 13  1  0  0  0  0
 15 13  1  0  0  0  0
 16 22  1  0  0  0  0
 16 18  1  0  0  0  0
 16  5  1  0  0  0  0
 17 16  1  0  0  0  0
 19  6  1  0  0  0  0
 20 19  1  0  0  0  0
 21 19  1  0  0  0  0
 22 24  1  0  0  0  0
 22  6  1  0  0  0  0
 23 22  1  0  0  0  0
 25  3  1  0  0  0  0
 25 32  1  0  0  0  0
 26 25  2  0  0  0  0
 27 26  1  0  0  0  0
 27 29  2  0  0  0  0
 28 27  1  0  0  0  0
 29 30  1  0  0  0  0
 30 32  2  0  0  0  0
 30 31  1  0  0  0  0
 32 33  1  0  0  0  0
 34  4  1  0  0  0  0
 34 41  1  0  0  0  0
 35 34  2  0  0  0  0
 36 35  1  0  0  0  0
 36 38  2  0  0  0  0
 37 36  1  0  0  0  0
 38 39  1  0  0  0  0
 39 41  2  0  0  0  0
 39 40  1  0  0  0  0
 41 42  1  0  0  0  0
 43 51  1  0  0  0  0
 44 13  1  6  0  0  0
 44 45  1  0  0  0  0
 44 43  1  0  0  0  0
 45 47  2  0  0  0  0
 46 45  1  0  0  0  0
 47 48  1  0  0  0  0
 47 49  1  0  0  0  0
 49 50  1  0  0  0  0
 51 49  2  0  0  0  0
 51 52  1  0  0  0  0
 53 61  1  0  0  0  0
 54 19  1  6  0  0  0
 54 55  1  0  0  0  0
 54 53  1  0  0  0  0
 55 57  2  0  0  0  0
 56 55  1  0  0  0  0
 57 58  1  0  0  0  0
 57 59  1  0  0  0  0
 59 60  1  0  0  0  0
 61 59  2  0  0  0  0
 61 62  1  0  0  0  0
M  CHG  2   3  -1   4  -1
M  END
