1,6,16
 OpenBabel05122313063D

 47 50  0  0  0  0  0  0  0  0999 V2000
   -1.2301    1.5154   -0.3465 N   0  0  0  0  0  2  0  0  0  0  0  0
   -2.4771    1.9240   -0.2065 C   0  0  0  0  0  3  0  0  0  0  0  0
   -2.6600    3.0097   -0.3049 H   0  0  0  0  0  0  0  0  0  0  0  0
   -3.6594    1.1656    0.0617 C   0  0  0  0  0  0  0  0  0  0  0  0
   -3.7112   -0.2757    0.2249 C   0  0  0  0  0  0  0  0  0  0  0  0
   -2.6787   -1.0582    0.1975 O   0  5  0  0  0  0  0  0  0  0  0  0
   -5.0027   -0.8695    0.4094 C   0  0  0  0  0  0  0  0  0  0  0  0
   -5.0339   -1.9633    0.5208 H   0  0  0  0  0  0  0  0  0  0  0  0
   -6.1593   -0.1058    0.4690 C   0  0  0  0  0  0  0  0  0  0  0  0
   -7.1290   -0.6043    0.6260 H   0  0  0  0  0  0  0  0  0  0  0  0
   -6.1078    1.3058    0.3371 C   0  0  0  0  0  0  0  0  0  0  0  0
   -7.0269    1.9064    0.3895 H   0  0  0  0  0  0  0  0  0  0  0  0
   -4.8778    1.9111    0.1354 C   0  0  0  0  0  0  0  0  0  0  0  0
   -4.8178    3.0056    0.0198 H   0  0  0  0  0  0  0  0  0  0  0  0
   -0.2228    2.4628   -0.6865 C   0  0  0  0  0  0  0  0  0  0  0  0
    1.4336    0.4019    0.1026 P   0  0  0  0  0  0  0  0  0  0  0  0
    1.1312    2.1208   -0.4496 C   0  0  0  0  0  0  0  0  0  0  0  0
    2.1564    3.0591   -0.6537 C   0  0  0  0  0  0  0  0  0  0  0  0
    3.1945    2.7796   -0.4161 H   0  0  0  0  0  0  0  0  0  0  0  0
    1.8631    4.3314   -1.1618 C   0  0  0  0  0  0  0  0  0  0  0  0
    2.6671    5.0628   -1.3304 H   0  0  0  0  0  0  0  0  0  0  0  0
    0.5308    4.6500   -1.4751 C   0  0  0  0  0  0  0  0  0  0  0  0
    0.2875    5.6310   -1.9110 H   0  0  0  0  0  0  0  0  0  0  0  0
   -0.5001    3.7321   -1.2453 C   0  0  0  0  0  0  0  0  0  0  0  0
   -1.5263    4.0056   -1.5254 H   0  0  0  0  0  0  0  0  0  0  0  0
    2.5223    0.6452    1.5790 C   0  0  0  0  0  0  0  0  0  0  0  0
    1.9854    1.3530    2.6774 C   0  0  0  0  0  0  0  0  0  0  0  0
    0.9435    1.7021    2.6403 H   0  0  0  0  0  0  0  0  0  0  0  0
    2.7655    1.5726    3.8205 C   0  0  0  0  0  0  0  0  0  0  0  0
    2.3344    2.1211    4.6718 H   0  0  0  0  0  0  0  0  0  0  0  0
    4.0845    1.0934    3.8847 C   0  0  0  0  0  0  0  0  0  0  0  0
    4.6929    1.2661    4.7857 H   0  0  0  0  0  0  0  0  0  0  0  0
    4.6248    0.3982    2.7929 C   0  0  0  0  0  0  0  0  0  0  0  0
    5.6609    0.0282    2.8293 H   0  0  0  0  0  0  0  0  0  0  0  0
    3.8506    0.1762    1.6421 C   0  0  0  0  0  0  0  0  0  0  0  0
    4.2906   -0.3585    0.7884 H   0  0  0  0  0  0  0  0  0  0  0  0
    2.5783   -0.3471   -1.1338 C   0  0  0  0  0  0  0  0  0  0  0  0
    2.9700    0.3138   -2.3140 C   0  0  0  0  0  0  0  0  0  0  0  0
    2.6019    1.3268   -2.5232 H   0  0  0  0  0  0  0  0  0  0  0  0
    3.7985   -0.3344   -3.2428 C   0  0  0  0  0  0  0  0  0  0  0  0
    4.0895    0.1895   -4.1658 H   0  0  0  0  0  0  0  0  0  0  0  0
    4.2455   -1.6435   -3.0054 C   0  0  0  0  0  0  0  0  0  0  0  0
    4.8968   -2.1467   -3.7361 H   0  0  0  0  0  0  0  0  0  0  0  0
    3.8388   -2.3167   -1.8417 C   0  0  0  0  0  0  0  0  0  0  0  0
    4.1547   -3.3549   -1.6596 H   0  0  0  0  0  0  0  0  0  0  0  0
    2.9999   -1.6781   -0.9167 C   0  0  0  0  0  0  0  0  0  0  0  0
    2.6234   -2.2514   -0.0572 H   0  0  0  0  0  0  0  0  0  0  0  0
  1  2  1  0  0  0  0
  2  4  1  0  0  0  0
  3  2  1  0  0  0  0
  4 13  2  0  0  0  0
  4  5  1  0  0  0  0
  5  7  2  0  0  0  0
  6  5  1  0  0  0  0
  7  9  1  0  0  0  0
  7  8  1  0  0  0  0
  9 10  1  0  0  0  0
 11 12  1  0  0  0  0
 11  9  2  0  0  0  0
 13 11  1  0  0  0  0
 14 13  1  0  0  0  0
 15 17  1  0  0  0  0
 15  1  1  0  0  0  0
 16 26  1  0  0  0  0
 17 16  1  0  0  0  0
 18 17  2  0  0  0  0
 18 19  1  0  0  0  0
 20 18  1  0  0  0  0
 21 20  1  0  0  0  0
 22 24  1  0  0  0  0
 22 20  2  0  0  0  0
 23 22  1  0  0  0  0
 24 15  2  0  0  0  0
 25 24  1  0  0  0  0
 26 35  2  0  0  0  0
 26 27  1  0  0  0  0
 27 29  2  0  0  0  0
 28 27  1  0  0  0  0
 29 31  1  0  0  0  0
 29 30  1  0  0  0  0
 31 32  1  0  0  0  0
 33 34  1  0  0  0  0
 33 31  2  0  0  0  0
 35 33  1  0  0  0  0
 36 35  1  0  0  0  0
 37 46  1  0  0  0  0
 37 16  1  0  0  0  0
 38 37  2  0  0  0  0
 39 38  1  0  0  0  0
 40 42  2  0  0  0  0
 40 38  1  0  0  0  0
 41 40  1  0  0  0  0
 42 44  1  0  0  0  0
 43 42  1  0  0  0  0
 44 45  1  0  0  0  0
 44 46  2  0  0  0  0
 46 47  1  0  0  0  0
M  CHG  1   6  -1
M  END
