1,2,3
 OpenBabel05122313063D

 71 76  0  0  1  0  0  0  0  0999 V2000
    0.3970   -0.7919    0.7051 N   0  0  0  0  0  2  0  0  0  0  0  0
    1.4712    0.0268   -1.7107 O   0  0  0  0  0  1  0  0  0  0  0  0
   -2.2199   -0.4242   -0.0331 P   0  0  0  0  0  0  0  0  0  0  0  0
    2.1371    0.6527   -0.4493 P   0  0  0  0  0  4  0  0  0  0  0  0
   -1.8055   -1.1313    1.5825 C   0  0  0  0  0  0  0  0  0  0  0  0
   -0.3863   -1.1690    1.7669 C   0  0  0  0  0  0  0  0  0  0  0  0
    0.0958   -1.6095    3.0341 C   0  0  0  0  0  0  0  0  0  0  0  0
    1.1772   -1.6763    3.2202 H   0  0  0  0  0  0  0  0  0  0  0  0
   -0.8046   -2.0158    4.0247 C   0  0  0  0  0  0  0  0  0  0  0  0
   -0.4057   -2.3715    4.9879 H   0  0  0  0  0  0  0  0  0  0  0  0
   -2.1987   -2.0025    3.8154 C   0  0  0  0  0  0  0  0  0  0  0  0
   -2.8865   -2.3407    4.6035 H   0  0  0  0  0  0  0  0  0  0  0  0
   -2.6936   -1.5554    2.5805 C   0  0  0  0  0  0  0  0  0  0  0  0
   -3.7783   -1.5302    2.3902 H   0  0  0  0  0  0  0  0  0  0  0  0
   -3.6044   -1.3786   -0.7414 C   0  0  0  0  0  0  0  0  0  0  0  0
   -3.3185   -2.3957   -1.6729 C   0  0  0  0  0  0  0  0  0  0  0  0
   -2.2830   -2.5266   -2.0205 H   0  0  0  0  0  0  0  0  0  0  0  0
   -4.3552   -3.1967   -2.1701 C   0  0  0  0  0  0  0  0  0  0  0  0
   -4.1310   -3.9863   -2.9033 H   0  0  0  0  0  0  0  0  0  0  0  0
   -5.6775   -2.9839   -1.7457 C   0  0  0  0  0  0  0  0  0  0  0  0
   -6.4902   -3.6120   -2.1415 H   0  0  0  0  0  0  0  0  0  0  0  0
   -5.9655   -1.9619   -0.8272 C   0  0  0  0  0  0  0  0  0  0  0  0
   -7.0025   -1.7863   -0.5025 H   0  0  0  0  0  0  0  0  0  0  0  0
   -4.9326   -1.1547   -0.3264 C   0  0  0  0  0  0  0  0  0  0  0  0
   -5.1594   -0.3397    0.3782 H   0  0  0  0  0  0  0  0  0  0  0  0
   -2.8916    1.2567    0.2708 C   0  0  0  0  0  0  0  0  0  0  0  0
   -3.4380    1.9840   -0.8090 C   0  0  0  0  0  0  0  0  0  0  0  0
   -3.4478    1.5315   -1.8126 H   0  0  0  0  0  0  0  0  0  0  0  0
   -3.9255    3.2807   -0.5988 C   0  0  0  0  0  0  0  0  0  0  0  0
   -4.3575    3.8422   -1.4415 H   0  0  0  0  0  0  0  0  0  0  0  0
   -3.8603    3.8651    0.6782 C   0  0  0  0  0  0  0  0  0  0  0  0
   -4.2461    4.8837    0.8388 H   0  0  0  0  0  0  0  0  0  0  0  0
   -3.2982    3.1493    1.7465 C   0  0  0  0  0  0  0  0  0  0  0  0
   -3.2372    3.6049    2.7467 H   0  0  0  0  0  0  0  0  0  0  0  0
   -2.8139    1.8470    1.5472 C   0  0  0  0  0  0  0  0  0  0  0  0
   -2.3761    1.2806    2.3829 H   0  0  0  0  0  0  0  0  0  0  0  0
    1.8103   -0.5814    0.9133 C   0  0  2  0  0  0  0  0  0  0  0  0
    2.0315   -0.0864    1.8895 H   0  0  0  0  0  0  0  0  0  0  0  0
    2.7048   -1.7924    0.7385 C   0  0  0  0  0  0  0  0  0  0  0  0
    3.9566   -1.8610    1.3792 C   0  0  0  0  0  0  0  0  0  0  0  0
    4.2624   -1.0519    2.0625 H   0  0  0  0  0  0  0  0  0  0  0  0
    4.8167   -2.9432    1.1437 C   0  0  0  0  0  0  0  0  0  0  0  0
    5.7917   -2.9894    1.6525 H   0  0  0  0  0  0  0  0  0  0  0  0
    4.4331   -3.9648    0.2596 C   0  0  0  0  0  0  0  0  0  0  0  0
    5.1071   -4.8149    0.0734 H   0  0  0  0  0  0  0  0  0  0  0  0
    3.1836   -3.9020   -0.3799 C   0  0  0  0  0  0  0  0  0  0  0  0
    2.8768   -4.7031   -1.0697 H   0  0  0  0  0  0  0  0  0  0  0  0
    2.3218   -2.8220   -0.1418 C   0  0  0  0  0  0  0  0  0  0  0  0
    1.3377   -2.7534   -0.6289 H   0  0  0  0  0  0  0  0  0  0  0  0
    3.9116    0.9016   -0.7008 C   0  0  0  0  0  0  0  0  0  0  0  0
    4.6059    2.0069   -0.1694 C   0  0  0  0  0  0  0  0  0  0  0  0
    4.0604    2.7944    0.3720 H   0  0  0  0  0  0  0  0  0  0  0  0
    5.9934    2.1081   -0.3480 C   0  0  0  0  0  0  0  0  0  0  0  0
    6.5354    2.9735    0.0621 H   0  0  0  0  0  0  0  0  0  0  0  0
    6.6862    1.1128   -1.0564 C   0  0  0  0  0  0  0  0  0  0  0  0
    7.7749    1.1958   -1.1950 H   0  0  0  0  0  0  0  0  0  0  0  0
    5.9924    0.0168   -1.5955 C   0  0  0  0  0  0  0  0  0  0  0  0
    6.5343   -0.7599   -2.1555 H   0  0  0  0  0  0  0  0  0  0  0  0
    4.6066   -0.0932   -1.4225 C   0  0  0  0  0  0  0  0  0  0  0  0
    4.0539   -0.9454   -1.8445 H   0  0  0  0  0  0  0  0  0  0  0  0
    1.3198    2.1946    0.0493 C   0  0  0  0  0  0  0  0  0  0  0  0
    0.4009    2.7600   -0.8605 C   0  0  0  0  0  0  0  0  0  0  0  0
    0.2343    2.2832   -1.8394 H   0  0  0  0  0  0  0  0  0  0  0  0
   -0.3329    3.8925   -0.4827 C   0  0  0  0  0  0  0  0  0  0  0  0
   -1.0681    4.3186   -1.1805 H   0  0  0  0  0  0  0  0  0  0  0  0
   -0.1588    4.4577    0.7905 C   0  0  0  0  0  0  0  0  0  0  0  0
   -0.7539    5.3346    1.0864 H   0  0  0  0  0  0  0  0  0  0  0  0
    0.7573    3.8958    1.6941 C   0  0  0  0  0  0  0  0  0  0  0  0
    0.8867    4.3330    2.6957 H   0  0  0  0  0  0  0  0  0  0  0  0
    1.4975    2.7617    1.3275 C   0  0  0  0  0  0  0  0  0  0  0  0
    2.1962    2.3098    2.0493 H   0  0  0  0  0  0  0  0  0  0  0  0
  1 37  1  0  0  0  0
  1  6  1  0  0  0  0
  2  4  1  0  0  0  0
  3 26  1  0  0  0  0
  3  5  1  0  0  0  0
  4 61  1  0  0  0  0
  4 37  1  0  0  0  0
  5  6  2  0  0  0  0
  5 13  1  0  0  0  0
  6  7  1  0  0  0  0
  7  8  1  0  0  0  0
  7  9  2  0  0  0  0
  9 10  1  0  0  0  0
 11  9  1  0  0  0  0
 11 12  1  0  0  0  0
 13 11  2  0  0  0  0
 14 13  1  0  0  0  0
 15 24  1  0  0  0  0
 15  3  1  0  0  0  0
 16 15  2  0  0  0  0
 17 16  1  0  0  0  0
 18 20  2  0  0  0  0
 18 16  1  0  0  0  0
 19 18  1  0  0  0  0
 20 22  1  0  0  0  0
 21 20  1  0  0  0  0
 22 23  1  0  0  0  0
 22 24  2  0  0  0  0
 24 25  1  0  0  0  0
 26 35  1  0  0  0  0
 27 29  1  0  0  0  0
 27 26  2  0  0  0  0
 28 27  1  0  0  0  0
 29 31  2  0  0  0  0
 30 29  1  0  0  0  0
 31 32  1  0  0  0  0
 31 33  1  0  0  0  0
 33 34  1  0  0  0  0
 35 33  2  0  0  0  0
 35 36  1  0  0  0  0
 37 38  1  1  0  0  0
 39 37  1  0  0  0  0
 39 40  1  0  0  0  0
 40 41  1  0  0  0  0
 42 40  2  0  0  0  0
 42 43  1  0  0  0  0
 44 42  1  0  0  0  0
 45 44  1  0  0  0  0
 46 48  1  0  0  0  0
 46 44  2  0  0  0  0
 47 46  1  0  0  0  0
 48 39  2  0  0  0  0
 49 48  1  0  0  0  0
 50  4  1  0  0  0  0
 50 51  1  0  0  0  0
 51 52  1  0  0  0  0
 53 51  2  0  0  0  0
 53 54  1  0  0  0  0
 55 53  1  0  0  0  0
 56 55  1  0  0  0  0
 57 59  1  0  0  0  0
 57 55  2  0  0  0  0
 58 57  1  0  0  0  0
 59 50  2  0  0  0  0
 60 59  1  0  0  0  0
 61 70  1  0  0  0  0
 62 64  1  0  0  0  0
 62 61  2  0  0  0  0
 63 62  1  0  0  0  0
 64 66  2  0  0  0  0
 65 64  1  0  0  0  0
 66 67  1  0  0  0  0
 66 68  1  0  0  0  0
 68 69  1  0  0  0  0
 70 68  2  0  0  0  0
 70 71  1  0  0  0  0
M  END
