1,2,3
 OpenBabel05122313063D

 46 48  0  0  0  0  0  0  0  0999 V2000
    1.3010    0.4876    0.6247 P   0  0  0  0  0  0  0  0  0  0  0  0
   -1.3058    0.0130   -0.9473 O   0  5  0  0  0  0  0  0  0  0  0  0
   -1.3198   -0.8555    1.5966 N   0  0  0  0  0  2  0  0  0  0  0  0
   -2.5212    0.4940   -0.7687 C   0  0  0  0  0  0  0  0  0  0  0  0
   -3.1681    1.2043   -1.8051 C   0  0  0  0  0  0  0  0  0  0  0  0
   -4.4673    1.6862   -1.6204 C   0  0  0  0  0  0  0  0  0  0  0  0
   -5.1429    1.4933   -0.3970 C   0  0  0  0  0  0  0  0  0  0  0  0
   -4.5016    0.8180    0.6425 C   0  0  0  0  0  0  0  0  0  0  0  0
   -3.1922    0.3020    0.4807 C   0  0  0  0  0  0  0  0  0  0  0  0
   -2.5016   -0.2778    1.6044 C   0  0  0  0  0  3  0  0  0  0  0  0
   -0.6956   -1.0366    2.9186 C   0  0  0  0  0  0  0  0  0  0  0  0
    0.1956    0.1626    3.2887 C   0  0  0  0  0  0  0  0  0  0  0  0
    1.4831    0.3494    2.4694 C   0  0  0  0  0  0  0  0  0  0  0  0
    3.0434    0.5321    0.0551 C   0  0  0  0  0  0  0  0  0  0  0  0
    3.6945   -0.6849   -0.2339 C   0  0  0  0  0  0  0  0  0  0  0  0
    5.0400   -0.6762   -0.6285 C   0  0  0  0  0  0  0  0  0  0  0  0
    5.7356    0.5377   -0.7463 C   0  0  0  0  0  0  0  0  0  0  0  0
    5.0853    1.7504   -0.4668 C   0  0  0  0  0  0  0  0  0  0  0  0
    3.7409    1.7511   -0.0666 C   0  0  0  0  0  0  0  0  0  0  0  0
    0.6202    2.1286    0.2197 C   0  0  0  0  0  0  0  0  0  0  0  0
    0.2844    3.0929    1.1888 C   0  0  0  0  0  0  0  0  0  0  0  0
   -0.2823    4.3162    0.7948 C   0  0  0  0  0  0  0  0  0  0  0  0
   -0.5106    4.5807   -0.5634 C   0  0  0  0  0  0  0  0  0  0  0  0
   -0.1658    3.6238   -1.5334 C   0  0  0  0  0  0  0  0  0  0  0  0
    0.3947    2.3999   -1.1486 C   0  0  0  0  0  0  0  0  0  0  0  0
   -2.6271    1.3418   -2.7516 H   0  0  0  0  0  0  0  0  0  0  0  0
   -4.9668    2.2225   -2.4419 H   0  0  0  0  0  0  0  0  0  0  0  0
   -6.1639    1.8781   -0.2608 H   0  0  0  0  0  0  0  0  0  0  0  0
   -5.0100    0.6768    1.6098 H   0  0  0  0  0  0  0  0  0  0  0  0
   -2.9861   -0.1455    2.5922 H   0  0  0  0  0  0  0  0  0  0  0  0
   -0.1092   -1.9743    2.9122 H   0  0  0  0  0  0  0  0  0  0  0  0
   -1.4956   -1.1310    3.6829 H   0  0  0  0  0  0  0  0  0  0  0  0
   -0.4267    1.0816    3.2463 H   0  0  0  0  0  0  0  0  0  0  0  0
    0.4919    0.0387    4.3525 H   0  0  0  0  0  0  0  0  0  0  0  0
    2.1418   -0.5369    2.5859 H   0  0  0  0  0  0  0  0  0  0  0  0
    2.0626    1.2246    2.8309 H   0  0  0  0  0  0  0  0  0  0  0  0
    0.6484    1.6396   -1.9034 H   0  0  0  0  0  0  0  0  0  0  0  0
   -0.3430    3.8294   -2.5997 H   0  0  0  0  0  0  0  0  0  0  0  0
   -0.9604    5.5374   -0.8693 H   0  0  0  0  0  0  0  0  0  0  0  0
   -0.5468    5.0650    1.5566 H   0  0  0  0  0  0  0  0  0  0  0  0
    0.4645    2.9007    2.2565 H   0  0  0  0  0  0  0  0  0  0  0  0
    3.2281    2.7024    0.1428 H   0  0  0  0  0  0  0  0  0  0  0  0
    5.6263    2.7039   -0.5646 H   0  0  0  0  0  0  0  0  0  0  0  0
    6.7890    0.5397   -1.0654 H   0  0  0  0  0  0  0  0  0  0  0  0
    5.5437   -1.6269   -0.8594 H   0  0  0  0  0  0  0  0  0  0  0  0
    3.1430   -1.6342   -0.1647 H   0  0  0  0  0  0  0  0  0  0  0  0
  1 13  1  0  0  0  0
  2  4  1  0  0  0  0
  3 10  1  0  0  0  0
  3 11  1  0  0  0  0
  4  9  1  0  0  0  0
  5  6  1  0  0  0  0
  5  4  2  0  0  0  0
  6  7  2  0  0  0  0
  7 28  1  0  0  0  0
  7  8  1  0  0  0  0
  8 29  1  0  0  0  0
  9  8  2  0  0  0  0
  9 10  1  0  0  0  0
 10 30  1  0  0  0  0
 11 12  1  0  0  0  0
 11 32  1  0  0  0  0
 12 34  1  0  0  0  0
 13 35  1  0  0  0  0
 13 36  1  0  0  0  0
 13 12  1  0  0  0  0
 14  1  1  0  0  0  0
 15 46  1  0  0  0  0
 15 14  2  0  0  0  0
 16 15  1  0  0  0  0
 17 16  2  0  0  0  0
 17 18  1  0  0  0  0
 18 19  2  0  0  0  0
 19 14  1  0  0  0  0
 19 42  1  0  0  0  0
 20  1  1  0  0  0  0
 20 21  1  0  0  0  0
 21 41  1  0  0  0  0
 22 21  2  0  0  0  0
 22 40  1  0  0  0  0
 23 22  1  0  0  0  0
 24 25  1  0  0  0  0
 24 23  2  0  0  0  0
 25 20  2  0  0  0  0
 26  5  1  0  0  0  0
 27  6  1  0  0  0  0
 31 11  1  0  0  0  0
 33 12  1  0  0  0  0
 37 25  1  0  0  0  0
 38 24  1  0  0  0  0
 39 23  1  0  0  0  0
 43 18  1  0  0  0  0
 44 17  1  0  0  0  0
 45 16  1  0  0  0  0
M  CHG  1   2  -1
M  END
