1,2,4
 OpenBabel05122313063D

 51 54  0  0  0  0  0  0  0  0999 V2000
    1.5765    0.6125   -0.0287 P   0  0  0  0  0  0  0  0  0  0  0  0
   -1.2486    1.2981    0.2119 N   0  0  0  0  0  2  0  0  0  0  0  0
   -7.3029    0.2812   -0.1740 O   0  0  0  0  0  0  0  0  0  0  0  0
   -2.1031   -1.5646    0.1302 O   0  5  0  0  0  0  0  0  0  0  0  0
    2.8791    0.3429    1.2279 C   0  0  0  0  0  0  0  0  0  0  0  0
    4.2055    0.7689    1.0117 C   0  0  0  0  0  0  0  0  0  0  0  0
    5.1632    0.6097    2.0247 C   0  0  0  0  0  0  0  0  0  0  0  0
    4.8024    0.0258    3.2494 C   0  0  0  0  0  0  0  0  0  0  0  0
    3.4826   -0.4058    3.4613 C   0  0  0  0  0  0  0  0  0  0  0  0
    2.5207   -0.2531    2.4535 C   0  0  0  0  0  0  0  0  0  0  0  0
    2.4427    0.6496   -1.6416 C   0  0  0  0  0  0  0  0  0  0  0  0
    3.2576   -0.4453   -2.0014 C   0  0  0  0  0  0  0  0  0  0  0  0
    3.8889   -0.4621   -3.2521 C   0  0  0  0  0  0  0  0  0  0  0  0
    3.7068    0.6011   -4.1523 C   0  0  0  0  0  0  0  0  0  0  0  0
    2.8875    1.6845   -3.8000 C   0  0  0  0  0  0  0  0  0  0  0  0
    2.2541    1.7119   -2.5479 C   0  0  0  0  0  0  0  0  0  0  0  0
    0.9693    2.3177    0.2627 C   0  0  0  0  0  0  0  0  0  0  0  0
    1.8219    3.4227    0.4174 C   0  0  0  0  0  0  0  0  0  0  0  0
    1.2966    4.6930    0.6871 C   0  0  0  0  0  0  0  0  0  0  0  0
   -0.0944    4.8396    0.8198 C   0  0  0  0  0  0  0  0  0  0  0  0
   -0.9526    3.7435    0.6755 C   0  0  0  0  0  0  0  0  0  0  0  0
   -0.4387    2.4590    0.3751 C   0  0  0  0  0  0  0  0  0  0  0  0
   -2.5692    1.4131    0.1153 C   0  0  0  0  0  0  0  0  0  0  0  0
   -3.5587    0.3967    0.0405 C   0  0  0  0  0  0  0  0  0  0  0  0
   -4.9230    0.8473   -0.0533 C   0  0  0  0  0  3  0  0  0  0  0  0
   -5.9805   -0.0487   -0.0875 C   0  0  0  0  0  0  0  0  0  0  0  0
   -7.6324    1.6517   -0.2396 C   0  0  0  0  0  0  0  0  0  0  0  0
   -5.7042   -1.4486   -0.0232 C   0  0  0  0  0  0  0  0  0  0  0  0
   -4.4095   -1.9157    0.0630 C   0  0  0  0  0  0  0  0  0  0  0  0
   -3.2803   -1.0266    0.0837 C   0  0  0  0  0  0  0  0  0  0  0  0
    4.4945    1.2085    0.0448 H   0  0  0  0  0  0  0  0  0  0  0  0
    6.1994    0.9378    1.8522 H   0  0  0  0  0  0  0  0  0  0  0  0
    5.5572   -0.1032    4.0400 H   0  0  0  0  0  0  0  0  0  0  0  0
    3.2016   -0.8780    4.4146 H   0  0  0  0  0  0  0  0  0  0  0  0
    1.4899   -0.6120    2.5976 H   0  0  0  0  0  0  0  0  0  0  0  0
    3.3748   -1.2914   -1.3066 H   0  0  0  0  0  0  0  0  0  0  0  0
    4.5218   -1.3188   -3.5287 H   0  0  0  0  0  0  0  0  0  0  0  0
    4.2023    0.5821   -5.1349 H   0  0  0  0  0  0  0  0  0  0  0  0
    2.7373    2.5169   -4.5041 H   0  0  0  0  0  0  0  0  0  0  0  0
    1.6118    2.5620   -2.2747 H   0  0  0  0  0  0  0  0  0  0  0  0
    2.9102    3.2788    0.3372 H   0  0  0  0  0  0  0  0  0  0  0  0
    1.9652    5.5569    0.8135 H   0  0  0  0  0  0  0  0  0  0  0  0
   -0.5230    5.8249    1.0580 H   0  0  0  0  0  0  0  0  0  0  0  0
   -2.0292    3.8970    0.8267 H   0  0  0  0  0  0  0  0  0  0  0  0
   -2.9729    2.4404    0.0878 H   0  0  0  0  0  0  0  0  0  0  0  0
   -5.1002    1.9314   -0.0898 H   0  0  0  0  0  0  0  0  0  0  0  0
   -7.2965    2.2041    0.6684 H   0  0  0  0  0  0  0  0  0  0  0  0
   -8.7345    1.7113   -0.3084 H   0  0  0  0  0  0  0  0  0  0  0  0
   -7.1867    2.1440   -1.1348 H   0  0  0  0  0  0  0  0  0  0  0  0
   -6.5592   -2.1411   -0.0471 H   0  0  0  0  0  0  0  0  0  0  0  0
   -4.1887   -2.9915    0.1063 H   0  0  0  0  0  0  0  0  0  0  0  0
  1 17  1  0  0  0  0
  1  5  1  0  0  0  0
  2 22  1  0  0  0  0
  3 26  1  0  0  0  0
  5 10  1  0  0  0  0
  6  5  2  0  0  0  0
  6  7  1  0  0  0  0
  7  8  2  0  0  0  0
  8  9  1  0  0  0  0
  8 33  1  0  0  0  0
  9 34  1  0  0  0  0
 10 35  1  0  0  0  0
 10  9  2  0  0  0  0
 11  1  1  0  0  0  0
 12 11  1  0  0  0  0
 12 36  1  0  0  0  0
 13 12  2  0  0  0  0
 14 15  2  0  0  0  0
 14 13  1  0  0  0  0
 15 16  1  0  0  0  0
 16 40  1  0  0  0  0
 16 11  2  0  0  0  0
 17 22  2  0  0  0  0
 17 18  1  0  0  0  0
 18 19  2  0  0  0  0
 19 42  1  0  0  0  0
 19 20  1  0  0  0  0
 20 43  1  0  0  0  0
 21 20  2  0  0  0  0
 21 44  1  0  0  0  0
 22 21  1  0  0  0  0
 23  2  1  0  0  0  0
 24 30  1  0  0  0  0
 24 23  2  0  0  0  0
 25 24  1  0  0  0  0
 26 25  1  0  0  0  0
 26 28  2  0  0  0  0
 27  3  1  0  0  0  0
 27 47  1  0  0  0  0
 28 29  1  0  0  0  0
 29 30  2  0  0  0  0
 29 51  1  0  0  0  0
 30  4  1  0  0  0  0
 31  6  1  0  0  0  0
 32  7  1  0  0  0  0
 37 13  1  0  0  0  0
 38 14  1  0  0  0  0
 39 15  1  0  0  0  0
 41 18  1  0  0  0  0
 45 23  1  0  0  0  0
 46 25  1  0  0  0  0
 48 27  1  0  0  0  0
 49 27  1  0  0  0  0
 50 28  1  0  0  0  0
M  CHG  1   4  -1
M  END
