1,3,5,17,19,21
 OpenBabel05122313063D

 32 31  0  0  1  0  0  0  0  0999 V2000
    1.0798    1.5150   -0.7447 O   0  5  0  0  0  0  0  0  0  0  0  0
    2.8771    2.4268   -1.7097 O   0  0  0  0  0  0  0  0  0  0  0  0
    1.0228    0.0278    1.6348 O   0  5  0  0  0  0  0  0  0  0  0  0
    3.1357   -0.4163    2.3135 O   0  0  0  0  0  0  0  0  0  0  0  0
    1.2418   -1.2861   -0.5616 N   0  0  0  0  0  0  0  0  0  0  0  0
    1.2457   -1.3100   -1.5925 H   0  0  0  0  0  0  0  0  0  0  0  0
    2.3217    1.4956   -1.1213 C   0  0  0  0  0  0  0  0  0  0  0  0
    3.1752    0.2303   -0.8439 C   0  0  0  0  0  0  0  0  0  0  0  0
    3.4890   -0.1761   -1.8321 H   0  0  0  0  0  0  0  0  0  0  0  0
    4.1050    0.5669   -0.3442 H   0  0  0  0  0  0  0  0  0  0  0  0
    2.5439   -0.8618    0.0080 C   0  0  1  0  0  0  0  0  0  0  0  0
    3.2379   -1.7308    0.0800 H   0  0  0  0  0  0  0  0  0  0  0  0
    2.2504   -0.3780    1.4616 C   0  0  0  0  0  0  0  0  0  0  0  0
    0.7590   -2.5613    0.0119 C   0  0  0  0  0  0  0  0  0  0  0  0
    1.1212   -2.6053    1.0588 H   0  0  0  0  0  0  0  0  0  0  0  0
    1.1801   -3.4420   -0.5218 H   0  0  0  0  0  0  0  0  0  0  0  0
   -1.0798    1.5150    0.7448 O   0  5  0  0  0  0  0  0  0  0  0  0
   -2.8771    2.4268    1.7097 O   0  0  0  0  0  0  0  0  0  0  0  0
   -1.0228    0.0279   -1.6348 O   0  5  0  0  0  0  0  0  0  0  0  0
   -3.1357   -0.4163   -2.3135 O   0  0  0  0  0  0  0  0  0  0  0  0
   -1.2418   -1.2861    0.5616 N   0  0  0  0  0  0  0  0  0  0  0  0
   -1.2457   -1.3100    1.5925 H   0  0  0  0  0  0  0  0  0  0  0  0
   -2.3217    1.4956    1.1214 C   0  0  0  0  0  0  0  0  0  0  0  0
   -3.1752    0.2302    0.8439 C   0  0  0  0  0  0  0  0  0  0  0  0
   -3.4890   -0.1761    1.8321 H   0  0  0  0  0  0  0  0  0  0  0  0
   -4.1050    0.5669    0.3442 H   0  0  0  0  0  0  0  0  0  0  0  0
   -2.5439   -0.8618   -0.0080 C   0  0  1  0  0  0  0  0  0  0  0  0
   -3.2379   -1.7308   -0.0801 H   0  0  0  0  0  0  0  0  0  0  0  0
   -2.2504   -0.3780   -1.4616 C   0  0  0  0  0  0  0  0  0  0  0  0
   -0.7590   -2.5613   -0.0119 C   0  0  0  0  0  0  0  0  0  0  0  0
   -1.1212   -2.6053   -1.0588 H   0  0  0  0  0  0  0  0  0  0  0  0
   -1.1801   -3.4420    0.5218 H   0  0  0  0  0  0  0  0  0  0  0  0
  2  7  2  0  0  0  0
  5 11  1  0  0  0  0
  5 14  1  0  0  0  0
  6  5  1  0  0  0  0
  7  8  1  0  0  0  0
  7  1  1  0  0  0  0
  8 10  1  0  0  0  0
  8 11  1  0  0  0  0
  9  8  1  0  0  0  0
 11 12  1  1  0  0  0
 11 13  1  0  0  0  0
 13  3  1  0  0  0  0
 13  4  2  0  0  0  0
 14 15  1  0  0  0  0
 16 14  1  0  0  0  0
 17 23  1  0  0  0  0
 19 29  1  0  0  0  0
 20 29  2  0  0  0  0
 21 22  1  0  0  0  0
 23 18  2  0  0  0  0
 24 23  1  0  0  0  0
 24 25  1  0  0  0  0
 26 24  1  0  0  0  0
 27 28  1  6  0  0  0
 27 21  1  0  0  0  0
 27 24  1  0  0  0  0
 29 27  1  0  0  0  0
 30 14  1  0  0  0  0
 30 32  1  0  0  0  0
 30 21  1  0  0  0  0
 31 30  1  0  0  0  0
M  CHG  4   1  -1   3  -1  17  -1  19  -1
M  END
