1,3,5,7,9,10
 OpenBabel05122313063D

 38 37  0  0  0  0  0  0  0  0999 V2000
   -0.0438    1.9240    0.2097 O   0  5  0  0  0  0  0  0  0  0  0  0
   -0.9496    3.5886   -1.0193 O   0  0  0  0  0  0  0  0  0  0  0  0
   -1.3061   -0.0137    1.7142 O   0  5  0  0  0  0  0  0  0  0  0  0
   -3.2060   -0.4816    2.7817 O   0  0  0  0  0  0  0  0  0  0  0  0
    0.0438   -1.9239    0.2109 O   0  5  0  0  0  0  0  0  0  0  0  0
    0.9494   -3.5892   -1.0172 O   0  0  0  0  0  0  0  0  0  0  0  0
    1.3061    0.0148    1.7142 O   0  5  0  0  0  0  0  0  0  0  0  0
    3.2059    0.4834    2.7815 O   0  0  0  0  0  0  0  0  0  0  0  0
   -1.4181    0.0067   -1.0951 N   0  0  0  0  0  0  0  0  0  0  0  0
    1.4182   -0.0074   -1.0951 N   0  0  0  0  0  0  0  0  0  0  0  0
   -0.6826   -0.3342   -2.3373 C   0  0  0  0  0  0  0  0  0  0  0  0
    0.6826    0.3329   -2.3374 C   0  0  0  0  0  0  0  0  0  0  0  0
   -1.9447    1.3925   -1.1193 C   0  0  0  0  0  0  0  0  0  0  0  0
   -0.9032    2.4213   -0.6313 C   0  0  0  0  0  0  0  0  0  0  0  0
   -2.4638   -1.0224   -0.8354 C   0  0  0  0  0  0  0  0  0  0  0  0
   -3.2741   -0.7808    0.4267 C   0  0  0  0  0  0  0  0  0  0  0  0
   -2.5365   -0.4242    1.7463 C   0  0  0  0  0  0  0  0  0  0  0  0
    1.9446   -1.3932   -1.1185 C   0  0  0  0  0  0  0  0  0  0  0  0
    0.9031   -2.4216   -0.6299 C   0  0  0  0  0  0  0  0  0  0  0  0
    2.4639    1.0218   -0.8360 C   0  0  0  0  0  0  0  0  0  0  0  0
    3.2741    0.7809    0.4263 C   0  0  0  0  0  0  0  0  0  0  0  0
    2.5365    0.4254    1.7461 C   0  0  0  0  0  0  0  0  0  0  0  0
   -0.5751   -1.4360   -2.3740 H   0  0  0  0  0  0  0  0  0  0  0  0
   -1.2674   -0.0283   -3.2354 H   0  0  0  0  0  0  0  0  0  0  0  0
    0.5752    1.4346   -2.3747 H   0  0  0  0  0  0  0  0  0  0  0  0
    1.2674    0.0265   -3.2354 H   0  0  0  0  0  0  0  0  0  0  0  0
   -2.3260    1.6681   -2.1265 H   0  0  0  0  0  0  0  0  0  0  0  0
   -2.7890    1.4539   -0.4079 H   0  0  0  0  0  0  0  0  0  0  0  0
   -3.1338   -1.0770   -1.7280 H   0  0  0  0  0  0  0  0  0  0  0  0
   -1.9183   -1.9808   -0.7415 H   0  0  0  0  0  0  0  0  0  0  0  0
   -4.0341    0.0178    0.2826 H   0  0  0  0  0  0  0  0  0  0  0  0
   -3.8639   -1.6948    0.6390 H   0  0  0  0  0  0  0  0  0  0  0  0
    2.7890   -1.4542   -0.4072 H   0  0  0  0  0  0  0  0  0  0  0  0
    2.3258   -1.6694   -2.1256 H   0  0  0  0  0  0  0  0  0  0  0  0
    3.1339    1.0758   -1.7287 H   0  0  0  0  0  0  0  0  0  0  0  0
    1.9185    1.9803   -0.7427 H   0  0  0  0  0  0  0  0  0  0  0  0
    4.0340   -0.0180    0.2826 H   0  0  0  0  0  0  0  0  0  0  0  0
    3.8642    1.6949    0.6379 H   0  0  0  0  0  0  0  0  0  0  0  0
  2 14  2  0  0  0  0
  3 17  1  0  0  0  0
  6 19  2  0  0  0  0
  7 22  1  0  0  0  0
  9 15  1  0  0  0  0
 10 20  1  0  0  0  0
 11  9  1  0  0  0  0
 12 11  1  0  0  0  0
 12 10  1  0  0  0  0
 13  9  1  0  0  0  0
 13 14  1  0  0  0  0
 13 28  1  0  0  0  0
 14  1  1  0  0  0  0
 15 30  1  0  0  0  0
 15 16  1  0  0  0  0
 16 32  1  0  0  0  0
 16 17  1  0  0  0  0
 17  4  2  0  0  0  0
 18 10  1  0  0  0  0
 18 19  1  0  0  0  0
 18 33  1  0  0  0  0
 19  5  1  0  0  0  0
 20 36  1  0  0  0  0
 20 21  1  0  0  0  0
 21 38  1  0  0  0  0
 21 22  1  0  0  0  0
 22  8  2  0  0  0  0
 23 11  1  0  0  0  0
 24 11  1  0  0  0  0
 25 12  1  0  0  0  0
 26 12  1  0  0  0  0
 27 13  1  0  0  0  0
 29 15  1  0  0  0  0
 31 16  1  0  0  0  0
 34 18  1  0  0  0  0
 35 20  1  0  0  0  0
 37 21  1  0  0  0  0
M  CHG  4   1  -1   3  -1   5  -1   7  -1
M  END
