1,3,5,7,9,10
 OpenBabel05122313063D

 44 43  0  0  0  0  0  0  0  0999 V2000
   -0.3891   -1.8905    0.1875 O   0  5  0  0  0  0  0  0  0  0  0  0
   -1.6695   -3.7222    0.1537 O   0  0  0  0  0  0  0  0  0  0  0  0
   -1.2589    0.3354    1.5935 O   0  5  0  0  0  0  0  0  0  0  0  0
   -2.8270    1.4827    2.6843 O   0  0  0  0  0  0  0  0  0  0  0  0
    0.3892    1.8906    0.1877 O   0  5  0  0  0  0  0  0  0  0  0  0
    1.6695    3.7222    0.1542 O   0  0  0  0  0  0  0  0  0  0  0  0
    1.2589   -0.3356    1.5935 O   0  5  0  0  0  0  0  0  0  0  0  0
    2.8266   -1.4835    2.6843 O   0  0  0  0  0  0  0  0  0  0  0  0
   -1.3966    0.3779   -1.2524 N   0  0  0  0  0  0  0  0  0  0  0  0
    1.3967   -0.3777   -1.2524 N   0  0  0  0  0  0  0  0  0  0  0  0
   -1.5398   -2.4991    0.0710 C   0  0  0  0  0  0  0  0  0  0  0  0
   -2.7258   -1.5958   -0.2753 C   0  0  0  0  0  0  0  0  0  0  0  0
   -2.3986   -0.7149   -1.4776 C   0  0  0  0  0  0  0  0  0  0  0  0
   -0.5408    0.5340   -2.4552 C   0  0  0  0  0  0  0  0  0  0  0  0
    0.5410   -0.5336   -2.4553 C   0  0  0  0  0  0  0  0  0  0  0  0
   -2.2672    1.1582    1.6337 C   0  0  0  0  0  0  0  0  0  0  0  0
   -2.9167    1.6497    0.3134 C   0  0  0  0  0  0  0  0  0  0  0  0
   -2.0867    1.6673   -0.9582 C   0  0  0  0  0  0  0  0  0  0  0  0
    1.5398    2.4991    0.0715 C   0  0  0  0  0  0  0  0  0  0  0  0
    2.7258    1.5959   -0.2749 C   0  0  0  0  0  0  0  0  0  0  0  0
    2.3987    0.7151   -1.4774 C   0  0  0  0  0  0  0  0  0  0  0  0
    2.2670   -1.1585    1.6337 C   0  0  0  0  0  0  0  0  0  0  0  0
    2.9167   -1.6498    0.3133 C   0  0  0  0  0  0  0  0  0  0  0  0
    2.0868   -1.6671   -0.9583 C   0  0  0  0  0  0  0  0  0  0  0  0
   -3.5848   -2.2455   -0.5341 H   0  0  0  0  0  0  0  0  0  0  0  0
   -2.9965   -0.9960    0.6117 H   0  0  0  0  0  0  0  0  0  0  0  0
   -3.3197   -0.2403   -1.8873 H   0  0  0  0  0  0  0  0  0  0  0  0
   -2.0079   -1.3719   -2.2817 H   0  0  0  0  0  0  0  0  0  0  0  0
   -1.1498    0.4887   -3.3887 H   0  0  0  0  0  0  0  0  0  0  0  0
   -0.0844    1.5418   -2.4046 H   0  0  0  0  0  0  0  0  0  0  0  0
    1.1500   -0.4881   -3.3888 H   0  0  0  0  0  0  0  0  0  0  0  0
    0.0846   -1.5414   -2.4049 H   0  0  0  0  0  0  0  0  0  0  0  0
   -3.8369    1.0372    0.1881 H   0  0  0  0  0  0  0  0  0  0  0  0
   -3.2772    2.6792    0.5068 H   0  0  0  0  0  0  0  0  0  0  0  0
   -1.2898    2.4247   -0.8502 H   0  0  0  0  0  0  0  0  0  0  0  0
   -2.7261    1.9223   -1.8393 H   0  0  0  0  0  0  0  0  0  0  0  0
    3.5849    2.2456   -0.5337 H   0  0  0  0  0  0  0  0  0  0  0  0
    2.9965    0.9960    0.6119 H   0  0  0  0  0  0  0  0  0  0  0  0
    3.3198    0.2407   -1.8871 H   0  0  0  0  0  0  0  0  0  0  0  0
    2.0081    1.3722   -2.2814 H   0  0  0  0  0  0  0  0  0  0  0  0
    3.8368   -1.0373    0.1882 H   0  0  0  0  0  0  0  0  0  0  0  0
    3.2771   -2.6794    0.5065 H   0  0  0  0  0  0  0  0  0  0  0  0
    1.2899   -2.4245   -0.8506 H   0  0  0  0  0  0  0  0  0  0  0  0
    2.7262   -1.9220   -1.8395 H   0  0  0  0  0  0  0  0  0  0  0  0
  3 16  1  0  0  0  0
  7 22  1  0  0  0  0
  9 18  1  0  0  0  0
 10 24  1  0  0  0  0
 11  2  2  0  0  0  0
 11  1  1  0  0  0  0
 12 11  1  0  0  0  0
 12 26  1  0  0  0  0
 13  9  1  0  0  0  0
 13 12  1  0  0  0  0
 14 30  1  0  0  0  0
 14  9  1  0  0  0  0
 15 14  1  0  0  0  0
 15 32  1  0  0  0  0
 15 10  1  0  0  0  0
 16  4  2  0  0  0  0
 17 34  1  0  0  0  0
 17 16  1  0  0  0  0
 18 35  1  0  0  0  0
 18 17  1  0  0  0  0
 19  6  2  0  0  0  0
 19  5  1  0  0  0  0
 20 19  1  0  0  0  0
 20 38  1  0  0  0  0
 21 10  1  0  0  0  0
 21 20  1  0  0  0  0
 22  8  2  0  0  0  0
 23 42  1  0  0  0  0
 23 22  1  0  0  0  0
 24 43  1  0  0  0  0
 24 23  1  0  0  0  0
 25 12  1  0  0  0  0
 27 13  1  0  0  0  0
 28 13  1  0  0  0  0
 29 14  1  0  0  0  0
 31 15  1  0  0  0  0
 33 17  1  0  0  0  0
 36 18  1  0  0  0  0
 37 20  1  0  0  0  0
 39 21  1  0  0  0  0
 40 21  1  0  0  0  0
 41 23  1  0  0  0  0
 44 24  1  0  0  0  0
M  CHG  4   1  -1   3  -1   5  -1   7  -1
M  END
