1,3,9,39,41,47
 OpenBabel05122313063D

 76 77  0  0  1  0  0  0  0  0999 V2000
    0.1549    1.7465   -1.6057 O   0  5  0  0  0  0  0  0  0  0  0  0
    1.2514    3.7157   -1.3774 O   0  0  0  0  0  0  0  0  0  0  0  0
   -2.1460    0.1971   -0.3834 O   0  0  0  0  0  1  0  0  0  0  0  0
   -5.0950    3.7476   -1.2576 O   0  0  0  0  0  0  0  0  0  0  0  0
   -5.8735    2.3072   -2.8220 O   0  0  0  0  0  0  0  0  0  0  0  0
   -6.2523    3.1488   -3.1594 H   0  0  0  0  0  0  0  0  0  0  0  0
   -3.5983   -4.1023    2.1941 O   0  0  0  0  0  0  0  0  0  0  0  0
   -3.7047   -4.0077    3.1588 H   0  0  0  0  0  0  0  0  0  0  0  0
   -0.1462    1.4742    1.1169 N   0  0  0  0  0  0  0  0  0  0  0  0
   -3.6481    1.8603   -0.0395 N   0  0  0  0  0  0  0  0  0  0  0  0
   -3.8141    2.8209    0.2834 H   0  0  0  0  0  0  0  0  0  0  0  0
    0.2828    0.7135    2.2927 C   0  0  0  0  0  0  0  0  0  0  0  0
   -0.0004    1.2182    3.2492 H   0  0  0  0  0  0  0  0  0  0  0  0
    1.3911    0.6750    2.2739 H   0  0  0  0  0  0  0  0  0  0  0  0
    0.8079    2.4724    0.6106 C   0  0  0  0  0  0  0  0  0  0  0  0
    1.8279    2.0879    0.7991 H   0  0  0  0  0  0  0  0  0  0  0  0
    0.7249    3.4559    1.1253 H   0  0  0  0  0  0  0  0  0  0  0  0
    0.7308    2.6941   -0.9285 C   0  0  0  0  0  0  0  0  0  0  0  0
   -1.5189    1.9624    1.1667 C   0  0  0  0  0  0  0  0  0  0  0  0
   -1.5457    3.0587    0.9836 H   0  0  0  0  0  0  0  0  0  0  0  0
   -1.9612    1.8048    2.1771 H   0  0  0  0  0  0  0  0  0  0  0  0
   -2.4527    1.2679    0.1662 C   0  0  1  0  0  3  0  0  0  0  0  0
   -4.5780    1.3875   -1.0493 C   0  0  2  0  0  0  0  0  0  0  0  0
   -4.0006    0.8094   -1.8014 H   0  0  0  0  0  0  0  0  0  0  0  0
   -5.1845    2.6194   -1.7099 C   0  0  0  0  0  0  0  0  0  0  0  0
   -5.7046    0.4736   -0.4843 C   0  0  0  0  0  0  0  0  0  0  0  0
   -6.3354    1.0802    0.1984 H   0  0  0  0  0  0  0  0  0  0  0  0
   -6.3419    0.1801   -1.3434 H   0  0  0  0  0  0  0  0  0  0  0  0
   -5.1836   -0.7445    0.2385 C   0  0  0  0  0  0  0  0  0  0  0  0
   -4.6175   -1.8261   -0.4719 C   0  0  0  0  0  0  0  0  0  0  0  0
   -4.5543   -1.7868   -1.5707 H   0  0  0  0  0  0  0  0  0  0  0  0
   -4.0974   -2.9435    0.1835 C   0  0  0  0  0  0  0  0  0  0  0  0
   -3.5935   -3.7458   -0.3760 H   0  0  0  0  0  0  0  0  0  0  0  0
   -4.1360   -3.0038    1.5930 C   0  0  0  0  0  0  0  0  0  0  0  0
   -4.6887   -1.9326    2.3207 C   0  0  0  0  0  0  0  0  0  0  0  0
   -4.7220   -1.9756    3.4225 H   0  0  0  0  0  0  0  0  0  0  0  0
   -5.2033   -0.8157    1.6424 C   0  0  0  0  0  0  0  0  0  0  0  0
   -5.6360    0.0146    2.2233 H   0  0  0  0  0  0  0  0  0  0  0  0
   -0.1547   -1.7462   -1.6054 O   0  5  0  0  0  0  0  0  0  0  0  0
   -1.2509   -3.7155   -1.3767 O   0  0  0  0  0  0  0  0  0  0  0  0
    2.1462   -0.1966   -0.3832 O   0  0  0  0  0  1  0  0  0  0  0  0
    5.0942   -3.7479   -1.2577 O   0  0  0  0  0  0  0  0  0  0  0  0
    5.8729   -2.3078   -2.8224 O   0  0  0  0  0  0  0  0  0  0  0  0
    6.2514   -3.1495   -3.1597 H   0  0  0  0  0  0  0  0  0  0  0  0
    3.5988    4.1016    2.1948 O   0  0  0  0  0  0  0  0  0  0  0  0
    3.7050    4.0067    3.1594 H   0  0  0  0  0  0  0  0  0  0  0  0
    0.1463   -1.4735    1.1173 N   0  0  0  0  0  0  0  0  0  0  0  0
    3.6479   -1.8603   -0.0396 N   0  0  0  0  0  0  0  0  0  0  0  0
    3.8137   -2.8209    0.2834 H   0  0  0  0  0  0  0  0  0  0  0  0
   -0.2830   -0.7126    2.2928 C   0  0  0  0  0  0  0  0  0  0  0  0
    0.0000   -1.2171    3.2494 H   0  0  0  0  0  0  0  0  0  0  0  0
   -1.3913   -0.6741    2.2738 H   0  0  0  0  0  0  0  0  0  0  0  0
   -0.8077   -2.4719    0.6110 C   0  0  0  0  0  0  0  0  0  0  0  0
   -1.8277   -2.0876    0.7995 H   0  0  0  0  0  0  0  0  0  0  0  0
   -0.7245   -3.4553    1.1259 H   0  0  0  0  0  0  0  0  0  0  0  0
   -0.7306   -2.6938   -0.9280 C   0  0  0  0  0  0  0  0  0  0  0  0
    1.5190   -1.9616    1.1673 C   0  0  0  0  0  0  0  0  0  0  0  0
    1.5459   -3.0580    0.9849 H   0  0  0  0  0  0  0  0  0  0  0  0
    1.9613   -1.8033    2.1776 H   0  0  0  0  0  0  0  0  0  0  0  0
    2.4527   -1.2676    0.1664 C   0  0  1  0  0  3  0  0  0  0  0  0
    4.5777   -1.3877   -1.0496 C   0  0  2  0  0  0  0  0  0  0  0  0
    4.0002   -0.8096   -1.8016 H   0  0  0  0  0  0  0  0  0  0  0  0
    5.1839   -2.6198   -1.7101 C   0  0  0  0  0  0  0  0  0  0  0  0
    5.7044   -0.4738   -0.4848 C   0  0  0  0  0  0  0  0  0  0  0  0
    6.3354   -1.0806    0.1976 H   0  0  0  0  0  0  0  0  0  0  0  0
    6.3415   -0.1803   -1.3441 H   0  0  0  0  0  0  0  0  0  0  0  0
    5.1837    0.7441    0.2383 C   0  0  0  0  0  0  0  0  0  0  0  0
    4.6179    1.8260   -0.4718 C   0  0  0  0  0  0  0  0  0  0  0  0
    4.5547    1.7871   -1.5706 H   0  0  0  0  0  0  0  0  0  0  0  0
    4.0979    2.9433    0.1839 C   0  0  0  0  0  0  0  0  0  0  0  0
    3.5941    3.7459   -0.3755 H   0  0  0  0  0  0  0  0  0  0  0  0
    4.1363    3.0032    1.5933 C   0  0  0  0  0  0  0  0  0  0  0  0
    4.6888    1.9317    2.3208 C   0  0  0  0  0  0  0  0  0  0  0  0
    4.7219    1.9743    3.4226 H   0  0  0  0  0  0  0  0  0  0  0  0
    5.2032    0.8149    1.6422 C   0  0  0  0  0  0  0  0  0  0  0  0
    5.6357   -0.0156    2.2229 H   0  0  0  0  0  0  0  0  0  0  0  0
  1 18  1  0  0  0  0
  2 18  2  0  0  0  0
  5 25  1  0  0  0  0
  6  5  1  0  0  0  0
  7  8  1  0  0  0  0
  9 19  1  0  0  0  0
  9 12  1  0  0  0  0
 10 22  1  0  0  0  0
 10 11  1  0  0  0  0
 12 50  1  0  0  0  0
 12 13  1  0  0  0  0
 14 12  1  0  0  0  0
 15 16  1  0  0  0  0
 15  9  1  0  0  0  0
 15 17  1  0  0  0  0
 18 15  1  0  0  0  0
 19 21  1  0  0  0  0
 20 19  1  0  0  0  0
 22  3  1  1  0  0  0
 22 19  1  0  0  0  0
 23 24  1  6  0  0  0
 23 26  1  0  0  0  0
 23 10  1  0  0  0  0
 25  4  2  0  0  0  0
 25 23  1  0  0  0  0
 26 27  1  0  0  0  0
 26 29  1  0  0  0  0
 28 26  1  0  0  0  0
 29 37  1  0  0  0  0
 30 32  1  0  0  0  0
 30 29  2  0  0  0  0
 31 30  1  0  0  0  0
 32 34  2  0  0  0  0
 33 32  1  0  0  0  0
 34  7  1  0  0  0  0
 34 35  1  0  0  0  0
 35 36  1  0  0  0  0
 37 38  1  0  0  0  0
 37 35  2  0  0  0  0
 39 56  1  0  0  0  0
 40 56  2  0  0  0  0
 43 63  1  0  0  0  0
 44 43  1  0  0  0  0
 45 46  1  0  0  0  0
 47 57  1  0  0  0  0
 47 50  1  0  0  0  0
 48 60  1  0  0  0  0
 48 49  1  0  0  0  0
 50 51  1  0  0  0  0
 52 50  1  0  0  0  0
 53 54  1  0  0  0  0
 53 47  1  0  0  0  0
 53 55  1  0  0  0  0
 56 53  1  0  0  0  0
 57 59  1  0  0  0  0
 58 57  1  0  0  0  0
 60 41  1  1  0  0  0
 60 57  1  0  0  0  0
 61 62  1  6  0  0  0
 61 64  1  0  0  0  0
 61 48  1  0  0  0  0
 63 42  2  0  0  0  0
 63 61  1  0  0  0  0
 64 65  1  0  0  0  0
 64 67  1  0  0  0  0
 66 64  1  0  0  0  0
 67 75  1  0  0  0  0
 68 70  1  0  0  0  0
 68 67  2  0  0  0  0
 69 68  1  0  0  0  0
 70 72  2  0  0  0  0
 71 70  1  0  0  0  0
 72 45  1  0  0  0  0
 72 73  1  0  0  0  0
 73 74  1  0  0  0  0
 75 76  1  0  0  0  0
 75 73  2  0  0  0  0
M  CHG  2   1  -1  39  -1
M  END
