1,2,3,4,5,6
 OpenBabel05122313063D

 64 67  0  0  0  0  0  0  0  0999 V2000
    0.4171    1.8451    0.5671 O   0  5  0  0  0  0  0  0  0  0  0  0
   -0.4170   -1.8452    0.5672 O   0  5  0  0  0  0  0  0  0  0  0  0
   -1.5095    0.2659    1.8717 O   0  5  0  0  0  0  0  0  0  0  0  0
    1.5096   -0.2660    1.8717 O   0  5  0  0  0  0  0  0  0  0  0  0
   -1.4313    0.3814   -0.9647 N   0  0  0  0  0  0  0  0  0  0  0  0
    1.4313   -0.3814   -0.9647 N   0  0  0  0  0  0  0  0  0  0  0  0
   -1.8307    1.8163   -1.0963 C   0  0  0  0  0  0  0  0  0  0  0  0
   -0.7243    2.8112   -1.2809 C   0  0  0  0  0  0  0  0  0  0  0  0
    0.3450    2.8078   -0.3418 C   0  0  0  0  0  0  0  0  0  0  0  0
    1.3427    3.8097   -0.4242 C   0  0  0  0  0  0  0  0  0  0  0  0
    1.2848    4.7813   -1.4323 C   0  0  0  0  0  0  0  0  0  0  0  0
    0.2422    4.7726   -2.3748 C   0  0  0  0  0  0  0  0  0  0  0  0
   -0.7563    3.7884   -2.2886 C   0  0  0  0  0  0  0  0  0  0  0  0
    1.8306   -1.8163   -1.0964 C   0  0  0  0  0  0  0  0  0  0  0  0
    0.7242   -2.8112   -1.2810 C   0  0  0  0  0  0  0  0  0  0  0  0
   -0.3450   -2.8077   -0.3418 C   0  0  0  0  0  0  0  0  0  0  0  0
   -1.3428   -3.8097   -0.4242 C   0  0  0  0  0  0  0  0  0  0  0  0
   -1.2849   -4.7813   -1.4323 C   0  0  0  0  0  0  0  0  0  0  0  0
   -0.2423   -4.7725   -2.3748 C   0  0  0  0  0  0  0  0  0  0  0  0
    0.7561   -3.7884   -2.2886 C   0  0  0  0  0  0  0  0  0  0  0  0
   -0.7533   -0.1258   -2.1861 C   0  0  0  0  0  0  0  0  0  0  0  0
    0.7533    0.1258   -2.1861 C   0  0  0  0  0  0  0  0  0  0  0  0
   -2.6815   -0.4048   -0.7313 C   0  0  0  0  0  0  0  0  0  0  0  0
   -3.4684   -0.0216    0.4994 C   0  0  0  0  0  0  0  0  0  0  0  0
   -2.8367    0.2375    1.7529 C   0  0  0  0  0  0  0  0  0  0  0  0
   -3.6346    0.5078    2.8906 C   0  0  0  0  0  0  0  0  0  0  0  0
   -5.0295    0.5192    2.7991 C   0  0  0  0  0  0  0  0  0  0  0  0
   -5.6596    0.2739    1.5670 C   0  0  0  0  0  0  0  0  0  0  0  0
   -4.8743    0.0137    0.4357 C   0  0  0  0  0  0  0  0  0  0  0  0
    2.6815    0.4048   -0.7313 C   0  0  0  0  0  0  0  0  0  0  0  0
    3.4684    0.0216    0.4994 C   0  0  0  0  0  0  0  0  0  0  0  0
    2.8368   -0.2375    1.7529 C   0  0  0  0  0  0  0  0  0  0  0  0
    3.6347   -0.5078    2.8905 C   0  0  0  0  0  0  0  0  0  0  0  0
    5.0296   -0.5192    2.7990 C   0  0  0  0  0  0  0  0  0  0  0  0
    5.6596   -0.2739    1.5669 C   0  0  0  0  0  0  0  0  0  0  0  0
    4.8743   -0.0138    0.4356 C   0  0  0  0  0  0  0  0  0  0  0  0
   -2.3919    2.0580   -0.1687 H   0  0  0  0  0  0  0  0  0  0  0  0
   -2.5559    1.9006   -1.9390 H   0  0  0  0  0  0  0  0  0  0  0  0
    2.1511    3.8003    0.3221 H   0  0  0  0  0  0  0  0  0  0  0  0
    2.0669    5.5544   -1.4850 H   0  0  0  0  0  0  0  0  0  0  0  0
    0.2026    5.5322   -3.1690 H   0  0  0  0  0  0  0  0  0  0  0  0
   -1.5873    3.7811   -3.0130 H   0  0  0  0  0  0  0  0  0  0  0  0
    2.3919   -2.0581   -0.1688 H   0  0  0  0  0  0  0  0  0  0  0  0
    2.5558   -1.9005   -1.9392 H   0  0  0  0  0  0  0  0  0  0  0  0
   -2.1511   -3.8002    0.3222 H   0  0  0  0  0  0  0  0  0  0  0  0
   -2.0670   -5.5544   -1.4849 H   0  0  0  0  0  0  0  0  0  0  0  0
   -0.2028   -5.5322   -3.1691 H   0  0  0  0  0  0  0  0  0  0  0  0
    1.5871   -3.7810   -3.0131 H   0  0  0  0  0  0  0  0  0  0  0  0
   -1.1964    0.3440   -3.0946 H   0  0  0  0  0  0  0  0  0  0  0  0
   -0.9502   -1.2114   -2.2547 H   0  0  0  0  0  0  0  0  0  0  0  0
    1.1963   -0.3440   -3.0946 H   0  0  0  0  0  0  0  0  0  0  0  0
    0.9501    1.2114   -2.2547 H   0  0  0  0  0  0  0  0  0  0  0  0
   -2.3892   -1.4707   -0.6808 H   0  0  0  0  0  0  0  0  0  0  0  0
   -3.3417   -0.2922   -1.6228 H   0  0  0  0  0  0  0  0  0  0  0  0
   -3.1169    0.7080    3.8397 H   0  0  0  0  0  0  0  0  0  0  0  0
   -5.6314    0.7293    3.6965 H   0  0  0  0  0  0  0  0  0  0  0  0
   -6.7563    0.2910    1.4861 H   0  0  0  0  0  0  0  0  0  0  0  0
   -5.3618   -0.1750   -0.5348 H   0  0  0  0  0  0  0  0  0  0  0  0
    2.3893    1.4707   -0.6809 H   0  0  0  0  0  0  0  0  0  0  0  0
    3.3417    0.2920   -1.6228 H   0  0  0  0  0  0  0  0  0  0  0  0
    3.1170   -0.7080    3.8396 H   0  0  0  0  0  0  0  0  0  0  0  0
    5.6315   -0.7293    3.6964 H   0  0  0  0  0  0  0  0  0  0  0  0
    6.7563   -0.2910    1.4859 H   0  0  0  0  0  0  0  0  0  0  0  0
    5.3617    0.1750   -0.5349 H   0  0  0  0  0  0  0  0  0  0  0  0
  5 23  1  0  0  0  0
  6 30  1  0  0  0  0
  7  5  1  0  0  0  0
  7 37  1  0  0  0  0
  8  7  1  0  0  0  0
  8  9  1  0  0  0  0
  9  1  1  0  0  0  0
 10  9  2  0  0  0  0
 10 39  1  0  0  0  0
 11 10  1  0  0  0  0
 12 13  1  0  0  0  0
 12 11  2  0  0  0  0
 13  8  2  0  0  0  0
 14  6  1  0  0  0  0
 14 43  1  0  0  0  0
 15 14  1  0  0  0  0
 15 16  1  0  0  0  0
 16  2  1  0  0  0  0
 17 16  2  0  0  0  0
 17 45  1  0  0  0  0
 18 17  1  0  0  0  0
 19 20  1  0  0  0  0
 19 18  2  0  0  0  0
 20 15  2  0  0  0  0
 21 22  1  0  0  0  0
 21  5  1  0  0  0  0
 22  6  1  0  0  0  0
 23 53  1  0  0  0  0
 23 24  1  0  0  0  0
 24 25  1  0  0  0  0
 25  3  1  0  0  0  0
 25 26  2  0  0  0  0
 26 55  1  0  0  0  0
 27 26  1  0  0  0  0
 27 56  1  0  0  0  0
 28 27  2  0  0  0  0
 29 24  2  0  0  0  0
 29 28  1  0  0  0  0
 30 59  1  0  0  0  0
 30 31  1  0  0  0  0
 31 32  1  0  0  0  0
 32  4  1  0  0  0  0
 32 33  2  0  0  0  0
 33 61  1  0  0  0  0
 34 33  1  0  0  0  0
 34 62  1  0  0  0  0
 35 34  2  0  0  0  0
 36 31  2  0  0  0  0
 36 35  1  0  0  0  0
 38  7  1  0  0  0  0
 40 11  1  0  0  0  0
 41 12  1  0  0  0  0
 42 13  1  0  0  0  0
 44 14  1  0  0  0  0
 46 18  1  0  0  0  0
 47 19  1  0  0  0  0
 48 20  1  0  0  0  0
 49 21  1  0  0  0  0
 50 21  1  0  0  0  0
 51 22  1  0  0  0  0
 52 22  1  0  0  0  0
 54 23  1  0  0  0  0
 57 28  1  0  0  0  0
 58 29  1  0  0  0  0
 60 30  1  0  0  0  0
 63 35  1  0  0  0  0
 64 36  1  0  0  0  0
M  CHG  4   1  -1   2  -1   3  -1   4  -1
M  END
