2,6,7
 OpenBabel05122313063D

 54 58  0  0  0  0  0  0  0  0999 V2000
   -2.6106    0.1369    2.6167 O   0  0  0  0  0  1  0  0  0  0  0  0
   -0.4515    1.2082   -0.8148 N   0  0  0  0  0  2  0  0  0  0  0  0
   -3.6246   -1.0896    0.4864 C   0  0  0  0  0  0  0  0  0  0  0  0
   -4.4616   -1.2786    2.4667 H   0  0  0  0  0  0  0  0  0  0  0  0
   -4.5760   -1.5481    1.4060 C   0  0  0  0  0  0  0  0  0  0  0  0
   -2.2521   -0.0888    1.1682 S   0  0  1  0  0  3  0  0  0  0  0  0
    2.0599   -0.0725   -0.2370 P   0  0  0  0  0  0  0  0  0  0  0  0
   -4.7650   -2.1780   -1.3320 C   0  0  0  0  0  0  0  0  0  0  0  0
   -4.8334   -2.4360   -2.3997 H   0  0  0  0  0  0  0  0  0  0  0  0
   -3.6899   -1.3979   -0.8806 C   0  0  0  0  0  0  0  0  0  0  0  0
   -2.8943   -1.0717   -1.5667 H   0  0  0  0  0  0  0  0  0  0  0  0
   -2.5949    1.4684    0.2547 C   0  0  0  0  0  0  0  0  0  0  0  0
   -3.7468    2.1955    0.5044 C   0  0  0  0  0  0  0  0  0  0  0  0
   -4.4674    1.8206    1.2473 H   0  0  0  0  0  0  0  0  0  0  0  0
   -3.9802    3.4016   -0.2052 C   0  0  0  0  0  0  0  0  0  0  0  0
   -4.8988    3.9749   -0.0112 H   0  0  0  0  0  0  0  0  0  0  0  0
   -3.0638    3.8524   -1.1482 C   0  0  0  0  0  3  0  0  0  0  0  0
   -3.2509    4.7796   -1.7109 H   0  0  0  0  0  0  0  0  0  0  0  0
   -1.8631    3.1294   -1.4015 C   0  0  0  0  0  0  0  0  0  0  0  0
   -0.8712    3.5319   -2.3413 C   0  0  0  0  0  0  0  0  0  0  0  0
   -1.0206    4.4529   -2.9254 H   0  0  0  0  0  0  0  0  0  0  0  0
    0.2658    2.7607   -2.5118 C   0  0  0  0  0  0  0  0  0  0  0  0
    1.0360    3.0425   -3.2434 H   0  0  0  0  0  0  0  0  0  0  0  0
   -6.4015   -2.6994    1.6426 H   0  0  0  0  0  0  0  0  0  0  0  0
   -5.6427   -2.3304    0.9358 C   0  0  0  0  0  0  0  0  0  0  0  0
   -6.5753   -3.2559   -0.7954 H   0  0  0  0  0  0  0  0  0  0  0  0
   -5.7384   -2.6413   -0.4303 C   0  0  0  0  0  0  0  0  0  0  0  0
    0.4569    1.5852   -1.7320 C   0  0  0  0  0  0  0  0  0  0  0  0
   -1.6153    1.9243   -0.6628 C   0  0  0  0  0  0  0  0  0  0  0  0
    2.4875    1.1640   -2.4328 H   0  0  0  0  0  0  0  0  0  0  0  0
    1.2978   -0.2121   -2.4628 H   0  0  0  0  0  0  0  0  0  0  0  0
    1.6454    0.6867   -1.8977 C   0  0  0  0  0  0  0  0  0  0  0  0
    3.0291    1.2074    0.6611 C   0  0  0  0  0  0  0  0  0  0  0  0
    3.8257    2.1570   -0.0105 C   0  0  0  0  0  0  0  0  0  0  0  0
    3.8736    2.1668   -1.1096 H   0  0  0  0  0  0  0  0  0  0  0  0
    5.1846    3.8397    0.1835 H   0  0  0  0  0  0  0  0  0  0  0  0
    4.5720    3.0972    0.7173 C   0  0  0  0  0  0  0  0  0  0  0  0
    5.1227    3.8265    2.6902 H   0  0  0  0  0  0  0  0  0  0  0  0
    4.5373    3.0891    2.1203 C   0  0  0  0  0  0  0  0  0  0  0  0
    3.7136    2.1351    3.8946 H   0  0  0  0  0  0  0  0  0  0  0  0
    3.7492    2.1422    2.7947 C   0  0  0  0  0  0  0  0  0  0  0  0
    2.9928    1.2102    2.0705 C   0  0  0  0  0  0  0  0  0  0  0  0
    2.3492    0.4873    2.5942 H   0  0  0  0  0  0  0  0  0  0  0  0
    3.2856   -1.3930   -0.5943 C   0  0  0  0  0  0  0  0  0  0  0  0
    1.7270   -2.7524   -1.2787 H   0  0  0  0  0  0  0  0  0  0  0  0
    2.8090   -2.6241   -1.0963 C   0  0  0  0  0  0  0  0  0  0  0  0
    5.0880   -3.4851   -1.1260 C   0  0  0  0  0  0  0  0  0  0  0  0
    5.7932   -4.3049   -1.3320 H   0  0  0  0  0  0  0  0  0  0  0  0
    3.7150   -3.6596   -1.3656 C   0  0  0  0  0  0  0  0  0  0  0  0
    3.3396   -4.6167   -1.7586 H   0  0  0  0  0  0  0  0  0  0  0  0
    5.5592   -2.2663   -0.6137 C   0  0  0  0  0  0  0  0  0  0  0  0
    6.6328   -2.1273   -0.4147 H   0  0  0  0  0  0  0  0  0  0  0  0
    4.6633   -1.2201   -0.3459 C   0  0  0  0  0  0  0  0  0  0  0  0
    5.0381   -0.2713    0.0651 H   0  0  0  0  0  0  0  0  0  0  0  0
  2 29  1  0  0  0  0
  3  6  1  0  0  0  0
  3  5  1  0  0  0  0
  5  4  1  0  0  0  0
  6  1  1  1  0  0  0
  7 33  1  0  0  0  0
  8 10  1  0  0  0  0
  8 27  2  0  0  0  0
  9  8  1  0  0  0  0
 10  3  2  0  0  0  0
 11 10  1  0  0  0  0
 12 13  1  0  0  0  0
 12  6  1  0  0  0  0
 13 14  1  0  0  0  0
 15 16  1  0  0  0  0
 15 13  2  0  0  0  0
 17 15  1  0  0  0  0
 18 17  1  0  0  0  0
 19 17  1  0  0  0  0
 19 29  1  0  0  0  0
 20 19  2  0  0  0  0
 21 20  1  0  0  0  0
 22 20  1  0  0  0  0
 22 28  2  0  0  0  0
 23 22  1  0  0  0  0
 25  5  2  0  0  0  0
 25 24  1  0  0  0  0
 26 27  1  0  0  0  0
 27 25  1  0  0  0  0
 28  2  1  0  0  0  0
 29 12  2  0  0  0  0
 30 32  1  0  0  0  0
 31 32  1  0  0  0  0
 32 28  1  0  0  0  0
 32  7  1  0  0  0  0
 33 42  1  0  0  0  0
 34 33  2  0  0  0  0
 34 37  1  0  0  0  0
 35 34  1  0  0  0  0
 36 37  1  0  0  0  0
 37 39  2  0  0  0  0
 39 38  1  0  0  0  0
 39 41  1  0  0  0  0
 41 40  1  0  0  0  0
 42 43  1  0  0  0  0
 42 41  2  0  0  0  0
 44 53  1  0  0  0  0
 44  7  1  0  0  0  0
 45 46  1  0  0  0  0
 46 44  2  0  0  0  0
 47 51  1  0  0  0  0
 48 47  1  0  0  0  0
 49 47  2  0  0  0  0
 49 46  1  0  0  0  0
 50 49  1  0  0  0  0
 51 52  1  0  0  0  0
 51 53  2  0  0  0  0
 53 54  1  0  0  0  0
M  END
