1,2,3,4
 OpenBabel05122313063D

 37 36  0  0  0  0  0  0  0  0999 V2000
    1.5830    1.2551   -0.6060 S   0  0  0  0  0  0  0  0  0  0  0  0
   -1.6200    1.0926   -0.7067 S   0  0  0  0  0  0  0  0  0  0  0  0
    1.6319   -1.8785   -0.4161 Se  0  0  0  0  0  1  0  0  0  0  0  0
   -1.3633   -1.8980    0.4207 Se  0  0  0  0  0  1  0  0  0  0  0  0
    3.2867   -0.7601   -0.2784 C   0  0  0  0  0  0  0  0  0  0  0  0
    4.0316   -1.3359    0.3083 H   0  0  0  0  0  0  0  0  0  0  0  0
    3.6937   -0.6053   -1.2984 H   0  0  0  0  0  0  0  0  0  0  0  0
    3.0476    0.5907    0.4011 C   0  0  0  0  0  0  0  0  0  0  0  0
    4.2356    1.5380    0.2091 C   0  0  0  0  0  0  0  0  0  0  0  0
    5.1338    1.1047    0.6959 H   0  0  0  0  0  0  0  0  0  0  0  0
    4.0568    2.5279    0.6765 H   0  0  0  0  0  0  0  0  0  0  0  0
    4.4637    1.6878   -0.8647 H   0  0  0  0  0  0  0  0  0  0  0  0
    2.6717    0.4293    1.8727 C   0  0  0  0  0  0  0  0  0  0  0  0
    1.7871   -0.2306    1.9732 H   0  0  0  0  0  0  0  0  0  0  0  0
    2.4701    1.4015    2.3648 H   0  0  0  0  0  0  0  0  0  0  0  0
    3.5207   -0.0420    2.4110 H   0  0  0  0  0  0  0  0  0  0  0  0
    1.1436    2.8106    0.2734 C   0  0  0  0  0  0  0  0  0  0  0  0
    1.0413    2.6000    1.3572 H   0  0  0  0  0  0  0  0  0  0  0  0
    1.9913    3.5105    0.1300 H   0  0  0  0  0  0  0  0  0  0  0  0
   -0.1457    3.4253   -0.2787 C   0  0  0  0  0  0  0  0  0  0  0  0
   -0.2057    4.4677    0.1012 H   0  0  0  0  0  0  0  0  0  0  0  0
   -0.0909    3.5047   -1.3862 H   0  0  0  0  0  0  0  0  0  0  0  0
   -1.4341    2.7149    0.1414 C   0  0  0  0  0  0  0  0  0  0  0  0
   -2.3173    3.3273   -0.1328 H   0  0  0  0  0  0  0  0  0  0  0  0
   -1.4455    2.5522    1.2372 H   0  0  0  0  0  0  0  0  0  0  0  0
   -3.2004    0.3746    0.0752 C   0  0  0  0  0  0  0  0  0  0  0  0
   -4.3947    1.0102   -0.6440 C   0  0  0  0  0  0  0  0  0  0  0  0
   -5.3386    0.5739   -0.2556 H   0  0  0  0  0  0  0  0  0  0  0  0
   -4.3513    0.8286   -1.7358 H   0  0  0  0  0  0  0  0  0  0  0  0
   -4.4437    2.1054   -0.4728 H   0  0  0  0  0  0  0  0  0  0  0  0
   -3.2425    0.6219    1.5812 C   0  0  0  0  0  0  0  0  0  0  0  0
   -3.3778    1.6929    1.8283 H   0  0  0  0  0  0  0  0  0  0  0  0
   -2.3261    0.2278    2.0636 H   0  0  0  0  0  0  0  0  0  0  0  0
   -4.1098    0.0747    2.0068 H   0  0  0  0  0  0  0  0  0  0  0  0
   -3.0622   -1.1141   -0.2579 C   0  0  0  0  0  0  0  0  0  0  0  0
   -3.1257   -1.2697   -1.3545 H   0  0  0  0  0  0  0  0  0  0  0  0
   -3.8947   -1.6770    0.2139 H   0  0  0  0  0  0  0  0  0  0  0  0
  1 17  1  0  0  0  0
  1  8  1  0  0  0  0
  2 26  1  0  0  0  0
  2 23  1  0  0  0  0
  3  5  1  0  0  0  0
  5  6  1  0  0  0  0
  5  8  1  0  0  0  0
  7  5  1  0  0  0  0
  8 13  1  0  0  0  0
  9  8  1  0  0  0  0
  9 11  1  0  0  0  0
  9 10  1  0  0  0  0
 12  9  1  0  0  0  0
 13 14  1  0  0  0  0
 13 15  1  0  0  0  0
 13 16  1  0  0  0  0
 17 18  1  0  0  0  0
 19 17  1  0  0  0  0
 20 21  1  0  0  0  0
 20 23  1  0  0  0  0
 20 17  1  0  0  0  0
 22 20  1  0  0  0  0
 23 25  1  0  0  0  0
 24 23  1  0  0  0  0
 26 31  1  0  0  0  0
 27 30  1  0  0  0  0
 27 28  1  0  0  0  0
 27 26  1  0  0  0  0
 29 27  1  0  0  0  0
 31 32  1  0  0  0  0
 31 34  1  0  0  0  0
 31 33  1  0  0  0  0
 35 26  1  0  0  0  0
 35 37  1  0  0  0  0
 35  4  1  0  0  0  0
 36 35  1  0  0  0  0
M  END
