1,2,3
 OpenBabel05122313063D

 53 54  0  0  0  0  0  0  0  0999 V2000
    0.0658    1.1855   -1.8668 S   0  0  0  0  0  0  0  0  0  0  0  0
   -1.5148   -0.2960    0.1344 O   0  5  0  0  0  0  0  0  0  0  0  0
    1.5505   -0.5603    0.0107 O   0  5  0  0  0  0  0  0  0  0  0  0
   -1.9195    0.9771    0.0342 C   0  0  0  0  0  0  0  0  0  0  0  0
   -3.0230    1.4649    0.8036 C   0  0  0  0  0  0  0  0  0  0  0  0
   -3.3813    2.8132    0.6334 C   0  0  0  0  0  0  0  0  0  0  0  0
   -2.7239    3.7007   -0.2460 C   0  0  0  0  0  0  0  0  0  0  0  0
   -1.6538    3.2008   -1.0015 C   0  0  0  0  0  0  0  0  0  0  0  0
   -1.2549    1.8640   -0.8563 C   0  0  0  0  0  0  0  0  0  0  0  0
   -3.7670    0.5456    1.7919 C   0  0  0  0  0  0  0  0  0  0  0  0
   -4.9520    1.2631    2.4636 C   0  0  0  0  0  0  0  0  0  0  0  0
   -4.3227   -0.6952    1.0540 C   0  0  0  0  0  0  0  0  0  0  0  0
   -2.7866    0.1006    2.9022 C   0  0  0  0  0  0  0  0  0  0  0  0
   -3.1701    5.1373   -0.3616 C   0  0  0  0  0  0  0  0  0  0  0  0
    2.1383    0.6374   -0.1219 C   0  0  0  0  0  0  0  0  0  0  0  0
    3.3457    0.9604    0.5778 C   0  0  0  0  0  0  0  0  0  0  0  0
    3.8995    2.2342    0.3632 C   0  0  0  0  0  0  0  0  0  0  0  0
    3.3372    3.2080   -0.4894 C   0  0  0  0  0  0  0  0  0  0  0  0
    2.1518    2.8787   -1.1607 C   0  0  0  0  0  0  0  0  0  0  0  0
    1.5599    1.6214   -0.9707 C   0  0  0  0  0  0  0  0  0  0  0  0
    3.9807   -0.0369    1.5656 C   0  0  0  0  0  0  0  0  0  0  0  0
    2.9914   -0.2641    2.7327 C   0  0  0  0  0  0  0  0  0  0  0  0
    4.2924   -1.3751    0.8567 C   0  0  0  0  0  0  0  0  0  0  0  0
    5.2981    0.4937    2.1599 C   0  0  0  0  0  0  0  0  0  0  0  0
    4.0006    4.5515   -0.6655 C   0  0  0  0  0  0  0  0  0  0  0  0
   -4.2253    3.2109    1.2143 H   0  0  0  0  0  0  0  0  0  0  0  0
   -1.1205    3.8485   -1.7140 H   0  0  0  0  0  0  0  0  0  0  0  0
   -5.7065    1.6014    1.7246 H   0  0  0  0  0  0  0  0  0  0  0  0
   -5.4569    0.5634    3.1596 H   0  0  0  0  0  0  0  0  0  0  0  0
   -4.6275    2.1420    3.0566 H   0  0  0  0  0  0  0  0  0  0  0  0
   -3.5068   -1.2989    0.6180 H   0  0  0  0  0  0  0  0  0  0  0  0
   -4.8897   -1.3344    1.7623 H   0  0  0  0  0  0  0  0  0  0  0  0
   -5.0119   -0.3935    0.2390 H   0  0  0  0  0  0  0  0  0  0  0  0
   -2.4075    0.9771    3.4658 H   0  0  0  0  0  0  0  0  0  0  0  0
   -3.2993   -0.5741    3.6194 H   0  0  0  0  0  0  0  0  0  0  0  0
   -1.9231   -0.4400    2.4753 H   0  0  0  0  0  0  0  0  0  0  0  0
   -2.6063    5.6769   -1.1472 H   0  0  0  0  0  0  0  0  0  0  0  0
   -4.2498    5.2103   -0.6089 H   0  0  0  0  0  0  0  0  0  0  0  0
   -3.0226    5.6856    0.5930 H   0  0  0  0  0  0  0  0  0  0  0  0
    4.8278    2.4986    0.8887 H   0  0  0  0  0  0  0  0  0  0  0  0
    1.6761    3.5997   -1.8431 H   0  0  0  0  0  0  0  0  0  0  0  0
    2.0198   -0.6376    2.3628 H   0  0  0  0  0  0  0  0  0  0  0  0
    3.3997   -1.0069    3.4492 H   0  0  0  0  0  0  0  0  0  0  0  0
    2.8132    0.6828    3.2813 H   0  0  0  0  0  0  0  0  0  0  0  0
    5.0119   -1.2202    0.0267 H   0  0  0  0  0  0  0  0  0  0  0  0
    4.7485   -2.0883    1.5744 H   0  0  0  0  0  0  0  0  0  0  0  0
    3.3771   -1.8320    0.4409 H   0  0  0  0  0  0  0  0  0  0  0  0
    5.1519    1.4303    2.7349 H   0  0  0  0  0  0  0  0  0  0  0  0
    5.7140   -0.2605    2.8579 H   0  0  0  0  0  0  0  0  0  0  0  0
    6.0612    0.6812    1.3774 H   0  0  0  0  0  0  0  0  0  0  0  0
    3.4432    5.1904   -1.3777 H   0  0  0  0  0  0  0  0  0  0  0  0
    4.0676    5.1007    0.2973 H   0  0  0  0  0  0  0  0  0  0  0  0
    5.0381    4.4470   -1.0469 H   0  0  0  0  0  0  0  0  0  0  0  0
  1 20  1  0  0  0  0
  1  9  1  0  0  0  0
  4  2  1  0  0  0  0
  4  5  1  0  0  0  0
  5 10  1  0  0  0  0
  6  5  2  0  0  0  0
  6 26  1  0  0  0  0
  7  6  1  0  0  0  0
  8  9  1  0  0  0  0
  8  7  2  0  0  0  0
  9  4  2  0  0  0  0
 10 11  1  0  0  0  0
 10 13  1  0  0  0  0
 11 30  1  0  0  0  0
 11 29  1  0  0  0  0
 12 32  1  0  0  0  0
 12 10  1  0  0  0  0
 13 34  1  0  0  0  0
 13 35  1  0  0  0  0
 14  7  1  0  0  0  0
 14 39  1  0  0  0  0
 15  3  1  0  0  0  0
 15 16  1  0  0  0  0
 16 21  1  0  0  0  0
 17 16  2  0  0  0  0
 17 40  1  0  0  0  0
 18 17  1  0  0  0  0
 19 20  1  0  0  0  0
 19 18  2  0  0  0  0
 20 15  2  0  0  0  0
 21 24  1  0  0  0  0
 21 22  1  0  0  0  0
 22 44  1  0  0  0  0
 22 43  1  0  0  0  0
 23 21  1  0  0  0  0
 23 46  1  0  0  0  0
 24 48  1  0  0  0  0
 24 49  1  0  0  0  0
 25 18  1  0  0  0  0
 25 52  1  0  0  0  0
 27  8  1  0  0  0  0
 28 11  1  0  0  0  0
 31 12  1  0  0  0  0
 33 12  1  0  0  0  0
 36 13  1  0  0  0  0
 37 14  1  0  0  0  0
 38 14  1  0  0  0  0
 41 19  1  0  0  0  0
 42 22  1  0  0  0  0
 45 23  1  0  0  0  0
 47 23  1  0  0  0  0
 50 24  1  0  0  0  0
 51 25  1  0  0  0  0
 53 25  1  0  0  0  0
M  CHG  2   2  -1   3  -1
M  END
