1,2,3
 OpenBabel05122313063D

 15 14  0  0  0  0  0  0  0  0999 V2000
   -1.6531    1.4652   -0.2549 S   0  0  0  0  0  0  0  0  0  0  0  0
   -1.8293   -1.5473   -0.5152 O   0  0  0  0  0  1  0  0  0  0  0  0
   -0.5700   -0.3335    1.6958 O   0  0  0  0  0  1  0  0  0  0  0  0
   -3.0610   -0.9260   -0.2437 C   0  0  0  0  0  0  0  0  0  0  0  0
   -3.1594    0.5076   -0.7631 C   0  0  0  0  0  0  0  0  0  0  0  0
   -1.8984    1.6444    1.5618 C   0  0  0  0  0  0  0  0  0  0  0  0
   -0.7309    0.9272    2.2573 C   0  0  0  0  0  0  0  0  0  0  0  0
   -3.2557   -0.9331    0.8595 H   0  0  0  0  0  0  0  0  0  0  0  0
   -3.8761   -1.5243   -0.7143 H   0  0  0  0  0  0  0  0  0  0  0  0
   -4.0664    1.0431   -0.4175 H   0  0  0  0  0  0  0  0  0  0  0  0
   -3.1197    0.5419   -1.8709 H   0  0  0  0  0  0  0  0  0  0  0  0
   -1.9531    2.7240    1.8055 H   0  0  0  0  0  0  0  0  0  0  0  0
   -2.8665    1.1674    1.8132 H   0  0  0  0  0  0  0  0  0  0  0  0
    0.1928    1.5479    2.1354 H   0  0  0  0  0  0  0  0  0  0  0  0
   -0.9460    0.8500    3.3486 H   0  0  0  0  0  0  0  0  0  0  0  0
  1  6  1  0  0  0  0
  2  4  1  0  0  0  0
  3  7  1  0  0  0  0
  4  8  1  0  0  0  0
  5 10  1  0  0  0  0
  5  1  1  0  0  0  0
  5  4  1  0  0  0  0
  6 12  1  0  0  0  0
  6 13  1  0  0  0  0
  6  7  1  0  0  0  0
  7 15  1  0  0  0  0
  9  4  1  0  0  0  0
 11  5  1  0  0  0  0
 14  7  1  0  0  0  0
M  END
