1,26
 OpenBabel05122313063D

 28 29  0  0  0  0  0  0  0  0999 V2000
   -1.0912   -1.2797   -1.1202 S   0  0  0  0  0  0  0  0  0  0  0  0
   -2.7711   -1.1976   -0.4859 C   0  0  0  0  0  0  0  0  0  0  0  0
   -0.4811   -3.0015   -0.7065 C   0  0  0  0  0  0  0  0  0  0  0  0
   -0.8621   -3.2543    0.2997 H   0  0  0  0  0  0  0  0  0  0  0  0
   -0.9246   -3.6717   -1.4683 H   0  0  0  0  0  0  0  0  0  0  0  0
   -3.7783   -0.9964   -1.4471 C   0  0  0  0  0  0  0  0  0  0  0  0
   -3.5087   -0.9568   -2.5130 H   0  0  0  0  0  0  0  0  0  0  0  0
    3.8126   -2.5786   -0.8906 C   0  0  0  0  0  0  0  0  0  0  0  0
    4.9009   -2.4247   -0.9408 H   0  0  0  0  0  0  0  0  0  0  0  0
   -3.0674   -1.2529    0.8945 C   0  0  0  0  0  0  0  0  0  0  0  0
   -4.4163   -1.1193    1.2750 C   0  0  0  0  0  0  0  0  0  0  0  0
   -4.6416   -1.2105    2.3479 H   0  0  0  0  0  0  0  0  0  0  0  0
    1.6998   -3.0670   -1.9905 C   0  0  0  0  0  0  0  0  0  0  0  0
    1.1320   -3.2975   -2.9062 H   0  0  0  0  0  0  0  0  0  0  0  0
    1.0204   -2.9454   -0.7623 C   0  0  0  0  0  0  0  0  0  0  0  0
   -5.4249   -0.8906    0.3291 C   0  0  0  0  0  0  0  0  0  0  0  0
   -6.4674   -0.7679    0.6599 H   0  0  0  0  0  0  0  0  0  0  0  0
    3.0905   -2.8881   -2.0538 C   0  0  0  0  0  0  0  0  0  0  0  0
    3.6114   -2.9879   -3.0182 H   0  0  0  0  0  0  0  0  0  0  0  0
    1.7549   -2.6409    0.4056 C   0  0  0  0  0  0  0  0  0  0  0  0
    1.2237   -2.5331    1.3643 H   0  0  0  0  0  0  0  0  0  0  0  0
    3.1436   -2.4612    0.3388 C   0  0  0  0  0  0  0  0  0  0  0  0
    3.7045   -2.2140    1.2522 H   0  0  0  0  0  0  0  0  0  0  0  0
   -5.1084   -0.8312   -1.0372 C   0  0  0  0  0  0  0  0  0  0  0  0
   -5.8949   -0.6603   -1.7875 H   0  0  0  0  0  0  0  0  0  0  0  0
   -0.8165   -1.1845    1.8856 O   0  5  0  0  0  0  0  0  0  0  0  0
   -2.4881   -2.1248    3.0176 O   0  0  0  0  0  0  0  0  0  0  0  0
   -2.0691   -1.5425    2.0185 C   0  0  0  0  0  0  0  0  0  0  0  0
  1  3  1  0  0  0  0
  1  2  1  0  0  0  0
  2 10  1  0  0  0  0
  3  4  1  0  0  0  0
  5  3  1  0  0  0  0
  6 24  1  0  0  0  0
  6  2  2  0  0  0  0
  7  6  1  0  0  0  0
  8 22  1  0  0  0  0
  9  8  1  0  0  0  0
 10 11  2  0  0  0  0
 10 28  1  0  0  0  0
 11 12  1  0  0  0  0
 13 15  2  0  0  0  0
 14 13  1  0  0  0  0
 15  3  1  0  0  0  0
 15 20  1  0  0  0  0
 16 17  1  0  0  0  0
 16 11  1  0  0  0  0
 18 13  1  0  0  0  0
 18  8  2  0  0  0  0
 19 18  1  0  0  0  0
 20 21  1  0  0  0  0
 22 20  2  0  0  0  0
 22 23  1  0  0  0  0
 24 16  2  0  0  0  0
 25 24  1  0  0  0  0
 26 28  1  0  0  0  0
 28 27  2  0  0  0  0
M  CHG  1  26  -1
M  END
