1,2
 OpenBabel05122313063D

 15 15  0  0  0  0  0  0  0  0999 V2000
   -1.5810    1.4269   -0.0004 S   0  0  0  0  0  1  0  0  0  0  0  0
   -1.2943   -1.4000    0.0001 O   0  0  0  0  0  1  0  0  0  0  0  0
   -2.5691   -1.0384    0.0001 N   0  0  0  0  0  0  0  0  0  0  0  0
   -3.5164   -2.0240    0.0003 C   0  0  0  0  0  3  0  0  0  0  0  0
   -3.1033   -3.0407    0.0004 H   0  0  0  0  0  0  0  0  0  0  0  0
   -4.8625   -1.6944    0.0003 C   0  0  0  0  0  0  0  0  0  0  0  0
   -5.6089   -2.4999    0.0004 H   0  0  0  0  0  0  0  0  0  0  0  0
   -5.2423   -0.3360    0.0001 C   0  0  0  0  0  0  0  0  0  0  0  0
   -6.3071   -0.0589    0.0001 H   0  0  0  0  0  0  0  0  0  0  0  0
   -4.2725    0.6720   -0.0001 C   0  0  0  0  0  0  0  0  0  0  0  0
   -2.8982    0.3020   -0.0001 C   0  0  0  0  0  0  0  0  0  0  0  0
   -4.6180    2.1322   -0.0003 C   0  0  0  0  0  0  0  0  0  0  0  0
   -5.7131    2.2883   -0.0001 H   0  0  0  0  0  0  0  0  0  0  0  0
   -4.1821    2.6395   -0.8870 H   0  0  0  0  0  0  0  0  0  0  0  0
   -4.1818    2.6398    0.8861 H   0  0  0  0  0  0  0  0  0  0  0  0
  1 11  1  0  0  0  0
  3  2  1  0  0  0  0
  3  4  1  0  0  0  0
  4  6  1  0  0  0  0
  4  5  1  0  0  0  0
  6  7  1  0  0  0  0
  8  9  1  0  0  0  0
  8  6  2  0  0  0  0
 10  8  1  0  0  0  0
 11 10  2  0  0  0  0
 11  3  1  0  0  0  0
 12 13  1  0  0  0  0
 12 10  1  0  0  0  0
 12 15  1  0  0  0  0
 14 12  1  0  0  0  0
M  END
