1,9
 OpenBabel05122313063D

 10 11  0  0  1  0  0  0  0  0999 V2000
    1.6742   -1.7898   -0.0012 S   0  0  0  0  0  0  0  0  0  0  0  0
    3.2069   -0.9613    0.0002 C   0  0  0  0  0  0  0  0  0  0  0  0
    3.5114    0.4406    0.0002 C   0  0  2  0  0  0  0  0  0  0  0  0
    4.3952   -1.7524    0.0010 C   0  0  0  0  0  0  0  0  0  0  0  0
    4.9161    0.5304    0.0007 C   0  0  2  0  0  0  0  0  0  0  0  0
    2.6985    1.6677   -0.0001 C   0  0  0  0  0  0  0  0  0  0  0  0
    5.4817   -1.0473    0.0014 C   0  0  1  0  0  0  0  0  0  0  0  0
    6.1794    0.1417    0.0027 C   0  0  0  0  0  0  0  0  0  0  0  0
    1.3742    1.6481   -0.0001 O   0  5  0  0  0  0  0  0  0  0  0  0
    3.2264    2.7817   -0.0003 O   0  0  0  0  0  0  0  0  0  0  0  0
  1  2  1  0  0  0  0
  2  4  2  0  0  0  0
  3  6  1  1  0  0  0
  3  2  1  0  0  0  0
  3  5  1  0  0  0  0
  5  7  1  0  0  0  0
  5  8  1  1  0  0  0
  6  9  1  0  0  0  0
  7  4  1  1  0  0  0
  7  8  1  0  0  0  0
 10  6  2  0  0  0  0
M  CHG  1   9  -1
M  END
