1,2
 OpenBabel05122313063D

 15 15  0  0  1  0  0  0  0  0999 V2000
   -1.8181    0.2921   -1.5895 S   0  0  0  0  0  1  0  0  0  0  0  0
   -1.0444   -1.1436    0.8014 O   0  0  0  0  0  1  0  0  0  0  0  0
   -2.2696   -1.4411    0.4031 N   0  0  0  0  0  0  0  0  0  0  0  0
   -4.1452   -1.1355   -1.0557 C   0  0  0  0  0  0  0  0  0  0  0  0
   -4.5741   -0.6319   -1.9331 H   0  0  0  0  0  0  0  0  0  0  0  0
   -4.8741   -2.0630   -0.3148 C   0  0  0  0  0  0  0  0  0  0  0  0
   -5.9089   -2.3062   -0.5964 H   0  0  0  0  0  0  0  0  0  0  0  0
   -4.2693   -2.6920    0.7897 C   0  0  0  0  0  0  0  0  0  0  0  0
   -4.8071   -3.4376    1.3909 H   0  0  0  0  0  0  0  0  0  0  0  0
   -2.9566   -2.3804    1.1434 C   0  0  2  0  0  3  0  0  0  0  0  0
   -2.8145   -0.8161   -0.7079 C   0  0  0  0  0  0  0  0  0  0  0  0
   -2.2001   -2.9785    2.2817 C   0  0  0  0  0  0  0  0  0  0  0  0
   -1.8966   -2.1933    3.0043 H   0  0  0  0  0  0  0  0  0  0  0  0
   -1.2539   -3.4270    1.9152 H   0  0  0  0  0  0  0  0  0  0  0  0
   -2.8104   -3.7440    2.7941 H   0  0  0  0  0  0  0  0  0  0  0  0
  1 11  1  0  0  0  0
  3  2  1  0  0  0  0
  3 10  1  0  0  0  0
  4 11  2  0  0  0  0
  4  6  1  0  0  0  0
  5  4  1  0  0  0  0
  6  8  2  0  0  0  0
  7  6  1  0  0  0  0
  8 10  1  0  0  0  0
  8  9  1  0  0  0  0
 10 12  1  1  0  0  0
 11  3  1  0  0  0  0
 12 15  1  0  0  0  0
 12 13  1  0  0  0  0
 14 12  1  0  0  0  0
M  END
