1,3
 OpenBabel05122313063D

  5  4  0  0  0  0  0  0  0  0999 V2000
    0.6729   -1.4406   -1.1330 S   0  0  0  0  0  0  0  0  0  0  0  0
    2.1767   -0.5515    0.1699 S   0  0  0  0  0  0  0  0  0  0  0  0
    1.0418    0.0980    1.1114 O   0  0  0  0  0  0  0  0  0  0  0  0
    2.8344    0.5550   -0.5828 O   0  0  0  0  0  0  0  0  0  0  0  0
    2.9971   -1.5228    0.8921 O   0  0  0  0  0  0  0  0  0  0  0  0
  1  2  1  0  0  0  0
  2  5  1  0  0  0  0
  2  3  1  0  0  0  0
  4  2  1  0  0  0  0
M  END
