2,3
 OpenBabel05122313063D

 25 25  0  0  1  0  0  0  0  0999 V2000
    5.3873    5.3046    0.9514 Cl  0  0  0  0  0  0  0  0  0  0  0  0
    1.5816   -3.0965   -0.0648 S   0  0  0  0  0  1  0  0  0  0  0  0
    1.3759    0.0590   -0.0067 O   0  5  0  0  0  0  0  0  0  0  0  0
    3.4361   -1.0312   -0.3699 N   0  0  0  0  0  0  0  0  0  0  0  0
    4.0654   -3.1631   -0.9608 N   0  0  0  0  0  0  0  0  0  0  0  0
    3.3448    1.3122    0.1687 C   0  0  0  0  0  0  0  0  0  0  0  0
    4.7482    1.4257    0.0956 C   0  0  0  0  0  0  0  0  0  0  0  0
    5.3372    0.5327   -0.1530 H   0  0  0  0  0  0  0  0  0  0  0  0
    5.3829    2.6489    0.3354 C   0  0  0  0  0  0  0  0  0  0  0  0
    6.4765    2.7413    0.2796 H   0  0  0  0  0  0  0  0  0  0  0  0
    4.6043    3.7755    0.6523 C   0  0  0  0  0  0  0  0  0  0  0  0
    3.2036    3.6857    0.7322 C   0  0  0  0  0  0  0  0  0  0  0  0
    2.6146    4.5786    0.9841 H   0  0  0  0  0  0  0  0  0  0  0  0
    2.5832    2.4560    0.4911 C   0  0  0  0  0  0  0  0  0  0  0  0
    1.4900    2.3574    0.5514 H   0  0  0  0  0  0  0  0  0  0  0  0
    2.6497    0.0079   -0.0776 C   0  0  0  0  0  0  0  0  0  0  0  0
    3.0913   -2.3150   -0.4990 C   0  0  1  0  0  3  0  0  0  0  0  0
    3.8268   -4.5844   -1.1450 C   0  0  0  0  0  0  0  0  0  0  0  0
    3.9020   -5.1480   -0.1882 H   0  0  0  0  0  0  0  0  0  0  0  0
    4.5795   -4.9846   -1.8510 H   0  0  0  0  0  0  0  0  0  0  0  0
    2.8123   -4.7527   -1.5567 H   0  0  0  0  0  0  0  0  0  0  0  0
    5.4300   -2.7086   -1.1822 C   0  0  0  0  0  0  0  0  0  0  0  0
    5.7258   -2.8754   -2.2398 H   0  0  0  0  0  0  0  0  0  0  0  0
    6.1356   -3.2666   -0.5292 H   0  0  0  0  0  0  0  0  0  0  0  0
    5.4840   -1.6318   -0.9539 H   0  0  0  0  0  0  0  0  0  0  0  0
  4 16  2  0  0  0  0
  5 17  1  0  0  0  0
  6 14  1  0  0  0  0
  7  6  2  0  0  0  0
  7  9  1  0  0  0  0
  8  7  1  0  0  0  0
  9 11  2  0  0  0  0
 10  9  1  0  0  0  0
 11 12  1  0  0  0  0
 11  1  1  0  0  0  0
 12 13  1  0  0  0  0
 14 15  1  0  0  0  0
 14 12  2  0  0  0  0
 16  3  1  0  0  0  0
 16  6  1  0  0  0  0
 17  4  1  0  0  0  0
 17  2  1  1  0  0  0
 18  5  1  0  0  0  0
 18 19  1  0  0  0  0
 20 18  1  0  0  0  0
 21 18  1  0  0  0  0
 22  5  1  0  0  0  0
 22 25  1  0  0  0  0
 22 24  1  0  0  0  0
 23 22  1  0  0  0  0
M  CHG  1   3  -1
M  END
