1,2
 OpenBabel05122313063D

 26 26  0  0  1  0  0  0  0  0999 V2000
   -1.6043    1.7444    0.0000 S   0  0  0  0  0  1  0  0  0  0  0  0
    0.7212   -0.4651   -0.0003 O   0  5  0  0  0  0  0  0  0  0  0  0
   -0.0557    2.4817   -0.0001 C   0  0  1  0  0  3  0  0  0  0  0  0
   -0.0022    4.2515   -0.0002 S   0  0  0  0  0  0  0  0  0  0  0  0
    6.8997   -1.4021   -0.0001 O   0  0  0  0  0  0  0  0  0  0  0  0
    1.2181    1.8930   -0.0001 C   0  0  0  0  0  0  0  0  0  0  0  0
    2.0585    2.6014   -0.0001 H   0  0  0  0  0  0  0  0  0  0  0  0
    1.5550    0.5193   -0.0001 C   0  0  0  0  0  0  0  0  0  0  0  0
    2.9810    0.0903   -0.0001 C   0  0  0  0  0  0  0  0  0  0  0  0
    4.0708    0.9865    0.0005 C   0  0  0  0  0  0  0  0  0  0  0  0
    3.9036    2.0728    0.0011 H   0  0  0  0  0  0  0  0  0  0  0  0
    5.3946    0.5312    0.0005 C   0  0  0  0  0  0  0  0  0  0  0  0
    6.2125    1.2635    0.0010 H   0  0  0  0  0  0  0  0  0  0  0  0
    5.6583   -0.8558   -0.0001 C   0  0  0  0  0  0  0  0  0  0  0  0
    4.5764   -1.7661   -0.0006 C   0  0  0  0  0  0  0  0  0  0  0  0
    4.8012   -2.8424   -0.0010 H   0  0  0  0  0  0  0  0  0  0  0  0
    3.2662   -1.3001   -0.0006 C   0  0  0  0  0  0  0  0  0  0  0  0
    2.4215   -2.0037   -0.0010 H   0  0  0  0  0  0  0  0  0  0  0  0
    8.0221   -0.5380    0.0005 C   0  0  0  0  0  0  0  0  0  0  0  0
    8.9165   -1.1877    0.0003 H   0  0  0  0  0  0  0  0  0  0  0  0
    8.0449    0.1095    0.9053 H   0  0  0  0  0  0  0  0  0  0  0  0
    8.0452    0.1103   -0.9038 H   0  0  0  0  0  0  0  0  0  0  0  0
   -1.7427    4.7584   -0.0000 C   0  0  0  0  0  0  0  0  0  0  0  0
   -1.7200    5.8651   -0.0001 H   0  0  0  0  0  0  0  0  0  0  0  0
   -2.2664    4.3936    0.9046 H   0  0  0  0  0  0  0  0  0  0  0  0
   -2.2666    4.3935   -0.9045 H   0  0  0  0  0  0  0  0  0  0  0  0
  2  8  1  0  0  0  0
  3  6  1  0  0  0  0
  3  1  1  1  0  0  0
  4  3  1  0  0  0  0
  4 23  1  0  0  0  0
  5 14  1  0  0  0  0
  5 19  1  0  0  0  0
  7  6  1  0  0  0  0
  8  6  2  0  0  0  0
  8  9  1  0  0  0  0
  9 10  1  0  0  0  0
 10 12  2  0  0  0  0
 10 11  1  0  0  0  0
 12 13  1  0  0  0  0
 14 12  1  0  0  0  0
 15 14  2  0  0  0  0
 16 15  1  0  0  0  0
 17 15  1  0  0  0  0
 17  9  2  0  0  0  0
 18 17  1  0  0  0  0
 19 21  1  0  0  0  0
 20 19  1  0  0  0  0
 22 19  1  0  0  0  0
 23 25  1  0  0  0  0
 24 23  1  0  0  0  0
 26 23  1  0  0  0  0
M  CHG  1   2  -1
M  END
