1,2
 OpenBabel05122313063D

 32 33  0  0  1  0  0  0  0  0999 V2000
    0.3673    0.8860   -0.9183 O   0  5  0  0  0  0  0  0  0  0  0  0
    1.1272   -1.9000   -2.4245 S   0  0  0  0  0  1  0  0  0  0  0  0
    2.5344    0.0493   -1.0834 N   0  0  0  0  0  0  0  0  0  0  0  0
    3.2298   -2.1121   -0.7329 N   0  0  0  0  0  0  0  0  0  0  0  0
    2.3535   -1.2510   -1.3159 C   0  0  2  0  0  3  0  0  0  0  0  0
    4.1503   -1.6457    0.3095 C   0  0  0  0  0  0  0  0  0  0  0  0
    4.2183   -0.5457    0.2354 H   0  0  0  0  0  0  0  0  0  0  0  0
    5.1519   -2.0844    0.1032 H   0  0  0  0  0  0  0  0  0  0  0  0
    3.6421   -2.0991    1.6846 C   0  0  0  0  0  0  0  0  0  0  0  0
    2.6646   -1.6046    1.8734 H   0  0  0  0  0  0  0  0  0  0  0  0
    4.3464   -1.7571    2.4714 H   0  0  0  0  0  0  0  0  0  0  0  0
    3.4656   -3.6234    1.7230 C   0  0  0  0  0  0  0  0  0  0  0  0
    3.0243   -3.9383    2.6911 H   0  0  0  0  0  0  0  0  0  0  0  0
    4.4660   -4.1090    1.6593 H   0  0  0  0  0  0  0  0  0  0  0  0
    2.5910   -4.1031    0.5572 C   0  0  0  0  0  0  0  0  0  0  0  0
    1.5492   -3.7430    0.6977 H   0  0  0  0  0  0  0  0  0  0  0  0
    2.5509   -5.2113    0.5185 H   0  0  0  0  0  0  0  0  0  0  0  0
    3.1031   -3.5684   -0.7878 C   0  0  0  0  0  0  0  0  0  0  0  0
    4.1083   -3.9868   -1.0178 H   0  0  0  0  0  0  0  0  0  0  0  0
    2.4169   -3.8253   -1.6149 H   0  0  0  0  0  0  0  0  0  0  0  0
    1.6267    1.0290   -1.0773 C   0  0  0  0  0  0  0  0  0  0  0  0
    2.1503    2.4261   -1.1706 C   0  0  0  0  0  0  0  0  0  0  0  0
    1.2405    3.4990   -1.2763 C   0  0  0  0  0  0  0  0  0  0  0  0
    0.1658    3.2707   -1.3122 H   0  0  0  0  0  0  0  0  0  0  0  0
    1.7079    4.8177   -1.3436 C   0  0  0  0  0  0  0  0  0  0  0  0
    0.9924    5.6496   -1.4290 H   0  0  0  0  0  0  0  0  0  0  0  0
    3.0883    5.0779   -1.3061 C   0  0  0  0  0  0  0  0  0  0  0  0
    3.4553    6.1146   -1.3555 H   0  0  0  0  0  0  0  0  0  0  0  0
    4.0003    4.0128   -1.2101 C   0  0  0  0  0  0  0  0  0  0  0  0
    5.0820    4.2147   -1.1851 H   0  0  0  0  0  0  0  0  0  0  0  0
    3.5347    2.6934   -1.1453 C   0  0  0  0  0  0  0  0  0  0  0  0
    4.2308    1.8457   -1.0708 H   0  0  0  0  0  0  0  0  0  0  0  0
  3 21  2  0  0  0  0
  4  6  1  0  0  0  0
  5  2  1  6  0  0  0
  5  3  1  0  0  0  0
  5  4  1  0  0  0  0
  6  9  1  0  0  0  0
  7  6  1  0  0  0  0
  8  6  1  0  0  0  0
  9 12  1  0  0  0  0
  9 10  1  0  0  0  0
  9 11  1  0  0  0  0
 12 13  1  0  0  0  0
 14 12  1  0  0  0  0
 15 16  1  0  0  0  0
 15 12  1  0  0  0  0
 17 15  1  0  0  0  0
 18  4  1  0  0  0  0
 18 15  1  0  0  0  0
 19 18  1  0  0  0  0
 20 18  1  0  0  0  0
 21  1  1  0  0  0  0
 22 31  1  0  0  0  0
 22 21  1  0  0  0  0
 23 22  2  0  0  0  0
 24 23  1  0  0  0  0
 25 27  2  0  0  0  0
 25 23  1  0  0  0  0
 26 25  1  0  0  0  0
 27 29  1  0  0  0  0
 28 27  1  0  0  0  0
 29 30  1  0  0  0  0
 29 31  2  0  0  0  0
 31 32  1  0  0  0  0
M  CHG  1   1  -1
M  END
