1,2
 OpenBabel05122313063D

 34 34  0  0  1  0  0  0  0  0999 V2000
   -1.3537    1.6427   -0.0085 O   0  5  0  0  0  0  0  0  0  0  0  0
   -1.5939   -1.5346   -0.0352 S   0  0  0  0  0  1  0  0  0  0  0  0
   -4.1736   -1.5787   -0.6559 N   0  0  0  0  0  0  0  0  0  0  0  0
   -3.4251    0.5568   -0.2948 N   0  0  0  0  0  0  0  0  0  0  0  0
   -3.1267   -0.7449   -0.3548 C   0  0  1  0  0  3  0  0  0  0  0  0
   -3.3373    2.9695    0.0166 C   0  0  0  0  0  0  0  0  0  0  0  0
   -2.6253    1.6026   -0.0966 C   0  0  0  0  0  0  0  0  0  0  0  0
   -5.5582   -1.1003   -0.6639 C   0  0  0  0  0  0  0  0  0  0  0  0
   -6.0413   -1.4694   -1.5965 H   0  0  0  0  0  0  0  0  0  0  0  0
   -5.5345    0.0023   -0.6895 H   0  0  0  0  0  0  0  0  0  0  0  0
   -6.3048   -1.6330    0.5677 C   0  0  0  0  0  0  0  0  0  0  0  0
   -7.3648   -1.3059    0.5263 H   0  0  0  0  0  0  0  0  0  0  0  0
   -5.8584   -1.1672    1.4731 H   0  0  0  0  0  0  0  0  0  0  0  0
   -6.2082   -3.1623    0.6617 C   0  0  0  0  0  0  0  0  0  0  0  0
   -6.7903   -3.6149   -0.1730 H   0  0  0  0  0  0  0  0  0  0  0  0
   -6.6748   -3.5262    1.6005 H   0  0  0  0  0  0  0  0  0  0  0  0
   -4.0724   -3.0357   -0.6751 C   0  0  0  0  0  0  0  0  0  0  0  0
   -3.0079   -3.3258   -0.7482 H   0  0  0  0  0  0  0  0  0  0  0  0
   -4.5845   -3.3960   -1.5962 H   0  0  0  0  0  0  0  0  0  0  0  0
   -4.7499   -3.6337    0.5652 C   0  0  0  0  0  0  0  0  0  0  0  0
   -4.1794   -3.3122    1.4632 H   0  0  0  0  0  0  0  0  0  0  0  0
   -4.6922   -4.7412    0.5231 H   0  0  0  0  0  0  0  0  0  0  0  0
   -4.0814    3.2360   -1.3092 C   0  0  0  0  0  0  0  0  0  0  0  0
   -3.3722    3.2921   -2.1598 H   0  0  0  0  0  0  0  0  0  0  0  0
   -4.6248    4.2016   -1.2515 H   0  0  0  0  0  0  0  0  0  0  0  0
   -4.8111    2.4310   -1.5212 H   0  0  0  0  0  0  0  0  0  0  0  0
   -2.3205    4.0902    0.2804 C   0  0  0  0  0  0  0  0  0  0  0  0
   -1.5719    4.1557   -0.5325 H   0  0  0  0  0  0  0  0  0  0  0  0
   -1.7657    3.9169    1.2229 H   0  0  0  0  0  0  0  0  0  0  0  0
   -2.8464    5.0636    0.3561 H   0  0  0  0  0  0  0  0  0  0  0  0
   -4.3515    2.8928    1.1768 C   0  0  0  0  0  0  0  0  0  0  0  0
   -5.0827    2.0786    1.0087 H   0  0  0  0  0  0  0  0  0  0  0  0
   -4.9023    3.8520    1.2636 H   0  0  0  0  0  0  0  0  0  0  0  0
   -3.8398    2.7032    2.1422 H   0  0  0  0  0  0  0  0  0  0  0  0
  3  5  1  0  0  0  0
  4  7  2  0  0  0  0
  5  4  1  0  0  0  0
  5  2  1  1  0  0  0
  6 27  1  0  0  0  0
  6 31  1  0  0  0  0
  7  1  1  0  0  0  0
  7  6  1  0  0  0  0
  8  3  1  0  0  0  0
  8 11  1  0  0  0  0
  9  8  1  0  0  0  0
 10  8  1  0  0  0  0
 11 14  1  0  0  0  0
 11 13  1  0  0  0  0
 12 11  1  0  0  0  0
 14 16  1  0  0  0  0
 15 14  1  0  0  0  0
 17  3  1  0  0  0  0
 17 20  1  0  0  0  0
 18 17  1  0  0  0  0
 19 17  1  0  0  0  0
 20 14  1  0  0  0  0
 20 21  1  0  0  0  0
 22 20  1  0  0  0  0
 23 25  1  0  0  0  0
 23  6  1  0  0  0  0
 24 23  1  0  0  0  0
 26 23  1  0  0  0  0
 27 30  1  0  0  0  0
 27 29  1  0  0  0  0
 28 27  1  0  0  0  0
 31 33  1  0  0  0  0
 31 34  1  0  0  0  0
 32 31  1  0  0  0  0
M  CHG  1   1  -1
M  END
