1,28
 OpenBabel05122313063D

 28 29  0  0  1  0  0  0  0  0999 V2000
    3.8993   -0.3982   -0.0996 S   0  0  0  0  0  1  0  0  0  0  0  0
    5.8396    1.8753   -0.0348 S   0  0  0  0  0  0  0  0  0  0  0  0
    4.1702    1.2957   -0.0414 C   0  0  1  0  0  3  0  0  0  0  0  0
    3.2131    2.3201   -0.0091 C   0  0  0  0  0  0  0  0  0  0  0  0
    3.5856    3.3519    0.0605 H   0  0  0  0  0  0  0  0  0  0  0  0
    1.8134    2.1176   -0.0425 C   0  0  0  0  0  0  0  0  0  0  0  0
    6.8413    0.3645   -0.0226 C   0  0  0  0  0  0  0  0  0  0  0  0
    7.8912    0.7134    0.0118 H   0  0  0  0  0  0  0  0  0  0  0  0
    6.6734   -0.2335   -0.9389 H   0  0  0  0  0  0  0  0  0  0  0  0
    6.6183   -0.2526    0.8691 H   0  0  0  0  0  0  0  0  0  0  0  0
    0.8692    3.2746   -0.0085 C   0  0  0  0  0  0  0  0  0  0  0  0
    1.2718    4.6261   -0.2416 C   0  0  0  0  0  0  0  0  0  0  0  0
    2.3224    4.8568   -0.4687 H   0  0  0  0  0  0  0  0  0  0  0  0
    0.3448    5.6537   -0.2161 C   0  0  0  0  0  0  0  0  0  0  0  0
    0.6652    6.6897   -0.4075 H   0  0  0  0  0  0  0  0  0  0  0  0
   -1.0350    5.4005    0.0456 C   0  0  0  0  0  0  0  0  0  0  0  0
   -2.0158    6.4331    0.0754 C   0  0  0  0  0  0  0  0  0  0  0  0
   -1.6990    7.4718   -0.1076 H   0  0  0  0  0  0  0  0  0  0  0  0
   -3.3481    6.1384    0.3303 C   0  0  0  0  0  0  0  0  0  0  0  0
   -4.0955    6.9461    0.3505 H   0  0  0  0  0  0  0  0  0  0  0  0
   -3.7571    4.7970    0.5672 C   0  0  0  0  0  0  0  0  0  0  0  0
   -4.8167    4.5788    0.7694 H   0  0  0  0  0  0  0  0  0  0  0  0
   -2.8272    3.7687    0.5463 C   0  0  0  0  0  0  0  0  0  0  0  0
   -3.1341    2.7268    0.7298 H   0  0  0  0  0  0  0  0  0  0  0  0
   -1.4497    4.0388    0.2853 C   0  0  0  0  0  0  0  0  0  0  0  0
   -0.4769    3.0063    0.2500 C   0  0  0  0  0  0  0  0  0  0  0  0
   -0.7754    1.9634    0.4309 H   0  0  0  0  0  0  0  0  0  0  0  0
    1.2384    0.9737   -0.0872 O   0  5  0  0  0  0  0  0  0  0  0  0
  2  7  1  0  0  0  0
  3  1  1  6  0  0  0
  3  2  1  0  0  0  0
  3  4  1  0  0  0  0
  4  5  1  0  0  0  0
  6  4  2  0  0  0  0
  6 11  1  0  0  0  0
  7  8  1  0  0  0  0
  7 10  1  0  0  0  0
  9  7  1  0  0  0  0
 11 26  1  0  0  0  0
 12 14  1  0  0  0  0
 12 11  2  0  0  0  0
 13 12  1  0  0  0  0
 14 16  2  0  0  0  0
 15 14  1  0  0  0  0
 16 17  1  0  0  0  0
 16 25  1  0  0  0  0
 17 19  2  0  0  0  0
 18 17  1  0  0  0  0
 19 20  1  0  0  0  0
 19 21  1  0  0  0  0
 21 22  1  0  0  0  0
 23 21  2  0  0  0  0
 23 24  1  0  0  0  0
 25 23  1  0  0  0  0
 26 25  2  0  0  0  0
 26 27  1  0  0  0  0
 28  6  1  0  0  0  0
M  CHG  1  28  -1
M  END
