1,6
 OpenBabel05122313063D

 28 29  0  0  1  0  0  0  0  0999 V2000
   -0.6655   -0.8641   -0.0795 O   0  0  0  0  0  1  0  0  0  0  0  0
   -1.5719   -1.7743   -0.1066 C   0  0  2  0  0  3  0  0  0  0  0  0
   -1.3566   -3.1724   -0.1088 C   0  0  0  0  0  0  0  0  0  0  0  0
   -2.2565   -3.7998   -0.1899 H   0  0  0  0  0  0  0  0  0  0  0  0
   -0.1379   -3.8704   -0.0483 C   0  0  0  0  0  0  0  0  0  0  0  0
    1.4676   -3.2700    0.0296 S   0  0  0  0  0  1  0  0  0  0  0  0
   -0.3505   -5.6271   -0.0551 S   0  0  0  0  0  0  0  0  0  0  0  0
    1.3352   -6.2905   -0.0080 C   0  0  0  0  0  0  0  0  0  0  0  0
    1.8593   -5.9859    0.9184 H   0  0  0  0  0  0  0  0  0  0  0  0
    1.9178   -5.9626   -0.8906 H   0  0  0  0  0  0  0  0  0  0  0  0
    1.2128   -7.3905   -0.0255 H   0  0  0  0  0  0  0  0  0  0  0  0
   -2.9621   -1.2269   -0.1588 C   0  0  0  0  0  0  0  0  0  0  0  0
   -3.1299    0.1408   -0.5478 C   0  0  0  0  0  0  0  0  0  0  0  0
   -2.2308    0.7161   -0.8090 H   0  0  0  0  0  0  0  0  0  0  0  0
   -4.3863    0.7142   -0.5998 C   0  0  0  0  0  0  0  0  0  0  0  0
   -4.5017    1.7642   -0.9128 H   0  0  0  0  0  0  0  0  0  0  0  0
   -5.5531   -0.0323   -0.2561 C   0  0  0  0  0  0  0  0  0  0  0  0
   -6.8621    0.5273   -0.2941 C   0  0  0  0  0  0  0  0  0  0  0  0
   -6.9800    1.5769   -0.6055 H   0  0  0  0  0  0  0  0  0  0  0  0
   -7.9700   -0.2325    0.0545 C   0  0  0  0  0  0  0  0  0  0  0  0
   -8.9758    0.2131    0.0209 H   0  0  0  0  0  0  0  0  0  0  0  0
   -7.8144   -1.5868    0.4573 C   0  0  0  0  0  0  0  0  0  0  0  0
   -8.7004   -2.1788    0.7323 H   0  0  0  0  0  0  0  0  0  0  0  0
   -6.5532   -2.1612    0.5039 C   0  0  0  0  0  0  0  0  0  0  0  0
   -6.4278   -3.2102    0.8151 H   0  0  0  0  0  0  0  0  0  0  0  0
   -5.3941   -1.4086    0.1486 C   0  0  0  0  0  0  0  0  0  0  0  0
   -4.0889   -1.9736    0.1846 C   0  0  0  0  0  0  0  0  0  0  0  0
   -3.9894   -3.0165    0.5208 H   0  0  0  0  0  0  0  0  0  0  0  0
  2  1  1  6  0  0  0
  3  2  1  0  0  0  0
  3  5  2  0  0  0  0
  4  3  1  0  0  0  0
  5  6  1  0  0  0  0
  7  5  1  0  0  0  0
  7  8  1  0  0  0  0
  8  9  1  0  0  0  0
 10  8  1  0  0  0  0
 11  8  1  0  0  0  0
 12  2  1  0  0  0  0
 12 27  1  0  0  0  0
 13 12  2  0  0  0  0
 14 13  1  0  0  0  0
 15 13  1  0  0  0  0
 15 17  2  0  0  0  0
 16 15  1  0  0  0  0
 17 26  1  0  0  0  0
 18 17  1  0  0  0  0
 18 20  2  0  0  0  0
 19 18  1  0  0  0  0
 20 22  1  0  0  0  0
 21 20  1  0  0  0  0
 22 24  2  0  0  0  0
 22 23  1  0  0  0  0
 24 25  1  0  0  0  0
 26 27  2  0  0  0  0
 26 24  1  0  0  0  0
 27 28  1  0  0  0  0
M  END
