1,2
 OpenBabel05122313063D

 18 17  0  0  1  0  0  0  0  0999 V2000
   -0.0009    1.5104   -1.0795 S   0  0  0  0  0  1  0  0  0  0  0  0
    0.0003    0.0592    1.9025 O   0  5  0  0  0  0  0  0  0  0  0  0
    0.0006    1.4578    3.6623 O   0  0  0  0  0  0  0  0  0  0  0  0
   -0.0045    4.2972   -1.5378 O   0  0  0  0  0  0  0  0  0  0  0  0
   -0.0003    5.0555    0.5903 O   0  0  0  0  0  0  0  0  0  0  0  0
    0.0002    1.2416    2.3177 C   0  0  0  0  0  0  0  0  0  0  0  0
    0.0012    0.2950    4.4897 C   0  0  0  0  0  0  0  0  0  0  0  0
   -0.0003    2.4714    1.5805 C   0  0  0  0  0  0  0  0  0  0  0  0
   -0.0010    2.6584    0.2036 C   0  0  1  0  0  3  0  0  0  0  0  0
   -0.0018    4.1239   -0.1978 C   0  0  0  0  0  0  0  0  0  0  0  0
   -0.0052    5.6581   -1.9740 C   0  0  0  0  0  0  0  0  0  0  0  0
    0.0015    0.6645    5.5309 H   0  0  0  0  0  0  0  0  0  0  0  0
    0.8994   -0.3301    4.3062 H   0  0  0  0  0  0  0  0  0  0  0  0
   -0.8970   -0.3305    4.3069 H   0  0  0  0  0  0  0  0  0  0  0  0
   -0.0003    3.3854    2.1908 H   0  0  0  0  0  0  0  0  0  0  0  0
   -0.0074    5.6253   -3.0781 H   0  0  0  0  0  0  0  0  0  0  0  0
    0.8925    6.1939   -1.6033 H   0  0  0  0  0  0  0  0  0  0  0  0
   -0.9014    6.1941   -1.5997 H   0  0  0  0  0  0  0  0  0  0  0  0
  2  6  1  0  0  0  0
  3  7  1  0  0  0  0
  4 10  1  0  0  0  0
  6  3  1  0  0  0  0
  7 12  1  0  0  0  0
  8 15  1  0  0  0  0
  8  6  2  0  0  0  0
  9  1  1  6  0  0  0
  9  8  1  0  0  0  0
 10  9  1  0  0  0  0
 10  5  2  0  0  0  0
 11 17  1  0  0  0  0
 11 18  1  0  0  0  0
 11  4  1  0  0  0  0
 13  7  1  0  0  0  0
 14  7  1  0  0  0  0
 16 11  1  0  0  0  0
M  CHG  1   2  -1
M  END
