1,3
 OpenBabel05122313063D

 32 33  0  0  1  0  0  0  0  0999 V2000
   -0.8898    1.1853    0.0364 S   0  0  0  0  0  1  0  0  0  0  0  0
   -8.0531   -1.9126   -0.0407 F   0  0  0  0  0  0  0  0  0  0  0  0
   -2.0937   -1.7248   -0.1735 O   0  5  0  0  0  0  0  0  0  0  0  0
   -3.5004    0.1709   -0.1490 N   0  0  0  0  0  0  0  0  0  0  0  0
   -3.2212    2.4301   -0.1419 N   0  0  0  0  0  0  0  0  0  0  0  0
   -2.6341    1.1823   -0.1086 C   0  0  1  0  0  3  0  0  0  0  0  0
   -3.2216   -1.1411   -0.1474 C   0  0  0  0  0  0  0  0  0  0  0  0
   -4.4111   -2.0562   -0.1261 C   0  0  0  0  0  0  0  0  0  0  0  0
   -4.2124   -3.4533   -0.1344 C   0  0  0  0  0  0  0  0  0  0  0  0
   -3.1823   -3.8362   -0.1598 H   0  0  0  0  0  0  0  0  0  0  0  0
   -5.3166   -4.3153   -0.1115 C   0  0  0  0  0  0  0  0  0  0  0  0
   -5.1627   -5.4049   -0.1187 H   0  0  0  0  0  0  0  0  0  0  0  0
   -6.6238   -3.8030   -0.0794 C   0  0  0  0  0  0  0  0  0  0  0  0
   -7.5063   -4.4585   -0.0607 H   0  0  0  0  0  0  0  0  0  0  0  0
   -6.8009   -2.4129   -0.0714 C   0  0  0  0  0  0  0  0  0  0  0  0
   -5.7184   -1.5318   -0.0951 C   0  0  0  0  0  0  0  0  0  0  0  0
   -5.8759   -0.4457   -0.0898 H   0  0  0  0  0  0  0  0  0  0  0  0
   -4.6831    2.5257   -0.1387 C   0  0  0  0  0  0  0  0  0  0  0  0
   -5.1157    2.0665    0.7730 H   0  0  0  0  0  0  0  0  0  0  0  0
   -5.1084    1.9959   -1.0134 H   0  0  0  0  0  0  0  0  0  0  0  0
   -4.9586    3.5940   -0.1872 H   0  0  0  0  0  0  0  0  0  0  0  0
   -2.4674    3.6469   -0.1219 C   0  0  0  0  0  0  0  0  0  0  0  0
   -2.6299    4.5464    0.9489 C   0  0  0  0  0  0  0  0  0  0  0  0
   -3.2976    4.2798    1.7815 H   0  0  0  0  0  0  0  0  0  0  0  0
   -1.9371    5.7665    0.9531 C   0  0  0  0  0  0  0  0  0  0  0  0
   -2.0711    6.4654    1.7926 H   0  0  0  0  0  0  0  0  0  0  0  0
   -1.0679    6.0875   -0.1011 C   0  0  0  0  0  0  0  0  0  0  0  0
   -0.5183    7.0408   -0.0928 H   0  0  0  0  0  0  0  0  0  0  0  0
   -0.9024    5.1869   -1.1665 C   0  0  0  0  0  0  0  0  0  0  0  0
   -0.2234    5.4308   -1.9968 H   0  0  0  0  0  0  0  0  0  0  0  0
   -1.6054    3.9758   -1.1865 C   0  0  0  0  0  0  0  0  0  0  0  0
   -1.4847    3.2709   -2.0205 H   0  0  0  0  0  0  0  0  0  0  0  0
  3  7  1  0  0  0  0
  4  7  2  0  0  0  0
  4  6  1  0  0  0  0
  5 18  1  0  0  0  0
  5 22  1  0  0  0  0
  5  6  1  0  0  0  0
  6  1  1  1  0  0  0
  7  8  1  0  0  0  0
  8 16  1  0  0  0  0
  9  8  2  0  0  0  0
  9 11  1  0  0  0  0
 10  9  1  0  0  0  0
 11 13  2  0  0  0  0
 12 11  1  0  0  0  0
 13 15  1  0  0  0  0
 13 14  1  0  0  0  0
 15  2  1  0  0  0  0
 16 17  1  0  0  0  0
 16 15  2  0  0  0  0
 18 19  1  0  0  0  0
 20 18  1  0  0  0  0
 21 18  1  0  0  0  0
 22 23  1  0  0  0  0
 23 25  2  0  0  0  0
 23 24  1  0  0  0  0
 25 26  1  0  0  0  0
 27 28  1  0  0  0  0
 27 25  1  0  0  0  0
 29 27  2  0  0  0  0
 30 29  1  0  0  0  0
 31 29  1  0  0  0  0
 31 22  2  0  0  0  0
 32 31  1  0  0  0  0
M  CHG  1   3  -1
M  END
