1,2
 OpenBabel05122313063D

 28 29  0  0  1  0  0  0  0  0999 V2000
   -1.4695   -1.9284   -0.0496 S   0  0  0  0  0  1  0  0  0  0  0  0
   -1.2289    1.0549   -0.0360 O   0  0  0  0  0  1  0  0  0  0  0  0
   -2.5018    1.1665   -0.0000 C   0  0  1  0  0  3  0  0  0  0  0  0
   -2.1008    3.5952   -0.4044 C   0  0  0  0  0  0  0  0  0  0  0  0
   -2.5136    4.9312   -0.4507 C   0  0  0  0  0  0  0  0  0  0  0  0
   -3.8347    5.2741   -0.1161 C   0  0  0  0  0  0  0  0  0  0  0  0
   -4.7389    4.2690    0.2639 C   0  0  0  0  0  0  0  0  0  0  0  0
   -4.3304    2.9292    0.3033 C   0  0  0  0  0  0  0  0  0  0  0  0
   -3.0051    2.5737   -0.0317 C   0  0  0  0  0  0  0  0  0  0  0  0
   -1.0715    3.3058   -0.6603 H   0  0  0  0  0  0  0  0  0  0  0  0
   -1.7996    5.7132   -0.7513 H   0  0  0  0  0  0  0  0  0  0  0  0
   -4.1599    6.3251   -0.1491 H   0  0  0  0  0  0  0  0  0  0  0  0
   -5.7723    4.5312    0.5368 H   0  0  0  0  0  0  0  0  0  0  0  0
   -5.0488    2.1603    0.6219 H   0  0  0  0  0  0  0  0  0  0  0  0
   -3.4090    0.0749    0.0469 C   0  0  0  0  0  0  0  0  0  0  0  0
   -4.4799    0.3074    0.1021 H   0  0  0  0  0  0  0  0  0  0  0  0
   -3.0595   -1.2777    0.0313 C   0  0  0  0  0  0  0  0  0  0  0  0
   -5.3462   -2.0889   -0.6566 C   0  0  0  0  0  0  0  0  0  0  0  0
   -6.3643   -3.0510   -0.6412 C   0  0  0  0  0  0  0  0  0  0  0  0
   -6.1986   -4.2448    0.0793 C   0  0  0  0  0  0  0  0  0  0  0  0
   -5.0025   -4.4721    0.7791 C   0  0  0  0  0  0  0  0  0  0  0  0
   -3.9803   -3.5152    0.7605 C   0  0  0  0  0  0  0  0  0  0  0  0
   -4.1382   -2.3041    0.0473 C   0  0  0  0  0  0  0  0  0  0  0  0
   -5.4713   -1.1696   -1.2478 H   0  0  0  0  0  0  0  0  0  0  0  0
   -7.2920   -2.8704   -1.2051 H   0  0  0  0  0  0  0  0  0  0  0  0
   -7.0001   -4.9988    0.0927 H   0  0  0  0  0  0  0  0  0  0  0  0
   -4.8651   -5.4030    1.3498 H   0  0  0  0  0  0  0  0  0  0  0  0
   -3.0456   -3.6873    1.3143 H   0  0  0  0  0  0  0  0  0  0  0  0
  1 17  1  0  0  0  0
  3  2  1  6  0  0  0
  3 15  1  0  0  0  0
  4  9  1  0  0  0  0
  5  4  2  0  0  0  0
  5  6  1  0  0  0  0
  6  7  2  0  0  0  0
  7  8  1  0  0  0  0
  7 13  1  0  0  0  0
  8 14  1  0  0  0  0
  9  3  1  0  0  0  0
  9  8  2  0  0  0  0
 10  4  1  0  0  0  0
 11  5  1  0  0  0  0
 12  6  1  0  0  0  0
 15 16  1  0  0  0  0
 17 15  2  0  0  0  0
 17 23  1  0  0  0  0
 18 19  2  0  0  0  0
 18 23  1  0  0  0  0
 19 20  1  0  0  0  0
 20 26  1  0  0  0  0
 20 21  2  0  0  0  0
 21 27  1  0  0  0  0
 22 21  1  0  0  0  0
 22 28  1  0  0  0  0
 23 22  2  0  0  0  0
 24 18  1  0  0  0  0
 25 19  1  0  0  0  0
M  END
