1,2
 OpenBabel05122313063D

 23 23  0  0  1  0  0  0  0  0999 V2000
    2.1965   -1.2593   -1.0887 S   0  0  0  0  0  1  0  0  0  0  0  0
    0.8344    0.7210    0.5789 O   0  0  0  0  0  1  0  0  0  0  0  0
    2.9351   -0.0466   -0.1098 C   0  0  1  0  0  3  0  0  0  0  0  0
    4.4080    0.0907   -0.1326 C   0  0  0  0  0  0  0  0  0  0  0  0
    2.1716    0.7708    0.6252 N   0  0  0  0  0  0  0  0  0  0  0  0
    2.6369    1.7230    1.6242 C   0  0  0  0  0  0  0  0  0  0  0  0
    5.2245   -1.0479    0.0266 C   0  0  0  0  0  0  0  0  0  0  0  0
    6.6211   -0.9601   -0.0365 C   0  0  0  0  0  0  0  0  0  0  0  0
    7.2360    0.2873   -0.2763 C   0  0  0  0  0  0  0  0  0  0  0  0
    6.4291    1.4328   -0.4578 C   0  0  0  0  0  0  0  0  0  0  0  0
    5.0401    1.3327   -0.3906 C   0  0  0  0  0  0  0  0  0  0  0  0
    8.5777    0.4837   -0.3574 O   0  0  0  0  0  0  0  0  0  0  0  0
    9.4339   -0.6341   -0.2074 C   0  0  0  0  0  0  0  0  0  0  0  0
    3.7245    1.6242    1.7782 H   0  0  0  0  0  0  0  0  0  0  0  0
    2.0961    1.5077    2.5669 H   0  0  0  0  0  0  0  0  0  0  0  0
    2.3898    2.7561    1.3045 H   0  0  0  0  0  0  0  0  0  0  0  0
    4.7455   -2.0223    0.2032 H   0  0  0  0  0  0  0  0  0  0  0  0
    7.2209   -1.8693    0.1016 H   0  0  0  0  0  0  0  0  0  0  0  0
    6.9243    2.3913   -0.6692 H   0  0  0  0  0  0  0  0  0  0  0  0
    4.4269    2.2284   -0.5707 H   0  0  0  0  0  0  0  0  0  0  0  0
   10.4664   -0.2536   -0.3147 H   0  0  0  0  0  0  0  0  0  0  0  0
    9.2492   -1.4051   -0.9885 H   0  0  0  0  0  0  0  0  0  0  0  0
    9.3256   -1.1081    0.7939 H   0  0  0  0  0  0  0  0  0  0  0  0
  2  5  1  0  0  0  0
  3  1  1  6  0  0  0
  3  5  1  0  0  0  0
  4  3  1  0  0  0  0
  4  7  1  0  0  0  0
  5  6  1  0  0  0  0
  6 14  1  0  0  0  0
  6 15  1  0  0  0  0
  7 17  1  0  0  0  0
  8  7  2  0  0  0  0
  8 18  1  0  0  0  0
  9  8  1  0  0  0  0
 10 11  1  0  0  0  0
 10  9  2  0  0  0  0
 11  4  2  0  0  0  0
 12  9  1  0  0  0  0
 12 13  1  0  0  0  0
 13 23  1  0  0  0  0
 16  6  1  0  0  0  0
 19 10  1  0  0  0  0
 20 11  1  0  0  0  0
 21 13  1  0  0  0  0
 22 13  1  0  0  0  0
M  END
