2,3
 OpenBabel05122313063D

 16 16  0  0  1  0  0  0  0  0999 V2000
    3.7984    0.6614   -0.2892 S   0  0  0  0  0  0  0  0  0  0  0  0
    0.0398   -1.3996    0.6280 S   0  0  0  0  0  5  0  0  0  0  0  0
   -0.0026    1.6135    0.4049 O   0  0  0  0  0  1  0  0  0  0  0  0
    0.2055   -1.3622    2.1208 O   0  0  0  0  0  0  0  0  0  0  0  0
   -0.1053   -2.7324   -0.0408 O   0  0  0  0  0  0  0  0  0  0  0  0
    1.2523    1.6745    0.3921 C   0  0  1  0  0  3  0  0  0  0  0  0
    1.8978    2.9805    0.7715 C   0  0  0  0  0  0  0  0  0  0  0  0
    2.0788    0.5332    0.0633 C   0  0  0  0  0  0  0  0  0  0  0  0
    1.6824   -0.8072    0.0584 C   0  0  0  0  0  0  0  0  0  0  0  0
    2.7339   -1.7100   -0.2263 C   0  0  0  0  0  0  0  0  0  0  0  0
    3.9335   -1.0492   -0.4487 C   0  0  0  0  0  0  0  0  0  0  0  0
    2.7641    3.2121    0.1196 H   0  0  0  0  0  0  0  0  0  0  0  0
    2.2799    2.9107    1.8119 H   0  0  0  0  0  0  0  0  0  0  0  0
    1.1542    3.7954    0.7186 H   0  0  0  0  0  0  0  0  0  0  0  0
    2.5870   -2.7972   -0.2771 H   0  0  0  0  0  0  0  0  0  0  0  0
    4.9025   -1.4888   -0.7204 H   0  0  0  0  0  0  0  0  0  0  0  0
  1  8  1  0  0  0  0
  2  4  2  0  0  0  0
  5  2  2  0  0  0  0
  6  3  1  1  0  0  0
  6  7  1  0  0  0  0
  7 13  1  0  0  0  0
  8  6  1  0  0  0  0
  9  8  2  0  0  0  0
  9  2  1  0  0  0  0
 10  9  1  0  0  0  0
 11  1  1  0  0  0  0
 11 10  2  0  0  0  0
 12  7  1  0  0  0  0
 14  7  1  0  0  0  0
 15 10  1  0  0  0  0
 16 11  1  0  0  0  0
M  END
