1,2
 OpenBabel05122313063D

 33 32  0  0  1  0  0  0  0  0999 V2000
    1.4733   -1.6536   -0.2770 S   0  0  0  0  0  1  0  0  0  0  0  0
    1.2250    1.3113   -0.2757 O   0  5  0  0  0  0  0  0  0  0  0  0
    3.0457   -0.9217   -0.0390 C   0  0  2  0  0  3  0  0  0  0  0  0
    3.3709    0.3715   -0.1783 N   0  0  0  0  0  0  0  0  0  0  0  0
    4.0829   -1.7651    0.2421 N   0  0  0  0  0  0  0  0  0  0  0  0
    2.4957    1.3583   -0.3634 C   0  0  0  0  0  0  0  0  0  0  0  0
    5.4532   -1.2459    0.3168 C   0  0  0  0  0  0  0  0  0  0  0  0
    5.5448   -0.4293   -0.4236 H   0  0  0  0  0  0  0  0  0  0  0  0
    6.1327   -2.0688    0.0113 H   0  0  0  0  0  0  0  0  0  0  0  0
    3.8942   -3.1940    0.4824 C   0  0  0  0  0  0  0  0  0  0  0  0
    2.8976   -3.3295    0.9508 H   0  0  0  0  0  0  0  0  0  0  0  0
    4.6573   -3.5078    1.2254 H   0  0  0  0  0  0  0  0  0  0  0  0
    3.0511    2.7623   -0.6798 C   0  0  0  0  0  0  0  0  0  0  0  0
    5.8157   -0.7269    1.7075 C   0  0  0  0  0  0  0  0  0  0  0  0
    6.8688   -0.3806    1.7295 H   0  0  0  0  0  0  0  0  0  0  0  0
    5.6987   -1.5125    2.4819 H   0  0  0  0  0  0  0  0  0  0  0  0
    5.1623    0.1270    1.9728 H   0  0  0  0  0  0  0  0  0  0  0  0
    3.9955   -4.0401   -0.7879 C   0  0  0  0  0  0  0  0  0  0  0  0
    3.8696   -5.1147   -0.5465 H   0  0  0  0  0  0  0  0  0  0  0  0
    4.9798   -3.9138   -1.2833 H   0  0  0  0  0  0  0  0  0  0  0  0
    3.2024   -3.7518   -1.5057 H   0  0  0  0  0  0  0  0  0  0  0  0
    2.6026    3.7025    0.4607 C   0  0  0  0  0  0  0  0  0  0  0  0
    1.5006    3.6822    0.5681 H   0  0  0  0  0  0  0  0  0  0  0  0
    2.9236    4.7429    0.2486 H   0  0  0  0  0  0  0  0  0  0  0  0
    3.0509    3.3956    1.4279 H   0  0  0  0  0  0  0  0  0  0  0  0
    4.5805    2.7590   -0.7946 C   0  0  0  0  0  0  0  0  0  0  0  0
    5.0550    2.4232    0.1477 H   0  0  0  0  0  0  0  0  0  0  0  0
    4.9419    3.7827   -1.0242 H   0  0  0  0  0  0  0  0  0  0  0  0
    4.9223    2.0804   -1.6004 H   0  0  0  0  0  0  0  0  0  0  0  0
    2.4168    3.2260   -2.0086 C   0  0  0  0  0  0  0  0  0  0  0  0
    1.3122    3.2070   -1.9378 H   0  0  0  0  0  0  0  0  0  0  0  0
    2.7212    2.5672   -2.8477 H   0  0  0  0  0  0  0  0  0  0  0  0
    2.7422    4.2590   -2.2483 H   0  0  0  0  0  0  0  0  0  0  0  0
  3  1  1  6  0  0  0
  3  5  1  0  0  0  0
  4  3  1  0  0  0  0
  5  7  1  0  0  0  0
  5 10  1  0  0  0  0
  6  2  1  0  0  0  0
  6  4  2  0  0  0  0
  7 14  1  0  0  0  0
  8  7  1  0  0  0  0
  9  7  1  0  0  0  0
 10 11  1  0  0  0  0
 10 12  1  0  0  0  0
 13  6  1  0  0  0  0
 13 22  1  0  0  0  0
 14 15  1  0  0  0  0
 14 17  1  0  0  0  0
 14 16  1  0  0  0  0
 18 19  1  0  0  0  0
 18 10  1  0  0  0  0
 20 18  1  0  0  0  0
 21 18  1  0  0  0  0
 22 23  1  0  0  0  0
 22 25  1  0  0  0  0
 24 22  1  0  0  0  0
 26 13  1  0  0  0  0
 26 27  1  0  0  0  0
 28 26  1  0  0  0  0
 29 26  1  0  0  0  0
 30 31  1  0  0  0  0
 30 13  1  0  0  0  0
 32 30  1  0  0  0  0
 33 30  1  0  0  0  0
M  CHG  1   2  -1
M  END
