1,2
 OpenBabel05122313063D

 42 44  0  0  1  0  0  0  0  0999 V2000
    1.4428    0.7622   -0.1812 S   0  0  0  0  0  1  0  0  0  0  0  0
    1.2231   -2.1130   -0.9225 O   0  5  0  0  0  0  0  0  0  0  0  0
    2.3126   -4.3210   -1.9846 O   0  0  0  0  0  0  0  0  0  0  0  0
    3.3715   -1.1918   -0.5451 N   0  0  0  0  0  0  0  0  0  0  0  0
    4.0689    0.8393    0.2631 N   0  0  0  0  0  0  0  0  0  0  0  0
    2.4966   -2.1203   -0.9639 C   0  0  0  0  0  0  0  0  0  0  0  0
    3.0389    0.0349   -0.1445 C   0  0  1  0  0  3  0  0  0  0  0  0
    3.1265   -3.3288   -1.5102 C   0  0  0  0  0  0  0  0  0  0  0  0
    4.4545   -3.7047   -1.6503 C   0  0  0  0  0  0  0  0  0  0  0  0
    5.3176   -3.1047   -1.3464 H   0  0  0  0  0  0  0  0  0  0  0  0
    4.4432   -5.0019   -2.2455 C   0  0  0  0  0  0  0  0  0  0  0  0
    5.3054   -5.6245   -2.5085 H   0  0  0  0  0  0  0  0  0  0  0  0
    3.1120   -5.3216   -2.4255 C   0  0  0  0  0  0  0  0  0  0  0  0
    2.5982   -6.1948   -2.8411 H   0  0  0  0  0  0  0  0  0  0  0  0
    5.4662    0.4230    0.0938 C   0  0  0  0  0  0  0  0  0  0  0  0
    6.0238    1.2876   -0.3228 H   0  0  0  0  0  0  0  0  0  0  0  0
    5.4672   -0.3951   -0.6488 H   0  0  0  0  0  0  0  0  0  0  0  0
    6.1028   -0.0307    1.3911 C   0  0  0  0  0  0  0  0  0  0  0  0
    5.6557   -1.2086    2.0259 C   0  0  0  0  0  0  0  0  0  0  0  0
    4.8518   -1.7950    1.5541 H   0  0  0  0  0  0  0  0  0  0  0  0
    6.2305   -1.6231    3.2350 C   0  0  0  0  0  0  0  0  0  0  0  0
    5.8768   -2.5459    3.7201 H   0  0  0  0  0  0  0  0  0  0  0  0
    7.2566   -0.8668    3.8277 C   0  0  0  0  0  0  0  0  0  0  0  0
    7.7056   -1.1940    4.7779 H   0  0  0  0  0  0  0  0  0  0  0  0
    7.7056    0.3068    3.2042 C   0  0  0  0  0  0  0  0  0  0  0  0
    8.5078    0.9047    3.6634 H   0  0  0  0  0  0  0  0  0  0  0  0
    7.1287    0.7221    1.9928 C   0  0  0  0  0  0  0  0  0  0  0  0
    7.4804    1.6438    1.5009 H   0  0  0  0  0  0  0  0  0  0  0  0
    3.8788    2.1357    0.9092 C   0  0  0  0  0  0  0  0  0  0  0  0
    4.4837    2.1420    1.8414 H   0  0  0  0  0  0  0  0  0  0  0  0
    2.8109    2.2103    1.1988 H   0  0  0  0  0  0  0  0  0  0  0  0
    4.2808    3.3035    0.0305 C   0  0  0  0  0  0  0  0  0  0  0  0
    3.6836    3.4819   -1.2347 C   0  0  0  0  0  0  0  0  0  0  0  0
    2.9129    2.7698   -1.5706 H   0  0  0  0  0  0  0  0  0  0  0  0
    4.0597    4.5576   -2.0503 C   0  0  0  0  0  0  0  0  0  0  0  0
    3.5840    4.6887   -3.0343 H   0  0  0  0  0  0  0  0  0  0  0  0
    5.0364    5.4697   -1.6145 C   0  0  0  0  0  0  0  0  0  0  0  0
    5.3297    6.3140   -2.2567 H   0  0  0  0  0  0  0  0  0  0  0  0
    5.6370    5.2982   -0.3585 C   0  0  0  0  0  0  0  0  0  0  0  0
    6.4058    6.0056   -0.0119 H   0  0  0  0  0  0  0  0  0  0  0  0
    5.2624    4.2175    0.4564 C   0  0  0  0  0  0  0  0  0  0  0  0
    5.7378    4.0783    1.4411 H   0  0  0  0  0  0  0  0  0  0  0  0
  3  8  1  0  0  0  0
  4  7  1  0  0  0  0
  5 29  1  0  0  0  0
  6  2  1  0  0  0  0
  6  4  2  0  0  0  0
  7  1  1  6  0  0  0
  7  5  1  0  0  0  0
  8  6  1  0  0  0  0
  9  8  2  0  0  0  0
  9 10  1  0  0  0  0
 11  9  1  0  0  0  0
 12 11  1  0  0  0  0
 13 11  2  0  0  0  0
 13  3  1  0  0  0  0
 14 13  1  0  0  0  0
 15  5  1  0  0  0  0
 15 18  1  0  0  0  0
 16 15  1  0  0  0  0
 17 15  1  0  0  0  0
 18 27  2  0  0  0  0
 18 19  1  0  0  0  0
 19 21  2  0  0  0  0
 20 19  1  0  0  0  0
 21 22  1  0  0  0  0
 21 23  1  0  0  0  0
 23 24  1  0  0  0  0
 25 26  1  0  0  0  0
 25 23  2  0  0  0  0
 27 25  1  0  0  0  0
 28 27  1  0  0  0  0
 29 31  1  0  0  0  0
 29 30  1  0  0  0  0
 32 41  1  0  0  0  0
 32 29  1  0  0  0  0
 33 32  2  0  0  0  0
 34 33  1  0  0  0  0
 35 37  2  0  0  0  0
 35 33  1  0  0  0  0
 36 35  1  0  0  0  0
 37 39  1  0  0  0  0
 38 37  1  0  0  0  0
 39 40  1  0  0  0  0
 39 41  2  0  0  0  0
 41 42  1  0  0  0  0
M  CHG  1   2  -1
M  END
