1,3
 OpenBabel05122313063D

 22 22  0  0  0  0  0  0  0  0999 V2000
    0.0332    1.3668    0.0386 S   0  0  0  0  0  1  0  0  0  0  0  0
   -4.5897   -1.5783    1.4606 F   0  0  0  0  0  0  0  0  0  0  0  0
    1.1568   -1.5027   -0.4283 O   0  5  0  0  0  0  0  0  0  0  0  0
   -0.1210   -1.4924   -0.5320 C   0  0  0  0  0  0  0  0  0  0  0  0
   -5.4315   -2.9280   -0.0420 F   0  0  0  0  0  0  0  0  0  0  0  0
   -0.8433   -2.4702   -0.7870 O   0  0  0  0  0  0  0  0  0  0  0  0
   -0.8592   -0.1134   -0.3185 C   0  0  0  0  0  0  0  0  0  0  0  0
   -6.6344   -1.2999    0.7743 F   0  0  0  0  0  0  0  0  0  0  0  0
   -4.9357   -0.9018   -0.6618 O   0  0  0  0  0  0  0  0  0  0  0  0
   -2.2296   -0.1653   -0.4273 C   0  0  0  0  0  0  0  0  0  0  0  0
   -2.5621   -1.1932   -0.6463 H   0  0  0  0  0  0  0  0  0  0  0  0
   -3.2664    0.8418   -0.3132 C   0  0  0  0  0  0  0  0  0  0  0  0
   -4.6363    0.4545   -0.4102 C   0  0  0  0  0  0  0  0  0  0  0  0
   -5.7004    1.3571   -0.3338 C   0  0  0  0  0  0  0  0  0  0  0  0
   -6.7257    0.9741   -0.4315 H   0  0  0  0  0  0  0  0  0  0  0  0
   -5.4415    2.7225   -0.1357 C   0  0  0  0  0  0  0  0  0  0  0  0
   -6.2743    3.4395   -0.0714 H   0  0  0  0  0  0  0  0  0  0  0  0
   -4.1075    3.1501   -0.0289 C   0  0  0  0  0  0  0  0  0  0  0  0
   -3.8828    4.2180    0.1227 H   0  0  0  0  0  0  0  0  0  0  0  0
   -3.0514    2.2372   -0.1178 C   0  0  0  0  0  0  0  0  0  0  0  0
   -2.0138    2.5904   -0.0386 H   0  0  0  0  0  0  0  0  0  0  0  0
   -5.3755   -1.6533    0.3689 C   0  0  0  0  0  0  0  0  0  0  0  0
  4  3  1  0  0  0  0
  4  7  1  0  0  0  0
  5 22  1  0  0  0  0
  6  4  2  0  0  0  0
  7  1  1  0  0  0  0
  9 13  1  0  0  0  0
  9 22  1  0  0  0  0
 10  7  2  0  0  0  0
 10 12  1  0  0  0  0
 11 10  1  0  0  0  0
 12 20  1  0  0  0  0
 13 14  1  0  0  0  0
 13 12  2  0  0  0  0
 14 16  2  0  0  0  0
 15 14  1  0  0  0  0
 16 17  1  0  0  0  0
 16 18  1  0  0  0  0
 18 19  1  0  0  0  0
 20 21  1  0  0  0  0
 20 18  2  0  0  0  0
 22  8  1  0  0  0  0
 22  2  1  0  0  0  0
M  CHG  1   3  -1
M  END
