1,4
 OpenBabel05122313063D

 20 21  0  0  0  0  0  0  0  0999 V2000
   -2.0044   -1.4638    1.0215 S   0  0  0  0  0  5  0  0  0  0  0  0
   -1.9270   -2.9271    0.6271 O   0  0  0  0  0  0  0  0  0  0  0  0
   -2.1915   -1.1765    2.4780 O   0  0  0  0  0  0  0  0  0  0  0  0
   -1.5423    1.4250    0.6710 O   0  5  0  0  0  0  0  0  0  0  0  0
   -3.4723   -0.8298    0.1363 C   0  0  0  0  0  0  0  0  0  0  0  0
   -4.3874   -1.8125   -0.2231 C   0  0  0  0  0  0  0  0  0  0  0  0
   -5.6430   -1.4457   -0.7618 C   0  0  0  0  0  0  0  0  0  0  0  0
   -5.9589   -0.1057   -0.9155 C   0  0  0  0  0  0  0  0  0  0  0  0
   -5.0383    0.9252   -0.5618 C   0  0  0  0  0  0  0  0  0  0  0  0
   -5.4064    2.2939   -0.6978 C   0  0  0  0  0  0  0  0  0  0  0  0
   -4.5120    3.2888   -0.3293 C   0  0  0  0  0  0  0  0  0  0  0  0
   -3.2222    2.9594    0.1340 C   0  0  0  0  0  0  0  0  0  0  0  0
   -2.7863    1.6240    0.2616 C   0  0  0  0  0  0  0  0  0  0  0  0
   -3.7333    0.5640   -0.0414 C   0  0  0  0  0  0  0  0  0  0  0  0
   -4.1097   -2.8654   -0.0679 H   0  0  0  0  0  0  0  0  0  0  0  0
   -6.3657   -2.2268   -1.0429 H   0  0  0  0  0  0  0  0  0  0  0  0
   -6.9408    0.1927   -1.3154 H   0  0  0  0  0  0  0  0  0  0  0  0
   -6.4074    2.5400   -1.0823 H   0  0  0  0  0  0  0  0  0  0  0  0
   -4.7984    4.3490   -0.4124 H   0  0  0  0  0  0  0  0  0  0  0  0
   -2.5087    3.7498    0.4088 H   0  0  0  0  0  0  0  0  0  0  0  0
  1  3  2  0  0  0  0
  2  1  2  0  0  0  0
  5  1  1  0  0  0  0
  6 15  1  0  0  0  0
  6  5  2  0  0  0  0
  7  6  1  0  0  0  0
  8  7  2  0  0  0  0
  8  9  1  0  0  0  0
  9 14  1  0  0  0  0
 10  9  2  0  0  0  0
 10 11  1  0  0  0  0
 11 12  2  0  0  0  0
 12 13  1  0  0  0  0
 12 20  1  0  0  0  0
 13  4  1  0  0  0  0
 14  5  1  0  0  0  0
 14 13  2  0  0  0  0
 16  7  1  0  0  0  0
 17  8  1  0  0  0  0
 18 10  1  0  0  0  0
 19 11  1  0  0  0  0
M  CHG  1   4  -1
M  END
