1,2
 OpenBabel05122313063D

 15 14  0  0  0  0  0  0  0  0999 V2000
   -0.9432   -0.5249   -2.0049 S   0  0  0  0  0  1  0  0  0  0  0  0
   -1.1929   -0.8430    1.0118 O   0  5  0  0  0  0  0  0  0  0  0  0
   -2.8493    0.4273    1.9023 O   0  0  0  0  0  0  0  0  0  0  0  0
   -3.0860   -0.4885   -0.1975 N   0  0  0  0  0  0  0  0  0  0  0  0
   -2.3710   -0.2610    0.9791 C   0  0  0  0  0  0  0  0  0  0  0  0
   -2.4698   -1.2613   -1.2504 C   0  0  0  0  0  0  0  0  0  0  0  0
   -3.1949   -1.3674   -2.0821 H   0  0  0  0  0  0  0  0  0  0  0  0
   -2.2245   -2.2764   -0.8841 H   0  0  0  0  0  0  0  0  0  0  0  0
   -4.4426    0.0086   -0.3532 C   0  0  0  0  0  0  0  0  0  0  0  0
   -4.5357    0.5194   -1.3386 H   0  0  0  0  0  0  0  0  0  0  0  0
   -4.5843    0.7694    0.4395 H   0  0  0  0  0  0  0  0  0  0  0  0
   -5.5105   -1.0797   -0.2150 C   0  0  0  0  0  0  0  0  0  0  0  0
   -5.3841   -1.8768   -0.9770 H   0  0  0  0  0  0  0  0  0  0  0  0
   -6.5274   -0.6539   -0.3402 H   0  0  0  0  0  0  0  0  0  0  0  0
   -5.4534   -1.5518    0.7864 H   0  0  0  0  0  0  0  0  0  0  0  0
  1  6  1  0  0  0  0
  4  5  1  0  0  0  0
  5  2  1  0  0  0  0
  5  3  2  0  0  0  0
  6  8  1  0  0  0  0
  6  4  1  0  0  0  0
  7  6  1  0  0  0  0
  9 12  1  0  0  0  0
  9  4  1  0  0  0  0
  9 11  1  0  0  0  0
 10  9  1  0  0  0  0
 12 15  1  0  0  0  0
 13 12  1  0  0  0  0
 14 12  1  0  0  0  0
M  CHG  1   2  -1
M  END
