1,3
 OpenBabel05122313053D

 10  9  0  0  0  0  0  0  0  0999 V2000
    2.0980    1.9218   -0.0248 S   0  0  0  0  0  1  0  0  0  0  0  0
   -3.6431    1.8847   -0.4552 N   0  0  0  0  0  0  0  0  0  0  0  0
   -1.0990    2.3233   -0.1208 C   0  0  0  0  0  3  0  0  0  0  0  0
   -0.7280    3.6634   -0.1121 C   0  0  0  0  0  0  0  0  0  0  0  0
   -1.5538    4.3942   -0.1947 H   0  0  0  0  0  0  0  0  0  0  0  0
    0.5677    4.2573   -0.0342 C   0  0  0  0  0  0  0  0  0  0  0  0
    0.6006    5.3588   -0.0222 H   0  0  0  0  0  0  0  0  0  0  0  0
    1.7795    3.6085   -0.0114 C   0  0  0  0  0  0  0  0  0  0  0  0
    2.7039    4.2117    0.0122 H   0  0  0  0  0  0  0  0  0  0  0  0
   -2.4920    2.1108   -0.2985 C   0  0  0  0  0  0  0  0  0  0  0  0
  1  8  1  0  0  0  0
  2 10  3  0  0  0  0
  3  4  2  0  0  0  0
  4  6  1  0  0  0  0
  5  4  1  0  0  0  0
  6  7  1  0  0  0  0
  6  8  2  0  0  0  0
  8  9  1  0  0  0  0
 10  3  1  0  0  0  0
M  END
