1,2
 OpenBabel05122313053D

 18 18  0  0  0  0  0  0  0  0999 V2000
   -1.0620   -1.3712    3.1460 S   0  0  0  0  0  0  0  0  0  0  0  0
   -1.6655   -1.5961    0.2767 C   0  0  0  0  0  3  0  0  0  0  0  0
   -1.6507   -2.1465   -1.0233 C   0  0  0  0  0  0  0  0  0  0  0  0
   -0.8623   -1.8527   -1.7315 H   0  0  0  0  0  0  0  0  0  0  0  0
   -2.6048   -3.0850   -1.4511 C   0  0  0  0  0  0  0  0  0  0  0  0
   -2.5423   -3.5001   -2.4696 H   0  0  0  0  0  0  0  0  0  0  0  0
   -3.6332   -3.4887   -0.5877 C   0  0  0  0  0  0  0  0  0  0  0  0
   -4.3809   -4.2279   -0.9121 H   0  0  0  0  0  0  0  0  0  0  0  0
   -3.6968   -2.9375    0.7006 C   0  0  0  0  0  0  0  0  0  0  0  0
   -4.4981   -3.2475    1.3909 H   0  0  0  0  0  0  0  0  0  0  0  0
   -2.7367   -2.0008    1.1306 C   0  0  0  0  0  0  0  0  0  0  0  0
   -2.7999   -1.4274    2.5199 C   0  0  0  0  0  0  0  0  0  0  0  0
   -3.4349   -2.0187    3.2092 H   0  0  0  0  0  0  0  0  0  0  0  0
   -3.1579   -0.3759    2.5094 H   0  0  0  0  0  0  0  0  0  0  0  0
   -1.0992    0.0463    4.2861 C   0  0  0  0  0  0  0  0  0  0  0  0
   -1.6774    0.8761    3.8366 H   0  0  0  0  0  0  0  0  0  0  0  0
   -0.0415    0.3598    4.3864 H   0  0  0  0  0  0  0  0  0  0  0  0
   -1.5277   -0.2588    5.2598 H   0  0  0  0  0  0  0  0  0  0  0  0
  1 15  1  0  0  0  0
  2 11  1  0  0  0  0
  3  2  2  0  0  0  0
  4  3  1  0  0  0  0
  5  3  1  0  0  0  0
  5  7  2  0  0  0  0
  6  5  1  0  0  0  0
  7  9  1  0  0  0  0
  8  7  1  0  0  0  0
  9 11  2  0  0  0  0
  9 10  1  0  0  0  0
 11 12  1  0  0  0  0
 12  1  1  0  0  0  0
 12 13  1  0  0  0  0
 14 12  1  0  0  0  0
 15 17  1  0  0  0  0
 15 18  1  0  0  0  0
 16 15  1  0  0  0  0
M  END
