1,2
 OpenBabel05122313053D

 10  9  0  0  0  0  0  0  0  0999 V2000
   -0.2836   -3.2791    0.1780 S   0  0  0  0  0  0  0  0  0  0  0  0
   -1.8028   -2.4016    0.0507 C   0  0  0  0  0  0  0  0  0  0  0  0
   -2.7174   -2.4901    1.2647 C   0  0  0  0  0  0  0  0  0  0  0  0
   -2.5190   -2.4494   -1.2917 C   0  0  0  0  0  0  0  0  0  0  0  0
   -3.9031   -1.8572    1.0659 F   0  0  0  0  0  0  0  0  0  0  0  0
   -3.0144   -3.7697    1.5973 F   0  0  0  0  0  0  0  0  0  0  0  0
   -2.1511   -1.9243    2.3668 F   0  0  0  0  0  0  0  0  0  0  0  0
   -3.2787   -3.5666   -1.4324 F   0  0  0  0  0  0  0  0  0  0  0  0
   -3.3449   -1.3886   -1.4789 F   0  0  0  0  0  0  0  0  0  0  0  0
   -1.6406   -2.4359   -2.3318 F   0  0  0  0  0  0  0  0  0  0  0  0
  2  1  1  0  0  0  0
  2  3  1  0  0  0  0
  3  6  1  0  0  0  0
  3  7  1  0  0  0  0
  4  2  1  0  0  0  0
  5  3  1  0  0  0  0
  8  4  1  0  0  0  0
  9  4  1  0  0  0  0
 10  4  1  0  0  0  0
M  END
