1,7
 OpenBabel05122313053D

 10  9  0  0  0  0  0  0  0  0999 V2000
   -0.3274   -2.7046    0.1525 S   0  0  0  0  0  1  0  0  0  0  0  0
    1.0992   -3.6757    0.1859 C   0  0  0  0  0  0  0  0  0  0  0  0
    0.8714   -4.7521    0.2723 H   0  0  0  0  0  0  0  0  0  0  0  0
    2.4116   -3.2944    0.1125 C   0  0  0  0  0  0  0  0  0  0  0  0
    3.1665   -4.0953    0.1470 H   0  0  0  0  0  0  0  0  0  0  0  0
    2.9164   -1.9429   -0.0230 C   0  0  0  0  0  0  0  0  0  0  0  0
    2.2058   -0.7525   -0.0703 C   0  0  0  0  0  3  0  0  0  0  0  0
    2.8678    0.1243   -0.1861 H   0  0  0  0  0  0  0  0  0  0  0  0
    4.3519   -1.8277   -0.1266 C   0  0  0  0  0  0  0  0  0  0  0  0
    5.5195   -1.7145   -0.2089 N   0  0  0  0  0  0  0  0  0  0  0  0
  1  2  1  0  0  0  0
  2  3  1  0  0  0  0
  4  5  1  0  0  0  0
  4  2  2  0  0  0  0
  6  4  1  0  0  0  0
  7  6  2  0  0  0  0
  8  7  1  0  0  0  0
  9  6  1  0  0  0  0
 10  9  3  0  0  0  0
M  END
