1,2
 OpenBabel05122313053D

 27 28  0  0  0  0  0  0  0  0999 V2000
    1.6459    0.9613   -1.5950 S   0  0  0  0  0  1  0  0  0  0  0  0
    0.7144   -1.7769   -0.9344 C   0  0  0  0  0  3  0  0  0  0  0  0
    0.0967   -2.7970   -1.7019 C   0  0  0  0  0  0  0  0  0  0  0  0
    0.7377   -4.0447   -1.8547 C   0  0  0  0  0  0  0  0  0  0  0  0
    2.0034   -4.2754   -1.3028 C   0  0  0  0  0  0  0  0  0  0  0  0
    2.6620   -3.2354   -0.6351 C   0  0  0  0  0  0  0  0  0  0  0  0
    2.0403   -1.9777   -0.4539 C   0  0  0  0  0  0  0  0  0  0  0  0
    2.8374   -0.8879    0.1727 C   0  0  0  0  0  0  0  0  0  0  0  0
    3.7205   -1.1861    1.2334 C   0  0  0  0  0  0  0  0  0  0  0  0
    4.5964   -0.2248    1.7509 C   0  0  0  0  0  0  0  0  0  0  0  0
    4.6200    1.0562    1.1836 C   0  0  0  0  0  0  0  0  0  0  0  0
    3.7464    1.4096    0.1378 C   0  0  0  0  0  0  0  0  0  0  0  0
    2.8123    0.4469   -0.3438 C   0  0  0  0  0  0  0  0  0  0  0  0
   -1.2143   -2.5627   -2.4159 C   0  0  0  0  0  0  0  0  0  0  0  0
    3.8021    2.7947   -0.4513 C   0  0  0  0  0  0  0  0  0  0  0  0
    0.2353   -4.8411   -2.4289 H   0  0  0  0  0  0  0  0  0  0  0  0
    2.4969   -5.2513   -1.4291 H   0  0  0  0  0  0  0  0  0  0  0  0
    3.6936   -3.3819   -0.2809 H   0  0  0  0  0  0  0  0  0  0  0  0
    3.7073   -2.2011    1.6593 H   0  0  0  0  0  0  0  0  0  0  0  0
    5.2656   -0.4760    2.5877 H   0  0  0  0  0  0  0  0  0  0  0  0
    5.3230    1.8146    1.5642 H   0  0  0  0  0  0  0  0  0  0  0  0
   -1.9411   -3.3883   -2.2604 H   0  0  0  0  0  0  0  0  0  0  0  0
   -1.0470   -2.4857   -3.5116 H   0  0  0  0  0  0  0  0  0  0  0  0
   -1.6684   -1.6053   -2.0934 H   0  0  0  0  0  0  0  0  0  0  0  0
    4.0270    2.7660   -1.5379 H   0  0  0  0  0  0  0  0  0  0  0  0
    4.5745    3.4117    0.0485 H   0  0  0  0  0  0  0  0  0  0  0  0
    2.8204    3.3068   -0.3666 H   0  0  0  0  0  0  0  0  0  0  0  0
  1 13  1  0  0  0  0
  2  7  1  0  0  0  0
  3  2  2  0  0  0  0
  4  3  1  0  0  0  0
  4  5  2  0  0  0  0
  5  6  1  0  0  0  0
  6  7  2  0  0  0  0
  6 18  1  0  0  0  0
  7  8  1  0  0  0  0
  8  9  1  0  0  0  0
  9 19  1  0  0  0  0
  9 10  2  0  0  0  0
 10 20  1  0  0  0  0
 11 21  1  0  0  0  0
 11 10  1  0  0  0  0
 12 11  2  0  0  0  0
 13 12  1  0  0  0  0
 13  8  2  0  0  0  0
 14 22  1  0  0  0  0
 14 24  1  0  0  0  0
 14  3  1  0  0  0  0
 15 27  1  0  0  0  0
 15 26  1  0  0  0  0
 15 12  1  0  0  0  0
 16  4  1  0  0  0  0
 17  5  1  0  0  0  0
 23 14  1  0  0  0  0
 25 15  1  0  0  0  0
M  END
