1,2
 OpenBabel05122313053D

 24 25  0  0  0  0  0  0  0  0999 V2000
   -1.5350   -1.1603   -1.5244 S   0  0  0  0  0  1  0  0  0  0  0  0
   -0.8719    1.7207   -0.9317 C   0  0  0  0  0  3  0  0  0  0  0  0
   -0.3073    2.8127   -1.6259 C   0  0  0  0  0  0  0  0  0  0  0  0
   -1.0419    3.9746   -1.9153 C   0  0  0  0  0  0  0  0  0  0  0  0
   -2.3821    4.0617   -1.5132 C   0  0  0  0  0  0  0  0  0  0  0  0
   -2.9739    2.9739   -0.8581 C   0  0  0  0  0  0  0  0  0  0  0  0
   -2.2457    1.7948   -0.5642 C   0  0  0  0  0  0  0  0  0  0  0  0
   -2.9756    0.6667    0.0741 C   0  0  0  0  0  0  0  0  0  0  0  0
   -3.9324    0.9378    1.0760 C   0  0  0  0  0  0  0  0  0  0  0  0
   -4.7521   -0.0695    1.5983 C   0  0  0  0  0  0  0  0  0  0  0  0
   -4.6415   -1.3716    1.0927 C   0  0  0  0  0  0  0  0  0  0  0  0
   -3.6876   -1.6972    0.1101 C   0  0  0  0  0  0  0  0  0  0  0  0
   -2.8090   -0.6822   -0.3705 C   0  0  0  0  0  0  0  0  0  0  0  0
   -3.5996   -3.1066   -0.4138 C   0  0  0  0  0  0  0  0  0  0  0  0
    0.7402    2.7577   -1.9599 H   0  0  0  0  0  0  0  0  0  0  0  0
   -0.5658    4.8078   -2.4564 H   0  0  0  0  0  0  0  0  0  0  0  0
   -2.9761    4.9624   -1.7318 H   0  0  0  0  0  0  0  0  0  0  0  0
   -4.0428    3.0166   -0.5981 H   0  0  0  0  0  0  0  0  0  0  0  0
   -4.0258    1.9695    1.4487 H   0  0  0  0  0  0  0  0  0  0  0  0
   -5.4822    0.1615    2.3887 H   0  0  0  0  0  0  0  0  0  0  0  0
   -5.2997   -2.1687    1.4744 H   0  0  0  0  0  0  0  0  0  0  0  0
   -4.3435   -3.7633    0.0784 H   0  0  0  0  0  0  0  0  0  0  0  0
   -2.5852   -3.5299   -0.2589 H   0  0  0  0  0  0  0  0  0  0  0  0
   -3.7724   -3.1436   -1.5098 H   0  0  0  0  0  0  0  0  0  0  0  0
  1 13  1  0  0  0  0
  2  7  1  0  0  0  0
  3  2  2  0  0  0  0
  4  3  1  0  0  0  0
  4  5  2  0  0  0  0
  5  6  1  0  0  0  0
  6 18  1  0  0  0  0
  6  7  2  0  0  0  0
  7  8  1  0  0  0  0
  8  9  1  0  0  0  0
  9 19  1  0  0  0  0
  9 10  2  0  0  0  0
 10 20  1  0  0  0  0
 11 21  1  0  0  0  0
 11 10  1  0  0  0  0
 12 11  2  0  0  0  0
 13  8  2  0  0  0  0
 13 12  1  0  0  0  0
 14 23  1  0  0  0  0
 14 22  1  0  0  0  0
 14 12  1  0  0  0  0
 15  3  1  0  0  0  0
 16  4  1  0  0  0  0
 17  5  1  0  0  0  0
 24 14  1  0  0  0  0
M  END
