1,2
 OpenBabel05122313053D

 24 25  0  0  0  0  0  0  0  0999 V2000
    0.6515   -2.0028   -2.4937 S   0  0  0  0  0  1  0  0  0  0  0  0
    1.9293   -1.0996   -1.6034 C   0  0  0  0  0  3  0  0  0  0  0  0
    2.3808    0.2344   -2.1331 C   0  0  0  0  0  0  0  0  0  0  0  0
    1.9286    0.7435   -3.3708 C   0  0  0  0  0  0  0  0  0  0  0  0
    1.2872    0.0976   -3.9892 H   0  0  0  0  0  0  0  0  0  0  0  0
    2.2603    2.0420   -3.7859 C   0  0  0  0  0  0  0  0  0  0  0  0
    1.8916    2.4103   -4.7563 H   0  0  0  0  0  0  0  0  0  0  0  0
    3.0555    2.8694   -2.9769 C   0  0  0  0  0  0  0  0  0  0  0  0
    3.3102    3.8902   -3.3002 H   0  0  0  0  0  0  0  0  0  0  0  0
    3.5222    2.3739   -1.7470 C   0  0  0  0  0  0  0  0  0  0  0  0
    4.1408    3.0084   -1.0930 H   0  0  0  0  0  0  0  0  0  0  0  0
    3.1968    1.0765   -1.3342 C   0  0  0  0  0  0  0  0  0  0  0  0
    3.5508    0.7164   -0.3578 H   0  0  0  0  0  0  0  0  0  0  0  0
    2.9249   -1.9388   -0.8508 C   0  0  0  0  0  0  0  0  0  0  0  0
    2.4943   -2.9417    0.0510 C   0  0  0  0  0  0  0  0  0  0  0  0
    1.4110   -3.0841    0.1877 H   0  0  0  0  0  0  0  0  0  0  0  0
    3.4090   -3.7297    0.7582 C   0  0  0  0  0  0  0  0  0  0  0  0
    3.0398   -4.4962    1.4577 H   0  0  0  0  0  0  0  0  0  0  0  0
    4.7917   -3.5455    0.5803 C   0  0  0  0  0  0  0  0  0  0  0  0
    5.5137   -4.1629    1.1367 H   0  0  0  0  0  0  0  0  0  0  0  0
    5.2378   -2.5736   -0.3273 C   0  0  0  0  0  0  0  0  0  0  0  0
    6.3165   -2.4276   -0.4936 H   0  0  0  0  0  0  0  0  0  0  0  0
    4.3178   -1.7850   -1.0359 C   0  0  0  0  0  0  0  0  0  0  0  0
    4.6875   -1.0359   -1.7507 H   0  0  0  0  0  0  0  0  0  0  0  0
  1  2  1  0  0  0  0
  2 14  1  0  0  0  0
  3  2  1  0  0  0  0
  3 12  1  0  0  0  0
  4  3  2  0  0  0  0
  5  4  1  0  0  0  0
  6  4  1  0  0  0  0
  6  8  2  0  0  0  0
  7  6  1  0  0  0  0
  8 10  1  0  0  0  0
  9  8  1  0  0  0  0
 10 12  2  0  0  0  0
 10 11  1  0  0  0  0
 12 13  1  0  0  0  0
 14 15  1  0  0  0  0
 15 16  1  0  0  0  0
 15 17  2  0  0  0  0
 17 18  1  0  0  0  0
 19 17  1  0  0  0  0
 19 20  1  0  0  0  0
 21 19  2  0  0  0  0
 22 21  1  0  0  0  0
 23 14  2  0  0  0  0
 23 21  1  0  0  0  0
 24 23  1  0  0  0  0
M  END
