1,11
 OpenBabel05122313053D

 33 34  0  0  0  0  0  0  0  0999 V2000
    0.6695    1.6391    0.8391 S   0  0  0  0  0  0  0  0  0  0  0  0
   -1.1027    1.6302    0.5504 C   0  0  0  0  0  0  0  0  0  0  0  0
   -2.0409    2.3022    1.3397 C   0  0  0  0  0  0  0  0  0  0  0  0
   -1.7162    2.9223    2.1882 H   0  0  0  0  0  0  0  0  0  0  0  0
   -3.4065    2.1734    1.0404 C   0  0  0  0  0  0  0  0  0  0  0  0
   -4.1448    2.7182    1.6473 H   0  0  0  0  0  0  0  0  0  0  0  0
   -3.8476    1.3705   -0.0385 C   0  0  0  0  0  0  0  0  0  0  0  0
   -2.8805    0.7054   -0.8204 C   0  0  0  0  0  0  0  0  0  0  0  0
   -3.1926    0.0407   -1.6398 H   0  0  0  0  0  0  0  0  0  0  0  0
   -1.5056    0.8106   -0.5301 C   0  0  0  0  0  0  0  0  0  0  0  0
   -0.4761    0.0689   -1.2546 C   0  0  0  0  0  2  0  0  0  0  0  0
   -0.8031   -0.4847   -2.1603 H   0  0  0  0  0  0  0  0  0  0  0  0
    1.1398    3.4114    0.4048 C   0  0  0  0  0  0  0  0  0  0  0  0
    2.1856    3.2353    0.0728 H   0  0  0  0  0  0  0  0  0  0  0  0
    1.0891    4.2765    1.6591 C   0  0  0  0  0  0  0  0  0  0  0  0
    1.5219    5.2745    1.4364 H   0  0  0  0  0  0  0  0  0  0  0  0
    1.6665    3.8314    2.4935 H   0  0  0  0  0  0  0  0  0  0  0  0
    0.0479    4.4407    2.0056 H   0  0  0  0  0  0  0  0  0  0  0  0
    0.3427    3.9593   -0.7684 C   0  0  0  0  0  0  0  0  0  0  0  0
   -0.7261    4.1021   -0.5114 H   0  0  0  0  0  0  0  0  0  0  0  0
    0.4271    3.2883   -1.6438 H   0  0  0  0  0  0  0  0  0  0  0  0
    0.7611    4.9461   -1.0573 H   0  0  0  0  0  0  0  0  0  0  0  0
   -5.2938    1.1870   -0.3137 C   0  0  0  0  0  0  0  0  0  0  0  0
   -5.7688    1.0235   -1.6352 C   0  0  0  0  0  0  0  0  0  0  0  0
   -5.0613    1.0906   -2.4751 H   0  0  0  0  0  0  0  0  0  0  0  0
   -7.1289    0.8015   -1.8891 C   0  0  0  0  0  0  0  0  0  0  0  0
   -7.4770    0.6832   -2.9265 H   0  0  0  0  0  0  0  0  0  0  0  0
   -8.0462    0.7383   -0.8275 C   0  0  0  0  0  0  0  0  0  0  0  0
   -9.1137    0.5606   -1.0269 H   0  0  0  0  0  0  0  0  0  0  0  0
   -7.5909    0.9067    0.4897 C   0  0  0  0  0  0  0  0  0  0  0  0
   -8.3003    0.8528    1.3296 H   0  0  0  0  0  0  0  0  0  0  0  0
   -6.2306    1.1291    0.7431 C   0  0  0  0  0  0  0  0  0  0  0  0
   -5.8796    1.2253    1.7817 H   0  0  0  0  0  0  0  0  0  0  0  0
  2  1  1  0  0  0  0
  2  3  1  0  0  0  0
  3  4  1  0  0  0  0
  5  3  2  0  0  0  0
  5  6  1  0  0  0  0
  7  5  1  0  0  0  0
  8 10  1  0  0  0  0
  8  7  2  0  0  0  0
  9  8  1  0  0  0  0
 10  2  2  0  0  0  0
 11 10  1  0  0  0  0
 12 11  1  0  0  0  0
 13  1  1  0  0  0  0
 13 15  1  0  0  0  0
 14 13  1  0  0  0  0
 15 18  1  0  0  0  0
 15 17  1  0  0  0  0
 16 15  1  0  0  0  0
 19 20  1  0  0  0  0
 19 13  1  0  0  0  0
 21 19  1  0  0  0  0
 22 19  1  0  0  0  0
 23  7  1  0  0  0  0
 23 32  1  0  0  0  0
 24 23  2  0  0  0  0
 25 24  1  0  0  0  0
 26 24  1  0  0  0  0
 26 28  2  0  0  0  0
 27 26  1  0  0  0  0
 28 30  1  0  0  0  0
 29 28  1  0  0  0  0
 30 32  2  0  0  0  0
 30 31  1  0  0  0  0
 32 33  1  0  0  0  0
M  END
