1,9
 OpenBabel05122313053D

 21 21  0  0  0  0  0  0  0  0999 V2000
   -0.6059   -1.5038   -0.8918 S   0  0  0  0  0  0  0  0  0  0  0  0
   -0.2976    2.5569   -0.1101 O   0  0  0  0  0  0  0  0  0  0  0  0
   -2.0330   -0.5487   -0.3922 C   0  0  0  0  0  0  0  0  0  0  0  0
   -3.3444   -1.0429   -0.3848 C   0  0  0  0  0  0  0  0  0  0  0  0
   -4.3974   -0.1794   -0.0450 C   0  0  0  0  0  0  0  0  0  0  0  0
   -4.1394    1.1713    0.2524 C   0  0  0  0  0  0  0  0  0  0  0  0
   -2.8295    1.6614    0.2223 C   0  0  0  0  0  0  0  0  0  0  0  0
   -1.7484    0.8002   -0.0795 C   0  0  0  0  0  0  0  0  0  0  0  0
   -0.3233    1.2292   -0.0666 C   0  0  0  0  0  2  0  0  0  0  0  0
    0.9332    3.2859   -0.1027 C   0  0  0  0  0  0  0  0  0  0  0  0
   -0.8273   -3.0281    0.0917 C   0  0  0  0  0  0  0  0  0  0  0  0
   -3.5501   -2.0902   -0.6500 H   0  0  0  0  0  0  0  0  0  0  0  0
   -5.4290   -0.5621   -0.0249 H   0  0  0  0  0  0  0  0  0  0  0  0
   -4.9708    1.8438    0.5117 H   0  0  0  0  0  0  0  0  0  0  0  0
   -2.6140    2.7133    0.4563 H   0  0  0  0  0  0  0  0  0  0  0  0
    0.6575    4.3415   -0.2788 H   0  0  0  0  0  0  0  0  0  0  0  0
    1.6058    2.9260   -0.9039 H   0  0  0  0  0  0  0  0  0  0  0  0
    1.4382    3.1816    0.8758 H   0  0  0  0  0  0  0  0  0  0  0  0
    0.1024   -3.6114   -0.0455 H   0  0  0  0  0  0  0  0  0  0  0  0
   -1.6850   -3.6101   -0.2942 H   0  0  0  0  0  0  0  0  0  0  0  0
   -0.9594   -2.7790    1.1608 H   0  0  0  0  0  0  0  0  0  0  0  0
  1  3  1  0  0  0  0
  1 11  1  0  0  0  0
  2 10  1  0  0  0  0
  2  9  1  0  0  0  0
  3  4  2  0  0  0  0
  3  8  1  0  0  0  0
  4  5  1  0  0  0  0
  5 13  1  0  0  0  0
  5  6  2  0  0  0  0
  6 14  1  0  0  0  0
  7  6  1  0  0  0  0
  7 15  1  0  0  0  0
  8  9  1  0  0  0  0
  8  7  2  0  0  0  0
 10 18  1  0  0  0  0
 11 21  1  0  0  0  0
 12  4  1  0  0  0  0
 16 10  1  0  0  0  0
 17 10  1  0  0  0  0
 19 11  1  0  0  0  0
 20 11  1  0  0  0  0
M  END
