1,4
 OpenBabel05122313053D

 28 29  0  0  0  0  0  0  0  0999 V2000
   -1.0907    0.0386    1.3533 S   0  0  0  0  0  0  0  0  0  0  0  0
    1.4827    1.9851    0.6624 N   0  0  0  0  0  0  0  0  0  0  0  0
    2.1276    1.4253   -1.2934 N   0  0  0  0  0  0  0  0  0  0  0  0
    1.5255    0.9116   -0.1701 C   0  0  0  0  0  2  0  0  0  0  0  0
    2.0036    3.1322    0.1335 N   0  0  0  0  0  0  0  0  0  0  0  0
    0.7990    2.0093    1.9460 C   0  0  0  0  0  0  0  0  0  0  0  0
    0.9998    3.0034    2.3883 H   0  0  0  0  0  0  0  0  0  0  0  0
    1.2369    1.2326    2.6060 H   0  0  0  0  0  0  0  0  0  0  0  0
   -0.7047    1.8065    1.7612 C   0  0  0  0  0  0  0  0  0  0  0  0
   -1.0782    2.4595    0.9487 H   0  0  0  0  0  0  0  0  0  0  0  0
   -1.2423    2.0482    2.6988 H   0  0  0  0  0  0  0  0  0  0  0  0
    2.3966    2.7564   -1.0622 C   0  0  0  0  0  0  0  0  0  0  0  0
    2.8845    3.4121   -1.7926 H   0  0  0  0  0  0  0  0  0  0  0  0
   -2.4401    0.2176    0.1624 C   0  0  0  0  0  0  0  0  0  0  0  0
    2.3587    0.7132   -2.5466 C   0  0  0  0  0  0  0  0  0  0  0  0
    2.6264   -0.3334   -2.2962 H   0  0  0  0  0  0  0  0  0  0  0  0
    3.1845    1.2058   -3.0916 H   0  0  0  0  0  0  0  0  0  0  0  0
    1.4399    0.7286   -3.1654 H   0  0  0  0  0  0  0  0  0  0  0  0
   -2.6225   -0.8168   -0.7748 C   0  0  0  0  0  0  0  0  0  0  0  0
   -1.9284   -1.6740   -0.7767 H   0  0  0  0  0  0  0  0  0  0  0  0
   -3.3431    1.2946    0.2290 C   0  0  0  0  0  0  0  0  0  0  0  0
   -3.2378    2.0846    0.9859 H   0  0  0  0  0  0  0  0  0  0  0  0
   -3.6997   -0.7442   -1.6685 C   0  0  0  0  0  0  0  0  0  0  0  0
   -3.8382   -1.5508   -2.4042 H   0  0  0  0  0  0  0  0  0  0  0  0
   -4.5912    0.3406   -1.6321 C   0  0  0  0  0  0  0  0  0  0  0  0
   -5.4309    0.3921   -2.3412 H   0  0  0  0  0  0  0  0  0  0  0  0
   -4.4122    1.3541   -0.6797 C   0  0  0  0  0  0  0  0  0  0  0  0
   -5.1135    2.2009   -0.6311 H   0  0  0  0  0  0  0  0  0  0  0  0
  1  9  1  0  0  0  0
  2  6  1  0  0  0  0
  3 12  1  0  0  0  0
  3  4  1  0  0  0  0
  4  2  1  0  0  0  0
  5  2  1  0  0  0  0
  6  7  1  0  0  0  0
  6  8  1  0  0  0  0
  9  6  1  0  0  0  0
  9 11  1  0  0  0  0
 10  9  1  0  0  0  0
 12  5  2  0  0  0  0
 13 12  1  0  0  0  0
 14 21  1  0  0  0  0
 14  1  1  0  0  0  0
 15 16  1  0  0  0  0
 15  3  1  0  0  0  0
 17 15  1  0  0  0  0
 18 15  1  0  0  0  0
 19 14  2  0  0  0  0
 20 19  1  0  0  0  0
 21 22  1  0  0  0  0
 23 25  2  0  0  0  0
 23 19  1  0  0  0  0
 24 23  1  0  0  0  0
 25 27  1  0  0  0  0
 26 25  1  0  0  0  0
 27 28  1  0  0  0  0
 27 21  2  0  0  0  0
M  END
