1,2
 OpenBabel05122313053D

 17 16  0  0  0  0  0  0  0  0999 V2000
    3.4199    0.0632   -0.1448 S   0  0  0  0  0  0  0  0  0  0  0  0
    2.5705    0.6850   -1.5733 C   0  0  0  0  0  3  0  0  0  0  0  0
    2.3875   -0.0517   -2.3805 H   0  0  0  0  0  0  0  0  0  0  0  0
    3.0302    1.6178   -1.9502 H   0  0  0  0  0  0  0  0  0  0  0  0
    3.6777   -1.8097   -0.3259 C   0  0  0  0  0  0  0  0  0  0  0  0
    2.5335   -2.4456   -1.0975 C   0  0  0  0  0  0  0  0  0  0  0  0
    2.6594   -3.5480   -1.0987 H   0  0  0  0  0  0  0  0  0  0  0  0
    2.5023   -2.1227   -2.1552 H   0  0  0  0  0  0  0  0  0  0  0  0
    1.5547   -2.2181   -0.6343 H   0  0  0  0  0  0  0  0  0  0  0  0
    5.0284   -1.9891   -1.0237 C   0  0  0  0  0  0  0  0  0  0  0  0
    5.2596   -3.0723   -1.1033 H   0  0  0  0  0  0  0  0  0  0  0  0
    5.8509   -1.5036   -0.4612 H   0  0  0  0  0  0  0  0  0  0  0  0
    5.0099   -1.5695   -2.0494 H   0  0  0  0  0  0  0  0  0  0  0  0
    3.7057   -2.3100    1.1227 C   0  0  0  0  0  0  0  0  0  0  0  0
    3.9532   -3.3917    1.1290 H   0  0  0  0  0  0  0  0  0  0  0  0
    2.7154   -2.1782    1.6025 H   0  0  0  0  0  0  0  0  0  0  0  0
    4.4707   -1.7825    1.7286 H   0  0  0  0  0  0  0  0  0  0  0  0
  2  1  1  0  0  0  0
  3  2  1  0  0  0  0
  4  2  1  0  0  0  0
  5  1  1  0  0  0  0
  5 14  1  0  0  0  0
  6  9  1  0  0  0  0
  6  5  1  0  0  0  0
  7  6  1  0  0  0  0
  8  6  1  0  0  0  0
 10 12  1  0  0  0  0
 10  5  1  0  0  0  0
 11 10  1  0  0  0  0
 13 10  1  0  0  0  0
 14 15  1  0  0  0  0
 14 16  1  0  0  0  0
 14 17  1  0  0  0  0
M  END
