1,9
 OpenBabel05122313053D

 32 32  0  0  1  0  0  0  0  0999 V2000
   -0.9566   -1.4444   -1.5511 S   0  0  0  0  0  0  0  0  0  0  0  0
    0.6076   -2.1680   -2.1812 C   0  0  0  0  0  0  0  0  0  0  0  0
    0.3248   -2.9768   -2.8886 H   0  0  0  0  0  0  0  0  0  0  0  0
    1.0622   -1.3457   -2.7710 H   0  0  0  0  0  0  0  0  0  0  0  0
    1.5924   -2.6587   -1.1026 C   0  0  0  0  0  0  0  0  0  0  0  0
    1.1195   -3.4791   -0.5207 H   0  0  0  0  0  0  0  0  0  0  0  0
    2.4371   -3.1345   -1.6480 H   0  0  0  0  0  0  0  0  0  0  0  0
    2.1131   -1.5864   -0.1922 C   0  0  0  0  0  0  0  0  0  0  0  0
    1.5341   -1.2159    1.1060 C   0  0  2  0  0  3  0  0  0  0  0  0
    2.3657   -0.1174    1.6166 C   0  0  0  0  0  0  0  0  0  0  0  0
    3.3473    0.1752    0.6552 C   0  0  0  0  0  0  0  0  0  0  0  0
    3.1839   -0.7200   -0.4635 C   0  0  0  0  0  0  0  0  0  0  0  0
    3.9930   -0.6611   -1.7267 C   0  0  0  0  0  0  0  0  0  0  0  0
    3.8833   -1.5835   -2.3326 H   0  0  0  0  0  0  0  0  0  0  0  0
    5.0762   -0.5323   -1.5193 H   0  0  0  0  0  0  0  0  0  0  0  0
    3.6903    0.1886   -2.3812 H   0  0  0  0  0  0  0  0  0  0  0  0
    4.4379    1.2021    0.7797 C   0  0  0  0  0  0  0  0  0  0  0  0
    4.1853    1.9907    1.5177 H   0  0  0  0  0  0  0  0  0  0  0  0
    4.6667    1.7039   -0.1852 H   0  0  0  0  0  0  0  0  0  0  0  0
    5.3968    0.7493    1.1194 H   0  0  0  0  0  0  0  0  0  0  0  0
    2.2767    0.4513    3.0031 C   0  0  0  0  0  0  0  0  0  0  0  0
    2.9886   -0.0442    3.7020 H   0  0  0  0  0  0  0  0  0  0  0  0
    1.2657    0.3254    3.4399 H   0  0  0  0  0  0  0  0  0  0  0  0
    2.5117    1.5360    3.0292 H   0  0  0  0  0  0  0  0  0  0  0  0
    0.9206   -2.2408    2.0456 C   0  0  0  0  0  0  0  0  0  0  0  0
    0.1876   -2.8997    1.5375 H   0  0  0  0  0  0  0  0  0  0  0  0
    0.3815   -1.7690    2.8900 H   0  0  0  0  0  0  0  0  0  0  0  0
    1.7043   -2.8999    2.4826 H   0  0  0  0  0  0  0  0  0  0  0  0
   -1.7371   -2.9213   -0.8356 C   0  0  0  0  0  0  0  0  0  0  0  0
   -1.9091   -3.6726   -1.6308 H   0  0  0  0  0  0  0  0  0  0  0  0
   -2.7012   -2.5910   -0.4134 H   0  0  0  0  0  0  0  0  0  0  0  0
   -1.1186   -3.3539   -0.0275 H   0  0  0  0  0  0  0  0  0  0  0  0
  1 29  1  0  0  0  0
  2  1  1  0  0  0  0
  2  5  1  0  0  0  0
  3  2  1  0  0  0  0
  4  2  1  0  0  0  0
  5  6  1  0  0  0  0
  5  8  1  0  0  0  0
  7  5  1  0  0  0  0
  8  9  1  0  0  0  0
  9 10  1  0  0  0  0
  9 25  1  1  0  0  0
 10 21  1  0  0  0  0
 11 17  1  0  0  0  0
 11 10  2  0  0  0  0
 12  8  2  0  0  0  0
 12 11  1  0  0  0  0
 13 15  1  0  0  0  0
 13 12  1  0  0  0  0
 14 13  1  0  0  0  0
 16 13  1  0  0  0  0
 17 20  1  0  0  0  0
 17 18  1  0  0  0  0
 19 17  1  0  0  0  0
 21 24  1  0  0  0  0
 21 23  1  0  0  0  0
 21 22  1  0  0  0  0
 25 28  1  0  0  0  0
 25 27  1  0  0  0  0
 26 25  1  0  0  0  0
 29 31  1  0  0  0  0
 29 32  1  0  0  0  0
 30 29  1  0  0  0  0
M  END
