1,12
 OpenBabel05122313053D

 24 24  0  0  0  0  0  0  0  0999 V2000
    0.1255    1.7881    0.2106 S   0  0  0  0  0  0  0  0  0  0  0  0
   -1.5548    2.2178   -0.2801 C   0  0  0  0  0  0  0  0  0  0  0  0
   -2.2313    3.3560    0.1675 C   0  0  0  0  0  0  0  0  0  0  0  0
   -1.7399    4.0673    0.8493 H   0  0  0  0  0  0  0  0  0  0  0  0
   -3.5503    3.5766   -0.2696 C   0  0  0  0  0  0  0  0  0  0  0  0
   -4.0936    4.4722    0.0682 H   0  0  0  0  0  0  0  0  0  0  0  0
   -4.1720    2.6599   -1.1371 C   0  0  0  0  0  0  0  0  0  0  0  0
   -5.2003    2.8469   -1.4826 H   0  0  0  0  0  0  0  0  0  0  0  0
   -3.4908    1.5117   -1.5620 C   0  0  0  0  0  0  0  0  0  0  0  0
   -3.9738    0.7838   -2.2313 H   0  0  0  0  0  0  0  0  0  0  0  0
   -2.1667    1.2683   -1.1304 C   0  0  0  0  0  0  0  0  0  0  0  0
   -1.3931    0.0905   -1.5104 C   0  0  0  0  0  2  0  0  0  0  0  0
   -1.8536   -0.5901   -2.2572 H   0  0  0  0  0  0  0  0  0  0  0  0
    1.0121    3.1976   -0.6110 C   0  0  0  0  0  0  0  0  0  0  0  0
    0.9532    3.0188   -1.7010 H   0  0  0  0  0  0  0  0  0  0  0  0
    0.4622    4.1141   -0.3215 H   0  0  0  0  0  0  0  0  0  0  0  0
    2.4625    3.2897   -0.1863 C   0  0  0  0  0  0  0  0  0  0  0  0
    2.9898    2.3317   -0.4046 H   0  0  0  0  0  0  0  0  0  0  0  0
    2.9413    4.0782   -0.8203 H   0  0  0  0  0  0  0  0  0  0  0  0
    2.5471    3.6410    1.1854 O   0  0  0  0  0  0  0  0  0  0  0  0
    3.8475    4.0215    1.5690 C   0  0  0  0  0  0  0  0  0  0  0  0
    4.5995    3.2157    1.3888 H   0  0  0  0  0  0  0  0  0  0  0  0
    3.8272    4.2498    2.6524 H   0  0  0  0  0  0  0  0  0  0  0  0
    4.1925    4.9305    1.0179 H   0  0  0  0  0  0  0  0  0  0  0  0
  2  3  1  0  0  0  0
  2  1  1  0  0  0  0
  3  4  1  0  0  0  0
  5  6  1  0  0  0  0
  5  3  2  0  0  0  0
  7  5  1  0  0  0  0
  8  7  1  0  0  0  0
  9  7  2  0  0  0  0
  9 11  1  0  0  0  0
 10  9  1  0  0  0  0
 11  2  2  0  0  0  0
 12 11  1  0  0  0  0
 13 12  1  0  0  0  0
 14 16  1  0  0  0  0
 14 17  1  0  0  0  0
 14  1  1  0  0  0  0
 15 14  1  0  0  0  0
 17 20  1  0  0  0  0
 18 17  1  0  0  0  0
 19 17  1  0  0  0  0
 20 21  1  0  0  0  0
 21 23  1  0  0  0  0
 22 21  1  0  0  0  0
 24 21  1  0  0  0  0
M  END
