1,2
 OpenBabel05122313053D

 17 17  0  0  0  0  0  0  0  0999 V2000
    0.8174    2.5680   -0.8893 S   0  0  0  0  0  1  0  0  0  0  0  0
   -1.9134    1.2470   -0.9791 C   0  0  0  0  0  3  0  0  0  0  0  0
   -1.9232    2.7590   -1.0538 C   0  0  0  0  0  0  0  0  0  0  0  0
   -0.6985    3.4620   -1.1390 C   0  0  0  0  0  0  0  0  0  0  0  0
   -0.6890    4.8542   -1.3619 C   0  0  0  0  0  0  0  0  0  0  0  0
   -1.8985    5.5582   -1.4553 C   0  0  0  0  0  0  0  0  0  0  0  0
   -3.1222    4.8789   -1.3331 C   0  0  0  0  0  0  0  0  0  0  0  0
   -3.1244    3.4869   -1.1421 C   0  0  0  0  0  0  0  0  0  0  0  0
   -2.1045    0.6540   -2.3900 C   0  0  0  0  0  0  0  0  0  0  0  0
   -2.7632    0.9153   -0.3414 H   0  0  0  0  0  0  0  0  0  0  0  0
    0.2739    5.3835   -1.4318 H   0  0  0  0  0  0  0  0  0  0  0  0
   -1.8833    6.6485   -1.6099 H   0  0  0  0  0  0  0  0  0  0  0  0
   -4.0727    5.4311   -1.3894 H   0  0  0  0  0  0  0  0  0  0  0  0
   -4.0814    2.9441   -1.0639 H   0  0  0  0  0  0  0  0  0  0  0  0
   -2.1241   -0.4542   -2.3822 H   0  0  0  0  0  0  0  0  0  0  0  0
   -1.2911    0.9813   -3.0689 H   0  0  0  0  0  0  0  0  0  0  0  0
   -3.0643    1.0034   -2.8330 H   0  0  0  0  0  0  0  0  0  0  0  0
  2 10  1  0  0  0  0
  3  2  1  0  0  0  0
  4  3  1  0  0  0  0
  4  1  1  0  0  0  0
  5  4  2  0  0  0  0
  6  5  1  0  0  0  0
  6  7  2  0  0  0  0
  7  8  1  0  0  0  0
  8 14  1  0  0  0  0
  8  3  2  0  0  0  0
  9 15  1  0  0  0  0
  9  2  1  0  0  0  0
 11  5  1  0  0  0  0
 12  6  1  0  0  0  0
 13  7  1  0  0  0  0
 16  9  1  0  0  0  0
 17  9  1  0  0  0  0
M  END
