2,8
 OpenBabel05122313053D

 34 33  0  0  0  0  0  0  0  0999 V2000
    1.9751   -0.0048   -1.3007 S   0  0  0  0  0  0  0  0  0  0  0  0
    0.9835   -0.8534    1.7700 S   0  0  0  0  0  1  0  0  0  0  0  0
    5.3713   -1.2746    0.3246 O   0  0  0  0  0  0  0  0  0  0  0  0
    4.7056   -0.6526   -1.7606 O   0  0  0  0  0  0  0  0  0  0  0  0
    3.5520   -3.2296    1.7795 O   0  0  0  0  0  0  0  0  0  0  0  0
    3.9029   -1.4059    3.0885 O   0  0  0  0  0  0  0  0  0  0  0  0
    0.5897   -2.3876   -1.4424 N   0  0  0  0  0  0  0  0  0  0  0  0
    0.5840   -1.0962   -1.1222 C   0  0  0  0  0  2  0  0  0  0  0  0
    3.0765   -0.7120   -0.0659 C   0  0  0  0  0  0  0  0  0  0  0  0
    2.5710   -1.1326    1.1475 C   0  0  0  0  0  0  0  0  0  0  0  0
   -0.4806   -3.2513   -0.9067 C   0  0  0  0  0  0  0  0  0  0  0  0
   -1.4417   -3.7704   -1.9709 C   0  0  0  0  0  0  0  0  0  0  0  0
    1.6587   -3.0231   -2.2339 C   0  0  0  0  0  0  0  0  0  0  0  0
    2.4147   -4.1154   -1.4784 C   0  0  0  0  0  0  0  0  0  0  0  0
    4.4836   -0.9166   -0.4377 C   0  0  0  0  0  0  0  0  0  0  0  0
    3.4111   -2.0430    2.0161 C   0  0  0  0  0  0  0  0  0  0  0  0
    6.0632   -0.7953   -2.1853 C   0  0  0  0  0  0  0  0  0  0  0  0
    4.7541   -2.2006    3.9258 C   0  0  0  0  0  0  0  0  0  0  0  0
    0.0078   -4.0884   -0.3661 H   0  0  0  0  0  0  0  0  0  0  0  0
   -1.0201   -2.6499   -0.1503 H   0  0  0  0  0  0  0  0  0  0  0  0
   -2.2188   -4.3973   -1.4904 H   0  0  0  0  0  0  0  0  0  0  0  0
   -1.9535   -2.9273   -2.4752 H   0  0  0  0  0  0  0  0  0  0  0  0
   -0.9309   -4.3913   -2.7345 H   0  0  0  0  0  0  0  0  0  0  0  0
    1.2072   -3.4262   -3.1665 H   0  0  0  0  0  0  0  0  0  0  0  0
    2.3534   -2.2156   -2.5348 H   0  0  0  0  0  0  0  0  0  0  0  0
    3.2808   -4.4411   -2.0883 H   0  0  0  0  0  0  0  0  0  0  0  0
    2.7951   -3.7533   -0.5012 H   0  0  0  0  0  0  0  0  0  0  0  0
    1.7901   -5.0126   -1.2966 H   0  0  0  0  0  0  0  0  0  0  0  0
    6.0771   -0.5372   -3.2593 H   0  0  0  0  0  0  0  0  0  0  0  0
    6.7312   -0.1174   -1.6158 H   0  0  0  0  0  0  0  0  0  0  0  0
    6.4188   -1.8346   -2.0322 H   0  0  0  0  0  0  0  0  0  0  0  0
    5.6526   -2.5167    3.3587 H   0  0  0  0  0  0  0  0  0  0  0  0
    5.0392   -1.5530    4.7734 H   0  0  0  0  0  0  0  0  0  0  0  0
    4.2234   -3.1046    4.2854 H   0  0  0  0  0  0  0  0  0  0  0  0
  1  8  1  0  0  0  0
  1  9  1  0  0  0  0
  4 15  1  0  0  0  0
  5 16  2  0  0  0  0
  6 18  1  0  0  0  0
  7  8  1  0  0  0  0
  7 11  1  0  0  0  0
  9 10  2  0  0  0  0
 10  2  1  0  0  0  0
 10 16  1  0  0  0  0
 11 19  1  0  0  0  0
 11 20  1  0  0  0  0
 12 21  1  0  0  0  0
 12 11  1  0  0  0  0
 13 14  1  0  0  0  0
 13  7  1  0  0  0  0
 14 28  1  0  0  0  0
 14 27  1  0  0  0  0
 15  9  1  0  0  0  0
 15  3  2  0  0  0  0
 16  6  1  0  0  0  0
 17 31  1  0  0  0  0
 17  4  1  0  0  0  0
 17 30  1  0  0  0  0
 18 34  1  0  0  0  0
 18 33  1  0  0  0  0
 22 12  1  0  0  0  0
 23 12  1  0  0  0  0
 24 13  1  0  0  0  0
 25 13  1  0  0  0  0
 26 14  1  0  0  0  0
 29 17  1  0  0  0  0
 32 18  1  0  0  0  0
M  END
