1,4
 OpenBabel05122313053D

 29 30  0  0  0  0  0  0  0  0999 V2000
   -0.9104   -1.6479    0.4609 S   0  0  0  0  0  0  0  0  0  0  0  0
   -0.0374    2.6188    0.8656 N   0  0  0  0  0  0  0  0  0  0  0  0
   -1.2323    1.7788   -0.7325 N   0  0  0  0  0  0  0  0  0  0  0  0
   -0.1779    1.5022    0.0924 C   0  0  0  0  0  2  0  0  0  0  0  0
   -0.9813    3.5780    0.5196 C   0  0  0  0  0  0  0  0  0  0  0  0
   -1.0222    4.5563    1.0075 H   0  0  0  0  0  0  0  0  0  0  0  0
   -1.7476    3.0441   -0.4829 C   0  0  0  0  0  0  0  0  0  0  0  0
   -2.6038    3.4511   -1.0281 H   0  0  0  0  0  0  0  0  0  0  0  0
    0.9875    2.8045    1.8853 C   0  0  0  0  0  0  0  0  0  0  0  0
    1.2698    1.8159    2.2887 H   0  0  0  0  0  0  0  0  0  0  0  0
    0.5811    3.4424    2.6928 H   0  0  0  0  0  0  0  0  0  0  0  0
    1.8937    3.2581    1.4404 H   0  0  0  0  0  0  0  0  0  0  0  0
   -1.8670    0.7520   -1.5587 C   0  0  0  0  0  0  0  0  0  0  0  0
   -1.0573    0.0850   -1.9122 H   0  0  0  0  0  0  0  0  0  0  0  0
   -2.3266    1.2430   -2.4374 H   0  0  0  0  0  0  0  0  0  0  0  0
   -2.9143    0.0161   -0.7481 C   0  0  0  0  0  0  0  0  0  0  0  0
   -4.2663    0.3878   -0.8733 C   0  0  0  0  0  0  0  0  0  0  0  0
   -4.5415    1.1419   -1.6281 H   0  0  0  0  0  0  0  0  0  0  0  0
   -5.2612   -0.1755   -0.0610 C   0  0  0  0  0  0  0  0  0  0  0  0
   -6.3103    0.1318   -0.1849 H   0  0  0  0  0  0  0  0  0  0  0  0
   -4.9105   -1.1227    0.9105 C   0  0  0  0  0  0  0  0  0  0  0  0
   -5.6789   -1.5656    1.5616 H   0  0  0  0  0  0  0  0  0  0  0  0
   -3.5700   -1.5124    1.0481 C   0  0  0  0  0  0  0  0  0  0  0  0
   -3.2805   -2.2634    1.7988 H   0  0  0  0  0  0  0  0  0  0  0  0
   -2.5745   -0.9599    0.2221 C   0  0  0  0  0  0  0  0  0  0  0  0
   -0.9177   -2.7977   -0.9680 C   0  0  0  0  0  0  0  0  0  0  0  0
   -1.7295   -3.5326   -0.8115 H   0  0  0  0  0  0  0  0  0  0  0  0
    0.0830   -3.2715   -0.9457 H   0  0  0  0  0  0  0  0  0  0  0  0
   -1.0611   -2.2480   -1.9167 H   0  0  0  0  0  0  0  0  0  0  0  0
  2  9  1  0  0  0  0
  3  7  1  0  0  0  0
  3  4  1  0  0  0  0
  4  2  1  0  0  0  0
  5  2  1  0  0  0  0
  5  6  1  0  0  0  0
  7  5  2  0  0  0  0
  8  7  1  0  0  0  0
  9 10  1  0  0  0  0
  9 11  1  0  0  0  0
 12  9  1  0  0  0  0
 13 16  1  0  0  0  0
 13  3  1  0  0  0  0
 14 13  1  0  0  0  0
 15 13  1  0  0  0  0
 16 25  1  0  0  0  0
 17 16  2  0  0  0  0
 17 19  1  0  0  0  0
 18 17  1  0  0  0  0
 19 21  2  0  0  0  0
 20 19  1  0  0  0  0
 21 23  1  0  0  0  0
 21 22  1  0  0  0  0
 23 24  1  0  0  0  0
 25  1  1  0  0  0  0
 25 23  2  0  0  0  0
 26 28  1  0  0  0  0
 26 27  1  0  0  0  0
 26  1  1  0  0  0  0
 29 26  1  0  0  0  0
M  END
