1,51
 OpenBabel05122313053D

 51 53  0  0  1  0  0  0  0  0999 V2000
   -0.1192    1.1177   -0.1511 C   0  0  0  0  0  2  0  0  0  0  0  0
    0.4392    2.7767    1.3236 C   0  0  0  0  0  0  0  0  0  0  0  0
    1.0470    3.2945    2.0708 H   0  0  0  0  0  0  0  0  0  0  0  0
   -0.6998    3.1567    0.6644 C   0  0  0  0  0  0  0  0  0  0  0  0
   -1.2887    4.0732    0.7461 H   0  0  0  0  0  0  0  0  0  0  0  0
   -2.3410    1.9978   -0.9095 C   0  0  1  0  0  0  0  0  0  0  0  0
   -2.1103    1.4245   -1.8302 H   0  0  0  0  0  0  0  0  0  0  0  0
   -3.2492    1.1415   -0.0316 C   0  0  0  0  0  0  0  0  0  0  0  0
   -3.7423    1.6187    1.1990 C   0  0  0  0  0  0  0  0  0  0  0  0
   -3.5165    2.6467    1.5245 H   0  0  0  0  0  0  0  0  0  0  0  0
   -4.5113    0.7897    2.0294 C   0  0  0  0  0  0  0  0  0  0  0  0
   -4.8900    1.1744    2.9888 H   0  0  0  0  0  0  0  0  0  0  0  0
   -4.7954   -0.5291    1.6370 C   0  0  0  0  0  0  0  0  0  0  0  0
   -5.3963   -1.1812    2.2893 H   0  0  0  0  0  0  0  0  0  0  0  0
   -4.3107   -1.0100    0.4109 C   0  0  0  0  0  0  0  0  0  0  0  0
   -4.5242   -2.0431    0.0970 H   0  0  0  0  0  0  0  0  0  0  0  0
   -3.5403   -0.1810   -0.4203 C   0  0  0  0  0  0  0  0  0  0  0  0
   -3.1327   -0.5601   -1.3704 H   0  0  0  0  0  0  0  0  0  0  0  0
   -2.9271    3.3528   -1.2921 C   0  0  0  0  0  0  0  0  0  0  0  0
   -3.2329    3.9589   -0.4150 H   0  0  0  0  0  0  0  0  0  0  0  0
   -3.8354    3.1853   -1.9016 H   0  0  0  0  0  0  0  0  0  0  0  0
   -2.2089    3.9392   -1.8989 H   0  0  0  0  0  0  0  0  0  0  0  0
    1.8336    0.6600    1.3071 C   0  0  1  0  0  0  0  0  0  0  0  0
    1.8970    0.7564    2.4093 H   0  0  0  0  0  0  0  0  0  0  0  0
    3.1853    0.9105    0.6805 C   0  0  0  0  0  0  0  0  0  0  0  0
    3.3142    1.0800   -0.7126 C   0  0  0  0  0  0  0  0  0  0  0  0
    2.4187    1.0366   -1.3528 H   0  0  0  0  0  0  0  0  0  0  0  0
    4.5820    1.2748   -1.2773 C   0  0  0  0  0  0  0  0  0  0  0  0
    4.6763    1.3996   -2.3663 H   0  0  0  0  0  0  0  0  0  0  0  0
    5.7251    1.3029   -0.4615 C   0  0  0  0  0  0  0  0  0  0  0  0
    6.7184    1.4560   -0.9097 H   0  0  0  0  0  0  0  0  0  0  0  0
    5.5994    1.1332    0.9261 C   0  0  0  0  0  0  0  0  0  0  0  0
    6.4915    1.1554    1.5700 H   0  0  0  0  0  0  0  0  0  0  0  0
    4.3328    0.9361    1.4949 C   0  0  0  0  0  0  0  0  0  0  0  0
    4.2331    0.7985    2.5837 H   0  0  0  0  0  0  0  0  0  0  0  0
    0.1739   -1.5704    2.3753 C   0  0  0  0  0  0  0  0  0  0  0  0
   -0.9360   -0.5425    2.5805 C   0  0  0  0  0  0  0  0  0  0  0  0
   -1.5390   -0.4136    1.6614 H   0  0  0  0  0  0  0  0  0  0  0  0
   -0.5524    0.4477    2.8968 H   0  0  0  0  0  0  0  0  0  0  0  0
   -1.6142   -0.9050    3.3809 H   0  0  0  0  0  0  0  0  0  0  0  0
   -0.4035   -2.9237    1.9424 C   0  0  0  0  0  0  0  0  0  0  0  0
    0.3918   -3.6586    1.7079 H   0  0  0  0  0  0  0  0  0  0  0  0
   -1.0343   -2.8187    1.0385 H   0  0  0  0  0  0  0  0  0  0  0  0
   -1.0219   -3.3253    2.7717 H   0  0  0  0  0  0  0  0  0  0  0  0
    1.0705   -1.7172    3.6089 C   0  0  0  0  0  0  0  0  0  0  0  0
    0.4596   -2.0851    4.4595 H   0  0  0  0  0  0  0  0  0  0  0  0
    1.5172   -0.7519    3.9251 H   0  0  0  0  0  0  0  0  0  0  0  0
    1.8886   -2.4436    3.4343 H   0  0  0  0  0  0  0  0  0  0  0  0
   -1.0284    2.1388   -0.2256 N   0  0  0  0  0  0  0  0  0  0  0  0
    0.7736    1.5260    0.8211 N   0  0  0  0  0  0  0  0  0  0  0  0
    1.3311   -1.1127    0.9300 S   0  0  0  0  0  0  0  0  0  0  0  0
  1 50  1  0  0  0  0
  2  3  1  0  0  0  0
  4  5  1  0  0  0  0
  4  2  2  0  0  0  0
  6  7  1  6  0  0  0
  6 49  1  0  0  0  0
  6  8  1  0  0  0  0
  8  9  1  0  0  0  0
  9 10  1  0  0  0  0
  9 11  2  0  0  0  0
 11 12  1  0  0  0  0
 13 11  1  0  0  0  0
 13 14  1  0  0  0  0
 15 13  2  0  0  0  0
 16 15  1  0  0  0  0
 17  8  2  0  0  0  0
 17 15  1  0  0  0  0
 18 17  1  0  0  0  0
 19  6  1  0  0  0  0
 19 20  1  0  0  0  0
 21 19  1  0  0  0  0
 22 19  1  0  0  0  0
 23 24  1  1  0  0  0
 25 23  1  0  0  0  0
 25 34  1  0  0  0  0
 26 25  2  0  0  0  0
 27 26  1  0  0  0  0
 28 26  1  0  0  0  0
 28 30  2  0  0  0  0
 29 28  1  0  0  0  0
 30 32  1  0  0  0  0
 31 30  1  0  0  0  0
 32 34  2  0  0  0  0
 32 33  1  0  0  0  0
 34 35  1  0  0  0  0
 36 37  1  0  0  0  0
 36 45  1  0  0  0  0
 37 39  1  0  0  0  0
 37 40  1  0  0  0  0
 38 37  1  0  0  0  0
 41 36  1  0  0  0  0
 41 44  1  0  0  0  0
 42 41  1  0  0  0  0
 43 41  1  0  0  0  0
 45 47  1  0  0  0  0
 45 46  1  0  0  0  0
 48 45  1  0  0  0  0
 49  1  1  0  0  0  0
 49  4  1  0  0  0  0
 50 23  1  0  0  0  0
 50  2  1  0  0  0  0
 51 23  1  0  0  0  0
 51 36  1  0  0  0  0
M  END
