1,5
 OpenBabel05122313053D

 28 28  0  0  1  0  0  0  0  0999 V2000
    0.1328    1.7139   -1.9314 S   0  0  0  0  0  1  0  0  0  0  0  0
    1.8626    2.3360   -1.8388 C   0  0  0  0  0  0  0  0  0  0  0  0
    2.8520    1.1699   -1.7255 C   0  0  0  0  0  0  0  0  0  0  0  0
    2.4410    0.1822   -0.6648 C   0  0  0  0  0  0  0  0  0  0  0  0
    1.9616   -1.1528   -0.8928 C   0  0  2  0  0  3  0  0  0  0  0  0
    2.4500    0.4210    0.7483 C   0  0  0  0  0  0  0  0  0  0  0  0
    1.6936   -1.7465    0.3905 C   0  0  0  0  0  0  0  0  0  0  0  0
    1.8730   -1.8267   -2.2332 C   0  0  0  0  0  0  0  0  0  0  0  0
    2.8763   -2.1446   -2.5910 H   0  0  0  0  0  0  0  0  0  0  0  0
    1.4429   -1.1508   -2.9986 H   0  0  0  0  0  0  0  0  0  0  0  0
    1.2399   -2.7339   -2.1958 H   0  0  0  0  0  0  0  0  0  0  0  0
    1.9661   -0.7647    1.3986 C   0  0  0  0  0  0  0  0  0  0  0  0
    3.0629    1.6001    1.4456 C   0  0  0  0  0  0  0  0  0  0  0  0
    4.1204    1.3746    1.7058 H   0  0  0  0  0  0  0  0  0  0  0  0
    2.5313    1.8509    2.3834 H   0  0  0  0  0  0  0  0  0  0  0  0
    3.0585    2.5078    0.8145 H   0  0  0  0  0  0  0  0  0  0  0  0
    1.9292   -0.9982    2.8800 C   0  0  0  0  0  0  0  0  0  0  0  0
    2.9157   -1.3555    3.2494 H   0  0  0  0  0  0  0  0  0  0  0  0
    1.1786   -1.7635    3.1575 H   0  0  0  0  0  0  0  0  0  0  0  0
    1.6751   -0.0716    3.4297 H   0  0  0  0  0  0  0  0  0  0  0  0
    1.4834   -3.2044    0.6764 C   0  0  0  0  0  0  0  0  0  0  0  0
    2.4353   -3.6489    1.0404 H   0  0  0  0  0  0  0  0  0  0  0  0
    1.1824   -3.7726   -0.2211 H   0  0  0  0  0  0  0  0  0  0  0  0
    0.7283   -3.3858    1.4660 H   0  0  0  0  0  0  0  0  0  0  0  0
    2.9198    0.6510   -2.7025 H   0  0  0  0  0  0  0  0  0  0  0  0
    3.8703    1.5623   -1.5056 H   0  0  0  0  0  0  0  0  0  0  0  0
    2.0579    2.9560   -2.7383 H   0  0  0  0  0  0  0  0  0  0  0  0
    1.9345    3.0031   -0.9556 H   0  0  0  0  0  0  0  0  0  0  0  0
  1  2  1  0  0  0  0
  2  3  1  0  0  0  0
  2 28  1  0  0  0  0
  3 26  1  0  0  0  0
  3  4  1  0  0  0  0
  4  6  2  0  0  0  0
  5  8  1  1  0  0  0
  5  4  1  0  0  0  0
  5  7  1  0  0  0  0
  6 12  1  0  0  0  0
  6 13  1  0  0  0  0
  7 21  1  0  0  0  0
  7 12  2  0  0  0  0
  8 11  1  0  0  0  0
  9  8  1  0  0  0  0
 10  8  1  0  0  0  0
 12 17  1  0  0  0  0
 13 14  1  0  0  0  0
 13 15  1  0  0  0  0
 16 13  1  0  0  0  0
 17 19  1  0  0  0  0
 17 18  1  0  0  0  0
 17 20  1  0  0  0  0
 21 22  1  0  0  0  0
 21 24  1  0  0  0  0
 23 21  1  0  0  0  0
 25  3  1  0  0  0  0
 27  2  1  0  0  0  0
M  END
