1,2
 OpenBabel05122313053D

 31 33  0  0  0  0  0  0  0  0999 V2000
    1.2430    2.5664   -0.8843 S   0  0  0  0  0  1  0  0  0  0  0  0
    0.9628   -0.2903   -0.9731 C   0  0  0  0  0  2  0  0  0  0  0  0
    2.3067   -0.3708   -1.1763 N   0  0  0  0  0  0  0  0  0  0  0  0
    0.3928   -1.3905   -1.5609 N   0  0  0  0  0  0  0  0  0  0  0  0
    3.2681    0.6039   -0.8526 C   0  0  0  0  0  0  0  0  0  0  0  0
    4.6214    0.2255   -0.7157 C   0  0  0  0  0  0  0  0  0  0  0  0
    5.6162    1.1804   -0.4782 C   0  0  0  0  0  0  0  0  0  0  0  0
    5.2612    2.5368   -0.3769 C   0  0  0  0  0  0  0  0  0  0  0  0
    3.9217    2.9175   -0.5001 C   0  0  0  0  0  0  0  0  0  0  0  0
    2.8899    1.9742   -0.7322 C   0  0  0  0  0  0  0  0  0  0  0  0
   -0.9908   -1.5599   -1.7838 C   0  0  0  0  0  0  0  0  0  0  0  0
   -1.5572   -2.8517   -1.7926 C   0  0  0  0  0  0  0  0  0  0  0  0
   -2.9363   -3.0106   -2.0055 C   0  0  0  0  0  0  0  0  0  0  0  0
   -3.7587   -1.8916   -2.2057 C   0  0  0  0  0  0  0  0  0  0  0  0
   -3.1890   -0.6055   -2.2134 C   0  0  0  0  0  0  0  0  0  0  0  0
   -1.8143   -0.4361   -2.0207 C   0  0  0  0  0  0  0  0  0  0  0  0
    2.7113   -1.6789   -1.7141 C   0  0  0  0  0  0  0  0  0  0  0  0
    1.3815   -2.2966   -2.1632 C   0  0  0  0  0  0  0  0  0  0  0  0
    4.9006   -0.8351   -0.7777 H   0  0  0  0  0  0  0  0  0  0  0  0
    6.6639    0.8631   -0.3709 H   0  0  0  0  0  0  0  0  0  0  0  0
    6.0312    3.3016   -0.1943 H   0  0  0  0  0  0  0  0  0  0  0  0
    3.6331    3.9757   -0.4102 H   0  0  0  0  0  0  0  0  0  0  0  0
   -0.9244   -3.7338   -1.6179 H   0  0  0  0  0  0  0  0  0  0  0  0
   -3.3688   -4.0229   -2.0086 H   0  0  0  0  0  0  0  0  0  0  0  0
   -4.8404   -2.0177   -2.3617 H   0  0  0  0  0  0  0  0  0  0  0  0
   -3.8220    0.2797   -2.3723 H   0  0  0  0  0  0  0  0  0  0  0  0
   -1.3584    0.5664   -2.0337 H   0  0  0  0  0  0  0  0  0  0  0  0
    3.4373   -1.5514   -2.5409 H   0  0  0  0  0  0  0  0  0  0  0  0
    3.1923   -2.2771   -0.9117 H   0  0  0  0  0  0  0  0  0  0  0  0
    1.2628   -3.3314   -1.7862 H   0  0  0  0  0  0  0  0  0  0  0  0
    1.2566   -2.3154   -3.2674 H   0  0  0  0  0  0  0  0  0  0  0  0
  1 10  1  0  0  0  0
  3  2  1  0  0  0  0
  3  5  1  0  0  0  0
  4  2  1  0  0  0  0
  5 10  2  0  0  0  0
  5  6  1  0  0  0  0
  6  7  2  0  0  0  0
  7  8  1  0  0  0  0
  7 20  1  0  0  0  0
  8 21  1  0  0  0  0
  9 22  1  0  0  0  0
  9  8  2  0  0  0  0
 10  9  1  0  0  0  0
 11  4  1  0  0  0  0
 12 11  1  0  0  0  0
 12 23  1  0  0  0  0
 13 12  2  0  0  0  0
 14 13  1  0  0  0  0
 15 14  2  0  0  0  0
 15 16  1  0  0  0  0
 16 11  2  0  0  0  0
 17  3  1  0  0  0  0
 17 29  1  0  0  0  0
 18 30  1  0  0  0  0
 18 17  1  0  0  0  0
 18  4  1  0  0  0  0
 19  6  1  0  0  0  0
 24 13  1  0  0  0  0
 25 14  1  0  0  0  0
 26 15  1  0  0  0  0
 27 16  1  0  0  0  0
 28 17  1  0  0  0  0
 31 18  1  0  0  0  0
M  END
