1,12
 OpenBabel05122313053D

 26 26  0  0  0  0  0  0  0  0999 V2000
   -0.0193    1.7645    0.6020 S   0  0  0  0  0  0  0  0  0  0  0  0
    1.7011    1.9918    0.1156 C   0  0  0  0  0  0  0  0  0  0  0  0
    2.6165    2.8166    0.7801 C   0  0  0  0  0  0  0  0  0  0  0  0
    2.3207    3.3679    1.6826 H   0  0  0  0  0  0  0  0  0  0  0  0
    3.9302    2.9226    0.2865 C   0  0  0  0  0  0  0  0  0  0  0  0
    4.6504    3.5797    0.7972 H   0  0  0  0  0  0  0  0  0  0  0  0
    4.3225    2.1932   -0.8488 C   0  0  0  0  0  0  0  0  0  0  0  0
    5.3468    2.2944   -1.2383 H   0  0  0  0  0  0  0  0  0  0  0  0
    3.4213    1.3170   -1.4676 C   0  0  0  0  0  0  0  0  0  0  0  0
    3.7301    0.7052   -2.3287 H   0  0  0  0  0  0  0  0  0  0  0  0
    2.1007    1.1901   -0.9806 C   0  0  0  0  0  0  0  0  0  0  0  0
    1.1478    0.2224   -1.5111 C   0  0  0  0  0  2  0  0  0  0  0  0
    1.4716   -0.3601   -2.3997 H   0  0  0  0  0  0  0  0  0  0  0  0
   -0.7651    3.5016    0.2229 C   0  0  0  0  0  0  0  0  0  0  0  0
   -2.2605    3.3261    0.5025 C   0  0  0  0  0  0  0  0  0  0  0  0
   -2.4444    3.0881    1.5692 H   0  0  0  0  0  0  0  0  0  0  0  0
   -2.6991    2.5378   -0.1390 H   0  0  0  0  0  0  0  0  0  0  0  0
   -2.7732    4.2850    0.2778 H   0  0  0  0  0  0  0  0  0  0  0  0
   -0.4758    3.8921   -1.2234 C   0  0  0  0  0  0  0  0  0  0  0  0
   -0.8981    4.9026   -1.4105 H   0  0  0  0  0  0  0  0  0  0  0  0
   -0.9455    3.1788   -1.9268 H   0  0  0  0  0  0  0  0  0  0  0  0
    0.6142    3.9403   -1.4175 H   0  0  0  0  0  0  0  0  0  0  0  0
   -0.1625    4.5082    1.2073 C   0  0  0  0  0  0  0  0  0  0  0  0
    0.8877    4.7559    0.9655 H   0  0  0  0  0  0  0  0  0  0  0  0
   -0.2213    4.1501    2.2551 H   0  0  0  0  0  0  0  0  0  0  0  0
   -0.7453    5.4509    1.1376 H   0  0  0  0  0  0  0  0  0  0  0  0
  2  1  1  0  0  0  0
  2  3  1  0  0  0  0
  3  4  1  0  0  0  0
  5  3  2  0  0  0  0
  5  6  1  0  0  0  0
  7  5  1  0  0  0  0
  8  7  1  0  0  0  0
  9 11  1  0  0  0  0
  9  7  2  0  0  0  0
 10  9  1  0  0  0  0
 11  2  2  0  0  0  0
 12 11  1  0  0  0  0
 13 12  1  0  0  0  0
 14 15  1  0  0  0  0
 14  1  1  0  0  0  0
 14 23  1  0  0  0  0
 15 16  1  0  0  0  0
 17 15  1  0  0  0  0
 18 15  1  0  0  0  0
 19 14  1  0  0  0  0
 20 19  1  0  0  0  0
 21 19  1  0  0  0  0
 22 19  1  0  0  0  0
 23 25  1  0  0  0  0
 24 23  1  0  0  0  0
 26 23  1  0  0  0  0
M  END
