1,18
 OpenBabel05122313053D

 18 19  0  0  0  0  0  0  0  0999 V2000
    1.1838   -2.5163   -0.1024 S   0  0  0  0  0  0  0  0  0  0  0  0
    1.3896   -3.6430    1.2171 C   0  0  0  0  0  0  0  0  0  0  0  0
    0.5526   -4.2691    1.5471 H   0  0  0  0  0  0  0  0  0  0  0  0
    2.7164   -3.6937    1.5920 C   0  0  0  0  0  0  0  0  0  0  0  0
    3.0914   -4.3951    2.3516 H   0  0  0  0  0  0  0  0  0  0  0  0
    3.5535   -2.7478    0.9057 C   0  0  0  0  0  0  0  0  0  0  0  0
    4.6144   -2.5874    1.1413 H   0  0  0  0  0  0  0  0  0  0  0  0
    2.8652   -1.9795   -0.0153 C   0  0  0  0  0  0  0  0  0  0  0  0
    3.1684   -0.7740   -0.7828 C   0  0  0  0  0  0  0  0  0  0  0  0
    4.4732   -0.5277   -1.2679 C   0  0  0  0  0  0  0  0  0  0  0  0
    5.2716   -1.2642   -1.0832 H   0  0  0  0  0  0  0  0  0  0  0  0
    4.7414    0.6339   -2.0002 C   0  0  0  0  0  0  0  0  0  0  0  0
    5.7551    0.8237   -2.3844 H   0  0  0  0  0  0  0  0  0  0  0  0
    3.7011    1.5455   -2.2513 C   0  0  0  0  0  0  0  0  0  0  0  0
    3.9022    2.4593   -2.8334 H   0  0  0  0  0  0  0  0  0  0  0  0
    2.4076    1.3028   -1.7574 C   0  0  0  0  0  0  0  0  0  0  0  0
    1.6192    2.0475   -1.9550 H   0  0  0  0  0  0  0  0  0  0  0  0
    2.0937    0.1502   -1.0034 C   0  0  0  0  0  3  0  0  0  0  0  0
  1  8  1  0  0  0  0
  1  2  1  0  0  0  0
  2  3  1  0  0  0  0
  2  4  2  0  0  0  0
  4  5  1  0  0  0  0
  6  7  1  0  0  0  0
  6  4  1  0  0  0  0
  8  6  2  0  0  0  0
  9  8  1  0  0  0  0
 10 11  1  0  0  0  0
 10  9  2  0  0  0  0
 12 10  1  0  0  0  0
 13 12  1  0  0  0  0
 14 12  2  0  0  0  0
 14 16  1  0  0  0  0
 15 14  1  0  0  0  0
 16 18  2  0  0  0  0
 17 16  1  0  0  0  0
 18  9  1  0  0  0  0
M  END
