1,2,3,4
 OpenBabel05122313063D

 74 82  0  0  1  0  0  0  0  0999 V2000
   -1.7777   -0.0011   -1.5517 S   0  0  0  0  0  0  0  0  0  0  0  0
    2.3797    0.0007    0.2215 P   0  0  2  0  0  0  0  0  0  0  0  0
    0.3747    2.0908   -0.6565 N   0  0  0  0  0  0  0  0  0  0  0  0
    0.3764   -2.0911   -0.6558 N   0  0  0  0  0  0  0  0  0  0  0  0
    3.4346   -1.3161   -0.4130 C   0  0  2  0  0  3  0  0  0  0  0  0
    4.7105   -0.6928   -0.7368 C   0  0  0  0  0  0  0  0  0  0  0  0
    4.7099    0.6957   -0.7371 C   0  0  0  0  0  0  0  0  0  0  0  0
    3.4335    1.3182   -0.4139 C   0  0  1  0  0  3  0  0  0  0  0  0
    2.8900    2.5260   -0.7834 C   0  0  0  0  0  3  0  0  0  0  0  0
    3.5689    3.3065   -1.1695 H   0  0  0  0  0  0  0  0  0  0  0  0
    1.4975    2.9008   -0.8069 C   0  0  0  0  0  0  0  0  0  0  0  0
    1.0807    4.2491   -0.9995 C   0  0  0  0  0  0  0  0  0  0  0  0
    1.7598    5.0982   -1.1434 H   0  0  0  0  0  0  0  0  0  0  0  0
   -0.3078    4.2708   -0.9183 C   0  0  0  0  0  0  0  0  0  0  0  0
   -0.9749    5.1315   -1.0343 H   0  0  0  0  0  0  0  0  0  0  0  0
   -0.7416    2.9264   -0.7118 C   0  0  0  0  0  3  0  0  0  0  0  0
   -2.1369    2.5627   -0.5427 C   0  0  1  0  0  3  0  0  0  0  0  0
   -2.6685    1.2879   -0.7042 C   0  0  2  0  0  3  0  0  0  0  0  0
   -3.8419    0.6872   -0.1142 C   0  0  0  0  0  0  0  0  0  0  0  0
   -4.5934    1.2978    0.4031 H   0  0  0  0  0  0  0  0  0  0  0  0
   -3.8413   -0.6908   -0.1140 C   0  0  0  0  0  0  0  0  0  0  0  0
   -4.5924   -1.3019    0.4034 H   0  0  0  0  0  0  0  0  0  0  0  0
   -2.6675   -1.2907   -0.7038 C   0  0  2  0  0  3  0  0  0  0  0  0
   -2.1348   -2.5650   -0.5420 C   0  0  1  0  0  3  0  0  0  0  0  0
   -0.7392   -2.9277   -0.7110 C   0  0  0  0  0  3  0  0  0  0  0  0
   -0.3044   -4.2718   -0.9170 C   0  0  0  0  0  0  0  0  0  0  0  0
   -0.9708   -5.1331   -1.0328 H   0  0  0  0  0  0  0  0  0  0  0  0
    1.0841   -4.2491   -0.9980 C   0  0  0  0  0  0  0  0  0  0  0  0
    1.7639   -5.0976   -1.1415 H   0  0  0  0  0  0  0  0  0  0  0  0
    1.4999   -2.9004   -0.8058 C   0  0  0  0  0  0  0  0  0  0  0  0
    2.8921   -2.5246   -0.7822 C   0  0  0  0  0  3  0  0  0  0  0  0
    3.5716   -3.3046   -1.1681 H   0  0  0  0  0  0  0  0  0  0  0  0
    5.9744   -1.2363   -1.3487 C   0  0  0  0  0  0  0  0  0  0  0  0
    5.7690   -1.5942   -2.3848 H   0  0  0  0  0  0  0  0  0  0  0  0
    6.3983   -2.1035   -0.7999 H   0  0  0  0  0  0  0  0  0  0  0  0
    6.9109    0.0022   -1.3417 C   0  0  0  0  0  0  0  0  0  0  0  0
    7.5013    0.0026   -0.4021 H   0  0  0  0  0  0  0  0  0  0  0  0
    7.6335    0.0024   -2.1811 H   0  0  0  0  0  0  0  0  0  0  0  0
    5.9734    1.2400   -1.3491 C   0  0  0  0  0  0  0  0  0  0  0  0
    6.3966    2.1076   -0.8006 H   0  0  0  0  0  0  0  0  0  0  0  0
    5.7679    1.5974   -2.3854 H   0  0  0  0  0  0  0  0  0  0  0  0
   -3.0649    3.6244   -0.0643 C   0  0  0  0  0  0  0  0  0  0  0  0
   -2.7322    4.4409    1.0418 C   0  0  0  0  0  0  0  0  0  0  0  0
   -1.7648    4.2907    1.5432 H   0  0  0  0  0  0  0  0  0  0  0  0
   -3.6243    5.4176    1.5032 C   0  0  0  0  0  0  0  0  0  0  0  0
   -3.3523    6.0370    2.3716 H   0  0  0  0  0  0  0  0  0  0  0  0
   -4.8630    5.6040    0.8667 C   0  0  0  0  0  0  0  0  0  0  0  0
   -5.5605    6.3750    1.2279 H   0  0  0  0  0  0  0  0  0  0  0  0
   -5.2038    4.8037   -0.2355 C   0  0  0  0  0  0  0  0  0  0  0  0
   -6.1670    4.9508   -0.7478 H   0  0  0  0  0  0  0  0  0  0  0  0
   -4.3141    3.8231   -0.6959 C   0  0  0  0  0  0  0  0  0  0  0  0
   -4.5716    3.2064   -1.5702 H   0  0  0  0  0  0  0  0  0  0  0  0
   -3.0619   -3.6273   -0.0632 C   0  0  0  0  0  0  0  0  0  0  0  0
   -2.7286   -4.4430    1.0433 C   0  0  0  0  0  0  0  0  0  0  0  0
   -1.7613   -4.2917    1.5447 H   0  0  0  0  0  0  0  0  0  0  0  0
   -3.6199   -5.4202    1.5052 C   0  0  0  0  0  0  0  0  0  0  0  0
   -3.3474   -6.0389    2.3739 H   0  0  0  0  0  0  0  0  0  0  0  0
   -4.8584   -5.6079    0.8687 C   0  0  0  0  0  0  0  0  0  0  0  0
   -5.5553   -6.3793    1.2303 H   0  0  0  0  0  0  0  0  0  0  0  0
   -5.1999   -4.8085   -0.2338 C   0  0  0  0  0  0  0  0  0  0  0  0
   -6.1629   -4.9566   -0.7461 H   0  0  0  0  0  0  0  0  0  0  0  0
   -4.3110   -3.8273   -0.6947 C   0  0  0  0  0  0  0  0  0  0  0  0
   -4.5690   -3.2112   -1.5694 H   0  0  0  0  0  0  0  0  0  0  0  0
    2.4299    0.0017    2.0510 C   0  0  0  0  0  0  0  0  0  0  0  0
    1.2277    0.0130    2.7834 C   0  0  0  0  0  0  0  0  0  0  0  0
    0.2668    0.0201    2.2439 H   0  0  0  0  0  0  0  0  0  0  0  0
    1.2658    0.0147    4.1864 C   0  0  0  0  0  0  0  0  0  0  0  0
    0.3255    0.0234    4.7580 H   0  0  0  0  0  0  0  0  0  0  0  0
    2.4991    0.0050    4.8559 C   0  0  0  0  0  0  0  0  0  0  0  0
    2.5277    0.0062    5.9562 H   0  0  0  0  0  0  0  0  0  0  0  0
    3.6993   -0.0064    4.1238 C   0  0  0  0  0  0  0  0  0  0  0  0
    4.6660   -0.0141    4.6499 H   0  0  0  0  0  0  0  0  0  0  0  0
    3.6695   -0.0081    2.7228 C   0  0  0  0  0  0  0  0  0  0  0  0
    4.6060   -0.0169    2.1438 H   0  0  0  0  0  0  0  0  0  0  0  0
  2 64  1  1  0  0  0
  5 31  1  6  0  0  0
  5  2  1  0  0  0  0
  6  5  1  0  0  0  0
  7  6  2  0  0  0  0
  7  8  1  0  0  0  0
  8  9  1  6  0  0  0
  8  2  1  0  0  0  0
 10  9  1  0  0  0  0
 11  9  1  0  0  0  0
 11  3  2  0  0  0  0
 12 14  2  0  0  0  0
 12 11  1  0  0  0  0
 13 12  1  0  0  0  0
 14 16  1  0  0  0  0
 15 14  1  0  0  0  0
 16  3  1  0  0  0  0
 16 17  1  0  0  0  0
 17 42  1  1  0  0  0
 18  1  1  1  0  0  0
 18 17  1  0  0  0  0
 18 19  1  0  0  0  0
 19 21  2  0  0  0  0
 19 20  1  0  0  0  0
 21 22  1  0  0  0  0
 23  1  1  1  0  0  0
 23 24  1  0  0  0  0
 23 21  1  0  0  0  0
 24 53  1  1  0  0  0
 25  4  1  0  0  0  0
 25 24  1  0  0  0  0
 26 25  1  0  0  0  0
 27 26  1  0  0  0  0
 28 26  2  0  0  0  0
 28 30  1  0  0  0  0
 29 28  1  0  0  0  0
 30 31  1  0  0  0  0
 30  4  2  0  0  0  0
 32 31  1  0  0  0  0
 33 36  1  0  0  0  0
 33 35  1  0  0  0  0
 33  6  1  0  0  0  0
 34 33  1  0  0  0  0
 36 37  1  0  0  0  0
 38 36  1  0  0  0  0
 39 36  1  0  0  0  0
 39 40  1  0  0  0  0
 39  7  1  0  0  0  0
 41 39  1  0  0  0  0
 42 43  1  0  0  0  0
 43 45  2  0  0  0  0
 43 44  1  0  0  0  0
 45 46  1  0  0  0  0
 47 48  1  0  0  0  0
 47 45  1  0  0  0  0
 49 47  2  0  0  0  0
 50 49  1  0  0  0  0
 51 49  1  0  0  0  0
 51 42  2  0  0  0  0
 52 51  1  0  0  0  0
 53 54  1  0  0  0  0
 54 56  2  0  0  0  0
 54 55  1  0  0  0  0
 56 57  1  0  0  0  0
 58 59  1  0  0  0  0
 58 56  1  0  0  0  0
 60 58  2  0  0  0  0
 61 60  1  0  0  0  0
 62 60  1  0  0  0  0
 62 53  2  0  0  0  0
 63 62  1  0  0  0  0
 64 73  2  0  0  0  0
 64 65  1  0  0  0  0
 65 67  2  0  0  0  0
 66 65  1  0  0  0  0
 67 68  1  0  0  0  0
 67 69  1  0  0  0  0
 69 70  1  0  0  0  0
 71 72  1  0  0  0  0
 71 69  2  0  0  0  0
 73 71  1  0  0  0  0
 74 73  1  0  0  0  0
M  END
