1,3,5,28
 OpenBabel05122313063D

 30 30  0  0  0  0  0  0  0  0999 V2000
   -1.5041    0.5027    0.0002 N   0  0  0  0  0  2  0  0  0  0  0  0
   -1.6937   -2.4183    0.0004 N   0  0  0  0  0  0  0  0  0  0  0  0
    0.8224    1.5364    0.0002 N   0  0  0  0  0  2  0  0  0  0  0  0
    2.1001    1.9555    0.0006 N   0  0  0  0  0  0  0  0  0  0  0  0
   -0.4287   -1.9978    0.0003 N   0  0  0  0  0  2  0  0  0  0  0  0
   -1.4733    1.8809    0.0002 C   0  0  0  0  0  0  0  0  0  0  0  0
    2.9738    0.9571   -0.0001 C   0  0  0  0  0  0  0  0  0  0  0  0
    4.2881    1.2695   -0.0014 N   0  0  0  0  0  0  0  0  0  0  0  0
   -3.9093    0.5821   -0.0006 C   0  0  0  0  0  0  0  0  0  0  0  0
   -4.8644    0.0445   -0.0009 H   0  0  0  0  0  0  0  0  0  0  0  0
   -0.1440    2.4547    0.0004 C   0  0  0  0  0  0  0  0  0  0  0  0
   -2.7350   -1.6186    0.0001 C   0  0  0  0  0  0  0  0  0  0  0  0
    1.2320   -3.9049    0.0012 N   0  0  0  0  0  0  0  0  0  0  0  0
    0.4365   -3.0345    0.0008 C   0  0  0  0  0  0  0  0  0  0  0  0
   -2.6507    2.6398   -0.0002 C   0  0  0  0  0  0  0  0  0  0  0  0
   -2.5922    3.7361   -0.0001 H   0  0  0  0  0  0  0  0  0  0  0  0
   -2.6943   -0.1599   -0.0002 C   0  0  0  0  0  0  0  0  0  0  0  0
   -3.8873    1.9737   -0.0006 C   0  0  0  0  0  0  0  0  0  0  0  0
   -4.8274    2.5444   -0.0010 H   0  0  0  0  0  0  0  0  0  0  0  0
   -4.0710   -2.3264   -0.0000 C   0  0  0  0  0  0  0  0  0  0  0  0
   -3.8840   -3.4148    0.0005 H   0  0  0  0  0  0  0  0  0  0  0  0
   -4.6784   -2.0795   -0.8960 H   0  0  0  0  0  0  0  0  0  0  0  0
   -4.6789   -2.0788    0.8953 H   0  0  0  0  0  0  0  0  0  0  0  0
    0.1182    3.9259    0.0007 C   0  0  0  0  0  0  0  0  0  0  0  0
    1.2084    4.0979    0.0018 H   0  0  0  0  0  0  0  0  0  0  0  0
   -0.3245    4.4133    0.8946 H   0  0  0  0  0  0  0  0  0  0  0  0
   -0.3227    4.4133   -0.8940 H   0  0  0  0  0  0  0  0  0  0  0  0
    2.4589   -0.8717   -0.0008 Se  0  0  0  0  0  1  0  0  0  0  0  0
    4.5689    2.2504    0.0051 H   0  0  0  0  0  0  0  0  0  0  0  0
    4.9962    0.5393    0.0057 H   0  0  0  0  0  0  0  0  0  0  0  0
  1  6  1  0  0  0  0
  3 11  1  0  0  0  0
  3  4  1  0  0  0  0
  5  2  1  0  0  0  0
  5 14  1  0  0  0  0
  6 11  2  0  0  0  0
  7  4  2  0  0  0  0
  8  7  1  0  0  0  0
  8 29  1  0  0  0  0
  8 30  1  0  0  0  0
  9 17  2  0  0  0  0
 10  9  1  0  0  0  0
 11 24  1  0  0  0  0
 12  2  2  0  0  0  0
 14 13  3  0  0  0  0
 15 16  1  0  0  0  0
 15  6  1  0  0  0  0
 17 12  1  0  0  0  0
 17  1  1  0  0  0  0
 18  9  1  0  0  0  0
 18 15  2  0  0  0  0
 19 18  1  0  0  0  0
 20 12  1  0  0  0  0
 20 21  1  0  0  0  0
 20 23  1  0  0  0  0
 22 20  1  0  0  0  0
 24 25  1  0  0  0  0
 24 26  1  0  0  0  0
 27 24  1  0  0  0  0
 28  7  1  0  0  0  0
M  END
