1,2,3,15
 OpenBabel05122313063D

 62 64  0  0  0  0  0  0  0  0999 V2000
   -1.8045    0.9276   -0.4599 O   0  5  0  0  0  0  0  0  0  0  0  0
    1.5942   -0.2333   -1.1205 O   0  5  0  0  0  0  0  0  0  0  0  0
    0.4886    2.1639   -1.1926 O   0  5  0  0  0  0  0  0  0  0  0  0
   -2.9906    0.3721   -0.2126 C   0  0  0  0  0  0  0  0  0  0  0  0
   -4.0544    1.2106    0.2284 C   0  0  0  0  0  0  0  0  0  0  0  0
   -5.2856    0.6191    0.5427 C   0  0  0  0  0  0  0  0  0  0  0  0
   -6.1093    1.2725    0.8761 H   0  0  0  0  0  0  0  0  0  0  0  0
   -5.5045   -0.7729    0.4572 C   0  0  0  0  0  0  0  0  0  0  0  0
   -4.4319   -1.5759    0.0343 C   0  0  0  0  0  0  0  0  0  0  0  0
   -4.5686   -2.6680   -0.0368 H   0  0  0  0  0  0  0  0  0  0  0  0
   -3.1851   -1.0258   -0.3143 C   0  0  0  0  0  0  0  0  0  0  0  0
   -2.0810   -1.9000   -0.8390 C   0  0  0  0  0  0  0  0  0  0  0  0
   -2.0169   -1.8224   -1.9439 H   0  0  0  0  0  0  0  0  0  0  0  0
   -2.3094   -2.9622   -0.5916 H   0  0  0  0  0  0  0  0  0  0  0  0
   -0.7077   -1.5901   -0.3312 N   0  0  0  0  0  0  0  0  0  0  0  0
    0.2180   -2.6117   -0.9457 C   0  0  0  0  0  0  0  0  0  0  0  0
   -0.1837   -3.6269   -0.7276 H   0  0  0  0  0  0  0  0  0  0  0  0
    0.1563   -2.4490   -2.0413 H   0  0  0  0  0  0  0  0  0  0  0  0
    1.6310   -2.5050   -0.4567 C   0  0  0  0  0  0  0  0  0  0  0  0
    2.3264   -3.5879    0.1083 C   0  0  0  0  0  0  0  0  0  0  0  0
    1.8190   -4.5633    0.1969 H   0  0  0  0  0  0  0  0  0  0  0  0
    3.6529   -3.4493    0.5528 C   0  0  0  0  0  0  0  0  0  0  0  0
    4.2566   -2.1780    0.4325 C   0  0  0  0  0  0  0  0  0  0  0  0
    5.2938   -2.0456    0.7839 H   0  0  0  0  0  0  0  0  0  0  0  0
    3.5951   -1.0649   -0.1077 C   0  0  0  0  0  0  0  0  0  0  0  0
    2.2605   -1.2425   -0.5685 C   0  0  0  0  0  0  0  0  0  0  0  0
   -0.6284   -1.6612    1.1614 C   0  0  0  0  0  0  0  0  0  0  0  0
    0.3350   -2.1478    1.4074 H   0  0  0  0  0  0  0  0  0  0  0  0
   -1.4491   -2.2973    1.5554 H   0  0  0  0  0  0  0  0  0  0  0  0
   -0.6556   -0.3069    1.8548 C   0  0  0  0  0  0  0  0  0  0  0  0
   -1.6572    0.1714    1.8173 H   0  0  0  0  0  0  0  0  0  0  0  0
   -0.3857   -0.4496    2.9276 H   0  0  0  0  0  0  0  0  0  0  0  0
    0.3153    0.5101    1.2108 O   0  0  0  0  0  0  0  0  0  0  0  0
    0.3232    1.8719    1.6716 C   0  0  0  0  0  0  0  0  0  0  0  0
    0.4803    1.8842    2.7732 H   0  0  0  0  0  0  0  0  0  0  0  0
   -0.6762    2.3179    1.4528 H   0  0  0  0  0  0  0  0  0  0  0  0
    1.4176    2.6373    0.9843 C   0  0  0  0  0  0  0  0  0  0  0  0
    2.4365    3.2655    1.7195 C   0  0  0  0  0  0  0  0  0  0  0  0
    2.4392    3.1623    2.8166 H   0  0  0  0  0  0  0  0  0  0  0  0
    3.4395    4.0154    1.0856 C   0  0  0  0  0  0  0  0  0  0  0  0
    4.2285    4.4973    1.6811 H   0  0  0  0  0  0  0  0  0  0  0  0
    3.4255    4.1413   -0.3139 C   0  0  0  0  0  0  0  0  0  0  0  0
    4.2078    4.7247   -0.8233 H   0  0  0  0  0  0  0  0  0  0  0  0
    2.4240    3.5220   -1.0695 C   0  0  0  0  0  0  0  0  0  0  0  0
    2.3969    3.5958   -2.1661 H   0  0  0  0  0  0  0  0  0  0  0  0
    1.4160    2.7580   -0.4363 C   0  0  0  0  0  0  0  0  0  0  0  0
   -3.8086    2.6892    0.3430 C   0  0  0  0  0  0  0  0  0  0  0  0
   -3.4092    3.1029   -0.6054 H   0  0  0  0  0  0  0  0  0  0  0  0
   -3.0396    2.9091    1.1154 H   0  0  0  0  0  0  0  0  0  0  0  0
   -4.7327    3.2352    0.6120 H   0  0  0  0  0  0  0  0  0  0  0  0
   -6.8483   -1.3663    0.8005 C   0  0  0  0  0  0  0  0  0  0  0  0
   -6.8121   -2.4730    0.8222 H   0  0  0  0  0  0  0  0  0  0  0  0
   -7.6228   -1.0738    0.0594 H   0  0  0  0  0  0  0  0  0  0  0  0
   -7.2084   -1.0191    1.7913 H   0  0  0  0  0  0  0  0  0  0  0  0
    4.4185   -4.6153    1.1276 C   0  0  0  0  0  0  0  0  0  0  0  0
    5.2225   -4.9531    0.4387 H   0  0  0  0  0  0  0  0  0  0  0  0
    3.7582   -5.4845    1.3157 H   0  0  0  0  0  0  0  0  0  0  0  0
    4.9113   -4.3494    2.0857 H   0  0  0  0  0  0  0  0  0  0  0  0
    4.2374    0.2892   -0.2127 C   0  0  0  0  0  0  0  0  0  0  0  0
    5.3002    0.2577    0.0940 H   0  0  0  0  0  0  0  0  0  0  0  0
    3.7101    1.0309    0.4228 H   0  0  0  0  0  0  0  0  0  0  0  0
    4.1747    0.6834   -1.2475 H   0  0  0  0  0  0  0  0  0  0  0  0
  1  4  1  0  0  0  0
  2 26  1  0  0  0  0
  3 46  1  0  0  0  0
  4  5  1  0  0  0  0
  5 47  1  0  0  0  0
  5  6  2  0  0  0  0
  6  7  1  0  0  0  0
  8  6  1  0  0  0  0
  8 51  1  0  0  0  0
  9  8  2  0  0  0  0
 10  9  1  0  0  0  0
 11  4  2  0  0  0  0
 11  9  1  0  0  0  0
 12 14  1  0  0  0  0
 12 15  1  0  0  0  0
 12 11  1  0  0  0  0
 13 12  1  0  0  0  0
 15 27  1  0  0  0  0
 16 17  1  0  0  0  0
 16 19  1  0  0  0  0
 16 15  1  0  0  0  0
 18 16  1  0  0  0  0
 19 20  1  0  0  0  0
 20 21  1  0  0  0  0
 20 22  2  0  0  0  0
 22 55  1  0  0  0  0
 23 22  1  0  0  0  0
 23 24  1  0  0  0  0
 25 23  2  0  0  0  0
 26 19  2  0  0  0  0
 26 25  1  0  0  0  0
 27 28  1  0  0  0  0
 27 29  1  0  0  0  0
 27 30  1  0  0  0  0
 30 32  1  0  0  0  0
 31 30  1  0  0  0  0
 33 34  1  0  0  0  0
 33 30  1  0  0  0  0
 34 35  1  0  0  0  0
 36 34  1  0  0  0  0
 37 34  1  0  0  0  0
 37 38  1  0  0  0  0
 38 39  1  0  0  0  0
 40 41  1  0  0  0  0
 40 38  2  0  0  0  0
 42 40  1  0  0  0  0
 43 42  1  0  0  0  0
 44 46  1  0  0  0  0
 44 42  2  0  0  0  0
 45 44  1  0  0  0  0
 46 37  2  0  0  0  0
 47 50  1  0  0  0  0
 47 49  1  0  0  0  0
 48 47  1  0  0  0  0
 51 52  1  0  0  0  0
 51 54  1  0  0  0  0
 53 51  1  0  0  0  0
 55 57  1  0  0  0  0
 55 58  1  0  0  0  0
 56 55  1  0  0  0  0
 59 25  1  0  0  0  0
 59 60  1  0  0  0  0
 59 61  1  0  0  0  0
 62 59  1  0  0  0  0
M  CHG  3   1  -1   2  -1   3  -1
M  END
