1,2,3,4
 OpenBabel05122313063D

 34 36  0  0  0  0  0  0  0  0999 V2000
    1.9030   -0.2739   -1.7301 O   0  5  0  0  0  0  0  0  0  0  0  0
   -0.3348   -1.7949   -1.3263 O   0  5  0  0  0  0  0  0  0  0  0  0
    0.0264    1.7423   -1.5812 O   0  5  0  0  0  0  0  0  0  0  0  0
    0.3067    0.0351    0.5295 N   0  0  0  0  0  0  0  0  0  0  0  0
    1.7191   -0.2976    0.6640 C   0  0  0  0  0  0  0  0  0  0  0  0
    2.4745   -0.4229   -0.5343 C   0  0  0  0  0  0  0  0  0  0  0  0
    3.8538   -0.7238   -0.4406 C   0  0  0  0  0  0  0  0  0  0  0  0
    4.4250   -0.8177   -1.3752 H   0  0  0  0  0  0  0  0  0  0  0  0
    4.4538   -0.9052    0.8114 C   0  0  0  0  0  0  0  0  0  0  0  0
    5.5272   -1.1422    0.8674 H   0  0  0  0  0  0  0  0  0  0  0  0
    3.6972   -0.7975    1.9907 C   0  0  0  0  0  0  0  0  0  0  0  0
    4.1690   -0.9517    2.9721 H   0  0  0  0  0  0  0  0  0  0  0  0
    2.3277   -0.4943    1.9090 C   0  0  0  0  0  0  0  0  0  0  0  0
    1.7198   -0.4183    2.8229 H   0  0  0  0  0  0  0  0  0  0  0  0
   -0.8331   -1.9942   -0.1075 C   0  0  0  0  0  0  0  0  0  0  0  0
   -0.5914   -1.0289    0.9203 C   0  0  0  0  0  0  0  0  0  0  0  0
   -1.2064   -1.1712    2.1707 C   0  0  0  0  0  0  0  0  0  0  0  0
   -1.0340   -0.4230    2.9553 H   0  0  0  0  0  0  0  0  0  0  0  0
   -2.0564   -2.2658    2.4245 C   0  0  0  0  0  0  0  0  0  0  0  0
   -2.5310   -2.3702    3.4114 H   0  0  0  0  0  0  0  0  0  0  0  0
   -2.2726   -3.2303    1.4257 C   0  0  0  0  0  0  0  0  0  0  0  0
   -2.9276   -4.0919    1.6262 H   0  0  0  0  0  0  0  0  0  0  0  0
   -1.6716   -3.0979    0.1654 C   0  0  0  0  0  0  0  0  0  0  0  0
   -1.8576   -3.8185   -0.6439 H   0  0  0  0  0  0  0  0  0  0  0  0
   -0.1705    2.2425   -0.3617 C   0  0  0  0  0  0  0  0  0  0  0  0
   -0.0407    1.4153    0.7953 C   0  0  0  0  0  0  0  0  0  0  0  0
   -0.1796    1.9802    2.0721 C   0  0  0  0  0  0  0  0  0  0  0  0
   -0.0080    1.3620    2.9641 H   0  0  0  0  0  0  0  0  0  0  0  0
   -0.5075    3.3384    2.2218 C   0  0  0  0  0  0  0  0  0  0  0  0
   -0.6165    3.7678    3.2285 H   0  0  0  0  0  0  0  0  0  0  0  0
   -0.6764    4.1436    1.0824 C   0  0  0  0  0  0  0  0  0  0  0  0
   -0.9322    5.2083    1.1949 H   0  0  0  0  0  0  0  0  0  0  0  0
   -0.5090    3.6067   -0.1995 C   0  0  0  0  0  0  0  0  0  0  0  0
   -0.6246    4.2200   -1.1047 H   0  0  0  0  0  0  0  0  0  0  0  0
  1  6  1  0  0  0  0
  2 15  1  0  0  0  0
  3 25  1  0  0  0  0
  4  5  1  0  0  0  0
  4 26  1  0  0  0  0
  4 16  1  0  0  0  0
  5 13  1  0  0  0  0
  6  7  1  0  0  0  0
  6  5  2  0  0  0  0
  7  9  2  0  0  0  0
  8  7  1  0  0  0  0
  9 10  1  0  0  0  0
  9 11  1  0  0  0  0
 11 12  1  0  0  0  0
 13 11  2  0  0  0  0
 13 14  1  0  0  0  0
 15 23  2  0  0  0  0
 15 16  1  0  0  0  0
 16 17  2  0  0  0  0
 17 19  1  0  0  0  0
 17 18  1  0  0  0  0
 19 20  1  0  0  0  0
 21 22  1  0  0  0  0
 21 19  2  0  0  0  0
 23 21  1  0  0  0  0
 24 23  1  0  0  0  0
 25 33  2  0  0  0  0
 25 26  1  0  0  0  0
 26 27  2  0  0  0  0
 27 29  1  0  0  0  0
 27 28  1  0  0  0  0
 29 30  1  0  0  0  0
 31 32  1  0  0  0  0
 31 29  2  0  0  0  0
 33 31  1  0  0  0  0
 34 33  1  0  0  0  0
M  CHG  3   1  -1   2  -1   3  -1
M  END
