1,2,3,4
 OpenBabel05122313063D

 35 35  0  0  0  0  0  0  0  0999 V2000
    1.5144   -1.5855   -1.2202 O   0  0  0  0  0  1  0  0  0  0  0  0
    0.8613   -0.7124    1.8306 O   0  0  0  0  0  1  0  0  0  0  0  0
   -0.6660    0.6781   -0.4375 O   0  5  0  0  0  0  0  0  0  0  0  0
   -0.6504   -2.0668    0.1700 N   0  0  0  0  0  0  0  0  0  0  0  0
    1.0217   -2.8767   -1.3804 C   0  0  0  0  0  0  0  0  0  0  0  0
    1.8549   -3.6120   -1.4907 H   0  0  0  0  0  0  0  0  0  0  0  0
    0.4158   -2.9559   -2.3173 H   0  0  0  0  0  0  0  0  0  0  0  0
    0.1802   -3.2348   -0.1584 C   0  0  0  0  0  0  0  0  0  0  0  0
   -0.4426   -4.1492   -0.3131 H   0  0  0  0  0  0  0  0  0  0  0  0
    0.8570   -3.4265    0.6978 H   0  0  0  0  0  0  0  0  0  0  0  0
    0.0946   -1.7022    2.4476 C   0  0  0  0  0  0  0  0  0  0  0  0
   -0.2685   -1.3533    3.4432 H   0  0  0  0  0  0  0  0  0  0  0  0
    0.7228   -2.6052    2.6512 H   0  0  0  0  0  0  0  0  0  0  0  0
   -1.1057   -2.0577    1.5675 C   0  0  0  0  0  0  0  0  0  0  0  0
   -1.5745   -3.0271    1.8632 H   0  0  0  0  0  0  0  0  0  0  0  0
   -1.8800   -1.2707    1.6547 H   0  0  0  0  0  0  0  0  0  0  0  0
   -1.9944    0.5435   -0.3398 C   0  0  0  0  0  0  0  0  0  0  0  0
   -2.6141   -0.7178   -0.5361 C   0  0  0  0  0  0  0  0  0  0  0  0
   -1.7389   -1.9004   -0.8220 C   0  0  0  0  0  0  0  0  0  0  0  0
   -2.3561   -2.8288   -0.8692 H   0  0  0  0  0  0  0  0  0  0  0  0
   -1.2507   -1.7797   -1.8124 H   0  0  0  0  0  0  0  0  0  0  0  0
   -2.8130    1.6678   -0.0205 C   0  0  0  0  0  0  0  0  0  0  0  0
   -4.2038    1.4925    0.0552 C   0  0  0  0  0  0  0  0  0  0  0  0
   -4.8238    2.3698    0.3065 H   0  0  0  0  0  0  0  0  0  0  0  0
   -4.8356    0.2516   -0.1643 C   0  0  0  0  0  0  0  0  0  0  0  0
   -4.0100   -0.8482   -0.4487 C   0  0  0  0  0  0  0  0  0  0  0  0
   -4.4605   -1.8437   -0.6001 H   0  0  0  0  0  0  0  0  0  0  0  0
   -2.1880    3.0105    0.2354 C   0  0  0  0  0  0  0  0  0  0  0  0
   -1.8142    3.4697   -0.7029 H   0  0  0  0  0  0  0  0  0  0  0  0
   -1.3127    2.9201    0.9073 H   0  0  0  0  0  0  0  0  0  0  0  0
   -2.9165    3.7100    0.6887 H   0  0  0  0  0  0  0  0  0  0  0  0
   -6.3369    0.1203   -0.0980 C   0  0  0  0  0  0  0  0  0  0  0  0
   -6.8253    0.5780   -0.9855 H   0  0  0  0  0  0  0  0  0  0  0  0
   -6.7539    0.6315    0.7942 H   0  0  0  0  0  0  0  0  0  0  0  0
   -6.6524   -0.9409   -0.0598 H   0  0  0  0  0  0  0  0  0  0  0  0
  2 11  1  0  0  0  0
  3 17  1  0  0  0  0
  4 14  1  0  0  0  0
  5  1  1  0  0  0  0
  5  8  1  0  0  0  0
  6  5  1  0  0  0  0
  7  5  1  0  0  0  0
  8  4  1  0  0  0  0
  8 10  1  0  0  0  0
  9  8  1  0  0  0  0
 11 13  1  0  0  0  0
 11 12  1  0  0  0  0
 14 16  1  0  0  0  0
 14 15  1  0  0  0  0
 14 11  1  0  0  0  0
 17 22  1  0  0  0  0
 18 26  1  0  0  0  0
 18 17  2  0  0  0  0
 19 18  1  0  0  0  0
 19  4  1  0  0  0  0
 20 19  1  0  0  0  0
 21 19  1  0  0  0  0
 22 23  2  0  0  0  0
 22 28  1  0  0  0  0
 23 24  1  0  0  0  0
 25 32  1  0  0  0  0
 25 23  1  0  0  0  0
 26 25  2  0  0  0  0
 27 26  1  0  0  0  0
 28 31  1  0  0  0  0
 28 30  1  0  0  0  0
 29 28  1  0  0  0  0
 32 35  1  0  0  0  0
 32 34  1  0  0  0  0
 33 32  1  0  0  0  0
M  CHG  1   3  -1
M  END
