1,2,3,4
 OpenBabel05122313063D

 58 57  0  0  1  0  0  0  0  0999 V2000
    1.5437    0.8307   -0.9681 O   0  0  0  0  0  1  0  0  0  0  0  0
   -1.4896    0.9224   -0.9697 O   0  0  0  0  0  1  0  0  0  0  0  0
   -0.0528   -1.7507   -0.9689 O   0  0  0  0  0  1  0  0  0  0  0  0
    0.0002    0.0005    1.0436 N   0  0  0  0  0  0  0  0  0  0  0  0
    1.9991    1.2145    0.3090 C   0  0  1  0  0  0  0  0  0  0  0  0
    1.4017    0.2689    1.3688 C   0  0  0  0  0  0  0  0  0  0  0  0
    3.5557    1.3009    0.3066 C   0  0  0  0  0  0  0  0  0  0  0  0
    3.9575    2.3734   -0.7222 C   0  0  0  0  0  0  0  0  0  0  0  0
    4.0538    1.7151    1.7022 C   0  0  0  0  0  0  0  0  0  0  0  0
    4.1680   -0.0498   -0.1039 C   0  0  0  0  0  0  0  0  0  0  0  0
   -2.0505    1.1234    0.3075 C   0  0  1  0  0  0  0  0  0  0  0  0
   -0.9337    1.0797    1.3684 C   0  0  0  0  0  0  0  0  0  0  0  0
   -2.9061    2.4268    0.3062 C   0  0  0  0  0  0  0  0  0  0  0  0
   -4.0340    2.2381   -0.7244 C   0  0  0  0  0  0  0  0  0  0  0  0
   -3.5163    2.6476    1.7014 C   0  0  0  0  0  0  0  0  0  0  0  0
   -2.0440    3.6347   -0.1009 C   0  0  0  0  0  0  0  0  0  0  0  0
    0.0521   -2.3372    0.3081 C   0  0  1  0  0  0  0  0  0  0  0  0
   -0.4681   -1.3476    1.3683 C   0  0  0  0  0  0  0  0  0  0  0  0
   -0.6507   -3.7289    0.3060 C   0  0  0  0  0  0  0  0  0  0  0  0
    0.0771   -4.6126   -0.7233 C   0  0  0  0  0  0  0  0  0  0  0  0
   -0.5399   -4.3672    1.7016 C   0  0  0  0  0  0  0  0  0  0  0  0
   -2.1269   -3.5848   -0.1038 C   0  0  0  0  0  0  0  0  0  0  0  0
    1.6255    2.2509    0.5084 H   0  0  0  0  0  0  0  0  0  0  0  0
    1.9470   -0.6949    1.3362 H   0  0  0  0  0  0  0  0  0  0  0  0
    1.5217    0.6829    2.3969 H   0  0  0  0  0  0  0  0  0  0  0  0
    5.0612    2.4560   -0.7922 H   0  0  0  0  0  0  0  0  0  0  0  0
    3.5586    3.3690   -0.4362 H   0  0  0  0  0  0  0  0  0  0  0  0
    3.5567    2.1203   -1.7224 H   0  0  0  0  0  0  0  0  0  0  0  0
    5.1467    1.9026    1.6775 H   0  0  0  0  0  0  0  0  0  0  0  0
    3.8724    0.9303    2.4646 H   0  0  0  0  0  0  0  0  0  0  0  0
    3.5640    2.6502    2.0471 H   0  0  0  0  0  0  0  0  0  0  0  0
    5.2694    0.0387   -0.1955 H   0  0  0  0  0  0  0  0  0  0  0  0
    3.7628   -0.3788   -1.0806 H   0  0  0  0  0  0  0  0  0  0  0  0
    3.9654   -0.8471    0.6409 H   0  0  0  0  0  0  0  0  0  0  0  0
   -2.7601    0.2805    0.5061 H   0  0  0  0  0  0  0  0  0  0  0  0
   -0.3724    2.0343    1.3371 H   0  0  0  0  0  0  0  0  0  0  0  0
   -1.3527    0.9757    2.3962 H   0  0  0  0  0  0  0  0  0  0  0  0
   -4.6589    3.1516   -0.7938 H   0  0  0  0  0  0  0  0  0  0  0  0
   -4.6955    1.3931   -0.4405 H   0  0  0  0  0  0  0  0  0  0  0  0
   -3.6126    2.0196   -1.7243 H   0  0  0  0  0  0  0  0  0  0  0  0
   -4.2275    3.4982    1.6768 H   0  0  0  0  0  0  0  0  0  0  0  0
   -2.7477    2.8842    2.4650 H   0  0  0  0  0  0  0  0  0  0  0  0
   -4.0790    1.7537    2.0443 H   0  0  0  0  0  0  0  0  0  0  0  0
   -2.6730    4.5429   -0.1942 H   0  0  0  0  0  0  0  0  0  0  0  0
   -1.5528    3.4496   -1.0761 H   0  0  0  0  0  0  0  0  0  0  0  0
   -1.2552    3.8591    0.6466 H   0  0  0  0  0  0  0  0  0  0  0  0
    1.1365   -2.5318    0.5075 H   0  0  0  0  0  0  0  0  0  0  0  0
   -1.5754   -1.3384    1.3366 H   0  0  0  0  0  0  0  0  0  0  0  0
   -0.1687   -1.6587    2.3961 H   0  0  0  0  0  0  0  0  0  0  0  0
   -0.4028   -5.6100   -0.7931 H   0  0  0  0  0  0  0  0  0  0  0  0
    1.1390   -4.7643   -0.4379 H   0  0  0  0  0  0  0  0  0  0  0  0
    0.0576   -4.1387   -1.7234 H   0  0  0  0  0  0  0  0  0  0  0  0
   -0.9223   -5.4080    1.6769 H   0  0  0  0  0  0  0  0  0  0  0  0
   -1.1295   -3.8188    2.4642 H   0  0  0  0  0  0  0  0  0  0  0  0
    0.5150   -4.4090    2.0463 H   0  0  0  0  0  0  0  0  0  0  0  0
   -2.6002   -4.5831   -0.1953 H   0  0  0  0  0  0  0  0  0  0  0  0
   -2.2100   -3.0695   -1.0806 H   0  0  0  0  0  0  0  0  0  0  0  0
   -2.7161   -3.0111    0.6413 H   0  0  0  0  0  0  0  0  0  0  0  0
  1  5  1  0  0  0  0
  2 11  1  0  0  0  0
  3 17  1  0  0  0  0
  4 18  1  0  0  0  0
  4 12  1  0  0  0  0
  4  6  1  0  0  0  0
  5 23  1  1  0  0  0
  5  6  1  0  0  0  0
  6 25  1  0  0  0  0
  7  5  1  0  0  0  0
  7  9  1  0  0  0  0
  8 27  1  0  0  0  0
  8  7  1  0  0  0  0
  9 31  1  0  0  0  0
  9 30  1  0  0  0  0
 10  7  1  0  0  0  0
 10 34  1  0  0  0  0
 11 35  1  1  0  0  0
 11 12  1  0  0  0  0
 12 37  1  0  0  0  0
 13 11  1  0  0  0  0
 13 15  1  0  0  0  0
 14 39  1  0  0  0  0
 14 13  1  0  0  0  0
 15 43  1  0  0  0  0
 15 42  1  0  0  0  0
 16 13  1  0  0  0  0
 16 46  1  0  0  0  0
 17 47  1  1  0  0  0
 17 18  1  0  0  0  0
 18 49  1  0  0  0  0
 19 17  1  0  0  0  0
 19 21  1  0  0  0  0
 20 51  1  0  0  0  0
 20 19  1  0  0  0  0
 21 55  1  0  0  0  0
 21 54  1  0  0  0  0
 22 19  1  0  0  0  0
 22 58  1  0  0  0  0
 24  6  1  0  0  0  0
 26  8  1  0  0  0  0
 28  8  1  0  0  0  0
 29  9  1  0  0  0  0
 32 10  1  0  0  0  0
 33 10  1  0  0  0  0
 36 12  1  0  0  0  0
 38 14  1  0  0  0  0
 40 14  1  0  0  0  0
 41 15  1  0  0  0  0
 44 16  1  0  0  0  0
 45 16  1  0  0  0  0
 48 18  1  0  0  0  0
 50 20  1  0  0  0  0
 52 20  1  0  0  0  0
 53 21  1  0  0  0  0
 56 22  1  0  0  0  0
 57 22  1  0  0  0  0
M  END
