1,2,4,23
 OpenBabel05122313063D

 44 44  0  0  1  0  0  0  0  0999 V2000
    2.3599   -0.7883    1.5849 O   0  5  0  0  0  0  0  0  0  0  0  0
   -0.6057   -2.4404    1.2159 O   0  5  0  0  0  0  0  0  0  0  0  0
   -2.0760   -2.2596    2.9366 O   0  0  0  0  0  0  0  0  0  0  0  0
   -1.4471   -0.0184    0.1207 N   0  0  0  0  0  0  0  0  0  0  0  0
    4.0811    0.2945    0.5688 O   0  0  0  0  0  0  0  0  0  0  0  0
    1.1843    1.2091   -0.2553 N   0  0  0  0  0  0  0  0  0  0  0  0
   -1.2090    1.4166    0.3925 C   0  0  1  0  0  0  0  0  0  0  0  0
   -0.0320    1.9974   -0.4391 C   0  0  1  0  0  0  0  0  0  0  0  0
   -1.5952   -1.8879    1.8681 C   0  0  0  0  0  0  0  0  0  0  0  0
    2.0218    1.4858    0.9157 C   0  0  0  0  0  0  0  0  0  0  0  0
    1.9621    0.8339   -1.4361 C   0  0  0  0  0  0  0  0  0  0  0  0
   -1.8646   -0.2900   -1.2575 C   0  0  0  0  0  0  0  0  0  0  0  0
    2.9262    0.2348    1.0929 C   0  0  0  0  0  0  0  0  0  0  0  0
   -2.2200   -1.7243   -1.7066 C   0  0  0  0  0  0  0  0  0  0  0  0
   -2.2592   -0.6631    1.1663 C   0  0  0  0  0  0  0  0  0  0  0  0
    0.1640    3.5042   -0.1674 C   0  0  0  0  0  0  0  0  0  0  0  0
   -2.4763    2.2887    0.2331 C   0  0  0  0  0  0  0  0  0  0  0  0
   -2.2300    3.7678    0.5382 C   0  0  0  0  0  0  0  0  0  0  0  0
   -1.1170    4.3196   -0.3566 C   0  0  0  0  0  0  0  0  0  0  0  0
    2.1235   -0.7096   -1.4971 C   0  0  2  0  0  3  0  0  0  0  0  0
   -2.9153   -1.8343   -2.7076 O   0  0  0  0  0  0  0  0  0  0  0  0
    3.3428   -1.2241   -1.3633 O   0  0  0  0  0  0  0  0  0  0  0  0
    1.1293   -1.4134   -1.7610 O   0  0  0  0  0  1  0  0  0  0  0  0
   -1.7424   -2.7741   -1.0629 O   0  0  0  0  0  0  0  0  0  0  0  0
   -0.8943    1.4666    1.4594 H   0  0  0  0  0  0  0  0  0  0  0  0
   -0.3131    1.8923   -1.5091 H   0  0  0  0  0  0  0  0  0  0  0  0
    2.6568    2.3959    0.7852 H   0  0  0  0  0  0  0  0  0  0  0  0
    1.3708    1.6065    1.8048 H   0  0  0  0  0  0  0  0  0  0  0  0
    1.4004    1.1177   -2.3490 H   0  0  0  0  0  0  0  0  0  0  0  0
    2.9558    1.3361   -1.4554 H   0  0  0  0  0  0  0  0  0  0  0  0
   -2.7531    0.3053   -1.5719 H   0  0  0  0  0  0  0  0  0  0  0  0
   -1.0278   -0.0175   -1.9352 H   0  0  0  0  0  0  0  0  0  0  0  0
   -2.5049    0.0570    1.9728 H   0  0  0  0  0  0  0  0  0  0  0  0
   -3.2393   -1.0079    0.7649 H   0  0  0  0  0  0  0  0  0  0  0  0
    0.9789    3.8797   -0.8223 H   0  0  0  0  0  0  0  0  0  0  0  0
    0.5185    3.6380    0.8774 H   0  0  0  0  0  0  0  0  0  0  0  0
   -3.2768    1.8819    0.8857 H   0  0  0  0  0  0  0  0  0  0  0  0
   -2.8493    2.1988   -0.8100 H   0  0  0  0  0  0  0  0  0  0  0  0
   -3.1677    4.3494    0.4089 H   0  0  0  0  0  0  0  0  0  0  0  0
   -1.9322    3.8855    1.6049 H   0  0  0  0  0  0  0  0  0  0  0  0
   -0.9268    5.3928   -0.1404 H   0  0  0  0  0  0  0  0  0  0  0  0
   -1.4429    4.2658   -1.4201 H   0  0  0  0  0  0  0  0  0  0  0  0
    3.8566   -0.6481   -0.6742 H   0  0  0  0  0  0  0  0  0  0  0  0
   -1.1883   -2.5715   -0.2153 H   0  0  0  0  0  0  0  0  0  0  0  0
  2  9  1  0  0  0  0
  4  7  1  0  0  0  0
  4 15  1  0  0  0  0
  5 13  2  0  0  0  0
  6 10  1  0  0  0  0
  7 25  1  1  0  0  0
  8 26  1  6  0  0  0
  8  6  1  0  0  0  0
  8 16  1  0  0  0  0
  8  7  1  0  0  0  0
  9  3  2  0  0  0  0
 10 13  1  0  0  0  0
 10 28  1  0  0  0  0
 11  6  1  0  0  0  0
 12  4  1  0  0  0  0
 13  1  1  0  0  0  0
 14 12  1  0  0  0  0
 14 24  1  0  0  0  0
 15  9  1  0  0  0  0
 15 33  1  0  0  0  0
 16 36  1  0  0  0  0
 17  7  1  0  0  0  0
 17 18  1  0  0  0  0
 17 37  1  0  0  0  0
 18 40  1  0  0  0  0
 19 16  1  0  0  0  0
 19 41  1  0  0  0  0
 19 18  1  0  0  0  0
 20 23  1  6  0  0  0
 20 11  1  0  0  0  0
 20 22  1  0  0  0  0
 21 14  2  0  0  0  0
 22 43  1  0  0  0  0
 24 44  1  0  0  0  0
 27 10  1  0  0  0  0
 29 11  1  0  0  0  0
 30 11  1  0  0  0  0
 31 12  1  0  0  0  0
 32 12  1  0  0  0  0
 34 15  1  0  0  0  0
 35 16  1  0  0  0  0
 38 17  1  0  0  0  0
 39 18  1  0  0  0  0
 42 19  1  0  0  0  0
M  CHG  2   1  -1   2  -1
M  END
