1,2,3,27,28
 OpenBabel05122313063D

 50 53  0  0  0  0  0  0  0  0999 V2000
   -0.8315   -1.0479   -1.4837 S   0  0  0  0  0  0  0  0  0  0  0  0
   -1.8358    0.2466    0.8739 N   0  0  0  0  0  2  0  0  0  0  0  0
    0.2982    1.4466    1.5415 N   0  0  0  0  0  0  0  0  0  0  0  0
   -0.0854   -2.6764   -1.0280 C   0  0  0  0  0  0  0  0  0  0  0  0
   -0.6567   -3.4527   -1.5780 H   0  0  0  0  0  0  0  0  0  0  0  0
    0.9325   -2.6296   -1.4681 H   0  0  0  0  0  0  0  0  0  0  0  0
   -2.5081   -1.2447   -0.8706 C   0  0  0  0  0  0  0  0  0  0  0  0
   -3.4452   -2.0415   -1.5416 C   0  0  0  0  0  0  0  0  0  0  0  0
   -3.1535   -2.5599   -2.4679 H   0  0  0  0  0  0  0  0  0  0  0  0
   -4.7435   -2.1683   -1.0269 C   0  0  0  0  0  0  0  0  0  0  0  0
   -5.4849   -2.7948   -1.5433 H   0  0  0  0  0  0  0  0  0  0  0  0
   -5.0883   -1.4757    0.1495 C   0  0  0  0  0  0  0  0  0  0  0  0
   -6.1067   -1.5664    0.5570 H   0  0  0  0  0  0  0  0  0  0  0  0
   -4.1614   -0.6639    0.8107 C   0  0  0  0  0  0  0  0  0  0  0  0
   -4.4614   -0.1322    1.7245 H   0  0  0  0  0  0  0  0  0  0  0  0
   -2.8425   -0.5261    0.3083 C   0  0  0  0  0  0  0  0  0  0  0  0
   -1.9570    0.9800    1.9897 C   0  0  0  0  0  3  0  0  0  0  0  0
   -2.9070    1.0446    2.5449 H   0  0  0  0  0  0  0  0  0  0  0  0
   -0.7966    1.6564    2.3871 C   0  0  0  0  0  3  0  0  0  0  0  0
   -0.4163    2.5473    3.4349 C   0  0  0  0  0  0  0  0  0  0  0  0
   -1.0555    2.9020    4.2516 H   0  0  0  0  0  0  0  0  0  0  0  0
    0.9229    2.8727    3.1928 C   0  0  0  0  0  0  0  0  0  0  0  0
    1.5650    3.5272    3.7945 H   0  0  0  0  0  0  0  0  0  0  0  0
    1.3222    2.1741    2.0112 C   0  0  0  0  0  0  0  0  0  0  0  0
    2.3011    2.1716    1.5155 H   0  0  0  0  0  0  0  0  0  0  0  0
    0.9062   -1.8134    1.5076 S   0  0  0  0  0  0  0  0  0  0  0  0
    1.6707    0.3899   -0.6371 N   0  0  0  0  0  2  0  0  0  0  0  0
   -0.3886    2.1185   -1.4021 N   0  0  0  0  0  0  0  0  0  0  0  0
   -0.0305   -2.9982    0.4555 C   0  0  0  0  0  0  0  0  0  0  0  0
    0.4037   -4.0135    0.5765 H   0  0  0  0  0  0  0  0  0  0  0  0
   -1.0494   -3.0140    0.8971 H   0  0  0  0  0  0  0  0  0  0  0  0
    2.4178   -1.6437    0.5649 C   0  0  0  0  0  0  0  0  0  0  0  0
    3.4296   -2.5939    0.8108 C   0  0  0  0  0  0  0  0  0  0  0  0
    3.2288   -3.3645    1.5703 H   0  0  0  0  0  0  0  0  0  0  0  0
    4.6483   -2.5716    0.1243 C   0  0  0  0  0  0  0  0  0  0  0  0
    5.4216   -3.3250    0.3337 H   0  0  0  0  0  0  0  0  0  0  0  0
    4.8519   -1.5756   -0.8451 C   0  0  0  0  0  0  0  0  0  0  0  0
    5.7881   -1.5472   -1.4238 H   0  0  0  0  0  0  0  0  0  0  0  0
    3.8671   -0.6202   -1.1001 C   0  0  0  0  0  0  0  0  0  0  0  0
    4.0479    0.1178   -1.8930 H   0  0  0  0  0  0  0  0  0  0  0  0
    2.6323   -0.5937   -0.3897 C   0  0  0  0  0  0  0  0  0  0  0  0
    1.9403    1.4887   -1.3610 C   0  0  0  0  0  3  0  0  0  0  0  0
    2.9809    1.7102   -1.6561 H   0  0  0  0  0  0  0  0  0  0  0  0
    0.9377    2.3927   -1.7286 C   0  0  0  0  0  3  0  0  0  0  0  0
    1.0362    3.6547   -2.4122 C   0  0  0  0  0  0  0  0  0  0  0  0
    1.9551    4.1248   -2.7848 H   0  0  0  0  0  0  0  0  0  0  0  0
   -0.2647    4.1444   -2.4830 C   0  0  0  0  0  0  0  0  0  0  0  0
   -0.5996    5.0865   -2.9355 H   0  0  0  0  0  0  0  0  0  0  0  0
   -1.0973    3.1591   -1.8437 C   0  0  0  0  0  0  0  0  0  0  0  0
   -2.1898    3.1979   -1.7127 H   0  0  0  0  0  0  0  0  0  0  0  0
  1  4  1  0  0  0  0
  1  7  1  0  0  0  0
  2 17  1  0  0  0  0
  3 24  2  0  0  0  0
  3 19  1  0  0  0  0
  4 29  1  0  0  0  0
  5  4  1  0  0  0  0
  6  4  1  0  0  0  0
  7 16  1  0  0  0  0
  8 10  1  0  0  0  0
  8  7  2  0  0  0  0
  9  8  1  0  0  0  0
 10 12  2  0  0  0  0
 11 10  1  0  0  0  0
 12 13  1  0  0  0  0
 12 14  1  0  0  0  0
 14 15  1  0  0  0  0
 16 14  2  0  0  0  0
 16  2  1  0  0  0  0
 17 19  1  0  0  0  0
 17 18  1  0  0  0  0
 19 20  1  0  0  0  0
 20 21  1  0  0  0  0
 22 20  2  0  0  0  0
 22 23  1  0  0  0  0
 24 22  1  0  0  0  0
 25 24  1  0  0  0  0
 27 41  1  0  0  0  0
 29 30  1  0  0  0  0
 29 31  1  0  0  0  0
 29 26  1  0  0  0  0
 32 33  1  0  0  0  0
 32 26  1  0  0  0  0
 33 34  1  0  0  0  0
 35 36  1  0  0  0  0
 35 33  2  0  0  0  0
 37 35  1  0  0  0  0
 38 37  1  0  0  0  0
 39 37  2  0  0  0  0
 39 41  1  0  0  0  0
 40 39  1  0  0  0  0
 41 32  2  0  0  0  0
 42 27  1  0  0  0  0
 43 42  1  0  0  0  0
 44 28  1  0  0  0  0
 44 42  1  0  0  0  0
 45 44  1  0  0  0  0
 46 45  1  0  0  0  0
 47 45  2  0  0  0  0
 47 49  1  0  0  0  0
 48 47  1  0  0  0  0
 49 50  1  0  0  0  0
 49 28  2  0  0  0  0
M  END
