1,8,15,26,39
 OpenBabel05122313063D

 47 49  0  0  1  0  0  0  0  0999 V2000
    0.1951   -2.2719   -1.1474 S   0  0  0  0  0  0  0  0  0  0  0  0
   -1.6065   -2.6471   -1.2882 C   0  0  0  0  0  0  0  0  0  0  0  0
   -1.8740   -2.0699   -2.1959 H   0  0  0  0  0  0  0  0  0  0  0  0
   -1.7626   -3.7268   -1.4836 H   0  0  0  0  0  0  0  0  0  0  0  0
   -2.3661   -2.1728   -0.0581 C   0  0  0  0  0  0  0  0  0  0  0  0
   -3.4611   -2.1937   -0.2501 H   0  0  0  0  0  0  0  0  0  0  0  0
   -2.1918   -2.8703    0.7850 H   0  0  0  0  0  0  0  0  0  0  0  0
   -1.9453   -0.8055    0.3797 N   0  0  0  0  0  0  0  0  0  0  0  0
   -1.8736   -0.6952    1.8691 C   0  0  0  0  0  0  0  0  0  0  0  0
   -1.8836    0.3815    2.1203 H   0  0  0  0  0  0  0  0  0  0  0  0
   -2.7751   -1.1419    2.3457 H   0  0  0  0  0  0  0  0  0  0  0  0
   -0.6052   -1.3445    2.4070 C   0  0  0  0  0  0  0  0  0  0  0  0
   -0.4145   -1.0179    3.4511 H   0  0  0  0  0  0  0  0  0  0  0  0
   -0.7221   -2.4446    2.4478 H   0  0  0  0  0  0  0  0  0  0  0  0
    0.5602   -1.0363    1.5261 N   0  0  0  0  0  0  0  0  0  0  0  0
    1.3792   -2.2720    1.2942 C   0  0  0  0  0  0  0  0  0  0  0  0
    2.3428   -1.9492    0.8527 H   0  0  0  0  0  0  0  0  0  0  0  0
    1.6163   -2.7539    2.2697 H   0  0  0  0  0  0  0  0  0  0  0  0
    0.6916   -3.2468    0.3513 C   0  0  0  0  0  0  0  0  0  0  0  0
   -0.1988   -3.7296    0.7997 H   0  0  0  0  0  0  0  0  0  0  0  0
    1.3871   -4.0525    0.0460 H   0  0  0  0  0  0  0  0  0  0  0  0
   -2.8195    0.2706   -0.1514 C   0  0  0  0  0  0  0  0  0  0  0  0
   -2.8955    0.1247   -1.2495 H   0  0  0  0  0  0  0  0  0  0  0  0
   -3.8375    0.2391    0.2987 H   0  0  0  0  0  0  0  0  0  0  0  0
   -2.1386    1.5890    0.0996 C   0  0  1  0  0  3  0  0  0  0  0  0
   -0.7735    1.5155    0.1929 N   0  0  0  0  0  2  0  0  0  0  0  0
   -0.0852    2.6739    0.3492 C   0  0  0  0  0  0  0  0  0  0  0  0
    1.0099    2.5943    0.3916 H   0  0  0  0  0  0  0  0  0  0  0  0
   -0.7104    3.9205    0.4333 C   0  0  0  0  0  0  0  0  0  0  0  0
   -0.0955    4.8234    0.5544 H   0  0  0  0  0  0  0  0  0  0  0  0
   -2.1082    3.9941    0.3569 C   0  0  0  0  0  0  0  0  0  0  0  0
   -2.6294    4.9600    0.4204 H   0  0  0  0  0  0  0  0  0  0  0  0
   -2.8274    2.8010    0.1923 C   0  0  0  0  0  0  0  0  0  0  0  0
   -3.9248    2.8049    0.1214 H   0  0  0  0  0  0  0  0  0  0  0  0
    1.4434    0.0553    2.0127 C   0  0  0  0  0  0  0  0  0  0  0  0
    0.7937    0.8970    2.3324 H   0  0  0  0  0  0  0  0  0  0  0  0
    2.0501   -0.2552    2.8941 H   0  0  0  0  0  0  0  0  0  0  0  0
    2.3243    0.4730    0.8587 C   0  0  1  0  0  3  0  0  0  0  0  0
    1.7198    0.3461   -0.3675 N   0  0  0  0  0  2  0  0  0  0  0  0
    2.4189    0.6848   -1.4809 C   0  0  0  0  0  0  0  0  0  0  0  0
    1.8696    0.5659   -2.4278 H   0  0  0  0  0  0  0  0  0  0  0  0
    3.7261    1.1754   -1.4095 C   0  0  0  0  0  0  0  0  0  0  0  0
    4.2488    1.4440   -2.3386 H   0  0  0  0  0  0  0  0  0  0  0  0
    4.3479    1.3166   -0.1593 C   0  0  0  0  0  0  0  0  0  0  0  0
    5.3757    1.6984   -0.0788 H   0  0  0  0  0  0  0  0  0  0  0  0
    3.6317    0.9471    0.9919 C   0  0  0  0  0  0  0  0  0  0  0  0
    4.0836    1.0250    1.9917 H   0  0  0  0  0  0  0  0  0  0  0  0
  1 19  1  0  0  0  0
  2  1  1  0  0  0  0
  2  5  1  0  0  0  0
  3  2  1  0  0  0  0
  4  2  1  0  0  0  0
  5  8  1  0  0  0  0
  5  7  1  0  0  0  0
  6  5  1  0  0  0  0
  8  9  1  0  0  0  0
  9 10  1  0  0  0  0
  9 11  1  0  0  0  0
  9 12  1  0  0  0  0
 12 14  1  0  0  0  0
 12 13  1  0  0  0  0
 15 35  1  0  0  0  0
 15 12  1  0  0  0  0
 16 15  1  0  0  0  0
 16 18  1  0  0  0  0
 17 16  1  0  0  0  0
 19 20  1  0  0  0  0
 19 16  1  0  0  0  0
 21 19  1  0  0  0  0
 22 24  1  0  0  0  0
 22  8  1  0  0  0  0
 23 22  1  0  0  0  0
 25 22  1  6  0  0  0
 25 33  1  0  0  0  0
 25 26  1  0  0  0  0
 26 27  1  0  0  0  0
 27 28  1  0  0  0  0
 27 29  2  0  0  0  0
 29 30  1  0  0  0  0
 31 32  1  0  0  0  0
 31 29  1  0  0  0  0
 33 31  2  0  0  0  0
 34 33  1  0  0  0  0
 35 36  1  0  0  0  0
 35 37  1  0  0  0  0
 38 46  1  0  0  0  0
 38 35  1  1  0  0  0
 39 38  1  0  0  0  0
 40 42  2  0  0  0  0
 40 39  1  0  0  0  0
 41 40  1  0  0  0  0
 42 44  1  0  0  0  0
 43 42  1  0  0  0  0
 44 45  1  0  0  0  0
 44 46  2  0  0  0  0
 46 47  1  0  0  0  0
M  END
