1,2,4,41
 OpenBabel05122313063D

 58 63  0  0  0  0  0  0  0  0999 V2000
    1.2154    0.1765    1.3166 N   0  0  0  0  0  2  0  0  0  0  0  0
   -1.2527    0.2505    1.3025 N   0  0  0  0  0  2  0  0  0  0  0  0
   -3.0723    1.5598    0.3788 C   0  0  0  0  0  0  0  0  0  0  0  0
    1.4985   -0.2642   -1.5121 C   0  0  0  0  0  3  0  0  0  0  0  0
    1.0897   -0.6003   -2.4821 H   0  0  0  0  0  0  0  0  0  0  0  0
    2.5876    3.2840   -1.0325 C   0  0  0  0  0  0  0  0  0  0  0  0
    2.0163    3.6475   -1.9013 H   0  0  0  0  0  0  0  0  0  0  0  0
   -0.7283    0.2461    2.5343 C   0  0  0  0  0  0  0  0  0  0  0  0
   -1.3567    0.2856    3.4399 H   0  0  0  0  0  0  0  0  0  0  0  0
    3.1593   -0.9361    0.2807 C   0  0  0  0  0  0  0  0  0  0  0  0
    2.5841   -1.1161   -1.0101 C   0  0  0  0  0  0  0  0  0  0  0  0
    2.6761    0.1980    1.1686 C   0  0  0  0  0  0  0  0  0  0  0  0
    3.1520    0.0882    2.1668 H   0  0  0  0  0  0  0  0  0  0  0  0
   -3.2354   -0.9417    0.4921 C   0  0  0  0  0  0  0  0  0  0  0  0
   -2.3894    1.7917   -0.8418 C   0  0  0  0  0  0  0  0  0  0  0  0
   -2.6534   -1.3621   -0.7343 C   0  0  0  0  0  0  0  0  0  0  0  0
    2.3202    1.9883   -0.5362 C   0  0  0  0  0  0  0  0  0  0  0  0
   -3.5875    3.9228   -1.0486 C   0  0  0  0  0  0  0  0  0  0  0  0
   -3.7769    4.8513   -1.6085 H   0  0  0  0  0  0  0  0  0  0  0  0
    3.0548    1.5465    0.5910 C   0  0  0  0  0  0  0  0  0  0  0  0
    3.0204   -2.2222   -1.7764 C   0  0  0  0  0  0  0  0  0  0  0  0
    2.5745   -2.3783   -2.7716 H   0  0  0  0  0  0  0  0  0  0  0  0
    4.1427   -1.8227    0.7436 C   0  0  0  0  0  0  0  0  0  0  0  0
    4.5712   -1.6662    1.7469 H   0  0  0  0  0  0  0  0  0  0  0  0
    1.3257    1.1357   -1.2156 C   0  0  0  0  0  3  0  0  0  0  0  0
    0.8032    1.7032   -1.9995 H   0  0  0  0  0  0  0  0  0  0  0  0
    4.0419    2.3568    1.1682 C   0  0  0  0  0  0  0  0  0  0  0  0
    4.5956    1.9892    2.0472 H   0  0  0  0  0  0  0  0  0  0  0  0
   -1.4381    0.8204   -1.4076 C   0  0  0  0  0  3  0  0  0  0  0  0
   -0.9519    1.2080   -2.3172 H   0  0  0  0  0  0  0  0  0  0  0  0
   -4.2766    3.6673    0.1473 C   0  0  0  0  0  0  0  0  0  0  0  0
   -5.0063    4.3930    0.5367 H   0  0  0  0  0  0  0  0  0  0  0  0
   -2.7147    0.3153    1.1657 C   0  0  0  0  0  0  0  0  0  0  0  0
   -3.1786    0.3880    2.1726 H   0  0  0  0  0  0  0  0  0  0  0  0
   -4.0101    2.4856    0.8568 C   0  0  0  0  0  0  0  0  0  0  0  0
   -4.5254    2.2852    1.8100 H   0  0  0  0  0  0  0  0  0  0  0  0
    4.5703   -2.9099   -0.0368 C   0  0  0  0  0  0  0  0  0  0  0  0
    5.3392   -3.5979    0.3456 H   0  0  0  0  0  0  0  0  0  0  0  0
    0.6799    0.2076    2.5384 C   0  0  0  0  0  0  0  0  0  0  0  0
    1.3043    0.2178    3.4480 H   0  0  0  0  0  0  0  0  0  0  0  0
   -1.5862   -0.6032   -1.4009 C   0  0  0  0  0  3  0  0  0  0  0  0
   -1.1599   -1.1261   -2.2738 H   0  0  0  0  0  0  0  0  0  0  0  0
   -3.1056   -2.5763   -1.3006 C   0  0  0  0  0  0  0  0  0  0  0  0
   -2.6536   -2.9153   -2.2464 H   0  0  0  0  0  0  0  0  0  0  0  0
   -4.2535   -1.7019    1.0868 C   0  0  0  0  0  0  0  0  0  0  0  0
   -4.6905   -1.3580    2.0382 H   0  0  0  0  0  0  0  0  0  0  0  0
   -4.1178   -3.3348   -0.6975 C   0  0  0  0  0  0  0  0  0  0  0  0
   -4.4542   -4.2721   -1.1670 H   0  0  0  0  0  0  0  0  0  0  0  0
   -2.6565    2.9947   -1.5336 C   0  0  0  0  0  0  0  0  0  0  0  0
   -2.1262    3.1910   -2.4791 H   0  0  0  0  0  0  0  0  0  0  0  0
    3.9979   -3.1084   -1.3033 C   0  0  0  0  0  0  0  0  0  0  0  0
    4.3187   -3.9552   -1.9299 H   0  0  0  0  0  0  0  0  0  0  0  0
    4.3078    3.6337    0.6492 C   0  0  0  0  0  0  0  0  0  0  0  0
    5.0762    4.2701    1.1133 H   0  0  0  0  0  0  0  0  0  0  0  0
   -4.7039   -2.8949    0.4995 C   0  0  0  0  0  0  0  0  0  0  0  0
   -5.4987   -3.4831    0.9823 H   0  0  0  0  0  0  0  0  0  0  0  0
    3.5682    4.0983   -0.4501 C   0  0  0  0  0  0  0  0  0  0  0  0
    3.7564    5.1036   -0.8574 H   0  0  0  0  0  0  0  0  0  0  0  0
  1 39  1  0  0  0  0
  2  8  1  0  0  0  0
  3 35  1  0  0  0  0
  3 33  1  0  0  0  0
  4 25  1  0  0  0  0
  4 11  1  0  0  0  0
  5  4  1  0  0  0  0
  6 17  2  0  0  0  0
  6 57  1  0  0  0  0
  7  6  1  0  0  0  0
  8 39  2  0  0  0  0
  8  9  1  0  0  0  0
 10 23  1  0  0  0  0
 10 12  1  0  0  0  0
 11 10  2  0  0  0  0
 12  1  1  0  0  0  0
 12 13  1  0  0  0  0
 14 45  1  0  0  0  0
 14 33  1  0  0  0  0
 15  3  2  0  0  0  0
 16 14  2  0  0  0  0
 17 20  1  0  0  0  0
 18 31  1  0  0  0  0
 19 18  1  0  0  0  0
 20 27  2  0  0  0  0
 20 12  1  0  0  0  0
 21 51  2  0  0  0  0
 21 11  1  0  0  0  0
 22 21  1  0  0  0  0
 23 24  1  0  0  0  0
 25 17  1  0  0  0  0
 26 25  1  0  0  0  0
 27 28  1  0  0  0  0
 29 41  1  0  0  0  0
 29 15  1  0  0  0  0
 30 29  1  0  0  0  0
 31 32  1  0  0  0  0
 31 35  2  0  0  0  0
 33  2  1  0  0  0  0
 33 34  1  0  0  0  0
 35 36  1  0  0  0  0
 37 38  1  0  0  0  0
 37 23  2  0  0  0  0
 39 40  1  0  0  0  0
 41 16  1  0  0  0  0
 42 41  1  0  0  0  0
 43 16  1  0  0  0  0
 43 47  2  0  0  0  0
 44 43  1  0  0  0  0
 45 46  1  0  0  0  0
 47 55  1  0  0  0  0
 48 47  1  0  0  0  0
 49 18  2  0  0  0  0
 49 15  1  0  0  0  0
 50 49  1  0  0  0  0
 51 37  1  0  0  0  0
 52 51  1  0  0  0  0
 53 54  1  0  0  0  0
 53 27  1  0  0  0  0
 55 56  1  0  0  0  0
 55 45  2  0  0  0  0
 57 53  2  0  0  0  0
 58 57  1  0  0  0  0
M  END
