1,4,7,19
 OpenBabel05122313063D

 44 46  0  0  0  0  0  0  0  0999 V2000
    0.9972   -1.5809    0.1658 N   0  0  0  0  0  2  0  0  0  0  0  0
    2.9920    2.7856   -1.0497 O   0  0  0  0  0  0  0  0  0  0  0  0
   -1.9805    2.3636    1.1058 N   0  0  0  0  0  0  0  0  0  0  0  0
    1.7102    1.0056   -0.2270 N   0  0  0  0  0  2  0  0  0  0  0  0
   -1.9570   -2.1938    0.1690 N   0  0  0  0  0  0  0  0  0  0  0  0
    1.9164    2.2398   -0.7609 C   0  0  0  0  0  0  0  0  0  0  0  0
   -1.8523   -0.8265   -0.1146 C   0  0  0  0  0  3  0  0  0  0  0  0
    1.1519   -3.8970    0.5151 O   0  0  0  0  0  0  0  0  0  0  0  0
   -0.4778    3.0447   -0.2971 N   0  0  0  0  0  0  0  0  0  0  0  0
   -0.9494   -2.9372    0.9081 C   0  0  0  0  0  0  0  0  0  0  0  0
   -1.1992   -4.0120    0.8667 H   0  0  0  0  0  0  0  0  0  0  0  0
   -0.9873   -2.6067    1.9680 H   0  0  0  0  0  0  0  0  0  0  0  0
   -3.7738   -1.7106   -0.9354 N   0  0  0  0  0  0  0  0  0  0  0  0
   -2.7597    1.5371    2.0118 C   0  0  0  0  0  0  0  0  0  0  0  0
   -3.8182    1.4763    1.6865 H   0  0  0  0  0  0  0  0  0  0  0  0
   -2.7168    1.9577    3.0355 H   0  0  0  0  0  0  0  0  0  0  0  0
   -2.3219    0.5237    2.0115 H   0  0  0  0  0  0  0  0  0  0  0  0
    0.5310   -2.8241    0.4450 C   0  0  0  0  0  0  0  0  0  0  0  0
   -0.9870    1.9133    0.2691 C   0  0  0  0  0  2  0  0  0  0  0  0
    2.3882   -1.3054    0.0621 C   0  0  0  0  0  0  0  0  0  0  0  0
   -2.0805    3.7500    1.0504 C   0  0  0  0  0  0  0  0  0  0  0  0
   -2.8026    4.3086    1.6530 H   0  0  0  0  0  0  0  0  0  0  0  0
    2.7638    0.0704   -0.0761 C   0  0  0  0  0  0  0  0  0  0  0  0
    0.6539    3.0229   -1.2125 C   0  0  0  0  0  0  0  0  0  0  0  0
    0.9834    4.0629   -1.3803 H   0  0  0  0  0  0  0  0  0  0  0  0
    0.3225    2.5995   -2.1847 H   0  0  0  0  0  0  0  0  0  0  0  0
    5.1228   -0.5742    0.0083 C   0  0  0  0  0  0  0  0  0  0  0  0
    6.1839   -0.2797   -0.0024 H   0  0  0  0  0  0  0  0  0  0  0  0
    3.4046   -2.2875    0.1278 C   0  0  0  0  0  0  0  0  0  0  0  0
    3.1043   -3.3360    0.2141 H   0  0  0  0  0  0  0  0  0  0  0  0
   -1.1259    4.1794    0.1651 C   0  0  0  0  0  0  0  0  0  0  0  0
   -0.8531    5.1855   -0.1663 H   0  0  0  0  0  0  0  0  0  0  0  0
   -5.0374   -1.8461   -1.6411 C   0  0  0  0  0  0  0  0  0  0  0  0
   -5.4190   -2.8765   -1.5259 H   0  0  0  0  0  0  0  0  0  0  0  0
   -4.9018   -1.6321   -2.7198 H   0  0  0  0  0  0  0  0  0  0  0  0
   -5.7830   -1.1399   -1.2263 H   0  0  0  0  0  0  0  0  0  0  0  0
   -3.0966   -2.7101   -0.3324 C   0  0  0  0  0  3  0  0  0  0  0  0
   -3.4231   -3.7525   -0.2634 H   0  0  0  0  0  0  0  0  0  0  0  0
    4.1349    0.4150   -0.0840 C   0  0  0  0  0  0  0  0  0  0  0  0
    4.4016    1.4708   -0.1911 H   0  0  0  0  0  0  0  0  0  0  0  0
   -3.0282   -0.5426   -0.8077 C   0  0  0  0  0  0  0  0  0  0  0  0
   -3.3737    0.3969   -1.2493 H   0  0  0  0  0  0  0  0  0  0  0  0
    4.7577   -1.9232    0.1024 C   0  0  0  0  0  0  0  0  0  0  0  0
    5.5269   -2.7089    0.1625 H   0  0  0  0  0  0  0  0  0  0  0  0
  1 18  1  0  0  0  0
  2  6  2  0  0  0  0
  3 14  1  0  0  0  0
  4 23  1  0  0  0  0
  5 10  1  0  0  0  0
  6  4  1  0  0  0  0
  7  5  1  0  0  0  0
  9 31  1  0  0  0  0
  9 19  1  0  0  0  0
 10 12  1  0  0  0  0
 11 10  1  0  0  0  0
 13 41  1  0  0  0  0
 13 37  1  0  0  0  0
 14 16  1  0  0  0  0
 15 14  1  0  0  0  0
 17 14  1  0  0  0  0
 18  8  2  0  0  0  0
 18 10  1  0  0  0  0
 19  3  1  0  0  0  0
 20 29  1  0  0  0  0
 20  1  1  0  0  0  0
 21  3  1  0  0  0  0
 21 22  1  0  0  0  0
 23 20  2  0  0  0  0
 24  6  1  0  0  0  0
 24  9  1  0  0  0  0
 25 24  1  0  0  0  0
 26 24  1  0  0  0  0
 27 43  1  0  0  0  0
 28 27  1  0  0  0  0
 29 30  1  0  0  0  0
 31 21  2  0  0  0  0
 32 31  1  0  0  0  0
 33 34  1  0  0  0  0
 33 36  1  0  0  0  0
 33 13  1  0  0  0  0
 35 33  1  0  0  0  0
 37 38  1  0  0  0  0
 37  5  1  0  0  0  0
 39 23  1  0  0  0  0
 39 27  2  0  0  0  0
 40 39  1  0  0  0  0
 41  7  2  0  0  0  0
 42 41  1  0  0  0  0
 43 29  2  0  0  0  0
 43 44  1  0  0  0  0
M  END
