9,10,12,15
 OpenBabel05122313063D

 64 67  0  0  1  0  0  0  0  0999 V2000
    0.3816   -0.9834    1.5740 S   0  0  0  0  0  0  0  0  0  0  0  0
    3.3229   -2.7689   -2.2980 F   0  0  0  0  0  0  0  0  0  0  0  0
    5.6223   -1.7970   -1.2015 F   0  0  0  0  0  0  0  0  0  0  0  0
    5.5607   -0.5382    1.2284 F   0  0  0  0  0  0  0  0  0  0  0  0
    3.2659   -0.2694    2.5699 F   0  0  0  0  0  0  0  0  0  0  0  0
    0.9048   -2.4887   -1.0006 O   0  0  0  0  0  0  0  0  0  0  0  0
   -0.2114   -2.3162    1.8185 O   0  0  0  0  0  0  0  0  0  0  0  0
    0.6167   -0.0785    2.7207 O   0  0  0  0  0  0  0  0  0  0  0  0
   -2.3778    1.3165   -0.6904 N   0  0  0  0  0  0  0  0  0  0  0  0
   -0.4134   -0.1977    0.3207 N   0  0  0  0  0  2  0  0  0  0  0  0
   -2.0249   -2.2526   -1.6228 C   0  0  0  0  0  0  0  0  0  0  0  0
   -3.1750   -1.4601   -1.9388 C   0  0  0  0  0  3  0  0  0  0  0  0
   -4.2935   -1.3507   -1.0415 C   0  0  0  0  0  0  0  0  0  0  0  0
   -4.2402   -1.9476    0.2491 C   0  0  0  0  0  0  0  0  0  0  0  0
   -3.0527   -2.6932    0.6064 C   0  0  0  0  0  3  0  0  0  0  0  0
   -1.9875   -2.8536   -0.3161 C   0  0  0  0  0  0  0  0  0  0  0  0
   -5.3444   -1.7661    1.2476 C   0  0  0  0  0  0  0  0  0  0  0  0
   -0.8914   -2.4423   -2.6052 C   0  0  0  0  0  0  0  0  0  0  0  0
    0.4457   -1.8405   -2.1968 C   0  0  0  0  0  0  0  0  0  0  0  0
    2.0441   -1.9836   -0.4438 C   0  0  0  0  0  0  0  0  0  0  0  0
    3.2726   -2.1386   -1.1108 C   0  0  0  0  0  0  0  0  0  0  0  0
    4.4650   -1.6541   -0.5500 C   0  0  0  0  0  0  0  0  0  0  0  0
    4.4315   -1.0148    0.6957 C   0  0  0  0  0  0  0  0  0  0  0  0
    3.2129   -0.8763    1.3857 C   0  0  0  0  0  0  0  0  0  0  0  0
    2.0104   -1.3118    0.8026 C   0  0  0  0  0  0  0  0  0  0  0  0
   -1.0005    1.8598   -0.8155 C   0  0  2  0  0  0  0  0  0  0  0  0
   -0.1704    1.2639    0.3377 C   0  0  2  0  0  0  0  0  0  0  0  0
   -0.9766    3.3741   -0.8268 C   0  0  0  0  0  0  0  0  0  0  0  0
   -0.3810    4.0769   -1.8897 C   0  0  0  0  0  0  0  0  0  0  0  0
   -0.3386    5.4794   -1.8841 C   0  0  0  0  0  0  0  0  0  0  0  0
   -0.8944    6.1942   -0.8122 C   0  0  0  0  0  0  0  0  0  0  0  0
   -1.4889    5.5011    0.2551 C   0  0  0  0  0  0  0  0  0  0  0  0
   -1.5275    4.0999    0.2502 C   0  0  0  0  0  0  0  0  0  0  0  0
    1.2961    1.6576    0.1959 C   0  0  0  0  0  0  0  0  0  0  0  0
    2.0211    1.3961   -0.9849 C   0  0  0  0  0  0  0  0  0  0  0  0
    3.3801    1.7229   -1.0822 C   0  0  0  0  0  0  0  0  0  0  0  0
    4.0370    2.3285    0.0025 C   0  0  0  0  0  0  0  0  0  0  0  0
    3.3198    2.6127    1.1738 C   0  0  0  0  0  0  0  0  0  0  0  0
    1.9598    2.2807    1.2676 C   0  0  0  0  0  0  0  0  0  0  0  0
   -2.9361    1.5458   -1.5238 H   0  0  0  0  0  0  0  0  0  0  0  0
   -2.8457    1.7417    0.1350 H   0  0  0  0  0  0  0  0  0  0  0  0
   -3.1976   -0.9154   -2.8975 H   0  0  0  0  0  0  0  0  0  0  0  0
   -5.1528   -0.7164   -1.3065 H   0  0  0  0  0  0  0  0  0  0  0  0
   -2.9288   -3.0681    1.6315 H   0  0  0  0  0  0  0  0  0  0  0  0
   -1.0656   -3.3423    0.0208 H   0  0  0  0  0  0  0  0  0  0  0  0
   -6.0931   -1.0308    0.8977 H   0  0  0  0  0  0  0  0  0  0  0  0
   -5.8561   -2.7344    1.4272 H   0  0  0  0  0  0  0  0  0  0  0  0
   -4.9272   -1.4019    2.2073 H   0  0  0  0  0  0  0  0  0  0  0  0
   -0.7558   -3.5305   -2.7881 H   0  0  0  0  0  0  0  0  0  0  0  0
   -1.1682   -1.9909   -3.5800 H   0  0  0  0  0  0  0  0  0  0  0  0
    0.3140   -0.7622   -1.9759 H   0  0  0  0  0  0  0  0  0  0  0  0
    1.1870   -1.9728   -3.0142 H   0  0  0  0  0  0  0  0  0  0  0  0
   -0.5971    1.4770   -1.7752 H   0  0  0  0  0  0  0  0  0  0  0  0
   -0.5524    1.7008    1.2874 H   0  0  0  0  0  0  0  0  0  0  0  0
    0.0675    3.5154   -2.7243 H   0  0  0  0  0  0  0  0  0  0  0  0
    0.1348    6.0162   -2.7201 H   0  0  0  0  0  0  0  0  0  0  0  0
   -0.8614    7.2942   -0.8057 H   0  0  0  0  0  0  0  0  0  0  0  0
   -1.9203    6.0559    1.1020 H   0  0  0  0  0  0  0  0  0  0  0  0
   -1.9834    3.5638    1.0994 H   0  0  0  0  0  0  0  0  0  0  0  0
    1.5270    0.9062   -1.8370 H   0  0  0  0  0  0  0  0  0  0  0  0
    3.9339    1.4956   -2.0061 H   0  0  0  0  0  0  0  0  0  0  0  0
    5.1084    2.5701   -0.0647 H   0  0  0  0  0  0  0  0  0  0  0  0
    3.8268    3.0794    2.0315 H   0  0  0  0  0  0  0  0  0  0  0  0
    1.4073    2.4617    2.2005 H   0  0  0  0  0  0  0  0  0  0  0  0
  1  7  2  0  0  0  0
  1  8  2  0  0  0  0
  2 21  1  0  0  0  0
  3 22  1  0  0  0  0
  6 20  1  0  0  0  0
  9 41  1  0  0  0  0
 10 27  1  0  0  0  0
 10  1  1  0  0  0  0
 11 16  2  0  0  0  0
 12 11  1  0  0  0  0
 12 13  1  0  0  0  0
 13 14  2  0  0  0  0
 14 15  1  0  0  0  0
 14 17  1  0  0  0  0
 15 44  1  0  0  0  0
 16 45  1  0  0  0  0
 16 15  1  0  0  0  0
 17 47  1  0  0  0  0
 17 48  1  0  0  0  0
 18 19  1  0  0  0  0
 18 11  1  0  0  0  0
 19 51  1  0  0  0  0
 19  6  1  0  0  0  0
 20 25  1  0  0  0  0
 21 22  1  0  0  0  0
 21 20  2  0  0  0  0
 22 23  2  0  0  0  0
 23  4  1  0  0  0  0
 23 24  1  0  0  0  0
 24  5  1  0  0  0  0
 25 24  2  0  0  0  0
 25  1  1  0  0  0  0
 26 53  1  6  0  0  0
 26  9  1  0  0  0  0
 26 27  1  0  0  0  0
 27 54  1  1  0  0  0
 28 26  1  0  0  0  0
 28 33  1  0  0  0  0
 29 30  1  0  0  0  0
 29 28  2  0  0  0  0
 30 31  2  0  0  0  0
 31 57  1  0  0  0  0
 31 32  1  0  0  0  0
 32 58  1  0  0  0  0
 33 32  2  0  0  0  0
 33 59  1  0  0  0  0
 34 27  1  0  0  0  0
 34 39  1  0  0  0  0
 35 34  2  0  0  0  0
 36 35  1  0  0  0  0
 36 37  2  0  0  0  0
 37 38  1  0  0  0  0
 38 39  2  0  0  0  0
 38 63  1  0  0  0  0
 39 64  1  0  0  0  0
 40  9  1  0  0  0  0
 42 12  1  0  0  0  0
 43 13  1  0  0  0  0
 46 17  1  0  0  0  0
 49 18  1  0  0  0  0
 50 18  1  0  0  0  0
 52 19  1  0  0  0  0
 55 29  1  0  0  0  0
 56 30  1  0  0  0  0
 60 35  1  0  0  0  0
 61 36  1  0  0  0  0
 62 37  1  0  0  0  0
M  END
