2,3,23,27
 OpenBabel05122313063D

 40 41  0  0  1  0  0  0  0  0999 V2000
   -3.1727   -2.2908   -0.4997 O   0  0  0  0  0  0  0  0  0  0  0  0
   -1.1889   -1.4213    0.2457 N   0  0  0  0  0  2  0  0  0  0  0  0
    1.4520   -1.4633   -0.0761 N   0  0  1  0  0  0  0  0  0  0  0  0
   -3.2158   -0.0001    0.2189 C   0  0  0  0  0  0  0  0  0  0  0  0
   -3.4500   -0.0001    1.3079 H   0  0  0  0  0  0  0  0  0  0  0  0
   -4.1869   -0.0001   -0.3065 H   0  0  0  0  0  0  0  0  0  0  0  0
   -2.5234   -1.3261   -0.0767 C   0  0  0  0  0  0  0  0  0  0  0  0
   -0.6341   -2.7470   -0.0133 C   0  0  0  0  0  0  0  0  0  0  0  0
   -0.7577   -3.0372   -1.0830 H   0  0  0  0  0  0  0  0  0  0  0  0
   -1.1817   -3.5336    0.5499 H   0  0  0  0  0  0  0  0  0  0  0  0
    0.8251   -2.7197    0.4024 C   0  0  0  0  0  0  0  0  0  0  0  0
    0.9098   -2.7131    1.5090 H   0  0  0  0  0  0  0  0  0  0  0  0
    1.3873   -3.6057    0.0244 H   0  0  0  0  0  0  0  0  0  0  0  0
    2.7877   -1.2888    0.5223 C   0  0  0  0  0  0  0  0  0  0  0  0
    3.4290   -2.1596    0.2446 H   0  0  0  0  0  0  0  0  0  0  0  0
    2.6485   -1.3207    1.6231 H   0  0  0  0  0  0  0  0  0  0  0  0
    3.5032    0.0001    0.1320 C   0  0  0  0  0  0  0  0  0  0  0  0
    4.4890    0.0001    0.6404 H   0  0  0  0  0  0  0  0  0  0  0  0
    3.7381    0.0001   -0.9520 H   0  0  0  0  0  0  0  0  0  0  0  0
    1.3859   -1.2880   -1.5769 C   0  0  0  0  0  0  0  0  0  0  0  0
    0.8381   -2.1447   -2.0099 H   0  0  0  0  0  0  0  0  0  0  0  0
    2.4103   -1.3023   -2.0178 H   0  0  0  0  0  0  0  0  0  0  0  0
    0.6051   -0.0000   -1.7268 C   0  0  0  0  0  3  0  0  0  0  0  0
   -0.1933   -0.0000   -2.4896 H   0  0  0  0  0  0  0  0  0  0  0  0
   -2.5234    1.3260   -0.0768 C   0  0  0  0  0  0  0  0  0  0  0  0
   -3.1728    2.2908   -0.4994 O   0  0  0  0  0  0  0  0  0  0  0  0
   -1.1889    1.4212    0.2457 N   0  0  0  0  0  2  0  0  0  0  0  0
    2.7877    1.2889    0.5223 C   0  0  0  0  0  0  0  0  0  0  0  0
    1.4519    1.4633   -0.0761 N   0  0  2  0  0  0  0  0  0  0  0  0
    1.3858    1.2880   -1.5769 C   0  0  0  0  0  0  0  0  0  0  0  0
    0.8250    2.7198    0.4024 C   0  0  0  0  0  0  0  0  0  0  0  0
   -0.6342    2.7470   -0.0134 C   0  0  0  0  0  0  0  0  0  0  0  0
   -0.7577    3.0372   -1.0831 H   0  0  0  0  0  0  0  0  0  0  0  0
   -1.1818    3.5336    0.5499 H   0  0  0  0  0  0  0  0  0  0  0  0
    0.9097    2.7132    1.5090 H   0  0  0  0  0  0  0  0  0  0  0  0
    1.3872    3.6057    0.0244 H   0  0  0  0  0  0  0  0  0  0  0  0
    0.8380    2.1447   -2.0099 H   0  0  0  0  0  0  0  0  0  0  0  0
    2.4103    1.3024   -2.0178 H   0  0  0  0  0  0  0  0  0  0  0  0
    3.4289    2.1597    0.2446 H   0  0  0  0  0  0  0  0  0  0  0  0
    2.6485    1.3209    1.6231 H   0  0  0  0  0  0  0  0  0  0  0  0
  1  7  2  0  0  0  0
  3 20  1  6  0  0  0
  3 11  1  0  0  0  0
  3 14  1  0  0  0  0
  4  5  1  0  0  0  0
  6  4  1  0  0  0  0
  7  4  1  0  0  0  0
  7  2  1  0  0  0  0
  8  2  1  0  0  0  0
  8 11  1  0  0  0  0
  8 10  1  0  0  0  0
  9  8  1  0  0  0  0
 11 12  1  0  0  0  0
 13 11  1  0  0  0  0
 14 16  1  0  0  0  0
 15 14  1  0  0  0  0
 17 28  1  0  0  0  0
 17 14  1  0  0  0  0
 17 18  1  0  0  0  0
 19 17  1  0  0  0  0
 21 20  1  0  0  0  0
 22 20  1  0  0  0  0
 23 30  1  0  0  0  0
 23 20  1  0  0  0  0
 24 23  1  0  0  0  0
 25  4  1  0  0  0  0
 25 27  1  0  0  0  0
 26 25  2  0  0  0  0
 28 40  1  0  0  0  0
 29 30  1  6  0  0  0
 29 31  1  0  0  0  0
 29 28  1  0  0  0  0
 31 35  1  0  0  0  0
 32 27  1  0  0  0  0
 32 31  1  0  0  0  0
 32 34  1  0  0  0  0
 33 32  1  0  0  0  0
 36 31  1  0  0  0  0
 37 30  1  0  0  0  0
 38 30  1  0  0  0  0
 39 28  1  0  0  0  0
M  END
