1,2,3,4,27
 OpenBabel05122313063D

 52 54  0  0  1  0  0  0  0  0999 V2000
    1.4106    1.3770   -0.2213 N   0  0  0  0  0  2  0  0  0  0  0  0
   -1.4106    1.3769   -0.2215 N   0  0  0  0  0  2  0  0  0  0  0  0
   -1.4198   -1.0894   -0.9110 N   0  0  0  0  0  2  0  0  0  0  0  0
    1.4200   -1.0893   -0.9109 N   0  0  0  0  0  2  0  0  0  0  0  0
    1.2893    2.6282   -0.5650 C   0  0  2  0  0  3  0  0  0  0  0  0
   -0.0000    2.9718   -1.3038 C   0  0  2  0  0  0  0  0  0  0  0  0
   -1.2893    2.6282   -0.5651 C   0  0  1  0  0  3  0  0  0  0  0  0
   -2.5557    0.6771    0.2175 C   0  0  0  0  0  0  0  0  0  0  0  0
   -3.5797    1.1853    1.0333 C   0  0  0  0  0  0  0  0  0  0  0  0
   -4.6372    0.3510    1.4259 C   0  0  0  0  0  0  0  0  0  0  0  0
   -4.6557   -0.9908    1.0148 C   0  0  0  0  0  0  0  0  0  0  0  0
   -3.6266   -1.5172    0.2208 C   0  0  0  0  0  0  0  0  0  0  0  0
   -2.5609   -0.6938   -0.2038 C   0  0  0  0  0  0  0  0  0  0  0  0
   -1.2765   -2.1448   -1.7275 C   0  0  2  0  0  3  0  0  0  0  0  0
    0.0002   -2.5677   -2.1708 C   0  0  0  0  0  0  0  0  0  0  0  0
    1.2768   -2.1447   -1.7274 C   0  0  0  0  0  0  0  0  0  0  0  0
    2.5610   -0.6936   -0.2037 C   0  0  0  0  0  0  0  0  0  0  0  0
    3.6267   -1.5170    0.2209 C   0  0  0  0  0  0  0  0  0  0  0  0
    4.6557   -0.9907    1.0150 C   0  0  0  0  0  0  0  0  0  0  0  0
    4.6371    0.3510    1.4263 C   0  0  0  0  0  0  0  0  0  0  0  0
    3.5796    1.1854    1.0337 C   0  0  0  0  0  0  0  0  0  0  0  0
    2.5556    0.6772    0.2177 C   0  0  0  0  0  0  0  0  0  0  0  0
    2.3623    3.6683   -0.4753 C   0  0  0  0  0  0  0  0  0  0  0  0
   -2.3624    3.6682   -0.4753 C   0  0  0  0  0  0  0  0  0  0  0  0
   -2.4705   -2.9078   -2.2537 C   0  0  0  0  0  0  0  0  0  0  0  0
    2.4709   -2.9077   -2.2534 C   0  0  0  0  0  0  0  0  0  0  0  0
    0.0001    0.7610   -2.3792 C   0  0  0  0  0  3  0  0  0  0  0  0
    0.0000    2.0906   -2.5700 C   0  0  0  0  0  0  0  0  0  0  0  0
   -0.0000    4.0469   -1.5536 H   0  0  0  0  0  0  0  0  0  0  0  0
   -3.5304    2.2153    1.4080 H   0  0  0  0  0  0  0  0  0  0  0  0
   -5.4304    0.7437    2.0779 H   0  0  0  0  0  0  0  0  0  0  0  0
   -5.4714   -1.6526    1.3414 H   0  0  0  0  0  0  0  0  0  0  0  0
   -3.6366   -2.5838   -0.0288 H   0  0  0  0  0  0  0  0  0  0  0  0
    0.0002   -3.3925   -2.8955 H   0  0  0  0  0  0  0  0  0  0  0  0
    3.6368   -2.5836   -0.0288 H   0  0  0  0  0  0  0  0  0  0  0  0
    5.4714   -1.6525    1.3415 H   0  0  0  0  0  0  0  0  0  0  0  0
    5.4302    0.7437    2.0784 H   0  0  0  0  0  0  0  0  0  0  0  0
    3.5302    2.2153    1.4085 H   0  0  0  0  0  0  0  0  0  0  0  0
    0.0001    0.0231   -3.2011 H   0  0  0  0  0  0  0  0  0  0  0  0
    0.0000    2.5933   -3.5510 H   0  0  0  0  0  0  0  0  0  0  0  0
    2.3159    4.2101    0.4944 H   0  0  0  0  0  0  0  0  0  0  0  0
    3.3724    3.2239   -0.5613 H   0  0  0  0  0  0  0  0  0  0  0  0
    2.2303    4.4239   -1.2728 H   0  0  0  0  0  0  0  0  0  0  0  0
   -3.3725    3.2238   -0.5616 H   0  0  0  0  0  0  0  0  0  0  0  0
   -2.3162    4.2098    0.4946 H   0  0  0  0  0  0  0  0  0  0  0  0
   -2.2303    4.4240   -1.2725 H   0  0  0  0  0  0  0  0  0  0  0  0
   -2.2278   -3.3337   -3.2451 H   0  0  0  0  0  0  0  0  0  0  0  0
   -3.3615   -2.2598   -2.3532 H   0  0  0  0  0  0  0  0  0  0  0  0
   -2.7403   -3.7606   -1.5964 H   0  0  0  0  0  0  0  0  0  0  0  0
    3.3619   -2.2595   -2.3526 H   0  0  0  0  0  0  0  0  0  0  0  0
    2.2285   -3.3334   -3.2448 H   0  0  0  0  0  0  0  0  0  0  0  0
    2.7406   -3.7605   -1.5961 H   0  0  0  0  0  0  0  0  0  0  0  0
  1 22  1  0  0  0  0
  2  8  1  0  0  0  0
  3 13  1  0  0  0  0
  4 17  1  0  0  0  0
  5 23  1  6  0  0  0
  5  1  1  0  0  0  0
  6 29  1  6  0  0  0
  6  7  1  0  0  0  0
  6  5  1  0  0  0  0
  7 24  1  6  0  0  0
  7  2  1  0  0  0  0
  8  9  1  0  0  0  0
  9 30  1  0  0  0  0
  9 10  2  0  0  0  0
 10 31  1  0  0  0  0
 11 32  1  0  0  0  0
 11 10  1  0  0  0  0
 12 11  2  0  0  0  0
 13  8  2  0  0  0  0
 13 12  1  0  0  0  0
 14 25  1  6  0  0  0
 14  3  1  0  0  0  0
 15 14  1  0  0  0  0
 15 16  2  0  0  0  0
 16  4  1  0  0  0  0
 17 22  2  0  0  0  0
 17 18  1  0  0  0  0
 18 19  2  0  0  0  0
 19 36  1  0  0  0  0
 19 20  1  0  0  0  0
 20 37  1  0  0  0  0
 21 38  1  0  0  0  0
 21 20  2  0  0  0  0
 22 21  1  0  0  0  0
 23 41  1  0  0  0  0
 24 45  1  0  0  0  0
 25 49  1  0  0  0  0
 26 16  1  0  0  0  0
 26 52  1  0  0  0  0
 28 27  2  0  0  0  0
 28  6  1  0  0  0  0
 33 12  1  0  0  0  0
 34 15  1  0  0  0  0
 35 18  1  0  0  0  0
 39 27  1  0  0  0  0
 40 28  1  0  0  0  0
 42 23  1  0  0  0  0
 43 23  1  0  0  0  0
 44 24  1  0  0  0  0
 46 24  1  0  0  0  0
 47 25  1  0  0  0  0
 48 25  1  0  0  0  0
 50 26  1  0  0  0  0
 51 26  1  0  0  0  0
M  END
