1,31,43
 OpenBabel05122313063D

 69 69  0  0  0  0  0  0  0  0999 V2000
   -2.2766   -0.0754   -0.0901 P   0  0  0  0  0  0  0  0  0  0  0  0
   -3.0890   -0.1069    1.6393 C   0  0  0  0  0  0  0  0  0  0  0  0
   -2.4228    1.0317    2.4376 C   0  0  0  0  0  0  0  0  0  0  0  0
   -2.7740    0.9833    3.4904 H   0  0  0  0  0  0  0  0  0  0  0  0
   -2.6747    2.0353    2.0428 H   0  0  0  0  0  0  0  0  0  0  0  0
   -1.3187    0.9334    2.4262 H   0  0  0  0  0  0  0  0  0  0  0  0
   -4.6099    0.1000    1.6192 C   0  0  0  0  0  0  0  0  0  0  0  0
   -4.9803    0.1952    2.6625 H   0  0  0  0  0  0  0  0  0  0  0  0
   -5.1448   -0.7538    1.1596 H   0  0  0  0  0  0  0  0  0  0  0  0
   -4.9011    1.0257    1.0825 H   0  0  0  0  0  0  0  0  0  0  0  0
   -2.7327   -1.4413    2.3205 C   0  0  0  0  0  0  0  0  0  0  0  0
   -1.6338   -1.5846    2.3416 H   0  0  0  0  0  0  0  0  0  0  0  0
   -3.1810   -2.3156    1.8125 H   0  0  0  0  0  0  0  0  0  0  0  0
   -3.1068   -1.4303    3.3665 H   0  0  0  0  0  0  0  0  0  0  0  0
   -3.2869   -1.0590   -1.3804 C   0  0  0  0  0  0  0  0  0  0  0  0
   -2.3830   -1.1171   -2.6291 C   0  0  0  0  0  0  0  0  0  0  0  0
   -2.8969   -1.6919   -3.4290 H   0  0  0  0  0  0  0  0  0  0  0  0
   -1.4144   -1.6045   -2.4028 H   0  0  0  0  0  0  0  0  0  0  0  0
   -2.1610   -0.1079   -3.0316 H   0  0  0  0  0  0  0  0  0  0  0  0
   -3.5394   -2.4910   -0.8813 C   0  0  0  0  0  0  0  0  0  0  0  0
   -2.6043   -2.9901   -0.5610 H   0  0  0  0  0  0  0  0  0  0  0  0
   -3.9745   -3.0938   -1.7068 H   0  0  0  0  0  0  0  0  0  0  0  0
   -4.2591   -2.5192   -0.0400 H   0  0  0  0  0  0  0  0  0  0  0  0
   -4.6203   -0.3885   -1.7551 C   0  0  0  0  0  0  0  0  0  0  0  0
   -5.1095   -0.9801   -2.5586 H   0  0  0  0  0  0  0  0  0  0  0  0
   -4.4787    0.6374   -2.1479 H   0  0  0  0  0  0  0  0  0  0  0  0
   -5.3265   -0.3376   -0.9067 H   0  0  0  0  0  0  0  0  0  0  0  0
   -2.4413    1.6888   -0.6654 C   0  0  0  0  0  0  0  0  0  0  0  0
   -2.5491    1.6443   -1.7707 H   0  0  0  0  0  0  0  0  0  0  0  0
   -3.3630    2.1762   -0.2822 H   0  0  0  0  0  0  0  0  0  0  0  0
    0.0000    1.6880    0.0000 C   0  0  0  0  0  3  0  0  0  0  0  0
   -1.1786    2.4353   -0.3005 C   0  0  0  0  0  0  0  0  0  0  0  0
   -1.1759    3.8437   -0.2918 C   0  0  0  0  0  0  0  0  0  0  0  0
   -2.1011    4.3956   -0.5254 H   0  0  0  0  0  0  0  0  0  0  0  0
    0.0001    4.5491    0.0001 C   0  0  0  0  0  0  0  0  0  0  0  0
    0.0001    5.6501    0.0001 H   0  0  0  0  0  0  0  0  0  0  0  0
    1.1760    3.8437    0.2920 C   0  0  0  0  0  0  0  0  0  0  0  0
    2.1012    4.3955    0.5255 H   0  0  0  0  0  0  0  0  0  0  0  0
    1.1786    2.4352    0.3006 C   0  0  0  0  0  0  0  0  0  0  0  0
    2.4414    1.6887    0.6655 C   0  0  0  0  0  0  0  0  0  0  0  0
    2.5492    1.6442    1.7708 H   0  0  0  0  0  0  0  0  0  0  0  0
    3.3630    2.1761    0.2822 H   0  0  0  0  0  0  0  0  0  0  0  0
    2.2765   -0.0754    0.0901 P   0  0  0  0  0  0  0  0  0  0  0  0
    3.0889   -0.1069   -1.6393 C   0  0  0  0  0  0  0  0  0  0  0  0
    4.6098    0.0999   -1.6192 C   0  0  0  0  0  0  0  0  0  0  0  0
    5.1447   -0.7539   -1.1597 H   0  0  0  0  0  0  0  0  0  0  0  0
    4.9011    1.0256   -1.0825 H   0  0  0  0  0  0  0  0  0  0  0  0
    4.9802    0.1952   -2.6626 H   0  0  0  0  0  0  0  0  0  0  0  0
    2.4228    1.0318   -2.4375 C   0  0  0  0  0  0  0  0  0  0  0  0
    2.7740    0.9835   -3.4904 H   0  0  0  0  0  0  0  0  0  0  0  0
    2.6747    2.0354   -2.0426 H   0  0  0  0  0  0  0  0  0  0  0  0
    1.3186    0.9336   -2.4262 H   0  0  0  0  0  0  0  0  0  0  0  0
    2.7326   -1.4413   -2.3206 C   0  0  0  0  0  0  0  0  0  0  0  0
    1.6337   -1.5845   -2.3417 H   0  0  0  0  0  0  0  0  0  0  0  0
    3.1809   -2.3156   -1.8127 H   0  0  0  0  0  0  0  0  0  0  0  0
    3.1066   -1.4302   -3.3666 H   0  0  0  0  0  0  0  0  0  0  0  0
    3.2870   -1.0591    1.3803 C   0  0  0  0  0  0  0  0  0  0  0  0
    4.6204   -0.3886    1.7549 C   0  0  0  0  0  0  0  0  0  0  0  0
    4.4788    0.6373    2.1478 H   0  0  0  0  0  0  0  0  0  0  0  0
    5.3265   -0.3376    0.9065 H   0  0  0  0  0  0  0  0  0  0  0  0
    5.1097   -0.9802    2.5583 H   0  0  0  0  0  0  0  0  0  0  0  0
    2.3831   -1.1172    2.6290 C   0  0  0  0  0  0  0  0  0  0  0  0
    2.8971   -1.6920    3.4289 H   0  0  0  0  0  0  0  0  0  0  0  0
    1.4145   -1.6046    2.4028 H   0  0  0  0  0  0  0  0  0  0  0  0
    2.1611   -0.1080    3.0316 H   0  0  0  0  0  0  0  0  0  0  0  0
    3.5395   -2.4911    0.8812 C   0  0  0  0  0  0  0  0  0  0  0  0
    4.2592   -2.5192    0.0398 H   0  0  0  0  0  0  0  0  0  0  0  0
    2.6044   -2.9902    0.5609 H   0  0  0  0  0  0  0  0  0  0  0  0
    3.9747   -3.0939    1.7066 H   0  0  0  0  0  0  0  0  0  0  0  0
  1  2  1  0  0  0  0
  2 11  1  0  0  0  0
  2  3  1  0  0  0  0
  3  4  1  0  0  0  0
  5  3  1  0  0  0  0
  6  3  1  0  0  0  0
  7  2  1  0  0  0  0
  7  8  1  0  0  0  0
  9  7  1  0  0  0  0
 10  7  1  0  0  0  0
 11 12  1  0  0  0  0
 11 14  1  0  0  0  0
 13 11  1  0  0  0  0
 15 20  1  0  0  0  0
 15  1  1  0  0  0  0
 16 18  1  0  0  0  0
 16 15  1  0  0  0  0
 17 16  1  0  0  0  0
 19 16  1  0  0  0  0
 20 21  1  0  0  0  0
 20 23  1  0  0  0  0
 22 20  1  0  0  0  0
 24 15  1  0  0  0  0
 24 27  1  0  0  0  0
 25 24  1  0  0  0  0
 26 24  1  0  0  0  0
 28 32  1  0  0  0  0
 28 30  1  0  0  0  0
 28  1  1  0  0  0  0
 29 28  1  0  0  0  0
 31 39  1  0  0  0  0
 32 33  1  0  0  0  0
 32 31  2  0  0  0  0
 33 35  2  0  0  0  0
 34 33  1  0  0  0  0
 35 36  1  0  0  0  0
 35 37  1  0  0  0  0
 37 39  2  0  0  0  0
 37 38  1  0  0  0  0
 39 40  1  0  0  0  0
 40 41  1  0  0  0  0
 42 40  1  0  0  0  0
 43 40  1  0  0  0  0
 43 57  1  0  0  0  0
 44 45  1  0  0  0  0
 44 43  1  0  0  0  0
 45 46  1  0  0  0  0
 45 47  1  0  0  0  0
 48 45  1  0  0  0  0
 49 52  1  0  0  0  0
 49 51  1  0  0  0  0
 49 44  1  0  0  0  0
 50 49  1  0  0  0  0
 53 55  1  0  0  0  0
 53 44  1  0  0  0  0
 54 53  1  0  0  0  0
 56 53  1  0  0  0  0
 57 58  1  0  0  0  0
 57 62  1  0  0  0  0
 58 59  1  0  0  0  0
 58 61  1  0  0  0  0
 60 58  1  0  0  0  0
 62 65  1  0  0  0  0
 62 63  1  0  0  0  0
 64 62  1  0  0  0  0
 66 57  1  0  0  0  0
 66 69  1  0  0  0  0
 67 66  1  0  0  0  0
 68 66  1  0  0  0  0
M  END
