1,2,3
 OpenBabel05122313063D

 54 54  0  0  0  0  0  0  0  0999 V2000
    2.2058   -0.0428    0.1489 P   0  0  0  0  0  0  0  0  0  0  0  0
   -2.0682   -0.1875    0.0144 P   0  0  0  0  0  0  0  0  0  0  0  0
   -0.0291    1.5819   -0.1404 C   0  0  0  0  0  3  0  0  0  0  0  0
   -0.2037    4.4040   -0.1289 C   0  0  0  0  0  0  0  0  0  0  0  0
   -0.2676    5.5027   -0.1294 H   0  0  0  0  0  0  0  0  0  0  0  0
   -2.8960   -0.4937    1.6615 C   0  0  0  0  0  0  0  0  0  0  0  0
   -3.9862   -0.4244    1.4566 H   0  0  0  0  0  0  0  0  0  0  0  0
   -2.5065    0.6088    2.6522 C   0  0  0  0  0  0  0  0  0  0  0  0
   -2.9793    0.4153    3.6371 H   0  0  0  0  0  0  0  0  0  0  0  0
   -2.8240    1.6080    2.2996 H   0  0  0  0  0  0  0  0  0  0  0  0
   -1.4065    0.6333    2.7991 H   0  0  0  0  0  0  0  0  0  0  0  0
   -2.5618   -1.8892    2.2013 C   0  0  0  0  0  0  0  0  0  0  0  0
   -1.4840   -1.9645    2.4474 H   0  0  0  0  0  0  0  0  0  0  0  0
   -2.7972   -2.7011    1.4861 H   0  0  0  0  0  0  0  0  0  0  0  0
   -3.1357   -2.0809    3.1314 H   0  0  0  0  0  0  0  0  0  0  0  0
   -3.1950   -0.8786   -1.3025 C   0  0  0  0  0  0  0  0  0  0  0  0
   -2.7274   -0.4370   -2.2107 H   0  0  0  0  0  0  0  0  0  0  0  0
   -3.1092   -2.4046   -1.4121 C   0  0  0  0  0  0  0  0  0  0  0  0
   -3.5899   -2.9055   -0.5471 H   0  0  0  0  0  0  0  0  0  0  0  0
   -2.0624   -2.7602   -1.4771 H   0  0  0  0  0  0  0  0  0  0  0  0
   -3.6402   -2.7473   -2.3239 H   0  0  0  0  0  0  0  0  0  0  0  0
   -4.6351   -0.3661   -1.2000 C   0  0  0  0  0  0  0  0  0  0  0  0
   -5.1983   -0.6357   -2.1174 H   0  0  0  0  0  0  0  0  0  0  0  0
   -4.6650    0.7347   -1.0876 H   0  0  0  0  0  0  0  0  0  0  0  0
   -5.1721   -0.8227   -0.3429 H   0  0  0  0  0  0  0  0  0  0  0  0
   -2.4140    1.4630   -0.2140 O   0  0  0  0  0  0  0  0  0  0  0  0
   -1.2638    2.2418   -0.1896 C   0  0  0  0  0  0  0  0  0  0  0  0
   -1.3819    3.6435   -0.1899 C   0  0  0  0  0  0  0  0  0  0  0  0
   -2.3749    4.1122   -0.2309 H   0  0  0  0  0  0  0  0  0  0  0  0
    3.0015   -0.4007    1.8130 C   0  0  0  0  0  0  0  0  0  0  0  0
    4.0080    0.0716    1.7225 H   0  0  0  0  0  0  0  0  0  0  0  0
    2.2310    0.2968    2.9363 C   0  0  0  0  0  0  0  0  0  0  0  0
    1.2289   -0.1609    3.0633 H   0  0  0  0  0  0  0  0  0  0  0  0
    2.0809    1.3742    2.7273 H   0  0  0  0  0  0  0  0  0  0  0  0
    2.7801    0.1986    3.8955 H   0  0  0  0  0  0  0  0  0  0  0  0
    3.1812   -1.8982    2.0845 C   0  0  0  0  0  0  0  0  0  0  0  0
    3.6258   -2.0496    3.0899 H   0  0  0  0  0  0  0  0  0  0  0  0
    3.8516   -2.3870    1.3511 H   0  0  0  0  0  0  0  0  0  0  0  0
    2.2084   -2.4297    2.0673 H   0  0  0  0  0  0  0  0  0  0  0  0
    3.4823   -0.7069   -1.0684 C   0  0  0  0  0  0  0  0  0  0  0  0
    4.4499   -0.6985   -0.5160 H   0  0  0  0  0  0  0  0  0  0  0  0
    3.1507   -2.1503   -1.4736 C   0  0  0  0  0  0  0  0  0  0  0  0
    2.2314   -2.1807   -2.0911 H   0  0  0  0  0  0  0  0  0  0  0  0
    2.9873   -2.8199   -0.6079 H   0  0  0  0  0  0  0  0  0  0  0  0
    3.9782   -2.5737   -2.0796 H   0  0  0  0  0  0  0  0  0  0  0  0
    3.6017    0.1979   -2.3001 C   0  0  0  0  0  0  0  0  0  0  0  0
    4.3512   -0.2231   -3.0020 H   0  0  0  0  0  0  0  0  0  0  0  0
    3.9109    1.2278   -2.0406 H   0  0  0  0  0  0  0  0  0  0  0  0
    2.6375    0.2663   -2.8419 H   0  0  0  0  0  0  0  0  0  0  0  0
    2.3436    1.6718    0.0399 N   0  0  0  0  0  0  0  0  0  0  0  0
    3.2135    2.1814    0.2032 H   0  0  0  0  0  0  0  0  0  0  0  0
    1.1344    2.3783   -0.0562 C   0  0  0  0  0  0  0  0  0  0  0  0
    1.0569    3.7874   -0.0552 C   0  0  0  0  0  0  0  0  0  0  0  0
    1.9727    4.3957    0.0054 H   0  0  0  0  0  0  0  0  0  0  0  0
  1 30  1  0  0  0  0
  2  6  1  0  0  0  0
  3 52  1  0  0  0  0
  4 53  1  0  0  0  0
  5  4  1  0  0  0  0
  6 12  1  0  0  0  0
  6  8  1  0  0  0  0
  7  6  1  0  0  0  0
  8 11  1  0  0  0  0
  8  9  1  0  0  0  0
 10  8  1  0  0  0  0
 12 13  1  0  0  0  0
 12 15  1  0  0  0  0
 14 12  1  0  0  0  0
 16 22  1  0  0  0  0
 16  2  1  0  0  0  0
 17 16  1  0  0  0  0
 18 16  1  0  0  0  0
 18 19  1  0  0  0  0
 20 18  1  0  0  0  0
 21 18  1  0  0  0  0
 22 24  1  0  0  0  0
 22 25  1  0  0  0  0
 23 22  1  0  0  0  0
 26 27  1  0  0  0  0
 26  2  1  0  0  0  0
 27  3  2  0  0  0  0
 28 27  1  0  0  0  0
 28  4  2  0  0  0  0
 29 28  1  0  0  0  0
 30 36  1  0  0  0  0
 30 32  1  0  0  0  0
 31 30  1  0  0  0  0
 32 33  1  0  0  0  0
 32 35  1  0  0  0  0
 34 32  1  0  0  0  0
 36 37  1  0  0  0  0
 38 36  1  0  0  0  0
 39 36  1  0  0  0  0
 40 41  1  0  0  0  0
 40  1  1  0  0  0  0
 42 40  1  0  0  0  0
 42 44  1  0  0  0  0
 43 42  1  0  0  0  0
 45 42  1  0  0  0  0
 46 48  1  0  0  0  0
 46 40  1  0  0  0  0
 47 46  1  0  0  0  0
 49 46  1  0  0  0  0
 50  1  1  0  0  0  0
 50 51  1  0  0  0  0
 52 53  2  0  0  0  0
 52 50  1  0  0  0  0
 53 54  1  0  0  0  0
M  END
