1,2,6
 OpenBabel05122313063D

 61 61  0  0  0  0  0  0  0  0999 V2000
    0.6295    2.2054    0.0748 P   0  0  0  0  0  0  0  0  0  0  0  0
    0.8872   -2.0049    0.0168 P   0  0  0  0  0  0  0  0  0  0  0  0
   -1.0651    2.3559    0.0567 O   0  0  0  0  0  0  0  0  0  0  0  0
   -0.7270   -2.3852   -0.3391 O   0  0  0  0  0  0  0  0  0  0  0  0
   -5.0993   -0.2937   -0.3372 N   0  0  0  0  0  0  0  0  0  0  0  0
   -0.8370   -0.0093   -0.1568 C   0  0  0  0  0  3  0  0  0  0  0  0
   -1.6745    1.1170   -0.0742 C   0  0  0  0  0  0  0  0  0  0  0  0
   -3.0732    1.0592   -0.1216 C   0  0  0  0  0  0  0  0  0  0  0  0
   -3.6375    1.9957   -0.0508 H   0  0  0  0  0  0  0  0  0  0  0  0
   -3.7139   -0.2025   -0.2680 C   0  0  0  0  0  0  0  0  0  0  0  0
   -2.9028   -1.3699   -0.3354 C   0  0  0  0  0  0  0  0  0  0  0  0
   -3.3306   -2.3749   -0.4218 H   0  0  0  0  0  0  0  0  0  0  0  0
   -1.5104   -1.2372   -0.2828 C   0  0  0  0  0  0  0  0  0  0  0  0
    1.0640    3.4531   -1.2386 C   0  0  0  0  0  0  0  0  0  0  0  0
    0.6139    4.4010   -0.8739 H   0  0  0  0  0  0  0  0  0  0  0  0
    2.5850    3.6121   -1.3384 C   0  0  0  0  0  0  0  0  0  0  0  0
    3.0426    3.9233   -0.3772 H   0  0  0  0  0  0  0  0  0  0  0  0
    2.8394    4.3832   -2.0944 H   0  0  0  0  0  0  0  0  0  0  0  0
    3.0652    2.6635   -1.6524 H   0  0  0  0  0  0  0  0  0  0  0  0
    0.4037    3.0958   -2.5736 C   0  0  0  0  0  0  0  0  0  0  0  0
   -0.6903    2.9716   -2.4589 H   0  0  0  0  0  0  0  0  0  0  0  0
    0.8156    2.1614   -2.9997 H   0  0  0  0  0  0  0  0  0  0  0  0
    0.5849    3.9085   -3.3072 H   0  0  0  0  0  0  0  0  0  0  0  0
    1.0161    3.0479    1.7001 C   0  0  0  0  0  0  0  0  0  0  0  0
    2.1242    2.9847    1.7841 H   0  0  0  0  0  0  0  0  0  0  0  0
    0.3864    2.2361    2.8394 C   0  0  0  0  0  0  0  0  0  0  0  0
    0.7336    1.1860    2.8363 H   0  0  0  0  0  0  0  0  0  0  0  0
   -0.7187    2.2310    2.7514 H   0  0  0  0  0  0  0  0  0  0  0  0
    0.6540    2.6843    3.8178 H   0  0  0  0  0  0  0  0  0  0  0  0
    0.5700    4.5141    1.7442 C   0  0  0  0  0  0  0  0  0  0  0  0
    1.1333    5.1562    1.0393 H   0  0  0  0  0  0  0  0  0  0  0  0
    0.7290    4.9249    2.7626 H   0  0  0  0  0  0  0  0  0  0  0  0
   -0.5108    4.6016    1.5114 H   0  0  0  0  0  0  0  0  0  0  0  0
    1.7912   -3.0934   -1.1959 C   0  0  0  0  0  0  0  0  0  0  0  0
    1.7228   -2.4721   -2.1146 H   0  0  0  0  0  0  0  0  0  0  0  0
    3.2706   -3.1891   -0.8020 C   0  0  0  0  0  0  0  0  0  0  0  0
    3.7103   -2.1881   -0.6160 H   0  0  0  0  0  0  0  0  0  0  0  0
    3.8519   -3.6651   -1.6179 H   0  0  0  0  0  0  0  0  0  0  0  0
    3.4141   -3.8038    0.1104 H   0  0  0  0  0  0  0  0  0  0  0  0
    1.1384   -4.4451   -1.5067 C   0  0  0  0  0  0  0  0  0  0  0  0
    0.0550   -4.3300   -1.7002 H   0  0  0  0  0  0  0  0  0  0  0  0
    1.2676   -5.1772   -0.6877 H   0  0  0  0  0  0  0  0  0  0  0  0
    1.6085   -4.8765   -2.4148 H   0  0  0  0  0  0  0  0  0  0  0  0
    1.0670   -2.7105    1.7383 C   0  0  0  0  0  0  0  0  0  0  0  0
    2.1197   -2.4677    2.0073 H   0  0  0  0  0  0  0  0  0  0  0  0
    0.8346   -4.2209    1.8437 C   0  0  0  0  0  0  0  0  0  0  0  0
    1.6188   -4.8109    1.3332 H   0  0  0  0  0  0  0  0  0  0  0  0
   -0.1492   -4.4994    1.4153 H   0  0  0  0  0  0  0  0  0  0  0  0
    0.8339   -4.5239    2.9115 H   0  0  0  0  0  0  0  0  0  0  0  0
    0.1271   -1.9346    2.6723 C   0  0  0  0  0  0  0  0  0  0  0  0
    0.2416   -0.8415    2.5444 H   0  0  0  0  0  0  0  0  0  0  0  0
    0.3381   -2.1981    3.7287 H   0  0  0  0  0  0  0  0  0  0  0  0
   -0.9314   -2.1851    2.4582 H   0  0  0  0  0  0  0  0  0  0  0  0
   -5.7300   -1.5934   -0.3690 C   0  0  0  0  0  0  0  0  0  0  0  0
   -6.8249   -1.4686   -0.4583 H   0  0  0  0  0  0  0  0  0  0  0  0
   -5.5265   -2.1991    0.5471 H   0  0  0  0  0  0  0  0  0  0  0  0
   -5.3893   -2.1943   -1.2415 H   0  0  0  0  0  0  0  0  0  0  0  0
   -5.9044    0.8900   -0.1403 C   0  0  0  0  0  0  0  0  0  0  0  0
   -5.7665    1.3467    0.8695 H   0  0  0  0  0  0  0  0  0  0  0  0
   -6.9731    0.6306   -0.2538 H   0  0  0  0  0  0  0  0  0  0  0  0
   -5.6694    1.6773   -0.8909 H   0  0  0  0  0  0  0  0  0  0  0  0
  1 24  1  0  0  0  0
  2 44  1  0  0  0  0
  3  1  1  0  0  0  0
  4 13  1  0  0  0  0
  4  2  1  0  0  0  0
  5 10  1  0  0  0  0
  5 58  1  0  0  0  0
  6  7  1  0  0  0  0
  7  3  1  0  0  0  0
  8  7  2  0  0  0  0
  8  9  1  0  0  0  0
 10  8  1  0  0  0  0
 11 13  1  0  0  0  0
 11 10  2  0  0  0  0
 12 11  1  0  0  0  0
 13  6  2  0  0  0  0
 14 15  1  0  0  0  0
 14  1  1  0  0  0  0
 16 14  1  0  0  0  0
 16 17  1  0  0  0  0
 18 16  1  0  0  0  0
 19 16  1  0  0  0  0
 20 21  1  0  0  0  0
 20 14  1  0  0  0  0
 22 20  1  0  0  0  0
 23 20  1  0  0  0  0
 24 30  1  0  0  0  0
 24 25  1  0  0  0  0
 24 26  1  0  0  0  0
 26 29  1  0  0  0  0
 27 26  1  0  0  0  0
 28 26  1  0  0  0  0
 30 32  1  0  0  0  0
 31 30  1  0  0  0  0
 33 30  1  0  0  0  0
 34 36  1  0  0  0  0
 34  2  1  0  0  0  0
 35 34  1  0  0  0  0
 36 37  1  0  0  0  0
 36 39  1  0  0  0  0
 38 36  1  0  0  0  0
 40 34  1  0  0  0  0
 40 42  1  0  0  0  0
 41 40  1  0  0  0  0
 43 40  1  0  0  0  0
 44 46  1  0  0  0  0
 44 45  1  0  0  0  0
 44 50  1  0  0  0  0
 46 49  1  0  0  0  0
 47 46  1  0  0  0  0
 48 46  1  0  0  0  0
 50 52  1  0  0  0  0
 51 50  1  0  0  0  0
 53 50  1  0  0  0  0
 54  5  1  0  0  0  0
 54 56  1  0  0  0  0
 55 54  1  0  0  0  0
 57 54  1  0  0  0  0
 58 59  1  0  0  0  0
 60 58  1  0  0  0  0
 61 58  1  0  0  0  0
M  END
