1,2,5
 OpenBabel05122313063D

 73 75  0  0  0  0  0  0  0  0999 V2000
   -1.7793    1.4986    0.3851 P   0  0  0  0  0  0  0  0  0  0  0  0
    1.7662   -1.0912   -1.0667 P   0  0  0  0  0  0  0  0  0  0  0  0
    2.9051   -1.2758    0.1709 O   0  0  0  0  0  0  0  0  0  0  0  0
   -3.0484    0.4910    0.8935 O   0  0  0  0  0  0  0  0  0  0  0  0
   -0.2058   -0.9829    1.2089 C   0  0  0  0  0  3  0  0  0  0  0  0
   -2.5037   -1.8422    0.4660 C   0  0  0  0  0  0  0  0  0  0  0  0
   -3.3217   -0.7063    0.2600 C   0  0  0  0  0  0  0  0  0  0  0  0
    3.0128   -0.2752    1.1245 C   0  0  0  0  0  0  0  0  0  0  0  0
   -1.4080   -2.6892    2.5074 C   0  0  0  0  0  0  0  0  0  0  0  0
   -2.2983   -3.3262    2.6244 H   0  0  0  0  0  0  0  0  0  0  0  0
    0.8230   -1.0217    2.1935 C   0  0  0  0  0  0  0  0  0  0  0  0
    2.8561   -0.5294   -2.4764 C   0  0  0  0  0  0  0  0  0  0  0  0
    3.0223    0.5396   -2.2160 H   0  0  0  0  0  0  0  0  0  0  0  0
    1.3599   -2.8704   -1.4568 C   0  0  0  0  0  0  0  0  0  0  0  0
    2.1771   -3.2093   -2.1311 H   0  0  0  0  0  0  0  0  0  0  0  0
   -1.3391   -1.8180    1.3945 C   0  0  0  0  0  0  0  0  0  0  0  0
   -2.7509    2.6120   -0.7731 C   0  0  0  0  0  0  0  0  0  0  0  0
   -3.7373    2.6200   -0.2548 H   0  0  0  0  0  0  0  0  0  0  0  0
    0.7182   -1.8805    3.3088 C   0  0  0  0  0  0  0  0  0  0  0  0
    1.5316   -1.8862    4.0507 H   0  0  0  0  0  0  0  0  0  0  0  0
   -2.9093   -3.0559   -0.1333 C   0  0  0  0  0  0  0  0  0  0  0  0
   -2.2880   -3.9495    0.0320 H   0  0  0  0  0  0  0  0  0  0  0  0
   -4.0645   -3.1415   -0.9217 C   0  0  0  0  0  0  0  0  0  0  0  0
   -4.3453   -4.0998   -1.3834 H   0  0  0  0  0  0  0  0  0  0  0  0
    0.0266   -2.9121   -2.2179 C   0  0  0  0  0  0  0  0  0  0  0  0
   -0.2170   -3.9587   -2.4950 H   0  0  0  0  0  0  0  0  0  0  0  0
    0.0474   -2.3131   -3.1484 H   0  0  0  0  0  0  0  0  0  0  0  0
   -0.7987   -2.5228   -1.5905 H   0  0  0  0  0  0  0  0  0  0  0  0
    4.1527    0.5431    1.1062 C   0  0  0  0  0  0  0  0  0  0  0  0
    4.8886    0.4049    0.3011 H   0  0  0  0  0  0  0  0  0  0  0  0
    4.3415    1.5061    2.1074 C   0  0  0  0  0  0  0  0  0  0  0  0
    5.2356    2.1471    2.0872 H   0  0  0  0  0  0  0  0  0  0  0  0
    2.0265   -0.1385    2.1292 C   0  0  0  0  0  0  0  0  0  0  0  0
    2.1108   -0.5708   -3.8158 C   0  0  0  0  0  0  0  0  0  0  0  0
    2.7176   -0.0565   -4.5892 H   0  0  0  0  0  0  0  0  0  0  0  0
    1.1381   -0.0443   -3.7567 H   0  0  0  0  0  0  0  0  0  0  0  0
    1.9483   -1.6120   -4.1628 H   0  0  0  0  0  0  0  0  0  0  0  0
   -1.5446    2.4986    1.9374 C   0  0  0  0  0  0  0  0  0  0  0  0
   -2.3803    3.2336    1.9421 H   0  0  0  0  0  0  0  0  0  0  0  0
    3.3910    1.6429    3.1301 C   0  0  0  0  0  0  0  0  0  0  0  0
    3.5330    2.3912    3.9239 H   0  0  0  0  0  0  0  0  0  0  0  0
   -2.2318    4.0502   -0.8805 C   0  0  0  0  0  0  0  0  0  0  0  0
   -1.2179    4.0701   -1.3256 H   0  0  0  0  0  0  0  0  0  0  0  0
   -2.2080    4.5717    0.0962 H   0  0  0  0  0  0  0  0  0  0  0  0
   -2.9097    4.6261   -1.5448 H   0  0  0  0  0  0  0  0  0  0  0  0
    4.1938   -1.2730   -2.5264 C   0  0  0  0  0  0  0  0  0  0  0  0
    4.0651   -2.3345   -2.8255 H   0  0  0  0  0  0  0  0  0  0  0  0
    4.7167   -1.2587   -1.5516 H   0  0  0  0  0  0  0  0  0  0  0  0
    4.8526   -0.7994   -3.2835 H   0  0  0  0  0  0  0  0  0  0  0  0
   -2.9032    1.9567   -2.1523 C   0  0  0  0  0  0  0  0  0  0  0  0
   -3.6313    2.5331   -2.7604 H   0  0  0  0  0  0  0  0  0  0  0  0
   -3.2645    0.9123   -2.0887 H   0  0  0  0  0  0  0  0  0  0  0  0
   -1.9289    1.9520   -2.6798 H   0  0  0  0  0  0  0  0  0  0  0  0
   -4.4955   -0.7909   -0.5093 C   0  0  0  0  0  0  0  0  0  0  0  0
   -5.1178    0.1097   -0.6132 H   0  0  0  0  0  0  0  0  0  0  0  0
   -0.2022    3.2400    1.8454 C   0  0  0  0  0  0  0  0  0  0  0  0
   -0.0852    3.9128    2.7199 H   0  0  0  0  0  0  0  0  0  0  0  0
   -0.1069    3.8472    0.9252 H   0  0  0  0  0  0  0  0  0  0  0  0
    0.6419    2.5218    1.8473 H   0  0  0  0  0  0  0  0  0  0  0  0
    2.2537    0.8226    3.1378 C   0  0  0  0  0  0  0  0  0  0  0  0
    1.5050    0.9258    3.9379 H   0  0  0  0  0  0  0  0  0  0  0  0
   -4.8657   -2.0037   -1.1053 C   0  0  0  0  0  0  0  0  0  0  0  0
   -5.7844   -2.0589   -1.7083 H   0  0  0  0  0  0  0  0  0  0  0  0
    1.3545   -3.7645   -0.2122 C   0  0  0  0  0  0  0  0  0  0  0  0
    0.5541   -3.4730    0.4949 H   0  0  0  0  0  0  0  0  0  0  0  0
    2.3177   -3.7183    0.3292 H   0  0  0  0  0  0  0  0  0  0  0  0
    1.1742   -4.8155   -0.5200 H   0  0  0  0  0  0  0  0  0  0  0  0
   -0.3870   -2.7253    3.4619 C   0  0  0  0  0  0  0  0  0  0  0  0
   -0.4566   -3.4019    4.3268 H   0  0  0  0  0  0  0  0  0  0  0  0
   -1.6452    1.6268    3.1944 C   0  0  0  0  0  0  0  0  0  0  0  0
   -0.8739    0.8320    3.1965 H   0  0  0  0  0  0  0  0  0  0  0  0
   -2.6328    1.1362    3.2756 H   0  0  0  0  0  0  0  0  0  0  0  0
   -1.4899    2.2602    4.0923 H   0  0  0  0  0  0  0  0  0  0  0  0
  1  4  1  0  0  0  0
  1 38  1  0  0  0  0
  2  3  1  0  0  0  0
  3  8  1  0  0  0  0
  5 16  2  0  0  0  0
  5 11  1  0  0  0  0
  6 16  1  0  0  0  0
  7  6  1  0  0  0  0
  7  4  1  0  0  0  0
  8 33  1  0  0  0  0
  9 10  1  0  0  0  0
  9 68  2  0  0  0  0
 11 19  2  0  0  0  0
 12 13  1  0  0  0  0
 12  2  1  0  0  0  0
 14  2  1  0  0  0  0
 14 64  1  0  0  0  0
 15 14  1  0  0  0  0
 16  9  1  0  0  0  0
 17 18  1  0  0  0  0
 17  1  1  0  0  0  0
 19 68  1  0  0  0  0
 19 20  1  0  0  0  0
 21 22  1  0  0  0  0
 21  6  2  0  0  0  0
 23 21  1  0  0  0  0
 24 23  1  0  0  0  0
 25 28  1  0  0  0  0
 25 14  1  0  0  0  0
 26 25  1  0  0  0  0
 27 25  1  0  0  0  0
 29  8  2  0  0  0  0
 29 31  1  0  0  0  0
 30 29  1  0  0  0  0
 31 40  2  0  0  0  0
 32 31  1  0  0  0  0
 33 11  1  0  0  0  0
 33 60  2  0  0  0  0
 34 36  1  0  0  0  0
 34 12  1  0  0  0  0
 35 34  1  0  0  0  0
 37 34  1  0  0  0  0
 38 39  1  0  0  0  0
 38 70  1  0  0  0  0
 40 60  1  0  0  0  0
 40 41  1  0  0  0  0
 42 17  1  0  0  0  0
 42 44  1  0  0  0  0
 43 42  1  0  0  0  0
 45 42  1  0  0  0  0
 46 12  1  0  0  0  0
 46 48  1  0  0  0  0
 47 46  1  0  0  0  0
 49 46  1  0  0  0  0
 50 52  1  0  0  0  0
 50 17  1  0  0  0  0
 51 50  1  0  0  0  0
 53 50  1  0  0  0  0
 54  7  2  0  0  0  0
 55 54  1  0  0  0  0
 56 59  1  0  0  0  0
 56 38  1  0  0  0  0
 56 57  1  0  0  0  0
 58 56  1  0  0  0  0
 60 61  1  0  0  0  0
 62 23  2  0  0  0  0
 62 54  1  0  0  0  0
 63 62  1  0  0  0  0
 64 66  1  0  0  0  0
 64 65  1  0  0  0  0
 67 64  1  0  0  0  0
 68 69  1  0  0  0  0
 70 71  1  0  0  0  0
 70 72  1  0  0  0  0
 70 73  1  0  0  0  0
M  END
