1,2,6
 OpenBabel05122313063D

 57 61  0  0  0  0  0  0  0  0999 V2000
    2.1129   -0.0616    0.2088 P   0  0  0  0  0  0  0  0  0  0  0  0
   -2.1156   -0.0653    0.1851 P   0  0  0  0  0  0  0  0  0  0  0  0
    2.3811   -0.2799    1.8670 O   0  0  0  0  0  0  0  0  0  0  0  0
   -2.4249   -0.2040    1.8405 O   0  0  0  0  0  0  0  0  0  0  0  0
   -1.2263   -0.2757    2.5448 C   0  0  0  0  0  0  0  0  0  0  0  0
   -0.0202   -0.2359    1.8048 C   0  0  0  0  0  3  0  0  0  0  0  0
    2.9228    3.5380   -1.5534 C   0  0  0  0  0  0  0  0  0  0  0  0
    2.4725    4.1588   -2.3429 H   0  0  0  0  0  0  0  0  0  0  0  0
    2.9104    1.5276   -0.1910 C   0  0  0  0  0  0  0  0  0  0  0  0
   -0.0396   -0.4467    4.6378 C   0  0  0  0  0  0  0  0  0  0  0  0
   -0.0471   -0.5278    5.7352 H   0  0  0  0  0  0  0  0  0  0  0  0
    1.1739   -0.3055    2.5589 C   0  0  0  0  0  0  0  0  0  0  0  0
    2.3231    2.3191   -1.1992 C   0  0  0  0  0  0  0  0  0  0  0  0
    1.3992    1.9594   -1.6880 H   0  0  0  0  0  0  0  0  0  0  0  0
   -3.0384    1.4304   -0.2930 C   0  0  0  0  0  0  0  0  0  0  0  0
   -3.0471   -1.4546   -0.5373 C   0  0  0  0  0  0  0  0  0  0  0  0
    3.3638   -2.5682    0.1609 C   0  0  0  0  0  0  0  0  0  0  0  0
    2.8653   -2.7349    1.1274 H   0  0  0  0  0  0  0  0  0  0  0  0
    4.0734    1.9594    0.4774 C   0  0  0  0  0  0  0  0  0  0  0  0
    4.5096    1.3381    1.2741 H   0  0  0  0  0  0  0  0  0  0  0  0
    4.0818    3.9718   -0.8904 C   0  0  0  0  0  0  0  0  0  0  0  0
    4.5429    4.9336   -1.1625 H   0  0  0  0  0  0  0  0  0  0  0  0
   -4.0498    1.9791    0.5179 C   0  0  0  0  0  0  0  0  0  0  0  0
   -4.2859    1.5144    1.4867 H   0  0  0  0  0  0  0  0  0  0  0  0
    1.1896   -0.4064    3.9572 C   0  0  0  0  0  0  0  0  0  0  0  0
    2.1485   -0.4518    4.4919 H   0  0  0  0  0  0  0  0  0  0  0  0
    3.2299   -1.3229   -0.4874 C   0  0  0  0  0  0  0  0  0  0  0  0
    4.6528    3.1863    0.1267 C   0  0  0  0  0  0  0  0  0  0  0  0
    5.5564    3.5345    0.6500 H   0  0  0  0  0  0  0  0  0  0  0  0
   -1.2592   -0.3815    3.9425 C   0  0  0  0  0  0  0  0  0  0  0  0
   -2.2247   -0.4105    4.4662 H   0  0  0  0  0  0  0  0  0  0  0  0
   -2.6944    2.0263   -1.5249 C   0  0  0  0  0  0  0  0  0  0  0  0
   -1.8687    1.5961   -2.1193 H   0  0  0  0  0  0  0  0  0  0  0  0
   -2.6849   -1.8537   -1.8406 C   0  0  0  0  0  0  0  0  0  0  0  0
   -1.8400   -1.3413   -2.3356 H   0  0  0  0  0  0  0  0  0  0  0  0
    4.7788   -3.3566   -1.6556 C   0  0  0  0  0  0  0  0  0  0  0  0
    5.3872   -4.1526   -2.1111 H   0  0  0  0  0  0  0  0  0  0  0  0
    3.8712   -1.1011   -1.7237 C   0  0  0  0  0  0  0  0  0  0  0  0
    3.7807   -0.1239   -2.2235 H   0  0  0  0  0  0  0  0  0  0  0  0
   -3.3893   -2.8978   -2.4574 C   0  0  0  0  0  0  0  0  0  0  0  0
   -3.1144   -3.2154   -3.4748 H   0  0  0  0  0  0  0  0  0  0  0  0
    4.6410   -2.1195   -2.3049 C   0  0  0  0  0  0  0  0  0  0  0  0
    5.1442   -1.9414   -3.2674 H   0  0  0  0  0  0  0  0  0  0  0  0
   -4.4100    3.7137   -1.1505 C   0  0  0  0  0  0  0  0  0  0  0  0
   -4.9503    4.6119   -1.4871 H   0  0  0  0  0  0  0  0  0  0  0  0
   -4.4323   -3.5469   -1.7755 C   0  0  0  0  0  0  0  0  0  0  0  0
   -4.9783   -4.3701   -2.2613 H   0  0  0  0  0  0  0  0  0  0  0  0
   -4.0849   -2.1063    0.1555 C   0  0  0  0  0  0  0  0  0  0  0  0
   -4.3373   -1.7973    1.1808 H   0  0  0  0  0  0  0  0  0  0  0  0
   -4.7331    3.1245    0.0831 C   0  0  0  0  0  0  0  0  0  0  0  0
   -5.5226    3.5616    0.7135 H   0  0  0  0  0  0  0  0  0  0  0  0
   -3.3923    3.1662   -1.9499 C   0  0  0  0  0  0  0  0  0  0  0  0
   -3.1317    3.6382   -2.9096 H   0  0  0  0  0  0  0  0  0  0  0  0
    4.1431   -3.5767   -0.4219 C   0  0  0  0  0  0  0  0  0  0  0  0
    4.2551   -4.5439    0.0913 H   0  0  0  0  0  0  0  0  0  0  0  0
   -4.7744   -3.1555   -0.4702 C   0  0  0  0  0  0  0  0  0  0  0  0
   -5.5845   -3.6730    0.0663 H   0  0  0  0  0  0  0  0  0  0  0  0
  1  3  1  0  0  0  0
  2  4  1  0  0  0  0
  3 12  1  0  0  0  0
  4  5  1  0  0  0  0
  5 30  1  0  0  0  0
  6  5  2  0  0  0  0
  6 12  1  0  0  0  0
  7 13  2  0  0  0  0
  7 21  1  0  0  0  0
  8  7  1  0  0  0  0
  9  1  1  0  0  0  0
  9 19  2  0  0  0  0
 10 11  1  0  0  0  0
 12 25  2  0  0  0  0
 13  9  1  0  0  0  0
 14 13  1  0  0  0  0
 15  2  1  0  0  0  0
 15 23  1  0  0  0  0
 16 48  1  0  0  0  0
 16  2  1  0  0  0  0
 17 18  1  0  0  0  0
 19 20  1  0  0  0  0
 21 28  2  0  0  0  0
 22 21  1  0  0  0  0
 23 24  1  0  0  0  0
 25 26  1  0  0  0  0
 25 10  1  0  0  0  0
 27 17  2  0  0  0  0
 27  1  1  0  0  0  0
 28 19  1  0  0  0  0
 28 29  1  0  0  0  0
 30 31  1  0  0  0  0
 30 10  2  0  0  0  0
 32 15  2  0  0  0  0
 33 32  1  0  0  0  0
 34 16  2  0  0  0  0
 35 34  1  0  0  0  0
 36 54  2  0  0  0  0
 37 36  1  0  0  0  0
 38 27  1  0  0  0  0
 39 38  1  0  0  0  0
 40 34  1  0  0  0  0
 40 46  2  0  0  0  0
 41 40  1  0  0  0  0
 42 38  2  0  0  0  0
 42 36  1  0  0  0  0
 43 42  1  0  0  0  0
 44 50  1  0  0  0  0
 45 44  1  0  0  0  0
 46 56  1  0  0  0  0
 47 46  1  0  0  0  0
 48 49  1  0  0  0  0
 50 23  2  0  0  0  0
 50 51  1  0  0  0  0
 52 32  1  0  0  0  0
 52 44  2  0  0  0  0
 53 52  1  0  0  0  0
 54 55  1  0  0  0  0
 54 17  1  0  0  0  0
 56 57  1  0  0  0  0
 56 48  2  0  0  0  0
M  END
