1,2,11
 OpenBabel05122313063D

 59 60  0  0  0  0  0  0  0  0999 V2000
   -2.1886   -0.6208    0.3502 P   0  0  0  0  0  0  0  0  0  0  0  0
    2.3444    0.1668    0.3913 P   0  0  0  0  0  0  0  0  0  0  0  0
   -2.0506   -2.0642   -0.6688 N   0  0  0  0  0  0  0  0  0  0  0  0
   -2.9311   -3.0648   -1.0028 C   0  0  0  0  0  0  0  0  0  0  0  0
   -4.0059   -2.9637   -0.8174 H   0  0  0  0  0  0  0  0  0  0  0  0
   -2.2071   -4.1091   -1.5837 C   0  0  0  0  0  0  0  0  0  0  0  0
   -2.6285   -5.0467   -1.9646 H   0  0  0  0  0  0  0  0  0  0  0  0
   -0.8407   -3.7248   -1.5894 C   0  0  0  0  0  0  0  0  0  0  0  0
   -0.0010   -4.3300   -1.9415 H   0  0  0  0  0  0  0  0  0  0  0  0
   -0.7498   -2.4364   -1.0250 C   0  0  0  0  0  0  0  0  0  0  0  0
    0.3314   -1.5028   -0.7377 C   0  0  0  0  0  2  0  0  0  0  0  0
    1.6423   -1.7716   -1.3228 C   0  0  0  0  0  0  0  0  0  0  0  0
    2.1457   -2.6319   -2.3190 C   0  0  0  0  0  0  0  0  0  0  0  0
    1.5629   -3.3575   -2.8927 H   0  0  0  0  0  0  0  0  0  0  0  0
    3.5235   -2.3367   -2.4959 C   0  0  0  0  0  0  0  0  0  0  0  0
    4.2107   -2.8078   -3.2084 H   0  0  0  0  0  0  0  0  0  0  0  0
    3.8476   -1.3075   -1.6089 C   0  0  0  0  0  0  0  0  0  0  0  0
    4.7967   -0.7870   -1.4417 H   0  0  0  0  0  0  0  0  0  0  0  0
    2.7103   -0.9653   -0.9177 N   0  0  0  0  0  0  0  0  0  0  0  0
    3.1363   -0.6747    1.8726 C   0  0  0  0  0  0  0  0  0  0  0  0
    2.7361   -0.0682    2.7159 H   0  0  0  0  0  0  0  0  0  0  0  0
    2.5667   -2.0925    2.0067 C   0  0  0  0  0  0  0  0  0  0  0  0
    2.8979   -2.7430    1.1715 H   0  0  0  0  0  0  0  0  0  0  0  0
    1.4605   -2.0806    2.0209 H   0  0  0  0  0  0  0  0  0  0  0  0
    2.9169   -2.5479    2.9553 H   0  0  0  0  0  0  0  0  0  0  0  0
    4.6666   -0.6780    1.8867 C   0  0  0  0  0  0  0  0  0  0  0  0
    5.0270   -1.2116    2.7907 H   0  0  0  0  0  0  0  0  0  0  0  0
    5.1054    0.3384    1.9123 H   0  0  0  0  0  0  0  0  0  0  0  0
    5.0800   -1.2167    1.0087 H   0  0  0  0  0  0  0  0  0  0  0  0
    3.4617    1.6177    0.0230 C   0  0  0  0  0  0  0  0  0  0  0  0
    4.4881    1.1906   -0.0113 H   0  0  0  0  0  0  0  0  0  0  0  0
    3.3823    2.6182    1.1858 C   0  0  0  0  0  0  0  0  0  0  0  0
    4.0975    3.4485    1.0141 H   0  0  0  0  0  0  0  0  0  0  0  0
    3.6216    2.1622    2.1666 H   0  0  0  0  0  0  0  0  0  0  0  0
    2.3689    3.0601    1.2570 H   0  0  0  0  0  0  0  0  0  0  0  0
    3.1536    2.2787   -1.3235 C   0  0  0  0  0  0  0  0  0  0  0  0
    2.1615    2.7677   -1.3102 H   0  0  0  0  0  0  0  0  0  0  0  0
    3.1527    1.5510   -2.1572 H   0  0  0  0  0  0  0  0  0  0  0  0
    3.9188    3.0542   -1.5356 H   0  0  0  0  0  0  0  0  0  0  0  0
   -3.6665    0.2557   -0.3795 C   0  0  0  0  0  0  0  0  0  0  0  0
   -4.5413   -0.3999   -0.1769 H   0  0  0  0  0  0  0  0  0  0  0  0
   -3.8584    1.5843    0.3670 C   0  0  0  0  0  0  0  0  0  0  0  0
   -3.0042    2.2677    0.1948 H   0  0  0  0  0  0  0  0  0  0  0  0
   -3.9596    1.4416    1.4622 H   0  0  0  0  0  0  0  0  0  0  0  0
   -4.7770    2.0912    0.0071 H   0  0  0  0  0  0  0  0  0  0  0  0
   -3.5220    0.4287   -1.8947 C   0  0  0  0  0  0  0  0  0  0  0  0
   -4.3847    1.0058   -2.2879 H   0  0  0  0  0  0  0  0  0  0  0  0
   -3.4939   -0.5474   -2.4164 H   0  0  0  0  0  0  0  0  0  0  0  0
   -2.5934    0.9699   -2.1526 H   0  0  0  0  0  0  0  0  0  0  0  0
   -2.7744   -1.3321    1.9878 C   0  0  0  0  0  0  0  0  0  0  0  0
   -2.5064   -0.5057    2.6847 H   0  0  0  0  0  0  0  0  0  0  0  0
   -4.2658   -1.6534    2.1027 C   0  0  0  0  0  0  0  0  0  0  0  0
   -4.5774   -2.4434    1.3884 H   0  0  0  0  0  0  0  0  0  0  0  0
   -4.9126   -0.7680    1.9473 H   0  0  0  0  0  0  0  0  0  0  0  0
   -4.4806   -2.0399    3.1209 H   0  0  0  0  0  0  0  0  0  0  0  0
   -1.8947   -2.5361    2.3499 C   0  0  0  0  0  0  0  0  0  0  0  0
   -2.1041   -2.8505    3.3927 H   0  0  0  0  0  0  0  0  0  0  0  0
   -0.8207   -2.2763    2.2886 H   0  0  0  0  0  0  0  0  0  0  0  0
   -2.0916   -3.4004    1.6829 H   0  0  0  0  0  0  0  0  0  0  0  0
  1 50  1  0  0  0  0
  2 20  1  0  0  0  0
  3  1  1  0  0  0  0
  4  5  1  0  0  0  0
  4  3  1  0  0  0  0
  6  4  2  0  0  0  0
  7  6  1  0  0  0  0
  8  6  1  0  0  0  0
  8 10  2  0  0  0  0
  9  8  1  0  0  0  0
 10 11  1  0  0  0  0
 10  3  1  0  0  0  0
 12 19  1  0  0  0  0
 12 11  1  0  0  0  0
 13 12  2  0  0  0  0
 14 13  1  0  0  0  0
 15 13  1  0  0  0  0
 15 17  2  0  0  0  0
 16 15  1  0  0  0  0
 17 18  1  0  0  0  0
 17 19  1  0  0  0  0
 19  2  1  0  0  0  0
 20 26  1  0  0  0  0
 20 22  1  0  0  0  0
 20 21  1  0  0  0  0
 22 24  1  0  0  0  0
 22 25  1  0  0  0  0
 23 22  1  0  0  0  0
 26 28  1  0  0  0  0
 26 27  1  0  0  0  0
 29 26  1  0  0  0  0
 30  2  1  0  0  0  0
 30 32  1  0  0  0  0
 31 30  1  0  0  0  0
 32 35  1  0  0  0  0
 32 34  1  0  0  0  0
 33 32  1  0  0  0  0
 36 37  1  0  0  0  0
 36 30  1  0  0  0  0
 38 36  1  0  0  0  0
 39 36  1  0  0  0  0
 40 41  1  0  0  0  0
 40  1  1  0  0  0  0
 40 42  1  0  0  0  0
 42 44  1  0  0  0  0
 43 42  1  0  0  0  0
 45 42  1  0  0  0  0
 46 40  1  0  0  0  0
 47 46  1  0  0  0  0
 48 46  1  0  0  0  0
 49 46  1  0  0  0  0
 50 52  1  0  0  0  0
 50 56  1  0  0  0  0
 50 51  1  0  0  0  0
 52 55  1  0  0  0  0
 53 52  1  0  0  0  0
 54 52  1  0  0  0  0
 56 57  1  0  0  0  0
 58 56  1  0  0  0  0
 59 56  1  0  0  0  0
M  END
