1,2,25
 OpenBabel05122313063D

 76 82  0  0  0  0  0  0  0  0999 V2000
    2.2124   -0.1863   -0.1630 P   0  0  0  0  0  0  0  0  0  0  0  0
   -2.3348   -0.1363   -0.0066 P   0  0  0  0  0  0  0  0  0  0  0  0
    1.0245    2.4817    0.9536 N   0  0  0  0  0  0  0  0  0  0  0  0
   -0.9862    2.7039   -0.0314 N   0  0  0  0  0  0  0  0  0  0  0  0
    2.8157   -1.8818    0.1933 C   0  0  0  0  0  0  0  0  0  0  0  0
    2.0433   -2.6818    1.0597 C   0  0  0  0  0  0  0  0  0  0  0  0
    2.4830   -3.9655    1.4050 C   0  0  0  0  0  0  0  0  0  0  0  0
    3.6852   -4.4661    0.8758 C   0  0  0  0  0  0  0  0  0  0  0  0
    4.4484   -3.6761    0.0030 C   0  0  0  0  0  0  0  0  0  0  0  0
    4.0181   -2.3831   -0.3380 C   0  0  0  0  0  0  0  0  0  0  0  0
    3.2194    0.3851   -1.5885 C   0  0  0  0  0  0  0  0  0  0  0  0
    2.8361   -0.0710   -2.8697 C   0  0  0  0  0  0  0  0  0  0  0  0
    3.5600    0.3419   -3.9967 C   0  0  0  0  0  0  0  0  0  0  0  0
    4.6529    1.2156   -3.8593 C   0  0  0  0  0  0  0  0  0  0  0  0
    5.0279    1.6739   -2.5867 C   0  0  0  0  0  0  0  0  0  0  0  0
    4.3164    1.2585   -1.4495 C   0  0  0  0  0  0  0  0  0  0  0  0
    2.8282    0.7754    1.2743 C   0  0  0  0  0  0  0  0  0  0  0  0
    2.1337    1.9531    1.6643 C   0  0  0  0  0  0  0  0  0  0  0  0
    2.5833    2.6725    2.7896 C   0  0  0  0  0  0  0  0  0  0  0  0
    3.7048    2.2520    3.5174 C   0  0  0  0  0  0  0  0  0  0  0  0
    4.3849    1.0853    3.1362 C   0  0  0  0  0  0  0  0  0  0  0  0
    3.9434    0.3517    2.0257 C   0  0  0  0  0  0  0  0  0  0  0  0
   -0.1731    3.8422   -0.4505 C   0  0  0  0  0  0  0  0  0  0  0  0
    1.2455    3.3337   -0.2078 C   0  0  0  0  0  0  0  0  0  0  0  0
   -0.1941    1.7313    0.7109 C   0  0  0  0  0  3  0  0  0  0  0  0
   -2.3566    2.6924   -0.1606 C   0  0  0  0  0  0  0  0  0  0  0  0
   -3.1424    1.4979   -0.0247 C   0  0  0  0  0  0  0  0  0  0  0  0
   -4.5489    1.5783   -0.1314 C   0  0  0  0  0  0  0  0  0  0  0  0
   -5.2051    2.7875   -0.3747 C   0  0  0  0  0  0  0  0  0  0  0  0
   -4.4325    3.9486   -0.5595 C   0  0  0  0  0  0  0  0  0  0  0  0
   -3.0420    3.9048   -0.4647 C   0  0  0  0  0  0  0  0  0  0  0  0
   -2.4620   -0.8096    1.6952 C   0  0  0  0  0  0  0  0  0  0  0  0
   -2.9941   -0.0730    2.7696 C   0  0  0  0  0  0  0  0  0  0  0  0
   -2.9847   -0.6181    4.0658 C   0  0  0  0  0  0  0  0  0  0  0  0
   -2.4572   -1.8979    4.2900 C   0  0  0  0  0  0  0  0  0  0  0  0
   -1.9316   -2.6387    3.2149 C   0  0  0  0  0  0  0  0  0  0  0  0
   -1.9236   -2.0972    1.9237 C   0  0  0  0  0  0  0  0  0  0  0  0
   -3.4326   -1.2112   -1.0032 C   0  0  0  0  0  0  0  0  0  0  0  0
   -4.4765   -1.9626   -0.4275 C   0  0  0  0  0  0  0  0  0  0  0  0
   -5.3165   -2.7348   -1.2445 C   0  0  0  0  0  0  0  0  0  0  0  0
   -5.1143   -2.7629   -2.6335 C   0  0  0  0  0  0  0  0  0  0  0  0
   -4.0647   -2.0258   -3.2060 C   0  0  0  0  0  0  0  0  0  0  0  0
   -3.2179   -1.2570   -2.3957 C   0  0  0  0  0  0  0  0  0  0  0  0
    1.0889   -2.2927    1.4474 H   0  0  0  0  0  0  0  0  0  0  0  0
    1.8753   -4.5873    2.0801 H   0  0  0  0  0  0  0  0  0  0  0  0
    4.0228   -5.4803    1.1385 H   0  0  0  0  0  0  0  0  0  0  0  0
    5.3855   -4.0681   -0.4209 H   0  0  0  0  0  0  0  0  0  0  0  0
    4.6143   -1.7658   -1.0270 H   0  0  0  0  0  0  0  0  0  0  0  0
    1.9662   -0.7461   -2.9603 H   0  0  0  0  0  0  0  0  0  0  0  0
    3.2623   -0.0167   -4.9939 H   0  0  0  0  0  0  0  0  0  0  0  0
    5.2129    1.5425   -4.7489 H   0  0  0  0  0  0  0  0  0  0  0  0
    5.8827    2.3587   -2.4753 H   0  0  0  0  0  0  0  0  0  0  0  0
    4.6128    1.6148   -0.4512 H   0  0  0  0  0  0  0  0  0  0  0  0
    2.0203    3.5727    3.0769 H   0  0  0  0  0  0  0  0  0  0  0  0
    4.0401    2.8300    4.3920 H   0  0  0  0  0  0  0  0  0  0  0  0
    5.2601    0.7398    3.7070 H   0  0  0  0  0  0  0  0  0  0  0  0
    4.4717   -0.5682    1.7323 H   0  0  0  0  0  0  0  0  0  0  0  0
   -0.3818    4.7383    0.1800 H   0  0  0  0  0  0  0  0  0  0  0  0
   -0.3651    4.1055   -1.5112 H   0  0  0  0  0  0  0  0  0  0  0  0
    1.9664    4.1421    0.0218 H   0  0  0  0  0  0  0  0  0  0  0  0
    1.6217    2.7615   -1.0939 H   0  0  0  0  0  0  0  0  0  0  0  0
   -0.6756    1.4735    1.6824 H   0  0  0  0  0  0  0  0  0  0  0  0
   -5.1363    0.6516   -0.0455 H   0  0  0  0  0  0  0  0  0  0  0  0
   -6.3018    2.8222   -0.4435 H   0  0  0  0  0  0  0  0  0  0  0  0
   -4.9231    4.9098   -0.7781 H   0  0  0  0  0  0  0  0  0  0  0  0
   -2.4686    4.8307   -0.6025 H   0  0  0  0  0  0  0  0  0  0  0  0
   -3.4198    0.9257    2.5874 H   0  0  0  0  0  0  0  0  0  0  0  0
   -3.3984   -0.0369    4.9041 H   0  0  0  0  0  0  0  0  0  0  0  0
   -2.4535   -2.3226    5.3054 H   0  0  0  0  0  0  0  0  0  0  0  0
   -1.5153   -3.6430    3.3878 H   0  0  0  0  0  0  0  0  0  0  0  0
   -1.4903   -2.6590    1.0796 H   0  0  0  0  0  0  0  0  0  0  0  0
   -4.6292   -1.9469    0.6625 H   0  0  0  0  0  0  0  0  0  0  0  0
   -6.1319   -3.3196   -0.7919 H   0  0  0  0  0  0  0  0  0  0  0  0
   -5.7718   -3.3721   -3.2726 H   0  0  0  0  0  0  0  0  0  0  0  0
   -3.8912   -2.0641   -4.2920 H   0  0  0  0  0  0  0  0  0  0  0  0
   -2.3655   -0.7146   -2.8296 H   0  0  0  0  0  0  0  0  0  0  0  0
  1  5  1  0  0  0  0
  1 17  1  0  0  0  0
  2 32  1  0  0  0  0
  3 18  1  0  0  0  0
  4 25  1  0  0  0  0
  5  6  1  0  0  0  0
  6  7  2  0  0  0  0
  6 44  1  0  0  0  0
  7 45  1  0  0  0  0
  8 46  1  0  0  0  0
  8  7  1  0  0  0  0
  9  8  2  0  0  0  0
 10  9  1  0  0  0  0
 10  5  2  0  0  0  0
 11 16  1  0  0  0  0
 11  1  1  0  0  0  0
 12 11  2  0  0  0  0
 13 14  2  0  0  0  0
 13 12  1  0  0  0  0
 14 15  1  0  0  0  0
 15 52  1  0  0  0  0
 15 16  2  0  0  0  0
 16 53  1  0  0  0  0
 17 18  2  0  0  0  0
 17 22  1  0  0  0  0
 18 19  1  0  0  0  0
 19 54  1  0  0  0  0
 19 20  2  0  0  0  0
 20 55  1  0  0  0  0
 21 20  1  0  0  0  0
 21 56  1  0  0  0  0
 22 21  2  0  0  0  0
 23 24  1  0  0  0  0
 23  4  1  0  0  0  0
 23 58  1  0  0  0  0
 24 60  1  0  0  0  0
 24  3  1  0  0  0  0
 25  3  1  0  0  0  0
 25 62  1  0  0  0  0
 26  4  1  0  0  0  0
 26 27  1  0  0  0  0
 27  2  1  0  0  0  0
 28 63  1  0  0  0  0
 28 27  2  0  0  0  0
 29 28  1  0  0  0  0
 30 31  1  0  0  0  0
 30 29  2  0  0  0  0
 31 26  2  0  0  0  0
 32 37  2  0  0  0  0
 32 33  1  0  0  0  0
 33 34  2  0  0  0  0
 34 35  1  0  0  0  0
 34 68  1  0  0  0  0
 35 69  1  0  0  0  0
 36 70  1  0  0  0  0
 36 35  2  0  0  0  0
 37 36  1  0  0  0  0
 38 39  1  0  0  0  0
 38  2  1  0  0  0  0
 39 72  1  0  0  0  0
 40 73  1  0  0  0  0
 40 39  2  0  0  0  0
 41 40  1  0  0  0  0
 42 41  2  0  0  0  0
 42 43  1  0  0  0  0
 43 38  2  0  0  0  0
 47  9  1  0  0  0  0
 48 10  1  0  0  0  0
 49 12  1  0  0  0  0
 50 13  1  0  0  0  0
 51 14  1  0  0  0  0
 57 22  1  0  0  0  0
 59 23  1  0  0  0  0
 61 24  1  0  0  0  0
 64 29  1  0  0  0  0
 65 30  1  0  0  0  0
 66 31  1  0  0  0  0
 67 33  1  0  0  0  0
 71 37  1  0  0  0  0
 74 41  1  0  0  0  0
 75 42  1  0  0  0  0
 76 43  1  0  0  0  0
M  END
