1,2,3
 OpenBabel05122313063D

 52 55  0  0  0  0  0  0  0  0999 V2000
    2.3254    0.0620    0.1725 P   0  0  0  0  0  0  0  0  0  0  0  0
   -2.3148   -0.0812    0.5300 P   0  0  0  0  0  0  0  0  0  0  0  0
    1.6637    0.0079    1.7685 C   0  0  0  0  0  2  0  0  0  0  0  0
    0.8537   -0.0238    2.7712 C   0  0  0  0  0  2  0  0  0  0  0  0
   -0.0760   -0.0609    3.7148 C   0  0  0  0  0  2  0  0  0  0  0  0
   -1.2946   -0.1001    4.0950 C   0  0  0  0  0  3  0  0  0  0  0  0
   -2.3712   -0.1272    3.2923 C   0  0  0  0  0  0  0  0  0  0  0  0
   -2.9741   -0.0819    2.1834 C   0  0  0  0  0  3  0  0  0  0  0  0
    3.5249   -1.2544   -0.1805 C   0  0  0  0  0  0  0  0  0  0  0  0
    3.2350   -2.1127   -1.2622 C   0  0  0  0  0  0  0  0  0  0  0  0
    4.1263   -3.1500   -1.5747 C   0  0  0  0  0  0  0  0  0  0  0  0
    5.2894   -3.3358   -0.8102 C   0  0  0  0  0  0  0  0  0  0  0  0
    5.5687   -2.4861    0.2738 C   0  0  0  0  0  0  0  0  0  0  0  0
    4.6901   -1.4410    0.5924 C   0  0  0  0  0  0  0  0  0  0  0  0
    3.0505    1.6735   -0.2611 C   0  0  0  0  0  0  0  0  0  0  0  0
    4.3796    1.8009   -0.7099 C   0  0  0  0  0  0  0  0  0  0  0  0
    4.8728    3.0690   -1.0539 C   0  0  0  0  0  0  0  0  0  0  0  0
    4.0468    4.1996   -0.9526 C   0  0  0  0  0  0  0  0  0  0  0  0
    2.7173    4.0661   -0.5155 C   0  0  0  0  0  0  0  0  0  0  0  0
    2.2116    2.8048   -0.1779 C   0  0  0  0  0  0  0  0  0  0  0  0
   -3.1998   -1.4483   -0.3266 C   0  0  0  0  0  0  0  0  0  0  0  0
   -4.4235   -1.2444   -0.9898 C   0  0  0  0  0  0  0  0  0  0  0  0
    2.3043   -1.9683   -1.8350 H   0  0  0  0  0  0  0  0  0  0  0  0
    3.9045   -3.8232   -2.4163 H   0  0  0  0  0  0  0  0  0  0  0  0
    5.9825   -4.1549   -1.0556 H   0  0  0  0  0  0  0  0  0  0  0  0
    6.4752   -2.6416    0.8781 H   0  0  0  0  0  0  0  0  0  0  0  0
    4.9012   -0.7769    1.4444 H   0  0  0  0  0  0  0  0  0  0  0  0
    5.0253    0.9142   -0.7942 H   0  0  0  0  0  0  0  0  0  0  0  0
    5.9105    3.1722   -1.4054 H   0  0  0  0  0  0  0  0  0  0  0  0
    4.4387    5.1913   -1.2249 H   0  0  0  0  0  0  0  0  0  0  0  0
    2.0656    4.9501   -0.4480 H   0  0  0  0  0  0  0  0  0  0  0  0
    1.1641    2.6701    0.1403 H   0  0  0  0  0  0  0  0  0  0  0  0
   -5.0857   -2.3332   -1.5774 C   0  0  0  0  0  0  0  0  0  0  0  0
   -4.5312   -3.6208   -1.5016 C   0  0  0  0  0  0  0  0  0  0  0  0
   -3.3088   -3.8226   -0.8391 C   0  0  0  0  0  0  0  0  0  0  0  0
   -2.6406   -2.7387   -0.2542 C   0  0  0  0  0  0  0  0  0  0  0  0
   -2.9941    1.4643   -0.2076 C   0  0  0  0  0  0  0  0  0  0  0  0
   -2.5709    1.8701   -1.4911 C   0  0  0  0  0  0  0  0  0  0  0  0
   -3.0868    3.0468   -2.0520 C   0  0  0  0  0  0  0  0  0  0  0  0
   -4.0136    3.8277   -1.3409 C   0  0  0  0  0  0  0  0  0  0  0  0
   -4.4285    3.4269   -0.0615 C   0  0  0  0  0  0  0  0  0  0  0  0
   -3.9219    2.2474    0.5059 C   0  0  0  0  0  0  0  0  0  0  0  0
   -4.8547   -0.2337   -1.0511 H   0  0  0  0  0  0  0  0  0  0  0  0
   -6.0412   -2.1733   -2.1000 H   0  0  0  0  0  0  0  0  0  0  0  0
   -5.0526   -4.4721   -1.9656 H   0  0  0  0  0  0  0  0  0  0  0  0
   -2.8690   -4.8301   -0.7849 H   0  0  0  0  0  0  0  0  0  0  0  0
   -1.6714   -2.8774    0.2514 H   0  0  0  0  0  0  0  0  0  0  0  0
   -1.8379    1.2576   -2.0393 H   0  0  0  0  0  0  0  0  0  0  0  0
   -2.7572    3.3582   -3.0551 H   0  0  0  0  0  0  0  0  0  0  0  0
   -4.4118    4.7531   -1.7848 H   0  0  0  0  0  0  0  0  0  0  0  0
   -5.1527    4.0353    0.5017 H   0  0  0  0  0  0  0  0  0  0  0  0
   -4.2417    1.9237    1.5088 H   0  0  0  0  0  0  0  0  0  0  0  0
  1  3  1  0  0  0  0
  2  8  1  0  0  0  0
  3  4  1  0  0  0  0
  4  5  1  0  0  0  0
  5  6  1  0  0  0  0
  7  6  2  0  0  0  0
  8  7  2  0  0  0  0
  9  1  1  0  0  0  0
  9 14  1  0  0  0  0
 10  9  2  0  0  0  0
 11 10  1  0  0  0  0
 11 12  2  0  0  0  0
 12 13  1  0  0  0  0
 13 14  2  0  0  0  0
 13 26  1  0  0  0  0
 14 27  1  0  0  0  0
 15 20  1  0  0  0  0
 15  1  1  0  0  0  0
 16 15  2  0  0  0  0
 17 18  2  0  0  0  0
 17 16  1  0  0  0  0
 18 19  1  0  0  0  0
 19 31  1  0  0  0  0
 19 20  2  0  0  0  0
 20 32  1  0  0  0  0
 21 36  1  0  0  0  0
 21  2  1  0  0  0  0
 22 21  2  0  0  0  0
 23 10  1  0  0  0  0
 24 11  1  0  0  0  0
 25 12  1  0  0  0  0
 28 16  1  0  0  0  0
 29 17  1  0  0  0  0
 30 18  1  0  0  0  0
 33 34  2  0  0  0  0
 33 22  1  0  0  0  0
 34 35  1  0  0  0  0
 35 46  1  0  0  0  0
 35 36  2  0  0  0  0
 36 47  1  0  0  0  0
 37 42  1  0  0  0  0
 37  2  1  0  0  0  0
 38 37  2  0  0  0  0
 39 38  1  0  0  0  0
 39 40  2  0  0  0  0
 40 41  1  0  0  0  0
 41 51  1  0  0  0  0
 41 42  2  0  0  0  0
 42 52  1  0  0  0  0
 43 22  1  0  0  0  0
 44 33  1  0  0  0  0
 45 34  1  0  0  0  0
 48 38  1  0  0  0  0
 49 39  1  0  0  0  0
 50 40  1  0  0  0  0
M  END
