1,3,25
 OpenBabel05122313063D

 83 85  0  0  0  0  0  0  0  0999 V2000
   -2.5925   -0.3584   -0.3886 P   0  0  0  0  0  0  0  0  0  0  0  0
    0.6127   -1.6422   -1.0186 Si  0  0  0  0  0  0  0  0  0  0  0  0
    0.5894    2.1954   -0.0587 P   0  0  0  0  0  0  0  0  0  0  0  0
    3.0382   -3.1881   -0.5507 C   0  0  0  0  0  0  0  0  0  0  0  0
    2.3739   -3.9931   -0.1983 H   0  0  0  0  0  0  0  0  0  0  0  0
   -0.7669   -1.2522    1.4622 C   0  0  0  0  0  0  0  0  0  0  0  0
   -0.2320   -3.3361   -0.9132 C   0  0  0  0  0  0  0  0  0  0  0  0
    0.0026   -3.9389   -1.8146 H   0  0  0  0  0  0  0  0  0  0  0  0
   -1.3298   -3.2784   -0.7993 H   0  0  0  0  0  0  0  0  0  0  0  0
    0.1414   -3.8792   -0.0214 H   0  0  0  0  0  0  0  0  0  0  0  0
    2.4498   -0.8533    1.8120 C   0  0  0  0  0  0  0  0  0  0  0  0
    2.2162   -1.9059    2.0226 H   0  0  0  0  0  0  0  0  0  0  0  0
    2.4860   -1.9894   -1.0544 C   0  0  0  0  0  0  0  0  0  0  0  0
    3.1940    1.7601    1.1281 C   0  0  0  0  0  0  0  0  0  0  0  0
    3.4853    2.7841    0.8453 H   0  0  0  0  0  0  0  0  0  0  0  0
    0.2090   -0.7828   -2.6878 C   0  0  0  0  0  0  0  0  0  0  0  0
   -0.2811    0.2257   -2.6117 H   0  0  0  0  0  0  0  0  0  0  0  0
   -0.4700   -1.4226   -3.2861 H   0  0  0  0  0  0  0  0  0  0  0  0
    1.1425   -0.6396   -3.2680 H   0  0  0  0  0  0  0  0  0  0  0  0
   -3.0577   -2.1229    1.8378 C   0  0  0  0  0  0  0  0  0  0  0  0
   -4.1039   -2.2127    1.5072 H   0  0  0  0  0  0  0  0  0  0  0  0
   -2.6831   -2.6620    3.0772 C   0  0  0  0  0  0  0  0  0  0  0  0
   -3.4143   -3.2042    3.6949 H   0  0  0  0  0  0  0  0  0  0  0  0
    1.5146   -0.0566    1.1059 C   0  0  0  0  0  0  0  0  0  0  0  0
    0.2026   -0.5696    0.5419 C   0  0  0  0  0  3  0  0  0  0  0  0
   -1.3746   -2.4422    3.5364 C   0  0  0  0  0  0  0  0  0  0  0  0
   -1.0714   -2.8104    4.5292 H   0  0  0  0  0  0  0  0  0  0  0  0
   -0.4415   -1.7545    2.7491 C   0  0  0  0  0  0  0  0  0  0  0  0
    0.5667   -1.5929    3.1512 H   0  0  0  0  0  0  0  0  0  0  0  0
   -4.0553    0.6320    0.2643 C   0  0  0  0  0  0  0  0  0  0  0  0
   -4.8179   -0.1225    0.5589 H   0  0  0  0  0  0  0  0  0  0  0  0
   -2.1354   -1.4067    1.0532 C   0  0  0  0  0  0  0  0  0  0  0  0
    3.3845   -0.9928   -1.4956 C   0  0  0  0  0  0  0  0  0  0  0  0
    2.9901   -0.0450   -1.8921 H   0  0  0  0  0  0  0  0  0  0  0  0
   -0.1110    3.2666    1.3343 C   0  0  0  0  0  0  0  0  0  0  0  0
   -1.0825    3.6201    0.9238 H   0  0  0  0  0  0  0  0  0  0  0  0
   -0.3781    2.3832    2.5601 C   0  0  0  0  0  0  0  0  0  0  0  0
    0.5733    2.1011    3.0538 H   0  0  0  0  0  0  0  0  0  0  0  0
   -0.9011    1.4467    2.2906 H   0  0  0  0  0  0  0  0  0  0  0  0
   -0.9996    2.9305    3.2986 H   0  0  0  0  0  0  0  0  0  0  0  0
    4.0969    0.9446    1.8240 C   0  0  0  0  0  0  0  0  0  0  0  0
    5.0977    1.3195    2.0862 H   0  0  0  0  0  0  0  0  0  0  0  0
    0.7579    4.4713    1.7062 C   0  0  0  0  0  0  0  0  0  0  0  0
    0.2971    5.0179    2.5559 H   0  0  0  0  0  0  0  0  0  0  0  0
    0.8784    5.1947    0.8764 H   0  0  0  0  0  0  0  0  0  0  0  0
    1.7665    4.1478    2.0370 H   0  0  0  0  0  0  0  0  0  0  0  0
    3.7133   -0.3625    2.1671 C   0  0  0  0  0  0  0  0  0  0  0  0
    4.4227   -1.0248    2.6865 H   0  0  0  0  0  0  0  0  0  0  0  0
   -4.6435    1.5610   -0.8016 C   0  0  0  0  0  0  0  0  0  0  0  0
   -5.3952    2.2360   -0.3418 H   0  0  0  0  0  0  0  0  0  0  0  0
   -5.1484    1.0103   -1.6175 H   0  0  0  0  0  0  0  0  0  0  0  0
   -3.8473    2.1902   -1.2519 H   0  0  0  0  0  0  0  0  0  0  0  0
    1.3964    3.4055   -1.2358 C   0  0  0  0  0  0  0  0  0  0  0  0
    2.0850    4.0382   -0.6348 H   0  0  0  0  0  0  0  0  0  0  0  0
   -3.6368    1.4205    1.5068 C   0  0  0  0  0  0  0  0  0  0  0  0
   -2.8823    2.1855    1.2364 H   0  0  0  0  0  0  0  0  0  0  0  0
   -3.2012    0.7694    2.2890 H   0  0  0  0  0  0  0  0  0  0  0  0
   -4.5154    1.9424    1.9402 H   0  0  0  0  0  0  0  0  0  0  0  0
   -3.4197   -0.6936   -3.0837 C   0  0  0  0  0  0  0  0  0  0  0  0
   -3.5043   -1.4138   -3.9243 H   0  0  0  0  0  0  0  0  0  0  0  0
   -2.5366   -0.0509   -3.2603 H   0  0  0  0  0  0  0  0  0  0  0  0
   -4.3162   -0.0450   -3.1163 H   0  0  0  0  0  0  0  0  0  0  0  0
    1.9229    1.2656    0.7801 C   0  0  0  0  0  0  0  0  0  0  0  0
    5.3000   -2.3642   -0.9009 C   0  0  0  0  0  0  0  0  0  0  0  0
    6.3897   -2.5069   -0.8349 H   0  0  0  0  0  0  0  0  0  0  0  0
    4.4275   -3.3783   -0.4761 C   0  0  0  0  0  0  0  0  0  0  0  0
    4.8320   -4.3233   -0.0808 H   0  0  0  0  0  0  0  0  0  0  0  0
    2.2098    2.6479   -2.2892 C   0  0  0  0  0  0  0  0  0  0  0  0
    1.5661    1.9398   -2.8501 H   0  0  0  0  0  0  0  0  0  0  0  0
    3.0362    2.0709   -1.8303 H   0  0  0  0  0  0  0  0  0  0  0  0
    2.6528    3.3565   -3.0197 H   0  0  0  0  0  0  0  0  0  0  0  0
    0.3230    4.2923   -1.8776 C   0  0  0  0  0  0  0  0  0  0  0  0
    0.7850    5.0002   -2.5968 H   0  0  0  0  0  0  0  0  0  0  0  0
   -0.2371    4.8890   -1.1298 H   0  0  0  0  0  0  0  0  0  0  0  0
   -0.4138    3.6676   -2.4228 H   0  0  0  0  0  0  0  0  0  0  0  0
    4.7732   -1.1686   -1.4156 C   0  0  0  0  0  0  0  0  0  0  0  0
    5.4490   -0.3670   -1.7525 H   0  0  0  0  0  0  0  0  0  0  0  0
   -3.3068   -1.4526   -1.7525 C   0  0  0  0  0  0  0  0  0  0  0  0
   -2.4920   -2.1962   -1.8721 H   0  0  0  0  0  0  0  0  0  0  0  0
   -4.5930   -2.2039   -1.4003 C   0  0  0  0  0  0  0  0  0  0  0  0
   -5.4384   -1.5102   -1.2126 H   0  0  0  0  0  0  0  0  0  0  0  0
   -4.4695   -2.8494   -0.5093 H   0  0  0  0  0  0  0  0  0  0  0  0
   -4.8932   -2.8603   -2.2444 H   0  0  0  0  0  0  0  0  0  0  0  0
  1 30  1  0  0  0  0
  1 32  1  0  0  0  0
  2  7  1  0  0  0  0
  2 25  1  0  0  0  0
  3 63  1  0  0  0  0
  3 35  1  0  0  0  0
  4 66  1  0  0  0  0
  4  5  1  0  0  0  0
  6 28  1  0  0  0  0
  7  9  1  0  0  0  0
  7 10  1  0  0  0  0
  8  7  1  0  0  0  0
 11 12  1  0  0  0  0
 11 47  1  0  0  0  0
 13  2  1  0  0  0  0
 13  4  2  0  0  0  0
 14 41  1  0  0  0  0
 15 14  1  0  0  0  0
 16 17  1  0  0  0  0
 16  2  1  0  0  0  0
 18 16  1  0  0  0  0
 19 16  1  0  0  0  0
 20 22  2  0  0  0  0
 21 20  1  0  0  0  0
 22 26  1  0  0  0  0
 22 23  1  0  0  0  0
 24 11  2  0  0  0  0
 25 24  1  0  0  0  0
 25  6  1  0  0  0  0
 26 27  1  0  0  0  0
 28 29  1  0  0  0  0
 28 26  2  0  0  0  0
 30 31  1  0  0  0  0
 30 55  1  0  0  0  0
 32  6  2  0  0  0  0
 32 20  1  0  0  0  0
 33 76  2  0  0  0  0
 33 13  1  0  0  0  0
 34 33  1  0  0  0  0
 35 43  1  0  0  0  0
 35 37  1  0  0  0  0
 36 35  1  0  0  0  0
 37 38  1  0  0  0  0
 37 40  1  0  0  0  0
 39 37  1  0  0  0  0
 41 42  1  0  0  0  0
 41 47  2  0  0  0  0
 43 46  1  0  0  0  0
 43 44  1  0  0  0  0
 45 43  1  0  0  0  0
 47 48  1  0  0  0  0
 49 50  1  0  0  0  0
 49 30  1  0  0  0  0
 51 49  1  0  0  0  0
 52 49  1  0  0  0  0
 53 54  1  0  0  0  0
 53  3  1  0  0  0  0
 55 58  1  0  0  0  0
 55 57  1  0  0  0  0
 56 55  1  0  0  0  0
 59 78  1  0  0  0  0
 60 59  1  0  0  0  0
 61 59  1  0  0  0  0
 62 59  1  0  0  0  0
 63 24  1  0  0  0  0
 63 14  2  0  0  0  0
 64 65  1  0  0  0  0
 64 66  2  0  0  0  0
 66 67  1  0  0  0  0
 68 70  1  0  0  0  0
 68 53  1  0  0  0  0
 69 68  1  0  0  0  0
 71 68  1  0  0  0  0
 72 53  1  0  0  0  0
 72 74  1  0  0  0  0
 73 72  1  0  0  0  0
 75 72  1  0  0  0  0
 76 64  1  0  0  0  0
 77 76  1  0  0  0  0
 78 80  1  0  0  0  0
 78  1  1  0  0  0  0
 79 78  1  0  0  0  0
 80 81  1  0  0  0  0
 80 82  1  0  0  0  0
 83 80  1  0  0  0  0
M  END
