1,2,6
 OpenBabel05122313063D

 66 66  0  0  0  0  0  0  0  0999 V2000
   -2.2736   -0.0686   -0.0502 P   0  0  0  0  0  0  0  0  0  0  0  0
    2.3040    0.0337   -0.0459 P   0  0  0  0  0  0  0  0  0  0  0  0
   -2.4771    1.6237   -0.0310 O   0  0  0  0  0  0  0  0  0  0  0  0
    2.3414    1.7589   -0.0006 N   0  0  0  0  0  0  0  0  0  0  0  0
    3.2098    2.2944    0.0263 H   0  0  0  0  0  0  0  0  0  0  0  0
   -0.0640    1.6757    0.0044 C   0  0  0  0  0  3  0  0  0  0  0  0
   -1.2994    2.3588    0.0303 C   0  0  0  0  0  0  0  0  0  0  0  0
   -1.3865    3.7586    0.1172 C   0  0  0  0  0  0  0  0  0  0  0  0
   -2.3720    4.2441    0.1410 H   0  0  0  0  0  0  0  0  0  0  0  0
   -0.1947    4.4992    0.1688 C   0  0  0  0  0  0  0  0  0  0  0  0
   -0.2417    5.5965    0.2372 H   0  0  0  0  0  0  0  0  0  0  0  0
    1.0584    3.8638    0.1352 C   0  0  0  0  0  0  0  0  0  0  0  0
    1.9842    4.4588    0.1755 H   0  0  0  0  0  0  0  0  0  0  0  0
    1.1221    2.4582    0.0464 C   0  0  0  0  0  0  0  0  0  0  0  0
   -3.1011   -0.5292    1.5886 C   0  0  0  0  0  0  0  0  0  0  0  0
   -4.3606    0.3013    1.8771 C   0  0  0  0  0  0  0  0  0  0  0  0
   -4.7002    0.0890    2.9132 H   0  0  0  0  0  0  0  0  0  0  0  0
   -5.1966    0.0558    1.1972 H   0  0  0  0  0  0  0  0  0  0  0  0
   -4.1537    1.3856    1.7960 H   0  0  0  0  0  0  0  0  0  0  0  0
   -3.3907   -2.0392    1.6040 C   0  0  0  0  0  0  0  0  0  0  0  0
   -4.2398   -2.3053    0.9439 H   0  0  0  0  0  0  0  0  0  0  0  0
   -3.6672   -2.3440    2.6357 H   0  0  0  0  0  0  0  0  0  0  0  0
   -2.4992   -2.6277    1.3008 H   0  0  0  0  0  0  0  0  0  0  0  0
   -2.0251   -0.2025    2.6474 C   0  0  0  0  0  0  0  0  0  0  0  0
   -1.1319   -0.8478    2.5224 H   0  0  0  0  0  0  0  0  0  0  0  0
   -2.4400   -0.3941    3.6596 H   0  0  0  0  0  0  0  0  0  0  0  0
   -1.7043    0.8577    2.6031 H   0  0  0  0  0  0  0  0  0  0  0  0
   -3.2774   -0.5386   -1.5781 C   0  0  0  0  0  0  0  0  0  0  0  0
   -4.7663   -0.1853   -1.4505 C   0  0  0  0  0  0  0  0  0  0  0  0
   -5.2802   -0.8140   -0.6981 H   0  0  0  0  0  0  0  0  0  0  0  0
   -5.2677   -0.3627   -2.4257 H   0  0  0  0  0  0  0  0  0  0  0  0
   -4.9111    0.8801   -1.1833 H   0  0  0  0  0  0  0  0  0  0  0  0
   -3.0738   -2.0435   -1.8359 C   0  0  0  0  0  0  0  0  0  0  0  0
   -3.4698   -2.2958   -2.8423 H   0  0  0  0  0  0  0  0  0  0  0  0
   -3.6095   -2.6707   -1.0988 H   0  0  0  0  0  0  0  0  0  0  0  0
   -2.0022   -2.3262   -1.7963 H   0  0  0  0  0  0  0  0  0  0  0  0
   -2.6607    0.2707   -2.7367 C   0  0  0  0  0  0  0  0  0  0  0  0
   -2.7357    1.3613   -2.5617 H   0  0  0  0  0  0  0  0  0  0  0  0
   -3.2046    0.0269   -3.6732 H   0  0  0  0  0  0  0  0  0  0  0  0
   -1.5934    0.0151   -2.8874 H   0  0  0  0  0  0  0  0  0  0  0  0
    3.1617   -0.4744    1.5761 C   0  0  0  0  0  0  0  0  0  0  0  0
    4.3796    0.4029    1.9039 C   0  0  0  0  0  0  0  0  0  0  0  0
    5.1973    0.2991    1.1663 H   0  0  0  0  0  0  0  0  0  0  0  0
    4.7864    0.1018    2.8927 H   0  0  0  0  0  0  0  0  0  0  0  0
    4.1017    1.4733    1.9784 H   0  0  0  0  0  0  0  0  0  0  0  0
    3.5371   -1.9639    1.5373 C   0  0  0  0  0  0  0  0  0  0  0  0
    3.8278   -2.2905    2.5586 H   0  0  0  0  0  0  0  0  0  0  0  0
    4.4012   -2.1595    0.8724 H   0  0  0  0  0  0  0  0  0  0  0  0
    2.6787   -2.5868    1.2104 H   0  0  0  0  0  0  0  0  0  0  0  0
    2.0740   -0.2500    2.6478 C   0  0  0  0  0  0  0  0  0  0  0  0
    2.5084   -0.4196    3.6560 H   0  0  0  0  0  0  0  0  0  0  0  0
    1.2376   -0.9653    2.5144 H   0  0  0  0  0  0  0  0  0  0  0  0
    1.6680    0.7816    2.6176 H   0  0  0  0  0  0  0  0  0  0  0  0
    3.3021   -0.4412   -1.5918 C   0  0  0  0  0  0  0  0  0  0  0  0
    4.7861   -0.0564   -1.4947 C   0  0  0  0  0  0  0  0  0  0  0  0
    4.9278    1.0240   -1.2842 H   0  0  0  0  0  0  0  0  0  0  0  0
    5.2836   -0.2655   -2.4657 H   0  0  0  0  0  0  0  0  0  0  0  0
    5.3209   -0.6387   -0.7199 H   0  0  0  0  0  0  0  0  0  0  0  0
    3.1385   -1.9534   -1.8356 C   0  0  0  0  0  0  0  0  0  0  0  0
    3.7165   -2.5603   -1.1147 H   0  0  0  0  0  0  0  0  0  0  0  0
    3.5091   -2.1995   -2.8533 H   0  0  0  0  0  0  0  0  0  0  0  0
    2.0780   -2.2679   -1.7586 H   0  0  0  0  0  0  0  0  0  0  0  0
    2.6502    0.3313   -2.7550 C   0  0  0  0  0  0  0  0  0  0  0  0
    3.1925    0.0953   -3.6945 H   0  0  0  0  0  0  0  0  0  0  0  0
    2.6817    1.4268   -2.5966 H   0  0  0  0  0  0  0  0  0  0  0  0
    1.5911    0.0365   -2.8901 H   0  0  0  0  0  0  0  0  0  0  0  0
  1  3  1  0  0  0  0
  1 15  1  0  0  0  0
  2  4  1  0  0  0  0
  2 41  1  0  0  0  0
  3  7  1  0  0  0  0
  4  5  1  0  0  0  0
  4 14  1  0  0  0  0
  6  7  2  0  0  0  0
  6 14  1  0  0  0  0
  7  8  1  0  0  0  0
  8  9  1  0  0  0  0
  8 10  2  0  0  0  0
 10 11  1  0  0  0  0
 12 10  1  0  0  0  0
 12 13  1  0  0  0  0
 14 12  2  0  0  0  0
 15 20  1  0  0  0  0
 15 16  1  0  0  0  0
 15 24  1  0  0  0  0
 16 17  1  0  0  0  0
 18 16  1  0  0  0  0
 19 16  1  0  0  0  0
 20 22  1  0  0  0  0
 21 20  1  0  0  0  0
 23 20  1  0  0  0  0
 24 26  1  0  0  0  0
 25 24  1  0  0  0  0
 27 24  1  0  0  0  0
 28 29  1  0  0  0  0
 28  1  1  0  0  0  0
 29 32  1  0  0  0  0
 29 30  1  0  0  0  0
 31 29  1  0  0  0  0
 33 36  1  0  0  0  0
 33 28  1  0  0  0  0
 33 35  1  0  0  0  0
 34 33  1  0  0  0  0
 37 38  1  0  0  0  0
 37 28  1  0  0  0  0
 39 37  1  0  0  0  0
 40 37  1  0  0  0  0
 41 42  1  0  0  0  0
 41 50  1  0  0  0  0
 42 45  1  0  0  0  0
 42 44  1  0  0  0  0
 43 42  1  0  0  0  0
 46 41  1  0  0  0  0
 46 47  1  0  0  0  0
 48 46  1  0  0  0  0
 49 46  1  0  0  0  0
 50 51  1  0  0  0  0
 52 50  1  0  0  0  0
 53 50  1  0  0  0  0
 54 55  1  0  0  0  0
 54  2  1  0  0  0  0
 55 56  1  0  0  0  0
 55 58  1  0  0  0  0
 57 55  1  0  0  0  0
 59 62  1  0  0  0  0
 59 54  1  0  0  0  0
 59 60  1  0  0  0  0
 61 59  1  0  0  0  0
 63 65  1  0  0  0  0
 63 54  1  0  0  0  0
 64 63  1  0  0  0  0
 66 63  1  0  0  0  0
M  END
