1,2,5
 OpenBabel05122313063D

 72 74  0  0  0  0  0  0  0  0999 V2000
    2.2977   -0.9233    0.1323 P   0  0  0  0  0  0  0  0  0  0  0  0
   -2.2979   -0.9232    0.1321 P   0  0  0  0  0  0  0  0  0  0  0  0
    0.0004    3.1760    1.9056 N   0  0  0  0  0  0  0  0  0  0  0  0
    0.0004    3.7689    2.7376 H   0  0  0  0  0  0  0  0  0  0  0  0
    0.0003    1.4646   -0.3143 C   0  0  0  0  0  3  0  0  0  0  0  0
    0.0003    1.2094   -1.3909 H   0  0  0  0  0  0  0  0  0  0  0  0
    1.2429    2.0180    0.2189 C   0  0  0  0  0  0  0  0  0  0  0  0
    1.1971    2.8231    1.3426 C   0  0  0  0  0  0  0  0  0  0  0  0
    2.1018    3.2242    1.8186 H   0  0  0  0  0  0  0  0  0  0  0  0
   -1.1964    2.8230    1.3428 C   0  0  0  0  0  0  0  0  0  0  0  0
   -2.1011    3.2240    1.8190 H   0  0  0  0  0  0  0  0  0  0  0  0
   -1.2424    2.0179    0.2190 C   0  0  0  0  0  0  0  0  0  0  0  0
    2.5487    1.8115   -0.4673 C   0  0  0  0  0  0  0  0  0  0  0  0
    3.1385    0.5266   -0.6248 C   0  0  0  0  0  0  0  0  0  0  0  0
    4.3674    0.4126   -1.3072 C   0  0  0  0  0  0  0  0  0  0  0  0
    4.8330   -0.5751   -1.4375 H   0  0  0  0  0  0  0  0  0  0  0  0
    5.0196    1.5438   -1.8175 C   0  0  0  0  0  0  0  0  0  0  0  0
    5.9781    1.4321   -2.3456 H   0  0  0  0  0  0  0  0  0  0  0  0
    4.4495    2.8134   -1.6448 C   0  0  0  0  0  0  0  0  0  0  0  0
    4.9541    3.7071   -2.0409 H   0  0  0  0  0  0  0  0  0  0  0  0
    3.2253    2.9424   -0.9755 C   0  0  0  0  0  0  0  0  0  0  0  0
    2.7640    3.9350   -0.8615 H   0  0  0  0  0  0  0  0  0  0  0  0
   -2.5482    1.8118   -0.4671 C   0  0  0  0  0  0  0  0  0  0  0  0
   -3.1385    0.5270   -0.6248 C   0  0  0  0  0  0  0  0  0  0  0  0
   -4.3674    0.4135   -1.3071 C   0  0  0  0  0  0  0  0  0  0  0  0
   -4.8333   -0.5741   -1.4375 H   0  0  0  0  0  0  0  0  0  0  0  0
   -5.0193    1.5450   -1.8172 C   0  0  0  0  0  0  0  0  0  0  0  0
   -5.9779    1.4336   -2.3453 H   0  0  0  0  0  0  0  0  0  0  0  0
   -4.4488    2.8143   -1.6444 C   0  0  0  0  0  0  0  0  0  0  0  0
   -4.9531    3.7082   -2.0403 H   0  0  0  0  0  0  0  0  0  0  0  0
   -3.2245    2.9429   -0.9751 C   0  0  0  0  0  0  0  0  0  0  0  0
   -2.7630    3.9354   -0.8610 H   0  0  0  0  0  0  0  0  0  0  0  0
    2.7494   -2.3720   -0.9616 C   0  0  0  0  0  0  0  0  0  0  0  0
    3.8588   -2.4089   -1.0187 H   0  0  0  0  0  0  0  0  0  0  0  0
    2.1772   -2.1561   -2.3669 C   0  0  0  0  0  0  0  0  0  0  0  0
    2.4436   -3.0092   -3.0232 H   0  0  0  0  0  0  0  0  0  0  0  0
    2.5601   -1.2304   -2.8396 H   0  0  0  0  0  0  0  0  0  0  0  0
    1.0704   -2.0859   -2.3305 H   0  0  0  0  0  0  0  0  0  0  0  0
    2.2467   -3.6755   -0.3294 C   0  0  0  0  0  0  0  0  0  0  0  0
    1.1456   -3.6477   -0.1887 H   0  0  0  0  0  0  0  0  0  0  0  0
    2.7126   -3.8819    0.6542 H   0  0  0  0  0  0  0  0  0  0  0  0
    2.4798   -4.5327   -0.9930 H   0  0  0  0  0  0  0  0  0  0  0  0
    3.2041   -1.2019    1.7561 C   0  0  0  0  0  0  0  0  0  0  0  0
    2.7123   -2.1196    2.1489 H   0  0  0  0  0  0  0  0  0  0  0  0
    2.8933   -0.0474    2.7153 C   0  0  0  0  0  0  0  0  0  0  0  0
    3.3050   -0.2642    3.7218 H   0  0  0  0  0  0  0  0  0  0  0  0
    1.7999    0.1153    2.8129 H   0  0  0  0  0  0  0  0  0  0  0  0
    3.3560    0.8974    2.3624 H   0  0  0  0  0  0  0  0  0  0  0  0
    4.7058   -1.4522    1.6100 C   0  0  0  0  0  0  0  0  0  0  0  0
    5.2236   -0.5669    1.1883 H   0  0  0  0  0  0  0  0  0  0  0  0
    4.9331   -2.3258    0.9675 H   0  0  0  0  0  0  0  0  0  0  0  0
    5.1527   -1.6534    2.6055 H   0  0  0  0  0  0  0  0  0  0  0  0
   -3.2038   -1.2016    1.7562 C   0  0  0  0  0  0  0  0  0  0  0  0
   -2.7123   -2.1196    2.1486 H   0  0  0  0  0  0  0  0  0  0  0  0
   -2.8924   -0.0475    2.7155 C   0  0  0  0  0  0  0  0  0  0  0  0
   -3.3548    0.8976    2.3629 H   0  0  0  0  0  0  0  0  0  0  0  0
   -1.7989    0.1149    2.8128 H   0  0  0  0  0  0  0  0  0  0  0  0
   -3.3039   -0.2643    3.7221 H   0  0  0  0  0  0  0  0  0  0  0  0
   -4.7058   -1.4513    1.6104 C   0  0  0  0  0  0  0  0  0  0  0  0
   -5.1525   -1.6524    2.6060 H   0  0  0  0  0  0  0  0  0  0  0  0
   -4.9337   -2.3246    0.9678 H   0  0  0  0  0  0  0  0  0  0  0  0
   -5.2233   -0.5657    1.1890 H   0  0  0  0  0  0  0  0  0  0  0  0
   -2.7505   -2.3717   -0.9617 C   0  0  0  0  0  0  0  0  0  0  0  0
   -3.8599   -2.4080   -1.0187 H   0  0  0  0  0  0  0  0  0  0  0  0
   -2.1783   -2.1561   -2.3670 C   0  0  0  0  0  0  0  0  0  0  0  0
   -1.0714   -2.0870   -2.3309 H   0  0  0  0  0  0  0  0  0  0  0  0
   -2.5604   -1.2300   -2.8394 H   0  0  0  0  0  0  0  0  0  0  0  0
   -2.4457   -3.0088   -3.0235 H   0  0  0  0  0  0  0  0  0  0  0  0
   -2.2485   -3.6755   -0.3295 C   0  0  0  0  0  0  0  0  0  0  0  0
   -2.4813   -4.5325   -0.9935 H   0  0  0  0  0  0  0  0  0  0  0  0
   -2.7150   -3.8820    0.6537 H   0  0  0  0  0  0  0  0  0  0  0  0
   -1.1474   -3.6480   -0.1881 H   0  0  0  0  0  0  0  0  0  0  0  0
  1 43  1  0  0  0  0
  2 53  1  0  0  0  0
  3  4  1  0  0  0  0
  5  7  1  0  0  0  0
  5 12  1  0  0  0  0
  6  5  1  0  0  0  0
  7  8  2  0  0  0  0
  8  9  1  0  0  0  0
  8  3  1  0  0  0  0
 10 11  1  0  0  0  0
 10  3  1  0  0  0  0
 12 10  2  0  0  0  0
 13  7  1  0  0  0  0
 14 13  1  0  0  0  0
 14  1  1  0  0  0  0
 15 14  2  0  0  0  0
 16 15  1  0  0  0  0
 17 19  2  0  0  0  0
 17 15  1  0  0  0  0
 18 17  1  0  0  0  0
 19 21  1  0  0  0  0
 20 19  1  0  0  0  0
 21 22  1  0  0  0  0
 21 13  2  0  0  0  0
 23 12  1  0  0  0  0
 24 23  1  0  0  0  0
 24  2  1  0  0  0  0
 25 24  2  0  0  0  0
 26 25  1  0  0  0  0
 27 29  2  0  0  0  0
 27 25  1  0  0  0  0
 28 27  1  0  0  0  0
 29 31  1  0  0  0  0
 30 29  1  0  0  0  0
 31 32  1  0  0  0  0
 31 23  2  0  0  0  0
 33 39  1  0  0  0  0
 33  1  1  0  0  0  0
 34 33  1  0  0  0  0
 35 38  1  0  0  0  0
 35 33  1  0  0  0  0
 36 35  1  0  0  0  0
 37 35  1  0  0  0  0
 39 40  1  0  0  0  0
 39 41  1  0  0  0  0
 42 39  1  0  0  0  0
 43 44  1  0  0  0  0
 43 45  1  0  0  0  0
 45 47  1  0  0  0  0
 45 46  1  0  0  0  0
 48 45  1  0  0  0  0
 49 43  1  0  0  0  0
 49 52  1  0  0  0  0
 50 49  1  0  0  0  0
 51 49  1  0  0  0  0
 53 54  1  0  0  0  0
 53 55  1  0  0  0  0
 55 57  1  0  0  0  0
 55 58  1  0  0  0  0
 56 55  1  0  0  0  0
 59 53  1  0  0  0  0
 59 60  1  0  0  0  0
 61 59  1  0  0  0  0
 62 59  1  0  0  0  0
 63 69  1  0  0  0  0
 63  2  1  0  0  0  0
 64 63  1  0  0  0  0
 65 66  1  0  0  0  0
 65 63  1  0  0  0  0
 67 65  1  0  0  0  0
 68 65  1  0  0  0  0
 69 72  1  0  0  0  0
 69 71  1  0  0  0  0
 70 69  1  0  0  0  0
M  END
