1,2,4
 OpenBabel05122313063D

 71 73  0  0  1  0  0  0  0  0999 V2000
    2.2598   -0.9300    0.1301 P   0  0  0  0  0  0  0  0  0  0  0  0
   -2.2598   -0.9300    0.1299 P   0  0  0  0  0  0  0  0  0  0  0  0
    0.0002    3.2284    1.9398 N   0  0  0  0  0  0  0  0  0  0  0  0
    0.0001    1.6043   -0.3964 C   0  0  0  0  0  3  0  0  0  0  0  0
    0.0001    1.2540   -1.4443 H   0  0  0  0  0  0  0  0  0  0  0  0
    1.2270    2.0631    0.1869 C   0  0  2  0  0  3  0  0  0  0  0  0
    1.1470    2.8479    1.3542 C   0  0  0  0  0  0  0  0  0  0  0  0
    2.0836    3.1890    1.8329 H   0  0  0  0  0  0  0  0  0  0  0  0
   -1.1467    2.8479    1.3543 C   0  0  0  0  0  0  0  0  0  0  0  0
   -2.0833    3.1891    1.8330 H   0  0  0  0  0  0  0  0  0  0  0  0
   -1.2268    2.0631    0.1870 C   0  0  0  0  0  0  0  0  0  0  0  0
    2.5483    1.8216   -0.4577 C   0  0  0  0  0  0  0  0  0  0  0  0
    3.1356    0.5302   -0.6005 C   0  0  0  0  0  0  0  0  0  0  0  0
    4.3844    0.4121   -1.2470 C   0  0  0  0  0  0  0  0  0  0  0  0
    4.8426   -0.5805   -1.3688 H   0  0  0  0  0  0  0  0  0  0  0  0
    5.0672    1.5369   -1.7305 C   0  0  0  0  0  0  0  0  0  0  0  0
    6.0408    1.4164   -2.2297 H   0  0  0  0  0  0  0  0  0  0  0  0
    4.5065    2.8112   -1.5630 C   0  0  0  0  0  0  0  0  0  0  0  0
    5.0340    3.7041   -1.9316 H   0  0  0  0  0  0  0  0  0  0  0  0
    3.2621    2.9454   -0.9337 C   0  0  0  0  0  0  0  0  0  0  0  0
    2.8075    3.9409   -0.8178 H   0  0  0  0  0  0  0  0  0  0  0  0
   -2.5482    1.8217   -0.4575 C   0  0  0  0  0  0  0  0  0  0  0  0
   -3.1357    0.5304   -0.6003 C   0  0  0  0  0  0  0  0  0  0  0  0
   -4.3846    0.4125   -1.2465 C   0  0  0  0  0  0  0  0  0  0  0  0
   -4.8431   -0.5801   -1.3683 H   0  0  0  0  0  0  0  0  0  0  0  0
   -5.0674    1.5374   -1.7298 C   0  0  0  0  0  0  0  0  0  0  0  0
   -6.0411    1.4171   -2.2288 H   0  0  0  0  0  0  0  0  0  0  0  0
   -4.5065    2.8117   -1.5624 C   0  0  0  0  0  0  0  0  0  0  0  0
   -5.0340    3.7047   -1.9308 H   0  0  0  0  0  0  0  0  0  0  0  0
   -3.2619    2.9456   -0.9334 C   0  0  0  0  0  0  0  0  0  0  0  0
   -2.8072    3.9411   -0.8174 H   0  0  0  0  0  0  0  0  0  0  0  0
    2.7993   -2.3649   -0.9551 C   0  0  0  0  0  0  0  0  0  0  0  0
    3.9103   -2.3760   -0.9994 H   0  0  0  0  0  0  0  0  0  0  0  0
    2.2371   -2.1645   -2.3666 C   0  0  0  0  0  0  0  0  0  0  0  0
    2.5196   -3.0142   -3.0226 H   0  0  0  0  0  0  0  0  0  0  0  0
    2.6081   -1.2309   -2.8340 H   0  0  0  0  0  0  0  0  0  0  0  0
    1.1289   -2.1062   -2.3313 H   0  0  0  0  0  0  0  0  0  0  0  0
    2.3175   -3.6825   -0.3376 C   0  0  0  0  0  0  0  0  0  0  0  0
    1.2168   -3.6605   -0.1913 H   0  0  0  0  0  0  0  0  0  0  0  0
    2.7861   -3.8865    0.6459 H   0  0  0  0  0  0  0  0  0  0  0  0
    2.5611   -4.5333   -1.0075 H   0  0  0  0  0  0  0  0  0  0  0  0
    3.1677   -1.1981    1.7621 C   0  0  0  0  0  0  0  0  0  0  0  0
    2.6919   -2.1296    2.1415 H   0  0  0  0  0  0  0  0  0  0  0  0
    2.8106   -0.0573    2.7210 C   0  0  0  0  0  0  0  0  0  0  0  0
    3.2041   -0.2665    3.7374 H   0  0  0  0  0  0  0  0  0  0  0  0
    1.7123    0.0838    2.7889 H   0  0  0  0  0  0  0  0  0  0  0  0
    3.2517    0.9023    2.3814 H   0  0  0  0  0  0  0  0  0  0  0  0
    4.6777   -1.4094    1.6472 C   0  0  0  0  0  0  0  0  0  0  0  0
    5.1793   -0.5072    1.2418 H   0  0  0  0  0  0  0  0  0  0  0  0
    4.9402   -2.2694    0.9985 H   0  0  0  0  0  0  0  0  0  0  0  0
    5.1131   -1.6077    2.6495 H   0  0  0  0  0  0  0  0  0  0  0  0
   -2.7997   -2.3646   -0.9555 C   0  0  0  0  0  0  0  0  0  0  0  0
   -3.9107   -2.3756   -0.9996 H   0  0  0  0  0  0  0  0  0  0  0  0
   -2.2377   -2.1641   -2.3670 C   0  0  0  0  0  0  0  0  0  0  0  0
   -1.1295   -2.1061   -2.3319 H   0  0  0  0  0  0  0  0  0  0  0  0
   -2.6085   -1.2303   -2.8341 H   0  0  0  0  0  0  0  0  0  0  0  0
   -2.5205   -3.0135   -3.0231 H   0  0  0  0  0  0  0  0  0  0  0  0
   -2.3181   -3.6825   -0.3382 C   0  0  0  0  0  0  0  0  0  0  0  0
   -2.5617   -4.5331   -1.0083 H   0  0  0  0  0  0  0  0  0  0  0  0
   -2.7867   -3.8867    0.6451 H   0  0  0  0  0  0  0  0  0  0  0  0
   -1.2174   -3.6606   -0.1919 H   0  0  0  0  0  0  0  0  0  0  0  0
   -3.1673   -1.1983    1.7621 C   0  0  0  0  0  0  0  0  0  0  0  0
   -2.6914   -2.1300    2.1411 H   0  0  0  0  0  0  0  0  0  0  0  0
   -2.8098   -0.0578    2.7211 C   0  0  0  0  0  0  0  0  0  0  0  0
   -3.2510    0.9018    2.3820 H   0  0  0  0  0  0  0  0  0  0  0  0
   -1.7115    0.0832    2.7887 H   0  0  0  0  0  0  0  0  0  0  0  0
   -3.2030   -0.2673    3.7376 H   0  0  0  0  0  0  0  0  0  0  0  0
   -4.6773   -1.4096    1.6475 C   0  0  0  0  0  0  0  0  0  0  0  0
   -5.1126   -1.6079    2.6498 H   0  0  0  0  0  0  0  0  0  0  0  0
   -4.9400   -2.2694    0.9987 H   0  0  0  0  0  0  0  0  0  0  0  0
   -5.1789   -0.5072    1.2422 H   0  0  0  0  0  0  0  0  0  0  0  0
  1 42  1  0  0  0  0
  2 62  1  0  0  0  0
  4  6  1  0  0  0  0
  4 11  1  0  0  0  0
  5  4  1  0  0  0  0
  6 12  1  6  0  0  0
  6  7  1  0  0  0  0
  7  8  1  0  0  0  0
  7  3  2  0  0  0  0
  9 10  1  0  0  0  0
  9  3  1  0  0  0  0
 11  9  2  0  0  0  0
 13 12  1  0  0  0  0
 13  1  1  0  0  0  0
 14 13  2  0  0  0  0
 15 14  1  0  0  0  0
 16 18  2  0  0  0  0
 16 14  1  0  0  0  0
 17 16  1  0  0  0  0
 18 20  1  0  0  0  0
 19 18  1  0  0  0  0
 20 21  1  0  0  0  0
 20 12  2  0  0  0  0
 22 11  1  0  0  0  0
 23 22  1  0  0  0  0
 23  2  1  0  0  0  0
 24 23  2  0  0  0  0
 25 24  1  0  0  0  0
 26 28  2  0  0  0  0
 26 24  1  0  0  0  0
 27 26  1  0  0  0  0
 28 30  1  0  0  0  0
 29 28  1  0  0  0  0
 30 31  1  0  0  0  0
 30 22  2  0  0  0  0
 32 38  1  0  0  0  0
 32  1  1  0  0  0  0
 33 32  1  0  0  0  0
 34 37  1  0  0  0  0
 34 32  1  0  0  0  0
 35 34  1  0  0  0  0
 36 34  1  0  0  0  0
 38 39  1  0  0  0  0
 38 40  1  0  0  0  0
 41 38  1  0  0  0  0
 42 43  1  0  0  0  0
 42 44  1  0  0  0  0
 44 46  1  0  0  0  0
 44 45  1  0  0  0  0
 47 44  1  0  0  0  0
 48 42  1  0  0  0  0
 48 51  1  0  0  0  0
 49 48  1  0  0  0  0
 50 48  1  0  0  0  0
 52 58  1  0  0  0  0
 52  2  1  0  0  0  0
 53 52  1  0  0  0  0
 54 55  1  0  0  0  0
 54 52  1  0  0  0  0
 56 54  1  0  0  0  0
 57 54  1  0  0  0  0
 58 61  1  0  0  0  0
 58 60  1  0  0  0  0
 59 58  1  0  0  0  0
 62 63  1  0  0  0  0
 62 64  1  0  0  0  0
 64 66  1  0  0  0  0
 64 67  1  0  0  0  0
 65 64  1  0  0  0  0
 68 62  1  0  0  0  0
 68 69  1  0  0  0  0
 70 68  1  0  0  0  0
 71 68  1  0  0  0  0
M  END
