1,2,6
 OpenBabel05122313063D

 73 73  0  0  0  0  0  0  0  0999 V2000
    2.2739   -0.4850   -0.0455 P   0  0  0  0  0  0  0  0  0  0  0  0
   -2.2738   -0.4854   -0.0455 P   0  0  0  0  0  0  0  0  0  0  0  0
    2.4073    1.2191   -0.0554 O   0  0  0  0  0  0  0  0  0  0  0  0
   -2.4075    1.2187   -0.0561 O   0  0  0  0  0  0  0  0  0  0  0  0
   -0.0006    5.4141    0.0914 N   0  0  0  0  0  0  0  0  0  0  0  0
   -0.0001    1.1551   -0.0298 C   0  0  0  0  0  3  0  0  0  0  0  0
    1.1981    1.9020   -0.0224 C   0  0  0  0  0  0  0  0  0  0  0  0
    1.2257    3.3011    0.0137 C   0  0  0  0  0  0  0  0  0  0  0  0
    2.1988    3.8045    0.0219 H   0  0  0  0  0  0  0  0  0  0  0  0
   -0.0004    4.0253    0.0396 C   0  0  0  0  0  0  0  0  0  0  0  0
   -1.2263    3.3008    0.0134 C   0  0  0  0  0  0  0  0  0  0  0  0
   -2.1995    3.8041    0.0214 H   0  0  0  0  0  0  0  0  0  0  0  0
   -1.1985    1.9018   -0.0227 C   0  0  0  0  0  0  0  0  0  0  0  0
    1.2498    6.1352    0.0183 C   0  0  0  0  0  0  0  0  0  0  0  0
    1.0536    7.2201    0.1003 H   0  0  0  0  0  0  0  0  0  0  0  0
    1.9372    5.8549    0.8477 H   0  0  0  0  0  0  0  0  0  0  0  0
    1.7978    5.9565   -0.9376 H   0  0  0  0  0  0  0  0  0  0  0  0
   -1.2513    6.1347    0.0177 C   0  0  0  0  0  0  0  0  0  0  0  0
   -1.0557    7.2196    0.0995 H   0  0  0  0  0  0  0  0  0  0  0  0
   -1.7989    5.9554   -0.9384 H   0  0  0  0  0  0  0  0  0  0  0  0
   -1.9390    5.8542    0.8469 H   0  0  0  0  0  0  0  0  0  0  0  0
    3.3029   -0.9318   -1.5636 C   0  0  0  0  0  0  0  0  0  0  0  0
    3.1689   -2.4486   -1.7973 C   0  0  0  0  0  0  0  0  0  0  0  0
    2.1130   -2.7832   -1.7395 H   0  0  0  0  0  0  0  0  0  0  0  0
    3.5652   -2.6967   -2.8045 H   0  0  0  0  0  0  0  0  0  0  0  0
    3.7437   -3.0373   -1.0579 H   0  0  0  0  0  0  0  0  0  0  0  0
    2.6510   -0.1699   -2.7352 C   0  0  0  0  0  0  0  0  0  0  0  0
    1.5957   -0.4736   -2.8809 H   0  0  0  0  0  0  0  0  0  0  0  0
    2.6782    0.9258   -2.5786 H   0  0  0  0  0  0  0  0  0  0  0  0
    3.2051   -0.4058   -3.6678 H   0  0  0  0  0  0  0  0  0  0  0  0
    4.7734   -0.5074   -1.4398 C   0  0  0  0  0  0  0  0  0  0  0  0
    5.3148   -1.1004   -0.6778 H   0  0  0  0  0  0  0  0  0  0  0  0
    5.2844   -0.6753   -2.4117 H   0  0  0  0  0  0  0  0  0  0  0  0
    4.8675    0.5673   -1.1877 H   0  0  0  0  0  0  0  0  0  0  0  0
   -3.3029   -0.9329   -1.5633 C   0  0  0  0  0  0  0  0  0  0  0  0
   -4.7733   -0.5085   -1.4395 C   0  0  0  0  0  0  0  0  0  0  0  0
   -4.8675    0.5663   -1.1879 H   0  0  0  0  0  0  0  0  0  0  0  0
   -5.2845   -0.6769   -2.4113 H   0  0  0  0  0  0  0  0  0  0  0  0
   -5.3147   -1.1012   -0.6771 H   0  0  0  0  0  0  0  0  0  0  0  0
   -3.1690   -2.4499   -1.7961 C   0  0  0  0  0  0  0  0  0  0  0  0
   -2.1130   -2.7844   -1.7383 H   0  0  0  0  0  0  0  0  0  0  0  0
   -3.7436   -3.0382   -1.0563 H   0  0  0  0  0  0  0  0  0  0  0  0
   -3.5654   -2.6986   -2.8032 H   0  0  0  0  0  0  0  0  0  0  0  0
   -2.6511   -0.1716   -2.7354 C   0  0  0  0  0  0  0  0  0  0  0  0
   -1.5959   -0.4755   -2.8811 H   0  0  0  0  0  0  0  0  0  0  0  0
   -3.2054   -0.4081   -3.6678 H   0  0  0  0  0  0  0  0  0  0  0  0
   -2.6783    0.9241   -2.5794 H   0  0  0  0  0  0  0  0  0  0  0  0
   -3.1138   -0.8832    1.6020 C   0  0  0  0  0  0  0  0  0  0  0  0
   -2.0196   -0.5832    2.6499 C   0  0  0  0  0  0  0  0  0  0  0  0
   -1.6532    0.4611    2.5845 H   0  0  0  0  0  0  0  0  0  0  0  0
   -2.4351   -0.7397    3.6679 H   0  0  0  0  0  0  0  0  0  0  0  0
   -1.1558   -1.2693    2.5313 H   0  0  0  0  0  0  0  0  0  0  0  0
   -3.4556   -2.3819    1.6392 C   0  0  0  0  0  0  0  0  0  0  0  0
   -2.5881   -3.0046    1.3334 H   0  0  0  0  0  0  0  0  0  0  0  0
   -3.7317   -2.6654    2.6771 H   0  0  0  0  0  0  0  0  0  0  0  0
   -4.3196   -2.6262    0.9903 H   0  0  0  0  0  0  0  0  0  0  0  0
   -4.3397   -0.0027    1.8849 C   0  0  0  0  0  0  0  0  0  0  0  0
   -4.0921    1.0718    1.7869 H   0  0  0  0  0  0  0  0  0  0  0  0
   -5.1872   -0.2260    1.2117 H   0  0  0  0  0  0  0  0  0  0  0  0
   -4.6826   -0.1867    2.9254 H   0  0  0  0  0  0  0  0  0  0  0  0
    3.1142   -0.8831    1.6019 C   0  0  0  0  0  0  0  0  0  0  0  0
    3.4562   -2.3819    1.6387 C   0  0  0  0  0  0  0  0  0  0  0  0
    2.5887   -3.0046    1.3329 H   0  0  0  0  0  0  0  0  0  0  0  0
    4.3202   -2.6259    0.9897 H   0  0  0  0  0  0  0  0  0  0  0  0
    3.7324   -2.6655    2.6766 H   0  0  0  0  0  0  0  0  0  0  0  0
    2.0200   -0.5835    2.6499 C   0  0  0  0  0  0  0  0  0  0  0  0
    1.1565   -1.2699    2.5313 H   0  0  0  0  0  0  0  0  0  0  0  0
    2.4357   -0.7401    3.6678 H   0  0  0  0  0  0  0  0  0  0  0  0
    1.6534    0.4606    2.5847 H   0  0  0  0  0  0  0  0  0  0  0  0
    4.3400   -0.0025    1.8849 C   0  0  0  0  0  0  0  0  0  0  0  0
    4.0922    1.0720    1.7873 H   0  0  0  0  0  0  0  0  0  0  0  0
    4.6831   -0.1869    2.9253 H   0  0  0  0  0  0  0  0  0  0  0  0
    5.1875   -0.2256    1.2116 H   0  0  0  0  0  0  0  0  0  0  0  0
  1 61  1  0  0  0  0
  2 48  1  0  0  0  0
  3  1  1  0  0  0  0
  3  7  1  0  0  0  0
  4  2  1  0  0  0  0
  4 13  1  0  0  0  0
  6 13  2  0  0  0  0
  6  7  1  0  0  0  0
  7  8  2  0  0  0  0
  8  9  1  0  0  0  0
  8 10  1  0  0  0  0
 10  5  1  0  0  0  0
 11 12  1  0  0  0  0
 11 10  2  0  0  0  0
 13 11  1  0  0  0  0
 14  5  1  0  0  0  0
 14 15  1  0  0  0  0
 14 16  1  0  0  0  0
 17 14  1  0  0  0  0
 18  5  1  0  0  0  0
 18 19  1  0  0  0  0
 18 21  1  0  0  0  0
 20 18  1  0  0  0  0
 22 31  1  0  0  0  0
 22  1  1  0  0  0  0
 23 24  1  0  0  0  0
 23 22  1  0  0  0  0
 23 26  1  0  0  0  0
 25 23  1  0  0  0  0
 27 29  1  0  0  0  0
 27 22  1  0  0  0  0
 28 27  1  0  0  0  0
 30 27  1  0  0  0  0
 31 34  1  0  0  0  0
 31 32  1  0  0  0  0
 33 31  1  0  0  0  0
 35 36  1  0  0  0  0
 35  2  1  0  0  0  0
 36 37  1  0  0  0  0
 36 39  1  0  0  0  0
 38 36  1  0  0  0  0
 40 41  1  0  0  0  0
 40 35  1  0  0  0  0
 40 42  1  0  0  0  0
 43 40  1  0  0  0  0
 44 47  1  0  0  0  0
 44 35  1  0  0  0  0
 45 44  1  0  0  0  0
 46 44  1  0  0  0  0
 48 53  1  0  0  0  0
 48 57  1  0  0  0  0
 48 49  1  0  0  0  0
 49 51  1  0  0  0  0
 50 49  1  0  0  0  0
 52 49  1  0  0  0  0
 53 55  1  0  0  0  0
 54 53  1  0  0  0  0
 56 53  1  0  0  0  0
 57 60  1  0  0  0  0
 58 57  1  0  0  0  0
 59 57  1  0  0  0  0
 61 62  1  0  0  0  0
 61 70  1  0  0  0  0
 61 66  1  0  0  0  0
 62 65  1  0  0  0  0
 63 62  1  0  0  0  0
 64 62  1  0  0  0  0
 66 68  1  0  0  0  0
 67 66  1  0  0  0  0
 69 66  1  0  0  0  0
 70 72  1  0  0  0  0
 71 70  1  0  0  0  0
 73 70  1  0  0  0  0
M  END
