2,32,55
 OpenBabel05122313063D

 77 82  0  0  0  0  0  0  0  0999 V2000
   -2.5718    0.5190   -1.2761 N   0  0  0  0  0  0  0  0  0  0  0  0
   -1.5622   -0.4157   -1.1451 C   0  0  0  0  0  2  0  0  0  0  0  0
   -2.1633   -1.4813   -0.5034 N   0  0  0  0  0  0  0  0  0  0  0  0
   -3.4968   -1.2109   -0.1938 C   0  0  0  0  0  0  0  0  0  0  0  0
   -4.4921   -1.9376    0.4731 C   0  0  0  0  0  0  0  0  0  0  0  0
   -4.2954   -2.9443    0.8701 H   0  0  0  0  0  0  0  0  0  0  0  0
   -5.7639   -1.3568    0.6363 C   0  0  0  0  0  0  0  0  0  0  0  0
   -6.0299   -0.0463    0.1292 C   0  0  0  0  0  0  0  0  0  0  0  0
   -5.0218    0.6741   -0.5381 C   0  0  0  0  0  0  0  0  0  0  0  0
   -5.2295    1.6840   -0.9210 H   0  0  0  0  0  0  0  0  0  0  0  0
   -3.7614    0.0835   -0.6955 C   0  0  0  0  0  0  0  0  0  0  0  0
   -6.8496   -2.1200    1.3519 C   0  0  0  0  0  0  0  0  0  0  0  0
   -7.7346   -2.2819    0.7004 H   0  0  0  0  0  0  0  0  0  0  0  0
   -7.2182   -1.5719    2.2450 H   0  0  0  0  0  0  0  0  0  0  0  0
   -6.4937   -3.1125    1.6881 H   0  0  0  0  0  0  0  0  0  0  0  0
   -7.3945    0.5679    0.3124 C   0  0  0  0  0  0  0  0  0  0  0  0
   -7.4456    1.5814   -0.1289 H   0  0  0  0  0  0  0  0  0  0  0  0
   -7.6673    0.6523    1.3859 H   0  0  0  0  0  0  0  0  0  0  0  0
   -8.1884   -0.0472   -0.1621 H   0  0  0  0  0  0  0  0  0  0  0  0
   -2.3410    1.8445   -1.8315 C   0  0  0  0  0  0  0  0  0  0  0  0
   -3.3269    2.3135   -2.0184 H   0  0  0  0  0  0  0  0  0  0  0  0
   -1.8424    1.7178   -2.8097 H   0  0  0  0  0  0  0  0  0  0  0  0
   -1.4939    2.7383   -0.9189 C   0  0  0  0  0  0  0  0  0  0  0  0
   -2.0708    3.0621   -0.0294 H   0  0  0  0  0  0  0  0  0  0  0  0
   -1.2075    3.6479   -1.4829 H   0  0  0  0  0  0  0  0  0  0  0  0
   -1.4505   -2.6735   -0.0597 C   0  0  0  0  0  0  0  0  0  0  0  0
   -0.9354   -3.1245   -0.9323 H   0  0  0  0  0  0  0  0  0  0  0  0
   -2.2089   -3.4022    0.2844 H   0  0  0  0  0  0  0  0  0  0  0  0
   -0.4547   -2.3603    1.0663 C   0  0  0  0  0  0  0  0  0  0  0  0
   -0.1972   -3.2862    1.6174 H   0  0  0  0  0  0  0  0  0  0  0  0
   -0.9113   -1.6436    1.7791 H   0  0  0  0  0  0  0  0  0  0  0  0
    0.1249    1.9405   -0.3362 P   0  0  0  0  0  0  0  0  0  0  0  0
    1.2522    3.4058   -0.3880 C   0  0  0  0  0  0  0  0  0  0  0  0
    0.9081    4.6164    0.2535 C   0  0  0  0  0  0  0  0  0  0  0  0
   -0.0294    4.6893    0.8268 H   0  0  0  0  0  0  0  0  0  0  0  0
    1.7636    5.7237    0.1797 C   0  0  0  0  0  0  0  0  0  0  0  0
    1.4881    6.6629    0.6838 H   0  0  0  0  0  0  0  0  0  0  0  0
    2.9717    5.6342   -0.5339 C   0  0  0  0  0  0  0  0  0  0  0  0
    3.6432    6.5046   -0.5904 H   0  0  0  0  0  0  0  0  0  0  0  0
    3.3177    4.4350   -1.1733 C   0  0  0  0  0  0  0  0  0  0  0  0
    4.2604    4.3581   -1.7359 H   0  0  0  0  0  0  0  0  0  0  0  0
    2.4603    3.3241   -1.1030 C   0  0  0  0  0  0  0  0  0  0  0  0
    2.7234    2.3839   -1.6076 H   0  0  0  0  0  0  0  0  0  0  0  0
   -0.2111    1.7893    1.4830 C   0  0  0  0  0  0  0  0  0  0  0  0
    0.7327    2.2049    2.4440 C   0  0  0  0  0  0  0  0  0  0  0  0
    1.6726    2.6744    2.1221 H   0  0  0  0  0  0  0  0  0  0  0  0
    0.4831    2.0244    3.8125 C   0  0  0  0  0  0  0  0  0  0  0  0
    1.2337    2.3550    4.5456 H   0  0  0  0  0  0  0  0  0  0  0  0
   -0.7056    1.4172    4.2447 C   0  0  0  0  0  0  0  0  0  0  0  0
   -0.8977    1.2765    5.3193 H   0  0  0  0  0  0  0  0  0  0  0  0
   -1.6470    0.9895    3.2955 C   0  0  0  0  0  0  0  0  0  0  0  0
   -2.5871    0.5153    3.6174 H   0  0  0  0  0  0  0  0  0  0  0  0
   -1.4027    1.1750    1.9263 C   0  0  0  0  0  0  0  0  0  0  0  0
   -2.1625    0.8453    1.2040 H   0  0  0  0  0  0  0  0  0  0  0  0
    1.0815   -1.5783    0.3415 P   0  0  0  0  0  0  0  0  0  0  0  0
    1.9487   -0.8707    1.8141 C   0  0  0  0  0  0  0  0  0  0  0  0
    3.0582   -0.0356    1.5639 C   0  0  0  0  0  0  0  0  0  0  0  0
    3.3225    0.2180    0.5264 H   0  0  0  0  0  0  0  0  0  0  0  0
    3.8214    0.4683    2.6259 C   0  0  0  0  0  0  0  0  0  0  0  0
    4.6870    1.1144    2.4143 H   0  0  0  0  0  0  0  0  0  0  0  0
    3.4812    0.1534    3.9519 C   0  0  0  0  0  0  0  0  0  0  0  0
    4.0800    0.5494    4.7863 H   0  0  0  0  0  0  0  0  0  0  0  0
    2.3692   -0.6622    4.2081 C   0  0  0  0  0  0  0  0  0  0  0  0
    2.0859   -0.9009    5.2447 H   0  0  0  0  0  0  0  0  0  0  0  0
    1.6064   -1.1736    3.1459 C   0  0  0  0  0  0  0  0  0  0  0  0
    0.7347   -1.8050    3.3711 H   0  0  0  0  0  0  0  0  0  0  0  0
    2.1510   -3.0825    0.0786 C   0  0  0  0  0  0  0  0  0  0  0  0
    2.7473   -3.3272   -1.1714 C   0  0  0  0  0  0  0  0  0  0  0  0
    2.5732   -2.6236   -1.9962 H   0  0  0  0  0  0  0  0  0  0  0  0
    3.5610   -4.4562   -1.3619 C   0  0  0  0  0  0  0  0  0  0  0  0
    4.0185   -4.6333   -2.3470 H   0  0  0  0  0  0  0  0  0  0  0  0
    3.7890   -5.3497   -0.3061 C   0  0  0  0  0  0  0  0  0  0  0  0
    4.4261   -6.2346   -0.4568 H   0  0  0  0  0  0  0  0  0  0  0  0
    3.2079   -5.1057    0.9502 C   0  0  0  0  0  0  0  0  0  0  0  0
    3.3927   -5.7947    1.7887 H   0  0  0  0  0  0  0  0  0  0  0  0
    2.3997   -3.9774    1.1419 C   0  0  0  0  0  0  0  0  0  0  0  0
    1.9770   -3.7833    2.1403 H   0  0  0  0  0  0  0  0  0  0  0  0
  1  2  1  0  0  0  0
  1 11  1  0  0  0  0
  2  3  1  0  0  0  0
  3  4  1  0  0  0  0
  3 26  1  0  0  0  0
  4  5  1  0  0  0  0
  5  7  2  0  0  0  0
  5  6  1  0  0  0  0
  7 12  1  0  0  0  0
  8 16  1  0  0  0  0
  8  7  1  0  0  0  0
  9  8  2  0  0  0  0
 10  9  1  0  0  0  0
 11  9  1  0  0  0  0
 11  4  2  0  0  0  0
 12 15  1  0  0  0  0
 12 14  1  0  0  0  0
 13 12  1  0  0  0  0
 16 18  1  0  0  0  0
 17 16  1  0  0  0  0
 19 16  1  0  0  0  0
 20  1  1  0  0  0  0
 20 23  1  0  0  0  0
 21 20  1  0  0  0  0
 22 20  1  0  0  0  0
 23 32  1  0  0  0  0
 23 24  1  0  0  0  0
 25 23  1  0  0  0  0
 26 28  1  0  0  0  0
 26 29  1  0  0  0  0
 27 26  1  0  0  0  0
 29 30  1  0  0  0  0
 29 31  1  0  0  0  0
 32 44  1  0  0  0  0
 33 32  1  0  0  0  0
 33 34  1  0  0  0  0
 34 35  1  0  0  0  0
 36 34  2  0  0  0  0
 36 37  1  0  0  0  0
 38 36  1  0  0  0  0
 39 38  1  0  0  0  0
 40 42  1  0  0  0  0
 40 38  2  0  0  0  0
 41 40  1  0  0  0  0
 42 33  2  0  0  0  0
 43 42  1  0  0  0  0
 44 53  2  0  0  0  0
 44 45  1  0  0  0  0
 45 47  2  0  0  0  0
 46 45  1  0  0  0  0
 47 49  1  0  0  0  0
 47 48  1  0  0  0  0
 49 50  1  0  0  0  0
 51 52  1  0  0  0  0
 51 49  2  0  0  0  0
 53 51  1  0  0  0  0
 54 53  1  0  0  0  0
 55 29  1  0  0  0  0
 55 56  1  0  0  0  0
 56 65  1  0  0  0  0
 57 56  2  0  0  0  0
 57 59  1  0  0  0  0
 58 57  1  0  0  0  0
 59 61  2  0  0  0  0
 60 59  1  0  0  0  0
 61 63  1  0  0  0  0
 61 62  1  0  0  0  0
 63 64  1  0  0  0  0
 65 66  1  0  0  0  0
 65 63  2  0  0  0  0
 67 55  1  0  0  0  0
 67 76  1  0  0  0  0
 68 67  2  0  0  0  0
 69 68  1  0  0  0  0
 70 68  1  0  0  0  0
 70 72  2  0  0  0  0
 71 70  1  0  0  0  0
 72 74  1  0  0  0  0
 73 72  1  0  0  0  0
 74 76  2  0  0  0  0
 74 75  1  0  0  0  0
 76 77  1  0  0  0  0
M  END
