1,2,4
 OpenBabel05122313063D

 73 73  0  0  1  0  0  0  0  0999 V2000
    2.3294   -0.1230   -0.0648 P   0  0  0  0  0  0  0  0  0  0  0  0
   -2.3294   -0.1231   -0.0648 P   0  0  0  0  0  0  0  0  0  0  0  0
    1.2310    2.1669   -1.1329 C   0  0  1  0  0  3  0  0  0  0  0  0
   -0.0000    1.4743   -1.3802 C   0  0  1  0  0  3  0  0  0  0  0  0
   -1.2311    2.1669   -1.1329 C   0  0  0  0  0  0  0  0  0  0  0  0
   -1.2189    3.5362   -0.8211 C   0  0  0  0  0  0  0  0  0  0  0  0
   -0.0001    4.2206   -0.6972 C   0  0  0  0  0  0  0  0  0  0  0  0
    1.2188    3.5363   -0.8211 C   0  0  0  0  0  0  0  0  0  0  0  0
    2.5226    1.3806   -1.1729 C   0  0  0  0  0  0  0  0  0  0  0  0
    3.5095   -1.4395   -0.8148 C   0  0  0  0  0  0  0  0  0  0  0  0
    3.7724   -2.5481    0.2198 C   0  0  0  0  0  0  0  0  0  0  0  0
    2.7688   -2.0714   -2.0082 C   0  0  0  0  0  0  0  0  0  0  0  0
    4.8344   -0.8424   -1.3214 C   0  0  0  0  0  0  0  0  0  0  0  0
    3.0003    0.4602    1.6419 C   0  0  0  0  0  0  0  0  0  0  0  0
    4.5245    0.6556    1.6684 C   0  0  0  0  0  0  0  0  0  0  0  0
    2.3354    1.8116    1.9657 C   0  0  0  0  0  0  0  0  0  0  0  0
    2.5729   -0.5540    2.7189 C   0  0  0  0  0  0  0  0  0  0  0  0
   -2.5226    1.3805   -1.1730 C   0  0  0  0  0  0  0  0  0  0  0  0
   -3.5095   -1.4396   -0.8148 C   0  0  0  0  0  0  0  0  0  0  0  0
   -3.7724   -2.5482    0.2198 C   0  0  0  0  0  0  0  0  0  0  0  0
   -4.8344   -0.8426   -1.3214 C   0  0  0  0  0  0  0  0  0  0  0  0
   -2.7688   -2.0716   -2.0081 C   0  0  0  0  0  0  0  0  0  0  0  0
   -3.0002    0.4603    1.6419 C   0  0  0  0  0  0  0  0  0  0  0  0
   -4.5245    0.6557    1.6685 C   0  0  0  0  0  0  0  0  0  0  0  0
   -2.5727   -0.5537    2.7190 C   0  0  0  0  0  0  0  0  0  0  0  0
   -2.3353    1.8118    1.9654 C   0  0  0  0  0  0  0  0  0  0  0  0
   -0.0000    0.1661   -2.4045 B   0  0  0  0  0  0  0  0  0  0  0  0
   -0.0000   -1.0364   -1.8490 H   0  0  0  0  0  0  0  0  0  0  0  0
   -1.0149    0.1743   -3.0965 H   0  0  0  0  0  0  0  0  0  0  0  0
    1.0149    0.1743   -3.0965 H   0  0  0  0  0  0  0  0  0  0  0  0
   -2.1671    4.0727   -0.6596 H   0  0  0  0  0  0  0  0  0  0  0  0
   -0.0001    5.2968   -0.4639 H   0  0  0  0  0  0  0  0  0  0  0  0
    2.1669    4.0728   -0.6595 H   0  0  0  0  0  0  0  0  0  0  0  0
    3.4052    1.9934   -0.9048 H   0  0  0  0  0  0  0  0  0  0  0  0
    2.6741    0.9820   -2.1978 H   0  0  0  0  0  0  0  0  0  0  0  0
    4.4043   -2.2094    1.0628 H   0  0  0  0  0  0  0  0  0  0  0  0
    4.3086   -3.3836   -0.2785 H   0  0  0  0  0  0  0  0  0  0  0  0
    2.8278   -2.9585    0.6294 H   0  0  0  0  0  0  0  0  0  0  0  0
    2.5034   -1.3292   -2.7846 H   0  0  0  0  0  0  0  0  0  0  0  0
    1.8301   -2.5610   -1.6879 H   0  0  0  0  0  0  0  0  0  0  0  0
    3.4279   -2.8368   -2.4702 H   0  0  0  0  0  0  0  0  0  0  0  0
    5.4410   -0.3822   -0.5216 H   0  0  0  0  0  0  0  0  0  0  0  0
    4.6698   -0.0841   -2.1120 H   0  0  0  0  0  0  0  0  0  0  0  0
    5.4436   -1.6540   -1.7741 H   0  0  0  0  0  0  0  0  0  0  0  0
    5.0799   -0.2957    1.5663 H   0  0  0  0  0  0  0  0  0  0  0  0
    4.8130    1.0988    2.6454 H   0  0  0  0  0  0  0  0  0  0  0  0
    4.8734    1.3521    0.8793 H   0  0  0  0  0  0  0  0  0  0  0  0
    1.2340    1.7599    1.8653 H   0  0  0  0  0  0  0  0  0  0  0  0
    2.7035    2.6292    1.3177 H   0  0  0  0  0  0  0  0  0  0  0  0
    2.5771    2.0832    3.0150 H   0  0  0  0  0  0  0  0  0  0  0  0
    1.4715   -0.6586    2.7420 H   0  0  0  0  0  0  0  0  0  0  0  0
    2.9093   -0.1891    3.7126 H   0  0  0  0  0  0  0  0  0  0  0  0
    3.0088   -1.5578    2.5650 H   0  0  0  0  0  0  0  0  0  0  0  0
   -2.6741    0.9818   -2.1979 H   0  0  0  0  0  0  0  0  0  0  0  0
   -3.4053    1.9933   -0.9049 H   0  0  0  0  0  0  0  0  0  0  0  0
   -2.8279   -2.9586    0.6296 H   0  0  0  0  0  0  0  0  0  0  0  0
   -4.3086   -3.3837   -0.2784 H   0  0  0  0  0  0  0  0  0  0  0  0
   -4.4044   -2.2095    1.0628 H   0  0  0  0  0  0  0  0  0  0  0  0
   -4.6697   -0.0843   -2.1120 H   0  0  0  0  0  0  0  0  0  0  0  0
   -5.4410   -0.3823   -0.5217 H   0  0  0  0  0  0  0  0  0  0  0  0
   -5.4435   -1.6542   -1.7742 H   0  0  0  0  0  0  0  0  0  0  0  0
   -1.8300   -2.5612   -1.6877 H   0  0  0  0  0  0  0  0  0  0  0  0
   -2.5034   -1.3294   -2.7845 H   0  0  0  0  0  0  0  0  0  0  0  0
   -3.4278   -2.8370   -2.4701 H   0  0  0  0  0  0  0  0  0  0  0  0
   -5.0798   -0.2955    1.5666 H   0  0  0  0  0  0  0  0  0  0  0  0
   -4.8733    1.3521    0.8793 H   0  0  0  0  0  0  0  0  0  0  0  0
   -4.8128    1.0991    2.6455 H   0  0  0  0  0  0  0  0  0  0  0  0
   -3.0087   -1.5575    2.5653 H   0  0  0  0  0  0  0  0  0  0  0  0
   -2.9090   -0.1887    3.7127 H   0  0  0  0  0  0  0  0  0  0  0  0
   -1.4713   -0.6583    2.7421 H   0  0  0  0  0  0  0  0  0  0  0  0
   -2.7034    2.6293    1.3174 H   0  0  0  0  0  0  0  0  0  0  0  0
   -1.2339    1.7601    1.8651 H   0  0  0  0  0  0  0  0  0  0  0  0
   -2.5770    2.0836    3.0148 H   0  0  0  0  0  0  0  0  0  0  0  0
  1 14  1  0  0  0  0
  2 23  1  0  0  0  0
  3  9  1  1  0  0  0
  3  8  1  0  0  0  0
  4 27  1  6  0  0  0
  4  5  1  0  0  0  0
  4  3  1  0  0  0  0
  5  6  2  0  0  0  0
  6  7  1  0  0  0  0
  6 31  1  0  0  0  0
  7 32  1  0  0  0  0
  8  7  2  0  0  0  0
  8 33  1  0  0  0  0
  9 34  1  0  0  0  0
  9  1  1  0  0  0  0
 10  1  1  0  0  0  0
 10 11  1  0  0  0  0
 11 38  1  0  0  0  0
 11 36  1  0  0  0  0
 12 40  1  0  0  0  0
 12 10  1  0  0  0  0
 13 10  1  0  0  0  0
 13 42  1  0  0  0  0
 14 15  1  0  0  0  0
 14 16  1  0  0  0  0
 14 17  1  0  0  0  0
 15 46  1  0  0  0  0
 16 50  1  0  0  0  0
 17 51  1  0  0  0  0
 17 52  1  0  0  0  0
 18  5  1  0  0  0  0
 18 55  1  0  0  0  0
 18  2  1  0  0  0  0
 19  2  1  0  0  0  0
 19 20  1  0  0  0  0
 20 56  1  0  0  0  0
 20 58  1  0  0  0  0
 21 19  1  0  0  0  0
 21 60  1  0  0  0  0
 22 62  1  0  0  0  0
 22 19  1  0  0  0  0
 23 24  1  0  0  0  0
 23 26  1  0  0  0  0
 23 25  1  0  0  0  0
 24 67  1  0  0  0  0
 25 70  1  0  0  0  0
 25 69  1  0  0  0  0
 26 73  1  0  0  0  0
 27 28  1  0  0  0  0
 29 27  1  0  0  0  0
 30 27  1  0  0  0  0
 35  9  1  0  0  0  0
 37 11  1  0  0  0  0
 39 12  1  0  0  0  0
 41 12  1  0  0  0  0
 43 13  1  0  0  0  0
 44 13  1  0  0  0  0
 45 15  1  0  0  0  0
 47 15  1  0  0  0  0
 48 16  1  0  0  0  0
 49 16  1  0  0  0  0
 53 17  1  0  0  0  0
 54 18  1  0  0  0  0
 57 20  1  0  0  0  0
 59 21  1  0  0  0  0
 61 21  1  0  0  0  0
 63 22  1  0  0  0  0
 64 22  1  0  0  0  0
 65 24  1  0  0  0  0
 66 24  1  0  0  0  0
 68 25  1  0  0  0  0
 71 26  1  0  0  0  0
 72 26  1  0  0  0  0
M  END
