1,2,9
 OpenBabel05122313063D

 68 73  0  0  0  0  0  0  0  0999 V2000
    1.7846   -0.0854   -0.1068 P   0  0  0  0  0  0  0  0  0  0  0  0
   -1.5844    0.4766    0.0889 P   0  0  0  0  0  0  0  0  0  0  0  0
    2.4459   -0.9850    1.3538 C   0  0  0  0  0  0  0  0  0  0  0  0
    3.7980   -1.0663    1.7170 C   0  0  0  0  0  0  0  0  0  0  0  0
    4.1808   -1.8998    2.7797 C   0  0  0  0  0  0  0  0  0  0  0  0
    3.2110   -2.6579    3.4540 C   0  0  0  0  0  0  0  0  0  0  0  0
    1.8581   -2.5650    3.0893 C   0  0  0  0  0  0  0  0  0  0  0  0
    1.4507   -1.7117    2.0462 C   0  0  0  0  0  0  0  0  0  0  0  0
    0.0016   -1.5297    1.6400 C   0  0  0  0  0  3  0  0  0  0  0  0
   -0.7108   -0.4784    2.4968 C   0  0  0  0  0  0  0  0  0  0  0  0
   -0.5808   -0.4736    3.9048 C   0  0  0  0  0  0  0  0  0  0  0  0
   -1.3036    0.4210    4.7039 C   0  0  0  0  0  0  0  0  0  0  0  0
   -2.2005    1.3307    4.1187 C   0  0  0  0  0  0  0  0  0  0  0  0
   -2.3342    1.3593    2.7257 C   0  0  0  0  0  0  0  0  0  0  0  0
   -1.5689    0.4894    1.9178 C   0  0  0  0  0  0  0  0  0  0  0  0
    1.7544    1.6766    0.4280 C   0  0  0  0  0  0  0  0  0  0  0  0
    1.6254    2.0039    1.7925 C   0  0  0  0  0  0  0  0  0  0  0  0
    1.6012    3.3483    2.1956 C   0  0  0  0  0  0  0  0  0  0  0  0
    1.7150    4.3716    1.2431 C   0  0  0  0  0  0  0  0  0  0  0  0
    1.8337    4.0496   -0.1191 C   0  0  0  0  0  0  0  0  0  0  0  0
    1.8439    2.7103   -0.5285 C   0  0  0  0  0  0  0  0  0  0  0  0
    3.0898   -0.0897   -1.3982 C   0  0  0  0  0  0  0  0  0  0  0  0
    4.2438    0.7071   -1.2207 C   0  0  0  0  0  0  0  0  0  0  0  0
    5.2735    0.6753   -2.1718 C   0  0  0  0  0  0  0  0  0  0  0  0
    5.1524   -0.1394   -3.3093 C   0  0  0  0  0  0  0  0  0  0  0  0
    4.0005   -0.9196   -3.4911 C   0  0  0  0  0  0  0  0  0  0  0  0
    2.9679   -0.9036   -2.5407 C   0  0  0  0  0  0  0  0  0  0  0  0
   -3.3290    0.0981   -0.3965 C   0  0  0  0  0  0  0  0  0  0  0  0
   -3.6396    0.0199   -1.7716 C   0  0  0  0  0  0  0  0  0  0  0  0
   -4.9323   -0.3378   -2.1790 C   0  0  0  0  0  0  0  0  0  0  0  0
   -5.9246   -0.6305   -1.2267 C   0  0  0  0  0  0  0  0  0  0  0  0
   -5.6101   -0.5800    0.1402 C   0  0  0  0  0  0  0  0  0  0  0  0
   -4.3164   -0.2215    0.5558 C   0  0  0  0  0  0  0  0  0  0  0  0
   -1.3631    2.1965   -0.5428 C   0  0  0  0  0  0  0  0  0  0  0  0
   -1.1145    2.3472   -1.9253 C   0  0  0  0  0  0  0  0  0  0  0  0
   -1.0454    3.6296   -2.4880 C   0  0  0  0  0  0  0  0  0  0  0  0
   -1.2086    4.7693   -1.6851 C   0  0  0  0  0  0  0  0  0  0  0  0
   -1.4126    4.6200   -0.3054 C   0  0  0  0  0  0  0  0  0  0  0  0
   -1.4865    3.3416    0.2676 C   0  0  0  0  0  0  0  0  0  0  0  0
    4.5598   -0.5153    1.1461 H   0  0  0  0  0  0  0  0  0  0  0  0
    5.2421   -1.9820    3.0584 H   0  0  0  0  0  0  0  0  0  0  0  0
    3.5125   -3.3413    4.2628 H   0  0  0  0  0  0  0  0  0  0  0  0
    1.1073   -3.1852    3.6040 H   0  0  0  0  0  0  0  0  0  0  0  0
   -0.5333   -2.4907    1.8002 H   0  0  0  0  0  0  0  0  0  0  0  0
    0.1036   -1.1903    4.3812 H   0  0  0  0  0  0  0  0  0  0  0  0
   -1.1779    0.3976    5.7975 H   0  0  0  0  0  0  0  0  0  0  0  0
   -2.7906    2.0162    4.7453 H   0  0  0  0  0  0  0  0  0  0  0  0
   -3.0459    2.0573    2.2614 H   0  0  0  0  0  0  0  0  0  0  0  0
    1.5602    1.2056    2.5458 H   0  0  0  0  0  0  0  0  0  0  0  0
    1.5041    3.5924    3.2644 H   0  0  0  0  0  0  0  0  0  0  0  0
    1.7059    5.4255    1.5610 H   0  0  0  0  0  0  0  0  0  0  0  0
    1.9078    4.8478   -0.8722 H   0  0  0  0  0  0  0  0  0  0  0  0
    1.9335    2.4622   -1.5960 H   0  0  0  0  0  0  0  0  0  0  0  0
    4.3329    1.3683   -0.3456 H   0  0  0  0  0  0  0  0  0  0  0  0
    6.1709    1.2955   -2.0250 H   0  0  0  0  0  0  0  0  0  0  0  0
    5.9585   -0.1602   -4.0591 H   0  0  0  0  0  0  0  0  0  0  0  0
    3.8970   -1.5526   -4.3854 H   0  0  0  0  0  0  0  0  0  0  0  0
    2.0639   -1.5136   -2.6769 H   0  0  0  0  0  0  0  0  0  0  0  0
   -2.8463    0.1724   -2.5199 H   0  0  0  0  0  0  0  0  0  0  0  0
   -5.1629   -0.3966   -3.2538 H   0  0  0  0  0  0  0  0  0  0  0  0
   -6.9406   -0.9038   -1.5511 H   0  0  0  0  0  0  0  0  0  0  0  0
   -6.3757   -0.8189    0.8944 H   0  0  0  0  0  0  0  0  0  0  0  0
   -4.0768   -0.2014    1.6286 H   0  0  0  0  0  0  0  0  0  0  0  0
   -0.9377    1.4488   -2.5447 H   0  0  0  0  0  0  0  0  0  0  0  0
   -0.8525    3.7342   -3.5668 H   0  0  0  0  0  0  0  0  0  0  0  0
   -1.1580    5.7747   -2.1307 H   0  0  0  0  0  0  0  0  0  0  0  0
   -1.5044    5.5066    0.3404 H   0  0  0  0  0  0  0  0  0  0  0  0
   -1.6099    3.2485    1.3536 H   0  0  0  0  0  0  0  0  0  0  0  0
  1 16  1  0  0  0  0
  1  3  1  0  0  0  0
  2 15  1  0  0  0  0
  3  4  2  0  0  0  0
  3  8  1  0  0  0  0
  4  5  1  0  0  0  0
  5 41  1  0  0  0  0
  5  6  2  0  0  0  0
  6 42  1  0  0  0  0
  7  6  1  0  0  0  0
  7 43  1  0  0  0  0
  8  7  2  0  0  0  0
  9 44  1  0  0  0  0
  9  8  1  0  0  0  0
  9 10  1  0  0  0  0
 10 11  1  0  0  0  0
 11 45  1  0  0  0  0
 11 12  2  0  0  0  0
 12 46  1  0  0  0  0
 13 12  1  0  0  0  0
 13 47  1  0  0  0  0
 14 13  2  0  0  0  0
 15 10  2  0  0  0  0
 15 14  1  0  0  0  0
 16 17  1  0  0  0  0
 17 18  2  0  0  0  0
 17 49  1  0  0  0  0
 18 50  1  0  0  0  0
 19 51  1  0  0  0  0
 19 18  1  0  0  0  0
 20 19  2  0  0  0  0
 21 20  1  0  0  0  0
 21 16  2  0  0  0  0
 22 23  1  0  0  0  0
 22  1  1  0  0  0  0
 23 54  1  0  0  0  0
 24 55  1  0  0  0  0
 24 23  2  0  0  0  0
 25 24  1  0  0  0  0
 26 25  2  0  0  0  0
 26 27  1  0  0  0  0
 27 22  2  0  0  0  0
 28  2  1  0  0  0  0
 28 33  1  0  0  0  0
 29 28  2  0  0  0  0
 30 29  1  0  0  0  0
 30 31  2  0  0  0  0
 31 32  1  0  0  0  0
 32 33  2  0  0  0  0
 32 62  1  0  0  0  0
 33 63  1  0  0  0  0
 34  2  1  0  0  0  0
 34 39  1  0  0  0  0
 35 34  2  0  0  0  0
 36 35  1  0  0  0  0
 36 37  2  0  0  0  0
 37 38  1  0  0  0  0
 38 39  2  0  0  0  0
 38 67  1  0  0  0  0
 39 68  1  0  0  0  0
 40  4  1  0  0  0  0
 48 14  1  0  0  0  0
 52 20  1  0  0  0  0
 53 21  1  0  0  0  0
 56 25  1  0  0  0  0
 57 26  1  0  0  0  0
 58 27  1  0  0  0  0
 59 29  1  0  0  0  0
 60 30  1  0  0  0  0
 61 31  1  0  0  0  0
 64 35  1  0  0  0  0
 65 36  1  0  0  0  0
 66 37  1  0  0  0  0
M  END
