1,2,60
 OpenBabel05122313063D

 60 60  0  0  0  0  0  0  0  0999 V2000
    1.8239   -0.0292    0.0811 P   0  0  0  0  0  0  0  0  0  0  0  0
   -0.9728    1.0517    0.6004 P   0  0  2  0  0  0  0  0  0  0  0  0
    3.1178    0.3691   -1.2863 C   0  0  0  0  0  0  0  0  0  0  0  0
    4.2171    1.3559   -0.8566 C   0  0  0  0  0  0  0  0  0  0  0  0
    4.8415    0.9676   -0.0311 H   0  0  0  0  0  0  0  0  0  0  0  0
    4.8907    1.5422   -1.7210 H   0  0  0  0  0  0  0  0  0  0  0  0
    3.8112    2.3389   -0.5492 H   0  0  0  0  0  0  0  0  0  0  0  0
    3.7710   -0.9174   -1.8189 C   0  0  0  0  0  0  0  0  0  0  0  0
    3.0175   -1.6652   -2.1306 H   0  0  0  0  0  0  0  0  0  0  0  0
    4.3856   -0.6673   -2.7100 H   0  0  0  0  0  0  0  0  0  0  0  0
    4.4461   -1.3863   -1.0773 H   0  0  0  0  0  0  0  0  0  0  0  0
    2.2811    0.9996   -2.4171 C   0  0  0  0  0  0  0  0  0  0  0  0
    1.4764    0.3136   -2.7491 H   0  0  0  0  0  0  0  0  0  0  0  0
    1.8078    1.9511   -2.1011 H   0  0  0  0  0  0  0  0  0  0  0  0
    2.9354    1.2272   -3.2859 H   0  0  0  0  0  0  0  0  0  0  0  0
    2.5892   -1.1793    1.4166 C   0  0  0  0  0  0  0  0  0  0  0  0
    1.6603   -1.0865    2.6438 C   0  0  0  0  0  0  0  0  0  0  0  0
    0.6019   -1.2654    2.3613 H   0  0  0  0  0  0  0  0  0  0  0  0
    1.9509   -1.8660    3.3798 H   0  0  0  0  0  0  0  0  0  0  0  0
    1.7347   -0.1077    3.1569 H   0  0  0  0  0  0  0  0  0  0  0  0
    2.5630   -2.6365    0.9236 C   0  0  0  0  0  0  0  0  0  0  0  0
    1.5322   -2.9538    0.6786 H   0  0  0  0  0  0  0  0  0  0  0  0
    3.1901   -2.7980    0.0279 H   0  0  0  0  0  0  0  0  0  0  0  0
    2.9512   -3.2957    1.7294 H   0  0  0  0  0  0  0  0  0  0  0  0
    4.0135   -0.7838    1.8304 C   0  0  0  0  0  0  0  0  0  0  0  0
    4.0839    0.2740    2.1555 H   0  0  0  0  0  0  0  0  0  0  0  0
    4.3319   -1.4117    2.6906 H   0  0  0  0  0  0  0  0  0  0  0  0
    4.7479   -0.9477    1.0186 H   0  0  0  0  0  0  0  0  0  0  0  0
    1.7109    1.6343    0.9785 C   0  0  0  0  0  0  0  0  0  0  0  0
    2.5550    1.7689    1.6869 H   0  0  0  0  0  0  0  0  0  0  0  0
    1.8426    2.3979    0.1854 H   0  0  0  0  0  0  0  0  0  0  0  0
    0.3496    1.8443    1.6576 C   0  0  0  0  0  0  0  0  0  0  0  0
    0.1507    2.9207    1.8381 H   0  0  0  0  0  0  0  0  0  0  0  0
    0.3071    1.3417    2.6435 H   0  0  0  0  0  0  0  0  0  0  0  0
   -1.8568    2.4885   -0.2715 C   0  0  0  0  0  0  0  0  0  0  0  0
   -0.8039    3.2121   -1.1280 C   0  0  0  0  0  0  0  0  0  0  0  0
   -0.0092    3.6828   -0.5133 H   0  0  0  0  0  0  0  0  0  0  0  0
   -0.3258    2.5138   -1.8434 H   0  0  0  0  0  0  0  0  0  0  0  0
   -1.2895    4.0213   -1.7137 H   0  0  0  0  0  0  0  0  0  0  0  0
   -2.4790    3.4593    0.7425 C   0  0  0  0  0  0  0  0  0  0  0  0
   -1.7252    3.8977    1.4278 H   0  0  0  0  0  0  0  0  0  0  0  0
   -2.9617    4.3023    0.2029 H   0  0  0  0  0  0  0  0  0  0  0  0
   -3.2619    2.9712    1.3559 H   0  0  0  0  0  0  0  0  0  0  0  0
   -2.9473    1.9058   -1.1870 C   0  0  0  0  0  0  0  0  0  0  0  0
   -3.7321    1.3727   -0.6162 H   0  0  0  0  0  0  0  0  0  0  0  0
   -3.4297    2.7327   -1.7513 H   0  0  0  0  0  0  0  0  0  0  0  0
   -2.5238    1.1827   -1.9111 H   0  0  0  0  0  0  0  0  0  0  0  0
   -2.2355    0.2506    1.6987 C   0  0  0  0  0  0  0  0  0  0  0  0
   -1.6672   -0.2309    2.5254 H   0  0  0  0  0  0  0  0  0  0  0  0
   -2.9671    0.9454    2.1613 H   0  0  0  0  0  0  0  0  0  0  0  0
   -2.8738   -0.7677    0.7718 C   0  0  0  0  0  0  0  0  0  0  0  0
   -4.2095   -1.1708    0.9626 C   0  0  0  0  0  0  0  0  0  0  0  0
   -4.7771   -0.7861    1.8263 H   0  0  0  0  0  0  0  0  0  0  0  0
   -4.8256   -2.0416    0.0520 C   0  0  0  0  0  0  0  0  0  0  0  0
   -5.8722   -2.3500    0.1999 H   0  0  0  0  0  0  0  0  0  0  0  0
   -4.0950   -2.4984   -1.0559 C   0  0  0  0  0  0  0  0  0  0  0  0
   -4.5708   -3.1681   -1.7906 H   0  0  0  0  0  0  0  0  0  0  0  0
   -2.7582   -2.1055   -1.2342 C   0  0  0  0  0  0  0  0  0  0  0  0
   -2.2195   -2.4936   -2.1127 H   0  0  0  0  0  0  0  0  0  0  0  0
   -2.0946   -1.2414   -0.3342 C   0  0  0  0  0  3  0  0  0  0  0  0
  1 29  1  0  0  0  0
  1 16  1  0  0  0  0
  2 35  1  1  0  0  0
  2 32  1  0  0  0  0
  2 48  1  0  0  0  0
  3  4  1  0  0  0  0
  3  1  1  0  0  0  0
  4  7  1  0  0  0  0
  4  5  1  0  0  0  0
  6  4  1  0  0  0  0
  8  3  1  0  0  0  0
  8 11  1  0  0  0  0
  9  8  1  0  0  0  0
 10  8  1  0  0  0  0
 12 14  1  0  0  0  0
 12  3  1  0  0  0  0
 13 12  1  0  0  0  0
 15 12  1  0  0  0  0
 16 25  1  0  0  0  0
 16 17  1  0  0  0  0
 17 20  1  0  0  0  0
 17 19  1  0  0  0  0
 18 17  1  0  0  0  0
 21 16  1  0  0  0  0
 21 24  1  0  0  0  0
 22 21  1  0  0  0  0
 23 21  1  0  0  0  0
 25 26  1  0  0  0  0
 25 27  1  0  0  0  0
 28 25  1  0  0  0  0
 29 32  1  0  0  0  0
 29 30  1  0  0  0  0
 31 29  1  0  0  0  0
 32 33  1  0  0  0  0
 32 34  1  0  0  0  0
 35 40  1  0  0  0  0
 36 37  1  0  0  0  0
 36 35  1  0  0  0  0
 38 36  1  0  0  0  0
 39 36  1  0  0  0  0
 40 43  1  0  0  0  0
 40 41  1  0  0  0  0
 42 40  1  0  0  0  0
 44 45  1  0  0  0  0
 44 35  1  0  0  0  0
 46 44  1  0  0  0  0
 47 44  1  0  0  0  0
 48 50  1  0  0  0  0
 48 49  1  0  0  0  0
 51 52  1  0  0  0  0
 51 48  1  0  0  0  0
 52 53  1  0  0  0  0
 54 55  1  0  0  0  0
 54 52  2  0  0  0  0
 56 54  1  0  0  0  0
 57 56  1  0  0  0  0
 58 56  2  0  0  0  0
 58 60  1  0  0  0  0
 59 58  1  0  0  0  0
 60 51  2  0  0  0  0
M  END
