1,2,3
 OpenBabel05122313063D

 59 60  0  0  0  0  0  0  0  0999 V2000
   -1.7721    0.8473   -0.2952 P   0  0  0  0  0  0  0  0  0  0  0  0
    2.4249   -0.3054    0.0565 P   0  0  0  0  0  0  0  0  0  0  0  0
   -0.0112   -1.5726   -0.0114 C   0  0  0  0  0  3  0  0  0  0  0  0
   -1.3359   -3.6720   -0.0181 C   0  0  0  0  0  0  0  0  0  0  0  0
   -2.3070   -4.1632    0.1287 H   0  0  0  0  0  0  0  0  0  0  0  0
   -1.2131   -2.2914    0.2478 C   0  0  0  0  0  0  0  0  0  0  0  0
   -2.1284    2.6202    1.8379 C   0  0  0  0  0  0  0  0  0  0  0  0
   -1.0377    2.7603    1.9740 H   0  0  0  0  0  0  0  0  0  0  0  0
   -2.4476    1.7537    2.4480 H   0  0  0  0  0  0  0  0  0  0  0  0
   -2.6420    3.5158    2.2430 H   0  0  0  0  0  0  0  0  0  0  0  0
   -3.3639   -2.2525    1.5516 C   0  0  0  0  0  0  0  0  0  0  0  0
   -3.2804   -3.2830    1.9081 H   0  0  0  0  0  0  0  0  0  0  0  0
   -2.2059    3.6511   -0.5098 C   0  0  0  0  0  0  0  0  0  0  0  0
   -2.6818    4.5487   -0.0650 H   0  0  0  0  0  0  0  0  0  0  0  0
   -2.6050    3.5496   -1.5375 H   0  0  0  0  0  0  0  0  0  0  0  0
   -1.1200    3.8551   -0.5900 H   0  0  0  0  0  0  0  0  0  0  0  0
   -2.7921   -0.3584    0.5613 C   0  0  0  0  0  0  0  0  0  0  0  0
   -2.5108    2.4316    0.3650 C   0  0  0  0  0  0  0  0  0  0  0  0
   -3.6002    2.2095    0.3328 H   0  0  0  0  0  0  0  0  0  0  0  0
    1.0689   -2.3945   -0.4500 C   0  0  0  0  0  0  0  0  0  0  0  0
    3.5233    0.5380   -1.1713 C   0  0  0  0  0  0  0  0  0  0  0  0
    3.6714    1.5591   -0.7528 H   0  0  0  0  0  0  0  0  0  0  0  0
   -4.3284   -1.2762    1.7583 C   0  0  0  0  0  0  0  0  0  0  0  0
   -5.2580   -1.3619    2.3344 H   0  0  0  0  0  0  0  0  0  0  0  0
   -3.7246    0.8964   -2.3288 C   0  0  0  0  0  0  0  0  0  0  0  0
   -3.9500    0.8622   -3.4142 H   0  0  0  0  0  0  0  0  0  0  0  0
   -4.1360    1.8444   -1.9322 H   0  0  0  0  0  0  0  0  0  0  0  0
   -4.2705    0.0642   -1.8410 H   0  0  0  0  0  0  0  0  0  0  0  0
   -0.2486   -4.4072   -0.4979 C   0  0  0  0  0  0  0  0  0  0  0  0
   -0.3584   -5.4812   -0.7055 H   0  0  0  0  0  0  0  0  0  0  0  0
   -2.2122    0.7658   -2.1171 C   0  0  0  0  0  0  0  0  0  0  0  0
   -1.6933    1.6546   -2.5418 H   0  0  0  0  0  0  0  0  0  0  0  0
    4.8797   -0.1642   -1.3139 C   0  0  0  0  0  0  0  0  0  0  0  0
    4.7474   -1.2204   -1.6217 H   0  0  0  0  0  0  0  0  0  0  0  0
    5.4705   -0.1441   -0.3774 H   0  0  0  0  0  0  0  0  0  0  0  0
    5.4806    0.3430   -2.0955 H   0  0  0  0  0  0  0  0  0  0  0  0
    3.3572   -0.5425    1.6369 C   0  0  0  0  0  0  0  0  0  0  0  0
    4.2993   -1.0547    1.3424 H   0  0  0  0  0  0  0  0  0  0  0  0
    2.7682    0.6462   -2.5048 C   0  0  0  0  0  0  0  0  0  0  0  0
    3.3858    1.1868   -3.2495 H   0  0  0  0  0  0  0  0  0  0  0  0
    1.8080    1.1894   -2.3932 H   0  0  0  0  0  0  0  0  0  0  0  0
    2.5467   -0.3602   -2.9127 H   0  0  0  0  0  0  0  0  0  0  0  0
   -1.6370   -0.4947   -2.7726 C   0  0  0  0  0  0  0  0  0  0  0  0
   -2.0766   -1.4164   -2.3411 H   0  0  0  0  0  0  0  0  0  0  0  0
   -0.5380   -0.5631   -2.6558 H   0  0  0  0  0  0  0  0  0  0  0  0
   -1.8724   -0.4870   -3.8561 H   0  0  0  0  0  0  0  0  0  0  0  0
    0.9784   -3.7705   -0.6991 C   0  0  0  0  0  0  0  0  0  0  0  0
    1.8731   -4.3131   -1.0337 H   0  0  0  0  0  0  0  0  0  0  0  0
    3.6784    0.8221    2.2623 C   0  0  0  0  0  0  0  0  0  0  0  0
    2.7491    1.3772    2.5066 H   0  0  0  0  0  0  0  0  0  0  0  0
    4.3063    1.4570    1.6050 H   0  0  0  0  0  0  0  0  0  0  0  0
    4.2352    0.6770    3.2097 H   0  0  0  0  0  0  0  0  0  0  0  0
    2.5582   -1.4545    2.5766 C   0  0  0  0  0  0  0  0  0  0  0  0
    3.1380   -1.6320    3.5048 H   0  0  0  0  0  0  0  0  0  0  0  0
    2.3451   -2.4385    2.1166 H   0  0  0  0  0  0  0  0  0  0  0  0
    1.5897   -0.9938    2.8599 H   0  0  0  0  0  0  0  0  0  0  0  0
    2.3304   -1.8408   -0.6067 O   0  0  0  0  0  0  0  0  0  0  0  0
   -2.3773   -1.6576    0.7816 N   0  0  0  0  0  0  0  0  0  0  0  0
   -3.9649   -0.1074    1.1396 N   0  0  0  0  0  0  0  0  0  0  0  0
  1 18  1  0  0  0  0
  1 17  1  0  0  0  0
  2 37  1  0  0  0  0
  3  6  1  0  0  0  0
  4  5  1  0  0  0  0
  4  6  2  0  0  0  0
  6 58  1  0  0  0  0
  7  8  1  0  0  0  0
  7 10  1  0  0  0  0
  7  9  1  0  0  0  0
 11 23  2  0  0  0  0
 11 12  1  0  0  0  0
 13 14  1  0  0  0  0
 13 18  1  0  0  0  0
 15 13  1  0  0  0  0
 16 13  1  0  0  0  0
 17 58  1  0  0  0  0
 17 59  2  0  0  0  0
 18  7  1  0  0  0  0
 19 18  1  0  0  0  0
 20  3  2  0  0  0  0
 21 22  1  0  0  0  0
 21  2  1  0  0  0  0
 23 24  1  0  0  0  0
 25 31  1  0  0  0  0
 25 27  1  0  0  0  0
 25 28  1  0  0  0  0
 26 25  1  0  0  0  0
 29  4  1  0  0  0  0
 30 29  1  0  0  0  0
 31  1  1  0  0  0  0
 32 31  1  0  0  0  0
 33 21  1  0  0  0  0
 33 35  1  0  0  0  0
 34 33  1  0  0  0  0
 36 33  1  0  0  0  0
 37 49  1  0  0  0  0
 37 53  1  0  0  0  0
 38 37  1  0  0  0  0
 39 41  1  0  0  0  0
 39 21  1  0  0  0  0
 40 39  1  0  0  0  0
 42 39  1  0  0  0  0
 43 45  1  0  0  0  0
 43 44  1  0  0  0  0
 43 31  1  0  0  0  0
 46 43  1  0  0  0  0
 47 29  2  0  0  0  0
 47 20  1  0  0  0  0
 48 47  1  0  0  0  0
 49 50  1  0  0  0  0
 49 52  1  0  0  0  0
 51 49  1  0  0  0  0
 53 56  1  0  0  0  0
 53 54  1  0  0  0  0
 55 53  1  0  0  0  0
 57 20  1  0  0  0  0
 57  2  1  0  0  0  0
 58 11  1  0  0  0  0
 59 23  1  0  0  0  0
M  END
