1,2,4
 OpenBabel05122313063D

 69 69  0  0  0  0  0  0  0  0999 V2000
   -0.5884   -2.2859   -0.3929 P   0  0  0  0  0  0  0  0  0  0  0  0
   -0.1530    2.3704   -0.1626 P   0  0  0  0  0  0  0  0  0  0  0  0
    6.0608   -0.4911    0.3013 Br  0  0  0  0  0  0  0  0  0  0  0  0
    1.3268   -0.1361    0.2137 C   0  0  0  0  0  3  0  0  0  0  0  0
    1.9741   -1.4067    0.1576 C   0  0  0  0  0  0  0  0  0  0  0  0
    3.3779   -1.5107    0.1725 C   0  0  0  0  0  0  0  0  0  0  0  0
    3.8644   -2.4949    0.1023 H   0  0  0  0  0  0  0  0  0  0  0  0
    4.1570   -0.3537    0.3075 C   0  0  0  0  0  0  0  0  0  0  0  0
    3.5534    0.9013    0.4709 C   0  0  0  0  0  0  0  0  0  0  0  0
    4.1773    1.7944    0.6237 H   0  0  0  0  0  0  0  0  0  0  0  0
    2.1514    1.0079    0.4422 C   0  0  0  0  0  0  0  0  0  0  0  0
    1.1298   -2.6594    0.2061 C   0  0  0  0  0  0  0  0  0  0  0  0
    1.0142   -2.9515    1.2711 H   0  0  0  0  0  0  0  0  0  0  0  0
    1.5922   -3.5230   -0.3104 H   0  0  0  0  0  0  0  0  0  0  0  0
    1.4871    2.3388    0.7087 C   0  0  0  0  0  0  0  0  0  0  0  0
    2.1312    3.2067    0.4622 H   0  0  0  0  0  0  0  0  0  0  0  0
    1.2410    2.4125    1.7920 H   0  0  0  0  0  0  0  0  0  0  0  0
   -0.5184   -2.5866   -2.2875 C   0  0  0  0  0  0  0  0  0  0  0  0
    0.3397   -3.7956   -2.6922 C   0  0  0  0  0  0  0  0  0  0  0  0
    0.3231   -3.8863   -3.7994 H   0  0  0  0  0  0  0  0  0  0  0  0
   -0.0328   -4.7503   -2.2784 H   0  0  0  0  0  0  0  0  0  0  0  0
    1.4000   -3.6738   -2.3956 H   0  0  0  0  0  0  0  0  0  0  0  0
   -1.9381   -2.7104   -2.8651 C   0  0  0  0  0  0  0  0  0  0  0  0
   -1.8737   -2.6920   -3.9741 H   0  0  0  0  0  0  0  0  0  0  0  0
   -2.5811   -1.8642   -2.5463 H   0  0  0  0  0  0  0  0  0  0  0  0
   -2.4267   -3.6621   -2.5815 H   0  0  0  0  0  0  0  0  0  0  0  0
    0.1323   -1.3111   -2.8573 C   0  0  0  0  0  0  0  0  0  0  0  0
    1.1599   -1.1567   -2.4744 H   0  0  0  0  0  0  0  0  0  0  0  0
   -0.4811   -0.4113   -2.6239 H   0  0  0  0  0  0  0  0  0  0  0  0
    0.1831   -1.3796   -3.9651 H   0  0  0  0  0  0  0  0  0  0  0  0
   -1.7157   -3.5639    0.4717 C   0  0  0  0  0  0  0  0  0  0  0  0
   -1.5170   -4.9841   -0.0838 C   0  0  0  0  0  0  0  0  0  0  0  0
   -2.1282   -5.6896    0.5187 H   0  0  0  0  0  0  0  0  0  0  0  0
   -0.4626   -5.3197   -0.0114 H   0  0  0  0  0  0  0  0  0  0  0  0
   -1.8468   -5.0815   -1.1353 H   0  0  0  0  0  0  0  0  0  0  0  0
   -3.1784   -3.1154    0.3020 C   0  0  0  0  0  0  0  0  0  0  0  0
   -3.5041   -3.1080   -0.7532 H   0  0  0  0  0  0  0  0  0  0  0  0
   -3.3375   -2.0977    0.7020 H   0  0  0  0  0  0  0  0  0  0  0  0
   -3.8355   -3.8172    0.8582 H   0  0  0  0  0  0  0  0  0  0  0  0
   -1.3729   -3.5767    1.9759 C   0  0  0  0  0  0  0  0  0  0  0  0
   -2.1379   -4.1880    2.4993 H   0  0  0  0  0  0  0  0  0  0  0  0
   -1.3866   -2.5678    2.4264 H   0  0  0  0  0  0  0  0  0  0  0  0
   -0.3903   -4.0455    2.1805 H   0  0  0  0  0  0  0  0  0  0  0  0
    0.2878    2.9592   -1.9424 C   0  0  0  0  0  0  0  0  0  0  0  0
    0.7144    4.4357   -1.9892 C   0  0  0  0  0  0  0  0  0  0  0  0
    1.5558    4.6560   -1.3022 H   0  0  0  0  0  0  0  0  0  0  0  0
   -0.1175    5.1284   -1.7636 H   0  0  0  0  0  0  0  0  0  0  0  0
    1.0638    4.6682   -3.0178 H   0  0  0  0  0  0  0  0  0  0  0  0
   -0.9079    2.7334   -2.8845 C   0  0  0  0  0  0  0  0  0  0  0  0
   -0.5962    2.9782   -3.9222 H   0  0  0  0  0  0  0  0  0  0  0  0
   -1.7747    3.3702   -2.6327 H   0  0  0  0  0  0  0  0  0  0  0  0
   -1.2689    1.6873   -2.8626 H   0  0  0  0  0  0  0  0  0  0  0  0
    1.4758    2.1091   -2.4347 C   0  0  0  0  0  0  0  0  0  0  0  0
    1.2796    1.0249   -2.3640 H   0  0  0  0  0  0  0  0  0  0  0  0
    2.4082    2.3150   -1.8762 H   0  0  0  0  0  0  0  0  0  0  0  0
    1.6618    2.3529   -3.5019 H   0  0  0  0  0  0  0  0  0  0  0  0
   -1.1768    3.7062    0.7445 C   0  0  0  0  0  0  0  0  0  0  0  0
   -0.3194    4.9151    1.1620 C   0  0  0  0  0  0  0  0  0  0  0  0
   -0.9714    5.6374    1.6982 H   0  0  0  0  0  0  0  0  0  0  0  0
    0.1339    5.4501    0.3093 H   0  0  0  0  0  0  0  0  0  0  0  0
    0.4886    4.6286    1.8636 H   0  0  0  0  0  0  0  0  0  0  0  0
   -2.3618    4.1449   -0.1337 C   0  0  0  0  0  0  0  0  0  0  0  0
   -2.9368    3.2689   -0.4978 H   0  0  0  0  0  0  0  0  0  0  0  0
   -2.0467    4.7533   -1.0030 H   0  0  0  0  0  0  0  0  0  0  0  0
   -3.0435    4.7739    0.4774 H   0  0  0  0  0  0  0  0  0  0  0  0
   -1.7412    3.0447    2.0128 C   0  0  0  0  0  0  0  0  0  0  0  0
   -2.2733    3.8163    2.6085 H   0  0  0  0  0  0  0  0  0  0  0  0
   -0.9577    2.6007    2.6583 H   0  0  0  0  0  0  0  0  0  0  0  0
   -2.4593    2.2451    1.7617 H   0  0  0  0  0  0  0  0  0  0  0  0
  1 12  1  0  0  0  0
  1 31  1  0  0  0  0
  2 15  1  0  0  0  0
  2 57  1  0  0  0  0
  3  8  1  0  0  0  0
  4 11  1  0  0  0  0
  5  6  1  0  0  0  0
  5 12  1  0  0  0  0
  5  4  2  0  0  0  0
  6  8  2  0  0  0  0
  7  6  1  0  0  0  0
  8  9  1  0  0  0  0
  9 10  1  0  0  0  0
 11  9  2  0  0  0  0
 11 15  1  0  0  0  0
 12 13  1  0  0  0  0
 14 12  1  0  0  0  0
 15 17  1  0  0  0  0
 16 15  1  0  0  0  0
 18  1  1  0  0  0  0
 19 22  1  0  0  0  0
 19 18  1  0  0  0  0
 19 21  1  0  0  0  0
 20 19  1  0  0  0  0
 23 26  1  0  0  0  0
 23 25  1  0  0  0  0
 23 18  1  0  0  0  0
 24 23  1  0  0  0  0
 27 29  1  0  0  0  0
 27 28  1  0  0  0  0
 27 18  1  0  0  0  0
 30 27  1  0  0  0  0
 31 40  1  0  0  0  0
 32 34  1  0  0  0  0
 32 31  1  0  0  0  0
 32 33  1  0  0  0  0
 35 32  1  0  0  0  0
 36 31  1  0  0  0  0
 36 38  1  0  0  0  0
 36 39  1  0  0  0  0
 37 36  1  0  0  0  0
 40 43  1  0  0  0  0
 40 42  1  0  0  0  0
 40 41  1  0  0  0  0
 44  2  1  0  0  0  0
 45 44  1  0  0  0  0
 45 47  1  0  0  0  0
 45 46  1  0  0  0  0
 48 45  1  0  0  0  0
 49 52  1  0  0  0  0
 49 51  1  0  0  0  0
 49 44  1  0  0  0  0
 50 49  1  0  0  0  0
 53 54  1  0  0  0  0
 53 44  1  0  0  0  0
 53 55  1  0  0  0  0
 56 53  1  0  0  0  0
 57 58  1  0  0  0  0
 57 66  1  0  0  0  0
 58 59  1  0  0  0  0
 58 61  1  0  0  0  0
 60 58  1  0  0  0  0
 62 65  1  0  0  0  0
 62 57  1  0  0  0  0
 63 62  1  0  0  0  0
 64 62  1  0  0  0  0
 66 67  1  0  0  0  0
 66 68  1  0  0  0  0
 69 66  1  0  0  0  0
M  END
