1,2,3,4,7
 OpenBabel05122313063D

 29 28  0  0  1  0  0  0  0  0999 V2000
    0.6990   -2.1237    0.9569 S   0  0  0  0  0  1  0  0  0  0  0  0
   -2.6334   -1.0750    0.4856 S   0  0  0  0  0  1  0  0  0  0  0  0
    1.3974    0.4561   -0.5627 N   0  0  0  0  0  0  0  0  0  0  0  0
   -1.3646    1.2735   -1.0726 N   0  0  0  0  0  0  0  0  0  0  0  0
    4.6214    0.6244    1.1179 O   0  0  0  0  0  0  0  0  0  0  0  0
    4.0651    0.9192   -1.0598 O   0  0  0  0  0  0  0  0  0  0  0  0
   -0.4665    0.8086    1.2670 O   0  5  0  0  0  0  0  0  0  0  0  0
   -1.5757    2.5515    2.2011 O   0  0  0  0  0  0  0  0  0  0  0  0
    2.4135   -1.4307    0.6704 C   0  0  0  0  0  0  0  0  0  0  0  0
    2.3858    0.0971    0.4842 C   0  0  1  0  0  0  0  0  0  0  0  0
    3.7652    0.6034    0.0794 C   0  0  0  0  0  0  0  0  0  0  0  0
    1.0814    1.9130   -0.6838 C   0  0  0  0  0  0  0  0  0  0  0  0
   -0.2192    2.1435   -1.4773 C   0  0  0  0  0  0  0  0  0  0  0  0
   -2.2634    1.6993    0.0264 C   0  0  1  0  0  0  0  0  0  0  0  0
   -3.3614    0.6302    0.1676 C   0  0  0  0  0  0  0  0  0  0  0  0
   -1.3916    1.7466    1.3050 C   0  0  0  0  0  0  0  0  0  0  0  0
    1.7849    0.1319   -1.4656 H   0  0  0  0  0  0  0  0  0  0  0  0
   -1.9201    1.0417   -1.9072 H   0  0  0  0  0  0  0  0  0  0  0  0
    5.4884    0.9171    0.7589 H   0  0  0  0  0  0  0  0  0  0  0  0
    3.0471   -1.6853    1.5419 H   0  0  0  0  0  0  0  0  0  0  0  0
    2.8525   -1.9177   -0.2272 H   0  0  0  0  0  0  0  0  0  0  0  0
    2.0561    0.5705    1.4312 H   0  0  0  0  0  0  0  0  0  0  0  0
    1.0021    2.3200    0.3390 H   0  0  0  0  0  0  0  0  0  0  0  0
    1.9105    2.4377   -1.2027 H   0  0  0  0  0  0  0  0  0  0  0  0
   -0.0327    1.9161   -2.5460 H   0  0  0  0  0  0  0  0  0  0  0  0
   -0.4939    3.2189   -1.4119 H   0  0  0  0  0  0  0  0  0  0  0  0
   -2.7080    2.7011   -0.1605 H   0  0  0  0  0  0  0  0  0  0  0  0
   -3.9909    0.5974   -0.7487 H   0  0  0  0  0  0  0  0  0  0  0  0
   -4.0181    0.8878    1.0215 H   0  0  0  0  0  0  0  0  0  0  0  0
  3 10  1  0  0  0  0
  4 14  1  0  0  0  0
  6 11  2  0  0  0  0
  7 16  1  0  0  0  0
  9  1  1  0  0  0  0
  9 20  1  0  0  0  0
 10  9  1  0  0  0  0
 10 22  1  1  0  0  0
 11 10  1  0  0  0  0
 11  5  1  0  0  0  0
 12  3  1  0  0  0  0
 12 23  1  0  0  0  0
 13 26  1  0  0  0  0
 13  4  1  0  0  0  0
 13 12  1  0  0  0  0
 14 27  1  6  0  0  0
 14 15  1  0  0  0  0
 14 16  1  0  0  0  0
 15  2  1  0  0  0  0
 15 29  1  0  0  0  0
 16  8  2  0  0  0  0
 17  3  1  0  0  0  0
 18  4  1  0  0  0  0
 19  5  1  0  0  0  0
 21  9  1  0  0  0  0
 24 12  1  0  0  0  0
 25 13  1  0  0  0  0
 28 15  1  0  0  0  0
M  CHG  1   7  -1
M  END
