1,2,11
 OpenBabel05122313063D

 37 39  0  0  0  0  0  0  0  0999 V2000
    2.4715   -0.2910   -0.0646 Se  0  0  0  0  0  1  0  0  0  0  0  0
   -2.4569   -0.2645   -0.0762 Se  0  0  0  0  0  1  0  0  0  0  0  0
    9.2384   -2.1647    0.0587 Cl  0  0  0  0  0  0  0  0  0  0  0  0
   -9.2489   -2.1368    0.0039 Cl  0  0  0  0  0  0  0  0  0  0  0  0
    1.0951   -2.7461    0.0007 N   0  0  0  0  0  0  0  0  0  0  0  0
   -1.1020   -2.7308    0.0022 N   0  0  0  0  0  0  0  0  0  0  0  0
    3.3538   -3.0969   -0.0594 N   0  0  0  0  0  0  0  0  0  0  0  0
   -3.3628   -3.0590    0.0917 N   0  0  0  0  0  0  0  0  0  0  0  0
    2.4038   -2.2272   -0.0235 C   0  0  0  0  0  0  0  0  0  0  0  0
   -2.4064   -2.2003    0.0064 C   0  0  0  0  0  0  0  0  0  0  0  0
    0.0023   -1.9572   -0.0172 C   0  0  0  0  0  2  0  0  0  0  0  0
    0.7626   -4.1812    0.0253 C   0  0  0  0  0  0  0  0  0  0  0  0
   -0.7876   -4.1699    0.0476 C   0  0  0  0  0  0  0  0  0  0  0  0
    4.7157   -2.8157   -0.0154 C   0  0  0  0  0  0  0  0  0  0  0  0
    5.5809   -3.6246   -0.7919 C   0  0  0  0  0  0  0  0  0  0  0  0
    6.9639   -3.4220   -0.7838 C   0  0  0  0  0  0  0  0  0  0  0  0
    7.5098   -2.4174    0.0334 C   0  0  0  0  0  0  0  0  0  0  0  0
    6.6771   -1.6224    0.8381 C   0  0  0  0  0  0  0  0  0  0  0  0
    5.2919   -1.8167    0.8088 C   0  0  0  0  0  0  0  0  0  0  0  0
   -4.7244   -2.7795    0.0484 C   0  0  0  0  0  0  0  0  0  0  0  0
   -5.5823   -3.5784    0.8438 C   0  0  0  0  0  0  0  0  0  0  0  0
   -6.9654   -3.3784    0.8447 C   0  0  0  0  0  0  0  0  0  0  0  0
   -7.5199   -2.3863    0.0177 C   0  0  0  0  0  0  0  0  0  0  0  0
   -6.6955   -1.6018   -0.8055 C   0  0  0  0  0  0  0  0  0  0  0  0
   -5.3096   -1.7938   -0.7857 C   0  0  0  0  0  0  0  0  0  0  0  0
    1.2170   -4.6547    0.9172 H   0  0  0  0  0  0  0  0  0  0  0  0
    1.1930   -4.6757   -0.8676 H   0  0  0  0  0  0  0  0  0  0  0  0
   -1.2248   -4.6141    0.9633 H   0  0  0  0  0  0  0  0  0  0  0  0
   -1.2489   -4.6802   -0.8201 H   0  0  0  0  0  0  0  0  0  0  0  0
    5.1351   -4.4150   -1.4130 H   0  0  0  0  0  0  0  0  0  0  0  0
    7.6281   -4.0433   -1.4008 H   0  0  0  0  0  0  0  0  0  0  0  0
    7.1206   -0.8528    1.4858 H   0  0  0  0  0  0  0  0  0  0  0  0
    4.6423   -1.2002    1.4468 H   0  0  0  0  0  0  0  0  0  0  0  0
   -5.1295   -4.3591    1.4722 H   0  0  0  0  0  0  0  0  0  0  0  0
   -7.6235   -3.9919    1.4760 H   0  0  0  0  0  0  0  0  0  0  0  0
   -7.1452   -0.8417   -1.4599 H   0  0  0  0  0  0  0  0  0  0  0  0
   -4.6686   -1.1866   -1.4411 H   0  0  0  0  0  0  0  0  0  0  0  0
  1  9  1  0  0  0  0
  2 10  1  0  0  0  0
  4 23  1  0  0  0  0
  5 12  1  0  0  0  0
  6 10  1  0  0  0  0
  6 13  1  0  0  0  0
  7  9  2  0  0  0  0
  7 14  1  0  0  0  0
  9  5  1  0  0  0  0
 10  8  2  0  0  0  0
 11  5  1  0  0  0  0
 11  6  1  0  0  0  0
 12 13  1  0  0  0  0
 12 26  1  0  0  0  0
 13 28  1  0  0  0  0
 14 19  1  0  0  0  0
 15 16  1  0  0  0  0
 15 14  2  0  0  0  0
 16 17  2  0  0  0  0
 17  3  1  0  0  0  0
 17 18  1  0  0  0  0
 18 32  1  0  0  0  0
 19 18  2  0  0  0  0
 19 33  1  0  0  0  0
 20  8  1  0  0  0  0
 20 21  1  0  0  0  0
 21 22  2  0  0  0  0
 21 34  1  0  0  0  0
 22 35  1  0  0  0  0
 23 22  1  0  0  0  0
 24 25  1  0  0  0  0
 24 23  2  0  0  0  0
 25 20  2  0  0  0  0
 27 12  1  0  0  0  0
 29 13  1  0  0  0  0
 30 15  1  0  0  0  0
 31 16  1  0  0  0  0
 36 24  1  0  0  0  0
 37 25  1  0  0  0  0
M  END
