2,3,4,5
 OpenBabel05122313063D

 55 56  0  0  0  0  0  0  0  0999 V2000
    3.3095   -0.1935    0.6771 P   0  0  2  0  0  0  0  0  0  0  0  0
    0.5822   -2.1625   -0.1649 P   0  0  2  0  0  0  0  0  0  0  0  0
   -1.4939    0.1278   -1.0465 P   0  0  2  0  0  0  0  0  0  0  0  0
    0.8606    2.1323   -0.1013 P   0  0  2  0  0  0  0  0  0  0  0  0
    1.7794   -0.1261    1.1983 O   0  0  0  0  0  1  0  0  0  0  0  0
    4.3032   -0.7011    1.6847 O   0  0  0  0  0  0  0  0  0  0  0  0
    3.6630    1.5368    0.1319 C   0  0  0  0  0  0  0  0  0  0  0  0
    3.8306    2.0678    1.0928 H   0  0  0  0  0  0  0  0  0  0  0  0
    4.6433    1.5398   -0.3889 H   0  0  0  0  0  0  0  0  0  0  0  0
    2.6079    2.2494   -0.7229 C   0  0  0  0  0  0  0  0  0  0  0  0
    2.5800    1.8322   -1.7528 H   0  0  0  0  0  0  0  0  0  0  0  0
    2.8493    3.3300   -0.8323 H   0  0  0  0  0  0  0  0  0  0  0  0
   -0.0726    3.2687   -1.2195 C   0  0  0  0  0  0  0  0  0  0  0  0
    0.1060    4.3095   -0.8776 H   0  0  0  0  0  0  0  0  0  0  0  0
    0.3823    3.1828   -2.2297 H   0  0  0  0  0  0  0  0  0  0  0  0
   -1.5782    2.9680   -1.2923 C   0  0  0  0  0  0  0  0  0  0  0  0
   -2.0277    2.9698   -0.2749 H   0  0  0  0  0  0  0  0  0  0  0  0
   -2.0739    3.7970   -1.8376 H   0  0  0  0  0  0  0  0  0  0  0  0
   -1.9158    1.6533   -2.0086 C   0  0  0  0  0  0  0  0  0  0  0  0
   -1.3863    1.5862   -2.9837 H   0  0  0  0  0  0  0  0  0  0  0  0
   -3.0023    1.6006   -2.2299 H   0  0  0  0  0  0  0  0  0  0  0  0
   -1.9773   -1.2311   -2.2076 C   0  0  0  0  0  0  0  0  0  0  0  0
   -3.0365   -1.0574   -2.4904 H   0  0  0  0  0  0  0  0  0  0  0  0
   -1.3746   -1.0968   -3.1319 H   0  0  0  0  0  0  0  0  0  0  0  0
   -1.8002   -2.6469   -1.6410 C   0  0  0  0  0  0  0  0  0  0  0  0
   -2.3001   -3.3581   -2.3301 H   0  0  0  0  0  0  0  0  0  0  0  0
   -2.3444   -2.7365   -0.6754 H   0  0  0  0  0  0  0  0  0  0  0  0
   -0.3352   -3.0808   -1.4794 C   0  0  0  0  0  0  0  0  0  0  0  0
    0.2184   -2.9168   -2.4291 H   0  0  0  0  0  0  0  0  0  0  0  0
   -0.2678   -4.1659   -1.2536 H   0  0  0  0  0  0  0  0  0  0  0  0
    2.3842   -2.5379   -0.4718 C   0  0  0  0  0  0  0  0  0  0  0  0
    2.7945   -3.0002    0.4502 H   0  0  0  0  0  0  0  0  0  0  0  0
    2.4375   -3.3003   -1.2761 H   0  0  0  0  0  0  0  0  0  0  0  0
    3.2001   -1.2848   -0.8226 C   0  0  0  0  0  0  0  0  0  0  0  0
    2.7637   -0.7451   -1.6915 H   0  0  0  0  0  0  0  0  0  0  0  0
    4.2390   -1.5684   -1.0887 H   0  0  0  0  0  0  0  0  0  0  0  0
    0.8297    2.8996    1.5583 C   0  0  0  0  0  0  0  0  0  0  0  0
    1.3300    3.8885    1.5539 H   0  0  0  0  0  0  0  0  0  0  0  0
    1.3431    2.2074    2.2531 H   0  0  0  0  0  0  0  0  0  0  0  0
   -0.2215    3.0166    1.8872 H   0  0  0  0  0  0  0  0  0  0  0  0
    0.1481   -2.9610    1.4222 C   0  0  0  0  0  0  0  0  0  0  0  0
    0.7097   -2.4276    2.2140 H   0  0  0  0  0  0  0  0  0  0  0  0
    0.4244   -4.0341    1.4176 H   0  0  0  0  0  0  0  0  0  0  0  0
   -0.9372   -2.8546    1.6151 H   0  0  0  0  0  0  0  0  0  0  0  0
   -2.7283    0.0649    0.3086 C   0  0  0  0  0  0  0  0  0  0  0  0
   -4.1153    0.0583    0.0518 C   0  0  0  0  0  0  0  0  0  0  0  0
   -4.4986    0.0891   -0.9806 H   0  0  0  0  0  0  0  0  0  0  0  0
   -5.0247    0.0113    1.1183 C   0  0  0  0  0  0  0  0  0  0  0  0
   -6.1057    0.0057    0.9139 H   0  0  0  0  0  0  0  0  0  0  0  0
   -4.5581   -0.0284    2.4431 C   0  0  0  0  0  0  0  0  0  0  0  0
   -5.2757   -0.0652    3.2763 H   0  0  0  0  0  0  0  0  0  0  0  0
   -3.1790   -0.0210    2.7046 C   0  0  0  0  0  0  0  0  0  0  0  0
   -2.8120   -0.0516    3.7414 H   0  0  0  0  0  0  0  0  0  0  0  0
   -2.2648    0.0253    1.6415 C   0  0  0  0  0  0  0  0  0  0  0  0
   -1.1797    0.0297    1.8449 H   0  0  0  0  0  0  0  0  0  0  0  0
  1  5  1  1  0  0  0
  1  6  2  0  0  0  0
  2 41  1  1  0  0  0
  3 45  1  1  0  0  0
  4 37  1  1  0  0  0
  7  1  1  0  0  0  0
  7  8  1  0  0  0  0
  9  7  1  0  0  0  0
 10  4  1  0  0  0  0
 10  7  1  0  0  0  0
 11 10  1  0  0  0  0
 12 10  1  0  0  0  0
 13 14  1  0  0  0  0
 13  4  1  0  0  0  0
 15 13  1  0  0  0  0
 16 13  1  0  0  0  0
 16 17  1  0  0  0  0
 18 16  1  0  0  0  0
 19 16  1  0  0  0  0
 19  3  1  0  0  0  0
 20 19  1  0  0  0  0
 21 19  1  0  0  0  0
 22 25  1  0  0  0  0
 22  3  1  0  0  0  0
 23 22  1  0  0  0  0
 24 22  1  0  0  0  0
 25 28  1  0  0  0  0
 25 27  1  0  0  0  0
 26 25  1  0  0  0  0
 28 30  1  0  0  0  0
 28  2  1  0  0  0  0
 29 28  1  0  0  0  0
 31  2  1  0  0  0  0
 31 32  1  0  0  0  0
 33 31  1  0  0  0  0
 34 31  1  0  0  0  0
 34  1  1  0  0  0  0
 35 34  1  0  0  0  0
 36 34  1  0  0  0  0
 37 40  1  0  0  0  0
 37 39  1  0  0  0  0
 38 37  1  0  0  0  0
 41 44  1  0  0  0  0
 41 42  1  0  0  0  0
 43 41  1  0  0  0  0
 45 54  1  0  0  0  0
 46 45  2  0  0  0  0
 46 48  1  0  0  0  0
 47 46  1  0  0  0  0
 48 50  2  0  0  0  0
 49 48  1  0  0  0  0
 50 52  1  0  0  0  0
 50 51  1  0  0  0  0
 52 53  1  0  0  0  0
 54 55  1  0  0  0  0
 54 52  2  0  0  0  0
M  END
