2,3,4
 OpenBabel05122313063D

 35 37  0  0  0  0  0  0  0  0999 V2000
   -1.7284   -0.1437   -0.1816 P   0  0  0  0  0  4  0  0  0  0  0  0
    0.8469    0.2010    1.8796 S   0  0  0  0  0  1  0  0  0  0  0  0
    0.4472    2.3172   -1.5048 S   0  0  0  0  0  1  0  0  0  0  0  0
   -0.5849   -0.6749   -1.0915 O   0  0  0  0  0  1  0  0  0  0  0  0
   -3.4029   -1.9024   -1.5152 C   0  0  0  0  0  0  0  0  0  0  0  0
   -4.5584   -2.3095   -2.1947 C   0  0  0  0  0  0  0  0  0  0  0  0
   -5.6169   -1.4052   -2.3866 C   0  0  0  0  0  0  0  0  0  0  0  0
   -5.5126   -0.0935   -1.9004 C   0  0  0  0  0  0  0  0  0  0  0  0
   -4.3594    0.3170   -1.2126 C   0  0  0  0  0  0  0  0  0  0  0  0
   -3.3016   -0.5886   -1.0077 C   0  0  0  0  0  0  0  0  0  0  0  0
   -0.5429   -0.8093    2.2555 C   0  0  0  0  0  0  0  0  0  0  0  0
   -0.5442   -1.4783    3.5095 C   0  0  0  0  0  0  0  0  0  0  0  0
   -1.6290   -2.2509    3.9317 C   0  0  0  0  0  0  0  0  0  0  0  0
   -2.7657   -2.3981    3.1154 C   0  0  0  0  0  0  0  0  0  0  0  0
   -2.7937   -1.7545    1.8725 C   0  0  0  0  0  0  0  0  0  0  0  0
   -1.7077   -0.9655    1.4375 C   0  0  0  0  0  0  0  0  0  0  0  0
   -0.9547    2.6313   -0.4813 C   0  0  0  0  0  0  0  0  0  0  0  0
   -1.2758    3.9926   -0.2255 C   0  0  0  0  0  0  0  0  0  0  0  0
   -2.3019    4.3653    0.6439 C   0  0  0  0  0  0  0  0  0  0  0  0
   -3.0539    3.3851    1.3192 C   0  0  0  0  0  0  0  0  0  0  0  0
   -2.7828    2.0380    1.0654 C   0  0  0  0  0  0  0  0  0  0  0  0
   -1.7757    1.6470    0.1499 C   0  0  0  0  0  0  0  0  0  0  0  0
   -2.5650   -2.6024   -1.3780 H   0  0  0  0  0  0  0  0  0  0  0  0
   -4.6321   -3.3367   -2.5833 H   0  0  0  0  0  0  0  0  0  0  0  0
   -6.5230   -1.7240   -2.9243 H   0  0  0  0  0  0  0  0  0  0  0  0
   -6.3334    0.6220   -2.0608 H   0  0  0  0  0  0  0  0  0  0  0  0
   -4.2764    1.3489   -0.8418 H   0  0  0  0  0  0  0  0  0  0  0  0
    0.3444   -1.3677    4.1496 H   0  0  0  0  0  0  0  0  0  0  0  0
   -1.5873   -2.7487    4.9133 H   0  0  0  0  0  0  0  0  0  0  0  0
   -3.6213   -3.0057    3.4451 H   0  0  0  0  0  0  0  0  0  0  0  0
   -3.6782   -1.8556    1.2251 H   0  0  0  0  0  0  0  0  0  0  0  0
   -0.6559    4.7588   -0.7158 H   0  0  0  0  0  0  0  0  0  0  0  0
   -2.5022    5.4339    0.8194 H   0  0  0  0  0  0  0  0  0  0  0  0
   -3.8383    3.6682    2.0363 H   0  0  0  0  0  0  0  0  0  0  0  0
   -3.3622    1.2599    1.5885 H   0  0  0  0  0  0  0  0  0  0  0  0
  1 22  1  0  0  0  0
  1 16  1  0  0  0  0
  2 11  1  0  0  0  0
  3 17  1  0  0  0  0
  4  1  1  0  0  0  0
  5 23  1  0  0  0  0
  5 10  1  0  0  0  0
  6  5  2  0  0  0  0
  7  6  1  0  0  0  0
  7  8  2  0  0  0  0
  8  9  1  0  0  0  0
  9 10  2  0  0  0  0
  9 27  1  0  0  0  0
 10  1  1  0  0  0  0
 11 12  1  0  0  0  0
 12 13  2  0  0  0  0
 12 28  1  0  0  0  0
 13 29  1  0  0  0  0
 14 30  1  0  0  0  0
 14 13  1  0  0  0  0
 15 14  2  0  0  0  0
 16 15  1  0  0  0  0
 16 11  2  0  0  0  0
 17 18  2  0  0  0  0
 17 22  1  0  0  0  0
 18 19  1  0  0  0  0
 19 33  1  0  0  0  0
 19 20  2  0  0  0  0
 20 34  1  0  0  0  0
 21 20  1  0  0  0  0
 21 35  1  0  0  0  0
 22 21  2  0  0  0  0
 24  6  1  0  0  0  0
 25  7  1  0  0  0  0
 26  8  1  0  0  0  0
 31 15  1  0  0  0  0
 32 18  1  0  0  0  0
M  END
