1,2,6
 OpenBabel05122313063D

 76 78  0  0  1  0  0  0  0  0999 V2000
   -3.1959   -2.5708    0.1456 S   0  0  0  0  0  1  0  0  0  0  0  0
   -4.0542    0.3146   -0.6480 S   0  0  0  0  0  1  0  0  0  0  0  0
   -0.7867   -1.7629   -1.4228 O   0  0  0  0  0  0  0  0  0  0  0  0
   -0.5292    0.8035   -0.9815 O   0  0  0  0  0  0  0  0  0  0  0  0
   -2.0366    1.2075    1.2633 O   0  0  0  0  0  0  0  0  0  0  0  0
   -0.8725   -1.0444    1.4800 O   0  0  0  0  0  1  0  0  0  0  0  0
    2.9272    3.2391   -1.0518 O   0  0  0  0  0  0  0  0  0  0  0  0
    2.6555    2.1002    1.7692 O   0  0  0  0  0  0  0  0  0  0  0  0
    3.4602   -1.5911    1.2312 O   0  0  0  0  0  0  0  0  0  0  0  0
    3.3010   -0.6053   -1.6183 O   0  0  0  0  0  0  0  0  0  0  0  0
    1.0871    1.1445   -2.5375 N   0  0  0  0  0  0  0  0  0  0  0  0
    0.9533   -0.3447    2.6218 N   0  0  0  0  0  0  0  0  0  0  0  0
   -1.7529   -3.5283   -0.1886 C   0  0  0  0  0  0  0  0  0  0  0  0
   -1.6646   -4.8489    0.3064 C   0  0  0  0  0  0  0  0  0  0  0  0
   -2.4765   -5.2060    0.9583 H   0  0  0  0  0  0  0  0  0  0  0  0
   -0.5882   -5.6913   -0.0136 C   0  0  0  0  0  0  0  0  0  0  0  0
   -0.5600   -6.7165    0.3861 H   0  0  0  0  0  0  0  0  0  0  0  0
    0.4417   -5.2239   -0.8416 C   0  0  0  0  0  0  0  0  0  0  0  0
    1.2849   -5.8766   -1.1144 H   0  0  0  0  0  0  0  0  0  0  0  0
    0.3899   -3.9083   -1.3422 C   0  0  0  0  0  0  0  0  0  0  0  0
    1.1875   -3.5552   -2.0120 H   0  0  0  0  0  0  0  0  0  0  0  0
   -0.6817   -3.0629   -1.0101 C   0  0  0  0  0  0  0  0  0  0  0  0
    0.2602   -1.1672   -2.1356 C   0  0  0  0  0  0  0  0  0  0  0  0
    0.1507   -1.3481   -3.2323 H   0  0  0  0  0  0  0  0  0  0  0  0
    1.2599   -1.5503   -1.8385 H   0  0  0  0  0  0  0  0  0  0  0  0
    0.2323    0.3341   -1.8279 C   0  0  0  0  0  0  0  0  0  0  0  0
   -3.6317    1.9904   -0.2945 C   0  0  0  0  0  0  0  0  0  0  0  0
   -4.2761    3.0782   -0.9286 C   0  0  0  0  0  0  0  0  0  0  0  0
   -5.0798    2.8594   -1.6482 H   0  0  0  0  0  0  0  0  0  0  0  0
   -3.8935    4.4032   -0.6734 C   0  0  0  0  0  0  0  0  0  0  0  0
   -4.4096    5.2241   -1.1944 H   0  0  0  0  0  0  0  0  0  0  0  0
   -2.8590    4.6881    0.2323 C   0  0  0  0  0  0  0  0  0  0  0  0
   -2.5562    5.7260    0.4336 H   0  0  0  0  0  0  0  0  0  0  0  0
   -2.2102    3.6289    0.8966 C   0  0  0  0  0  0  0  0  0  0  0  0
   -1.4103    3.8402    1.6212 H   0  0  0  0  0  0  0  0  0  0  0  0
   -2.6035    2.3169    0.6260 C   0  0  0  0  0  0  0  0  0  0  0  0
   -0.7804    1.3174    1.9165 C   0  0  0  0  0  0  0  0  0  0  0  0
   -0.9150    1.7758    2.9223 H   0  0  0  0  0  0  0  0  0  0  0  0
   -0.0773    1.9474    1.3323 H   0  0  0  0  0  0  0  0  0  0  0  0
   -0.2331   -0.1015    2.0071 C   0  0  1  0  0  3  0  0  0  0  0  0
    0.9511    2.5815   -2.2892 C   0  0  0  0  0  0  0  0  0  0  0  0
   -0.1319    2.8175   -2.2916 H   0  0  0  0  0  0  0  0  0  0  0  0
    1.4362    3.1293   -3.1224 H   0  0  0  0  0  0  0  0  0  0  0  0
    1.5153    3.0733   -0.9631 C   0  0  0  0  0  0  0  0  0  0  0  0
    1.0351    4.0502   -0.7100 H   0  0  0  0  0  0  0  0  0  0  0  0
    1.2512    2.3529   -0.1630 H   0  0  0  0  0  0  0  0  0  0  0  0
    3.5200    3.6980    0.1460 C   0  0  0  0  0  0  0  0  0  0  0  0
    2.8864    4.4830    0.6259 H   0  0  0  0  0  0  0  0  0  0  0  0
    4.4839    4.1720   -0.1374 H   0  0  0  0  0  0  0  0  0  0  0  0
    3.8314    2.6131    1.1668 C   0  0  0  0  0  0  0  0  0  0  0  0
    4.4058    1.7916    0.6729 H   0  0  0  0  0  0  0  0  0  0  0  0
    4.5028    3.0543    1.9477 H   0  0  0  0  0  0  0  0  0  0  0  0
    2.9605    1.1776    2.8005 C   0  0  0  0  0  0  0  0  0  0  0  0
    3.5479    1.6836    3.6079 H   0  0  0  0  0  0  0  0  0  0  0  0
    3.5701    0.3314    2.4081 H   0  0  0  0  0  0  0  0  0  0  0  0
    1.6779    0.6397    3.4192 C   0  0  0  0  0  0  0  0  0  0  0  0
    1.9381    0.1660    4.3905 H   0  0  0  0  0  0  0  0  0  0  0  0
    1.0085    1.4899    3.6532 H   0  0  0  0  0  0  0  0  0  0  0  0
    1.4459   -1.7280    2.5526 C   0  0  0  0  0  0  0  0  0  0  0  0
    0.5772   -2.4033    2.6796 H   0  0  0  0  0  0  0  0  0  0  0  0
    2.1518   -1.8882    3.3916 H   0  0  0  0  0  0  0  0  0  0  0  0
    2.1288   -2.0910    1.2388 C   0  0  0  0  0  0  0  0  0  0  0  0
    2.1285   -3.2018    1.1396 H   0  0  0  0  0  0  0  0  0  0  0  0
    1.5315   -1.6956    0.3895 H   0  0  0  0  0  0  0  0  0  0  0  0
    4.2492   -1.9940    0.1236 C   0  0  0  0  0  0  0  0  0  0  0  0
    3.8004   -2.8799   -0.3812 H   0  0  0  0  0  0  0  0  0  0  0  0
    5.2462   -2.3016    0.5115 H   0  0  0  0  0  0  0  0  0  0  0  0
    4.4809   -0.8915   -0.8970 C   0  0  0  0  0  0  0  0  0  0  0  0
    4.8538    0.0242   -0.3749 H   0  0  0  0  0  0  0  0  0  0  0  0
    5.2964   -1.2210   -1.5909 H   0  0  0  0  0  0  0  0  0  0  0  0
    3.4850    0.4103   -2.5931 C   0  0  0  0  0  0  0  0  0  0  0  0
    4.2781    0.1116   -3.3238 H   0  0  0  0  0  0  0  0  0  0  0  0
    3.7978    1.3633   -2.1075 H   0  0  0  0  0  0  0  0  0  0  0  0
    2.1804    0.6374   -3.3543 C   0  0  0  0  0  0  0  0  0  0  0  0
    2.3801    1.3660   -4.1673 H   0  0  0  0  0  0  0  0  0  0  0  0
    1.8689   -0.3049   -3.8480 H   0  0  0  0  0  0  0  0  0  0  0  0
  2 27  1  0  0  0  0
  3 22  1  0  0  0  0
  5 37  1  0  0  0  0
  7 44  1  0  0  0  0
  7 47  1  0  0  0  0
  8 53  1  0  0  0  0
  9 62  1  0  0  0  0
 10 68  1  0  0  0  0
 11 41  1  0  0  0  0
 11 26  1  0  0  0  0
 12 56  1  0  0  0  0
 13  1  1  0  0  0  0
 13 14  1  0  0  0  0
 14 15  1  0  0  0  0
 16 14  2  0  0  0  0
 16 17  1  0  0  0  0
 18 16  1  0  0  0  0
 19 18  1  0  0  0  0
 20 22  1  0  0  0  0
 20 18  2  0  0  0  0
 21 20  1  0  0  0  0
 22 13  2  0  0  0  0
 23 25  1  0  0  0  0
 23 26  1  0  0  0  0
 23  3  1  0  0  0  0
 24 23  1  0  0  0  0
 26  4  2  0  0  0  0
 27 36  1  0  0  0  0
 28 30  1  0  0  0  0
 28 27  2  0  0  0  0
 29 28  1  0  0  0  0
 30 32  2  0  0  0  0
 31 30  1  0  0  0  0
 32 33  1  0  0  0  0
 32 34  1  0  0  0  0
 34 35  1  0  0  0  0
 36 34  2  0  0  0  0
 36  5  1  0  0  0  0
 37 40  1  0  0  0  0
 37 38  1  0  0  0  0
 39 37  1  0  0  0  0
 40  6  1  6  0  0  0
 40 12  1  0  0  0  0
 41 44  1  0  0  0  0
 42 41  1  0  0  0  0
 43 41  1  0  0  0  0
 44 45  1  0  0  0  0
 44 46  1  0  0  0  0
 47 48  1  0  0  0  0
 47 50  1  0  0  0  0
 49 47  1  0  0  0  0
 50  8  1  0  0  0  0
 50 52  1  0  0  0  0
 51 50  1  0  0  0  0
 53 56  1  0  0  0  0
 53 54  1  0  0  0  0
 55 53  1  0  0  0  0
 56 58  1  0  0  0  0
 56 57  1  0  0  0  0
 59 12  1  0  0  0  0
 59 60  1  0  0  0  0
 59 61  1  0  0  0  0
 62 59  1  0  0  0  0
 63 62  1  0  0  0  0
 64 62  1  0  0  0  0
 65 67  1  0  0  0  0
 65  9  1  0  0  0  0
 66 65  1  0  0  0  0
 68 69  1  0  0  0  0
 68 65  1  0  0  0  0
 70 68  1  0  0  0  0
 71 73  1  0  0  0  0
 71 10  1  0  0  0  0
 72 71  1  0  0  0  0
 74 71  1  0  0  0  0
 74 11  1  0  0  0  0
 75 74  1  0  0  0  0
 76 74  1  0  0  0  0
M  END
