1,2,3
 OpenBabel05122313063D

 29 28  0  0  0  0  0  0  0  0999 V2000
   -0.7918    2.2202   -0.8188 S   0  0  0  0  0  0  0  0  0  0  0  0
    1.1741   -0.1905    0.7684 S   0  0  0  0  0  0  0  0  0  0  0  0
   -1.5649    0.6718    1.5192 O   0  0  0  0  0  1  0  0  0  0  0  0
    4.2431   -0.4655   -0.2230 O   0  0  0  0  0  0  0  0  0  0  0  0
    1.0437    2.0837   -0.9765 C   0  0  0  0  0  0  0  0  0  0  0  0
    1.1360    1.4892   -1.9089 H   0  0  0  0  0  0  0  0  0  0  0  0
    1.4417    3.0996   -1.1789 H   0  0  0  0  0  0  0  0  0  0  0  0
    1.8174    1.4410    0.1641 C   0  0  0  0  0  0  0  0  0  0  0  0
    1.8243    2.0885    1.0636 H   0  0  0  0  0  0  0  0  0  0  0  0
    2.8704    1.2549   -0.1276 H   0  0  0  0  0  0  0  0  0  0  0  0
   -1.1115    2.9431    0.8306 C   0  0  0  0  0  0  0  0  0  0  0  0
   -0.4375    3.8057    1.0073 H   0  0  0  0  0  0  0  0  0  0  0  0
   -2.1449    3.3304    0.7249 H   0  0  0  0  0  0  0  0  0  0  0  0
   -1.0478    1.8859    1.9557 C   0  0  0  0  0  0  0  0  0  0  0  0
    0.0052    1.7599    2.3099 H   0  0  0  0  0  0  0  0  0  0  0  0
   -1.6330    2.2544    2.8288 H   0  0  0  0  0  0  0  0  0  0  0  0
    2.0382   -1.4059   -0.2958 C   0  0  0  0  0  0  0  0  0  0  0  0
    1.4459   -2.3297   -0.1321 H   0  0  0  0  0  0  0  0  0  0  0  0
    1.9028   -1.1051   -1.3534 H   0  0  0  0  0  0  0  0  0  0  0  0
    3.4931   -1.6280    0.0669 C   0  0  0  0  0  0  0  0  0  0  0  0
    3.5860   -1.9025    1.1467 H   0  0  0  0  0  0  0  0  0  0  0  0
    3.8722   -2.5002   -0.5242 H   0  0  0  0  0  0  0  0  0  0  0  0
    5.6200   -0.5860    0.1012 C   0  0  0  0  0  0  0  0  0  0  0  0
    6.0686   -1.4418   -0.4620 H   0  0  0  0  0  0  0  0  0  0  0  0
    5.7383   -0.8236    1.1878 H   0  0  0  0  0  0  0  0  0  0  0  0
    6.3247    0.7116   -0.2465 C   0  0  0  0  0  0  0  0  0  0  0  0
    7.4066    0.6377   -0.0210 H   0  0  0  0  0  0  0  0  0  0  0  0
    5.9070    1.5563    0.3373 H   0  0  0  0  0  0  0  0  0  0  0  0
    6.2084    0.9426   -1.3241 H   0  0  0  0  0  0  0  0  0  0  0  0
  1 11  1  0  0  0  0
  3 14  1  0  0  0  0
  4 20  1  0  0  0  0
  4 23  1  0  0  0  0
  5  1  1  0  0  0  0
  5  8  1  0  0  0  0
  6  5  1  0  0  0  0
  7  5  1  0  0  0  0
  8  2  1  0  0  0  0
  8  9  1  0  0  0  0
 10  8  1  0  0  0  0
 11 12  1  0  0  0  0
 11 14  1  0  0  0  0
 13 11  1  0  0  0  0
 14 15  1  0  0  0  0
 14 16  1  0  0  0  0
 17 18  1  0  0  0  0
 17 20  1  0  0  0  0
 17  2  1  0  0  0  0
 19 17  1  0  0  0  0
 20 21  1  0  0  0  0
 22 20  1  0  0  0  0
 23 25  1  0  0  0  0
 24 23  1  0  0  0  0
 26 27  1  0  0  0  0
 26 23  1  0  0  0  0
 26 28  1  0  0  0  0
 29 26  1  0  0  0  0
M  END
