1,4,11,33,46
 OpenBabel05122313063D

 68 76  0  0  1  0  0  0  0  0999 V2000
   -1.5182    2.2411   -0.6258 P   0  0  2  0  0  0  0  0  0  0  0  0
    2.8644   -0.8379    0.8134 P   0  0  1  0  0  0  0  0  0  0  0  0
   -2.7316   -3.0047   -0.1142 P   0  0  0  0  0  0  0  0  0  0  0  0
    0.0586   -0.9794    1.8493 O   0  0  0  0  0  1  0  0  0  0  0  0
   -0.2170   -3.1996    1.5630 O   0  0  0  0  0  0  0  0  0  0  0  0
   -1.3393   -2.6150   -0.9270 O   0  0  0  0  0  0  0  0  0  0  0  0
   -2.8881   -2.4015    1.2451 O   0  0  0  0  0  0  0  0  0  0  0  0
   -2.7065   -4.6105   -0.1334 O   0  0  0  0  0  0  0  0  0  0  0  0
   -3.8581   -2.6517   -1.2176 O   0  0  0  0  0  0  0  0  0  0  0  0
   -3.0057    1.9044    0.3431 C   0  0  0  0  0  0  0  0  0  0  0  0
   -2.4121    0.8036    1.1404 C   0  0  0  0  0  3  0  0  0  0  0  0
   -3.3967    0.2564    1.8933 C   0  0  0  0  0  3  0  0  0  0  0  0
   -4.6769    0.4820    2.0181 C   0  0  0  0  0  3  0  0  0  0  0  0
   -4.9482    1.5220    1.2311 C   0  0  0  0  0  3  0  0  0  0  0  0
   -4.3563    2.2925    0.3528 C   0  0  0  0  0  3  0  0  0  0  0  0
   -0.8804    3.8971   -0.8329 C   0  0  0  0  0  0  0  0  0  0  0  0
    0.5841    4.0628   -0.7091 C   0  0  0  0  0  0  0  0  0  0  0  0
    0.9398    5.3981   -0.9146 C   0  0  0  0  0  3  0  0  0  0  0  0
    0.1838    6.4178   -1.1389 C   0  0  0  0  0  3  0  0  0  0  0  0
   -1.1062    6.0898   -1.2261 C   0  0  0  0  0  3  0  0  0  0  0  0
   -1.7458    4.9733   -1.0895 C   0  0  0  0  0  3  0  0  0  0  0  0
   -1.6996    1.2947   -2.1753 C   0  0  0  0  0  0  0  0  0  0  0  0
   -2.4580    1.7083   -3.2795 C   0  0  0  0  0  3  0  0  0  0  0  0
   -2.6843    0.6967   -4.0625 C   0  0  0  0  0  3  0  0  0  0  0  0
   -2.3794   -0.6008   -4.0804 C   0  0  0  0  0  3  0  0  0  0  0  0
   -1.6675   -0.8981   -3.0393 C   0  0  0  0  0  3  0  0  0  0  0  0
   -1.2110   -0.0911   -2.0113 C   0  0  0  0  0  0  0  0  0  0  0  0
    2.6901    0.8655    0.0807 C   0  0  0  0  0  0  0  0  0  0  0  0
    4.0160    1.3101   -0.3297 C   0  0  0  0  0  0  0  0  0  0  0  0
    3.9936    2.6262   -0.7843 C   0  0  0  0  0  3  0  0  0  0  0  0
    2.9414    3.3310   -0.8105 C   0  0  0  0  0  3  0  0  0  0  0  0
    1.6126    3.0251   -0.4926 C   0  0  0  0  0  0  0  0  0  0  0  0
    1.5333    1.6797    0.0377 C   0  0  0  0  0  3  0  0  0  0  0  0
    2.3292   -2.0050   -0.5352 C   0  0  0  0  0  0  0  0  0  0  0  0
    3.2562   -2.7352   -1.2726 C   0  0  0  0  0  0  0  0  0  0  0  0
    3.6784   -3.6517   -2.1388 C   0  0  0  0  0  3  0  0  0  0  0  0
    2.3227   -3.8144   -2.2280 C   0  0  0  0  0  0  0  0  0  0  0  0
    1.0899   -3.5409   -1.9102 C   0  0  0  0  0  3  0  0  0  0  0  0
    1.0423   -2.4972   -0.9403 C   0  0  0  0  0  0  0  0  0  0  0  0
    4.6494   -0.8936    0.3631 C   0  0  0  0  0  0  0  0  0  0  0  0
    5.0885    0.3353   -0.1955 C   0  0  0  0  0  0  0  0  0  0  0  0
    6.4403    0.5042   -0.5493 C   0  0  0  0  0  0  0  0  0  0  0  0
    7.3337   -0.5598   -0.3636 C   0  0  0  0  0  0  0  0  0  0  0  0
    6.8953   -1.7798    0.1870 C   0  0  0  0  0  0  0  0  0  0  0  0
    5.5534   -1.9485    0.5681 C   0  0  0  0  0  0  0  0  0  0  0  0
   -0.2731   -0.3955   -0.9030 C   0  0  0  0  0  3  0  0  0  0  0  0
   -0.2483   -1.8734   -0.4132 C   0  0  1  0  0  0  0  0  0  0  0  0
   -0.1566   -1.9591    1.1297 C   0  0  2  0  0  3  0  0  0  0  0  0
   -0.3774   -3.4073    2.9999 C   0  0  0  0  0  0  0  0  0  0  0  0
   -0.7395   -4.8609    3.1988 C   0  0  0  0  0  0  0  0  0  0  0  0
   -2.3310   -5.3468   -1.3127 C   0  0  0  0  0  0  0  0  0  0  0  0
   -4.5732   -1.4013   -1.1433 C   0  0  0  0  0  0  0  0  0  0  0  0
    6.7768    1.4637   -0.9706 H   0  0  0  0  0  0  0  0  0  0  0  0
    8.3903   -0.4394   -0.6458 H   0  0  0  0  0  0  0  0  0  0  0  0
    7.6101   -2.6034    0.3318 H   0  0  0  0  0  0  0  0  0  0  0  0
    5.2210   -2.8944    1.0228 H   0  0  0  0  0  0  0  0  0  0  0  0
    0.7351   -0.1437   -1.2834 H   0  0  0  0  0  0  0  0  0  0  0  0
    0.5714   -3.1152    3.4942 H   0  0  0  0  0  0  0  0  0  0  0  0
   -1.1786   -2.7208    3.3379 H   0  0  0  0  0  0  0  0  0  0  0  0
   -0.9011   -5.0596    4.2764 H   0  0  0  0  0  0  0  0  0  0  0  0
    0.0656   -5.5311    2.8382 H   0  0  0  0  0  0  0  0  0  0  0  0
   -1.6720   -5.0991    2.6511 H   0  0  0  0  0  0  0  0  0  0  0  0
   -2.3778   -6.4164   -1.0387 H   0  0  0  0  0  0  0  0  0  0  0  0
   -1.3012   -5.0781   -1.6276 H   0  0  0  0  0  0  0  0  0  0  0  0
   -3.0413   -5.1434   -2.1398 H   0  0  0  0  0  0  0  0  0  0  0  0
   -5.2611   -1.3877   -2.0077 H   0  0  0  0  0  0  0  0  0  0  0  0
   -3.8864   -0.5332   -1.2091 H   0  0  0  0  0  0  0  0  0  0  0  0
   -5.1473   -1.3361   -0.1988 H   0  0  0  0  0  0  0  0  0  0  0  0
  1 10  1  6  0  0  0
  2 34  1  6  0  0  0
  3  7  2  0  0  0  0
  5 49  1  0  0  0  0
  6  3  1  0  0  0  0
  8  3  1  0  0  0  0
  9 52  1  0  0  0  0
  9  3  1  0  0  0  0
 10 15  2  0  0  0  0
 10 11  1  0  0  0  0
 11 12  2  0  0  0  0
 12 13  1  0  0  0  0
 14 13  2  0  0  0  0
 15 14  1  0  0  0  0
 16 17  1  0  0  0  0
 16  1  1  0  0  0  0
 17 32  1  0  0  0  0
 18 17  2  0  0  0  0
 19 18  1  0  0  0  0
 20 19  2  0  0  0  0
 20 21  1  0  0  0  0
 21 16  2  0  0  0  0
 22 27  1  0  0  0  0
 22  1  1  0  0  0  0
 23 22  2  0  0  0  0
 24 23  1  0  0  0  0
 25 24  2  0  0  0  0
 25 26  1  0  0  0  0
 26 27  2  0  0  0  0
 27 46  1  0  0  0  0
 28  2  1  0  0  0  0
 29 41  1  0  0  0  0
 29 28  2  0  0  0  0
 30 29  1  0  0  0  0
 31 30  2  0  0  0  0
 31 32  1  0  0  0  0
 32 33  2  0  0  0  0
 33 28  1  0  0  0  0
 35 34  2  3  0  0  0
 36 35  1  0  0  0  0
 37 36  2  3  0  0  0
 37 38  1  0  0  0  0
 37 35  1  0  0  0  0
 38 39  2  0  0  0  0
 39 34  1  0  0  0  0
 39 47  1  0  0  0  0
 40 45  1  0  0  0  0
 40  2  1  0  0  0  0
 41 40  2  0  0  0  0
 42 43  2  0  0  0  0
 42 41  1  0  0  0  0
 43 44  1  0  0  0  0
 44 55  1  0  0  0  0
 44 45  2  0  0  0  0
 45 56  1  0  0  0  0
 46 47  1  0  0  0  0
 47  6  1  6  0  0  0
 47 48  1  0  0  0  0
 48  5  1  0  0  0  0
 48  4  1  6  0  0  0
 49 50  1  0  0  0  0
 49 59  1  0  0  0  0
 49 58  1  0  0  0  0
 50 60  1  0  0  0  0
 51 63  1  0  0  0  0
 51  8  1  0  0  0  0
 52 68  1  0  0  0  0
 53 42  1  0  0  0  0
 54 43  1  0  0  0  0
 57 46  1  0  0  0  0
 61 50  1  0  0  0  0
 62 50  1  0  0  0  0
 64 51  1  0  0  0  0
 65 51  1  0  0  0  0
 66 52  1  0  0  0  0
 67 52  1  0  0  0  0
M  END
