1,2
 OpenBabel05122313063D

 42 44  0  0  0  0  0  0  0  0999 V2000
   -0.7379    0.0970    0.0100 P   0  0  0  0  0  0  0  0  0  0  0  0
    0.7723   -2.0181   -1.5187 Si  0  0  0  0  0  3  0  0  0  0  0  0
   -1.1676    0.2402    1.8135 C   0  0  0  0  0  0  0  0  0  0  0  0
   -1.5942   -0.8648    2.5779 C   0  0  0  0  0  0  0  0  0  0  0  0
   -1.7924   -1.8263    2.0815 H   0  0  0  0  0  0  0  0  0  0  0  0
   -1.7659   -1.3925   -0.4921 C   0  0  0  0  0  0  0  0  0  0  0  0
   -1.8025    1.4743   -0.6782 C   0  0  0  0  0  0  0  0  0  0  0  0
   -1.7522   -3.6127   -1.4776 C   0  0  0  0  0  0  0  0  0  0  0  0
   -1.2181   -4.4412   -1.9717 H   0  0  0  0  0  0  0  0  0  0  0  0
   -0.9584    1.4721    2.4723 C   0  0  0  0  0  0  0  0  0  0  0  0
   -0.6337    2.3470    1.8915 H   0  0  0  0  0  0  0  0  0  0  0  0
   -1.4549    1.9904   -1.9423 C   0  0  0  0  0  0  0  0  0  0  0  0
   -0.5705    1.5853   -2.4538 H   0  0  0  0  0  0  0  0  0  0  0  0
   -1.1621    1.5941    3.8536 C   0  0  0  0  0  0  0  0  0  0  0  0
   -0.9987    2.5655    4.3452 H   0  0  0  0  0  0  0  0  0  0  0  0
    0.7320   -0.7705   -3.0036 C   0  0  0  0  0  0  0  0  0  0  0  0
    1.4937   -1.0495   -3.7566 H   0  0  0  0  0  0  0  0  0  0  0  0
    1.0165    0.2837   -2.6922 H   0  0  0  0  0  0  0  0  0  0  0  0
   -0.2738   -0.6908   -3.4590 H   0  0  0  0  0  0  0  0  0  0  0  0
   -3.1238   -3.7433   -1.2076 C   0  0  0  0  0  0  0  0  0  0  0  0
   -3.6544   -4.6699   -1.4779 H   0  0  0  0  0  0  0  0  0  0  0  0
   -3.8251   -2.6849   -0.6042 C   0  0  0  0  0  0  0  0  0  0  0  0
   -4.9035   -2.7796   -0.4029 H   0  0  0  0  0  0  0  0  0  0  0  0
   -2.9333    2.0046   -0.0227 C   0  0  0  0  0  0  0  0  0  0  0  0
   -3.2206    1.6268    0.9699 H   0  0  0  0  0  0  0  0  0  0  0  0
   -1.0542   -2.4351   -1.1358 C   0  0  0  0  0  0  0  0  0  0  0  0
    1.7154   -3.5931   -2.0018 C   0  0  0  0  0  0  0  0  0  0  0  0
    1.2220   -4.1348   -2.8364 H   0  0  0  0  0  0  0  0  0  0  0  0
    1.7969   -4.2983   -1.1489 H   0  0  0  0  0  0  0  0  0  0  0  0
    2.7431   -3.3272   -2.3223 H   0  0  0  0  0  0  0  0  0  0  0  0
   -3.6903    3.0267   -0.6180 C   0  0  0  0  0  0  0  0  0  0  0  0
   -4.5663    3.4334   -0.0892 H   0  0  0  0  0  0  0  0  0  0  0  0
   -1.5671    0.4799    4.6088 C   0  0  0  0  0  0  0  0  0  0  0  0
   -1.7197    0.5717    5.6949 H   0  0  0  0  0  0  0  0  0  0  0  0
   -1.7836   -0.7474    3.9651 C   0  0  0  0  0  0  0  0  0  0  0  0
   -2.1113   -1.6245    4.5443 H   0  0  0  0  0  0  0  0  0  0  0  0
   -3.3343    3.5304   -1.8789 C   0  0  0  0  0  0  0  0  0  0  0  0
   -3.9281    4.3328   -2.3425 H   0  0  0  0  0  0  0  0  0  0  0  0
   -3.1481   -1.5067   -0.2526 C   0  0  0  0  0  0  0  0  0  0  0  0
   -3.6995   -0.6818    0.2247 H   0  0  0  0  0  0  0  0  0  0  0  0
   -2.2140    3.0053   -2.5429 C   0  0  0  0  0  0  0  0  0  0  0  0
   -1.9253    3.3915   -3.5328 H   0  0  0  0  0  0  0  0  0  0  0  0
  1  3  1  0  0  0  0
  2 26  1  0  0  0  0
  3 10  2  0  0  0  0
  3  4  1  0  0  0  0
  4 35  2  0  0  0  0
  5  4  1  0  0  0  0
  6 39  1  0  0  0  0
  6  1  1  0  0  0  0
  7 24  1  0  0  0  0
  7  1  1  0  0  0  0
  8 20  2  0  0  0  0
  8 26  1  0  0  0  0
  9  8  1  0  0  0  0
 10 14  1  0  0  0  0
 11 10  1  0  0  0  0
 12  7  2  0  0  0  0
 13 12  1  0  0  0  0
 14 15  1  0  0  0  0
 14 33  2  0  0  0  0
 16 18  1  0  0  0  0
 16  2  1  0  0  0  0
 17 16  1  0  0  0  0
 19 16  1  0  0  0  0
 20 22  1  0  0  0  0
 21 20  1  0  0  0  0
 22 23  1  0  0  0  0
 22 39  2  0  0  0  0
 24 25  1  0  0  0  0
 26  6  2  0  0  0  0
 27  2  1  0  0  0  0
 27 29  1  0  0  0  0
 28 27  1  0  0  0  0
 30 27  1  0  0  0  0
 31 32  1  0  0  0  0
 31 24  2  0  0  0  0
 33 34  1  0  0  0  0
 35 36  1  0  0  0  0
 35 33  1  0  0  0  0
 37 31  1  0  0  0  0
 38 37  1  0  0  0  0
 39 40  1  0  0  0  0
 41 12  1  0  0  0  0
 41 37  2  0  0  0  0
 42 41  1  0  0  0  0
M  END
