1,2
 OpenBabel05122313063D

 35 36  0  0  0  0  0  0  0  0999 V2000
    1.9151    0.3242   -0.6642 P   0  0  0  0  0  0  0  0  0  0  0  0
    2.1163   -2.1498   -1.9126 Si  0  0  0  0  0  3  0  0  0  0  0  0
    2.8736   -0.3601   -2.0888 C   0  0  0  0  0  0  0  0  0  0  0  0
    1.8549   -2.9408   -3.6135 C   0  0  0  0  0  0  0  0  0  0  0  0
    3.3457   -3.1996   -0.9155 C   0  0  0  0  0  0  0  0  0  0  0  0
    1.5395    2.1012   -0.9781 C   0  0  0  0  0  0  0  0  0  0  0  0
    0.5354    2.3935   -1.9253 C   0  0  0  0  0  0  0  0  0  0  0  0
    0.1238    3.7159   -2.1378 C   0  0  0  0  0  0  0  0  0  0  0  0
    0.7131    4.7614   -1.4063 C   0  0  0  0  0  0  0  0  0  0  0  0
    1.7234    4.4776   -0.4730 C   0  0  0  0  0  0  0  0  0  0  0  0
    2.1375    3.1533   -0.2565 C   0  0  0  0  0  0  0  0  0  0  0  0
    3.0456    0.3660    0.7823 C   0  0  0  0  0  0  0  0  0  0  0  0
    2.4792    0.2687    2.0698 C   0  0  0  0  0  0  0  0  0  0  0  0
    3.2947    0.3345    3.2080 C   0  0  0  0  0  0  0  0  0  0  0  0
    4.6844    0.4829    3.0720 C   0  0  0  0  0  0  0  0  0  0  0  0
    5.2557    0.5740    1.7925 C   0  0  0  0  0  0  0  0  0  0  0  0
    4.4402    0.5217    0.6512 C   0  0  0  0  0  0  0  0  0  0  0  0
    2.4468    0.1091   -3.0000 H   0  0  0  0  0  0  0  0  0  0  0  0
    3.9684   -0.1850   -2.0784 H   0  0  0  0  0  0  0  0  0  0  0  0
    1.2202   -2.2935   -4.2507 H   0  0  0  0  0  0  0  0  0  0  0  0
    2.8197   -3.1207   -4.1327 H   0  0  0  0  0  0  0  0  0  0  0  0
    1.3352   -3.9146   -3.5015 H   0  0  0  0  0  0  0  0  0  0  0  0
    2.9074   -4.1873   -0.6642 H   0  0  0  0  0  0  0  0  0  0  0  0
    4.2836   -3.3735   -1.4845 H   0  0  0  0  0  0  0  0  0  0  0  0
    3.6046   -2.6959    0.0380 H   0  0  0  0  0  0  0  0  0  0  0  0
    0.0460    1.5690   -2.4655 H   0  0  0  0  0  0  0  0  0  0  0  0
   -0.6794    3.9242   -2.8610 H   0  0  0  0  0  0  0  0  0  0  0  0
    0.3811    5.7994   -1.5611 H   0  0  0  0  0  0  0  0  0  0  0  0
    2.1897    5.2939    0.1002 H   0  0  0  0  0  0  0  0  0  0  0  0
    2.9125    2.9339    0.4929 H   0  0  0  0  0  0  0  0  0  0  0  0
    1.3924    0.1392    2.1767 H   0  0  0  0  0  0  0  0  0  0  0  0
    2.8366    0.2612    4.2059 H   0  0  0  0  0  0  0  0  0  0  0  0
    5.3261    0.5228    3.9655 H   0  0  0  0  0  0  0  0  0  0  0  0
    6.3450    0.6865    1.6805 H   0  0  0  0  0  0  0  0  0  0  0  0
    4.8962    0.6036   -0.3469 H   0  0  0  0  0  0  0  0  0  0  0  0
  1 12  1  0  0  0  0
  2  5  1  0  0  0  0
  3 19  1  0  0  0  0
  3  2  1  0  0  0  0
  3  1  1  0  0  0  0
  4 22  1  0  0  0  0
  4  2  1  0  0  0  0
  5 23  1  0  0  0  0
  5 25  1  0  0  0  0
  6  1  1  0  0  0  0
  6 11  1  0  0  0  0
  7  6  2  0  0  0  0
  8  7  1  0  0  0  0
  8  9  2  0  0  0  0
  9 10  1  0  0  0  0
 10 11  2  0  0  0  0
 10 29  1  0  0  0  0
 11 30  1  0  0  0  0
 12 13  1  0  0  0  0
 13 31  1  0  0  0  0
 13 14  2  0  0  0  0
 14 32  1  0  0  0  0
 15 14  1  0  0  0  0
 15 33  1  0  0  0  0
 16 15  2  0  0  0  0
 17 12  2  0  0  0  0
 17 16  1  0  0  0  0
 18  3  1  0  0  0  0
 20  4  1  0  0  0  0
 21  4  1  0  0  0  0
 24  5  1  0  0  0  0
 26  7  1  0  0  0  0
 27  8  1  0  0  0  0
 28  9  1  0  0  0  0
 34 16  1  0  0  0  0
 35 17  1  0  0  0  0
M  END
