1,2
 OpenBabel05122313063D

 61 62  0  0  0  0  0  0  0  0999 V2000
   -1.8425    1.0267    0.1140 P   0  0  0  0  0  0  0  0  0  0  0  0
    1.1432    0.2720   -0.7036 Si  0  0  2  0  0  3  0  0  0  0  0  0
    4.3703    0.9937   -0.7645 N   0  0  0  0  0  0  0  0  0  0  0  0
    1.6160    0.1929   -2.5486 C   0  0  0  0  0  0  0  0  0  0  0  0
    2.3919    0.9447   -2.7927 H   0  0  0  0  0  0  0  0  0  0  0  0
    0.7002    0.4393   -3.1233 H   0  0  0  0  0  0  0  0  0  0  0  0
    1.9645   -0.8014   -2.8884 H   0  0  0  0  0  0  0  0  0  0  0  0
    0.6687    2.1065   -0.4532 C   0  0  0  0  0  0  0  0  0  0  0  0
   -0.6616    2.4431   -0.1079 C   0  0  0  0  0  0  0  0  0  0  0  0
   -1.0281    3.8049    0.0089 C   0  0  0  0  0  0  0  0  0  0  0  0
   -2.0538    4.0921    0.2677 H   0  0  0  0  0  0  0  0  0  0  0  0
   -0.0824    4.8177   -0.2018 C   0  0  0  0  0  0  0  0  0  0  0  0
   -0.3843    5.8718   -0.1046 H   0  0  0  0  0  0  0  0  0  0  0  0
    1.2418    4.4871   -0.5334 C   0  0  0  0  0  0  0  0  0  0  0  0
    1.9854    5.2829   -0.6968 H   0  0  0  0  0  0  0  0  0  0  0  0
    1.6077    3.1411   -0.6599 C   0  0  0  0  0  0  0  0  0  0  0  0
    2.6414    2.8692   -0.9274 H   0  0  0  0  0  0  0  0  0  0  0  0
    2.5546    0.0018    0.5815 C   0  0  0  0  0  0  0  0  0  0  0  0
    3.8874    0.4959    0.4881 C   0  0  0  0  0  0  0  0  0  0  0  0
    4.7190    0.4979    1.6297 C   0  0  0  0  0  0  0  0  0  0  0  0
    5.7451    0.8862    1.5556 H   0  0  0  0  0  0  0  0  0  0  0  0
    4.2646   -0.0038    2.8583 C   0  0  0  0  0  0  0  0  0  0  0  0
    4.9323    0.0095    3.7339 H   0  0  0  0  0  0  0  0  0  0  0  0
    2.9695   -0.5277    2.9595 C   0  0  0  0  0  0  0  0  0  0  0  0
    2.5983   -0.9250    3.9166 H   0  0  0  0  0  0  0  0  0  0  0  0
    2.1366   -0.5149    1.8292 C   0  0  0  0  0  0  0  0  0  0  0  0
    1.0982   -0.8807    1.9114 H   0  0  0  0  0  0  0  0  0  0  0  0
    4.7462   -0.0564   -1.7040 C   0  0  0  0  0  0  0  0  0  0  0  0
    4.8332    0.3567   -2.7305 H   0  0  0  0  0  0  0  0  0  0  0  0
    3.9795   -0.8498   -1.7156 H   0  0  0  0  0  0  0  0  0  0  0  0
    5.7261   -0.5294   -1.4355 H   0  0  0  0  0  0  0  0  0  0  0  0
    5.3700    2.0452   -0.7075 C   0  0  0  0  0  0  0  0  0  0  0  0
    5.4653    2.5084   -1.7118 H   0  0  0  0  0  0  0  0  0  0  0  0
    6.3920    1.6907   -0.4138 H   0  0  0  0  0  0  0  0  0  0  0  0
    5.0565    2.8299    0.0082 H   0  0  0  0  0  0  0  0  0  0  0  0
   -3.1445    1.2691   -1.2728 C   0  0  0  0  0  0  0  0  0  0  0  0
   -4.1216    0.0808   -1.2990 C   0  0  0  0  0  0  0  0  0  0  0  0
   -4.6920    0.1186   -2.2516 H   0  0  0  0  0  0  0  0  0  0  0  0
   -4.8533    0.1222   -0.4719 H   0  0  0  0  0  0  0  0  0  0  0  0
   -3.6028   -0.8951   -1.2301 H   0  0  0  0  0  0  0  0  0  0  0  0
   -2.3159    1.2550   -2.5733 C   0  0  0  0  0  0  0  0  0  0  0  0
   -3.0021    1.3569   -3.4404 H   0  0  0  0  0  0  0  0  0  0  0  0
   -1.7657    0.2970   -2.6763 H   0  0  0  0  0  0  0  0  0  0  0  0
   -1.5830    2.0851   -2.6148 H   0  0  0  0  0  0  0  0  0  0  0  0
   -3.9349    2.5816   -1.1685 C   0  0  0  0  0  0  0  0  0  0  0  0
   -4.6734    2.6176   -1.9979 H   0  0  0  0  0  0  0  0  0  0  0  0
   -3.2904    3.4749   -1.2676 H   0  0  0  0  0  0  0  0  0  0  0  0
   -4.5052    2.6526   -0.2214 H   0  0  0  0  0  0  0  0  0  0  0  0
   -2.5483    1.2030    1.8901 C   0  0  0  0  0  0  0  0  0  0  0  0
   -1.4488    0.6088    2.7940 C   0  0  0  0  0  0  0  0  0  0  0  0
   -1.7547    0.7165    3.8565 H   0  0  0  0  0  0  0  0  0  0  0  0
   -0.4785    1.1300    2.6622 H   0  0  0  0  0  0  0  0  0  0  0  0
   -1.2985   -0.4675    2.5769 H   0  0  0  0  0  0  0  0  0  0  0  0
   -3.8349    0.3727    2.0274 C   0  0  0  0  0  0  0  0  0  0  0  0
   -4.1011    0.3150    3.1047 H   0  0  0  0  0  0  0  0  0  0  0  0
   -3.7044   -0.6608    1.6477 H   0  0  0  0  0  0  0  0  0  0  0  0
   -4.6876    0.8491    1.5047 H   0  0  0  0  0  0  0  0  0  0  0  0
   -2.8235    2.6483    2.3332 C   0  0  0  0  0  0  0  0  0  0  0  0
   -3.2529    2.6171    3.3573 H   0  0  0  0  0  0  0  0  0  0  0  0
   -3.5618    3.1629    1.6875 H   0  0  0  0  0  0  0  0  0  0  0  0
   -1.9023    3.2586    2.3792 H   0  0  0  0  0  0  0  0  0  0  0  0
  1 49  1  0  0  0  0
  2  4  1  6  0  0  0
  2  8  1  0  0  0  0
  2 18  1  0  0  0  0
  3 32  1  0  0  0  0
  3 19  1  0  0  0  0
  5  4  1  0  0  0  0
  6  4  1  0  0  0  0
  7  4  1  0  0  0  0
  8  9  1  0  0  0  0
  9 10  2  0  0  0  0
  9  1  1  0  0  0  0
 10 11  1  0  0  0  0
 12 13  1  0  0  0  0
 12 10  1  0  0  0  0
 14 12  2  0  0  0  0
 15 14  1  0  0  0  0
 16 14  1  0  0  0  0
 16  8  2  0  0  0  0
 17 16  1  0  0  0  0
 18 26  1  0  0  0  0
 19 18  2  0  0  0  0
 19 20  1  0  0  0  0
 20 22  2  0  0  0  0
 21 20  1  0  0  0  0
 22 24  1  0  0  0  0
 22 23  1  0  0  0  0
 24 25  1  0  0  0  0
 26 27  1  0  0  0  0
 26 24  2  0  0  0  0
 28 31  1  0  0  0  0
 28  3  1  0  0  0  0
 29 28  1  0  0  0  0
 30 28  1  0  0  0  0
 32 34  1  0  0  0  0
 32 35  1  0  0  0  0
 33 32  1  0  0  0  0
 36 45  1  0  0  0  0
 36  1  1  0  0  0  0
 37 36  1  0  0  0  0
 37 40  1  0  0  0  0
 37 39  1  0  0  0  0
 38 37  1  0  0  0  0
 41 36  1  0  0  0  0
 42 41  1  0  0  0  0
 43 41  1  0  0  0  0
 44 41  1  0  0  0  0
 45 48  1  0  0  0  0
 46 45  1  0  0  0  0
 47 45  1  0  0  0  0
 49 54  1  0  0  0  0
 49 58  1  0  0  0  0
 49 50  1  0  0  0  0
 50 51  1  0  0  0  0
 52 50  1  0  0  0  0
 53 50  1  0  0  0  0
 54 55  1  0  0  0  0
 56 54  1  0  0  0  0
 57 54  1  0  0  0  0
 58 61  1  0  0  0  0
 58 59  1  0  0  0  0
 60 58  1  0  0  0  0
M  END
