1,2,3,4
 OpenBabel05122313063D

 70 74  0  0  0  0  0  0  0  0999 V2000
    0.4920   -1.1207    1.6068 S   0  0  0  0  0  0  0  0  0  0  0  0
   -0.3451   -1.3067   -1.4792 S   0  0  0  0  0  0  0  0  0  0  0  0
   -2.1576    0.2505    0.6053 P   0  0  0  0  0  0  0  0  0  0  0  0
    2.1549    0.4195   -0.7045 P   0  0  0  0  0  0  0  0  0  0  0  0
   -2.2478   -0.8463    2.1181 C   0  0  0  0  0  0  0  0  0  0  0  0
   -0.8990   -0.8933    2.8086 C   0  0  0  0  0  0  0  0  0  0  0  0
   -0.2184   -2.8068   -0.4869 C   0  0  0  0  0  0  0  0  0  0  0  0
    0.0806   -2.7200    0.8858 C   0  0  0  0  0  0  0  0  0  0  0  0
    0.1389   -3.8882    1.6670 C   0  0  0  0  0  0  0  0  0  0  0  0
   -0.1299   -5.1317    1.0785 C   0  0  0  0  0  0  0  0  0  0  0  0
   -0.4407   -5.2159   -0.2898 C   0  0  0  0  0  0  0  0  0  0  0  0
   -0.4905   -4.0554   -1.0744 C   0  0  0  0  0  0  0  0  0  0  0  0
    1.2038   -1.4772   -2.5368 C   0  0  0  0  0  0  0  0  0  0  0  0
    2.0846   -0.2428   -2.4365 C   0  0  0  0  0  0  0  0  0  0  0  0
   -3.0139    1.8040    1.0560 C   0  0  0  0  0  0  0  0  0  0  0  0
   -2.4484    3.0725    0.8297 C   0  0  0  0  0  0  0  0  0  0  0  0
   -3.1764    4.2249    1.1642 C   0  0  0  0  0  0  0  0  0  0  0  0
   -4.4596    4.1200    1.7203 C   0  0  0  0  0  0  0  0  0  0  0  0
   -5.0295    2.8541    1.9363 C   0  0  0  0  0  0  0  0  0  0  0  0
   -4.3137    1.6978    1.6011 C   0  0  0  0  0  0  0  0  0  0  0  0
   -3.2811   -0.5164   -0.6202 C   0  0  0  0  0  0  0  0  0  0  0  0
   -3.8258    0.3192   -1.6204 C   0  0  0  0  0  0  0  0  0  0  0  0
   -4.6036   -0.2306   -2.6479 C   0  0  0  0  0  0  0  0  0  0  0  0
   -4.8447   -1.6133   -2.6923 C   0  0  0  0  0  0  0  0  0  0  0  0
   -4.3012   -2.4491   -1.7045 C   0  0  0  0  0  0  0  0  0  0  0  0
   -3.5167   -1.9066   -0.6762 C   0  0  0  0  0  0  0  0  0  0  0  0
    3.0384    2.0132   -0.8434 C   0  0  0  0  0  0  0  0  0  0  0  0
    2.3457    3.2372   -0.9341 C   0  0  0  0  0  0  0  0  0  0  0  0
    3.0657    4.4294   -1.0941 C   0  0  0  0  0  0  0  0  0  0  0  0
    4.4675    4.4109   -1.1626 C   0  0  0  0  0  0  0  0  0  0  0  0
    5.1582    3.1922   -1.0696 C   0  0  0  0  0  0  0  0  0  0  0  0
    4.4499    1.9939   -0.9048 C   0  0  0  0  0  0  0  0  0  0  0  0
    3.3075   -0.6409    0.2386 C   0  0  0  0  0  0  0  0  0  0  0  0
    3.6205   -0.2340    1.5567 C   0  0  0  0  0  0  0  0  0  0  0  0
    4.4643   -1.0192    2.3511 C   0  0  0  0  0  0  0  0  0  0  0  0
    4.9977   -2.2180    1.8469 C   0  0  0  0  0  0  0  0  0  0  0  0
    4.6885   -2.6274    0.5413 C   0  0  0  0  0  0  0  0  0  0  0  0
    3.8462   -1.8427   -0.2629 C   0  0  0  0  0  0  0  0  0  0  0  0
   -3.0274   -0.4605    2.8050 H   0  0  0  0  0  0  0  0  0  0  0  0
   -2.5571   -1.8600    1.7975 H   0  0  0  0  0  0  0  0  0  0  0  0
   -0.8153   -1.7030    3.5608 H   0  0  0  0  0  0  0  0  0  0  0  0
   -0.6264    0.0719    3.2802 H   0  0  0  0  0  0  0  0  0  0  0  0
    0.4057   -3.8246    2.7328 H   0  0  0  0  0  0  0  0  0  0  0  0
   -0.0898   -6.0434    1.6923 H   0  0  0  0  0  0  0  0  0  0  0  0
   -0.6541   -6.1926   -0.7482 H   0  0  0  0  0  0  0  0  0  0  0  0
   -0.7572   -4.1120   -2.1405 H   0  0  0  0  0  0  0  0  0  0  0  0
    1.7054   -2.3988   -2.1879 H   0  0  0  0  0  0  0  0  0  0  0  0
    0.8306   -1.6383   -3.5666 H   0  0  0  0  0  0  0  0  0  0  0  0
    1.6554    0.5960   -3.0196 H   0  0  0  0  0  0  0  0  0  0  0  0
    3.1067   -0.4431   -2.8192 H   0  0  0  0  0  0  0  0  0  0  0  0
   -1.4463    3.1540    0.3924 H   0  0  0  0  0  0  0  0  0  0  0  0
   -2.7307    5.2150    0.9870 H   0  0  0  0  0  0  0  0  0  0  0  0
   -5.0233    5.0278    1.9824 H   0  0  0  0  0  0  0  0  0  0  0  0
   -6.0404    2.7654    2.3614 H   0  0  0  0  0  0  0  0  0  0  0  0
   -4.7820    0.7116    1.7478 H   0  0  0  0  0  0  0  0  0  0  0  0
   -3.6369    1.4018   -1.5913 H   0  0  0  0  0  0  0  0  0  0  0  0
   -5.0279    0.4292   -3.4192 H   0  0  0  0  0  0  0  0  0  0  0  0
   -5.4618   -2.0402   -3.4970 H   0  0  0  0  0  0  0  0  0  0  0  0
   -4.4919   -3.5325   -1.7290 H   0  0  0  0  0  0  0  0  0  0  0  0
   -3.0930   -2.5862    0.0778 H   0  0  0  0  0  0  0  0  0  0  0  0
    1.2495    3.2496   -0.8842 H   0  0  0  0  0  0  0  0  0  0  0  0
    2.5224    5.3837   -1.1609 H   0  0  0  0  0  0  0  0  0  0  0  0
    5.0260    5.3511   -1.2846 H   0  0  0  0  0  0  0  0  0  0  0  0
    6.2571    3.1718   -1.1190 H   0  0  0  0  0  0  0  0  0  0  0  0
    4.9993    1.0446   -0.8168 H   0  0  0  0  0  0  0  0  0  0  0  0
    3.1907    0.6990    1.9540 H   0  0  0  0  0  0  0  0  0  0  0  0
    4.7100   -0.6919    3.3723 H   0  0  0  0  0  0  0  0  0  0  0  0
    5.6629   -2.8317    2.4726 H   0  0  0  0  0  0  0  0  0  0  0  0
    5.1135   -3.5587    0.1379 H   0  0  0  0  0  0  0  0  0  0  0  0
    3.6361   -2.1711   -1.2911 H   0  0  0  0  0  0  0  0  0  0  0  0
  1  6  1  0  0  0  0
  2  7  1  0  0  0  0
  3 15  1  0  0  0  0
  3  5  1  0  0  0  0
  4 33  1  0  0  0  0
  5 39  1  0  0  0  0
  5  6  1  0  0  0  0
  6 42  1  0  0  0  0
  6 41  1  0  0  0  0
  7  8  1  0  0  0  0
  8  1  1  0  0  0  0
  8  9  2  0  0  0  0
  9 43  1  0  0  0  0
 10  9  1  0  0  0  0
 10 44  1  0  0  0  0
 11 10  2  0  0  0  0
 12  7  2  0  0  0  0
 12 11  1  0  0  0  0
 13 14  1  0  0  0  0
 13 47  1  0  0  0  0
 13  2  1  0  0  0  0
 14  4  1  0  0  0  0
 15 20  1  0  0  0  0
 16 15  2  0  0  0  0
 16 17  1  0  0  0  0
 17 18  2  0  0  0  0
 18 19  1  0  0  0  0
 18 53  1  0  0  0  0
 19 54  1  0  0  0  0
 20 55  1  0  0  0  0
 20 19  2  0  0  0  0
 21  3  1  0  0  0  0
 22 56  1  0  0  0  0
 22 21  2  0  0  0  0
 23 22  1  0  0  0  0
 24 23  2  0  0  0  0
 24 25  1  0  0  0  0
 25 26  2  0  0  0  0
 26 21  1  0  0  0  0
 26 60  1  0  0  0  0
 27  4  1  0  0  0  0
 28 61  1  0  0  0  0
 28 27  2  0  0  0  0
 29 28  1  0  0  0  0
 30 29  2  0  0  0  0
 30 31  1  0  0  0  0
 31 32  2  0  0  0  0
 32 27  1  0  0  0  0
 32 65  1  0  0  0  0
 33 34  1  0  0  0  0
 34 66  1  0  0  0  0
 34 35  2  0  0  0  0
 35 67  1  0  0  0  0
 36 35  1  0  0  0  0
 36 68  1  0  0  0  0
 37 36  2  0  0  0  0
 38 33  2  0  0  0  0
 38 37  1  0  0  0  0
 40  5  1  0  0  0  0
 45 11  1  0  0  0  0
 46 12  1  0  0  0  0
 48 13  1  0  0  0  0
 49 14  1  0  0  0  0
 50 14  1  0  0  0  0
 51 16  1  0  0  0  0
 52 17  1  0  0  0  0
 57 23  1  0  0  0  0
 58 24  1  0  0  0  0
 59 25  1  0  0  0  0
 62 29  1  0  0  0  0
 63 30  1  0  0  0  0
 64 31  1  0  0  0  0
 69 37  1  0  0  0  0
 70 38  1  0  0  0  0
M  END
