2,4,5
 OpenBabel05122313063D

 31 31  0  0  1  0  0  0  0  0999 V2000
    1.3615   -1.0761    1.7007 P   0  0  0  0  0  2  0  0  0  0  0  0
    1.2796    1.1435    1.7454 P   0  0  0  0  0  2  0  0  0  0  0  0
    3.1748    0.1459   -0.4840 P   0  0  0  0  0  2  0  0  0  0  0  0
    2.4016    1.4820    0.4190 C   0  0  1  0  0  3  0  0  0  0  0  0
    2.5416   -1.2751    0.4039 C   0  0  2  0  0  3  0  0  0  0  0  0
    2.6991    2.9333   -0.0074 C   0  0  0  0  0  0  0  0  0  0  0  0
    3.9456    3.4014    0.7768 C   0  0  0  0  0  0  0  0  0  0  0  0
    1.5093    3.8569    0.3200 C   0  0  0  0  0  0  0  0  0  0  0  0
    2.9806    3.0151   -1.5233 C   0  0  0  0  0  0  0  0  0  0  0  0
    3.0042   -2.6721   -0.0566 C   0  0  0  0  0  0  0  0  0  0  0  0
    2.9030   -2.7944   -1.5932 C   0  0  0  0  0  0  0  0  0  0  0  0
    2.1599   -3.7878    0.5871 C   0  0  0  0  0  0  0  0  0  0  0  0
    4.4777   -2.8440    0.3790 C   0  0  0  0  0  0  0  0  0  0  0  0
    3.2171   -3.8084   -1.9162 H   0  0  0  0  0  0  0  0  0  0  0  0
    3.1131    4.0741   -1.8263 H   0  0  0  0  0  0  0  0  0  0  0  0
    1.0891   -3.6958    0.3135 H   0  0  0  0  0  0  0  0  0  0  0  0
    2.5183   -4.7798    0.2442 H   0  0  0  0  0  0  0  0  0  0  0  0
    4.8608   -3.8382    0.0677 H   0  0  0  0  0  0  0  0  0  0  0  0
    1.8696   -2.6081   -1.9461 H   0  0  0  0  0  0  0  0  0  0  0  0
    4.5783   -2.7600    1.4799 H   0  0  0  0  0  0  0  0  0  0  0  0
    4.2144    4.4408    0.4945 H   0  0  0  0  0  0  0  0  0  0  0  0
    1.2858    3.8684    1.4063 H   0  0  0  0  0  0  0  0  0  0  0  0
    3.5522   -2.0553   -2.1042 H   0  0  0  0  0  0  0  0  0  0  0  0
    4.8164    2.7489    0.5627 H   0  0  0  0  0  0  0  0  0  0  0  0
    1.7377    4.8970    0.0093 H   0  0  0  0  0  0  0  0  0  0  0  0
    0.5936    3.5267   -0.2101 H   0  0  0  0  0  0  0  0  0  0  0  0
    5.1213   -2.0675   -0.0828 H   0  0  0  0  0  0  0  0  0  0  0  0
    2.2261   -3.7652    1.6939 H   0  0  0  0  0  0  0  0  0  0  0  0
    3.7600    3.3731    1.8697 H   0  0  0  0  0  0  0  0  0  0  0  0
    2.1482    2.5742   -2.1078 H   0  0  0  0  0  0  0  0  0  0  0  0
    3.9052    2.4684   -1.7979 H   0  0  0  0  0  0  0  0  0  0  0  0
  1  2  1  0  0  0  0
  3  5  1  0  0  0  0
  3  4  1  0  0  0  0
  4  6  1  6  0  0  0
  4  2  1  0  0  0  0
  5 10  1  6  0  0  0
  5  1  1  0  0  0  0
  6  8  1  0  0  0  0
  6  7  1  0  0  0  0
  7 29  1  0  0  0  0
  8 22  1  0  0  0  0
  9  6  1  0  0  0  0
 10 13  1  0  0  0  0
 10 12  1  0  0  0  0
 11 10  1  0  0  0  0
 12 28  1  0  0  0  0
 13 20  1  0  0  0  0
 14 11  1  0  0  0  0
 15  9  1  0  0  0  0
 16 12  1  0  0  0  0
 17 12  1  0  0  0  0
 18 13  1  0  0  0  0
 19 11  1  0  0  0  0
 21  7  1  0  0  0  0
 23 11  1  0  0  0  0
 24  7  1  0  0  0  0
 25  8  1  0  0  0  0
 26  8  1  0  0  0  0
 27 13  1  0  0  0  0
 30  9  1  0  0  0  0
 31  9  1  0  0  0  0
M  END
