1,10,32
 OpenBabel05122313063D

 43 45  0  0  1  0  0  0  0  0999 V2000
    0.3466   -0.0001   -0.4865 P   0  0  1  0  0  0  0  0  0  0  0  0
    0.2360   -1.4932   -1.6504 C   0  0  2  0  0  0  0  0  0  0  0  0
    1.0745   -1.3939   -2.3683 H   0  0  0  0  0  0  0  0  0  0  0  0
   -1.0720   -1.5825   -2.3983 C   0  0  0  0  0  0  0  0  0  0  0  0
   -1.0251   -1.5692   -3.4994 H   0  0  0  0  0  0  0  0  0  0  0  0
   -2.2935   -1.6660   -1.7897 C   0  0  0  0  0  0  0  0  0  0  0  0
   -3.1852   -1.5980   -2.4357 H   0  0  0  0  0  0  0  0  0  0  0  0
   -2.5343   -1.8070   -0.3769 C   0  0  0  0  0  3  0  0  0  0  0  0
   -3.5188   -1.5023    0.0144 H   0  0  0  0  0  0  0  0  0  0  0  0
   -1.6844   -2.4447    0.5190 C   0  0  0  0  0  3  0  0  0  0  0  0
   -2.0643   -2.5888    1.5432 H   0  0  0  0  0  0  0  0  0  0  0  0
   -0.4619   -3.1255    0.1501 C   0  0  0  0  0  0  0  0  0  0  0  0
   -0.2008   -4.0142    0.7498 H   0  0  0  0  0  0  0  0  0  0  0  0
    0.3834   -2.7761   -0.8643 C   0  0  0  0  0  0  0  0  0  0  0  0
    1.2338   -3.4320   -1.1104 H   0  0  0  0  0  0  0  0  0  0  0  0
    2.1675   -0.0000   -0.1095 C   0  0  2  0  0  0  0  0  0  0  0  0
    2.7216    0.0001   -1.0788 H   0  0  0  0  0  0  0  0  0  0  0  0
    2.6284   -1.1794    0.7064 C   0  0  0  0  0  0  0  0  0  0  0  0
    1.8919   -1.7501    1.2928 H   0  0  0  0  0  0  0  0  0  0  0  0
    3.9559   -1.5178    0.7161 C   0  0  0  0  0  0  0  0  0  0  0  0
    4.2477   -2.4660    1.1994 H   0  0  0  0  0  0  0  0  0  0  0  0
    5.0192   -0.6934    0.2054 C   0  0  0  0  0  0  0  0  0  0  0  0
    5.9735   -1.1932   -0.0324 H   0  0  0  0  0  0  0  0  0  0  0  0
    0.2359    1.4925   -1.6509 C   0  0  1  0  0  0  0  0  0  0  0  0
    1.0743    1.3931   -2.3689 H   0  0  0  0  0  0  0  0  0  0  0  0
   -1.0721    1.5816   -2.3988 C   0  0  0  0  0  0  0  0  0  0  0  0
   -1.0254    1.5678   -3.4998 H   0  0  0  0  0  0  0  0  0  0  0  0
   -2.2936    1.6653   -1.7901 C   0  0  0  0  0  0  0  0  0  0  0  0
   -3.1853    1.5970   -2.4360 H   0  0  0  0  0  0  0  0  0  0  0  0
   -2.5344    1.8068   -0.3773 C   0  0  0  0  0  3  0  0  0  0  0  0
   -3.5188    1.5023    0.0141 H   0  0  0  0  0  0  0  0  0  0  0  0
   -1.6843    2.4449    0.5183 C   0  0  0  0  0  3  0  0  0  0  0  0
   -2.0642    2.5894    1.5425 H   0  0  0  0  0  0  0  0  0  0  0  0
   -0.4618    3.1255    0.1491 C   0  0  0  0  0  0  0  0  0  0  0  0
   -0.2007    4.0144    0.7484 H   0  0  0  0  0  0  0  0  0  0  0  0
    0.3834    2.7757   -0.8653 C   0  0  0  0  0  0  0  0  0  0  0  0
    1.2338    3.4315   -1.1116 H   0  0  0  0  0  0  0  0  0  0  0  0
    5.0191    0.6939    0.2055 C   0  0  0  0  0  0  0  0  0  0  0  0
    3.9556    1.5179    0.7164 C   0  0  0  0  0  0  0  0  0  0  0  0
    2.6282    1.1793    0.7066 C   0  0  0  0  0  0  0  0  0  0  0  0
    1.8915    1.7497    1.2931 H   0  0  0  0  0  0  0  0  0  0  0  0
    4.2472    2.4662    1.1999 H   0  0  0  0  0  0  0  0  0  0  0  0
    5.9732    1.1940   -0.0321 H   0  0  0  0  0  0  0  0  0  0  0  0
  1 24  1  6  0  0  0
  1 16  1  0  0  0  0
  2  3  1  6  0  0  0
  2 14  1  0  0  0  0
  2  1  1  0  0  0  0
  4  6  2  0  0  0  0
  4  2  1  0  0  0  0
  5  4  1  0  0  0  0
  6  8  1  0  0  0  0
  7  6  1  0  0  0  0
  8  9  1  0  0  0  0
  8 10  1  0  0  0  0
 10 11  1  0  0  0  0
 12 10  1  0  0  0  0
 12 13  1  0  0  0  0
 14 12  2  0  0  0  0
 15 14  1  0  0  0  0
 16 17  1  6  0  0  0
 16 18  1  0  0  0  0
 16 40  1  0  0  0  0
 18 20  2  0  0  0  0
 18 19  1  0  0  0  0
 20 21  1  0  0  0  0
 22 38  2  0  0  0  0
 22 20  1  0  0  0  0
 23 22  1  0  0  0  0
 24 25  1  6  0  0  0
 24 36  1  0  0  0  0
 26 28  2  0  0  0  0
 26 24  1  0  0  0  0
 27 26  1  0  0  0  0
 28 30  1  0  0  0  0
 29 28  1  0  0  0  0
 30 31  1  0  0  0  0
 30 32  1  0  0  0  0
 32 33  1  0  0  0  0
 34 32  1  0  0  0  0
 34 35  1  0  0  0  0
 36 34  2  0  0  0  0
 37 36  1  0  0  0  0
 38 39  1  0  0  0  0
 39 42  1  0  0  0  0
 40 39  2  0  0  0  0
 40 41  1  0  0  0  0
 43 38  1  0  0  0  0
M  END
