1,2,16
 OpenBabel05122313063D

 58 60  0  0  0  0  0  0  0  0999 V2000
   -1.7281   -0.6553    0.0298 P   0  0  0  0  0  0  0  0  0  0  0  0
    2.4671    0.6789    0.0599 C   0  0  0  0  0  3  0  0  0  0  0  0
    3.7066    0.0185    0.0958 C   0  0  0  0  0  0  0  0  0  0  0  0
    3.7618   -1.0803    0.1061 H   0  0  0  0  0  0  0  0  0  0  0  0
    4.9114    0.7411    0.1232 C   0  0  0  0  0  0  0  0  0  0  0  0
    5.8773    0.2116    0.1533 H   0  0  0  0  0  0  0  0  0  0  0  0
    4.8773    2.1371    0.1188 C   0  0  0  0  0  0  0  0  0  0  0  0
    5.8194    2.7078    0.1502 H   0  0  0  0  0  0  0  0  0  0  0  0
    3.6596    2.8513    0.0769 C   0  0  0  0  0  0  0  0  0  0  0  0
    2.4381    2.1159    0.0371 C   0  0  0  0  0  0  0  0  0  0  0  0
    3.7577    4.3597    0.0878 C   0  0  0  0  0  0  0  0  0  0  0  0
    3.1970    4.8126    0.9312 H   0  0  0  0  0  0  0  0  0  0  0  0
    3.3667    4.8159   -0.8458 H   0  0  0  0  0  0  0  0  0  0  0  0
    4.8153    4.6730    0.1864 H   0  0  0  0  0  0  0  0  0  0  0  0
    1.0621    2.6634   -0.0245 C   0  0  0  0  0  0  0  0  0  0  0  0
    0.0358    1.6820    0.0016 C   0  0  0  0  0  2  0  0  0  0  0  0
   -1.3429    2.0651   -0.0506 C   0  0  0  0  0  0  0  0  0  0  0  0
   -1.6799    3.4681   -0.1345 C   0  0  0  0  0  0  0  0  0  0  0  0
   -0.6355    4.4276   -0.1818 C   0  0  0  0  0  0  0  0  0  0  0  0
   -0.8986    5.4943   -0.2568 H   0  0  0  0  0  0  0  0  0  0  0  0
    0.6934    4.0377   -0.1273 C   0  0  0  0  0  0  0  0  0  0  0  0
    1.4606    4.8156   -0.1700 H   0  0  0  0  0  0  0  0  0  0  0  0
   -2.4054    1.0807   -0.0003 C   0  0  0  0  0  0  0  0  0  0  0  0
   -3.7473    1.4960    0.0208 C   0  0  0  0  0  0  0  0  0  0  0  0
   -4.0426    2.8915   -0.0716 C   0  0  0  0  0  0  0  0  0  0  0  0
   -5.1002    3.2001   -0.0668 H   0  0  0  0  0  0  0  0  0  0  0  0
   -3.0489    3.8460   -0.1562 C   0  0  0  0  0  3  0  0  0  0  0  0
   -3.3048    4.9152   -0.2271 H   0  0  0  0  0  0  0  0  0  0  0  0
   -4.9442    0.5984    0.1987 C   0  0  0  0  0  0  0  0  0  0  0  0
   -5.4210    0.7822    1.1858 H   0  0  0  0  0  0  0  0  0  0  0  0
   -4.6945   -0.4689    0.1399 H   0  0  0  0  0  0  0  0  0  0  0  0
   -5.7181    0.8079   -0.5684 H   0  0  0  0  0  0  0  0  0  0  0  0
   -2.2428   -1.5001   -1.6169 C   0  0  0  0  0  0  0  0  0  0  0  0
   -3.7358   -1.5170   -1.9676 C   0  0  0  0  0  0  0  0  0  0  0  0
   -4.3466   -2.0731   -1.2318 H   0  0  0  0  0  0  0  0  0  0  0  0
   -3.8631   -2.0236   -2.9488 H   0  0  0  0  0  0  0  0  0  0  0  0
   -4.1412   -0.4938   -2.0722 H   0  0  0  0  0  0  0  0  0  0  0  0
   -1.5004   -0.6876   -2.6977 C   0  0  0  0  0  0  0  0  0  0  0  0
   -1.8659    0.3581   -2.7376 H   0  0  0  0  0  0  0  0  0  0  0  0
   -1.6711   -1.1528   -3.6922 H   0  0  0  0  0  0  0  0  0  0  0  0
   -0.4100   -0.6419   -2.4979 H   0  0  0  0  0  0  0  0  0  0  0  0
   -1.7036   -2.9408   -1.5853 C   0  0  0  0  0  0  0  0  0  0  0  0
   -2.2689   -3.5855   -0.8842 H   0  0  0  0  0  0  0  0  0  0  0  0
   -0.6371   -2.9750   -1.2961 H   0  0  0  0  0  0  0  0  0  0  0  0
   -1.7972   -3.3921   -2.5963 H   0  0  0  0  0  0  0  0  0  0  0  0
   -2.3802   -1.5828    1.5979 C   0  0  0  0  0  0  0  0  0  0  0  0
   -2.5901   -0.5038    2.6753 C   0  0  0  0  0  0  0  0  0  0  0  0
   -3.4640    0.1396    2.4639 H   0  0  0  0  0  0  0  0  0  0  0  0
   -1.7004    0.1527    2.7630 H   0  0  0  0  0  0  0  0  0  0  0  0
   -2.7525   -0.9946    3.6589 H   0  0  0  0  0  0  0  0  0  0  0  0
   -1.2174   -2.4887    2.0456 C   0  0  0  0  0  0  0  0  0  0  0  0
   -0.3197   -1.8787    2.2621 H   0  0  0  0  0  0  0  0  0  0  0  0
   -0.9451   -3.2403    1.2788 H   0  0  0  0  0  0  0  0  0  0  0  0
   -1.5063   -3.0319    2.9709 H   0  0  0  0  0  0  0  0  0  0  0  0
   -3.6348   -2.4577    1.4526 C   0  0  0  0  0  0  0  0  0  0  0  0
   -3.8273   -2.9627    2.4237 H   0  0  0  0  0  0  0  0  0  0  0  0
   -3.5082   -3.2543    0.6945 H   0  0  0  0  0  0  0  0  0  0  0  0
   -4.5468   -1.8852    1.2079 H   0  0  0  0  0  0  0  0  0  0  0  0
  1 46  1  0  0  0  0
  2  3  1  0  0  0  0
  3  4  1  0  0  0  0
  3  5  2  0  0  0  0
  5  6  1  0  0  0  0
  7  5  1  0  0  0  0
  7  8  1  0  0  0  0
  9 11  1  0  0  0  0
  9  7  2  0  0  0  0
 10  2  2  0  0  0  0
 10  9  1  0  0  0  0
 11 14  1  0  0  0  0
 11 12  1  0  0  0  0
 13 11  1  0  0  0  0
 15 16  1  0  0  0  0
 15 10  1  0  0  0  0
 17 23  2  0  0  0  0
 17 16  1  0  0  0  0
 18 17  1  0  0  0  0
 19 18  2  0  0  0  0
 19 21  1  0  0  0  0
 20 19  1  0  0  0  0
 21 15  2  0  0  0  0
 22 21  1  0  0  0  0
 23 24  1  0  0  0  0
 23  1  1  0  0  0  0
 24 29  1  0  0  0  0
 25 26  1  0  0  0  0
 25 24  2  0  0  0  0
 27 18  1  0  0  0  0
 27 25  1  0  0  0  0
 28 27  1  0  0  0  0
 29 30  1  0  0  0  0
 31 29  1  0  0  0  0
 32 29  1  0  0  0  0
 33 42  1  0  0  0  0
 33  1  1  0  0  0  0
 34 33  1  0  0  0  0
 34 35  1  0  0  0  0
 36 34  1  0  0  0  0
 37 34  1  0  0  0  0
 38 41  1  0  0  0  0
 38 33  1  0  0  0  0
 39 38  1  0  0  0  0
 40 38  1  0  0  0  0
 42 44  1  0  0  0  0
 42 43  1  0  0  0  0
 45 42  1  0  0  0  0
 46 51  1  0  0  0  0
 46 47  1  0  0  0  0
 47 49  1  0  0  0  0
 47 50  1  0  0  0  0
 48 47  1  0  0  0  0
 51 52  1  0  0  0  0
 51 54  1  0  0  0  0
 53 51  1  0  0  0  0
 55 46  1  0  0  0  0
 55 56  1  0  0  0  0
 57 55  1  0  0  0  0
 58 55  1  0  0  0  0
M  END
