1,2,4
 OpenBabel05122313063D

 39 41  0  0  1  0  0  0  0  0999 V2000
   -0.5614    1.2094   -0.0002 S   0  0  0  0  0  1  0  0  0  0  0  0
    1.4160   -1.1300    1.4687 N   0  0  0  0  0  2  0  0  0  0  0  0
    0.5535   -2.1574    1.2812 N   0  0  0  0  0  0  0  0  0  0  0  0
    1.4166   -1.1298   -1.4685 N   0  0  0  0  0  2  0  0  0  0  0  0
    0.5539   -2.1572   -1.2815 N   0  0  0  0  0  0  0  0  0  0  0  0
   -1.5711   -1.4052   -0.0003 N   0  0  0  0  0  0  0  0  0  0  0  0
   -3.1138    0.1944   -0.0001 N   0  0  0  0  0  0  0  0  0  0  0  0
    0.5411   -2.9487    2.3886 C   0  0  0  0  0  3  0  0  0  0  0  0
    1.4275   -2.4099    3.3238 C   0  0  0  0  0  0  0  0  0  0  0  0
    1.9539   -1.2639    2.6910 C   0  0  0  0  0  0  0  0  0  0  0  0
    0.5418   -2.9482   -2.3891 C   0  0  0  0  0  3  0  0  0  0  0  0
    1.4285   -2.4093   -3.3239 C   0  0  0  0  0  0  0  0  0  0  0  0
    1.9549   -1.2635   -2.6906 C   0  0  0  0  0  0  0  0  0  0  0  0
   -2.8225   -2.0054   -0.0004 C   0  0  0  0  0  0  0  0  0  0  0  0
   -3.7757   -1.0289   -0.0002 C   0  0  0  0  0  0  0  0  0  0  0  0
   -1.7459   -0.0413   -0.0002 C   0  0  2  0  0  3  0  0  0  0  0  0
   -3.8073    1.5302   -0.0000 C   0  0  0  0  0  0  0  0  0  0  0  0
   -3.4239    2.2979    1.2779 C   0  0  0  0  0  0  0  0  0  0  0  0
   -5.3286    1.3116    0.0001 C   0  0  0  0  0  0  0  0  0  0  0  0
   -3.4242    2.2979   -1.2781 C   0  0  0  0  0  0  0  0  0  0  0  0
   -0.2940   -2.3309   -0.0003 B   0  0  2  0  0  0  0  0  0  0  0  0
   -0.7198   -3.4769   -0.0005 H   0  0  0  0  0  0  0  0  0  0  0  0
   -0.0934   -3.8405    2.4261 H   0  0  0  0  0  0  0  0  0  0  0  0
    1.6650   -2.8000    4.3182 H   0  0  0  0  0  0  0  0  0  0  0  0
    2.6931   -0.5302    3.0355 H   0  0  0  0  0  0  0  0  0  0  0  0
   -0.0928   -3.8400   -2.4270 H   0  0  0  0  0  0  0  0  0  0  0  0
    1.6663   -2.7992   -4.3183 H   0  0  0  0  0  0  0  0  0  0  0  0
    2.6944   -0.5298   -3.0347 H   0  0  0  0  0  0  0  0  0  0  0  0
   -2.9277   -3.0929   -0.0005 H   0  0  0  0  0  0  0  0  0  0  0  0
   -4.8622   -1.1132   -0.0002 H   0  0  0  0  0  0  0  0  0  0  0  0
   -3.7438    1.7343    2.1771 H   0  0  0  0  0  0  0  0  0  0  0  0
   -3.9338    3.2813    1.2831 H   0  0  0  0  0  0  0  0  0  0  0  0
   -2.3325    2.4652    1.3352 H   0  0  0  0  0  0  0  0  0  0  0  0
   -5.6757    0.7722    0.9036 H   0  0  0  0  0  0  0  0  0  0  0  0
   -5.6759    0.7723   -0.9033 H   0  0  0  0  0  0  0  0  0  0  0  0
   -5.8164    2.3047    0.0002 H   0  0  0  0  0  0  0  0  0  0  0  0
   -2.3328    2.4652   -1.3356 H   0  0  0  0  0  0  0  0  0  0  0  0
   -3.9342    3.2812   -1.2833 H   0  0  0  0  0  0  0  0  0  0  0  0
   -3.7441    1.7342   -2.1772 H   0  0  0  0  0  0  0  0  0  0  0  0
  2 10  1  0  0  0  0
  3  2  1  0  0  0  0
  3  8  1  0  0  0  0
  4  5  1  0  0  0  0
  5 21  1  0  0  0  0
  6 21  1  0  0  0  0
  6 16  1  0  0  0  0
  7 17  1  0  0  0  0
  8 23  1  0  0  0  0
  8  9  1  0  0  0  0
  9 24  1  0  0  0  0
 10 25  1  0  0  0  0
 10  9  2  0  0  0  0
 11  5  1  0  0  0  0
 12 13  2  0  0  0  0
 12 11  1  0  0  0  0
 13  4  1  0  0  0  0
 14  6  1  0  0  0  0
 14 15  2  0  0  0  0
 15 30  1  0  0  0  0
 15  7  1  0  0  0  0
 16  1  1  6  0  0  0
 16  7  1  0  0  0  0
 17 19  1  0  0  0  0
 17 18  1  0  0  0  0
 18 32  1  0  0  0  0
 18 33  1  0  0  0  0
 18 31  1  0  0  0  0
 19 36  1  0  0  0  0
 19 34  1  0  0  0  0
 20 17  1  0  0  0  0
 21 22  1  6  0  0  0
 21  3  1  0  0  0  0
 26 11  1  0  0  0  0
 27 12  1  0  0  0  0
 28 13  1  0  0  0  0
 29 14  1  0  0  0  0
 35 19  1  0  0  0  0
 37 20  1  0  0  0  0
 38 20  1  0  0  0  0
 39 20  1  0  0  0  0
M  END
