1,3,4
 OpenBabel05122313063D

 19 19  0  0  0  0  0  0  0  0999 V2000
   -2.6270    0.6444   -0.0001 S   0  0  0  0  0  1  0  0  0  0  0  0
   -1.7804   -1.9874    0.0002 N   0  0  0  0  0  0  0  0  0  0  0  0
   -0.5848   -1.3989    0.0001 N   0  0  0  0  0  2  0  0  0  0  0  0
    1.6612   -0.0131   -0.0001 N   0  0  0  0  0  2  0  0  0  0  0  0
   -4.0403   -1.6227   -0.0001 N   0  0  0  0  0  0  0  0  0  0  0  0
   -2.7918   -1.1039    0.0001 C   0  0  0  0  0  0  0  0  0  0  0  0
    0.5317   -2.1158    0.0000 C   0  0  0  0  0  0  0  0  0  0  0  0
    1.7771   -1.3844   -0.0000 C   0  0  0  0  0  0  0  0  0  0  0  0
    3.0552   -1.9818   -0.0000 C   0  0  0  0  0  0  0  0  0  0  0  0
    4.1925   -1.1658    0.0000 C   0  0  0  0  0  0  0  0  0  0  0  0
    4.0438    0.2306    0.0000 C   0  0  0  0  0  0  0  0  0  0  0  0
    2.7490    0.7705   -0.0001 C   0  0  0  0  0  0  0  0  0  0  0  0
    0.4777   -3.2153   -0.0000 H   0  0  0  0  0  0  0  0  0  0  0  0
    3.1392   -3.0778   -0.0000 H   0  0  0  0  0  0  0  0  0  0  0  0
    5.1950   -1.6196    0.0001 H   0  0  0  0  0  0  0  0  0  0  0  0
    4.9139    0.9016    0.0001 H   0  0  0  0  0  0  0  0  0  0  0  0
    2.5354    1.8535   -0.0002 H   0  0  0  0  0  0  0  0  0  0  0  0
   -4.1588   -2.6351    0.0004 H   0  0  0  0  0  0  0  0  0  0  0  0
   -4.8528   -1.0102    0.0003 H   0  0  0  0  0  0  0  0  0  0  0  0
  1  6  1  0  0  0  0
  3  2  1  0  0  0  0
  4 12  1  0  0  0  0
  4  8  1  0  0  0  0
  5  6  1  0  0  0  0
  5 19  1  0  0  0  0
  5 18  1  0  0  0  0
  6  2  2  0  0  0  0
  7  3  1  0  0  0  0
  8  9  1  0  0  0  0
  8  7  2  0  0  0  0
  9 10  2  0  0  0  0
 10 15  1  0  0  0  0
 11 10  1  0  0  0  0
 11 16  1  0  0  0  0
 12 11  2  0  0  0  0
 13  7  1  0  0  0  0
 14  9  1  0  0  0  0
 17 12  1  0  0  0  0
M  END
