1,2,3
 OpenBabel05122313063D

 37 38  0  0  0  0  0  0  0  0999 V2000
   -1.2083   -1.5392   -0.3563 S   0  0  0  0  0  1  0  0  0  0  0  0
    2.7048    0.3785    0.1689 N   0  0  0  0  0  2  0  0  0  0  0  0
    0.1672    1.0416   -0.2923 N   0  0  0  0  0  2  0  0  0  0  0  0
   -1.1327    1.2400   -0.5313 N   0  0  0  0  0  0  0  0  0  0  0  0
   -3.1884    0.2264   -0.8426 N   0  0  0  0  0  0  0  0  0  0  0  0
    0.5829    3.3335   -0.3572 N   0  0  0  0  0  0  0  0  0  0  0  0
    1.1526    4.1364   -0.1025 H   0  0  0  0  0  0  0  0  0  0  0  0
   -0.4234    3.4589   -0.4925 H   0  0  0  0  0  0  0  0  0  0  0  0
    3.9499   -0.0730    0.3808 C   0  0  0  0  0  0  0  0  0  0  0  0
    4.0488   -1.1676    0.4759 H   0  0  0  0  0  0  0  0  0  0  0  0
    5.0320    0.8139    0.4693 C   0  0  0  0  0  0  0  0  0  0  0  0
    6.0425    0.4225    0.6504 H   0  0  0  0  0  0  0  0  0  0  0  0
    4.7905    2.1866    0.3162 C   0  0  0  0  0  0  0  0  0  0  0  0
    5.6200    2.9071    0.3690 H   0  0  0  0  0  0  0  0  0  0  0  0
    3.4842    2.6434    0.0880 C   0  0  0  0  0  0  0  0  0  0  0  0
    3.2933    3.7164   -0.0521 H   0  0  0  0  0  0  0  0  0  0  0  0
    2.4317    1.7148    0.0248 C   0  0  0  0  0  0  0  0  0  0  0  0
    1.0212    2.0660   -0.2029 C   0  0  0  0  0  0  0  0  0  0  0  0
   -1.8698    0.1321   -0.5904 C   0  0  0  0  0  0  0  0  0  0  0  0
   -4.0785   -0.9411   -0.8360 C   0  0  0  0  0  0  0  0  0  0  0  0
   -3.4937   -1.8345   -1.1429 H   0  0  0  0  0  0  0  0  0  0  0  0
   -4.8320   -0.7672   -1.6320 H   0  0  0  0  0  0  0  0  0  0  0  0
   -4.7629   -1.1777    0.5153 C   0  0  0  0  0  0  0  0  0  0  0  0
   -3.9998   -1.5287    1.2434 H   0  0  0  0  0  0  0  0  0  0  0  0
   -5.4708   -2.0216    0.3768 H   0  0  0  0  0  0  0  0  0  0  0  0
   -5.4970    0.0372    1.1054 C   0  0  0  0  0  0  0  0  0  0  0  0
   -6.0575   -0.3164    1.9944 H   0  0  0  0  0  0  0  0  0  0  0  0
   -6.2723    0.4070    0.3974 H   0  0  0  0  0  0  0  0  0  0  0  0
   -4.5655    1.1856    1.5404 C   0  0  0  0  0  0  0  0  0  0  0  0
   -5.0511    1.7695    2.3483 H   0  0  0  0  0  0  0  0  0  0  0  0
   -3.6608    0.7377    2.0080 H   0  0  0  0  0  0  0  0  0  0  0  0
   -4.1323    2.1767    0.4437 C   0  0  0  0  0  0  0  0  0  0  0  0
   -3.2383    2.7315    0.7952 H   0  0  0  0  0  0  0  0  0  0  0  0
   -4.9240    2.9374    0.2773 H   0  0  0  0  0  0  0  0  0  0  0  0
   -3.8354    1.5437   -0.9264 C   0  0  0  0  0  0  0  0  0  0  0  0
   -3.1964    2.2085   -1.5391 H   0  0  0  0  0  0  0  0  0  0  0  0
   -4.7749    1.3766   -1.4869 H   0  0  0  0  0  0  0  0  0  0  0  0
  2  9  1  0  0  0  0
  3 18  1  0  0  0  0
  4  3  1  0  0  0  0
  5 20  1  0  0  0  0
  5 19  1  0  0  0  0
  6 18  1  0  0  0  0
  6  7  1  0  0  0  0
  8  6  1  0  0  0  0
  9 11  2  0  0  0  0
  9 10  1  0  0  0  0
 11 12  1  0  0  0  0
 13 14  1  0  0  0  0
 13 11  1  0  0  0  0
 15 13  2  0  0  0  0
 16 15  1  0  0  0  0
 17 15  1  0  0  0  0
 17  2  1  0  0  0  0
 18 17  2  0  0  0  0
 19  4  2  0  0  0  0
 19  1  1  0  0  0  0
 20 23  1  0  0  0  0
 21 20  1  0  0  0  0
 22 20  1  0  0  0  0
 23 26  1  0  0  0  0
 23 24  1  0  0  0  0
 25 23  1  0  0  0  0
 26 29  1  0  0  0  0
 26 27  1  0  0  0  0
 28 26  1  0  0  0  0
 29 31  1  0  0  0  0
 29 30  1  0  0  0  0
 32 33  1  0  0  0  0
 32 29  1  0  0  0  0
 34 32  1  0  0  0  0
 35  5  1  0  0  0  0
 35 32  1  0  0  0  0
 36 35  1  0  0  0  0
 37 35  1  0  0  0  0
M  END
