1,6,7
 OpenBabel05122313063D

 17 17  0  0  0  0  0  0  0  0999 V2000
   -1.5870   -1.7501    0.5469 S   0  0  0  0  0  1  0  0  0  0  0  0
   -3.6018   -2.2566   -1.1356 N   0  0  0  0  0  0  0  0  0  0  0  0
   -4.1458   -2.0870   -1.9805 H   0  0  0  0  0  0  0  0  0  0  0  0
   -3.9656   -2.8635   -0.4054 H   0  0  0  0  0  0  0  0  0  0  0  0
   -2.1228   -0.6860   -1.9106 N   0  0  0  0  0  0  0  0  0  0  0  0
   -1.0023   -0.0232   -1.6313 N   0  0  0  0  0  2  0  0  0  0  0  0
    1.1227    1.1280   -0.7753 N   0  0  0  0  0  2  0  0  0  0  0  0
    1.5065    2.4519   -2.4993 N   0  0  0  0  0  0  0  0  0  0  0  0
    1.4034    2.9146   -3.4015 H   0  0  0  0  0  0  0  0  0  0  0  0
   -2.4756   -1.5315   -0.9260 C   0  0  0  0  0  0  0  0  0  0  0  0
   -0.5172    0.8722   -2.4858 C   0  0  0  0  0  0  0  0  0  0  0  0
   -1.0129    1.0804   -3.4444 H   0  0  0  0  0  0  0  0  0  0  0  0
    0.6690    1.4998   -1.9893 C   0  0  0  0  0  0  0  0  0  0  0  0
    2.2565    1.8430   -0.5027 C   0  0  0  0  0  0  0  0  0  0  0  0
    2.8120    1.7103    0.4311 H   0  0  0  0  0  0  0  0  0  0  0  0
    2.5151    2.6833   -1.5749 C   0  0  0  0  0  0  0  0  0  0  0  0
    3.3127    3.4097   -1.7530 H   0  0  0  0  0  0  0  0  0  0  0  0
  2 10  1  0  0  0  0
  2  4  1  0  0  0  0
  3  2  1  0  0  0  0
  5  6  1  0  0  0  0
  5 10  2  0  0  0  0
  7 14  1  0  0  0  0
  8 13  1  0  0  0  0
  8 16  1  0  0  0  0
  9  8  1  0  0  0  0
 10  1  1  0  0  0  0
 11 13  2  0  0  0  0
 11  6  1  0  0  0  0
 12 11  1  0  0  0  0
 13  7  1  0  0  0  0
 14 15  1  0  0  0  0
 16 14  2  0  0  0  0
 17 16  1  0  0  0  0
M  END
