1,2,3
 OpenBabel05122313063D

 28 28  0  0  0  0  0  0  0  0999 V2000
   -1.5716   -1.8747    0.8743 S   0  0  0  0  0  1  0  0  0  0  0  0
   -1.4038    2.2528   -0.4574 N   0  0  0  0  0  2  0  0  0  0  0  0
   -3.2006    0.4812    0.3020 N   0  0  0  0  0  2  0  0  0  0  0  0
   -3.9958   -0.5358    0.6728 N   0  0  0  0  0  0  0  0  0  0  0  0
   -4.0454   -2.7284    1.3825 N   0  0  0  0  0  0  0  0  0  0  0  0
   -3.5159   -3.5873    1.5390 H   0  0  0  0  0  0  0  0  0  0  0  0
   -2.7210    2.6678   -0.4142 C   0  0  0  0  0  0  0  0  0  0  0  0
   -3.0493    3.9829   -0.8027 C   0  0  0  0  0  0  0  0  0  0  0  0
   -4.0977    4.3080   -0.7693 H   0  0  0  0  0  0  0  0  0  0  0  0
   -2.0419    4.8555   -1.2304 C   0  0  0  0  0  0  0  0  0  0  0  0
   -2.2945    5.8817   -1.5356 H   0  0  0  0  0  0  0  0  0  0  0  0
   -0.7131    4.4054   -1.2661 C   0  0  0  0  0  0  0  0  0  0  0  0
    0.1093    5.0579   -1.5904 H   0  0  0  0  0  0  0  0  0  0  0  0
   -0.4364    3.0890   -0.8757 C   0  0  0  0  0  0  0  0  0  0  0  0
    0.5797    2.6570   -0.8819 H   0  0  0  0  0  0  0  0  0  0  0  0
   -3.7046    1.6839    0.0187 C   0  0  0  0  0  0  0  0  0  0  0  0
   -5.1647    1.9898    0.1141 C   0  0  0  0  0  0  0  0  0  0  0  0
   -5.6982    1.1047    0.5028 H   0  0  0  0  0  0  0  0  0  0  0  0
   -5.5891    2.2505   -0.8787 H   0  0  0  0  0  0  0  0  0  0  0  0
   -5.3528    2.8499    0.7900 H   0  0  0  0  0  0  0  0  0  0  0  0
   -3.3313   -1.6569    0.9653 C   0  0  0  0  0  0  0  0  0  0  0  0
   -5.5005   -2.7657    1.4588 C   0  0  0  0  0  0  0  0  0  0  0  0
   -5.8372   -1.7929    1.8692 H   0  0  0  0  0  0  0  0  0  0  0  0
   -5.7711   -3.5490    2.1961 H   0  0  0  0  0  0  0  0  0  0  0  0
   -6.1748   -3.0286    0.1109 C   0  0  0  0  0  0  0  0  0  0  0  0
   -7.2768   -3.0541    0.2293 H   0  0  0  0  0  0  0  0  0  0  0  0
   -5.8531   -3.9976   -0.3212 H   0  0  0  0  0  0  0  0  0  0  0  0
   -5.9209   -2.2235   -0.6062 H   0  0  0  0  0  0  0  0  0  0  0  0
  1 21  1  0  0  0  0
  2  7  1  0  0  0  0
  3  4  1  0  0  0  0
  4 21  2  0  0  0  0
  5 22  1  0  0  0  0
  5  6  1  0  0  0  0
  7 16  2  0  0  0  0
  8  9  1  0  0  0  0
  8  7  1  0  0  0  0
 10  8  2  0  0  0  0
 11 10  1  0  0  0  0
 12 10  1  0  0  0  0
 12 14  2  0  0  0  0
 13 12  1  0  0  0  0
 14  2  1  0  0  0  0
 15 14  1  0  0  0  0
 16 17  1  0  0  0  0
 16  3  1  0  0  0  0
 17 18  1  0  0  0  0
 17 20  1  0  0  0  0
 19 17  1  0  0  0  0
 21  5  1  0  0  0  0
 22 23  1  0  0  0  0
 22 24  1  0  0  0  0
 25 26  1  0  0  0  0
 25 22  1  0  0  0  0
 27 25  1  0  0  0  0
 28 25  1  0  0  0  0
M  END
