1,2,3
 OpenBabel05122313063D

 31 32  0  0  0  0  0  0  0  0999 V2000
    2.1113    1.9030    0.1981 S   0  0  0  0  0  1  0  0  0  0  0  0
   -0.1508    1.6167   -1.3461 N   0  0  0  0  0  2  0  0  0  0  0  0
   -0.5411   -0.9289   -1.3028 N   0  0  0  0  0  2  0  0  0  0  0  0
    0.0827    2.9257   -1.2527 N   0  0  0  0  0  0  0  0  0  0  0  0
   -1.4818   -0.1886   -1.9606 C   0  0  0  0  0  0  0  0  0  0  0  0
   -0.7389   -2.2850   -1.1486 C   0  0  0  0  0  0  0  0  0  0  0  0
    1.1565    3.2014   -0.5047 C   0  0  0  0  0  0  0  0  0  0  0  0
   -1.2173    1.2074   -2.0296 C   0  0  0  0  0  3  0  0  0  0  0  0
   -1.8653    1.9370   -2.5356 H   0  0  0  0  0  0  0  0  0  0  0  0
    0.2571   -3.1196   -0.5726 C   0  0  0  0  0  0  0  0  0  0  0  0
    1.2255   -2.6746   -0.3273 H   0  0  0  0  0  0  0  0  0  0  0  0
   -1.9671   -2.9042   -1.5915 C   0  0  0  0  0  0  0  0  0  0  0  0
    1.5215    4.4906   -0.3103 N   0  0  0  0  0  0  0  0  0  0  0  0
   -2.6821   -0.7627   -2.4732 C   0  0  0  0  0  0  0  0  0  0  0  0
   -3.3987   -0.1125   -2.9934 H   0  0  0  0  0  0  0  0  0  0  0  0
   -2.9340   -2.0991   -2.2636 C   0  0  0  0  0  0  0  0  0  0  0  0
   -3.8686   -2.5615   -2.6155 H   0  0  0  0  0  0  0  0  0  0  0  0
   -1.1951   -5.0744   -0.7698 C   0  0  0  0  0  0  0  0  0  0  0  0
   -1.3606   -6.1500   -0.6120 H   0  0  0  0  0  0  0  0  0  0  0  0
    0.0315   -4.4779   -0.3870 C   0  0  0  0  0  0  0  0  0  0  0  0
    0.8270   -5.1018    0.0479 H   0  0  0  0  0  0  0  0  0  0  0  0
   -2.1701   -4.2942   -1.3757 C   0  0  0  0  0  3  0  0  0  0  0  0
   -3.1166   -4.7421   -1.7149 H   0  0  0  0  0  0  0  0  0  0  0  0
    2.6789    4.8341    0.4974 C   0  0  0  0  0  0  0  0  0  0  0  0
    2.8262    4.0764    1.2915 H   0  0  0  0  0  0  0  0  0  0  0  0
    2.5096    5.8195    0.9735 H   0  0  0  0  0  0  0  0  0  0  0  0
    3.6064    4.8915   -0.1140 H   0  0  0  0  0  0  0  0  0  0  0  0
    0.8580    5.5810   -1.0158 C   0  0  0  0  0  0  0  0  0  0  0  0
    0.0099    5.1779   -1.5932 H   0  0  0  0  0  0  0  0  0  0  0  0
    1.5689    6.0807   -1.7082 H   0  0  0  0  0  0  0  0  0  0  0  0
    0.4904    6.3345   -0.2884 H   0  0  0  0  0  0  0  0  0  0  0  0
  2  4  1  0  0  0  0
  3  6  1  0  0  0  0
  4  7  2  0  0  0  0
  5  3  1  0  0  0  0
  6 10  2  0  0  0  0
  7 13  1  0  0  0  0
  7  1  1  0  0  0  0
  8  5  1  0  0  0  0
  8  2  1  0  0  0  0
  9  8  1  0  0  0  0
 10 20  1  0  0  0  0
 10 11  1  0  0  0  0
 12 22  1  0  0  0  0
 12  6  1  0  0  0  0
 13 24  1  0  0  0  0
 14 16  1  0  0  0  0
 14  5  2  0  0  0  0
 15 14  1  0  0  0  0
 16 12  2  0  0  0  0
 17 16  1  0  0  0  0
 18 19  1  0  0  0  0
 18 20  2  0  0  0  0
 20 21  1  0  0  0  0
 22 18  1  0  0  0  0
 23 22  1  0  0  0  0
 24 26  1  0  0  0  0
 24 25  1  0  0  0  0
 27 24  1  0  0  0  0
 28 13  1  0  0  0  0
 28 31  1  0  0  0  0
 29 28  1  0  0  0  0
 30 28  1  0  0  0  0
M  END
