1,3,4
 OpenBabel05122313063D

 33 33  0  0  1  0  0  0  0  0999 V2000
    2.4127   -1.8567    0.3379 S   0  0  0  0  0  0  0  0  0  0  0  0
   -5.7618    1.4327   -0.0465 Cl  0  0  0  0  0  0  0  0  0  0  0  0
    0.5603    0.7382   -0.5059 N   0  0  0  0  0  2  0  0  0  0  0  0
   -1.7004   -0.5222   -0.0020 N   0  0  0  0  0  2  0  0  0  0  0  0
   -0.5224    2.7792   -0.6982 O   0  0  0  0  0  0  0  0  0  0  0  0
    2.1017    2.0436    1.5349 O   0  0  0  0  0  0  0  0  0  0  0  0
    2.9507    3.3652   -0.1026 O   0  0  0  0  0  0  0  0  0  0  0  0
   -1.8093    0.8066   -0.2389 C   0  0  2  0  0  3  0  0  0  0  0  0
   -3.0465    1.4548   -0.2579 C   0  0  0  0  0  0  0  0  0  0  0  0
   -3.0630    2.5369   -0.4488 H   0  0  0  0  0  0  0  0  0  0  0  0
   -4.1974    0.6869   -0.0321 C   0  0  0  0  0  0  0  0  0  0  0  0
   -4.0792   -0.6942    0.2090 C   0  0  0  0  0  0  0  0  0  0  0  0
   -4.9673   -1.3142    0.3894 H   0  0  0  0  0  0  0  0  0  0  0  0
   -2.8028   -1.2647    0.2202 C   0  0  0  0  0  0  0  0  0  0  0  0
   -2.6219   -2.3352    0.4135 H   0  0  0  0  0  0  0  0  0  0  0  0
   -0.5292    1.5558   -0.4935 C   0  0  0  0  0  0  0  0  0  0  0  0
    1.8028    1.4103   -0.8146 C   0  0  1  0  0  0  0  0  0  0  0  0
    1.6223    2.1084   -1.6604 H   0  0  0  0  0  0  0  0  0  0  0  0
    2.2643    2.2927    0.3558 C   0  0  0  0  0  0  0  0  0  0  0  0
    3.4524    4.2492    0.9083 C   0  0  0  0  0  0  0  0  0  0  0  0
    4.0001    5.0467    0.3757 H   0  0  0  0  0  0  0  0  0  0  0  0
    4.1262    3.7126    1.6067 H   0  0  0  0  0  0  0  0  0  0  0  0
    2.6170    4.6805    1.4952 H   0  0  0  0  0  0  0  0  0  0  0  0
    2.9414    0.4622   -1.2362 C   0  0  0  0  0  0  0  0  0  0  0  0
    3.7783    1.0967   -1.5959 H   0  0  0  0  0  0  0  0  0  0  0  0
    2.5988   -0.1352   -2.1076 H   0  0  0  0  0  0  0  0  0  0  0  0
    3.4825   -0.4457   -0.1345 C   0  0  0  0  0  0  0  0  0  0  0  0
    3.6266    0.1104    0.8138 H   0  0  0  0  0  0  0  0  0  0  0  0
    4.4577   -0.8923   -0.4168 H   0  0  0  0  0  0  0  0  0  0  0  0
    2.6916   -2.9932   -1.0617 C   0  0  0  0  0  0  0  0  0  0  0  0
    3.7248   -3.3871   -1.0038 H   0  0  0  0  0  0  0  0  0  0  0  0
    2.5105   -2.4879   -2.0286 H   0  0  0  0  0  0  0  0  0  0  0  0
    1.9509   -3.8018   -0.9160 H   0  0  0  0  0  0  0  0  0  0  0  0
  2 11  1  0  0  0  0
  3 16  1  0  0  0  0
  4 14  1  0  0  0  0
  5 16  2  0  0  0  0
  7 19  1  0  0  0  0
  7 20  1  0  0  0  0
  8 16  1  6  0  0  0
  8  4  1  0  0  0  0
  9  8  1  0  0  0  0
  9 11  2  0  0  0  0
 10  9  1  0  0  0  0
 11 12  1  0  0  0  0
 12 14  2  0  0  0  0
 12 13  1  0  0  0  0
 14 15  1  0  0  0  0
 17 18  1  6  0  0  0
 17  3  1  0  0  0  0
 17 19  1  0  0  0  0
 19  6  2  0  0  0  0
 20 23  1  0  0  0  0
 20 22  1  0  0  0  0
 21 20  1  0  0  0  0
 24 17  1  0  0  0  0
 24 27  1  0  0  0  0
 25 24  1  0  0  0  0
 26 24  1  0  0  0  0
 27  1  1  0  0  0  0
 27 28  1  0  0  0  0
 29 27  1  0  0  0  0
 30 31  1  0  0  0  0
 30 33  1  0  0  0  0
 30  1  1  0  0  0  0
 32 30  1  0  0  0  0
M  END
