1,5,7
 OpenBabel05122313063D

 38 40  0  0  1  0  0  0  0  0999 V2000
   -1.9086   -2.1409   -1.9289 S   0  0  0  0  0  1  0  0  0  0  0  0
   -2.9779    2.0183   -1.5900 S   0  0  0  0  0  0  0  0  0  0  0  0
   -0.2540   -4.1972   -1.6383 N   0  0  0  0  0  0  0  0  0  0  0  0
    0.6929   -2.2478   -0.9135 N   0  0  0  0  0  2  0  0  0  0  0  0
    0.5534   -0.9248   -0.7319 N   0  0  0  0  0  2  0  0  0  0  0  0
    0.7109    2.1580   -0.5011 N   0  0  0  0  0  2  0  0  0  0  0  0
   -0.4933    1.7169   -0.8723 N   0  0  0  0  0  2  0  0  0  0  0  0
   -1.0927    3.9549   -1.1689 N   0  0  0  0  0  0  0  0  0  0  0  0
   -0.3780   -2.8566   -1.4374 C   0  0  1  0  0  3  0  0  0  0  0  0
    1.6120   -0.2290   -0.3474 C   0  0  0  0  0  0  0  0  0  0  0  0
    1.6338    1.2587   -0.2246 C   0  0  0  0  0  0  0  0  0  0  0  0
   -1.4382    2.6560   -1.1953 C   0  0  0  0  0  0  0  0  0  0  0  0
    2.9881    1.6322    0.2147 C   0  0  0  0  0  0  0  0  0  0  0  0
    3.6136    2.8416    0.5058 C   0  0  0  0  0  0  0  0  0  0  0  0
    4.9785    2.8200    0.9130 C   0  0  0  0  0  0  0  0  0  0  0  0
    5.7104    1.6361    1.0294 C   0  0  0  0  0  0  0  0  0  0  0  0
    5.6837   -0.9203    0.7896 C   0  0  0  0  0  0  0  0  0  0  0  0
    4.9311   -2.0481    0.4570 C   0  0  0  0  0  0  0  0  0  0  0  0
    3.5669   -1.9739    0.0507 C   0  0  0  0  0  0  0  0  0  0  0  0
    2.9617   -0.7172   -0.0094 C   0  0  0  0  0  0  0  0  0  0  0  0
    3.7377    0.4296    0.3321 C   0  0  0  0  0  0  0  0  0  0  0  0
    5.0951    0.3807    0.7337 C   0  0  0  0  0  0  0  0  0  0  0  0
    0.9579   -4.9389   -1.3633 C   0  0  0  0  0  0  0  0  0  0  0  0
   -1.9462    5.0748   -1.4791 C   0  0  0  0  0  0  0  0  0  0  0  0
   -1.0514   -4.6606   -2.0719 H   0  0  0  0  0  0  0  0  0  0  0  0
   -0.1070    4.0913   -0.8991 H   0  0  0  0  0  0  0  0  0  0  0  0
    3.0684    3.7935    0.4250 H   0  0  0  0  0  0  0  0  0  0  0  0
    5.4737    3.7759    1.1448 H   0  0  0  0  0  0  0  0  0  0  0  0
    6.7639    1.6661    1.3479 H   0  0  0  0  0  0  0  0  0  0  0  0
    6.7365   -1.0291    1.0937 H   0  0  0  0  0  0  0  0  0  0  0  0
    5.4097   -3.0386    0.5057 H   0  0  0  0  0  0  0  0  0  0  0  0
    2.9979   -2.8736   -0.2122 H   0  0  0  0  0  0  0  0  0  0  0  0
   -2.9564    4.6881   -1.7141 H   0  0  0  0  0  0  0  0  0  0  0  0
   -1.5692    5.6419   -2.3574 H   0  0  0  0  0  0  0  0  0  0  0  0
   -2.0220    5.7753   -0.6197 H   0  0  0  0  0  0  0  0  0  0  0  0
    1.2235   -4.8977   -0.2855 H   0  0  0  0  0  0  0  0  0  0  0  0
    1.8217   -4.5290   -1.9292 H   0  0  0  0  0  0  0  0  0  0  0  0
    0.8053   -5.9953   -1.6527 H   0  0  0  0  0  0  0  0  0  0  0  0
  2 12  2  0  0  0  0
  3  9  1  0  0  0  0
  3 23  1  0  0  0  0
  4  5  1  0  0  0  0
  5 10  1  0  0  0  0
  6 11  1  0  0  0  0
  7  6  1  0  0  0  0
  8 26  1  0  0  0  0
  9  1  1  6  0  0  0
  9  4  1  0  0  0  0
 10 11  2  0  0  0  0
 10 20  1  0  0  0  0
 11 13  1  0  0  0  0
 12  8  1  0  0  0  0
 12  7  1  0  0  0  0
 13 21  2  0  0  0  0
 13 14  1  0  0  0  0
 14 15  2  0  0  0  0
 15 16  1  0  0  0  0
 15 28  1  0  0  0  0
 16 29  1  0  0  0  0
 17 30  1  0  0  0  0
 18 31  1  0  0  0  0
 18 17  2  0  0  0  0
 19 18  1  0  0  0  0
 20 19  2  0  0  0  0
 20 21  1  0  0  0  0
 21 22  1  0  0  0  0
 22 17  1  0  0  0  0
 22 16  2  0  0  0  0
 23 36  1  0  0  0  0
 24  8  1  0  0  0  0
 24 35  1  0  0  0  0
 25  3  1  0  0  0  0
 27 14  1  0  0  0  0
 32 19  1  0  0  0  0
 33 24  1  0  0  0  0
 34 24  1  0  0  0  0
 37 23  1  0  0  0  0
 38 23  1  0  0  0  0
M  END
