1,9,12
 OpenBabel05122313063D

 25 25  0  0  1  0  0  0  0  0999 V2000
   -0.5389    1.3813    1.2573 N   0  0  0  0  0  2  0  0  0  0  0  0
    0.3305    2.3235    1.7158 C   0  0  0  0  0  3  0  0  0  0  0  0
   -0.0632    3.3454    2.5710 C   0  0  0  0  0  0  0  0  0  0  0  0
   -1.4158    3.4228    2.9752 C   0  0  0  0  0  0  0  0  0  0  0  0
   -2.3178    2.4791    2.4974 C   0  0  0  0  0  0  0  0  0  0  0  0
   -1.8743    1.4548    1.6243 C   0  0  0  0  0  0  0  0  0  0  0  0
   -2.7252    0.4669    1.0300 C   0  0  1  0  0  3  0  0  0  0  0  0
   -4.1874    0.3540    1.3132 C   0  0  0  0  0  0  0  0  0  0  0  0
   -2.0707   -0.3313    0.1605 N   0  0  0  0  0  2  0  0  0  0  0  0
   -2.8078   -1.2633   -0.5046 N   0  0  0  0  0  2  0  0  0  0  0  0
   -2.1380   -1.8964   -1.4455 C   0  0  2  0  0  3  0  0  0  0  0  0
   -0.4406   -1.4700   -1.8839 S   0  0  0  0  0  1  0  0  0  0  0  0
   -2.7249   -2.8709   -2.1644 N   0  0  0  0  0  0  0  0  0  0  0  0
   -4.1013   -3.2894   -1.9601 C   0  0  0  0  0  0  0  0  0  0  0  0
   -2.1747   -3.2918   -2.9139 H   0  0  0  0  0  0  0  0  0  0  0  0
    1.3749    2.2088    1.3904 H   0  0  0  0  0  0  0  0  0  0  0  0
    0.6837    4.0663    2.9311 H   0  0  0  0  0  0  0  0  0  0  0  0
   -1.7505    4.2188    3.6558 H   0  0  0  0  0  0  0  0  0  0  0  0
   -3.3789    2.5171    2.7782 H   0  0  0  0  0  0  0  0  0  0  0  0
   -4.6108   -0.4918    0.7451 H   0  0  0  0  0  0  0  0  0  0  0  0
   -4.7266    1.2796    1.0218 H   0  0  0  0  0  0  0  0  0  0  0  0
   -4.3738    0.1910    2.3947 H   0  0  0  0  0  0  0  0  0  0  0  0
   -4.3058   -4.1738   -2.5893 H   0  0  0  0  0  0  0  0  0  0  0  0
   -4.8115   -2.4794   -2.2284 H   0  0  0  0  0  0  0  0  0  0  0  0
   -4.2716   -3.5504   -0.8966 H   0  0  0  0  0  0  0  0  0  0  0  0
  1  6  1  0  0  0  0
  1  2  1  0  0  0  0
  2  3  1  0  0  0  0
  3 17  1  0  0  0  0
  3  4  2  0  0  0  0
  4 18  1  0  0  0  0
  5 19  1  0  0  0  0
  5  4  1  0  0  0  0
  6  5  2  0  0  0  0
  7  9  1  6  0  0  0
  7  8  1  0  0  0  0
  7  6  1  0  0  0  0
  8 22  1  0  0  0  0
 10  9  1  0  0  0  0
 11 12  1  6  0  0  0
 11 10  1  0  0  0  0
 13 14  1  0  0  0  0
 13 11  1  0  0  0  0
 14 25  1  0  0  0  0
 15 13  1  0  0  0  0
 16  2  1  0  0  0  0
 20  8  1  0  0  0  0
 21  8  1  0  0  0  0
 23 14  1  0  0  0  0
 24 14  1  0  0  0  0
M  END
