2,5,15
 OpenBabel05122313063D

 34 35  0  0  1  0  0  0  0  0999 V2000
    1.7998    2.9073    0.4868 C   0  0  0  0  0  0  0  0  0  0  0  0
    1.0723    2.0736   -0.2158 N   0  0  0  0  0  2  0  0  0  0  0  0
    0.0512    2.5152   -0.9369 N   0  0  0  0  0  2  0  0  0  0  0  0
   -0.4747    1.6058   -1.7787 C   0  0  2  0  0  3  0  0  0  0  0  0
    0.1523    0.0601   -2.1535 S   0  0  0  0  0  1  0  0  0  0  0  0
   -1.9409    2.0767   -2.6372 S   0  0  0  0  0  0  0  0  0  0  0  0
   -2.6991    3.2930   -1.4609 C   0  0  0  0  0  0  0  0  0  0  0  0
   -3.5676    2.5932   -0.4486 C   0  0  0  0  0  0  0  0  0  0  0  0
   -4.9720    2.6348   -0.5559 C   0  0  0  0  0  0  0  0  0  0  0  0
   -5.7806    1.9312    0.3500 C   0  0  0  0  0  0  0  0  0  0  0  0
   -5.1936    1.1658    1.3690 C   0  0  0  0  0  0  0  0  0  0  0  0
   -3.7952    1.1195    1.4871 C   0  0  0  0  0  0  0  0  0  0  0  0
   -2.9897    1.8324    0.5901 C   0  0  0  0  0  0  0  0  0  0  0  0
    2.8554    2.3591    1.3197 C   0  0  0  0  0  0  0  0  0  0  0  0
    3.0523    1.0111    1.2666 N   0  0  0  0  0  2  0  0  0  0  0  0
    3.9516    0.4205    2.0794 C   0  0  0  0  0  0  0  0  0  0  0  0
    4.7499    1.1853    2.9538 C   0  0  0  0  0  0  0  0  0  0  0  0
    4.5887    2.5787    2.9906 C   0  0  0  0  0  0  0  0  0  0  0  0
    3.6260    3.1777    2.1754 C   0  0  0  0  0  0  0  0  0  0  0  0
    4.0294   -1.0769    2.0298 C   0  0  0  0  0  0  0  0  0  0  0  0
    1.5949    3.9928    0.4746 H   0  0  0  0  0  0  0  0  0  0  0  0
   -3.2783    3.9925   -2.0942 H   0  0  0  0  0  0  0  0  0  0  0  0
   -1.8425    3.8273   -1.0045 H   0  0  0  0  0  0  0  0  0  0  0  0
   -5.4359    3.2215   -1.3655 H   0  0  0  0  0  0  0  0  0  0  0  0
   -6.8763    1.9709    0.2494 H   0  0  0  0  0  0  0  0  0  0  0  0
   -5.8253    0.5926    2.0642 H   0  0  0  0  0  0  0  0  0  0  0  0
   -3.3161    0.5061    2.2649 H   0  0  0  0  0  0  0  0  0  0  0  0
   -1.8958    1.7727    0.6896 H   0  0  0  0  0  0  0  0  0  0  0  0
    5.4839    0.6823    3.5991 H   0  0  0  0  0  0  0  0  0  0  0  0
    5.2041    3.1915    3.6665 H   0  0  0  0  0  0  0  0  0  0  0  0
    3.4479    4.2625    2.1966 H   0  0  0  0  0  0  0  0  0  0  0  0
    4.7485   -1.4755    2.7682 H   0  0  0  0  0  0  0  0  0  0  0  0
    3.0221   -1.4953    2.2382 H   0  0  0  0  0  0  0  0  0  0  0  0
    4.3207   -1.4253    1.0189 H   0  0  0  0  0  0  0  0  0  0  0  0
  1 14  2  0  0  0  0
  2  1  1  0  0  0  0
  3  2  1  0  0  0  0
  4  5  1  6  0  0  0
  4  3  1  0  0  0  0
  6  4  1  0  0  0  0
  6  7  1  0  0  0  0
  7 23  1  0  0  0  0
  7  8  1  0  0  0  0
  8 13  1  0  0  0  0
  9  8  2  0  0  0  0
  9 10  1  0  0  0  0
 10 11  2  0  0  0  0
 11 12  1  0  0  0  0
 11 26  1  0  0  0  0
 12 27  1  0  0  0  0
 13 28  1  0  0  0  0
 13 12  2  0  0  0  0
 14 19  1  0  0  0  0
 15 14  1  0  0  0  0
 15 16  1  0  0  0  0
 16 17  2  0  0  0  0
 17 18  1  0  0  0  0
 17 29  1  0  0  0  0
 18 30  1  0  0  0  0
 19 31  1  0  0  0  0
 19 18  2  0  0  0  0
 20 16  1  0  0  0  0
 20 33  1  0  0  0  0
 20 32  1  0  0  0  0
 21  1  1  0  0  0  0
 22  7  1  0  0  0  0
 24  9  1  0  0  0  0
 25 10  1  0  0  0  0
 34 20  1  0  0  0  0
M  END
