1,2,4
 OpenBabel05122313063D

 40 41  0  0  0  0  0  0  0  0999 V2000
   -1.7465   -1.7804   -0.6435 S   0  0  0  0  0  0  0  0  0  0  0  0
    0.6462   -3.3103    0.3024 N   0  0  0  0  0  0  0  0  0  0  0  0
    0.4364   -3.3715    1.3196 H   0  0  0  0  0  0  0  0  0  0  0  0
    2.5571   -1.1685    0.5475 N   0  0  0  0  0  0  0  0  0  0  0  0
    5.0349    0.3866    0.8452 O   0  0  0  0  0  0  0  0  0  0  0  0
   -3.2227   -1.1724    0.2088 C   0  0  0  0  0  0  0  0  0  0  0  0
   -3.1731   -0.6002    1.4909 C   0  0  0  0  0  0  0  0  0  0  0  0
   -2.2231   -0.6055    2.0456 H   0  0  0  0  0  0  0  0  0  0  0  0
   -4.3400   -0.0447    2.0365 C   0  0  0  0  0  0  0  0  0  0  0  0
   -4.3037    0.4091    3.0388 H   0  0  0  0  0  0  0  0  0  0  0  0
   -5.5427   -0.0581    1.3109 C   0  0  0  0  0  0  0  0  0  0  0  0
   -6.4526    0.3858    1.7433 H   0  0  0  0  0  0  0  0  0  0  0  0
   -5.5825   -0.6301    0.0294 C   0  0  0  0  0  0  0  0  0  0  0  0
   -6.5191   -0.6307   -0.5487 H   0  0  0  0  0  0  0  0  0  0  0  0
   -4.4197   -1.1808   -0.5296 C   0  0  0  0  0  0  0  0  0  0  0  0
   -4.4268   -1.5945   -1.5493 H   0  0  0  0  0  0  0  0  0  0  0  0
   -1.7313   -3.5642   -0.1106 C   0  0  0  0  0  0  0  0  0  0  0  0
   -1.9307   -3.5988    0.9801 H   0  0  0  0  0  0  0  0  0  0  0  0
   -2.5305   -4.1066   -0.6523 H   0  0  0  0  0  0  0  0  0  0  0  0
   -0.3441   -4.1048   -0.4431 C   0  0  0  0  0  0  0  0  0  0  0  0
   -0.2774   -5.1853   -0.1771 H   0  0  0  0  0  0  0  0  0  0  0  0
   -0.1279   -3.9926   -1.5261 H   0  0  0  0  0  0  0  0  0  0  0  0
    2.0711   -3.5801    0.0811 C   0  0  0  0  0  0  0  0  0  0  0  0
    2.2791   -3.4423   -1.0000 H   0  0  0  0  0  0  0  0  0  0  0  0
    2.3505   -4.6218    0.3648 H   0  0  0  0  0  0  0  0  0  0  0  0
    2.8534   -2.5865    0.9341 C   0  0  0  0  0  0  0  0  0  0  0  0
    2.5493   -2.7038    1.9946 H   0  0  0  0  0  0  0  0  0  0  0  0
    3.9394   -2.8074    0.8719 H   0  0  0  0  0  0  0  0  0  0  0  0
    3.4161   -0.7445   -0.6047 C   0  0  0  0  0  0  0  0  0  0  0  0
    2.9966    0.2020   -0.9839 H   0  0  0  0  0  0  0  0  0  0  0  0
    3.3090   -1.4796   -1.4227 H   0  0  0  0  0  0  0  0  0  0  0  0
    4.8809   -0.5315   -0.2250 C   0  0  0  0  0  0  0  0  0  0  0  0
    5.3863   -1.4994    0.0272 H   0  0  0  0  0  0  0  0  0  0  0  0
    5.4116   -0.1039   -1.0992 H   0  0  0  0  0  0  0  0  0  0  0  0
    4.3203   -0.0696    1.9821 C   0  0  0  0  0  0  0  0  0  0  0  0
    4.4488    0.6930    2.7769 H   0  0  0  0  0  0  0  0  0  0  0  0
    4.7628   -1.0249    2.3649 H   0  0  0  0  0  0  0  0  0  0  0  0
    2.8339   -0.2334    1.6816 C   0  0  0  0  0  0  0  0  0  0  0  0
    2.2585   -0.5790    2.5615 H   0  0  0  0  0  0  0  0  0  0  0  0
    2.4239    0.7481    1.3826 H   0  0  0  0  0  0  0  0  0  0  0  0
  1 17  1  0  0  0  0
  1  6  1  0  0  0  0
  2  3  1  0  0  0  0
  4 26  1  0  0  0  0
  4 38  1  0  0  0  0
  5 35  1  0  0  0  0
  6  7  1  0  0  0  0
  7  9  2  0  0  0  0
  7  8  1  0  0  0  0
  9 10  1  0  0  0  0
 11 12  1  0  0  0  0
 11  9  1  0  0  0  0
 13 11  2  0  0  0  0
 14 13  1  0  0  0  0
 15 13  1  0  0  0  0
 15  6  2  0  0  0  0
 16 15  1  0  0  0  0
 17 18  1  0  0  0  0
 19 17  1  0  0  0  0
 20 21  1  0  0  0  0
 20 17  1  0  0  0  0
 20  2  1  0  0  0  0
 22 20  1  0  0  0  0
 23  2  1  0  0  0  0
 23 25  1  0  0  0  0
 23 26  1  0  0  0  0
 24 23  1  0  0  0  0
 26 27  1  0  0  0  0
 28 26  1  0  0  0  0
 29 32  1  0  0  0  0
 29  4  1  0  0  0  0
 30 29  1  0  0  0  0
 31 29  1  0  0  0  0
 32 33  1  0  0  0  0
 32  5  1  0  0  0  0
 34 32  1  0  0  0  0
 35 37  1  0  0  0  0
 35 36  1  0  0  0  0
 38 35  1  0  0  0  0
 38 39  1  0  0  0  0
 40 38  1  0  0  0  0
M  END
