1,2,4
 OpenBabel05122313063D

 40 41  0  0  1  0  0  0  0  0999 V2000
    1.6162   -0.7749   -2.2876 S   0  0  0  0  0  1  0  0  0  0  0  0
    1.7674    1.6082   -0.1144 N   0  0  0  0  0  2  0  0  0  0  0  0
    2.9038    0.9636    0.2451 N   0  0  0  0  0  0  0  0  0  0  0  0
    0.5770   -0.7714    0.8934 N   0  0  0  0  0  2  0  0  0  0  0  0
    1.8877   -0.9911    1.1746 N   0  0  0  0  0  0  0  0  0  0  0  0
    5.2544    1.4313    1.0425 C   0  0  0  0  0  0  0  0  0  0  0  0
    5.2111    0.8143    1.9652 H   0  0  0  0  0  0  0  0  0  0  0  0
    5.7929    0.8445    0.2706 H   0  0  0  0  0  0  0  0  0  0  0  0
    5.8610    2.3262    1.2710 H   0  0  0  0  0  0  0  0  0  0  0  0
    3.8977    1.8502    0.5821 C   0  0  2  0  0  3  0  0  0  0  0  0
    3.3497    3.1222    0.4076 C   0  0  0  0  0  0  0  0  0  0  0  0
    3.8578    4.0761    0.5832 H   0  0  0  0  0  0  0  0  0  0  0  0
    2.0122    2.9246   -0.0245 C   0  0  0  0  0  0  0  0  0  0  0  0
    0.9533    3.9194   -0.3736 C   0  0  0  0  0  0  0  0  0  0  0  0
   -0.0525    3.4948   -0.1836 H   0  0  0  0  0  0  0  0  0  0  0  0
    1.0699    4.8485    0.2157 H   0  0  0  0  0  0  0  0  0  0  0  0
    1.0015    4.1925   -1.4486 H   0  0  0  0  0  0  0  0  0  0  0  0
    3.3690   -2.0648    2.9165 C   0  0  0  0  0  0  0  0  0  0  0  0
    4.0099   -1.1803    3.1179 H   0  0  0  0  0  0  0  0  0  0  0  0
    3.2232   -2.5931    3.8761 H   0  0  0  0  0  0  0  0  0  0  0  0
    3.9313   -2.7432    2.2417 H   0  0  0  0  0  0  0  0  0  0  0  0
    2.0415   -1.6831    2.3504 C   0  0  2  0  0  3  0  0  0  0  0  0
    0.7516   -1.9141    2.8272 C   0  0  0  0  0  0  0  0  0  0  0  0
    0.4836   -2.4406    3.7489 H   0  0  0  0  0  0  0  0  0  0  0  0
   -0.1364   -1.3212    1.8926 C   0  0  0  0  0  0  0  0  0  0  0  0
   -1.6265   -1.2511    1.9243 C   0  0  0  0  0  0  0  0  0  0  0  0
   -1.9767   -0.2389    1.6438 H   0  0  0  0  0  0  0  0  0  0  0  0
   -2.0803   -1.9540    1.1955 H   0  0  0  0  0  0  0  0  0  0  0  0
   -2.0073   -1.5003    2.9316 H   0  0  0  0  0  0  0  0  0  0  0  0
    2.9328   -0.4973    0.2865 C   0  0  1  0  0  0  0  0  0  0  0  0
    3.8821   -0.7532    0.7933 H   0  0  0  0  0  0  0  0  0  0  0  0
    2.9885   -1.2045   -1.1111 C   0  0  0  0  0  0  0  0  0  0  0  0
    4.3103   -0.7886   -1.7769 C   0  0  0  0  0  0  0  0  0  0  0  0
    5.1930   -1.1031   -1.1746 H   0  0  0  0  0  0  0  0  0  0  0  0
    4.3839   -1.2679   -2.7714 H   0  0  0  0  0  0  0  0  0  0  0  0
    4.3462    0.3066   -1.9373 H   0  0  0  0  0  0  0  0  0  0  0  0
    2.9687   -2.7205   -0.8606 C   0  0  0  0  0  0  0  0  0  0  0  0
    3.7972   -3.0444   -0.1894 H   0  0  0  0  0  0  0  0  0  0  0  0
    2.0023   -3.0365   -0.4240 H   0  0  0  0  0  0  0  0  0  0  0  0
    3.0842   -3.2468   -1.8268 H   0  0  0  0  0  0  0  0  0  0  0  0
  1 32  1  0  0  0  0
  2 13  1  0  0  0  0
  2  3  1  0  0  0  0
  3 30  1  0  0  0  0
  3 10  1  0  0  0  0
  4  5  1  0  0  0  0
  4 25  1  0  0  0  0
  5 22  1  0  0  0  0
  6  9  1  0  0  0  0
  6  7  1  0  0  0  0
  8  6  1  0  0  0  0
 10  6  1  1  0  0  0
 11 10  1  0  0  0  0
 11 12  1  0  0  0  0
 13 11  2  0  0  0  0
 14 15  1  0  0  0  0
 14 13  1  0  0  0  0
 14 16  1  0  0  0  0
 17 14  1  0  0  0  0
 18 19  1  0  0  0  0
 18 20  1  0  0  0  0
 21 18  1  0  0  0  0
 22 23  1  0  0  0  0
 22 18  1  6  0  0  0
 23 24  1  0  0  0  0
 25 26  1  0  0  0  0
 25 23  2  0  0  0  0
 26 29  1  0  0  0  0
 27 26  1  0  0  0  0
 28 26  1  0  0  0  0
 30 31  1  1  0  0  0
 30  5  1  0  0  0  0
 32 37  1  0  0  0  0
 32 30  1  0  0  0  0
 33 34  1  0  0  0  0
 33 32  1  0  0  0  0
 35 33  1  0  0  0  0
 36 33  1  0  0  0  0
 37 39  1  0  0  0  0
 37 38  1  0  0  0  0
 40 37  1  0  0  0  0
M  END
