1,9,10
 OpenBabel05122313063D

 34 34  0  0  1  0  0  0  0  0999 V2000
   -2.1591   -1.4147    0.8961 S   0  0  0  0  0  1  0  0  0  0  0  0
   -4.5438   -0.4562    0.1775 N   0  0  0  0  0  0  0  0  0  0  0  0
   -5.1639    0.3425    0.0272 H   0  0  0  0  0  0  0  0  0  0  0  0
   -2.8450    1.0935    0.1424 N   0  0  0  0  0  0  0  0  0  0  0  0
   -3.4921    1.6858   -0.3981 H   0  0  0  0  0  0  0  0  0  0  0  0
    2.2950    1.8116   -0.1933 N   0  0  0  0  0  0  0  0  0  0  0  0
    2.8333    2.6480    0.0619 H   0  0  0  0  0  0  0  0  0  0  0  0
   -1.5673    1.4588    0.2628 N   0  0  0  0  0  0  0  0  0  0  0  0
    0.9699    1.8108   -0.2218 N   0  0  0  0  0  2  0  0  0  0  0  0
    2.2212   -0.4926   -0.5302 N   0  0  0  0  0  2  0  0  0  0  0  0
   -3.2214   -0.2274    0.3864 C   0  0  1  0  0  3  0  0  0  0  0  0
   -1.1948    2.6712   -0.0438 C   0  0  0  0  0  0  0  0  0  0  0  0
    0.2646    2.8931   -0.0379 C   0  0  1  0  0  3  0  0  0  0  0  0
    2.9756    0.6049   -0.3627 C   0  0  1  0  0  3  0  0  0  0  0  0
    4.3854    0.5708   -0.3681 C   0  0  0  0  0  0  0  0  0  0  0  0
    4.9710    1.4909   -0.2227 H   0  0  0  0  0  0  0  0  0  0  0  0
    5.0040   -0.6663   -0.5641 C   0  0  0  0  0  0  0  0  0  0  0  0
    6.1023   -0.7332   -0.5708 H   0  0  0  0  0  0  0  0  0  0  0  0
    4.2164   -1.8156   -0.7525 C   0  0  0  0  0  0  0  0  0  0  0  0
    4.6718   -2.8027   -0.9103 H   0  0  0  0  0  0  0  0  0  0  0  0
    2.8238   -1.6795   -0.7226 C   0  0  0  0  0  0  0  0  0  0  0  0
    2.1383   -2.5307   -0.8535 H   0  0  0  0  0  0  0  0  0  0  0  0
   -2.1652    3.7416   -0.4665 C   0  0  0  0  0  0  0  0  0  0  0  0
   -2.6391    3.4717   -1.4375 H   0  0  0  0  0  0  0  0  0  0  0  0
   -1.6771    4.7205   -0.6157 H   0  0  0  0  0  0  0  0  0  0  0  0
   -2.9769    3.8737    0.2809 H   0  0  0  0  0  0  0  0  0  0  0  0
    0.8914    4.2414    0.1889 C   0  0  0  0  0  0  0  0  0  0  0  0
    1.5484    4.2134    1.0868 H   0  0  0  0  0  0  0  0  0  0  0  0
    0.1427    5.0327    0.3679 H   0  0  0  0  0  0  0  0  0  0  0  0
    1.5183    4.5550   -0.6746 H   0  0  0  0  0  0  0  0  0  0  0  0
   -5.1516   -1.7626    0.3390 C   0  0  0  0  0  0  0  0  0  0  0  0
   -4.5578   -2.5226   -0.2072 H   0  0  0  0  0  0  0  0  0  0  0  0
   -6.1789   -1.7308   -0.0694 H   0  0  0  0  0  0  0  0  0  0  0  0
   -5.1878   -2.0732    1.4055 H   0  0  0  0  0  0  0  0  0  0  0  0
  2 31  1  0  0  0  0
  2 11  1  0  0  0  0
  3  2  1  0  0  0  0
  4  8  1  0  0  0  0
  4 11  1  0  0  0  0
  5  4  1  0  0  0  0
  6  7  1  0  0  0  0
  9  6  1  0  0  0  0
 10 14  1  0  0  0  0
 11  1  1  1  0  0  0
 12 13  1  0  0  0  0
 12  8  2  0  0  0  0
 13  9  1  1  0  0  0
 13 27  1  0  0  0  0
 14  6  1  6  0  0  0
 15 14  1  0  0  0  0
 15 16  1  0  0  0  0
 17 15  2  0  0  0  0
 18 17  1  0  0  0  0
 19 21  2  0  0  0  0
 19 17  1  0  0  0  0
 20 19  1  0  0  0  0
 21 10  1  0  0  0  0
 22 21  1  0  0  0  0
 23 12  1  0  0  0  0
 23 26  1  0  0  0  0
 24 23  1  0  0  0  0
 25 23  1  0  0  0  0
 27 29  1  0  0  0  0
 27 28  1  0  0  0  0
 30 27  1  0  0  0  0
 31 34  1  0  0  0  0
 32 31  1  0  0  0  0
 33 31  1  0  0  0  0
M  END
