1,4,5
 OpenBabel05122313063D

 26 26  0  0  1  0  0  0  0  0999 V2000
   -2.0819   -1.2909   -0.3564 S   0  0  0  0  0  1  0  0  0  0  0  0
    3.2982   -0.3976   -0.0881 N   0  0  0  0  0  0  0  0  0  0  0  0
    3.5345   -1.3910   -0.1464 H   0  0  0  0  0  0  0  0  0  0  0  0
    2.0070   -0.0564    0.0049 N   0  0  0  0  0  2  0  0  0  0  0  0
   -0.3558    0.9654    0.0346 N   0  0  0  0  0  2  0  0  0  0  0  0
   -1.6178    1.3764    0.0756 N   0  0  0  0  0  2  0  0  0  0  0  0
    5.5998    0.5876   -0.2150 C   0  0  0  0  0  0  0  0  0  0  0  0
    6.0308    0.0710    0.6676 H   0  0  0  0  0  0  0  0  0  0  0  0
    6.0498    1.5952   -0.2708 H   0  0  0  0  0  0  0  0  0  0  0  0
    5.9107    0.0246   -1.1191 H   0  0  0  0  0  0  0  0  0  0  0  0
    4.1145    0.6960   -0.1174 C   0  0  2  0  0  3  0  0  0  0  0  0
    3.2711    1.8132   -0.0374 C   0  0  0  0  0  0  0  0  0  0  0  0
    3.5818    2.8623   -0.0422 H   0  0  0  0  0  0  0  0  0  0  0  0
    1.9507    1.2938    0.0324 C   0  0  0  0  0  0  0  0  0  0  0  0
    0.6179    1.8510    0.0869 C   0  0  0  0  0  3  0  0  0  0  0  0
    0.4121    2.9316    0.1543 H   0  0  0  0  0  0  0  0  0  0  0  0
   -3.8304    0.7280   -0.0075 N   0  0  0  0  0  0  0  0  0  0  0  0
   -2.5117    0.3797   -0.0598 C   0  0  1  0  0  3  0  0  0  0  0  0
   -4.8972   -0.2433   -0.1531 C   0  0  0  0  0  0  0  0  0  0  0  0
   -4.5241   -1.2528    0.0995 H   0  0  0  0  0  0  0  0  0  0  0  0
   -5.2938   -0.2639   -1.1934 H   0  0  0  0  0  0  0  0  0  0  0  0
   -5.7293    0.0230    0.5305 H   0  0  0  0  0  0  0  0  0  0  0  0
   -4.2431    2.1211    0.0745 C   0  0  0  0  0  0  0  0  0  0  0  0
   -3.3475    2.7536    0.1911 H   0  0  0  0  0  0  0  0  0  0  0  0
   -4.9224    2.2664    0.9414 H   0  0  0  0  0  0  0  0  0  0  0  0
   -4.7904    2.4192   -0.8470 H   0  0  0  0  0  0  0  0  0  0  0  0
  2  4  1  0  0  0  0
  3  2  1  0  0  0  0
  4 14  1  0  0  0  0
  5  6  1  0  0  0  0
  5 15  1  0  0  0  0
  7  8  1  0  0  0  0
  9  7  1  0  0  0  0
 10  7  1  0  0  0  0
 11  7  1  1  0  0  0
 11  2  1  0  0  0  0
 11 12  1  0  0  0  0
 12 14  2  0  0  0  0
 13 12  1  0  0  0  0
 14 15  1  0  0  0  0
 15 16  1  0  0  0  0
 17 23  1  0  0  0  0
 18  1  1  6  0  0  0
 18 17  1  0  0  0  0
 18  6  1  0  0  0  0
 19 17  1  0  0  0  0
 19 20  1  0  0  0  0
 19 22  1  0  0  0  0
 21 19  1  0  0  0  0
 23 24  1  0  0  0  0
 23 25  1  0  0  0  0
 26 23  1  0  0  0  0
M  END
