1,3,4
 OpenBabel05122313063D

 34 35  0  0  1  0  0  0  0  0999 V2000
   -0.0712   -2.8074    0.3825 S   0  0  0  0  0  1  0  0  0  0  0  0
    2.6858   -2.3162   -0.5270 S   0  0  0  0  0  0  0  0  0  0  0  0
   -2.8911    0.5496    0.1090 N   0  0  0  0  0  2  0  0  0  0  0  0
   -0.4414   -0.0503   -0.4265 N   0  0  0  0  0  2  0  0  0  0  0  0
    0.8161   -0.4437   -0.6758 N   0  0  0  0  0  0  0  0  0  0  0  0
   -4.1678    0.7561    0.4657 C   0  0  0  0  0  3  0  0  0  0  0  0
   -4.6989   -0.1251    0.8566 H   0  0  0  0  0  0  0  0  0  0  0  0
   -4.7746    2.0142    0.3510 C   0  0  0  0  0  0  0  0  0  0  0  0
   -5.8240    2.1457    0.6485 H   0  0  0  0  0  0  0  0  0  0  0  0
   -4.0095    3.0812   -0.1442 C   0  0  0  0  0  0  0  0  0  0  0  0
   -4.4507    4.0838   -0.2479 H   0  0  0  0  0  0  0  0  0  0  0  0
   -2.6741    2.8650   -0.5017 C   0  0  0  0  0  0  0  0  0  0  0  0
   -2.0559    3.6895   -0.8799 H   0  0  0  0  0  0  0  0  0  0  0  0
   -2.1234    1.5730   -0.3657 C   0  0  0  0  0  0  0  0  0  0  0  0
   -0.7417    1.2138   -0.6807 C   0  0  1  0  0  3  0  0  0  0  0  0
    0.2795    2.1649   -1.2121 C   0  0  0  0  0  0  0  0  0  0  0  0
    1.1239    2.2554   -0.4969 H   0  0  0  0  0  0  0  0  0  0  0  0
   -0.1324    3.1670   -1.4216 H   0  0  0  0  0  0  0  0  0  0  0  0
    0.7274    1.7518   -2.1389 H   0  0  0  0  0  0  0  0  0  0  0  0
    1.0520   -1.7038   -0.3170 C   0  0  0  0  0  0  0  0  0  0  0  0
    3.5724   -0.8431   -1.1554 C   0  0  0  0  0  0  0  0  0  0  0  0
    4.5735   -1.2551   -1.4089 H   0  0  0  0  0  0  0  0  0  0  0  0
    3.0888   -0.5320   -2.1017 H   0  0  0  0  0  0  0  0  0  0  0  0
    3.6963    0.3369   -0.2138 C   0  0  0  0  0  0  0  0  0  0  0  0
    3.8862    1.6207   -0.7627 C   0  0  0  0  0  0  0  0  0  0  0  0
    3.9123    1.7431   -1.8575 H   0  0  0  0  0  0  0  0  0  0  0  0
    4.0271    2.7429    0.0672 C   0  0  0  0  0  0  0  0  0  0  0  0
    4.1714    3.7385   -0.3800 H   0  0  0  0  0  0  0  0  0  0  0  0
    3.9781    2.5970    1.4631 C   0  0  0  0  0  0  0  0  0  0  0  0
    4.0824    3.4762    2.1167 H   0  0  0  0  0  0  0  0  0  0  0  0
    3.7928    1.3207    2.0173 C   0  0  0  0  0  0  0  0  0  0  0  0
    3.7490    1.1949    3.1100 H   0  0  0  0  0  0  0  0  0  0  0  0
    3.6548    0.1997    1.1855 C   0  0  0  0  0  0  0  0  0  0  0  0
    3.4892   -0.7974    1.6219 H   0  0  0  0  0  0  0  0  0  0  0  0
  2 20  1  0  0  0  0
  3  6  1  0  0  0  0
  5  4  1  0  0  0  0
  5 20  2  0  0  0  0
  6  7  1  0  0  0  0
  8  6  1  0  0  0  0
  8  9  1  0  0  0  0
 10  8  2  0  0  0  0
 11 10  1  0  0  0  0
 12 14  2  0  0  0  0
 12 10  1  0  0  0  0
 13 12  1  0  0  0  0
 14  3  1  0  0  0  0
 15  4  1  1  0  0  0
 15 14  1  0  0  0  0
 16 15  1  0  0  0  0
 16 17  1  0  0  0  0
 18 16  1  0  0  0  0
 19 16  1  0  0  0  0
 20  1  1  0  0  0  0
 21  2  1  0  0  0  0
 21 24  1  0  0  0  0
 22 21  1  0  0  0  0
 23 21  1  0  0  0  0
 24 33  1  0  0  0  0
 25 24  2  0  0  0  0
 25 27  1  0  0  0  0
 26 25  1  0  0  0  0
 27 29  2  0  0  0  0
 28 27  1  0  0  0  0
 29 31  1  0  0  0  0
 29 30  1  0  0  0  0
 31 32  1  0  0  0  0
 33 34  1  0  0  0  0
 33 31  2  0  0  0  0
M  END
