1,3,4
 OpenBabel05122313063D

 34 35  0  0  1  0  0  0  0  0999 V2000
   -1.6963   -0.4152   -1.4748 S   0  0  0  0  0  0  0  0  0  0  0  0
   -1.2768    3.4469   -0.9182 O   0  0  0  0  0  0  0  0  0  0  0  0
    0.1171    1.6577   -0.4595 N   0  0  0  0  0  2  0  0  0  0  0  0
    2.3245   -0.2048    0.1964 N   0  0  0  0  0  2  0  0  0  0  0  0
    2.6210    0.7355    1.1308 C   0  0  1  0  0  3  0  0  0  0  0  0
    3.9324    0.8409    1.6287 C   0  0  0  0  0  0  0  0  0  0  0  0
    4.1525    1.6047    2.3881 H   0  0  0  0  0  0  0  0  0  0  0  0
    4.9327   -0.0194    1.1615 C   0  0  0  0  0  0  0  0  0  0  0  0
    5.9606    0.0608    1.5461 H   0  0  0  0  0  0  0  0  0  0  0  0
    4.5995   -0.9828    0.2001 C   0  0  0  0  0  0  0  0  0  0  0  0
    5.3450   -1.6859   -0.1966 H   0  0  0  0  0  0  0  0  0  0  0  0
    3.2805   -1.0493   -0.2557 C   0  0  0  0  0  0  0  0  0  0  0  0
    2.9360   -1.8089   -0.9734 H   0  0  0  0  0  0  0  0  0  0  0  0
    1.5206    1.6559    1.5830 C   0  0  0  0  0  0  0  0  0  0  0  0
    1.9239    2.3421    2.3529 H   0  0  0  0  0  0  0  0  0  0  0  0
    0.7145    1.0536    2.0571 H   0  0  0  0  0  0  0  0  0  0  0  0
    0.9087    2.4780    0.4386 C   0  0  0  0  0  0  0  0  0  0  0  0
    0.2549    3.2709    0.8603 H   0  0  0  0  0  0  0  0  0  0  0  0
    1.7238    3.0071   -0.1100 H   0  0  0  0  0  0  0  0  0  0  0  0
   -0.9478    2.2599   -1.0500 C   0  0  0  0  0  0  0  0  0  0  0  0
   -1.7708    1.3425   -1.9674 C   0  0  0  0  0  0  0  0  0  0  0  0
   -1.3465    1.3473   -2.9926 H   0  0  0  0  0  0  0  0  0  0  0  0
   -2.8209    1.6838   -2.0295 H   0  0  0  0  0  0  0  0  0  0  0  0
   -2.6744   -0.4513    0.0408 C   0  0  0  0  0  0  0  0  0  0  0  0
   -2.8016   -1.7182    0.6431 C   0  0  0  0  0  0  0  0  0  0  0  0
   -2.2750   -2.5831    0.2101 H   0  0  0  0  0  0  0  0  0  0  0  0
   -3.5590   -1.8450    1.8142 C   0  0  0  0  0  0  0  0  0  0  0  0
   -3.6556   -2.8324    2.2900 H   0  0  0  0  0  0  0  0  0  0  0  0
   -4.1862   -0.7218    2.3798 C   0  0  0  0  0  0  0  0  0  0  0  0
   -4.7824   -0.8264    3.2986 H   0  0  0  0  0  0  0  0  0  0  0  0
   -4.0428    0.5354    1.7745 C   0  0  0  0  0  0  0  0  0  0  0  0
   -4.5209    1.4217    2.2184 H   0  0  0  0  0  0  0  0  0  0  0  0
   -3.2838    0.6841    0.6019 C   0  0  0  0  0  0  0  0  0  0  0  0
   -3.1610    1.6825    0.1598 H   0  0  0  0  0  0  0  0  0  0  0  0
  1 24  1  0  0  0  0
  3 17  1  0  0  0  0
  4  5  1  0  0  0  0
  5 14  1  6  0  0  0
  5  6  1  0  0  0  0
  6  7  1  0  0  0  0
  8  9  1  0  0  0  0
  8  6  2  0  0  0  0
 10  8  1  0  0  0  0
 11 10  1  0  0  0  0
 12  4  1  0  0  0  0
 12 10  2  0  0  0  0
 13 12  1  0  0  0  0
 14 16  1  0  0  0  0
 14 15  1  0  0  0  0
 17 18  1  0  0  0  0
 17 14  1  0  0  0  0
 19 17  1  0  0  0  0
 20  2  2  0  0  0  0
 20  3  1  0  0  0  0
 21  1  1  0  0  0  0
 21 20  1  0  0  0  0
 22 21  1  0  0  0  0
 23 21  1  0  0  0  0
 24 33  2  0  0  0  0
 24 25  1  0  0  0  0
 25 27  2  0  0  0  0
 26 25  1  0  0  0  0
 27 28  1  0  0  0  0
 27 29  1  0  0  0  0
 29 30  1  0  0  0  0
 31 32  1  0  0  0  0
 31 29  2  0  0  0  0
 33 31  1  0  0  0  0
 34 33  1  0  0  0  0
M  END
