1,2,3
 OpenBabel05122313063D

 26 26  0  0  0  0  0  0  0  0999 V2000
    0.4870    2.1864    0.4065 S   0  0  0  0  0  0  0  0  0  0  0  0
   -1.5287   -0.5289   -0.0201 N   0  0  0  0  0  2  0  0  0  0  0  0
    0.4464    0.4081   -2.1721 N   0  0  0  0  0  0  0  0  0  0  0  0
    1.3695    0.4421   -2.6303 H   0  0  0  0  0  0  0  0  0  0  0  0
   -0.0929   -0.2906   -2.7036 H   0  0  0  0  0  0  0  0  0  0  0  0
   -2.0371   -1.4692   -0.8611 C   0  0  0  0  0  3  0  0  0  0  0  0
   -3.4033   -1.7000   -1.0240 C   0  0  0  0  0  0  0  0  0  0  0  0
   -4.3051   -0.9295   -0.2783 C   0  0  0  0  0  0  0  0  0  0  0  0
   -3.7899    0.0332    0.5955 C   0  0  0  0  0  0  0  0  0  0  0  0
   -2.3998    0.2200    0.7169 C   0  0  0  0  0  0  0  0  0  0  0  0
   -1.8713    1.2678    1.6649 C   0  0  0  0  0  0  0  0  0  0  0  0
   -1.1466    0.8146    2.3734 H   0  0  0  0  0  0  0  0  0  0  0  0
   -2.7157    1.6291    2.2841 H   0  0  0  0  0  0  0  0  0  0  0  0
   -1.2454    2.4895    0.9816 C   0  0  0  0  0  0  0  0  0  0  0  0
    0.4337    2.7440   -1.3494 C   0  0  0  0  0  0  0  0  0  0  0  0
   -0.2222    1.7314   -2.2737 C   0  0  0  0  0  0  0  0  0  0  0  0
   -1.3049   -2.0811   -1.4083 H   0  0  0  0  0  0  0  0  0  0  0  0
   -3.7437   -2.4836   -1.7153 H   0  0  0  0  0  0  0  0  0  0  0  0
   -5.3908   -1.0821   -0.3681 H   0  0  0  0  0  0  0  0  0  0  0  0
   -4.4641    0.6496    1.2073 H   0  0  0  0  0  0  0  0  0  0  0  0
   -1.1699    3.3317    1.6963 H   0  0  0  0  0  0  0  0  0  0  0  0
   -1.8515    2.8275    0.1175 H   0  0  0  0  0  0  0  0  0  0  0  0
   -0.0736    3.7280   -1.3883 H   0  0  0  0  0  0  0  0  0  0  0  0
    1.4982    2.9148   -1.6137 H   0  0  0  0  0  0  0  0  0  0  0  0
   -0.1986    2.1150   -3.3170 H   0  0  0  0  0  0  0  0  0  0  0  0
   -1.2878    1.5919   -1.9993 H   0  0  0  0  0  0  0  0  0  0  0  0
  1 14  1  0  0  0  0
  2 10  1  0  0  0  0
  4  3  1  0  0  0  0
  5  3  1  0  0  0  0
  6  2  1  0  0  0  0
  7  6  1  0  0  0  0
  7  8  2  0  0  0  0
  8  9  1  0  0  0  0
  9 10  2  0  0  0  0
  9 20  1  0  0  0  0
 10 11  1  0  0  0  0
 11 13  1  0  0  0  0
 11 12  1  0  0  0  0
 14 11  1  0  0  0  0
 14 21  1  0  0  0  0
 15  1  1  0  0  0  0
 16  3  1  0  0  0  0
 16 26  1  0  0  0  0
 16 15  1  0  0  0  0
 17  6  1  0  0  0  0
 18  7  1  0  0  0  0
 19  8  1  0  0  0  0
 22 14  1  0  0  0  0
 23 15  1  0  0  0  0
 24 15  1  0  0  0  0
 25 16  1  0  0  0  0
M  END
