1,2,3
 OpenBabel05122313063D

 29 29  0  0  0  0  0  0  0  0999 V2000
    0.5200   -0.0004   -1.7073 S   0  0  0  0  0  1  0  0  0  0  0  0
    0.9221   -0.0003    1.1684 N   0  0  0  0  0  2  0  0  0  0  0  0
   -1.3836    0.0000    2.2236 N   0  0  0  0  0  2  0  0  0  0  0  0
   -2.3266    0.0001    2.6320 H   0  0  0  0  0  0  0  0  0  0  0  0
    2.1130   -0.0004    0.5420 N   0  0  0  0  0  0  0  0  0  0  0  0
    2.0258   -0.0005   -0.7934 C   0  0  0  0  0  0  0  0  0  0  0  0
    0.9394   -0.0002    2.5188 C   0  0  0  0  0  0  0  0  0  0  0  0
   -0.3848   -0.0001    3.0932 C   0  0  0  0  0  0  0  0  0  0  0  0
    3.1613   -0.0006   -1.5421 N   0  0  0  0  0  0  0  0  0  0  0  0
    2.9780   -0.0007   -2.5495 H   0  0  0  0  0  0  0  0  0  0  0  0
    4.5295   -0.0004   -1.2032 C   0  0  0  0  0  0  0  0  0  0  0  0
   -0.6164    0.0000    4.5751 C   0  0  0  0  0  0  0  0  0  0  0  0
   -1.6973   -0.0002    4.8116 H   0  0  0  0  0  0  0  0  0  0  0  0
   -0.1581    0.8912    5.0511 H   0  0  0  0  0  0  0  0  0  0  0  0
   -0.1577   -0.8909    5.0512 H   0  0  0  0  0  0  0  0  0  0  0  0
    5.4420   -0.0006   -2.2841 C   0  0  0  0  0  0  0  0  0  0  0  0
    5.0618   -0.0009   -3.3185 H   0  0  0  0  0  0  0  0  0  0  0  0
    2.2243   -0.0002    3.2818 C   0  0  0  0  0  0  0  0  0  0  0  0
    2.8406   -0.8859    3.0205 H   0  0  0  0  0  0  0  0  0  0  0  0
    2.0541   -0.0002    4.3729 H   0  0  0  0  0  0  0  0  0  0  0  0
    2.8407    0.8855    3.0205 H   0  0  0  0  0  0  0  0  0  0  0  0
    5.0191   -0.0001    0.1211 C   0  0  0  0  0  0  0  0  0  0  0  0
    4.3079    0.0001    0.9536 H   0  0  0  0  0  0  0  0  0  0  0  0
    6.8197   -0.0005   -2.0468 C   0  0  0  0  0  0  0  0  0  0  0  0
    7.5153   -0.0006   -2.8990 H   0  0  0  0  0  0  0  0  0  0  0  0
    7.3101   -0.0001   -0.7307 C   0  0  0  0  0  0  0  0  0  0  0  0
    8.3936    0.0000   -0.5427 H   0  0  0  0  0  0  0  0  0  0  0  0
    6.4035    0.0001    0.3405 C   0  0  0  0  0  0  0  0  0  0  0  0
    6.7782    0.0004    1.3753 H   0  0  0  0  0  0  0  0  0  0  0  0
  1  6  1  0  0  0  0
  2  7  1  0  0  0  0
  3  4  1  0  0  0  0
  3  8  1  0  0  0  0
  5  2  1  0  0  0  0
  6  5  2  0  0  0  0
  7  8  2  0  0  0  0
  7 18  1  0  0  0  0
  8 12  1  0  0  0  0
  9 11  1  0  0  0  0
  9  6  1  0  0  0  0
 10  9  1  0  0  0  0
 11 22  1  0  0  0  0
 12 13  1  0  0  0  0
 12 14  1  0  0  0  0
 12 15  1  0  0  0  0
 16 24  1  0  0  0  0
 16 11  2  0  0  0  0
 17 16  1  0  0  0  0
 18 20  1  0  0  0  0
 19 18  1  0  0  0  0
 21 18  1  0  0  0  0
 22 28  2  0  0  0  0
 22 23  1  0  0  0  0
 24 26  2  0  0  0  0
 25 24  1  0  0  0  0
 26 27  1  0  0  0  0
 26 28  1  0  0  0  0
 28 29  1  0  0  0  0
M  END
