2,3,4
 OpenBabel05122313063D

 33 35  0  0  1  0  0  0  0  0999 V2000
   -1.2318   -0.0000    0.3681 P   0  0  2  0  0  4  0  0  0  0  0  0
   -0.1743   -0.0001    2.0725 S   0  0  0  0  0  1  0  0  0  0  0  0
    0.6477    1.5182   -0.7076 N   0  0  0  0  0  2  0  0  0  0  0  0
    0.6476   -1.5182   -0.7077 N   0  0  0  0  0  2  0  0  0  0  0  0
    1.1838    2.5583   -1.3990 C   0  0  0  0  0  3  0  0  0  0  0  0
    0.4031    3.5478   -1.9946 C   0  0  0  0  0  0  0  0  0  0  0  0
   -1.0006    3.4816   -1.8875 C   0  0  0  0  0  0  0  0  0  0  0  0
   -1.5678    2.4068   -1.1942 C   0  0  0  0  0  0  0  0  0  0  0  0
   -0.7147    1.4446   -0.6286 C   0  0  0  0  0  0  0  0  0  0  0  0
   -3.0512    0.0000    0.4838 C   0  0  0  0  0  0  0  0  0  0  0  0
   -3.8685    0.0001   -0.6683 C   0  0  0  0  0  0  0  0  0  0  0  0
   -5.2641    0.0001   -0.5297 C   0  0  0  0  0  0  0  0  0  0  0  0
   -5.8449    0.0001    0.7496 C   0  0  0  0  0  0  0  0  0  0  0  0
   -5.0316   -0.0000    1.8939 C   0  0  0  0  0  0  0  0  0  0  0  0
   -3.6348   -0.0001    1.7647 C   0  0  0  0  0  0  0  0  0  0  0  0
   -0.7147   -1.4446   -0.6287 C   0  0  1  0  0  3  0  0  0  0  0  0
   -1.5678   -2.4067   -1.1944 C   0  0  0  0  0  0  0  0  0  0  0  0
   -1.0007   -3.4815   -1.8878 C   0  0  0  0  0  0  0  0  0  0  0  0
    0.4030   -3.5476   -1.9949 C   0  0  0  0  0  0  0  0  0  0  0  0
    1.1838   -2.5583   -1.3992 C   0  0  0  0  0  0  0  0  0  0  0  0
    2.2827    2.5716   -1.4500 H   0  0  0  0  0  0  0  0  0  0  0  0
    0.8949    4.3705   -2.5328 H   0  0  0  0  0  0  0  0  0  0  0  0
   -1.6384    4.2579   -2.3350 H   0  0  0  0  0  0  0  0  0  0  0  0
   -2.6565    2.3172   -1.0756 H   0  0  0  0  0  0  0  0  0  0  0  0
   -3.4179    0.0002   -1.6727 H   0  0  0  0  0  0  0  0  0  0  0  0
   -5.9022    0.0002   -1.4264 H   0  0  0  0  0  0  0  0  0  0  0  0
   -6.9405    0.0001    0.8538 H   0  0  0  0  0  0  0  0  0  0  0  0
   -5.4867   -0.0001    2.8956 H   0  0  0  0  0  0  0  0  0  0  0  0
   -2.9821   -0.0001    2.6523 H   0  0  0  0  0  0  0  0  0  0  0  0
   -2.6565   -2.3171   -1.0758 H   0  0  0  0  0  0  0  0  0  0  0  0
   -1.6385   -4.2577   -2.3353 H   0  0  0  0  0  0  0  0  0  0  0  0
    0.8948   -4.3703   -2.5331 H   0  0  0  0  0  0  0  0  0  0  0  0
    2.2827   -2.5716   -1.4502 H   0  0  0  0  0  0  0  0  0  0  0  0
  1 10  1  0  0  0  0
  1  2  1  1  0  0  0
  3  9  1  0  0  0  0
  4 16  1  0  0  0  0
  5  3  1  0  0  0  0
  6  7  2  0  0  0  0
  6  5  1  0  0  0  0
  7  8  1  0  0  0  0
  8 24  1  0  0  0  0
  8  9  2  0  0  0  0
  9  1  1  0  0  0  0
 10 15  1  0  0  0  0
 11 12  1  0  0  0  0
 11 10  2  0  0  0  0
 12 13  2  0  0  0  0
 13 27  1  0  0  0  0
 13 14  1  0  0  0  0
 14 28  1  0  0  0  0
 15 14  2  0  0  0  0
 15 29  1  0  0  0  0
 16  1  1  1  0  0  0
 17 30  1  0  0  0  0
 17 16  1  0  0  0  0
 18 17  2  0  0  0  0
 19 18  1  0  0  0  0
 19 20  2  0  0  0  0
 20  4  1  0  0  0  0
 21  5  1  0  0  0  0
 22  6  1  0  0  0  0
 23  7  1  0  0  0  0
 25 11  1  0  0  0  0
 26 12  1  0  0  0  0
 31 18  1  0  0  0  0
 32 19  1  0  0  0  0
 33 20  1  0  0  0  0
M  END
