1,2,4
 OpenBabel05122313063D

 21 20  0  0  0  0  0  0  0  0999 V2000
   -0.1785   -1.5924   -1.6406 S   0  0  0  0  0  1  0  0  0  0  0  0
    2.0117   -0.2043   -0.1553 N   0  0  0  0  0  0  0  0  0  0  0  0
    2.1947   -0.8575    0.6271 H   0  0  0  0  0  0  0  0  0  0  0  0
    0.0965    1.3427    1.4886 N   0  0  0  0  0  0  0  0  0  0  0  0
   -0.8066    1.8249    1.6031 H   0  0  0  0  0  0  0  0  0  0  0  0
    0.1671    0.6781    2.2894 H   0  0  0  0  0  0  0  0  0  0  0  0
    1.5541   -2.1533   -1.5838 C   0  0  0  0  0  0  0  0  0  0  0  0
    1.6807   -2.8740   -0.7482 H   0  0  0  0  0  0  0  0  0  0  0  0
    1.8029   -2.6698   -2.5320 H   0  0  0  0  0  0  0  0  0  0  0  0
    2.4356   -0.9360   -1.3878 C   0  0  0  0  0  0  0  0  0  0  0  0
    3.5119   -1.2089   -1.2965 H   0  0  0  0  0  0  0  0  0  0  0  0
    2.3375   -0.2453   -2.2512 H   0  0  0  0  0  0  0  0  0  0  0  0
    2.8374    1.0016    0.0772 C   0  0  0  0  0  0  0  0  0  0  0  0
    2.6672    1.7108   -0.7623 H   0  0  0  0  0  0  0  0  0  0  0  0
    3.9113    0.7178    0.0180 H   0  0  0  0  0  0  0  0  0  0  0  0
    2.5587    1.6801    1.4139 C   0  0  0  0  0  0  0  0  0  0  0  0
    2.6977    0.9511    2.2434 H   0  0  0  0  0  0  0  0  0  0  0  0
    3.3311    2.4600    1.5688 H   0  0  0  0  0  0  0  0  0  0  0  0
    1.1866    2.3366    1.5260 C   0  0  0  0  0  0  0  0  0  0  0  0
    1.1367    2.9308    2.4640 H   0  0  0  0  0  0  0  0  0  0  0  0
    1.0394    3.0533    0.6894 H   0  0  0  0  0  0  0  0  0  0  0  0
  1  7  1  0  0  0  0
  2 13  1  0  0  0  0
  2  3  1  0  0  0  0
  4 19  1  0  0  0  0
  4  5  1  0  0  0  0
  4  6  1  0  0  0  0
  7 10  1  0  0  0  0
  7  8  1  0  0  0  0
  9  7  1  0  0  0  0
 10 11  1  0  0  0  0
 10  2  1  0  0  0  0
 12 10  1  0  0  0  0
 13 16  1  0  0  0  0
 14 13  1  0  0  0  0
 15 13  1  0  0  0  0
 16 19  1  0  0  0  0
 16 18  1  0  0  0  0
 16 17  1  0  0  0  0
 19 20  1  0  0  0  0
 21 19  1  0  0  0  0
M  END
