1,2,4
 OpenBabel05122313063D

 31 32  0  0  1  0  0  0  0  0999 V2000
   -0.9144   -1.0892   -1.3123 S   0  0  0  0  0  1  0  0  0  0  0  0
    0.4777    1.8397    1.3063 N   0  0  0  0  0  2  0  0  0  0  0  0
    0.8094    3.7331    3.3313 N   0  0  0  0  0  0  0  0  0  0  0  0
   -1.6490    0.4916    0.9287 N   0  0  0  0  0  2  0  0  0  0  0  0
   -2.6831   -0.2797    0.6026 N   0  0  0  0  0  0  0  0  0  0  0  0
   -3.3951   -1.9347   -0.8884 N   0  0  0  0  0  0  0  0  0  0  0  0
   -3.0976   -2.5029   -1.6868 H   0  0  0  0  0  0  0  0  0  0  0  0
    1.6405    2.4933    1.4492 C   0  0  0  0  0  3  0  0  0  0  0  0
    2.4530    2.2440    0.7511 H   0  0  0  0  0  0  0  0  0  0  0  0
    1.7990    3.4431    2.4710 C   0  0  0  0  0  0  0  0  0  0  0  0
    2.7567    3.9763    2.5891 H   0  0  0  0  0  0  0  0  0  0  0  0
   -0.3414    3.0756    3.1894 C   0  0  0  0  0  0  0  0  0  0  0  0
   -1.1503    3.3141    3.9000 H   0  0  0  0  0  0  0  0  0  0  0  0
   -0.5491    2.1030    2.1785 C   0  0  0  0  0  0  0  0  0  0  0  0
   -1.7536    1.3312    1.9617 C   0  0  2  0  0  3  0  0  0  0  0  0
   -3.0016    1.4095    2.7752 C   0  0  0  0  0  0  0  0  0  0  0  0
   -2.9182    2.1337    3.6036 H   0  0  0  0  0  0  0  0  0  0  0  0
   -3.2436    0.4114    3.1959 H   0  0  0  0  0  0  0  0  0  0  0  0
   -3.8655    1.6936    2.1387 H   0  0  0  0  0  0  0  0  0  0  0  0
   -2.4415   -1.0789   -0.4465 C   0  0  0  0  0  0  0  0  0  0  0  0
   -4.7159   -2.1946   -0.4613 C   0  0  0  0  0  0  0  0  0  0  0  0
   -5.3403   -1.5425    0.6233 C   0  0  0  0  0  0  0  0  0  0  0  0
   -4.7879   -0.7848    1.1886 H   0  0  0  0  0  0  0  0  0  0  0  0
   -6.6582   -1.8818    0.9584 C   0  0  0  0  0  0  0  0  0  0  0  0
   -7.1406   -1.3717    1.8056 H   0  0  0  0  0  0  0  0  0  0  0  0
   -7.3639   -2.8559    0.2354 C   0  0  0  0  0  0  0  0  0  0  0  0
   -8.3973   -3.1116    0.5107 H   0  0  0  0  0  0  0  0  0  0  0  0
   -6.7384   -3.5027   -0.8429 C   0  0  0  0  0  0  0  0  0  0  0  0
   -7.2767   -4.2690   -1.4197 H   0  0  0  0  0  0  0  0  0  0  0  0
   -5.4244   -3.1766   -1.1912 C   0  0  0  0  0  0  0  0  0  0  0  0
   -4.9367   -3.6867   -2.0378 H   0  0  0  0  0  0  0  0  0  0  0  0
  1 20  1  0  0  0  0
  2  8  1  0  0  0  0
  2 14  1  0  0  0  0
  5  4  1  0  0  0  0
  6 21  1  0  0  0  0
  6 20  1  0  0  0  0
  7  6  1  0  0  0  0
  8 10  1  0  0  0  0
  9  8  1  0  0  0  0
 10 11  1  0  0  0  0
 10  3  2  0  0  0  0
 12  3  1  0  0  0  0
 12 13  1  0  0  0  0
 14 12  2  0  0  0  0
 15  4  1  1  0  0  0
 15 14  1  0  0  0  0
 15 16  1  0  0  0  0
 16 18  1  0  0  0  0
 16 17  1  0  0  0  0
 19 16  1  0  0  0  0
 20  5  2  0  0  0  0
 21 22  1  0  0  0  0
 22 24  2  0  0  0  0
 22 23  1  0  0  0  0
 24 25  1  0  0  0  0
 26 27  1  0  0  0  0
 26 24  1  0  0  0  0
 28 26  2  0  0  0  0
 29 28  1  0  0  0  0
 30 28  1  0  0  0  0
 30 21  2  0  0  0  0
 31 30  1  0  0  0  0
M  END
