1,2,4
 OpenBabel05122313063D

 45 46  0  0  0  0  0  0  0  0999 V2000
   -0.4499    0.8586    0.9988 S   0  0  0  0  0  0  0  0  0  0  0  0
    2.3865   -0.4825    0.5859 N   0  0  0  0  0  0  0  0  0  0  0  0
    2.5142   -1.2635    1.2570 H   0  0  0  0  0  0  0  0  0  0  0  0
   -1.4893   -1.6719   -0.6238 N   0  0  0  0  0  0  0  0  0  0  0  0
   -1.1238   -2.3464   -1.3236 H   0  0  0  0  0  0  0  0  0  0  0  0
    0.5906    2.1637    0.3279 C   0  0  0  0  0  0  0  0  0  0  0  0
    1.9649    1.9915    0.6240 C   0  0  0  0  0  0  0  0  0  0  0  0
    2.8638    2.9582    0.1438 C   0  0  0  0  0  0  0  0  0  0  0  0
    3.9370    2.8403    0.3625 H   0  0  0  0  0  0  0  0  0  0  0  0
    2.4164    4.0547   -0.6096 C   0  0  0  0  0  0  0  0  0  0  0  0
    3.1380    4.7980   -0.9789 H   0  0  0  0  0  0  0  0  0  0  0  0
    1.0515    4.1914   -0.9003 C   0  0  0  0  0  0  0  0  0  0  0  0
    0.6963    5.0391   -1.5053 H   0  0  0  0  0  0  0  0  0  0  0  0
    0.1293    3.2417   -0.4349 C   0  0  0  0  0  0  0  0  0  0  0  0
   -0.9390    3.3329   -0.6753 H   0  0  0  0  0  0  0  0  0  0  0  0
   -2.1151    1.2453    0.4448 C   0  0  0  0  0  0  0  0  0  0  0  0
   -2.8401    0.4706   -0.4960 C   0  0  0  0  0  0  0  0  0  0  0  0
   -4.1893    0.8297   -0.7113 C   0  0  0  0  0  0  0  0  0  0  0  0
   -4.7747    0.2384   -1.4328 H   0  0  0  0  0  0  0  0  0  0  0  0
   -4.7937    1.9075   -0.0536 C   0  0  0  0  0  0  0  0  0  0  0  0
   -5.8463    2.1531   -0.2589 H   0  0  0  0  0  0  0  0  0  0  0  0
   -4.0589    2.6578    0.8764 C   0  0  0  0  0  0  0  0  0  0  0  0
   -4.5223    3.4985    1.4136 H   0  0  0  0  0  0  0  0  0  0  0  0
   -2.7293    2.3091    1.1374 C   0  0  0  0  0  0  0  0  0  0  0  0
   -2.1469    2.8629    1.8894 H   0  0  0  0  0  0  0  0  0  0  0  0
    2.4403    0.7786    1.3878 C   0  0  0  0  0  0  0  0  0  0  0  0
    3.4760    0.9517    1.7459 H   0  0  0  0  0  0  0  0  0  0  0  0
    1.8078    0.5892    2.2813 H   0  0  0  0  0  0  0  0  0  0  0  0
   -2.2673   -0.6373   -1.3450 C   0  0  0  0  0  0  0  0  0  0  0  0
   -3.0997   -1.1174   -1.8990 H   0  0  0  0  0  0  0  0  0  0  0  0
   -1.5633   -0.1978   -2.0867 H   0  0  0  0  0  0  0  0  0  0  0  0
    3.4168   -0.5706   -0.4845 C   0  0  0  0  0  0  0  0  0  0  0  0
    3.2485    0.2803   -1.1722 H   0  0  0  0  0  0  0  0  0  0  0  0
    3.1755   -1.4890   -1.0532 H   0  0  0  0  0  0  0  0  0  0  0  0
    4.8475   -0.6199    0.0422 C   0  0  0  0  0  0  0  0  0  0  0  0
    4.9889   -1.4586    0.7560 H   0  0  0  0  0  0  0  0  0  0  0  0
    5.1664    0.3166    0.5439 H   0  0  0  0  0  0  0  0  0  0  0  0
    5.5426   -0.7874   -0.8042 H   0  0  0  0  0  0  0  0  0  0  0  0
   -2.2621   -2.4392    0.3882 C   0  0  0  0  0  0  0  0  0  0  0  0
   -2.5359   -1.7383    1.2025 H   0  0  0  0  0  0  0  0  0  0  0  0
   -1.5492   -3.1594    0.8311 H   0  0  0  0  0  0  0  0  0  0  0  0
   -3.4915   -3.1470   -0.1725 C   0  0  0  0  0  0  0  0  0  0  0  0
   -3.9287   -3.7962    0.6115 H   0  0  0  0  0  0  0  0  0  0  0  0
   -3.2279   -3.7982   -1.0321 H   0  0  0  0  0  0  0  0  0  0  0  0
   -4.2857   -2.4451   -0.4977 H   0  0  0  0  0  0  0  0  0  0  0  0
  2  3  1  0  0  0  0
  2 26  1  0  0  0  0
  4 39  1  0  0  0  0
  5  4  1  0  0  0  0
  6  7  1  0  0  0  0
  6  1  1  0  0  0  0
  7 26  1  0  0  0  0
  8  9  1  0  0  0  0
  8  7  2  0  0  0  0
 10  8  1  0  0  0  0
 11 10  1  0  0  0  0
 12 10  2  0  0  0  0
 12 14  1  0  0  0  0
 13 12  1  0  0  0  0
 14  6  2  0  0  0  0
 15 14  1  0  0  0  0
 16  1  1  0  0  0  0
 16 24  1  0  0  0  0
 17 16  2  0  0  0  0
 18 17  1  0  0  0  0
 18 20  2  0  0  0  0
 19 18  1  0  0  0  0
 20 22  1  0  0  0  0
 21 20  1  0  0  0  0
 22 24  2  0  0  0  0
 22 23  1  0  0  0  0
 24 25  1  0  0  0  0
 26 27  1  0  0  0  0
 26 28  1  0  0  0  0
 29  4  1  0  0  0  0
 29 17  1  0  0  0  0
 30 29  1  0  0  0  0
 31 29  1  0  0  0  0
 32 35  1  0  0  0  0
 32  2  1  0  0  0  0
 33 32  1  0  0  0  0
 34 32  1  0  0  0  0
 35 37  1  0  0  0  0
 35 36  1  0  0  0  0
 38 35  1  0  0  0  0
 39 41  1  0  0  0  0
 39 40  1  0  0  0  0
 42 39  1  0  0  0  0
 42 43  1  0  0  0  0
 44 42  1  0  0  0  0
 45 42  1  0  0  0  0
M  END
