1,2,3
 OpenBabel05122313063D

 36 38  0  0  1  0  0  0  0  0999 V2000
   -0.8289    0.2684    1.7452 S   0  0  0  0  0  0  0  0  0  0  0  0
    1.2408    0.5054   -0.5601 N   0  0  0  0  0  2  0  0  0  0  0  0
   -1.4149    0.5181   -1.2880 N   0  0  0  0  0  0  0  0  0  0  0  0
   -2.1386    0.0640   -1.8635 H   0  0  0  0  0  0  0  0  0  0  0  0
    0.8823    1.3871   -1.5127 C   0  0  0  0  0  0  0  0  0  0  0  0
   -0.4232    1.1351   -2.2199 C   0  0  0  0  0  0  0  0  0  0  0  0
   -0.2615    0.4157   -3.0510 H   0  0  0  0  0  0  0  0  0  0  0  0
   -0.8102    2.0759   -2.6617 H   0  0  0  0  0  0  0  0  0  0  0  0
    2.4371    0.6975    0.1150 C   0  0  2  0  0  3  0  0  0  0  0  0
   -2.0872    1.4968   -0.4264 C   0  0  0  0  0  0  0  0  0  0  0  0
    2.8353   -0.1698    1.1653 C   0  0  0  0  0  0  0  0  0  0  0  0
    2.1810   -0.9983    1.4520 H   0  0  0  0  0  0  0  0  0  0  0  0
    3.3098    1.7948   -0.2346 C   0  0  0  0  0  0  0  0  0  0  0  0
    4.9064    1.0910    1.4720 C   0  0  0  0  0  0  0  0  0  0  0  0
    5.8597    1.2234    2.0039 H   0  0  0  0  0  0  0  0  0  0  0  0
   -1.8879    1.4991    0.9675 C   0  0  0  0  0  0  0  0  0  0  0  0
    1.6829    2.4912   -1.8867 C   0  0  0  0  0  0  0  0  0  0  0  0
    1.3276    3.1744   -2.6706 H   0  0  0  0  0  0  0  0  0  0  0  0
    4.0413    0.0229    1.8248 C   0  0  0  0  0  0  0  0  0  0  0  0
    4.3288   -0.6669    2.6320 H   0  0  0  0  0  0  0  0  0  0  0  0
    2.9012    2.6850   -1.2600 C   0  0  0  0  0  0  0  0  0  0  0  0
    3.5511    3.5289   -1.5370 H   0  0  0  0  0  0  0  0  0  0  0  0
    4.5425    1.9632    0.4597 C   0  0  0  0  0  0  0  0  0  0  0  0
    5.1958    2.8013    0.1745 H   0  0  0  0  0  0  0  0  0  0  0  0
   -2.9424    2.4530   -1.0025 C   0  0  0  0  0  0  0  0  0  0  0  0
   -3.1174    2.4433   -2.0899 H   0  0  0  0  0  0  0  0  0  0  0  0
   -3.5833    3.4072   -0.2024 C   0  0  0  0  0  0  0  0  0  0  0  0
   -4.2581    4.1421   -0.6647 H   0  0  0  0  0  0  0  0  0  0  0  0
   -2.5076    2.4782    1.7665 C   0  0  0  0  0  0  0  0  0  0  0  0
   -2.3242    2.4933    2.8512 H   0  0  0  0  0  0  0  0  0  0  0  0
   -3.3587    3.4246    1.1837 C   0  0  0  0  0  0  0  0  0  0  0  0
   -3.8488    4.1794    1.8157 H   0  0  0  0  0  0  0  0  0  0  0  0
   -2.0184   -0.6191    2.8171 C   0  0  0  0  0  0  0  0  0  0  0  0
   -2.3478    0.0529    3.6305 H   0  0  0  0  0  0  0  0  0  0  0  0
   -1.4540   -1.4697    3.2443 H   0  0  0  0  0  0  0  0  0  0  0  0
   -2.8755   -0.9883    2.2263 H   0  0  0  0  0  0  0  0  0  0  0  0
  1 33  1  0  0  0  0
  3 10  1  0  0  0  0
  4  3  1  0  0  0  0
  5  2  1  0  0  0  0
  6  5  1  0  0  0  0
  6  3  1  0  0  0  0
  7  6  1  0  0  0  0
  8  6  1  0  0  0  0
  9  2  1  1  0  0  0
  9 11  1  0  0  0  0
 10 16  1  0  0  0  0
 11 12  1  0  0  0  0
 11 19  2  0  0  0  0
 13  9  1  0  0  0  0
 13 23  1  0  0  0  0
 14 19  1  0  0  0  0
 14 15  1  0  0  0  0
 16  1  1  0  0  0  0
 16 29  2  0  0  0  0
 17  5  2  0  0  0  0
 17 21  1  0  0  0  0
 18 17  1  0  0  0  0
 19 20  1  0  0  0  0
 21 13  2  0  0  0  0
 22 21  1  0  0  0  0
 23 14  2  0  0  0  0
 24 23  1  0  0  0  0
 25 10  2  0  0  0  0
 25 27  1  0  0  0  0
 26 25  1  0  0  0  0
 27 31  2  0  0  0  0
 28 27  1  0  0  0  0
 29 30  1  0  0  0  0
 31 29  1  0  0  0  0
 31 32  1  0  0  0  0
 33 35  1  0  0  0  0
 33 34  1  0  0  0  0
 36 33  1  0  0  0  0
M  END
