1,2,3
 OpenBabel05122313063D

 35 36  0  0  0  0  0  0  0  0999 V2000
    0.2935   -2.2601    0.0000 S   0  0  0  0  0  1  0  0  0  0  0  0
   -0.0888    0.6105   -0.0000 N   0  0  0  0  0  2  0  0  0  0  0  0
   -2.6799    0.8931    0.0000 N   0  0  0  0  0  2  0  0  0  0  0  0
   -4.0236    0.9256   -0.0000 C   0  0  0  0  0  0  0  0  0  0  0  0
   -4.5054   -0.0671    0.0000 H   0  0  0  0  0  0  0  0  0  0  0  0
   -4.7309    2.1348   -0.0000 C   0  0  0  0  0  0  0  0  0  0  0  0
   -5.8295    2.1219   -0.0001 H   0  0  0  0  0  0  0  0  0  0  0  0
   -4.0077    3.3372   -0.0001 C   0  0  0  0  0  0  0  0  0  0  0  0
   -4.5306    4.3051   -0.0001 H   0  0  0  0  0  0  0  0  0  0  0  0
   -2.6081    3.3000   -0.0001 C   0  0  0  0  0  0  0  0  0  0  0  0
   -2.0260    4.2309   -0.0001 H   0  0  0  0  0  0  0  0  0  0  0  0
   -1.9383    2.0593   -0.0000 C   0  0  0  0  0  0  0  0  0  0  0  0
   -0.4929    1.8867   -0.0000 C   0  0  0  0  0  0  0  0  0  0  0  0
    0.5098    2.9943   -0.0001 C   0  0  0  0  0  0  0  0  0  0  0  0
    1.1718    2.9172   -0.8877 H   0  0  0  0  0  0  0  0  0  0  0  0
    1.1718    2.9172    0.8876 H   0  0  0  0  0  0  0  0  0  0  0  0
    0.0327    3.9897   -0.0001 H   0  0  0  0  0  0  0  0  0  0  0  0
    1.2278    0.3385   -0.0000 N   0  0  0  0  0  0  0  0  0  0  0  0
    1.4999   -0.9679   -0.0000 C   0  0  0  0  0  0  0  0  0  0  0  0
    2.7962   -1.3940   -0.0000 N   0  0  0  0  0  0  0  0  0  0  0  0
    2.8818   -2.4138   -0.0000 H   0  0  0  0  0  0  0  0  0  0  0  0
    4.0208   -0.7045   -0.0000 C   0  0  0  0  0  0  0  0  0  0  0  0
    4.1296    0.7035    0.0001 C   0  0  0  0  0  0  0  0  0  0  0  0
    3.2106    1.3005    0.0002 H   0  0  0  0  0  0  0  0  0  0  0  0
    5.3912    1.3236    0.0001 C   0  0  0  0  0  0  0  0  0  0  0  0
    6.5536    0.5243   -0.0000 C   0  0  0  0  0  0  0  0  0  0  0  0
    7.5457    1.0018   -0.0001 H   0  0  0  0  0  0  0  0  0  0  0  0
    6.4488   -0.8737   -0.0001 C   0  0  0  0  0  0  0  0  0  0  0  0
    7.3570   -1.4950   -0.0002 H   0  0  0  0  0  0  0  0  0  0  0  0
    5.1943   -1.4920   -0.0001 C   0  0  0  0  0  0  0  0  0  0  0  0
    5.1167   -2.5911   -0.0002 H   0  0  0  0  0  0  0  0  0  0  0  0
    5.4986    2.8288    0.0002 C   0  0  0  0  0  0  0  0  0  0  0  0
    4.5012    3.3089   -0.0007 H   0  0  0  0  0  0  0  0  0  0  0  0
    6.0532    3.1921   -0.8901 H   0  0  0  0  0  0  0  0  0  0  0  0
    6.0515    3.1921    0.8916 H   0  0  0  0  0  0  0  0  0  0  0  0
  4  3  1  0  0  0  0
  4  5  1  0  0  0  0
  6  4  2  0  0  0  0
  7  6  1  0  0  0  0
  8 10  2  0  0  0  0
  8  6  1  0  0  0  0
  9  8  1  0  0  0  0
 10 12  1  0  0  0  0
 11 10  1  0  0  0  0
 12  3  1  0  0  0  0
 13 12  2  0  0  0  0
 13  2  1  0  0  0  0
 14 13  1  0  0  0  0
 14 16  1  0  0  0  0
 15 14  1  0  0  0  0
 17 14  1  0  0  0  0
 18  2  1  0  0  0  0
 18 19  2  0  0  0  0
 19 20  1  0  0  0  0
 19  1  1  0  0  0  0
 21 20  1  0  0  0  0
 22 20  1  0  0  0  0
 22 23  1  0  0  0  0
 23 24  1  0  0  0  0
 25 23  2  0  0  0  0
 25 32  1  0  0  0  0
 26 25  1  0  0  0  0
 27 26  1  0  0  0  0
 28 30  1  0  0  0  0
 28 26  2  0  0  0  0
 29 28  1  0  0  0  0
 30 22  2  0  0  0  0
 31 30  1  0  0  0  0
 32 35  1  0  0  0  0
 33 32  1  0  0  0  0
 34 32  1  0  0  0  0
M  END
