1,4,7
 OpenBabel05122313063D

 20 20  0  0  1  0  0  0  0  0999 V2000
   -2.6353    0.6524   -0.8738 S   0  0  0  0  0  1  0  0  0  0  0  0
   -1.7470   -1.8462   -0.3994 N   0  0  0  0  0  0  0  0  0  0  0  0
   -1.9084   -2.8155   -0.0882 H   0  0  0  0  0  0  0  0  0  0  0  0
   -0.5126   -1.3673   -0.4366 N   0  0  0  0  0  2  0  0  0  0  0  0
    1.8227   -1.3810   -0.2535 C   0  0  0  0  0  0  0  0  0  0  0  0
   -2.8208   -0.9624   -0.4879 C   0  0  2  0  0  3  0  0  0  0  0  0
    1.7334   -0.0307   -0.1872 N   0  0  0  0  0  2  0  0  0  0  0  0
    4.2347   -1.2561   -0.2420 C   0  0  0  0  0  0  0  0  0  0  0  0
    5.2231   -1.7397   -0.2569 H   0  0  0  0  0  0  0  0  0  0  0  0
    3.0694   -2.0344   -0.2714 C   0  0  0  0  0  0  0  0  0  0  0  0
    3.1176   -3.1327   -0.3165 H   0  0  0  0  0  0  0  0  0  0  0  0
    0.5457   -2.0978   -0.2989 C   0  0  0  0  0  0  0  0  0  0  0  0
    0.5237   -3.1992   -0.1697 H   0  0  0  0  0  0  0  0  0  0  0  0
   -4.0302   -1.5464   -0.2867 N   0  0  0  0  0  0  0  0  0  0  0  0
   -4.1226   -2.4642    0.1536 H   0  0  0  0  0  0  0  0  0  0  0  0
   -4.8326   -0.9188   -0.2388 H   0  0  0  0  0  0  0  0  0  0  0  0
    4.1253    0.1418   -0.1982 C   0  0  0  0  0  0  0  0  0  0  0  0
    5.0169    0.7845   -0.1780 H   0  0  0  0  0  0  0  0  0  0  0  0
    2.8435    0.7164   -0.1707 C   0  0  0  0  0  0  0  0  0  0  0  0
    2.6606    1.8063   -0.1368 H   0  0  0  0  0  0  0  0  0  0  0  0
  2  3  1  0  0  0  0
  4  2  1  0  0  0  0
  4 12  1  0  0  0  0
  5  7  1  0  0  0  0
  6  1  1  6  0  0  0
  6  2  1  0  0  0  0
  6 14  1  0  0  0  0
  7 19  1  0  0  0  0
  8 17  1  0  0  0  0
  9  8  1  0  0  0  0
 10  5  1  0  0  0  0
 10  8  2  0  0  0  0
 11 10  1  0  0  0  0
 12  5  2  0  0  0  0
 12 13  1  0  0  0  0
 14 16  1  0  0  0  0
 14 15  1  0  0  0  0
 17 18  1  0  0  0  0
 17 19  2  0  0  0  0
 19 20  1  0  0  0  0
M  END
