1,2,3
 OpenBabel05122313063D

 25 26  0  0  1  0  0  0  0  0999 V2000
   -1.7382   -1.5923    0.5004 S   0  0  0  0  0  1  0  0  0  0  0  0
   -0.5441    0.9104   -0.0283 N   0  0  0  0  0  2  0  0  0  0  0  0
    1.9653    0.4122    0.1899 N   0  0  0  0  0  2  0  0  0  0  0  0
   -2.6914   -0.1198    0.2268 C   0  0  0  0  0  0  0  0  0  0  0  0
   -4.0910   -0.0755    0.2876 C   0  0  0  0  0  0  0  0  0  0  0  0
   -4.6527   -1.0072    0.4548 H   0  0  0  0  0  0  0  0  0  0  0  0
   -4.7604    1.1507    0.1380 C   0  0  0  0  0  0  0  0  0  0  0  0
   -5.8593    1.1845    0.1765 H   0  0  0  0  0  0  0  0  0  0  0  0
   -4.0220    2.3282   -0.0600 C   0  0  0  0  0  0  0  0  0  0  0  0
   -4.5421    3.2914   -0.1750 H   0  0  0  0  0  0  0  0  0  0  0  0
   -2.6189    2.2948   -0.1171 C   0  0  0  0  0  0  0  0  0  0  0  0
   -2.0648    3.2306   -0.2776 H   0  0  0  0  0  0  0  0  0  0  0  0
   -1.9353    1.0664    0.0207 C   0  0  0  0  0  0  0  0  0  0  0  0
    0.2670    2.1079   -0.0517 C   0  0  0  0  0  0  0  0  0  0  0  0
   -0.0208    2.8049    0.7724 H   0  0  0  0  0  0  0  0  0  0  0  0
    0.1442    2.6980   -0.9946 H   0  0  0  0  0  0  0  0  0  0  0  0
    1.7129    1.7500    0.0994 C   0  0  2  0  0  3  0  0  0  0  0  0
    2.7559    2.6829    0.1104 C   0  0  0  0  0  0  0  0  0  0  0  0
    2.5208    3.7542    0.0332 H   0  0  0  0  0  0  0  0  0  0  0  0
    4.0821    2.2338    0.1983 C   0  0  0  0  0  0  0  0  0  0  0  0
    4.9136    2.9538    0.2013 H   0  0  0  0  0  0  0  0  0  0  0  0
    4.3304    0.8554    0.2814 C   0  0  0  0  0  0  0  0  0  0  0  0
    5.3533    0.4595    0.3486 H   0  0  0  0  0  0  0  0  0  0  0  0
    3.2484   -0.0267    0.2974 C   0  0  0  0  0  0  0  0  0  0  0  0
    3.3784   -1.1126    0.3980 H   0  0  0  0  0  0  0  0  0  0  0  0
  2 13  1  0  0  0  0
  3 24  1  0  0  0  0
  4  5  1  0  0  0  0
  4  1  1  0  0  0  0
  5  6  1  0  0  0  0
  7  8  1  0  0  0  0
  7  5  2  0  0  0  0
  9  7  1  0  0  0  0
 10  9  1  0  0  0  0
 11  9  2  0  0  0  0
 11 13  1  0  0  0  0
 12 11  1  0  0  0  0
 13  4  2  0  0  0  0
 14  2  1  0  0  0  0
 14 15  1  0  0  0  0
 16 14  1  0  0  0  0
 17 14  1  6  0  0  0
 17 18  1  0  0  0  0
 17  3  1  0  0  0  0
 18 20  2  0  0  0  0
 19 18  1  0  0  0  0
 20 21  1  0  0  0  0
 20 22  1  0  0  0  0
 22 24  2  0  0  0  0
 22 23  1  0  0  0  0
 24 25  1  0  0  0  0
M  END
