1,6,7
 OpenBabel05122313063D

 39 40  0  0  0  0  0  0  0  0999 V2000
    3.0733   -1.7062   -0.0940 S   0  0  0  0  0  1  0  0  0  0  0  0
    5.4974   -0.0324   -0.2441 S   0  0  0  0  0  0  0  0  0  0  0  0
   -1.7984    5.0644    0.1970 O   0  0  0  0  0  0  0  0  0  0  0  0
   -6.0195   -1.7694    0.0915 O   0  0  0  0  0  0  0  0  0  0  0  0
    3.0696    1.0423   -0.1088 N   0  0  0  0  0  0  0  0  0  0  0  0
    1.7527    0.8614   -0.0092 N   0  0  0  0  0  2  0  0  0  0  0  0
   -0.8173    0.2810    0.1748 N   0  0  0  0  0  2  0  0  0  0  0  0
    3.7536   -0.1038   -0.1419 C   0  0  0  0  0  0  0  0  0  0  0  0
    0.9142    1.9230    0.0145 C   0  0  0  0  0  0  0  0  0  0  0  0
    1.3383    3.2867   -0.0458 C   0  0  0  0  0  0  0  0  0  0  0  0
    0.4056    4.2933    0.0036 C   0  0  0  0  0  0  0  0  0  0  0  0
   -0.9984    3.9782    0.1271 C   0  0  0  0  0  0  0  0  0  0  0  0
   -1.4482    2.6642    0.1760 C   0  0  0  0  0  0  0  0  0  0  0  0
   -0.5069    1.5861    0.1120 C   0  0  0  0  0  0  0  0  0  0  0  0
   -2.1426   -0.1875    0.1378 C   0  0  0  0  0  0  0  0  0  0  0  0
   -3.0080    0.1335   -0.9309 C   0  0  0  0  0  0  0  0  0  0  0  0
   -4.3122   -0.3741   -0.9825 C   0  0  0  0  0  0  0  0  0  0  0  0
   -4.7769   -1.2236    0.0459 C   0  0  0  0  0  0  0  0  0  0  0  0
   -3.9124   -1.5560    1.1129 C   0  0  0  0  0  0  0  0  0  0  0  0
   -2.6134   -1.0544    1.1545 C   0  0  0  0  0  0  0  0  0  0  0  0
    5.8110    1.7590   -0.2512 C   0  0  0  0  0  0  0  0  0  0  0  0
   -3.1983    4.8675    0.3321 C   0  0  0  0  0  0  0  0  0  0  0  0
   -6.9173   -1.4983   -0.9689 C   0  0  0  0  0  0  0  0  0  0  0  0
    2.4137    3.4897   -0.1274 H   0  0  0  0  0  0  0  0  0  0  0  0
    0.6893    5.3543   -0.0354 H   0  0  0  0  0  0  0  0  0  0  0  0
   -2.5112    2.4225    0.2829 H   0  0  0  0  0  0  0  0  0  0  0  0
   -2.6367    0.7693   -1.7481 H   0  0  0  0  0  0  0  0  0  0  0  0
   -4.9512   -0.1200   -1.8385 H   0  0  0  0  0  0  0  0  0  0  0  0
   -4.2887   -2.2249    1.8998 H   0  0  0  0  0  0  0  0  0  0  0  0
   -1.9394   -1.3192    1.9811 H   0  0  0  0  0  0  0  0  0  0  0  0
    6.9106    1.8655   -0.3142 H   0  0  0  0  0  0  0  0  0  0  0  0
    5.4343    2.2217    0.6795 H   0  0  0  0  0  0  0  0  0  0  0  0
    5.3297    2.2322   -1.1266 H   0  0  0  0  0  0  0  0  0  0  0  0
   -3.6530    5.8739    0.3622 H   0  0  0  0  0  0  0  0  0  0  0  0
   -3.4427    4.3237    1.2706 H   0  0  0  0  0  0  0  0  0  0  0  0
   -3.6129    4.3002   -0.5298 H   0  0  0  0  0  0  0  0  0  0  0  0
   -7.8511   -2.0418   -0.7347 H   0  0  0  0  0  0  0  0  0  0  0  0
   -6.5245   -1.8586   -1.9459 H   0  0  0  0  0  0  0  0  0  0  0  0
   -7.1433   -0.4114   -1.0536 H   0  0  0  0  0  0  0  0  0  0  0  0
  2  8  1  0  0  0  0
  3 22  1  0  0  0  0
  5  6  1  0  0  0  0
  6  9  1  0  0  0  0
  8  5  2  0  0  0  0
  8  1  1  0  0  0  0
  9 14  1  0  0  0  0
 10 11  1  0  0  0  0
 10  9  2  0  0  0  0
 11 12  2  0  0  0  0
 12 13  1  0  0  0  0
 12  3  1  0  0  0  0
 13 26  1  0  0  0  0
 14  7  1  0  0  0  0
 14 13  2  0  0  0  0
 15  7  1  0  0  0  0
 15 20  1  0  0  0  0
 16 15  2  0  0  0  0
 17 16  1  0  0  0  0
 17 18  2  0  0  0  0
 18  4  1  0  0  0  0
 18 19  1  0  0  0  0
 19 20  2  0  0  0  0
 19 29  1  0  0  0  0
 20 30  1  0  0  0  0
 21  2  1  0  0  0  0
 21 32  1  0  0  0  0
 22 34  1  0  0  0  0
 22 35  1  0  0  0  0
 23 37  1  0  0  0  0
 23  4  1  0  0  0  0
 24 10  1  0  0  0  0
 25 11  1  0  0  0  0
 27 16  1  0  0  0  0
 28 17  1  0  0  0  0
 31 21  1  0  0  0  0
 33 21  1  0  0  0  0
 36 22  1  0  0  0  0
 38 23  1  0  0  0  0
 39 23  1  0  0  0  0
M  END
