1
 OpenBabel05122313063D

 34 36  0  0  0  0  0  0  0  0999 V2000
    0.7641    0.5566    0.5995 P   0  0  0  0  0  0  0  0  0  0  0  0
    0.2240    1.3712    2.1653 C   0  0  0  0  0  0  0  0  0  0  0  0
   -0.8500    2.2825    2.0739 C   0  0  0  0  0  0  0  0  0  0  0  0
   -1.3138    2.9392    3.2213 C   0  0  0  0  0  0  0  0  0  0  0  0
   -0.7189    2.6869    4.4691 C   0  0  0  0  0  0  0  0  0  0  0  0
    0.3515    1.7841    4.5632 C   0  0  0  0  0  0  0  0  0  0  0  0
    0.8267    1.1284    3.4155 C   0  0  0  0  0  0  0  0  0  0  0  0
    1.9680    1.7722   -0.0967 C   0  0  0  0  0  0  0  0  0  0  0  0
    2.1892    1.7881   -1.4878 C   0  0  0  0  0  0  0  0  0  0  0  0
    3.1228    2.6739   -2.0440 C   0  0  0  0  0  0  0  0  0  0  0  0
    3.8339    3.5591   -1.2171 C   0  0  0  0  0  0  0  0  0  0  0  0
    3.6101    3.5522    0.1687 C   0  0  0  0  0  0  0  0  0  0  0  0
    2.6801    2.6627    0.7291 C   0  0  0  0  0  0  0  0  0  0  0  0
    1.8427   -0.8209    1.1573 C   0  0  0  0  0  0  0  0  0  0  0  0
    3.1697   -0.9366    0.7019 C   0  0  0  0  0  0  0  0  0  0  0  0
    3.9665   -2.0160    1.1136 C   0  0  0  0  0  0  0  0  0  0  0  0
    3.4478   -2.9859    1.9826 C   0  0  0  0  0  0  0  0  0  0  0  0
    2.1231   -2.8766    2.4393 C   0  0  0  0  0  0  0  0  0  0  0  0
    1.3211   -1.8046    2.0262 C   0  0  0  0  0  0  0  0  0  0  0  0
   -1.3128    2.4669    1.0924 H   0  0  0  0  0  0  0  0  0  0  0  0
   -2.1540    3.6458    3.1425 H   0  0  0  0  0  0  0  0  0  0  0  0
   -1.0922    3.1948    5.3714 H   0  0  0  0  0  0  0  0  0  0  0  0
    0.8229    1.5856    5.5379 H   0  0  0  0  0  0  0  0  0  0  0  0
    1.6648    0.4205    3.4944 H   0  0  0  0  0  0  0  0  0  0  0  0
    3.5813   -0.1858    0.0128 H   0  0  0  0  0  0  0  0  0  0  0  0
    4.9988   -2.0997    0.7422 H   0  0  0  0  0  0  0  0  0  0  0  0
    4.0737   -3.8324    2.3037 H   0  0  0  0  0  0  0  0  0  0  0  0
    1.7076   -3.6342    3.1213 H   0  0  0  0  0  0  0  0  0  0  0  0
    0.2821   -1.7345    2.3780 H   0  0  0  0  0  0  0  0  0  0  0  0
    2.5036    2.6664    1.8151 H   0  0  0  0  0  0  0  0  0  0  0  0
    4.1607    4.2471    0.8210 H   0  0  0  0  0  0  0  0  0  0  0  0
    4.5624    4.2589   -1.6547 H   0  0  0  0  0  0  0  0  0  0  0  0
    3.2914    2.6761   -3.1318 H   0  0  0  0  0  0  0  0  0  0  0  0
    1.6222    1.1000   -2.1294 H   0  0  0  0  0  0  0  0  0  0  0  0
  1 14  1  0  0  0  0
  1  2  1  0  0  0  0
  2  7  1  0  0  0  0
  3  2  2  0  0  0  0
  3  4  1  0  0  0  0
  4  5  2  0  0  0  0
  5  6  1  0  0  0  0
  5 22  1  0  0  0  0
  6 23  1  0  0  0  0
  7 24  1  0  0  0  0
  7  6  2  0  0  0  0
  8  1  1  0  0  0  0
  8 13  1  0  0  0  0
  9  8  2  0  0  0  0
 10  9  1  0  0  0  0
 10 11  2  0  0  0  0
 11 12  1  0  0  0  0
 12 13  2  0  0  0  0
 12 31  1  0  0  0  0
 13 30  1  0  0  0  0
 14 19  1  0  0  0  0
 15 16  1  0  0  0  0
 15 14  2  0  0  0  0
 16 17  2  0  0  0  0
 17 27  1  0  0  0  0
 17 18  1  0  0  0  0
 18 28  1  0  0  0  0
 19 29  1  0  0  0  0
 19 18  2  0  0  0  0
 20  3  1  0  0  0  0
 21  4  1  0  0  0  0
 25 15  1  0  0  0  0
 26 16  1  0  0  0  0
 32 11  1  0  0  0  0
 33 10  1  0  0  0  0
 34  9  1  0  0  0  0
M  END
