1
 OpenBabel05122313063D

 37 39  0  0  0  0  0  0  0  0999 V2000
   -2.3015   -0.3387   -0.0356 P   0  0  0  0  0  0  0  0  0  0  0  0
   -2.0278    2.2463    1.2843 F   0  0  0  0  0  0  0  0  0  0  0  0
   -2.6402    4.1918    0.5284 F   0  0  0  0  0  0  0  0  0  0  0  0
   -0.8977    3.2068   -0.3192 F   0  0  0  0  0  0  0  0  0  0  0  0
   -2.1455    2.9822    0.1535 C   0  0  0  0  0  0  0  0  0  0  0  0
   -3.1724    0.9295   -1.0759 C   0  0  0  0  0  0  0  0  0  0  0  0
   -3.0377    2.3317   -0.8913 C   0  0  0  0  0  0  0  0  0  0  0  0
   -3.7116    3.2161   -1.7537 C   0  0  0  0  0  0  0  0  0  0  0  0
   -3.6026    4.2975   -1.5923 H   0  0  0  0  0  0  0  0  0  0  0  0
   -4.5104    2.7407   -2.8005 C   0  0  0  0  0  0  0  0  0  0  0  0
   -5.0244    3.4511   -3.4647 H   0  0  0  0  0  0  0  0  0  0  0  0
   -4.6433    1.3603   -2.9907 C   0  0  0  0  0  0  0  0  0  0  0  0
   -5.2618    0.9661   -3.8109 H   0  0  0  0  0  0  0  0  0  0  0  0
   -3.9812    0.4705   -2.1346 C   0  0  0  0  0  0  0  0  0  0  0  0
   -4.0848   -0.6109   -2.2983 H   0  0  0  0  0  0  0  0  0  0  0  0
   -2.7043   -1.9616   -0.8140 C   0  0  0  0  0  0  0  0  0  0  0  0
   -1.7776   -2.5662   -1.6881 C   0  0  0  0  0  0  0  0  0  0  0  0
   -0.8325   -2.0522   -1.9155 H   0  0  0  0  0  0  0  0  0  0  0  0
   -2.0742   -3.8079   -2.2694 C   0  0  0  0  0  0  0  0  0  0  0  0
   -1.3431   -4.2752   -2.9463 H   0  0  0  0  0  0  0  0  0  0  0  0
   -3.2870   -4.4544   -1.9847 C   0  0  0  0  0  0  0  0  0  0  0  0
   -3.5121   -5.4316   -2.4389 H   0  0  0  0  0  0  0  0  0  0  0  0
   -4.2112   -3.8553   -1.1132 C   0  0  0  0  0  0  0  0  0  0  0  0
   -5.1621   -4.3592   -0.8823 H   0  0  0  0  0  0  0  0  0  0  0  0
   -3.9224   -2.6152   -0.5259 C   0  0  0  0  0  0  0  0  0  0  0  0
   -4.6437   -2.1546    0.1655 H   0  0  0  0  0  0  0  0  0  0  0  0
   -3.2704   -0.4246    1.5209 C   0  0  0  0  0  0  0  0  0  0  0  0
   -4.3884    0.3964    1.7622 C   0  0  0  0  0  0  0  0  0  0  0  0
   -4.6950    1.1470    1.0193 H   0  0  0  0  0  0  0  0  0  0  0  0
   -5.1213    0.2539    2.9504 C   0  0  0  0  0  0  0  0  0  0  0  0
   -5.9952    0.8982    3.1307 H   0  0  0  0  0  0  0  0  0  0  0  0
   -4.7433   -0.7063    3.9014 C   0  0  0  0  0  0  0  0  0  0  0  0
   -5.3188   -0.8155    4.8333 H   0  0  0  0  0  0  0  0  0  0  0  0
   -3.6297   -1.5273    3.6611 C   0  0  0  0  0  0  0  0  0  0  0  0
   -3.3262   -2.2795    4.4048 H   0  0  0  0  0  0  0  0  0  0  0  0
   -2.8914   -1.3901    2.4778 C   0  0  0  0  0  0  0  0  0  0  0  0
   -2.0130   -2.0250    2.2966 H   0  0  0  0  0  0  0  0  0  0  0  0
  1 27  1  0  0  0  0
  4  5  1  0  0  0  0
  5  3  1  0  0  0  0
  5  2  1  0  0  0  0
  6  7  1  0  0  0  0
  6  1  1  0  0  0  0
  7  5  1  0  0  0  0
  8  9  1  0  0  0  0
  8  7  2  0  0  0  0
 10  8  1  0  0  0  0
 11 10  1  0  0  0  0
 12 10  2  0  0  0  0
 12 14  1  0  0  0  0
 13 12  1  0  0  0  0
 14  6  2  0  0  0  0
 15 14  1  0  0  0  0
 16 25  1  0  0  0  0
 16  1  1  0  0  0  0
 17 16  2  0  0  0  0
 18 17  1  0  0  0  0
 19 21  2  0  0  0  0
 19 17  1  0  0  0  0
 20 19  1  0  0  0  0
 21 23  1  0  0  0  0
 22 21  1  0  0  0  0
 23 24  1  0  0  0  0
 23 25  2  0  0  0  0
 25 26  1  0  0  0  0
 27 28  2  0  0  0  0
 27 36  1  0  0  0  0
 28 30  1  0  0  0  0
 29 28  1  0  0  0  0
 30 31  1  0  0  0  0
 30 32  2  0  0  0  0
 32 33  1  0  0  0  0
 34 32  1  0  0  0  0
 34 35  1  0  0  0  0
 36 34  2  0  0  0  0
 37 36  1  0  0  0  0
M  END
