1
 OpenBabel05122313063D

 16 15  0  0  0  0  0  0  0  0999 V2000
    0.1281   -1.6474   -1.1316 P   0  0  0  0  0  0  0  0  0  0  0  0
    0.2411   -3.2492   -0.6807 O   0  0  0  0  0  0  0  0  0  0  0  0
    1.3414   -1.7264   -2.2701 O   0  0  0  0  0  0  0  0  0  0  0  0
   -1.2305   -1.8162   -2.0609 O   0  0  0  0  0  0  0  0  0  0  0  0
    1.3321   -3.6753    0.1260 C   0  0  0  0  0  0  0  0  0  0  0  0
    1.2064   -4.7629    0.2935 H   0  0  0  0  0  0  0  0  0  0  0  0
    1.3318   -3.1507    1.1066 H   0  0  0  0  0  0  0  0  0  0  0  0
    2.3023   -3.4844   -0.3782 H   0  0  0  0  0  0  0  0  0  0  0  0
    1.8603   -0.5336   -2.8579 C   0  0  0  0  0  0  0  0  0  0  0  0
    2.6402   -0.8500   -3.5781 H   0  0  0  0  0  0  0  0  0  0  0  0
    2.3146    0.1329   -2.0982 H   0  0  0  0  0  0  0  0  0  0  0  0
    1.0696    0.0306   -3.3963 H   0  0  0  0  0  0  0  0  0  0  0  0
   -1.3303   -2.8455   -3.0461 C   0  0  0  0  0  0  0  0  0  0  0  0
   -2.1355   -2.5473   -3.7459 H   0  0  0  0  0  0  0  0  0  0  0  0
   -1.5893   -3.8173   -2.5766 H   0  0  0  0  0  0  0  0  0  0  0  0
   -0.3785   -2.9602   -3.6046 H   0  0  0  0  0  0  0  0  0  0  0  0
  1  2  1  0  0  0  0
  2  5  1  0  0  0  0
  3  1  1  0  0  0  0
  4  1  1  0  0  0  0
  5  6  1  0  0  0  0
  5  7  1  0  0  0  0
  8  5  1  0  0  0  0
  9  3  1  0  0  0  0
  9 11  1  0  0  0  0
 10  9  1  0  0  0  0
 12  9  1  0  0  0  0
 13 15  1  0  0  0  0
 13  4  1  0  0  0  0
 14 13  1  0  0  0  0
 16 13  1  0  0  0  0
M  END
