4
 OpenBabel05122313063D

 34 36  0  0  0  0  0  0  0  0999 V2000
   -4.8514    1.0364   -5.8422 Cl  0  0  0  0  0  0  0  0  0  0  0  0
   -7.2961   -1.0790    3.8160 Cl  0  0  0  0  0  0  0  0  0  0  0  0
   -0.0783    5.7047    1.9053 Cl  0  0  0  0  0  0  0  0  0  0  0  0
   -2.3539    0.0658   -0.0461 P   0  0  0  0  0  0  0  0  0  0  0  0
   -3.0463    0.3834   -1.7195 C   0  0  0  0  0  0  0  0  0  0  0  0
   -3.2225   -0.7071   -2.5977 C   0  0  0  0  0  0  0  0  0  0  0  0
   -2.9258   -1.7182   -2.2688 H   0  0  0  0  0  0  0  0  0  0  0  0
   -3.7818   -0.5088   -3.8658 C   0  0  0  0  0  0  0  0  0  0  0  0
   -3.9212   -1.3538   -4.5546 H   0  0  0  0  0  0  0  0  0  0  0  0
   -4.1627    0.7850   -4.2610 C   0  0  0  0  0  0  0  0  0  0  0  0
   -3.9933    1.8815   -3.3994 C   0  0  0  0  0  0  0  0  0  0  0  0
   -4.2968    2.8859   -3.7264 H   0  0  0  0  0  0  0  0  0  0  0  0
   -3.4359    1.6759   -2.1301 C   0  0  0  0  0  0  0  0  0  0  0  0
   -3.3003    2.5367   -1.4584 H   0  0  0  0  0  0  0  0  0  0  0  0
   -3.8053   -0.2859    1.0174 C   0  0  0  0  0  0  0  0  0  0  0  0
   -5.0564    0.3163    0.7790 C   0  0  0  0  0  0  0  0  0  0  0  0
   -5.1973    0.9750   -0.0914 H   0  0  0  0  0  0  0  0  0  0  0  0
   -6.1355    0.0751    1.6388 C   0  0  0  0  0  0  0  0  0  0  0  0
   -7.1165    0.5362    1.4579 H   0  0  0  0  0  0  0  0  0  0  0  0
   -5.9566   -0.7755    2.7433 C   0  0  0  0  0  0  0  0  0  0  0  0
   -4.7176   -1.3902    2.9902 C   0  0  0  0  0  0  0  0  0  0  0  0
   -4.6032   -2.0642    3.8504 H   0  0  0  0  0  0  0  0  0  0  0  0
   -3.6467   -1.1471    2.1211 C   0  0  0  0  0  0  0  0  0  0  0  0
   -2.6784   -1.6439    2.2856 H   0  0  0  0  0  0  0  0  0  0  0  0
   -1.7771    1.7180    0.5113 C   0  0  0  0  0  0  0  0  0  0  0  0
   -2.2240    2.3025    1.7124 C   0  0  0  0  0  0  0  0  0  0  0  0
   -2.9907    1.7971    2.3179 H   0  0  0  0  0  0  0  0  0  0  0  0
   -1.7032    3.5294    2.1467 C   0  0  0  0  0  0  0  0  0  0  0  0
   -2.0515    3.9887    3.0823 H   0  0  0  0  0  0  0  0  0  0  0  0
   -0.7274    4.1774    1.3727 C   0  0  0  0  0  0  0  0  0  0  0  0
   -0.2644    3.6082    0.1737 C   0  0  0  0  0  0  0  0  0  0  0  0
    0.5034    4.1272   -0.4169 H   0  0  0  0  0  0  0  0  0  0  0  0
   -0.7844    2.3789   -0.2468 C   0  0  0  0  0  0  0  0  0  0  0  0
   -0.4137    1.9283   -1.1803 H   0  0  0  0  0  0  0  0  0  0  0  0
  1 10  1  0  0  0  0
  4 25  1  0  0  0  0
  4 15  1  0  0  0  0
  5  4  1  0  0  0  0
  6  7  1  0  0  0  0
  6  5  2  0  0  0  0
  8  6  1  0  0  0  0
  9  8  1  0  0  0  0
 10  8  2  0  0  0  0
 10 11  1  0  0  0  0
 11 13  2  0  0  0  0
 12 11  1  0  0  0  0
 13  5  1  0  0  0  0
 13 14  1  0  0  0  0
 15 23  1  0  0  0  0
 16 15  2  0  0  0  0
 16 18  1  0  0  0  0
 17 16  1  0  0  0  0
 18 20  2  0  0  0  0
 19 18  1  0  0  0  0
 20 21  1  0  0  0  0
 20  2  1  0  0  0  0
 21 22  1  0  0  0  0
 23 24  1  0  0  0  0
 23 21  2  0  0  0  0
 25 26  1  0  0  0  0
 26 28  2  0  0  0  0
 26 27  1  0  0  0  0
 28 29  1  0  0  0  0
 30  3  1  0  0  0  0
 30 28  1  0  0  0  0
 31 30  2  0  0  0  0
 32 31  1  0  0  0  0
 33 31  1  0  0  0  0
 33 25  2  0  0  0  0
 34 33  1  0  0  0  0
M  END
