1
 OpenBabel05122313063D

 27 27  0  0  0  0  0  0  0  0999 V2000
    2.1884   -0.7712   -0.3780 P   0  0  2  0  0  0  0  0  0  0  0  0
    2.3532   -1.3001   -1.9317 O   0  0  0  0  0  0  0  0  0  0  0  0
    1.4755   -1.1297   -2.3813 H   0  0  0  0  0  0  0  0  0  0  0  0
    3.5330    0.4594   -0.2260 C   0  0  0  0  0  0  0  0  0  0  0  0
    3.6125    1.3101    0.8969 C   0  0  0  0  0  0  0  0  0  0  0  0
    2.8348    1.2650    1.6745 H   0  0  0  0  0  0  0  0  0  0  0  0
    2.7238   -2.2967    0.5902 C   0  0  0  0  0  0  0  0  0  0  0  0
    4.5011    0.5522   -1.2480 C   0  0  0  0  0  0  0  0  0  0  0  0
    4.4138   -0.0973   -2.1309 H   0  0  0  0  0  0  0  0  0  0  0  0
    5.6390    2.3104   -0.0092 C   0  0  0  0  0  0  0  0  0  0  0  0
    6.4630    3.0352    0.0759 H   0  0  0  0  0  0  0  0  0  0  0  0
    4.6679    2.2277    1.0018 C   0  0  0  0  0  0  0  0  0  0  0  0
    4.7251    2.8909    1.8783 H   0  0  0  0  0  0  0  0  0  0  0  0
    5.5507    1.4757   -1.1347 C   0  0  0  0  0  0  0  0  0  0  0  0
    6.3035    1.5455   -1.9347 H   0  0  0  0  0  0  0  0  0  0  0  0
    2.9781   -1.9427    2.0613 C   0  0  0  0  0  0  0  0  0  0  0  0
    2.0861   -1.4972    2.5421 H   0  0  0  0  0  0  0  0  0  0  0  0
    3.8236   -1.2343    2.1711 H   0  0  0  0  0  0  0  0  0  0  0  0
    3.2442   -2.8703    2.6107 H   0  0  0  0  0  0  0  0  0  0  0  0
    1.5581   -3.2930    0.4546 C   0  0  0  0  0  0  0  0  0  0  0  0
    1.8309   -4.2545    0.9375 H   0  0  0  0  0  0  0  0  0  0  0  0
    1.3249   -3.4948   -0.6101 H   0  0  0  0  0  0  0  0  0  0  0  0
    0.6398   -2.9042    0.9395 H   0  0  0  0  0  0  0  0  0  0  0  0
    4.0018   -2.8555   -0.0568 C   0  0  0  0  0  0  0  0  0  0  0  0
    4.8421   -2.1351    0.0100 H   0  0  0  0  0  0  0  0  0  0  0  0
    3.8418   -3.1099   -1.1218 H   0  0  0  0  0  0  0  0  0  0  0  0
    4.3045   -3.7782    0.4817 H   0  0  0  0  0  0  0  0  0  0  0  0
  1  2  1  6  0  0  0
  1  4  1  0  0  0  0
  1  7  1  0  0  0  0
  3  2  1  0  0  0  0
  4  5  1  0  0  0  0
  5 12  2  0  0  0  0
  5  6  1  0  0  0  0
  7 16  1  0  0  0  0
  8 14  1  0  0  0  0
  8  4  2  0  0  0  0
  9  8  1  0  0  0  0
 10 11  1  0  0  0  0
 10 12  1  0  0  0  0
 12 13  1  0  0  0  0
 14 10  2  0  0  0  0
 15 14  1  0  0  0  0
 16 18  1  0  0  0  0
 16 17  1  0  0  0  0
 16 19  1  0  0  0  0
 20  7  1  0  0  0  0
 20 21  1  0  0  0  0
 20 23  1  0  0  0  0
 22 20  1  0  0  0  0
 24 25  1  0  0  0  0
 24 27  1  0  0  0  0
 24  7  1  0  0  0  0
 26 24  1  0  0  0  0
M  END
