3
 OpenBabel05122313063D

 14 14  0  0  0  0  0  0  0  0999 V2000
    0.0232    2.6593    1.9796 H   0  0  0  0  0  0  0  0  0  0  0  0
    1.7384    1.4982    2.3885 H   0  0  0  0  0  0  0  0  0  0  0  0
    0.8314    1.6877    1.2847 P   0  0  0  0  0  0  0  0  0  0  0  0
    1.6750    3.0260   -1.0558 C   0  0  0  0  0  0  0  0  0  0  0  0
    0.8818    2.4320   -1.5356 H   0  0  0  0  0  0  0  0  0  0  0  0
    2.4701    3.9035   -1.8087 C   0  0  0  0  0  0  0  0  0  0  0  0
    2.2903    4.0129   -2.8891 H   0  0  0  0  0  0  0  0  0  0  0  0
    3.4989    4.6286   -1.1875 C   0  0  0  0  0  0  0  0  0  0  0  0
    4.1295    5.3101   -1.7787 H   0  0  0  0  0  0  0  0  0  0  0  0
    3.7267    4.4779    0.1906 C   0  0  0  0  0  0  0  0  0  0  0  0
    4.5357    5.0410    0.6808 H   0  0  0  0  0  0  0  0  0  0  0  0
    2.9265    3.6069    0.9453 C   0  0  0  0  0  0  0  0  0  0  0  0
    3.1119    3.4902    2.0252 H   0  0  0  0  0  0  0  0  0  0  0  0
    1.8937    2.8734    0.3274 C   0  0  0  0  0  0  0  0  0  0  0  0
  3  1  1  0  0  0  0
  3  2  1  0  0  0  0
  4 14  1  0  0  0  0
  5  4  1  0  0  0  0
  6  8  1  0  0  0  0
  6  4  2  0  0  0  0
  7  6  1  0  0  0  0
  8 10  2  0  0  0  0
  9  8  1  0  0  0  0
 10 11  1  0  0  0  0
 10 12  1  0  0  0  0
 12 13  1  0  0  0  0
 14 12  2  0  0  0  0
 14  3  1  0  0  0  0
M  END
