1
 OpenBabel05122313063D

 38 40  0  0  1  0  0  0  0  0999 V2000
    2.2738   -0.4868    0.2534 P   0  0  2  0  0  0  0  0  0  0  0  0
    0.7034   -3.0162   -1.1207 F   0  0  0  0  0  0  0  0  0  0  0  0
    2.4696   -4.2722   -0.8739 F   0  0  0  0  0  0  0  0  0  0  0  0
    0.5739   -4.8554    0.0557 F   0  0  0  0  0  0  0  0  0  0  0  0
    3.5655    1.0220   -1.5620 O   0  0  0  0  0  0  0  0  0  0  0  0
    4.6087    0.1365    1.5415 O   0  0  0  0  0  0  0  0  0  0  0  0
    5.4520    1.4593   -0.2185 O   0  0  0  0  0  0  0  0  0  0  0  0
    2.6431   -2.0095    0.8474 O   0  0  0  0  0  0  0  0  0  0  0  0
    3.0549   -1.1407   -2.4244 C   0  0  0  0  0  0  0  0  0  0  0  0
    2.0529   -0.8132   -2.7558 H   0  0  0  0  0  0  0  0  0  0  0  0
    3.0442   -2.2246   -2.2082 H   0  0  0  0  0  0  0  0  0  0  0  0
    3.7823   -0.9479   -3.2391 H   0  0  0  0  0  0  0  0  0  0  0  0
    3.5003   -0.3588   -1.2000 C   0  0  2  0  0  0  0  0  0  0  0  0
    4.8705   -0.8267   -0.6837 C   0  0  0  0  0  0  0  0  0  0  0  0
    4.7942   -1.8437   -0.2553 H   0  0  0  0  0  0  0  0  0  0  0  0
    5.5657   -0.8523   -1.5480 H   0  0  0  0  0  0  0  0  0  0  0  0
    5.4200    0.1556    0.3611 C   0  0  2  0  0  0  0  0  0  0  0  0
    6.8295   -0.1696    0.8136 C   0  0  0  0  0  0  0  0  0  0  0  0
    7.5192   -0.1454   -0.0504 H   0  0  0  0  0  0  0  0  0  0  0  0
    6.8540   -1.1719    1.2803 H   0  0  0  0  0  0  0  0  0  0  0  0
    7.1500    0.5854    1.5558 H   0  0  0  0  0  0  0  0  0  0  0  0
    4.3077    3.2368   -1.3076 C   0  0  0  0  0  0  0  0  0  0  0  0
    4.9618    3.0982   -2.1887 H   0  0  0  0  0  0  0  0  0  0  0  0
    4.7628    3.9814   -0.6286 H   0  0  0  0  0  0  0  0  0  0  0  0
    3.3160    3.5917   -1.6449 H   0  0  0  0  0  0  0  0  0  0  0  0
    4.1507    1.9064   -0.5997 C   0  0  1  0  0  0  0  0  0  0  0  0
    3.2889    1.9936    0.6739 C   0  0  0  0  0  0  0  0  0  0  0  0
    2.2564    2.3103    0.4200 H   0  0  0  0  0  0  0  0  0  0  0  0
    3.7335    2.7502    1.3530 H   0  0  0  0  0  0  0  0  0  0  0  0
    3.2771    0.6387    1.4020 C   0  0  1  0  0  0  0  0  0  0  0  0
    2.7007    0.7135    2.8042 C   0  0  0  0  0  0  0  0  0  0  0  0
    2.6761   -0.2914    3.2656 H   0  0  0  0  0  0  0  0  0  0  0  0
    1.6708    1.1139    2.7898 H   0  0  0  0  0  0  0  0  0  0  0  0
    3.3542    1.3706    3.4129 H   0  0  0  0  0  0  0  0  0  0  0  0
    1.7172   -3.0621    1.0472 C   0  0  0  0  0  0  0  0  0  0  0  0
    0.7759   -2.7027    1.5154 H   0  0  0  0  0  0  0  0  0  0  0  0
    2.2050   -3.7892    1.7266 H   0  0  0  0  0  0  0  0  0  0  0  0
    1.3702   -3.8033   -0.2356 C   0  0  0  0  0  0  0  0  0  0  0  0
  1  8  1  1  0  0  0
  1 30  1  0  0  0  0
  2 38  1  0  0  0  0
  3 38  1  0  0  0  0
  5 13  1  0  0  0  0
  5 26  1  0  0  0  0
  7 17  1  0  0  0  0
  8 35  1  0  0  0  0
  9 11  1  0  0  0  0
 10  9  1  0  0  0  0
 12  9  1  0  0  0  0
 13  9  1  6  0  0  0
 13 14  1  0  0  0  0
 13  1  1  0  0  0  0
 14 15  1  0  0  0  0
 14 17  1  0  0  0  0
 16 14  1  0  0  0  0
 17 18  1  1  0  0  0
 17  6  1  0  0  0  0
 18 20  1  0  0  0  0
 18 21  1  0  0  0  0
 19 18  1  0  0  0  0
 22 24  1  0  0  0  0
 23 22  1  0  0  0  0
 25 22  1  0  0  0  0
 26 22  1  6  0  0  0
 26  7  1  0  0  0  0
 26 27  1  0  0  0  0
 27 29  1  0  0  0  0
 27 30  1  0  0  0  0
 28 27  1  0  0  0  0
 30  6  1  0  0  0  0
 30 31  1  1  0  0  0
 31 32  1  0  0  0  0
 31 34  1  0  0  0  0
 33 31  1  0  0  0  0
 35 36  1  0  0  0  0
 35 37  1  0  0  0  0
 38  4  1  0  0  0  0
 38 35  1  0  0  0  0
M  END
