1
 OpenBabel05122313063D

 12 12  0  0  0  0  0  0  0  0999 V2000
   -2.3035    0.2812   -0.0718 P   0  0  0  0  0  1  0  0  0  0  0  0
   -3.0235   -1.4032   -0.1057 C   0  0  0  0  0  0  0  0  0  0  0  0
   -3.9295   -1.8783    0.8617 C   0  0  0  0  0  0  0  0  0  0  0  0
   -4.3414   -3.2180    0.8284 C   0  0  0  0  0  0  0  0  0  0  0  0
   -3.8596   -4.0819   -0.1683 C   0  0  0  0  0  0  0  0  0  0  0  0
   -2.9556   -3.6079   -1.1321 C   0  0  0  0  0  0  0  0  0  0  0  0
   -2.5241   -2.2744   -1.0976 C   0  0  0  0  0  0  0  0  0  0  0  0
   -1.7886   -1.9088   -1.8330 H   0  0  0  0  0  0  0  0  0  0  0  0
   -2.5702   -4.2827   -1.9109 H   0  0  0  0  0  0  0  0  0  0  0  0
   -4.1860   -5.1325   -0.1893 H   0  0  0  0  0  0  0  0  0  0  0  0
   -5.0451   -3.5888    1.5886 H   0  0  0  0  0  0  0  0  0  0  0  0
   -4.3180   -1.2088    1.6423 H   0  0  0  0  0  0  0  0  0  0  0  0
  2  1  1  0  0  0  0
  2  3  1  0  0  0  0
  3 12  1  0  0  0  0
  4  3  2  0  0  0  0
  4 11  1  0  0  0  0
  5  4  1  0  0  0  0
  6  7  1  0  0  0  0
  6  5  2  0  0  0  0
  7  2  2  0  0  0  0
  8  7  1  0  0  0  0
  9  6  1  0  0  0  0
 10  5  1  0  0  0  0
M  END
