2
 OpenBabel05122313063D

 41 43  0  0  0  0  0  0  0  0999 V2000
   -3.9950   -1.9017   -2.3462 Se  0  0  0  0  0  0  0  0  0  0  0  0
   -0.8211   -0.4585    0.6570 P   0  0  0  0  0  0  0  0  0  0  0  0
   -2.1857   -1.4331   -0.1334 C   0  0  0  0  0  0  0  0  0  0  0  0
   -2.0907   -2.4645    0.2585 H   0  0  0  0  0  0  0  0  0  0  0  0
   -3.1140   -0.9804    0.2753 H   0  0  0  0  0  0  0  0  0  0  0  0
   -2.2004   -1.4195   -1.6543 C   0  0  0  0  0  0  0  0  0  0  0  0
   -1.4926   -2.1652   -2.0657 H   0  0  0  0  0  0  0  0  0  0  0  0
   -1.9495   -0.4286   -2.0769 H   0  0  0  0  0  0  0  0  0  0  0  0
   -4.9017   -0.4635   -1.4233 C   0  0  0  0  0  0  0  0  0  0  0  0
   -5.8525   -0.7659   -0.4292 C   0  0  0  0  0  0  0  0  0  0  0  0
   -6.0934   -1.8167   -0.2087 H   0  0  0  0  0  0  0  0  0  0  0  0
   -6.4772    0.2723    0.2826 C   0  0  0  0  0  0  0  0  0  0  0  0
   -7.2261    0.0303    1.0521 H   0  0  0  0  0  0  0  0  0  0  0  0
   -6.1413    1.6100    0.0212 C   0  0  0  0  0  0  0  0  0  0  0  0
   -6.6257    2.4208    0.5857 H   0  0  0  0  0  0  0  0  0  0  0  0
   -5.1929    1.9111   -0.9706 C   0  0  0  0  0  0  0  0  0  0  0  0
   -4.9318    2.9580   -1.1869 H   0  0  0  0  0  0  0  0  0  0  0  0
   -4.5843    0.8808   -1.7024 C   0  0  0  0  0  0  0  0  0  0  0  0
   -3.8607    1.1222   -2.4953 H   0  0  0  0  0  0  0  0  0  0  0  0
   -1.2840    1.2909    0.3485 C   0  0  0  0  0  0  0  0  0  0  0  0
   -1.8716    2.1094    1.3325 C   0  0  0  0  0  0  0  0  0  0  0  0
   -1.9995    1.7403    2.3592 H   0  0  0  0  0  0  0  0  0  0  0  0
   -2.2790    3.4124    1.0093 C   0  0  0  0  0  0  0  0  0  0  0  0
   -2.7361    4.0431    1.7862 H   0  0  0  0  0  0  0  0  0  0  0  0
   -2.0999    3.9133   -0.2893 C   0  0  0  0  0  0  0  0  0  0  0  0
   -2.4247    4.9352   -0.5367 H   0  0  0  0  0  0  0  0  0  0  0  0
   -1.4917    3.1109   -1.2675 C   0  0  0  0  0  0  0  0  0  0  0  0
   -1.3297    3.4986   -2.2846 H   0  0  0  0  0  0  0  0  0  0  0  0
   -1.0833    1.8083   -0.9501 C   0  0  0  0  0  0  0  0  0  0  0  0
   -0.5904    1.1957   -1.7180 H   0  0  0  0  0  0  0  0  0  0  0  0
   -1.0433   -0.8019    2.4379 C   0  0  0  0  0  0  0  0  0  0  0  0
    0.0441   -1.2670    3.2050 C   0  0  0  0  0  0  0  0  0  0  0  0
    1.0198   -1.4129    2.7146 H   0  0  0  0  0  0  0  0  0  0  0  0
   -0.1273   -1.5713    4.5627 C   0  0  0  0  0  0  0  0  0  0  0  0
    0.7245   -1.9410    5.1527 H   0  0  0  0  0  0  0  0  0  0  0  0
   -1.3870   -1.4196    5.1630 C   0  0  0  0  0  0  0  0  0  0  0  0
   -1.5226   -1.6611    6.2278 H   0  0  0  0  0  0  0  0  0  0  0  0
   -2.4797   -0.9780    4.3993 C   0  0  0  0  0  0  0  0  0  0  0  0
   -3.4724   -0.8764    4.8626 H   0  0  0  0  0  0  0  0  0  0  0  0
   -2.3155   -0.6750    3.0400 C   0  0  0  0  0  0  0  0  0  0  0  0
   -3.1867   -0.3473    2.4526 H   0  0  0  0  0  0  0  0  0  0  0  0
  1  6  1  0  0  0  0
  1  9  1  0  0  0  0
  2 31  1  0  0  0  0
  3  4  1  0  0  0  0
  3  5  1  0  0  0  0
  3  2  1  0  0  0  0
  6  3  1  0  0  0  0
  7  6  1  0  0  0  0
  8  6  1  0  0  0  0
  9 10  1  0  0  0  0
 10 11  1  0  0  0  0
 10 12  2  0  0  0  0
 12 13  1  0  0  0  0
 14 12  1  0  0  0  0
 14 15  1  0  0  0  0
 16 14  2  0  0  0  0
 17 16  1  0  0  0  0
 18  9  2  0  0  0  0
 18 16  1  0  0  0  0
 19 18  1  0  0  0  0
 20  2  1  0  0  0  0
 20 21  1  0  0  0  0
 21 22  1  0  0  0  0
 23 21  2  0  0  0  0
 23 24  1  0  0  0  0
 25 23  1  0  0  0  0
 26 25  1  0  0  0  0
 27 29  1  0  0  0  0
 27 25  2  0  0  0  0
 28 27  1  0  0  0  0
 29 20  2  0  0  0  0
 30 29  1  0  0  0  0
 31 40  2  0  0  0  0
 31 32  1  0  0  0  0
 32 34  2  0  0  0  0
 33 32  1  0  0  0  0
 34 35  1  0  0  0  0
 34 36  1  0  0  0  0
 36 37  1  0  0  0  0
 38 39  1  0  0  0  0
 38 36  2  0  0  0  0
 40 38  1  0  0  0  0
 41 40  1  0  0  0  0
M  END
