2
 OpenBabel05122313063D

 37 38  0  0  0  0  0  0  0  0999 V2000
   -4.1819    2.2461   -0.1136 S   0  0  0  0  0  0  0  0  0  0  0  0
    0.0103    1.2130    0.9472 P   0  0  0  0  0  0  0  0  0  0  0  0
   -6.4183    0.1066    0.7905 F   0  0  0  0  0  0  0  0  0  0  0  0
   -4.4636   -0.8004    0.4524 F   0  0  0  0  0  0  0  0  0  0  0  0
   -6.0949   -1.1771   -0.9484 F   0  0  0  0  0  0  0  0  0  0  0  0
   -1.5835    2.1332    0.7823 C   0  0  0  0  0  0  0  0  0  0  0  0
   -2.0668    2.1364    1.7816 H   0  0  0  0  0  0  0  0  0  0  0  0
   -1.2988    3.1728    0.5259 H   0  0  0  0  0  0  0  0  0  0  0  0
   -2.4947    1.5375   -0.2915 C   0  0  0  0  0  0  0  0  0  0  0  0
   -2.5709    0.4381   -0.1926 H   0  0  0  0  0  0  0  0  0  0  0  0
   -2.0842    1.7765   -1.2942 H   0  0  0  0  0  0  0  0  0  0  0  0
   -5.1307    0.9799   -1.0121 C   0  0  0  0  0  0  0  0  0  0  0  0
   -6.0577    1.4609   -1.3812 H   0  0  0  0  0  0  0  0  0  0  0  0
   -4.5670    0.6227   -1.8969 H   0  0  0  0  0  0  0  0  0  0  0  0
   -5.5392   -0.2193   -0.1671 C   0  0  0  0  0  0  0  0  0  0  0  0
    1.1296    2.2915    1.9119 C   0  0  0  0  0  0  0  0  0  0  0  0
    2.2687    2.8779    1.3247 C   0  0  0  0  0  0  0  0  0  0  0  0
    2.4950    2.6924    0.2643 H   0  0  0  0  0  0  0  0  0  0  0  0
    3.0930    3.7171    2.0896 C   0  0  0  0  0  0  0  0  0  0  0  0
    3.9804    4.1746    1.6277 H   0  0  0  0  0  0  0  0  0  0  0  0
    2.7819    3.9791    3.4325 C   0  0  0  0  0  0  0  0  0  0  0  0
    3.4282    4.6411    4.0281 H   0  0  0  0  0  0  0  0  0  0  0  0
    1.6442    3.3984    4.0182 C   0  0  0  0  0  0  0  0  0  0  0  0
    1.3977    3.6040    5.0704 H   0  0  0  0  0  0  0  0  0  0  0  0
    0.8200    2.5517    3.2653 C   0  0  0  0  0  0  0  0  0  0  0  0
   -0.0600    2.0864    3.7356 H   0  0  0  0  0  0  0  0  0  0  0  0
   -0.3289   -0.1819    2.0853 C   0  0  0  0  0  0  0  0  0  0  0  0
   -1.6356   -0.6621    2.3103 C   0  0  0  0  0  0  0  0  0  0  0  0
   -2.5025   -0.2325    1.7916 H   0  0  0  0  0  0  0  0  0  0  0  0
   -1.8505   -1.7035    3.2253 C   0  0  0  0  0  0  0  0  0  0  0  0
   -2.8750   -2.0667    3.3935 H   0  0  0  0  0  0  0  0  0  0  0  0
   -0.7727   -2.2706    3.9219 C   0  0  0  0  0  0  0  0  0  0  0  0
   -0.9489   -3.0793    4.6469 H   0  0  0  0  0  0  0  0  0  0  0  0
    0.5306   -1.7989    3.6963 C   0  0  0  0  0  0  0  0  0  0  0  0
    1.3805   -2.2321    4.2447 H   0  0  0  0  0  0  0  0  0  0  0  0
    0.7544   -0.7602    2.7827 C   0  0  0  0  0  0  0  0  0  0  0  0
    1.7749   -0.3788    2.6353 H   0  0  0  0  0  0  0  0  0  0  0  0
  2 16  1  0  0  0  0
  2 27  1  0  0  0  0
  5 15  1  0  0  0  0
  6  2  1  0  0  0  0
  6  7  1  0  0  0  0
  8  6  1  0  0  0  0
  9 10  1  0  0  0  0
  9  1  1  0  0  0  0
  9  6  1  0  0  0  0
 11  9  1  0  0  0  0
 12 15  1  0  0  0  0
 12  1  1  0  0  0  0
 13 12  1  0  0  0  0
 14 12  1  0  0  0  0
 15  4  1  0  0  0  0
 15  3  1  0  0  0  0
 16 25  1  0  0  0  0
 17 16  2  0  0  0  0
 17 19  1  0  0  0  0
 18 17  1  0  0  0  0
 19 21  2  0  0  0  0
 20 19  1  0  0  0  0
 21 23  1  0  0  0  0
 21 22  1  0  0  0  0
 23 24  1  0  0  0  0
 25 26  1  0  0  0  0
 25 23  2  0  0  0  0
 27 28  2  0  0  0  0
 27 36  1  0  0  0  0
 28 30  1  0  0  0  0
 29 28  1  0  0  0  0
 30 31  1  0  0  0  0
 30 32  2  0  0  0  0
 32 33  1  0  0  0  0
 34 32  1  0  0  0  0
 34 35  1  0  0  0  0
 36 34  2  0  0  0  0
 37 36  1  0  0  0  0
M  END
