1
 OpenBabel05122313063D

 20 20  0  0  0  0  0  0  0  0999 V2000
    1.7289   -1.7696    0.8842 P   0  0  2  0  0  0  0  0  0  0  0  0
    5.9366   -1.0601   -1.0191 C   0  0  0  0  0  0  0  0  0  0  0  0
    6.9236   -0.9061   -1.4812 H   0  0  0  0  0  0  0  0  0  0  0  0
    3.3985   -1.4594    0.1731 C   0  0  0  0  0  0  0  0  0  0  0  0
    3.6791   -1.9648   -1.1154 C   0  0  0  0  0  0  0  0  0  0  0  0
    2.9063   -2.5389   -1.6496 H   0  0  0  0  0  0  0  0  0  0  0  0
    5.6717   -0.5623    0.2664 C   0  0  0  0  0  0  0  0  0  0  0  0
    6.4517   -0.0146    0.8181 H   0  0  0  0  0  0  0  0  0  0  0  0
    4.9333   -1.7607   -1.7088 C   0  0  0  0  0  0  0  0  0  0  0  0
    5.1326   -2.1625   -2.7143 H   0  0  0  0  0  0  0  0  0  0  0  0
    4.4112   -0.7533    0.8546 C   0  0  0  0  0  0  0  0  0  0  0  0
    4.2186   -0.3435    1.8557 H   0  0  0  0  0  0  0  0  0  0  0  0
    1.9214   -1.3413    2.6730 C   0  0  0  0  0  0  0  0  0  0  0  0
    2.7131   -1.9736    3.1228 H   0  0  0  0  0  0  0  0  0  0  0  0
    0.9609   -1.5730    3.1727 H   0  0  0  0  0  0  0  0  0  0  0  0
    2.1562   -0.2701    2.8225 H   0  0  0  0  0  0  0  0  0  0  0  0
    1.4187   -3.6956    0.8029 B   0  0  0  0  0  0  0  0  0  0  0  0
    1.3002   -4.0284   -0.3790 H   0  0  0  0  0  0  0  0  0  0  0  0
    0.3896   -3.9054    1.4565 H   0  0  0  0  0  0  0  0  0  0  0  0
    2.4139   -4.1903    1.3390 H   0  0  0  0  0  0  0  0  0  0  0  0
  1 13  1  1  0  0  0
  2  7  1  0  0  0  0
  3  2  1  0  0  0  0
  4 11  1  0  0  0  0
  4  1  1  0  0  0  0
  5  4  2  0  0  0  0
  6  5  1  0  0  0  0
  7  8  1  0  0  0  0
  7 11  2  0  0  0  0
  9  5  1  0  0  0  0
  9  2  2  0  0  0  0
 10  9  1  0  0  0  0
 11 12  1  0  0  0  0
 13 16  1  0  0  0  0
 13 14  1  0  0  0  0
 13 15  1  0  0  0  0
 17  1  1  0  0  0  0
 17 20  1  0  0  0  0
 17 19  1  0  0  0  0
 18 17  1  0  0  0  0
M  END
