2
 OpenBabel05122313063D

 34 36  0  0  0  0  0  0  0  0999 V2000
   -1.8620   -2.7551   -0.2389 Br  0  0  0  0  0  0  0  0  0  0  0  0
   -1.7556    0.4847   -0.0602 P   0  0  0  0  0  0  0  0  0  0  0  0
   -3.2386   -0.3994    0.6402 C   0  0  0  0  0  0  0  0  0  0  0  0
   -3.3257   -1.7973    0.5529 C   0  0  0  0  0  0  0  0  0  0  0  0
   -4.4384   -2.5170    1.0028 C   0  0  0  0  0  0  0  0  0  0  0  0
   -4.4607   -3.6131    0.9251 H   0  0  0  0  0  0  0  0  0  0  0  0
   -5.5123   -1.8108    1.5664 C   0  0  0  0  0  0  0  0  0  0  0  0
   -6.3888   -2.3637    1.9362 H   0  0  0  0  0  0  0  0  0  0  0  0
   -5.4626   -0.4117    1.6616 C   0  0  0  0  0  0  0  0  0  0  0  0
   -6.3040    0.1430    2.1025 H   0  0  0  0  0  0  0  0  0  0  0  0
   -4.3376    0.2857    1.1965 C   0  0  0  0  0  0  0  0  0  0  0  0
   -4.3051    1.3830    1.2646 H   0  0  0  0  0  0  0  0  0  0  0  0
   -2.4118    1.0315   -1.7027 C   0  0  0  0  0  0  0  0  0  0  0  0
   -1.5217    1.6666   -2.5925 C   0  0  0  0  0  0  0  0  0  0  0  0
   -0.4720    1.8045   -2.3086 H   0  0  0  0  0  0  0  0  0  0  0  0
   -1.9651    2.1144   -3.8435 C   0  0  0  0  0  0  0  0  0  0  0  0
   -1.2547    2.6141   -4.5198 H   0  0  0  0  0  0  0  0  0  0  0  0
   -3.2962    1.9048   -4.2363 C   0  0  0  0  0  0  0  0  0  0  0  0
   -3.6428    2.2447   -5.2243 H   0  0  0  0  0  0  0  0  0  0  0  0
   -4.1805    1.2478   -3.3675 C   0  0  0  0  0  0  0  0  0  0  0  0
   -5.2230    1.0679   -3.6716 H   0  0  0  0  0  0  0  0  0  0  0  0
   -3.7443    0.8141   -2.1053 C   0  0  0  0  0  0  0  0  0  0  0  0
   -4.4506    0.3009   -1.4380 H   0  0  0  0  0  0  0  0  0  0  0  0
   -1.7629    2.0496    0.9284 C   0  0  0  0  0  0  0  0  0  0  0  0
   -1.6217    3.3102    0.3159 C   0  0  0  0  0  0  0  0  0  0  0  0
   -1.5497    3.3894   -0.7775 H   0  0  0  0  0  0  0  0  0  0  0  0
   -1.5757    4.4754    1.0985 C   0  0  0  0  0  0  0  0  0  0  0  0
   -1.4565    5.4524    0.6056 H   0  0  0  0  0  0  0  0  0  0  0  0
   -1.6865    4.3964    2.4944 C   0  0  0  0  0  0  0  0  0  0  0  0
   -1.6558    5.3121    3.1045 H   0  0  0  0  0  0  0  0  0  0  0  0
   -1.8419    3.1425    3.1095 C   0  0  0  0  0  0  0  0  0  0  0  0
   -1.9310    3.0693    4.2043 H   0  0  0  0  0  0  0  0  0  0  0  0
   -1.8725    1.9733    2.3363 C   0  0  0  0  0  0  0  0  0  0  0  0
   -1.9475    0.9873    2.8202 H   0  0  0  0  0  0  0  0  0  0  0  0
  1  4  1  0  0  0  0
  2  3  1  0  0  0  0
  2 24  1  0  0  0  0
  3 11  1  0  0  0  0
  4  3  2  0  0  0  0
  4  5  1  0  0  0  0
  5  7  2  0  0  0  0
  6  5  1  0  0  0  0
  7  9  1  0  0  0  0
  7  8  1  0  0  0  0
  9 10  1  0  0  0  0
 11 12  1  0  0  0  0
 11  9  2  0  0  0  0
 13  2  1  0  0  0  0
 14 15  1  0  0  0  0
 14 13  2  0  0  0  0
 16 14  1  0  0  0  0
 17 16  1  0  0  0  0
 18 16  2  0  0  0  0
 18 20  1  0  0  0  0
 19 18  1  0  0  0  0
 20 22  2  0  0  0  0
 21 20  1  0  0  0  0
 22 13  1  0  0  0  0
 22 23  1  0  0  0  0
 24 33  1  0  0  0  0
 25 24  2  0  0  0  0
 25 27  1  0  0  0  0
 26 25  1  0  0  0  0
 27 29  2  0  0  0  0
 28 27  1  0  0  0  0
 29 30  1  0  0  0  0
 29 31  1  0  0  0  0
 31 32  1  0  0  0  0
 33 34  1  0  0  0  0
 33 31  2  0  0  0  0
M  END
