1
 OpenBabel05122313063D

 37 39  0  0  0  0  0  0  0  0999 V2000
    1.4056   -0.5128   -1.5579 P   0  0  0  0  0  0  0  0  0  0  0  0
    0.3302   -1.0800   -2.7028 O   0  0  0  0  0  0  0  0  0  0  0  0
    1.9464    0.8082   -2.4256 O   0  0  0  0  0  0  0  0  0  0  0  0
    2.6740   -1.5315   -1.9478 O   0  0  0  0  0  0  0  0  0  0  0  0
   -0.5317   -2.1310   -2.4557 C   0  0  0  0  0  0  0  0  0  0  0  0
   -1.8907   -1.9518   -2.7656 C   0  0  0  0  0  0  0  0  0  0  0  0
   -2.2263   -0.9819   -3.1564 H   0  0  0  0  0  0  0  0  0  0  0  0
   -2.7905   -3.0058   -2.5562 C   0  0  0  0  0  0  0  0  0  0  0  0
   -3.8541   -2.8623   -2.7994 H   0  0  0  0  0  0  0  0  0  0  0  0
   -2.3437   -4.2316   -2.0320 C   0  0  0  0  0  0  0  0  0  0  0  0
   -3.0551   -5.0542   -1.8662 H   0  0  0  0  0  0  0  0  0  0  0  0
   -0.9839   -4.4003   -1.7268 C   0  0  0  0  0  0  0  0  0  0  0  0
   -0.6217   -5.3580   -1.3234 H   0  0  0  0  0  0  0  0  0  0  0  0
   -0.0710   -3.3557   -1.9382 C   0  0  0  0  0  0  0  0  0  0  0  0
    0.9994   -3.4819   -1.7270 H   0  0  0  0  0  0  0  0  0  0  0  0
    1.3380    2.0494   -2.3424 C   0  0  0  0  0  0  0  0  0  0  0  0
    2.1536    3.1559   -2.0512 C   0  0  0  0  0  0  0  0  0  0  0  0
    3.2189    2.9918   -1.8365 H   0  0  0  0  0  0  0  0  0  0  0  0
    1.5957    4.4418   -2.0417 C   0  0  0  0  0  0  0  0  0  0  0  0
    2.2370    5.3082   -1.8198 H   0  0  0  0  0  0  0  0  0  0  0  0
    0.2279    4.6245   -2.3073 C   0  0  0  0  0  0  0  0  0  0  0  0
   -0.2065    5.6353   -2.3044 H   0  0  0  0  0  0  0  0  0  0  0  0
   -0.5814    3.5084   -2.5750 C   0  0  0  0  0  0  0  0  0  0  0  0
   -1.6535    3.6400   -2.7855 H   0  0  0  0  0  0  0  0  0  0  0  0
   -0.0352    2.2161   -2.5934 C   0  0  0  0  0  0  0  0  0  0  0  0
   -0.6578    1.3391   -2.8129 H   0  0  0  0  0  0  0  0  0  0  0  0
    3.7747   -1.5671   -1.0979 C   0  0  0  0  0  0  0  0  0  0  0  0
    4.0106   -2.7273   -0.3446 C   0  0  0  0  0  0  0  0  0  0  0  0
    3.3109   -3.5716   -0.4224 H   0  0  0  0  0  0  0  0  0  0  0  0
    5.1233   -2.7802    0.5072 C   0  0  0  0  0  0  0  0  0  0  0  0
    5.3054   -3.6863    1.1043 H   0  0  0  0  0  0  0  0  0  0  0  0
    5.9909   -1.6806    0.6102 C   0  0  0  0  0  0  0  0  0  0  0  0
    6.8585   -1.7239    1.2852 H   0  0  0  0  0  0  0  0  0  0  0  0
    5.7455   -0.5256   -0.1494 C   0  0  0  0  0  0  0  0  0  0  0  0
    6.4208    0.3400   -0.0730 H   0  0  0  0  0  0  0  0  0  0  0  0
    4.6389   -0.4633   -1.0090 C   0  0  0  0  0  0  0  0  0  0  0  0
    4.4304    0.4275   -1.6174 H   0  0  0  0  0  0  0  0  0  0  0  0
  2  5  1  0  0  0  0
  2  1  1  0  0  0  0
  3 16  1  0  0  0  0
  3  1  1  0  0  0  0
  4  1  1  0  0  0  0
  4 27  1  0  0  0  0
  5 14  1  0  0  0  0
  6  8  1  0  0  0  0
  6  5  2  0  0  0  0
  7  6  1  0  0  0  0
  8 10  2  0  0  0  0
  9  8  1  0  0  0  0
 10 11  1  0  0  0  0
 10 12  1  0  0  0  0
 12 13  1  0  0  0  0
 14 15  1  0  0  0  0
 14 12  2  0  0  0  0
 16 17  1  0  0  0  0
 17 19  2  0  0  0  0
 17 18  1  0  0  0  0
 19 20  1  0  0  0  0
 21 22  1  0  0  0  0
 21 19  1  0  0  0  0
 23 21  2  0  0  0  0
 24 23  1  0  0  0  0
 25 23  1  0  0  0  0
 25 16  2  0  0  0  0
 26 25  1  0  0  0  0
 27 36  2  0  0  0  0
 27 28  1  0  0  0  0
 28 30  2  0  0  0  0
 29 28  1  0  0  0  0
 30 32  1  0  0  0  0
 30 31  1  0  0  0  0
 32 33  1  0  0  0  0
 34 35  1  0  0  0  0
 34 32  2  0  0  0  0
 36 34  1  0  0  0  0
 37 36  1  0  0  0  0
M  END
