1
 OpenBabel05122313063D

 30 29  0  0  0  0  0  0  0  0999 V2000
   -0.7983   -0.2121   -0.3110 P   0  0  1  0  0  0  0  0  0  0  0  0
   -1.7304   -3.3046   -0.0934 Si  0  0  0  0  0  0  0  0  0  0  0  0
   -0.9151    2.1755   -2.1092 F   0  0  0  0  0  0  0  0  0  0  0  0
   -0.5433    3.0878   -0.1489 F   0  0  0  0  0  0  0  0  0  0  0  0
   -2.4255    3.4412   -1.1957 F   0  0  0  0  0  0  0  0  0  0  0  0
   -3.0008    2.8213    1.3398 F   0  0  0  0  0  0  0  0  0  0  0  0
   -3.5537    0.7352    1.5689 F   0  0  0  0  0  0  0  0  0  0  0  0
   -1.5296    1.3834    2.0614 F   0  0  0  0  0  0  0  0  0  0  0  0
   -3.2169    0.8456   -0.9946 O   0  0  0  0  0  0  0  0  0  0  0  0
   -2.8528    0.2942   -1.7311 H   0  0  0  0  0  0  0  0  0  0  0  0
   -1.2118   -0.6419   -1.9078 O   0  0  0  0  0  0  0  0  0  0  0  0
   -0.5692   -0.2104   -2.5080 H   0  0  0  0  0  0  0  0  0  0  0  0
   -2.1047    1.2551   -0.2623 C   0  0  0  0  0  0  0  0  0  0  0  0
   -1.4940    2.5216   -0.9198 C   0  0  0  0  0  0  0  0  0  0  0  0
   -2.5593    1.5579    1.1947 C   0  0  0  0  0  0  0  0  0  0  0  0
   -1.7238   -1.4962    0.5817 C   0  0  0  0  0  0  0  0  0  0  0  0
   -2.7927   -1.2033    0.6176 H   0  0  0  0  0  0  0  0  0  0  0  0
   -1.3380   -1.4919    1.6209 H   0  0  0  0  0  0  0  0  0  0  0  0
   -0.0992   -3.8589   -0.8548 C   0  0  0  0  0  0  0  0  0  0  0  0
    0.1293   -3.2964   -1.7796 H   0  0  0  0  0  0  0  0  0  0  0  0
   -0.1788   -4.9327   -1.1244 H   0  0  0  0  0  0  0  0  0  0  0  0
    0.7548   -3.7519   -0.1581 H   0  0  0  0  0  0  0  0  0  0  0  0
   -3.1063   -3.4023   -1.3826 C   0  0  0  0  0  0  0  0  0  0  0  0
   -4.0838   -3.0966   -0.9563 H   0  0  0  0  0  0  0  0  0  0  0  0
   -3.2124   -4.4365   -1.7696 H   0  0  0  0  0  0  0  0  0  0  0  0
   -2.8773   -2.7353   -2.2377 H   0  0  0  0  0  0  0  0  0  0  0  0
   -2.1330   -4.3661    1.4168 C   0  0  0  0  0  0  0  0  0  0  0  0
   -1.3195   -4.2981    2.1684 H   0  0  0  0  0  0  0  0  0  0  0  0
   -2.2423   -5.4323    1.1300 H   0  0  0  0  0  0  0  0  0  0  0  0
   -3.0778   -4.0457    1.9014 H   0  0  0  0  0  0  0  0  0  0  0  0
  1 11  1  6  0  0  0
  1 13  1  0  0  0  0
  1 16  1  0  0  0  0
  2 16  1  0  0  0  0
  2 27  1  0  0  0  0
  3 14  1  0  0  0  0
  5 14  1  0  0  0  0
  9 13  1  0  0  0  0
 10  9  1  0  0  0  0
 12 11  1  0  0  0  0
 13 15  1  0  0  0  0
 14 13  1  0  0  0  0
 14  4  1  0  0  0  0
 15  6  1  0  0  0  0
 15  7  1  0  0  0  0
 15  8  1  0  0  0  0
 16 17  1  0  0  0  0
 16 18  1  0  0  0  0
 19 22  1  0  0  0  0
 19  2  1  0  0  0  0
 20 19  1  0  0  0  0
 21 19  1  0  0  0  0
 23 24  1  0  0  0  0
 23  2  1  0  0  0  0
 25 23  1  0  0  0  0
 26 23  1  0  0  0  0
 27 30  1  0  0  0  0
 27 28  1  0  0  0  0
 29 27  1  0  0  0  0
M  END
