1
 OpenBabel05122313063D

 37 39  0  0  0  0  0  0  0  0999 V2000
    2.3861    0.0283   -0.0611 P   0  0  0  0  0  0  0  0  0  0  0  0
    3.0747    1.6638    0.3986 C   0  0  0  0  0  0  0  0  0  0  0  0
    3.4786    1.9283    1.7245 C   0  0  0  0  0  0  0  0  0  0  0  0
    3.8506    3.2259    2.1044 C   0  0  0  0  0  0  0  0  0  0  0  0
    3.8121    4.2740    1.1718 C   0  0  0  0  0  0  0  0  0  0  0  0
    3.3827    4.0220   -0.1405 C   0  0  0  0  0  0  0  0  0  0  0  0
    3.0094    2.7270   -0.5273 C   0  0  0  0  0  0  0  0  0  0  0  0
    2.9140   -0.3221   -1.8191 C   0  0  0  0  0  0  0  0  0  0  0  0
    4.3902   -0.5431   -1.9739 C   0  0  0  0  0  0  0  0  0  0  0  0
    5.2817    0.5366   -2.1506 C   0  0  0  0  0  0  0  0  0  0  0  0
    6.6648    0.3178   -2.2328 C   0  0  0  0  0  0  0  0  0  0  0  0
    7.1814   -0.9848   -2.1421 C   0  0  0  0  0  0  0  0  0  0  0  0
    6.3038   -2.0679   -1.9747 C   0  0  0  0  0  0  0  0  0  0  0  0
    4.9224   -1.8475   -1.8893 C   0  0  0  0  0  0  0  0  0  0  0  0
    3.3320   -1.2173    0.9002 C   0  0  0  0  0  0  0  0  0  0  0  0
    4.6866   -1.0063    1.2374 C   0  0  0  0  0  0  0  0  0  0  0  0
    5.4177   -2.0174    1.8764 C   0  0  0  0  0  0  0  0  0  0  0  0
    4.8122   -3.2498    2.1684 C   0  0  0  0  0  0  0  0  0  0  0  0
    3.4739   -3.4731    1.8091 C   0  0  0  0  0  0  0  0  0  0  0  0
    2.7333   -2.4639    1.1755 C   0  0  0  0  0  0  0  0  0  0  0  0
    3.4954    1.1173    2.4678 H   0  0  0  0  0  0  0  0  0  0  0  0
    4.1676    3.4186    3.1405 H   0  0  0  0  0  0  0  0  0  0  0  0
    4.1034    5.2918    1.4722 H   0  0  0  0  0  0  0  0  0  0  0  0
    3.3265    4.8428   -0.8713 H   0  0  0  0  0  0  0  0  0  0  0  0
    2.6206    2.5518   -1.5407 H   0  0  0  0  0  0  0  0  0  0  0  0
    4.8854    1.5604   -2.2206 H   0  0  0  0  0  0  0  0  0  0  0  0
    7.3443    1.1726   -2.3723 H   0  0  0  0  0  0  0  0  0  0  0  0
    8.2667   -1.1556   -2.2071 H   0  0  0  0  0  0  0  0  0  0  0  0
    6.6977   -3.0932   -1.9051 H   0  0  0  0  0  0  0  0  0  0  0  0
    4.2374   -2.6968   -1.7418 H   0  0  0  0  0  0  0  0  0  0  0  0
    5.1789   -0.0567    0.9832 H   0  0  0  0  0  0  0  0  0  0  0  0
    6.4732   -1.8429    2.1344 H   0  0  0  0  0  0  0  0  0  0  0  0
    5.3890   -4.0424    2.6691 H   0  0  0  0  0  0  0  0  0  0  0  0
    2.9982   -4.4428    2.0201 H   0  0  0  0  0  0  0  0  0  0  0  0
    1.6983   -2.6534    0.8515 H   0  0  0  0  0  0  0  0  0  0  0  0
    2.5077    0.5092   -2.4269 H   0  0  0  0  0  0  0  0  0  0  0  0
    2.3154   -1.2207   -2.0738 H   0  0  0  0  0  0  0  0  0  0  0  0
  1  2  1  0  0  0  0
  1 15  1  0  0  0  0
  2  3  1  0  0  0  0
  3  4  2  0  0  0  0
  3 21  1  0  0  0  0
  4 22  1  0  0  0  0
  5 23  1  0  0  0  0
  5  4  1  0  0  0  0
  6  5  2  0  0  0  0
  7  6  1  0  0  0  0
  7  2  2  0  0  0  0
  8  1  1  0  0  0  0
  9 14  1  0  0  0  0
  9  8  1  0  0  0  0
 10  9  2  0  0  0  0
 11 10  1  0  0  0  0
 11 12  2  0  0  0  0
 12 13  1  0  0  0  0
 13 29  1  0  0  0  0
 13 14  2  0  0  0  0
 14 30  1  0  0  0  0
 15 20  2  0  0  0  0
 15 16  1  0  0  0  0
 16 17  2  0  0  0  0
 17 32  1  0  0  0  0
 17 18  1  0  0  0  0
 18 33  1  0  0  0  0
 19 34  1  0  0  0  0
 19 18  2  0  0  0  0
 20 19  1  0  0  0  0
 24  6  1  0  0  0  0
 25  7  1  0  0  0  0
 26 10  1  0  0  0  0
 27 11  1  0  0  0  0
 28 12  1  0  0  0  0
 31 16  1  0  0  0  0
 35 20  1  0  0  0  0
 36  8  1  0  0  0  0
 37  8  1  0  0  0  0
M  END
