1
 OpenBabel05122313063D

 40 39  0  0  0  0  0  0  0  0999 V2000
    2.2428    0.0055    0.1041 P   0  0  0  0  0  0  0  0  0  0  0  0
    3.2120    1.3476   -0.7515 C   0  0  0  0  0  0  0  0  0  0  0  0
    2.6090    2.7644   -0.6587 C   0  0  0  0  0  0  0  0  0  0  0  0
    1.4071    2.9421   -1.5932 C   0  0  0  0  0  0  0  0  0  0  0  0
    3.6889    3.8182   -0.9399 C   0  0  0  0  0  0  0  0  0  0  0  0
    2.7632    0.2650    1.8767 C   0  0  0  0  0  0  0  0  0  0  0  0
    1.7924   -0.2976    2.9311 C   0  0  0  0  0  0  0  0  0  0  0  0
    1.6220   -1.8166    2.8204 C   0  0  0  0  0  0  0  0  0  0  0  0
    2.2370    0.1155    4.3394 C   0  0  0  0  0  0  0  0  0  0  0  0
    3.2238   -1.4933   -0.4079 C   0  0  0  0  0  0  0  0  0  0  0  0
    2.8625   -2.0647   -1.7948 C   0  0  0  0  0  0  0  0  0  0  0  0
    1.5499   -2.8563   -1.7603 C   0  0  0  0  0  0  0  0  0  0  0  0
    4.0139   -2.9263   -2.3306 C   0  0  0  0  0  0  0  0  0  0  0  0
    4.2357    1.3281   -0.3159 H   0  0  0  0  0  0  0  0  0  0  0  0
    3.3145    1.0487   -1.8176 H   0  0  0  0  0  0  0  0  0  0  0  0
    2.2521    2.9190    0.3866 H   0  0  0  0  0  0  0  0  0  0  0  0
    0.9637    3.9522   -1.4845 H   0  0  0  0  0  0  0  0  0  0  0  0
    0.6081    2.2022   -1.3828 H   0  0  0  0  0  0  0  0  0  0  0  0
    1.7157    2.8211   -2.6540 H   0  0  0  0  0  0  0  0  0  0  0  0
    3.2750    4.8444   -0.8654 H   0  0  0  0  0  0  0  0  0  0  0  0
    4.0986    3.6973   -1.9654 H   0  0  0  0  0  0  0  0  0  0  0  0
    4.5363    3.7390   -0.2281 H   0  0  0  0  0  0  0  0  0  0  0  0
    3.7874   -0.1501    2.0149 H   0  0  0  0  0  0  0  0  0  0  0  0
    2.8472    1.3655    2.0055 H   0  0  0  0  0  0  0  0  0  0  0  0
    0.7967    0.1604    2.7317 H   0  0  0  0  0  0  0  0  0  0  0  0
    0.9199   -2.1930    3.5911 H   0  0  0  0  0  0  0  0  0  0  0  0
    2.5913   -2.3432    2.9571 H   0  0  0  0  0  0  0  0  0  0  0  0
    1.2024   -2.1024    1.8342 H   0  0  0  0  0  0  0  0  0  0  0  0
    1.5150   -0.2361    5.1041 H   0  0  0  0  0  0  0  0  0  0  0  0
    2.3200    1.2179    4.4341 H   0  0  0  0  0  0  0  0  0  0  0  0
    3.2287   -0.3185    4.5898 H   0  0  0  0  0  0  0  0  0  0  0  0
    2.7266   -1.2087   -2.4964 H   0  0  0  0  0  0  0  0  0  0  0  0
    1.2731   -3.2169   -2.7713 H   0  0  0  0  0  0  0  0  0  0  0  0
    0.7081   -2.2414   -1.3797 H   0  0  0  0  0  0  0  0  0  0  0  0
    1.6482   -3.7453   -1.1006 H   0  0  0  0  0  0  0  0  0  0  0  0
    3.7726   -3.3395   -3.3312 H   0  0  0  0  0  0  0  0  0  0  0  0
    4.2101   -3.7849   -1.6536 H   0  0  0  0  0  0  0  0  0  0  0  0
    4.9552   -2.3458   -2.4187 H   0  0  0  0  0  0  0  0  0  0  0  0
    3.0763   -2.2691    0.3725 H   0  0  0  0  0  0  0  0  0  0  0  0
    4.2968   -1.2025   -0.3687 H   0  0  0  0  0  0  0  0  0  0  0  0
  1  6  1  0  0  0  0
  2  3  1  0  0  0  0
  2 14  1  0  0  0  0
  2  1  1  0  0  0  0
  3 16  1  0  0  0  0
  4 17  1  0  0  0  0
  4 18  1  0  0  0  0
  4  3  1  0  0  0  0
  5 20  1  0  0  0  0
  5  3  1  0  0  0  0
  5 22  1  0  0  0  0
  6 24  1  0  0  0  0
  6 23  1  0  0  0  0
  6  7  1  0  0  0  0
  7  9  1  0  0  0  0
  8  7  1  0  0  0  0
  8 27  1  0  0  0  0
  8 26  1  0  0  0  0
  9 30  1  0  0  0  0
  9 31  1  0  0  0  0
  9 29  1  0  0  0  0
 10 40  1  0  0  0  0
 10  1  1  0  0  0  0
 10 39  1  0  0  0  0
 11 12  1  0  0  0  0
 11 10  1  0  0  0  0
 12 34  1  0  0  0  0
 12 35  1  0  0  0  0
 13 11  1  0  0  0  0
 13 37  1  0  0  0  0
 15  2  1  0  0  0  0
 19  4  1  0  0  0  0
 21  5  1  0  0  0  0
 25  7  1  0  0  0  0
 28  8  1  0  0  0  0
 32 11  1  0  0  0  0
 33 12  1  0  0  0  0
 36 13  1  0  0  0  0
 38 13  1  0  0  0  0
M  END
