1
 OpenBabel05122313063D

 44 47  0  0  1  0  0  0  0  0999 V2000
   -0.8168    0.0199   -0.1409 P   0  0  0  0  0  0  0  0  0  0  0  0
    0.3625    1.4358    2.0164 N   0  0  0  0  0  0  0  0  0  0  0  0
   -0.8041    0.8978    1.5188 C   0  0  2  0  0  3  0  0  0  0  0  0
   -1.9453    0.9220    2.3360 C   0  0  0  0  0  0  0  0  0  0  0  0
   -2.8751    0.4872    1.9422 H   0  0  0  0  0  0  0  0  0  0  0  0
   -1.8968    1.4636    3.6268 C   0  0  0  0  0  0  0  0  0  0  0  0
   -2.8009    1.4805    4.2535 H   0  0  0  0  0  0  0  0  0  0  0  0
   -0.6834    1.9770    4.1101 C   0  0  0  0  0  0  0  0  0  0  0  0
   -0.5927    2.4037    5.1185 H   0  0  0  0  0  0  0  0  0  0  0  0
    0.4289    1.9543    3.2771 C   0  0  0  0  0  0  0  0  0  0  0  0
    1.4098    2.3565    3.5667 H   0  0  0  0  0  0  0  0  0  0  0  0
    1.5967    1.4368    1.2397 C   0  0  0  0  0  0  0  0  0  0  0  0
    1.7285    2.2959    0.1392 C   0  0  0  0  0  0  0  0  0  0  0  0
    0.9194    2.9858   -0.1338 H   0  0  0  0  0  0  0  0  0  0  0  0
    2.9228    2.2580   -0.5954 C   0  0  0  0  0  0  0  0  0  0  0  0
    3.0427    2.9245   -1.4617 H   0  0  0  0  0  0  0  0  0  0  0  0
    3.9561    1.3817   -0.2275 C   0  0  0  0  0  0  0  0  0  0  0  0
    4.8822    1.3479   -0.8193 H   0  0  0  0  0  0  0  0  0  0  0  0
    3.8141    0.5460    0.8914 C   0  0  0  0  0  0  0  0  0  0  0  0
    4.6128   -0.1562    1.1676 H   0  0  0  0  0  0  0  0  0  0  0  0
    2.6301    0.5719    1.6403 C   0  0  0  0  0  0  0  0  0  0  0  0
    2.4918   -0.1017    2.4986 H   0  0  0  0  0  0  0  0  0  0  0  0
   -2.4371   -0.8233   -0.1058 C   0  0  0  0  0  0  0  0  0  0  0  0
   -2.4899   -2.1011    0.4950 C   0  0  0  0  0  0  0  0  0  0  0  0
   -1.5721   -2.5577    0.8997 H   0  0  0  0  0  0  0  0  0  0  0  0
   -3.7069   -2.7932    0.5526 C   0  0  0  0  0  0  0  0  0  0  0  0
   -3.7457   -3.7898    1.0165 H   0  0  0  0  0  0  0  0  0  0  0  0
   -4.8666   -2.2246   -0.0006 C   0  0  0  0  0  0  0  0  0  0  0  0
   -5.8182   -2.7757    0.0345 H   0  0  0  0  0  0  0  0  0  0  0  0
   -4.8105   -0.9631   -0.6152 C   0  0  0  0  0  0  0  0  0  0  0  0
   -5.7149   -0.5273   -1.0652 H   0  0  0  0  0  0  0  0  0  0  0  0
   -3.5990   -0.2574   -0.6711 C   0  0  0  0  0  0  0  0  0  0  0  0
   -3.5575    0.7219   -1.1698 H   0  0  0  0  0  0  0  0  0  0  0  0
   -0.9408    1.3859   -1.3454 C   0  0  0  0  0  0  0  0  0  0  0  0
   -0.2894    1.2306   -2.5858 C   0  0  0  0  0  0  0  0  0  0  0  0
    0.2892    0.3160   -2.7904 H   0  0  0  0  0  0  0  0  0  0  0  0
   -0.3689    2.2516   -3.5441 C   0  0  0  0  0  0  0  0  0  0  0  0
    0.1381    2.1290   -4.5126 H   0  0  0  0  0  0  0  0  0  0  0  0
   -1.0858    3.4266   -3.2658 C   0  0  0  0  0  0  0  0  0  0  0  0
   -1.1399    4.2282   -4.0173 H   0  0  0  0  0  0  0  0  0  0  0  0
   -1.7344    3.5828   -2.0287 C   0  0  0  0  0  0  0  0  0  0  0  0
   -2.2968    4.5032   -1.8123 H   0  0  0  0  0  0  0  0  0  0  0  0
   -1.6673    2.5641   -1.0671 C   0  0  0  0  0  0  0  0  0  0  0  0
   -2.1758    2.6958   -0.0992 H   0  0  0  0  0  0  0  0  0  0  0  0
  1 23  1  0  0  0  0
  2 10  1  0  0  0  0
  3  1  1  1  0  0  0
  3  2  1  0  0  0  0
  3  4  1  0  0  0  0
  4  6  2  0  0  0  0
  5  4  1  0  0  0  0
  6  8  1  0  0  0  0
  6  7  1  0  0  0  0
  8  9  1  0  0  0  0
 10 11  1  0  0  0  0
 10  8  2  0  0  0  0
 12 21  1  0  0  0  0
 12  2  1  0  0  0  0
 13 12  2  0  0  0  0
 14 13  1  0  0  0  0
 15 17  2  0  0  0  0
 15 13  1  0  0  0  0
 16 15  1  0  0  0  0
 17 19  1  0  0  0  0
 18 17  1  0  0  0  0
 19 20  1  0  0  0  0
 19 21  2  0  0  0  0
 21 22  1  0  0  0  0
 23 24  1  0  0  0  0
 24 26  2  0  0  0  0
 24 25  1  0  0  0  0
 26 27  1  0  0  0  0
 28 29  1  0  0  0  0
 28 26  1  0  0  0  0
 30 28  2  0  0  0  0
 31 30  1  0  0  0  0
 32 30  1  0  0  0  0
 32 23  2  0  0  0  0
 33 32  1  0  0  0  0
 34 43  1  0  0  0  0
 34  1  1  0  0  0  0
 35 34  2  0  0  0  0
 36 35  1  0  0  0  0
 37 39  2  0  0  0  0
 37 35  1  0  0  0  0
 38 37  1  0  0  0  0
 39 41  1  0  0  0  0
 40 39  1  0  0  0  0
 41 42  1  0  0  0  0
 41 43  2  0  0  0  0
 43 44  1  0  0  0  0
M  END
