1
 OpenBabel05122313063D

 46 46  0  0  0  0  0  0  0  0999 V2000
    0.2415    0.0430   -0.3282 P   0  0  2  0  0  0  0  0  0  0  0  0
    1.5515   -0.2061    0.7663 N   0  0  0  0  0  0  0  0  0  0  0  0
    0.5041   -2.4739   -1.7303 C   0  0  0  0  0  3  0  0  0  0  0  0
    0.5405   -1.1047   -1.7704 C   0  0  0  0  0  0  0  0  0  0  0  0
    0.7545   -0.2815   -2.9499 C   0  0  0  0  0  0  0  0  0  0  0  0
    0.8563   -0.7233   -3.9517 H   0  0  0  0  0  0  0  0  0  0  0  0
    0.8317    1.0714   -2.7484 C   0  0  0  0  0  0  0  0  0  0  0  0
    0.9975    1.7720   -3.5800 H   0  0  0  0  0  0  0  0  0  0  0  0
    0.6463    1.5309   -1.3838 C   0  0  0  0  0  0  0  0  0  0  0  0
    0.6564    2.8279   -0.9438 C   0  0  0  0  0  3  0  0  0  0  0  0
    0.9266    3.9947   -1.8542 C   0  0  0  0  0  0  0  0  0  0  0  0
    1.6986    4.6627   -1.4149 H   0  0  0  0  0  0  0  0  0  0  0  0
    0.0076    4.6121   -1.9629 H   0  0  0  0  0  0  0  0  0  0  0  0
    1.2623    3.7032   -2.8655 H   0  0  0  0  0  0  0  0  0  0  0  0
    0.3660    3.2001    0.4818 C   0  0  0  0  0  0  0  0  0  0  0  0
   -0.4200    3.9850    0.5232 H   0  0  0  0  0  0  0  0  0  0  0  0
    1.2652    3.6375    0.9699 H   0  0  0  0  0  0  0  0  0  0  0  0
    0.0204    2.3420    1.0865 H   0  0  0  0  0  0  0  0  0  0  0  0
    0.2815   -3.2378   -0.4573 C   0  0  0  0  0  0  0  0  0  0  0  0
   -0.7689   -3.5994   -0.3945 H   0  0  0  0  0  0  0  0  0  0  0  0
    0.4900   -2.6283    0.4378 H   0  0  0  0  0  0  0  0  0  0  0  0
    0.9263   -4.1409   -0.4192 H   0  0  0  0  0  0  0  0  0  0  0  0
    0.6564   -3.3304   -2.9581 C   0  0  0  0  0  0  0  0  0  0  0  0
    1.5538   -3.9814   -2.8710 H   0  0  0  0  0  0  0  0  0  0  0  0
    0.7379   -2.7588   -3.8995 H   0  0  0  0  0  0  0  0  0  0  0  0
   -0.2122   -4.0186   -3.0502 H   0  0  0  0  0  0  0  0  0  0  0  0
    1.3182   -0.1399    2.2242 C   0  0  0  0  0  0  0  0  0  0  0  0
    0.2404    0.1155    2.3007 H   0  0  0  0  0  0  0  0  0  0  0  0
    2.0819    0.9763    2.9537 C   0  0  0  0  0  0  0  0  0  0  0  0
    1.9754    1.9512    2.4440 H   0  0  0  0  0  0  0  0  0  0  0  0
    3.1620    0.7468    3.0472 H   0  0  0  0  0  0  0  0  0  0  0  0
    1.6822    1.0814    3.9826 H   0  0  0  0  0  0  0  0  0  0  0  0
    1.5103   -1.4770    2.9639 C   0  0  0  0  0  0  0  0  0  0  0  0
    1.0345   -2.3175    2.4267 H   0  0  0  0  0  0  0  0  0  0  0  0
    1.0404   -1.4163    3.9663 H   0  0  0  0  0  0  0  0  0  0  0  0
    2.5786   -1.7230    3.1155 H   0  0  0  0  0  0  0  0  0  0  0  0
    2.8989   -0.2792    0.1537 C   0  0  0  0  0  0  0  0  0  0  0  0
    2.6985   -0.4764   -0.9205 H   0  0  0  0  0  0  0  0  0  0  0  0
    3.7110    1.0279    0.2037 C   0  0  0  0  0  0  0  0  0  0  0  0
    3.0890    1.8893   -0.1035 H   0  0  0  0  0  0  0  0  0  0  0  0
    4.5662    0.9590   -0.4995 H   0  0  0  0  0  0  0  0  0  0  0  0
    4.1257    1.2312    1.2089 H   0  0  0  0  0  0  0  0  0  0  0  0
    3.7296   -1.4711    0.6463 C   0  0  0  0  0  0  0  0  0  0  0  0
    3.1494   -2.4127    0.6015 H   0  0  0  0  0  0  0  0  0  0  0  0
    4.0869   -1.3293    1.6854 H   0  0  0  0  0  0  0  0  0  0  0  0
    4.6270   -1.5857    0.0051 H   0  0  0  0  0  0  0  0  0  0  0  0
  1  2  1  1  0  0  0
  2 27  1  0  0  0  0
  3 19  1  0  0  0  0
  4  3  1  0  0  0  0
  4  1  1  0  0  0  0
  5  7  1  0  0  0  0
  5  4  2  0  0  0  0
  6  5  1  0  0  0  0
  7  9  2  0  0  0  0
  8  7  1  0  0  0  0
  9 10  1  0  0  0  0
  9  1  1  0  0  0  0
 10 15  1  0  0  0  0
 11 12  1  0  0  0  0
 11 10  1  0  0  0  0
 13 11  1  0  0  0  0
 14 11  1  0  0  0  0
 15 16  1  0  0  0  0
 15 17  1  0  0  0  0
 15 18  1  0  0  0  0
 19 22  1  0  0  0  0
 19 20  1  0  0  0  0
 19 21  1  0  0  0  0
 23 24  1  0  0  0  0
 23  3  1  0  0  0  0
 25 23  1  0  0  0  0
 26 23  1  0  0  0  0
 27 28  1  0  0  0  0
 27 29  1  0  0  0  0
 27 33  1  0  0  0  0
 29 31  1  0  0  0  0
 29 32  1  0  0  0  0
 30 29  1  0  0  0  0
 33 36  1  0  0  0  0
 33 35  1  0  0  0  0
 34 33  1  0  0  0  0
 37 39  1  0  0  0  0
 37 43  1  0  0  0  0
 37  2  1  0  0  0  0
 38 37  1  0  0  0  0
 39 42  1  0  0  0  0
 40 39  1  0  0  0  0
 41 39  1  0  0  0  0
 43 45  1  0  0  0  0
 44 43  1  0  0  0  0
 46 43  1  0  0  0  0
M  END
