1
 OpenBabel05122313063D

 24 25  0  0  1  0  0  0  0  0999 V2000
   -1.5490    0.5158   -0.5657 P   0  0  0  0  0  0  0  0  0  0  0  0
   -1.2959    1.1566   -1.8216 H   0  0  0  0  0  0  0  0  0  0  0  0
   -1.7643    1.9295    0.6352 C   0  0  2  0  0  0  0  0  0  0  0  0
   -0.7694    2.3891    0.8049 H   0  0  0  0  0  0  0  0  0  0  0  0
   -2.2264    1.2820    1.9640 C   0  0  0  0  0  0  0  0  0  0  0  0
   -1.4689    0.5295    2.2761 H   0  0  0  0  0  0  0  0  0  0  0  0
   -2.2372    2.0697    2.7481 H   0  0  0  0  0  0  0  0  0  0  0  0
   -3.6072    0.6157    1.8802 C   0  0  0  0  0  0  0  0  0  0  0  0
   -3.8457    0.1557    2.8611 H   0  0  0  0  0  0  0  0  0  0  0  0
   -4.3835    1.3976    1.7250 H   0  0  0  0  0  0  0  0  0  0  0  0
   -3.7183   -0.4518    0.7838 C   0  0  0  0  0  0  0  0  0  0  0  0
   -4.7614   -0.8329    0.7410 H   0  0  0  0  0  0  0  0  0  0  0  0
   -3.0786   -1.3281    1.0192 H   0  0  0  0  0  0  0  0  0  0  0  0
   -3.3436    0.0438   -0.6328 C   0  0  1  0  0  0  0  0  0  0  0  0
   -3.3995   -0.8245   -1.3171 H   0  0  0  0  0  0  0  0  0  0  0  0
   -4.2209    1.2310   -1.1293 C   0  0  0  0  0  0  0  0  0  0  0  0
   -4.5985    1.0013   -2.1463 H   0  0  0  0  0  0  0  0  0  0  0  0
   -5.1207    1.2832   -0.4788 H   0  0  0  0  0  0  0  0  0  0  0  0
   -3.5419    2.6125   -1.1711 C   0  0  0  0  0  0  0  0  0  0  0  0
   -2.8568    2.6497   -2.0444 H   0  0  0  0  0  0  0  0  0  0  0  0
   -4.3089    3.3887   -1.3732 H   0  0  0  0  0  0  0  0  0  0  0  0
   -2.7540    3.0040    0.0919 C   0  0  0  0  0  0  0  0  0  0  0  0
   -3.4642    3.2628    0.9064 H   0  0  0  0  0  0  0  0  0  0  0  0
   -2.1940    3.9367   -0.1241 H   0  0  0  0  0  0  0  0  0  0  0  0
  1  3  1  0  0  0  0
  2  1  1  0  0  0  0
  3  4  1  1  0  0  0
  3  5  1  0  0  0  0
  5  6  1  0  0  0  0
  5  7  1  0  0  0  0
  8  5  1  0  0  0  0
  8  9  1  0  0  0  0
 10  8  1  0  0  0  0
 11 13  1  0  0  0  0
 11  8  1  0  0  0  0
 12 11  1  0  0  0  0
 14 15  1  6  0  0  0
 14  1  1  0  0  0  0
 14 11  1  0  0  0  0
 16 14  1  0  0  0  0
 16 18  1  0  0  0  0
 17 16  1  0  0  0  0
 19 16  1  0  0  0  0
 19 22  1  0  0  0  0
 20 19  1  0  0  0  0
 21 19  1  0  0  0  0
 22  3  1  0  0  0  0
 22 23  1  0  0  0  0
 24 22  1  0  0  0  0
M  END
