1
 OpenBabel05122313063D

 42 42  0  0  0  0  0  0  0  0999 V2000
    0.0903   -0.3261    0.5517 P   0  0  1  0  0  0  0  0  0  0  0  0
    1.8701    0.9736    0.8597 P   0  0  1  0  0  0  0  0  0  0  0  0
    1.6756   -0.2054   -1.0224 P   0  0  1  0  0  0  0  0  0  0  0  0
    0.2109   -1.5309    2.0595 C   0  0  0  0  0  0  0  0  0  0  0  0
   -0.4868   -2.8465    1.6817 C   0  0  0  0  0  0  0  0  0  0  0  0
   -0.5396   -0.7934    3.1840 C   0  0  0  0  0  0  0  0  0  0  0  0
    1.6391   -1.8268    2.5257 C   0  0  0  0  0  0  0  0  0  0  0  0
    1.6705    2.8226    0.4050 C   0  0  0  0  0  0  0  0  0  0  0  0
    3.1232    3.2520    0.1214 C   0  0  0  0  0  0  0  0  0  0  0  0
    1.1431    3.5072    1.6774 C   0  0  0  0  0  0  0  0  0  0  0  0
    0.7877    3.1374   -0.7994 C   0  0  0  0  0  0  0  0  0  0  0  0
    3.1000   -1.5037   -1.0989 C   0  0  0  0  0  0  0  0  0  0  0  0
    3.6794   -1.2365   -2.5058 C   0  0  0  0  0  0  0  0  0  0  0  0
    2.4901   -2.9123   -1.0587 C   0  0  0  0  0  0  0  0  0  0  0  0
    4.1988   -1.3077   -0.0526 C   0  0  0  0  0  0  0  0  0  0  0  0
   -1.5477   -2.7061    1.4098 H   0  0  0  0  0  0  0  0  0  0  0  0
   -0.4578   -3.5329    2.5544 H   0  0  0  0  0  0  0  0  0  0  0  0
    0.0199   -3.3506    0.8355 H   0  0  0  0  0  0  0  0  0  0  0  0
   -1.5755   -0.5267    2.9049 H   0  0  0  0  0  0  0  0  0  0  0  0
   -0.0071    0.1347    3.4747 H   0  0  0  0  0  0  0  0  0  0  0  0
   -0.5935   -1.4518    4.0771 H   0  0  0  0  0  0  0  0  0  0  0  0
    2.2054   -0.9034    2.7540 H   0  0  0  0  0  0  0  0  0  0  0  0
    2.2063   -2.4122    1.7794 H   0  0  0  0  0  0  0  0  0  0  0  0
    1.5866   -2.4357    3.4530 H   0  0  0  0  0  0  0  0  0  0  0  0
    3.7996    3.0273    0.9720 H   0  0  0  0  0  0  0  0  0  0  0  0
    3.1583    4.3477   -0.0597 H   0  0  0  0  0  0  0  0  0  0  0  0
    3.5234    2.7480   -0.7828 H   0  0  0  0  0  0  0  0  0  0  0  0
    1.7682    3.2694    2.5630 H   0  0  0  0  0  0  0  0  0  0  0  0
    0.0986    3.2100    1.8961 H   0  0  0  0  0  0  0  0  0  0  0  0
    1.1571    4.6101    1.5419 H   0  0  0  0  0  0  0  0  0  0  0  0
    1.1138    2.5900   -1.7052 H   0  0  0  0  0  0  0  0  0  0  0  0
    0.8374    4.2256   -1.0197 H   0  0  0  0  0  0  0  0  0  0  0  0
   -0.2707    2.8876   -0.6085 H   0  0  0  0  0  0  0  0  0  0  0  0
    2.9153   -1.3666   -3.2987 H   0  0  0  0  0  0  0  0  0  0  0  0
    4.5076   -1.9496   -2.7066 H   0  0  0  0  0  0  0  0  0  0  0  0
    4.0898   -0.2093   -2.5931 H   0  0  0  0  0  0  0  0  0  0  0  0
    2.1166   -3.1723   -0.0499 H   0  0  0  0  0  0  0  0  0  0  0  0
    3.2578   -3.6651   -1.3401 H   0  0  0  0  0  0  0  0  0  0  0  0
    1.6414   -3.0128   -1.7663 H   0  0  0  0  0  0  0  0  0  0  0  0
    3.8320   -1.4481    0.9799 H   0  0  0  0  0  0  0  0  0  0  0  0
    4.6370   -0.2913   -0.1142 H   0  0  0  0  0  0  0  0  0  0  0  0
    5.0166   -2.0401   -0.2298 H   0  0  0  0  0  0  0  0  0  0  0  0
  1  2  1  0  0  0  0
  1  4  1  1  0  0  0
  2  8  1  6  0  0  0
  3 12  1  1  0  0  0
  3  1  1  0  0  0  0
  3  2  1  0  0  0  0
  4  7  1  0  0  0  0
  4  6  1  0  0  0  0
  5  4  1  0  0  0  0
  5 17  1  0  0  0  0
  6 20  1  0  0  0  0
  6 21  1  0  0  0  0
  7 22  1  0  0  0  0
  7 24  1  0  0  0  0
  8 10  1  0  0  0  0
  9  8  1  0  0  0  0
  9 25  1  0  0  0  0
 10 29  1  0  0  0  0
 10 28  1  0  0  0  0
 11 33  1  0  0  0  0
 11  8  1  0  0  0  0
 12 14  1  0  0  0  0
 12 15  1  0  0  0  0
 13 12  1  0  0  0  0
 14 37  1  0  0  0  0
 15 40  1  0  0  0  0
 16  5  1  0  0  0  0
 18  5  1  0  0  0  0
 19  6  1  0  0  0  0
 23  7  1  0  0  0  0
 26  9  1  0  0  0  0
 27  9  1  0  0  0  0
 30 10  1  0  0  0  0
 31 11  1  0  0  0  0
 32 11  1  0  0  0  0
 34 13  1  0  0  0  0
 35 13  1  0  0  0  0
 36 13  1  0  0  0  0
 38 14  1  0  0  0  0
 39 14  1  0  0  0  0
 41 15  1  0  0  0  0
 42 15  1  0  0  0  0
M  END
