1
 OpenBabel05122313063D

 14 15  0  0  0  0  0  0  0  0999 V2000
   -0.2330    0.0011   -1.1789 P   0  0  0  0  0  4  0  0  0  0  0  0
   -1.3029    1.2441   -0.6712 O   0  0  0  0  0  0  0  0  0  0  0  0
   -1.3029   -1.2428   -0.6735 O   0  0  0  0  0  0  0  0  0  0  0  0
    0.0434    0.0025   -2.6525 O   0  0  0  0  0  0  0  0  0  0  0  0
   -2.4959    0.7059   -0.2457 C   0  0  0  0  0  0  0  0  0  0  0  0
   -2.4959   -0.7054   -0.2470 C   0  0  0  0  0  0  0  0  0  0  0  0
   -3.6154   -1.4288    0.1627 C   0  0  0  0  0  0  0  0  0  0  0  0
   -4.7479   -0.7027    0.5837 C   0  0  0  0  0  0  0  0  0  0  0  0
   -4.7479    0.7017    0.5851 C   0  0  0  0  0  0  0  0  0  0  0  0
   -3.6153    1.4285    0.1654 C   0  0  0  0  0  0  0  0  0  0  0  0
   -3.5977   -2.5274    0.1510 H   0  0  0  0  0  0  0  0  0  0  0  0
   -5.6432   -1.2494    0.9145 H   0  0  0  0  0  0  0  0  0  0  0  0
   -5.6432    1.2477    0.9168 H   0  0  0  0  0  0  0  0  0  0  0  0
   -3.5976    2.5271    0.1558 H   0  0  0  0  0  0  0  0  0  0  0  0
  1  3  1  0  0  0  0
  1  2  1  0  0  0  0
  2  5  1  0  0  0  0
  3  6  1  0  0  0  0
  4  1  2  0  0  0  0
  5 10  1  0  0  0  0
  6  5  2  0  0  0  0
  6  7  1  0  0  0  0
  7  8  2  0  0  0  0
  8  9  1  0  0  0  0
  8 12  1  0  0  0  0
  9 13  1  0  0  0  0
 10  9  2  0  0  0  0
 11  7  1  0  0  0  0
 14 10  1  0  0  0  0
M  END
