1
 OpenBabel05122313063D

 37 38  0  0  1  0  0  0  0  0999 V2000
   -0.4556    1.4548    0.1617 P   0  0  2  0  0  0  0  0  0  0  0  0
    0.4504    1.9662    1.5323 O   0  0  0  0  0  0  0  0  0  0  0  0
    1.2463    2.0914    0.3291 C   0  0  1  0  0  0  0  0  0  0  0  0
    1.3969    3.1466    0.0188 H   0  0  0  0  0  0  0  0  0  0  0  0
    2.4121    1.1815    0.1329 C   0  0  0  0  0  0  0  0  0  0  0  0
    2.7703    0.8540   -1.2033 C   0  0  0  0  0  0  0  0  0  0  0  0
    3.8344   -0.0331   -1.4280 C   0  0  0  0  0  0  0  0  0  0  0  0
    4.0943   -0.2977   -2.4655 H   0  0  0  0  0  0  0  0  0  0  0  0
    4.5662   -0.5942   -0.3658 C   0  0  0  0  0  0  0  0  0  0  0  0
    4.2270   -0.2087    0.9426 C   0  0  0  0  0  0  0  0  0  0  0  0
    4.8133   -0.6057    1.7872 H   0  0  0  0  0  0  0  0  0  0  0  0
    3.1709    0.6786    1.2217 C   0  0  0  0  0  0  0  0  0  0  0  0
    2.0199    1.4473   -2.3684 C   0  0  0  0  0  0  0  0  0  0  0  0
    0.9351    1.2126   -2.3214 H   0  0  0  0  0  0  0  0  0  0  0  0
    2.4056    1.0624   -3.3310 H   0  0  0  0  0  0  0  0  0  0  0  0
    2.0980    2.5553   -2.3886 H   0  0  0  0  0  0  0  0  0  0  0  0
    5.6699   -1.5874   -0.6258 C   0  0  0  0  0  0  0  0  0  0  0  0
    5.2563   -2.6095   -0.7653 H   0  0  0  0  0  0  0  0  0  0  0  0
    6.3852   -1.6355    0.2185 H   0  0  0  0  0  0  0  0  0  0  0  0
    6.2347   -1.3399   -1.5467 H   0  0  0  0  0  0  0  0  0  0  0  0
    2.9075    1.0837    2.6520 C   0  0  0  0  0  0  0  0  0  0  0  0
    2.7601    2.1770    2.7511 H   0  0  0  0  0  0  0  0  0  0  0  0
    3.7562    0.7874    3.2979 H   0  0  0  0  0  0  0  0  0  0  0  0
    1.9903    0.6092    3.0509 H   0  0  0  0  0  0  0  0  0  0  0  0
   -1.5999    2.9066   -0.2544 C   0  0  0  0  0  0  0  0  0  0  0  0
   -1.7028    2.9552   -1.7896 C   0  0  0  0  0  0  0  0  0  0  0  0
   -0.7274    3.1980   -2.2570 H   0  0  0  0  0  0  0  0  0  0  0  0
   -2.4271    3.7430   -2.0868 H   0  0  0  0  0  0  0  0  0  0  0  0
   -2.0647    1.9993   -2.2171 H   0  0  0  0  0  0  0  0  0  0  0  0
   -1.0541    4.2279    0.3031 C   0  0  0  0  0  0  0  0  0  0  0  0
   -0.8320    4.1531    1.3848 H   0  0  0  0  0  0  0  0  0  0  0  0
   -1.8124    5.0247    0.1546 H   0  0  0  0  0  0  0  0  0  0  0  0
   -0.1336    4.5523   -0.2204 H   0  0  0  0  0  0  0  0  0  0  0  0
   -2.9720    2.5997    0.3725 C   0  0  0  0  0  0  0  0  0  0  0  0
   -3.4028    1.6553   -0.0123 H   0  0  0  0  0  0  0  0  0  0  0  0
   -3.6805    3.4175    0.1233 H   0  0  0  0  0  0  0  0  0  0  0  0
   -2.9133    2.5263    1.4769 H   0  0  0  0  0  0  0  0  0  0  0  0
  1 25  1  6  0  0  0
  1  3  1  0  0  0  0
  1  2  1  0  0  0  0
  3  4  1  6  0  0  0
  3  2  1  0  0  0  0
  5  3  1  0  0  0  0
  5 12  1  0  0  0  0
  6  5  2  0  0  0  0
  7  6  1  0  0  0  0
  7  9  2  0  0  0  0
  8  7  1  0  0  0  0
  9 10  1  0  0  0  0
 10 12  2  0  0  0  0
 10 11  1  0  0  0  0
 12 21  1  0  0  0  0
 13 14  1  0  0  0  0
 13  6  1  0  0  0  0
 15 13  1  0  0  0  0
 16 13  1  0  0  0  0
 17  9  1  0  0  0  0
 17 19  1  0  0  0  0
 18 17  1  0  0  0  0
 20 17  1  0  0  0  0
 21 22  1  0  0  0  0
 21 24  1  0  0  0  0
 21 23  1  0  0  0  0
 25 30  1  0  0  0  0
 25 34  1  0  0  0  0
 26 25  1  0  0  0  0
 27 26  1  0  0  0  0
 28 26  1  0  0  0  0
 29 26  1  0  0  0  0
 30 31  1  0  0  0  0
 32 30  1  0  0  0  0
 33 30  1  0  0  0  0
 34 37  1  0  0  0  0
 35 34  1  0  0  0  0
 36 34  1  0  0  0  0
M  END
