1
 OpenBabel05122313063D

 40 39  0  0  0  0  0  0  0  0999 V2000
   -0.2183    0.8048   -0.5632 P   0  0  0  0  0  0  0  0  0  0  0  0
   -1.3101    0.4988   -2.0313 C   0  0  0  0  0  0  0  0  0  0  0  0
   -2.7972    0.2878   -1.7205 C   0  0  0  0  0  0  0  0  0  0  0  0
   -3.5607   -0.3423   -2.8896 C   0  0  0  0  0  0  0  0  0  0  0  0
   -5.0442   -0.5475   -2.5851 C   0  0  0  0  0  0  0  0  0  0  0  0
   -1.1767    1.8984    0.5748 C   0  0  0  0  0  0  0  0  0  0  0  0
   -1.6201    3.2509    0.0103 C   0  0  0  0  0  0  0  0  0  0  0  0
   -2.4757    4.0471    1.0032 C   0  0  0  0  0  0  0  0  0  0  0  0
   -2.9164    5.4073    0.4628 C   0  0  0  0  0  0  0  0  0  0  0  0
    1.1224    1.8824   -1.2493 C   0  0  0  0  0  0  0  0  0  0  0  0
    1.9542    2.6541   -0.2195 C   0  0  0  0  0  0  0  0  0  0  0  0
    3.1800    3.3300   -0.8443 C   0  0  0  0  0  0  0  0  0  0  0  0
    4.0272    4.0836    0.1807 C   0  0  0  0  0  0  0  0  0  0  0  0
   -0.8858   -0.4079   -2.5142 H   0  0  0  0  0  0  0  0  0  0  0  0
   -1.1736    1.3412   -2.7425 H   0  0  0  0  0  0  0  0  0  0  0  0
   -2.9121   -0.3692   -0.8360 H   0  0  0  0  0  0  0  0  0  0  0  0
   -3.2693    1.2569   -1.4477 H   0  0  0  0  0  0  0  0  0  0  0  0
   -3.4409    0.2900   -3.7974 H   0  0  0  0  0  0  0  0  0  0  0  0
   -3.0877   -1.3194   -3.1270 H   0  0  0  0  0  0  0  0  0  0  0  0
   -5.5771   -1.0151   -3.4370 H   0  0  0  0  0  0  0  0  0  0  0  0
   -5.5510    0.4147   -2.3604 H   0  0  0  0  0  0  0  0  0  0  0  0
   -5.1813   -1.2076   -1.7028 H   0  0  0  0  0  0  0  0  0  0  0  0
   -0.5478    2.0170    1.4828 H   0  0  0  0  0  0  0  0  0  0  0  0
   -2.0549    1.2995    0.8963 H   0  0  0  0  0  0  0  0  0  0  0  0
   -0.7311    3.8562   -0.2691 H   0  0  0  0  0  0  0  0  0  0  0  0
   -2.1940    3.1042   -0.9307 H   0  0  0  0  0  0  0  0  0  0  0  0
   -3.3681    3.4419    1.2780 H   0  0  0  0  0  0  0  0  0  0  0  0
   -1.9021    4.1812    1.9468 H   0  0  0  0  0  0  0  0  0  0  0  0
   -3.5332    5.9597    1.1995 H   0  0  0  0  0  0  0  0  0  0  0  0
   -3.5189    5.2979   -0.4631 H   0  0  0  0  0  0  0  0  0  0  0  0
   -2.0423    6.0446    0.2140 H   0  0  0  0  0  0  0  0  0  0  0  0
    0.6409    2.5772   -1.9718 H   0  0  0  0  0  0  0  0  0  0  0  0
    1.7693    1.2044   -1.8461 H   0  0  0  0  0  0  0  0  0  0  0  0
    1.3224    3.4302    0.2655 H   0  0  0  0  0  0  0  0  0  0  0  0
    2.2849    1.9796    0.5969 H   0  0  0  0  0  0  0  0  0  0  0  0
    3.8013    2.5538   -1.3442 H   0  0  0  0  0  0  0  0  0  0  0  0
    2.8546    4.0210   -1.6542 H   0  0  0  0  0  0  0  0  0  0  0  0
    4.9129    4.5584   -0.2872 H   0  0  0  0  0  0  0  0  0  0  0  0
    4.3893    3.3995    0.9758 H   0  0  0  0  0  0  0  0  0  0  0  0
    3.4411    4.8849    0.6774 H   0  0  0  0  0  0  0  0  0  0  0  0
  1  6  1  0  0  0  0
  2  3  1  0  0  0  0
  2  1  1  0  0  0  0
  3 17  1  0  0  0  0
  3 16  1  0  0  0  0
  4  5  1  0  0  0  0
  4  3  1  0  0  0  0
  5 21  1  0  0  0  0
  5 22  1  0  0  0  0
  6 24  1  0  0  0  0
  6 23  1  0  0  0  0
  7  6  1  0  0  0  0
  7  8  1  0  0  0  0
  8 27  1  0  0  0  0
  8 28  1  0  0  0  0
  9  8  1  0  0  0  0
  9 29  1  0  0  0  0
 10  1  1  0  0  0  0
 10 11  1  0  0  0  0
 11 34  1  0  0  0  0
 11 35  1  0  0  0  0
 12 11  1  0  0  0  0
 12 13  1  0  0  0  0
 13 40  1  0  0  0  0
 13 39  1  0  0  0  0
 14  2  1  0  0  0  0
 15  2  1  0  0  0  0
 18  4  1  0  0  0  0
 19  4  1  0  0  0  0
 20  5  1  0  0  0  0
 25  7  1  0  0  0  0
 26  7  1  0  0  0  0
 30  9  1  0  0  0  0
 31  9  1  0  0  0  0
 32 10  1  0  0  0  0
 33 10  1  0  0  0  0
 36 12  1  0  0  0  0
 37 12  1  0  0  0  0
 38 13  1  0  0  0  0
M  END
