1
 OpenBabel05122313063D

 55 54  0  0  0  0  0  0  0  0999 V2000
   -0.0388   -0.1111    0.0259 P   0  0  0  0  0  2  0  0  0  0  0  0
   -1.5628    0.5813   -0.1122 C   0  0  0  0  0  3  0  0  0  0  0  0
    1.2521    1.0023    0.1026 N   0  0  0  0  0  0  0  0  0  0  0  0
   -1.9198    2.1639   -1.0861 Si  0  0  0  0  0  0  0  0  0  0  0  0
   -3.0358   -0.4135    0.5850 Si  0  0  0  0  0  0  0  0  0  0  0  0
    1.3309    2.1196    1.5356 Si  0  0  0  0  0  0  0  0  0  0  0  0
    2.6725    0.7807   -1.0117 Si  0  0  0  0  0  0  0  0  0  0  0  0
   -0.4411    2.8230   -2.0677 C   0  0  0  0  0  0  0  0  0  0  0  0
   -3.2028    1.6805   -2.4023 C   0  0  0  0  0  0  0  0  0  0  0  0
   -2.6036    3.5673   -0.0062 C   0  0  0  0  0  0  0  0  0  0  0  0
   -2.6054   -1.1261    2.2885 C   0  0  0  0  0  0  0  0  0  0  0  0
   -4.4994    0.7528    0.9194 C   0  0  0  0  0  0  0  0  0  0  0  0
   -3.6526   -1.7703   -0.5841 C   0  0  0  0  0  0  0  0  0  0  0  0
    3.0018    1.8734    2.3822 C   0  0  0  0  0  0  0  0  0  0  0  0
    1.1515    3.9388    1.0619 C   0  0  0  0  0  0  0  0  0  0  0  0
   -0.0148    1.6690    2.7771 C   0  0  0  0  0  0  0  0  0  0  0  0
    2.1053    0.0064   -2.6420 C   0  0  0  0  0  0  0  0  0  0  0  0
    4.0556   -0.2607   -0.2620 C   0  0  0  0  0  0  0  0  0  0  0  0
    3.3782    2.4981   -1.3734 C   0  0  0  0  0  0  0  0  0  0  0  0
    0.3972    3.1532   -1.4306 H   0  0  0  0  0  0  0  0  0  0  0  0
   -0.0574    2.0581   -2.7713 H   0  0  0  0  0  0  0  0  0  0  0  0
   -0.7850    3.6901   -2.6696 H   0  0  0  0  0  0  0  0  0  0  0  0
   -2.7912    0.8776   -3.0479 H   0  0  0  0  0  0  0  0  0  0  0  0
   -4.1559    1.3159   -1.9736 H   0  0  0  0  0  0  0  0  0  0  0  0
   -3.4305    2.5560   -3.0456 H   0  0  0  0  0  0  0  0  0  0  0  0
   -3.6327    3.3541    0.3403 H   0  0  0  0  0  0  0  0  0  0  0  0
   -1.9765    3.7404    0.8912 H   0  0  0  0  0  0  0  0  0  0  0  0
   -2.6295    4.5115   -0.5892 H   0  0  0  0  0  0  0  0  0  0  0  0
   -1.6295   -1.6447    2.2999 H   0  0  0  0  0  0  0  0  0  0  0  0
   -2.5696   -0.3104    3.0388 H   0  0  0  0  0  0  0  0  0  0  0  0
   -3.3832   -1.8510    2.6058 H   0  0  0  0  0  0  0  0  0  0  0  0
   -4.2224    1.5538    1.6336 H   0  0  0  0  0  0  0  0  0  0  0  0
   -4.9228    1.2254    0.0123 H   0  0  0  0  0  0  0  0  0  0  0  0
   -5.3055    0.1513    1.3897 H   0  0  0  0  0  0  0  0  0  0  0  0
   -3.7362   -1.4003   -1.6253 H   0  0  0  0  0  0  0  0  0  0  0  0
   -2.9855   -2.6531   -0.5885 H   0  0  0  0  0  0  0  0  0  0  0  0
   -4.6571   -2.1097   -0.2559 H   0  0  0  0  0  0  0  0  0  0  0  0
    3.1452    0.8122    2.6671 H   0  0  0  0  0  0  0  0  0  0  0  0
    3.8593    2.1904    1.7568 H   0  0  0  0  0  0  0  0  0  0  0  0
    3.0227    2.4840    3.3088 H   0  0  0  0  0  0  0  0  0  0  0  0
    1.9180    4.2657    0.3335 H   0  0  0  0  0  0  0  0  0  0  0  0
    0.1544    4.1662    0.6394 H   0  0  0  0  0  0  0  0  0  0  0  0
    1.2758    4.5510    1.9800 H   0  0  0  0  0  0  0  0  0  0  0  0
   -1.0328    1.8626    2.3892 H   0  0  0  0  0  0  0  0  0  0  0  0
    0.0398    0.6029    3.0762 H   0  0  0  0  0  0  0  0  0  0  0  0
    0.1398    2.2849    3.6879 H   0  0  0  0  0  0  0  0  0  0  0  0
    1.0374    0.1992   -2.8643 H   0  0  0  0  0  0  0  0  0  0  0  0
    2.7026    0.4413   -3.4703 H   0  0  0  0  0  0  0  0  0  0  0  0
    2.2610   -1.0887   -2.6512 H   0  0  0  0  0  0  0  0  0  0  0  0
    4.4820    0.2019    0.6481 H   0  0  0  0  0  0  0  0  0  0  0  0
    3.7243   -1.2841   -0.0079 H   0  0  0  0  0  0  0  0  0  0  0  0
    4.8701   -0.3509   -1.0115 H   0  0  0  0  0  0  0  0  0  0  0  0
    2.6332    3.1558   -1.8629 H   0  0  0  0  0  0  0  0  0  0  0  0
    3.7577    3.0101   -0.4673 H   0  0  0  0  0  0  0  0  0  0  0  0
    4.2357    2.3795   -2.0681 H   0  0  0  0  0  0  0  0  0  0  0  0
  1  3  1  0  0  0  0
  2  1  1  0  0  0  0
  2  5  1  0  0  0  0
  3  6  1  0  0  0  0
  4  2  1  0  0  0  0
  4 10  1  0  0  0  0
  5 12  1  0  0  0  0
  5 11  1  0  0  0  0
  6 14  1  0  0  0  0
  6 16  1  0  0  0  0
  7 18  1  0  0  0  0
  7  3  1  0  0  0  0
  8 20  1  0  0  0  0
  8  4  1  0  0  0  0
  9 24  1  0  0  0  0
  9  4  1  0  0  0  0
 10 26  1  0  0  0  0
 10 27  1  0  0  0  0
 11 29  1  0  0  0  0
 11 31  1  0  0  0  0
 11 30  1  0  0  0  0
 12 34  1  0  0  0  0
 12 32  1  0  0  0  0
 13 37  1  0  0  0  0
 13  5  1  0  0  0  0
 14 38  1  0  0  0  0
 14 40  1  0  0  0  0
 15  6  1  0  0  0  0
 15 43  1  0  0  0  0
 16 45  1  0  0  0  0
 16 46  1  0  0  0  0
 17  7  1  0  0  0  0
 18 51  1  0  0  0  0
 18 50  1  0  0  0  0
 19  7  1  0  0  0  0
 19 54  1  0  0  0  0
 21  8  1  0  0  0  0
 22  8  1  0  0  0  0
 23  9  1  0  0  0  0
 25  9  1  0  0  0  0
 28 10  1  0  0  0  0
 33 12  1  0  0  0  0
 35 13  1  0  0  0  0
 36 13  1  0  0  0  0
 39 14  1  0  0  0  0
 41 15  1  0  0  0  0
 42 15  1  0  0  0  0
 44 16  1  0  0  0  0
 47 17  1  0  0  0  0
 48 17  1  0  0  0  0
 49 17  1  0  0  0  0
 52 18  1  0  0  0  0
 53 19  1  0  0  0  0
 55 19  1  0  0  0  0
M  END
