1
 OpenBabel05122313063D

 42 45  0  0  1  0  0  0  0  0999 V2000
   -0.6246    0.0902    0.1328 P   0  0  1  0  0  0  0  0  0  0  0  0
    0.5656   -1.0409   -0.6669 C   0  0  1  0  0  0  0  0  0  0  0  0
    1.9671   -1.0980   -0.0191 C   0  0  1  0  0  0  0  0  0  0  0  0
    2.4057   -0.0276    0.9286 C   0  0  0  0  0  0  0  0  0  0  0  0
    1.4755    0.1270    1.9089 C   0  0  0  0  0  0  0  0  0  0  0  0
    0.2922   -0.7479    1.6685 C   0  0  2  0  0  0  0  0  0  0  0  0
    0.7773   -1.8221    0.6246 C   0  0  1  0  0  0  0  0  0  0  0  0
    2.9537   -1.9514   -0.7581 C   0  0  0  0  0  0  0  0  0  0  0  0
    2.7150   -2.5877   -1.7702 O   0  0  0  0  0  0  0  0  0  0  0  0
    4.1410   -1.9779   -0.1125 O   0  0  0  0  0  0  0  0  0  0  0  0
    5.1683   -2.7472   -0.7474 C   0  0  0  0  0  0  0  0  0  0  0  0
    3.5502    0.8898    0.7412 C   0  0  0  0  0  0  0  0  0  0  0  0
    3.9734    0.8820   -0.5564 O   0  0  0  0  0  0  0  0  0  0  0  0
    4.0373    1.6013    1.6018 O   0  0  0  0  0  0  0  0  0  0  0  0
    5.0412    1.7864   -0.8476 C   0  0  0  0  0  0  0  0  0  0  0  0
   -0.5421   -1.1671    2.8587 C   0  0  0  0  0  0  0  0  0  0  0  0
    0.6912   -3.3045    0.8397 C   0  0  0  0  0  0  0  0  0  0  0  0
   -0.0394    1.8139   -0.0635 C   0  0  0  0  0  0  0  0  0  0  0  0
   -0.5945    2.8364    0.7339 C   0  0  0  0  0  0  0  0  0  0  0  0
   -0.1419    4.1554    0.5975 C   0  0  0  0  0  0  0  0  0  0  0  0
    0.8502    4.4660   -0.3479 C   0  0  0  0  0  0  0  0  0  0  0  0
    1.3930    3.4530   -1.1532 C   0  0  0  0  0  0  0  0  0  0  0  0
    0.9567    2.1271   -1.0090 C   0  0  0  0  0  0  0  0  0  0  0  0
    0.4657   -1.4955   -1.6635 H   0  0  0  0  0  0  0  0  0  0  0  0
    1.5034    0.9263    2.6636 H   0  0  0  0  0  0  0  0  0  0  0  0
    6.0473   -2.6922   -0.0813 H   0  0  0  0  0  0  0  0  0  0  0  0
    4.8475   -3.7992   -0.8845 H   0  0  0  0  0  0  0  0  0  0  0  0
    5.4115   -2.3258   -1.7438 H   0  0  0  0  0  0  0  0  0  0  0  0
    5.2816    1.6452   -1.9165 H   0  0  0  0  0  0  0  0  0  0  0  0
    4.7313    2.8342   -0.6554 H   0  0  0  0  0  0  0  0  0  0  0  0
    5.9272    1.5693   -0.2174 H   0  0  0  0  0  0  0  0  0  0  0  0
   -0.9032   -0.2823    3.4185 H   0  0  0  0  0  0  0  0  0  0  0  0
   -1.4238   -1.7641    2.5634 H   0  0  0  0  0  0  0  0  0  0  0  0
    0.0687   -1.7811    3.5527 H   0  0  0  0  0  0  0  0  0  0  0  0
    1.0781   -3.8394   -0.0493 H   0  0  0  0  0  0  0  0  0  0  0  0
    1.2901   -3.6097    1.7220 H   0  0  0  0  0  0  0  0  0  0  0  0
   -0.3554   -3.6269    1.0007 H   0  0  0  0  0  0  0  0  0  0  0  0
   -1.3836    2.6015    1.4656 H   0  0  0  0  0  0  0  0  0  0  0  0
   -0.5712    4.9482    1.2283 H   0  0  0  0  0  0  0  0  0  0  0  0
    1.1995    5.5037   -0.4571 H   0  0  0  0  0  0  0  0  0  0  0  0
    2.1691    3.6928   -1.8960 H   0  0  0  0  0  0  0  0  0  0  0  0
    1.4067    1.3305   -1.6196 H   0  0  0  0  0  0  0  0  0  0  0  0
  1 18  1  6  0  0  0
  1  6  1  0  0  0  0
  2 24  1  6  0  0  0
  2  3  1  0  0  0  0
  2  1  1  0  0  0  0
  2  7  1  0  0  0  0
  3  8  1  6  0  0  0
  3  7  1  0  0  0  0
  3  4  1  0  0  0  0
  4  5  2  0  0  0  0
  5 25  1  0  0  0  0
  6  5  1  0  0  0  0
  6 16  1  1  0  0  0
  7 17  1  1  0  0  0
  7  6  1  0  0  0  0
  8 10  1  0  0  0  0
  9  8  2  0  0  0  0
 11 10  1  0  0  0  0
 11 26  1  0  0  0  0
 12  4  1  0  0  0  0
 12 14  2  0  0  0  0
 13 12  1  0  0  0  0
 15 30  1  0  0  0  0
 15 13  1  0  0  0  0
 15 31  1  0  0  0  0
 16 32  1  0  0  0  0
 16 34  1  0  0  0  0
 17 37  1  0  0  0  0
 17 36  1  0  0  0  0
 18 19  1  0  0  0  0
 19 38  1  0  0  0  0
 20 19  2  0  0  0  0
 20 39  1  0  0  0  0
 21 20  1  0  0  0  0
 22 23  1  0  0  0  0
 22 21  2  0  0  0  0
 23 18  2  0  0  0  0
 27 11  1  0  0  0  0
 28 11  1  0  0  0  0
 29 15  1  0  0  0  0
 33 16  1  0  0  0  0
 35 17  1  0  0  0  0
 40 21  1  0  0  0  0
 41 22  1  0  0  0  0
 42 23  1  0  0  0  0
M  END
