1
 OpenBabel05122313063D

 55 55  0  0  0  0  0  0  0  0999 V2000
    0.6030    1.2539    0.3017 P   0  0  0  0  0  0  0  0  0  0  0  0
   -1.0073    0.8924    0.1973 N   0  0  0  0  0  0  0  0  0  0  0  0
   -3.2125    0.1612   -0.1905 N   0  0  0  0  0  0  0  0  0  0  0  0
   -1.7830   -1.4562    0.3008 N   0  0  0  0  0  0  0  0  0  0  0  0
   -1.8730   -0.0833    0.1087 C   0  0  0  0  0  0  0  0  0  0  0  0
   -3.9388   -1.0374   -0.1696 C   0  0  0  0  0  0  0  0  0  0  0  0
   -3.0507   -2.0458    0.1260 C   0  0  0  0  0  0  0  0  0  0  0  0
   -5.4010   -1.1384   -0.4500 C   0  0  0  0  0  0  0  0  0  0  0  0
   -6.0041   -0.4677    0.1951 H   0  0  0  0  0  0  0  0  0  0  0  0
   -5.7490   -2.1710   -0.2642 H   0  0  0  0  0  0  0  0  0  0  0  0
   -5.6486   -0.8905   -1.5034 H   0  0  0  0  0  0  0  0  0  0  0  0
   -3.3259   -3.5048    0.2745 C   0  0  0  0  0  0  0  0  0  0  0  0
   -2.6541   -4.1281   -0.3488 H   0  0  0  0  0  0  0  0  0  0  0  0
   -4.3626   -3.7236   -0.0411 H   0  0  0  0  0  0  0  0  0  0  0  0
   -3.2178   -3.8529    1.3230 H   0  0  0  0  0  0  0  0  0  0  0  0
   -3.6911    1.5320   -0.4037 C   0  0  0  0  0  0  0  0  0  0  0  0
   -2.7424    2.1080   -0.3917 H   0  0  0  0  0  0  0  0  0  0  0  0
   -4.3455    1.7285   -1.7741 C   0  0  0  0  0  0  0  0  0  0  0  0
   -5.3406    1.2473   -1.8470 H   0  0  0  0  0  0  0  0  0  0  0  0
   -3.7014    1.3240   -2.5797 H   0  0  0  0  0  0  0  0  0  0  0  0
   -4.4895    2.8110   -1.9635 H   0  0  0  0  0  0  0  0  0  0  0  0
   -4.5466    2.0328    0.7652 C   0  0  0  0  0  0  0  0  0  0  0  0
   -5.5200    1.5066    0.8340 H   0  0  0  0  0  0  0  0  0  0  0  0
   -4.7614    3.1131    0.6399 H   0  0  0  0  0  0  0  0  0  0  0  0
   -4.0101    1.8992    1.7251 H   0  0  0  0  0  0  0  0  0  0  0  0
   -0.5042   -2.1543    0.5113 C   0  0  0  0  0  0  0  0  0  0  0  0
    0.2265   -1.3327    0.6598 H   0  0  0  0  0  0  0  0  0  0  0  0
   -0.4752   -3.0017    1.7857 C   0  0  0  0  0  0  0  0  0  0  0  0
   -1.0501   -3.9430    1.6915 H   0  0  0  0  0  0  0  0  0  0  0  0
   -0.8664   -2.4345    2.6532 H   0  0  0  0  0  0  0  0  0  0  0  0
    0.5754   -3.2779    2.0034 H   0  0  0  0  0  0  0  0  0  0  0  0
   -0.0455   -2.9101   -0.7400 C   0  0  0  0  0  0  0  0  0  0  0  0
   -0.6533   -3.8171   -0.9320 H   0  0  0  0  0  0  0  0  0  0  0  0
    1.0145   -3.2134   -0.6268 H   0  0  0  0  0  0  0  0  0  0  0  0
   -0.0999   -2.2526   -1.6296 H   0  0  0  0  0  0  0  0  0  0  0  0
    0.7398    2.8434   -0.6717 C   0  0  0  0  0  0  0  0  0  0  0  0
    1.8150    3.1140   -0.5814 H   0  0  0  0  0  0  0  0  0  0  0  0
   -0.1325    3.9719   -0.1171 C   0  0  0  0  0  0  0  0  0  0  0  0
   -1.1985    3.6673   -0.0925 H   0  0  0  0  0  0  0  0  0  0  0  0
   -0.0527    4.8722   -0.7612 H   0  0  0  0  0  0  0  0  0  0  0  0
    0.1601    4.2701    0.9092 H   0  0  0  0  0  0  0  0  0  0  0  0
    0.4324    2.5377   -2.1422 C   0  0  0  0  0  0  0  0  0  0  0  0
    1.0890    1.7336   -2.5329 H   0  0  0  0  0  0  0  0  0  0  0  0
    0.5802    3.4421   -2.7674 H   0  0  0  0  0  0  0  0  0  0  0  0
   -0.6199    2.2051   -2.2594 H   0  0  0  0  0  0  0  0  0  0  0  0
    0.8695    1.7314    2.0905 C   0  0  0  0  0  0  0  0  0  0  0  0
    0.0758    2.4795    2.3063 H   0  0  0  0  0  0  0  0  0  0  0  0
    0.6478    0.5043    2.9807 C   0  0  0  0  0  0  0  0  0  0  0  0
   -0.3678    0.0820    2.8452 H   0  0  0  0  0  0  0  0  0  0  0  0
    0.7631    0.7759    4.0505 H   0  0  0  0  0  0  0  0  0  0  0  0
    1.3889   -0.2901    2.7500 H   0  0  0  0  0  0  0  0  0  0  0  0
    2.2546    2.3530    2.2922 C   0  0  0  0  0  0  0  0  0  0  0  0
    3.0524    1.6507    1.9705 H   0  0  0  0  0  0  0  0  0  0  0  0
    2.4199    2.5859    3.3646 H   0  0  0  0  0  0  0  0  0  0  0  0
    2.3833    3.2951    1.7229 H   0  0  0  0  0  0  0  0  0  0  0  0
  1 46  1  0  0  0  0
  2  1  1  0  0  0  0
  3  6  1  0  0  0  0
  3  5  1  0  0  0  0
  4 26  1  0  0  0  0
  5  2  2  0  0  0  0
  5  4  1  0  0  0  0
  6  7  2  0  0  0  0
  7 12  1  0  0  0  0
  7  4  1  0  0  0  0
  8 10  1  0  0  0  0
  8  6  1  0  0  0  0
  8  9  1  0  0  0  0
 11  8  1  0  0  0  0
 12 15  1  0  0  0  0
 13 12  1  0  0  0  0
 14 12  1  0  0  0  0
 16 17  1  0  0  0  0
 16  3  1  0  0  0  0
 16 22  1  0  0  0  0
 18 16  1  0  0  0  0
 19 18  1  0  0  0  0
 20 18  1  0  0  0  0
 21 18  1  0  0  0  0
 22 23  1  0  0  0  0
 22 25  1  0  0  0  0
 24 22  1  0  0  0  0
 26 27  1  0  0  0  0
 26 28  1  0  0  0  0
 28 31  1  0  0  0  0
 28 30  1  0  0  0  0
 29 28  1  0  0  0  0
 32 34  1  0  0  0  0
 32 26  1  0  0  0  0
 33 32  1  0  0  0  0
 35 32  1  0  0  0  0
 36 37  1  0  0  0  0
 36 38  1  0  0  0  0
 36  1  1  0  0  0  0
 38 39  1  0  0  0  0
 38 41  1  0  0  0  0
 40 38  1  0  0  0  0
 42 36  1  0  0  0  0
 43 42  1  0  0  0  0
 44 42  1  0  0  0  0
 45 42  1  0  0  0  0
 46 52  1  0  0  0  0
 46 47  1  0  0  0  0
 46 48  1  0  0  0  0
 48 50  1  0  0  0  0
 49 48  1  0  0  0  0
 51 48  1  0  0  0  0
 52 54  1  0  0  0  0
 53 52  1  0  0  0  0
 55 52  1  0  0  0  0
M  END
