1
 OpenBabel05122313063D

 25 27  0  0  0  0  0  0  0  0999 V2000
   -0.2379    0.8203    0.3280 P   0  0  0  0  0  0  0  0  0  0  0  0
    0.8984    0.1481    1.5820 C   0  0  0  0  0  0  0  0  0  0  0  0
    0.3606   -1.1081    2.6791 S   0  0  0  0  0  0  0  0  0  0  0  0
    1.9826   -1.4181    3.2140 C   0  0  0  0  0  0  0  0  0  0  0  0
    2.1650   -2.1559    4.0056 H   0  0  0  0  0  0  0  0  0  0  0  0
    2.8948   -0.5927    2.5804 C   0  0  0  0  0  0  0  0  0  0  0  0
    3.9745   -0.6141    2.7831 H   0  0  0  0  0  0  0  0  0  0  0  0
    2.2807    0.2958    1.6484 C   0  0  0  0  0  0  0  0  0  0  0  0
    2.8252    1.0215    1.0299 H   0  0  0  0  0  0  0  0  0  0  0  0
    0.6537    2.2580   -0.3059 C   0  0  0  0  0  0  0  0  0  0  0  0
    1.2195    3.5889    0.6770 S   0  0  0  0  0  0  0  0  0  0  0  0
    1.8206    4.4211   -0.7150 C   0  0  0  0  0  0  0  0  0  0  0  0
    2.3102    5.3965   -0.5980 H   0  0  0  0  0  0  0  0  0  0  0  0
    1.5884    3.7152   -1.8827 C   0  0  0  0  0  0  0  0  0  0  0  0
    1.8844    4.0784   -2.8763 H   0  0  0  0  0  0  0  0  0  0  0  0
    0.9172    2.4787   -1.6526 C   0  0  0  0  0  0  0  0  0  0  0  0
    0.6112    1.7614   -2.4270 H   0  0  0  0  0  0  0  0  0  0  0  0
   -1.6183    1.4704    1.3019 C   0  0  0  0  0  0  0  0  0  0  0  0
   -1.4674    1.9802    2.9672 S   0  0  0  0  0  0  0  0  0  0  0  0
   -3.1092    2.5206    3.0033 C   0  0  0  0  0  0  0  0  0  0  0  0
   -3.5267    2.9384    3.9284 H   0  0  0  0  0  0  0  0  0  0  0  0
   -3.7424    2.3288    1.7875 C   0  0  0  0  0  0  0  0  0  0  0  0
   -4.7884    2.6054    1.5974 H   0  0  0  0  0  0  0  0  0  0  0  0
   -2.8948    1.7274    0.8116 C   0  0  0  0  0  0  0  0  0  0  0  0
   -3.2070    1.5214   -0.2250 H   0  0  0  0  0  0  0  0  0  0  0  0
  1 18  1  0  0  0  0
  1  2  1  0  0  0  0
  2  8  2  0  0  0  0
  2  3  1  0  0  0  0
  3  4  1  0  0  0  0
  4  5  1  0  0  0  0
  6  7  1  0  0  0  0
  6  4  2  0  0  0  0
  8  6  1  0  0  0  0
  9  8  1  0  0  0  0
 10  1  1  0  0  0  0
 10 11  1  0  0  0  0
 12 13  1  0  0  0  0
 12 11  1  0  0  0  0
 14 16  1  0  0  0  0
 14 12  2  0  0  0  0
 15 14  1  0  0  0  0
 16 10  2  0  0  0  0
 17 16  1  0  0  0  0
 18 19  1  0  0  0  0
 19 20  1  0  0  0  0
 20 21  1  0  0  0  0
 22 20  2  0  0  0  0
 23 22  1  0  0  0  0
 24 18  2  0  0  0  0
 24 22  1  0  0  0  0
 25 24  1  0  0  0  0
M  END
