1
 OpenBabel05122313063D

 21 22  0  0  1  0  0  0  0  0999 V2000
    1.8608   -0.6972   -0.0778 P   0  0  1  0  0  0  0  0  0  0  0  0
    2.8285   -1.9006   -0.7157 O   0  0  0  0  0  0  0  0  0  0  0  0
    2.4993   -0.6558    1.4763 O   0  0  0  0  0  0  0  0  0  0  0  0
    2.6488    0.6400   -0.7099 O   0  0  0  0  0  0  0  0  0  0  0  0
    4.2063   -1.8923   -0.3113 C   0  0  0  0  0  0  0  0  0  0  0  0
    4.8046   -2.1673   -1.2049 H   0  0  0  0  0  0  0  0  0  0  0  0
    4.3719   -2.6695    0.4702 H   0  0  0  0  0  0  0  0  0  0  0  0
    3.8861   -0.2982    1.5665 C   0  0  0  0  0  0  0  0  0  0  0  0
    4.3419   -0.9392    2.3516 H   0  0  0  0  0  0  0  0  0  0  0  0
    3.9748    0.7638    1.8951 H   0  0  0  0  0  0  0  0  0  0  0  0
    4.0824    0.5533   -0.7686 C   0  0  0  0  0  0  0  0  0  0  0  0
    4.4805    1.5594   -0.5126 H   0  0  0  0  0  0  0  0  0  0  0  0
    4.3867    0.3135   -1.8111 H   0  0  0  0  0  0  0  0  0  0  0  0
    4.6153   -0.5046    0.2214 C   0  0  2  0  0  0  0  0  0  0  0  0
    6.1348   -0.3887    0.4376 C   0  0  0  0  0  0  0  0  0  0  0  0
    6.3252    0.5338    1.0298 H   0  0  0  0  0  0  0  0  0  0  0  0
    6.4524   -1.2326    1.0888 H   0  0  0  0  0  0  0  0  0  0  0  0
    6.9962   -0.3611   -0.8277 C   0  0  0  0  0  0  0  0  0  0  0  0
    6.7867    0.5281   -1.4555 H   0  0  0  0  0  0  0  0  0  0  0  0
    6.8415   -1.2588   -1.4595 H   0  0  0  0  0  0  0  0  0  0  0  0
    8.0718   -0.3283   -0.5639 H   0  0  0  0  0  0  0  0  0  0  0  0
  1  2  1  6  0  0  0
  1  3  1  0  0  0  0
  2  5  1  0  0  0  0
  3  8  1  0  0  0  0
  4  1  1  0  0  0  0
  5 14  1  0  0  0  0
  5  7  1  0  0  0  0
  6  5  1  0  0  0  0
  8 10  1  0  0  0  0
  8  9  1  0  0  0  0
 11  4  1  0  0  0  0
 11 12  1  0  0  0  0
 11 14  1  0  0  0  0
 13 11  1  0  0  0  0
 14 15  1  1  0  0  0
 14  8  1  0  0  0  0
 15 16  1  0  0  0  0
 15 17  1  0  0  0  0
 18 21  1  0  0  0  0
 18 15  1  0  0  0  0
 19 18  1  0  0  0  0
 20 18  1  0  0  0  0
M  END
