1
 OpenBabel05122313063D

 60 63  0  0  0  0  0  0  0  0999 V2000
    0.8241    0.6987    0.0890 P   0  0  0  0  0  0  0  0  0  0  0  0
   -3.4572    1.4716    0.6948 O   0  0  0  0  0  0  0  0  0  0  0  0
   -0.7955   -2.2223    1.8264 O   0  0  0  0  0  0  0  0  0  0  0  0
   -0.7515    1.5962    3.6919 N   0  0  0  0  0  0  0  0  0  0  0  0
   -1.3155    0.4320    1.9702 N   0  0  0  0  0  0  0  0  0  0  0  0
   -1.6948    0.8308    3.2121 N   0  0  0  0  0  0  0  0  0  0  0  0
   -0.0870    0.9603    1.6405 C   0  0  0  0  0  0  0  0  0  0  0  0
    0.2490    1.7063    2.7739 C   0  0  0  0  0  0  0  0  0  0  0  0
    1.1501    2.2987    2.9702 H   0  0  0  0  0  0  0  0  0  0  0  0
   -2.1621   -0.4194    1.2045 C   0  0  0  0  0  0  0  0  0  0  0  0
   -3.2874    0.1318    0.5495 C   0  0  0  0  0  0  0  0  0  0  0  0
   -4.1291   -0.7102   -0.2021 C   0  0  0  0  0  0  0  0  0  0  0  0
   -5.0022   -0.3086   -0.7305 H   0  0  0  0  0  0  0  0  0  0  0  0
   -3.8327   -2.0793   -0.2737 C   0  0  0  0  0  0  0  0  0  0  0  0
   -4.4815   -2.7335   -0.8750 H   0  0  0  0  0  0  0  0  0  0  0  0
   -2.7341   -2.6407    0.3860 C   0  0  0  0  0  0  0  0  0  0  0  0
   -2.5170   -3.7095    0.2803 H   0  0  0  0  0  0  0  0  0  0  0  0
   -1.8879   -1.8071    1.1454 C   0  0  0  0  0  0  0  0  0  0  0  0
   -4.5605    2.0851    0.0506 C   0  0  0  0  0  0  0  0  0  0  0  0
   -4.5108    3.1587    0.3092 H   0  0  0  0  0  0  0  0  0  0  0  0
   -5.5268    1.6694    0.4106 H   0  0  0  0  0  0  0  0  0  0  0  0
   -4.5071    1.9723   -1.0553 H   0  0  0  0  0  0  0  0  0  0  0  0
   -0.4078   -3.5894    1.7069 C   0  0  0  0  0  0  0  0  0  0  0  0
    0.5221   -3.6914    2.2953 H   0  0  0  0  0  0  0  0  0  0  0  0
   -0.2093   -3.8570    0.6460 H   0  0  0  0  0  0  0  0  0  0  0  0
   -1.1831   -4.2639    2.1309 H   0  0  0  0  0  0  0  0  0  0  0  0
    2.5943    0.7497    0.6597 C   0  0  0  0  0  0  0  0  0  0  0  0
    2.7166    1.6739    1.2680 H   0  0  0  0  0  0  0  0  0  0  0  0
    2.8944   -0.4776    1.5422 C   0  0  0  0  0  0  0  0  0  0  0  0
    2.2147   -0.4969    2.4186 H   0  0  0  0  0  0  0  0  0  0  0  0
    2.6695   -1.3945    0.9520 H   0  0  0  0  0  0  0  0  0  0  0  0
    4.3623   -0.4970    1.9873 C   0  0  0  0  0  0  0  0  0  0  0  0
    4.5560    0.3729    2.6548 H   0  0  0  0  0  0  0  0  0  0  0  0
    4.5557   -1.4048    2.5956 H   0  0  0  0  0  0  0  0  0  0  0  0
    5.3128   -0.4385    0.7853 C   0  0  0  0  0  0  0  0  0  0  0  0
    6.3694   -0.4226    1.1245 H   0  0  0  0  0  0  0  0  0  0  0  0
    5.1908   -1.3637    0.1789 H   0  0  0  0  0  0  0  0  0  0  0  0
    5.0169    0.7814   -0.0948 C   0  0  0  0  0  0  0  0  0  0  0  0
    5.6802    0.7930   -0.9845 H   0  0  0  0  0  0  0  0  0  0  0  0
    5.2434    1.7100    0.4763 H   0  0  0  0  0  0  0  0  0  0  0  0
    3.5494    0.8160   -0.5461 C   0  0  0  0  0  0  0  0  0  0  0  0
    3.3388   -0.0512   -1.2124 H   0  0  0  0  0  0  0  0  0  0  0  0
    3.3605    1.7296   -1.1473 H   0  0  0  0  0  0  0  0  0  0  0  0
    0.5193    2.2342   -0.9206 C   0  0  0  0  0  0  0  0  0  0  0  0
    1.1658    2.0783   -1.8146 H   0  0  0  0  0  0  0  0  0  0  0  0
    0.9194    3.5444   -0.2259 C   0  0  0  0  0  0  0  0  0  0  0  0
    1.9940    3.5300    0.0528 H   0  0  0  0  0  0  0  0  0  0  0  0
    0.3438    3.6400    0.7208 H   0  0  0  0  0  0  0  0  0  0  0  0
    0.6260    4.7573   -1.1229 C   0  0  0  0  0  0  0  0  0  0  0  0
    0.8898    5.6921   -0.5857 H   0  0  0  0  0  0  0  0  0  0  0  0
    1.2838    4.7152   -2.0200 H   0  0  0  0  0  0  0  0  0  0  0  0
   -0.8399    4.7867   -1.5725 C   0  0  0  0  0  0  0  0  0  0  0  0
   -1.0220    5.6554   -2.2389 H   0  0  0  0  0  0  0  0  0  0  0  0
   -1.4910    4.9317   -0.6809 H   0  0  0  0  0  0  0  0  0  0  0  0
   -1.2297    3.4790   -2.2724 C   0  0  0  0  0  0  0  0  0  0  0  0
   -2.3026    3.4935   -2.5586 H   0  0  0  0  0  0  0  0  0  0  0  0
   -0.6555    3.3827   -3.2212 H   0  0  0  0  0  0  0  0  0  0  0  0
   -0.9490    2.2615   -1.3823 C   0  0  0  0  0  0  0  0  0  0  0  0
   -1.1951    1.3165   -1.9114 H   0  0  0  0  0  0  0  0  0  0  0  0
   -1.6063    2.3003   -0.4873 H   0  0  0  0  0  0  0  0  0  0  0  0
  1 27  1  0  0  0  0
  1  7  1  0  0  0  0
  5  6  1  0  0  0  0
  6  4  2  0  0  0  0
  7  5  1  0  0  0  0
  7  8  2  0  0  0  0
  8  9  1  0  0  0  0
  8  4  1  0  0  0  0
 10  5  1  0  0  0  0
 11  2  1  0  0  0  0
 11 10  2  0  0  0  0
 12 11  1  0  0  0  0
 13 12  1  0  0  0  0
 14 12  2  0  0  0  0
 14 16  1  0  0  0  0
 15 14  1  0  0  0  0
 16 18  2  0  0  0  0
 17 16  1  0  0  0  0
 18 10  1  0  0  0  0
 18  3  1  0  0  0  0
 19 20  1  0  0  0  0
 19 21  1  0  0  0  0
 19  2  1  0  0  0  0
 22 19  1  0  0  0  0
 23  3  1  0  0  0  0
 23 26  1  0  0  0  0
 23 24  1  0  0  0  0
 25 23  1  0  0  0  0
 27 28  1  0  0  0  0
 27 29  1  0  0  0  0
 29 32  1  0  0  0  0
 29 30  1  0  0  0  0
 31 29  1  0  0  0  0
 32 34  1  0  0  0  0
 32 33  1  0  0  0  0
 35 36  1  0  0  0  0
 35 32  1  0  0  0  0
 37 35  1  0  0  0  0
 38 40  1  0  0  0  0
 38 35  1  0  0  0  0
 39 38  1  0  0  0  0
 41 38  1  0  0  0  0
 41 27  1  0  0  0  0
 42 41  1  0  0  0  0
 43 41  1  0  0  0  0
 44 46  1  0  0  0  0
 44  1  1  0  0  0  0
 45 44  1  0  0  0  0
 46 47  1  0  0  0  0
 46 48  1  0  0  0  0
 49 50  1  0  0  0  0
 49 46  1  0  0  0  0
 51 49  1  0  0  0  0
 52 49  1  0  0  0  0
 52 54  1  0  0  0  0
 53 52  1  0  0  0  0
 55 52  1  0  0  0  0
 55 58  1  0  0  0  0
 56 55  1  0  0  0  0
 57 55  1  0  0  0  0
 58 44  1  0  0  0  0
 58 60  1  0  0  0  0
 59 58  1  0  0  0  0
M  END
