1
 OpenBabel05122313063D

 37 39  0  0  0  0  0  0  0  0999 V2000
   -1.2092    1.1492   -0.8390 P   0  0  0  0  0  0  0  0  0  0  0  0
   -0.5750    2.8090   -1.2644 C   0  0  0  0  0  0  0  0  0  0  0  0
   -0.9917    3.9598   -0.5690 C   0  0  0  0  0  0  0  0  0  0  0  0
   -1.7855    3.8924    0.1883 H   0  0  0  0  0  0  0  0  0  0  0  0
   -0.3634    5.1900   -0.8173 C   0  0  0  0  0  0  0  0  0  0  0  0
   -0.6816    6.0835   -0.2600 H   0  0  0  0  0  0  0  0  0  0  0  0
    0.6752    5.2778   -1.7560 C   0  0  0  0  0  0  0  0  0  0  0  0
    1.1750    6.2413   -1.9359 H   0  0  0  0  0  0  0  0  0  0  0  0
    1.0921    4.1308   -2.4523 C   0  0  0  0  0  0  0  0  0  0  0  0
    1.9194    4.1903   -3.1751 H   0  0  0  0  0  0  0  0  0  0  0  0
    0.4792    2.8967   -2.2012 C   0  0  0  0  0  0  0  0  0  0  0  0
    0.8518    1.9910   -2.7040 H   0  0  0  0  0  0  0  0  0  0  0  0
   -2.4280    1.3541    0.5084 C   0  0  0  0  0  0  0  0  0  0  0  0
   -3.6833    1.9420    0.2326 C   0  0  0  0  0  0  0  0  0  0  0  0
   -3.9316    2.2584   -0.7917 H   0  0  0  0  0  0  0  0  0  0  0  0
   -4.6135    2.1098    1.2615 C   0  0  0  0  0  0  0  0  0  0  0  0
   -5.5973    2.5656    1.0776 H   0  0  0  0  0  0  0  0  0  0  0  0
   -4.3053    1.6852    2.5700 C   0  0  0  0  0  0  0  0  0  0  0  0
   -3.0573    1.0940    2.8425 C   0  0  0  0  0  0  0  0  0  0  0  0
   -2.8250    0.7565    3.8615 H   0  0  0  0  0  0  0  0  0  0  0  0
   -2.1182    0.9317    1.8155 C   0  0  0  0  0  0  0  0  0  0  0  0
   -1.1467    0.4670    2.0331 H   0  0  0  0  0  0  0  0  0  0  0  0
   -5.3455    1.8833    3.6279 C   0  0  0  0  0  0  0  0  0  0  0  0
   -6.4356    2.3920    3.4330 O   0  0  0  0  0  0  0  0  0  0  0  0
   -4.9462    1.4337    4.8425 O   0  0  0  0  0  0  0  0  0  0  0  0
   -5.6966    1.6112    5.4497 H   0  0  0  0  0  0  0  0  0  0  0  0
   -2.1949    0.5323   -2.2529 C   0  0  0  0  0  0  0  0  0  0  0  0
   -3.1459   -0.4835   -2.0105 C   0  0  0  0  0  0  0  0  0  0  0  0
   -3.3385   -0.8292   -0.9843 H   0  0  0  0  0  0  0  0  0  0  0  0
   -3.8369   -1.0640   -3.0824 C   0  0  0  0  0  0  0  0  0  0  0  0
   -4.5639   -1.8664   -2.8880 H   0  0  0  0  0  0  0  0  0  0  0  0
   -3.5960   -0.6307   -4.3956 C   0  0  0  0  0  0  0  0  0  0  0  0
   -4.1357   -1.0935   -5.2352 H   0  0  0  0  0  0  0  0  0  0  0  0
   -2.6696    0.3957   -4.6352 C   0  0  0  0  0  0  0  0  0  0  0  0
   -2.4869    0.7480   -5.6613 H   0  0  0  0  0  0  0  0  0  0  0  0
   -1.9669    0.9769   -3.5698 C   0  0  0  0  0  0  0  0  0  0  0  0
   -1.2457    1.7821   -3.7685 H   0  0  0  0  0  0  0  0  0  0  0  0
  1 13  1  0  0  0  0
  2  1  1  0  0  0  0
  2  3  1  0  0  0  0
  3  4  1  0  0  0  0
  5  3  2  0  0  0  0
  5  6  1  0  0  0  0
  7  5  1  0  0  0  0
  8  7  1  0  0  0  0
  9 11  1  0  0  0  0
  9  7  2  0  0  0  0
 10  9  1  0  0  0  0
 11  2  2  0  0  0  0
 12 11  1  0  0  0  0
 13 21  1  0  0  0  0
 14 13  2  0  0  0  0
 14 16  1  0  0  0  0
 15 14  1  0  0  0  0
 16 18  2  0  0  0  0
 17 16  1  0  0  0  0
 18 19  1  0  0  0  0
 18 23  1  0  0  0  0
 19 20  1  0  0  0  0
 21 22  1  0  0  0  0
 21 19  2  0  0  0  0
 23 25  1  0  0  0  0
 24 23  2  0  0  0  0
 25 26  1  0  0  0  0
 27 28  1  0  0  0  0
 27  1  1  0  0  0  0
 28 29  1  0  0  0  0
 30 31  1  0  0  0  0
 30 28  2  0  0  0  0
 32 30  1  0  0  0  0
 33 32  1  0  0  0  0
 34 32  2  0  0  0  0
 34 36  1  0  0  0  0
 35 34  1  0  0  0  0
 36 27  2  0  0  0  0
 37 36  1  0  0  0  0
M  END
