1
 OpenBabel05122313063D

 37 39  0  0  0  0  0  0  0  0999 V2000
    0.1120   -1.9669    0.1285 P   0  0  0  0  0  0  0  0  0  0  0  0
    1.8731   -2.4982   -0.0575 C   0  0  0  0  0  0  0  0  0  0  0  0
    2.6610   -2.1184   -1.1816 C   0  0  0  0  0  0  0  0  0  0  0  0
    4.0457   -2.3762   -1.1920 C   0  0  0  0  0  0  0  0  0  0  0  0
    4.6339   -2.0561   -2.0628 H   0  0  0  0  0  0  0  0  0  0  0  0
    4.6617   -3.0073   -0.1047 C   0  0  0  0  0  0  0  0  0  0  0  0
    5.7460   -3.1905   -0.1170 H   0  0  0  0  0  0  0  0  0  0  0  0
    3.8906   -3.3842    1.0031 C   0  0  0  0  0  0  0  0  0  0  0  0
    4.3647   -3.8682    1.8697 H   0  0  0  0  0  0  0  0  0  0  0  0
    2.5110   -3.1273    1.0277 C   0  0  0  0  0  0  0  0  0  0  0  0
    1.9294   -3.3943    1.9202 H   0  0  0  0  0  0  0  0  0  0  0  0
    2.0278   -1.3784   -2.3031 C   0  0  0  0  0  0  0  0  0  0  0  0
    0.8220   -1.1733   -2.3789 O   0  0  0  0  0  0  0  0  0  0  0  0
    2.8988   -0.9212   -3.2252 O   0  0  0  0  0  0  0  0  0  0  0  0
    2.3717   -0.3669   -3.8415 H   0  0  0  0  0  0  0  0  0  0  0  0
   -0.9607   -3.0263   -0.9125 C   0  0  0  0  0  0  0  0  0  0  0  0
   -2.3433   -3.0378   -0.6313 C   0  0  0  0  0  0  0  0  0  0  0  0
   -2.7420   -2.4525    0.2095 H   0  0  0  0  0  0  0  0  0  0  0  0
   -3.2134   -3.7964   -1.4263 C   0  0  0  0  0  0  0  0  0  0  0  0
   -4.2931   -3.7796   -1.2155 H   0  0  0  0  0  0  0  0  0  0  0  0
   -2.7088   -4.5708   -2.4823 C   0  0  0  0  0  0  0  0  0  0  0  0
   -3.3932   -5.1661   -3.1051 H   0  0  0  0  0  0  0  0  0  0  0  0
   -1.3284   -4.5912   -2.7371 C   0  0  0  0  0  0  0  0  0  0  0  0
   -0.9258   -5.2096   -3.5534 H   0  0  0  0  0  0  0  0  0  0  0  0
   -0.4548   -3.8168   -1.9607 C   0  0  0  0  0  0  0  0  0  0  0  0
    0.6235   -3.8346   -2.1703 H   0  0  0  0  0  0  0  0  0  0  0  0
   -0.3755   -2.5000    1.8198 C   0  0  0  0  0  0  0  0  0  0  0  0
   -0.6443   -3.8607    2.0898 C   0  0  0  0  0  0  0  0  0  0  0  0
   -0.5618   -4.6075    1.2855 H   0  0  0  0  0  0  0  0  0  0  0  0
   -1.0275   -4.2585    3.3773 C   0  0  0  0  0  0  0  0  0  0  0  0
   -1.2347   -5.3198    3.5817 H   0  0  0  0  0  0  0  0  0  0  0  0
   -1.1582   -3.3032    4.4000 C   0  0  0  0  0  0  0  0  0  0  0  0
   -1.4699   -3.6162    5.4080 H   0  0  0  0  0  0  0  0  0  0  0  0
   -0.9006   -1.9505    4.1332 C   0  0  0  0  0  0  0  0  0  0  0  0
   -1.0127   -1.1960    4.9257 H   0  0  0  0  0  0  0  0  0  0  0  0
   -0.5063   -1.5472    2.8485 C   0  0  0  0  0  0  0  0  0  0  0  0
   -0.3091   -0.4854    2.6468 H   0  0  0  0  0  0  0  0  0  0  0  0
  1 27  1  0  0  0  0
  2  1  1  0  0  0  0
  2 10  1  0  0  0  0
  3  2  2  0  0  0  0
  4  3  1  0  0  0  0
  4  6  2  0  0  0  0
  5  4  1  0  0  0  0
  6  8  1  0  0  0  0
  7  6  1  0  0  0  0
  8 10  2  0  0  0  0
  8  9  1  0  0  0  0
 10 11  1  0  0  0  0
 12  3  1  0  0  0  0
 13 12  2  0  0  0  0
 14 12  1  0  0  0  0
 15 14  1  0  0  0  0
 16 17  1  0  0  0  0
 16  1  1  0  0  0  0
 17 18  1  0  0  0  0
 19 20  1  0  0  0  0
 19 17  2  0  0  0  0
 21 19  1  0  0  0  0
 22 21  1  0  0  0  0
 23 21  2  0  0  0  0
 23 25  1  0  0  0  0
 24 23  1  0  0  0  0
 25 16  2  0  0  0  0
 26 25  1  0  0  0  0
 27 28  2  0  0  0  0
 27 36  1  0  0  0  0
 28 30  1  0  0  0  0
 29 28  1  0  0  0  0
 30 31  1  0  0  0  0
 30 32  2  0  0  0  0
 32 33  1  0  0  0  0
 34 32  1  0  0  0  0
 34 35  1  0  0  0  0
 36 34  2  0  0  0  0
 37 36  1  0  0  0  0
M  END
