1
 OpenBabel05122313063D

 29 28  0  0  0  0  0  0  0  0999 V2000
    2.4515    0.0450    0.0097 P   0  0  0  0  0  0  0  0  0  0  0  0
    3.0301    1.3813   -0.7170 O   0  0  0  0  0  0  0  0  0  0  0  0
    2.2196    1.9428   -1.0909 H   0  0  0  0  0  0  0  0  0  0  0  0
    3.6272   -1.2727   -0.7362 C   0  0  0  0  0  0  0  0  0  0  0  0
    5.0383   -0.6817   -0.9252 C   0  0  0  0  0  0  0  0  0  0  0  0
    5.6456   -1.4007   -1.5147 H   0  0  0  0  0  0  0  0  0  0  0  0
    5.5628   -0.5100    0.0308 H   0  0  0  0  0  0  0  0  0  0  0  0
    4.9958    0.2768   -1.4750 H   0  0  0  0  0  0  0  0  0  0  0  0
    3.0776   -1.5977   -2.1392 C   0  0  0  0  0  0  0  0  0  0  0  0
    2.9590   -0.6798   -2.7481 H   0  0  0  0  0  0  0  0  0  0  0  0
    2.1065   -2.1241   -2.1087 H   0  0  0  0  0  0  0  0  0  0  0  0
    3.8002   -2.2584   -2.6627 H   0  0  0  0  0  0  0  0  0  0  0  0
    3.6949   -2.5469    0.1184 C   0  0  0  0  0  0  0  0  0  0  0  0
    2.6972   -2.9562    0.3666 H   0  0  0  0  0  0  0  0  0  0  0  0
    4.2480   -2.3798    1.0628 H   0  0  0  0  0  0  0  0  0  0  0  0
    4.2405   -3.3335   -0.4452 H   0  0  0  0  0  0  0  0  0  0  0  0
    2.8670    0.3819    1.8476 C   0  0  0  0  0  0  0  0  0  0  0  0
    4.3646    0.6828    2.0242 C   0  0  0  0  0  0  0  0  0  0  0  0
    4.5311    1.1036    3.0385 H   0  0  0  0  0  0  0  0  0  0  0  0
    4.7161    1.4272    1.2835 H   0  0  0  0  0  0  0  0  0  0  0  0
    4.9886   -0.2279    1.9432 H   0  0  0  0  0  0  0  0  0  0  0  0
    2.0700    1.6547    2.1978 C   0  0  0  0  0  0  0  0  0  0  0  0
    2.3012    1.9501    3.2427 H   0  0  0  0  0  0  0  0  0  0  0  0
    0.9786    1.4892    2.1186 H   0  0  0  0  0  0  0  0  0  0  0  0
    2.3436    2.4967    1.5324 H   0  0  0  0  0  0  0  0  0  0  0  0
    2.4361   -0.7642    2.7731 C   0  0  0  0  0  0  0  0  0  0  0  0
    3.0301   -1.6841    2.6183 H   0  0  0  0  0  0  0  0  0  0  0  0
    1.3659   -1.0139    2.6341 H   0  0  0  0  0  0  0  0  0  0  0  0
    2.5763   -0.4500    3.8292 H   0  0  0  0  0  0  0  0  0  0  0  0
  1 17  1  0  0  0  0
  2  1  1  0  0  0  0
  3  2  1  0  0  0  0
  4  1  1  0  0  0  0
  4 13  1  0  0  0  0
  5  4  1  0  0  0  0
  5  7  1  0  0  0  0
  6  5  1  0  0  0  0
  8  5  1  0  0  0  0
  9 11  1  0  0  0  0
  9  4  1  0  0  0  0
 10  9  1  0  0  0  0
 12  9  1  0  0  0  0
 13 14  1  0  0  0  0
 13 15  1  0  0  0  0
 16 13  1  0  0  0  0
 17 18  1  0  0  0  0
 17 22  1  0  0  0  0
 17 26  1  0  0  0  0
 18 19  1  0  0  0  0
 20 18  1  0  0  0  0
 21 18  1  0  0  0  0
 22 23  1  0  0  0  0
 24 22  1  0  0  0  0
 25 22  1  0  0  0  0
 26 29  1  0  0  0  0
 27 26  1  0  0  0  0
 28 26  1  0  0  0  0
M  END
