1
 OpenBabel05122313063D

 20 20  0  0  0  0  0  0  0  0999 V2000
   -1.1147    1.1240   -0.5522 P   0  0  0  0  0  0  0  0  0  0  0  0
   -2.7091    0.4500    0.1176 C   0  0  0  0  0  0  0  0  0  0  0  0
   -2.5096    0.3277    1.2066 H   0  0  0  0  0  0  0  0  0  0  0  0
   -3.8929    1.4130   -0.0784 C   0  0  0  0  0  0  0  0  0  0  0  0
   -4.0286    1.6034   -1.1671 H   0  0  0  0  0  0  0  0  0  0  0  0
   -3.6743    2.3955    0.3902 H   0  0  0  0  0  0  0  0  0  0  0  0
   -5.1858    0.8185    0.5005 C   0  0  0  0  0  0  0  0  0  0  0  0
   -5.0810    0.7337    1.6052 H   0  0  0  0  0  0  0  0  0  0  0  0
   -6.0313    1.5142    0.3192 H   0  0  0  0  0  0  0  0  0  0  0  0
   -5.4847   -0.5656   -0.0886 C   0  0  0  0  0  0  0  0  0  0  0  0
   -6.4018   -0.9896    0.3704 H   0  0  0  0  0  0  0  0  0  0  0  0
   -5.6992   -0.4616   -1.1762 H   0  0  0  0  0  0  0  0  0  0  0  0
   -4.2994   -1.5195    0.1025 C   0  0  0  0  0  0  0  0  0  0  0  0
   -4.5092   -2.5040   -0.3643 H   0  0  0  0  0  0  0  0  0  0  0  0
   -4.1510   -1.7140    1.1881 H   0  0  0  0  0  0  0  0  0  0  0  0
   -3.0026   -0.9402   -0.4791 C   0  0  0  0  0  0  0  0  0  0  0  0
   -2.1532   -1.6271   -0.2932 H   0  0  0  0  0  0  0  0  0  0  0  0
   -3.1003   -0.8457   -1.5844 H   0  0  0  0  0  0  0  0  0  0  0  0
   -1.3839    1.2394   -1.9511 H   0  0  0  0  0  0  0  0  0  0  0  0
   -1.1728    2.5052   -0.1898 H   0  0  0  0  0  0  0  0  0  0  0  0
  1 20  1  0  0  0  0
  1  2  1  0  0  0  0
  2  3  1  0  0  0  0
  4  2  1  0  0  0  0
  4  6  1  0  0  0  0
  4  7  1  0  0  0  0
  5  4  1  0  0  0  0
  7  8  1  0  0  0  0
  9  7  1  0  0  0  0
 10 13  1  0  0  0  0
 10 11  1  0  0  0  0
 10  7  1  0  0  0  0
 12 10  1  0  0  0  0
 13 15  1  0  0  0  0
 14 13  1  0  0  0  0
 16 17  1  0  0  0  0
 16 13  1  0  0  0  0
 16  2  1  0  0  0  0
 18 16  1  0  0  0  0
 19  1  1  0  0  0  0
M  END
