1
 OpenBabel05122313063D

 22 22  0  0  0  0  0  0  0  0999 V2000
    0.1472    1.2077    0.2237 P   0  0  0  0  0  0  0  0  0  0  0  0
   -0.3426    2.2855   -0.9371 O   0  0  0  0  0  0  0  0  0  0  0  0
   -0.0404    2.0278    1.6560 O   0  0  0  0  0  0  0  0  0  0  0  0
    0.1814    3.6179   -0.9668 C   0  0  0  0  0  0  0  0  0  0  0  0
   -1.3439    2.2502    2.2143 C   0  0  0  0  0  0  0  0  0  0  0  0
    1.9705    1.2802    0.1814 C   0  0  0  0  0  0  0  0  0  0  0  0
    2.7321    1.2980    1.3656 C   0  0  0  0  0  0  0  0  0  0  0  0
    4.1330    1.2494    1.2946 C   0  0  0  0  0  0  0  0  0  0  0  0
    4.7749    1.1859    0.0469 C   0  0  0  0  0  0  0  0  0  0  0  0
    4.0141    1.1588   -1.1341 C   0  0  0  0  0  0  0  0  0  0  0  0
    2.6138    1.1949   -1.0711 C   0  0  0  0  0  0  0  0  0  0  0  0
   -0.4859    4.2121   -1.6200 H   0  0  0  0  0  0  0  0  0  0  0  0
    1.2101    3.6322   -1.3843 H   0  0  0  0  0  0  0  0  0  0  0  0
    0.2026    4.0665    0.0482 H   0  0  0  0  0  0  0  0  0  0  0  0
   -1.2255    3.0406    2.9802 H   0  0  0  0  0  0  0  0  0  0  0  0
   -1.7331    1.3249    2.6838 H   0  0  0  0  0  0  0  0  0  0  0  0
   -2.0584    2.6056    1.4418 H   0  0  0  0  0  0  0  0  0  0  0  0
    2.2185    1.3485    2.3362 H   0  0  0  0  0  0  0  0  0  0  0  0
    4.7274    1.2649    2.2210 H   0  0  0  0  0  0  0  0  0  0  0  0
    5.8739    1.1521   -0.0056 H   0  0  0  0  0  0  0  0  0  0  0  0
    4.5140    1.0964   -2.1127 H   0  0  0  0  0  0  0  0  0  0  0  0
    2.0140    1.1211   -1.9924 H   0  0  0  0  0  0  0  0  0  0  0  0
  1  3  1  0  0  0  0
  2  1  1  0  0  0  0
  3  5  1  0  0  0  0
  4  2  1  0  0  0  0
  4 14  1  0  0  0  0
  5 16  1  0  0  0  0
  5 15  1  0  0  0  0
  6  1  1  0  0  0  0
  6  7  1  0  0  0  0
  7 18  1  0  0  0  0
  8  7  2  0  0  0  0
  8 19  1  0  0  0  0
  9  8  1  0  0  0  0
 10 11  1  0  0  0  0
 10  9  2  0  0  0  0
 11  6  2  0  0  0  0
 12  4  1  0  0  0  0
 13  4  1  0  0  0  0
 17  5  1  0  0  0  0
 20  9  1  0  0  0  0
 21 10  1  0  0  0  0
 22 11  1  0  0  0  0
M  END
