1
 OpenBabel05122313063D

 48 49  0  0  1  0  0  0  0  0999 V2000
    0.5038    0.2118    0.1612 P   0  0  0  0  0  0  0  0  0  0  0  0
   -3.2505   -0.6655    1.8116 N   0  3  0  0  0  0  0  0  0  0  0  0
   -0.9054    0.2420    1.4080 C   0  0  0  0  0  0  0  0  0  0  0  0
   -2.2577   -0.0665    0.7795 C   0  0  2  0  0  0  0  0  0  0  0  0
   -2.9326    1.0785   -0.0072 C   0  0  0  0  0  0  0  0  0  0  0  0
   -3.2016   -0.0615    3.1793 C   0  0  0  0  0  0  0  0  0  0  0  0
   -3.1640   -2.1601    1.8702 C   0  0  0  0  0  0  0  0  0  0  0  0
   -3.2392    2.3526    0.7912 C   0  0  0  0  0  0  0  0  0  0  0  0
   -4.1722    0.5746   -0.7598 C   0  0  0  0  0  0  0  0  0  0  0  0
    1.9664    0.3824    1.2586 C   0  0  0  0  0  0  0  0  0  0  0  0
    2.1413   -0.4894    2.3556 C   0  0  0  0  0  0  0  0  0  0  0  0
    3.3000   -0.4090    3.1396 C   0  0  0  0  0  0  0  0  0  0  0  0
    4.3019    0.5240    2.8260 C   0  0  0  0  0  0  0  0  0  0  0  0
    4.1430    1.3748    1.7224 C   0  0  0  0  0  0  0  0  0  0  0  0
    2.9815    1.3074    0.9383 C   0  0  0  0  0  0  0  0  0  0  0  0
    0.3922    1.8377   -0.6860 C   0  0  0  0  0  0  0  0  0  0  0  0
    0.4809    1.9128   -2.0892 C   0  0  0  0  0  0  0  0  0  0  0  0
    0.4037    3.1578   -2.7337 C   0  0  0  0  0  0  0  0  0  0  0  0
    0.2427    4.3313   -1.9827 C   0  0  0  0  0  0  0  0  0  0  0  0
    0.1748    4.2645   -0.5799 C   0  0  0  0  0  0  0  0  0  0  0  0
    0.2549    3.0252    0.0683 C   0  0  0  0  0  0  0  0  0  0  0  0
   -4.1779   -0.4349    1.4058 H   0  0  0  0  0  0  0  0  0  0  0  0
   -0.6191   -0.5485    2.1293 H   0  0  0  0  0  0  0  0  0  0  0  0
   -0.8845    1.2073    1.9494 H   0  0  0  0  0  0  0  0  0  0  0  0
   -2.1002   -0.9050    0.0694 H   0  0  0  0  0  0  0  0  0  0  0  0
   -2.1716    1.3406   -0.7728 H   0  0  0  0  0  0  0  0  0  0  0  0
   -2.2768   -0.3866    3.6858 H   0  0  0  0  0  0  0  0  0  0  0  0
   -4.0775   -0.4151    3.7535 H   0  0  0  0  0  0  0  0  0  0  0  0
   -3.2211    1.0374    3.1003 H   0  0  0  0  0  0  0  0  0  0  0  0
   -2.1400   -2.4569    2.1618 H   0  0  0  0  0  0  0  0  0  0  0  0
   -3.8966   -2.5374    2.6068 H   0  0  0  0  0  0  0  0  0  0  0  0
   -3.3852   -2.5699    0.8687 H   0  0  0  0  0  0  0  0  0  0  0  0
   -3.5185    3.1677    0.0959 H   0  0  0  0  0  0  0  0  0  0  0  0
   -2.3701    2.7160    1.3731 H   0  0  0  0  0  0  0  0  0  0  0  0
   -4.1000    2.2252    1.4818 H   0  0  0  0  0  0  0  0  0  0  0  0
   -4.5738    1.3704   -1.4162 H   0  0  0  0  0  0  0  0  0  0  0  0
   -5.0175    0.3078   -0.0806 H   0  0  0  0  0  0  0  0  0  0  0  0
   -3.9389   -0.2982   -1.4000 H   0  0  0  0  0  0  0  0  0  0  0  0
    1.3903   -1.2568    2.5959 H   0  0  0  0  0  0  0  0  0  0  0  0
    3.4260   -1.0893    3.9949 H   0  0  0  0  0  0  0  0  0  0  0  0
    5.2134    0.5802    3.4394 H   0  0  0  0  0  0  0  0  0  0  0  0
    4.9301    2.0984    1.4636 H   0  0  0  0  0  0  0  0  0  0  0  0
    2.8705    1.9760    0.0726 H   0  0  0  0  0  0  0  0  0  0  0  0
    0.6185    0.9924   -2.6750 H   0  0  0  0  0  0  0  0  0  0  0  0
    0.4746    3.2073   -3.8303 H   0  0  0  0  0  0  0  0  0  0  0  0
    0.1817    5.3060   -2.4895 H   0  0  0  0  0  0  0  0  0  0  0  0
    0.0700    5.1856    0.0127 H   0  0  0  0  0  0  0  0  0  0  0  0
    0.2382    2.9901    1.1689 H   0  0  0  0  0  0  0  0  0  0  0  0
  1 10  1  0  0  0  0
  1  3  1  0  0  0  0
  2  7  1  0  0  0  0
  2  6  1  0  0  0  0
  3 24  1  0  0  0  0
  3 23  1  0  0  0  0
  4 25  1  6  0  0  0
  4  3  1  0  0  0  0
  4  2  1  0  0  0  0
  5  4  1  0  0  0  0
  5  8  1  0  0  0  0
  6 27  1  0  0  0  0
  6 28  1  0  0  0  0
  7 30  1  0  0  0  0
  7 31  1  0  0  0  0
  8 34  1  0  0  0  0
  8 35  1  0  0  0  0
  9 37  1  0  0  0  0
  9  5  1  0  0  0  0
 10 11  1  0  0  0  0
 11 39  1  0  0  0  0
 11 12  2  0  0  0  0
 12 40  1  0  0  0  0
 13 12  1  0  0  0  0
 13 41  1  0  0  0  0
 14 13  2  0  0  0  0
 15 10  2  0  0  0  0
 15 14  1  0  0  0  0
 16 21  1  0  0  0  0
 16  1  1  0  0  0  0
 17 16  2  0  0  0  0
 18 17  1  0  0  0  0
 18 19  2  0  0  0  0
 19 20  1  0  0  0  0
 20 47  1  0  0  0  0
 20 21  2  0  0  0  0
 21 48  1  0  0  0  0
 22  2  1  0  0  0  0
 26  5  1  0  0  0  0
 29  6  1  0  0  0  0
 32  7  1  0  0  0  0
 33  8  1  0  0  0  0
 36  9  1  0  0  0  0
 38  9  1  0  0  0  0
 42 14  1  0  0  0  0
 43 15  1  0  0  0  0
 44 17  1  0  0  0  0
 45 18  1  0  0  0  0
 46 19  1  0  0  0  0
M  CHG  1   2   1
M  END
