2
 OpenBabel05122313063D

 39 39  0  0  0  0  0  0  0  0999 V2000
   -0.9682    0.0001   -2.7055 Cl  0  0  0  0  0  0  0  0  0  0  0  0
   -0.6818    0.0000   -0.5458 P   0  0  0  0  0  0  0  0  0  0  0  0
   -2.8575    0.0000    0.8358 Si  0  0  0  0  0  0  0  0  0  0  0  0
   -1.7556   -1.1807    0.0704 N   0  0  0  0  0  0  0  0  0  0  0  0
   -1.7554    1.1808    0.0706 N   0  0  0  0  0  0  0  0  0  0  0  0
   -4.6478    0.0001    0.2714 C   0  0  0  0  0  0  0  0  0  0  0  0
   -5.1765    0.8928    0.6650 H   0  0  0  0  0  0  0  0  0  0  0  0
   -5.1763   -0.8930    0.6644 H   0  0  0  0  0  0  0  0  0  0  0  0
   -4.7234    0.0004   -0.8329 H   0  0  0  0  0  0  0  0  0  0  0  0
   -2.7285    0.0000    2.7058 C   0  0  0  0  0  0  0  0  0  0  0  0
   -3.2124    0.8975    3.1419 H   0  0  0  0  0  0  0  0  0  0  0  0
   -1.6616   -0.0028    3.0037 H   0  0  0  0  0  0  0  0  0  0  0  0
   -3.2175   -0.8943    3.1426 H   0  0  0  0  0  0  0  0  0  0  0  0
   -1.8919   -2.6266   -0.2189 C   0  0  0  0  0  0  0  0  0  0  0  0
   -0.5892   -3.2086   -0.7861 C   0  0  0  0  0  0  0  0  0  0  0  0
   -0.7375   -4.2808   -1.0208 H   0  0  0  0  0  0  0  0  0  0  0  0
    0.2455   -3.1325   -0.0666 H   0  0  0  0  0  0  0  0  0  0  0  0
   -0.2993   -2.6980   -1.7249 H   0  0  0  0  0  0  0  0  0  0  0  0
   -2.2537   -3.3380    1.0964 C   0  0  0  0  0  0  0  0  0  0  0  0
   -2.3843   -4.4255    0.9280 H   0  0  0  0  0  0  0  0  0  0  0  0
   -3.2095   -2.9511    1.5092 H   0  0  0  0  0  0  0  0  0  0  0  0
   -1.4597   -3.1890    1.8538 H   0  0  0  0  0  0  0  0  0  0  0  0
   -3.0141   -2.8258   -1.2604 C   0  0  0  0  0  0  0  0  0  0  0  0
   -3.1218   -3.8983   -1.5206 H   0  0  0  0  0  0  0  0  0  0  0  0
   -2.7830   -2.2589   -2.1832 H   0  0  0  0  0  0  0  0  0  0  0  0
   -3.9894   -2.4729   -0.8713 H   0  0  0  0  0  0  0  0  0  0  0  0
   -1.8916    2.6266   -0.2190 C   0  0  0  0  0  0  0  0  0  0  0  0
   -0.5890    3.2084   -0.7864 C   0  0  0  0  0  0  0  0  0  0  0  0
    0.2458    3.1325   -0.0669 H   0  0  0  0  0  0  0  0  0  0  0  0
   -0.7373    4.2806   -1.0212 H   0  0  0  0  0  0  0  0  0  0  0  0
   -0.2993    2.6977   -1.7252 H   0  0  0  0  0  0  0  0  0  0  0  0
   -2.2532    3.3383    1.0963 C   0  0  0  0  0  0  0  0  0  0  0  0
   -1.4593    3.1893    1.8537 H   0  0  0  0  0  0  0  0  0  0  0  0
   -3.2091    2.9518    1.5091 H   0  0  0  0  0  0  0  0  0  0  0  0
   -2.3836    4.4258    0.9277 H   0  0  0  0  0  0  0  0  0  0  0  0
   -3.0141    2.8258   -1.2603 C   0  0  0  0  0  0  0  0  0  0  0  0
   -3.1216    3.8982   -1.5207 H   0  0  0  0  0  0  0  0  0  0  0  0
   -3.9893    2.4731   -0.8710 H   0  0  0  0  0  0  0  0  0  0  0  0
   -2.7832    2.2586   -2.1831 H   0  0  0  0  0  0  0  0  0  0  0  0
  1  2  1  0  0  0  0
  2  4  1  0  0  0  0
  2  5  1  0  0  0  0
  3 10  1  0  0  0  0
  4  3  1  0  0  0  0
  5  3  1  0  0  0  0
  6  8  1  0  0  0  0
  6  7  1  0  0  0  0
  6  3  1  0  0  0  0
  9  6  1  0  0  0  0
 10 12  1  0  0  0  0
 10 11  1  0  0  0  0
 10 13  1  0  0  0  0
 14  4  1  0  0  0  0
 14 19  1  0  0  0  0
 15 14  1  0  0  0  0
 15 17  1  0  0  0  0
 16 15  1  0  0  0  0
 18 15  1  0  0  0  0
 19 21  1  0  0  0  0
 19 22  1  0  0  0  0
 20 19  1  0  0  0  0
 23 26  1  0  0  0  0
 23 14  1  0  0  0  0
 24 23  1  0  0  0  0
 25 23  1  0  0  0  0
 27  5  1  0  0  0  0
 27 32  1  0  0  0  0
 28 27  1  0  0  0  0
 28 29  1  0  0  0  0
 30 28  1  0  0  0  0
 31 28  1  0  0  0  0
 32 34  1  0  0  0  0
 32 33  1  0  0  0  0
 35 32  1  0  0  0  0
 36 38  1  0  0  0  0
 36 27  1  0  0  0  0
 37 36  1  0  0  0  0
 39 36  1  0  0  0  0
M  END
