1
 OpenBabel05122313063D

 36 37  0  0  0  0  0  0  0  0999 V2000
    1.5249    0.4379   -0.6105 P   0  0  2  0  0  0  0  0  0  0  0  0
    0.7005    1.7764   -1.2406 O   0  0  0  0  0  0  0  0  0  0  0  0
    2.6827    0.6696    0.5884 O   0  0  0  0  0  0  0  0  0  0  0  0
    2.7183    0.5159   -1.8768 N   0  0  0  0  0  0  0  0  0  0  0  0
    2.3301    1.4896   -2.8373 C   0  0  0  0  0  0  0  0  0  0  0  0
    1.2265    2.1860   -2.4697 C   0  0  0  0  0  0  0  0  0  0  0  0
    0.4111    3.2432   -3.1687 C   0  0  0  0  0  0  0  0  0  0  0  0
    1.1143    3.6665   -4.4680 C   0  0  0  0  0  0  0  0  0  0  0  0
   -0.9873    2.6608   -3.4865 C   0  0  0  0  0  0  0  0  0  0  0  0
    0.2627    4.4566   -2.2230 C   0  0  0  0  0  0  0  0  0  0  0  0
    4.0133    0.5016   -1.2887 C   0  0  0  0  0  0  0  0  0  0  0  0
    3.9824    0.6042    0.0623 C   0  0  0  0  0  0  0  0  0  0  0  0
    5.0755    0.5629    1.0977 C   0  0  0  0  0  0  0  0  0  0  0  0
    4.9938    1.8421    1.9612 C   0  0  0  0  0  0  0  0  0  0  0  0
    4.8678   -0.6848    1.9875 C   0  0  0  0  0  0  0  0  0  0  0  0
    6.4429    0.4883    0.3988 C   0  0  0  0  0  0  0  0  0  0  0  0
    2.9063    1.6043   -3.7616 H   0  0  0  0  0  0  0  0  0  0  0  0
    0.5200    4.4490   -4.9804 H   0  0  0  0  0  0  0  0  0  0  0  0
    2.1225    4.0813   -4.2661 H   0  0  0  0  0  0  0  0  0  0  0  0
    1.2203    2.8134   -5.1681 H   0  0  0  0  0  0  0  0  0  0  0  0
   -1.6248    3.4333   -3.9632 H   0  0  0  0  0  0  0  0  0  0  0  0
   -0.9073    1.7993   -4.1795 H   0  0  0  0  0  0  0  0  0  0  0  0
   -1.4911    2.3095   -2.5647 H   0  0  0  0  0  0  0  0  0  0  0  0
   -0.3616    5.2374   -2.7021 H   0  0  0  0  0  0  0  0  0  0  0  0
   -0.2223    4.1577   -1.2732 H   0  0  0  0  0  0  0  0  0  0  0  0
    1.2506    4.8992   -1.9835 H   0  0  0  0  0  0  0  0  0  0  0  0
    4.9011    0.3954   -1.9207 H   0  0  0  0  0  0  0  0  0  0  0  0
    5.7684    1.8138    2.7539 H   0  0  0  0  0  0  0  0  0  0  0  0
    5.1581    2.7499    1.3462 H   0  0  0  0  0  0  0  0  0  0  0  0
    4.0038    1.9293    2.4502 H   0  0  0  0  0  0  0  0  0  0  0  0
    5.6652   -0.7413    2.7564 H   0  0  0  0  0  0  0  0  0  0  0  0
    3.8872   -0.6461    2.4998 H   0  0  0  0  0  0  0  0  0  0  0  0
    4.8909   -1.6121    1.3813 H   0  0  0  0  0  0  0  0  0  0  0  0
    7.2504    0.4694    1.1573 H   0  0  0  0  0  0  0  0  0  0  0  0
    6.5344   -0.4313   -0.2134 H   0  0  0  0  0  0  0  0  0  0  0  0
    6.6134    1.3662   -0.2569 H   0  0  0  0  0  0  0  0  0  0  0  0
  1  2  1  6  0  0  0
  1  3  1  0  0  0  0
  4 11  1  0  0  0  0
  4  1  1  0  0  0  0
  5  6  2  0  0  0  0
  5  4  1  0  0  0  0
  6  2  1  0  0  0  0
  7  6  1  0  0  0  0
  7 10  1  0  0  0  0
  8 19  1  0  0  0  0
  8  7  1  0  0  0  0
  9  7  1  0  0  0  0
  9 23  1  0  0  0  0
 10 26  1  0  0  0  0
 10 25  1  0  0  0  0
 11 12  2  0  0  0  0
 12  3  1  0  0  0  0
 12 13  1  0  0  0  0
 13 14  1  0  0  0  0
 13 15  1  0  0  0  0
 14 30  1  0  0  0  0
 14 28  1  0  0  0  0
 15 32  1  0  0  0  0
 15 31  1  0  0  0  0
 16 13  1  0  0  0  0
 16 34  1  0  0  0  0
 17  5  1  0  0  0  0
 18  8  1  0  0  0  0
 20  8  1  0  0  0  0
 21  9  1  0  0  0  0
 22  9  1  0  0  0  0
 24 10  1  0  0  0  0
 27 11  1  0  0  0  0
 29 14  1  0  0  0  0
 33 15  1  0  0  0  0
 35 16  1  0  0  0  0
 36 16  1  0  0  0  0
M  END
