1
 OpenBabel05122313063D

 36 37  0  0  0  0  0  0  0  0999 V2000
    0.4777   -0.0574   -0.1700 P   0  0  0  0  0  0  0  0  0  0  0  0
    0.1030   -0.7786   -2.7860 F   0  0  0  0  0  0  0  0  0  0  0  0
    2.1613   -1.1446   -2.0659 F   0  0  0  0  0  0  0  0  0  0  0  0
    1.2857   -3.2370   -0.5411 F   0  0  0  0  0  0  0  0  0  0  0  0
   -0.7843   -2.8416   -1.1153 F   0  0  0  0  0  0  0  0  0  0  0  0
    0.6891   -3.3763   -2.6343 F   0  0  0  0  0  0  0  0  0  0  0  0
    2.8792    3.6895   -1.1648 O   0  0  0  0  0  0  0  0  0  0  0  0
    3.0560   -1.3566    3.3077 O   0  0  0  0  0  0  0  0  0  0  0  0
    1.5022    1.2655   -0.6234 N   0  0  0  0  0  0  0  0  0  0  0  0
    1.4343   -0.7414    1.0585 N   0  0  0  0  0  0  0  0  0  0  0  0
    1.4717    1.8591   -1.9666 C   0  0  0  0  0  0  0  0  0  0  0  0
    0.5809    2.5168   -2.0995 H   0  0  0  0  0  0  0  0  0  0  0  0
    1.4333    1.0754   -2.7423 H   0  0  0  0  0  0  0  0  0  0  0  0
    2.7421    2.6894   -2.1591 C   0  0  0  0  0  0  0  0  0  0  0  0
    3.6253    2.0027   -2.1480 H   0  0  0  0  0  0  0  0  0  0  0  0
    2.7119    3.2096   -3.1373 H   0  0  0  0  0  0  0  0  0  0  0  0
    2.9054    3.1153    0.1289 C   0  0  0  0  0  0  0  0  0  0  0  0
    2.9913    3.9502    0.8529 H   0  0  0  0  0  0  0  0  0  0  0  0
    3.7998    2.4520    0.2458 H   0  0  0  0  0  0  0  0  0  0  0  0
    1.6411    2.3041    0.4086 C   0  0  0  0  0  0  0  0  0  0  0  0
    1.7084    1.8243    1.4052 H   0  0  0  0  0  0  0  0  0  0  0  0
    0.7606    2.9901    0.4161 H   0  0  0  0  0  0  0  0  0  0  0  0
    2.8837   -0.9353    0.9095 C   0  0  0  0  0  0  0  0  0  0  0  0
    3.2511   -0.2760    0.1004 H   0  0  0  0  0  0  0  0  0  0  0  0
    3.0974   -1.9916    0.6296 H   0  0  0  0  0  0  0  0  0  0  0  0
    3.5819   -0.6052    2.2287 C   0  0  0  0  0  0  0  0  0  0  0  0
    4.6611   -0.8498    2.1590 H   0  0  0  0  0  0  0  0  0  0  0  0
    3.4852    0.4911    2.4355 H   0  0  0  0  0  0  0  0  0  0  0  0
    1.6682   -1.1090    3.4646 C   0  0  0  0  0  0  0  0  0  0  0  0
    1.4871   -0.0329    3.7122 H   0  0  0  0  0  0  0  0  0  0  0  0
    1.3237   -1.7264    4.3181 H   0  0  0  0  0  0  0  0  0  0  0  0
    0.8839   -1.4685    2.2030 C   0  0  0  0  0  0  0  0  0  0  0  0
    0.9433   -2.5670    2.0247 H   0  0  0  0  0  0  0  0  0  0  0  0
   -0.1811   -1.2032    2.3318 H   0  0  0  0  0  0  0  0  0  0  0  0
    0.8420   -1.1946   -1.7107 C   0  0  0  0  0  0  0  0  0  0  0  0
    0.4993   -2.6971   -1.4944 C   0  0  0  0  0  0  0  0  0  0  0  0
  1 10  1  0  0  0  0
  2 35  1  0  0  0  0
  3 35  1  0  0  0  0
  6 36  1  0  0  0  0
  7 17  1  0  0  0  0
  8 29  1  0  0  0  0
  9  1  1  0  0  0  0
  9 20  1  0  0  0  0
 10 32  1  0  0  0  0
 11  9  1  0  0  0  0
 12 11  1  0  0  0  0
 13 11  1  0  0  0  0
 14 15  1  0  0  0  0
 14 11  1  0  0  0  0
 14  7  1  0  0  0  0
 16 14  1  0  0  0  0
 17 19  1  0  0  0  0
 17 20  1  0  0  0  0
 17 18  1  0  0  0  0
 20 22  1  0  0  0  0
 20 21  1  0  0  0  0
 23 10  1  0  0  0  0
 23 26  1  0  0  0  0
 24 23  1  0  0  0  0
 25 23  1  0  0  0  0
 26 28  1  0  0  0  0
 26  8  1  0  0  0  0
 27 26  1  0  0  0  0
 29 30  1  0  0  0  0
 29 31  1  0  0  0  0
 32 34  1  0  0  0  0
 32 29  1  0  0  0  0
 33 32  1  0  0  0  0
 35 36  1  0  0  0  0
 35  1  1  0  0  0  0
 36  5  1  0  0  0  0
 36  4  1  0  0  0  0
M  END
