1
 OpenBabel05122313063D

 26 27  0  0  0  0  0  0  0  0999 V2000
    1.4787   -0.5091    0.4206 P   0  0  2  0  0  0  0  0  0  0  0  0
    1.3162    0.6380    1.8154 C   0  0  0  0  0  0  0  0  0  0  0  0
    0.9201    1.6580    1.7356 H   0  0  0  0  0  0  0  0  0  0  0  0
    1.6404    0.0030    2.9801 C   0  0  0  0  0  0  0  0  0  0  0  0
    2.1131   -1.4028    2.8012 C   0  0  0  0  0  0  0  0  0  0  0  0
    2.1242   -1.8171    1.5022 C   0  0  0  0  0  0  0  0  0  0  0  0
    2.3977   -2.8089    1.1211 H   0  0  0  0  0  0  0  0  0  0  0  0
    1.5236    0.6138    4.3453 C   0  0  0  0  0  0  0  0  0  0  0  0
    1.1635    1.6581    4.2930 H   0  0  0  0  0  0  0  0  0  0  0  0
    2.4998    0.6069    4.8748 H   0  0  0  0  0  0  0  0  0  0  0  0
    0.8193    0.0371    4.9822 H   0  0  0  0  0  0  0  0  0  0  0  0
    2.5125   -2.2464    3.9762 C   0  0  0  0  0  0  0  0  0  0  0  0
    2.8357   -3.2545    3.6567 H   0  0  0  0  0  0  0  0  0  0  0  0
    1.6712   -2.3643    4.6922 H   0  0  0  0  0  0  0  0  0  0  0  0
    3.3447   -1.7793    4.5448 H   0  0  0  0  0  0  0  0  0  0  0  0
    2.8879    0.0610   -0.6181 C   0  0  0  0  0  0  0  0  0  0  0  0
    3.1793   -0.6375   -1.8079 C   0  0  0  0  0  0  0  0  0  0  0  0
    2.5654   -1.5125   -2.0819 H   0  0  0  0  0  0  0  0  0  0  0  0
    4.2465   -0.2154   -2.6142 C   0  0  0  0  0  0  0  0  0  0  0  0
    4.4746   -0.7638   -3.5410 H   0  0  0  0  0  0  0  0  0  0  0  0
    5.0159    0.9015   -2.2490 C   0  0  0  0  0  0  0  0  0  0  0  0
    5.8467    1.2333   -2.8905 H   0  0  0  0  0  0  0  0  0  0  0  0
    4.7214    1.5974   -1.0657 C   0  0  0  0  0  0  0  0  0  0  0  0
    5.3207    2.4742   -0.7757 H   0  0  0  0  0  0  0  0  0  0  0  0
    3.6613    1.1799   -0.2467 C   0  0  0  0  0  0  0  0  0  0  0  0
    3.4271    1.7246    0.6799 H   0  0  0  0  0  0  0  0  0  0  0  0
  1 16  1  6  0  0  0
  1  6  1  0  0  0  0
  1  2  1  0  0  0  0
  2  4  2  0  0  0  0
  3  2  1  0  0  0  0
  4  8  1  0  0  0  0
  5  4  1  0  0  0  0
  5 12  1  0  0  0  0
  6  5  2  0  0  0  0
  7  6  1  0  0  0  0
  8 10  1  0  0  0  0
  8 11  1  0  0  0  0
  9  8  1  0  0  0  0
 12 15  1  0  0  0  0
 12 14  1  0  0  0  0
 13 12  1  0  0  0  0
 16 25  1  0  0  0  0
 17 16  2  0  0  0  0
 18 17  1  0  0  0  0
 19 21  2  0  0  0  0
 19 17  1  0  0  0  0
 20 19  1  0  0  0  0
 21 23  1  0  0  0  0
 22 21  1  0  0  0  0
 23 24  1  0  0  0  0
 23 25  2  0  0  0  0
 25 26  1  0  0  0  0
M  END
