1
 OpenBabel05122313063D

 26 26  0  0  0  0  0  0  0  0999 V2000
    1.5902    0.4924    1.3717 P   0  0  0  0  0  0  0  0  0  0  0  0
    2.6270    1.3351    0.1239 C   0  0  0  0  0  0  0  0  0  0  0  0
    2.0284    2.3675   -0.6320 C   0  0  0  0  0  0  0  0  0  0  0  0
    0.9656    2.6091   -0.4762 H   0  0  0  0  0  0  0  0  0  0  0  0
    2.7778    3.0549   -1.5960 C   0  0  0  0  0  0  0  0  0  0  0  0
    2.3071    3.8593   -2.1811 H   0  0  0  0  0  0  0  0  0  0  0  0
    4.1231    2.7154   -1.8203 C   0  0  0  0  0  0  0  0  0  0  0  0
    4.7091    3.2559   -2.5788 H   0  0  0  0  0  0  0  0  0  0  0  0
    4.7190    1.6878   -1.0737 C   0  0  0  0  0  0  0  0  0  0  0  0
    5.7723    1.4195   -1.2446 H   0  0  0  0  0  0  0  0  0  0  0  0
    3.9768    0.9987   -0.1019 C   0  0  0  0  0  0  0  0  0  0  0  0
    4.4613    0.1942    0.4688 H   0  0  0  0  0  0  0  0  0  0  0  0
    2.6536   -0.8250    2.1153 C   0  0  0  0  0  0  0  0  0  0  0  0
    2.9457   -1.4916    1.2771 H   0  0  0  0  0  0  0  0  0  0  0  0
    3.5832   -0.3454    2.4872 H   0  0  0  0  0  0  0  0  0  0  0  0
    1.9583   -1.6116    3.2282 C   0  0  0  0  0  0  0  0  0  0  0  0
    1.6661   -0.9609    4.0761 H   0  0  0  0  0  0  0  0  0  0  0  0
    2.6369   -2.3909    3.6273 H   0  0  0  0  0  0  0  0  0  0  0  0
    1.0409   -2.1115    2.8617 H   0  0  0  0  0  0  0  0  0  0  0  0
    1.3323    1.7562    2.7002 C   0  0  0  0  0  0  0  0  0  0  0  0
    0.7077    2.5385    2.2190 H   0  0  0  0  0  0  0  0  0  0  0  0
    0.6800    1.2702    3.4559 H   0  0  0  0  0  0  0  0  0  0  0  0
    2.6048    2.3359    3.3126 C   0  0  0  0  0  0  0  0  0  0  0  0
    3.1933    1.5674    3.8526 H   0  0  0  0  0  0  0  0  0  0  0  0
    2.3510    3.1270    4.0460 H   0  0  0  0  0  0  0  0  0  0  0  0
    3.2596    2.7892    2.5416 H   0  0  0  0  0  0  0  0  0  0  0  0
  1 13  1  0  0  0  0
  1 20  1  0  0  0  0
  2  1  1  0  0  0  0
  3  4  1  0  0  0  0
  3  2  2  0  0  0  0
  5  3  1  0  0  0  0
  6  5  1  0  0  0  0
  7  5  2  0  0  0  0
  7  9  1  0  0  0  0
  8  7  1  0  0  0  0
  9 11  2  0  0  0  0
 10  9  1  0  0  0  0
 11  2  1  0  0  0  0
 11 12  1  0  0  0  0
 13 15  1  0  0  0  0
 13 16  1  0  0  0  0
 14 13  1  0  0  0  0
 16 18  1  0  0  0  0
 16 17  1  0  0  0  0
 19 16  1  0  0  0  0
 20 23  1  0  0  0  0
 20 22  1  0  0  0  0
 21 20  1  0  0  0  0
 23 24  1  0  0  0  0
 23 25  1  0  0  0  0
 26 23  1  0  0  0  0
M  END
