1
 OpenBabel05122313063D

 40 42  0  0  0  0  0  0  0  0999 V2000
    0.6655   -1.4691   -0.2881 P   0  0  0  0  0  0  0  0  0  0  0  0
    0.6483   -3.0000   -1.3211 C   0  0  0  0  0  0  0  0  0  0  0  0
    1.2343   -2.9107   -2.6034 C   0  0  0  0  0  0  0  0  0  0  0  0
    1.6708   -1.9555   -2.9413 H   0  0  0  0  0  0  0  0  0  0  0  0
    1.2578   -4.0302   -3.4457 C   0  0  0  0  0  0  0  0  0  0  0  0
    1.7144   -3.9509   -4.4440 H   0  0  0  0  0  0  0  0  0  0  0  0
    0.6941   -5.2445   -3.0207 C   0  0  0  0  0  0  0  0  0  0  0  0
    0.7077   -6.1218   -3.6853 H   0  0  0  0  0  0  0  0  0  0  0  0
    0.1123   -5.3363   -1.7470 C   0  0  0  0  0  0  0  0  0  0  0  0
   -0.3274   -6.2870   -1.4082 H   0  0  0  0  0  0  0  0  0  0  0  0
    0.0879   -4.2195   -0.8968 C   0  0  0  0  0  0  0  0  0  0  0  0
   -0.3684   -4.2998    0.1007 H   0  0  0  0  0  0  0  0  0  0  0  0
   -0.3466   -1.8827    1.1855 C   0  0  0  0  0  0  0  0  0  0  0  0
    0.1841   -1.8883    2.4917 C   0  0  0  0  0  0  0  0  0  0  0  0
    1.2533   -1.6968    2.6589 H   0  0  0  0  0  0  0  0  0  0  0  0
   -0.6534   -2.1328    3.5925 C   0  0  0  0  0  0  0  0  0  0  0  0
   -0.2310   -2.1269    4.6090 H   0  0  0  0  0  0  0  0  0  0  0  0
   -2.0200   -2.3859    3.3974 C   0  0  0  0  0  0  0  0  0  0  0  0
   -2.6770   -2.5704    4.2608 H   0  0  0  0  0  0  0  0  0  0  0  0
   -2.5532   -2.3930    2.0975 C   0  0  0  0  0  0  0  0  0  0  0  0
   -3.6276   -2.5686    1.9395 H   0  0  0  0  0  0  0  0  0  0  0  0
   -1.7252   -2.1318    0.9973 C   0  0  0  0  0  0  0  0  0  0  0  0
   -2.1489   -2.0862   -0.0190 H   0  0  0  0  0  0  0  0  0  0  0  0
    2.4467   -1.4913    0.2575 C   0  0  0  0  0  0  0  0  0  0  0  0
    2.6153   -2.4216    0.8410 H   0  0  0  0  0  0  0  0  0  0  0  0
    2.9882   -1.6144   -0.7025 H   0  0  0  0  0  0  0  0  0  0  0  0
    2.9648   -0.2358    0.9678 C   0  0  0  0  0  0  0  0  0  0  0  0
    2.5848    0.6388    0.4106 H   0  0  0  0  0  0  0  0  0  0  0  0
    2.5566   -0.1626    1.9946 H   0  0  0  0  0  0  0  0  0  0  0  0
    4.4728   -0.1756    1.0069 C   0  0  0  0  0  0  0  0  0  0  0  0
    5.1989   -0.5738    2.1458 C   0  0  0  0  0  0  0  0  0  0  0  0
    4.6533   -0.9178    3.0398 H   0  0  0  0  0  0  0  0  0  0  0  0
    6.6020   -0.5293    2.1568 C   0  0  0  0  0  0  0  0  0  0  0  0
    7.1537   -0.8415    3.0571 H   0  0  0  0  0  0  0  0  0  0  0  0
    7.3001   -0.0848    1.0232 C   0  0  0  0  0  0  0  0  0  0  0  0
    8.4002   -0.0474    1.0302 H   0  0  0  0  0  0  0  0  0  0  0  0
    6.5861    0.3161   -0.1187 C   0  0  0  0  0  0  0  0  0  0  0  0
    7.1267    0.6716   -1.0096 H   0  0  0  0  0  0  0  0  0  0  0  0
    5.1847    0.2719   -0.1266 C   0  0  0  0  0  0  0  0  0  0  0  0
    4.6180    0.5913   -1.0165 H   0  0  0  0  0  0  0  0  0  0  0  0
  1 24  1  0  0  0  0
  1 13  1  0  0  0  0
  2 11  1  0  0  0  0
  2  1  1  0  0  0  0
  3  2  2  0  0  0  0
  4  3  1  0  0  0  0
  5  7  2  0  0  0  0
  5  3  1  0  0  0  0
  6  5  1  0  0  0  0
  7  9  1  0  0  0  0
  8  7  1  0  0  0  0
  9 10  1  0  0  0  0
  9 11  2  0  0  0  0
 11 12  1  0  0  0  0
 13 14  1  0  0  0  0
 14 15  1  0  0  0  0
 14 16  2  0  0  0  0
 16 17  1  0  0  0  0
 18 16  1  0  0  0  0
 18 19  1  0  0  0  0
 20 18  2  0  0  0  0
 21 20  1  0  0  0  0
 22 13  2  0  0  0  0
 22 20  1  0  0  0  0
 23 22  1  0  0  0  0
 24 25  1  0  0  0  0
 24 27  1  0  0  0  0
 26 24  1  0  0  0  0
 27 30  1  0  0  0  0
 27 29  1  0  0  0  0
 28 27  1  0  0  0  0
 30 31  1  0  0  0  0
 31 33  2  0  0  0  0
 31 32  1  0  0  0  0
 33 34  1  0  0  0  0
 35 36  1  0  0  0  0
 35 33  1  0  0  0  0
 37 35  2  0  0  0  0
 38 37  1  0  0  0  0
 39 37  1  0  0  0  0
 39 30  2  0  0  0  0
 40 39  1  0  0  0  0
M  END
