1
 OpenBabel05122313063D

 49 50  0  0  1  0  0  0  0  0999 V2000
   -0.5556    0.0861    0.4755 P   0  0  2  0  0  0  0  0  0  0  0  0
   -3.6709   -0.6726    0.6670 Si  0  0  0  0  0  0  0  0  0  0  0  0
   -2.3088    0.2346   -2.1643 Si  0  0  0  0  0  0  0  0  0  0  0  0
   -0.8450   -0.1073    2.1873 N   0  0  0  0  0  0  0  0  0  0  0  0
   -0.7808    2.0121    0.6409 C   0  0  2  0  0  0  0  0  0  0  0  0
   -1.0043    1.0317    2.7638 C   0  0  0  0  0  0  0  0  0  0  0  0
   -2.0677   -0.5184   -0.3966 C   0  0  0  0  0  0  0  0  0  0  0  0
   -3.4110   -1.9822    2.0028 C   0  0  0  0  0  0  0  0  0  0  0  0
   -5.1005   -1.2938   -0.4154 C   0  0  0  0  0  0  0  0  0  0  0  0
   -4.2004    0.9930    1.4019 C   0  0  0  0  0  0  0  0  0  0  0  0
   -2.9990   -1.1259   -3.2801 C   0  0  0  0  0  0  0  0  0  0  0  0
   -3.4997    1.7127   -2.1325 C   0  0  0  0  0  0  0  0  0  0  0  0
   -0.6923    0.8171   -2.9569 C   0  0  0  0  0  0  0  0  0  0  0  0
    0.3659    2.8623    0.1784 C   0  0  0  0  0  0  0  0  0  0  0  0
    0.2591    3.6180   -1.0052 C   0  0  0  0  0  0  0  0  0  0  0  0
    1.3472    4.3708   -1.4709 C   0  0  0  0  0  0  0  0  0  0  0  0
    2.5482    4.3925   -0.7467 C   0  0  0  0  0  0  0  0  0  0  0  0
    2.6505    3.6700    0.4532 C   0  0  0  0  0  0  0  0  0  0  0  0
    1.5679    2.9097    0.9131 C   0  0  0  0  0  0  0  0  0  0  0  0
   -1.2236    1.2331    4.2275 C   0  0  0  0  0  0  0  0  0  0  0  0
   -1.0038    2.2026    2.0575 O   0  0  0  0  0  0  0  0  0  0  0  0
   -1.7147    2.2919    0.1129 H   0  0  0  0  0  0  0  0  0  0  0  0
   -1.7981   -1.5754   -0.6250 H   0  0  0  0  0  0  0  0  0  0  0  0
   -2.5832   -1.7099    2.6842 H   0  0  0  0  0  0  0  0  0  0  0  0
   -3.1542   -2.9563    1.5366 H   0  0  0  0  0  0  0  0  0  0  0  0
   -4.3422   -2.1229    2.5899 H   0  0  0  0  0  0  0  0  0  0  0  0
   -5.9904   -1.4377    0.2327 H   0  0  0  0  0  0  0  0  0  0  0  0
   -5.3863   -0.5920   -1.2231 H   0  0  0  0  0  0  0  0  0  0  0  0
   -4.8644   -2.2747   -0.8754 H   0  0  0  0  0  0  0  0  0  0  0  0
   -5.0421    0.8248    2.1055 H   0  0  0  0  0  0  0  0  0  0  0  0
   -4.5636    1.6764    0.6087 H   0  0  0  0  0  0  0  0  0  0  0  0
   -3.4014    1.5211    1.9556 H   0  0  0  0  0  0  0  0  0  0  0  0
   -2.2839   -1.9726   -3.3257 H   0  0  0  0  0  0  0  0  0  0  0  0
   -3.1173   -0.7318   -4.3108 H   0  0  0  0  0  0  0  0  0  0  0  0
   -3.9804   -1.5119   -2.9465 H   0  0  0  0  0  0  0  0  0  0  0  0
   -3.1387    2.5444   -1.4937 H   0  0  0  0  0  0  0  0  0  0  0  0
   -3.6014    2.1103   -3.1637 H   0  0  0  0  0  0  0  0  0  0  0  0
   -4.5126    1.4345   -1.7810 H   0  0  0  0  0  0  0  0  0  0  0  0
   -0.0596   -0.0403   -3.2535 H   0  0  0  0  0  0  0  0  0  0  0  0
   -0.0793    1.4823   -2.3213 H   0  0  0  0  0  0  0  0  0  0  0  0
   -0.9459    1.3799   -3.8801 H   0  0  0  0  0  0  0  0  0  0  0  0
   -0.6879    3.6191   -1.5665 H   0  0  0  0  0  0  0  0  0  0  0  0
    1.2523    4.9487   -2.4024 H   0  0  0  0  0  0  0  0  0  0  0  0
    3.5847    3.6916    1.0342 H   0  0  0  0  0  0  0  0  0  0  0  0
    3.4038    4.9791   -1.1133 H   0  0  0  0  0  0  0  0  0  0  0  0
    1.6526    2.3574    1.8588 H   0  0  0  0  0  0  0  0  0  0  0  0
   -1.1129    0.2727    4.7582 H   0  0  0  0  0  0  0  0  0  0  0  0
   -2.2404    1.6406    4.4022 H   0  0  0  0  0  0  0  0  0  0  0  0
   -0.5012    1.9740    4.6232 H   0  0  0  0  0  0  0  0  0  0  0  0
  1  7  1  6  0  0  0
  1  5  1  0  0  0  0
  1  4  1  0  0  0  0
  2 10  1  0  0  0  0
  2  8  1  0  0  0  0
  3 12  1  0  0  0  0
  3  7  1  0  0  0  0
  4  6  2  0  0  0  0
  5 22  1  6  0  0  0
  5 21  1  0  0  0  0
  6 20  1  0  0  0  0
  7  2  1  0  0  0  0
  8 26  1  0  0  0  0
  8 24  1  0  0  0  0
  9 27  1  0  0  0  0
  9  2  1  0  0  0  0
 10 32  1  0  0  0  0
 10 30  1  0  0  0  0
 11 35  1  0  0  0  0
 11  3  1  0  0  0  0
 12 38  1  0  0  0  0
 12 36  1  0  0  0  0
 13 40  1  0  0  0  0
 13  3  1  0  0  0  0
 14  5  1  0  0  0  0
 14 19  1  0  0  0  0
 15 14  2  0  0  0  0
 16 15  1  0  0  0  0
 16 17  2  0  0  0  0
 17 18  1  0  0  0  0
 18 19  2  0  0  0  0
 18 44  1  0  0  0  0
 19 46  1  0  0  0  0
 20 48  1  0  0  0  0
 20 49  1  0  0  0  0
 20 47  1  0  0  0  0
 21  6  1  0  0  0  0
 23  7  1  0  0  0  0
 25  8  1  0  0  0  0
 28  9  1  0  0  0  0
 29  9  1  0  0  0  0
 31 10  1  0  0  0  0
 33 11  1  0  0  0  0
 34 11  1  0  0  0  0
 37 12  1  0  0  0  0
 39 13  1  0  0  0  0
 41 13  1  0  0  0  0
 42 15  1  0  0  0  0
 43 16  1  0  0  0  0
 45 17  1  0  0  0  0
M  END
