1
 OpenBabel05122313063D

 22 24  0  0  0  0  0  0  0  0999 V2000
    1.0678    0.6505    0.3207 P   0  0  2  0  0  0  0  0  0  0  0  0
    1.5537    2.3933    0.1185 C   0  0  0  0  0  0  0  0  0  0  0  0
    1.5086    1.9882    1.5564 C   0  0  0  0  0  0  0  0  0  0  0  0
    2.4842    3.2002   -0.7302 C   0  0  0  0  0  0  0  0  0  0  0  0
    1.0114    3.5627   -0.6371 C   0  0  0  0  0  0  0  0  0  0  0  0
    2.5899   -0.3556    0.1288 C   0  0  0  0  0  0  0  0  0  0  0  0
    3.8852    0.2061    0.1469 C   0  0  0  0  0  0  0  0  0  0  0  0
    5.0109   -0.6157   -0.0005 C   0  0  0  0  0  0  0  0  0  0  0  0
    4.8605   -2.0025   -0.1687 C   0  0  0  0  0  0  0  0  0  0  0  0
    3.5762   -2.5660   -0.1871 C   0  0  0  0  0  0  0  0  0  0  0  0
    2.4459   -1.7477   -0.0403 C   0  0  0  0  0  0  0  0  0  0  0  0
    2.4605    1.8472    2.0982 H   0  0  0  0  0  0  0  0  0  0  0  0
    0.6728    2.3533    2.1782 H   0  0  0  0  0  0  0  0  0  0  0  0
    2.8495    2.7560   -1.6699 H   0  0  0  0  0  0  0  0  0  0  0  0
    3.2139    3.8447   -0.2120 H   0  0  0  0  0  0  0  0  0  0  0  0
    0.7314    4.4506   -0.0468 H   0  0  0  0  0  0  0  0  0  0  0  0
    0.3717    3.3714   -1.5118 H   0  0  0  0  0  0  0  0  0  0  0  0
    4.0177    1.2903    0.2710 H   0  0  0  0  0  0  0  0  0  0  0  0
    6.0160   -0.1675    0.0134 H   0  0  0  0  0  0  0  0  0  0  0  0
    5.7473   -2.6434   -0.2855 H   0  0  0  0  0  0  0  0  0  0  0  0
    3.4481   -3.6511   -0.3162 H   0  0  0  0  0  0  0  0  0  0  0  0
    1.4413   -2.1950   -0.0516 H   0  0  0  0  0  0  0  0  0  0  0  0
  1  6  1  6  0  0  0
  1  3  1  0  0  0  0
  2  1  1  0  0  0  0
  2  3  1  0  0  0  0
  3 12  1  0  0  0  0
  3 13  1  0  0  0  0
  4  5  1  0  0  0  0
  4 15  1  0  0  0  0
  4  2  1  0  0  0  0
  5 16  1  0  0  0  0
  5  2  1  0  0  0  0
  6  7  1  0  0  0  0
  7 18  1  0  0  0  0
  8 19  1  0  0  0  0
  8  7  2  0  0  0  0
  9  8  1  0  0  0  0
 10  9  2  0  0  0  0
 10 11  1  0  0  0  0
 11  6  2  0  0  0  0
 14  4  1  0  0  0  0
 17  5  1  0  0  0  0
 20  9  1  0  0  0  0
 21 10  1  0  0  0  0
 22 11  1  0  0  0  0
M  END
