1
 OpenBabel05122313063D

 35 36  0  0  0  0  0  0  0  0999 V2000
   -1.8393   -0.1560   -0.1197 P   0  0  0  0  0  0  0  0  0  0  0  0
   -3.2169   -0.1643   -1.0722 N   0  0  0  0  0  0  0  0  0  0  0  0
   -3.0483   -0.6371   -1.9822 H   0  0  0  0  0  0  0  0  0  0  0  0
   -4.5933    0.0682   -0.6397 C   0  0  0  0  0  0  0  0  0  0  0  0
   -4.5414    0.5952    0.3398 H   0  0  0  0  0  0  0  0  0  0  0  0
   -5.2930    1.0022   -1.6342 C   0  0  0  0  0  0  0  0  0  0  0  0
   -4.7567    1.9683   -1.7076 H   0  0  0  0  0  0  0  0  0  0  0  0
   -6.3402    1.1997   -1.3281 H   0  0  0  0  0  0  0  0  0  0  0  0
   -5.3138    0.5446   -2.6452 H   0  0  0  0  0  0  0  0  0  0  0  0
   -5.3589   -1.2493   -0.4510 C   0  0  0  0  0  0  0  0  0  0  0  0
   -5.4220   -1.7965   -1.4144 H   0  0  0  0  0  0  0  0  0  0  0  0
   -6.3932   -1.0665   -0.0941 H   0  0  0  0  0  0  0  0  0  0  0  0
   -4.8475   -1.9068    0.2789 H   0  0  0  0  0  0  0  0  0  0  0  0
   -1.8766    1.5248    0.6314 C   0  0  0  0  0  0  0  0  0  0  0  0
   -1.7833    1.8097    2.0064 C   0  0  0  0  0  0  0  0  0  0  0  0
   -1.6883    0.9948    2.7354 H   0  0  0  0  0  0  0  0  0  0  0  0
   -1.7902    3.1412    2.4535 C   0  0  0  0  0  0  0  0  0  0  0  0
   -1.7258    3.3523    3.5320 H   0  0  0  0  0  0  0  0  0  0  0  0
   -1.8718    4.1962    1.5317 C   0  0  0  0  0  0  0  0  0  0  0  0
   -1.8716    5.2388    1.8846 H   0  0  0  0  0  0  0  0  0  0  0  0
   -1.9450    3.9176    0.1565 C   0  0  0  0  0  0  0  0  0  0  0  0
   -1.9910    4.7399   -0.5731 H   0  0  0  0  0  0  0  0  0  0  0  0
   -1.9513    2.5906   -0.2920 C   0  0  0  0  0  0  0  0  0  0  0  0
   -2.0057    2.3638   -1.3682 H   0  0  0  0  0  0  0  0  0  0  0  0
   -2.0460   -1.3501    1.2775 C   0  0  0  0  0  0  0  0  0  0  0  0
   -1.2630   -2.5252    1.2639 C   0  0  0  0  0  0  0  0  0  0  0  0
   -0.5323   -2.6635    0.4487 H   0  0  0  0  0  0  0  0  0  0  0  0
   -1.4146   -3.4944    2.2675 C   0  0  0  0  0  0  0  0  0  0  0  0
   -0.7938   -4.4029    2.2471 H   0  0  0  0  0  0  0  0  0  0  0  0
   -2.3590   -3.3063    3.2887 C   0  0  0  0  0  0  0  0  0  0  0  0
   -2.4787   -4.0648    4.0770 H   0  0  0  0  0  0  0  0  0  0  0  0
   -3.1590   -2.1510    3.2979 C   0  0  0  0  0  0  0  0  0  0  0  0
   -3.9091   -2.0063    4.0904 H   0  0  0  0  0  0  0  0  0  0  0  0
   -3.0075   -1.1788    2.2984 C   0  0  0  0  0  0  0  0  0  0  0  0
   -3.6428   -0.2807    2.3162 H   0  0  0  0  0  0  0  0  0  0  0  0
  1 14  1  0  0  0  0
  1 25  1  0  0  0  0
  2  4  1  0  0  0  0
  2  1  1  0  0  0  0
  3  2  1  0  0  0  0
  4 10  1  0  0  0  0
  4  5  1  0  0  0  0
  6  8  1  0  0  0  0
  6  4  1  0  0  0  0
  7  6  1  0  0  0  0
  9  6  1  0  0  0  0
 10 12  1  0  0  0  0
 10 13  1  0  0  0  0
 11 10  1  0  0  0  0
 14 15  1  0  0  0  0
 15 17  2  0  0  0  0
 15 16  1  0  0  0  0
 17 18  1  0  0  0  0
 19 20  1  0  0  0  0
 19 17  1  0  0  0  0
 21 19  2  0  0  0  0
 22 21  1  0  0  0  0
 23 21  1  0  0  0  0
 23 14  2  0  0  0  0
 24 23  1  0  0  0  0
 25 34  1  0  0  0  0
 26 25  2  0  0  0  0
 26 28  1  0  0  0  0
 27 26  1  0  0  0  0
 28 30  2  0  0  0  0
 29 28  1  0  0  0  0
 30 32  1  0  0  0  0
 30 31  1  0  0  0  0
 32 33  1  0  0  0  0
 34 35  1  0  0  0  0
 34 32  2  0  0  0  0
M  END
