1
 OpenBabel05122313063D

 50 53  0  0  0  0  0  0  0  0999 V2000
   -0.5318    1.0996    0.1009 P   0  0  0  0  0  0  0  0  0  0  0  0
    1.9128   -0.4025   -1.0504 P   0  0  0  0  0  0  0  0  0  0  0  0
    1.2304   -1.1685   -2.1662 O   0  0  0  0  0  0  0  0  0  0  0  0
    1.1105    1.2512   -0.7515 C   0  0  0  0  0  0  0  0  0  0  0  0
   -1.3553    2.6872   -0.3253 C   0  0  0  0  0  0  0  0  0  0  0  0
   -1.7757    2.8520   -1.6632 C   0  0  0  0  0  0  0  0  0  0  0  0
   -2.4186    4.0322   -2.0576 C   0  0  0  0  0  0  0  0  0  0  0  0
   -2.6646    5.0484   -1.1185 C   0  0  0  0  0  0  0  0  0  0  0  0
   -2.2685    4.8773    0.2160 C   0  0  0  0  0  0  0  0  0  0  0  0
   -1.6145    3.7007    0.6165 C   0  0  0  0  0  0  0  0  0  0  0  0
   -0.1356    1.1862    1.8888 C   0  0  0  0  0  0  0  0  0  0  0  0
   -0.7588    0.2743    2.7621 C   0  0  0  0  0  0  0  0  0  0  0  0
   -0.4653    0.3016    4.1336 C   0  0  0  0  0  0  0  0  0  0  0  0
    0.4478    1.2379    4.6409 C   0  0  0  0  0  0  0  0  0  0  0  0
    1.0690    2.1535    3.7745 C   0  0  0  0  0  0  0  0  0  0  0  0
    0.7798    2.1292    2.4034 C   0  0  0  0  0  0  0  0  0  0  0  0
    3.6732    0.0104   -1.3497 C   0  0  0  0  0  0  0  0  0  0  0  0
    4.6848   -0.8662   -0.9061 C   0  0  0  0  0  0  0  0  0  0  0  0
    6.0277   -0.6117   -1.2209 C   0  0  0  0  0  0  0  0  0  0  0  0
    6.3716    0.5166   -1.9823 C   0  0  0  0  0  0  0  0  0  0  0  0
    5.3686    1.3889   -2.4349 C   0  0  0  0  0  0  0  0  0  0  0  0
    4.0250    1.1359   -2.1234 C   0  0  0  0  0  0  0  0  0  0  0  0
    1.8621   -1.2553    0.5647 C   0  0  0  0  0  0  0  0  0  0  0  0
    1.0653   -2.4137    0.6445 C   0  0  0  0  0  0  0  0  0  0  0  0
    0.9131   -3.0681    1.8774 C   0  0  0  0  0  0  0  0  0  0  0  0
    1.5625   -2.5749    3.0196 C   0  0  0  0  0  0  0  0  0  0  0  0
    2.3697   -1.4265    2.9366 C   0  0  0  0  0  0  0  0  0  0  0  0
    2.5186   -0.7636    1.7113 C   0  0  0  0  0  0  0  0  0  0  0  0
    0.9110    1.6710   -1.7586 H   0  0  0  0  0  0  0  0  0  0  0  0
    1.7731    1.9503   -0.2033 H   0  0  0  0  0  0  0  0  0  0  0  0
   -1.6172    2.0407   -2.3927 H   0  0  0  0  0  0  0  0  0  0  0  0
   -2.7431    4.1529   -3.1021 H   0  0  0  0  0  0  0  0  0  0  0  0
   -3.1778    5.9716   -1.4276 H   0  0  0  0  0  0  0  0  0  0  0  0
   -2.4720    5.6643    0.9580 H   0  0  0  0  0  0  0  0  0  0  0  0
   -1.3146    3.5705    1.6665 H   0  0  0  0  0  0  0  0  0  0  0  0
   -1.4589   -0.4707    2.3518 H   0  0  0  0  0  0  0  0  0  0  0  0
   -0.9487   -0.4220    4.8067 H   0  0  0  0  0  0  0  0  0  0  0  0
    0.6799    1.2554    5.7166 H   0  0  0  0  0  0  0  0  0  0  0  0
    1.7844    2.8907    4.1695 H   0  0  0  0  0  0  0  0  0  0  0  0
    1.2711    2.8530    1.7344 H   0  0  0  0  0  0  0  0  0  0  0  0
    4.4178   -1.7517   -0.3093 H   0  0  0  0  0  0  0  0  0  0  0  0
    6.8109   -1.3005   -0.8696 H   0  0  0  0  0  0  0  0  0  0  0  0
    7.4259    0.7156   -2.2274 H   0  0  0  0  0  0  0  0  0  0  0  0
    5.6340    2.2707   -3.0376 H   0  0  0  0  0  0  0  0  0  0  0  0
    3.2466    1.8198   -2.4957 H   0  0  0  0  0  0  0  0  0  0  0  0
    0.5659   -2.7827   -0.2648 H   0  0  0  0  0  0  0  0  0  0  0  0
    0.2781   -3.9644    1.9407 H   0  0  0  0  0  0  0  0  0  0  0  0
    1.4396   -3.0881    3.9858 H   0  0  0  0  0  0  0  0  0  0  0  0
    2.8754   -1.0398    3.8339 H   0  0  0  0  0  0  0  0  0  0  0  0
    3.1454    0.1397    1.6491 H   0  0  0  0  0  0  0  0  0  0  0  0
  1 11  1  0  0  0  0
  2  4  1  0  0  0  0
  2 23  1  0  0  0  0
  3  2  2  0  0  0  0
  4 30  1  0  0  0  0
  4  1  1  0  0  0  0
  5  1  1  0  0  0  0
  5 10  1  0  0  0  0
  6  5  2  0  0  0  0
  7  6  1  0  0  0  0
  7  8  2  0  0  0  0
  8  9  1  0  0  0  0
  9 10  2  0  0  0  0
  9 34  1  0  0  0  0
 10 35  1  0  0  0  0
 11 16  2  0  0  0  0
 11 12  1  0  0  0  0
 12 13  2  0  0  0  0
 13 14  1  0  0  0  0
 13 37  1  0  0  0  0
 14 38  1  0  0  0  0
 15 39  1  0  0  0  0
 15 14  2  0  0  0  0
 16 15  1  0  0  0  0
 17  2  1  0  0  0  0
 17 18  1  0  0  0  0
 18 41  1  0  0  0  0
 19 18  2  0  0  0  0
 19 42  1  0  0  0  0
 20 19  1  0  0  0  0
 21 22  1  0  0  0  0
 21 20  2  0  0  0  0
 22 17  2  0  0  0  0
 23 24  2  0  0  0  0
 23 28  1  0  0  0  0
 24 25  1  0  0  0  0
 25 47  1  0  0  0  0
 25 26  2  0  0  0  0
 26 48  1  0  0  0  0
 27 26  1  0  0  0  0
 27 49  1  0  0  0  0
 28 27  2  0  0  0  0
 29  4  1  0  0  0  0
 31  6  1  0  0  0  0
 32  7  1  0  0  0  0
 33  8  1  0  0  0  0
 36 12  1  0  0  0  0
 40 16  1  0  0  0  0
 43 20  1  0  0  0  0
 44 21  1  0  0  0  0
 45 22  1  0  0  0  0
 46 24  1  0  0  0  0
 50 28  1  0  0  0  0
M  END
