1
 OpenBabel05122313063D

 33 35  0  0  0  0  0  0  0  0999 V2000
   -1.6430    0.2251    0.1778 P   0  0  0  0  0  0  0  0  0  0  0  0
   -1.3347   -0.7636   -2.2822 O   0  0  0  0  0  0  0  0  0  0  0  0
   -3.2163   -0.4468   -0.3115 N   0  0  0  0  0  0  0  0  0  0  0  0
   -1.6850    1.7490   -0.6685 N   0  0  0  0  0  0  0  0  0  0  0  0
   -2.1147    0.8619    1.7448 N   0  0  0  0  0  0  0  0  0  0  0  0
   -4.3474   -0.4841    0.4780 C   0  0  0  0  0  0  0  0  0  0  0  0
   -4.4100    0.0976    1.4034 H   0  0  0  0  0  0  0  0  0  0  0  0
   -5.2776   -1.3426   -0.1062 C   0  0  0  0  0  0  0  0  0  0  0  0
   -6.2779   -1.5544    0.2875 H   0  0  0  0  0  0  0  0  0  0  0  0
   -4.6840   -1.8790   -1.2747 C   0  0  0  0  0  0  0  0  0  0  0  0
   -5.1326   -2.5904   -1.9770 H   0  0  0  0  0  0  0  0  0  0  0  0
   -3.4027   -1.3248   -1.3894 C   0  0  0  0  0  0  0  0  0  0  0  0
   -2.3351   -1.5042   -2.3491 C   0  0  0  0  0  0  0  0  0  0  0  0
   -2.4155   -2.6316   -3.3456 C   0  0  0  0  0  0  0  0  0  0  0  0
   -1.7244   -2.4376   -4.1857 H   0  0  0  0  0  0  0  0  0  0  0  0
   -3.4429   -2.7963   -3.7225 H   0  0  0  0  0  0  0  0  0  0  0  0
   -2.0926   -3.5604   -2.8281 H   0  0  0  0  0  0  0  0  0  0  0  0
   -2.4399    2.0703   -1.7961 C   0  0  0  0  0  0  0  0  0  0  0  0
   -3.1145    1.3370   -2.2454 H   0  0  0  0  0  0  0  0  0  0  0  0
   -2.1487    3.3766   -2.1441 C   0  0  0  0  0  0  0  0  0  0  0  0
   -2.5887    3.9215   -2.9871 H   0  0  0  0  0  0  0  0  0  0  0  0
   -1.1808    3.8717   -1.2095 C   0  0  0  0  0  0  0  0  0  0  0  0
   -0.7255    4.8677   -1.1927 H   0  0  0  0  0  0  0  0  0  0  0  0
   -0.9094    2.8549   -0.3134 C   0  0  0  0  0  0  0  0  0  0  0  0
   -0.2493    2.8257    0.5594 H   0  0  0  0  0  0  0  0  0  0  0  0
   -1.9017    0.1716    2.9420 C   0  0  0  0  0  0  0  0  0  0  0  0
   -1.3609   -0.7822    2.9313 H   0  0  0  0  0  0  0  0  0  0  0  0
   -2.5166    0.8817    3.9575 C   0  0  0  0  0  0  0  0  0  0  0  0
   -2.5216    0.5997    5.0166 H   0  0  0  0  0  0  0  0  0  0  0  0
   -3.1310    2.0375    3.3698 C   0  0  0  0  0  0  0  0  0  0  0  0
   -3.6895    2.8237    3.8916 H   0  0  0  0  0  0  0  0  0  0  0  0
   -2.8783    2.0036    2.0097 C   0  0  0  0  0  0  0  0  0  0  0  0
   -3.1514    2.6941    1.2062 H   0  0  0  0  0  0  0  0  0  0  0  0
  1  5  1  0  0  0  0
  3  1  1  0  0  0  0
  3  6  1  0  0  0  0
  4 24  1  0  0  0  0
  4  1  1  0  0  0  0
  5 32  1  0  0  0  0
  5 26  1  0  0  0  0
  6  7  1  0  0  0  0
  8  9  1  0  0  0  0
  8  6  2  0  0  0  0
 10  8  1  0  0  0  0
 11 10  1  0  0  0  0
 12 10  2  0  0  0  0
 12  3  1  0  0  0  0
 13  2  2  0  0  0  0
 13 12  1  0  0  0  0
 14 17  1  0  0  0  0
 14 13  1  0  0  0  0
 15 14  1  0  0  0  0
 16 14  1  0  0  0  0
 18  4  1  0  0  0  0
 19 18  1  0  0  0  0
 20 18  2  0  0  0  0
 20 22  1  0  0  0  0
 21 20  1  0  0  0  0
 22 23  1  0  0  0  0
 22 24  2  0  0  0  0
 24 25  1  0  0  0  0
 26 28  2  0  0  0  0
 27 26  1  0  0  0  0
 28 29  1  0  0  0  0
 30 31  1  0  0  0  0
 30 28  1  0  0  0  0
 32 30  2  0  0  0  0
 33 32  1  0  0  0  0
M  END
