51
 OpenBabel05122313063D

 51 54  0  0  1  0  0  0  0  0999 V2000
   -1.9477   -0.6555   -0.1246 C   0  0  2  0  0  0  0  0  0  0  0  0
   -2.0119   -1.2604   -1.0522 H   0  0  0  0  0  0  0  0  0  0  0  0
   -3.2669    0.0789    0.0996 C   0  0  0  0  0  0  0  0  0  0  0  0
   -3.2812    0.6237    1.0645 H   0  0  0  0  0  0  0  0  0  0  0  0
   -3.4155    0.8581   -0.6809 H   0  0  0  0  0  0  0  0  0  0  0  0
   -4.4652   -0.8668    0.0236 C   0  0  0  0  0  0  0  0  0  0  0  0
   -5.8175   -0.3192    0.3829 C   0  0  0  0  0  0  0  0  0  0  0  0
   -6.9203   -1.1978    0.3127 C   0  0  0  0  0  0  0  0  0  0  0  0
   -6.7264   -2.2355    0.0027 H   0  0  0  0  0  0  0  0  0  0  0  0
   -8.2067   -0.7498    0.6294 C   0  0  0  0  0  0  0  0  0  0  0  0
   -9.0602   -1.4426    0.5742 H   0  0  0  0  0  0  0  0  0  0  0  0
   -8.4091    0.5862    1.0183 C   0  0  0  0  0  0  0  0  0  0  0  0
   -9.4210    0.9405    1.2678 H   0  0  0  0  0  0  0  0  0  0  0  0
   -7.3200    1.4695    1.0891 C   0  0  0  0  0  0  0  0  0  0  0  0
   -7.4775    2.5155    1.3927 H   0  0  0  0  0  0  0  0  0  0  0  0
   -6.0297    1.0202    0.7747 C   0  0  0  0  0  0  0  0  0  0  0  0
   -5.1867    1.7236    0.8359 H   0  0  0  0  0  0  0  0  0  0  0  0
   -1.5345   -1.5837    1.0007 C   0  0  0  0  0  0  0  0  0  0  0  0
   -1.7130   -1.2524    2.3609 C   0  0  0  0  0  0  0  0  0  0  0  0
   -2.2134   -0.3084    2.6415 H   0  0  0  0  0  0  0  0  0  0  0  0
   -1.3033   -2.0153    3.3869 N   0  0  0  0  0  0  0  0  0  0  0  0
   -0.6865   -3.1700    3.0949 C   0  0  0  0  0  0  0  0  0  0  0  0
   -0.3519   -3.7801    3.9539 H   0  0  0  0  0  0  0  0  0  0  0  0
   -0.4659   -3.6136    1.7801 C   0  0  0  0  0  0  0  0  0  0  0  0
    0.0299   -4.5785    1.5923 H   0  0  0  0  0  0  0  0  0  0  0  0
   -0.8939   -2.8077    0.7184 C   0  0  0  0  0  0  0  0  0  0  0  0
   -0.7345   -3.0997   -0.3321 H   0  0  0  0  0  0  0  0  0  0  0  0
   -0.4167    1.4668    1.0904 C   0  0  0  0  0  0  0  0  0  0  0  0
   -1.3380    2.4935    1.3932 C   0  0  0  0  0  0  0  0  0  0  0  0
   -2.0545    2.8369    0.6328 H   0  0  0  0  0  0  0  0  0  0  0  0
   -1.3461    3.0828    2.6667 C   0  0  0  0  0  0  0  0  0  0  0  0
   -2.0651    3.8854    2.8910 H   0  0  0  0  0  0  0  0  0  0  0  0
   -0.4442    2.6479    3.6516 C   0  0  0  0  0  0  0  0  0  0  0  0
   -0.4553    3.1094    4.6507 H   0  0  0  0  0  0  0  0  0  0  0  0
    0.4679    1.6228    3.3594 C   0  0  0  0  0  0  0  0  0  0  0  0
    1.1717    1.2707    4.1278 H   0  0  0  0  0  0  0  0  0  0  0  0
    0.4827    1.0353    2.0868 C   0  0  0  0  0  0  0  0  0  0  0  0
    1.1953    0.2310    1.8537 H   0  0  0  0  0  0  0  0  0  0  0  0
   -1.0845    1.6647   -1.7780 C   0  0  0  0  0  0  0  0  0  0  0  0
   -1.7215    1.1180   -2.9153 C   0  0  0  0  0  0  0  0  0  0  0  0
   -1.8700    0.0295   -2.9887 H   0  0  0  0  0  0  0  0  0  0  0  0
   -2.1076    1.9530   -3.9726 C   0  0  0  0  0  0  0  0  0  0  0  0
   -2.6051    1.5167   -4.8520 H   0  0  0  0  0  0  0  0  0  0  0  0
   -1.8479    3.3324   -3.9206 C   0  0  0  0  0  0  0  0  0  0  0  0
   -2.1497    3.9835   -4.7550 H   0  0  0  0  0  0  0  0  0  0  0  0
   -1.1893    3.8752   -2.8069 C   0  0  0  0  0  0  0  0  0  0  0  0
   -0.9676    4.9525   -2.7654 H   0  0  0  0  0  0  0  0  0  0  0  0
   -0.8078    3.0482   -1.7391 C   0  0  0  0  0  0  0  0  0  0  0  0
   -0.2915    3.4867   -0.8725 H   0  0  0  0  0  0  0  0  0  0  0  0
   -4.3316   -2.0294   -0.3401 O   0  0  0  0  0  0  0  0  0  0  0  0
   -0.4980    0.5107   -0.4781 P   0  0  0  0  0  0  0  0  0  0  0  0
  1  2  1  6  0  0  0
  1  3  1  0  0  0  0
  1 18  1  0  0  0  0
  3  4  1  0  0  0  0
  5  3  1  0  0  0  0
  6  3  1  0  0  0  0
  6  7  1  0  0  0  0
  7 16  1  0  0  0  0
  8  7  2  0  0  0  0
  8 10  1  0  0  0  0
  9  8  1  0  0  0  0
 10 12  2  0  0  0  0
 11 10  1  0  0  0  0
 12 14  1  0  0  0  0
 12 13  1  0  0  0  0
 14 15  1  0  0  0  0
 16 17  1  0  0  0  0
 16 14  2  0  0  0  0
 18 19  1  0  0  0  0
 19 20  1  0  0  0  0
 19 21  2  0  0  0  0
 22 21  1  0  0  0  0
 22 23  1  0  0  0  0
 24 22  2  0  0  0  0
 25 24  1  0  0  0  0
 26 18  2  0  0  0  0
 26 24  1  0  0  0  0
 27 26  1  0  0  0  0
 28 29  2  0  0  0  0
 28 37  1  0  0  0  0
 29 31  1  0  0  0  0
 30 29  1  0  0  0  0
 31 32  1  0  0  0  0
 31 33  2  0  0  0  0
 33 34  1  0  0  0  0
 35 33  1  0  0  0  0
 35 36  1  0  0  0  0
 37 35  2  0  0  0  0
 38 37  1  0  0  0  0
 39 48  1  0  0  0  0
 39 51  1  0  0  0  0
 40 39  2  0  0  0  0
 41 40  1  0  0  0  0
 42 44  2  0  0  0  0
 42 40  1  0  0  0  0
 43 42  1  0  0  0  0
 44 46  1  0  0  0  0
 45 44  1  0  0  0  0
 46 47  1  0  0  0  0
 46 48  2  0  0  0  0
 48 49  1  0  0  0  0
 50  6  2  0  0  0  0
 51  1  1  0  0  0  0
 51 28  1  0  0  0  0
M  END
