1
 OpenBabel05122313063D

 32 34  0  0  0  0  0  0  0  0999 V2000
    0.5820    0.0749    0.2314 P   0  0  0  0  0  0  0  0  0  0  0  0
    1.3462    1.1701   -1.0201 C   0  0  0  0  0  0  0  0  0  0  0  0
    2.0005    2.3627   -0.6590 C   0  0  0  0  0  0  0  0  0  0  0  0
    2.0212    2.6690    0.3980 H   0  0  0  0  0  0  0  0  0  0  0  0
    2.5999    3.1546   -1.6499 C   0  0  0  0  0  0  0  0  0  0  0  0
    3.1057    4.0909   -1.3690 H   0  0  0  0  0  0  0  0  0  0  0  0
    2.5480    2.7589   -2.9962 C   0  0  0  0  0  0  0  0  0  0  0  0
    3.0168    3.3839   -3.7714 H   0  0  0  0  0  0  0  0  0  0  0  0
    1.8861    1.5733   -3.3564 C   0  0  0  0  0  0  0  0  0  0  0  0
    1.8327    1.2686   -4.4124 H   0  0  0  0  0  0  0  0  0  0  0  0
    1.2781    0.7815   -2.3723 C   0  0  0  0  0  0  0  0  0  0  0  0
    0.7352   -0.1364   -2.6505 H   0  0  0  0  0  0  0  0  0  0  0  0
    1.9107   -1.0749    0.7481 C   0  0  0  0  0  0  0  0  0  0  0  0
    3.2229   -0.6109    0.9784 C   0  0  0  0  0  0  0  0  0  0  0  0
    3.4713    0.4484    0.8112 H   0  0  0  0  0  0  0  0  0  0  0  0
    4.2139   -1.5066    1.4034 C   0  0  0  0  0  0  0  0  0  0  0  0
    5.2376   -1.1445    1.5821 H   0  0  0  0  0  0  0  0  0  0  0  0
    3.9037   -2.8647    1.5892 C   0  0  0  0  0  0  0  0  0  0  0  0
    4.6861   -3.5660    1.9168 H   0  0  0  0  0  0  0  0  0  0  0  0
    2.6011   -3.3295    1.3501 C   0  0  0  0  0  0  0  0  0  0  0  0
    2.3584   -4.3937    1.4890 H   0  0  0  0  0  0  0  0  0  0  0  0
    1.6029   -2.4378    0.9295 C   0  0  0  0  0  0  0  0  0  0  0  0
    0.5774   -2.7905    0.7333 H   0  0  0  0  0  0  0  0  0  0  0  0
    0.4981    1.0685    1.6499 N   0  0  0  0  0  0  0  0  0  0  0  0
    0.8980    0.6860    2.5102 H   0  0  0  0  0  0  0  0  0  0  0  0
   -0.5722    1.9299    1.8506 C   0  0  0  0  0  0  0  0  0  0  0  0
   -0.9250    2.3857    3.0890 N   0  0  0  0  0  0  0  0  0  0  0  0
   -1.9772    3.1537    2.8178 C   0  0  0  0  0  3  0  0  0  0  0  0
   -2.5784    3.7183    3.5413 H   0  0  0  0  0  0  0  0  0  0  0  0
   -2.2233    3.1465    1.4840 N   0  0  0  0  0  0  0  0  0  0  0  0
   -2.9668    3.6084    0.9576 H   0  0  0  0  0  0  0  0  0  0  0  0
   -1.3257    2.3655    0.8339 N   0  0  0  0  0  2  0  0  0  0  0  0
  1 13  1  0  0  0  0
  1 24  1  0  0  0  0
  2  3  1  0  0  0  0
  2  1  1  0  0  0  0
  3  4  1  0  0  0  0
  5  6  1  0  0  0  0
  5  3  2  0  0  0  0
  7  5  1  0  0  0  0
  8  7  1  0  0  0  0
  9  7  2  0  0  0  0
  9 11  1  0  0  0  0
 10  9  1  0  0  0  0
 11  2  2  0  0  0  0
 12 11  1  0  0  0  0
 13 22  2  0  0  0  0
 13 14  1  0  0  0  0
 14 16  2  0  0  0  0
 15 14  1  0  0  0  0
 16 17  1  0  0  0  0
 16 18  1  0  0  0  0
 18 19  1  0  0  0  0
 20 21  1  0  0  0  0
 20 18  2  0  0  0  0
 22 20  1  0  0  0  0
 23 22  1  0  0  0  0
 24 26  1  0  0  0  0
 24 25  1  0  0  0  0
 26 27  2  0  0  0  0
 28 27  1  0  0  0  0
 28 29  1  0  0  0  0
 30 28  1  0  0  0  0
 31 30  1  0  0  0  0
 32 30  1  0  0  0  0
 32 26  1  0  0  0  0
M  END
