1
 OpenBabel05122313063D

 50 54  0  0  0  0  0  0  0  0999 V2000
   -0.1714    0.4364    0.0420 P   0  0  0  0  0  0  0  0  0  0  0  0
    0.3429   -2.0628    1.1887 N   0  0  0  0  0  0  0  0  0  0  0  0
   -0.2015   -3.2718    1.4553 N   0  0  0  0  0  0  0  0  0  0  0  0
   -1.4879   -3.1807    1.2727 N   0  0  0  0  0  0  0  0  0  0  0  0
   -0.1510    1.6707    1.3982 C   0  0  0  0  0  0  0  0  0  0  0  0
    0.5544    2.8742    1.1926 C   0  0  0  0  0  0  0  0  0  0  0  0
    1.0957    3.0320    0.2459 H   0  0  0  0  0  0  0  0  0  0  0  0
    0.5795    3.8511    2.1985 C   0  0  0  0  0  0  0  0  0  0  0  0
    1.1313    4.7886    2.0338 H   0  0  0  0  0  0  0  0  0  0  0  0
   -0.0827    3.6257    3.4166 C   0  0  0  0  0  0  0  0  0  0  0  0
   -0.0530    4.3894    4.2084 H   0  0  0  0  0  0  0  0  0  0  0  0
   -0.7713    2.4207    3.6298 C   0  0  0  0  0  0  0  0  0  0  0  0
   -1.2806    2.2363    4.5877 H   0  0  0  0  0  0  0  0  0  0  0  0
   -0.8090    1.4432    2.6236 C   0  0  0  0  0  0  0  0  0  0  0  0
   -1.3367    0.4927    2.7972 H   0  0  0  0  0  0  0  0  0  0  0  0
   -1.6070    0.8772   -1.0090 C   0  0  0  0  0  0  0  0  0  0  0  0
   -2.2776    2.1057   -0.8663 C   0  0  0  0  0  0  0  0  0  0  0  0
   -1.9642    2.8207   -0.0914 H   0  0  0  0  0  0  0  0  0  0  0  0
   -3.3629    2.4074   -1.7030 C   0  0  0  0  0  0  0  0  0  0  0  0
   -3.8879    3.3676   -1.5873 H   0  0  0  0  0  0  0  0  0  0  0  0
   -3.7852    1.4850   -2.6716 C   0  0  0  0  0  0  0  0  0  0  0  0
   -4.6462    1.7178   -3.3160 H   0  0  0  0  0  0  0  0  0  0  0  0
   -3.1039    0.2658   -2.8241 C   0  0  0  0  0  0  0  0  0  0  0  0
   -3.4284   -0.4581   -3.5862 H   0  0  0  0  0  0  0  0  0  0  0  0
   -2.0078   -0.0341   -2.0067 C   0  0  0  0  0  0  0  0  0  0  0  0
   -1.4706   -0.9871   -2.1312 H   0  0  0  0  0  0  0  0  0  0  0  0
   -0.6306   -1.1516    0.8122 C   0  0  0  0  0  0  0  0  0  0  0  0
   -1.8236   -1.9038    0.8934 C   0  0  0  0  0  0  0  0  0  0  0  0
   -3.2251   -1.5602    0.6138 C   0  0  0  0  0  0  0  0  0  0  0  0
   -4.0693   -2.5516    0.0638 C   0  0  0  0  0  0  0  0  0  0  0  0
   -3.6543   -3.5534   -0.1176 H   0  0  0  0  0  0  0  0  0  0  0  0
   -5.4012   -2.2552   -0.2489 C   0  0  0  0  0  0  0  0  0  0  0  0
   -6.0450   -3.0339   -0.6854 H   0  0  0  0  0  0  0  0  0  0  0  0
   -5.9140   -0.9688   -0.0128 C   0  0  0  0  0  0  0  0  0  0  0  0
   -6.9590   -0.7345   -0.2663 H   0  0  0  0  0  0  0  0  0  0  0  0
   -5.0903    0.0140    0.5582 C   0  0  0  0  0  0  0  0  0  0  0  0
   -5.4868    1.0203    0.7601 H   0  0  0  0  0  0  0  0  0  0  0  0
   -3.7592   -0.2815    0.8785 C   0  0  0  0  0  0  0  0  0  0  0  0
   -3.1297    0.4888    1.3435 H   0  0  0  0  0  0  0  0  0  0  0  0
    1.7532   -1.8686    1.2856 C   0  0  0  0  0  0  0  0  0  0  0  0
    2.6080   -2.7402    0.5904 C   0  0  0  0  0  0  0  0  0  0  0  0
    2.1758   -3.5626    0.0047 H   0  0  0  0  0  0  0  0  0  0  0  0
    3.9894   -2.5160    0.6335 C   0  0  0  0  0  0  0  0  0  0  0  0
    4.6636   -3.1762    0.0689 H   0  0  0  0  0  0  0  0  0  0  0  0
    4.5098   -1.4361    1.3644 C   0  0  0  0  0  0  0  0  0  0  0  0
    5.5938   -1.2513    1.3730 H   0  0  0  0  0  0  0  0  0  0  0  0
    3.6483   -0.5872    2.0755 C   0  0  0  0  0  0  0  0  0  0  0  0
    4.0531    0.2557    2.6544 H   0  0  0  0  0  0  0  0  0  0  0  0
    2.2636   -0.8020    2.0458 C   0  0  0  0  0  0  0  0  0  0  0  0
    1.5797   -0.1477    2.6041 H   0  0  0  0  0  0  0  0  0  0  0  0
  1 27  1  0  0  0  0
  1  5  1  0  0  0  0
  2 40  1  0  0  0  0
  2  3  1  0  0  0  0
  4  3  2  0  0  0  0
  5 14  1  0  0  0  0
  6  5  2  0  0  0  0
  6  8  1  0  0  0  0
  7  6  1  0  0  0  0
  8 10  2  0  0  0  0
  9  8  1  0  0  0  0
 10 12  1  0  0  0  0
 10 11  1  0  0  0  0
 12 13  1  0  0  0  0
 14 15  1  0  0  0  0
 14 12  2  0  0  0  0
 16 17  1  0  0  0  0
 16  1  1  0  0  0  0
 17 18  1  0  0  0  0
 19 20  1  0  0  0  0
 19 17  2  0  0  0  0
 21 19  1  0  0  0  0
 22 21  1  0  0  0  0
 23 21  2  0  0  0  0
 23 25  1  0  0  0  0
 24 23  1  0  0  0  0
 25 16  2  0  0  0  0
 26 25  1  0  0  0  0
 27 28  2  0  0  0  0
 27  2  1  0  0  0  0
 28  4  1  0  0  0  0
 29 38  1  0  0  0  0
 29 28  1  0  0  0  0
 30 29  2  0  0  0  0
 31 30  1  0  0  0  0
 32 34  2  0  0  0  0
 32 30  1  0  0  0  0
 33 32  1  0  0  0  0
 34 36  1  0  0  0  0
 35 34  1  0  0  0  0
 36 37  1  0  0  0  0
 36 38  2  0  0  0  0
 38 39  1  0  0  0  0
 40 49  1  0  0  0  0
 41 43  1  0  0  0  0
 41 40  2  0  0  0  0
 42 41  1  0  0  0  0
 43 45  2  0  0  0  0
 44 43  1  0  0  0  0
 45 46  1  0  0  0  0
 45 47  1  0  0  0  0
 47 48  1  0  0  0  0
 49 47  2  0  0  0  0
 49 50  1  0  0  0  0
M  END
