1
 OpenBabel05122313063D

 50 54  0  0  0  0  0  0  0  0999 V2000
    1.8219    0.0857    0.2399 P   0  0  0  0  0  0  0  0  0  0  0  0
    0.4649    2.9517   -0.0974 N   0  0  0  0  0  0  0  0  0  0  0  0
   -0.2554    3.7899   -0.9089 N   0  0  0  0  0  0  0  0  0  0  0  0
   -1.5136    3.6106   -0.6376 N   0  0  0  0  0  0  0  0  0  0  0  0
    1.5414   -0.1052    2.0559 C   0  0  0  0  0  0  0  0  0  0  0  0
    3.1886   -1.1042   -0.0871 C   0  0  0  0  0  0  0  0  0  0  0  0
    2.6279    1.7390    0.0686 C   0  0  0  0  0  0  0  0  0  0  0  0
   -0.3756    2.2285    0.7001 C   0  0  0  0  0  0  0  0  0  0  0  0
   -0.0237    1.5739    1.4992 H   0  0  0  0  0  0  0  0  0  0  0  0
    3.5703   -1.2850   -1.4378 C   0  0  0  0  0  0  0  0  0  0  0  0
    3.0892   -0.6671   -2.2195 H   0  0  0  0  0  0  0  0  0  0  0  0
    3.7681   -1.9045    0.9182 C   0  0  0  0  0  0  0  0  0  0  0  0
    3.4715   -1.7701    1.9690 H   0  0  0  0  0  0  0  0  0  0  0  0
   -1.6534    2.6560    0.3461 C   0  0  0  0  0  0  0  0  0  0  0  0
    4.5294   -2.2535   -1.7638 C   0  0  0  0  0  0  0  0  0  0  0  0
    4.8243   -2.3891   -2.8157 H   0  0  0  0  0  0  0  0  0  0  0  0
    4.7202   -2.8800    0.5777 C   0  0  0  0  0  0  0  0  0  0  0  0
    5.1663   -3.5043    1.3672 H   0  0  0  0  0  0  0  0  0  0  0  0
    0.5240   -0.9989    2.4567 C   0  0  0  0  0  0  0  0  0  0  0  0
   -0.0439   -1.5419    1.6853 H   0  0  0  0  0  0  0  0  0  0  0  0
    4.0352    1.8307    0.0222 C   0  0  0  0  0  0  0  0  0  0  0  0
    4.6308    0.9212    0.1888 H   0  0  0  0  0  0  0  0  0  0  0  0
    4.6839    3.0384   -0.2650 C   0  0  0  0  0  0  0  0  0  0  0  0
    5.7831    3.0744   -0.2949 H   0  0  0  0  0  0  0  0  0  0  0  0
    2.2485    0.6209    3.0358 C   0  0  0  0  0  0  0  0  0  0  0  0
    3.0354    1.3271    2.7292 H   0  0  0  0  0  0  0  0  0  0  0  0
    3.9267    4.1899   -0.5285 C   0  0  0  0  0  0  0  0  0  0  0  0
    4.4235    5.1409   -0.7718 H   0  0  0  0  0  0  0  0  0  0  0  0
    2.5310    4.1347   -0.4716 C   0  0  0  0  0  0  0  0  0  0  0  0
    1.9106    5.0193   -0.6668 H   0  0  0  0  0  0  0  0  0  0  0  0
    1.8817    2.9246   -0.1659 C   0  0  0  0  0  0  0  0  0  0  0  0
    5.1023   -3.0563   -0.7611 C   0  0  0  0  0  0  0  0  0  0  0  0
    5.8482   -3.8217   -1.0251 H   0  0  0  0  0  0  0  0  0  0  0  0
   -3.0720    0.9775    1.5434 C   0  0  0  0  0  0  0  0  0  0  0  0
   -2.1708    0.3834    1.7595 H   0  0  0  0  0  0  0  0  0  0  0  0
    0.2308   -1.1761    3.8163 C   0  0  0  0  0  0  0  0  0  0  0  0
   -0.5632   -1.8764    4.1177 H   0  0  0  0  0  0  0  0  0  0  0  0
   -4.3279    0.5093    1.9501 C   0  0  0  0  0  0  0  0  0  0  0  0
   -4.4020   -0.4438    2.4959 H   0  0  0  0  0  0  0  0  0  0  0  0
    1.9433    0.4503    4.3958 C   0  0  0  0  0  0  0  0  0  0  0  0
    2.4942    1.0263    5.1550 H   0  0  0  0  0  0  0  0  0  0  0  0
   -2.9560    2.1892    0.8253 C   0  0  0  0  0  0  0  0  0  0  0  0
   -5.4884    1.2421    1.6500 C   0  0  0  0  0  0  0  0  0  0  0  0
   -6.4747    0.8725    1.9693 H   0  0  0  0  0  0  0  0  0  0  0  0
   -5.3809    2.4509    0.9408 C   0  0  0  0  0  0  0  0  0  0  0  0
   -6.2855    3.0325    0.7052 H   0  0  0  0  0  0  0  0  0  0  0  0
   -4.1278    2.9218    0.5298 C   0  0  0  0  0  0  0  0  0  0  0  0
   -4.0288    3.8592   -0.0364 H   0  0  0  0  0  0  0  0  0  0  0  0
    0.9386   -0.4488    4.7883 C   0  0  0  0  0  0  0  0  0  0  0  0
    0.7001   -0.5769    5.8550 H   0  0  0  0  0  0  0  0  0  0  0  0
  1  5  1  0  0  0  0
  2  8  1  0  0  0  0
  3  4  2  0  0  0  0
  3  2  1  0  0  0  0
  4 14  1  0  0  0  0
  5 19  2  0  0  0  0
  5 25  1  0  0  0  0
  6  1  1  0  0  0  0
  6 12  1  0  0  0  0
  7  1  1  0  0  0  0
  8  9  1  0  0  0  0
 10  6  2  0  0  0  0
 11 10  1  0  0  0  0
 12 13  1  0  0  0  0
 14  8  2  0  0  0  0
 14 42  1  0  0  0  0
 15 10  1  0  0  0  0
 15 32  2  0  0  0  0
 16 15  1  0  0  0  0
 17 12  2  0  0  0  0
 17 18  1  0  0  0  0
 19 36  1  0  0  0  0
 20 19  1  0  0  0  0
 21  7  1  0  0  0  0
 21 22  1  0  0  0  0
 23 21  2  0  0  0  0
 24 23  1  0  0  0  0
 25 40  2  0  0  0  0
 26 25  1  0  0  0  0
 27 29  2  0  0  0  0
 27 23  1  0  0  0  0
 28 27  1  0  0  0  0
 29 31  1  0  0  0  0
 30 29  1  0  0  0  0
 31  2  1  0  0  0  0
 31  7  2  0  0  0  0
 32 17  1  0  0  0  0
 33 32  1  0  0  0  0
 34 35  1  0  0  0  0
 34 38  1  0  0  0  0
 36 37  1  0  0  0  0
 36 49  2  0  0  0  0
 38 39  1  0  0  0  0
 40 49  1  0  0  0  0
 40 41  1  0  0  0  0
 42 34  2  0  0  0  0
 43 38  2  0  0  0  0
 43 44  1  0  0  0  0
 45 43  1  0  0  0  0
 46 45  1  0  0  0  0
 47 42  1  0  0  0  0
 47 45  2  0  0  0  0
 48 47  1  0  0  0  0
 49 50  1  0  0  0  0
M  END
