1
 OpenBabel05122313063D

 50 55  0  0  0  0  0  0  0  0999 V2000
   -0.1055    1.1919   -0.2625 P   0  0  0  0  0  0  0  0  0  0  0  0
   -1.0762    0.2621   -1.5481 C   0  0  0  0  0  0  0  0  0  0  0  0
   -1.3668   -1.1043   -0.9800 C   0  0  0  0  0  0  0  0  0  0  0  0
   -2.4192   -1.2652   -0.0643 C   0  0  0  0  0  0  0  0  0  0  0  0
   -3.2507   -0.0727    0.2846 C   0  0  0  0  0  0  0  0  0  0  0  0
   -2.6331    1.0115    0.9326 C   0  0  0  0  0  0  0  0  0  0  0  0
   -1.1685    0.9510    1.2592 C   0  0  0  0  0  0  0  0  0  0  0  0
   -3.3826    2.1880    1.2209 C   0  0  0  0  0  0  0  0  0  0  0  0
   -4.7236    2.2783    0.8909 C   0  0  0  0  0  0  0  0  0  0  0  0
   -5.3840    1.2040    0.2286 C   0  0  0  0  0  0  0  0  0  0  0  0
   -4.6346    0.0121   -0.0938 C   0  0  0  0  0  0  0  0  0  0  0  0
   -5.2975   -1.0344   -0.8047 C   0  0  0  0  0  0  0  0  0  0  0  0
   -6.6346   -0.9238   -1.1554 C   0  0  0  0  0  0  0  0  0  0  0  0
   -7.3762    0.2397   -0.8161 C   0  0  0  0  0  0  0  0  0  0  0  0
   -6.7592    1.2816   -0.1414 C   0  0  0  0  0  0  0  0  0  0  0  0
   -2.6257   -2.5383    0.5706 C   0  0  0  0  0  0  0  0  0  0  0  0
   -1.7547   -3.6413    0.2378 C   0  0  0  0  0  0  0  0  0  0  0  0
   -1.9578   -4.9019    0.8728 C   0  0  0  0  0  0  0  0  0  0  0  0
   -2.9666   -5.0762    1.8074 C   0  0  0  0  0  0  0  0  0  0  0  0
   -3.8110   -3.9868    2.1514 C   0  0  0  0  0  0  0  0  0  0  0  0
   -3.6435   -2.7483    1.5498 C   0  0  0  0  0  0  0  0  0  0  0  0
   -0.7014   -3.4359   -0.6988 C   0  0  0  0  0  0  0  0  0  0  0  0
   -0.5087   -2.1984   -1.2864 C   0  0  0  0  0  0  0  0  0  0  0  0
   -0.2313    2.9807   -0.6320 C   0  0  0  0  0  0  0  0  0  0  0  0
    0.6887    3.8298    0.0257 C   0  0  0  0  0  0  0  0  0  0  0  0
    0.6216    5.2156   -0.1787 C   0  0  0  0  0  0  0  0  0  0  0  0
   -0.3455    5.7610   -1.0393 C   0  0  0  0  0  0  0  0  0  0  0  0
   -1.2568    4.9179   -1.6944 C   0  0  0  0  0  0  0  0  0  0  0  0
   -1.2049    3.5302   -1.4905 C   0  0  0  0  0  0  0  0  0  0  0  0
   -0.4532    0.2168   -2.4610 H   0  0  0  0  0  0  0  0  0  0  0  0
   -2.0122    0.8121   -1.7666 H   0  0  0  0  0  0  0  0  0  0  0  0
   -0.8631   -0.0317    1.6687 H   0  0  0  0  0  0  0  0  0  0  0  0
   -0.8470    1.7246    1.9809 H   0  0  0  0  0  0  0  0  0  0  0  0
   -2.8757    3.0288    1.7187 H   0  0  0  0  0  0  0  0  0  0  0  0
   -5.2961    3.1882    1.1289 H   0  0  0  0  0  0  0  0  0  0  0  0
   -4.7283   -1.9355   -1.0735 H   0  0  0  0  0  0  0  0  0  0  0  0
   -7.1250   -1.7427   -1.7031 H   0  0  0  0  0  0  0  0  0  0  0  0
   -8.4378    0.3138   -1.0966 H   0  0  0  0  0  0  0  0  0  0  0  0
   -7.3217    2.1928    0.1160 H   0  0  0  0  0  0  0  0  0  0  0  0
   -1.2883   -5.7354    0.6088 H   0  0  0  0  0  0  0  0  0  0  0  0
   -3.1101   -6.0544    2.2909 H   0  0  0  0  0  0  0  0  0  0  0  0
   -4.6013   -4.1257    2.9047 H   0  0  0  0  0  0  0  0  0  0  0  0
   -4.2957   -1.9080    1.8266 H   0  0  0  0  0  0  0  0  0  0  0  0
   -0.0230   -4.2705   -0.9331 H   0  0  0  0  0  0  0  0  0  0  0  0
    0.3219   -2.0392   -1.9892 H   0  0  0  0  0  0  0  0  0  0  0  0
    1.4564    3.4112    0.7015 H   0  0  0  0  0  0  0  0  0  0  0  0
    1.3400    5.8711    0.3366 H   0  0  0  0  0  0  0  0  0  0  0  0
   -0.3882    6.8487   -1.2028 H   0  0  0  0  0  0  0  0  0  0  0  0
   -2.0165    5.3411   -2.3690 H   0  0  0  0  0  0  0  0  0  0  0  0
   -1.9294    2.8819   -2.0044 H   0  0  0  0  0  0  0  0  0  0  0  0
  1  7  1  0  0  0  0
  2  3  1  0  0  0  0
  2  1  1  0  0  0  0
  3  4  1  0  0  0  0
  4  5  1  0  0  0  0
  4 16  2  0  0  0  0
  5  6  1  0  0  0  0
  6  8  2  0  0  0  0
  6  7  1  0  0  0  0
  7 32  1  0  0  0  0
  7 33  1  0  0  0  0
  8 34  1  0  0  0  0
  9 35  1  0  0  0  0
  9  8  1  0  0  0  0
 10  9  2  0  0  0  0
 11 10  1  0  0  0  0
 11  5  2  0  0  0  0
 12 11  1  0  0  0  0
 13 14  1  0  0  0  0
 13 12  2  0  0  0  0
 14 15  2  0  0  0  0
 15 39  1  0  0  0  0
 15 10  1  0  0  0  0
 16 21  1  0  0  0  0
 17 16  1  0  0  0  0
 17 18  1  0  0  0  0
 18 19  2  0  0  0  0
 19 20  1  0  0  0  0
 19 41  1  0  0  0  0
 20 42  1  0  0  0  0
 21 43  1  0  0  0  0
 21 20  2  0  0  0  0
 22 17  2  0  0  0  0
 23  3  2  0  0  0  0
 23 22  1  0  0  0  0
 24  1  1  0  0  0  0
 24 25  1  0  0  0  0
 25 46  1  0  0  0  0
 26 25  2  0  0  0  0
 26 47  1  0  0  0  0
 27 26  1  0  0  0  0
 28 29  1  0  0  0  0
 28 27  2  0  0  0  0
 29 24  2  0  0  0  0
 30  2  1  0  0  0  0
 31  2  1  0  0  0  0
 36 12  1  0  0  0  0
 37 13  1  0  0  0  0
 38 14  1  0  0  0  0
 40 18  1  0  0  0  0
 44 22  1  0  0  0  0
 45 23  1  0  0  0  0
 48 27  1  0  0  0  0
 49 28  1  0  0  0  0
 50 29  1  0  0  0  0
M  END
