1
 OpenBabel05122313063D

 62 67  0  0  0  0  0  0  0  0999 V2000
    0.5204    1.0130   -0.0238 P   0  0  0  0  0  0  0  0  0  0  0  0
    0.8957    0.6907    1.5640 O   0  0  0  0  0  0  0  0  0  0  0  0
    1.3751    2.4142   -0.3366 O   0  0  0  0  0  0  0  0  0  0  0  0
   -2.4343   -0.5319   -2.1198 O   0  0  0  0  0  0  0  0  0  0  0  0
   -2.2515    0.9003    0.1972 C   0  0  0  0  0  0  0  0  0  0  0  0
   -2.1105   -0.5867    0.2015 C   0  0  0  0  0  0  0  0  0  0  0  0
   -1.1371    1.7479    0.1171 C   0  0  0  0  0  0  0  0  0  0  0  0
   -2.2247   -1.2873   -1.0136 C   0  0  0  0  0  0  0  0  0  0  0  0
   -1.2887    3.1667    0.1274 C   0  0  0  0  0  0  0  0  0  0  0  0
   -0.3943    3.7988    0.0552 H   0  0  0  0  0  0  0  0  0  0  0  0
   -2.1028   -2.7067   -1.0412 C   0  0  0  0  0  0  0  0  0  0  0  0
   -2.1400   -3.2436   -1.9967 H   0  0  0  0  0  0  0  0  0  0  0  0
   -2.5479    3.7298    0.2155 C   0  0  0  0  0  0  0  0  0  0  0  0
   -2.6644    4.8246    0.2205 H   0  0  0  0  0  0  0  0  0  0  0  0
   -1.8927   -3.4060    0.1345 C   0  0  0  0  0  0  0  0  0  0  0  0
   -1.7857   -4.5013    0.1039 H   0  0  0  0  0  0  0  0  0  0  0  0
   -5.0199    3.4722    0.3901 C   0  0  0  0  0  0  0  0  0  0  0  0
   -5.1259    4.5682    0.3920 H   0  0  0  0  0  0  0  0  0  0  0  0
   -1.5570   -3.4524    2.6033 C   0  0  0  0  0  0  0  0  0  0  0  0
   -1.4647   -4.5490    2.5606 H   0  0  0  0  0  0  0  0  0  0  0  0
   -6.1371    2.6554    0.4744 C   0  0  0  0  0  0  0  0  0  0  0  0
   -7.1413    3.1003    0.5444 H   0  0  0  0  0  0  0  0  0  0  0  0
   -1.4360   -2.7801    3.8094 C   0  0  0  0  0  0  0  0  0  0  0  0
   -1.2442   -3.3373    4.7384 H   0  0  0  0  0  0  0  0  0  0  0  0
   -5.9909    1.2421    0.4740 C   0  0  0  0  0  0  0  0  0  0  0  0
   -6.8829    0.6017    0.5451 H   0  0  0  0  0  0  0  0  0  0  0  0
   -1.5580   -1.3645    3.8452 C   0  0  0  0  0  0  0  0  0  0  0  0
   -1.4590   -0.8344    4.8045 H   0  0  0  0  0  0  0  0  0  0  0  0
   -4.7326    0.6666    0.3873 C   0  0  0  0  0  0  0  0  0  0  0  0
   -4.6158   -0.4266    0.3913 H   0  0  0  0  0  0  0  0  0  0  0  0
   -1.7936   -0.6431    2.6851 C   0  0  0  0  0  0  0  0  0  0  0  0
   -1.8741    0.4524    2.7216 H   0  0  0  0  0  0  0  0  0  0  0  0
   -3.5630    1.4784    0.2941 C   0  0  0  0  0  0  0  0  0  0  0  0
   -1.9097   -1.3033    1.4239 C   0  0  0  0  0  0  0  0  0  0  0  0
   -3.7120    2.9130    0.2996 C   0  0  0  0  0  0  0  0  0  0  0  0
   -1.7933   -2.7428    1.3894 C   0  0  0  0  0  0  0  0  0  0  0  0
    1.8797   -0.2450    1.9062 C   0  0  0  0  0  0  0  0  0  0  0  0
    2.7630    2.4631   -0.2361 C   0  0  0  0  0  0  0  0  0  0  0  0
    1.6320   -1.6176    1.7595 C   0  0  0  0  0  0  0  0  0  0  0  0
    0.6675   -1.9607    1.3634 H   0  0  0  0  0  0  0  0  0  0  0  0
    3.3059    3.3868    0.6716 C   0  0  0  0  0  0  0  0  0  0  0  0
    2.6240    4.0094    1.2682 H   0  0  0  0  0  0  0  0  0  0  0  0
    2.6263   -2.5326    2.1380 C   0  0  0  0  0  0  0  0  0  0  0  0
    2.4352   -3.6098    2.0214 H   0  0  0  0  0  0  0  0  0  0  0  0
    4.6990    3.4832    0.8048 C   0  0  0  0  0  0  0  0  0  0  0  0
    5.1271    4.2061    1.5158 H   0  0  0  0  0  0  0  0  0  0  0  0
    3.8482   -2.0805    2.6600 C   0  0  0  0  0  0  0  0  0  0  0  0
    4.6247   -2.8028    2.9527 H   0  0  0  0  0  0  0  0  0  0  0  0
    5.5417    2.6572    0.0431 C   0  0  0  0  0  0  0  0  0  0  0  0
    6.6337    2.7280    0.1558 H   0  0  0  0  0  0  0  0  0  0  0  0
    4.0771   -0.7023    2.8059 C   0  0  0  0  0  0  0  0  0  0  0  0
    5.0339   -0.3388    3.2100 H   0  0  0  0  0  0  0  0  0  0  0  0
    4.9848    1.7454   -0.8679 C   0  0  0  0  0  0  0  0  0  0  0  0
    5.6376    1.0996   -1.4740 H   0  0  0  0  0  0  0  0  0  0  0  0
    3.0943    0.2240    2.4272 C   0  0  0  0  0  0  0  0  0  0  0  0
    3.2616    1.3063    2.5148 H   0  0  0  0  0  0  0  0  0  0  0  0
    3.5937    1.6483   -1.0216 C   0  0  0  0  0  0  0  0  0  0  0  0
    3.1502    0.9371   -1.7349 H   0  0  0  0  0  0  0  0  0  0  0  0
   -2.4441   -1.1633   -3.3973 C   0  0  0  0  0  0  0  0  0  0  0  0
   -2.5954   -0.3519   -4.1321 H   0  0  0  0  0  0  0  0  0  0  0  0
   -3.2816   -1.8899   -3.4838 H   0  0  0  0  0  0  0  0  0  0  0  0
   -1.4758   -1.6703   -3.6014 H   0  0  0  0  0  0  0  0  0  0  0  0
  1  7  1  0  0  0  0
  1  2  1  0  0  0  0
  2 37  1  0  0  0  0
  3 38  1  0  0  0  0
  3  1  1  0  0  0  0
  4  8  1  0  0  0  0
  5  6  1  0  0  0  0
  5 33  1  0  0  0  0
  6 34  1  0  0  0  0
  7  9  1  0  0  0  0
  7  5  2  0  0  0  0
  8  6  2  0  0  0  0
  9 13  2  0  0  0  0
 10  9  1  0  0  0  0
 11  8  1  0  0  0  0
 11 15  2  0  0  0  0
 12 11  1  0  0  0  0
 13 14  1  0  0  0  0
 13 35  1  0  0  0  0
 15 36  1  0  0  0  0
 16 15  1  0  0  0  0
 17 18  1  0  0  0  0
 17 21  1  0  0  0  0
 19 23  1  0  0  0  0
 20 19  1  0  0  0  0
 21 22  1  0  0  0  0
 23 27  2  0  0  0  0
 23 24  1  0  0  0  0
 25 21  2  0  0  0  0
 25 26  1  0  0  0  0
 27 28  1  0  0  0  0
 29 30  1  0  0  0  0
 29 25  1  0  0  0  0
 31 32  1  0  0  0  0
 31 27  1  0  0  0  0
 33 35  1  0  0  0  0
 33 29  2  0  0  0  0
 34 31  2  0  0  0  0
 35 17  2  0  0  0  0
 36 34  1  0  0  0  0
 36 19  2  0  0  0  0
 37 55  1  0  0  0  0
 38 41  1  0  0  0  0
 39 37  2  0  0  0  0
 39 43  1  0  0  0  0
 40 39  1  0  0  0  0
 41 45  2  0  0  0  0
 41 42  1  0  0  0  0
 43 47  2  0  0  0  0
 44 43  1  0  0  0  0
 45 46  1  0  0  0  0
 47 51  1  0  0  0  0
 47 48  1  0  0  0  0
 49 50  1  0  0  0  0
 49 45  1  0  0  0  0
 51 52  1  0  0  0  0
 53 49  2  0  0  0  0
 54 53  1  0  0  0  0
 55 56  1  0  0  0  0
 55 51  2  0  0  0  0
 57 53  1  0  0  0  0
 57 38  2  0  0  0  0
 58 57  1  0  0  0  0
 59  4  1  0  0  0  0
 60 59  1  0  0  0  0
 61 59  1  0  0  0  0
 62 59  1  0  0  0  0
M  END
