1
 OpenBabel05122313063D

 22 22  0  0  0  0  0  0  0  0999 V2000
    0.8087    0.7468   -0.0657 P   0  0  0  0  0  0  0  0  0  0  0  0
    0.4703    3.0910   -1.4451 O   0  0  0  0  0  0  0  0  0  0  0  0
    2.0035    3.0130    0.8959 O   0  0  0  0  0  0  0  0  0  0  0  0
    1.1335    1.8657   -1.5691 C   0  0  0  0  0  0  0  0  0  0  0  0
    1.0371    2.0309    1.2755 C   0  0  0  0  0  0  0  0  0  0  0  0
    3.5650    0.2633    0.4470 C   0  0  0  0  0  0  0  0  0  0  0  0
    4.7221   -0.5291    0.4430 C   0  0  0  0  0  0  0  0  0  0  0  0
    4.6757   -1.8490   -0.0347 C   0  0  0  0  0  0  0  0  0  0  0  0
    3.4660   -2.3770   -0.5109 C   0  0  0  0  0  0  0  0  0  0  0  0
    2.3022   -1.5938   -0.4968 C   0  0  0  0  0  0  0  0  0  0  0  0
    2.3396   -0.2704   -0.0128 C   0  0  0  0  0  0  0  0  0  0  0  0
    0.9606    3.5684   -0.7401 H   0  0  0  0  0  0  0  0  0  0  0  0
    2.1206    3.6283    1.6443 H   0  0  0  0  0  0  0  0  0  0  0  0
    2.2394    1.9618   -1.6698 H   0  0  0  0  0  0  0  0  0  0  0  0
    0.7461    1.3289   -2.4589 H   0  0  0  0  0  0  0  0  0  0  0  0
    0.0320    2.4815    1.4312 H   0  0  0  0  0  0  0  0  0  0  0  0
    1.3152    1.4858    2.2061 H   0  0  0  0  0  0  0  0  0  0  0  0
    3.6087    1.3054    0.7977 H   0  0  0  0  0  0  0  0  0  0  0  0
    5.6704   -0.1092    0.8120 H   0  0  0  0  0  0  0  0  0  0  0  0
    5.5864   -2.4670   -0.0372 H   0  0  0  0  0  0  0  0  0  0  0  0
    3.4227   -3.4093   -0.8895 H   0  0  0  0  0  0  0  0  0  0  0  0
    1.3541   -2.0148   -0.8620 H   0  0  0  0  0  0  0  0  0  0  0  0
  1 11  1  0  0  0  0
  1  5  1  0  0  0  0
  2 12  1  0  0  0  0
  3  5  1  0  0  0  0
  3 13  1  0  0  0  0
  4  2  1  0  0  0  0
  4  1  1  0  0  0  0
  5 16  1  0  0  0  0
  5 17  1  0  0  0  0
  6 18  1  0  0  0  0
  7  6  1  0  0  0  0
  7 19  1  0  0  0  0
  8  7  2  0  0  0  0
  9 10  2  0  0  0  0
  9  8  1  0  0  0  0
 10 11  1  0  0  0  0
 11  6  2  0  0  0  0
 14  4  1  0  0  0  0
 15  4  1  0  0  0  0
 20  8  1  0  0  0  0
 21  9  1  0  0  0  0
 22 10  1  0  0  0  0
M  END
