1
 OpenBabel05122313063D

 29 30  0  0  1  0  0  0  0  0999 V2000
   -2.3154    0.1218    0.0829 P   0  0  2  0  0  0  0  0  0  0  0  0
   -3.0838    0.0208    1.7147 C   0  0  1  0  0  3  0  0  0  0  0  0
   -3.8674   -0.1630    2.9283 C   0  0  0  0  0  2  0  0  0  0  0  0
   -4.0936   -0.8895    1.7111 C   0  0  1  0  0  3  0  0  0  0  0  0
   -3.0097    1.7709   -0.5627 C   0  0  0  0  0  0  0  0  0  0  0  0
   -2.2589    2.8429    0.2514 C   0  0  0  0  0  0  0  0  0  0  0  0
   -4.5240    1.8792   -0.3308 C   0  0  0  0  0  0  0  0  0  0  0  0
   -2.6741    1.9189   -2.0559 C   0  0  0  0  0  0  0  0  0  0  0  0
   -3.2704   -1.4680   -0.5263 C   0  0  0  0  0  0  0  0  0  0  0  0
   -4.4699   -1.6209    0.4750 C   0  0  0  0  0  0  0  0  0  0  0  0
   -3.7075   -1.4277   -1.9919 C   0  0  0  0  0  0  0  0  0  0  0  0
   -2.2800   -2.6265   -0.2989 C   0  0  0  0  0  0  0  0  0  0  0  0
   -2.4137    2.7263    1.3424 H   0  0  0  0  0  0  0  0  0  0  0  0
   -1.1692    2.7984    0.0558 H   0  0  0  0  0  0  0  0  0  0  0  0
   -2.6295    3.8450   -0.0508 H   0  0  0  0  0  0  0  0  0  0  0  0
   -5.0890    1.1016   -0.8819 H   0  0  0  0  0  0  0  0  0  0  0  0
   -4.7923    1.8224    0.7424 H   0  0  0  0  0  0  0  0  0  0  0  0
   -4.8729    2.8640   -0.7070 H   0  0  0  0  0  0  0  0  0  0  0  0
   -1.5992    1.7483   -2.2581 H   0  0  0  0  0  0  0  0  0  0  0  0
   -3.2493    1.2178   -2.6888 H   0  0  0  0  0  0  0  0  0  0  0  0
   -2.9369    2.9507   -2.3710 H   0  0  0  0  0  0  0  0  0  0  0  0
   -4.7253   -2.6879    0.6445 H   0  0  0  0  0  0  0  0  0  0  0  0
   -5.3940   -1.1426    0.0815 H   0  0  0  0  0  0  0  0  0  0  0  0
   -2.8319   -1.2621   -2.6494 H   0  0  0  0  0  0  0  0  0  0  0  0
   -4.1654   -2.4008   -2.2693 H   0  0  0  0  0  0  0  0  0  0  0  0
   -4.4590   -0.6374   -2.1877 H   0  0  0  0  0  0  0  0  0  0  0  0
   -1.9010   -2.6520    0.7440 H   0  0  0  0  0  0  0  0  0  0  0  0
   -2.7920   -3.5904   -0.5033 H   0  0  0  0  0  0  0  0  0  0  0  0
   -1.4105   -2.5341   -0.9776 H   0  0  0  0  0  0  0  0  0  0  0  0
  1  5  1  6  0  0  0
  1  2  1  0  0  0  0
  2  3  1  6  0  0  0
  4  2  1  0  0  0  0
  4  3  1  6  0  0  0
  5  7  1  0  0  0  0
  5  6  1  0  0  0  0
  6 13  1  0  0  0  0
  7 17  1  0  0  0  0
  8  5  1  0  0  0  0
  9 12  1  0  0  0  0
  9  1  1  0  0  0  0
  9 10  1  0  0  0  0
 10 22  1  0  0  0  0
 10  4  1  0  0  0  0
 11  9  1  0  0  0  0
 12 27  1  0  0  0  0
 14  6  1  0  0  0  0
 15  6  1  0  0  0  0
 16  7  1  0  0  0  0
 18  7  1  0  0  0  0
 19  8  1  0  0  0  0
 20  8  1  0  0  0  0
 21  8  1  0  0  0  0
 23 10  1  0  0  0  0
 24 11  1  0  0  0  0
 25 11  1  0  0  0  0
 26 11  1  0  0  0  0
 28 12  1  0  0  0  0
 29 12  1  0  0  0  0
M  END
