1
 OpenBabel05122313063D

 31 30  0  0  0  0  0  0  0  0999 V2000
   -0.9393    0.6993   -0.6842 P   0  0  0  0  0  0  0  0  0  0  0  0
   -1.4561   -1.9414    1.4321 C   0  0  0  0  0  0  0  0  0  0  0  0
   -1.2545   -2.9638    1.8088 H   0  0  0  0  0  0  0  0  0  0  0  0
   -2.1489   -1.4145    2.1120 H   0  0  0  0  0  0  0  0  0  0  0  0
   -0.5033   -1.3788    1.3659 H   0  0  0  0  0  0  0  0  0  0  0  0
   -0.1981    3.3275   -0.1604 C   0  0  0  0  0  0  0  0  0  0  0  0
    0.7911    2.9551    0.1747 H   0  0  0  0  0  0  0  0  0  0  0  0
   -0.3907    4.3014    0.3383 H   0  0  0  0  0  0  0  0  0  0  0  0
   -0.1403    3.5132   -1.2524 H   0  0  0  0  0  0  0  0  0  0  0  0
   -2.0751   -2.0124    0.0754 N   0  3  0  0  0  0  0  0  0  0  0  0
   -1.3202    2.3356    0.1872 C   0  0  0  0  0  0  0  0  0  0  0  0
   -1.3429    2.0650    1.7001 C   0  0  0  0  0  0  0  0  0  0  0  0
   -2.1449    1.3502    1.9748 H   0  0  0  0  0  0  0  0  0  0  0  0
   -1.5342    3.0119    2.2477 H   0  0  0  0  0  0  0  0  0  0  0  0
   -0.3722    1.6560    2.0489 H   0  0  0  0  0  0  0  0  0  0  0  0
   -1.1479   -2.7147   -0.8612 C   0  0  0  0  0  0  0  0  0  0  0  0
   -0.1924   -2.1550   -0.9111 H   0  0  0  0  0  0  0  0  0  0  0  0
   -1.6113   -2.7440   -1.8634 H   0  0  0  0  0  0  0  0  0  0  0  0
   -0.9538   -3.7437   -0.4986 H   0  0  0  0  0  0  0  0  0  0  0  0
   -2.4774   -0.5307   -0.4800 B   0  0  0  0  0  0  0  0  0  0  0  0
   -3.3456   -2.7888    0.1664 C   0  0  0  0  0  0  0  0  0  0  0  0
   -3.1357   -3.8115    0.5392 H   0  0  0  0  0  0  0  0  0  0  0  0
   -3.8083   -2.8376   -0.8352 H   0  0  0  0  0  0  0  0  0  0  0  0
   -4.0350   -2.2684    0.8546 H   0  0  0  0  0  0  0  0  0  0  0  0
   -2.6772    2.8719   -0.2949 C   0  0  0  0  0  0  0  0  0  0  0  0
   -2.6737    3.0657   -1.3870 H   0  0  0  0  0  0  0  0  0  0  0  0
   -2.9026    3.8324    0.2160 H   0  0  0  0  0  0  0  0  0  0  0  0
   -3.5016    2.1664   -0.0724 H   0  0  0  0  0  0  0  0  0  0  0  0
   -0.9866    1.1202   -2.0514 H   0  0  0  0  0  0  0  0  0  0  0  0
   -2.9970   -0.6942   -1.5774 H   0  0  0  0  0  0  0  0  0  0  0  0
   -3.2513   -0.0552    0.3446 H   0  0  0  0  0  0  0  0  0  0  0  0
  1 20  1  0  0  0  0
  1 11  1  0  0  0  0
  2  3  1  0  0  0  0
  2  4  1  0  0  0  0
  5  2  1  0  0  0  0
  6  7  1  0  0  0  0
  6 11  1  0  0  0  0
  6  8  1  0  0  0  0
  9  6  1  0  0  0  0
 10 21  1  0  0  0  0
 10  2  1  0  0  0  0
 11 12  1  0  0  0  0
 12 13  1  0  0  0  0
 12 15  1  0  0  0  0
 12 14  1  0  0  0  0
 16 19  1  0  0  0  0
 16 10  1  0  0  0  0
 17 16  1  0  0  0  0
 18 16  1  0  0  0  0
 20 10  1  0  0  0  0
 20 31  1  0  0  0  0
 21 22  1  0  0  0  0
 21 24  1  0  0  0  0
 23 21  1  0  0  0  0
 25 28  1  0  0  0  0
 25 11  1  0  0  0  0
 25 27  1  0  0  0  0
 26 25  1  0  0  0  0
 29  1  1  0  0  0  0
 30 20  1  0  0  0  0
M  CHG  1  10   1
M  END
