1
 OpenBabel05122313063D

 39 40  0  0  0  0  0  0  0  0999 V2000
   -0.5788   -0.0270    0.3769 P   0  0  0  0  0  0  0  0  0  0  0  0
   -1.6382    1.4737    0.5197 C   0  0  0  0  0  0  0  0  0  0  0  0
   -1.5460   -1.1923   -0.6772 C   0  0  0  0  0  0  0  0  0  0  0  0
   -0.5101   -0.7280    2.2193 B   0  0  0  0  0  0  0  0  0  0  0  0
    0.6992   -1.8003    2.4518 N   0  3  0  0  0  0  0  0  0  0  0  0
   -3.4134   -2.7356   -0.9826 C   0  0  0  0  0  0  0  0  0  0  0  0
   -4.3027   -3.2431   -0.5782 H   0  0  0  0  0  0  0  0  0  0  0  0
    0.4277   -2.4848    3.7484 C   0  0  0  0  0  0  0  0  0  0  0  0
    0.3250   -1.7206    4.5397 H   0  0  0  0  0  0  0  0  0  0  0  0
    1.2617   -3.1736    3.9928 H   0  0  0  0  0  0  0  0  0  0  0  0
   -0.5189   -3.0475    3.6687 H   0  0  0  0  0  0  0  0  0  0  0  0
   -1.1493   -1.4323   -2.0087 C   0  0  0  0  0  0  0  0  0  0  0  0
   -0.2570   -0.9191   -2.4026 H   0  0  0  0  0  0  0  0  0  0  0  0
   -3.0089   -2.9720   -2.3071 C   0  0  0  0  0  0  0  0  0  0  0  0
   -3.5789   -3.6676   -2.9419 H   0  0  0  0  0  0  0  0  0  0  0  0
    2.0216   -1.1111    2.5408 C   0  0  0  0  0  0  0  0  0  0  0  0
    2.2047   -0.5574    1.5972 H   0  0  0  0  0  0  0  0  0  0  0  0
    2.8248   -1.8581    2.6994 H   0  0  0  0  0  0  0  0  0  0  0  0
    1.9933   -0.3949    3.3803 H   0  0  0  0  0  0  0  0  0  0  0  0
   -1.8764   -2.3193   -2.8179 C   0  0  0  0  0  0  0  0  0  0  0  0
   -1.5537   -2.4997   -3.8545 H   0  0  0  0  0  0  0  0  0  0  0  0
   -2.6858   -1.8534   -0.1700 C   0  0  0  0  0  0  0  0  0  0  0  0
   -3.0030   -1.6732    0.8680 H   0  0  0  0  0  0  0  0  0  0  0  0
   -2.9019    1.5745   -0.0921 C   0  0  0  0  0  0  0  0  0  0  0  0
   -3.2983    0.7345   -0.6808 H   0  0  0  0  0  0  0  0  0  0  0  0
   -3.1591    3.8325    0.7831 C   0  0  0  0  0  0  0  0  0  0  0  0
   -3.7525    4.7538    0.8844 H   0  0  0  0  0  0  0  0  0  0  0  0
   -1.1361    2.5678    1.2566 C   0  0  0  0  0  0  0  0  0  0  0  0
   -0.1383    2.5034    1.7177 H   0  0  0  0  0  0  0  0  0  0  0  0
   -3.6569    2.7512    0.0418 C   0  0  0  0  0  0  0  0  0  0  0  0
   -4.6429    2.8206   -0.4426 H   0  0  0  0  0  0  0  0  0  0  0  0
   -1.8946    3.7378    1.3888 C   0  0  0  0  0  0  0  0  0  0  0  0
   -1.4921    4.5854    1.9640 H   0  0  0  0  0  0  0  0  0  0  0  0
    0.7432   -2.8165    1.3593 C   0  0  0  0  0  0  0  0  0  0  0  0
   -0.2610   -3.2615    1.2389 H   0  0  0  0  0  0  0  0  0  0  0  0
    1.4847   -3.6030    1.6046 H   0  0  0  0  0  0  0  0  0  0  0  0
    1.0356   -2.3176    0.4155 H   0  0  0  0  0  0  0  0  0  0  0  0
   -1.5634   -1.3056    2.4628 H   0  0  0  0  0  0  0  0  0  0  0  0
   -0.3063    0.2208    2.9651 H   0  0  0  0  0  0  0  0  0  0  0  0
  1  2  1  0  0  0  0
  1  4  1  0  0  0  0
  2 28  1  0  0  0  0
  3 22  1  0  0  0  0
  3  1  1  0  0  0  0
  4  5  1  0  0  0  0
  4 38  1  0  0  0  0
  4 39  1  0  0  0  0
  5 16  1  0  0  0  0
  5  8  1  0  0  0  0
  6  7  1  0  0  0  0
  6 22  2  0  0  0  0
  8 10  1  0  0  0  0
  8  9  1  0  0  0  0
 11  8  1  0  0  0  0
 12  3  2  0  0  0  0
 13 12  1  0  0  0  0
 14  6  1  0  0  0  0
 15 14  1  0  0  0  0
 16 18  1  0  0  0  0
 16 19  1  0  0  0  0
 17 16  1  0  0  0  0
 20 14  2  0  0  0  0
 20 12  1  0  0  0  0
 21 20  1  0  0  0  0
 22 23  1  0  0  0  0
 24 30  1  0  0  0  0
 24  2  2  0  0  0  0
 25 24  1  0  0  0  0
 26 27  1  0  0  0  0
 26 32  1  0  0  0  0
 28 32  2  0  0  0  0
 28 29  1  0  0  0  0
 30 26  2  0  0  0  0
 31 30  1  0  0  0  0
 32 33  1  0  0  0  0
 34 36  1  0  0  0  0
 34  5  1  0  0  0  0
 35 34  1  0  0  0  0
 37 34  1  0  0  0  0
M  CHG  1   5   1
M  END
