1
 OpenBabel05122313063D

 33 34  0  0  0  0  0  0  0  0999 V2000
   -1.1807   -0.1163    0.2386 P   0  0  0  0  0  0  0  0  0  0  0  0
   -2.2635   -1.3978    0.3006 N   0  0  0  0  0  0  0  0  0  0  0  0
   -1.8552   -2.2035    0.8150 H   0  0  0  0  0  0  0  0  0  0  0  0
   -3.6948   -1.3330    0.1221 C   0  0  0  0  0  0  0  0  0  0  0  0
   -3.9364   -0.4880   -0.5648 H   0  0  0  0  0  0  0  0  0  0  0  0
   -4.2345   -1.0965    1.0743 H   0  0  0  0  0  0  0  0  0  0  0  0
   -4.2639   -2.6013   -0.4603 C   0  0  0  0  0  0  0  0  0  0  0  0
   -5.3651   -2.6155   -0.5496 H   0  0  0  0  0  0  0  0  0  0  0  0
   -3.5446   -3.6687   -0.8458 C   0  0  0  0  0  0  0  0  0  0  0  0
   -2.4465   -3.6866   -0.7516 H   0  0  0  0  0  0  0  0  0  0  0  0
   -4.0348   -4.5651   -1.2550 H   0  0  0  0  0  0  0  0  0  0  0  0
   -1.6415    1.1152    1.5271 C   0  0  0  0  0  0  0  0  0  0  0  0
   -0.7652    1.3004    2.6165 C   0  0  0  0  0  0  0  0  0  0  0  0
    0.1946    0.7563    2.6224 H   0  0  0  0  0  0  0  0  0  0  0  0
   -1.1197    2.1541    3.6712 C   0  0  0  0  0  0  0  0  0  0  0  0
   -0.4301    2.2926    4.5177 H   0  0  0  0  0  0  0  0  0  0  0  0
   -2.3533    2.8246    3.6494 C   0  0  0  0  0  0  0  0  0  0  0  0
   -2.6315    3.4941    4.4775 H   0  0  0  0  0  0  0  0  0  0  0  0
   -3.2365    2.6356    2.5735 C   0  0  0  0  0  0  0  0  0  0  0  0
   -4.2070    3.1548    2.5585 H   0  0  0  0  0  0  0  0  0  0  0  0
   -2.8863    1.7822    1.5166 C   0  0  0  0  0  0  0  0  0  0  0  0
   -3.5850    1.6397    0.6781 H   0  0  0  0  0  0  0  0  0  0  0  0
   -1.6019    0.6553   -1.3803 C   0  0  0  0  0  0  0  0  0  0  0  0
   -1.8038    2.0335   -1.5917 C   0  0  0  0  0  0  0  0  0  0  0  0
   -1.8145    2.7296   -0.7401 H   0  0  0  0  0  0  0  0  0  0  0  0
   -1.9963    2.5288   -2.8923 C   0  0  0  0  0  0  0  0  0  0  0  0
   -2.1508    3.6075   -3.0470 H   0  0  0  0  0  0  0  0  0  0  0  0
   -1.9979    1.6520   -3.9880 C   0  0  0  0  0  0  0  0  0  0  0  0
   -2.1456    2.0424   -5.0063 H   0  0  0  0  0  0  0  0  0  0  0  0
   -1.8198    0.2730   -3.7805 C   0  0  0  0  0  0  0  0  0  0  0  0
   -1.8300   -0.4205   -4.6349 H   0  0  0  0  0  0  0  0  0  0  0  0
   -1.6225   -0.2241   -2.4859 C   0  0  0  0  0  0  0  0  0  0  0  0
   -1.4808   -1.3024   -2.3134 H   0  0  0  0  0  0  0  0  0  0  0  0
  1  2  1  0  0  0  0
  1 12  1  0  0  0  0
  2  3  1  0  0  0  0
  4  2  1  0  0  0  0
  4  6  1  0  0  0  0
  5  4  1  0  0  0  0
  7  4  1  0  0  0  0
  8  7  1  0  0  0  0
  9 10  1  0  0  0  0
  9  7  2  0  0  0  0
 11  9  1  0  0  0  0
 12 13  1  0  0  0  0
 13 14  1  0  0  0  0
 13 15  2  0  0  0  0
 15 16  1  0  0  0  0
 17 15  1  0  0  0  0
 17 18  1  0  0  0  0
 19 17  2  0  0  0  0
 20 19  1  0  0  0  0
 21 12  2  0  0  0  0
 21 19  1  0  0  0  0
 22 21  1  0  0  0  0
 23  1  1  0  0  0  0
 24 23  1  0  0  0  0
 24 25  1  0  0  0  0
 26 24  2  0  0  0  0
 27 26  1  0  0  0  0
 28 30  2  0  0  0  0
 28 26  1  0  0  0  0
 29 28  1  0  0  0  0
 30 32  1  0  0  0  0
 31 30  1  0  0  0  0
 32 33  1  0  0  0  0
 32 23  2  0  0  0  0
M  END
