1
 OpenBabel05122313063D

 58 59  0  0  0  0  0  0  0  0999 V2000
   -0.4349   -0.6638    0.0002 P   0  0  0  0  0  2  0  0  0  0  0  0
    1.0792   -2.0844    0.0002 P   0  0  0  0  0  2  0  0  0  0  0  0
   -1.9132   -1.5696    0.0001 N   0  0  0  0  0  0  0  0  0  0  0  0
   -2.4149   -2.1167   -1.3070 C   0  0  0  0  0  0  0  0  0  0  0  0
   -3.9570   -2.2131   -1.2416 C   0  0  0  0  0  0  0  0  0  0  0  0
   -4.3119   -2.7073   -2.1698 H   0  0  0  0  0  0  0  0  0  0  0  0
   -4.3650   -1.1798   -1.2462 H   0  0  0  0  0  0  0  0  0  0  0  0
   -4.4687   -2.9358   -0.0002 C   0  0  0  0  0  0  0  0  0  0  0  0
   -4.1427   -3.9981   -0.0004 H   0  0  0  0  0  0  0  0  0  0  0  0
   -5.5780   -2.9558   -0.0003 H   0  0  0  0  0  0  0  0  0  0  0  0
   -3.9571   -2.2134    1.2413 C   0  0  0  0  0  0  0  0  0  0  0  0
   -4.3651   -1.1802    1.2463 H   0  0  0  0  0  0  0  0  0  0  0  0
   -4.3121   -2.7079    2.1694 H   0  0  0  0  0  0  0  0  0  0  0  0
   -2.4150   -2.1171    1.3069 C   0  0  0  0  0  0  0  0  0  0  0  0
   -2.0678   -1.1351   -2.4395 C   0  0  0  0  0  0  0  0  0  0  0  0
   -2.5055   -1.5033   -3.3882 H   0  0  0  0  0  0  0  0  0  0  0  0
   -0.9734   -1.0437   -2.5962 H   0  0  0  0  0  0  0  0  0  0  0  0
   -2.4792   -0.1281   -2.2391 H   0  0  0  0  0  0  0  0  0  0  0  0
   -1.7955   -3.4855   -1.6636 C   0  0  0  0  0  0  0  0  0  0  0  0
   -2.1286   -4.2945   -0.9883 H   0  0  0  0  0  0  0  0  0  0  0  0
   -0.6887   -3.4350   -1.6085 H   0  0  0  0  0  0  0  0  0  0  0  0
   -2.0765   -3.7742   -2.6968 H   0  0  0  0  0  0  0  0  0  0  0  0
   -2.0680   -1.1360    2.4399 C   0  0  0  0  0  0  0  0  0  0  0  0
   -2.5058   -1.5045    3.3884 H   0  0  0  0  0  0  0  0  0  0  0  0
   -2.4793   -0.1289    2.2398 H   0  0  0  0  0  0  0  0  0  0  0  0
   -0.9736   -1.0447    2.5968 H   0  0  0  0  0  0  0  0  0  0  0  0
   -1.7957   -3.4861    1.6631 C   0  0  0  0  0  0  0  0  0  0  0  0
   -2.1287   -4.2948    0.9875 H   0  0  0  0  0  0  0  0  0  0  0  0
   -2.0768   -3.7751    2.6962 H   0  0  0  0  0  0  0  0  0  0  0  0
   -0.6889   -3.4355    1.6082 H   0  0  0  0  0  0  0  0  0  0  0  0
    2.5553   -1.1168    0.0000 N   0  0  0  0  0  0  0  0  0  0  0  0
    3.3075   -1.1563    1.3077 C   0  0  0  0  0  0  0  0  0  0  0  0
    4.5032   -0.1807    1.2404 C   0  0  0  0  0  0  0  0  0  0  0  0
    5.0981   -0.3099    2.1687 H   0  0  0  0  0  0  0  0  0  0  0  0
    4.1100    0.8562    1.2501 H   0  0  0  0  0  0  0  0  0  0  0  0
    5.3699   -0.3648   -0.0003 C   0  0  0  0  0  0  0  0  0  0  0  0
    5.8522   -1.3661   -0.0004 H   0  0  0  0  0  0  0  0  0  0  0  0
    6.1977    0.3738   -0.0003 H   0  0  0  0  0  0  0  0  0  0  0  0
    4.5029   -0.1807   -1.2407 C   0  0  0  0  0  0  0  0  0  0  0  0
    4.1097    0.8563   -1.2503 H   0  0  0  0  0  0  0  0  0  0  0  0
    5.0976   -0.3098   -2.1692 H   0  0  0  0  0  0  0  0  0  0  0  0
    3.3072   -1.1562   -1.3079 C   0  0  0  0  0  0  0  0  0  0  0  0
    2.3700   -0.6634    2.4247 C   0  0  0  0  0  0  0  0  0  0  0  0
    2.9426   -0.5355    3.3648 H   0  0  0  0  0  0  0  0  0  0  0  0
    1.5509   -1.3832    2.6267 H   0  0  0  0  0  0  0  0  0  0  0  0
    1.9130    0.3071    2.1528 H   0  0  0  0  0  0  0  0  0  0  0  0
    3.7951   -2.5766    1.6824 C   0  0  0  0  0  0  0  0  0  0  0  0
    4.5880   -2.9468    1.0065 H   0  0  0  0  0  0  0  0  0  0  0  0
    2.9549   -3.3008    1.6477 H   0  0  0  0  0  0  0  0  0  0  0  0
    4.2033   -2.5831    2.7133 H   0  0  0  0  0  0  0  0  0  0  0  0
    2.3695   -0.6633   -2.4246 C   0  0  0  0  0  0  0  0  0  0  0  0
    2.9419   -0.5354   -3.3648 H   0  0  0  0  0  0  0  0  0  0  0  0
    1.9126    0.3072   -2.1526 H   0  0  0  0  0  0  0  0  0  0  0  0
    1.5503   -1.3831   -2.6265 H   0  0  0  0  0  0  0  0  0  0  0  0
    3.7948   -2.5765   -1.6826 C   0  0  0  0  0  0  0  0  0  0  0  0
    4.5878   -2.9467   -1.0069 H   0  0  0  0  0  0  0  0  0  0  0  0
    4.2028   -2.5830   -2.7136 H   0  0  0  0  0  0  0  0  0  0  0  0
    2.9546   -3.3007   -1.6478 H   0  0  0  0  0  0  0  0  0  0  0  0
  2  1  1  0  0  0  0
  3  1  1  0  0  0  0
  3 14  1  0  0  0  0
  4  5  1  0  0  0  0
  4  3  1  0  0  0  0
  5  8  1  0  0  0  0
  6  5  1  0  0  0  0
  7  5  1  0  0  0  0
  8 11  1  0  0  0  0
  9  8  1  0  0  0  0
 10  8  1  0  0  0  0
 11 12  1  0  0  0  0
 11 14  1  0  0  0  0
 11 13  1  0  0  0  0
 14 27  1  0  0  0  0
 14 23  1  0  0  0  0
 15 18  1  0  0  0  0
 15  4  1  0  0  0  0
 16 15  1  0  0  0  0
 17 15  1  0  0  0  0
 19 21  1  0  0  0  0
 19  4  1  0  0  0  0
 19 20  1  0  0  0  0
 22 19  1  0  0  0  0
 23 26  1  0  0  0  0
 23 24  1  0  0  0  0
 25 23  1  0  0  0  0
 27 29  1  0  0  0  0
 28 27  1  0  0  0  0
 30 27  1  0  0  0  0
 31  2  1  0  0  0  0
 31 32  1  0  0  0  0
 32 47  1  0  0  0  0
 32 43  1  0  0  0  0
 33 35  1  0  0  0  0
 33 32  1  0  0  0  0
 33 34  1  0  0  0  0
 36 33  1  0  0  0  0
 37 36  1  0  0  0  0
 38 36  1  0  0  0  0
 39 36  1  0  0  0  0
 40 39  1  0  0  0  0
 41 39  1  0  0  0  0
 42 39  1  0  0  0  0
 42 31  1  0  0  0  0
 43 45  1  0  0  0  0
 43 44  1  0  0  0  0
 46 43  1  0  0  0  0
 47 50  1  0  0  0  0
 48 47  1  0  0  0  0
 49 47  1  0  0  0  0
 51 53  1  0  0  0  0
 51 42  1  0  0  0  0
 52 51  1  0  0  0  0
 54 51  1  0  0  0  0
 55 58  1  0  0  0  0
 55 42  1  0  0  0  0
 55 56  1  0  0  0  0
 57 55  1  0  0  0  0
M  END
