1
 OpenBabel05122313063D

 37 39  0  0  0  0  0  0  0  0999 V2000
    2.0177   -0.1154   -0.1769 P   0  0  0  0  0  0  0  0  0  0  0  0
    3.3732   -0.5597   -1.3368 C   0  0  0  0  0  0  0  0  0  0  0  0
    3.1584   -1.6506   -2.2052 C   0  0  0  0  0  0  0  0  0  0  0  0
    4.1733   -2.0378   -3.0938 C   0  0  0  0  0  0  0  0  0  0  0  0
    5.3907   -1.3389   -3.1300 C   0  0  0  0  0  0  0  0  0  0  0  0
    5.5975   -0.2424   -2.2762 C   0  0  0  0  0  0  0  0  0  0  0  0
    4.5916    0.1499   -1.3803 C   0  0  0  0  0  0  0  0  0  0  0  0
    2.4717   -0.8988    1.4224 C   0  0  0  0  0  0  0  0  0  0  0  0
    1.4509   -1.0366    2.3874 C   0  0  0  0  0  0  0  0  0  0  0  0
    1.7280   -1.6198    3.6314 C   0  0  0  0  0  0  0  0  0  0  0  0
    3.0226   -2.0845    3.9164 C   0  0  0  0  0  0  0  0  0  0  0  0
    4.0379   -1.9628    2.9539 C   0  0  0  0  0  0  0  0  0  0  0  0
    3.7672   -1.3718    1.7097 C   0  0  0  0  0  0  0  0  0  0  0  0
    2.2829    1.6842    0.1177 C   0  0  0  0  0  0  0  0  0  0  0  0
    1.8590    2.5976   -0.8899 C   0  0  0  0  0  0  0  0  0  0  0  0
    1.2487    2.1074   -2.1743 C   0  0  0  0  0  0  0  0  0  0  0  0
    1.9969    3.9755   -0.6384 C   0  0  0  0  0  0  0  0  0  0  0  0
    2.5300    4.4524    0.5689 C   0  0  0  0  0  0  0  0  0  0  0  0
    2.9366    3.5461    1.5590 C   0  0  0  0  0  0  0  0  0  0  0  0
    2.8117    2.1672    1.3313 C   0  0  0  0  0  0  0  0  0  0  0  0
    2.1858   -2.1761   -2.1944 H   0  0  0  0  0  0  0  0  0  0  0  0
    4.0034   -2.8884   -3.7716 H   0  0  0  0  0  0  0  0  0  0  0  0
    6.1808   -1.6434   -3.8336 H   0  0  0  0  0  0  0  0  0  0  0  0
    6.5473    0.3132   -2.3100 H   0  0  0  0  0  0  0  0  0  0  0  0
    4.7472    1.0143   -0.7162 H   0  0  0  0  0  0  0  0  0  0  0  0
    0.4291   -0.6981    2.1569 H   0  0  0  0  0  0  0  0  0  0  0  0
    0.9189   -1.7244    4.3698 H   0  0  0  0  0  0  0  0  0  0  0  0
    3.2393   -2.5524    4.8889 H   0  0  0  0  0  0  0  0  0  0  0  0
    5.0509   -2.3349    3.1707 H   0  0  0  0  0  0  0  0  0  0  0  0
    4.5633   -1.2833    0.9552 H   0  0  0  0  0  0  0  0  0  0  0  0
    0.8669    2.9426   -2.7912 H   0  0  0  0  0  0  0  0  0  0  0  0
    1.9728    1.5248   -2.7811 H   0  0  0  0  0  0  0  0  0  0  0  0
    0.4028    1.4146   -1.9551 H   0  0  0  0  0  0  0  0  0  0  0  0
    1.6649    4.6891   -1.4089 H   0  0  0  0  0  0  0  0  0  0  0  0
    2.6221    5.5364    0.7368 H   0  0  0  0  0  0  0  0  0  0  0  0
    3.3537    3.9089    2.5107 H   0  0  0  0  0  0  0  0  0  0  0  0
    3.1241    1.4531    2.1080 H   0  0  0  0  0  0  0  0  0  0  0  0
  1 14  1  0  0  0  0
  1  8  1  0  0  0  0
  2  1  1  0  0  0  0
  3 21  1  0  0  0  0
  3  2  2  0  0  0  0
  4  3  1  0  0  0  0
  5  4  2  0  0  0  0
  5  6  1  0  0  0  0
  6  7  2  0  0  0  0
  7  2  1  0  0  0  0
  7 25  1  0  0  0  0
  8 13  2  0  0  0  0
  8  9  1  0  0  0  0
  9 10  2  0  0  0  0
 10 11  1  0  0  0  0
 10 27  1  0  0  0  0
 11 28  1  0  0  0  0
 12 29  1  0  0  0  0
 12 11  2  0  0  0  0
 13 12  1  0  0  0  0
 14 20  1  0  0  0  0
 15 17  1  0  0  0  0
 15 14  2  0  0  0  0
 16 33  1  0  0  0  0
 16 15  1  0  0  0  0
 17 18  2  0  0  0  0
 18 35  1  0  0  0  0
 18 19  1  0  0  0  0
 19 36  1  0  0  0  0
 20 19  2  0  0  0  0
 20 37  1  0  0  0  0
 22  4  1  0  0  0  0
 23  5  1  0  0  0  0
 24  6  1  0  0  0  0
 26  9  1  0  0  0  0
 30 13  1  0  0  0  0
 31 16  1  0  0  0  0
 32 16  1  0  0  0  0
 34 17  1  0  0  0  0
M  END
