1
 OpenBabel05122313063D

 55 58  0  0  0  0  0  0  0  0999 V2000
    2.2423    0.3215    0.1075 P   0  0  0  0  0  0  0  0  0  0  0  0
    1.1147    1.7404   -0.2341 C   0  0  0  0  0  0  0  0  0  0  0  0
    1.6122    2.9539   -0.7442 C   0  0  0  0  0  0  0  0  0  0  0  0
    2.6956    3.0838   -0.8840 H   0  0  0  0  0  0  0  0  0  0  0  0
    0.7328    3.9895   -1.0964 C   0  0  0  0  0  0  0  0  0  0  0  0
    1.1346    4.9358   -1.4886 H   0  0  0  0  0  0  0  0  0  0  0  0
   -0.6525    3.8086   -0.9615 C   0  0  0  0  0  0  0  0  0  0  0  0
   -1.3443    4.6151   -1.2480 H   0  0  0  0  0  0  0  0  0  0  0  0
   -1.1584    2.6013   -0.4625 C   0  0  0  0  0  0  0  0  0  0  0  0
   -2.2424    2.4422   -0.3565 H   0  0  0  0  0  0  0  0  0  0  0  0
   -0.2884    1.5600   -0.0802 C   0  0  0  0  0  0  0  0  0  0  0  0
   -0.8468    0.2967    0.4552 C   0  0  0  0  0  0  0  0  0  0  0  0
   -0.2552   -0.2327    1.2397 H   0  0  0  0  0  0  0  0  0  0  0  0
   -1.9736   -0.1573    0.0472 N   0  0  0  0  0  0  0  0  0  0  0  0
   -2.4931   -1.3886    0.5803 C   0  0  0  0  0  0  0  0  0  0  0  0
   -2.0370   -1.7110    1.5453 H   0  0  0  0  0  0  0  0  0  0  0  0
   -2.2774   -2.2046   -0.1510 H   0  0  0  0  0  0  0  0  0  0  0  0
   -4.0212   -1.3315    0.7728 C   0  0  0  0  0  0  0  0  0  0  0  0
   -4.6154   -2.1643    1.4499 O   0  0  0  0  0  0  0  0  0  0  0  0
   -4.5840   -0.2736    0.1042 N   0  0  0  0  0  0  0  0  0  0  0  0
   -3.8958    0.3074   -0.3973 H   0  0  0  0  0  0  0  0  0  0  0  0
   -5.9184    0.1364    0.0620 C   0  0  0  0  0  0  0  0  0  0  0  0
   -6.9886   -0.5695    0.6459 C   0  0  0  0  0  0  0  0  0  0  0  0
   -6.7601   -1.5044    1.1724 H   0  0  0  0  0  0  0  0  0  0  0  0
   -8.2980   -0.0732    0.5468 C   0  0  0  0  0  0  0  0  0  0  0  0
   -9.1233   -0.6368    1.0064 H   0  0  0  0  0  0  0  0  0  0  0  0
   -8.5570    1.1259   -0.1319 C   0  0  0  0  0  0  0  0  0  0  0  0
   -9.5830    1.5141   -0.2133 H   0  0  0  0  0  0  0  0  0  0  0  0
   -7.4957    1.8403   -0.7137 C   0  0  0  0  0  0  0  0  0  0  0  0
   -7.6827    2.7874   -1.2469 H   0  0  0  0  0  0  0  0  0  0  0  0
   -6.1849    1.3567   -0.6176 C   0  0  0  0  0  0  0  0  0  0  0  0
   -5.0992    2.0038   -1.1529 O   0  0  0  0  0  0  0  0  0  0  0  0
   -5.4126    2.7888   -1.6371 H   0  0  0  0  0  0  0  0  0  0  0  0
    3.8683    0.8313   -0.5646 C   0  0  0  0  0  0  0  0  0  0  0  0
    4.8157    1.5239    0.2153 C   0  0  0  0  0  0  0  0  0  0  0  0
    4.6024    1.7486    1.2712 H   0  0  0  0  0  0  0  0  0  0  0  0
    6.0353    1.9179   -0.3563 C   0  0  0  0  0  0  0  0  0  0  0  0
    6.7761    2.4539    0.2562 H   0  0  0  0  0  0  0  0  0  0  0  0
    6.3117    1.6257   -1.7014 C   0  0  0  0  0  0  0  0  0  0  0  0
    7.2706    1.9336   -2.1451 H   0  0  0  0  0  0  0  0  0  0  0  0
    5.3700    0.9304   -2.4780 C   0  0  0  0  0  0  0  0  0  0  0  0
    5.5886    0.6903   -3.5293 H   0  0  0  0  0  0  0  0  0  0  0  0
    4.1527    0.5272   -1.9120 C   0  0  0  0  0  0  0  0  0  0  0  0
    3.4176   -0.0358   -2.5093 H   0  0  0  0  0  0  0  0  0  0  0  0
    2.4469    0.3036    1.9301 C   0  0  0  0  0  0  0  0  0  0  0  0
    2.2175    1.4566    2.7080 C   0  0  0  0  0  0  0  0  0  0  0  0
    1.8810    2.3871    2.2254 H   0  0  0  0  0  0  0  0  0  0  0  0
    2.4065    1.4103    4.0978 C   0  0  0  0  0  0  0  0  0  0  0  0
    2.2213    2.3099    4.7039 H   0  0  0  0  0  0  0  0  0  0  0  0
    2.8231    0.2191    4.7132 C   0  0  0  0  0  0  0  0  0  0  0  0
    2.9649    0.1845    5.8040 H   0  0  0  0  0  0  0  0  0  0  0  0
    3.0473   -0.9319    3.9397 C   0  0  0  0  0  0  0  0  0  0  0  0
    3.3627   -1.8694    4.4215 H   0  0  0  0  0  0  0  0  0  0  0  0
    2.8566   -0.8943    2.5514 C   0  0  0  0  0  0  0  0  0  0  0  0
    3.0097   -1.7988    1.9413 H   0  0  0  0  0  0  0  0  0  0  0  0
  1 45  1  0  0  0  0
  2 11  1  0  0  0  0
  2  1  1  0  0  0  0
  3  2  2  0  0  0  0
  4  3  1  0  0  0  0
  5  7  2  0  0  0  0
  5  3  1  0  0  0  0
  6  5  1  0  0  0  0
  7  9  1  0  0  0  0
  8  7  1  0  0  0  0
  9 10  1  0  0  0  0
  9 11  2  0  0  0  0
 11 12  1  0  0  0  0
 12 13  1  0  0  0  0
 14 12  2  0  0  0  0
 14 15  1  0  0  0  0
 15 18  1  0  0  0  0
 15 16  1  0  0  0  0
 17 15  1  0  0  0  0
 18 19  2  0  0  0  0
 20 18  1  0  0  0  0
 21 20  1  0  0  0  0
 22 20  1  0  0  0  0
 22 23  1  0  0  0  0
 23 24  1  0  0  0  0
 25 23  2  0  0  0  0
 25 26  1  0  0  0  0
 27 25  1  0  0  0  0
 28 27  1  0  0  0  0
 29 31  1  0  0  0  0
 29 27  2  0  0  0  0
 30 29  1  0  0  0  0
 31 22  2  0  0  0  0
 32 31  1  0  0  0  0
 33 32  1  0  0  0  0
 34  1  1  0  0  0  0
 34 35  1  0  0  0  0
 35 36  1  0  0  0  0
 37 35  2  0  0  0  0
 37 38  1  0  0  0  0
 39 37  1  0  0  0  0
 40 39  1  0  0  0  0
 41 43  1  0  0  0  0
 41 39  2  0  0  0  0
 42 41  1  0  0  0  0
 43 34  2  0  0  0  0
 44 43  1  0  0  0  0
 45 54  2  0  0  0  0
 45 46  1  0  0  0  0
 46 48  2  0  0  0  0
 47 46  1  0  0  0  0
 48 49  1  0  0  0  0
 48 50  1  0  0  0  0
 50 51  1  0  0  0  0
 52 53  1  0  0  0  0
 52 50  2  0  0  0  0
 54 52  1  0  0  0  0
 55 54  1  0  0  0  0
M  END
