1
 OpenBabel05122313063D

 38 40  0  0  0  0  0  0  0  0999 V2000
    0.8654   -1.2178   -0.0385 P   0  0  0  0  0  0  0  0  0  0  0  0
    4.0612    1.8884   -0.6275 S   0  0  0  0  0  0  0  0  0  0  0  0
    4.2732   -0.7760    0.6020 S   0  0  0  0  0  0  0  0  0  0  0  0
    0.8357   -1.3946    1.8043 C   0  0  0  0  0  0  0  0  0  0  0  0
    1.3417   -0.3829    2.6437 C   0  0  0  0  0  0  0  0  0  0  0  0
    1.8107    0.5089    2.2008 H   0  0  0  0  0  0  0  0  0  0  0  0
    1.2190   -0.4930    4.0377 C   0  0  0  0  0  0  0  0  0  0  0  0
    1.6075    0.3118    4.6807 H   0  0  0  0  0  0  0  0  0  0  0  0
    0.6067   -1.6204    4.6092 C   0  0  0  0  0  0  0  0  0  0  0  0
    0.5131   -1.7051    5.7026 H   0  0  0  0  0  0  0  0  0  0  0  0
    0.1099   -2.6373    3.7774 C   0  0  0  0  0  0  0  0  0  0  0  0
   -0.3814   -3.5206    4.2130 H   0  0  0  0  0  0  0  0  0  0  0  0
    0.2133   -2.5215    2.3829 C   0  0  0  0  0  0  0  0  0  0  0  0
   -0.2122   -3.3083    1.7443 H   0  0  0  0  0  0  0  0  0  0  0  0
    1.9845   -2.5884   -0.5957 C   0  0  0  0  0  0  0  0  0  0  0  0
    2.3600   -2.5704   -1.9558 C   0  0  0  0  0  0  0  0  0  0  0  0
    1.9910   -1.7649   -2.6099 H   0  0  0  0  0  0  0  0  0  0  0  0
    3.1955   -3.5671   -2.4732 C   0  0  0  0  0  0  0  0  0  0  0  0
    3.4797   -3.5416   -3.5361 H   0  0  0  0  0  0  0  0  0  0  0  0
    3.6585   -4.6014   -1.6422 C   0  0  0  0  0  0  0  0  0  0  0  0
    4.3090   -5.3894   -2.0512 H   0  0  0  0  0  0  0  0  0  0  0  0
    3.2854   -4.6261   -0.2907 C   0  0  0  0  0  0  0  0  0  0  0  0
    3.6472   -5.4304    0.3682 H   0  0  0  0  0  0  0  0  0  0  0  0
    2.4554   -3.6224    0.2343 C   0  0  0  0  0  0  0  0  0  0  0  0
    2.1940   -3.6377    1.3019 H   0  0  0  0  0  0  0  0  0  0  0  0
    1.8646    0.2578   -0.3618 C   0  0  0  0  0  0  0  0  0  0  0  0
    1.3189    1.0860   -0.8376 H   0  0  0  0  0  0  0  0  0  0  0  0
    3.2061    0.4133   -0.1507 C   0  0  0  0  0  0  0  0  0  0  0  0
    5.6695    1.4062   -0.0720 C   0  0  0  0  0  0  0  0  0  0  0  0
    6.7643    2.4075   -0.2906 C   0  0  0  0  0  0  0  0  0  0  0  0
    6.8925    2.6372   -1.3694 H   0  0  0  0  0  0  0  0  0  0  0  0
    7.7307    2.0320    0.0934 H   0  0  0  0  0  0  0  0  0  0  0  0
    6.5442    3.3668    0.2245 H   0  0  0  0  0  0  0  0  0  0  0  0
    5.7635    0.1753    0.5040 C   0  0  0  0  0  0  0  0  0  0  0  0
    6.9882   -0.4895    1.0582 C   0  0  0  0  0  0  0  0  0  0  0  0
    6.8624   -0.7327    2.1344 H   0  0  0  0  0  0  0  0  0  0  0  0
    7.8772    0.1602    0.9577 H   0  0  0  0  0  0  0  0  0  0  0  0
    7.2003   -1.4429    0.5302 H   0  0  0  0  0  0  0  0  0  0  0  0
  1  4  1  0  0  0  0
  2 28  1  0  0  0  0
  2 29  1  0  0  0  0
  4 13  2  0  0  0  0
  4  5  1  0  0  0  0
  5  7  2  0  0  0  0
  6  5  1  0  0  0  0
  7  9  1  0  0  0  0
  7  8  1  0  0  0  0
  9 10  1  0  0  0  0
 11 12  1  0  0  0  0
 11  9  2  0  0  0  0
 13 11  1  0  0  0  0
 14 13  1  0  0  0  0
 15  1  1  0  0  0  0
 15 24  1  0  0  0  0
 16 15  2  0  0  0  0
 17 16  1  0  0  0  0
 18 16  1  0  0  0  0
 18 20  2  0  0  0  0
 19 18  1  0  0  0  0
 20 22  1  0  0  0  0
 21 20  1  0  0  0  0
 22 24  2  0  0  0  0
 22 23  1  0  0  0  0
 24 25  1  0  0  0  0
 26 28  2  0  0  0  0
 26  1  1  0  0  0  0
 27 26  1  0  0  0  0
 28  3  1  0  0  0  0
 29 34  2  0  0  0  0
 30 29  1  0  0  0  0
 30 32  1  0  0  0  0
 30 33  1  0  0  0  0
 31 30  1  0  0  0  0
 34  3  1  0  0  0  0
 34 35  1  0  0  0  0
 35 36  1  0  0  0  0
 37 35  1  0  0  0  0
 38 35  1  0  0  0  0
M  END
