1
 OpenBabel05122313063D

 46 50  0  0  0  0  0  0  0  0999 V2000
    0.2915   -0.6078   -0.5556 P   0  0  1  0  0  0  0  0  0  0  0  0
    0.7072   -1.1915   -2.1214 O   0  0  0  0  0  0  0  0  0  0  0  0
    0.8952   -2.2225   -1.1282 C   0  0  0  0  0  0  0  0  0  0  0  0
    0.0841   -3.5239   -1.1084 C   0  0  0  0  0  0  0  0  0  0  0  0
   -0.1791   -3.8329   -2.1406 H   0  0  0  0  0  0  0  0  0  0  0  0
   -0.8311   -3.5425   -0.4874 H   0  0  0  0  0  0  0  0  0  0  0  0
    1.3502   -4.2331   -0.5558 C   0  0  0  0  0  0  0  0  0  0  0  0
    1.3018   -4.3697    0.5424 H   0  0  0  0  0  0  0  0  0  0  0  0
    1.6227   -5.1990   -1.0212 H   0  0  0  0  0  0  0  0  0  0  0  0
    2.2060   -3.0016   -0.9555 C   0  0  0  0  0  0  0  0  0  0  0  0
    2.9765   -2.6309   -0.2547 H   0  0  0  0  0  0  0  0  0  0  0  0
    2.6817   -3.1177   -1.9510 H   0  0  0  0  0  0  0  0  0  0  0  0
    1.7412    0.4083    0.2122 C   0  0  0  0  0  0  0  0  0  0  0  0
    1.6153    1.8838   -0.1907 C   0  0  0  0  0  0  0  0  0  0  0  0
    0.9047    2.2908   -1.3347 C   0  0  0  0  0  0  0  0  0  0  0  0
    0.3918    1.5466   -1.9605 H   0  0  0  0  0  0  0  0  0  0  0  0
    0.8453    3.6424   -1.7088 C   0  0  0  0  0  0  0  0  0  0  0  0
    0.2675    3.9304   -2.5998 H   0  0  0  0  0  0  0  0  0  0  0  0
    1.5169    4.6107   -0.9508 C   0  0  0  0  0  0  0  0  0  0  0  0
    1.4681    5.6721   -1.2368 H   0  0  0  0  0  0  0  0  0  0  0  0
    2.2684    4.2126    0.1677 C   0  0  0  0  0  0  0  0  0  0  0  0
    2.8217    4.9606    0.7556 H   0  0  0  0  0  0  0  0  0  0  0  0
    2.3236    2.8630    0.5387 C   0  0  0  0  0  0  0  0  0  0  0  0
    2.9331    2.5602    1.4032 H   0  0  0  0  0  0  0  0  0  0  0  0
    3.1378   -0.0377   -0.2415 C   0  0  0  0  0  0  0  0  0  0  0  0
    3.4526   -0.0565   -1.6178 C   0  0  0  0  0  0  0  0  0  0  0  0
    2.6782    0.1896   -2.3558 H   0  0  0  0  0  0  0  0  0  0  0  0
    4.7366   -0.4064   -2.0543 C   0  0  0  0  0  0  0  0  0  0  0  0
    4.9540   -0.4274   -3.1331 H   0  0  0  0  0  0  0  0  0  0  0  0
    5.7420   -0.7217   -1.1262 C   0  0  0  0  0  0  0  0  0  0  0  0
    6.7510   -0.9949   -1.4701 H   0  0  0  0  0  0  0  0  0  0  0  0
    5.4512   -0.6670    0.2446 C   0  0  0  0  0  0  0  0  0  0  0  0
    6.2344   -0.8879    0.9859 H   0  0  0  0  0  0  0  0  0  0  0  0
    4.1623   -0.3250    0.6837 C   0  0  0  0  0  0  0  0  0  0  0  0
    3.9550   -0.2800    1.7618 H   0  0  0  0  0  0  0  0  0  0  0  0
    1.4252    0.1132    1.6906 C   0  0  0  0  0  0  0  0  0  0  0  0
    0.8409    1.0639    2.5524 C   0  0  0  0  0  0  0  0  0  0  0  0
    0.6516    2.0830    2.1944 H   0  0  0  0  0  0  0  0  0  0  0  0
    0.4889    0.7262    3.8686 C   0  0  0  0  0  0  0  0  0  0  0  0
    0.0323    1.4903    4.5155 H   0  0  0  0  0  0  0  0  0  0  0  0
    0.7040   -0.5711    4.3528 C   0  0  0  0  0  0  0  0  0  0  0  0
    0.4210   -0.8352    5.3826 H   0  0  0  0  0  0  0  0  0  0  0  0
    1.2672   -1.5356    3.5030 C   0  0  0  0  0  0  0  0  0  0  0  0
    1.4287   -2.5635    3.8607 H   0  0  0  0  0  0  0  0  0  0  0  0
    1.6148   -1.1995    2.1888 C   0  0  0  0  0  0  0  0  0  0  0  0
    2.0464   -1.9703    1.5358 H   0  0  0  0  0  0  0  0  0  0  0  0
  1 13  1  1  0  0  0
  2  3  1  0  0  0  0
  2  1  1  0  0  0  0
  3  4  1  0  0  0  0
  3 10  1  0  0  0  0
  3  1  1  0  0  0  0
  4  7  1  0  0  0  0
  4  6  1  0  0  0  0
  5  4  1  0  0  0  0
  7  8  1  0  0  0  0
  9  7  1  0  0  0  0
 10  7  1  0  0  0  0
 10 11  1  0  0  0  0
 12 10  1  0  0  0  0
 13 36  1  0  0  0  0
 14 13  1  0  0  0  0
 14 23  1  0  0  0  0
 15 14  2  0  0  0  0
 16 15  1  0  0  0  0
 17 15  1  0  0  0  0
 17 19  2  0  0  0  0
 18 17  1  0  0  0  0
 19 21  1  0  0  0  0
 20 19  1  0  0  0  0
 21 23  2  0  0  0  0
 21 22  1  0  0  0  0
 23 24  1  0  0  0  0
 25 13  1  0  0  0  0
 25 34  1  0  0  0  0
 26 25  2  0  0  0  0
 27 26  1  0  0  0  0
 28 26  1  0  0  0  0
 28 30  2  0  0  0  0
 29 28  1  0  0  0  0
 30 32  1  0  0  0  0
 31 30  1  0  0  0  0
 32 34  2  0  0  0  0
 32 33  1  0  0  0  0
 34 35  1  0  0  0  0
 36 45  2  0  0  0  0
 36 37  1  0  0  0  0
 37 39  2  0  0  0  0
 38 37  1  0  0  0  0
 39 41  1  0  0  0  0
 39 40  1  0  0  0  0
 41 42  1  0  0  0  0
 43 44  1  0  0  0  0
 43 41  2  0  0  0  0
 45 43  1  0  0  0  0
 46 45  1  0  0  0  0
M  END
