1
 OpenBabel05122313063D

 59 58  0  0  1  0  0  0  0  0999 V2000
   -0.3365    0.0971    0.2141 P   0  0  0  0  0  2  0  0  0  0  0  0
    0.9911    1.1684    0.2943 C   0  0  2  0  0  3  0  0  0  0  0  0
    2.3441    0.6167    0.2066 C   0  0  0  0  0  0  0  0  0  0  0  0
    3.4481    1.2530   -0.2841 C   0  0  0  0  0  0  0  0  0  0  0  0
    0.2399   -1.5255    0.2806 N   0  0  0  0  0  0  0  0  0  0  0  0
    0.8081    3.0513    0.6120 Si  0  0  0  0  0  0  0  0  0  0  0  0
   -0.7649    3.4735    1.5735 C   0  0  0  0  0  0  0  0  0  0  0  0
    2.2234    3.5658    1.7670 C   0  0  0  0  0  0  0  0  0  0  0  0
    0.8887    4.0297   -1.0054 C   0  0  0  0  0  0  0  0  0  0  0  0
    0.7167   -2.3731   -1.2364 Si  0  0  0  0  0  0  0  0  0  0  0  0
    1.0620   -1.0943   -2.5787 C   0  0  0  0  0  0  0  0  0  0  0  0
    2.3104   -3.3451   -0.9281 C   0  0  0  0  0  0  0  0  0  0  0  0
   -0.6403   -3.5607   -1.7919 C   0  0  0  0  0  0  0  0  0  0  0  0
    0.3375   -2.2829    1.9142 Si  0  0  0  0  0  0  0  0  0  0  0  0
    2.1032   -2.2169    2.5876 C   0  0  0  0  0  0  0  0  0  0  0  0
   -0.7675   -1.3344    3.1173 C   0  0  0  0  0  0  0  0  0  0  0  0
   -0.2360   -4.0783    1.8173 C   0  0  0  0  0  0  0  0  0  0  0  0
    5.1432    0.4616   -0.4964 Si  0  0  0  0  0  0  0  0  0  0  0  0
    6.4547    1.8038   -0.2454 C   0  0  0  0  0  0  0  0  0  0  0  0
    5.3860   -0.9281    0.7664 C   0  0  0  0  0  0  0  0  0  0  0  0
    5.2835   -0.2471   -2.2505 C   0  0  0  0  0  0  0  0  0  0  0  0
    2.4461   -0.4421    0.5044 H   0  0  0  0  0  0  0  0  0  0  0  0
    3.3288    2.2932   -0.6422 H   0  0  0  0  0  0  0  0  0  0  0  0
   -1.7002    3.3642    0.9976 H   0  0  0  0  0  0  0  0  0  0  0  0
   -0.6928    4.5342    1.8934 H   0  0  0  0  0  0  0  0  0  0  0  0
   -0.8487    2.8527    2.4880 H   0  0  0  0  0  0  0  0  0  0  0  0
    2.0749    4.6237    2.0686 H   0  0  0  0  0  0  0  0  0  0  0  0
    3.2265    3.4720    1.3107 H   0  0  0  0  0  0  0  0  0  0  0  0
    2.2123    2.9465    2.6875 H   0  0  0  0  0  0  0  0  0  0  0  0
    1.8212    3.8154   -1.5649 H   0  0  0  0  0  0  0  0  0  0  0  0
    0.8597    5.1184   -0.7916 H   0  0  0  0  0  0  0  0  0  0  0  0
    0.0306    3.7900   -1.6631 H   0  0  0  0  0  0  0  0  0  0  0  0
    1.3912   -1.6261   -3.4958 H   0  0  0  0  0  0  0  0  0  0  0  0
    1.8690   -0.3991   -2.2739 H   0  0  0  0  0  0  0  0  0  0  0  0
    0.1710   -0.4955   -2.8472 H   0  0  0  0  0  0  0  0  0  0  0  0
    3.1410   -2.6666   -0.6489 H   0  0  0  0  0  0  0  0  0  0  0  0
    2.6017   -3.8678   -1.8628 H   0  0  0  0  0  0  0  0  0  0  0  0
    2.2085   -4.1130   -0.1362 H   0  0  0  0  0  0  0  0  0  0  0  0
   -0.8573   -4.3238   -1.0193 H   0  0  0  0  0  0  0  0  0  0  0  0
   -0.3257   -4.0879   -2.7166 H   0  0  0  0  0  0  0  0  0  0  0  0
   -1.5828   -3.0248   -2.0154 H   0  0  0  0  0  0  0  0  0  0  0  0
    2.8258   -2.7297    1.9234 H   0  0  0  0  0  0  0  0  0  0  0  0
    2.1415   -2.7152    3.5789 H   0  0  0  0  0  0  0  0  0  0  0  0
    2.4443   -1.1707    2.7219 H   0  0  0  0  0  0  0  0  0  0  0  0
   -1.8400   -1.3973    2.8514 H   0  0  0  0  0  0  0  0  0  0  0  0
   -0.4912   -0.2628    3.1874 H   0  0  0  0  0  0  0  0  0  0  0  0
   -0.6421   -1.7781    4.1271 H   0  0  0  0  0  0  0  0  0  0  0  0
   -0.1867   -4.5280    2.8307 H   0  0  0  0  0  0  0  0  0  0  0  0
    0.3959   -4.6963    1.1493 H   0  0  0  0  0  0  0  0  0  0  0  0
   -1.2841   -4.1392    1.4646 H   0  0  0  0  0  0  0  0  0  0  0  0
    7.4766    1.3966   -0.3899 H   0  0  0  0  0  0  0  0  0  0  0  0
    6.3987    2.2308    0.7770 H   0  0  0  0  0  0  0  0  0  0  0  0
    6.3171    2.6345   -0.9682 H   0  0  0  0  0  0  0  0  0  0  0  0
    5.2508   -0.5579    1.8027 H   0  0  0  0  0  0  0  0  0  0  0  0
    6.4082   -1.3511    0.6820 H   0  0  0  0  0  0  0  0  0  0  0  0
    4.6693   -1.7592    0.6098 H   0  0  0  0  0  0  0  0  0  0  0  0
    4.5250   -1.0399   -2.4149 H   0  0  0  0  0  0  0  0  0  0  0  0
    6.2864   -0.6893   -2.4247 H   0  0  0  0  0  0  0  0  0  0  0  0
    5.1192    0.5397   -3.0149 H   0  0  0  0  0  0  0  0  0  0  0  0
  1  5  1  0  0  0  0
  1  2  1  0  0  0  0
  2  3  1  1  0  0  0
  2  6  1  0  0  0  0
  3 22  1  0  0  0  0
  4  3  2  0  0  0  0
  5 14  1  0  0  0  0
  6  7  1  0  0  0  0
  6  8  1  0  0  0  0
  7 25  1  0  0  0  0
  7 26  1  0  0  0  0
  8 27  1  0  0  0  0
  8 29  1  0  0  0  0
  9 31  1  0  0  0  0
  9  6  1  0  0  0  0
 10 12  1  0  0  0  0
 10  5  1  0  0  0  0
 11 34  1  0  0  0  0
 11 10  1  0  0  0  0
 12 36  1  0  0  0  0
 12 38  1  0  0  0  0
 13 10  1  0  0  0  0
 13 39  1  0  0  0  0
 14 15  1  0  0  0  0
 14 16  1  0  0  0  0
 15 44  1  0  0  0  0
 15 43  1  0  0  0  0
 16 46  1  0  0  0  0
 16 47  1  0  0  0  0
 17 14  1  0  0  0  0
 17 48  1  0  0  0  0
 18  4  1  0  0  0  0
 18 19  1  0  0  0  0
 18 20  1  0  0  0  0
 19 52  1  0  0  0  0
 20 54  1  0  0  0  0
 21 18  1  0  0  0  0
 23  4  1  0  0  0  0
 24  7  1  0  0  0  0
 28  8  1  0  0  0  0
 30  9  1  0  0  0  0
 32  9  1  0  0  0  0
 33 11  1  0  0  0  0
 35 11  1  0  0  0  0
 37 12  1  0  0  0  0
 40 13  1  0  0  0  0
 41 13  1  0  0  0  0
 42 15  1  0  0  0  0
 45 16  1  0  0  0  0
 49 17  1  0  0  0  0
 50 17  1  0  0  0  0
 51 19  1  0  0  0  0
 53 19  1  0  0  0  0
 55 20  1  0  0  0  0
 56 20  1  0  0  0  0
 57 21  1  0  0  0  0
 58 21  1  0  0  0  0
 59 21  1  0  0  0  0
M  END
