1
 OpenBabel05122313063D

 43 44  0  0  0  0  0  0  0  0999 V2000
    0.4508    0.2671    0.0926 P   0  0  0  0  0  0  0  0  0  0  0  0
    2.2784   -0.2621    0.0130 C   0  0  0  0  0  0  0  0  0  0  0  0
    2.8481   -0.8941    1.3304 C   0  0  0  0  0  0  0  0  0  0  0  0
    2.0864   -0.3895    2.5685 C   0  0  0  0  0  0  0  0  0  0  0  0
    4.3375   -0.5337    1.5400 C   0  0  0  0  0  0  0  0  0  0  0  0
    2.6522   -2.4305    1.2754 C   0  0  0  0  0  0  0  0  0  0  0  0
    3.1571   -3.0882   -0.0067 C   0  0  0  0  0  0  0  0  0  0  0  0
    2.4950   -2.4568   -1.2297 C   0  0  0  0  0  0  0  0  0  0  0  0
    2.7250   -0.9284   -1.3389 C   0  0  0  0  0  0  0  0  0  0  0  0
    1.8777   -0.4089   -2.5137 C   0  0  0  0  0  0  0  0  0  0  0  0
    4.2037   -0.6514   -1.7002 C   0  0  0  0  0  0  0  0  0  0  0  0
    1.8223    1.1903    0.0123 C   0  0  0  0  0  0  0  0  0  0  0  0
    2.2882    2.6246   -0.0143 C   0  0  0  0  0  0  0  0  0  0  0  0
    3.5637    2.8027   -0.8600 C   0  0  0  0  0  0  0  0  0  0  0  0
    1.1455    3.4788   -0.6022 C   0  0  0  0  0  0  0  0  0  0  0  0
    2.5761    3.1006    1.4316 C   0  0  0  0  0  0  0  0  0  0  0  0
    2.4534   -0.9205    3.4698 H   0  0  0  0  0  0  0  0  0  0  0  0
    0.9961   -0.5880    2.4899 H   0  0  0  0  0  0  0  0  0  0  0  0
    2.2144    0.6970    2.7318 H   0  0  0  0  0  0  0  0  0  0  0  0
    5.0156   -1.0558    0.8427 H   0  0  0  0  0  0  0  0  0  0  0  0
    4.5063    0.5553    1.4195 H   0  0  0  0  0  0  0  0  0  0  0  0
    4.6502   -0.8098    2.5679 H   0  0  0  0  0  0  0  0  0  0  0  0
    1.5619   -2.6336    1.3707 H   0  0  0  0  0  0  0  0  0  0  0  0
    3.1333   -2.8853    2.1680 H   0  0  0  0  0  0  0  0  0  0  0  0
    2.9425   -4.1769    0.0201 H   0  0  0  0  0  0  0  0  0  0  0  0
    4.2630   -3.0027   -0.0775 H   0  0  0  0  0  0  0  0  0  0  0  0
    1.3991   -2.6421   -1.1822 H   0  0  0  0  0  0  0  0  0  0  0  0
    2.8530   -2.9399   -2.1642 H   0  0  0  0  0  0  0  0  0  0  0  0
    0.7924   -0.5765   -2.3495 H   0  0  0  0  0  0  0  0  0  0  0  0
    2.1602   -0.9450   -3.4419 H   0  0  0  0  0  0  0  0  0  0  0  0
    2.0179    0.6774   -2.6843 H   0  0  0  0  0  0  0  0  0  0  0  0
    4.4349    0.4286   -1.6748 H   0  0  0  0  0  0  0  0  0  0  0  0
    4.9197   -1.1658   -1.0360 H   0  0  0  0  0  0  0  0  0  0  0  0
    4.4023   -1.0129   -2.7300 H   0  0  0  0  0  0  0  0  0  0  0  0
    3.8671    3.8694   -0.8626 H   0  0  0  0  0  0  0  0  0  0  0  0
    4.4067    2.2124   -0.4496 H   0  0  0  0  0  0  0  0  0  0  0  0
    3.4010    2.4938   -1.9113 H   0  0  0  0  0  0  0  0  0  0  0  0
    1.4289    4.5506   -0.6229 H   0  0  0  0  0  0  0  0  0  0  0  0
    0.9026    3.1605   -1.6359 H   0  0  0  0  0  0  0  0  0  0  0  0
    0.2248    3.3808    0.0078 H   0  0  0  0  0  0  0  0  0  0  0  0
    2.8692    4.1708    1.4224 H   0  0  0  0  0  0  0  0  0  0  0  0
    1.6777    2.9924    2.0708 H   0  0  0  0  0  0  0  0  0  0  0  0
    3.4031    2.5253    1.8926 H   0  0  0  0  0  0  0  0  0  0  0  0
  2  1  1  0  0  0  0
  2  3  1  0  0  0  0
  3  5  1  0  0  0  0
  3  4  1  0  0  0  0
  4 19  1  0  0  0  0
  4 17  1  0  0  0  0
  5 22  1  0  0  0  0
  6  3  1  0  0  0  0
  6 23  1  0  0  0  0
  6 24  1  0  0  0  0
  7 25  1  0  0  0  0
  7  6  1  0  0  0  0
  8 27  1  0  0  0  0
  8  7  1  0  0  0  0
  9  8  1  0  0  0  0
  9  2  1  0  0  0  0
 10 29  1  0  0  0  0
 10  9  1  0  0  0  0
 11 32  1  0  0  0  0
 11  9  1  0  0  0  0
 11 33  1  0  0  0  0
 12  2  1  0  0  0  0
 12  1  2  0  0  0  0
 13 12  1  0  0  0  0
 13 16  1  0  0  0  0
 14 36  1  0  0  0  0
 14 13  1  0  0  0  0
 15 13  1  0  0  0  0
 15 40  1  0  0  0  0
 16 43  1  0  0  0  0
 16 42  1  0  0  0  0
 18  4  1  0  0  0  0
 20  5  1  0  0  0  0
 21  5  1  0  0  0  0
 26  7  1  0  0  0  0
 28  8  1  0  0  0  0
 30 10  1  0  0  0  0
 31 10  1  0  0  0  0
 34 11  1  0  0  0  0
 35 14  1  0  0  0  0
 37 14  1  0  0  0  0
 38 15  1  0  0  0  0
 39 15  1  0  0  0  0
 41 16  1  0  0  0  0
M  END
