1
 OpenBabel05122313063D

 25 26  0  0  1  0  0  0  0  0999 V2000
   -0.3906    0.0153    0.5600 P   0  0  2  0  0  0  0  0  0  0  0  0
   -2.8853   -0.0336   -0.6649 F   0  0  0  0  0  0  0  0  0  0  0  0
   -0.9630   -1.0746   -2.4251 F   0  0  0  0  0  0  0  0  0  0  0  0
   -2.7409   -2.2568   -1.9936 F   0  0  0  0  0  0  0  0  0  0  0  0
   -0.8240   -2.8392   -1.1388 F   0  0  0  0  0  0  0  0  0  0  0  0
   -0.2779    2.4982    1.4926 F   0  0  0  0  0  0  0  0  0  0  0  0
   -2.3205    1.9787    0.9000 F   0  0  0  0  0  0  0  0  0  0  0  0
    0.4234    2.9881   -0.9958 F   0  0  0  0  0  0  0  0  0  0  0  0
   -1.6429    3.6595   -0.8706 F   0  0  0  0  0  0  0  0  0  0  0  0
   -1.1734    1.7525   -1.8287 F   0  0  0  0  0  0  0  0  0  0  0  0
   -1.9186   -0.9223   -0.2294 C   0  0  2  0  0  0  0  0  0  0  0  0
   -2.4566   -1.7893    0.9618 C   0  0  2  0  0  0  0  0  0  0  0  0
   -3.2330   -0.8514    1.8687 C   0  0  0  0  0  0  0  0  0  0  0  0
   -2.3431   -0.1576    2.6127 C   0  0  0  0  0  0  0  0  0  0  0  0
   -0.9502   -0.6239    2.2732 C   0  0  1  0  0  0  0  0  0  0  0  0
   -1.2196   -2.0841    1.8342 C   0  0  0  0  0  0  0  0  0  0  0  0
   -1.5934   -1.7786   -1.4687 C   0  0  0  0  0  0  0  0  0  0  0  0
   -1.0197    1.8480    0.5482 C   0  0  0  0  0  0  0  0  0  0  0  0
   -0.8448    2.5843   -0.8216 C   0  0  0  0  0  0  0  0  0  0  0  0
   -3.0148   -2.6672    0.5860 H   0  0  0  0  0  0  0  0  0  0  0  0
   -4.3165   -0.6877    1.8129 H   0  0  0  0  0  0  0  0  0  0  0  0
   -2.5618    0.6770    3.2916 H   0  0  0  0  0  0  0  0  0  0  0  0
   -0.1601   -0.4622    3.0257 H   0  0  0  0  0  0  0  0  0  0  0  0
   -1.4886   -2.7095    2.7084 H   0  0  0  0  0  0  0  0  0  0  0  0
   -0.3845   -2.5651    1.2878 H   0  0  0  0  0  0  0  0  0  0  0  0
  1 18  1  1  0  0  0
  1 15  1  0  0  0  0
  3 17  1  0  0  0  0
  4 17  1  0  0  0  0
  8 19  1  0  0  0  0
  9 19  1  0  0  0  0
 10 19  1  0  0  0  0
 11  2  1  6  0  0  0
 11  1  1  0  0  0  0
 11 12  1  0  0  0  0
 12 20  1  6  0  0  0
 12 16  1  0  0  0  0
 12 13  1  0  0  0  0
 13 14  2  0  0  0  0
 14 22  1  0  0  0  0
 15 14  1  0  0  0  0
 15 23  1  1  0  0  0
 16 15  1  0  0  0  0
 16 24  1  0  0  0  0
 17  5  1  0  0  0  0
 17 11  1  0  0  0  0
 18  7  1  0  0  0  0
 18  6  1  0  0  0  0
 19 18  1  0  0  0  0
 21 13  1  0  0  0  0
 25 16  1  0  0  0  0
M  END
