1
 OpenBabel05122313063D

 20 21  0  0  0  0  0  0  0  0999 V2000
   -1.7276   -0.7997   -0.1611 P   0  0  0  0  0  4  0  0  0  0  0  0
   -2.5373   -0.2249    1.2811 N   0  0  0  0  0  0  0  0  0  0  0  0
   -2.4886    0.2583   -1.3311 N   0  0  0  0  0  0  0  0  0  0  0  0
   -2.0923   -2.2690   -0.3429 O   0  0  0  0  0  0  0  0  0  0  0  0
   -3.2749   -1.0396    2.1342 C   0  0  0  0  0  0  0  0  0  0  0  0
   -3.4324   -2.0913    1.8750 H   0  0  0  0  0  0  0  0  0  0  0  0
   -3.6906   -0.2638    3.2046 C   0  0  0  0  0  0  0  0  0  0  0  0
   -4.3083   -0.6101    4.0415 H   0  0  0  0  0  0  0  0  0  0  0  0
   -3.1800    1.0620    3.0026 C   0  0  0  0  0  0  0  0  0  0  0  0
   -3.3237    1.9284    3.6588 H   0  0  0  0  0  0  0  0  0  0  0  0
   -2.4692    1.0610    1.8137 C   0  0  0  0  0  0  0  0  0  0  0  0
   -1.9121    1.8454    1.2893 H   0  0  0  0  0  0  0  0  0  0  0  0
   -3.8380    0.5987   -1.3725 C   0  0  0  0  0  0  0  0  0  0  0  0
   -4.5120    0.2966   -0.5642 H   0  0  0  0  0  0  0  0  0  0  0  0
   -4.0595    1.3225   -2.5321 C   0  0  0  0  0  0  0  0  0  0  0  0
   -5.0221    1.7433   -2.8459 H   0  0  0  0  0  0  0  0  0  0  0  0
   -2.8087    1.4254   -3.2259 C   0  0  0  0  0  0  0  0  0  0  0  0
   -2.6216    1.9435   -4.1736 H   0  0  0  0  0  0  0  0  0  0  0  0
   -1.8605    0.7599   -2.4680 C   0  0  0  0  0  0  0  0  0  0  0  0
   -0.7855    0.6080   -2.6190 H   0  0  0  0  0  0  0  0  0  0  0  0
  1  2  1  0  0  0  0
  2 11  1  0  0  0  0
  2  5  1  0  0  0  0
  3  1  1  0  0  0  0
  4  1  2  0  0  0  0
  5  7  2  0  0  0  0
  6  5  1  0  0  0  0
  7  8  1  0  0  0  0
  9  7  1  0  0  0  0
  9 10  1  0  0  0  0
 11  9  2  0  0  0  0
 12 11  1  0  0  0  0
 13  3  1  0  0  0  0
 13 14  1  0  0  0  0
 15 13  2  0  0  0  0
 16 15  1  0  0  0  0
 17 15  1  0  0  0  0
 17 19  2  0  0  0  0
 18 17  1  0  0  0  0
 19  3  1  0  0  0  0
 20 19  1  0  0  0  0
M  END
