1
 OpenBabel05122313063D

 32 35  0  0  0  0  0  0  0  0999 V2000
   -0.2121    0.2504   -0.0432 P   0  0  0  0  0  0  0  0  0  0  0  0
   -0.5581    2.0633   -0.1359 C   0  0  0  0  0  0  0  0  0  0  0  0
    0.3799    2.9848    0.3686 C   0  0  0  0  0  0  0  0  0  0  0  0
    0.0977    4.3593    0.3516 C   0  0  0  0  0  0  0  0  0  0  0  0
   -1.1168    4.8237   -0.1749 C   0  0  0  0  0  0  0  0  0  0  0  0
   -2.0542    3.9082   -0.6807 C   0  0  0  0  0  0  0  0  0  0  0  0
   -1.7806    2.5336   -0.6604 C   0  0  0  0  0  0  0  0  0  0  0  0
   -1.2534   -0.3115    1.3657 C   0  0  0  0  0  0  0  0  0  0  0  0
   -1.0272   -0.1025    2.7310 C   0  0  0  0  0  0  0  0  0  0  0  0
   -1.9199   -0.6592    3.6622 C   0  0  0  0  0  0  0  0  0  0  0  0
   -3.0163   -1.4237    3.2243 C   0  0  0  0  0  0  0  0  0  0  0  0
   -3.2395   -1.6373    1.8560 C   0  0  0  0  0  0  0  0  0  0  0  0
   -2.3594   -1.0780    0.9115 C   0  0  0  0  0  0  0  0  0  0  0  0
   -2.4377   -1.1831   -0.5583 C   0  0  0  0  0  0  0  0  0  0  0  0
   -3.4124   -1.8576   -1.3166 C   0  0  0  0  0  0  0  0  0  0  0  0
   -3.3436   -1.8313   -2.7177 C   0  0  0  0  0  0  0  0  0  0  0  0
   -2.3096   -1.1394   -3.3743 C   0  0  0  0  0  0  0  0  0  0  0  0
   -1.3231   -0.4717   -2.6300 C   0  0  0  0  0  0  0  0  0  0  0  0
   -1.3917   -0.4961   -1.2316 C   0  0  0  0  0  0  0  0  0  0  0  0
    1.3364    2.6333    0.7789 H   0  0  0  0  0  0  0  0  0  0  0  0
    0.8382    5.0704    0.7477 H   0  0  0  0  0  0  0  0  0  0  0  0
   -1.3332    5.9025   -0.1945 H   0  0  0  0  0  0  0  0  0  0  0  0
   -3.0081    4.2666   -1.0966 H   0  0  0  0  0  0  0  0  0  0  0  0
   -2.5189    1.8206   -1.0565 H   0  0  0  0  0  0  0  0  0  0  0  0
   -0.1632    0.4862    3.0736 H   0  0  0  0  0  0  0  0  0  0  0  0
   -1.7557   -0.5004    4.7385 H   0  0  0  0  0  0  0  0  0  0  0  0
   -3.7052   -1.8619    3.9620 H   0  0  0  0  0  0  0  0  0  0  0  0
   -4.0989   -2.2401    1.5259 H   0  0  0  0  0  0  0  0  0  0  0  0
   -4.2279   -2.4006   -0.8157 H   0  0  0  0  0  0  0  0  0  0  0  0
   -4.1073   -2.3589   -3.3087 H   0  0  0  0  0  0  0  0  0  0  0  0
   -2.2677   -1.1271   -4.4735 H   0  0  0  0  0  0  0  0  0  0  0  0
   -0.5081    0.0630   -3.1403 H   0  0  0  0  0  0  0  0  0  0  0  0
  1  8  1  0  0  0  0
  2  1  1  0  0  0  0
  2  3  1  0  0  0  0
  3 20  1  0  0  0  0
  4  3  2  0  0  0  0
  4 21  1  0  0  0  0
  5  4  1  0  0  0  0
  6  7  1  0  0  0  0
  6  5  2  0  0  0  0
  7  2  2  0  0  0  0
  8  9  1  0  0  0  0
  9 25  1  0  0  0  0
  9 10  2  0  0  0  0
 10 26  1  0  0  0  0
 11 10  1  0  0  0  0
 11 27  1  0  0  0  0
 12 11  2  0  0  0  0
 13  8  2  0  0  0  0
 13 12  1  0  0  0  0
 14 13  1  0  0  0  0
 15 29  1  0  0  0  0
 15 14  2  0  0  0  0
 16 15  1  0  0  0  0
 17 16  2  0  0  0  0
 17 18  1  0  0  0  0
 18 19  2  0  0  0  0
 19 14  1  0  0  0  0
 19  1  1  0  0  0  0
 22  5  1  0  0  0  0
 23  6  1  0  0  0  0
 24  7  1  0  0  0  0
 28 12  1  0  0  0  0
 30 16  1  0  0  0  0
 31 17  1  0  0  0  0
 32 18  1  0  0  0  0
M  END
