1
 OpenBabel05122313063D

 38 41  0  0  0  0  0  0  0  0999 V2000
   -2.3177   -0.5178   -0.1172 P   0  0  0  0  0  0  0  0  0  0  0  0
   -1.2869    2.1950    1.3561 N   0  0  0  0  0  0  0  0  0  0  0  0
   -0.9387    1.3322    1.8100 H   0  0  0  0  0  0  0  0  0  0  0  0
   -0.9736    3.4785    1.7607 C   0  0  0  0  0  0  0  0  0  0  0  0
   -0.3562    3.6344    2.6523 H   0  0  0  0  0  0  0  0  0  0  0  0
   -1.5145    4.3961    0.8772 C   0  0  0  0  0  0  0  0  0  0  0  0
   -1.4200    5.4852    0.9363 H   0  0  0  0  0  0  0  0  0  0  0  0
   -2.1823    3.6412   -0.1476 C   0  0  0  0  0  0  0  0  0  0  0  0
   -2.8702    3.9776   -1.3331 C   0  0  0  0  0  0  0  0  0  0  0  0
   -2.9980    5.0331   -1.6184 H   0  0  0  0  0  0  0  0  0  0  0  0
   -3.3748    2.9560   -2.1453 C   0  0  0  0  0  0  0  0  0  0  0  0
   -3.9008    3.2081   -3.0783 H   0  0  0  0  0  0  0  0  0  0  0  0
   -3.2306    1.5953   -1.7898 C   0  0  0  0  0  0  0  0  0  0  0  0
   -3.6378    0.8160   -2.4495 H   0  0  0  0  0  0  0  0  0  0  0  0
   -2.5705    1.2182   -0.6071 C   0  0  0  0  0  0  0  0  0  0  0  0
   -2.0188    2.2520    0.1917 C   0  0  0  0  0  0  0  0  0  0  0  0
   -3.2970   -1.5737   -1.2554 C   0  0  0  0  0  0  0  0  0  0  0  0
   -4.6992   -1.4169   -1.3080 C   0  0  0  0  0  0  0  0  0  0  0  0
   -5.1897   -0.6448   -0.6959 H   0  0  0  0  0  0  0  0  0  0  0  0
   -5.4665   -2.2510   -2.1321 C   0  0  0  0  0  0  0  0  0  0  0  0
   -6.5586   -2.1213   -2.1742 H   0  0  0  0  0  0  0  0  0  0  0  0
   -4.8440   -3.2549   -2.8932 C   0  0  0  0  0  0  0  0  0  0  0  0
   -5.4493   -3.9125   -3.5357 H   0  0  0  0  0  0  0  0  0  0  0  0
   -3.4525   -3.4222   -2.8287 C   0  0  0  0  0  0  0  0  0  0  0  0
   -2.9623   -4.2101   -3.4202 H   0  0  0  0  0  0  0  0  0  0  0  0
   -2.6760   -2.5840   -2.0133 C   0  0  0  0  0  0  0  0  0  0  0  0
   -1.5831   -2.6950   -1.9740 H   0  0  0  0  0  0  0  0  0  0  0  0
   -3.2436   -0.7137    1.4589 C   0  0  0  0  0  0  0  0  0  0  0  0
   -3.1211   -1.9412    2.1421 C   0  0  0  0  0  0  0  0  0  0  0  0
   -2.4494   -2.7195    1.7487 H   0  0  0  0  0  0  0  0  0  0  0  0
   -3.8460   -2.1643    3.3187 C   0  0  0  0  0  0  0  0  0  0  0  0
   -3.7474   -3.1244    3.8473 H   0  0  0  0  0  0  0  0  0  0  0  0
   -4.6857   -1.1598    3.8301 C   0  0  0  0  0  0  0  0  0  0  0  0
   -5.2487   -1.3334    4.7598 H   0  0  0  0  0  0  0  0  0  0  0  0
   -4.8014    0.0656    3.1574 C   0  0  0  0  0  0  0  0  0  0  0  0
   -5.4558    0.8559    3.5556 H   0  0  0  0  0  0  0  0  0  0  0  0
   -4.0838    0.2921    1.9715 C   0  0  0  0  0  0  0  0  0  0  0  0
   -4.1783    1.2526    1.4433 H   0  0  0  0  0  0  0  0  0  0  0  0
  1 28  1  0  0  0  0
  2  4  1  0  0  0  0
  2  3  1  0  0  0  0
  4  5  1  0  0  0  0
  6  7  1  0  0  0  0
  6  4  2  0  0  0  0
  8 16  1  0  0  0  0
  8  6  1  0  0  0  0
  9  8  2  0  0  0  0
 10  9  1  0  0  0  0
 11 13  2  0  0  0  0
 11  9  1  0  0  0  0
 12 11  1  0  0  0  0
 13 15  1  0  0  0  0
 14 13  1  0  0  0  0
 15  1  1  0  0  0  0
 15 16  2  0  0  0  0
 16  2  1  0  0  0  0
 17  1  1  0  0  0  0
 18 17  1  0  0  0  0
 18 19  1  0  0  0  0
 20 18  2  0  0  0  0
 21 20  1  0  0  0  0
 22 24  2  0  0  0  0
 22 20  1  0  0  0  0
 23 22  1  0  0  0  0
 24 26  1  0  0  0  0
 25 24  1  0  0  0  0
 26 27  1  0  0  0  0
 26 17  2  0  0  0  0
 28 37  2  0  0  0  0
 28 29  1  0  0  0  0
 29 31  2  0  0  0  0
 30 29  1  0  0  0  0
 31 33  1  0  0  0  0
 31 32  1  0  0  0  0
 33 34  1  0  0  0  0
 35 36  1  0  0  0  0
 35 33  2  0  0  0  0
 37 35  1  0  0  0  0
 38 37  1  0  0  0  0
M  END
