31
 OpenBabel05122313063D

 32 33  0  0  0  0  0  0  0  0999 V2000
   -0.9485   -0.4720   -2.3531 C   0  0  0  0  0  0  0  0  0  0  0  0
   -0.4494   -0.0819   -3.2510 H   0  0  0  0  0  0  0  0  0  0  0  0
   -1.7174   -1.6039   -2.3129 C   0  0  0  0  0  0  0  0  0  0  0  0
   -1.9877   -2.4756   -3.5044 C   0  0  0  0  0  0  0  0  0  0  0  0
   -3.0764   -2.6004   -3.6806 H   0  0  0  0  0  0  0  0  0  0  0  0
   -1.5666   -3.4929   -3.3597 H   0  0  0  0  0  0  0  0  0  0  0  0
   -1.5356   -2.0486   -4.4187 H   0  0  0  0  0  0  0  0  0  0  0  0
   -2.2545   -1.9226   -0.9672 C   0  0  0  0  0  0  0  0  0  0  0  0
   -3.1092   -3.1271   -0.7359 C   0  0  0  0  0  0  0  0  0  0  0  0
   -2.7591   -3.6926    0.1513 H   0  0  0  0  0  0  0  0  0  0  0  0
   -3.1402   -3.7921   -1.6179 H   0  0  0  0  0  0  0  0  0  0  0  0
   -4.1453   -2.8248   -0.4740 H   0  0  0  0  0  0  0  0  0  0  0  0
   -1.8720   -1.0119    0.0077 C   0  0  0  0  0  0  0  0  0  0  0  0
   -2.2233   -0.9441    1.4164 C   0  0  0  0  0  0  0  0  0  0  0  0
   -1.7046    0.3116    3.3987 C   0  0  0  0  0  0  0  0  0  0  0  0
   -2.7633    0.5483    3.6289 H   0  0  0  0  0  0  0  0  0  0  0  0
   -1.0426    1.1658    3.6259 H   0  0  0  0  0  0  0  0  0  0  0  0
   -1.4141   -0.5852    3.9835 H   0  0  0  0  0  0  0  0  0  0  0  0
   -1.5356    1.8268   -0.6580 C   0  0  0  0  0  0  0  0  0  0  0  0
   -2.9327    1.8884   -0.8412 C   0  0  0  0  0  0  0  0  0  0  0  0
   -3.5071    0.9607   -0.9888 H   0  0  0  0  0  0  0  0  0  0  0  0
   -3.5852    3.1278   -0.8265 C   0  0  0  0  0  0  0  0  0  0  0  0
   -4.6763    3.1717   -0.9641 H   0  0  0  0  0  0  0  0  0  0  0  0
   -2.8502    4.3106   -0.6340 C   0  0  0  0  0  0  0  0  0  0  0  0
   -3.3659    5.2827   -0.6206 H   0  0  0  0  0  0  0  0  0  0  0  0
   -1.4603    4.2505   -0.4565 C   0  0  0  0  0  0  0  0  0  0  0  0
   -0.8803    5.1732   -0.3048 H   0  0  0  0  0  0  0  0  0  0  0  0
   -0.8014    3.0105   -0.4659 C   0  0  0  0  0  0  0  0  0  0  0  0
    0.2873    2.9634   -0.3217 H   0  0  0  0  0  0  0  0  0  0  0  0
   -1.5375    0.0667    2.0025 O   0  0  0  0  0  0  0  0  0  0  0  0
   -0.6820    0.1969   -0.6934 P   0  0  2  0  0  0  0  0  0  0  0  0
   -3.3115   -1.9016    2.2302 S   0  0  0  0  0  0  0  0  0  0  0  0
  1  3  2  0  0  0  0
  1 31  1  0  0  0  0
  2  1  1  0  0  0  0
  3  8  1  0  0  0  0
  4  6  1  0  0  0  0
  4  3  1  0  0  0  0
  5  4  1  0  0  0  0
  7  4  1  0  0  0  0
  8  9  1  0  0  0  0
  8 13  2  0  0  0  0
  9 12  1  0  0  0  0
  9 10  1  0  0  0  0
 11  9  1  0  0  0  0
 13 14  1  0  0  0  0
 14 30  1  0  0  0  0
 14 32  2  0  0  0  0
 15 17  1  0  0  0  0
 15 16  1  0  0  0  0
 15 18  1  0  0  0  0
 19 28  1  0  0  0  0
 20 22  1  0  0  0  0
 20 19  2  0  0  0  0
 21 20  1  0  0  0  0
 22 24  2  0  0  0  0
 23 22  1  0  0  0  0
 24 25  1  0  0  0  0
 24 26  1  0  0  0  0
 26 27  1  0  0  0  0
 28 26  2  0  0  0  0
 28 29  1  0  0  0  0
 30 15  1  0  0  0  0
 31 19  1  6  0  0  0
 31 13  1  0  0  0  0
M  END
