1
 OpenBabel05122313063D

 49 51  0  0  0  0  0  0  0  0999 V2000
    0.3521    0.1247   -0.3022 P   0  0  0  0  0  0  0  0  0  0  0  0
   -3.7256   -0.7345   -0.2660 N   0  0  0  0  0  0  0  0  0  0  0  0
   -5.7678    0.1314    0.0422 N   0  0  0  0  0  0  0  0  0  0  0  0
   -4.5463    0.0237    0.5394 C   0  0  0  0  0  0  0  0  0  0  0  0
   -4.1761    0.4655    1.4754 H   0  0  0  0  0  0  0  0  0  0  0  0
   -5.7438   -0.5759   -1.1388 C   0  0  0  0  0  0  0  0  0  0  0  0
   -6.6347   -0.6708   -1.7731 H   0  0  0  0  0  0  0  0  0  0  0  0
   -4.4862   -1.1190   -1.3575 C   0  0  0  0  0  0  0  0  0  0  0  0
   -4.0718   -1.7424   -2.1575 H   0  0  0  0  0  0  0  0  0  0  0  0
   -2.3048   -0.9643   -0.0659 C   0  0  0  0  0  0  0  0  0  0  0  0
   -2.0498   -1.9748   -0.4393 H   0  0  0  0  0  0  0  0  0  0  0  0
   -2.1041   -0.9729    1.0224 H   0  0  0  0  0  0  0  0  0  0  0  0
   -1.4536    0.1168   -0.7459 C   0  0  0  0  0  0  0  0  0  0  0  0
   -1.8368    1.1104   -0.4323 H   0  0  0  0  0  0  0  0  0  0  0  0
   -1.5549    0.0651   -1.8494 H   0  0  0  0  0  0  0  0  0  0  0  0
    1.1769   -1.0086   -1.5504 C   0  0  0  0  0  0  0  0  0  0  0  0
    1.1789   -0.4092   -2.4893 H   0  0  0  0  0  0  0  0  0  0  0  0
    2.6388   -1.2976   -1.1660 C   0  0  0  0  0  0  0  0  0  0  0  0
    2.6517   -1.8363   -0.1944 H   0  0  0  0  0  0  0  0  0  0  0  0
    3.1953   -0.3528   -0.9985 H   0  0  0  0  0  0  0  0  0  0  0  0
    3.3436   -2.1434   -2.2354 C   0  0  0  0  0  0  0  0  0  0  0  0
    3.4272   -1.5537   -3.1762 H   0  0  0  0  0  0  0  0  0  0  0  0
    4.3820   -2.3625   -1.9111 H   0  0  0  0  0  0  0  0  0  0  0  0
    2.5786   -3.4411   -2.5169 C   0  0  0  0  0  0  0  0  0  0  0  0
    3.0845   -4.0273   -3.3120 H   0  0  0  0  0  0  0  0  0  0  0  0
    2.5874   -4.0763   -1.6031 H   0  0  0  0  0  0  0  0  0  0  0  0
    1.1269   -3.1473   -2.9110 C   0  0  0  0  0  0  0  0  0  0  0  0
    0.5680   -4.0907   -3.0825 H   0  0  0  0  0  0  0  0  0  0  0  0
    1.1136   -2.5946   -3.8776 H   0  0  0  0  0  0  0  0  0  0  0  0
    0.4071   -2.3101   -1.8421 C   0  0  0  0  0  0  0  0  0  0  0  0
   -0.6227   -2.0826   -2.1860 H   0  0  0  0  0  0  0  0  0  0  0  0
    0.3146   -2.9096   -0.9132 H   0  0  0  0  0  0  0  0  0  0  0  0
    0.9139    1.8190   -0.8877 C   0  0  0  0  0  0  0  0  0  0  0  0
    2.0224    1.7085   -0.9261 H   0  0  0  0  0  0  0  0  0  0  0  0
    0.4153    2.2033   -2.2941 C   0  0  0  0  0  0  0  0  0  0  0  0
    0.6504    1.4136   -3.0378 H   0  0  0  0  0  0  0  0  0  0  0  0
   -0.6920    2.3026   -2.2757 H   0  0  0  0  0  0  0  0  0  0  0  0
    1.0224    3.5408   -2.7463 C   0  0  0  0  0  0  0  0  0  0  0  0
    2.1245    3.4231   -2.8482 H   0  0  0  0  0  0  0  0  0  0  0  0
    0.6402    3.8022   -3.7551 H   0  0  0  0  0  0  0  0  0  0  0  0
    0.7194    4.6604   -1.7444 C   0  0  0  0  0  0  0  0  0  0  0  0
   -0.3776    4.8498   -1.7312 H   0  0  0  0  0  0  0  0  0  0  0  0
    1.1960    5.6091   -2.0679 H   0  0  0  0  0  0  0  0  0  0  0  0
    1.1819    4.2787   -0.3340 C   0  0  0  0  0  0  0  0  0  0  0  0
    0.9111    5.0705    0.3948 H   0  0  0  0  0  0  0  0  0  0  0  0
    2.2924    4.2044   -0.3165 H   0  0  0  0  0  0  0  0  0  0  0  0
    0.5909    2.9366    0.1193 C   0  0  0  0  0  0  0  0  0  0  0  0
   -0.5131    3.0344    0.2216 H   0  0  0  0  0  0  0  0  0  0  0  0
    0.9714    2.6652    1.1227 H   0  0  0  0  0  0  0  0  0  0  0  0
  2 10  1  0  0  0  0
  2  4  1  0  0  0  0
  3  4  2  0  0  0  0
  4  5  1  0  0  0  0
  6  3  1  0  0  0  0
  7  6  1  0  0  0  0
  8  6  2  0  0  0  0
  8  2  1  0  0  0  0
  9  8  1  0  0  0  0
 10 12  1  0  0  0  0
 11 10  1  0  0  0  0
 13 14  1  0  0  0  0
 13  1  1  0  0  0  0
 13 10  1  0  0  0  0
 15 13  1  0  0  0  0
 16 18  1  0  0  0  0
 16  1  1  0  0  0  0
 17 16  1  0  0  0  0
 18 20  1  0  0  0  0
 18 19  1  0  0  0  0
 21 23  1  0  0  0  0
 21 18  1  0  0  0  0
 22 21  1  0  0  0  0
 24 21  1  0  0  0  0
 24 26  1  0  0  0  0
 25 24  1  0  0  0  0
 27 24  1  0  0  0  0
 27 30  1  0  0  0  0
 28 27  1  0  0  0  0
 29 27  1  0  0  0  0
 30 16  1  0  0  0  0
 30 32  1  0  0  0  0
 31 30  1  0  0  0  0
 33  1  1  0  0  0  0
 33 47  1  0  0  0  0
 34 33  1  0  0  0  0
 35 37  1  0  0  0  0
 35 33  1  0  0  0  0
 36 35  1  0  0  0  0
 38 35  1  0  0  0  0
 38 41  1  0  0  0  0
 39 38  1  0  0  0  0
 40 38  1  0  0  0  0
 41 42  1  0  0  0  0
 41 44  1  0  0  0  0
 43 41  1  0  0  0  0
 44 46  1  0  0  0  0
 44 47  1  0  0  0  0
 44 45  1  0  0  0  0
 47 48  1  0  0  0  0
 47 49  1  0  0  0  0
M  END
