1
 OpenBabel05122313063D

 39 39  0  0  0  0  0  0  0  0999 V2000
    2.1999    0.7691   -0.2086 P   0  0  0  0  0  0  0  0  0  0  0  0
    3.2638   -0.4185    0.3932 N   0  0  0  0  0  0  0  0  0  0  0  0
    2.8321   -1.3579    0.4875 H   0  0  0  0  0  0  0  0  0  0  0  0
    4.6503   -0.3493    0.1903 N   0  0  0  0  0  0  0  0  0  0  0  0
    2.6459    1.0922   -1.9930 C   0  0  0  0  0  0  0  0  0  0  0  0
    3.7585    1.1335   -2.0009 H   0  0  0  0  0  0  0  0  0  0  0  0
    2.0713    2.4186   -2.5051 C   0  0  0  0  0  0  0  0  0  0  0  0
    2.2734    2.5205   -3.5918 H   0  0  0  0  0  0  0  0  0  0  0  0
    2.5161    3.2977   -1.9996 H   0  0  0  0  0  0  0  0  0  0  0  0
    0.9736    2.4619   -2.3513 H   0  0  0  0  0  0  0  0  0  0  0  0
    2.1613   -0.0950   -2.8379 C   0  0  0  0  0  0  0  0  0  0  0  0
    2.5842   -0.0406   -3.8624 H   0  0  0  0  0  0  0  0  0  0  0  0
    1.0546   -0.0829   -2.9138 H   0  0  0  0  0  0  0  0  0  0  0  0
    2.4384   -1.0715   -2.3932 H   0  0  0  0  0  0  0  0  0  0  0  0
    2.5617    2.3278    0.7394 C   0  0  0  0  0  0  0  0  0  0  0  0
    1.8070    3.0325    0.3266 H   0  0  0  0  0  0  0  0  0  0  0  0
    3.9723    2.8904    0.5303 C   0  0  0  0  0  0  0  0  0  0  0  0
    4.0778    3.8472    1.0836 H   0  0  0  0  0  0  0  0  0  0  0  0
    4.1932    3.0962   -0.5355 H   0  0  0  0  0  0  0  0  0  0  0  0
    4.7480    2.1919    0.8967 H   0  0  0  0  0  0  0  0  0  0  0  0
    2.2267    2.0914    2.2165 C   0  0  0  0  0  0  0  0  0  0  0  0
    2.3687    3.0269    2.7959 H   0  0  0  0  0  0  0  0  0  0  0  0
    2.8786    1.3088    2.6550 H   0  0  0  0  0  0  0  0  0  0  0  0
    1.1741    1.7655    2.3343 H   0  0  0  0  0  0  0  0  0  0  0  0
    5.1204   -1.2986   -0.8240 C   0  0  0  0  0  0  0  0  0  0  0  0
    4.5293   -1.1396   -1.7463 H   0  0  0  0  0  0  0  0  0  0  0  0
    4.9273   -2.3555   -0.4925 H   0  0  0  0  0  0  0  0  0  0  0  0
    6.6136   -1.1086   -1.0989 C   0  0  0  0  0  0  0  0  0  0  0  0
    6.9459   -1.8512   -1.8537 H   0  0  0  0  0  0  0  0  0  0  0  0
    6.7655   -0.1010   -1.5435 H   0  0  0  0  0  0  0  0  0  0  0  0
    7.4310   -1.2292    0.1914 C   0  0  0  0  0  0  0  0  0  0  0  0
    8.5043   -1.0226   -0.0005 H   0  0  0  0  0  0  0  0  0  0  0  0
    7.3711   -2.2758    0.5660 H   0  0  0  0  0  0  0  0  0  0  0  0
    6.8741   -0.2801    1.2579 C   0  0  0  0  0  0  0  0  0  0  0  0
    7.3983   -0.4160    2.2265 H   0  0  0  0  0  0  0  0  0  0  0  0
    7.0400    0.7733    0.9429 H   0  0  0  0  0  0  0  0  0  0  0  0
    5.3735   -0.5011    1.4579 C   0  0  0  0  0  0  0  0  0  0  0  0
    5.1944   -1.5204    1.8943 H   0  0  0  0  0  0  0  0  0  0  0  0
    4.9536    0.2325    2.1742 H   0  0  0  0  0  0  0  0  0  0  0  0
  1  2  1  0  0  0  0
  1 15  1  0  0  0  0
  2  3  1  0  0  0  0
  4  2  1  0  0  0  0
  4 37  1  0  0  0  0
  5  1  1  0  0  0  0
  6  5  1  0  0  0  0
  7 10  1  0  0  0  0
  7  9  1  0  0  0  0
  7  5  1  0  0  0  0
  8  7  1  0  0  0  0
 11 14  1  0  0  0  0
 11  5  1  0  0  0  0
 12 11  1  0  0  0  0
 13 11  1  0  0  0  0
 15 21  1  0  0  0  0
 16 15  1  0  0  0  0
 17 15  1  0  0  0  0
 17 20  1  0  0  0  0
 17 18  1  0  0  0  0
 19 17  1  0  0  0  0
 21 24  1  0  0  0  0
 21 23  1  0  0  0  0
 21 22  1  0  0  0  0
 25 27  1  0  0  0  0
 25  4  1  0  0  0  0
 26 25  1  0  0  0  0
 28 25  1  0  0  0  0
 28 31  1  0  0  0  0
 29 28  1  0  0  0  0
 30 28  1  0  0  0  0
 31 33  1  0  0  0  0
 31 34  1  0  0  0  0
 32 31  1  0  0  0  0
 34 37  1  0  0  0  0
 34 35  1  0  0  0  0
 36 34  1  0  0  0  0
 37 38  1  0  0  0  0
 37 39  1  0  0  0  0
M  END
