1
 OpenBabel05122313063D

 23 25  0  0  1  0  0  0  0  0999 V2000
   -2.2012   -0.0002   -0.2123 P   0  0  2  0  0  0  0  0  0  0  0  0
   -4.6744    0.9164   -1.1058 N   0  0  2  0  0  0  0  0  0  0  0  0
   -4.6194   -1.3849   -0.2755 N   0  0  2  0  0  0  0  0  0  0  0  0
   -4.5199    0.4924    1.3151 N   0  3  1  0  0  0  0  0  0  0  0  0
   -4.9352    0.8048    2.2126 H   0  0  0  0  0  0  0  0  0  0  0  0
   -3.2226    1.0594   -1.3730 C   0  0  0  0  0  0  0  0  0  0  0  0
   -2.9036    2.1141   -1.2468 H   0  0  0  0  0  0  0  0  0  0  0  0
   -2.9988    0.7755   -2.4203 H   0  0  0  0  0  0  0  0  0  0  0  0
   -3.1582   -1.5953   -0.4080 C   0  0  0  0  0  0  0  0  0  0  0  0
   -2.9117   -2.0507   -1.3868 H   0  0  0  0  0  0  0  0  0  0  0  0
   -2.7768   -2.2779    0.3797 H   0  0  0  0  0  0  0  0  0  0  0  0
   -3.0196    0.5490    1.3809 C   0  0  0  0  0  0  0  0  0  0  0  0
   -2.6257   -0.1402    2.1615 H   0  0  0  0  0  0  0  0  0  0  0  0
   -2.6569    1.5763    1.6011 H   0  0  0  0  0  0  0  0  0  0  0  0
   -5.0611    1.4003    0.1692 C   0  0  0  0  0  0  0  0  0  0  0  0
   -6.1657    1.3941    0.2846 H   0  0  0  0  0  0  0  0  0  0  0  0
   -4.6574    2.4129    0.3641 H   0  0  0  0  0  0  0  0  0  0  0  0
   -5.1428   -0.4642   -1.2916 C   0  0  0  0  0  0  0  0  0  0  0  0
   -6.2530   -0.4712   -1.2425 H   0  0  0  0  0  0  0  0  0  0  0  0
   -4.8291   -0.8176   -2.2918 H   0  0  0  0  0  0  0  0  0  0  0  0
   -5.0068   -0.9636    1.0193 C   0  0  0  0  0  0  0  0  0  0  0  0
   -4.5604   -1.5989    1.8085 H   0  0  0  0  0  0  0  0  0  0  0  0
   -6.1121   -0.9289    1.1220 H   0  0  0  0  0  0  0  0  0  0  0  0
  1  6  1  6  0  0  0
  1 12  1  0  0  0  0
  2  6  1  1  0  0  0
  2 15  1  0  0  0  0
  3 18  1  6  0  0  0
  3 21  1  0  0  0  0
  4 12  1  0  0  0  0
  4  5  1  1  0  0  0
  6  7  1  0  0  0  0
  8  6  1  0  0  0  0
  9  3  1  0  0  0  0
  9  1  1  0  0  0  0
  9 11  1  0  0  0  0
 10  9  1  0  0  0  0
 12 14  1  0  0  0  0
 12 13  1  0  0  0  0
 15 16  1  0  0  0  0
 15 17  1  0  0  0  0
 15  4  1  0  0  0  0
 18 19  1  0  0  0  0
 18  2  1  0  0  0  0
 20 18  1  0  0  0  0
 21 23  1  0  0  0  0
 21  4  1  0  0  0  0
 21 22  1  0  0  0  0
M  CHG  1   4   1
M  END
