1
 OpenBabel05122313063D

 34 33  0  0  0  0  0  0  0  0999 V2000
   -0.8458    0.9458   -0.1489 P   0  0  0  0  0  0  0  0  0  0  0  0
   -2.1699    1.1827    0.8463 O   0  0  0  0  0  0  0  0  0  0  0  0
   -1.6005    0.4856   -1.5818 O   0  0  0  0  0  0  0  0  0  0  0  0
   -0.5050    2.5549   -0.3410 O   0  0  0  0  0  0  0  0  0  0  0  0
   -2.9878    0.0738    1.2540 C   0  0  0  0  0  0  0  0  0  0  0  0
   -4.4201    0.5387    1.4683 C   0  0  0  0  0  0  0  0  0  0  0  0
   -5.3184   -0.6122    1.9244 C   0  0  0  0  0  0  0  0  0  0  0  0
   -2.8672    0.9584   -2.0529 C   0  0  0  0  0  0  0  0  0  0  0  0
   -3.7312   -0.2146   -2.5013 C   0  0  0  0  0  0  0  0  0  0  0  0
   -5.1046    0.2332   -3.0011 C   0  0  0  0  0  0  0  0  0  0  0  0
   -1.4607    3.6092   -0.5106 C   0  0  0  0  0  0  0  0  0  0  0  0
   -0.8126    4.9260   -0.1045 C   0  0  0  0  0  0  0  0  0  0  0  0
   -1.7529    6.1172   -0.2877 C   0  0  0  0  0  0  0  0  0  0  0  0
   -2.9589   -0.7297    0.4865 H   0  0  0  0  0  0  0  0  0  0  0  0
   -2.5608   -0.3622    2.1822 H   0  0  0  0  0  0  0  0  0  0  0  0
   -4.8091    0.9768    0.5227 H   0  0  0  0  0  0  0  0  0  0  0  0
   -4.4248    1.3601    2.2168 H   0  0  0  0  0  0  0  0  0  0  0  0
   -6.3642   -0.2784    2.0738 H   0  0  0  0  0  0  0  0  0  0  0  0
   -4.9626   -1.0452    2.8821 H   0  0  0  0  0  0  0  0  0  0  0  0
   -5.3272   -1.4351    1.1793 H   0  0  0  0  0  0  0  0  0  0  0  0
   -3.3859    1.5290   -1.2529 H   0  0  0  0  0  0  0  0  0  0  0  0
   -2.6887    1.6570   -2.9016 H   0  0  0  0  0  0  0  0  0  0  0  0
   -3.8384   -0.9222   -1.6518 H   0  0  0  0  0  0  0  0  0  0  0  0
   -3.1907   -0.7720   -3.2965 H   0  0  0  0  0  0  0  0  0  0  0  0
   -5.6734    0.7576   -2.2046 H   0  0  0  0  0  0  0  0  0  0  0  0
   -5.7155   -0.6300   -3.3311 H   0  0  0  0  0  0  0  0  0  0  0  0
   -5.0203    0.9300   -3.8612 H   0  0  0  0  0  0  0  0  0  0  0  0
   -1.7770    3.6516   -1.5778 H   0  0  0  0  0  0  0  0  0  0  0  0
   -2.3621    3.4100    0.1079 H   0  0  0  0  0  0  0  0  0  0  0  0
   -0.4881    4.8459    0.9552 H   0  0  0  0  0  0  0  0  0  0  0  0
    0.1126    5.0644   -0.7037 H   0  0  0  0  0  0  0  0  0  0  0  0
   -1.2670    7.0654    0.0159 H   0  0  0  0  0  0  0  0  0  0  0  0
   -2.0664    6.2287   -1.3467 H   0  0  0  0  0  0  0  0  0  0  0  0
   -2.6748    6.0052    0.3204 H   0  0  0  0  0  0  0  0  0  0  0  0
  1  2  1  0  0  0  0
  2  5  1  0  0  0  0
  3  1  1  0  0  0  0
  4  1  1  0  0  0  0
  5  6  1  0  0  0  0
  5 15  1  0  0  0  0
  6  7  1  0  0  0  0
  6 17  1  0  0  0  0
  7 18  1  0  0  0  0
  7 19  1  0  0  0  0
  8  3  1  0  0  0  0
  8 21  1  0  0  0  0
  9  8  1  0  0  0  0
  9 23  1  0  0  0  0
 10  9  1  0  0  0  0
 10 25  1  0  0  0  0
 11  4  1  0  0  0  0
 11 12  1  0  0  0  0
 11 29  1  0  0  0  0
 12 30  1  0  0  0  0
 13 12  1  0  0  0  0
 13 32  1  0  0  0  0
 13 34  1  0  0  0  0
 14  5  1  0  0  0  0
 16  6  1  0  0  0  0
 20  7  1  0  0  0  0
 22  8  1  0  0  0  0
 24  9  1  0  0  0  0
 26 10  1  0  0  0  0
 27 10  1  0  0  0  0
 28 11  1  0  0  0  0
 31 12  1  0  0  0  0
 33 13  1  0  0  0  0
M  END
