50
 OpenBabel05122313063D

 51 51  0  0  0  0  0  0  0  0999 V2000
   -2.2814   -0.4389   -1.5929 C   0  0  0  0  0  0  0  0  0  0  0  0
   -1.2772   -0.1718   -2.7320 C   0  0  0  0  0  0  0  0  0  0  0  0
   -1.7789   -0.3578   -3.7051 H   0  0  0  0  0  0  0  0  0  0  0  0
   -0.3915   -0.8347   -2.6613 H   0  0  0  0  0  0  0  0  0  0  0  0
   -0.9207    0.8780   -2.7326 H   0  0  0  0  0  0  0  0  0  0  0  0
   -3.4902    0.4930   -1.7602 C   0  0  0  0  0  0  0  0  0  0  0  0
   -3.1893    1.5579   -1.7911 H   0  0  0  0  0  0  0  0  0  0  0  0
   -4.2473    0.3650   -0.9647 H   0  0  0  0  0  0  0  0  0  0  0  0
   -3.9852    0.2617   -2.7273 H   0  0  0  0  0  0  0  0  0  0  0  0
   -2.7179   -1.9133   -1.6334 C   0  0  0  0  0  0  0  0  0  0  0  0
   -3.5049   -2.1400   -0.8876 H   0  0  0  0  0  0  0  0  0  0  0  0
   -1.8597   -2.5938   -1.4583 H   0  0  0  0  0  0  0  0  0  0  0  0
   -3.1365   -2.1405   -2.6364 H   0  0  0  0  0  0  0  0  0  0  0  0
   -2.2798   -0.5940    1.6091 C   0  0  0  0  0  0  0  0  0  0  0  0
   -1.5883    0.1659    2.7575 C   0  0  0  0  0  0  0  0  0  0  0  0
   -1.9853   -0.2038    3.7262 H   0  0  0  0  0  0  0  0  0  0  0  0
   -1.7578    1.2584    2.7119 H   0  0  0  0  0  0  0  0  0  0  0  0
   -0.4937   -0.0138    2.7512 H   0  0  0  0  0  0  0  0  0  0  0  0
   -3.7912   -0.3090    1.5932 C   0  0  0  0  0  0  0  0  0  0  0  0
   -4.2162   -0.6185    2.5715 H   0  0  0  0  0  0  0  0  0  0  0  0
   -4.3166   -0.8927    0.8130 H   0  0  0  0  0  0  0  0  0  0  0  0
   -4.0488    0.7582    1.4595 H   0  0  0  0  0  0  0  0  0  0  0  0
   -2.0863   -2.1077    1.8470 C   0  0  0  0  0  0  0  0  0  0  0  0
   -1.0144   -2.3722    1.9403 H   0  0  0  0  0  0  0  0  0  0  0  0
   -2.5135   -2.7235    1.0333 H   0  0  0  0  0  0  0  0  0  0  0  0
   -2.6021   -2.3863    2.7902 H   0  0  0  0  0  0  0  0  0  0  0  0
   -1.0237    1.6829    0.0152 C   0  0  0  0  0  0  0  0  0  0  0  0
   -2.0909    2.5241    0.4092 C   0  0  0  0  0  0  0  0  0  0  0  0
   -3.0355    2.0766    0.7400 H   0  0  0  0  0  0  0  0  0  0  0  0
   -1.9896    3.9197    0.3881 C   0  0  0  0  0  0  0  0  0  0  0  0
   -2.8423    4.5346    0.7126 H   0  0  0  0  0  0  0  0  0  0  0  0
   -0.8098    4.5191   -0.0745 C   0  0  0  0  0  0  0  0  0  0  0  0
   -0.7215    5.6147   -0.1292 H   0  0  0  0  0  0  0  0  0  0  0  0
    0.2497    3.7104   -0.4983 C   0  0  0  0  0  0  0  0  0  0  0  0
    1.1573    4.1665   -0.9161 H   0  0  0  0  0  0  0  0  0  0  0  0
    0.1812    2.2984   -0.4375 C   0  0  0  0  0  0  0  0  0  0  0  0
    2.8971    1.6088    0.3300 C   0  0  0  0  0  0  0  0  0  0  0  0
    2.3134    1.2073    1.6856 C   0  0  0  0  0  0  0  0  0  0  0  0
    1.9633    0.1551    1.6742 H   0  0  0  0  0  0  0  0  0  0  0  0
    1.4646    1.8604    1.9730 H   0  0  0  0  0  0  0  0  0  0  0  0
    3.0967    1.3042    2.4669 H   0  0  0  0  0  0  0  0  0  0  0  0
    3.4123    3.0504    0.3634 C   0  0  0  0  0  0  0  0  0  0  0  0
    2.6360    3.7596    0.7110 H   0  0  0  0  0  0  0  0  0  0  0  0
    3.7737    3.3745   -0.6324 H   0  0  0  0  0  0  0  0  0  0  0  0
    4.2606    3.1171    1.0780 H   0  0  0  0  0  0  0  0  0  0  0  0
    4.0065    0.6438   -0.1115 C   0  0  0  0  0  0  0  0  0  0  0  0
    4.3926    0.9108   -1.1164 H   0  0  0  0  0  0  0  0  0  0  0  0
    3.6580   -0.4094   -0.1297 H   0  0  0  0  0  0  0  0  0  0  0  0
    4.8512    0.7164    0.6051 H   0  0  0  0  0  0  0  0  0  0  0  0
   -1.2910   -0.1537    0.0174 P   0  0  0  0  0  0  0  0  0  0  0  0
    1.5993    1.3865   -1.0362 S   0  0  0  0  0  0  0  0  0  0  0  0
  1 50  1  0  0  0  0
  2  4  1  0  0  0  0
  2  1  1  0  0  0  0
  3  2  1  0  0  0  0
  5  2  1  0  0  0  0
  6  1  1  0  0  0  0
  6  8  1  0  0  0  0
  7  6  1  0  0  0  0
  9  6  1  0  0  0  0
 10  1  1  0  0  0  0
 10 12  1  0  0  0  0
 10 11  1  0  0  0  0
 13 10  1  0  0  0  0
 14 23  1  0  0  0  0
 14 15  1  0  0  0  0
 15 16  1  0  0  0  0
 17 15  1  0  0  0  0
 18 15  1  0  0  0  0
 19 14  1  0  0  0  0
 19 20  1  0  0  0  0
 21 19  1  0  0  0  0
 22 19  1  0  0  0  0
 23 24  1  0  0  0  0
 23 26  1  0  0  0  0
 25 23  1  0  0  0  0
 27 50  1  0  0  0  0
 27 28  1  0  0  0  0
 28 29  1  0  0  0  0
 30 28  2  0  0  0  0
 30 31  1  0  0  0  0
 32 30  1  0  0  0  0
 33 32  1  0  0  0  0
 34 36  1  0  0  0  0
 34 32  2  0  0  0  0
 35 34  1  0  0  0  0
 36 27  2  0  0  0  0
 37 42  1  0  0  0  0
 37 38  1  0  0  0  0
 38 40  1  0  0  0  0
 38 41  1  0  0  0  0
 39 38  1  0  0  0  0
 42 43  1  0  0  0  0
 42 45  1  0  0  0  0
 44 42  1  0  0  0  0
 46 37  1  0  0  0  0
 46 49  1  0  0  0  0
 47 46  1  0  0  0  0
 48 46  1  0  0  0  0
 50 14  1  0  0  0  0
 51 36  1  0  0  0  0
 51 37  1  0  0  0  0
M  END
