1
 OpenBabel05122313063D

 58 60  0  0  0  0  0  0  0  0999 V2000
   -0.0833    0.0098    0.4443 P   0  0  0  0  0  0  0  0  0  0  0  0
    1.4811   -0.8334    0.0334 C   0  0  0  0  0  0  0  0  0  0  0  0
    2.5320   -0.1281   -0.6096 C   0  0  0  0  0  0  0  0  0  0  0  0
    2.2761    1.1474   -0.9711 O   0  0  0  0  0  0  0  0  0  0  0  0
    3.2779    1.9516   -1.5844 C   0  0  0  0  0  0  0  0  0  0  0  0
    4.1644    2.0597   -0.9213 H   0  0  0  0  0  0  0  0  0  0  0  0
    2.7920    2.9336   -1.7448 H   0  0  0  0  0  0  0  0  0  0  0  0
    3.5985    1.5153   -2.5558 H   0  0  0  0  0  0  0  0  0  0  0  0
    3.7793   -0.7438   -0.8586 C   0  0  0  0  0  0  0  0  0  0  0  0
    4.5761   -0.1753   -1.3475 H   0  0  0  0  0  0  0  0  0  0  0  0
    3.9699   -2.0837   -0.4807 C   0  0  0  0  0  0  0  0  0  0  0  0
    5.1303   -2.7657   -0.6770 O   0  0  0  0  0  0  0  0  0  0  0  0
    6.2159   -2.0920   -1.2858 C   0  0  0  0  0  0  0  0  0  0  0  0
    5.9669   -1.7488   -2.3150 H   0  0  0  0  0  0  0  0  0  0  0  0
    7.0452   -2.8213   -1.3412 H   0  0  0  0  0  0  0  0  0  0  0  0
    6.5461   -1.2133   -0.6880 H   0  0  0  0  0  0  0  0  0  0  0  0
    2.9346   -2.8209    0.1312 C   0  0  0  0  0  0  0  0  0  0  0  0
    3.1280   -3.8687    0.3883 H   0  0  0  0  0  0  0  0  0  0  0  0
    1.7031   -2.1970    0.3698 C   0  0  0  0  0  0  0  0  0  0  0  0
    0.6393   -2.8436    0.9067 O   0  0  0  0  0  0  0  0  0  0  0  0
    0.7937   -4.1689    1.3714 C   0  0  0  0  0  0  0  0  0  0  0  0
    1.0195   -4.8735    0.5398 H   0  0  0  0  0  0  0  0  0  0  0  0
   -0.1718   -4.4475    1.8329 H   0  0  0  0  0  0  0  0  0  0  0  0
    1.5968   -4.2464    2.1368 H   0  0  0  0  0  0  0  0  0  0  0  0
   -1.4749   -0.7381   -0.4882 C   0  0  0  0  0  0  0  0  0  0  0  0
   -2.7635   -0.2241   -0.1901 C   0  0  0  0  0  0  0  0  0  0  0  0
   -2.7856    0.7204    0.7866 O   0  0  0  0  0  0  0  0  0  0  0  0
   -4.0068    1.3315    1.1579 C   0  0  0  0  0  0  0  0  0  0  0  0
   -4.4826    1.8521    0.2983 H   0  0  0  0  0  0  0  0  0  0  0  0
   -3.7517    2.0759    1.9338 H   0  0  0  0  0  0  0  0  0  0  0  0
   -4.7213    0.5909    1.5804 H   0  0  0  0  0  0  0  0  0  0  0  0
   -3.9264   -0.6667   -0.8508 C   0  0  0  0  0  0  0  0  0  0  0  0
   -4.9042   -0.2544   -0.5837 H   0  0  0  0  0  0  0  0  0  0  0  0
   -3.7946   -1.6397   -1.8584 C   0  0  0  0  0  0  0  0  0  0  0  0
   -4.8429   -2.1465   -2.5618 O   0  0  0  0  0  0  0  0  0  0  0  0
   -6.1413   -1.6577   -2.2855 C   0  0  0  0  0  0  0  0  0  0  0  0
   -6.4463   -1.8597   -1.2340 H   0  0  0  0  0  0  0  0  0  0  0  0
   -6.8289   -2.1923   -2.9667 H   0  0  0  0  0  0  0  0  0  0  0  0
   -6.2223   -0.5640   -2.4763 H   0  0  0  0  0  0  0  0  0  0  0  0
   -2.5293   -2.1494   -2.2054 C   0  0  0  0  0  0  0  0  0  0  0  0
   -2.4800   -2.8884   -3.0132 H   0  0  0  0  0  0  0  0  0  0  0  0
   -1.3796   -1.6929   -1.5391 C   0  0  0  0  0  0  0  0  0  0  0  0
   -0.1365   -2.1170   -1.8681 O   0  0  0  0  0  0  0  0  0  0  0  0
    0.0263   -3.1069   -2.8621 C   0  0  0  0  0  0  0  0  0  0  0  0
   -0.5032   -4.0497   -2.5976 H   0  0  0  0  0  0  0  0  0  0  0  0
    1.1131   -3.3045   -2.9179 H   0  0  0  0  0  0  0  0  0  0  0  0
   -0.3343   -2.7609   -3.8562 H   0  0  0  0  0  0  0  0  0  0  0  0
   -0.3668   -0.4643    2.2089 C   0  0  0  0  0  0  0  0  0  0  0  0
    0.4478    0.1532    3.1767 C   0  0  0  0  0  0  0  0  0  0  0  0
    1.2063    0.8881    2.8610 H   0  0  0  0  0  0  0  0  0  0  0  0
    0.2928   -0.1584    4.5360 C   0  0  0  0  0  0  0  0  0  0  0  0
    0.9371    0.3280    5.2843 H   0  0  0  0  0  0  0  0  0  0  0  0
   -0.6905   -1.0756    4.9398 C   0  0  0  0  0  0  0  0  0  0  0  0
   -0.8202   -1.3128    6.0068 H   0  0  0  0  0  0  0  0  0  0  0  0
   -1.5125   -1.6841    3.9764 C   0  0  0  0  0  0  0  0  0  0  0  0
   -2.2863   -2.4032    4.2877 H   0  0  0  0  0  0  0  0  0  0  0  0
   -1.3494   -1.3844    2.6162 C   0  0  0  0  0  0  0  0  0  0  0  0
   -1.9771   -1.8767    1.8582 H   0  0  0  0  0  0  0  0  0  0  0  0
  1 48  1  0  0  0  0
  2 19  1  0  0  0  0
  2  1  1  0  0  0  0
  3  2  2  0  0  0  0
  4  3  1  0  0  0  0
  5  4  1  0  0  0  0
  5  6  1  0  0  0  0
  7  5  1  0  0  0  0
  8  5  1  0  0  0  0
  9  3  1  0  0  0  0
  9 11  2  0  0  0  0
 10  9  1  0  0  0  0
 11 17  1  0  0  0  0
 12 11  1  0  0  0  0
 13 16  1  0  0  0  0
 13 12  1  0  0  0  0
 14 13  1  0  0  0  0
 15 13  1  0  0  0  0
 17 19  2  0  0  0  0
 17 18  1  0  0  0  0
 19 20  1  0  0  0  0
 20 21  1  0  0  0  0
 21 23  1  0  0  0  0
 21 24  1  0  0  0  0
 22 21  1  0  0  0  0
 25 26  1  0  0  0  0
 25  1  1  0  0  0  0
 26 27  1  0  0  0  0
 27 28  1  0  0  0  0
 28 31  1  0  0  0  0
 28 30  1  0  0  0  0
 29 28  1  0  0  0  0
 32 33  1  0  0  0  0
 32 26  2  0  0  0  0
 34 32  1  0  0  0  0
 35 36  1  0  0  0  0
 35 34  1  0  0  0  0
 36 37  1  0  0  0  0
 38 36  1  0  0  0  0
 39 36  1  0  0  0  0
 40 34  2  0  0  0  0
 40 42  1  0  0  0  0
 41 40  1  0  0  0  0
 42 25  2  0  0  0  0
 43 42  1  0  0  0  0
 44 45  1  0  0  0  0
 44 43  1  0  0  0  0
 46 44  1  0  0  0  0
 47 44  1  0  0  0  0
 48 57  2  0  0  0  0
 48 49  1  0  0  0  0
 49 51  2  0  0  0  0
 50 49  1  0  0  0  0
 51 53  1  0  0  0  0
 51 52  1  0  0  0  0
 53 54  1  0  0  0  0
 55 56  1  0  0  0  0
 55 53  2  0  0  0  0
 57 55  1  0  0  0  0
 58 57  1  0  0  0  0
M  END
