1
 OpenBabel05122313063D

 47 51  0  0  0  0  0  0  0  0999 V2000
   -0.4454   -1.3400   -0.2705 P   0  0  0  0  0  0  0  0  0  0  0  0
    0.7017   -1.0603   -1.4666 O   0  0  0  0  0  0  0  0  0  0  0  0
    0.5148   -0.9588    1.0647 O   0  0  0  0  0  0  0  0  0  0  0  0
   -0.5997   -2.9927   -0.2665 N   0  0  0  0  0  0  0  0  0  0  0  0
    1.1093    0.2639   -1.5509 C   0  0  0  0  0  0  0  0  0  0  0  0
    0.5022    1.0881   -2.5314 C   0  0  0  0  0  0  0  0  0  0  0  0
    0.8770    2.4164   -2.6161 C   0  0  0  0  0  0  0  0  0  0  0  0
    1.8074    2.9736   -1.6886 C   0  0  0  0  0  0  0  0  0  0  0  0
    2.1229    4.3638   -1.7049 C   0  0  0  0  0  0  0  0  0  0  0  0
    2.9578    4.9203   -0.7479 C   0  0  0  0  0  0  0  0  0  0  0  0
    3.5081    4.0999    0.2718 C   0  0  0  0  0  0  0  0  0  0  0  0
    3.2399    2.7386    0.3041 C   0  0  0  0  0  0  0  0  0  0  0  0
    2.4012    2.1301   -0.6766 C   0  0  0  0  0  0  0  0  0  0  0  0
    2.0792    0.7247   -0.6561 C   0  0  0  0  0  0  0  0  0  0  0  0
    1.8964   -1.0612    1.0905 C   0  0  0  0  0  0  0  0  0  0  0  0
    2.4415   -1.9798    2.0254 C   0  0  0  0  0  0  0  0  0  0  0  0
    3.8122   -2.1069    2.1484 C   0  0  0  0  0  0  0  0  0  0  0  0
    4.6886   -1.3545    1.3132 C   0  0  0  0  0  0  0  0  0  0  0  0
    6.1030   -1.5179    1.3889 C   0  0  0  0  0  0  0  0  0  0  0  0
    6.9487   -0.8260    0.5365 C   0  0  0  0  0  0  0  0  0  0  0  0
    6.4026    0.0488   -0.4388 C   0  0  0  0  0  0  0  0  0  0  0  0
    5.0316    0.2406   -0.5295 C   0  0  0  0  0  0  0  0  0  0  0  0
    4.1320   -0.4305    0.3525 C   0  0  0  0  0  0  0  0  0  0  0  0
    2.7010   -0.2447    0.2845 C   0  0  0  0  0  0  0  0  0  0  0  0
    0.5048   -3.9420   -0.5268 C   0  0  0  0  0  0  0  0  0  0  0  0
    0.5588   -4.3137   -2.0113 C   0  0  0  0  0  0  0  0  0  0  0  0
    0.3541   -5.1590    0.3880 C   0  0  0  0  0  0  0  0  0  0  0  0
   -0.2626    0.6390   -3.1813 H   0  0  0  0  0  0  0  0  0  0  0  0
    0.4250    3.0725   -3.3754 H   0  0  0  0  0  0  0  0  0  0  0  0
    1.6707    4.9936   -2.4867 H   0  0  0  0  0  0  0  0  0  0  0  0
    3.1843    5.9969   -0.7687 H   0  0  0  0  0  0  0  0  0  0  0  0
    4.1507    4.5469    1.0454 H   0  0  0  0  0  0  0  0  0  0  0  0
    3.6663    2.1140    1.1013 H   0  0  0  0  0  0  0  0  0  0  0  0
    1.7449   -2.5683    2.6395 H   0  0  0  0  0  0  0  0  0  0  0  0
    4.2428   -2.8072    2.8804 H   0  0  0  0  0  0  0  0  0  0  0  0
    6.5101   -2.2184    2.1347 H   0  0  0  0  0  0  0  0  0  0  0  0
    8.0382   -0.9645    0.6027 H   0  0  0  0  0  0  0  0  0  0  0  0
    7.0717    0.5755   -1.1359 H   0  0  0  0  0  0  0  0  0  0  0  0
    4.6244    0.9109   -1.2980 H   0  0  0  0  0  0  0  0  0  0  0  0
    1.4461   -3.4172   -0.2596 H   0  0  0  0  0  0  0  0  0  0  0  0
    0.6654   -3.4058   -2.6346 H   0  0  0  0  0  0  0  0  0  0  0  0
    1.4097   -4.9933   -2.2182 H   0  0  0  0  0  0  0  0  0  0  0  0
   -0.3741   -4.8323   -2.3175 H   0  0  0  0  0  0  0  0  0  0  0  0
   -0.5948   -5.6941    0.1749 H   0  0  0  0  0  0  0  0  0  0  0  0
    1.1889   -5.8719    0.2345 H   0  0  0  0  0  0  0  0  0  0  0  0
    0.3418   -4.8528    1.4526 H   0  0  0  0  0  0  0  0  0  0  0  0
   -1.4924   -3.2386   -0.7220 H   0  0  0  0  0  0  0  0  0  0  0  0
  1  4  1  0  0  0  0
  1  3  1  0  0  0  0
  2  1  1  0  0  0  0
  3 15  1  0  0  0  0
  5  2  1  0  0  0  0
  5 14  1  0  0  0  0
  6  5  2  0  0  0  0
  7  6  1  0  0  0  0
  7  8  2  0  0  0  0
  8 13  1  0  0  0  0
  9  8  1  0  0  0  0
  9 10  2  0  0  0  0
 10 11  1  0  0  0  0
 11 12  2  0  0  0  0
 11 32  1  0  0  0  0
 12 33  1  0  0  0  0
 13 14  2  0  0  0  0
 13 12  1  0  0  0  0
 14 24  1  0  0  0  0
 15 16  1  0  0  0  0
 16 17  2  0  0  0  0
 16 34  1  0  0  0  0
 17 35  1  0  0  0  0
 18 19  1  0  0  0  0
 18 17  1  0  0  0  0
 19 36  1  0  0  0  0
 20 37  1  0  0  0  0
 20 19  2  0  0  0  0
 21 20  1  0  0  0  0
 22 21  2  0  0  0  0
 22 23  1  0  0  0  0
 23 18  2  0  0  0  0
 24 23  1  0  0  0  0
 24 15  2  0  0  0  0
 25  4  1  0  0  0  0
 25 40  1  0  0  0  0
 25 27  1  0  0  0  0
 26 25  1  0  0  0  0
 27 46  1  0  0  0  0
 28  6  1  0  0  0  0
 29  7  1  0  0  0  0
 30  9  1  0  0  0  0
 31 10  1  0  0  0  0
 38 21  1  0  0  0  0
 39 22  1  0  0  0  0
 41 26  1  0  0  0  0
 42 26  1  0  0  0  0
 43 26  1  0  0  0  0
 44 27  1  0  0  0  0
 45 27  1  0  0  0  0
 47  4  1  0  0  0  0
M  END
