1
 OpenBabel05122313063D

 46 48  0  0  0  0  0  0  0  0999 V2000
    0.1896    0.0444   -0.1557 P   0  0  0  0  0  0  0  0  0  0  0  0
    3.0942    0.7808   -0.4892 O   0  0  0  0  0  0  0  0  0  0  0  0
   -0.8666    2.2333    1.4870 O   0  0  0  0  0  0  0  0  0  0  0  0
    0.6133   -2.4517    1.3301 O   0  0  0  0  0  0  0  0  0  0  0  0
    1.4374   -0.7016   -1.3023 C   0  0  0  0  0  0  0  0  0  0  0  0
    1.0851   -1.7694   -2.1439 C   0  0  0  0  0  0  0  0  0  0  0  0
    2.0274   -2.4018   -2.9689 C   0  0  0  0  0  0  0  0  0  0  0  0
    3.3563   -1.9614   -2.9544 C   0  0  0  0  0  0  0  0  0  0  0  0
    3.7438   -0.8967   -2.1272 C   0  0  0  0  0  0  0  0  0  0  0  0
    2.7947   -0.2620   -1.3005 C   0  0  0  0  0  0  0  0  0  0  0  0
    4.4286    1.2401   -0.3986 C   0  0  0  0  0  0  0  0  0  0  0  0
    0.2607    1.8444   -0.5404 C   0  0  0  0  0  0  0  0  0  0  0  0
    0.7575    2.3148   -1.7679 C   0  0  0  0  0  0  0  0  0  0  0  0
    0.6701    3.6723   -2.1120 C   0  0  0  0  0  0  0  0  0  0  0  0
    0.0778    4.5762   -1.2193 C   0  0  0  0  0  0  0  0  0  0  0  0
   -0.4418    4.1311    0.0057 C   0  0  0  0  0  0  0  0  0  0  0  0
   -0.3618    2.7669    0.3434 C   0  0  0  0  0  0  0  0  0  0  0  0
   -1.5978    3.0518    2.3827 C   0  0  0  0  0  0  0  0  0  0  0  0
    1.0717   -0.1409    1.4626 C   0  0  0  0  0  0  0  0  0  0  0  0
    1.6791    0.9377    2.1263 C   0  0  0  0  0  0  0  0  0  0  0  0
    2.3376    0.7633    3.3518 C   0  0  0  0  0  0  0  0  0  0  0  0
    2.3984   -0.5138    3.9268 C   0  0  0  0  0  0  0  0  0  0  0  0
    1.8207   -1.6127    3.2764 C   0  0  0  0  0  0  0  0  0  0  0  0
    1.1651   -1.4341    2.0404 C   0  0  0  0  0  0  0  0  0  0  0  0
    0.6674   -3.7695    1.8502 C   0  0  0  0  0  0  0  0  0  0  0  0
    0.0456   -2.1185   -2.1474 H   0  0  0  0  0  0  0  0  0  0  0  0
    1.7184   -3.2348   -3.6164 H   0  0  0  0  0  0  0  0  0  0  0  0
    4.1095   -2.4460   -3.5944 H   0  0  0  0  0  0  0  0  0  0  0  0
    4.7888   -0.5598   -2.1298 H   0  0  0  0  0  0  0  0  0  0  0  0
    4.7937    1.6406   -1.3703 H   0  0  0  0  0  0  0  0  0  0  0  0
    4.4217    2.0545    0.3491 H   0  0  0  0  0  0  0  0  0  0  0  0
    5.1175    0.4379   -0.0540 H   0  0  0  0  0  0  0  0  0  0  0  0
    1.2102    1.6001   -2.4710 H   0  0  0  0  0  0  0  0  0  0  0  0
    1.0628    4.0193   -3.0789 H   0  0  0  0  0  0  0  0  0  0  0  0
    0.0051    5.6435   -1.4780 H   0  0  0  0  0  0  0  0  0  0  0  0
   -0.9222    4.8442    0.6884 H   0  0  0  0  0  0  0  0  0  0  0  0
   -1.9326    2.3836    3.1970 H   0  0  0  0  0  0  0  0  0  0  0  0
   -0.9638    3.8601    2.8094 H   0  0  0  0  0  0  0  0  0  0  0  0
   -2.4847    3.4991    1.8841 H   0  0  0  0  0  0  0  0  0  0  0  0
    1.6527    1.9317    1.6604 H   0  0  0  0  0  0  0  0  0  0  0  0
    2.8035    1.6247    3.8528 H   0  0  0  0  0  0  0  0  0  0  0  0
    2.9068   -0.6656    4.8912 H   0  0  0  0  0  0  0  0  0  0  0  0
    1.8849   -2.6097    3.7310 H   0  0  0  0  0  0  0  0  0  0  0  0
    1.7172   -4.1168    1.9692 H   0  0  0  0  0  0  0  0  0  0  0  0
    0.1483   -4.4077    1.1135 H   0  0  0  0  0  0  0  0  0  0  0  0
    0.1457   -3.8423    2.8297 H   0  0  0  0  0  0  0  0  0  0  0  0
  1 19  1  0  0  0  0
  2 11  1  0  0  0  0
  3 18  1  0  0  0  0
  4 25  1  0  0  0  0
  4 24  1  0  0  0  0
  5 10  1  0  0  0  0
  5  1  1  0  0  0  0
  6  5  2  0  0  0  0
  7  8  2  0  0  0  0
  7  6  1  0  0  0  0
  8  9  1  0  0  0  0
  9 10  2  0  0  0  0
 10  2  1  0  0  0  0
 11 32  1  0  0  0  0
 11 31  1  0  0  0  0
 12  1  1  0  0  0  0
 12 17  1  0  0  0  0
 13 12  2  0  0  0  0
 14 13  1  0  0  0  0
 14 15  2  0  0  0  0
 15 16  1  0  0  0  0
 16 17  2  0  0  0  0
 16 36  1  0  0  0  0
 17  3  1  0  0  0  0
 18 38  1  0  0  0  0
 18 37  1  0  0  0  0
 19 24  2  0  0  0  0
 19 20  1  0  0  0  0
 20 21  2  0  0  0  0
 21 41  1  0  0  0  0
 21 22  1  0  0  0  0
 22 42  1  0  0  0  0
 23 43  1  0  0  0  0
 23 22  2  0  0  0  0
 24 23  1  0  0  0  0
 25 44  1  0  0  0  0
 25 46  1  0  0  0  0
 26  6  1  0  0  0  0
 27  7  1  0  0  0  0
 28  8  1  0  0  0  0
 29  9  1  0  0  0  0
 30 11  1  0  0  0  0
 33 13  1  0  0  0  0
 34 14  1  0  0  0  0
 35 15  1  0  0  0  0
 39 18  1  0  0  0  0
 40 20  1  0  0  0  0
 45 25  1  0  0  0  0
M  END
