1
 OpenBabel05122313063D

 67 69  0  0  0  0  0  0  0  0999 V2000
   -0.0627    0.1002    0.3927 P   0  0  1  0  0  0  0  0  0  0  0  0
    3.4530    2.1247   -0.5262 Si  0  0  0  0  0  0  0  0  0  0  0  0
    3.4915   -2.6063   -0.3753 Si  0  0  0  0  0  0  0  0  0  0  0  0
   -0.4702   -0.9760    1.8412 C   0  0  0  0  0  0  0  0  0  0  0  0
   -1.8212   -1.3252    2.1216 C   0  0  0  0  0  0  0  0  0  0  0  0
   -2.0823   -2.2443    3.1599 C   0  0  0  0  0  0  0  0  0  0  0  0
   -3.1289   -2.5167    3.3641 H   0  0  0  0  0  0  0  0  0  0  0  0
   -1.0485   -2.7873    3.9336 C   0  0  0  0  0  0  0  0  0  0  0  0
   -1.2813   -3.4980    4.7410 H   0  0  0  0  0  0  0  0  0  0  0  0
    0.2790   -2.4134    3.6798 C   0  0  0  0  0  0  0  0  0  0  0  0
    1.1021   -2.8238    4.2841 H   0  0  0  0  0  0  0  0  0  0  0  0
    0.5611   -1.5195    2.6380 C   0  0  0  0  0  0  0  0  0  0  0  0
    1.6101   -1.2648    2.4336 H   0  0  0  0  0  0  0  0  0  0  0  0
   -0.0991    1.8045    1.0836 C   0  0  0  0  0  0  0  0  0  0  0  0
   -0.7529    2.8258    0.3659 C   0  0  0  0  0  0  0  0  0  0  0  0
   -1.2160    2.5854   -0.6047 H   0  0  0  0  0  0  0  0  0  0  0  0
   -0.8348    4.1202    0.9003 C   0  0  0  0  0  0  0  0  0  0  0  0
   -1.3510    4.9115    0.3361 H   0  0  0  0  0  0  0  0  0  0  0  0
   -0.2624    4.4035    2.1507 C   0  0  0  0  0  0  0  0  0  0  0  0
   -0.3301    5.4183    2.5709 H   0  0  0  0  0  0  0  0  0  0  0  0
    0.3961    3.3895    2.8672 C   0  0  0  0  0  0  0  0  0  0  0  0
    0.8439    3.6083    3.8485 H   0  0  0  0  0  0  0  0  0  0  0  0
    0.4746    2.0924    2.3391 C   0  0  0  0  0  0  0  0  0  0  0  0
    0.9636    1.2949    2.9199 H   0  0  0  0  0  0  0  0  0  0  0  0
    1.7240   -0.2744   -0.0128 C   0  0  0  0  0  0  0  0  0  0  0  0
    2.2916   -0.1593    0.9352 H   0  0  0  0  0  0  0  0  0  0  0  0
    2.2433    0.7369   -1.0671 C   0  0  0  0  0  0  0  0  0  0  0  0
    1.3928    1.1856   -1.6296 H   0  0  0  0  0  0  0  0  0  0  0  0
    2.7956    0.1606   -1.8385 H   0  0  0  0  0  0  0  0  0  0  0  0
    4.2905    1.6550    1.1115 C   0  0  0  0  0  0  0  0  0  0  0  0
    5.0678    2.4029    1.3714 H   0  0  0  0  0  0  0  0  0  0  0  0
    4.7840    0.6625    1.0614 H   0  0  0  0  0  0  0  0  0  0  0  0
    3.5596    1.6344    1.9463 H   0  0  0  0  0  0  0  0  0  0  0  0
    2.6155    3.8067   -0.3319 C   0  0  0  0  0  0  0  0  0  0  0  0
    3.3842    4.5958   -0.1956 H   0  0  0  0  0  0  0  0  0  0  0  0
    1.9373    3.8377    0.5417 H   0  0  0  0  0  0  0  0  0  0  0  0
    2.0222    4.0649   -1.2326 H   0  0  0  0  0  0  0  0  0  0  0  0
    4.7603    2.2787   -1.8908 C   0  0  0  0  0  0  0  0  0  0  0  0
    4.2832    2.5321   -2.8604 H   0  0  0  0  0  0  0  0  0  0  0  0
    5.3261    1.3355   -2.0325 H   0  0  0  0  0  0  0  0  0  0  0  0
    5.4884    3.0822   -1.6555 H   0  0  0  0  0  0  0  0  0  0  0  0
    1.7957   -1.7384   -0.4980 C   0  0  0  0  0  0  0  0  0  0  0  0
    1.4151   -1.7912   -1.5412 H   0  0  0  0  0  0  0  0  0  0  0  0
    1.1125   -2.3888    0.0932 H   0  0  0  0  0  0  0  0  0  0  0  0
    3.2670   -4.3643   -1.0356 C   0  0  0  0  0  0  0  0  0  0  0  0
    2.9605   -4.3534   -2.1018 H   0  0  0  0  0  0  0  0  0  0  0  0
    2.4866   -4.9095   -0.4659 H   0  0  0  0  0  0  0  0  0  0  0  0
    4.2104   -4.9434   -0.9600 H   0  0  0  0  0  0  0  0  0  0  0  0
    4.0089   -2.6748    1.4497 C   0  0  0  0  0  0  0  0  0  0  0  0
    4.9777   -3.2040    1.5618 H   0  0  0  0  0  0  0  0  0  0  0  0
    3.2562   -3.2178    2.0578 H   0  0  0  0  0  0  0  0  0  0  0  0
    4.1356   -1.6610    1.8837 H   0  0  0  0  0  0  0  0  0  0  0  0
    4.8462   -1.7259   -1.3636 C   0  0  0  0  0  0  0  0  0  0  0  0
    5.7882   -2.3112   -1.3230 H   0  0  0  0  0  0  0  0  0  0  0  0
    5.0614   -0.7177   -0.9574 H   0  0  0  0  0  0  0  0  0  0  0  0
    4.5662   -1.6113   -2.4308 H   0  0  0  0  0  0  0  0  0  0  0  0
   -2.9646   -0.7519    1.3588 C   0  0  0  0  0  0  0  0  0  0  0  0
   -3.7828   -1.5842    0.5651 C   0  0  0  0  0  0  0  0  0  0  0  0
   -3.5596   -2.6602    0.5064 H   0  0  0  0  0  0  0  0  0  0  0  0
   -4.8328   -1.0395   -0.1863 C   0  0  0  0  0  0  0  0  0  0  0  0
   -5.4352   -1.6919   -0.8350 H   0  0  0  0  0  0  0  0  0  0  0  0
   -5.0911    0.3391   -0.1404 C   0  0  0  0  0  0  0  0  0  0  0  0
   -5.9029    0.7672   -0.7469 H   0  0  0  0  0  0  0  0  0  0  0  0
   -4.3035    1.1697    0.6707 C   0  0  0  0  0  0  0  0  0  0  0  0
   -4.5052    2.2507    0.7178 H   0  0  0  0  0  0  0  0  0  0  0  0
   -3.2469    0.6295    1.4178 C   0  0  0  0  0  0  0  0  0  0  0  0
   -2.6322    1.2812    2.0552 H   0  0  0  0  0  0  0  0  0  0  0  0
  1 25  1  1  0  0  0
  1 14  1  0  0  0  0
  1  4  1  0  0  0  0
  2 34  1  0  0  0  0
  2 30  1  0  0  0  0
  3 49  1  0  0  0  0
  4  5  2  0  0  0  0
  4 12  1  0  0  0  0
  5  6  1  0  0  0  0
  6  7  1  0  0  0  0
  6  8  2  0  0  0  0
  8  9  1  0  0  0  0
 10  8  1  0  0  0  0
 10 11  1  0  0  0  0
 12 10  2  0  0  0  0
 13 12  1  0  0  0  0
 14 23  1  0  0  0  0
 15 17  1  0  0  0  0
 15 14  2  0  0  0  0
 16 15  1  0  0  0  0
 17 19  2  0  0  0  0
 18 17  1  0  0  0  0
 19 20  1  0  0  0  0
 19 21  1  0  0  0  0
 21 22  1  0  0  0  0
 23 21  2  0  0  0  0
 23 24  1  0  0  0  0
 25 26  1  0  0  0  0
 27  2  1  0  0  0  0
 27 25  1  0  0  0  0
 28 27  1  0  0  0  0
 29 27  1  0  0  0  0
 30 31  1  0  0  0  0
 30 33  1  0  0  0  0
 32 30  1  0  0  0  0
 34 35  1  0  0  0  0
 34 36  1  0  0  0  0
 37 34  1  0  0  0  0
 38 41  1  0  0  0  0
 38  2  1  0  0  0  0
 39 38  1  0  0  0  0
 40 38  1  0  0  0  0
 42  3  1  0  0  0  0
 42 25  1  0  0  0  0
 42 44  1  0  0  0  0
 43 42  1  0  0  0  0
 45 48  1  0  0  0  0
 45 47  1  0  0  0  0
 45  3  1  0  0  0  0
 46 45  1  0  0  0  0
 49 50  1  0  0  0  0
 49 52  1  0  0  0  0
 49 51  1  0  0  0  0
 53 54  1  0  0  0  0
 53 55  1  0  0  0  0
 53  3  1  0  0  0  0
 56 53  1  0  0  0  0
 57 66  1  0  0  0  0
 57  5  1  0  0  0  0
 58 57  2  0  0  0  0
 59 58  1  0  0  0  0
 60 62  2  0  0  0  0
 60 58  1  0  0  0  0
 61 60  1  0  0  0  0
 62 64  1  0  0  0  0
 63 62  1  0  0  0  0
 64 65  1  0  0  0  0
 64 66  2  0  0  0  0
 66 67  1  0  0  0  0
M  END
