1
 OpenBabel05122313063D

 64 66  0  0  0  0  0  0  0  0999 V2000
   -0.4339    0.0105    0.3816 P   0  0  2  0  0  0  0  0  0  0  0  0
   -0.1023   -1.1047    1.8167 C   0  0  0  0  0  0  0  0  0  0  0  0
    1.2273   -1.5137    2.1239 C   0  0  0  0  0  0  0  0  0  0  0  0
    1.4226   -2.4588    3.1539 C   0  0  0  0  0  0  0  0  0  0  0  0
    2.4515   -2.7765    3.3811 H   0  0  0  0  0  0  0  0  0  0  0  0
    0.3483   -2.9678    3.8941 C   0  0  0  0  0  0  0  0  0  0  0  0
    0.5311   -3.6982    4.6967 H   0  0  0  0  0  0  0  0  0  0  0  0
   -0.9563   -2.5350    3.6149 C   0  0  0  0  0  0  0  0  0  0  0  0
   -1.8091   -2.9194    4.1942 H   0  0  0  0  0  0  0  0  0  0  0  0
   -1.1753   -1.6162    2.5796 C   0  0  0  0  0  0  0  0  0  0  0  0
   -2.2078   -1.3122    2.3546 H   0  0  0  0  0  0  0  0  0  0  0  0
   -0.4071    1.7082    1.0938 C   0  0  0  0  0  0  0  0  0  0  0  0
    0.1052    2.7709    0.3225 C   0  0  0  0  0  0  0  0  0  0  0  0
    0.5335    2.5557   -0.6700 H   0  0  0  0  0  0  0  0  0  0  0  0
    0.0887    4.0797    0.8276 C   0  0  0  0  0  0  0  0  0  0  0  0
    0.4917    4.9038    0.2197 H   0  0  0  0  0  0  0  0  0  0  0  0
   -0.4309    4.3339    2.1071 C   0  0  0  0  0  0  0  0  0  0  0  0
   -0.4393    5.3600    2.5049 H   0  0  0  0  0  0  0  0  0  0  0  0
   -0.9299    3.2752    2.8841 C   0  0  0  0  0  0  0  0  0  0  0  0
   -1.3283    3.4699    3.8913 H   0  0  0  0  0  0  0  0  0  0  0  0
   -0.9181    1.9659    2.3814 C   0  0  0  0  0  0  0  0  0  0  0  0
   -1.2973    1.1383    3.0004 H   0  0  0  0  0  0  0  0  0  0  0  0
   -2.2300   -0.2430   -0.0693 C   0  0  0  0  0  0  0  0  0  0  0  0
   -2.8039   -0.0804    0.8676 H   0  0  0  0  0  0  0  0  0  0  0  0
   -2.4277   -1.6832   -0.5767 C   0  0  0  0  0  0  0  0  0  0  0  0
   -1.9780   -2.4072    0.1378 H   0  0  0  0  0  0  0  0  0  0  0  0
   -1.8455   -1.7910   -1.5180 H   0  0  0  0  0  0  0  0  0  0  0  0
   -3.8886   -2.1049   -0.8267 C   0  0  0  0  0  0  0  0  0  0  0  0
   -4.3437   -1.3735   -1.5326 H   0  0  0  0  0  0  0  0  0  0  0  0
   -3.9241   -3.4824   -1.4999 C   0  0  0  0  0  0  0  0  0  0  0  0
   -3.4696   -4.2543   -0.8428 H   0  0  0  0  0  0  0  0  0  0  0  0
   -3.3588   -3.4822   -2.4537 H   0  0  0  0  0  0  0  0  0  0  0  0
   -4.9640   -3.7993   -1.7191 H   0  0  0  0  0  0  0  0  0  0  0  0
   -4.7200   -2.1049    0.4626 C   0  0  0  0  0  0  0  0  0  0  0  0
   -4.2951   -2.8160    1.2036 H   0  0  0  0  0  0  0  0  0  0  0  0
   -5.7658   -2.4162    0.2652 H   0  0  0  0  0  0  0  0  0  0  0  0
   -4.7608   -1.1046    0.9402 H   0  0  0  0  0  0  0  0  0  0  0  0
   -2.6420    0.8306   -1.1059 C   0  0  0  0  0  0  0  0  0  0  0  0
   -2.6460    0.3566   -2.1099 H   0  0  0  0  0  0  0  0  0  0  0  0
   -1.8751    1.6328   -1.1763 H   0  0  0  0  0  0  0  0  0  0  0  0
   -3.9997    1.5159   -0.8493 C   0  0  0  0  0  0  0  0  0  0  0  0
   -4.7701    0.7216   -0.7235 H   0  0  0  0  0  0  0  0  0  0  0  0
   -3.9834    2.3682    0.4259 C   0  0  0  0  0  0  0  0  0  0  0  0
   -3.2187    3.1708    0.3563 H   0  0  0  0  0  0  0  0  0  0  0  0
   -3.7466    1.7725    1.3309 H   0  0  0  0  0  0  0  0  0  0  0  0
   -4.9679    2.8493    0.5961 H   0  0  0  0  0  0  0  0  0  0  0  0
   -4.3930    2.3631   -2.0652 C   0  0  0  0  0  0  0  0  0  0  0  0
   -5.3762    2.8540   -1.9165 H   0  0  0  0  0  0  0  0  0  0  0  0
   -4.4537    1.7494   -2.9870 H   0  0  0  0  0  0  0  0  0  0  0  0
   -3.6432    3.1627   -2.2454 H   0  0  0  0  0  0  0  0  0  0  0  0
    2.4076   -0.9797    1.3936 C   0  0  0  0  0  0  0  0  0  0  0  0
    3.2672   -1.8468    0.6894 C   0  0  0  0  0  0  0  0  0  0  0  0
    3.0637   -2.9281    0.6840 H   0  0  0  0  0  0  0  0  0  0  0  0
    4.3376   -1.3210   -0.0475 C   0  0  0  0  0  0  0  0  0  0  0  0
    4.9855   -1.9958   -0.6263 H   0  0  0  0  0  0  0  0  0  0  0  0
    4.5638    0.0610   -0.0820 C   0  0  0  0  0  0  0  0  0  0  0  0
    5.3896    0.4633   -0.6890 H   0  0  0  0  0  0  0  0  0  0  0  0
    3.7352    0.9472    0.6359 C   0  0  0  0  0  0  0  0  0  0  0  0
    2.6695    0.4070    1.3780 C   0  0  0  0  0  0  0  0  0  0  0  0
    2.0222    1.0822    1.9570 H   0  0  0  0  0  0  0  0  0  0  0  0
    3.9494    2.4375    0.5656 C   0  0  0  0  0  0  0  0  0  0  0  0
    3.6492    2.8229   -0.4324 H   0  0  0  0  0  0  0  0  0  0  0  0
    5.0154    2.7074    0.7084 H   0  0  0  0  0  0  0  0  0  0  0  0
    3.3475    2.9744    1.3242 H   0  0  0  0  0  0  0  0  0  0  0  0
  1 23  1  1  0  0  0
  1 12  1  0  0  0  0
  1  2  1  0  0  0  0
  2  3  2  0  0  0  0
  2 10  1  0  0  0  0
  3  4  1  0  0  0  0
  4  5  1  0  0  0  0
  4  6  2  0  0  0  0
  6  7  1  0  0  0  0
  8  6  1  0  0  0  0
  8  9  1  0  0  0  0
 10  8  2  0  0  0  0
 11 10  1  0  0  0  0
 12 21  1  0  0  0  0
 13 15  1  0  0  0  0
 13 12  2  0  0  0  0
 14 13  1  0  0  0  0
 15 17  2  0  0  0  0
 16 15  1  0  0  0  0
 17 18  1  0  0  0  0
 17 19  1  0  0  0  0
 19 20  1  0  0  0  0
 21 19  2  0  0  0  0
 21 22  1  0  0  0  0
 23 24  1  0  0  0  0
 25 23  1  0  0  0  0
 25 26  1  0  0  0  0
 27 25  1  0  0  0  0
 28 25  1  0  0  0  0
 28 34  1  0  0  0  0
 29 28  1  0  0  0  0
 30 31  1  0  0  0  0
 30 28  1  0  0  0  0
 32 30  1  0  0  0  0
 33 30  1  0  0  0  0
 34 37  1  0  0  0  0
 34 35  1  0  0  0  0
 36 34  1  0  0  0  0
 38 41  1  0  0  0  0
 38 23  1  0  0  0  0
 39 38  1  0  0  0  0
 40 38  1  0  0  0  0
 41 42  1  0  0  0  0
 41 43  1  0  0  0  0
 43 46  1  0  0  0  0
 43 45  1  0  0  0  0
 44 43  1  0  0  0  0
 47 48  1  0  0  0  0
 47 41  1  0  0  0  0
 49 47  1  0  0  0  0
 50 47  1  0  0  0  0
 51  3  1  0  0  0  0
 52 51  2  0  0  0  0
 53 52  1  0  0  0  0
 54 52  1  0  0  0  0
 55 54  1  0  0  0  0
 56 54  2  0  0  0  0
 56 58  1  0  0  0  0
 57 56  1  0  0  0  0
 58 59  2  0  0  0  0
 59 51  1  0  0  0  0
 59 60  1  0  0  0  0
 61 58  1  0  0  0  0
 61 63  1  0  0  0  0
 61 64  1  0  0  0  0
 62 61  1  0  0  0  0
M  END
