1
 OpenBabel05122313063D

 40 42  0  0  0  0  0  0  0  0999 V2000
   -1.0479   -0.0166    0.1764 P   0  0  0  0  0  0  0  0  0  0  0  0
   -1.8068    1.6462    0.2238 C   0  0  0  0  0  0  0  0  0  0  0  0
   -1.5362    2.5277   -0.8441 C   0  0  0  0  0  0  0  0  0  0  0  0
   -0.8369    2.2260   -1.6366 H   0  0  0  0  0  0  0  0  0  0  0  0
   -2.1519    3.7866   -0.8871 C   0  0  0  0  0  0  0  0  0  0  0  0
   -1.9367    4.4702   -1.7220 H   0  0  0  0  0  0  0  0  0  0  0  0
   -3.0342    4.1738    0.1344 C   0  0  0  0  0  0  0  0  0  0  0  0
   -3.5109    5.1649    0.1039 H   0  0  0  0  0  0  0  0  0  0  0  0
   -3.3111    3.2948    1.1943 C   0  0  0  0  0  0  0  0  0  0  0  0
   -4.0079    3.5936    1.9916 H   0  0  0  0  0  0  0  0  0  0  0  0
   -2.7058    2.0302    1.2417 C   0  0  0  0  0  0  0  0  0  0  0  0
   -2.9335    1.3454    2.0715 H   0  0  0  0  0  0  0  0  0  0  0  0
   -1.0131   -0.6350    1.9005 C   0  0  0  0  0  0  0  0  0  0  0  0
   -0.5703    0.2152    2.9391 C   0  0  0  0  0  0  0  0  0  0  0  0
   -0.3311    1.2676    2.7278 H   0  0  0  0  0  0  0  0  0  0  0  0
   -0.4629   -0.2674    4.2514 C   0  0  0  0  0  0  0  0  0  0  0  0
   -0.1236    0.4059    5.0526 H   0  0  0  0  0  0  0  0  0  0  0  0
   -0.7985   -1.5992    4.5440 C   0  0  0  0  0  0  0  0  0  0  0  0
   -0.7210   -1.9741    5.5753 H   0  0  0  0  0  0  0  0  0  0  0  0
   -1.2405   -2.4485    3.5180 C   0  0  0  0  0  0  0  0  0  0  0  0
   -1.5097   -3.4915    3.7414 H   0  0  0  0  0  0  0  0  0  0  0  0
   -1.3408   -1.9746    2.2011 C   0  0  0  0  0  0  0  0  0  0  0  0
   -1.6788   -2.6591    1.4098 H   0  0  0  0  0  0  0  0  0  0  0  0
   -2.2544   -1.0859   -0.7665 C   0  0  0  0  0  0  0  0  0  0  0  0
   -1.8155   -2.1069   -0.7020 H   0  0  0  0  0  0  0  0  0  0  0  0
   -3.6591   -1.0804   -0.1340 C   0  0  0  0  0  0  0  0  0  0  0  0
   -4.0646   -0.0466   -0.1808 H   0  0  0  0  0  0  0  0  0  0  0  0
   -3.6216   -1.3567    0.9390 H   0  0  0  0  0  0  0  0  0  0  0  0
   -4.5938   -2.0307   -0.8996 C   0  0  0  0  0  0  0  0  0  0  0  0
   -4.2289   -3.0756   -0.7804 H   0  0  0  0  0  0  0  0  0  0  0  0
   -5.6039   -2.0000   -0.4422 H   0  0  0  0  0  0  0  0  0  0  0  0
   -4.6612   -1.6778   -2.3895 C   0  0  0  0  0  0  0  0  0  0  0  0
   -5.1443   -0.6823   -2.5068 H   0  0  0  0  0  0  0  0  0  0  0  0
   -5.3052   -2.4019   -2.9290 H   0  0  0  0  0  0  0  0  0  0  0  0
   -3.2627   -1.6351   -3.0157 C   0  0  0  0  0  0  0  0  0  0  0  0
   -2.8224   -2.6577   -3.0152 H   0  0  0  0  0  0  0  0  0  0  0  0
   -3.3178   -1.3212   -4.0780 H   0  0  0  0  0  0  0  0  0  0  0  0
   -2.3258   -0.6878   -2.2516 C   0  0  0  0  0  0  0  0  0  0  0  0
   -1.3149   -0.6815   -2.7059 H   0  0  0  0  0  0  0  0  0  0  0  0
   -2.7121    0.3526   -2.3262 H   0  0  0  0  0  0  0  0  0  0  0  0
  1  2  1  0  0  0  0
  1 13  1  0  0  0  0
  2 11  1  0  0  0  0
  3  2  2  0  0  0  0
  4  3  1  0  0  0  0
  5  3  1  0  0  0  0
  5  7  2  0  0  0  0
  6  5  1  0  0  0  0
  7  9  1  0  0  0  0
  8  7  1  0  0  0  0
  9 11  2  0  0  0  0
  9 10  1  0  0  0  0
 11 12  1  0  0  0  0
 13 22  2  0  0  0  0
 13 14  1  0  0  0  0
 14 16  2  0  0  0  0
 15 14  1  0  0  0  0
 16 18  1  0  0  0  0
 16 17  1  0  0  0  0
 18 19  1  0  0  0  0
 20 21  1  0  0  0  0
 20 18  2  0  0  0  0
 22 20  1  0  0  0  0
 23 22  1  0  0  0  0
 24 25  1  0  0  0  0
 24 26  1  0  0  0  0
 24  1  1  0  0  0  0
 26 28  1  0  0  0  0
 27 26  1  0  0  0  0
 29 30  1  0  0  0  0
 29 31  1  0  0  0  0
 29 26  1  0  0  0  0
 32 29  1  0  0  0  0
 33 32  1  0  0  0  0
 34 32  1  0  0  0  0
 35 36  1  0  0  0  0
 35 32  1  0  0  0  0
 35 38  1  0  0  0  0
 37 35  1  0  0  0  0
 38 24  1  0  0  0  0
 39 38  1  0  0  0  0
 40 38  1  0  0  0  0
M  END
