1
 OpenBabel05122313063D

 72 72  0  0  1  0  0  0  0  0999 V2000
    0.9868   -0.5422   -0.4183 P   0  0  2  0  0  0  0  0  0  0  0  0
    0.7549   -1.6015   -2.3510 Cl  0  0  0  0  0  0  0  0  0  0  0  0
    1.9824   -1.8328    0.6104 C   0  0  1  0  0  0  0  0  0  0  0  0
    3.3886   -1.7244    0.0633 C   0  0  0  0  0  0  0  0  0  0  0  0
    4.1002   -0.8793    0.8844 C   0  0  0  0  0  0  0  0  0  0  0  0
    3.2693   -0.4939    2.0354 C   0  0  0  0  0  0  0  0  0  0  0  0
    2.0308   -1.0895    1.9332 C   0  0  0  0  0  0  0  0  0  0  0  0
    1.3120   -3.2005    0.6014 C   0  0  0  0  0  0  0  0  0  0  0  0
    0.2676   -3.1267    0.9624 H   0  0  0  0  0  0  0  0  0  0  0  0
    1.8689   -3.8953    1.2628 H   0  0  0  0  0  0  0  0  0  0  0  0
    1.2874   -3.6226   -0.4218 H   0  0  0  0  0  0  0  0  0  0  0  0
    3.8614   -2.4188   -1.1718 C   0  0  0  0  0  0  0  0  0  0  0  0
    3.2831   -2.1147   -2.0684 H   0  0  0  0  0  0  0  0  0  0  0  0
    3.7392   -3.5205   -1.0848 H   0  0  0  0  0  0  0  0  0  0  0  0
    4.9306   -2.2115   -1.3657 H   0  0  0  0  0  0  0  0  0  0  0  0
    5.5017   -0.3862    0.7034 C   0  0  0  0  0  0  0  0  0  0  0  0
    6.1449   -0.6534    1.5688 H   0  0  0  0  0  0  0  0  0  0  0  0
    5.5224    0.7222    0.6265 H   0  0  0  0  0  0  0  0  0  0  0  0
    5.9729   -0.7889   -0.2124 H   0  0  0  0  0  0  0  0  0  0  0  0
    3.7736    0.3819    3.1388 C   0  0  0  0  0  0  0  0  0  0  0  0
    4.6705   -0.0572    3.6258 H   0  0  0  0  0  0  0  0  0  0  0  0
    3.0099    0.5512    3.9210 H   0  0  0  0  0  0  0  0  0  0  0  0
    4.0787    1.3769    2.7522 H   0  0  0  0  0  0  0  0  0  0  0  0
    0.9279   -1.1054    2.9411 C   0  0  0  0  0  0  0  0  0  0  0  0
    0.7756   -2.1280    3.3529 H   0  0  0  0  0  0  0  0  0  0  0  0
   -0.0344   -0.8015    2.4822 H   0  0  0  0  0  0  0  0  0  0  0  0
    1.1448   -0.4321    3.7926 H   0  0  0  0  0  0  0  0  0  0  0  0
   -0.5318   -0.6861    0.2220 N   0  0  0  0  0  2  0  0  0  0  0  0
   -1.9417   -0.2044   -0.3659 P   0  0  0  0  0  4  0  0  0  0  0  0
   -1.9793   -0.1969   -1.7946 H   0  0  0  0  0  0  0  0  0  0  0  0
   -2.3825    1.3183    0.2166 N   0  0  0  0  0  0  0  0  0  0  0  0
   -1.4242    2.0803    1.0580 C   0  0  0  0  0  0  0  0  0  0  0  0
   -0.4455    1.6023    0.8572 H   0  0  0  0  0  0  0  0  0  0  0  0
   -1.6879    1.9227    2.5622 C   0  0  0  0  0  0  0  0  0  0  0  0
   -0.8564    2.3801    3.1360 H   0  0  0  0  0  0  0  0  0  0  0  0
   -1.7330    0.8520    2.8439 H   0  0  0  0  0  0  0  0  0  0  0  0
   -2.6304    2.4085    2.8825 H   0  0  0  0  0  0  0  0  0  0  0  0
   -1.2681    3.5510    0.6601 C   0  0  0  0  0  0  0  0  0  0  0  0
   -0.4313    3.9874    1.2399 H   0  0  0  0  0  0  0  0  0  0  0  0
   -2.1721    4.1525    0.8812 H   0  0  0  0  0  0  0  0  0  0  0  0
   -1.0253    3.6592   -0.4126 H   0  0  0  0  0  0  0  0  0  0  0  0
   -3.6889    1.8396   -0.2516 C   0  0  0  0  0  0  0  0  0  0  0  0
   -4.2205    0.9335   -0.6146 H   0  0  0  0  0  0  0  0  0  0  0  0
   -4.5559    2.4165    0.8737 C   0  0  0  0  0  0  0  0  0  0  0  0
   -5.5629    2.6590    0.4784 H   0  0  0  0  0  0  0  0  0  0  0  0
   -4.1324    3.3520    1.2885 H   0  0  0  0  0  0  0  0  0  0  0  0
   -4.6781    1.6943    1.7039 H   0  0  0  0  0  0  0  0  0  0  0  0
   -3.5841    2.7961   -1.4521 C   0  0  0  0  0  0  0  0  0  0  0  0
   -4.5800    2.9141   -1.9262 H   0  0  0  0  0  0  0  0  0  0  0  0
   -2.8829    2.4041   -2.2143 H   0  0  0  0  0  0  0  0  0  0  0  0
   -3.2329    3.8035   -1.1601 H   0  0  0  0  0  0  0  0  0  0  0  0
   -3.2383   -1.2310   -0.0183 N   0  0  0  0  0  0  0  0  0  0  0  0
   -3.6159   -2.3148   -0.9624 C   0  0  0  0  0  0  0  0  0  0  0  0
   -4.3470   -2.9311   -0.3990 H   0  0  0  0  0  0  0  0  0  0  0  0
   -2.4492   -3.2318   -1.3534 C   0  0  0  0  0  0  0  0  0  0  0  0
   -2.8162   -4.0783   -1.9687 H   0  0  0  0  0  0  0  0  0  0  0  0
   -1.9491   -3.6458   -0.4573 H   0  0  0  0  0  0  0  0  0  0  0  0
   -1.6744   -2.6986   -1.9397 H   0  0  0  0  0  0  0  0  0  0  0  0
   -4.3567   -1.7558   -2.1843 C   0  0  0  0  0  0  0  0  0  0  0  0
   -4.7244   -2.5807   -2.8273 H   0  0  0  0  0  0  0  0  0  0  0  0
   -3.6952   -1.1229   -2.8104 H   0  0  0  0  0  0  0  0  0  0  0  0
   -5.2257   -1.1432   -1.8726 H   0  0  0  0  0  0  0  0  0  0  0  0
   -3.6135   -1.3760    1.4060 C   0  0  0  0  0  0  0  0  0  0  0  0
   -3.2255   -0.4576    1.8960 H   0  0  0  0  0  0  0  0  0  0  0  0
   -2.9495   -2.5816    2.0856 C   0  0  0  0  0  0  0  0  0  0  0  0
   -3.1817   -2.5917    3.1698 H   0  0  0  0  0  0  0  0  0  0  0  0
   -1.8503   -2.5371    1.9629 H   0  0  0  0  0  0  0  0  0  0  0  0
   -3.3124   -3.5399    1.6601 H   0  0  0  0  0  0  0  0  0  0  0  0
   -5.1364   -1.3720    1.5862 C   0  0  0  0  0  0  0  0  0  0  0  0
   -5.3940   -1.3572    2.6641 H   0  0  0  0  0  0  0  0  0  0  0  0
   -5.6066   -2.2781    1.1516 H   0  0  0  0  0  0  0  0  0  0  0  0
   -5.5934   -0.4844    1.1069 H   0  0  0  0  0  0  0  0  0  0  0  0
  1  2  1  6  0  0  0
  1 28  1  0  0  0  0
  1  3  1  0  0  0  0
  3  8  1  1  0  0  0
  3  7  1  0  0  0  0
  4  3  1  0  0  0  0
  4  5  2  0  0  0  0
  5  6  1  0  0  0  0
  6 20  1  0  0  0  0
  7  6  2  0  0  0  0
  7 24  1  0  0  0  0
  8  9  1  0  0  0  0
  8 10  1  0  0  0  0
 11  8  1  0  0  0  0
 12 14  1  0  0  0  0
 12  4  1  0  0  0  0
 13 12  1  0  0  0  0
 15 12  1  0  0  0  0
 16  5  1  0  0  0  0
 16 17  1  0  0  0  0
 18 16  1  0  0  0  0
 19 16  1  0  0  0  0
 20 21  1  0  0  0  0
 20 22  1  0  0  0  0
 23 20  1  0  0  0  0
 24 25  1  0  0  0  0
 24 27  1  0  0  0  0
 26 24  1  0  0  0  0
 29 52  1  0  0  0  0
 29 31  1  0  0  0  0
 29 28  1  0  0  0  0
 30 29  1  0  0  0  0
 31 32  1  0  0  0  0
 32 34  1  0  0  0  0
 33 32  1  0  0  0  0
 34 36  1  0  0  0  0
 34 37  1  0  0  0  0
 34 35  1  0  0  0  0
 38 40  1  0  0  0  0
 38 32  1  0  0  0  0
 38 39  1  0  0  0  0
 41 38  1  0  0  0  0
 42 31  1  0  0  0  0
 42 44  1  0  0  0  0
 43 42  1  0  0  0  0
 44 46  1  0  0  0  0
 44 47  1  0  0  0  0
 45 44  1  0  0  0  0
 48 51  1  0  0  0  0
 48 42  1  0  0  0  0
 49 48  1  0  0  0  0
 50 48  1  0  0  0  0
 52 63  1  0  0  0  0
 53 54  1  0  0  0  0
 53 52  1  0  0  0  0
 55 53  1  0  0  0  0
 55 57  1  0  0  0  0
 56 55  1  0  0  0  0
 58 55  1  0  0  0  0
 59 62  1  0  0  0  0
 59 53  1  0  0  0  0
 60 59  1  0  0  0  0
 61 59  1  0  0  0  0
 63 69  1  0  0  0  0
 63 64  1  0  0  0  0
 63 65  1  0  0  0  0
 65 66  1  0  0  0  0
 67 65  1  0  0  0  0
 68 65  1  0  0  0  0
 69 70  1  0  0  0  0
 71 69  1  0  0  0  0
 72 69  1  0  0  0  0
M  END
