1
 OpenBabel05122313063D

 46 48  0  0  0  0  0  0  0  0999 V2000
   -1.2287   -0.0097    0.1871 P   0  0  0  0  0  0  0  0  0  0  0  0
   -1.0843    1.1956    1.5732 C   0  0  0  0  0  0  0  0  0  0  0  0
    0.1621    1.2981    2.2295 C   0  0  0  0  0  0  0  0  0  0  0  0
    1.0157    0.7114    1.8606 H   0  0  0  0  0  0  0  0  0  0  0  0
    0.3265    2.1650    3.3176 C   0  0  0  0  0  0  0  0  0  0  0  0
    1.3072    2.2364    3.8115 H   0  0  0  0  0  0  0  0  0  0  0  0
   -0.7478    2.9536    3.7599 C   0  0  0  0  0  0  0  0  0  0  0  0
   -0.6156    3.6449    4.6061 H   0  0  0  0  0  0  0  0  0  0  0  0
   -1.9896    2.8614    3.1139 C   0  0  0  0  0  0  0  0  0  0  0  0
   -2.8368    3.4765    3.4535 H   0  0  0  0  0  0  0  0  0  0  0  0
   -2.1596    1.9843    2.0306 C   0  0  0  0  0  0  0  0  0  0  0  0
   -3.1435    1.9240    1.5432 H   0  0  0  0  0  0  0  0  0  0  0  0
   -2.8303    0.4108   -0.6755 C   0  0  0  0  0  0  0  0  0  0  0  0
   -3.5881    0.5759    0.1239 H   0  0  0  0  0  0  0  0  0  0  0  0
   -2.6689    1.7121   -1.4843 C   0  0  0  0  0  0  0  0  0  0  0  0
   -1.8438    1.5623   -2.2161 H   0  0  0  0  0  0  0  0  0  0  0  0
   -2.3564    2.5441   -0.8194 H   0  0  0  0  0  0  0  0  0  0  0  0
   -3.9583    2.0839   -2.2280 C   0  0  0  0  0  0  0  0  0  0  0  0
   -4.7520    2.3286   -1.4860 H   0  0  0  0  0  0  0  0  0  0  0  0
   -3.7943    3.0060   -2.8243 H   0  0  0  0  0  0  0  0  0  0  0  0
   -4.4386    0.9357   -3.1225 C   0  0  0  0  0  0  0  0  0  0  0  0
   -5.3866    1.2091   -3.6316 H   0  0  0  0  0  0  0  0  0  0  0  0
   -3.6876    0.7607   -3.9250 H   0  0  0  0  0  0  0  0  0  0  0  0
   -4.6137   -0.3527   -2.3108 C   0  0  0  0  0  0  0  0  0  0  0  0
   -4.9279   -1.1891   -2.9693 H   0  0  0  0  0  0  0  0  0  0  0  0
   -5.4365   -0.2092   -1.5733 H   0  0  0  0  0  0  0  0  0  0  0  0
   -3.3260   -0.7399   -1.5709 C   0  0  0  0  0  0  0  0  0  0  0  0
   -2.5269   -1.0102   -2.2941 H   0  0  0  0  0  0  0  0  0  0  0  0
   -3.5016   -1.6524   -0.9659 H   0  0  0  0  0  0  0  0  0  0  0  0
   -1.5245   -1.6421    1.0420 C   0  0  0  0  0  0  0  0  0  0  0  0
   -1.6773   -2.3261    0.1766 H   0  0  0  0  0  0  0  0  0  0  0  0
   -2.7534   -1.6607    1.9628 C   0  0  0  0  0  0  0  0  0  0  0  0
   -2.6080   -0.9216    2.7820 H   0  0  0  0  0  0  0  0  0  0  0  0
   -3.6655   -1.3479    1.4126 H   0  0  0  0  0  0  0  0  0  0  0  0
   -2.9625   -3.0605    2.5625 C   0  0  0  0  0  0  0  0  0  0  0  0
   -3.8330   -3.0498    3.2520 H   0  0  0  0  0  0  0  0  0  0  0  0
   -3.2193   -3.7681    1.7426 H   0  0  0  0  0  0  0  0  0  0  0  0
   -1.7065   -3.5627    3.2857 C   0  0  0  0  0  0  0  0  0  0  0  0
   -1.8705   -4.5896    3.6748 H   0  0  0  0  0  0  0  0  0  0  0  0
   -1.5159   -2.9177    4.1734 H   0  0  0  0  0  0  0  0  0  0  0  0
   -0.4802   -3.5238    2.3651 C   0  0  0  0  0  0  0  0  0  0  0  0
    0.4289   -3.8499    2.9125 H   0  0  0  0  0  0  0  0  0  0  0  0
   -0.6191   -4.2433    1.5278 H   0  0  0  0  0  0  0  0  0  0  0  0
   -0.2629   -2.1218    1.7811 C   0  0  0  0  0  0  0  0  0  0  0  0
   -0.0264   -1.4154    2.6076 H   0  0  0  0  0  0  0  0  0  0  0  0
    0.6033   -2.1120    1.0866 H   0  0  0  0  0  0  0  0  0  0  0  0
  1 30  1  0  0  0  0
  1  2  1  0  0  0  0
  2 11  2  0  0  0  0
  2  3  1  0  0  0  0
  3  5  2  0  0  0  0
  4  3  1  0  0  0  0
  5  7  1  0  0  0  0
  5  6  1  0  0  0  0
  7  8  1  0  0  0  0
  9 10  1  0  0  0  0
  9  7  2  0  0  0  0
 11  9  1  0  0  0  0
 12 11  1  0  0  0  0
 13 14  1  0  0  0  0
 13  1  1  0  0  0  0
 15 17  1  0  0  0  0
 15 13  1  0  0  0  0
 16 15  1  0  0  0  0
 18 19  1  0  0  0  0
 18 15  1  0  0  0  0
 20 18  1  0  0  0  0
 21 24  1  0  0  0  0
 21 18  1  0  0  0  0
 22 21  1  0  0  0  0
 23 21  1  0  0  0  0
 24 26  1  0  0  0  0
 24 27  1  0  0  0  0
 25 24  1  0  0  0  0
 27 29  1  0  0  0  0
 27 13  1  0  0  0  0
 28 27  1  0  0  0  0
 30 44  1  0  0  0  0
 30 32  1  0  0  0  0
 31 30  1  0  0  0  0
 32 35  1  0  0  0  0
 32 33  1  0  0  0  0
 34 32  1  0  0  0  0
 35 36  1  0  0  0  0
 35 38  1  0  0  0  0
 37 35  1  0  0  0  0
 38 39  1  0  0  0  0
 38 40  1  0  0  0  0
 41 42  1  0  0  0  0
 41 38  1  0  0  0  0
 43 41  1  0  0  0  0
 44 41  1  0  0  0  0
 44 45  1  0  0  0  0
 46 44  1  0  0  0  0
M  END
