1
 OpenBabel05122313063D

 53 56  0  0  1  0  0  0  0  0999 V2000
    0.1370   -0.5470   -0.4790 P   0  0  2  0  0  0  0  0  0  0  0  0
    1.6090   -1.4100   -0.7866 N   0  0  0  0  0  0  0  0  0  0  0  0
   -1.7573   -1.1679    1.3768 N   0  0  0  0  0  0  0  0  0  0  0  0
    2.7256   -0.9373   -0.3415 C   0  0  0  0  0  0  0  0  0  0  0  0
    2.7910    0.0533    0.1645 H   0  0  0  0  0  0  0  0  0  0  0  0
   -0.3918   -1.5108    1.1481 C   0  0  2  0  0  0  0  0  0  0  0  0
   -0.2326   -2.5737    0.8394 H   0  0  0  0  0  0  0  0  0  0  0  0
   -2.6645   -2.0068    1.0128 C   0  0  0  0  0  0  0  0  0  0  0  0
   -2.3934   -3.0044    0.5864 H   0  0  0  0  0  0  0  0  0  0  0  0
    3.9995   -1.6579   -0.4462 C   0  0  0  0  0  0  0  0  0  0  0  0
    4.0910   -2.9185   -1.0792 C   0  0  0  0  0  0  0  0  0  0  0  0
    3.1784   -3.3551   -1.5110 H   0  0  0  0  0  0  0  0  0  0  0  0
    5.3200   -3.5807   -1.1465 C   0  0  0  0  0  0  0  0  0  0  0  0
    5.3906   -4.5605   -1.6426 H   0  0  0  0  0  0  0  0  0  0  0  0
    6.4690   -2.9968   -0.5795 C   0  0  0  0  0  0  0  0  0  0  0  0
    7.4348   -3.5222   -0.6334 H   0  0  0  0  0  0  0  0  0  0  0  0
    6.3862   -1.7467    0.0551 C   0  0  0  0  0  0  0  0  0  0  0  0
    7.2844   -1.2920    0.4989 H   0  0  0  0  0  0  0  0  0  0  0  0
    5.1564   -1.0789    0.1207 C   0  0  0  0  0  0  0  0  0  0  0  0
    5.0772   -0.0997    0.6193 H   0  0  0  0  0  0  0  0  0  0  0  0
   -0.9955   -1.3618   -1.6693 C   0  0  0  0  0  0  0  0  0  0  0  0
   -2.3190   -0.8857   -1.7785 C   0  0  0  0  0  0  0  0  0  0  0  0
   -2.6373   -0.0097   -1.1947 H   0  0  0  0  0  0  0  0  0  0  0  0
   -3.2362   -1.5352   -2.6169 C   0  0  0  0  0  0  0  0  0  0  0  0
   -4.2690   -1.1621   -2.6839 H   0  0  0  0  0  0  0  0  0  0  0  0
   -2.8351   -2.6547   -3.3628 C   0  0  0  0  0  0  0  0  0  0  0  0
   -3.5527   -3.1602   -4.0269 H   0  0  0  0  0  0  0  0  0  0  0  0
   -1.5152   -3.1254   -3.2645 C   0  0  0  0  0  0  0  0  0  0  0  0
   -1.1966   -3.9988   -3.8540 H   0  0  0  0  0  0  0  0  0  0  0  0
   -0.5969   -2.4885   -2.4165 C   0  0  0  0  0  0  0  0  0  0  0  0
    0.4371   -2.8495   -2.3222 H   0  0  0  0  0  0  0  0  0  0  0  0
    0.5329   -1.1410    2.2770 C   0  0  0  0  0  0  0  0  0  0  0  0
    1.7603   -1.8194    2.4351 C   0  0  0  0  0  0  0  0  0  0  0  0
    2.0112   -2.6534    1.7630 H   0  0  0  0  0  0  0  0  0  0  0  0
    2.6551   -1.4468    3.4492 C   0  0  0  0  0  0  0  0  0  0  0  0
    3.6120   -1.9807    3.5535 H   0  0  0  0  0  0  0  0  0  0  0  0
    2.3258   -0.4047    4.3297 C   0  0  0  0  0  0  0  0  0  0  0  0
    3.0267   -0.1108    5.1256 H   0  0  0  0  0  0  0  0  0  0  0  0
    1.0916    0.2523    4.1983 C   0  0  0  0  0  0  0  0  0  0  0  0
    0.8224    1.0617    4.8936 H   0  0  0  0  0  0  0  0  0  0  0  0
    0.2018   -0.1078    3.1777 C   0  0  0  0  0  0  0  0  0  0  0  0
   -0.7675    0.3968    3.0695 H   0  0  0  0  0  0  0  0  0  0  0  0
   -4.1016   -1.7230    1.0991 C   0  0  0  0  0  0  0  0  0  0  0  0
   -4.5816   -0.4899    1.5988 C   0  0  0  0  0  0  0  0  0  0  0  0
   -3.8545    0.2614    1.9385 H   0  0  0  0  0  0  0  0  0  0  0  0
   -5.9566   -0.2394    1.6401 C   0  0  0  0  0  0  0  0  0  0  0  0
   -6.3252    0.7225    2.0277 H   0  0  0  0  0  0  0  0  0  0  0  0
   -6.8695   -1.2095    1.1852 C   0  0  0  0  0  0  0  0  0  0  0  0
   -7.9509   -1.0066    1.2193 H   0  0  0  0  0  0  0  0  0  0  0  0
   -6.4009   -2.4349    0.6849 C   0  0  0  0  0  0  0  0  0  0  0  0
   -7.1127   -3.1935    0.3257 H   0  0  0  0  0  0  0  0  0  0  0  0
   -5.0236   -2.6899    0.6419 C   0  0  0  0  0  0  0  0  0  0  0  0
   -4.6472   -3.6450    0.2422 H   0  0  0  0  0  0  0  0  0  0  0  0
  1  2  1  6  0  0  0
  1  6  1  0  0  0  0
  2  4  2  0  0  0  0
  4  5  1  0  0  0  0
  6  7  1  6  0  0  0
  6  3  1  0  0  0  0
  6 32  1  0  0  0  0
  8 43  1  0  0  0  0
  8  3  2  0  0  0  0
  9  8  1  0  0  0  0
 10  4  1  0  0  0  0
 10 19  1  0  0  0  0
 11 10  2  0  0  0  0
 12 11  1  0  0  0  0
 13 11  1  0  0  0  0
 13 15  2  0  0  0  0
 14 13  1  0  0  0  0
 15 17  1  0  0  0  0
 16 15  1  0  0  0  0
 17 19  2  0  0  0  0
 17 18  1  0  0  0  0
 19 20  1  0  0  0  0
 21  1  1  0  0  0  0
 22 21  1  0  0  0  0
 22 23  1  0  0  0  0
 24 22  2  0  0  0  0
 25 24  1  0  0  0  0
 26 28  2  0  0  0  0
 26 24  1  0  0  0  0
 27 26  1  0  0  0  0
 28 30  1  0  0  0  0
 29 28  1  0  0  0  0
 30 31  1  0  0  0  0
 30 21  2  0  0  0  0
 32 33  2  0  0  0  0
 32 41  1  0  0  0  0
 33 35  1  0  0  0  0
 34 33  1  0  0  0  0
 35 36  1  0  0  0  0
 35 37  2  0  0  0  0
 37 38  1  0  0  0  0
 39 37  1  0  0  0  0
 39 40  1  0  0  0  0
 41 39  2  0  0  0  0
 42 41  1  0  0  0  0
 43 44  1  0  0  0  0
 44 46  2  0  0  0  0
 44 45  1  0  0  0  0
 46 47  1  0  0  0  0
 48 49  1  0  0  0  0
 48 46  1  0  0  0  0
 50 48  2  0  0  0  0
 51 50  1  0  0  0  0
 52 50  1  0  0  0  0
 52 43  2  0  0  0  0
 53 52  1  0  0  0  0
M  END
