1
 OpenBabel05122313063D

 58 62  0  0  0  0  0  0  0  0999 V2000
   -0.9870   -0.7664    0.4055 P   0  0  0  0  0  0  0  0  0  0  0  0
    1.7456    0.0311    0.3565 P   0  0  0  0  0  4  0  0  0  0  0  0
    1.3652   -0.3037   -4.2345 C   0  0  0  0  0  0  0  0  0  0  0  0
    1.2101   -0.4287   -5.3170 H   0  0  0  0  0  0  0  0  0  0  0  0
    1.0964    1.0173   -2.2094 C   0  0  0  0  0  0  0  0  0  0  0  0
    0.7114    1.9186   -1.7091 H   0  0  0  0  0  0  0  0  0  0  0  0
    5.7466   -0.7821    0.9135 C   0  0  0  0  0  0  0  0  0  0  0  0
    6.7130   -0.3698    0.5866 H   0  0  0  0  0  0  0  0  0  0  0  0
    0.5659   -0.8433    1.0367 N   0  0  0  0  0  2  0  0  0  0  0  0
   -1.9925   -1.5777    1.7023 C   0  0  0  0  0  0  0  0  0  0  0  0
    3.2763   -1.8405    1.7440 C   0  0  0  0  0  0  0  0  0  0  0  0
    2.2944   -2.2352    2.0456 H   0  0  0  0  0  0  0  0  0  0  0  0
    2.1956   -1.1631   -2.1186 C   0  0  0  0  0  0  0  0  0  0  0  0
    2.6811   -1.9616   -1.5369 H   0  0  0  0  0  0  0  0  0  0  0  0
    1.7446    0.0060   -1.4696 C   0  0  0  0  0  0  0  0  0  0  0  0
   -4.1650   -2.3563    2.4703 C   0  0  0  0  0  0  0  0  0  0  0  0
   -5.2456   -2.4817    2.3037 H   0  0  0  0  0  0  0  0  0  0  0  0
    3.3164   -0.7139    0.9022 C   0  0  0  0  0  0  0  0  0  0  0  0
   -3.3765   -1.7383    1.4911 C   0  0  0  0  0  0  0  0  0  0  0  0
   -3.8338   -1.3706    0.5583 H   0  0  0  0  0  0  0  0  0  0  0  0
    4.5536   -0.1843    0.4850 C   0  0  0  0  0  0  0  0  0  0  0  0
    4.5889    0.6927   -0.1787 H   0  0  0  0  0  0  0  0  0  0  0  0
   -1.4058   -2.0227    2.9003 C   0  0  0  0  0  0  0  0  0  0  0  0
   -0.3255   -1.8733    3.0476 H   0  0  0  0  0  0  0  0  0  0  0  0
    2.0057   -1.3144   -3.4979 C   0  0  0  0  0  0  0  0  0  0  0  0
    2.3481   -2.2321   -3.9987 H   0  0  0  0  0  0  0  0  0  0  0  0
   -3.5788   -2.8067    3.6663 C   0  0  0  0  0  0  0  0  0  0  0  0
   -4.2013   -3.2868    4.4368 H   0  0  0  0  0  0  0  0  0  0  0  0
    4.4746   -2.4325    2.1713 C   0  0  0  0  0  0  0  0  0  0  0  0
    4.4442   -3.3131    2.8308 H   0  0  0  0  0  0  0  0  0  0  0  0
   -2.2022   -2.6369    3.8804 C   0  0  0  0  0  0  0  0  0  0  0  0
   -1.7437   -2.9832    4.8195 H   0  0  0  0  0  0  0  0  0  0  0  0
   -1.5449   -1.6155   -2.2417 C   0  0  0  0  0  0  0  0  0  0  0  0
   -1.9792   -0.6111   -2.3745 H   0  0  0  0  0  0  0  0  0  0  0  0
   -1.0159   -1.9733   -0.9895 C   0  0  0  0  0  0  0  0  0  0  0  0
    0.9139    0.8589   -3.5916 C   0  0  0  0  0  0  0  0  0  0  0  0
    0.4008    1.6479   -4.1613 H   0  0  0  0  0  0  0  0  0  0  0  0
    5.7079   -1.9050    1.7576 C   0  0  0  0  0  0  0  0  0  0  0  0
    6.6467   -2.3716    2.0929 H   0  0  0  0  0  0  0  0  0  0  0  0
   -0.4330   -3.2446   -0.8103 C   0  0  0  0  0  0  0  0  0  0  0  0
   -0.0058   -3.5115    0.1689 H   0  0  0  0  0  0  0  0  0  0  0  0
   -0.9164   -3.7906   -3.1303 C   0  0  0  0  0  0  0  0  0  0  0  0
   -0.8754   -4.5022   -3.9693 H   0  0  0  0  0  0  0  0  0  0  0  0
   -1.4939   -2.5250   -3.3108 C   0  0  0  0  0  0  0  0  0  0  0  0
   -1.9015   -2.2373   -4.2919 H   0  0  0  0  0  0  0  0  0  0  0  0
   -0.3869   -4.1504   -1.8778 C   0  0  0  0  0  0  0  0  0  0  0  0
    0.0656   -5.1440   -1.7356 H   0  0  0  0  0  0  0  0  0  0  0  0
    1.7310    1.7853    0.8647 C   0  0  0  0  0  0  0  0  0  0  0  0
    0.9055    2.1366    1.9503 C   0  0  0  0  0  0  0  0  0  0  0  0
    0.3047    1.3559    2.4408 H   0  0  0  0  0  0  0  0  0  0  0  0
    2.4961    2.7721    0.2104 C   0  0  0  0  0  0  0  0  0  0  0  0
    3.1221    2.5103   -0.6563 H   0  0  0  0  0  0  0  0  0  0  0  0
    2.4312    4.1036    0.6441 C   0  0  0  0  0  0  0  0  0  0  0  0
    3.0194    4.8761    0.1265 H   0  0  0  0  0  0  0  0  0  0  0  0
    1.6035    4.4530    1.7237 C   0  0  0  0  0  0  0  0  0  0  0  0
    1.5432    5.5019    2.0509 H   0  0  0  0  0  0  0  0  0  0  0  0
    0.8427    3.4708    2.3758 C   0  0  0  0  0  0  0  0  0  0  0  0
    0.1825    3.7460    3.2114 H   0  0  0  0  0  0  0  0  0  0  0  0
  1  9  1  0  0  0  0
  1 10  1  0  0  0  0
  2 48  1  0  0  0  0
  2 18  1  0  0  0  0
  2  9  1  0  0  0  0
  3 36  2  0  0  0  0
  3 25  1  0  0  0  0
  4  3  1  0  0  0  0
  5  6  1  0  0  0  0
  5 15  2  0  0  0  0
  7 38  1  0  0  0  0
  8  7  1  0  0  0  0
 10 23  1  0  0  0  0
 11 12  1  0  0  0  0
 11 29  1  0  0  0  0
 13 14  1  0  0  0  0
 13 15  1  0  0  0  0
 15  2  1  0  0  0  0
 16 27  2  0  0  0  0
 17 16  1  0  0  0  0
 18 11  2  0  0  0  0
 19 10  2  0  0  0  0
 19 16  1  0  0  0  0
 20 19  1  0  0  0  0
 21 18  1  0  0  0  0
 21  7  2  0  0  0  0
 22 21  1  0  0  0  0
 23 24  1  0  0  0  0
 23 31  2  0  0  0  0
 25 13  2  0  0  0  0
 26 25  1  0  0  0  0
 27 31  1  0  0  0  0
 27 28  1  0  0  0  0
 29 30  1  0  0  0  0
 31 32  1  0  0  0  0
 33 35  1  0  0  0  0
 34 33  1  0  0  0  0
 35 40  2  0  0  0  0
 35  1  1  0  0  0  0
 36  5  1  0  0  0  0
 37 36  1  0  0  0  0
 38 39  1  0  0  0  0
 38 29  2  0  0  0  0
 40 41  1  0  0  0  0
 42 46  2  0  0  0  0
 43 42  1  0  0  0  0
 44 42  1  0  0  0  0
 44 33  2  0  0  0  0
 45 44  1  0  0  0  0
 46 47  1  0  0  0  0
 46 40  1  0  0  0  0
 48 49  1  0  0  0  0
 49 57  2  0  0  0  0
 49 50  1  0  0  0  0
 51 53  1  0  0  0  0
 51 48  2  0  0  0  0
 52 51  1  0  0  0  0
 53 55  2  0  0  0  0
 54 53  1  0  0  0  0
 55 56  1  0  0  0  0
 55 57  1  0  0  0  0
 57 58  1  0  0  0  0
M  END
