1
 OpenBabel05122313063D

 43 45  0  0  0  0  0  0  0  0999 V2000
   -1.2980   -0.3355    0.0680 P   0  0  0  0  0  0  0  0  0  0  0  0
   -3.9628    0.5647   -0.4623 C   0  0  0  0  0  0  0  0  0  0  0  0
   -1.1476   -1.4004    2.6155 C   0  0  0  0  0  0  0  0  0  0  0  0
   -1.5847   -2.0543   -0.6043 C   0  0  0  0  0  0  0  0  0  0  0  0
   -0.8968   -2.7220   -0.0496 H   0  0  0  0  0  0  0  0  0  0  0  0
   -2.6165   -2.3438   -0.3181 H   0  0  0  0  0  0  0  0  0  0  0  0
   -2.5381    0.6577   -0.9368 C   0  0  0  0  0  0  0  0  0  0  0  0
   -2.1721    1.7000   -0.9362 H   0  0  0  0  0  0  0  0  0  0  0  0
   -2.4180    0.2689   -1.9691 H   0  0  0  0  0  0  0  0  0  0  0  0
    0.0591   -0.9436    3.1855 C   0  0  0  0  0  0  0  0  0  0  0  0
    0.3479    0.1116    3.0590 H   0  0  0  0  0  0  0  0  0  0  0  0
   -0.0242   -1.9384   -4.1065 C   0  0  0  0  0  0  0  0  0  0  0  0
    0.9282   -1.6412   -4.5715 H   0  0  0  0  0  0  0  0  0  0  0  0
   -2.0045   -0.4736    1.7899 C   0  0  0  0  0  0  0  0  0  0  0  0
   -2.0135    0.5542    2.2061 H   0  0  0  0  0  0  0  0  0  0  0  0
   -3.0543   -0.8220    1.7173 H   0  0  0  0  0  0  0  0  0  0  0  0
   -4.8035   -0.4909   -0.8755 C   0  0  0  0  0  0  0  0  0  0  0  0
   -4.4273   -1.2193   -1.6091 H   0  0  0  0  0  0  0  0  0  0  0  0
   -6.1125   -0.6054   -0.3839 C   0  0  0  0  0  0  0  0  0  0  0  0
   -6.7521   -1.4347   -0.7229 H   0  0  0  0  0  0  0  0  0  0  0  0
   -0.1791   -1.8155   -2.7184 C   0  0  0  0  0  0  0  0  0  0  0  0
    0.6445   -1.4223   -2.1022 H   0  0  0  0  0  0  0  0  0  0  0  0
   -6.6095    0.3390    0.5279 C   0  0  0  0  0  0  0  0  0  0  0  0
   -7.6359    0.2503    0.9145 H   0  0  0  0  0  0  0  0  0  0  0  0
   -4.4827    1.5185    0.4400 C   0  0  0  0  0  0  0  0  0  0  0  0
   -3.8583    2.3714    0.7504 H   0  0  0  0  0  0  0  0  0  0  0  0
   -1.3909   -2.1862   -2.0956 C   0  0  0  0  0  0  0  0  0  0  0  0
    0.9041   -1.8260    3.8721 C   0  0  0  0  0  0  0  0  0  0  0  0
    1.8478   -1.4535    4.2980 H   0  0  0  0  0  0  0  0  0  0  0  0
   -2.4312   -2.6932   -2.9024 C   0  0  0  0  0  0  0  0  0  0  0  0
   -3.3748   -3.0115   -2.4304 H   0  0  0  0  0  0  0  0  0  0  0  0
   -5.7915    1.4067    0.9309 C   0  0  0  0  0  0  0  0  0  0  0  0
   -6.1767    2.1642    1.6304 H   0  0  0  0  0  0  0  0  0  0  0  0
   -1.4899   -2.7610    2.7598 C   0  0  0  0  0  0  0  0  0  0  0  0
   -2.4330   -3.1305    2.3265 H   0  0  0  0  0  0  0  0  0  0  0  0
   -1.0698   -2.4378   -4.8997 C   0  0  0  0  0  0  0  0  0  0  0  0
   -0.9445   -2.5325   -5.9891 H   0  0  0  0  0  0  0  0  0  0  0  0
    0.5601   -3.1813    3.9990 C   0  0  0  0  0  0  0  0  0  0  0  0
    1.2311   -3.8765    4.5254 H   0  0  0  0  0  0  0  0  0  0  0  0
   -2.2749   -2.8199   -4.2915 C   0  0  0  0  0  0  0  0  0  0  0  0
   -3.1002   -3.2207   -4.8995 H   0  0  0  0  0  0  0  0  0  0  0  0
   -0.6428   -3.6458    3.4452 C   0  0  0  0  0  0  0  0  0  0  0  0
   -0.9231   -4.7056    3.5427 H   0  0  0  0  0  0  0  0  0  0  0  0
  1 14  1  0  0  0  0
  2 25  1  0  0  0  0
  3 34  2  0  0  0  0
  3 10  1  0  0  0  0
  4  6  1  0  0  0  0
  4  5  1  0  0  0  0
  4  1  1  0  0  0  0
  7  8  1  0  0  0  0
  7  2  1  0  0  0  0
  7  1  1  0  0  0  0
  9  7  1  0  0  0  0
 10 28  2  0  0  0  0
 11 10  1  0  0  0  0
 12 21  1  0  0  0  0
 13 12  1  0  0  0  0
 14 15  1  0  0  0  0
 14  3  1  0  0  0  0
 16 14  1  0  0  0  0
 17  2  2  0  0  0  0
 17 19  1  0  0  0  0
 18 17  1  0  0  0  0
 19 23  2  0  0  0  0
 20 19  1  0  0  0  0
 21 22  1  0  0  0  0
 21 27  2  0  0  0  0
 23 24  1  0  0  0  0
 23 32  1  0  0  0  0
 25 26  1  0  0  0  0
 25 32  2  0  0  0  0
 27  4  1  0  0  0  0
 28 38  1  0  0  0  0
 28 29  1  0  0  0  0
 30 31  1  0  0  0  0
 30 27  1  0  0  0  0
 32 33  1  0  0  0  0
 34 42  1  0  0  0  0
 35 34  1  0  0  0  0
 36 40  1  0  0  0  0
 36 12  2  0  0  0  0
 37 36  1  0  0  0  0
 38 39  1  0  0  0  0
 40 30  2  0  0  0  0
 41 40  1  0  0  0  0
 42 43  1  0  0  0  0
 42 38  2  0  0  0  0
M  END
