1
 OpenBabel05122313063D

 38 40  0  0  0  0  0  0  0  0999 V2000
    1.3981   -1.3811   -0.0622 P   0  0  0  0  0  0  0  0  0  0  0  0
    4.1342   -1.7475   -0.6823 N   0  0  0  0  0  2  0  0  0  0  0  0
    2.8254   -2.0279   -1.1577 C   0  0  0  0  0  0  0  0  0  0  0  0
    7.4421    2.2195   -2.6481 C   0  0  0  0  0  1  0  0  0  0  0  0
    1.5465   -2.4047    1.4598 C   0  0  0  0  0  0  0  0  0  0  0  0
    2.7187   -3.1253    1.7696 C   0  0  0  0  0  0  0  0  0  0  0  0
    2.7923   -3.8553    2.9672 C   0  0  0  0  0  0  0  0  0  0  0  0
    1.7079   -3.8782    3.8573 C   0  0  0  0  0  0  0  0  0  0  0  0
    0.5444   -3.1519    3.5555 C   0  0  0  0  0  0  0  0  0  0  0  0
    0.4666   -2.4109    2.3691 C   0  0  0  0  0  0  0  0  0  0  0  0
    0.0933   -2.2663   -1.0514 C   0  0  0  0  0  0  0  0  0  0  0  0
   -0.5786   -3.4195   -0.6008 C   0  0  0  0  0  0  0  0  0  0  0  0
   -1.4680   -4.1011   -1.4484 C   0  0  0  0  0  0  0  0  0  0  0  0
   -1.6769   -3.6578   -2.7633 C   0  0  0  0  0  0  0  0  0  0  0  0
   -1.0100   -2.5088   -3.2222 C   0  0  0  0  0  0  0  0  0  0  0  0
   -0.1441   -1.8089   -2.3674 C   0  0  0  0  0  0  0  0  0  0  0  0
    4.8755   -0.8092   -1.2173 C   0  0  0  0  0  0  0  0  0  0  0  0
    6.2145   -0.6206   -0.6604 C   0  0  0  0  0  0  0  0  0  0  0  0
    7.0697    0.3397   -1.0976 C   0  0  0  0  0  0  0  0  0  0  0  0
    6.6567    1.2460   -2.1774 C   0  0  0  0  0  0  0  0  0  0  0  0
    5.3208    1.0698   -2.7666 C   0  0  0  0  0  0  0  0  0  0  0  0
    4.4957    0.0885   -2.3101 C   0  0  0  0  0  0  0  0  0  0  0  0
    2.5716   -1.6509   -2.1755 H   0  0  0  0  0  0  0  0  0  0  0  0
    2.6608   -3.1276   -1.1603 H   0  0  0  0  0  0  0  0  0  0  0  0
    3.5867   -3.0746    1.0941 H   0  0  0  0  0  0  0  0  0  0  0  0
    3.7138   -4.4077    3.2069 H   0  0  0  0  0  0  0  0  0  0  0  0
    1.7734   -4.4527    4.7938 H   0  0  0  0  0  0  0  0  0  0  0  0
   -0.3093   -3.1475    4.2499 H   0  0  0  0  0  0  0  0  0  0  0  0
   -0.4402   -1.8295    2.1526 H   0  0  0  0  0  0  0  0  0  0  0  0
   -0.4012   -3.7938    0.4175 H   0  0  0  0  0  0  0  0  0  0  0  0
   -1.9876   -4.9986   -1.0795 H   0  0  0  0  0  0  0  0  0  0  0  0
   -2.3564   -4.2071   -3.4328 H   0  0  0  0  0  0  0  0  0  0  0  0
   -1.1680   -2.1495   -4.2506 H   0  0  0  0  0  0  0  0  0  0  0  0
    0.3618   -0.9024   -2.7349 H   0  0  0  0  0  0  0  0  0  0  0  0
    6.4979   -1.2967    0.1595 H   0  0  0  0  0  0  0  0  0  0  0  0
    8.0662    0.4696   -0.6550 H   0  0  0  0  0  0  0  0  0  0  0  0
    5.0028    1.7490   -3.5696 H   0  0  0  0  0  0  0  0  0  0  0  0
    3.5007    0.0005   -2.7651 H   0  0  0  0  0  0  0  0  0  0  0  0
  1  5  1  0  0  0  0
  3  2  1  0  0  0  0
  3  1  1  0  0  0  0
  4 20  1  0  0  0  0
  5  6  2  0  0  0  0
  5 10  1  0  0  0  0
  6  7  1  0  0  0  0
  7 26  1  0  0  0  0
  7  8  2  0  0  0  0
  8 27  1  0  0  0  0
  9  8  1  0  0  0  0
  9 28  1  0  0  0  0
 10  9  2  0  0  0  0
 11 12  1  0  0  0  0
 11  1  1  0  0  0  0
 12 30  1  0  0  0  0
 13 31  1  0  0  0  0
 13 12  2  0  0  0  0
 14 13  1  0  0  0  0
 15 14  2  0  0  0  0
 15 16  1  0  0  0  0
 16 11  2  0  0  0  0
 17  2  1  0  0  0  0
 17 18  1  0  0  0  0
 18 35  1  0  0  0  0
 19 18  2  0  0  0  0
 19 36  1  0  0  0  0
 20 19  1  0  0  0  0
 21 22  1  0  0  0  0
 21 20  2  0  0  0  0
 22 17  2  0  0  0  0
 23  3  1  0  0  0  0
 24  3  1  0  0  0  0
 25  6  1  0  0  0  0
 29 10  1  0  0  0  0
 32 14  1  0  0  0  0
 33 15  1  0  0  0  0
 34 16  1  0  0  0  0
 37 21  1  0  0  0  0
 38 22  1  0  0  0  0
M  END
