1
 OpenBabel05122313063D

 39 42  0  0  1  0  0  0  0  0999 V2000
   -0.0519   -1.0240    0.3277 P   0  0  1  0  0  0  0  0  0  0  0  0
    1.8899   -0.4803    2.0381 N   0  0  0  0  0  0  0  0  0  0  0  0
    2.4655   -0.0087    2.7377 H   0  0  0  0  0  0  0  0  0  0  0  0
    1.0064    0.3077    1.1681 C   0  0  1  0  0  0  0  0  0  0  0  0
    0.2849    0.8804    1.7914 H   0  0  0  0  0  0  0  0  0  0  0  0
    0.9836   -1.3747   -1.1927 C   0  0  0  0  0  0  0  0  0  0  0  0
    0.7891   -0.4933   -1.8427 H   0  0  0  0  0  0  0  0  0  0  0  0
    0.5293   -2.2596   -1.6817 H   0  0  0  0  0  0  0  0  0  0  0  0
    2.4400   -1.5569   -0.9135 C   0  0  0  0  0  0  0  0  0  0  0  0
    2.8321   -2.5861   -0.9263 H   0  0  0  0  0  0  0  0  0  0  0  0
    3.2965   -0.5277   -0.6309 C   0  0  0  0  0  0  0  0  0  0  0  0
    2.7921    0.8516   -0.5182 C   0  0  0  0  0  0  0  0  0  0  0  0
    3.3638    1.6314   -1.0514 H   0  0  0  0  0  0  0  0  0  0  0  0
    1.7036    1.2492    0.2115 C   0  0  0  0  0  0  0  0  0  0  0  0
    1.1605    2.6240    0.0971 C   0  0  0  0  0  0  0  0  0  0  0  0
    1.1684    3.2871   -1.1538 C   0  0  0  0  0  0  0  0  0  0  0  0
    1.5453    2.7542   -2.0391 H   0  0  0  0  0  0  0  0  0  0  0  0
    0.6553    4.5825   -1.2874 C   0  0  0  0  0  0  0  0  0  0  0  0
    0.6576    5.0691   -2.2744 H   0  0  0  0  0  0  0  0  0  0  0  0
    0.0919    4.6035    1.0717 C   0  0  0  0  0  0  0  0  0  0  0  0
   -0.3311    5.1132    1.9503 H   0  0  0  0  0  0  0  0  0  0  0  0
    0.6072    3.3078    1.2060 C   0  0  0  0  0  0  0  0  0  0  0  0
    0.5926    2.8319    2.1979 H   0  0  0  0  0  0  0  0  0  0  0  0
    4.7530   -0.7424   -0.4516 C   0  0  0  0  0  0  0  0  0  0  0  0
    5.4410   -1.8029   -1.0859 C   0  0  0  0  0  0  0  0  0  0  0  0
    4.8954   -2.4672   -1.7728 H   0  0  0  0  0  0  0  0  0  0  0  0
    6.8116   -1.9971   -0.8765 C   0  0  0  0  0  0  0  0  0  0  0  0
    7.3283   -2.8256   -1.3845 H   0  0  0  0  0  0  0  0  0  0  0  0
    7.5308   -1.1297   -0.0367 C   0  0  0  0  0  0  0  0  0  0  0  0
    8.6093   -1.2804    0.1220 H   0  0  0  0  0  0  0  0  0  0  0  0
    6.8658   -0.0646    0.5899 C   0  0  0  0  0  0  0  0  0  0  0  0
    7.4201    0.6212    1.2488 H   0  0  0  0  0  0  0  0  0  0  0  0
    5.4928    0.1274    0.3826 C   0  0  0  0  0  0  0  0  0  0  0  0
    4.9705    0.9546    0.8878 H   0  0  0  0  0  0  0  0  0  0  0  0
    0.5662   -2.2042    1.5989 C   0  0  0  0  0  3  0  0  0  0  0  0
    0.2164   -3.2359    1.7448 H   0  0  0  0  0  0  0  0  0  0  0  0
    1.5244   -1.7272    2.3383 N   0  0  0  0  0  2  0  0  0  0  0  0
    0.1135    5.2471   -0.1754 C   0  0  0  0  0  0  0  0  0  0  0  0
   -0.3017    6.2604   -0.2830 H   0  0  0  0  0  0  0  0  0  0  0  0
  1  4  1  0  0  0  0
  1 35  1  1  0  0  0
  2 37  1  0  0  0  0
  2  3  1  0  0  0  0
  4  5  1  1  0  0  0
  4  2  1  0  0  0  0
  6  9  1  0  0  0  0
  6  1  1  0  0  0  0
  7  6  1  0  0  0  0
  8  6  1  0  0  0  0
  9 11  2  0  0  0  0
 10  9  1  0  0  0  0
 11 12  1  0  0  0  0
 11 24  1  0  0  0  0
 12 14  2  0  0  0  0
 13 12  1  0  0  0  0
 14  4  1  0  0  0  0
 15 14  1  0  0  0  0
 15 22  1  0  0  0  0
 16 15  2  0  0  0  0
 17 16  1  0  0  0  0
 18 16  1  0  0  0  0
 18 38  2  0  0  0  0
 19 18  1  0  0  0  0
 20 22  2  0  0  0  0
 20 21  1  0  0  0  0
 22 23  1  0  0  0  0
 24 33  1  0  0  0  0
 25 27  1  0  0  0  0
 25 24  2  0  0  0  0
 26 25  1  0  0  0  0
 27 29  2  0  0  0  0
 28 27  1  0  0  0  0
 29 30  1  0  0  0  0
 29 31  1  0  0  0  0
 31 32  1  0  0  0  0
 33 31  2  0  0  0  0
 33 34  1  0  0  0  0
 35 36  1  0  0  0  0
 35 37  1  0  0  0  0
 38 20  1  0  0  0  0
 39 38  1  0  0  0  0
M  END
