1
 OpenBabel05122313063D

 67 69  0  0  0  0  0  0  0  0999 V2000
    0.0254   -0.1635   -0.0196 P   0  0  0  0  0  2  0  0  0  0  0  0
    1.2609    0.1185   -1.1579 N   0  0  0  0  0  0  0  0  0  0  0  0
   -1.1656    0.1498   -1.1879 N   0  0  0  0  0  0  0  0  0  0  0  0
    0.7975    0.6467   -2.4466 C   0  0  0  0  0  0  0  0  0  0  0  0
    1.4178    0.2409   -3.2717 H   0  0  0  0  0  0  0  0  0  0  0  0
    0.8919    1.7577   -2.4652 H   0  0  0  0  0  0  0  0  0  0  0  0
   -0.6673    0.2083   -2.5657 C   0  0  0  0  0  0  0  0  0  0  0  0
   -1.2668    0.9265   -3.1602 H   0  0  0  0  0  0  0  0  0  0  0  0
   -0.7505   -0.7913   -3.0524 H   0  0  0  0  0  0  0  0  0  0  0  0
    2.6367    0.2531   -0.7736 C   0  0  0  0  0  0  0  0  0  0  0  0
   -2.5546    0.2713   -0.8576 C   0  0  0  0  0  0  0  0  0  0  0  0
    3.0907    1.4678   -0.1932 C   0  0  0  0  0  0  0  0  0  0  0  0
    3.5121   -0.8426   -0.9950 C   0  0  0  0  0  0  0  0  0  0  0  0
   -3.3611   -0.8886   -0.7285 C   0  0  0  0  0  0  0  0  0  0  0  0
   -3.0753    1.5746   -0.6327 C   0  0  0  0  0  0  0  0  0  0  0  0
    4.8640   -0.6937   -0.6372 C   0  0  0  0  0  0  0  0  0  0  0  0
    5.5604   -1.5311   -0.7925 H   0  0  0  0  0  0  0  0  0  0  0  0
    5.3331    0.5008   -0.0760 C   0  0  0  0  0  0  0  0  0  0  0  0
    6.3942    0.5985    0.1996 H   0  0  0  0  0  0  0  0  0  0  0  0
    4.4534    1.5661    0.1463 C   0  0  0  0  0  0  0  0  0  0  0  0
    4.8296    2.4957    0.5998 H   0  0  0  0  0  0  0  0  0  0  0  0
   -4.7151   -0.7146   -0.3853 C   0  0  0  0  0  0  0  0  0  0  0  0
   -5.3607   -1.5981   -0.2740 H   0  0  0  0  0  0  0  0  0  0  0  0
   -5.2479    0.5609   -0.1700 C   0  0  0  0  0  0  0  0  0  0  0  0
   -6.3076    0.6738    0.1051 H   0  0  0  0  0  0  0  0  0  0  0  0
   -4.4335    1.6938   -0.2896 C   0  0  0  0  0  0  0  0  0  0  0  0
   -4.8597    2.6901   -0.1011 H   0  0  0  0  0  0  0  0  0  0  0  0
    2.1606    2.6491    0.0558 C   0  0  0  0  0  0  0  0  0  0  0  0
    1.1228    2.3063   -0.1352 H   0  0  0  0  0  0  0  0  0  0  0  0
    2.9830   -2.1683   -1.5237 C   0  0  0  0  0  0  0  0  0  0  0  0
    2.0123   -1.9540   -2.0176 H   0  0  0  0  0  0  0  0  0  0  0  0
   -2.7980   -2.2839   -0.9604 C   0  0  0  0  0  0  0  0  0  0  0  0
   -1.6942   -2.2101   -0.8742 H   0  0  0  0  0  0  0  0  0  0  0  0
   -2.1783    2.8061   -0.6907 C   0  0  0  0  0  0  0  0  0  0  0  0
   -1.2881    2.5374   -1.2965 H   0  0  0  0  0  0  0  0  0  0  0  0
    2.2056    3.1285    1.5151 C   0  0  0  0  0  0  0  0  0  0  0  0
    1.4477    3.9202    1.6827 H   0  0  0  0  0  0  0  0  0  0  0  0
    2.0002    2.3004    2.2189 H   0  0  0  0  0  0  0  0  0  0  0  0
    3.1956    3.5574    1.7737 H   0  0  0  0  0  0  0  0  0  0  0  0
    2.4544    3.8043   -0.9186 C   0  0  0  0  0  0  0  0  0  0  0  0
    1.7275    4.6307   -0.7773 H   0  0  0  0  0  0  0  0  0  0  0  0
    3.4710    4.2169   -0.7517 H   0  0  0  0  0  0  0  0  0  0  0  0
    2.4014    3.4753   -1.9763 H   0  0  0  0  0  0  0  0  0  0  0  0
    3.9042   -2.8248   -2.5603 C   0  0  0  0  0  0  0  0  0  0  0  0
    3.4260   -3.7337   -2.9782 H   0  0  0  0  0  0  0  0  0  0  0  0
    4.1327   -2.1381   -3.4004 H   0  0  0  0  0  0  0  0  0  0  0  0
    4.8683   -3.1445   -2.1138 H   0  0  0  0  0  0  0  0  0  0  0  0
    2.6908   -3.1119   -0.3415 C   0  0  0  0  0  0  0  0  0  0  0  0
    2.2065   -4.0483   -0.6866 H   0  0  0  0  0  0  0  0  0  0  0  0
    3.6305   -3.3827    0.1834 H   0  0  0  0  0  0  0  0  0  0  0  0
    2.0234   -2.6253    0.3963 H   0  0  0  0  0  0  0  0  0  0  0  0
   -3.1266   -2.7760   -2.3825 C   0  0  0  0  0  0  0  0  0  0  0  0
   -2.6740   -3.7714   -2.5697 H   0  0  0  0  0  0  0  0  0  0  0  0
   -4.2238   -2.8692   -2.5220 H   0  0  0  0  0  0  0  0  0  0  0  0
   -2.7538   -2.0762   -3.1575 H   0  0  0  0  0  0  0  0  0  0  0  0
   -3.2678   -3.2927    0.0979 C   0  0  0  0  0  0  0  0  0  0  0  0
   -2.7033   -4.2415    0.0040 H   0  0  0  0  0  0  0  0  0  0  0  0
   -3.1063   -2.9045    1.1219 H   0  0  0  0  0  0  0  0  0  0  0  0
   -4.3451   -3.5344   -0.0131 H   0  0  0  0  0  0  0  0  0  0  0  0
   -2.8473    4.0099   -1.3689 C   0  0  0  0  0  0  0  0  0  0  0  0
   -2.1174    4.8357   -1.4916 H   0  0  0  0  0  0  0  0  0  0  0  0
   -3.2443    3.7480   -2.3704 H   0  0  0  0  0  0  0  0  0  0  0  0
   -3.6885    4.4098   -0.7664 H   0  0  0  0  0  0  0  0  0  0  0  0
   -1.6697    3.1682    0.7180 C   0  0  0  0  0  0  0  0  0  0  0  0
   -1.0103    4.0601    0.6785 H   0  0  0  0  0  0  0  0  0  0  0  0
   -2.5174    3.3946    1.3965 H   0  0  0  0  0  0  0  0  0  0  0  0
   -1.0957    2.3350    1.1701 H   0  0  0  0  0  0  0  0  0  0  0  0
  2 10  1  0  0  0  0
  2  1  1  0  0  0  0
  3 11  1  0  0  0  0
  3  1  1  0  0  0  0
  4  2  1  0  0  0  0
  5  4  1  0  0  0  0
  6  4  1  0  0  0  0
  7  4  1  0  0  0  0
  7  3  1  0  0  0  0
  8  7  1  0  0  0  0
  9  7  1  0  0  0  0
 10 12  1  0  0  0  0
 11 14  2  0  0  0  0
 11 15  1  0  0  0  0
 12 28  1  0  0  0  0
 12 20  2  0  0  0  0
 13 10  2  0  0  0  0
 13 16  1  0  0  0  0
 14 22  1  0  0  0  0
 15 26  2  0  0  0  0
 16 18  2  0  0  0  0
 17 16  1  0  0  0  0
 18 20  1  0  0  0  0
 18 19  1  0  0  0  0
 20 21  1  0  0  0  0
 22 23  1  0  0  0  0
 22 24  2  0  0  0  0
 24 25  1  0  0  0  0
 26 24  1  0  0  0  0
 26 27  1  0  0  0  0
 28 36  1  0  0  0  0
 29 28  1  0  0  0  0
 30 13  1  0  0  0  0
 30 48  1  0  0  0  0
 31 30  1  0  0  0  0
 32 33  1  0  0  0  0
 32 14  1  0  0  0  0
 32 56  1  0  0  0  0
 34 15  1  0  0  0  0
 34 64  1  0  0  0  0
 35 34  1  0  0  0  0
 36 37  1  0  0  0  0
 36 39  1  0  0  0  0
 36 38  1  0  0  0  0
 40 41  1  0  0  0  0
 40 42  1  0  0  0  0
 40 28  1  0  0  0  0
 43 40  1  0  0  0  0
 44 47  1  0  0  0  0
 44 30  1  0  0  0  0
 45 44  1  0  0  0  0
 46 44  1  0  0  0  0
 48 50  1  0  0  0  0
 48 51  1  0  0  0  0
 49 48  1  0  0  0  0
 52 32  1  0  0  0  0
 53 52  1  0  0  0  0
 54 52  1  0  0  0  0
 55 52  1  0  0  0  0
 56 58  1  0  0  0  0
 57 56  1  0  0  0  0
 59 56  1  0  0  0  0
 60 63  1  0  0  0  0
 60 34  1  0  0  0  0
 61 60  1  0  0  0  0
 62 60  1  0  0  0  0
 64 67  1  0  0  0  0
 64 66  1  0  0  0  0
 65 64  1  0  0  0  0
M  END
