1
 OpenBabel05122313063D

 66 68  0  0  0  0  0  0  0  0999 V2000
    0.0710   -0.8387   -0.2740 P   0  0  0  0  0  0  0  0  0  0  0  0
    0.1850   -2.0614   -1.0787 H   0  0  0  0  0  0  0  0  0  0  0  0
    1.2435    0.1252   -1.2197 N   0  0  0  0  0  0  0  0  0  0  0  0
   -1.2312   -0.0634   -1.2365 N   0  0  0  0  0  0  0  0  0  0  0  0
    0.6552    0.6792   -2.3665 C   0  0  0  0  0  0  0  0  0  0  0  0
    1.2864    1.1011   -3.1603 H   0  0  0  0  0  0  0  0  0  0  0  0
   -0.7039    0.5733   -2.3790 C   0  0  0  0  0  0  0  0  0  0  0  0
   -1.3792    0.8949   -3.1824 H   0  0  0  0  0  0  0  0  0  0  0  0
    2.5396    0.4636   -0.7444 C   0  0  0  0  0  0  0  0  0  0  0  0
    2.7308    1.6436    0.0238 C   0  0  0  0  0  0  0  0  0  0  0  0
    4.0300    1.9487    0.4698 C   0  0  0  0  0  0  0  0  0  0  0  0
    4.1941    2.8573    1.0695 H   0  0  0  0  0  0  0  0  0  0  0  0
    5.1088    1.1023    0.1872 C   0  0  0  0  0  0  0  0  0  0  0  0
    6.1165    1.3529    0.5549 H   0  0  0  0  0  0  0  0  0  0  0  0
    4.9016   -0.0783   -0.5370 C   0  0  0  0  0  0  0  0  0  0  0  0
    5.7487   -0.7554   -0.7273 H   0  0  0  0  0  0  0  0  0  0  0  0
    3.6212   -0.4191   -1.0085 C   0  0  0  0  0  0  0  0  0  0  0  0
   -2.5658    0.1247   -0.8000 C   0  0  0  0  0  0  0  0  0  0  0  0
   -3.0924    1.4341   -0.6110 C   0  0  0  0  0  0  0  0  0  0  0  0
   -4.4511    1.5727   -0.2666 C   0  0  0  0  0  0  0  0  0  0  0  0
   -4.8663    2.5834   -0.1244 H   0  0  0  0  0  0  0  0  0  0  0  0
   -5.2643    0.4561   -0.0513 C   0  0  0  0  0  0  0  0  0  0  0  0
   -6.3194    0.5845    0.2374 H   0  0  0  0  0  0  0  0  0  0  0  0
   -4.7207   -0.8300   -0.1796 C   0  0  0  0  0  0  0  0  0  0  0  0
   -5.3573   -1.7060    0.0108 H   0  0  0  0  0  0  0  0  0  0  0  0
   -3.3833   -1.0222   -0.5639 C   0  0  0  0  0  0  0  0  0  0  0  0
    1.5546    2.5430    0.3716 C   0  0  0  0  0  0  0  0  0  0  0  0
    0.6458    1.9221    0.2378 H   0  0  0  0  0  0  0  0  0  0  0  0
    1.4666    3.7357   -0.5964 C   0  0  0  0  0  0  0  0  0  0  0  0
    0.5965    4.3792   -0.3500 H   0  0  0  0  0  0  0  0  0  0  0  0
    2.3821    4.3631   -0.5394 H   0  0  0  0  0  0  0  0  0  0  0  0
    1.3494    3.3930   -1.6440 H   0  0  0  0  0  0  0  0  0  0  0  0
    1.5706    2.9959    1.8372 C   0  0  0  0  0  0  0  0  0  0  0  0
    0.6192    3.5047    2.0900 H   0  0  0  0  0  0  0  0  0  0  0  0
    1.6680    2.1205    2.5082 H   0  0  0  0  0  0  0  0  0  0  0  0
    2.4007    3.7037    2.0492 H   0  0  0  0  0  0  0  0  0  0  0  0
    3.3704   -1.7428   -1.7173 C   0  0  0  0  0  0  0  0  0  0  0  0
    2.4134   -1.6290   -2.2683 H   0  0  0  0  0  0  0  0  0  0  0  0
    4.4623   -2.1052   -2.7333 C   0  0  0  0  0  0  0  0  0  0  0  0
    4.1796   -3.0196   -3.2951 H   0  0  0  0  0  0  0  0  0  0  0  0
    4.6269   -1.2880   -3.4652 H   0  0  0  0  0  0  0  0  0  0  0  0
    5.4345   -2.3167   -2.2397 H   0  0  0  0  0  0  0  0  0  0  0  0
    3.1714   -2.8675   -0.6832 C   0  0  0  0  0  0  0  0  0  0  0  0
    2.9557   -3.8329   -1.1877 H   0  0  0  0  0  0  0  0  0  0  0  0
    4.0800   -2.9929   -0.0578 H   0  0  0  0  0  0  0  0  0  0  0  0
    2.3325   -2.6406    0.0043 H   0  0  0  0  0  0  0  0  0  0  0  0
   -2.2180    2.6804   -0.6959 C   0  0  0  0  0  0  0  0  0  0  0  0
   -1.1750    2.3389   -0.8391 H   0  0  0  0  0  0  0  0  0  0  0  0
   -2.2620    3.4815    0.6167 C   0  0  0  0  0  0  0  0  0  0  0  0
   -1.5451    4.3285    0.5750 H   0  0  0  0  0  0  0  0  0  0  0  0
   -3.2690    3.9124    0.8003 H   0  0  0  0  0  0  0  0  0  0  0  0
   -1.9971    2.8439    1.4835 H   0  0  0  0  0  0  0  0  0  0  0  0
   -2.5810    3.5640   -1.9005 C   0  0  0  0  0  0  0  0  0  0  0  0
   -1.9090    4.4462   -1.9567 H   0  0  0  0  0  0  0  0  0  0  0  0
   -2.4917    3.0069   -2.8548 H   0  0  0  0  0  0  0  0  0  0  0  0
   -3.6243    3.9386   -1.8256 H   0  0  0  0  0  0  0  0  0  0  0  0
   -2.8248   -2.4217   -0.7961 C   0  0  0  0  0  0  0  0  0  0  0  0
   -1.8004   -2.4390   -0.3685 H   0  0  0  0  0  0  0  0  0  0  0  0
   -3.5922   -3.5333   -0.0746 C   0  0  0  0  0  0  0  0  0  0  0  0
   -3.0536   -4.4954   -0.1887 H   0  0  0  0  0  0  0  0  0  0  0  0
   -3.6699   -3.3280    1.0108 H   0  0  0  0  0  0  0  0  0  0  0  0
   -4.6151   -3.6735   -0.4862 H   0  0  0  0  0  0  0  0  0  0  0  0
   -2.7042   -2.7121   -2.3029 C   0  0  0  0  0  0  0  0  0  0  0  0
   -2.0762   -1.9513   -2.8064 H   0  0  0  0  0  0  0  0  0  0  0  0
   -2.2406   -3.7062   -2.4742 H   0  0  0  0  0  0  0  0  0  0  0  0
   -3.7059   -2.7105   -2.7837 H   0  0  0  0  0  0  0  0  0  0  0  0
  2  1  1  0  0  0  0
  3  9  1  0  0  0  0
  3  1  1  0  0  0  0
  4 18  1  0  0  0  0
  4  1  1  0  0  0  0
  5  3  1  0  0  0  0
  6  5  1  0  0  0  0
  7  5  2  0  0  0  0
  7  4  1  0  0  0  0
  8  7  1  0  0  0  0
  9 10  1  0  0  0  0
 10 27  1  0  0  0  0
 10 11  2  0  0  0  0
 11 12  1  0  0  0  0
 13 11  1  0  0  0  0
 13 14  1  0  0  0  0
 15 13  2  0  0  0  0
 16 15  1  0  0  0  0
 17  9  2  0  0  0  0
 17 15  1  0  0  0  0
 18 19  2  0  0  0  0
 18 26  1  0  0  0  0
 19 20  1  0  0  0  0
 20 21  1  0  0  0  0
 20 22  2  0  0  0  0
 22 23  1  0  0  0  0
 24 22  1  0  0  0  0
 24 25  1  0  0  0  0
 26 24  2  0  0  0  0
 27 33  1  0  0  0  0
 28 27  1  0  0  0  0
 29 31  1  0  0  0  0
 29 30  1  0  0  0  0
 29 27  1  0  0  0  0
 32 29  1  0  0  0  0
 33 36  1  0  0  0  0
 33 34  1  0  0  0  0
 33 35  1  0  0  0  0
 37 17  1  0  0  0  0
 37 43  1  0  0  0  0
 38 37  1  0  0  0  0
 39 42  1  0  0  0  0
 39 37  1  0  0  0  0
 40 39  1  0  0  0  0
 41 39  1  0  0  0  0
 43 45  1  0  0  0  0
 43 46  1  0  0  0  0
 44 43  1  0  0  0  0
 47 19  1  0  0  0  0
 47 49  1  0  0  0  0
 48 47  1  0  0  0  0
 49 51  1  0  0  0  0
 49 52  1  0  0  0  0
 50 49  1  0  0  0  0
 53 56  1  0  0  0  0
 53 47  1  0  0  0  0
 54 53  1  0  0  0  0
 55 53  1  0  0  0  0
 57 26  1  0  0  0  0
 57 58  1  0  0  0  0
 57 59  1  0  0  0  0
 59 61  1  0  0  0  0
 60 59  1  0  0  0  0
 62 59  1  0  0  0  0
 63 57  1  0  0  0  0
 64 63  1  0  0  0  0
 65 63  1  0  0  0  0
 66 63  1  0  0  0  0
M  END
