1
 OpenBabel05122313063D

 19 18  0  0  0  0  0  0  0  0999 V2000
   -0.8479    0.1418   -0.0511 P   0  0  0  0  0  0  0  0  0  0  0  0
   -1.6092    0.6095    2.0887 Br  0  0  0  0  0  0  0  0  0  0  0  0
   -1.4451    2.1051   -1.0836 Br  0  0  0  0  0  0  0  0  0  0  0  0
   -1.9723   -1.2641   -0.8118 B   0  0  0  0  0  0  0  0  0  0  0  0
   -1.4866   -2.2935   -0.3599 H   0  0  0  0  0  0  0  0  0  0  0  0
   -1.7532   -1.1154   -2.0088 H   0  0  0  0  0  0  0  0  0  0  0  0
   -3.5708   -1.3209   -0.5637 N   0  3  0  0  0  0  0  0  0  0  0  0
   -3.8727   -1.8951    0.7833 C   0  0  0  0  0  0  0  0  0  0  0  0
   -3.4118   -1.2548    1.5567 H   0  0  0  0  0  0  0  0  0  0  0  0
   -3.4373   -2.9078    0.8438 H   0  0  0  0  0  0  0  0  0  0  0  0
   -4.9703   -1.9418    0.9293 H   0  0  0  0  0  0  0  0  0  0  0  0
   -4.1274   -2.2322   -1.6080 C   0  0  0  0  0  0  0  0  0  0  0  0
   -5.2103   -2.3882   -1.4287 H   0  0  0  0  0  0  0  0  0  0  0  0
   -3.5932   -3.1983   -1.5611 H   0  0  0  0  0  0  0  0  0  0  0  0
   -3.9678   -1.7809   -2.6028 H   0  0  0  0  0  0  0  0  0  0  0  0
   -4.2163    0.0187   -0.6865 C   0  0  0  0  0  0  0  0  0  0  0  0
   -5.3170   -0.0921   -0.6184 H   0  0  0  0  0  0  0  0  0  0  0  0
   -3.9347    0.4698   -1.6541 H   0  0  0  0  0  0  0  0  0  0  0  0
   -3.8525    0.6706    0.1278 H   0  0  0  0  0  0  0  0  0  0  0  0
  1  2  1  0  0  0  0
  3  1  1  0  0  0  0
  4  7  1  0  0  0  0
  4  5  1  0  0  0  0
  4  1  1  0  0  0  0
  6  4  1  0  0  0  0
  7  8  1  0  0  0  0
  8 10  1  0  0  0  0
  8 11  1  0  0  0  0
  8  9  1  0  0  0  0
 12 14  1  0  0  0  0
 12 13  1  0  0  0  0
 12  7  1  0  0  0  0
 15 12  1  0  0  0  0
 16 17  1  0  0  0  0
 16  7  1  0  0  0  0
 16 19  1  0  0  0  0
 18 16  1  0  0  0  0
M  CHG  1   7   1
M  END
