1
 OpenBabel05122313063D

 53 57  0  0  0  0  0  0  0  0999 V2000
    0.3050    0.0143   -0.4508 P   0  0  1  0  0  0  0  0  0  0  0  0
   -0.7649    1.0837    1.3076 P   0  0  0  0  0  4  0  0  0  0  0  0
   -1.2333   -0.9280   -0.8289 C   0  0  0  0  0  0  0  0  0  0  0  0
   -1.3156   -1.9885   -1.7372 C   0  0  0  0  0  0  0  0  0  0  0  0
   -2.5536   -2.6471   -2.0184 C   0  0  0  0  0  0  0  0  0  0  0  0
   -3.7169   -2.2302   -1.3786 C   0  0  0  0  0  0  0  0  0  0  0  0
   -3.6227   -1.1700   -0.4440 C   0  0  0  0  0  0  0  0  0  0  0  0
   -4.8586   -0.8421    0.1623 C   0  0  0  0  0  0  0  0  0  0  0  0
   -4.8800    0.1752    1.1139 C   0  0  0  0  0  0  0  0  0  0  0  0
   -3.6622    0.8341    1.4647 C   0  0  0  0  0  0  0  0  0  0  0  0
   -2.4418    0.5049    0.8624 C   0  0  0  0  0  0  0  0  0  0  0  0
   -2.4115   -0.5137   -0.1375 C   0  0  0  0  0  0  0  0  0  0  0  0
   -5.1646   -2.6833   -1.4299 C   0  0  0  0  0  0  0  0  0  0  0  0
   -5.9236   -1.7537   -0.4187 C   0  0  0  0  0  0  0  0  0  0  0  0
    0.1809    1.4383   -1.6312 C   0  0  0  0  0  0  0  0  0  0  0  0
    1.2073    2.4066   -1.5875 C   0  0  0  0  0  0  0  0  0  0  0  0
    1.1640    3.5068   -2.4550 C   0  0  0  0  0  0  0  0  0  0  0  0
    0.1101    3.6437   -3.3747 C   0  0  0  0  0  0  0  0  0  0  0  0
   -0.9040    2.6744   -3.4256 C   0  0  0  0  0  0  0  0  0  0  0  0
   -0.8741    1.5741   -2.5544 C   0  0  0  0  0  0  0  0  0  0  0  0
   -0.9232    2.9365    1.5333 C   0  0  0  0  0  0  0  0  0  0  0  0
    0.3680    3.6423    1.9469 C   0  0  0  0  0  0  0  0  0  0  0  0
   -1.6021    3.6125    0.3352 C   0  0  0  0  0  0  0  0  0  0  0  0
   -0.3567    0.2239    2.9143 C   0  0  0  0  0  0  0  0  0  0  0  0
   -0.8444    0.9986    4.1418 C   0  0  0  0  0  0  0  0  0  0  0  0
   -0.9084   -1.2066    2.8877 C   0  0  0  0  0  0  0  0  0  0  0  0
   -0.4041   -2.3356   -2.2473 H   0  0  0  0  0  0  0  0  0  0  0  0
   -2.5605   -3.4778   -2.7402 H   0  0  0  0  0  0  0  0  0  0  0  0
   -5.8133    0.4739    1.6148 H   0  0  0  0  0  0  0  0  0  0  0  0
   -3.6979    1.6167    2.2388 H   0  0  0  0  0  0  0  0  0  0  0  0
   -5.2573   -3.7536   -1.1502 H   0  0  0  0  0  0  0  0  0  0  0  0
   -5.5776   -2.5990   -2.4566 H   0  0  0  0  0  0  0  0  0  0  0  0
   -6.7207   -1.1654   -0.9198 H   0  0  0  0  0  0  0  0  0  0  0  0
   -6.4302   -2.3369    0.3783 H   0  0  0  0  0  0  0  0  0  0  0  0
    2.0232    2.2937   -0.8540 H   0  0  0  0  0  0  0  0  0  0  0  0
    1.9654    4.2600   -2.4152 H   0  0  0  0  0  0  0  0  0  0  0  0
    0.0832    4.5053   -4.0590 H   0  0  0  0  0  0  0  0  0  0  0  0
   -1.7265    2.7727   -4.1504 H   0  0  0  0  0  0  0  0  0  0  0  0
   -1.6730    0.8193   -2.5960 H   0  0  0  0  0  0  0  0  0  0  0  0
   -1.6319    2.9512    2.3945 H   0  0  0  0  0  0  0  0  0  0  0  0
    0.1267    4.6893    2.2239 H   0  0  0  0  0  0  0  0  0  0  0  0
    1.0981    3.6524    1.1169 H   0  0  0  0  0  0  0  0  0  0  0  0
    0.8733    3.1550    2.8009 H   0  0  0  0  0  0  0  0  0  0  0  0
   -0.9202    3.6740   -0.5327 H   0  0  0  0  0  0  0  0  0  0  0  0
   -1.8763    4.6479    0.6232 H   0  0  0  0  0  0  0  0  0  0  0  0
   -2.5243    3.0907    0.0164 H   0  0  0  0  0  0  0  0  0  0  0  0
    0.7558    0.2150    2.8814 H   0  0  0  0  0  0  0  0  0  0  0  0
   -0.5698    0.4277    5.0523 H   0  0  0  0  0  0  0  0  0  0  0  0
   -1.9491    1.1106    4.1501 H   0  0  0  0  0  0  0  0  0  0  0  0
   -0.3830    2.0004    4.2309 H   0  0  0  0  0  0  0  0  0  0  0  0
   -2.0102   -1.2154    3.0080 H   0  0  0  0  0  0  0  0  0  0  0  0
   -0.4557   -1.7836    3.7178 H   0  0  0  0  0  0  0  0  0  0  0  0
   -0.6593   -1.7424    1.9522 H   0  0  0  0  0  0  0  0  0  0  0  0
  1 15  1  6  0  0  0
  1  2  1  0  0  0  0
  2 21  1  0  0  0  0
  2 24  1  0  0  0  0
  3  1  1  0  0  0  0
  3 12  1  0  0  0  0
  4  3  2  0  0  0  0
  5  4  1  0  0  0  0
  5  6  2  0  0  0  0
  6  7  1  0  0  0  0
  7 12  2  0  0  0  0
  7  8  1  0  0  0  0
  8  9  2  0  0  0  0
  9 10  1  0  0  0  0
  9 29  1  0  0  0  0
 10 30  1  0  0  0  0
 11  2  1  0  0  0  0
 11 10  2  0  0  0  0
 12 11  1  0  0  0  0
 13  6  1  0  0  0  0
 13 31  1  0  0  0  0
 13 14  1  0  0  0  0
 14  8  1  0  0  0  0
 14 34  1  0  0  0  0
 15 16  1  0  0  0  0
 16 35  1  0  0  0  0
 17 36  1  0  0  0  0
 17 16  2  0  0  0  0
 18 17  1  0  0  0  0
 19 18  2  0  0  0  0
 19 20  1  0  0  0  0
 20 15  2  0  0  0  0
 21 22  1  0  0  0  0
 21 40  1  0  0  0  0
 22 41  1  0  0  0  0
 22 43  1  0  0  0  0
 23 45  1  0  0  0  0
 23 21  1  0  0  0  0
 24 25  1  0  0  0  0
 25 49  1  0  0  0  0
 25 50  1  0  0  0  0
 25 48  1  0  0  0  0
 26 24  1  0  0  0  0
 26 51  1  0  0  0  0
 26 52  1  0  0  0  0
 27  4  1  0  0  0  0
 28  5  1  0  0  0  0
 32 13  1  0  0  0  0
 33 14  1  0  0  0  0
 37 18  1  0  0  0  0
 38 19  1  0  0  0  0
 39 20  1  0  0  0  0
 42 22  1  0  0  0  0
 44 23  1  0  0  0  0
 46 23  1  0  0  0  0
 47 24  1  0  0  0  0
 53 26  1  0  0  0  0
M  END
