1
 OpenBabel05122313063D

 47 49  0  0  1  0  0  0  0  0999 V2000
   -0.3955    0.0122    0.1611 P   0  0  2  0  0  0  0  0  0  0  0  0
    0.7405    0.1021    1.5019 N   0  0  0  0  0  0  0  0  0  0  0  0
    0.6042   -0.6976    2.1403 H   0  0  0  0  0  0  0  0  0  0  0  0
   -0.9949    2.1029   -2.2188 O   0  0  0  0  0  0  0  0  0  0  0  0
    0.9928    3.1922   -2.0386 O   0  0  0  0  0  0  0  0  0  0  0  0
    3.4665    2.9386    0.0748 O   0  0  0  0  0  0  0  0  0  0  0  0
    3.7497    1.4965   -1.6648 O   0  0  0  0  0  0  0  0  0  0  0  0
    0.6863   -3.5546   -1.6974 O   0  0  0  0  0  0  0  0  0  0  0  0
   -1.1242   -2.1997   -1.9665 O   0  0  0  0  0  0  0  0  0  0  0  0
    3.1892   -3.1635    0.5719 O   0  0  0  0  0  0  0  0  0  0  0  0
    3.4888   -2.2798   -1.5079 O   0  0  0  0  0  0  0  0  0  0  0  0
    0.5705   -1.4483   -0.5578 C   0  0  0  0  0  0  0  0  0  0  0  0
    1.8416   -1.3323   -0.1050 C   0  0  0  0  0  0  0  0  0  0  0  0
    2.0203   -0.0333    0.7725 C   0  0  1  0  0  0  0  0  0  0  0  0
    1.9125    1.1540   -0.2398 C   0  0  0  0  0  0  0  0  0  0  0  0
    0.6428    1.3160   -0.6759 C   0  0  0  0  0  0  0  0  0  0  0  0
    0.1093    2.2209   -1.7110 C   0  0  0  0  0  0  0  0  0  0  0  0
    0.5452    4.1183   -3.0378 C   0  0  0  0  0  0  0  0  0  0  0  0
    0.3550    3.5983   -3.9983 H   0  0  0  0  0  0  0  0  0  0  0  0
    1.3562    4.8588   -3.1502 H   0  0  0  0  0  0  0  0  0  0  0  0
   -0.3927    4.6133   -2.7165 H   0  0  0  0  0  0  0  0  0  0  0  0
    3.1100    1.9840   -0.5822 C   0  0  0  0  0  0  0  0  0  0  0  0
    4.9423    2.2084   -2.0347 C   0  0  0  0  0  0  0  0  0  0  0  0
    4.7010    3.2576   -2.2970 H   0  0  0  0  0  0  0  0  0  0  0  0
    5.3561    1.6752   -2.9082 H   0  0  0  0  0  0  0  0  0  0  0  0
    5.6672    2.2125   -1.1962 H   0  0  0  0  0  0  0  0  0  0  0  0
    0.0849   -2.5217   -1.4505 C   0  0  0  0  0  0  0  0  0  0  0  0
   -1.7336   -3.1784   -2.8181 C   0  0  0  0  0  0  0  0  0  0  0  0
   -1.0202   -3.5247   -3.5913 H   0  0  0  0  0  0  0  0  0  0  0  0
   -2.6032   -2.6770   -3.2771 H   0  0  0  0  0  0  0  0  0  0  0  0
   -2.0626   -4.0504   -2.2173 H   0  0  0  0  0  0  0  0  0  0  0  0
    2.9045   -2.3662   -0.2989 C   0  0  0  0  0  0  0  0  0  0  0  0
    4.4278   -3.3272   -1.8034 C   0  0  0  0  0  0  0  0  0  0  0  0
    5.1995   -3.4000   -1.0116 H   0  0  0  0  0  0  0  0  0  0  0  0
    4.8827   -3.0639   -2.7741 H   0  0  0  0  0  0  0  0  0  0  0  0
    3.8945   -4.2958   -1.8757 H   0  0  0  0  0  0  0  0  0  0  0  0
    3.2552    0.0220    1.6482 C   0  0  0  0  0  0  0  0  0  0  0  0
    4.5270   -0.2293    1.0950 C   0  0  0  0  0  0  0  0  0  0  0  0
    4.6222   -0.4835    0.0288 H   0  0  0  0  0  0  0  0  0  0  0  0
    5.6754   -0.1361    1.8923 C   0  0  0  0  0  0  0  0  0  0  0  0
    6.6632   -0.3380    1.4510 H   0  0  0  0  0  0  0  0  0  0  0  0
    5.5661    0.2099    3.2484 C   0  0  0  0  0  0  0  0  0  0  0  0
    6.4680    0.2795    3.8750 H   0  0  0  0  0  0  0  0  0  0  0  0
    4.3033    0.4738    3.7985 C   0  0  0  0  0  0  0  0  0  0  0  0
    4.2103    0.7583    4.8573 H   0  0  0  0  0  0  0  0  0  0  0  0
    3.1521    0.3877    3.0010 C   0  0  0  0  0  0  0  0  0  0  0  0
    2.1637    0.6250    3.4194 H   0  0  0  0  0  0  0  0  0  0  0  0
  1 16  1  6  0  0  0
  1  2  1  0  0  0  0
  2  3  1  0  0  0  0
  4 17  2  0  0  0  0
  5 17  1  0  0  0  0
  7 22  1  0  0  0  0
  8 27  2  0  0  0  0
  9 27  1  0  0  0  0
 11 32  1  0  0  0  0
 12 13  2  0  0  0  0
 12  1  1  0  0  0  0
 13 14  1  0  0  0  0
 14  2  1  0  0  0  0
 14 37  1  1  0  0  0
 15 14  1  0  0  0  0
 16 15  2  0  0  0  0
 17 16  1  0  0  0  0
 18 21  1  0  0  0  0
 18  5  1  0  0  0  0
 19 18  1  0  0  0  0
 20 18  1  0  0  0  0
 22 15  1  0  0  0  0
 22  6  2  0  0  0  0
 23  7  1  0  0  0  0
 23 26  1  0  0  0  0
 24 23  1  0  0  0  0
 25 23  1  0  0  0  0
 27 12  1  0  0  0  0
 28 31  1  0  0  0  0
 28  9  1  0  0  0  0
 29 28  1  0  0  0  0
 30 28  1  0  0  0  0
 32 13  1  0  0  0  0
 32 10  2  0  0  0  0
 33 11  1  0  0  0  0
 33 34  1  0  0  0  0
 35 33  1  0  0  0  0
 36 33  1  0  0  0  0
 37 46  1  0  0  0  0
 38 37  2  0  0  0  0
 38 40  1  0  0  0  0
 39 38  1  0  0  0  0
 40 42  2  0  0  0  0
 41 40  1  0  0  0  0
 42 44  1  0  0  0  0
 42 43  1  0  0  0  0
 44 45  1  0  0  0  0
 46 47  1  0  0  0  0
 46 44  2  0  0  0  0
M  END
