1
 OpenBabel05122313063D

 33 34  0  0  0  0  0  0  0  0999 V2000
   -2.7700   -0.0948    0.1489 P   0  0  0  0  0  0  0  0  0  0  0  0
   -1.3429   -2.8871    4.2736 O   0  0  0  0  0  0  0  0  0  0  0  0
   -2.5229   -3.7829    2.5628 O   0  0  0  0  0  0  0  0  0  0  0  0
   -3.2215   -1.2415    1.5414 C   0  0  0  0  0  0  0  0  0  0  0  0
   -2.1721   -1.3767    2.6458 C   0  0  0  0  0  0  0  0  0  0  0  0
   -2.0605   -2.8131    3.1333 C   0  0  0  0  0  0  0  0  0  0  0  0
   -3.7181   -0.6932   -1.2942 C   0  0  0  0  0  0  0  0  0  0  0  0
   -5.0802   -1.0430   -1.1675 C   0  0  0  0  0  0  0  0  0  0  0  0
   -5.7895   -1.4999   -2.2865 C   0  0  0  0  0  0  0  0  0  0  0  0
   -5.1487   -1.6056   -3.5329 C   0  0  0  0  0  0  0  0  0  0  0  0
   -3.7956   -1.2558   -3.6620 C   0  0  0  0  0  0  0  0  0  0  0  0
   -3.0778   -0.8019   -2.5451 C   0  0  0  0  0  0  0  0  0  0  0  0
   -3.5723    1.4919    0.6098 C   0  0  0  0  0  0  0  0  0  0  0  0
   -4.3448    2.2216   -0.3173 C   0  0  0  0  0  0  0  0  0  0  0  0
   -4.8683    3.4757    0.0381 C   0  0  0  0  0  0  0  0  0  0  0  0
   -4.6260    4.0073    1.3147 C   0  0  0  0  0  0  0  0  0  0  0  0
   -3.8591    3.2815    2.2423 C   0  0  0  0  0  0  0  0  0  0  0  0
   -3.3312    2.0308    1.8927 C   0  0  0  0  0  0  0  0  0  0  0  0
   -1.2865   -3.8410    4.5025 H   0  0  0  0  0  0  0  0  0  0  0  0
   -4.2043   -0.9194    1.9389 H   0  0  0  0  0  0  0  0  0  0  0  0
   -3.3719   -2.2432    1.0894 H   0  0  0  0  0  0  0  0  0  0  0  0
   -1.1605   -1.1027    2.2655 H   0  0  0  0  0  0  0  0  0  0  0  0
   -2.3579   -0.7134    3.5136 H   0  0  0  0  0  0  0  0  0  0  0  0
   -5.5929   -0.9546   -0.1974 H   0  0  0  0  0  0  0  0  0  0  0  0
   -6.8498   -1.7755   -2.1856 H   0  0  0  0  0  0  0  0  0  0  0  0
   -5.7093   -1.9658   -4.4085 H   0  0  0  0  0  0  0  0  0  0  0  0
   -3.2925   -1.3424   -4.6364 H   0  0  0  0  0  0  0  0  0  0  0  0
   -2.0103   -0.5425   -2.6289 H   0  0  0  0  0  0  0  0  0  0  0  0
   -4.5372    1.8085   -1.3188 H   0  0  0  0  0  0  0  0  0  0  0  0
   -5.4748    4.0374   -0.6881 H   0  0  0  0  0  0  0  0  0  0  0  0
   -5.0414    4.9878    1.5913 H   0  0  0  0  0  0  0  0  0  0  0  0
   -3.6711    3.6926    3.2454 H   0  0  0  0  0  0  0  0  0  0  0  0
   -2.7169    1.4780    2.6201 H   0  0  0  0  0  0  0  0  0  0  0  0
  1 13  1  0  0  0  0
  1  4  1  0  0  0  0
  2 19  1  0  0  0  0
  3  6  2  0  0  0  0
  4 20  1  0  0  0  0
  4  5  1  0  0  0  0
  5  6  1  0  0  0  0
  5 23  1  0  0  0  0
  6  2  1  0  0  0  0
  7  8  1  0  0  0  0
  7  1  1  0  0  0  0
  8 24  1  0  0  0  0
  9 25  1  0  0  0  0
  9  8  2  0  0  0  0
 10  9  1  0  0  0  0
 11 10  2  0  0  0  0
 11 12  1  0  0  0  0
 12  7  2  0  0  0  0
 13 18  1  0  0  0  0
 14 15  1  0  0  0  0
 14 13  2  0  0  0  0
 15 16  2  0  0  0  0
 16 31  1  0  0  0  0
 16 17  1  0  0  0  0
 17 32  1  0  0  0  0
 18 17  2  0  0  0  0
 18 33  1  0  0  0  0
 21  4  1  0  0  0  0
 22  5  1  0  0  0  0
 26 10  1  0  0  0  0
 27 11  1  0  0  0  0
 28 12  1  0  0  0  0
 29 14  1  0  0  0  0
 30 15  1  0  0  0  0
M  END
