1
 OpenBabel05122313063D

 60 63  0  0  0  0  0  0  0  0999 V2000
    1.7740    0.1511   -0.0711 P   0  0  0  0  0  0  0  0  0  0  0  0
    0.9121    1.5838   -0.8908 C   0  0  0  0  0  0  0  0  0  0  0  0
    1.3173    2.4711   -0.3569 H   0  0  0  0  0  0  0  0  0  0  0  0
    1.2108    1.6441   -1.9565 H   0  0  0  0  0  0  0  0  0  0  0  0
   -0.5793    1.5724   -0.7830 N   0  3  0  0  0  0  0  0  0  0  0  0
   -0.8188    1.1963    0.2149 H   0  0  0  0  0  0  0  0  0  0  0  0
   -0.9456    0.7621   -1.3338 H   0  0  0  0  0  0  0  0  0  0  0  0
   -1.1986    2.8916   -1.1675 C   0  0  0  0  0  0  0  0  0  0  0  0
   -0.7017    3.2044   -2.1079 H   0  0  0  0  0  0  0  0  0  0  0  0
   -0.9093    3.6156   -0.3812 H   0  0  0  0  0  0  0  0  0  0  0  0
   -2.6888    2.8144   -1.3447 C   0  0  0  0  0  0  0  0  0  0  0  0
   -3.2322    2.3407   -2.5579 C   0  0  0  0  0  0  0  0  0  0  0  0
   -2.5647    2.0688   -3.3918 H   0  0  0  0  0  0  0  0  0  0  0  0
   -4.6160    2.2334   -2.7327 C   0  0  0  0  0  0  0  0  0  0  0  0
   -5.0549    1.8778   -3.6758 H   0  0  0  0  0  0  0  0  0  0  0  0
   -5.4604    2.6036   -1.6757 C   0  0  0  0  0  0  0  0  0  0  0  0
   -6.7815    2.4637   -1.8219 F   0  0  0  0  0  0  0  0  0  0  0  0
   -4.9534    3.1109   -0.4719 C   0  0  0  0  0  0  0  0  0  0  0  0
   -5.6490    3.4228    0.3200 H   0  0  0  0  0  0  0  0  0  0  0  0
   -3.5650    3.2162   -0.3163 C   0  0  0  0  0  0  0  0  0  0  0  0
   -3.1597    3.6328    0.6191 H   0  0  0  0  0  0  0  0  0  0  0  0
    0.9071    0.1186    1.5715 C   0  0  0  0  0  0  0  0  0  0  0  0
    1.3747   -0.6911    2.1842 H   0  0  0  0  0  0  0  0  0  0  0  0
    1.1554    1.0877    2.0534 H   0  0  0  0  0  0  0  0  0  0  0  0
   -0.5445   -0.0623    1.4191 N   0  0  0  0  0  0  0  0  0  0  0  0
    0.9639   -1.3164   -0.8816 C   0  0  0  0  0  0  0  0  0  0  0  0
    1.1907   -1.2909   -1.9670 H   0  0  0  0  0  0  0  0  0  0  0  0
    1.4524   -2.2378   -0.4729 H   0  0  0  0  0  0  0  0  0  0  0  0
   -0.4865   -1.2860   -0.6813 N   0  0  0  0  0  0  0  0  0  0  0  0
   -0.8418   -1.3315    0.7366 C   0  0  0  0  0  0  0  0  0  0  0  0
   -0.3192   -2.1822    1.2580 H   0  0  0  0  0  0  0  0  0  0  0  0
   -1.9287   -1.5097    0.8103 H   0  0  0  0  0  0  0  0  0  0  0  0
   -1.2233    0.0282    2.7427 C   0  0  0  0  0  0  0  0  0  0  0  0
   -1.0475    1.0588    3.1176 H   0  0  0  0  0  0  0  0  0  0  0  0
   -0.7305   -0.6626    3.4668 H   0  0  0  0  0  0  0  0  0  0  0  0
   -2.6975   -0.2911    2.6678 C   0  0  0  0  0  0  0  0  0  0  0  0
   -3.2366   -1.3711    3.3941 C   0  0  0  0  0  0  0  0  0  0  0  0
   -2.5848   -1.9608    4.0576 H   0  0  0  0  0  0  0  0  0  0  0  0
   -4.5913   -1.7152    3.2833 C   0  0  0  0  0  0  0  0  0  0  0  0
   -5.0212   -2.5559    3.8460 H   0  0  0  0  0  0  0  0  0  0  0  0
   -5.4088   -0.9744    2.4218 C   0  0  0  0  0  0  0  0  0  0  0  0
   -6.6956   -1.3166    2.2785 F   0  0  0  0  0  0  0  0  0  0  0  0
   -4.9056    0.1111    1.6913 C   0  0  0  0  0  0  0  0  0  0  0  0
   -5.5753    0.6674    1.0204 H   0  0  0  0  0  0  0  0  0  0  0  0
   -3.5546    0.4460    1.8258 C   0  0  0  0  0  0  0  0  0  0  0  0
   -3.1612    1.2902    1.2418 H   0  0  0  0  0  0  0  0  0  0  0  0
   -1.1654   -2.3630   -1.4475 C   0  0  0  0  0  0  0  0  0  0  0  0
   -0.7946   -3.3664   -1.1249 H   0  0  0  0  0  0  0  0  0  0  0  0
   -0.8640   -2.2385   -2.5089 H   0  0  0  0  0  0  0  0  0  0  0  0
   -2.6681   -2.3032   -1.3059 C   0  0  0  0  0  0  0  0  0  0  0  0
   -3.3599   -3.2583   -0.5336 C   0  0  0  0  0  0  0  0  0  0  0  0
   -2.8042   -4.0913   -0.0749 H   0  0  0  0  0  0  0  0  0  0  0  0
   -4.7428   -3.1637   -0.3273 C   0  0  0  0  0  0  0  0  0  0  0  0
   -5.2899   -3.8969    0.2816 H   0  0  0  0  0  0  0  0  0  0  0  0
   -5.4373   -2.0937   -0.9031 C   0  0  0  0  0  0  0  0  0  0  0  0
   -6.7535   -1.9710   -0.6892 F   0  0  0  0  0  0  0  0  0  0  0  0
   -4.7838   -1.1366   -1.6910 C   0  0  0  0  0  0  0  0  0  0  0  0
   -5.3689   -0.3180   -2.1316 H   0  0  0  0  0  0  0  0  0  0  0  0
   -3.4027   -1.2486   -1.8855 C   0  0  0  0  0  0  0  0  0  0  0  0
   -2.8889   -0.4986   -2.5076 H   0  0  0  0  0  0  0  0  0  0  0  0
  1 22  1  0  0  0  0
  2  5  1  0  0  0  0
  2  3  1  0  0  0  0
  2  1  1  0  0  0  0
  4  2  1  0  0  0  0
  5  6  1  0  0  0  0
  7  5  1  0  0  0  0
  8  5  1  0  0  0  0
  8 10  1  0  0  0  0
  9  8  1  0  0  0  0
 11  8  1  0  0  0  0
 11 20  1  0  0  0  0
 12 11  2  0  0  0  0
 13 12  1  0  0  0  0
 14 12  1  0  0  0  0
 14 16  2  0  0  0  0
 15 14  1  0  0  0  0
 16 18  1  0  0  0  0
 17 16  1  0  0  0  0
 18 20  2  0  0  0  0
 18 19  1  0  0  0  0
 20 21  1  0  0  0  0
 22 24  1  0  0  0  0
 22 23  1  0  0  0  0
 25 22  1  0  0  0  0
 25 33  1  0  0  0  0
 26 29  1  0  0  0  0
 26 28  1  0  0  0  0
 26  1  1  0  0  0  0
 27 26  1  0  0  0  0
 29 30  1  0  0  0  0
 30 32  1  0  0  0  0
 30 31  1  0  0  0  0
 30 25  1  0  0  0  0
 33 34  1  0  0  0  0
 33 35  1  0  0  0  0
 36 33  1  0  0  0  0
 36 37  1  0  0  0  0
 37 38  1  0  0  0  0
 39 37  2  0  0  0  0
 39 40  1  0  0  0  0
 41 39  1  0  0  0  0
 42 41  1  0  0  0  0
 43 45  1  0  0  0  0
 43 41  2  0  0  0  0
 44 43  1  0  0  0  0
 45 36  2  0  0  0  0
 46 45  1  0  0  0  0
 47 50  1  0  0  0  0
 47 48  1  0  0  0  0
 47 29  1  0  0  0  0
 49 47  1  0  0  0  0
 50 51  1  0  0  0  0
 51 53  2  0  0  0  0
 51 52  1  0  0  0  0
 53 54  1  0  0  0  0
 55 56  1  0  0  0  0
 55 53  1  0  0  0  0
 57 55  2  0  0  0  0
 58 57  1  0  0  0  0
 59 57  1  0  0  0  0
 59 50  2  0  0  0  0
 60 59  1  0  0  0  0
M  CHG  1   5   1
M  END
