2
 OpenBabel05122313063D

 57 61  0  0  1  0  0  0  0  0999 V2000
   -1.6077    0.3828   -0.1648 As  0  0  1  0  0  0  0  0  0  0  0  0
    1.4513    0.9080    0.1420 P   0  0  0  0  0  0  0  0  0  0  0  0
   -3.4415    0.1836    0.4311 C   0  0  0  0  0  0  0  0  0  0  0  0
   -3.8487    0.7822    1.6373 C   0  0  0  0  0  0  0  0  0  0  0  0
   -3.1323    1.3550    2.2458 H   0  0  0  0  0  0  0  0  0  0  0  0
   -5.1766    0.6431    2.0701 C   0  0  0  0  0  0  0  0  0  0  0  0
   -5.4949    1.1108    3.0142 H   0  0  0  0  0  0  0  0  0  0  0  0
   -6.0928   -0.0923    1.3018 C   0  0  0  0  0  0  0  0  0  0  0  0
   -7.1333   -0.2019    1.6434 H   0  0  0  0  0  0  0  0  0  0  0  0
   -5.6805   -0.6966    0.1032 C   0  0  0  0  0  0  0  0  0  0  0  0
   -6.3945   -1.2839   -0.4937 H   0  0  0  0  0  0  0  0  0  0  0  0
   -4.3534   -0.5676   -0.3339 C   0  0  0  0  0  0  0  0  0  0  0  0
   -4.0235   -1.0665   -1.2571 H   0  0  0  0  0  0  0  0  0  0  0  0
   -1.6550    1.4722   -1.8663 C   0  0  1  0  0  0  0  0  0  0  0  0
   -2.0124    0.9388   -2.7655 H   0  0  0  0  0  0  0  0  0  0  0  0
   -2.4810    2.6660   -1.4369 C   0  0  0  0  0  0  0  0  0  0  0  0
   -3.5305    3.2270   -2.3415 C   0  0  0  0  0  0  0  0  0  0  0  0
   -4.0436    4.1037   -1.9026 H   0  0  0  0  0  0  0  0  0  0  0  0
   -4.3013    2.4571   -2.5634 H   0  0  0  0  0  0  0  0  0  0  0  0
   -3.1011    3.5334   -3.3199 H   0  0  0  0  0  0  0  0  0  0  0  0
   -2.1029    3.1062   -0.2008 C   0  0  0  0  0  0  0  0  0  0  0  0
   -2.6251    4.2781    0.5677 C   0  0  0  0  0  0  0  0  0  0  0  0
   -1.8123    4.9972    0.8099 H   0  0  0  0  0  0  0  0  0  0  0  0
   -3.0560    3.9531    1.5399 H   0  0  0  0  0  0  0  0  0  0  0  0
   -3.4120    4.8274    0.0170 H   0  0  0  0  0  0  0  0  0  0  0  0
   -1.0195    2.2294    0.3950 C   0  0  2  0  0  0  0  0  0  0  0  0
   -0.8286    2.3817    1.4730 H   0  0  0  0  0  0  0  0  0  0  0  0
    0.2713    2.2395   -0.4704 C   0  0  2  0  0  0  0  0  0  0  0  0
    0.7773    3.2253   -0.4314 H   0  0  0  0  0  0  0  0  0  0  0  0
   -0.1498    1.8810   -1.9430 C   0  0  2  0  0  0  0  0  0  0  0  0
    0.4199    0.9910   -2.2862 H   0  0  0  0  0  0  0  0  0  0  0  0
    0.1247    3.0178   -2.9273 C   0  0  0  0  0  0  0  0  0  0  0  0
   -0.4044    3.9455   -2.6275 H   0  0  0  0  0  0  0  0  0  0  0  0
   -0.2026    2.7470   -3.9517 H   0  0  0  0  0  0  0  0  0  0  0  0
    1.2114    3.2354   -2.9662 H   0  0  0  0  0  0  0  0  0  0  0  0
    2.9037    1.1493   -0.9546 C   0  0  0  0  0  0  0  0  0  0  0  0
    3.0825    0.2973   -2.0627 C   0  0  0  0  0  0  0  0  0  0  0  0
    2.4178   -0.5704   -2.1929 H   0  0  0  0  0  0  0  0  0  0  0  0
    4.1267    0.5382   -2.9680 C   0  0  0  0  0  0  0  0  0  0  0  0
    4.2642   -0.1335   -3.8286 H   0  0  0  0  0  0  0  0  0  0  0  0
    5.0024    1.6164   -2.7657 C   0  0  0  0  0  0  0  0  0  0  0  0
    5.8266    1.7970   -3.4724 H   0  0  0  0  0  0  0  0  0  0  0  0
    4.8356    2.4567   -1.6526 C   0  0  0  0  0  0  0  0  0  0  0  0
    5.5290    3.2944   -1.4829 H   0  0  0  0  0  0  0  0  0  0  0  0
    3.7890    2.2266   -0.7475 C   0  0  0  0  0  0  0  0  0  0  0  0
    3.6710    2.8796    0.1306 H   0  0  0  0  0  0  0  0  0  0  0  0
    1.9720    1.4559    1.8156 C   0  0  0  0  0  0  0  0  0  0  0  0
    1.9184    2.8087    2.2171 C   0  0  0  0  0  0  0  0  0  0  0  0
    1.5499    3.5843    1.5289 H   0  0  0  0  0  0  0  0  0  0  0  0
    2.3327    3.1790    3.5056 C   0  0  0  0  0  0  0  0  0  0  0  0
    2.2858    4.2355    3.8108 H   0  0  0  0  0  0  0  0  0  0  0  0
    2.8043    2.2057    4.4005 C   0  0  0  0  0  0  0  0  0  0  0  0
    3.1277    2.4982    5.4110 H   0  0  0  0  0  0  0  0  0  0  0  0
    2.8567    0.8594    4.0054 C   0  0  0  0  0  0  0  0  0  0  0  0
    3.2210    0.0911    4.7039 H   0  0  0  0  0  0  0  0  0  0  0  0
    2.4384    0.4805    2.7218 C   0  0  0  0  0  0  0  0  0  0  0  0
    2.4733   -0.5762    2.4075 H   0  0  0  0  0  0  0  0  0  0  0  0
  1 26  1  0  0  0  0
  1  3  1  1  0  0  0
  2 47  1  0  0  0  0
  3  4  1  0  0  0  0
  4  6  2  0  0  0  0
  4  5  1  0  0  0  0
  6  7  1  0  0  0  0
  8  9  1  0  0  0  0
  8  6  1  0  0  0  0
 10  8  2  0  0  0  0
 11 10  1  0  0  0  0
 12 10  1  0  0  0  0
 12  3  2  0  0  0  0
 13 12  1  0  0  0  0
 14 15  1  6  0  0  0
 14 16  1  0  0  0  0
 14  1  1  0  0  0  0
 16 21  2  0  0  0  0
 17 18  1  0  0  0  0
 17 16  1  0  0  0  0
 19 17  1  0  0  0  0
 20 17  1  0  0  0  0
 21 26  1  0  0  0  0
 21 22  1  0  0  0  0
 22 23  1  0  0  0  0
 22 24  1  0  0  0  0
 25 22  1  0  0  0  0
 26 27  1  1  0  0  0
 28 29  1  1  0  0  0
 28  2  1  0  0  0  0
 28 26  1  0  0  0  0
 30 31  1  6  0  0  0
 30 14  1  0  0  0  0
 30 28  1  0  0  0  0
 32 33  1  0  0  0  0
 32 30  1  0  0  0  0
 34 32  1  0  0  0  0
 35 32  1  0  0  0  0
 36 45  1  0  0  0  0
 36  2  1  0  0  0  0
 37 36  2  0  0  0  0
 38 37  1  0  0  0  0
 39 41  2  0  0  0  0
 39 37  1  0  0  0  0
 40 39  1  0  0  0  0
 41 43  1  0  0  0  0
 42 41  1  0  0  0  0
 43 44  1  0  0  0  0
 43 45  2  0  0  0  0
 45 46  1  0  0  0  0
 47 48  2  0  0  0  0
 47 56  1  0  0  0  0
 48 50  1  0  0  0  0
 49 48  1  0  0  0  0
 50 51  1  0  0  0  0
 50 52  2  0  0  0  0
 52 53  1  0  0  0  0
 54 52  1  0  0  0  0
 54 55  1  0  0  0  0
 56 54  2  0  0  0  0
 57 56  1  0  0  0  0
M  END
