1
 OpenBabel05122313063D

 52 55  0  0  1  0  0  0  0  0999 V2000
   -0.4136    1.2550   -0.0028 P   0  0  0  0  0  0  0  0  0  0  0  0
    1.9444   -0.6935   -0.3299 N   0  0  0  0  0  0  0  0  0  0  0  0
    1.5517   -0.7059   -1.2855 H   0  0  0  0  0  0  0  0  0  0  0  0
    1.3676    1.6688   -0.3587 C   0  0  0  0  0  0  0  0  0  0  0  0
    1.4388    1.7552   -1.4629 H   0  0  0  0  0  0  0  0  0  0  0  0
    1.6182    2.6497    0.0883 H   0  0  0  0  0  0  0  0  0  0  0  0
    2.3443    0.6025    0.1684 C   0  0  2  0  0  0  0  0  0  0  0  0
    2.2611    0.5948    1.2776 H   0  0  0  0  0  0  0  0  0  0  0  0
    3.7801    0.9911   -0.1835 C   0  0  0  0  0  0  0  0  0  0  0  0
    4.6290    1.5558    0.7844 C   0  0  0  0  0  0  0  0  0  0  0  0
    4.2583    1.6931    1.8140 H   0  0  0  0  0  0  0  0  0  0  0  0
    5.9394    1.9356    0.4528 C   0  0  0  0  0  0  0  0  0  0  0  0
    6.5971    2.3691    1.2219 H   0  0  0  0  0  0  0  0  0  0  0  0
    6.4114    1.7526   -0.8559 C   0  0  0  0  0  0  0  0  0  0  0  0
    7.4396    2.0448   -1.1183 H   0  0  0  0  0  0  0  0  0  0  0  0
    5.5682    1.1887   -1.8286 C   0  0  0  0  0  0  0  0  0  0  0  0
    5.9344    1.0413   -2.8562 H   0  0  0  0  0  0  0  0  0  0  0  0
    4.2610    0.8091   -1.4948 C   0  0  0  0  0  0  0  0  0  0  0  0
    3.6000    0.3631   -2.2553 H   0  0  0  0  0  0  0  0  0  0  0  0
    2.3679   -1.8992    0.1921 C   0  0  0  0  0  0  0  0  0  0  0  0
    3.0648   -2.0060    1.4224 C   0  0  0  0  0  0  0  0  0  0  0  0
    3.3567   -1.1015    1.9730 H   0  0  0  0  0  0  0  0  0  0  0  0
    3.3954   -3.2665    1.9405 C   0  0  0  0  0  0  0  0  0  0  0  0
    3.9362   -3.3223    2.8983 H   0  0  0  0  0  0  0  0  0  0  0  0
    3.0600   -4.4455    1.2572 C   0  0  0  0  0  0  0  0  0  0  0  0
    3.3276   -5.4288    1.6706 H   0  0  0  0  0  0  0  0  0  0  0  0
    2.3892   -4.3440    0.0246 C   0  0  0  0  0  0  0  0  0  0  0  0
    2.1287   -5.2546   -0.5377 H   0  0  0  0  0  0  0  0  0  0  0  0
    2.0501   -3.0961   -0.5050 C   0  0  0  0  0  0  0  0  0  0  0  0
    1.5314   -3.0169   -1.4730 H   0  0  0  0  0  0  0  0  0  0  0  0
   -0.3906    0.9048    1.8072 C   0  0  0  0  0  0  0  0  0  0  0  0
   -0.5424    1.9024    2.7898 C   0  0  0  0  0  0  0  0  0  0  0  0
   -0.7473    2.9428    2.4978 H   0  0  0  0  0  0  0  0  0  0  0  0
   -0.4553    1.5674    4.1506 C   0  0  0  0  0  0  0  0  0  0  0  0
   -0.5856    2.3508    4.9128 H   0  0  0  0  0  0  0  0  0  0  0  0
   -0.2067    0.2414    4.5378 C   0  0  0  0  0  0  0  0  0  0  0  0
   -0.1356   -0.0166    5.6055 H   0  0  0  0  0  0  0  0  0  0  0  0
   -0.0590   -0.7563    3.5605 C   0  0  0  0  0  0  0  0  0  0  0  0
    0.1330   -1.7996    3.8525 H   0  0  0  0  0  0  0  0  0  0  0  0
   -0.1634   -0.4306    2.2018 C   0  0  0  0  0  0  0  0  0  0  0  0
   -0.0702   -1.2127    1.4343 H   0  0  0  0  0  0  0  0  0  0  0  0
   -1.2794    2.8665   -0.2171 C   0  0  0  0  0  0  0  0  0  0  0  0
   -2.5482    2.8612   -0.8339 C   0  0  0  0  0  0  0  0  0  0  0  0
   -2.9702    1.9014   -1.1726 H   0  0  0  0  0  0  0  0  0  0  0  0
   -3.2521    4.0596   -1.0216 C   0  0  0  0  0  0  0  0  0  0  0  0
   -4.2403    4.0404   -1.5054 H   0  0  0  0  0  0  0  0  0  0  0  0
   -2.6948    5.2775   -0.6027 C   0  0  0  0  0  0  0  0  0  0  0  0
   -3.2451    6.2186   -0.7544 H   0  0  0  0  0  0  0  0  0  0  0  0
   -1.4277    5.2945    0.0016 C   0  0  0  0  0  0  0  0  0  0  0  0
   -0.9807    6.2475    0.3228 H   0  0  0  0  0  0  0  0  0  0  0  0
   -0.7218    4.0973    0.1925 C   0  0  0  0  0  0  0  0  0  0  0  0
    0.2743    4.1334    0.6587 H   0  0  0  0  0  0  0  0  0  0  0  0
  1 31  1  0  0  0  0
  2  7  1  0  0  0  0
  2 20  1  0  0  0  0
  3  2  1  0  0  0  0
  4  1  1  0  0  0  0
  4  6  1  0  0  0  0
  4  7  1  0  0  0  0
  5  4  1  0  0  0  0
  7  8  1  1  0  0  0
  9  7  1  0  0  0  0
  9 10  1  0  0  0  0
 10 11  1  0  0  0  0
 12 10  2  0  0  0  0
 12 13  1  0  0  0  0
 14 12  1  0  0  0  0
 15 14  1  0  0  0  0
 16 18  1  0  0  0  0
 16 14  2  0  0  0  0
 17 16  1  0  0  0  0
 18  9  2  0  0  0  0
 19 18  1  0  0  0  0
 20 21  1  0  0  0  0
 21 23  2  0  0  0  0
 21 22  1  0  0  0  0
 23 24  1  0  0  0  0
 25 26  1  0  0  0  0
 25 23  1  0  0  0  0
 27 25  2  0  0  0  0
 28 27  1  0  0  0  0
 29 27  1  0  0  0  0
 29 20  2  0  0  0  0
 30 29  1  0  0  0  0
 31 40  2  0  0  0  0
 31 32  1  0  0  0  0
 32 34  2  0  0  0  0
 33 32  1  0  0  0  0
 34 36  1  0  0  0  0
 34 35  1  0  0  0  0
 36 37  1  0  0  0  0
 38 39  1  0  0  0  0
 38 36  2  0  0  0  0
 40 38  1  0  0  0  0
 41 40  1  0  0  0  0
 42  1  1  0  0  0  0
 42 51  1  0  0  0  0
 43 42  2  0  0  0  0
 44 43  1  0  0  0  0
 45 43  1  0  0  0  0
 45 47  2  0  0  0  0
 46 45  1  0  0  0  0
 47 49  1  0  0  0  0
 48 47  1  0  0  0  0
 49 51  2  0  0  0  0
 49 50  1  0  0  0  0
 51 52  1  0  0  0  0
M  END
