1
 OpenBabel05122313063D

 35 36  0  0  1  0  0  0  0  0999 V2000
   -2.3554   -0.1122   -0.0282 P   0  0  2  0  0  0  0  0  0  0  0  0
   -2.9618    1.0801    1.0313 N   0  0  0  0  0  0  0  0  0  0  0  0
   -3.0481    0.1721   -1.5655 N   0  0  0  0  0  0  0  0  0  0  0  0
   -3.1603   -1.5269    0.5055 N   0  0  0  0  0  0  0  0  0  0  0  0
   -4.0150    1.9983    0.6381 C   0  0  0  0  0  0  0  0  0  0  0  0
   -2.2810    1.3123    2.2932 C   0  0  0  0  0  0  0  0  0  0  0  0
   -4.3118   -0.4409   -1.9675 C   0  0  0  0  0  0  0  0  0  0  0  0
   -2.4109    1.0457   -2.5431 C   0  0  0  0  0  0  0  0  0  0  0  0
   -4.2780   -1.4584    1.4372 C   0  0  0  0  0  0  0  0  0  0  0  0
   -2.9187   -2.8192   -0.1176 C   0  0  0  0  0  0  0  0  0  0  0  0
   -5.4303    1.4123    0.8054 C   0  0  0  0  0  0  0  0  0  0  0  0
   -3.9086    2.9303    1.2346 H   0  0  0  0  0  0  0  0  0  0  0  0
   -3.8736    2.2972   -0.4229 H   0  0  0  0  0  0  0  0  0  0  0  0
   -1.8537    2.3381    2.3372 H   0  0  0  0  0  0  0  0  0  0  0  0
   -1.4295    0.6065    2.3853 H   0  0  0  0  0  0  0  0  0  0  0  0
   -2.9551    1.1559    3.1674 H   0  0  0  0  0  0  0  0  0  0  0  0
   -5.5811    0.1900   -1.3601 C   0  0  0  0  0  0  0  0  0  0  0  0
   -4.3729   -0.3878   -3.0760 H   0  0  0  0  0  0  0  0  0  0  0  0
   -4.3069   -1.5214   -1.7198 H   0  0  0  0  0  0  0  0  0  0  0  0
   -1.4831    1.4747   -2.1195 H   0  0  0  0  0  0  0  0  0  0  0  0
   -2.1589    0.4893   -3.4740 H   0  0  0  0  0  0  0  0  0  0  0  0
   -3.0729    1.8984   -2.8176 H   0  0  0  0  0  0  0  0  0  0  0  0
   -5.6313   -1.0800    0.7901 C   0  0  0  0  0  0  0  0  0  0  0  0
   -4.3688   -2.4467    1.9409 H   0  0  0  0  0  0  0  0  0  0  0  0
   -4.0510   -0.7238    2.2350 H   0  0  0  0  0  0  0  0  0  0  0  0
   -3.8368   -3.2143   -0.6141 H   0  0  0  0  0  0  0  0  0  0  0  0
   -2.1173   -2.7350   -0.8737 H   0  0  0  0  0  0  0  0  0  0  0  0
   -2.5758   -3.5680    0.6285 H   0  0  0  0  0  0  0  0  0  0  0  0
   -5.6404    0.1788    0.0822 N   0  0  1  0  0  0  0  0  0  0  0  0
   -5.6281    1.2178    1.8811 H   0  0  0  0  0  0  0  0  0  0  0  0
   -6.1714    2.1883    0.4883 H   0  0  0  0  0  0  0  0  0  0  0  0
   -5.6708    1.2440   -1.6985 H   0  0  0  0  0  0  0  0  0  0  0  0
   -6.4584   -0.3503   -1.7992 H   0  0  0  0  0  0  0  0  0  0  0  0
   -5.9385   -1.8750    0.0770 H   0  0  0  0  0  0  0  0  0  0  0  0
   -6.4036   -1.0831    1.5997 H   0  0  0  0  0  0  0  0  0  0  0  0
  1  3  1  6  0  0  0
  1  4  1  0  0  0  0
  1  2  1  0  0  0  0
  2  6  1  0  0  0  0
  4  9  1  0  0  0  0
  5 11  1  0  0  0  0
  5  2  1  0  0  0  0
  5 12  1  0  0  0  0
  6 14  1  0  0  0  0
  6 15  1  0  0  0  0
  6 16  1  0  0  0  0
  7 19  1  0  0  0  0
  7  3  1  0  0  0  0
  7 17  1  0  0  0  0
  8 20  1  0  0  0  0
  8  3  1  0  0  0  0
  9 24  1  0  0  0  0
  9 25  1  0  0  0  0
 10  4  1  0  0  0  0
 10 28  1  0  0  0  0
 11 30  1  0  0  0  0
 13  5  1  0  0  0  0
 18  7  1  0  0  0  0
 21  8  1  0  0  0  0
 22  8  1  0  0  0  0
 23  9  1  0  0  0  0
 23 35  1  0  0  0  0
 26 10  1  0  0  0  0
 27 10  1  0  0  0  0
 29 17  1  6  0  0  0
 29 23  1  0  0  0  0
 29 11  1  0  0  0  0
 31 11  1  0  0  0  0
 32 17  1  0  0  0  0
 33 17  1  0  0  0  0
 34 23  1  0  0  0  0
M  END
