3
 OpenBabel05122313063D

 52 58  0  0  1  0  0  0  0  0999 V2000
    4.7788   -3.2314   -0.6898 S   0  0  0  0  0  0  0  0  0  0  0  0
    4.7786    3.2321   -0.6888 S   0  0  0  0  0  0  0  0  0  0  0  0
   -0.8085   -0.0001    0.2932 P   0  0  2  0  0  0  0  0  0  0  0  0
    0.4402   -1.3179    0.2049 C   0  0  1  0  0  3  0  0  0  0  0  0
    1.6824   -0.7507   -0.0083 C   0  0  0  0  0  0  0  0  0  0  0  0
    2.9391   -1.4593   -0.2609 C   0  0  0  0  0  0  0  0  0  0  0  0
    4.1771   -0.7286   -0.4618 C   0  0  0  0  0  0  0  0  0  0  0  0
    4.1770    0.7292   -0.4616 C   0  0  0  0  0  0  0  0  0  0  0  0
    2.9389    1.4597   -0.2607 C   0  0  0  0  0  0  0  0  0  0  0  0
    1.6823    0.7509   -0.0082 C   0  0  0  0  0  0  0  0  0  0  0  0
    0.4400    1.3179    0.2050 C   0  0  2  0  0  3  0  0  0  0  0  0
    3.1345   -2.8346   -0.3711 C   0  0  0  0  0  0  0  0  0  0  0  0
    2.3912   -3.6331   -0.2826 H   0  0  0  0  0  0  0  0  0  0  0  0
    5.2537   -1.5705   -0.6946 C   0  0  0  0  0  0  0  0  0  0  0  0
    6.2982   -1.2984   -0.8851 H   0  0  0  0  0  0  0  0  0  0  0  0
    3.1343    2.8350   -0.3705 C   0  0  0  0  0  0  0  0  0  0  0  0
    2.3909    3.6335   -0.2818 H   0  0  0  0  0  0  0  0  0  0  0  0
    5.2536    1.5712   -0.6940 C   0  0  0  0  0  0  0  0  0  0  0  0
    6.2981    1.2992   -0.8844 H   0  0  0  0  0  0  0  0  0  0  0  0
   -1.4400   -0.0002    2.0100 C   0  0  0  0  0  0  0  0  0  0  0  0
   -0.5248   -0.0001    3.0831 C   0  0  0  0  0  0  0  0  0  0  0  0
    0.5577    0.0002    2.8786 H   0  0  0  0  0  0  0  0  0  0  0  0
   -0.9993   -0.0003    4.4005 C   0  0  0  0  0  0  0  0  0  0  0  0
   -0.2867   -0.0001    5.2392 H   0  0  0  0  0  0  0  0  0  0  0  0
   -2.3834   -0.0006    4.6506 C   0  0  0  0  0  0  0  0  0  0  0  0
   -2.7531   -0.0008    5.6873 H   0  0  0  0  0  0  0  0  0  0  0  0
   -3.2926   -0.0008    3.5825 C   0  0  0  0  0  0  0  0  0  0  0  0
   -4.3756   -0.0011    3.7771 H   0  0  0  0  0  0  0  0  0  0  0  0
   -2.8242   -0.0006    2.2588 C   0  0  0  0  0  0  0  0  0  0  0  0
   -3.5282   -0.0008    1.4117 H   0  0  0  0  0  0  0  0  0  0  0  0
    0.0413   -2.7205    0.4083 C   0  0  0  0  0  0  0  0  0  0  0  0
   -0.9178   -3.3382   -0.4274 C   0  0  0  0  0  0  0  0  0  0  0  0
   -1.3330   -2.7751   -1.2777 H   0  0  0  0  0  0  0  0  0  0  0  0
   -1.3312   -4.6561   -0.1841 C   0  0  0  0  0  0  0  0  0  0  0  0
   -2.0741   -5.1219   -0.8488 H   0  0  0  0  0  0  0  0  0  0  0  0
   -0.8029   -5.3755    0.8989 C   0  0  0  0  0  0  0  0  0  0  0  0
   -1.1306   -6.4087    1.0893 H   0  0  0  0  0  0  0  0  0  0  0  0
    0.1393   -4.7667    1.7458 C   0  0  0  0  0  0  0  0  0  0  0  0
    0.5456   -5.3188    2.6070 H   0  0  0  0  0  0  0  0  0  0  0  0
    0.5553   -3.4510    1.5069 C   0  0  0  0  0  0  0  0  0  0  0  0
    1.2833   -2.9680    2.1760 H   0  0  0  0  0  0  0  0  0  0  0  0
    0.0408    2.7205    0.4084 C   0  0  0  0  0  0  0  0  0  0  0  0
    0.5541    3.4508    1.5074 C   0  0  0  0  0  0  0  0  0  0  0  0
    1.2818    2.9678    2.1768 H   0  0  0  0  0  0  0  0  0  0  0  0
    0.1379    4.7664    1.7462 C   0  0  0  0  0  0  0  0  0  0  0  0
    0.5437    5.3184    2.6078 H   0  0  0  0  0  0  0  0  0  0  0  0
   -0.8040    5.3752    0.8990 C   0  0  0  0  0  0  0  0  0  0  0  0
   -1.1318    6.4084    1.0894 H   0  0  0  0  0  0  0  0  0  0  0  0
   -1.3315    4.6560   -0.1844 C   0  0  0  0  0  0  0  0  0  0  0  0
   -2.0742    5.1218   -0.8494 H   0  0  0  0  0  0  0  0  0  0  0  0
   -0.9179    3.3382   -0.4277 C   0  0  0  0  0  0  0  0  0  0  0  0
   -1.3325    2.7751   -1.2783 H   0  0  0  0  0  0  0  0  0  0  0  0
  1 12  1  0  0  0  0
  2 16  1  0  0  0  0
  3 20  1  1  0  0  0
  4  3  1  0  0  0  0
  4 31  1  1  0  0  0
  5 10  2  0  0  0  0
  5  4  1  0  0  0  0
  6  5  1  0  0  0  0
  7  8  1  0  0  0  0
  7  6  1  0  0  0  0
  8  9  1  0  0  0  0
  9 10  1  0  0  0  0
 10 11  1  0  0  0  0
 11  3  1  0  0  0  0
 11 42  1  1  0  0  0
 12 13  1  0  0  0  0
 12  6  2  0  0  0  0
 14  1  1  0  0  0  0
 14  7  2  0  0  0  0
 15 14  1  0  0  0  0
 16 17  1  0  0  0  0
 16  9  2  0  0  0  0
 18  2  1  0  0  0  0
 18  8  2  0  0  0  0
 19 18  1  0  0  0  0
 20 29  2  0  0  0  0
 20 21  1  0  0  0  0
 21 23  2  0  0  0  0
 22 21  1  0  0  0  0
 23 25  1  0  0  0  0
 23 24  1  0  0  0  0
 25 26  1  0  0  0  0
 27 28  1  0  0  0  0
 27 25  2  0  0  0  0
 29 27  1  0  0  0  0
 30 29  1  0  0  0  0
 31 40  1  0  0  0  0
 32 34  1  0  0  0  0
 32 31  2  0  0  0  0
 33 32  1  0  0  0  0
 34 36  2  0  0  0  0
 35 34  1  0  0  0  0
 36 37  1  0  0  0  0
 36 38  1  0  0  0  0
 38 39  1  0  0  0  0
 40 38  2  0  0  0  0
 40 41  1  0  0  0  0
 42 43  1  0  0  0  0
 43 45  2  0  0  0  0
 43 44  1  0  0  0  0
 45 46  1  0  0  0  0
 47 48  1  0  0  0  0
 47 45  1  0  0  0  0
 49 47  2  0  0  0  0
 50 49  1  0  0  0  0
 51 49  1  0  0  0  0
 51 42  2  0  0  0  0
 52 51  1  0  0  0  0
M  END
