2
 OpenBabel05122313063D

 33 32  0  0  0  0  0  0  0  0999 V2000
    0.6733    1.8318   -0.1119 As  0  0  0  0  0  0  0  0  0  0  0  0
   -1.3666   -1.2596   -0.3705 P   0  0  0  0  0  0  0  0  0  0  0  0
   -2.8880    0.3529    0.1686 Si  0  0  0  0  0  0  0  0  0  0  0  0
   -1.0843    2.6640    0.2812 C   0  0  0  0  0  0  0  0  0  0  0  0
   -2.2634    2.0364   -0.4741 C   0  0  0  0  0  0  0  0  0  0  0  0
    1.0518    2.6515   -1.8573 C   0  0  0  0  0  0  0  0  0  0  0  0
    1.7997    2.9339    1.0581 C   0  0  0  0  0  0  0  0  0  0  0  0
   -2.0123   -2.7408    0.5432 C   0  0  0  0  0  0  0  0  0  0  0  0
   -1.7921   -1.6708   -2.1301 C   0  0  0  0  0  0  0  0  0  0  0  0
   -3.0543    0.3808    2.0508 C   0  0  0  0  0  0  0  0  0  0  0  0
   -4.5573   -0.0213   -0.6435 C   0  0  0  0  0  0  0  0  0  0  0  0
   -0.9753    3.7442    0.0454 H   0  0  0  0  0  0  0  0  0  0  0  0
   -1.2193    2.5868    1.3804 H   0  0  0  0  0  0  0  0  0  0  0  0
   -3.1459    2.7138   -0.4125 H   0  0  0  0  0  0  0  0  0  0  0  0
   -2.0445    1.9512   -1.5620 H   0  0  0  0  0  0  0  0  0  0  0  0
    0.9250    3.7509   -1.8188 H   0  0  0  0  0  0  0  0  0  0  0  0
    2.0914    2.4011   -2.1422 H   0  0  0  0  0  0  0  0  0  0  0  0
    0.3726    2.2206   -2.6176 H   0  0  0  0  0  0  0  0  0  0  0  0
    1.6062    4.0138    0.9069 H   0  0  0  0  0  0  0  0  0  0  0  0
    1.5886    2.6552    2.1084 H   0  0  0  0  0  0  0  0  0  0  0  0
    2.8605    2.7045    0.8427 H   0  0  0  0  0  0  0  0  0  0  0  0
   -3.0810   -2.9401    0.3254 H   0  0  0  0  0  0  0  0  0  0  0  0
   -1.4060   -3.6232    0.2577 H   0  0  0  0  0  0  0  0  0  0  0  0
   -1.8782   -2.5735    1.6294 H   0  0  0  0  0  0  0  0  0  0  0  0
   -2.8557   -1.9581   -2.2473 H   0  0  0  0  0  0  0  0  0  0  0  0
   -1.5729   -0.7961   -2.7729 H   0  0  0  0  0  0  0  0  0  0  0  0
   -1.1447   -2.5060   -2.4628 H   0  0  0  0  0  0  0  0  0  0  0  0
   -3.6815    1.2403    2.3675 H   0  0  0  0  0  0  0  0  0  0  0  0
   -3.5448   -0.5454    2.4125 H   0  0  0  0  0  0  0  0  0  0  0  0
   -2.0727    0.4608    2.5580 H   0  0  0  0  0  0  0  0  0  0  0  0
   -5.3158    0.7237   -0.3238 H   0  0  0  0  0  0  0  0  0  0  0  0
   -4.4897    0.0173   -1.7496 H   0  0  0  0  0  0  0  0  0  0  0  0
   -4.9305   -1.0257   -0.3572 H   0  0  0  0  0  0  0  0  0  0  0  0
  1  4  1  0  0  0  0
  1  7  1  0  0  0  0
  2  3  1  0  0  0  0
  2  8  1  0  0  0  0
  3 10  1  0  0  0  0
  4 13  1  0  0  0  0
  5 14  1  0  0  0  0
  5  3  1  0  0  0  0
  5  4  1  0  0  0  0
  6 16  1  0  0  0  0
  6  1  1  0  0  0  0
  7 20  1  0  0  0  0
  8 24  1  0  0  0  0
  9  2  1  0  0  0  0
 10 28  1  0  0  0  0
 10 29  1  0  0  0  0
 10 30  1  0  0  0  0
 11 33  1  0  0  0  0
 11 31  1  0  0  0  0
 11  3  1  0  0  0  0
 12  4  1  0  0  0  0
 15  5  1  0  0  0  0
 17  6  1  0  0  0  0
 18  6  1  0  0  0  0
 19  7  1  0  0  0  0
 21  7  1  0  0  0  0
 22  8  1  0  0  0  0
 23  8  1  0  0  0  0
 25  9  1  0  0  0  0
 26  9  1  0  0  0  0
 27  9  1  0  0  0  0
 32 11  1  0  0  0  0
M  END
