1
 OpenBabel05122313063D

 36 37  0  0  1  0  0  0  0  0999 V2000
   -2.0715   -0.2880   -0.0003 P   0  0  2  0  0  0  0  0  0  0  0  0
   -3.2893   -1.1303   -1.2087 C   0  0  0  0  0  0  0  0  0  0  0  0
   -4.2698   -1.3684    0.0008 C   0  0  2  0  0  0  0  0  0  0  0  0
   -3.2883   -1.1297    1.2094 C   0  0  0  0  0  0  0  0  0  0  0  0
   -2.6669   -2.4079   -1.7832 C   0  0  0  0  0  0  0  0  0  0  0  0
   -3.8362   -0.2863   -2.3576 C   0  0  0  0  0  0  0  0  0  0  0  0
   -5.0811   -2.6609    0.0014 C   0  0  0  0  0  0  0  0  0  0  0  0
   -2.6655   -2.4070    1.7841 C   0  0  0  0  0  0  0  0  0  0  0  0
   -3.8344   -0.2851    2.3583 C   0  0  0  0  0  0  0  0  0  0  0  0
   -2.4540    1.5320   -0.0004 C   0  0  0  0  0  0  0  0  0  0  0  0
   -3.7603    2.0753   -0.0002 C   0  0  0  0  0  0  0  0  0  0  0  0
   -3.9630    3.4629   -0.0001 C   0  0  0  0  0  0  0  0  0  0  0  0
   -2.8661    4.3396   -0.0002 C   0  0  0  0  0  0  0  0  0  0  0  0
   -1.5658    3.8161   -0.0004 C   0  0  0  0  0  0  0  0  0  0  0  0
   -1.3638    2.4282   -0.0004 C   0  0  0  0  0  0  0  0  0  0  0  0
   -0.3437    2.0173   -0.0005 H   0  0  0  0  0  0  0  0  0  0  0  0
   -0.6899    4.4827   -0.0004 H   0  0  0  0  0  0  0  0  0  0  0  0
   -3.0290    5.4283   -0.0002 H   0  0  0  0  0  0  0  0  0  0  0  0
   -4.9895    3.8601   -0.0000 H   0  0  0  0  0  0  0  0  0  0  0  0
   -4.6419    1.4197   -0.0001 H   0  0  0  0  0  0  0  0  0  0  0  0
   -4.9918   -0.5241    0.0009 H   0  0  0  0  0  0  0  0  0  0  0  0
   -2.2641   -3.0929   -1.0166 H   0  0  0  0  0  0  0  0  0  0  0  0
   -1.8305   -2.1539   -2.4638 H   0  0  0  0  0  0  0  0  0  0  0  0
   -3.4284   -2.9635   -2.3700 H   0  0  0  0  0  0  0  0  0  0  0  0
   -4.2788    0.6702   -2.0246 H   0  0  0  0  0  0  0  0  0  0  0  0
   -4.6219   -0.8555   -2.8999 H   0  0  0  0  0  0  0  0  0  0  0  0
   -3.0325   -0.0489   -3.0838 H   0  0  0  0  0  0  0  0  0  0  0  0
   -5.7360   -2.7157   -0.8923 H   0  0  0  0  0  0  0  0  0  0  0  0
   -5.7353   -2.7153    0.8957 H   0  0  0  0  0  0  0  0  0  0  0  0
   -4.4381   -3.5619    0.0014 H   0  0  0  0  0  0  0  0  0  0  0  0
   -1.8290   -2.1526    2.4645 H   0  0  0  0  0  0  0  0  0  0  0  0
   -2.2627   -3.0922    1.0177 H   0  0  0  0  0  0  0  0  0  0  0  0
   -3.4267   -2.9625    2.3714 H   0  0  0  0  0  0  0  0  0  0  0  0
   -4.2772    0.6712    2.0250 H   0  0  0  0  0  0  0  0  0  0  0  0
   -3.0303   -0.0474    3.0838 H   0  0  0  0  0  0  0  0  0  0  0  0
   -4.6198   -0.8540    2.9013 H   0  0  0  0  0  0  0  0  0  0  0  0
  1 10  1  1  0  0  0
  1  4  1  0  0  0  0
  2  1  1  0  0  0  0
  2  3  1  0  0  0  0
  3 21  1  1  0  0  0
  3  7  1  0  0  0  0
  3  4  1  0  0  0  0
  4  8  1  0  0  0  0
  4  9  1  0  0  0  0
  5  2  1  0  0  0  0
  5 22  1  0  0  0  0
  6 25  1  0  0  0  0
  6  2  1  0  0  0  0
  7 29  1  0  0  0  0
  8 33  1  0  0  0  0
  8 31  1  0  0  0  0
  9 36  1  0  0  0  0
  9 35  1  0  0  0  0
 10 11  1  0  0  0  0
 11 12  2  0  0  0  0
 11 20  1  0  0  0  0
 12 19  1  0  0  0  0
 13 18  1  0  0  0  0
 13 12  1  0  0  0  0
 14 13  2  0  0  0  0
 15 10  2  0  0  0  0
 15 14  1  0  0  0  0
 16 15  1  0  0  0  0
 17 14  1  0  0  0  0
 23  5  1  0  0  0  0
 24  5  1  0  0  0  0
 26  6  1  0  0  0  0
 27  6  1  0  0  0  0
 28  7  1  0  0  0  0
 30  7  1  0  0  0  0
 32  8  1  0  0  0  0
 34  9  1  0  0  0  0
M  END
