1
 OpenBabel05122313063D

 20 20  0  0  0  0  0  0  0  0999 V2000
   -2.1990   -0.8458   -0.0054 P   0  0  1  0  0  0  0  0  0  0  0  0
   -3.1104    0.5386    0.0856 O   0  0  0  0  0  0  0  0  0  0  0  0
   -2.7419   -1.9467    1.1266 N   0  0  0  0  0  0  0  0  0  0  0  0
   -3.0523   -1.8009   -1.3001 N   0  0  0  0  0  0  0  0  0  0  0  0
   -3.6484   -2.9659    0.5663 C   0  0  0  0  0  0  0  0  0  0  0  0
   -4.6611   -2.9319    1.0341 H   0  0  0  0  0  0  0  0  0  0  0  0
   -3.2535   -3.9887    0.7749 H   0  0  0  0  0  0  0  0  0  0  0  0
   -3.7897   -2.8171   -0.9106 C   0  0  0  0  0  2  0  0  0  0  0  0
   -2.2259   -2.0790    2.4793 C   0  0  0  0  0  0  0  0  0  0  0  0
   -1.7738   -3.0830    2.6341 H   0  0  0  0  0  0  0  0  0  0  0  0
   -3.0273   -1.9377    3.2359 H   0  0  0  0  0  0  0  0  0  0  0  0
   -1.4400   -1.3206    2.6635 H   0  0  0  0  0  0  0  0  0  0  0  0
   -2.9011   -1.3578   -2.6857 C   0  0  0  0  0  0  0  0  0  0  0  0
   -3.2549   -0.3129   -2.7959 H   0  0  0  0  0  0  0  0  0  0  0  0
   -3.5003   -2.0289   -3.3264 H   0  0  0  0  0  0  0  0  0  0  0  0
   -1.8326   -1.4032   -2.9798 H   0  0  0  0  0  0  0  0  0  0  0  0
   -4.5260    0.4460    0.3028 C   0  0  0  0  0  0  0  0  0  0  0  0
   -4.9070    1.4814    0.3770 H   0  0  0  0  0  0  0  0  0  0  0  0
   -4.7492   -0.0959    1.2454 H   0  0  0  0  0  0  0  0  0  0  0  0
   -5.0330   -0.0717   -0.5399 H   0  0  0  0  0  0  0  0  0  0  0  0
  1  2  1  1  0  0  0
  1  3  1  0  0  0  0
  2 17  1  0  0  0  0
  3  9  1  0  0  0  0
  4  8  1  0  0  0  0
  4  1  1  0  0  0  0
  5  7  1  0  0  0  0
  5  6  1  0  0  0  0
  5  3  1  0  0  0  0
  8  5  1  0  0  0  0
  9 10  1  0  0  0  0
  9 12  1  0  0  0  0
  9 11  1  0  0  0  0
 13  4  1  0  0  0  0
 14 13  1  0  0  0  0
 15 13  1  0  0  0  0
 16 13  1  0  0  0  0
 17 18  1  0  0  0  0
 17 19  1  0  0  0  0
 20 17  1  0  0  0  0
M  END
