2
 OpenBabel05122313063D

 35 37  0  0  0  0  0  0  0  0999 V2000
   -3.3133   -1.1502   -2.7824 Br  0  0  0  0  0  0  0  0  0  0  0  0
   -2.3063   -0.2947    0.0940 P   0  0  2  0  0  0  0  0  0  0  0  0
   -3.8449    1.9162    0.9610 C   0  0  0  0  0  0  0  0  0  0  0  0
   -3.8242    1.3577   -1.5174 C   0  0  0  0  0  0  0  0  0  0  0  0
   -4.3177    1.6126   -2.4703 H   0  0  0  0  0  0  0  0  0  0  0  0
   -4.5129    2.6332    1.9742 C   0  0  0  0  0  0  0  0  0  0  0  0
   -5.0313    3.5691    1.7269 H   0  0  0  0  0  0  0  0  0  0  0  0
   -2.7292   -2.0364    0.4564 C   0  0  0  0  0  0  0  0  0  0  0  0
   -3.7588    2.4674   -0.4728 C   0  0  0  0  0  0  0  0  0  0  0  0
   -4.0690   -2.4026    0.6973 C   0  0  0  0  0  0  0  0  0  0  0  0
   -4.8575   -1.6343    0.6966 H   0  0  0  0  0  0  0  0  0  0  0  0
   -3.2005    0.7095    1.3340 C   0  0  0  0  0  0  0  0  0  0  0  0
   -4.5324    2.1843    3.3026 C   0  0  0  0  0  0  0  0  0  0  0  0
   -5.0655    2.7718    4.0656 H   0  0  0  0  0  0  0  0  0  0  0  0
   -3.2655    0.1388   -1.3919 C   0  0  0  0  0  0  0  0  0  0  0  0
   -2.0459   -4.3553    0.6947 C   0  0  0  0  0  0  0  0  0  0  0  0
   -1.2535   -5.1188    0.6945 H   0  0  0  0  0  0  0  0  0  0  0  0
   -3.2108    0.2601    2.6703 C   0  0  0  0  0  0  0  0  0  0  0  0
   -2.6790   -0.6661    2.9296 H   0  0  0  0  0  0  0  0  0  0  0  0
   -3.8767    0.9970    3.6562 C   0  0  0  0  0  0  0  0  0  0  0  0
   -3.8809    0.6426    4.6977 H   0  0  0  0  0  0  0  0  0  0  0  0
   -1.7162   -3.0130    0.4550 C   0  0  0  0  0  0  0  0  0  0  0  0
   -0.6750   -2.7072    0.2716 H   0  0  0  0  0  0  0  0  0  0  0  0
   -4.3901   -3.7451    0.9374 C   0  0  0  0  0  0  0  0  0  0  0  0
   -5.4357   -4.0322    1.1254 H   0  0  0  0  0  0  0  0  0  0  0  0
   -3.3790   -4.7214    0.9363 C   0  0  0  0  0  0  0  0  0  0  0  0
   -3.6343   -5.7753    1.1261 H   0  0  0  0  0  0  0  0  0  0  0  0
   -2.3928    3.2001   -0.6164 C   0  0  0  0  0  0  0  0  0  0  0  0
   -1.5470    2.5237   -0.3786 H   0  0  0  0  0  0  0  0  0  0  0  0
   -2.2486    3.5605   -1.6544 H   0  0  0  0  0  0  0  0  0  0  0  0
   -2.3578    4.0650    0.0763 H   0  0  0  0  0  0  0  0  0  0  0  0
   -4.8917    3.4647   -0.7868 C   0  0  0  0  0  0  0  0  0  0  0  0
   -4.8233    4.3745   -0.1604 H   0  0  0  0  0  0  0  0  0  0  0  0
   -4.8143    3.7924   -1.8425 H   0  0  0  0  0  0  0  0  0  0  0  0
   -5.8908    3.0087   -0.6379 H   0  0  0  0  0  0  0  0  0  0  0  0
  1 15  1  0  0  0  0
  2  8  1  1  0  0  0
  2 12  1  0  0  0  0
  3 12  2  0  0  0  0
  3  6  1  0  0  0  0
  4 15  2  0  0  0  0
  4  9  1  0  0  0  0
  5  4  1  0  0  0  0
  6 13  2  0  0  0  0
  7  6  1  0  0  0  0
  8 10  1  0  0  0  0
  9  3  1  0  0  0  0
 10 24  2  0  0  0  0
 11 10  1  0  0  0  0
 12 18  1  0  0  0  0
 13 20  1  0  0  0  0
 13 14  1  0  0  0  0
 15  2  1  0  0  0  0
 16 26  2  0  0  0  0
 17 16  1  0  0  0  0
 18 19  1  0  0  0  0
 18 20  2  0  0  0  0
 20 21  1  0  0  0  0
 22  8  2  0  0  0  0
 22 16  1  0  0  0  0
 23 22  1  0  0  0  0
 24 25  1  0  0  0  0
 26 24  1  0  0  0  0
 26 27  1  0  0  0  0
 28  9  1  0  0  0  0
 28 29  1  0  0  0  0
 28 31  1  0  0  0  0
 30 28  1  0  0  0  0
 32 35  1  0  0  0  0
 32  9  1  0  0  0  0
 32 33  1  0  0  0  0
 34 32  1  0  0  0  0
M  END
