1
 OpenBabel05122313063D

 30 34  0  0  1  0  0  0  0  0999 V2000
   -0.8027   -0.1274    0.2942 P   0  0  2  0  0  0  0  0  0  0  0  0
   -1.7641   -1.5822   -0.3102 C   0  0  2  0  0  0  0  0  0  0  0  0
   -1.5150   -1.5856    1.1479 C   0  0  0  0  0  0  0  0  0  0  0  0
   -1.6528   -2.5824   -1.4342 C   0  0  0  0  0  0  0  0  0  0  0  0
   -1.0224   -2.3128   -2.2985 H   0  0  0  0  0  0  0  0  0  0  0  0
   -1.6263   -3.6504   -1.1552 H   0  0  0  0  0  0  0  0  0  0  0  0
   -2.9131   -1.8026   -1.2018 C   0  0  0  0  0  0  0  0  0  0  0  0
   -0.9416   -2.6063    2.0781 C   0  0  0  0  0  0  0  0  0  0  0  0
   -0.9353   -3.6516    1.7283 H   0  0  0  0  0  0  0  0  0  0  0  0
   -0.0742   -2.3202    2.6933 H   0  0  0  0  0  0  0  0  0  0  0  0
   -2.2803   -1.9531    2.3816 C   0  0  0  0  0  0  0  0  0  0  0  0
   -3.1970   -2.5505    2.2456 H   0  0  0  0  0  0  0  0  0  0  0  0
   -2.3217   -1.2272    3.2092 H   0  0  0  0  0  0  0  0  0  0  0  0
   -4.3730   -2.0630   -1.0519 C   0  0  0  0  0  0  0  0  0  0  0  0
   -4.7860   -2.9855   -1.4917 H   0  0  0  0  0  0  0  0  0  0  0  0
   -4.8653   -1.7375   -0.1208 H   0  0  0  0  0  0  0  0  0  0  0  0
   -3.8619   -0.9792   -2.0001 C   0  0  0  0  0  0  0  0  0  0  0  0
   -4.0075    0.0731   -1.7076 H   0  0  0  0  0  0  0  0  0  0  0  0
   -3.9234   -1.1734   -3.0831 H   0  0  0  0  0  0  0  0  0  0  0  0
   -2.0314    1.2311    0.3571 C   0  0  0  0  0  0  0  0  0  0  0  0
   -3.2996    1.0785    0.9567 C   0  0  0  0  0  0  0  0  0  0  0  0
   -3.5661    0.1293    1.4423 H   0  0  0  0  0  0  0  0  0  0  0  0
   -4.2213    2.1342    0.9268 C   0  0  0  0  0  0  0  0  0  0  0  0
   -5.2082    2.0084    1.3977 H   0  0  0  0  0  0  0  0  0  0  0  0
   -3.8893    3.3482    0.3015 C   0  0  0  0  0  0  0  0  0  0  0  0
   -4.6159    4.1744    0.2807 H   0  0  0  0  0  0  0  0  0  0  0  0
   -2.6285    3.5042   -0.2940 C   0  0  0  0  0  0  0  0  0  0  0  0
   -2.3612    4.4514   -0.7860 H   0  0  0  0  0  0  0  0  0  0  0  0
   -1.7010    2.4515   -0.2653 C   0  0  0  0  0  0  0  0  0  0  0  0
   -0.7152    2.5741   -0.7385 H   0  0  0  0  0  0  0  0  0  0  0  0
  1 20  1  1  0  0  0
  1  3  1  0  0  0  0
  2  4  1  6  0  0  0
  2  1  1  0  0  0  0
  2  3  1  0  0  0  0
  3  8  1  0  0  0  0
  3 11  1  0  0  0  0
  4  7  1  0  0  0  0
  4  6  1  0  0  0  0
  5  4  1  0  0  0  0
  7 14  1  0  0  0  0
  7  2  1  0  0  0  0
  8 11  1  0  0  0  0
  8 10  1  0  0  0  0
  9  8  1  0  0  0  0
 11 13  1  0  0  0  0
 12 11  1  0  0  0  0
 14 16  1  0  0  0  0
 15 14  1  0  0  0  0
 17 18  1  0  0  0  0
 17  7  1  0  0  0  0
 17 14  1  0  0  0  0
 19 17  1  0  0  0  0
 20 21  1  0  0  0  0
 21 22  1  0  0  0  0
 23 21  2  0  0  0  0
 23 24  1  0  0  0  0
 25 23  1  0  0  0  0
 26 25  1  0  0  0  0
 27 29  1  0  0  0  0
 27 25  2  0  0  0  0
 28 27  1  0  0  0  0
 29 20  2  0  0  0  0
 30 29  1  0  0  0  0
M  END
