1
 OpenBabel05122313063D

 31 32  0  0  0  0  0  0  0  0999 V2000
    0.2130    1.3000   -0.5100 P   0  0  0  0  0  0  0  0  0  0  0  0
   -0.5357    2.3189   -1.8864 C   0  0  0  0  0  0  0  0  0  0  0  0
   -0.2367    1.8219   -2.8321 H   0  0  0  0  0  0  0  0  0  0  0  0
   -1.6253    2.1401   -1.7688 H   0  0  0  0  0  0  0  0  0  0  0  0
   -0.1710    3.7679   -1.8403 C   0  0  0  0  0  0  0  0  0  0  0  0
    0.8239    4.0419   -2.2331 H   0  0  0  0  0  0  0  0  0  0  0  0
   -0.9495    4.7287   -1.3087 C   0  0  0  0  0  0  0  0  0  0  0  0
   -1.9409    4.4952   -0.8865 H   0  0  0  0  0  0  0  0  0  0  0  0
   -0.6205    5.7785   -1.2739 H   0  0  0  0  0  0  0  0  0  0  0  0
   -0.2859    2.2339    0.9924 C   0  0  0  0  0  0  0  0  0  0  0  0
   -1.5816    2.0044    1.5014 C   0  0  0  0  0  0  0  0  0  0  0  0
   -2.2390    1.2757    0.9994 H   0  0  0  0  0  0  0  0  0  0  0  0
   -2.0418    2.7262    2.6122 C   0  0  0  0  0  0  0  0  0  0  0  0
   -3.0556    2.5388    2.9980 H   0  0  0  0  0  0  0  0  0  0  0  0
   -1.2165    3.6811    3.2266 C   0  0  0  0  0  0  0  0  0  0  0  0
   -1.5764    4.2425    4.1024 H   0  0  0  0  0  0  0  0  0  0  0  0
    0.0659    3.9272    2.7114 C   0  0  0  0  0  0  0  0  0  0  0  0
    0.7113    4.6886    3.1755 H   0  0  0  0  0  0  0  0  0  0  0  0
    0.5284    3.2156    1.5942 C   0  0  0  0  0  0  0  0  0  0  0  0
    1.5260    3.4309    1.1858 H   0  0  0  0  0  0  0  0  0  0  0  0
    2.0262    1.5277   -0.6526 C   0  0  0  0  0  0  0  0  0  0  0  0
    2.6352    1.7635   -1.9023 C   0  0  0  0  0  0  0  0  0  0  0  0
    2.0206    1.9500   -2.7950 H   0  0  0  0  0  0  0  0  0  0  0  0
    4.0339    1.7556   -2.0258 C   0  0  0  0  0  0  0  0  0  0  0  0
    4.4930    1.9438   -3.0081 H   0  0  0  0  0  0  0  0  0  0  0  0
    4.8408    1.5091   -0.9058 C   0  0  0  0  0  0  0  0  0  0  0  0
    5.9368    1.5003   -1.0049 H   0  0  0  0  0  0  0  0  0  0  0  0
    4.2423    1.2659    0.3412 C   0  0  0  0  0  0  0  0  0  0  0  0
    4.8656    1.0549    1.2229 H   0  0  0  0  0  0  0  0  0  0  0  0
    2.8479    1.2703    0.4677 C   0  0  0  0  0  0  0  0  0  0  0  0
    2.3914    1.0546    1.4445 H   0  0  0  0  0  0  0  0  0  0  0  0
  1 10  1  0  0  0  0
  2  5  1  0  0  0  0
  2  4  1  0  0  0  0
  2  1  1  0  0  0  0
  3  2  1  0  0  0  0
  5  7  2  0  0  0  0
  6  5  1  0  0  0  0
  7  9  1  0  0  0  0
  7  8  1  0  0  0  0
 10 11  2  0  0  0  0
 10 19  1  0  0  0  0
 11 13  1  0  0  0  0
 12 11  1  0  0  0  0
 13 14  1  0  0  0  0
 13 15  2  0  0  0  0
 15 16  1  0  0  0  0
 17 18  1  0  0  0  0
 17 15  1  0  0  0  0
 19 17  2  0  0  0  0
 20 19  1  0  0  0  0
 21  1  1  0  0  0  0
 21 30  1  0  0  0  0
 22 21  2  0  0  0  0
 23 22  1  0  0  0  0
 24 22  1  0  0  0  0
 24 26  2  0  0  0  0
 25 24  1  0  0  0  0
 26 28  1  0  0  0  0
 27 26  1  0  0  0  0
 28 30  2  0  0  0  0
 28 29  1  0  0  0  0
 30 31  1  0  0  0  0
M  END
