1
 OpenBabel05122313063D

 45 48  0  0  1  0  0  0  0  0999 V2000
    0.0442   -1.0072    0.1962 P   0  0  2  0  0  0  0  0  0  0  0  0
    0.6422   -1.9280    1.4953 O   0  0  0  0  0  0  0  0  0  0  0  0
    0.7477   -3.1611    0.6916 C   0  0  1  0  0  0  0  0  0  0  0  0
   -0.1384   -3.7932    0.9219 H   0  0  0  0  0  0  0  0  0  0  0  0
    0.6108   -2.5151   -0.7119 C   0  0  0  0  0  0  0  0  0  0  0  0
   -0.1149   -2.9636   -1.4132 H   0  0  0  0  0  0  0  0  0  0  0  0
    1.5943   -2.3651   -1.1985 H   0  0  0  0  0  0  0  0  0  0  0  0
    2.0226   -3.9168    0.9929 C   0  0  0  0  0  0  0  0  0  0  0  0
    2.0428   -4.8631    0.4149 H   0  0  0  0  0  0  0  0  0  0  0  0
    2.9159   -3.3186    0.7280 H   0  0  0  0  0  0  0  0  0  0  0  0
    2.0706   -4.1717    2.0703 H   0  0  0  0  0  0  0  0  0  0  0  0
    1.1954    0.4659   -0.2095 C   0  0  0  0  0  0  0  0  0  0  0  0
    1.1587    1.5026    0.9228 C   0  0  0  0  0  0  0  0  0  0  0  0
    0.5399    1.2759    2.1656 C   0  0  0  0  0  0  0  0  0  0  0  0
    0.0386    0.3198    2.3811 H   0  0  0  0  0  0  0  0  0  0  0  0
    0.5605    2.2624    3.1666 C   0  0  0  0  0  0  0  0  0  0  0  0
    0.0659    2.0645    4.1293 H   0  0  0  0  0  0  0  0  0  0  0  0
    1.2045    3.4855    2.9402 C   0  0  0  0  0  0  0  0  0  0  0  0
    1.2184    4.2580    3.7238 H   0  0  0  0  0  0  0  0  0  0  0  0
    1.8385    3.7160    1.7071 C   0  0  0  0  0  0  0  0  0  0  0  0
    2.3548    4.6699    1.5206 H   0  0  0  0  0  0  0  0  0  0  0  0
    1.8193    2.7322    0.7116 C   0  0  0  0  0  0  0  0  0  0  0  0
    2.3224    2.9148   -0.2502 H   0  0  0  0  0  0  0  0  0  0  0  0
    0.4618    0.9328   -1.4787 C   0  0  0  0  0  0  0  0  0  0  0  0
   -0.4416    2.0178   -1.4342 C   0  0  0  0  0  0  0  0  0  0  0  0
   -0.5446    2.5988   -0.5078 H   0  0  0  0  0  0  0  0  0  0  0  0
   -1.2226    2.3518   -2.5489 C   0  0  0  0  0  0  0  0  0  0  0  0
   -1.9223    3.1980   -2.4830 H   0  0  0  0  0  0  0  0  0  0  0  0
   -1.1324    1.6007   -3.7300 C   0  0  0  0  0  0  0  0  0  0  0  0
   -1.7526    1.8593   -4.6011 H   0  0  0  0  0  0  0  0  0  0  0  0
   -0.2552    0.5080   -3.7857 C   0  0  0  0  0  0  0  0  0  0  0  0
   -0.1806   -0.0967   -4.7020 H   0  0  0  0  0  0  0  0  0  0  0  0
    0.5291    0.1740   -2.6720 C   0  0  0  0  0  0  0  0  0  0  0  0
    1.2055   -0.6892   -2.7393 H   0  0  0  0  0  0  0  0  0  0  0  0
    2.6543    0.0336   -0.3930 C   0  0  0  0  0  0  0  0  0  0  0  0
    3.3997    0.3338   -1.5514 C   0  0  0  0  0  0  0  0  0  0  0  0
    2.9239    0.8640   -2.3876 H   0  0  0  0  0  0  0  0  0  0  0  0
    4.7572   -0.0153   -1.6433 C   0  0  0  0  0  0  0  0  0  0  0  0
    5.3185    0.2343   -2.5566 H   0  0  0  0  0  0  0  0  0  0  0  0
    5.3966   -0.6669   -0.5795 C   0  0  0  0  0  0  0  0  0  0  0  0
    6.4598   -0.9409   -0.6535 H   0  0  0  0  0  0  0  0  0  0  0  0
    4.6705   -0.9476    0.5896 C   0  0  0  0  0  0  0  0  0  0  0  0
    5.1642   -1.4381    1.4425 H   0  0  0  0  0  0  0  0  0  0  0  0
    3.3188   -0.5924    0.6860 C   0  0  0  0  0  0  0  0  0  0  0  0
    2.7634   -0.7984    1.6113 H   0  0  0  0  0  0  0  0  0  0  0  0
  1 12  1  6  0  0  0
  1  2  1  0  0  0  0
  3  4  1  1  0  0  0
  3  8  1  0  0  0  0
  3  2  1  0  0  0  0
  5  1  1  0  0  0  0
  5  3  1  0  0  0  0
  6  5  1  0  0  0  0
  7  5  1  0  0  0  0
  8 11  1  0  0  0  0
  9  8  1  0  0  0  0
 10  8  1  0  0  0  0
 12 13  1  0  0  0  0
 13 14  1  0  0  0  0
 14 15  1  0  0  0  0
 14 16  2  0  0  0  0
 16 17  1  0  0  0  0
 18 16  1  0  0  0  0
 18 19  1  0  0  0  0
 20 18  2  0  0  0  0
 21 20  1  0  0  0  0
 22 13  2  0  0  0  0
 22 20  1  0  0  0  0
 23 22  1  0  0  0  0
 24 25  1  0  0  0  0
 24 12  1  0  0  0  0
 25 26  1  0  0  0  0
 27 28  1  0  0  0  0
 27 25  2  0  0  0  0
 29 27  1  0  0  0  0
 30 29  1  0  0  0  0
 31 29  2  0  0  0  0
 31 33  1  0  0  0  0
 32 31  1  0  0  0  0
 33 24  2  0  0  0  0
 34 33  1  0  0  0  0
 35 12  1  0  0  0  0
 35 44  1  0  0  0  0
 36 35  2  0  0  0  0
 37 36  1  0  0  0  0
 38 36  1  0  0  0  0
 38 40  2  0  0  0  0
 39 38  1  0  0  0  0
 40 42  1  0  0  0  0
 41 40  1  0  0  0  0
 42 44  2  0  0  0  0
 42 43  1  0  0  0  0
 44 45  1  0  0  0  0
M  END
