2
 OpenBabel05122313063D

 33 35  0  0  0  0  0  0  0  0999 V2000
    6.8442   -0.8703    1.1885 Cl  0  0  0  0  0  0  0  0  0  0  0  0
    1.7382   -0.0648   -0.0656 P   0  0  1  0  0  0  0  0  0  0  0  0
    1.3392   -0.5851   -1.6265 O   0  0  0  0  0  0  0  0  0  0  0  0
    3.2315   -3.5583    0.5216 O   0  0  0  0  0  0  0  0  0  0  0  0
    2.9184   -1.2988    0.2665 N   0  0  0  0  0  0  0  0  0  0  0  0
    2.5631   -2.6423    0.0549 C   0  0  0  0  0  0  0  0  0  0  0  0
    1.3733   -2.8771   -0.8229 C   0  0  0  0  0  0  0  0  0  0  0  0
    0.8394   -4.1796   -0.9009 C   0  0  0  0  0  0  0  0  0  0  0  0
    1.2708   -4.9435   -0.2374 H   0  0  0  0  0  0  0  0  0  0  0  0
   -0.1825   -4.4784   -1.8065 C   0  0  0  0  0  0  0  0  0  0  0  0
   -0.6030   -5.4935   -1.8488 H   0  0  0  0  0  0  0  0  0  0  0  0
   -0.6617   -3.4796   -2.6742 C   0  0  0  0  0  0  0  0  0  0  0  0
   -1.4651   -3.7098   -3.3895 H   0  0  0  0  0  0  0  0  0  0  0  0
   -0.1443   -2.1796   -2.6199 C   0  0  0  0  0  0  0  0  0  0  0  0
   -0.5267   -1.3769   -3.2634 H   0  0  0  0  0  0  0  0  0  0  0  0
    0.8577   -1.8792   -1.6848 C   0  0  0  0  0  0  0  0  0  0  0  0
    2.6824    1.4285   -0.4388 C   0  0  0  0  0  0  0  0  0  0  0  0
    3.5404    1.4568   -1.5588 C   0  0  0  0  0  0  0  0  0  0  0  0
    3.6455    0.5645   -2.1935 H   0  0  0  0  0  0  0  0  0  0  0  0
    4.2331    2.6354   -1.8623 C   0  0  0  0  0  0  0  0  0  0  0  0
    4.9046    2.6661   -2.7336 H   0  0  0  0  0  0  0  0  0  0  0  0
    4.0717    3.7750   -1.0545 C   0  0  0  0  0  0  0  0  0  0  0  0
    4.6212    4.6976   -1.2956 H   0  0  0  0  0  0  0  0  0  0  0  0
    3.2152    3.7412    0.0570 C   0  0  0  0  0  0  0  0  0  0  0  0
    3.0903    4.6337    0.6876 H   0  0  0  0  0  0  0  0  0  0  0  0
    2.5137    2.5683    0.3706 C   0  0  0  0  0  0  0  0  0  0  0  0
    1.8520    2.5176    1.2487 H   0  0  0  0  0  0  0  0  0  0  0  0
    4.1276   -1.0338    1.0608 C   0  0  0  0  0  0  0  0  0  0  0  0
    4.1375   -1.7168    1.9317 H   0  0  0  0  0  0  0  0  0  0  0  0
    4.0805    0.0002    1.4457 H   0  0  0  0  0  0  0  0  0  0  0  0
    5.3798   -1.2406    0.2118 C   0  0  0  0  0  0  0  0  0  0  0  0
    5.3850   -0.5648   -0.6652 H   0  0  0  0  0  0  0  0  0  0  0  0
    5.4570   -2.2906   -0.1266 H   0  0  0  0  0  0  0  0  0  0  0  0
  2 17  1  6  0  0  0
  2  5  1  0  0  0  0
  3  2  1  0  0  0  0
  5 28  1  0  0  0  0
  6  5  1  0  0  0  0
  6  4  2  0  0  0  0
  7  6  1  0  0  0  0
  8  7  1  0  0  0  0
  8  9  1  0  0  0  0
 10  8  2  0  0  0  0
 11 10  1  0  0  0  0
 12 14  2  0  0  0  0
 12 10  1  0  0  0  0
 13 12  1  0  0  0  0
 14 16  1  0  0  0  0
 15 14  1  0  0  0  0
 16  3  1  0  0  0  0
 16  7  2  0  0  0  0
 17 26  1  0  0  0  0
 18 17  2  0  0  0  0
 19 18  1  0  0  0  0
 20 18  1  0  0  0  0
 20 22  2  0  0  0  0
 21 20  1  0  0  0  0
 22 24  1  0  0  0  0
 23 22  1  0  0  0  0
 24 26  2  0  0  0  0
 24 25  1  0  0  0  0
 26 27  1  0  0  0  0
 28 30  1  0  0  0  0
 28 29  1  0  0  0  0
 31 28  1  0  0  0  0
 31  1  1  0  0  0  0
 32 31  1  0  0  0  0
 33 31  1  0  0  0  0
M  END
