72
 OpenBabel05122313063D

 74 78  0  0  1  0  0  0  0  0999 V2000
    0.4924   -0.4987   -2.9059 C   0  0  0  0  0  0  0  0  0  0  0  0
   -0.2634   -1.1339   -3.4091 H   0  0  0  0  0  0  0  0  0  0  0  0
    1.4799   -0.8321   -3.2863 H   0  0  0  0  0  0  0  0  0  0  0  0
    0.3419    0.5397   -3.2886 H   0  0  0  0  0  0  0  0  0  0  0  0
    1.9630    1.7899   -0.5390 C   0  0  0  0  0  0  0  0  0  0  0  0
    1.3998    2.5977    0.4752 C   0  0  0  0  0  0  0  0  0  0  0  0
    1.0086    2.1477    1.4013 H   0  0  0  0  0  0  0  0  0  0  0  0
    1.2951    3.9838    0.2924 C   0  0  0  0  0  0  0  0  0  0  0  0
    0.8548    4.5985    1.0919 H   0  0  0  0  0  0  0  0  0  0  0  0
    1.7329    4.5801   -0.9012 C   0  0  0  0  0  0  0  0  0  0  0  0
    1.6426    5.6680   -1.0416 H   0  0  0  0  0  0  0  0  0  0  0  0
    2.2818    3.7822   -1.9185 C   0  0  0  0  0  0  0  0  0  0  0  0
    2.6226    4.2414   -2.8589 H   0  0  0  0  0  0  0  0  0  0  0  0
    2.3952    2.3956   -1.7423 C   0  0  0  0  0  0  0  0  0  0  0  0
    2.8170    1.7777   -2.5500 H   0  0  0  0  0  0  0  0  0  0  0  0
    3.3075   -0.7156   -1.2739 C   0  0  0  0  0  0  0  0  0  0  0  0
    3.2677   -2.0256   -1.7924 C   0  0  0  0  0  0  0  0  0  0  0  0
    2.3054   -2.5614   -1.8127 H   0  0  0  0  0  0  0  0  0  0  0  0
    4.4413   -2.6290   -2.2652 C   0  0  0  0  0  0  0  0  0  0  0  0
    4.4042   -3.6499   -2.6745 H   0  0  0  0  0  0  0  0  0  0  0  0
    5.6614   -1.9349   -2.2121 C   0  0  0  0  0  0  0  0  0  0  0  0
    6.5824   -2.4103   -2.5822 H   0  0  0  0  0  0  0  0  0  0  0  0
    5.7065   -0.6372   -1.6788 C   0  0  0  0  0  0  0  0  0  0  0  0
    6.6623   -0.0943   -1.6264 H   0  0  0  0  0  0  0  0  0  0  0  0
    4.5343   -0.0272   -1.2065 C   0  0  0  0  0  0  0  0  0  0  0  0
    4.5749    0.9866   -0.7812 H   0  0  0  0  0  0  0  0  0  0  0  0
    1.9097   -0.6034    1.2177 C   0  0  0  0  0  0  0  0  0  0  0  0
    2.6222    0.1427    2.1765 C   0  0  0  0  0  0  0  0  0  0  0  0
    3.0655    1.1129    1.9122 H   0  0  0  0  0  0  0  0  0  0  0  0
    2.7406   -0.3422    3.4862 C   0  0  0  0  0  0  0  0  0  0  0  0
    3.2656    0.2601    4.2422 H   0  0  0  0  0  0  0  0  0  0  0  0
    2.1820   -1.5805    3.8353 C   0  0  0  0  0  0  0  0  0  0  0  0
    2.2633   -1.9483    4.8691 H   0  0  0  0  0  0  0  0  0  0  0  0
    1.5240   -2.3515    2.8642 C   0  0  0  0  0  0  0  0  0  0  0  0
    1.0966   -3.3301    3.1293 H   0  0  0  0  0  0  0  0  0  0  0  0
    1.3908   -1.8690    1.5569 C   0  0  0  0  0  0  0  0  0  0  0  0
    0.8686   -2.4566    0.7908 H   0  0  0  0  0  0  0  0  0  0  0  0
   -2.2260   -1.9713   -0.7876 C   0  0  0  0  0  0  0  0  0  0  0  0
   -3.2084   -1.6697   -0.3575 H   0  0  0  0  0  0  0  0  0  0  0  0
   -1.6677   -3.1022    0.0889 C   0  0  0  0  0  0  0  0  0  0  0  0
   -1.5372   -2.7402    1.1304 H   0  0  0  0  0  0  0  0  0  0  0  0
   -0.6563   -3.3724   -0.2910 H   0  0  0  0  0  0  0  0  0  0  0  0
   -2.5723   -4.3415    0.0514 C   0  0  0  0  0  0  0  0  0  0  0  0
   -2.1295   -5.1533    0.6660 H   0  0  0  0  0  0  0  0  0  0  0  0
   -3.5489   -4.0911    0.5230 H   0  0  0  0  0  0  0  0  0  0  0  0
   -2.8122   -4.8232   -1.3848 C   0  0  0  0  0  0  0  0  0  0  0  0
   -3.5023   -5.6927   -1.3945 H   0  0  0  0  0  0  0  0  0  0  0  0
   -1.8495   -5.1830   -1.8140 H   0  0  0  0  0  0  0  0  0  0  0  0
   -3.3597   -3.6933   -2.2653 C   0  0  0  0  0  0  0  0  0  0  0  0
   -4.3727   -3.4045   -1.9049 H   0  0  0  0  0  0  0  0  0  0  0  0
   -3.4881   -4.0409   -3.3121 H   0  0  0  0  0  0  0  0  0  0  0  0
   -2.4456   -2.4588   -2.2292 C   0  0  0  0  0  0  0  0  0  0  0  0
   -2.8703   -1.6516   -2.8617 H   0  0  0  0  0  0  0  0  0  0  0  0
   -1.4591   -2.7254   -2.6678 H   0  0  0  0  0  0  0  0  0  0  0  0
   -1.4534    2.2157   -1.5494 C   0  0  0  0  0  0  0  0  0  0  0  0
   -0.4003    2.1339   -1.8835 H   0  0  0  0  0  0  0  0  0  0  0  0
   -1.4119    2.5124   -0.4779 H   0  0  0  0  0  0  0  0  0  0  0  0
   -2.1895    3.2950   -2.3510 C   0  0  0  0  0  0  0  0  0  0  0  0
   -1.6657    4.2672   -2.2341 H   0  0  0  0  0  0  0  0  0  0  0  0
   -2.1461    3.0438   -3.4353 H   0  0  0  0  0  0  0  0  0  0  0  0
   -3.6546    3.4101   -1.9145 C   0  0  0  0  0  0  0  0  0  0  0  0
   -4.1872    4.1711   -2.5228 H   0  0  0  0  0  0  0  0  0  0  0  0
   -3.6923    3.7658   -0.8605 H   0  0  0  0  0  0  0  0  0  0  0  0
   -4.3647    2.0546   -2.0118 C   0  0  0  0  0  0  0  0  0  0  0  0
   -5.4131    2.1364   -1.6556 H   0  0  0  0  0  0  0  0  0  0  0  0
   -4.4210    1.7483   -3.0812 H   0  0  0  0  0  0  0  0  0  0  0  0
   -3.6301    0.9643   -1.2168 C   0  0  0  0  0  0  0  0  0  0  0  0
   -4.1546   -0.0051   -1.3444 H   0  0  0  0  0  0  0  0  0  0  0  0
   -3.6651    1.2019   -0.1293 H   0  0  0  0  0  0  0  0  0  0  0  0
   -2.1559    0.8504   -1.6429 C   0  0  0  0  0  0  0  0  0  0  0  0
   -2.1148    0.5012   -2.6997 H   0  0  0  0  0  0  0  0  0  0  0  0
   -1.2080   -0.4052   -0.6233 P   0  0  0  0  0  0  0  0  0  0  0  0
    1.7775   -0.0390   -0.5124 P   0  0  0  0  0  4  0  0  0  0  0  0
    0.3939   -0.6259   -1.3878 C   0  0  2  0  0  3  0  0  0  0  0  0
  2  1  1  0  0  0  0
  3  1  1  0  0  0  0
  4  1  1  0  0  0  0
  5 73  1  0  0  0  0
  5  6  1  0  0  0  0
  6  7  1  0  0  0  0
  8  6  2  0  0  0  0
  8  9  1  0  0  0  0
 10  8  1  0  0  0  0
 11 10  1  0  0  0  0
 12 14  1  0  0  0  0
 12 10  2  0  0  0  0
 13 12  1  0  0  0  0
 14  5  2  0  0  0  0
 15 14  1  0  0  0  0
 16 25  1  0  0  0  0
 16 73  1  0  0  0  0
 17 16  2  0  0  0  0
 18 17  1  0  0  0  0
 19 21  2  0  0  0  0
 19 17  1  0  0  0  0
 20 19  1  0  0  0  0
 21 23  1  0  0  0  0
 22 21  1  0  0  0  0
 23 24  1  0  0  0  0
 23 25  2  0  0  0  0
 25 26  1  0  0  0  0
 27 36  2  0  0  0  0
 27 28  1  0  0  0  0
 28 30  2  0  0  0  0
 29 28  1  0  0  0  0
 30 32  1  0  0  0  0
 30 31  1  0  0  0  0
 32 33  1  0  0  0  0
 34 35  1  0  0  0  0
 34 32  2  0  0  0  0
 36 34  1  0  0  0  0
 37 36  1  0  0  0  0
 38 72  1  0  0  0  0
 38 39  1  0  0  0  0
 38 40  1  0  0  0  0
 40 41  1  0  0  0  0
 42 40  1  0  0  0  0
 43 40  1  0  0  0  0
 43 45  1  0  0  0  0
 43 44  1  0  0  0  0
 46 43  1  0  0  0  0
 47 46  1  0  0  0  0
 48 46  1  0  0  0  0
 49 52  1  0  0  0  0
 49 50  1  0  0  0  0
 49 46  1  0  0  0  0
 51 49  1  0  0  0  0
 52 38  1  0  0  0  0
 53 52  1  0  0  0  0
 54 52  1  0  0  0  0
 55 57  1  0  0  0  0
 56 55  1  0  0  0  0
 58 59  1  0  0  0  0
 58 61  1  0  0  0  0
 58 55  1  0  0  0  0
 60 58  1  0  0  0  0
 61 63  1  0  0  0  0
 62 61  1  0  0  0  0
 64 61  1  0  0  0  0
 64 65  1  0  0  0  0
 64 67  1  0  0  0  0
 66 64  1  0  0  0  0
 67 69  1  0  0  0  0
 68 67  1  0  0  0  0
 70 55  1  0  0  0  0
 70 67  1  0  0  0  0
 70 72  1  0  0  0  0
 71 70  1  0  0  0  0
 73 27  1  0  0  0  0
 74  1  1  6  0  0  0
 74 72  1  0  0  0  0
 74 73  1  0  0  0  0
M  END
