1
 OpenBabel05122313063D

 65 70  0  0  1  0  0  0  0  0999 V2000
   -0.9359    0.0689    0.2034 P   0  0  1  0  0  0  0  0  0  0  0  0
    1.6637    1.6395    3.3680 O   0  0  0  0  0  0  0  0  0  0  0  0
    3.2981    2.0793    1.8551 O   0  0  0  0  0  0  0  0  0  0  0  0
    2.8453    2.1946   -1.9139 O   0  0  0  0  0  0  0  0  0  0  0  0
   -0.3614    1.5451    1.2475 C   0  0  2  0  0  0  0  0  0  0  0  0
   -0.9362    2.6401    0.3299 C   0  0  0  0  0  0  0  0  0  0  0  0
   -0.6372    2.3584   -0.9700 C   0  0  0  0  0  0  0  0  0  0  0  0
    0.1516    1.0457   -1.0488 C   0  0  1  0  0  0  0  0  0  0  0  0
   -1.7079    3.7814    0.9013 C   0  0  0  0  0  0  0  0  0  0  0  0
   -0.9439    3.1233   -2.2140 C   0  0  0  0  0  0  0  0  0  0  0  0
    1.1506    1.4824    1.0487 C   0  0  0  0  0  0  0  0  0  0  0  0
    1.4525    1.1963   -0.2562 C   0  0  0  0  0  0  0  0  0  0  0  0
    2.0338    1.7293    2.2034 C   0  0  0  0  0  0  0  0  0  0  0  0
    4.1899    2.3081    2.9516 C   0  0  0  0  0  0  0  0  0  0  0  0
    2.7444    1.1761   -0.9717 C   0  0  0  0  0  0  0  0  0  0  0  0
    3.7179    0.2383   -0.8790 C   0  0  0  0  0  0  0  0  0  0  0  0
    5.0060    0.3188   -1.6698 C   0  0  1  0  0  0  0  0  0  0  0  0
    6.1873    0.3154   -0.6675 C   0  0  0  0  0  0  0  0  0  0  0  0
    6.1479   -0.9689    0.1840 C   0  0  1  0  0  0  0  0  0  0  0  0
    4.8217   -1.0210    0.9663 C   0  0  0  0  0  0  0  0  0  0  0  0
    3.6329   -1.0059   -0.0231 C   0  0  2  0  0  0  0  0  0  0  0  0
    3.7404   -2.2434   -0.9496 C   0  0  0  0  0  0  0  0  0  0  0  0
    5.0668   -2.2020   -1.7311 C   0  0  2  0  0  0  0  0  0  0  0  0
    6.2473   -2.2000   -0.7388 C   0  0  0  0  0  0  0  0  0  0  0  0
    5.1142   -0.9222   -2.5868 C   0  0  0  0  0  0  0  0  0  0  0  0
    2.8194    3.5148   -1.3745 C   0  0  0  0  0  0  0  0  0  0  0  0
    0.0058   -1.3958    0.7822 C   0  0  0  0  0  0  0  0  0  0  0  0
    0.5270   -1.4716    2.0904 C   0  0  0  0  0  0  0  0  0  0  0  0
    1.1815   -2.6387    2.5150 C   0  0  0  0  0  0  0  0  0  0  0  0
    1.3220   -3.7295    1.6427 C   0  0  0  0  0  0  0  0  0  0  0  0
    0.8004   -3.6570    0.3405 C   0  0  0  0  0  0  0  0  0  0  0  0
    0.1398   -2.4979   -0.0879 C   0  0  0  0  0  0  0  0  0  0  0  0
   -0.6894    1.5855    2.2998 H   0  0  0  0  0  0  0  0  0  0  0  0
    0.2646    0.6204   -2.0606 H   0  0  0  0  0  0  0  0  0  0  0  0
   -2.5782    3.4078    1.4831 H   0  0  0  0  0  0  0  0  0  0  0  0
   -1.0881    4.3731    1.6093 H   0  0  0  0  0  0  0  0  0  0  0  0
   -2.0902    4.4613    0.1167 H   0  0  0  0  0  0  0  0  0  0  0  0
   -0.0073    3.3758   -2.7559 H   0  0  0  0  0  0  0  0  0  0  0  0
   -1.5573    2.5135   -2.9113 H   0  0  0  0  0  0  0  0  0  0  0  0
   -1.4968    4.0586   -2.0067 H   0  0  0  0  0  0  0  0  0  0  0  0
    5.1682    2.5529    2.5009 H   0  0  0  0  0  0  0  0  0  0  0  0
    3.8323    3.1450    3.5849 H   0  0  0  0  0  0  0  0  0  0  0  0
    4.2736    1.4044    3.5883 H   0  0  0  0  0  0  0  0  0  0  0  0
    5.0140    1.2448   -2.2756 H   0  0  0  0  0  0  0  0  0  0  0  0
    7.1473    0.3788   -1.2245 H   0  0  0  0  0  0  0  0  0  0  0  0
    6.1265    1.2117   -0.0140 H   0  0  0  0  0  0  0  0  0  0  0  0
    7.0007   -0.9677    0.8965 H   0  0  0  0  0  0  0  0  0  0  0  0
    4.7460   -0.1556    1.6548 H   0  0  0  0  0  0  0  0  0  0  0  0
    4.7736   -1.9419    1.5869 H   0  0  0  0  0  0  0  0  0  0  0  0
    2.6763   -1.0353    0.5308 H   0  0  0  0  0  0  0  0  0  0  0  0
    2.8778   -2.2639   -1.6482 H   0  0  0  0  0  0  0  0  0  0  0  0
    3.6797   -3.1669   -0.3355 H   0  0  0  0  0  0  0  0  0  0  0  0
    5.1362   -3.0934   -2.3908 H   0  0  0  0  0  0  0  0  0  0  0  0
    7.2110   -2.1858   -1.2926 H   0  0  0  0  0  0  0  0  0  0  0  0
    6.2373   -3.1313   -0.1322 H   0  0  0  0  0  0  0  0  0  0  0  0
    6.0630   -0.8789   -3.1645 H   0  0  0  0  0  0  0  0  0  0  0  0
    4.2820   -0.9183   -3.3218 H   0  0  0  0  0  0  0  0  0  0  0  0
    1.8662    3.7321   -0.8421 H   0  0  0  0  0  0  0  0  0  0  0  0
    2.9220    4.2088   -2.2304 H   0  0  0  0  0  0  0  0  0  0  0  0
    3.6588    3.6749   -0.6626 H   0  0  0  0  0  0  0  0  0  0  0  0
    0.4423   -0.6182    2.7800 H   0  0  0  0  0  0  0  0  0  0  0  0
    1.5877   -2.6911    3.5364 H   0  0  0  0  0  0  0  0  0  0  0  0
    1.8365   -4.6422    1.9794 H   0  0  0  0  0  0  0  0  0  0  0  0
    0.9080   -4.5095   -0.3467 H   0  0  0  0  0  0  0  0  0  0  0  0
   -0.2829   -2.4531   -1.1044 H   0  0  0  0  0  0  0  0  0  0  0  0
  1 27  1  1  0  0  0
  1  5  1  0  0  0  0
  3 13  1  0  0  0  0
  3 14  1  0  0  0  0
  4 26  1  0  0  0  0
  4 15  1  0  0  0  0
  5 33  1  1  0  0  0
  6  9  1  0  0  0  0
  6  5  1  0  0  0  0
  7  6  2  0  0  0  0
  8 34  1  6  0  0  0
  8  7  1  0  0  0  0
  8 12  1  0  0  0  0
  8  1  1  0  0  0  0
  9 35  1  0  0  0  0
  9 36  1  0  0  0  0
 10 40  1  0  0  0  0
 10  7  1  0  0  0  0
 11  5  1  0  0  0  0
 11 13  1  0  0  0  0
 12 11  2  0  0  0  0
 13  2  2  0  0  0  0
 14 42  1  0  0  0  0
 14 43  1  0  0  0  0
 15 16  2  0  0  0  0
 15 12  1  0  0  0  0
 16 21  1  0  0  0  0
 17 44  1  6  0  0  0
 17 16  1  0  0  0  0
 17 18  1  0  0  0  0
 18 46  1  0  0  0  0
 18 19  1  0  0  0  0
 19 47  1  1  0  0  0
 19 20  1  0  0  0  0
 20 49  1  0  0  0  0
 20 48  1  0  0  0  0
 21 50  1  1  0  0  0
 21 20  1  0  0  0  0
 22 52  1  0  0  0  0
 22 21  1  0  0  0  0
 23 53  1  6  0  0  0
 23 22  1  0  0  0  0
 23 24  1  0  0  0  0
 24 55  1  0  0  0  0
 24 19  1  0  0  0  0
 25 23  1  0  0  0  0
 25 17  1  0  0  0  0
 26 58  1  0  0  0  0
 26 60  1  0  0  0  0
 27 28  1  0  0  0  0
 28 29  2  0  0  0  0
 28 61  1  0  0  0  0
 29 62  1  0  0  0  0
 30 63  1  0  0  0  0
 30 29  1  0  0  0  0
 31 30  2  0  0  0  0
 32 31  1  0  0  0  0
 32 27  2  0  0  0  0
 37  9  1  0  0  0  0
 38 10  1  0  0  0  0
 39 10  1  0  0  0  0
 41 14  1  0  0  0  0
 45 18  1  0  0  0  0
 51 22  1  0  0  0  0
 54 24  1  0  0  0  0
 56 25  1  0  0  0  0
 57 25  1  0  0  0  0
 59 26  1  0  0  0  0
 64 31  1  0  0  0  0
 65 32  1  0  0  0  0
M  END
