1
 OpenBabel05122313063D

 30 33  0  0  0  0  0  0  0  0999 V2000
    0.0107   -0.9352   -0.9274 P   0  0  0  0  0  0  0  0  0  0  0  0
    1.2101   -2.2568   -0.5498 C   0  0  0  0  0  0  0  0  0  0  0  0
    2.3802   -2.4053   -1.3463 C   0  0  0  0  0  0  0  0  0  0  0  0
    2.6893   -1.5598   -2.4630 C   0  0  0  0  0  0  0  0  0  0  0  0
    3.8439   -1.7423   -3.2002 C   0  0  0  0  0  0  0  0  0  0  0  0
    4.7609   -2.7855   -2.8765 C   0  0  0  0  0  0  0  0  0  0  0  0
    4.5064   -3.6188   -1.8063 C   0  0  0  0  0  0  0  0  0  0  0  0
    3.3273   -3.4563   -1.0086 C   0  0  0  0  0  0  0  0  0  0  0  0
    3.0753   -4.2830    0.1005 C   0  0  0  0  0  0  0  0  0  0  0  0
    1.9420   -4.1145    0.9167 C   0  0  0  0  0  0  0  0  0  0  0  0
    1.7128   -4.9480    2.0596 C   0  0  0  0  0  0  0  0  0  0  0  0
    0.6098   -4.7607    2.8686 C   0  0  0  0  0  0  0  0  0  0  0  0
   -0.3178   -3.7178    2.5738 C   0  0  0  0  0  0  0  0  0  0  0  0
   -0.1355   -2.8979    1.4763 C   0  0  0  0  0  0  0  0  0  0  0  0
    0.9873   -3.0659    0.6003 C   0  0  0  0  0  0  0  0  0  0  0  0
   -1.5450   -1.7915   -1.4210 C   0  0  0  0  0  0  0  0  0  0  0  0
   -0.7061   -1.3006   -2.5870 C   0  0  0  0  0  0  0  0  0  0  0  0
    2.0113   -0.7324   -2.7150 H   0  0  0  0  0  0  0  0  0  0  0  0
    4.0661   -1.0645   -4.0378 H   0  0  0  0  0  0  0  0  0  0  0  0
    5.6757   -2.9124   -3.4741 H   0  0  0  0  0  0  0  0  0  0  0  0
    5.2131   -4.4182   -1.5356 H   0  0  0  0  0  0  0  0  0  0  0  0
    3.7970   -5.0780    0.3472 H   0  0  0  0  0  0  0  0  0  0  0  0
    2.4447   -5.7399    2.2822 H   0  0  0  0  0  0  0  0  0  0  0  0
    0.4478   -5.4059    3.7450 H   0  0  0  0  0  0  0  0  0  0  0  0
   -1.1887   -3.5581    3.2275 H   0  0  0  0  0  0  0  0  0  0  0  0
   -0.8577   -2.0913    1.2830 H   0  0  0  0  0  0  0  0  0  0  0  0
   -2.4941   -1.2754   -1.2157 H   0  0  0  0  0  0  0  0  0  0  0  0
   -1.5632   -2.8738   -1.2148 H   0  0  0  0  0  0  0  0  0  0  0  0
   -0.1789   -2.0421   -3.2088 H   0  0  0  0  0  0  0  0  0  0  0  0
   -1.0791   -0.4226   -3.1401 H   0  0  0  0  0  0  0  0  0  0  0  0
  1  2  1  0  0  0  0
  2 15  1  0  0  0  0
  3  8  1  0  0  0  0
  3  2  2  0  0  0  0
  4  3  1  0  0  0  0
  5  6  1  0  0  0  0
  5  4  2  0  0  0  0
  6  7  2  0  0  0  0
  7 21  1  0  0  0  0
  7  8  1  0  0  0  0
  8  9  2  0  0  0  0
  9 22  1  0  0  0  0
  9 10  1  0  0  0  0
 10 11  1  0  0  0  0
 11 23  1  0  0  0  0
 11 12  2  0  0  0  0
 12 24  1  0  0  0  0
 13 12  1  0  0  0  0
 13 25  1  0  0  0  0
 14 13  2  0  0  0  0
 15 10  2  0  0  0  0
 15 14  1  0  0  0  0
 16 27  1  0  0  0  0
 16 28  1  0  0  0  0
 16  1  1  0  0  0  0
 17 16  1  0  0  0  0
 17  1  1  0  0  0  0
 18  4  1  0  0  0  0
 19  5  1  0  0  0  0
 20  6  1  0  0  0  0
 26 14  1  0  0  0  0
 29 17  1  0  0  0  0
 30 17  1  0  0  0  0
M  END
