2
 OpenBabel05122313063D

 51 51  0  0  0  0  0  0  0  0999 V2000
    2.1715    2.8542   -0.0240 Br  0  0  0  0  0  0  0  0  0  0  0  0
    0.6810    0.1467    0.0057 P   0  0  0  0  0  0  0  0  0  0  0  0
   -1.0323    2.8106   -0.0071 Br  0  0  0  0  0  0  0  0  0  0  0  0
    0.5833    1.8420   -0.0077 C   0  0  0  0  0  0  0  0  0  0  0  0
   -1.0356   -0.4720    0.0172 C   0  0  0  0  0  0  0  0  0  0  0  0
   -1.7181   -0.6035    1.2684 C   0  0  0  0  0  0  0  0  0  0  0  0
   -3.1244   -0.6676    1.2273 C   0  0  0  0  0  0  0  0  0  0  0  0
   -3.6700   -0.7323    2.1725 H   0  0  0  0  0  0  0  0  0  0  0  0
   -3.8556   -0.6477    0.0322 C   0  0  0  0  0  0  0  0  0  0  0  0
   -3.1317   -0.6799   -1.1719 C   0  0  0  0  0  0  0  0  0  0  0  0
   -3.6924   -0.7564   -2.1102 H   0  0  0  0  0  0  0  0  0  0  0  0
   -1.7307   -0.6164   -1.2299 C   0  0  0  0  0  0  0  0  0  0  0  0
   -1.0040   -0.7817    2.6383 C   0  0  0  0  0  0  0  0  0  0  0  0
   -2.0167   -1.0727    3.7671 C   0  0  0  0  0  0  0  0  0  0  0  0
   -2.6340   -1.9687    3.5582 H   0  0  0  0  0  0  0  0  0  0  0  0
   -2.6932   -0.2152    3.9569 H   0  0  0  0  0  0  0  0  0  0  0  0
   -1.4599   -1.2661    4.7049 H   0  0  0  0  0  0  0  0  0  0  0  0
   -0.2011    0.4654    3.0815 C   0  0  0  0  0  0  0  0  0  0  0  0
    0.0952    0.3530    4.1441 H   0  0  0  0  0  0  0  0  0  0  0  0
   -0.8045    1.3903    2.9875 H   0  0  0  0  0  0  0  0  0  0  0  0
    0.7323    0.6041    2.5052 H   0  0  0  0  0  0  0  0  0  0  0  0
   -0.0698   -2.0114    2.5449 C   0  0  0  0  0  0  0  0  0  0  0  0
    0.4417   -2.1775    3.5149 H   0  0  0  0  0  0  0  0  0  0  0  0
    0.7203   -1.8901    1.7762 H   0  0  0  0  0  0  0  0  0  0  0  0
   -0.6440   -2.9255    2.2933 H   0  0  0  0  0  0  0  0  0  0  0  0
   -5.3922   -0.6361   -0.0014 C   0  0  0  0  0  0  0  0  0  0  0  0
   -6.0052   -0.6047    1.4091 C   0  0  0  0  0  0  0  0  0  0  0  0
   -5.7348   -1.5039    1.9986 H   0  0  0  0  0  0  0  0  0  0  0  0
   -7.1108   -0.5767    1.3364 H   0  0  0  0  0  0  0  0  0  0  0  0
   -5.6855    0.2914    1.9782 H   0  0  0  0  0  0  0  0  0  0  0  0
   -5.8991   -1.9030   -0.7279 C   0  0  0  0  0  0  0  0  0  0  0  0
   -5.5297   -1.9581   -1.7710 H   0  0  0  0  0  0  0  0  0  0  0  0
   -7.0079   -1.9081   -0.7642 H   0  0  0  0  0  0  0  0  0  0  0  0
   -5.5674   -2.8211   -0.2022 H   0  0  0  0  0  0  0  0  0  0  0  0
   -5.8596    0.6231   -0.7674 C   0  0  0  0  0  0  0  0  0  0  0  0
   -5.5045    1.5460   -0.2660 H   0  0  0  0  0  0  0  0  0  0  0  0
   -6.9676    0.6585   -0.8122 H   0  0  0  0  0  0  0  0  0  0  0  0
   -5.4792    0.6366   -1.8080 H   0  0  0  0  0  0  0  0  0  0  0  0
   -1.0274   -0.8148   -2.6024 C   0  0  0  0  0  0  0  0  0  0  0  0
   -2.0501   -1.1149   -3.7194 C   0  0  0  0  0  0  0  0  0  0  0  0
   -1.5021   -1.3217   -4.6595 H   0  0  0  0  0  0  0  0  0  0  0  0
   -2.7244   -0.2565   -3.9135 H   0  0  0  0  0  0  0  0  0  0  0  0
   -2.6694   -2.0058   -3.4948 H   0  0  0  0  0  0  0  0  0  0  0  0
   -0.2210    0.4220   -3.0677 C   0  0  0  0  0  0  0  0  0  0  0  0
    0.7187    0.5615   -2.5021 H   0  0  0  0  0  0  0  0  0  0  0  0
   -0.8177    1.3517   -2.9792 H   0  0  0  0  0  0  0  0  0  0  0  0
    0.0646    0.2951   -4.1316 H   0  0  0  0  0  0  0  0  0  0  0  0
   -0.0988   -2.0480   -2.4994 C   0  0  0  0  0  0  0  0  0  0  0  0
    0.4056   -2.2291   -3.4703 H   0  0  0  0  0  0  0  0  0  0  0  0
   -0.6759   -2.9558   -2.2322 H   0  0  0  0  0  0  0  0  0  0  0  0
    0.6968   -1.9205   -1.7374 H   0  0  0  0  0  0  0  0  0  0  0  0
  1  4  1  0  0  0  0
  2  5  1  0  0  0  0
  4  3  1  0  0  0  0
  4  2  2  0  0  0  0
  5  6  1  0  0  0  0
  6 13  1  0  0  0  0
  7  6  2  0  0  0  0
  7  8  1  0  0  0  0
  9  7  1  0  0  0  0
 10  9  2  0  0  0  0
 11 10  1  0  0  0  0
 12 10  1  0  0  0  0
 12  5  2  0  0  0  0
 13 18  1  0  0  0  0
 13 14  1  0  0  0  0
 14 16  1  0  0  0  0
 14 17  1  0  0  0  0
 15 14  1  0  0  0  0
 18 19  1  0  0  0  0
 20 18  1  0  0  0  0
 21 18  1  0  0  0  0
 22 13  1  0  0  0  0
 22 23  1  0  0  0  0
 24 22  1  0  0  0  0
 25 22  1  0  0  0  0
 26  9  1  0  0  0  0
 26 27  1  0  0  0  0
 27 30  1  0  0  0  0
 27 28  1  0  0  0  0
 29 27  1  0  0  0  0
 31 34  1  0  0  0  0
 31 26  1  0  0  0  0
 32 31  1  0  0  0  0
 33 31  1  0  0  0  0
 35 36  1  0  0  0  0
 35 26  1  0  0  0  0
 37 35  1  0  0  0  0
 38 35  1  0  0  0  0
 39 48  1  0  0  0  0
 39 12  1  0  0  0  0
 40 43  1  0  0  0  0
 40 39  1  0  0  0  0
 41 40  1  0  0  0  0
 42 40  1  0  0  0  0
 44 46  1  0  0  0  0
 44 39  1  0  0  0  0
 44 45  1  0  0  0  0
 47 44  1  0  0  0  0
 48 50  1  0  0  0  0
 48 51  1  0  0  0  0
 49 48  1  0  0  0  0
M  END
