1
 OpenBabel05122313063D

 36 37  0  0  0  0  0  0  0  0999 V2000
   -2.3113   -0.2115   -0.0043 P   0  0  0  0  0  0  0  0  0  0  0  0
   -3.0558    1.2874   -0.2556 N   0  0  0  0  0  0  0  0  0  0  0  0
   -2.4040    2.0716   -0.0759 H   0  0  0  0  0  0  0  0  0  0  0  0
   -3.9846    3.8863    0.1795 O   0  0  0  0  0  0  0  0  0  0  0  0
   -2.9347   -0.9146    1.5759 C   0  0  0  0  0  0  0  0  0  0  0  0
   -2.1140   -0.8295    2.7190 C   0  0  0  0  0  0  0  0  0  0  0  0
   -1.0947   -0.4226    2.6209 H   0  0  0  0  0  0  0  0  0  0  0  0
   -2.5889   -1.2734    3.9612 C   0  0  0  0  0  0  0  0  0  0  0  0
   -1.9399   -1.2105    4.8478 H   0  0  0  0  0  0  0  0  0  0  0  0
   -3.8841   -1.8050    4.0713 C   0  0  0  0  0  0  0  0  0  0  0  0
   -4.2543   -2.1571    5.0464 H   0  0  0  0  0  0  0  0  0  0  0  0
   -4.7054   -1.8933    2.9358 C   0  0  0  0  0  0  0  0  0  0  0  0
   -5.7195   -2.3134    3.0186 H   0  0  0  0  0  0  0  0  0  0  0  0
   -4.2340   -1.4508    1.6906 C   0  0  0  0  0  0  0  0  0  0  0  0
   -4.8745   -1.5363    0.7993 H   0  0  0  0  0  0  0  0  0  0  0  0
   -3.0303   -1.2771   -1.3081 C   0  0  0  0  0  0  0  0  0  0  0  0
   -3.4895   -0.6787   -2.4987 C   0  0  0  0  0  0  0  0  0  0  0  0
   -3.4475    0.4177   -2.5912 H   0  0  0  0  0  0  0  0  0  0  0  0
   -3.9859   -1.4760   -3.5406 C   0  0  0  0  0  0  0  0  0  0  0  0
   -4.3479   -1.0028   -4.4663 H   0  0  0  0  0  0  0  0  0  0  0  0
   -4.0169   -2.8730   -3.4040 C   0  0  0  0  0  0  0  0  0  0  0  0
   -4.4048   -3.4987   -4.2224 H   0  0  0  0  0  0  0  0  0  0  0  0
   -3.5469   -3.4720   -2.2233 C   0  0  0  0  0  0  0  0  0  0  0  0
   -3.5618   -4.5674   -2.1170 H   0  0  0  0  0  0  0  0  0  0  0  0
   -3.0516   -2.6817   -1.1766 C   0  0  0  0  0  0  0  0  0  0  0  0
   -2.6664   -3.1501   -0.2598 H   0  0  0  0  0  0  0  0  0  0  0  0
   -4.4485    1.5669    0.0527 C   0  0  0  0  0  0  0  0  0  0  0  0
   -4.6621    1.5233    1.1474 H   0  0  0  0  0  0  0  0  0  0  0  0
   -5.1023    0.8137   -0.4377 H   0  0  0  0  0  0  0  0  0  0  0  0
   -4.8157    2.9478   -0.4669 C   0  0  0  0  0  0  0  0  0  0  0  0
   -4.6656    2.9858   -1.5756 H   0  0  0  0  0  0  0  0  0  0  0  0
   -5.8974    3.1562   -0.2671 H   0  0  0  0  0  0  0  0  0  0  0  0
   -4.0914    5.1873   -0.3429 C   0  0  0  0  0  0  0  0  0  0  0  0
   -3.3869    5.8327    0.2165 H   0  0  0  0  0  0  0  0  0  0  0  0
   -5.1230    5.6035   -0.2298 H   0  0  0  0  0  0  0  0  0  0  0  0
   -3.8251    5.2266   -1.4276 H   0  0  0  0  0  0  0  0  0  0  0  0
  1  5  1  0  0  0  0
  2  3  1  0  0  0  0
  2  1  1  0  0  0  0
  2 27  1  0  0  0  0
  5 14  2  0  0  0  0
  5  6  1  0  0  0  0
  6  8  2  0  0  0  0
  7  6  1  0  0  0  0
  8 10  1  0  0  0  0
  8  9  1  0  0  0  0
 10 11  1  0  0  0  0
 12 13  1  0  0  0  0
 12 10  2  0  0  0  0
 14 12  1  0  0  0  0
 15 14  1  0  0  0  0
 16 25  1  0  0  0  0
 16  1  1  0  0  0  0
 17 16  2  0  0  0  0
 18 17  1  0  0  0  0
 19 21  2  0  0  0  0
 19 17  1  0  0  0  0
 20 19  1  0  0  0  0
 21 23  1  0  0  0  0
 22 21  1  0  0  0  0
 23 24  1  0  0  0  0
 23 25  2  0  0  0  0
 25 26  1  0  0  0  0
 27 28  1  0  0  0  0
 29 27  1  0  0  0  0
 30 32  1  0  0  0  0
 30 27  1  0  0  0  0
 30  4  1  0  0  0  0
 31 30  1  0  0  0  0
 33 35  1  0  0  0  0
 33  4  1  0  0  0  0
 33 34  1  0  0  0  0
 36 33  1  0  0  0  0
M  END
