1
 OpenBabel05122313063D

 35 35  0  0  0  0  0  0  0  0999 V2000
    0.2749    1.6336   -0.6632 P   0  0  0  0  0  0  0  0  0  0  0  0
   -0.3009    1.1088   -1.8555 H   0  0  0  0  0  0  0  0  0  0  0  0
    0.7284    3.3529   -1.3919 C   0  0  0  0  0  0  0  0  0  0  0  0
    1.7077    3.0882   -2.5475 C   0  0  0  0  0  0  0  0  0  0  0  0
    1.2664    2.4285   -3.3221 H   0  0  0  0  0  0  0  0  0  0  0  0
    2.6498    2.6262   -2.1991 H   0  0  0  0  0  0  0  0  0  0  0  0
    1.9661    4.0531   -3.0330 H   0  0  0  0  0  0  0  0  0  0  0  0
   -0.5279    4.0546   -1.9271 C   0  0  0  0  0  0  0  0  0  0  0  0
   -0.9764    3.5019   -2.7767 H   0  0  0  0  0  0  0  0  0  0  0  0
   -0.2530    5.0642   -2.3005 H   0  0  0  0  0  0  0  0  0  0  0  0
   -1.3016    4.1819   -1.1441 H   0  0  0  0  0  0  0  0  0  0  0  0
    1.3960    4.2288   -0.3221 C   0  0  0  0  0  0  0  0  0  0  0  0
    1.7677    5.1616   -0.7968 H   0  0  0  0  0  0  0  0  0  0  0  0
    2.2632    3.7260    0.1475 H   0  0  0  0  0  0  0  0  0  0  0  0
    0.6824    4.5235    0.4711 H   0  0  0  0  0  0  0  0  0  0  0  0
   -1.3022    1.8981    0.2793 C   0  0  0  0  0  0  0  0  0  0  0  0
   -2.5723    1.6551   -0.3346 C   0  0  0  0  0  0  0  0  0  0  0  0
   -3.7388    1.8565    0.4227 C   0  0  0  0  0  0  0  0  0  0  0  0
   -4.7119    1.6603   -0.0562 H   0  0  0  0  0  0  0  0  0  0  0  0
   -3.7119    2.2898    1.7608 C   0  0  0  0  0  0  0  0  0  0  0  0
   -2.4586    2.5286    2.3391 C   0  0  0  0  0  0  0  0  0  0  0  0
   -2.4029    2.8740    3.3845 H   0  0  0  0  0  0  0  0  0  0  0  0
   -1.2548    2.3415    1.6287 C   0  0  0  0  0  0  0  0  0  0  0  0
    0.0288    2.6347    2.3655 C   0  0  0  0  0  0  0  0  0  0  0  0
    0.0475    3.6873    2.7152 H   0  0  0  0  0  0  0  0  0  0  0  0
    0.9283    2.4655    1.7505 H   0  0  0  0  0  0  0  0  0  0  0  0
    0.1213    1.9940    3.2653 H   0  0  0  0  0  0  0  0  0  0  0  0
   -4.9879    2.4520    2.5455 C   0  0  0  0  0  0  0  0  0  0  0  0
   -5.3857    1.4631    2.8607 H   0  0  0  0  0  0  0  0  0  0  0  0
   -5.7796    2.9379    1.9404 H   0  0  0  0  0  0  0  0  0  0  0  0
   -4.8328    3.0532    3.4621 H   0  0  0  0  0  0  0  0  0  0  0  0
   -2.7419    1.1808   -1.7582 C   0  0  0  0  0  0  0  0  0  0  0  0
   -2.2330    0.2131   -1.9371 H   0  0  0  0  0  0  0  0  0  0  0  0
   -2.3400    1.9082   -2.4907 H   0  0  0  0  0  0  0  0  0  0  0  0
   -3.8143    1.0335   -1.9865 H   0  0  0  0  0  0  0  0  0  0  0  0
  1 16  1  0  0  0  0
  2  1  1  0  0  0  0
  3  1  1  0  0  0  0
  3 12  1  0  0  0  0
  4  6  1  0  0  0  0
  4  3  1  0  0  0  0
  5  4  1  0  0  0  0
  7  4  1  0  0  0  0
  8  3  1  0  0  0  0
  8 11  1  0  0  0  0
  9  8  1  0  0  0  0
 10  8  1  0  0  0  0
 12 14  1  0  0  0  0
 12 15  1  0  0  0  0
 13 12  1  0  0  0  0
 16 23  1  0  0  0  0
 17 16  2  0  0  0  0
 17 18  1  0  0  0  0
 18 20  2  0  0  0  0
 19 18  1  0  0  0  0
 20 21  1  0  0  0  0
 20 28  1  0  0  0  0
 21 22  1  0  0  0  0
 23 21  2  0  0  0  0
 23 24  1  0  0  0  0
 24 25  1  0  0  0  0
 24 27  1  0  0  0  0
 26 24  1  0  0  0  0
 28 29  1  0  0  0  0
 28 31  1  0  0  0  0
 30 28  1  0  0  0  0
 32 17  1  0  0  0  0
 33 32  1  0  0  0  0
 34 32  1  0  0  0  0
 35 32  1  0  0  0  0
M  END
