1
 OpenBabel05122313063D

 75 76  0  0  0  0  0  0  0  0999 V2000
   -0.1855   -0.1903    0.0623 P   0  0  0  0  0  0  0  0  0  0  0  0
   -4.9430    1.7422   -0.4393 Si  0  0  0  0  0  0  0  0  0  0  0  0
    1.6003   -0.5806    0.1640 C   0  0  0  0  0  0  0  0  0  0  0  0
   -0.4638    1.4527   -0.3871 C   0  0  0  0  0  0  0  0  0  0  0  0
    2.2602   -1.1616   -0.9696 C   0  0  0  0  0  0  0  0  0  0  0  0
   -1.8528    1.7280   -0.4359 C   0  0  0  0  0  0  0  0  0  0  0  0
    0.5086    2.5444   -0.5985 C   0  0  0  0  0  0  0  0  0  0  0  0
    1.5323   -1.9259   -2.1101 C   0  0  0  0  0  0  0  0  0  0  0  0
    2.3552   -0.1181    1.2946 C   0  0  0  0  0  0  0  0  0  0  0  0
    0.7726   -3.1243   -1.4947 C   0  0  0  0  0  0  0  0  0  0  0  0
   -0.0009   -2.8091   -0.7656 H   0  0  0  0  0  0  0  0  0  0  0  0
    0.2568   -3.6998   -2.2901 H   0  0  0  0  0  0  0  0  0  0  0  0
    1.4732   -3.8056   -0.9717 H   0  0  0  0  0  0  0  0  0  0  0  0
    3.7513   -0.0556    1.1495 C   0  0  0  0  0  0  0  0  0  0  0  0
    4.3452    0.3372    1.9826 H   0  0  0  0  0  0  0  0  0  0  0  0
    0.9681    4.9499   -0.4948 C   0  0  0  0  0  0  0  0  0  0  0  0
    0.6174    5.9730   -0.2910 H   0  0  0  0  0  0  0  0  0  0  0  0
    1.8448    2.3338   -1.0172 C   0  0  0  0  0  0  0  0  0  0  0  0
    2.1980    1.3222   -1.2474 H   0  0  0  0  0  0  0  0  0  0  0  0
    0.5662   -1.0226   -2.9123 C   0  0  0  0  0  0  0  0  0  0  0  0
   -0.3236   -0.7154   -2.3303 H   0  0  0  0  0  0  0  0  0  0  0  0
    1.0743   -0.1041   -3.2696 H   0  0  0  0  0  0  0  0  0  0  0  0
    0.1903   -1.5757   -3.7970 H   0  0  0  0  0  0  0  0  0  0  0  0
    0.0824    3.8755   -0.3583 C   0  0  0  0  0  0  0  0  0  0  0  0
   -0.9586    4.0499   -0.0480 H   0  0  0  0  0  0  0  0  0  0  0  0
    4.4275   -0.4657   -0.0101 C   0  0  0  0  0  0  0  0  0  0  0  0
    3.6648   -1.0696   -1.0193 C   0  0  0  0  0  0  0  0  0  0  0  0
    4.1824   -1.4769   -1.8918 H   0  0  0  0  0  0  0  0  0  0  0  0
    2.2966    4.7246   -0.8914 C   0  0  0  0  0  0  0  0  0  0  0  0
    2.9937    5.5690   -1.0011 H   0  0  0  0  0  0  0  0  0  0  0  0
    2.5304   -2.5095   -3.1338 C   0  0  0  0  0  0  0  0  0  0  0  0
    3.0918   -1.7202   -3.6733 H   0  0  0  0  0  0  0  0  0  0  0  0
    3.2578   -3.2018   -2.6655 H   0  0  0  0  0  0  0  0  0  0  0  0
    1.9658   -3.0880   -3.8910 H   0  0  0  0  0  0  0  0  0  0  0  0
    1.7478    0.2628    2.6755 C   0  0  0  0  0  0  0  0  0  0  0  0
    2.7238    3.4138   -1.1601 C   0  0  0  0  0  0  0  0  0  0  0  0
    3.7566    3.2257   -1.4907 H   0  0  0  0  0  0  0  0  0  0  0  0
   -3.0878    1.8385   -0.4616 C   0  0  0  0  0  0  0  0  0  0  0  0
    5.9496   -0.2789   -0.1150 C   0  0  0  0  0  0  0  0  0  0  0  0
    6.6418   -1.0391    1.0394 C   0  0  0  0  0  0  0  0  0  0  0  0
    6.3153   -0.6712    2.0321 H   0  0  0  0  0  0  0  0  0  0  0  0
    6.4177   -2.1237    0.9898 H   0  0  0  0  0  0  0  0  0  0  0  0
    7.7422   -0.9112    0.9793 H   0  0  0  0  0  0  0  0  0  0  0  0
   -5.4569    0.4662   -1.7307 C   0  0  0  0  0  0  0  0  0  0  0  0
   -6.5636    0.4313   -1.8096 H   0  0  0  0  0  0  0  0  0  0  0  0
   -5.0433    0.7025   -2.7312 H   0  0  0  0  0  0  0  0  0  0  0  0
   -5.1011   -0.5382   -1.4211 H   0  0  0  0  0  0  0  0  0  0  0  0
   -5.6297    3.4581   -0.8370 C   0  0  0  0  0  0  0  0  0  0  0  0
   -6.7392    3.4380   -0.8362 H   0  0  0  0  0  0  0  0  0  0  0  0
   -5.3002    4.2050   -0.0867 H   0  0  0  0  0  0  0  0  0  0  0  0
   -5.2933    3.8016   -1.8361 H   0  0  0  0  0  0  0  0  0  0  0  0
    6.5098   -0.8022   -1.4487 C   0  0  0  0  0  0  0  0  0  0  0  0
    7.6040   -0.6308   -1.4887 H   0  0  0  0  0  0  0  0  0  0  0  0
    6.3398   -1.8909   -1.5706 H   0  0  0  0  0  0  0  0  0  0  0  0
    6.0590   -0.2824   -2.3181 H   0  0  0  0  0  0  0  0  0  0  0  0
    6.2692    1.2300   -0.0069 C   0  0  0  0  0  0  0  0  0  0  0  0
    5.9101    1.6600    0.9490 H   0  0  0  0  0  0  0  0  0  0  0  0
    7.3641    1.3990   -0.0654 H   0  0  0  0  0  0  0  0  0  0  0  0
    5.7893    1.7958   -0.8313 H   0  0  0  0  0  0  0  0  0  0  0  0
    2.8377    0.2782    3.7722 C   0  0  0  0  0  0  0  0  0  0  0  0
    3.4021   -0.6749    3.8139 H   0  0  0  0  0  0  0  0  0  0  0  0
    3.5594    1.1093    3.6434 H   0  0  0  0  0  0  0  0  0  0  0  0
    2.3510    0.4259    4.7563 H   0  0  0  0  0  0  0  0  0  0  0  0
   -5.4587    1.1648    1.2814 C   0  0  0  0  0  0  0  0  0  0  0  0
   -6.5653    1.1685    1.3675 H   0  0  0  0  0  0  0  0  0  0  0  0
   -5.1031    0.1266    1.4457 H   0  0  0  0  0  0  0  0  0  0  0  0
   -5.0454    1.8166    2.0766 H   0  0  0  0  0  0  0  0  0  0  0  0
    1.1081    1.6709    2.6624 C   0  0  0  0  0  0  0  0  0  0  0  0
    0.1858    1.7073    2.0569 H   0  0  0  0  0  0  0  0  0  0  0  0
    0.8383    1.9653    3.6972 H   0  0  0  0  0  0  0  0  0  0  0  0
    1.8122    2.4263    2.2603 H   0  0  0  0  0  0  0  0  0  0  0  0
    0.7102   -0.7948    3.1110 C   0  0  0  0  0  0  0  0  0  0  0  0
    1.1579   -1.8084    3.1379 H   0  0  0  0  0  0  0  0  0  0  0  0
    0.3286   -0.5547    4.1240 H   0  0  0  0  0  0  0  0  0  0  0  0
   -0.1744   -0.8365    2.4434 H   0  0  0  0  0  0  0  0  0  0  0  0
  1  3  1  0  0  0  0
  2 64  1  0  0  0  0
  3  9  1  0  0  0  0
  4  1  2  0  0  0  0
  5  3  2  0  0  0  0
  6  4  1  0  0  0  0
  7  4  1  0  0  0  0
  7 24  1  0  0  0  0
  8 10  1  0  0  0  0
  8  5  1  0  0  0  0
  9 35  1  0  0  0  0
 10 13  1  0  0  0  0
 10 11  1  0  0  0  0
 12 10  1  0  0  0  0
 14  9  2  0  0  0  0
 14 15  1  0  0  0  0
 16 24  2  0  0  0  0
 16 17  1  0  0  0  0
 18  7  2  0  0  0  0
 19 18  1  0  0  0  0
 20 21  1  0  0  0  0
 20  8  1  0  0  0  0
 22 20  1  0  0  0  0
 23 20  1  0  0  0  0
 24 25  1  0  0  0  0
 26 14  1  0  0  0  0
 27  5  1  0  0  0  0
 27 26  2  0  0  0  0
 28 27  1  0  0  0  0
 29 16  1  0  0  0  0
 30 29  1  0  0  0  0
 31 33  1  0  0  0  0
 31  8  1  0  0  0  0
 32 31  1  0  0  0  0
 34 31  1  0  0  0  0
 35 72  1  0  0  0  0
 35 60  1  0  0  0  0
 36 18  1  0  0  0  0
 36 29  2  0  0  0  0
 37 36  1  0  0  0  0
 38  2  1  0  0  0  0
 38  6  3  0  0  0  0
 39 26  1  0  0  0  0
 39 56  1  0  0  0  0
 39 40  1  0  0  0  0
 40 41  1  0  0  0  0
 42 40  1  0  0  0  0
 43 40  1  0  0  0  0
 44 47  1  0  0  0  0
 44  2  1  0  0  0  0
 45 44  1  0  0  0  0
 46 44  1  0  0  0  0
 48 49  1  0  0  0  0
 48  2  1  0  0  0  0
 48 50  1  0  0  0  0
 51 48  1  0  0  0  0
 52 39  1  0  0  0  0
 53 52  1  0  0  0  0
 54 52  1  0  0  0  0
 55 52  1  0  0  0  0
 56 57  1  0  0  0  0
 58 56  1  0  0  0  0
 59 56  1  0  0  0  0
 60 61  1  0  0  0  0
 60 63  1  0  0  0  0
 62 60  1  0  0  0  0
 64 65  1  0  0  0  0
 64 66  1  0  0  0  0
 64 67  1  0  0  0  0
 68 35  1  0  0  0  0
 68 70  1  0  0  0  0
 69 68  1  0  0  0  0
 71 68  1  0  0  0  0
 72 73  1  0  0  0  0
 72 74  1  0  0  0  0
 75 72  1  0  0  0  0
M  END
