1
 OpenBabel05122313063D

 50 53  0  0  1  0  0  0  0  0999 V2000
   -0.6157    0.3856    0.3276 P   0  0  0  0  0  0  0  0  0  0  0  0
    2.3796   -0.4123    0.0130 P   0  0  0  0  0  4  0  0  0  0  0  0
    0.3194   -1.8126   -2.6948 N   0  0  0  0  0  0  0  0  0  0  0  0
   -0.3295    2.1925    0.0792 C   0  0  0  0  0  0  0  0  0  0  0  0
    0.2992    2.6577   -1.0905 C   0  0  0  0  0  0  0  0  0  0  0  0
    0.6374    1.9345   -1.8486 H   0  0  0  0  0  0  0  0  0  0  0  0
    0.5126    4.0328   -1.2748 C   0  0  0  0  0  0  0  0  0  0  0  0
    1.0106    4.3894   -2.1894 H   0  0  0  0  0  0  0  0  0  0  0  0
    0.0955    4.9488   -0.2954 C   0  0  0  0  0  0  0  0  0  0  0  0
    0.2661    6.0265   -0.4390 H   0  0  0  0  0  0  0  0  0  0  0  0
   -0.5469    4.4868    0.8661 C   0  0  0  0  0  0  0  0  0  0  0  0
   -0.8826    5.2020    1.6326 H   0  0  0  0  0  0  0  0  0  0  0  0
   -0.7636    3.1139    1.0521 C   0  0  0  0  0  0  0  0  0  0  0  0
   -1.2649    2.7549    1.9655 H   0  0  0  0  0  0  0  0  0  0  0  0
    0.7154   -0.4871   -0.5019 C   0  0  2  0  0  3  0  0  0  0  0  0
    0.4723   -1.2055   -1.6912 C   0  0  0  0  0  0  0  0  0  0  0  0
    3.5002    0.5255   -1.0924 C   0  0  0  0  0  0  0  0  0  0  0  0
    3.2065    0.5607   -2.4721 C   0  0  0  0  0  0  0  0  0  0  0  0
    2.3202    0.0384   -2.8648 H   0  0  0  0  0  0  0  0  0  0  0  0
    4.0541    1.2591   -3.3438 C   0  0  0  0  0  0  0  0  0  0  0  0
    3.8226    1.2848   -4.4191 H   0  0  0  0  0  0  0  0  0  0  0  0
    5.1893    1.9223   -2.8492 C   0  0  0  0  0  0  0  0  0  0  0  0
    5.8481    2.4732   -3.5374 H   0  0  0  0  0  0  0  0  0  0  0  0
    5.4837    1.8843   -1.4772 C   0  0  0  0  0  0  0  0  0  0  0  0
    6.3709    2.4054   -1.0869 H   0  0  0  0  0  0  0  0  0  0  0  0
    4.6438    1.1856   -0.5965 C   0  0  0  0  0  0  0  0  0  0  0  0
    4.8722    1.1668    0.4799 H   0  0  0  0  0  0  0  0  0  0  0  0
    3.0772   -2.0957    0.1442 C   0  0  0  0  0  0  0  0  0  0  0  0
    2.1926   -3.1800    0.3157 C   0  0  0  0  0  0  0  0  0  0  0  0
    1.1056   -3.0082    0.3127 H   0  0  0  0  0  0  0  0  0  0  0  0
    2.7088   -4.4754    0.4681 C   0  0  0  0  0  0  0  0  0  0  0  0
    2.0175   -5.3224    0.5904 H   0  0  0  0  0  0  0  0  0  0  0  0
    4.0960   -4.6893    0.4521 C   0  0  0  0  0  0  0  0  0  0  0  0
    4.4962   -5.7079    0.5686 H   0  0  0  0  0  0  0  0  0  0  0  0
    4.9754   -3.6078    0.2749 C   0  0  0  0  0  0  0  0  0  0  0  0
    6.0624   -3.7771    0.2518 H   0  0  0  0  0  0  0  0  0  0  0  0
    4.4702   -2.3103    0.1156 C   0  0  0  0  0  0  0  0  0  0  0  0
    5.1588   -1.4669   -0.0428 H   0  0  0  0  0  0  0  0  0  0  0  0
    2.4698    0.3732    1.6522 C   0  0  0  0  0  0  0  0  0  0  0  0
    2.4251    1.7791    1.7640 C   0  0  0  0  0  0  0  0  0  0  0  0
    2.4080    2.4092    0.8631 H   0  0  0  0  0  0  0  0  0  0  0  0
    2.3791    2.3713    3.0339 C   0  0  0  0  0  0  0  0  0  0  0  0
    2.3311    3.4671    3.1177 H   0  0  0  0  0  0  0  0  0  0  0  0
    2.3801    1.5701    4.1869 C   0  0  0  0  0  0  0  0  0  0  0  0
    2.3405    2.0393    5.1816 H   0  0  0  0  0  0  0  0  0  0  0  0
    2.4311    0.1709    4.0745 C   0  0  0  0  0  0  0  0  0  0  0  0
    2.4335   -0.4570    4.9778 H   0  0  0  0  0  0  0  0  0  0  0  0
    2.4755   -0.4317    2.8093 C   0  0  0  0  0  0  0  0  0  0  0  0
    2.5091   -1.5277    2.7168 H   0  0  0  0  0  0  0  0  0  0  0  0
   -0.2296    0.3067    1.7053 H   0  0  0  0  0  0  0  0  0  0  0  0
  1 50  1  0  0  0  0
  2 28  1  0  0  0  0
  2 39  1  0  0  0  0
  3 16  3  0  0  0  0
  4  1  1  0  0  0  0
  4 13  1  0  0  0  0
  5  4  2  0  0  0  0
  6  5  1  0  0  0  0
  7  5  1  0  0  0  0
  7  9  2  0  0  0  0
  8  7  1  0  0  0  0
  9 11  1  0  0  0  0
 10  9  1  0  0  0  0
 11 13  2  0  0  0  0
 11 12  1  0  0  0  0
 13 14  1  0  0  0  0
 15 16  1  6  0  0  0
 15  2  1  0  0  0  0
 15  1  1  0  0  0  0
 17 26  1  0  0  0  0
 17  2  1  0  0  0  0
 18 17  2  0  0  0  0
 19 18  1  0  0  0  0
 20 22  2  0  0  0  0
 20 18  1  0  0  0  0
 21 20  1  0  0  0  0
 22 24  1  0  0  0  0
 23 22  1  0  0  0  0
 24 25  1  0  0  0  0
 24 26  2  0  0  0  0
 26 27  1  0  0  0  0
 28 29  1  0  0  0  0
 29 31  2  0  0  0  0
 30 29  1  0  0  0  0
 31 32  1  0  0  0  0
 33 31  1  0  0  0  0
 33 34  1  0  0  0  0
 35 33  2  0  0  0  0
 36 35  1  0  0  0  0
 37 28  2  0  0  0  0
 37 35  1  0  0  0  0
 38 37  1  0  0  0  0
 39 40  2  0  0  0  0
 39 48  1  0  0  0  0
 40 42  1  0  0  0  0
 41 40  1  0  0  0  0
 42 43  1  0  0  0  0
 42 44  2  0  0  0  0
 44 45  1  0  0  0  0
 46 44  1  0  0  0  0
 46 47  1  0  0  0  0
 48 46  2  0  0  0  0
 49 48  1  0  0  0  0
M  END
