1
 OpenBabel05122313063D

 57 60  0  0  1  0  0  0  0  0999 V2000
   -1.2766    0.1659    0.0267 P   0  0  0  0  0  0  0  0  0  0  0  0
    2.5767    0.0407    2.1982 O   0  0  0  0  0  0  0  0  0  0  0  0
   -3.0803   -0.1975   -0.0658 C   0  0  0  0  0  0  0  0  0  0  0  0
   -3.5077   -1.5160    0.1937 C   0  0  0  0  0  0  0  0  0  0  0  0
   -2.7578   -2.2939    0.4114 H   0  0  0  0  0  0  0  0  0  0  0  0
   -4.8727   -1.8338    0.1589 C   0  0  0  0  0  0  0  0  0  0  0  0
   -5.1981   -2.8655    0.3606 H   0  0  0  0  0  0  0  0  0  0  0  0
   -5.8188   -0.8416   -0.1469 C   0  0  0  0  0  0  0  0  0  0  0  0
   -6.8895   -1.0941   -0.1832 H   0  0  0  0  0  0  0  0  0  0  0  0
   -5.3970    0.4699   -0.4178 C   0  0  0  0  0  0  0  0  0  0  0  0
   -6.1354    1.2472   -0.6668 H   0  0  0  0  0  0  0  0  0  0  0  0
   -4.0322    0.7948   -0.3773 C   0  0  0  0  0  0  0  0  0  0  0  0
   -3.7033    1.8224   -0.5943 H   0  0  0  0  0  0  0  0  0  0  0  0
   -1.0299    0.6449    1.7991 C   0  0  0  0  0  0  0  0  0  0  0  0
    0.2648    0.7002    2.3897 C   0  0  0  0  0  0  0  0  0  0  0  0
    0.3914    0.9107    3.7775 C   0  0  0  0  0  0  0  0  0  0  0  0
    1.4014    0.9187    4.2111 H   0  0  0  0  0  0  0  0  0  0  0  0
   -0.7383    1.1138    4.5785 C   0  0  0  0  0  0  0  0  0  0  0  0
   -0.6227    1.2861    5.6591 H   0  0  0  0  0  0  0  0  0  0  0  0
   -2.0138    1.0942    3.9961 C   0  0  0  0  0  0  0  0  0  0  0  0
   -2.9103    1.2535    4.6140 H   0  0  0  0  0  0  0  0  0  0  0  0
   -2.1557    0.8490    2.6220 C   0  0  0  0  0  0  0  0  0  0  0  0
   -3.1631    0.7982    2.1853 H   0  0  0  0  0  0  0  0  0  0  0  0
    1.4844    0.5441    1.5791 C   0  0  0  0  0  0  0  0  0  0  0  0
    3.6774    0.0875    1.2016 C   0  0  0  0  0  0  0  0  0  0  0  0
    4.3151   -1.2944    1.1636 C   0  0  0  0  0  0  0  0  0  0  0  0
    4.7051   -1.5789    2.1612 H   0  0  0  0  0  0  0  0  0  0  0  0
    5.1597   -1.2967    0.4461 H   0  0  0  0  0  0  0  0  0  0  0  0
    3.5821   -2.0542    0.8267 H   0  0  0  0  0  0  0  0  0  0  0  0
    4.6288    1.1711    1.7062 C   0  0  0  0  0  0  0  0  0  0  0  0
    4.1200    2.1537    1.7605 H   0  0  0  0  0  0  0  0  0  0  0  0
    5.5122    1.2731    1.0479 H   0  0  0  0  0  0  0  0  0  0  0  0
    4.9844    0.9071    2.7217 H   0  0  0  0  0  0  0  0  0  0  0  0
    2.8987    0.4336   -0.1267 C   0  0  1  0  0  0  0  0  0  0  0  0
    2.7566   -0.5147   -0.7001 H   0  0  0  0  0  0  0  0  0  0  0  0
    1.5641    0.8424    0.3287 N   0  0  0  0  0  0  0  0  0  0  0  0
    3.5372    1.4417   -1.1022 C   0  0  0  0  0  0  0  0  0  0  0  0
    3.8105    2.3574   -0.5325 H   0  0  0  0  0  0  0  0  0  0  0  0
    4.8025    0.8572   -1.7442 C   0  0  0  0  0  0  0  0  0  0  0  0
    5.5784    0.5840   -1.0014 H   0  0  0  0  0  0  0  0  0  0  0  0
    5.2584    1.5835   -2.4468 H   0  0  0  0  0  0  0  0  0  0  0  0
    4.5565   -0.0594   -2.3207 H   0  0  0  0  0  0  0  0  0  0  0  0
    2.5246    1.8460   -2.1810 C   0  0  0  0  0  0  0  0  0  0  0  0
    2.9858    2.5424   -2.9107 H   0  0  0  0  0  0  0  0  0  0  0  0
    1.6368    2.3327   -1.7381 H   0  0  0  0  0  0  0  0  0  0  0  0
    2.1695    0.9540   -2.7392 H   0  0  0  0  0  0  0  0  0  0  0  0
   -1.1093    1.6861   -0.9794 C   0  0  0  0  0  0  0  0  0  0  0  0
   -0.9698    2.9583   -0.3963 C   0  0  0  0  0  0  0  0  0  0  0  0
   -0.9258    3.0583    0.6985 H   0  0  0  0  0  0  0  0  0  0  0  0
   -0.8657    4.0930   -1.2153 C   0  0  0  0  0  0  0  0  0  0  0  0
   -0.7472    5.0866   -0.7571 H   0  0  0  0  0  0  0  0  0  0  0  0
   -0.9069    3.9625   -2.6129 C   0  0  0  0  0  0  0  0  0  0  0  0
   -0.8216    4.8544   -3.2520 H   0  0  0  0  0  0  0  0  0  0  0  0
   -1.0463    2.6917   -3.1942 C   0  0  0  0  0  0  0  0  0  0  0  0
   -1.0678    2.5833   -4.2890 H   0  0  0  0  0  0  0  0  0  0  0  0
   -1.1425    1.5536   -2.3812 C   0  0  0  0  0  0  0  0  0  0  0  0
   -1.2286    0.5528   -2.8333 H   0  0  0  0  0  0  0  0  0  0  0  0
  1 14  1  0  0  0  0
  3  1  1  0  0  0  0
  3  4  1  0  0  0  0
  4  5  1  0  0  0  0
  6  4  2  0  0  0  0
  6  7  1  0  0  0  0
  8  6  1  0  0  0  0
  9  8  1  0  0  0  0
 10 12  1  0  0  0  0
 10  8  2  0  0  0  0
 11 10  1  0  0  0  0
 12  3  2  0  0  0  0
 13 12  1  0  0  0  0
 14 15  2  0  0  0  0
 14 22  1  0  0  0  0
 15 16  1  0  0  0  0
 16 17  1  0  0  0  0
 16 18  2  0  0  0  0
 18 19  1  0  0  0  0
 20 18  1  0  0  0  0
 20 21  1  0  0  0  0
 22 20  2  0  0  0  0
 23 22  1  0  0  0  0
 24  2  1  0  0  0  0
 24 15  1  0  0  0  0
 25 30  1  0  0  0  0
 25  2  1  0  0  0  0
 26 25  1  0  0  0  0
 26 27  1  0  0  0  0
 28 26  1  0  0  0  0
 29 26  1  0  0  0  0
 30 31  1  0  0  0  0
 30 33  1  0  0  0  0
 32 30  1  0  0  0  0
 34 35  1  6  0  0  0
 34 36  1  0  0  0  0
 34 25  1  0  0  0  0
 36 24  2  0  0  0  0
 37 38  1  0  0  0  0
 37 34  1  0  0  0  0
 39 37  1  0  0  0  0
 39 40  1  0  0  0  0
 41 39  1  0  0  0  0
 42 39  1  0  0  0  0
 43 45  1  0  0  0  0
 43 37  1  0  0  0  0
 44 43  1  0  0  0  0
 46 43  1  0  0  0  0
 47 48  1  0  0  0  0
 47  1  1  0  0  0  0
 48 49  1  0  0  0  0
 50 51  1  0  0  0  0
 50 48  2  0  0  0  0
 52 50  1  0  0  0  0
 53 52  1  0  0  0  0
 54 52  2  0  0  0  0
 54 56  1  0  0  0  0
 55 54  1  0  0  0  0
 56 47  2  0  0  0  0
 57 56  1  0  0  0  0
M  END
