2
 OpenBabel05122313063D

 55 56  0  0  0  0  0  0  0  0999 V2000
   -3.0373    1.0987   -3.0163 S   0  0  0  0  0  0  0  0  0  0  0  0
    0.1034    0.3962    0.2774 P   0  0  1  0  0  0  0  0  0  0  0  0
   -0.0593    3.5181    0.2472 Si  0  0  0  0  0  0  0  0  0  0  0  0
   -0.5341    1.8483    3.0242 Si  0  0  0  0  0  0  0  0  0  0  0  0
   -1.1911    0.7803   -0.7919 N   0  0  0  0  0  0  0  0  0  0  0  0
   -2.3687   -3.4164    0.6222 O   0  0  0  0  0  0  0  0  0  0  0  0
    0.7567   -2.2090    2.2284 O   0  0  0  0  0  0  0  0  0  0  0  0
   -4.1725   -2.0657    0.9188 O   0  0  0  0  0  0  0  0  0  0  0  0
   -1.3461   -2.1748    3.0792 O   0  0  0  0  0  0  0  0  0  0  0  0
    0.3144    1.9130    1.2894 C   0  0  0  0  0  0  0  0  0  0  0  0
    1.4066    1.9512    1.4970 H   0  0  0  0  0  0  0  0  0  0  0  0
    1.0113    4.8856    1.0045 C   0  0  0  0  0  0  0  0  0  0  0  0
    0.8767    5.8162    0.4146 H   0  0  0  0  0  0  0  0  0  0  0  0
    2.0829    4.6043    0.9370 H   0  0  0  0  0  0  0  0  0  0  0  0
    0.7757    5.1153    2.0599 H   0  0  0  0  0  0  0  0  0  0  0  0
   -1.9018    3.9317    0.3363 C   0  0  0  0  0  0  0  0  0  0  0  0
   -2.0866    4.8927   -0.1871 H   0  0  0  0  0  0  0  0  0  0  0  0
   -2.2832    4.0316    1.3712 H   0  0  0  0  0  0  0  0  0  0  0  0
   -2.4882    3.1465   -0.1818 H   0  0  0  0  0  0  0  0  0  0  0  0
    0.4316    3.4278   -1.5754 C   0  0  0  0  0  0  0  0  0  0  0  0
   -0.1376    2.6509   -2.1171 H   0  0  0  0  0  0  0  0  0  0  0  0
    1.5147    3.2542   -1.7182 H   0  0  0  0  0  0  0  0  0  0  0  0
    0.1926    4.4144   -2.0265 H   0  0  0  0  0  0  0  0  0  0  0  0
   -0.4938    3.5437    3.8680 C   0  0  0  0  0  0  0  0  0  0  0  0
   -0.9028    3.4205    4.8930 H   0  0  0  0  0  0  0  0  0  0  0  0
   -1.1077    4.3072    3.3516 H   0  0  0  0  0  0  0  0  0  0  0  0
    0.5395    3.9323    3.9657 H   0  0  0  0  0  0  0  0  0  0  0  0
    0.5186    0.6931    4.1021 C   0  0  0  0  0  0  0  0  0  0  0  0
    1.3536    1.2627    4.5595 H   0  0  0  0  0  0  0  0  0  0  0  0
    0.9703   -0.1318    3.5191 H   0  0  0  0  0  0  0  0  0  0  0  0
   -0.0842    0.2490    4.9200 H   0  0  0  0  0  0  0  0  0  0  0  0
   -2.3343    1.2714    2.9205 C   0  0  0  0  0  0  0  0  0  0  0  0
   -2.4291    0.1705    2.9851 H   0  0  0  0  0  0  0  0  0  0  0  0
   -2.8304    1.6104    1.9899 H   0  0  0  0  0  0  0  0  0  0  0  0
   -2.8931    1.7051    3.7757 H   0  0  0  0  0  0  0  0  0  0  0  0
   -0.8774   -0.9557    1.0812 C   0  0  0  0  0  0  0  0  0  0  0  0
   -2.0323   -1.1147    0.3563 C   0  0  0  0  0  0  0  0  0  0  0  0
   -2.1872   -0.0721   -0.6962 C   0  0  0  0  0  0  0  0  0  0  0  0
   -2.9930   -2.2234    0.6571 C   0  0  0  0  0  0  0  0  0  0  0  0
   -3.1414   -4.5369    1.0761 C   0  0  0  0  0  0  0  0  0  0  0  0
   -3.2835   -4.4680    2.1737 H   0  0  0  0  0  0  0  0  0  0  0  0
   -2.5551   -5.4358    0.8178 H   0  0  0  0  0  0  0  0  0  0  0  0
   -4.1339   -4.5573    0.5853 H   0  0  0  0  0  0  0  0  0  0  0  0
   -0.5394   -1.8406    2.2253 C   0  0  0  0  0  0  0  0  0  0  0  0
    1.1646   -3.0580    3.3131 C   0  0  0  0  0  0  0  0  0  0  0  0
    0.9303   -2.5818    4.2854 H   0  0  0  0  0  0  0  0  0  0  0  0
    2.2536   -3.1877    3.1935 H   0  0  0  0  0  0  0  0  0  0  0  0
    0.6402   -4.0322    3.2559 H   0  0  0  0  0  0  0  0  0  0  0  0
   -3.2939    0.0455   -1.6355 C   0  0  0  0  0  0  0  0  0  0  0  0
   -4.5821   -0.4920   -1.6495 C   0  0  0  0  0  0  0  0  0  0  0  0
   -4.9590   -1.1423   -0.8511 H   0  0  0  0  0  0  0  0  0  0  0  0
   -5.3427   -0.0599   -2.7693 C   0  0  0  0  0  0  0  0  0  0  0  0
   -6.3799   -0.3660   -2.9619 H   0  0  0  0  0  0  0  0  0  0  0  0
   -4.6328    0.7986   -3.5949 C   0  0  0  0  0  0  0  0  0  0  0  0
   -4.9727    1.2718   -4.5250 H   0  0  0  0  0  0  0  0  0  0  0  0
  1 49  1  0  0  0  0
  2 36  1  0  0  0  0
  2 10  1  1  0  0  0
  3 16  1  0  0  0  0
  3 12  1  0  0  0  0
  3 10  1  0  0  0  0
  4 24  1  0  0  0  0
  4 28  1  0  0  0  0
  5 38  2  0  0  0  0
  5  2  1  0  0  0  0
  6 39  1  0  0  0  0
  6 40  1  0  0  0  0
  7 45  1  0  0  0  0
 10 11  1  0  0  0  0
 10  4  1  0  0  0  0
 12 15  1  0  0  0  0
 13 12  1  0  0  0  0
 14 12  1  0  0  0  0
 16 18  1  0  0  0  0
 17 16  1  0  0  0  0
 19 16  1  0  0  0  0
 20  3  1  0  0  0  0
 21 20  1  0  0  0  0
 22 20  1  0  0  0  0
 23 20  1  0  0  0  0
 24 27  1  0  0  0  0
 24 25  1  0  0  0  0
 26 24  1  0  0  0  0
 28 29  1  0  0  0  0
 28 31  1  0  0  0  0
 30 28  1  0  0  0  0
 32 33  1  0  0  0  0
 32  4  1  0  0  0  0
 32 35  1  0  0  0  0
 34 32  1  0  0  0  0
 36 44  1  0  0  0  0
 37 39  1  0  0  0  0
 37 36  2  0  0  0  0
 38 37  1  0  0  0  0
 39  8  2  0  0  0  0
 40 41  1  0  0  0  0
 42 40  1  0  0  0  0
 43 40  1  0  0  0  0
 44  7  1  0  0  0  0
 44  9  2  0  0  0  0
 45 46  1  0  0  0  0
 47 45  1  0  0  0  0
 48 45  1  0  0  0  0
 49 38  1  0  0  0  0
 50 49  2  0  0  0  0
 50 51  1  0  0  0  0
 52 50  1  0  0  0  0
 53 52  1  0  0  0  0
 54  1  1  0  0  0  0
 54 52  2  0  0  0  0
 55 54  1  0  0  0  0
M  END
