1
 OpenBabel05122313063D

 33 34  0  0  0  0  0  0  0  0999 V2000
   -0.8552    1.3518   -0.6471 P   0  0  0  0  0  0  0  0  0  0  0  0
   -0.9588    2.0309   -2.4023 C   0  0  0  0  0  0  0  0  0  0  0  0
   -0.0871    1.5551   -2.9006 H   0  0  0  0  0  0  0  0  0  0  0  0
   -2.2332    1.4832   -3.0605 C   0  0  0  0  0  0  0  0  0  0  0  0
   -3.1381    1.9569   -2.6288 H   0  0  0  0  0  0  0  0  0  0  0  0
   -2.3086    0.3845   -2.9551 H   0  0  0  0  0  0  0  0  0  0  0  0
   -2.2082    1.7156   -4.1447 H   0  0  0  0  0  0  0  0  0  0  0  0
   -0.8937    3.5562   -2.5072 C   0  0  0  0  0  0  0  0  0  0  0  0
   -0.8878    3.8416   -3.5799 H   0  0  0  0  0  0  0  0  0  0  0  0
    0.0067    3.9944   -2.0364 H   0  0  0  0  0  0  0  0  0  0  0  0
   -1.7870    4.0276   -2.0504 H   0  0  0  0  0  0  0  0  0  0  0  0
   -2.4500    1.9479    0.0762 C   0  0  0  0  0  0  0  0  0  0  0  0
   -2.6259    3.3070    0.4215 C   0  0  0  0  0  0  0  0  0  0  0  0
   -1.7822    4.0090    0.3597 H   0  0  0  0  0  0  0  0  0  0  0  0
   -3.8742    3.7721    0.8617 C   0  0  0  0  0  0  0  0  0  0  0  0
   -3.9940    4.8317    1.1346 H   0  0  0  0  0  0  0  0  0  0  0  0
   -4.9625    2.8904    0.9536 C   0  0  0  0  0  0  0  0  0  0  0  0
   -5.9412    3.2559    1.3007 H   0  0  0  0  0  0  0  0  0  0  0  0
   -4.7958    1.5433    0.5991 C   0  0  0  0  0  0  0  0  0  0  0  0
   -5.6453    0.8461    0.6627 H   0  0  0  0  0  0  0  0  0  0  0  0
   -3.5491    1.0691    0.1625 C   0  0  0  0  0  0  0  0  0  0  0  0
   -3.4280    0.0142   -0.1183 H   0  0  0  0  0  0  0  0  0  0  0  0
    0.4047    2.3689    0.2285 C   0  0  0  0  0  0  0  0  0  0  0  0
    1.5887    2.7587   -0.4338 C   0  0  0  0  0  0  0  0  0  0  0  0
    1.7640    2.4592   -1.4755 H   0  0  0  0  0  0  0  0  0  0  0  0
    2.5577    3.5259    0.2293 C   0  0  0  0  0  0  0  0  0  0  0  0
    3.4764    3.8128   -0.3037 H   0  0  0  0  0  0  0  0  0  0  0  0
    2.3522    3.9256    1.5603 C   0  0  0  0  0  0  0  0  0  0  0  0
    3.1065    4.5394    2.0758 H   0  0  0  0  0  0  0  0  0  0  0  0
    1.1840    3.5315    2.2311 C   0  0  0  0  0  0  0  0  0  0  0  0
    1.0202    3.8257    3.2787 H   0  0  0  0  0  0  0  0  0  0  0  0
    0.2233    2.7457    1.5770 C   0  0  0  0  0  0  0  0  0  0  0  0
   -0.6835    2.4366    2.1165 H   0  0  0  0  0  0  0  0  0  0  0  0
  1 12  1  0  0  0  0
  1 23  1  0  0  0  0
  2  1  1  0  0  0  0
  3  2  1  0  0  0  0
  4  6  1  0  0  0  0
  4  5  1  0  0  0  0
  4  2  1  0  0  0  0
  7  4  1  0  0  0  0
  8  2  1  0  0  0  0
  8 11  1  0  0  0  0
  8 10  1  0  0  0  0
  9  8  1  0  0  0  0
 12 21  2  0  0  0  0
 12 13  1  0  0  0  0
 13 15  2  0  0  0  0
 14 13  1  0  0  0  0
 15 17  1  0  0  0  0
 15 16  1  0  0  0  0
 17 18  1  0  0  0  0
 19 20  1  0  0  0  0
 19 17  2  0  0  0  0
 21 19  1  0  0  0  0
 22 21  1  0  0  0  0
 23 32  1  0  0  0  0
 24 23  2  0  0  0  0
 24 26  1  0  0  0  0
 25 24  1  0  0  0  0
 26 28  2  0  0  0  0
 27 26  1  0  0  0  0
 28 29  1  0  0  0  0
 28 30  1  0  0  0  0
 30 31  1  0  0  0  0
 32 33  1  0  0  0  0
 32 30  2  0  0  0  0
M  END
