1
 OpenBabel05122313063D

 64 68  0  0  1  0  0  0  0  0999 V2000
   -0.3138    1.3512   -0.0219 P   0  0  0  0  0  0  0  0  0  0  0  0
    0.2231   -1.2082   -0.2378 P   0  0  0  0  0  0  0  0  0  0  0  0
    0.6438    0.1491    0.8237 N   0  0  0  0  0  0  0  0  0  0  0  0
    1.6029    0.3143    1.9257 C   0  0  1  0  0  0  0  0  0  0  0  0
    1.4163    1.3479    2.2991 H   0  0  0  0  0  0  0  0  0  0  0  0
    1.3022   -0.6380    3.0929 C   0  0  0  0  0  0  0  0  0  0  0  0
    0.2309   -0.5962    3.3617 H   0  0  0  0  0  0  0  0  0  0  0  0
    1.8860   -0.3670    3.9931 H   0  0  0  0  0  0  0  0  0  0  0  0
    1.5346   -1.6901    2.8366 H   0  0  0  0  0  0  0  0  0  0  0  0
    3.0707    0.2772    1.4712 C   0  0  0  0  0  0  0  0  0  0  0  0
    3.4224    0.6510    0.1594 C   0  0  0  0  0  0  0  0  0  0  0  0
    2.6345    0.9378   -0.5468 H   0  0  0  0  0  0  0  0  0  0  0  0
    4.7546    0.6258   -0.2705 C   0  0  0  0  0  0  0  0  0  0  0  0
    4.9924    0.9116   -1.3063 H   0  0  0  0  0  0  0  0  0  0  0  0
    5.7740    0.2226    0.6060 C   0  0  0  0  0  0  0  0  0  0  0  0
    6.8211    0.1926    0.2679 H   0  0  0  0  0  0  0  0  0  0  0  0
    5.4419   -0.1462    1.9172 C   0  0  0  0  0  0  0  0  0  0  0  0
    6.2287   -0.4654    2.6182 H   0  0  0  0  0  0  0  0  0  0  0  0
    4.1043   -0.1177    2.3444 C   0  0  0  0  0  0  0  0  0  0  0  0
    3.8740   -0.4197    3.3758 H   0  0  0  0  0  0  0  0  0  0  0  0
    0.8301    2.7613   -0.3776 C   0  0  0  0  0  0  0  0  0  0  0  0
    1.3158    2.9244   -1.6897 C   0  0  0  0  0  0  0  0  0  0  0  0
    0.9405    2.2451   -2.4725 H   0  0  0  0  0  0  0  0  0  0  0  0
    2.2613    3.9202   -1.9762 C   0  0  0  0  0  0  0  0  0  0  0  0
    2.6356    4.0411   -3.0044 H   0  0  0  0  0  0  0  0  0  0  0  0
    2.7286    4.7613   -0.9534 C   0  0  0  0  0  0  0  0  0  0  0  0
    3.4753    5.5388   -1.1761 H   0  0  0  0  0  0  0  0  0  0  0  0
    2.2341    4.6172    0.3534 C   0  0  0  0  0  0  0  0  0  0  0  0
    2.5910    5.2821    1.1548 H   0  0  0  0  0  0  0  0  0  0  0  0
    1.2818    3.6283    0.6397 C   0  0  0  0  0  0  0  0  0  0  0  0
    0.8792    3.5360    1.6606 H   0  0  0  0  0  0  0  0  0  0  0  0
   -1.4444    2.1310    1.2052 C   0  0  0  0  0  0  0  0  0  0  0  0
   -1.7734    1.5244    2.4310 C   0  0  0  0  0  0  0  0  0  0  0  0
   -1.2499    0.6088    2.7373 H   0  0  0  0  0  0  0  0  0  0  0  0
   -2.7636    2.0795    3.2575 C   0  0  0  0  0  0  0  0  0  0  0  0
   -3.0088    1.5950    4.2152 H   0  0  0  0  0  0  0  0  0  0  0  0
   -3.4374    3.2458    2.8653 C   0  0  0  0  0  0  0  0  0  0  0  0
   -4.2160    3.6792    3.5112 H   0  0  0  0  0  0  0  0  0  0  0  0
   -3.1104    3.8613    1.6441 C   0  0  0  0  0  0  0  0  0  0  0  0
   -3.6318    4.7794    1.3325 H   0  0  0  0  0  0  0  0  0  0  0  0
   -2.1198    3.3101    0.8205 C   0  0  0  0  0  0  0  0  0  0  0  0
   -1.8694    3.7944   -0.1369 H   0  0  0  0  0  0  0  0  0  0  0  0
    1.8209   -1.9443   -0.7984 C   0  0  0  0  0  0  0  0  0  0  0  0
    2.7491   -2.5270    0.0913 C   0  0  0  0  0  0  0  0  0  0  0  0
    2.5104   -2.6182    1.1604 H   0  0  0  0  0  0  0  0  0  0  0  0
    3.9936   -2.9712   -0.3734 C   0  0  0  0  0  0  0  0  0  0  0  0
    4.7184   -3.4002    0.3346 H   0  0  0  0  0  0  0  0  0  0  0  0
    4.3205   -2.8505   -1.7345 C   0  0  0  0  0  0  0  0  0  0  0  0
    5.3016   -3.1940   -2.0968 H   0  0  0  0  0  0  0  0  0  0  0  0
    3.3953   -2.2917   -2.6291 C   0  0  0  0  0  0  0  0  0  0  0  0
    3.6446   -2.2020   -3.6976 H   0  0  0  0  0  0  0  0  0  0  0  0
    2.1511   -1.8393   -2.1626 C   0  0  0  0  0  0  0  0  0  0  0  0
    1.4167   -1.3789   -2.8430 H   0  0  0  0  0  0  0  0  0  0  0  0
   -0.4944   -2.5036    0.8593 C   0  0  0  0  0  0  0  0  0  0  0  0
   -0.1029   -3.8579    0.8253 C   0  0  0  0  0  0  0  0  0  0  0  0
    0.7140   -4.1785    0.1627 H   0  0  0  0  0  0  0  0  0  0  0  0
   -0.7526   -4.8029    1.6360 C   0  0  0  0  0  0  0  0  0  0  0  0
   -0.4360   -5.8568    1.6033 H   0  0  0  0  0  0  0  0  0  0  0  0
   -1.7942   -4.4070    2.4896 C   0  0  0  0  0  0  0  0  0  0  0  0
   -2.2939   -5.1479    3.1323 H   0  0  0  0  0  0  0  0  0  0  0  0
   -2.2094   -3.0649    2.5036 C   0  0  0  0  0  0  0  0  0  0  0  0
   -3.0467   -2.7505    3.1452 H   0  0  0  0  0  0  0  0  0  0  0  0
   -1.5784   -2.1246    1.6793 C   0  0  0  0  0  0  0  0  0  0  0  0
   -1.9445   -1.0881    1.6449 H   0  0  0  0  0  0  0  0  0  0  0  0
  1  3  1  0  0  0  0
  1 32  1  0  0  0  0
  2  3  1  0  0  0  0
  2 54  1  0  0  0  0
  3  4  1  0  0  0  0
  4  5  1  1  0  0  0
  4  6  1  0  0  0  0
  6  7  1  0  0  0  0
  6  8  1  0  0  0  0
  9  6  1  0  0  0  0
 10  4  1  0  0  0  0
 10 19  1  0  0  0  0
 11 10  2  0  0  0  0
 12 11  1  0  0  0  0
 13 11  1  0  0  0  0
 13 15  2  0  0  0  0
 14 13  1  0  0  0  0
 15 17  1  0  0  0  0
 16 15  1  0  0  0  0
 17 19  2  0  0  0  0
 17 18  1  0  0  0  0
 19 20  1  0  0  0  0
 21  1  1  0  0  0  0
 21 30  1  0  0  0  0
 22 21  2  0  0  0  0
 23 22  1  0  0  0  0
 24 22  1  0  0  0  0
 24 26  2  0  0  0  0
 25 24  1  0  0  0  0
 26 28  1  0  0  0  0
 27 26  1  0  0  0  0
 28 30  2  0  0  0  0
 28 29  1  0  0  0  0
 30 31  1  0  0  0  0
 32 33  1  0  0  0  0
 33 34  1  0  0  0  0
 33 35  2  0  0  0  0
 35 36  1  0  0  0  0
 37 35  1  0  0  0  0
 37 38  1  0  0  0  0
 39 37  2  0  0  0  0
 40 39  1  0  0  0  0
 41 32  2  0  0  0  0
 41 39  1  0  0  0  0
 42 41  1  0  0  0  0
 43  2  1  0  0  0  0
 43 44  1  0  0  0  0
 44 45  1  0  0  0  0
 46 44  2  0  0  0  0
 46 47  1  0  0  0  0
 48 46  1  0  0  0  0
 49 48  1  0  0  0  0
 50 52  1  0  0  0  0
 50 48  2  0  0  0  0
 51 50  1  0  0  0  0
 52 43  2  0  0  0  0
 53 52  1  0  0  0  0
 54 63  1  0  0  0  0
 55 54  2  0  0  0  0
 55 57  1  0  0  0  0
 56 55  1  0  0  0  0
 57 59  2  0  0  0  0
 58 57  1  0  0  0  0
 59 61  1  0  0  0  0
 59 60  1  0  0  0  0
 61 62  1  0  0  0  0
 63 61  2  0  0  0  0
 64 63  1  0  0  0  0
M  END
