1
 OpenBabel05122313063D

 27 29  0  0  0  0  0  0  0  0999 V2000
   -0.5704    0.0631   -0.0808 P   0  0  0  0  0  2  0  0  0  0  0  0
   -1.0849   -2.5153    0.0490 O   0  0  0  0  0  0  0  0  0  0  0  0
   -3.7860    2.6260   -0.1747 C   0  0  0  0  0  3  0  0  0  0  0  0
   -4.8831    2.6161   -0.1869 H   0  0  0  0  0  0  0  0  0  0  0  0
   -3.1468    3.8602   -0.2449 C   0  0  0  0  0  0  0  0  0  0  0  0
   -3.7487    4.7790   -0.3100 H   0  0  0  0  0  0  0  0  0  0  0  0
   -1.7388    3.9355   -0.2294 C   0  0  0  0  0  0  0  0  0  0  0  0
   -1.2283    4.9085   -0.2771 H   0  0  0  0  0  0  0  0  0  0  0  0
   -1.0002    2.7599   -0.1586 C   0  0  0  0  0  0  0  0  0  0  0  0
    0.0988    2.7994   -0.1531 H   0  0  0  0  0  0  0  0  0  0  0  0
   -1.6378    1.4923   -0.0984 C   0  0  0  0  0  0  0  0  0  0  0  0
   -3.0708    1.3979   -0.0876 C   0  0  0  0  0  0  0  0  0  0  0  0
   -3.7785    0.1164    0.0333 C   0  0  0  0  0  0  0  0  0  0  0  0
   -5.1973    0.0793    0.1164 C   0  0  0  0  0  0  0  0  0  0  0  0
   -5.7671    1.0155    0.0686 H   0  0  0  0  0  0  0  0  0  0  0  0
   -5.9094   -1.1057    0.2750 C   0  0  0  0  0  0  0  0  0  0  0  0
   -7.0075   -1.0768    0.3365 H   0  0  0  0  0  0  0  0  0  0  0  0
   -5.2222   -2.3337    0.3774 C   0  0  0  0  0  0  0  0  0  0  0  0
   -5.7759   -3.2718    0.5321 H   0  0  0  0  0  0  0  0  0  0  0  0
   -3.8371   -2.3470    0.2946 C   0  0  0  0  0  0  0  0  0  0  0  0
   -3.2809   -3.2873    0.4053 H   0  0  0  0  0  0  0  0  0  0  0  0
   -3.0884   -1.1482    0.1011 C   0  0  0  0  0  0  0  0  0  0  0  0
   -1.6530   -1.2684    0.0102 C   0  0  0  0  0  0  0  0  0  0  0  0
   -1.0241   -3.2090   -1.2029 C   0  0  0  0  0  0  0  0  0  0  0  0
   -2.0407   -3.4236   -1.5990 H   0  0  0  0  0  0  0  0  0  0  0  0
   -0.4937   -4.1597   -1.0097 H   0  0  0  0  0  0  0  0  0  0  0  0
   -0.4593   -2.6213   -1.9559 H   0  0  0  0  0  0  0  0  0  0  0  0
  1 23  1  0  0  0  0
  3 12  1  0  0  0  0
  4  3  1  0  0  0  0
  5  7  2  0  0  0  0
  5  3  1  0  0  0  0
  6  5  1  0  0  0  0
  7  9  1  0  0  0  0
  8  7  1  0  0  0  0
  9 10  1  0  0  0  0
  9 11  2  0  0  0  0
 11 12  1  0  0  0  0
 11  1  1  0  0  0  0
 12 13  2  0  0  0  0
 13 22  1  0  0  0  0
 13 14  1  0  0  0  0
 14 16  2  0  0  0  0
 15 14  1  0  0  0  0
 16 17  1  0  0  0  0
 16 18  1  0  0  0  0
 18 19  1  0  0  0  0
 20 18  2  0  0  0  0
 20 21  1  0  0  0  0
 22 20  1  0  0  0  0
 23  2  1  0  0  0  0
 23 22  2  0  0  0  0
 24 26  1  0  0  0  0
 24  2  1  0  0  0  0
 25 24  1  0  0  0  0
 27 24  1  0  0  0  0
M  END
