1
 OpenBabel05122313063D

 35 38  0  0  0  0  0  0  0  0999 V2000
   -0.8234   -0.0340    0.3845 P   0  0  2  0  0  0  0  0  0  0  0  0
   -1.9712   -1.5598    0.4323 C   0  0  0  0  0  0  0  0  0  0  0  0
   -1.4706   -1.0423    1.7506 C   0  0  0  0  0  0  0  0  0  0  0  0
   -0.7994   -1.7415    2.8900 C   0  0  0  0  0  0  0  0  0  0  0  0
   -2.0554   -0.9219    3.1232 C   0  0  0  0  0  0  0  0  0  0  0  0
   -1.4026   -2.8584   -0.1228 C   0  0  0  0  0  0  0  0  0  0  0  0
   -1.6682   -2.9981   -1.6271 C   0  0  0  0  0  0  0  0  0  0  0  0
   -3.1555   -2.8247   -1.9583 C   0  0  0  0  0  0  0  0  0  0  0  0
   -3.6957   -1.4937   -1.4208 C   0  0  0  0  0  0  0  0  0  0  0  0
   -3.4386   -1.3481    0.0841 C   0  0  0  0  0  0  0  0  0  0  0  0
   -1.9007    1.4251    0.1358 C   0  0  0  0  0  0  0  0  0  0  0  0
   -2.6204    2.0418    1.1788 C   0  0  0  0  0  0  0  0  0  0  0  0
   -3.3999    3.1793    0.9182 C   0  0  0  0  0  0  0  0  0  0  0  0
   -3.4669    3.7091   -0.3801 C   0  0  0  0  0  0  0  0  0  0  0  0
   -2.7474    3.1012   -1.4218 C   0  0  0  0  0  0  0  0  0  0  0  0
   -1.9641    1.9675   -1.1658 C   0  0  0  0  0  0  0  0  0  0  0  0
   -0.8732   -2.8407    2.9241 H   0  0  0  0  0  0  0  0  0  0  0  0
    0.1585   -1.3349    3.2517 H   0  0  0  0  0  0  0  0  0  0  0  0
   -3.0023   -1.4537    3.3148 H   0  0  0  0  0  0  0  0  0  0  0  0
   -1.9502    0.0298    3.6674 H   0  0  0  0  0  0  0  0  0  0  0  0
   -0.3209   -2.9378    0.0984 H   0  0  0  0  0  0  0  0  0  0  0  0
   -1.8938   -3.6988    0.4227 H   0  0  0  0  0  0  0  0  0  0  0  0
   -1.0785   -2.2263   -2.1668 H   0  0  0  0  0  0  0  0  0  0  0  0
   -1.2990   -3.9810   -1.9861 H   0  0  0  0  0  0  0  0  0  0  0  0
   -3.7329   -3.6625   -1.5054 H   0  0  0  0  0  0  0  0  0  0  0  0
   -3.3167   -2.8928   -3.0542 H   0  0  0  0  0  0  0  0  0  0  0  0
   -4.7811   -1.3973   -1.6311 H   0  0  0  0  0  0  0  0  0  0  0  0
   -3.1967   -0.6508   -1.9483 H   0  0  0  0  0  0  0  0  0  0  0  0
   -4.0205   -2.1222    0.6384 H   0  0  0  0  0  0  0  0  0  0  0  0
   -3.7941   -0.3672    0.4565 H   0  0  0  0  0  0  0  0  0  0  0  0
   -2.5722    1.6295    2.1959 H   0  0  0  0  0  0  0  0  0  0  0  0
   -3.9569    3.6573    1.7384 H   0  0  0  0  0  0  0  0  0  0  0  0
   -4.0778    4.6022   -0.5802 H   0  0  0  0  0  0  0  0  0  0  0  0
   -2.7924    3.5148   -2.4405 H   0  0  0  0  0  0  0  0  0  0  0  0
   -1.3890    1.4994   -1.9806 H   0  0  0  0  0  0  0  0  0  0  0  0
  1 11  1  1  0  0  0
  1  2  1  0  0  0  0
  1  3  1  0  0  0  0
  2  3  1  0  0  0  0
  3  4  1  0  0  0  0
  3  5  1  0  0  0  0
  4 17  1  0  0  0  0
  4  5  1  0  0  0  0
  4 18  1  0  0  0  0
  5 19  1  0  0  0  0
  5 20  1  0  0  0  0
  6 21  1  0  0  0  0
  6 22  1  0  0  0  0
  6  2  1  0  0  0  0
  7  6  1  0  0  0  0
  8  7  1  0  0  0  0
  8 25  1  0  0  0  0
  8  9  1  0  0  0  0
  9 10  1  0  0  0  0
 10  2  1  0  0  0  0
 10 30  1  0  0  0  0
 10 29  1  0  0  0  0
 11 12  1  0  0  0  0
 12 31  1  0  0  0  0
 13 12  2  0  0  0  0
 13 32  1  0  0  0  0
 14 13  1  0  0  0  0
 15 16  1  0  0  0  0
 15 14  2  0  0  0  0
 16 11  2  0  0  0  0
 23  7  1  0  0  0  0
 24  7  1  0  0  0  0
 26  8  1  0  0  0  0
 27  9  1  0  0  0  0
 28  9  1  0  0  0  0
 33 14  1  0  0  0  0
 34 15  1  0  0  0  0
 35 16  1  0  0  0  0
M  END
