1
 OpenBabel05122313063D

 24 25  0  0  0  0  0  0  0  0999 V2000
   -1.0333    0.5113    0.9216 P   0  0  1  0  0  0  0  0  0  0  0  0
   -2.0412   -0.8194    1.7484 C   0  0  0  0  0  0  0  0  0  0  0  0
   -1.4088   -1.5952    2.2229 H   0  0  0  0  0  0  0  0  0  0  0  0
   -2.6806   -0.3612    2.5379 H   0  0  0  0  0  0  0  0  0  0  0  0
   -2.8838   -1.3559    0.6022 C   0  0  0  0  0  0  0  0  0  0  0  0
   -3.1148   -0.4667   -0.4283 C   0  0  0  0  0  0  0  0  0  0  0  0
   -2.3983    0.7909   -0.2678 C   0  0  0  0  0  0  0  0  0  0  0  0
   -2.5396    2.0150   -0.8589 C   0  0  0  0  0  0  0  0  0  0  0  0
   -3.2799    2.1721   -1.6610 H   0  0  0  0  0  0  0  0  0  0  0  0
   -1.7161    3.1414   -0.4379 C   0  0  0  0  0  0  0  0  0  0  0  0
   -1.6538    4.0094   -1.1136 H   0  0  0  0  0  0  0  0  0  0  0  0
   -1.0448    3.2011    0.7499 C   0  0  0  0  0  0  0  0  0  0  0  0
   -0.4239    4.0842    0.9670 H   0  0  0  0  0  0  0  0  0  0  0  0
   -1.1199    2.1269    1.8143 C   0  0  0  0  0  0  0  0  0  0  0  0
   -2.0891    2.1763    2.3659 H   0  0  0  0  0  0  0  0  0  0  0  0
   -0.2963    2.2156    2.5477 H   0  0  0  0  0  0  0  0  0  0  0  0
   -3.3839   -2.7607    0.7008 C   0  0  0  0  0  0  0  0  0  0  0  0
   -4.0490   -3.0397   -0.1372 H   0  0  0  0  0  0  0  0  0  0  0  0
   -3.9320   -2.9281    1.6528 H   0  0  0  0  0  0  0  0  0  0  0  0
   -2.5237   -3.4656    0.7018 H   0  0  0  0  0  0  0  0  0  0  0  0
   -3.9919   -0.6871   -1.6254 C   0  0  0  0  0  0  0  0  0  0  0  0
   -4.4704   -1.6834   -1.6293 H   0  0  0  0  0  0  0  0  0  0  0  0
   -3.4023   -0.5783   -2.5597 H   0  0  0  0  0  0  0  0  0  0  0  0
   -4.7977    0.0761   -1.6663 H   0  0  0  0  0  0  0  0  0  0  0  0
  1  7  1  6  0  0  0
  1  2  1  0  0  0  0
  1 14  1  0  0  0  0
  2  3  1  0  0  0  0
  2  4  1  0  0  0  0
  5 17  1  0  0  0  0
  5  2  1  0  0  0  0
  6  7  1  0  0  0  0
  6  5  2  0  0  0  0
  8 10  1  0  0  0  0
  8  7  2  0  0  0  0
  9  8  1  0  0  0  0
 10 12  2  0  0  0  0
 11 10  1  0  0  0  0
 12 13  1  0  0  0  0
 12 14  1  0  0  0  0
 14 15  1  0  0  0  0
 14 16  1  0  0  0  0
 17 20  1  0  0  0  0
 17 19  1  0  0  0  0
 18 17  1  0  0  0  0
 21  6  1  0  0  0  0
 22 21  1  0  0  0  0
 23 21  1  0  0  0  0
 24 21  1  0  0  0  0
M  END
