1
 OpenBabel05122313063D

 45 44  0  0  0  0  0  0  0  0999 V2000
    0.1751    0.0520   -0.6578 P   0  0  0  0  0  0  0  0  0  0  0  0
    1.3770   -0.8955    0.0836 N   0  0  0  0  0  2  0  0  0  0  0  0
    3.5102    0.1173   -0.3912 N   0  0  0  0  0  0  0  0  0  0  0  0
    3.3294   -2.1423    0.2076 N   0  0  0  0  0  0  0  0  0  0  0  0
   -1.0464   -1.0624   -1.0350 N   0  0  0  0  0  2  0  0  0  0  0  0
   -3.2887   -1.6421   -0.9837 N   0  0  0  0  0  0  0  0  0  0  0  0
   -2.2071   -1.3143    1.0651 N   0  0  0  0  0  0  0  0  0  0  0  0
    2.6720   -0.9368   -0.0349 C   0  0  0  0  0  3  0  0  0  0  0  0
    4.6932   -0.0672   -1.2088 C   0  0  0  0  0  0  0  0  0  0  0  0
    5.6360    0.1793   -0.6673 H   0  0  0  0  0  0  0  0  0  0  0  0
    4.6412    0.5949   -2.1031 H   0  0  0  0  0  0  0  0  0  0  0  0
    4.7502   -1.1153   -1.5540 H   0  0  0  0  0  0  0  0  0  0  0  0
    3.1935    1.4825   -0.0279 C   0  0  0  0  0  0  0  0  0  0  0  0
    3.0785    2.1352   -0.9216 H   0  0  0  0  0  0  0  0  0  0  0  0
    4.0008    1.9191    0.6035 H   0  0  0  0  0  0  0  0  0  0  0  0
    2.2429    1.5152    0.5357 H   0  0  0  0  0  0  0  0  0  0  0  0
    2.5405   -3.3598    0.2176 C   0  0  0  0  0  0  0  0  0  0  0  0
    2.1107   -3.5747    1.2242 H   0  0  0  0  0  0  0  0  0  0  0  0
    3.1804   -4.2180   -0.0771 H   0  0  0  0  0  0  0  0  0  0  0  0
    1.6978   -3.2576   -0.4895 H   0  0  0  0  0  0  0  0  0  0  0  0
    4.5486   -2.1921    0.9979 C   0  0  0  0  0  0  0  0  0  0  0  0
    5.3310   -2.8155    0.5121 H   0  0  0  0  0  0  0  0  0  0  0  0
    4.3460   -2.6247    2.0053 H   0  0  0  0  0  0  0  0  0  0  0  0
    4.9512   -1.1744    1.1448 H   0  0  0  0  0  0  0  0  0  0  0  0
    0.8083    0.3474   -2.3664 C   0  0  0  0  0  0  0  0  0  0  0  0
    1.6962    1.0071   -2.3480 H   0  0  0  0  0  0  0  0  0  0  0  0
    0.0070    0.8401   -2.9497 H   0  0  0  0  0  0  0  0  0  0  0  0
    1.0587   -0.6247   -2.8355 H   0  0  0  0  0  0  0  0  0  0  0  0
   -2.1120   -1.3263   -0.3198 C   0  0  0  0  0  3  0  0  0  0  0  0
   -4.1754   -2.6944   -0.5226 C   0  0  0  0  0  0  0  0  0  0  0  0
   -4.2141   -3.5207   -1.2687 H   0  0  0  0  0  0  0  0  0  0  0  0
   -5.2154   -2.3310   -0.3649 H   0  0  0  0  0  0  0  0  0  0  0  0
   -3.8040   -3.1162    0.4282 H   0  0  0  0  0  0  0  0  0  0  0  0
   -3.4355   -1.2614   -2.3748 C   0  0  0  0  0  0  0  0  0  0  0  0
   -4.5063   -1.0649   -2.5918 H   0  0  0  0  0  0  0  0  0  0  0  0
   -3.0729   -2.0543   -3.0690 H   0  0  0  0  0  0  0  0  0  0  0  0
   -2.8474   -0.3476   -2.5672 H   0  0  0  0  0  0  0  0  0  0  0  0
   -1.1117   -1.7426    1.9171 C   0  0  0  0  0  0  0  0  0  0  0  0
   -1.3882   -2.6758    2.4626 H   0  0  0  0  0  0  0  0  0  0  0  0
   -0.8705   -0.9675    2.6736 H   0  0  0  0  0  0  0  0  0  0  0  0
   -0.2005   -1.9158    1.3151 H   0  0  0  0  0  0  0  0  0  0  0  0
   -3.4066   -0.8752    1.7549 C   0  0  0  0  0  0  0  0  0  0  0  0
   -3.1293   -0.1143    2.5169 H   0  0  0  0  0  0  0  0  0  0  0  0
   -3.9353   -1.7036    2.2816 H   0  0  0  0  0  0  0  0  0  0  0  0
   -4.1025   -0.4048    1.0377 H   0  0  0  0  0  0  0  0  0  0  0  0
  1  2  1  0  0  0  0
  3  8  1  0  0  0  0
  3 13  1  0  0  0  0
  4 17  1  0  0  0  0
  4 21  1  0  0  0  0
  5  1  1  0  0  0  0
  5 29  1  0  0  0  0
  6 30  1  0  0  0  0
  6 29  1  0  0  0  0
  7 42  1  0  0  0  0
  7 38  1  0  0  0  0
  8  2  1  0  0  0  0
  8  4  1  0  0  0  0
  9 10  1  0  0  0  0
  9  3  1  0  0  0  0
 11  9  1  0  0  0  0
 12  9  1  0  0  0  0
 13 16  1  0  0  0  0
 13 15  1  0  0  0  0
 14 13  1  0  0  0  0
 17 18  1  0  0  0  0
 19 17  1  0  0  0  0
 20 17  1  0  0  0  0
 21 24  1  0  0  0  0
 21 23  1  0  0  0  0
 22 21  1  0  0  0  0
 25 26  1  0  0  0  0
 25  1  1  0  0  0  0
 27 25  1  0  0  0  0
 28 25  1  0  0  0  0
 29  7  1  0  0  0  0
 30 32  1  0  0  0  0
 30 33  1  0  0  0  0
 31 30  1  0  0  0  0
 34  6  1  0  0  0  0
 35 34  1  0  0  0  0
 36 34  1  0  0  0  0
 37 34  1  0  0  0  0
 38 39  1  0  0  0  0
 38 40  1  0  0  0  0
 41 38  1  0  0  0  0
 42 44  1  0  0  0  0
 42 43  1  0  0  0  0
 45 42  1  0  0  0  0
M  END
