1
 OpenBabel05122313063D

 42 42  0  0  0  0  0  0  0  0999 V2000
    0.6139    0.7280    0.1292 P   0  0  2  0  0  0  0  0  0  0  0  0
    2.8304    0.2363    0.2163 P   0  0  0  0  0  0  0  0  0  0  0  0
    0.5873    2.0659   -1.0995 C   0  0  0  0  0  0  0  0  0  0  0  0
    0.4141    3.2829   -0.4979 C   0  0  0  0  0  0  0  0  0  0  0  0
    0.3838    3.2152    0.9806 C   0  0  0  0  0  0  0  0  0  0  0  0
    0.5211    1.9474    1.4744 C   0  0  0  0  0  0  0  0  0  0  0  0
    0.2175    4.5776   -1.2293 C   0  0  0  0  0  0  0  0  0  0  0  0
    0.1668    4.4409    1.8175 C   0  0  0  0  0  0  0  0  0  0  0  0
    3.1624   -0.4786   -1.5501 C   0  0  0  0  0  0  0  0  0  0  0  0
    3.5066    0.7629   -2.3986 C   0  0  0  0  0  0  0  0  0  0  0  0
    1.9964   -1.2462   -2.1849 C   0  0  0  0  0  0  0  0  0  0  0  0
    4.4137   -1.3740   -1.5044 C   0  0  0  0  0  0  0  0  0  0  0  0
    2.8723   -1.1846    1.5199 C   0  0  0  0  0  0  0  0  0  0  0  0
    4.3604   -1.4150    1.8576 C   0  0  0  0  0  0  0  0  0  0  0  0
    2.1904   -2.4966    1.1226 C   0  0  0  0  0  0  0  0  0  0  0  0
    2.1892   -0.6210    2.7802 C   0  0  0  0  0  0  0  0  0  0  0  0
    0.5646    1.8983   -2.1840 H   0  0  0  0  0  0  0  0  0  0  0  0
    0.4916    1.6848    2.5389 H   0  0  0  0  0  0  0  0  0  0  0  0
    0.2748    4.4392   -2.3250 H   0  0  0  0  0  0  0  0  0  0  0  0
    0.9817    5.3269   -0.9334 H   0  0  0  0  0  0  0  0  0  0  0  0
   -0.7713    5.0227   -0.9888 H   0  0  0  0  0  0  0  0  0  0  0  0
   -0.8229    4.8956    1.5994 H   0  0  0  0  0  0  0  0  0  0  0  0
    0.9293    5.2188    1.6028 H   0  0  0  0  0  0  0  0  0  0  0  0
    0.2047    4.2070    2.8978 H   0  0  0  0  0  0  0  0  0  0  0  0
    3.7245    0.4500   -3.4423 H   0  0  0  0  0  0  0  0  0  0  0  0
    2.6771    1.4946   -2.4291 H   0  0  0  0  0  0  0  0  0  0  0  0
    4.3985    1.2876   -2.0015 H   0  0  0  0  0  0  0  0  0  0  0  0
    2.2866   -1.5878   -3.2024 H   0  0  0  0  0  0  0  0  0  0  0  0
    1.7107   -2.1397   -1.6014 H   0  0  0  0  0  0  0  0  0  0  0  0
    1.0905   -0.6196   -2.3003 H   0  0  0  0  0  0  0  0  0  0  0  0
    4.7217   -1.6086   -2.5459 H   0  0  0  0  0  0  0  0  0  0  0  0
    5.2700   -0.8692   -1.0129 H   0  0  0  0  0  0  0  0  0  0  0  0
    4.2298   -2.3373   -0.9919 H   0  0  0  0  0  0  0  0  0  0  0  0
    4.4310   -2.0986    2.7307 H   0  0  0  0  0  0  0  0  0  0  0  0
    4.9223   -1.8800    1.0277 H   0  0  0  0  0  0  0  0  0  0  0  0
    4.8668   -0.4662    2.1285 H   0  0  0  0  0  0  0  0  0  0  0  0
    2.2425   -3.2153    1.9692 H   0  0  0  0  0  0  0  0  0  0  0  0
    1.1214   -2.3390    0.8885 H   0  0  0  0  0  0  0  0  0  0  0  0
    2.6687   -2.9816    0.2506 H   0  0  0  0  0  0  0  0  0  0  0  0
    2.3734   -1.3091    3.6324 H   0  0  0  0  0  0  0  0  0  0  0  0
    2.5869    0.3765    3.0574 H   0  0  0  0  0  0  0  0  0  0  0  0
    1.0916   -0.5466    2.6610 H   0  0  0  0  0  0  0  0  0  0  0  0
  1  2  1  1  0  0  0
  1  6  1  0  0  0  0
  2 13  1  0  0  0  0
  3  4  2  0  0  0  0
  3  1  1  0  0  0  0
  4  5  1  0  0  0  0
  5  6  2  0  0  0  0
  5  8  1  0  0  0  0
  6 18  1  0  0  0  0
  7 21  1  0  0  0  0
  7 20  1  0  0  0  0
  7  4  1  0  0  0  0
  8 24  1  0  0  0  0
  9 12  1  0  0  0  0
  9  2  1  0  0  0  0
 10 27  1  0  0  0  0
 10  9  1  0  0  0  0
 11 29  1  0  0  0  0
 11  9  1  0  0  0  0
 12 32  1  0  0  0  0
 12 33  1  0  0  0  0
 13 14  1  0  0  0  0
 13 16  1  0  0  0  0
 14 36  1  0  0  0  0
 14 34  1  0  0  0  0
 15 13  1  0  0  0  0
 15 37  1  0  0  0  0
 16 41  1  0  0  0  0
 16 40  1  0  0  0  0
 17  3  1  0  0  0  0
 19  7  1  0  0  0  0
 22  8  1  0  0  0  0
 23  8  1  0  0  0  0
 25 10  1  0  0  0  0
 26 10  1  0  0  0  0
 28 11  1  0  0  0  0
 30 11  1  0  0  0  0
 31 12  1  0  0  0  0
 35 14  1  0  0  0  0
 38 15  1  0  0  0  0
 39 15  1  0  0  0  0
 42 16  1  0  0  0  0
M  END
