2
 OpenBabel05122313063D

 33 35  0  0  0  0  0  0  0  0999 V2000
   -3.3290    1.3549   -3.3110 N   0  0  0  0  0  0  0  0  0  0  0  0
   -1.6259   -0.2950    0.0276 P   0  0  0  0  0  0  0  0  0  0  0  0
   -2.9231    0.2426   -1.1873 C   0  0  0  0  0  0  0  0  0  0  0  0
   -2.4978    0.9129   -2.3562 C   0  0  0  0  0  0  0  0  0  0  0  0
   -1.4174    1.1078   -2.4941 H   0  0  0  0  0  0  0  0  0  0  0  0
   -4.6451    1.1568   -3.1286 C   0  0  0  0  0  0  0  0  0  0  0  0
   -5.3134    1.5350   -3.9237 H   0  0  0  0  0  0  0  0  0  0  0  0
   -5.1823    0.5163   -2.0006 C   0  0  0  0  0  0  0  0  0  0  0  0
   -6.2706    0.3907   -1.8953 H   0  0  0  0  0  0  0  0  0  0  0  0
   -4.3038    0.0494   -1.0126 C   0  0  0  0  0  0  0  0  0  0  0  0
   -4.6915   -0.4450   -0.1092 H   0  0  0  0  0  0  0  0  0  0  0  0
   -2.5830   -0.4129    1.6126 C   0  0  0  0  0  0  0  0  0  0  0  0
   -2.4439    0.6413    2.5392 C   0  0  0  0  0  0  0  0  0  0  0  0
   -1.7592    1.4695    2.2963 H   0  0  0  0  0  0  0  0  0  0  0  0
   -3.1591    0.6230    3.7460 C   0  0  0  0  0  0  0  0  0  0  0  0
   -3.0398    1.4497    4.4629 H   0  0  0  0  0  0  0  0  0  0  0  0
   -4.0181   -0.4480    4.0414 C   0  0  0  0  0  0  0  0  0  0  0  0
   -4.5737   -0.4654    4.9916 H   0  0  0  0  0  0  0  0  0  0  0  0
   -4.1631   -1.5001    3.1229 C   0  0  0  0  0  0  0  0  0  0  0  0
   -4.8332   -2.3435    3.3503 H   0  0  0  0  0  0  0  0  0  0  0  0
   -3.4510   -1.4843    1.9132 C   0  0  0  0  0  0  0  0  0  0  0  0
   -3.5609   -2.3194    1.2050 H   0  0  0  0  0  0  0  0  0  0  0  0
   -1.3980   -2.0743   -0.4271 C   0  0  0  0  0  0  0  0  0  0  0  0
   -1.5601   -2.4993   -1.7614 C   0  0  0  0  0  0  0  0  0  0  0  0
   -1.8622   -1.7786   -2.5350 H   0  0  0  0  0  0  0  0  0  0  0  0
   -0.9574   -4.7727   -1.1362 C   0  0  0  0  0  0  0  0  0  0  0  0
   -0.7897   -5.8246   -1.4132 H   0  0  0  0  0  0  0  0  0  0  0  0
   -1.3404   -3.8390   -2.1116 C   0  0  0  0  0  0  0  0  0  0  0  0
   -1.4673   -4.1530   -3.1585 H   0  0  0  0  0  0  0  0  0  0  0  0
   -0.7810   -4.3552    0.1917 C   0  0  0  0  0  0  0  0  0  0  0  0
   -0.4730   -5.0760    0.9646 H   0  0  0  0  0  0  0  0  0  0  0  0
   -0.9953   -3.0149    0.5448 C   0  0  0  0  0  0  0  0  0  0  0  0
   -0.8556   -2.7047    1.5894 H   0  0  0  0  0  0  0  0  0  0  0  0
  1  6  2  0  0  0  0
  1  4  1  0  0  0  0
  2 12  1  0  0  0  0
  3 10  1  0  0  0  0
  3  2  1  0  0  0  0
  4  3  2  0  0  0  0
  5  4  1  0  0  0  0
  6  8  1  0  0  0  0
  7  6  1  0  0  0  0
  8  9  1  0  0  0  0
  8 10  2  0  0  0  0
 10 11  1  0  0  0  0
 12 21  2  0  0  0  0
 12 13  1  0  0  0  0
 13 15  2  0  0  0  0
 14 13  1  0  0  0  0
 15 17  1  0  0  0  0
 15 16  1  0  0  0  0
 17 18  1  0  0  0  0
 19 20  1  0  0  0  0
 19 17  2  0  0  0  0
 21 19  1  0  0  0  0
 22 21  1  0  0  0  0
 23  2  1  0  0  0  0
 23 32  1  0  0  0  0
 24 23  2  0  0  0  0
 25 24  1  0  0  0  0
 26 30  1  0  0  0  0
 27 26  1  0  0  0  0
 28 24  1  0  0  0  0
 28 26  2  0  0  0  0
 29 28  1  0  0  0  0
 30 32  2  0  0  0  0
 30 31  1  0  0  0  0
 32 33  1  0  0  0  0
M  END
