1
 OpenBabel05122313063D

 11 11  0  0  0  0  0  0  0  0999 V2000
   -1.6122    1.6381   -0.0001 P   0  0  0  0  0  0  0  0  0  0  0  0
   -2.3540    2.3914   -1.3716 C   0  0  0  0  0  0  0  0  0  0  0  0
   -2.0133    2.0453   -2.3599 H   0  0  0  0  0  0  0  0  0  0  0  0
   -3.3319    3.3848   -1.2365 C   0  0  0  0  0  0  0  0  0  0  0  0
   -3.7581    3.8177   -2.1572 H   0  0  0  0  0  0  0  0  0  0  0  0
   -3.8026    3.8631   -0.0002 C   0  0  0  0  0  0  0  0  0  0  0  0
   -4.5747    4.6473   -0.0003 H   0  0  0  0  0  0  0  0  0  0  0  0
   -3.3318    3.3850    1.2361 C   0  0  0  0  0  0  0  0  0  0  0  0
   -3.7580    3.8181    2.1568 H   0  0  0  0  0  0  0  0  0  0  0  0
   -2.3539    2.3916    1.3713 C   0  0  0  0  0  0  0  0  0  0  0  0
   -2.0131    2.0457    2.3597 H   0  0  0  0  0  0  0  0  0  0  0  0
  1 10  1  0  0  0  0
  2  4  1  0  0  0  0
  2  1  2  0  0  0  0
  3  2  1  0  0  0  0
  4  6  2  0  0  0  0
  5  4  1  0  0  0  0
  6  8  1  0  0  0  0
  7  6  1  0  0  0  0
  8 10  2  0  0  0  0
  8  9  1  0  0  0  0
 10 11  1  0  0  0  0
M  END
