16
 OpenBabel05122313063D

 16 16  0  0  0  0  0  0  0  0999 V2000
   -2.3359    0.2838   -1.3008 C   0  0  0  0  0  0  0  0  0  0  0  0
   -2.1242    0.3825   -2.3737 H   0  0  0  0  0  0  0  0  0  0  0  0
   -3.4197   -0.3326   -0.7504 C   0  0  0  0  0  0  0  0  0  0  0  0
   -3.4198   -0.3323    0.7503 C   0  0  0  0  0  0  0  0  0  0  0  0
   -2.3361    0.2844    1.3006 C   0  0  0  0  0  0  0  0  0  0  0  0
   -2.1246    0.3835    2.3735 H   0  0  0  0  0  0  0  0  0  0  0  0
   -4.5277   -0.9801   -1.5237 C   0  0  0  0  0  0  0  0  0  0  0  0
   -5.5096   -0.5290   -1.2674 H   0  0  0  0  0  0  0  0  0  0  0  0
   -4.6059   -2.0609   -1.2806 H   0  0  0  0  0  0  0  0  0  0  0  0
   -4.3741   -0.8815   -2.6140 H   0  0  0  0  0  0  0  0  0  0  0  0
   -4.5279   -0.9793    1.5237 C   0  0  0  0  0  0  0  0  0  0  0  0
   -4.3746   -0.8801    2.6140 H   0  0  0  0  0  0  0  0  0  0  0  0
   -4.6059   -2.0604    1.2813 H   0  0  0  0  0  0  0  0  0  0  0  0
   -5.5098   -0.5286    1.2669 H   0  0  0  0  0  0  0  0  0  0  0  0
   -1.2486    2.8699   -0.0005 Cl  0  0  0  0  0  0  0  0  0  0  0  0
   -1.1710    0.7691   -0.0001 P   0  0  2  0  0  0  0  0  0  0  0  0
  1  3  2  0  0  0  0
  1 16  1  0  0  0  0
  2  1  1  0  0  0  0
  3  4  1  0  0  0  0
  4  5  2  0  0  0  0
  4 11  1  0  0  0  0
  5  6  1  0  0  0  0
  7  9  1  0  0  0  0
  7  8  1  0  0  0  0
  7  3  1  0  0  0  0
 10  7  1  0  0  0  0
 11 12  1  0  0  0  0
 13 11  1  0  0  0  0
 14 11  1  0  0  0  0
 16 15  1  6  0  0  0
 16  5  1  0  0  0  0
M  END
