1
 OpenBabel05122313063D

 39 42  0  0  0  0  0  0  0  0999 V2000
    0.3330    0.5073    0.0496 P   0  0  0  0  0  0  0  0  0  0  0  0
   -1.1887    1.9057   -1.7072 N   0  0  0  0  0  0  0  0  0  0  0  0
   -1.2507    0.8991   -0.8517 C   0  0  0  0  0  0  0  0  0  0  0  0
   -2.4374    0.1197   -0.6162 C   0  0  0  0  0  0  0  0  0  0  0  0
   -2.5166   -0.9617    0.3081 C   0  0  0  0  0  0  0  0  0  0  0  0
   -3.7064   -1.6541    0.4780 C   0  0  0  0  0  0  0  0  0  0  0  0
   -4.8643   -1.2938   -0.2627 C   0  0  0  0  0  0  0  0  0  0  0  0
   -4.8195   -0.2458   -1.1691 C   0  0  0  0  0  0  0  0  0  0  0  0
   -3.6120    0.4846   -1.3684 C   0  0  0  0  0  0  0  0  0  0  0  0
   -3.5078    1.5692   -2.2848 C   0  0  0  0  0  0  0  0  0  0  0  0
   -2.2998    2.2347   -2.4181 C   0  0  0  0  0  0  0  0  0  0  0  0
   -0.0220    1.0004    1.7827 C   0  0  0  0  0  0  0  0  0  0  0  0
    0.7334    0.4161    2.8198 C   0  0  0  0  0  0  0  0  0  0  0  0
    0.5096    0.7965    4.1506 C   0  0  0  0  0  0  0  0  0  0  0  0
   -0.4725    1.7533    4.4545 C   0  0  0  0  0  0  0  0  0  0  0  0
   -1.2333    2.3302    3.4251 C   0  0  0  0  0  0  0  0  0  0  0  0
   -1.0114    1.9569    2.0910 C   0  0  0  0  0  0  0  0  0  0  0  0
    1.5227    1.7387   -0.5923 C   0  0  0  0  0  0  0  0  0  0  0  0
    2.5049    1.3111   -1.5062 C   0  0  0  0  0  0  0  0  0  0  0  0
    3.4188    2.2349   -2.0345 C   0  0  0  0  0  0  0  0  0  0  0  0
    3.3596    3.5821   -1.6467 C   0  0  0  0  0  0  0  0  0  0  0  0
    2.3841    4.0079   -0.7295 C   0  0  0  0  0  0  0  0  0  0  0  0
    1.4648    3.0912   -0.2028 C   0  0  0  0  0  0  0  0  0  0  0  0
   -1.6237   -1.2597    0.8779 H   0  0  0  0  0  0  0  0  0  0  0  0
   -3.7518   -2.4932    1.1878 H   0  0  0  0  0  0  0  0  0  0  0  0
   -5.7993   -1.8553   -0.1161 H   0  0  0  0  0  0  0  0  0  0  0  0
   -5.7119    0.0362   -1.7486 H   0  0  0  0  0  0  0  0  0  0  0  0
   -4.3846    1.8711   -2.8781 H   0  0  0  0  0  0  0  0  0  0  0  0
   -2.1902    3.0784   -3.1204 H   0  0  0  0  0  0  0  0  0  0  0  0
    1.4892   -0.3475    2.5760 H   0  0  0  0  0  0  0  0  0  0  0  0
    1.1011    0.3356    4.9558 H   0  0  0  0  0  0  0  0  0  0  0  0
   -0.6514    2.0454    5.5004 H   0  0  0  0  0  0  0  0  0  0  0  0
   -2.0091    3.0740    3.6614 H   0  0  0  0  0  0  0  0  0  0  0  0
   -1.6163    2.4051    1.2880 H   0  0  0  0  0  0  0  0  0  0  0  0
    2.5530    0.2489   -1.7949 H   0  0  0  0  0  0  0  0  0  0  0  0
    4.1855    1.8961   -2.7474 H   0  0  0  0  0  0  0  0  0  0  0  0
    4.0816    4.3050   -2.0562 H   0  0  0  0  0  0  0  0  0  0  0  0
    2.3394    5.0634   -0.4213 H   0  0  0  0  0  0  0  0  0  0  0  0
    0.7053    3.4274    0.5180 H   0  0  0  0  0  0  0  0  0  0  0  0
  1 12  1  0  0  0  0
  2  3  1  0  0  0  0
  3  4  2  0  0  0  0
  3  1  1  0  0  0  0
  4  5  1  0  0  0  0
  5  6  2  0  0  0  0
  5 24  1  0  0  0  0
  6 25  1  0  0  0  0
  7 26  1  0  0  0  0
  7  6  1  0  0  0  0
  8  7  2  0  0  0  0
  9  8  1  0  0  0  0
  9  4  1  0  0  0  0
 10  9  2  0  0  0  0
 11 10  1  0  0  0  0
 11  2  2  0  0  0  0
 12 17  2  0  0  0  0
 12 13  1  0  0  0  0
 13 14  2  0  0  0  0
 14 15  1  0  0  0  0
 14 31  1  0  0  0  0
 15 32  1  0  0  0  0
 16 33  1  0  0  0  0
 16 15  2  0  0  0  0
 17 16  1  0  0  0  0
 18 23  1  0  0  0  0
 18  1  1  0  0  0  0
 19 18  2  0  0  0  0
 20 21  2  0  0  0  0
 20 19  1  0  0  0  0
 21 22  1  0  0  0  0
 22 38  1  0  0  0  0
 22 23  2  0  0  0  0
 23 39  1  0  0  0  0
 27  8  1  0  0  0  0
 28 10  1  0  0  0  0
 29 11  1  0  0  0  0
 30 13  1  0  0  0  0
 34 17  1  0  0  0  0
 35 19  1  0  0  0  0
 36 20  1  0  0  0  0
 37 21  1  0  0  0  0
M  END
