1
 OpenBabel05122313063D

 54 56  0  0  0  0  0  0  0  0999 V2000
    0.1358    0.4334    0.2858 P   0  0  0  0  0  0  0  0  0  0  0  0
    5.8627   -1.3908   -0.6226 N   0  0  0  0  0  0  0  0  0  0  0  0
    1.8697   -0.1167    0.0916 C   0  0  0  0  0  0  0  0  0  0  0  0
    2.9662    0.5396    0.6914 C   0  0  0  0  0  0  0  0  0  0  0  0
    2.8012    1.3961    1.3624 H   0  0  0  0  0  0  0  0  0  0  0  0
    4.2810    0.1248    0.4657 C   0  0  0  0  0  0  0  0  0  0  0  0
    5.0949    0.6637    0.9672 H   0  0  0  0  0  0  0  0  0  0  0  0
    4.5660   -0.9756   -0.3929 C   0  0  0  0  0  0  0  0  0  0  0  0
    6.1164   -2.5284   -1.4833 C   0  0  0  0  0  0  0  0  0  0  0  0
    5.6433   -3.4611   -1.1000 H   0  0  0  0  0  0  0  0  0  0  0  0
    7.2055   -2.7032   -1.5475 H   0  0  0  0  0  0  0  0  0  0  0  0
    5.7378   -2.3633   -2.5173 H   0  0  0  0  0  0  0  0  0  0  0  0
    6.9659   -0.7155    0.0287 C   0  0  0  0  0  0  0  0  0  0  0  0
    7.0156    0.3635   -0.2425 H   0  0  0  0  0  0  0  0  0  0  0  0
    7.9171   -1.1841   -0.2817 H   0  0  0  0  0  0  0  0  0  0  0  0
    6.9027   -0.7773    1.1394 H   0  0  0  0  0  0  0  0  0  0  0  0
    3.4577   -1.6332   -0.9996 C   0  0  0  0  0  0  0  0  0  0  0  0
    3.6161   -2.4934   -1.6621 H   0  0  0  0  0  0  0  0  0  0  0  0
    2.1503   -1.2111   -0.7548 C   0  0  0  0  0  0  0  0  0  0  0  0
    1.3107   -1.7465   -1.2262 H   0  0  0  0  0  0  0  0  0  0  0  0
   -0.0554    1.8044   -0.9743 C   0  0  0  0  0  0  0  0  0  0  0  0
   -1.1192    2.1041   -0.8548 H   0  0  0  0  0  0  0  0  0  0  0  0
    0.1021    1.2379   -2.3966 C   0  0  0  0  0  0  0  0  0  0  0  0
    1.1345    0.8413   -2.5205 H   0  0  0  0  0  0  0  0  0  0  0  0
   -0.5896    0.3816   -2.5314 H   0  0  0  0  0  0  0  0  0  0  0  0
   -0.1566    2.3204   -3.4526 C   0  0  0  0  0  0  0  0  0  0  0  0
   -0.0144    1.9003   -4.4705 H   0  0  0  0  0  0  0  0  0  0  0  0
   -1.2221    2.6392   -3.3910 H   0  0  0  0  0  0  0  0  0  0  0  0
    0.7502    3.5390   -3.2413 C   0  0  0  0  0  0  0  0  0  0  0  0
    1.8088    3.2364   -3.4077 H   0  0  0  0  0  0  0  0  0  0  0  0
    0.5284    4.3276   -3.9911 H   0  0  0  0  0  0  0  0  0  0  0  0
    0.6067    4.0969   -1.8201 C   0  0  0  0  0  0  0  0  0  0  0  0
   -0.4233    4.4986   -1.6881 H   0  0  0  0  0  0  0  0  0  0  0  0
    1.2980    4.9521   -1.6644 H   0  0  0  0  0  0  0  0  0  0  0  0
    0.8600    3.0176   -0.7551 C   0  0  0  0  0  0  0  0  0  0  0  0
    1.9220    2.6895   -0.8078 H   0  0  0  0  0  0  0  0  0  0  0  0
    0.7101    3.4502    0.2560 H   0  0  0  0  0  0  0  0  0  0  0  0
    0.0746    1.2869    1.9457 C   0  0  0  0  0  0  0  0  0  0  0  0
    0.8791    2.0569    1.9557 H   0  0  0  0  0  0  0  0  0  0  0  0
    0.3348    0.2880    3.0872 C   0  0  0  0  0  0  0  0  0  0  0  0
   -0.4310   -0.5161    3.0281 H   0  0  0  0  0  0  0  0  0  0  0  0
    1.3185   -0.2073    2.9530 H   0  0  0  0  0  0  0  0  0  0  0  0
    0.2515    0.9729    4.4575 C   0  0  0  0  0  0  0  0  0  0  0  0
    1.0718    1.7211    4.5476 H   0  0  0  0  0  0  0  0  0  0  0  0
    0.4202    0.2270    5.2624 H   0  0  0  0  0  0  0  0  0  0  0  0
   -1.0983    1.6756    4.6484 C   0  0  0  0  0  0  0  0  0  0  0  0
   -1.1350    2.1918    5.6308 H   0  0  0  0  0  0  0  0  0  0  0  0
   -1.9057    0.9096    4.6648 H   0  0  0  0  0  0  0  0  0  0  0  0
   -1.3726    2.6675    3.5113 C   0  0  0  0  0  0  0  0  0  0  0  0
   -2.3717    3.1360    3.6348 H   0  0  0  0  0  0  0  0  0  0  0  0
   -0.6307    3.4968    3.5632 H   0  0  0  0  0  0  0  0  0  0  0  0
   -1.2797    1.9951    2.1344 C   0  0  0  0  0  0  0  0  0  0  0  0
   -1.4456    2.7448    1.3331 H   0  0  0  0  0  0  0  0  0  0  0  0
   -2.0873    1.2374    2.0218 H   0  0  0  0  0  0  0  0  0  0  0  0
  1 38  1  0  0  0  0
  2  8  1  0  0  0  0
  2 13  1  0  0  0  0
  3  1  1  0  0  0  0
  3  4  1  0  0  0  0
  4  5  1  0  0  0  0
  6  4  2  0  0  0  0
  6  7  1  0  0  0  0
  8  6  1  0  0  0  0
  9 10  1  0  0  0  0
  9  2  1  0  0  0  0
 11  9  1  0  0  0  0
 12  9  1  0  0  0  0
 13 16  1  0  0  0  0
 14 13  1  0  0  0  0
 15 13  1  0  0  0  0
 17 19  1  0  0  0  0
 17  8  2  0  0  0  0
 18 17  1  0  0  0  0
 19  3  2  0  0  0  0
 20 19  1  0  0  0  0
 21 22  1  0  0  0  0
 21 35  1  0  0  0  0
 21  1  1  0  0  0  0
 23 21  1  0  0  0  0
 24 23  1  0  0  0  0
 25 23  1  0  0  0  0
 26 28  1  0  0  0  0
 26 29  1  0  0  0  0
 26 23  1  0  0  0  0
 27 26  1  0  0  0  0
 29 32  1  0  0  0  0
 30 29  1  0  0  0  0
 31 29  1  0  0  0  0
 32 33  1  0  0  0  0
 32 34  1  0  0  0  0
 32 35  1  0  0  0  0
 35 37  1  0  0  0  0
 36 35  1  0  0  0  0
 38 39  1  0  0  0  0
 38 52  1  0  0  0  0
 38 40  1  0  0  0  0
 40 43  1  0  0  0  0
 41 40  1  0  0  0  0
 42 40  1  0  0  0  0
 43 44  1  0  0  0  0
 43 46  1  0  0  0  0
 43 45  1  0  0  0  0
 46 48  1  0  0  0  0
 46 47  1  0  0  0  0
 49 51  1  0  0  0  0
 49 50  1  0  0  0  0
 49 46  1  0  0  0  0
 52 49  1  0  0  0  0
 53 52  1  0  0  0  0
 54 52  1  0  0  0  0
M  END
