58
 OpenBabel05122313063D

 58 61  0  0  1  0  0  0  0  0999 V2000
   -0.3539    0.9415   -0.9268 C   0  0  2  0  0  0  0  0  0  0  0  0
   -0.7370    1.9569   -0.7118 H   0  0  0  0  0  0  0  0  0  0  0  0
   -1.4738    0.0632   -1.4515 C   0  0  0  0  0  0  0  0  0  0  0  0
   -1.1615   -1.1605   -2.0456 C   0  0  0  0  0  0  0  0  0  0  0  0
   -0.1071   -1.4431   -2.1817 H   0  0  0  0  0  0  0  0  0  0  0  0
   -2.1710   -2.0601   -2.4697 C   0  0  0  0  0  0  0  0  0  0  0  0
   -1.8812   -3.0179   -2.9263 H   0  0  0  0  0  0  0  0  0  0  0  0
   -3.5058   -1.7397   -2.2889 C   0  0  0  0  0  0  0  0  0  0  0  0
   -4.2989   -2.4380   -2.5986 H   0  0  0  0  0  0  0  0  0  0  0  0
   -3.8801   -0.5007   -1.6933 C   0  0  0  0  0  0  0  0  0  0  0  0
   -5.2522   -0.1706   -1.4872 C   0  0  0  0  0  0  0  0  0  0  0  0
   -6.0177   -0.8929   -1.8116 H   0  0  0  0  0  0  0  0  0  0  0  0
   -5.6200    1.0232   -0.8887 C   0  0  0  0  0  0  0  0  0  0  0  0
   -6.6826    1.2607   -0.7294 H   0  0  0  0  0  0  0  0  0  0  0  0
   -4.6193    1.9453   -0.4854 C   0  0  0  0  0  0  0  0  0  0  0  0
   -4.9094    2.8965   -0.0145 H   0  0  0  0  0  0  0  0  0  0  0  0
   -3.2768    1.6580   -0.6785 C   0  0  0  0  0  0  0  0  0  0  0  0
   -2.5296    2.3936   -0.3519 H   0  0  0  0  0  0  0  0  0  0  0  0
   -2.8554    0.4307   -1.2732 C   0  0  0  0  0  0  0  0  0  0  0  0
    0.8084    1.1466   -1.9385 C   0  0  0  0  0  0  0  0  0  0  0  0
    0.4380    0.8404   -2.9384 H   0  0  0  0  0  0  0  0  0  0  0  0
    2.0887    0.3419   -1.6747 C   0  0  0  0  0  0  0  0  0  0  0  0
    3.3235   -1.5714   -2.3652 C   0  0  0  0  0  0  0  0  0  0  0  0
    4.1960   -0.9991   -1.9980 H   0  0  0  0  0  0  0  0  0  0  0  0
    3.5190   -2.0049   -3.3623 H   0  0  0  0  0  0  0  0  0  0  0  0
    3.0687   -2.3736   -1.6407 H   0  0  0  0  0  0  0  0  0  0  0  0
    1.1591    2.6325   -2.0738 C   0  0  0  0  0  0  0  0  0  0  0  0
    2.6712    4.1413   -3.0660 C   0  0  0  0  0  0  0  0  0  0  0  0
    1.8684    4.7496   -3.5280 H   0  0  0  0  0  0  0  0  0  0  0  0
    3.5476    4.0811   -3.7343 H   0  0  0  0  0  0  0  0  0  0  0  0
    2.9525    4.6017   -2.0981 H   0  0  0  0  0  0  0  0  0  0  0  0
    1.2349    1.4430    1.6046 C   0  0  0  0  0  0  0  0  0  0  0  0
    2.2248    0.9381    2.4718 C   0  0  0  0  0  0  0  0  0  0  0  0
    2.3510   -0.1517    2.5721 H   0  0  0  0  0  0  0  0  0  0  0  0
    3.0530    1.8178    3.1815 C   0  0  0  0  0  0  0  0  0  0  0  0
    3.8254    1.4151    3.8537 H   0  0  0  0  0  0  0  0  0  0  0  0
    2.9062    3.2052    3.0237 C   0  0  0  0  0  0  0  0  0  0  0  0
    3.5627    3.8952    3.5754 H   0  0  0  0  0  0  0  0  0  0  0  0
    1.9280    3.7108    2.1533 C   0  0  0  0  0  0  0  0  0  0  0  0
    1.8162    4.7971    2.0164 H   0  0  0  0  0  0  0  0  0  0  0  0
    1.0899    2.8361    1.4451 C   0  0  0  0  0  0  0  0  0  0  0  0
    0.3505    3.2507    0.7459 H   0  0  0  0  0  0  0  0  0  0  0  0
   -1.4312    0.2644    1.6889 C   0  0  0  0  0  0  0  0  0  0  0  0
   -1.8222    1.3698    2.4696 C   0  0  0  0  0  0  0  0  0  0  0  0
   -1.1411    2.2236    2.5996 H   0  0  0  0  0  0  0  0  0  0  0  0
   -3.0816    1.3801    3.0873 C   0  0  0  0  0  0  0  0  0  0  0  0
   -3.3809    2.2454    3.6980 H   0  0  0  0  0  0  0  0  0  0  0  0
   -3.9567    0.2950    2.9252 C   0  0  0  0  0  0  0  0  0  0  0  0
   -4.9481    0.3105    3.4029 H   0  0  0  0  0  0  0  0  0  0  0  0
   -3.5619   -0.8162    2.1632 C   0  0  0  0  0  0  0  0  0  0  0  0
   -4.2404   -1.6732    2.0394 H   0  0  0  0  0  0  0  0  0  0  0  0
   -2.2999   -0.8393    1.5556 C   0  0  0  0  0  0  0  0  0  0  0  0
   -1.9844   -1.7105    0.9601 H   0  0  0  0  0  0  0  0  0  0  0  0
    2.1872   -0.6956   -2.5281 O   0  0  0  0  0  0  0  0  0  0  0  0
    2.8992    0.6218   -0.8119 O   0  0  0  0  0  0  0  0  0  0  0  0
    0.5360    3.5571   -1.5840 O   0  0  0  0  0  0  0  0  0  0  0  0
    2.2329    2.7891   -2.8667 O   0  0  0  0  0  0  0  0  0  0  0  0
    0.1544    0.2301    0.7629 P   0  0  0  0  0  0  0  0  0  0  0  0
  1  2  1  1  0  0  0
  1 58  1  0  0  0  0
  3 19  1  0  0  0  0
  3  1  1  0  0  0  0
  4  3  2  0  0  0  0
  5  4  1  0  0  0  0
  6  8  2  0  0  0  0
  6  4  1  0  0  0  0
  7  6  1  0  0  0  0
  8 10  1  0  0  0  0
  9  8  1  0  0  0  0
 10 11  2  0  0  0  0
 10 19  1  0  0  0  0
 11 13  1  0  0  0  0
 12 11  1  0  0  0  0
 13 14  1  0  0  0  0
 13 15  2  0  0  0  0
 15 16  1  0  0  0  0
 17 15  1  0  0  0  0
 17 18  1  0  0  0  0
 19 17  2  0  0  0  0
 20 22  1  0  0  0  0
 20  1  1  0  0  0  0
 21 20  1  0  0  0  0
 22 55  2  0  0  0  0
 23 24  1  0  0  0  0
 23 26  1  0  0  0  0
 25 23  1  0  0  0  0
 27 20  1  0  0  0  0
 27 56  2  0  0  0  0
 28 57  1  0  0  0  0
 28 31  1  0  0  0  0
 29 28  1  0  0  0  0
 30 28  1  0  0  0  0
 32 33  1  0  0  0  0
 33 34  1  0  0  0  0
 33 35  2  0  0  0  0
 35 36  1  0  0  0  0
 37 35  1  0  0  0  0
 37 38  1  0  0  0  0
 39 37  2  0  0  0  0
 40 39  1  0  0  0  0
 41 32  2  0  0  0  0
 41 39  1  0  0  0  0
 42 41  1  0  0  0  0
 43 44  1  0  0  0  0
 44 45  1  0  0  0  0
 44 46  2  0  0  0  0
 46 47  1  0  0  0  0
 48 46  1  0  0  0  0
 48 49  1  0  0  0  0
 50 48  2  0  0  0  0
 51 50  1  0  0  0  0
 52 43  2  0  0  0  0
 52 50  1  0  0  0  0
 53 52  1  0  0  0  0
 54 23  1  0  0  0  0
 54 22  1  0  0  0  0
 57 27  1  0  0  0  0
 58 32  1  0  0  0  0
 58 43  1  0  0  0  0
M  END
