2
 OpenBabel05122313063D

 15 14  0  0  0  0  0  0  0  0999 V2000
    0.3358   -3.0148   -1.5631 Cl  0  0  0  0  0  0  0  0  0  0  0  0
    0.1852   -1.6421   -0.0338 P   0  0  0  0  0  2  0  0  0  0  0  0
    0.5443   -2.6962    1.5148 C   0  0  0  0  0  0  0  0  0  0  0  0
    0.7602   -1.7192    2.6829 C   0  0  0  0  0  0  0  0  0  0  0  0
    1.0446   -2.3126    3.5762 H   0  0  0  0  0  0  0  0  0  0  0  0
   -0.1475   -1.1424    2.9352 H   0  0  0  0  0  0  0  0  0  0  0  0
    1.5791   -1.0034    2.4703 H   0  0  0  0  0  0  0  0  0  0  0  0
   -0.5643   -3.7080    1.8203 C   0  0  0  0  0  0  0  0  0  0  0  0
   -0.8182   -4.3234    0.9354 H   0  0  0  0  0  0  0  0  0  0  0  0
   -1.4834   -3.2259    2.1976 H   0  0  0  0  0  0  0  0  0  0  0  0
   -0.1938   -4.3932    2.6106 H   0  0  0  0  0  0  0  0  0  0  0  0
    1.8675   -3.4333    1.2230 C   0  0  0  0  0  0  0  0  0  0  0  0
    2.1908   -3.9122    2.1701 H   0  0  0  0  0  0  0  0  0  0  0  0
    2.6674   -2.7481    0.8799 H   0  0  0  0  0  0  0  0  0  0  0  0
    1.7395   -4.2239    0.4606 H   0  0  0  0  0  0  0  0  0  0  0  0
  1  2  1  0  0  0  0
  2  3  1  0  0  0  0
  3  8  1  0  0  0  0
  3  4  1  0  0  0  0
  4  6  1  0  0  0  0
  4  5  1  0  0  0  0
  7  4  1  0  0  0  0
  8 10  1  0  0  0  0
  8 11  1  0  0  0  0
  9  8  1  0  0  0  0
 12  3  1  0  0  0  0
 12 13  1  0  0  0  0
 14 12  1  0  0  0  0
 15 12  1  0  0  0  0
M  END
