1
 OpenBabel05122313063D

 49 51  0  0  1  0  0  0  0  0999 V2000
    0.1438   -0.4076   -1.2004 P   0  0  0  0  0  2  0  0  0  0  0  0
    1.5181   -2.0499    0.7360 N   0  0  0  0  0  0  0  0  0  0  0  0
   -0.6554   -2.2985    0.7554 N   0  0  0  0  0  0  0  0  0  0  0  0
    0.3582   -1.5887    0.1573 C   0  0  2  0  0  3  0  0  0  0  0  0
   -4.3296   -1.6249    0.7665 C   0  0  0  0  0  0  0  0  0  0  0  0
   -5.0807   -1.1312    1.4032 H   0  0  0  0  0  0  0  0  0  0  0  0
   -4.7274   -2.1864   -0.4570 C   0  0  0  0  0  0  0  0  0  0  0  0
   -0.1345   -3.1740    1.7051 C   0  0  0  0  0  0  0  0  0  0  0  0
   -0.7854   -3.8261    2.2933 H   0  0  0  0  0  0  0  0  0  0  0  0
   -2.0394   -2.2545    0.3588 C   0  0  0  0  0  0  0  0  0  0  0  0
    1.2252   -3.0233    1.6896 C   0  0  0  0  0  0  0  0  0  0  0  0
    2.0161   -3.5124    2.2644 H   0  0  0  0  0  0  0  0  0  0  0  0
   -2.9922   -1.6416    1.2014 C   0  0  0  0  0  0  0  0  0  0  0  0
    2.8488   -1.6556    0.3569 C   0  0  0  0  0  0  0  0  0  0  0  0
   -3.7508   -2.8242   -1.2451 C   0  0  0  0  0  0  0  0  0  0  0  0
   -4.0477   -3.2991   -2.1938 H   0  0  0  0  0  0  0  0  0  0  0  0
   -2.4026   -2.8835   -0.8589 C   0  0  0  0  0  0  0  0  0  0  0  0
    4.8349   -0.3370    0.6936 C   0  0  0  0  0  0  0  0  0  0  0  0
    5.3883    0.4178    1.2745 H   0  0  0  0  0  0  0  0  0  0  0  0
    3.4132   -2.2604   -0.7938 C   0  0  0  0  0  0  0  0  0  0  0  0
   -1.3886   -3.5904   -1.7177 C   0  0  0  0  0  0  0  0  0  0  0  0
   -0.7747   -2.8480   -2.2735 H   0  0  0  0  0  0  0  0  0  0  0  0
   -1.8858   -4.2513   -2.4522 H   0  0  0  0  0  0  0  0  0  0  0  0
   -0.6881   -4.2031   -1.1145 H   0  0  0  0  0  0  0  0  0  0  0  0
   -6.1555   -2.0797   -0.9249 C   0  0  0  0  0  0  0  0  0  0  0  0
   -6.8705   -2.1694   -0.0832 H   0  0  0  0  0  0  0  0  0  0  0  0
   -6.4018   -2.8534   -1.6778 H   0  0  0  0  0  0  0  0  0  0  0  0
   -6.3318   -1.0889   -1.3960 H   0  0  0  0  0  0  0  0  0  0  0  0
    4.7021   -1.8614   -1.1755 C   0  0  0  0  0  0  0  0  0  0  0  0
    5.1547   -2.3196   -2.0694 H   0  0  0  0  0  0  0  0  0  0  0  0
    3.5445   -0.7005    1.1259 C   0  0  0  0  0  0  0  0  0  0  0  0
   -2.6372   -1.0038    2.5184 C   0  0  0  0  0  0  0  0  0  0  0  0
   -2.8951    0.0742    2.5044 H   0  0  0  0  0  0  0  0  0  0  0  0
   -1.5651   -1.0790    2.7661 H   0  0  0  0  0  0  0  0  0  0  0  0
   -3.2179   -1.4636    3.3442 H   0  0  0  0  0  0  0  0  0  0  0  0
    5.4268   -0.8928   -0.4513 C   0  0  0  0  0  0  0  0  0  0  0  0
    2.6392   -3.2768   -1.5914 C   0  0  0  0  0  0  0  0  0  0  0  0
    2.2106   -4.0710   -0.9463 H   0  0  0  0  0  0  0  0  0  0  0  0
    3.2819   -3.7576   -2.3522 H   0  0  0  0  0  0  0  0  0  0  0  0
    1.7856   -2.7986   -2.1187 H   0  0  0  0  0  0  0  0  0  0  0  0
    2.9552   -0.0511    2.3489 C   0  0  0  0  0  0  0  0  0  0  0  0
    2.0141   -0.5218    2.6821 H   0  0  0  0  0  0  0  0  0  0  0  0
    2.7311    1.0152    2.1445 H   0  0  0  0  0  0  0  0  0  0  0  0
    3.6758   -0.0740    3.1906 H   0  0  0  0  0  0  0  0  0  0  0  0
    6.7899   -0.4487   -0.9160 C   0  0  0  0  0  0  0  0  0  0  0  0
    6.6990    0.3110   -1.7217 H   0  0  0  0  0  0  0  0  0  0  0  0
    7.3755   -1.2929   -1.3312 H   0  0  0  0  0  0  0  0  0  0  0  0
    7.3735    0.0111   -0.0953 H   0  0  0  0  0  0  0  0  0  0  0  0
    1.5663   -0.3014   -1.3788 H   0  0  0  0  0  0  0  0  0  0  0  0
  2 11  1  0  0  0  0
  3  8  1  0  0  0  0
  4  1  1  6  0  0  0
  4  2  1  0  0  0  0
  4  3  1  0  0  0  0
  5 13  1  0  0  0  0
  5  6  1  0  0  0  0
  7  5  2  0  0  0  0
  8  9  1  0  0  0  0
 10  3  1  0  0  0  0
 10 13  2  0  0  0  0
 11  8  2  0  0  0  0
 11 12  1  0  0  0  0
 13 32  1  0  0  0  0
 14  2  1  0  0  0  0
 14 31  1  0  0  0  0
 15 17  2  0  0  0  0
 15  7  1  0  0  0  0
 16 15  1  0  0  0  0
 17 10  1  0  0  0  0
 18 31  2  0  0  0  0
 18 19  1  0  0  0  0
 20 14  2  0  0  0  0
 21 24  1  0  0  0  0
 21 17  1  0  0  0  0
 22 21  1  0  0  0  0
 23 21  1  0  0  0  0
 25  7  1  0  0  0  0
 25 26  1  0  0  0  0
 27 25  1  0  0  0  0
 28 25  1  0  0  0  0
 29 20  1  0  0  0  0
 29 36  2  0  0  0  0
 30 29  1  0  0  0  0
 31 41  1  0  0  0  0
 32 34  1  0  0  0  0
 32 35  1  0  0  0  0
 33 32  1  0  0  0  0
 36 18  1  0  0  0  0
 37 38  1  0  0  0  0
 37 20  1  0  0  0  0
 39 37  1  0  0  0  0
 40 37  1  0  0  0  0
 41 42  1  0  0  0  0
 41 44  1  0  0  0  0
 43 41  1  0  0  0  0
 45 36  1  0  0  0  0
 45 48  1  0  0  0  0
 46 45  1  0  0  0  0
 47 45  1  0  0  0  0
 49  1  1  0  0  0  0
M  END
