1
 OpenBabel05122313063D

 50 55  0  0  1  0  0  0  0  0999 V2000
   -0.8033    0.6712    0.2292 P   0  0  0  0  0  0  0  0  0  0  0  0
    0.9104    0.1867    0.5368 C   0  0  0  0  0  0  0  0  0  0  0  0
    1.5867    0.2497    1.7058 C   0  0  0  0  0  0  0  0  0  0  0  0
    1.1784    0.6659    2.6380 H   0  0  0  0  0  0  0  0  0  0  0  0
    2.9920   -0.3535    1.6343 C   0  0  1  0  0  0  0  0  0  0  0  0
    3.5412   -0.2991    2.5912 H   0  0  0  0  0  0  0  0  0  0  0  0
    2.7980   -1.7922    1.1403 C   0  0  0  0  0  0  0  0  0  0  0  0
    3.2328   -2.9615    1.7688 C   0  0  0  0  0  0  0  0  0  0  0  0
    3.7939   -2.9106    2.7150 H   0  0  0  0  0  0  0  0  0  0  0  0
    2.9355   -4.2067    1.1793 C   0  0  0  0  0  0  0  0  0  0  0  0
    3.2677   -5.1342    1.6697 H   0  0  0  0  0  0  0  0  0  0  0  0
    2.2112   -4.2709   -0.0199 C   0  0  0  0  0  0  0  0  0  0  0  0
    1.9712   -5.2480   -0.4652 H   0  0  0  0  0  0  0  0  0  0  0  0
    1.7791   -3.0910   -0.6576 C   0  0  0  0  0  0  0  0  0  0  0  0
    1.2004   -3.1378   -1.5927 H   0  0  0  0  0  0  0  0  0  0  0  0
    2.0816   -1.8585   -0.0741 C   0  0  0  0  0  0  0  0  0  0  0  0
    1.6968   -0.4775   -0.6060 C   0  0  2  0  0  0  0  0  0  0  0  0
    1.1282   -0.5266   -1.5528 H   0  0  0  0  0  0  0  0  0  0  0  0
    2.9980    0.3123   -0.7237 C   0  0  0  0  0  0  0  0  0  0  0  0
    3.4977    0.9359   -1.8704 C   0  0  0  0  0  0  0  0  0  0  0  0
    2.9402    0.8822   -2.8182 H   0  0  0  0  0  0  0  0  0  0  0  0
    4.7166    1.6382   -1.7934 C   0  0  0  0  0  0  0  0  0  0  0  0
    5.1179    2.1340   -2.6902 H   0  0  0  0  0  0  0  0  0  0  0  0
    5.4203    1.7074   -0.5817 C   0  0  0  0  0  0  0  0  0  0  0  0
    6.3725    2.2569   -0.5308 H   0  0  0  0  0  0  0  0  0  0  0  0
    4.9162    1.0765    0.5731 C   0  0  0  0  0  0  0  0  0  0  0  0
    5.4684    1.1292    1.5244 H   0  0  0  0  0  0  0  0  0  0  0  0
    3.7053    0.3828    0.4970 C   0  0  0  0  0  0  0  0  0  0  0  0
   -0.6575    2.1083   -0.9011 C   0  0  0  0  0  0  0  0  0  0  0  0
    0.5170    2.8878   -0.9409 C   0  0  0  0  0  0  0  0  0  0  0  0
    1.3736    2.6279   -0.3002 H   0  0  0  0  0  0  0  0  0  0  0  0
    0.5985    3.9836   -1.8139 C   0  0  0  0  0  0  0  0  0  0  0  0
    1.5217    4.5815   -1.8504 H   0  0  0  0  0  0  0  0  0  0  0  0
   -0.4884    4.3078   -2.6411 C   0  0  0  0  0  0  0  0  0  0  0  0
   -0.4207    5.1659   -3.3270 H   0  0  0  0  0  0  0  0  0  0  0  0
   -1.6586    3.5310   -2.6031 C   0  0  0  0  0  0  0  0  0  0  0  0
   -2.5077    3.7780   -3.2580 H   0  0  0  0  0  0  0  0  0  0  0  0
   -1.7434    2.4286   -1.7414 C   0  0  0  0  0  0  0  0  0  0  0  0
   -2.6478    1.7998   -1.7248 H   0  0  0  0  0  0  0  0  0  0  0  0
   -1.4008    1.3273    1.8317 C   0  0  0  0  0  0  0  0  0  0  0  0
   -1.1260    2.6488    2.2367 C   0  0  0  0  0  0  0  0  0  0  0  0
   -0.5861    3.3311    1.5627 H   0  0  0  0  0  0  0  0  0  0  0  0
   -1.5523    3.0947    3.4966 C   0  0  0  0  0  0  0  0  0  0  0  0
   -1.3417    4.1286    3.8093 H   0  0  0  0  0  0  0  0  0  0  0  0
   -2.2497    2.2273    4.3534 C   0  0  0  0  0  0  0  0  0  0  0  0
   -2.5858    2.5820    5.3396 H   0  0  0  0  0  0  0  0  0  0  0  0
   -2.5268    0.9113    3.9491 C   0  0  0  0  0  0  0  0  0  0  0  0
   -3.0803    0.2324    4.6151 H   0  0  0  0  0  0  0  0  0  0  0  0
   -2.1080    0.4603    2.6890 C   0  0  0  0  0  0  0  0  0  0  0  0
   -2.3333   -0.5660    2.3569 H   0  0  0  0  0  0  0  0  0  0  0  0
  1  2  1  0  0  0  0
  1 40  1  0  0  0  0
  2  3  2  0  0  0  0
  3  4  1  0  0  0  0
  5  3  1  0  0  0  0
  5  6  1  1  0  0  0
  7  5  1  0  0  0  0
  7  8  1  0  0  0  0
  8  9  1  0  0  0  0
 10 11  1  0  0  0  0
 10  8  2  0  0  0  0
 12 10  1  0  0  0  0
 13 12  1  0  0  0  0
 14 16  1  0  0  0  0
 14 12  2  0  0  0  0
 15 14  1  0  0  0  0
 16  7  2  0  0  0  0
 17 18  1  6  0  0  0
 17 16  1  0  0  0  0
 17  2  1  0  0  0  0
 19 17  1  0  0  0  0
 19 28  1  0  0  0  0
 20 22  1  0  0  0  0
 20 19  2  0  0  0  0
 21 20  1  0  0  0  0
 22 24  2  0  0  0  0
 23 22  1  0  0  0  0
 24 25  1  0  0  0  0
 24 26  1  0  0  0  0
 26 27  1  0  0  0  0
 28 26  2  0  0  0  0
 28  5  1  0  0  0  0
 29  1  1  0  0  0  0
 30 29  1  0  0  0  0
 30 31  1  0  0  0  0
 32 30  2  0  0  0  0
 33 32  1  0  0  0  0
 34 36  2  0  0  0  0
 34 32  1  0  0  0  0
 35 34  1  0  0  0  0
 36 38  1  0  0  0  0
 37 36  1  0  0  0  0
 38 39  1  0  0  0  0
 38 29  2  0  0  0  0
 40 41  2  0  0  0  0
 40 49  1  0  0  0  0
 41 43  1  0  0  0  0
 42 41  1  0  0  0  0
 43 44  1  0  0  0  0
 43 45  2  0  0  0  0
 45 46  1  0  0  0  0
 47 45  1  0  0  0  0
 47 48  1  0  0  0  0
 49 47  2  0  0  0  0
 50 49  1  0  0  0  0
M  END
