1
 OpenBabel05122313063D

 29 29  0  0  0  0  0  0  0  0999 V2000
   -0.9679    0.9165   -0.0136 P   0  0  0  0  0  0  0  0  0  0  0  0
   -2.6833   -0.8418    1.1962 N   0  0  0  0  0  0  0  0  0  0  0  0
   -1.3541    1.8620    1.3552 N   0  0  0  0  0  0  0  0  0  0  0  0
   -1.3730    1.7261   -1.4934 N   0  0  0  0  0  0  0  0  0  0  0  0
   -2.2744   -0.4024   -0.0054 C   0  0  0  0  0  0  0  0  0  0  0  0
   -2.6372   -1.0251   -1.2181 C   0  0  0  0  0  0  0  0  0  0  0  0
   -3.4673   -2.1518   -1.1623 C   0  0  0  0  0  0  0  0  0  0  0  0
   -3.9008   -2.6133    0.0894 C   0  0  0  0  0  0  0  0  0  0  0  0
   -3.4797   -1.9211    1.2362 C   0  0  0  0  0  0  0  0  0  0  0  0
   -2.7096    2.2009    1.7557 C   0  0  0  0  0  0  0  0  0  0  0  0
   -0.3353    2.6884    1.9804 C   0  0  0  0  0  0  0  0  0  0  0  0
   -2.7133    2.2758   -1.6515 C   0  0  0  0  0  0  0  0  0  0  0  0
   -0.3567    2.5348   -2.1522 C   0  0  0  0  0  0  0  0  0  0  0  0
   -2.2499   -0.6341   -2.1701 H   0  0  0  0  0  0  0  0  0  0  0  0
   -3.7661   -2.6689   -2.0869 H   0  0  0  0  0  0  0  0  0  0  0  0
   -4.5464   -3.4993    0.1797 H   0  0  0  0  0  0  0  0  0  0  0  0
   -3.7965   -2.2564    2.2395 H   0  0  0  0  0  0  0  0  0  0  0  0
   -3.4441    1.5210    1.2908 H   0  0  0  0  0  0  0  0  0  0  0  0
   -2.8166    2.0919    2.8576 H   0  0  0  0  0  0  0  0  0  0  0  0
   -2.9719    3.2522    1.4888 H   0  0  0  0  0  0  0  0  0  0  0  0
   -0.3305    2.5413    3.0835 H   0  0  0  0  0  0  0  0  0  0  0  0
   -0.5011    3.7730    1.7789 H   0  0  0  0  0  0  0  0  0  0  0  0
    0.6664    2.4214    1.5965 H   0  0  0  0  0  0  0  0  0  0  0  0
   -3.4692    1.6115   -1.1907 H   0  0  0  0  0  0  0  0  0  0  0  0
   -2.8188    3.2905   -1.1974 H   0  0  0  0  0  0  0  0  0  0  0  0
   -2.9566    2.3662   -2.7324 H   0  0  0  0  0  0  0  0  0  0  0  0
    0.6456    2.1009   -1.9868 H   0  0  0  0  0  0  0  0  0  0  0  0
   -0.5434    2.5565   -3.2476 H   0  0  0  0  0  0  0  0  0  0  0  0
   -0.3422    3.5903   -1.7875 H   0  0  0  0  0  0  0  0  0  0  0  0
  1  5  1  0  0  0  0
  1  3  1  0  0  0  0
  2  9  1  0  0  0  0
  3 10  1  0  0  0  0
  3 11  1  0  0  0  0
  4  1  1  0  0  0  0
  5  2  2  0  0  0  0
  6  7  2  0  0  0  0
  6  5  1  0  0  0  0
  7  8  1  0  0  0  0
  8 16  1  0  0  0  0
  8  9  2  0  0  0  0
  9 17  1  0  0  0  0
 10 19  1  0  0  0  0
 11 21  1  0  0  0  0
 12  4  1  0  0  0  0
 12 25  1  0  0  0  0
 12 24  1  0  0  0  0
 13 27  1  0  0  0  0
 13 29  1  0  0  0  0
 13  4  1  0  0  0  0
 14  6  1  0  0  0  0
 15  7  1  0  0  0  0
 18 10  1  0  0  0  0
 20 10  1  0  0  0  0
 22 11  1  0  0  0  0
 23 11  1  0  0  0  0
 26 12  1  0  0  0  0
 28 13  1  0  0  0  0
M  END
