1
 OpenBabel05122313063D

 40 41  0  0  0  0  0  0  0  0999 V2000
   -0.4239    0.2967    0.1720 P   0  0  0  0  0  0  0  0  0  0  0  0
   -1.8246    1.0996    2.3635 F   0  0  0  0  0  0  0  0  0  0  0  0
   -1.2584   -1.0051    3.9432 F   0  0  0  0  0  0  0  0  0  0  0  0
   -0.0512   -1.9834    2.4049 F   0  0  0  0  0  0  0  0  0  0  0  0
   -0.0992    2.1255    0.1075 C   0  0  0  0  0  0  0  0  0  0  0  0
   -1.0349    2.6265    0.4399 H   0  0  0  0  0  0  0  0  0  0  0  0
    1.0347    2.4929    1.0833 C   0  0  0  0  0  0  0  0  0  0  0  0
    0.7472    2.2217    2.1202 H   0  0  0  0  0  0  0  0  0  0  0  0
    1.9329    1.8850    0.8324 H   0  0  0  0  0  0  0  0  0  0  0  0
    1.3786    3.9861    0.9981 C   0  0  0  0  0  0  0  0  0  0  0  0
    2.2207    4.2136    1.6839 H   0  0  0  0  0  0  0  0  0  0  0  0
    0.5106    4.5828    1.3586 H   0  0  0  0  0  0  0  0  0  0  0  0
    1.7209    4.4040   -0.4369 C   0  0  0  0  0  0  0  0  0  0  0  0
    1.9397    5.4910   -0.4827 H   0  0  0  0  0  0  0  0  0  0  0  0
    2.6498    3.8822   -0.7582 H   0  0  0  0  0  0  0  0  0  0  0  0
    0.5838    4.0475   -1.4015 C   0  0  0  0  0  0  0  0  0  0  0  0
    0.8531    4.3191   -2.4433 H   0  0  0  0  0  0  0  0  0  0  0  0
   -0.3185    4.6466   -1.1441 H   0  0  0  0  0  0  0  0  0  0  0  0
    0.2317    2.5545   -1.3341 C   0  0  0  0  0  0  0  0  0  0  0  0
   -0.6184    2.3339   -2.0131 H   0  0  0  0  0  0  0  0  0  0  0  0
    1.0926    1.9491   -1.6975 H   0  0  0  0  0  0  0  0  0  0  0  0
   -1.9137   -0.0454   -0.8933 C   0  0  0  0  0  0  0  0  0  0  0  0
   -1.5459    0.1733   -1.9224 H   0  0  0  0  0  0  0  0  0  0  0  0
   -2.2679   -1.5427   -0.8223 C   0  0  0  0  0  0  0  0  0  0  0  0
   -2.5244   -1.8024    0.2295 H   0  0  0  0  0  0  0  0  0  0  0  0
   -1.3803   -2.1537   -1.0899 H   0  0  0  0  0  0  0  0  0  0  0  0
   -3.4573   -1.8764   -1.7328 C   0  0  0  0  0  0  0  0  0  0  0  0
   -3.1550   -1.7276   -2.7935 H   0  0  0  0  0  0  0  0  0  0  0  0
   -3.7159   -2.9506   -1.6305 H   0  0  0  0  0  0  0  0  0  0  0  0
   -4.6720   -0.9937   -1.4222 C   0  0  0  0  0  0  0  0  0  0  0  0
   -5.5092   -1.2289   -2.1117 H   0  0  0  0  0  0  0  0  0  0  0  0
   -5.0380   -1.2218   -0.3957 H   0  0  0  0  0  0  0  0  0  0  0  0
   -4.3117    0.4943   -1.5077 C   0  0  0  0  0  0  0  0  0  0  0  0
   -5.1867    1.1258   -1.2483 H   0  0  0  0  0  0  0  0  0  0  0  0
   -4.0433    0.7473   -2.5580 H   0  0  0  0  0  0  0  0  0  0  0  0
   -3.1307    0.8448   -0.5898 C   0  0  0  0  0  0  0  0  0  0  0  0
   -3.4300    0.7038    0.4713 H   0  0  0  0  0  0  0  0  0  0  0  0
   -2.8678    1.9172   -0.7011 H   0  0  0  0  0  0  0  0  0  0  0  0
   -1.0365    0.0997    1.8805 C   0  0  0  0  0  0  0  0  0  0  0  0
   -0.7849   -0.9366    2.7144 C   0  0  0  0  0  0  0  0  0  0  0  0
  1 39  1  0  0  0  0
  4 40  1  0  0  0  0
  5  1  1  0  0  0  0
  5  6  1  0  0  0  0
  5  7  1  0  0  0  0
  7  8  1  0  0  0  0
  9  7  1  0  0  0  0
 10  7  1  0  0  0  0
 10 12  1  0  0  0  0
 10 11  1  0  0  0  0
 13 10  1  0  0  0  0
 14 13  1  0  0  0  0
 15 13  1  0  0  0  0
 16 19  1  0  0  0  0
 16 18  1  0  0  0  0
 16 13  1  0  0  0  0
 17 16  1  0  0  0  0
 19  5  1  0  0  0  0
 20 19  1  0  0  0  0
 21 19  1  0  0  0  0
 22 24  1  0  0  0  0
 22 36  1  0  0  0  0
 22  1  1  0  0  0  0
 23 22  1  0  0  0  0
 24 25  1  0  0  0  0
 26 24  1  0  0  0  0
 27 29  1  0  0  0  0
 27 30  1  0  0  0  0
 27 24  1  0  0  0  0
 28 27  1  0  0  0  0
 30 32  1  0  0  0  0
 31 30  1  0  0  0  0
 33 30  1  0  0  0  0
 33 34  1  0  0  0  0
 33 36  1  0  0  0  0
 35 33  1  0  0  0  0
 36 37  1  0  0  0  0
 38 36  1  0  0  0  0
 39  2  1  0  0  0  0
 39 40  2  0  0  0  0
 40  3  1  0  0  0  0
M  END
