1
 OpenBabel05122313063D

 75 82  0  0  1  0  0  0  0  0999 V2000
    0.4920    0.0622    0.2646 P   0  0  1  0  0  0  0  0  0  0  0  0
   -5.1461   -0.6602    0.4173 O   0  0  0  0  0  0  0  0  0  0  0  0
   -2.4783   -0.3476    1.3686 N   0  0  0  0  0  0  0  0  0  0  0  0
   -0.0866   -0.0155    2.0198 C   0  0  0  0  0  0  0  0  0  0  0  0
   -1.4545   -0.2037    2.3620 C   0  0  0  0  0  0  0  0  0  0  0  0
   -1.8167   -0.2542    3.7273 C   0  0  0  0  0  0  0  0  0  0  0  0
   -2.8777   -0.3950    3.9830 H   0  0  0  0  0  0  0  0  0  0  0  0
   -0.8702   -0.1313    4.7488 C   0  0  0  0  0  0  0  0  0  0  0  0
   -1.1852   -0.1745    5.8027 H   0  0  0  0  0  0  0  0  0  0  0  0
    0.4804    0.0464    4.4158 C   0  0  0  0  0  0  0  0  0  0  0  0
    1.2443    0.1413    5.2021 H   0  0  0  0  0  0  0  0  0  0  0  0
    0.8568    0.1055    3.0693 C   0  0  0  0  0  0  0  0  0  0  0  0
    1.9179    0.2436    2.8300 H   0  0  0  0  0  0  0  0  0  0  0  0
   -3.4197    0.7805    1.3323 C   0  0  0  0  0  0  0  0  0  0  0  0
   -2.8487    1.7124    1.1411 H   0  0  0  0  0  0  0  0  0  0  0  0
   -3.9538    0.9028    2.3107 H   0  0  0  0  0  0  0  0  0  0  0  0
   -4.4583    0.5677    0.2323 C   0  0  0  0  0  0  0  0  0  0  0  0
   -5.2161    1.3760    0.2729 H   0  0  0  0  0  0  0  0  0  0  0  0
   -3.9650    0.5875   -0.7686 H   0  0  0  0  0  0  0  0  0  0  0  0
   -4.2247   -1.7385    0.3279 C   0  0  0  0  0  0  0  0  0  0  0  0
   -3.7382   -1.7475   -0.6757 H   0  0  0  0  0  0  0  0  0  0  0  0
   -4.8063   -2.6743    0.4504 H   0  0  0  0  0  0  0  0  0  0  0  0
   -3.1675   -1.6454    1.4274 C   0  0  0  0  0  0  0  0  0  0  0  0
   -3.6685   -1.8040    2.4173 H   0  0  0  0  0  0  0  0  0  0  0  0
   -2.4129   -2.4495    1.2974 H   0  0  0  0  0  0  0  0  0  0  0  0
    1.1042    1.8470    0.0424 C   0  0  2  0  0  0  0  0  0  0  0  0
   -0.1736    2.7285    0.0997 C   0  0  0  0  0  0  0  0  0  0  0  0
   -0.9168    2.3530   -0.6366 H   0  0  0  0  0  0  0  0  0  0  0  0
   -0.6382    2.6436    1.1058 H   0  0  0  0  0  0  0  0  0  0  0  0
    0.1755    4.1993   -0.1984 C   0  0  2  0  0  0  0  0  0  0  0  0
   -0.7567    4.8012   -0.1535 H   0  0  0  0  0  0  0  0  0  0  0  0
    0.7929    4.2992   -1.6057 C   0  0  0  0  0  0  0  0  0  0  0  0
    0.0665    3.9441   -2.3672 H   0  0  0  0  0  0  0  0  0  0  0  0
    1.0259    5.3585   -1.8468 H   0  0  0  0  0  0  0  0  0  0  0  0
    2.0758    3.4495   -1.6623 C   0  0  2  0  0  0  0  0  0  0  0  0
    2.5230    3.5127   -2.6768 H   0  0  0  0  0  0  0  0  0  0  0  0
    1.7357    1.9756   -1.3655 C   0  0  0  0  0  0  0  0  0  0  0  0
    1.0331    1.5730   -2.1268 H   0  0  0  0  0  0  0  0  0  0  0  0
    2.6630    1.3680   -1.4222 H   0  0  0  0  0  0  0  0  0  0  0  0
    2.0994    2.3809    1.0975 C   0  0  0  0  0  0  0  0  0  0  0  0
    1.6475    2.3262    2.1081 H   0  0  0  0  0  0  0  0  0  0  0  0
    3.0245    1.7706    1.1126 H   0  0  0  0  0  0  0  0  0  0  0  0
    2.4567    3.8528    0.7882 C   0  0  2  0  0  0  0  0  0  0  0  0
    3.1828    4.2056    1.5513 H   0  0  0  0  0  0  0  0  0  0  0  0
    1.1811    4.7124    0.8480 C   0  0  0  0  0  0  0  0  0  0  0  0
    0.7346    4.6637    1.8645 H   0  0  0  0  0  0  0  0  0  0  0  0
    1.4284    5.7779    0.6532 H   0  0  0  0  0  0  0  0  0  0  0  0
    3.0835    3.9568   -0.6142 C   0  0  0  0  0  0  0  0  0  0  0  0
    3.3640    5.0102   -0.8286 H   0  0  0  0  0  0  0  0  0  0  0  0
    4.0188    3.3577   -0.6617 H   0  0  0  0  0  0  0  0  0  0  0  0
    1.8559   -1.2623    0.0954 C   0  0  2  0  0  0  0  0  0  0  0  0
    1.2821   -2.5450    0.7543 C   0  0  0  0  0  0  0  0  0  0  0  0
    1.1202   -2.3792    1.8391 H   0  0  0  0  0  0  0  0  0  0  0  0
    0.2888   -2.7738    0.3087 H   0  0  0  0  0  0  0  0  0  0  0  0
    2.2485   -3.7282    0.5501 C   0  0  2  0  0  0  0  0  0  0  0  0
    1.8164   -4.6271    1.0388 H   0  0  0  0  0  0  0  0  0  0  0  0
    3.6064   -3.3884    1.1938 C   0  0  0  0  0  0  0  0  0  0  0  0
    3.4791   -3.2120    2.2839 H   0  0  0  0  0  0  0  0  0  0  0  0
    4.3069   -4.2438    1.0848 H   0  0  0  0  0  0  0  0  0  0  0  0
    4.1960   -2.1360    0.5184 C   0  0  2  0  0  0  0  0  0  0  0  0
    5.1719   -1.8828    0.9850 H   0  0  0  0  0  0  0  0  0  0  0  0
    3.2357   -0.9409    0.7142 C   0  0  0  0  0  0  0  0  0  0  0  0
    3.1478   -0.7291    1.7980 H   0  0  0  0  0  0  0  0  0  0  0  0
    3.6684   -0.0385    0.2348 H   0  0  0  0  0  0  0  0  0  0  0  0
    2.0616   -1.5494   -1.4183 C   0  0  0  0  0  0  0  0  0  0  0  0
    1.0799   -1.7680   -1.8901 H   0  0  0  0  0  0  0  0  0  0  0  0
    2.4615   -0.6513   -1.9305 H   0  0  0  0  0  0  0  0  0  0  0  0
    3.0270   -2.7341   -1.6179 C   0  0  2  0  0  0  0  0  0  0  0  0
    3.1490   -2.9067   -2.7079 H   0  0  0  0  0  0  0  0  0  0  0  0
    2.4387   -3.9917   -0.9543 C   0  0  0  0  0  0  0  0  0  0  0  0
    3.1150   -4.8598   -1.1084 H   0  0  0  0  0  0  0  0  0  0  0  0
    1.4655   -4.2499   -1.4232 H   0  0  0  0  0  0  0  0  0  0  0  0
    4.3899   -2.4016   -0.9848 C   0  0  0  0  0  0  0  0  0  0  0  0
    4.8341   -1.5094   -1.4770 H   0  0  0  0  0  0  0  0  0  0  0  0
    5.1010   -3.2418   -1.1357 H   0  0  0  0  0  0  0  0  0  0  0  0
  1  4  1  1  0  0  0
  3 23  1  0  0  0  0
  3  5  1  0  0  0  0
  4  5  2  0  0  0  0
  4 12  1  0  0  0  0
  5  6  1  0  0  0  0
  6  7  1  0  0  0  0
  6  8  2  0  0  0  0
  8  9  1  0  0  0  0
 10  8  1  0  0  0  0
 10 11  1  0  0  0  0
 12 10  2  0  0  0  0
 13 12  1  0  0  0  0
 14  3  1  0  0  0  0
 14 16  1  0  0  0  0
 15 14  1  0  0  0  0
 17 18  1  0  0  0  0
 17  2  1  0  0  0  0
 17 14  1  0  0  0  0
 19 17  1  0  0  0  0
 20  2  1  0  0  0  0
 20 22  1  0  0  0  0
 20 23  1  0  0  0  0
 21 20  1  0  0  0  0
 23 24  1  0  0  0  0
 25 23  1  0  0  0  0
 26 27  1  0  0  0  0
 26  1  1  1  0  0  0
 26 40  1  0  0  0  0
 27 29  1  0  0  0  0
 28 27  1  0  0  0  0
 30 31  1  1  0  0  0
 30 27  1  0  0  0  0
 30 45  1  0  0  0  0
 32 30  1  0  0  0  0
 33 32  1  0  0  0  0
 34 32  1  0  0  0  0
 35 36  1  6  0  0  0
 35 32  1  0  0  0  0
 35 37  1  0  0  0  0
 35 48  1  0  0  0  0
 37 26  1  0  0  0  0
 38 37  1  0  0  0  0
 39 37  1  0  0  0  0
 40 42  1  0  0  0  0
 40 41  1  0  0  0  0
 43 45  1  0  0  0  0
 43 40  1  0  0  0  0
 43 44  1  1  0  0  0
 45 46  1  0  0  0  0
 47 45  1  0  0  0  0
 48 43  1  0  0  0  0
 49 48  1  0  0  0  0
 50 48  1  0  0  0  0
 51  1  1  1  0  0  0
 51 62  1  0  0  0  0
 51 52  1  0  0  0  0
 52 53  1  0  0  0  0
 54 52  1  0  0  0  0
 55 52  1  0  0  0  0
 55 56  1  1  0  0  0
 55 57  1  0  0  0  0
 57 58  1  0  0  0  0
 59 57  1  0  0  0  0
 60 62  1  0  0  0  0
 60 61  1  1  0  0  0
 60 57  1  0  0  0  0
 62 63  1  0  0  0  0
 64 62  1  0  0  0  0
 65 51  1  0  0  0  0
 66 65  1  0  0  0  0
 67 65  1  0  0  0  0
 68 69  1  6  0  0  0
 68 65  1  0  0  0  0
 68 73  1  0  0  0  0
 68 70  1  0  0  0  0
 70 55  1  0  0  0  0
 71 70  1  0  0  0  0
 72 70  1  0  0  0  0
 73 60  1  0  0  0  0
 74 73  1  0  0  0  0
 75 73  1  0  0  0  0
M  END
