1
 OpenBabel05122313063D

 43 44  0  0  1  0  0  0  0  0999 V2000
    0.1054   -0.0127   -1.2135 P   0  0  0  0  0  2  0  0  0  0  0  0
    1.7810   -0.2614   -0.4854 C   0  0  1  0  0  3  0  0  0  0  0  0
    2.3533   -1.4078   -0.0128 N   0  0  0  0  0  0  0  0  0  0  0  0
    2.7844    0.6696   -0.5278 N   0  0  0  0  0  0  0  0  0  0  0  0
    3.7081   -1.1965    0.2557 C   0  0  0  0  0  0  0  0  0  0  0  0
    3.9794    0.1228   -0.0573 C   0  0  0  0  0  0  0  0  0  0  0  0
   -0.3336    1.5273   -0.3008 C   0  0  1  0  0  3  0  0  0  0  0  0
   -0.9719    2.5817   -0.8831 N   0  0  0  0  0  0  0  0  0  0  0  0
   -0.2294    1.8304    1.0263 N   0  0  0  0  0  0  0  0  0  0  0  0
   -1.2846    3.5482    0.0719 C   0  0  0  0  0  0  0  0  0  0  0  0
   -0.8030    3.0780    1.2823 C   0  0  0  0  0  0  0  0  0  0  0  0
    1.7089   -2.7059    0.1569 C   0  0  0  0  0  0  0  0  0  0  0  0
    0.6074   -2.5675    0.1935 H   0  0  0  0  0  0  0  0  0  0  0  0
    2.0492   -3.1672    1.1013 H   0  0  0  0  0  0  0  0  0  0  0  0
    1.9572   -3.3752   -0.6901 H   0  0  0  0  0  0  0  0  0  0  0  0
    4.6003   -2.2711    0.7708 C   0  0  0  0  0  0  0  0  0  0  0  0
    5.6336   -1.8945    0.8750 H   0  0  0  0  0  0  0  0  0  0  0  0
    4.6278   -3.1432    0.0857 H   0  0  0  0  0  0  0  0  0  0  0  0
    4.2762   -2.6402    1.7660 H   0  0  0  0  0  0  0  0  0  0  0  0
    5.2487    0.8963    0.0340 C   0  0  0  0  0  0  0  0  0  0  0  0
    6.0409    0.2728    0.4860 H   0  0  0  0  0  0  0  0  0  0  0  0
    5.1393    1.8035    0.6630 H   0  0  0  0  0  0  0  0  0  0  0  0
    5.6135    1.2187   -0.9639 H   0  0  0  0  0  0  0  0  0  0  0  0
    2.6373    2.0209   -1.0465 C   0  0  0  0  0  0  0  0  0  0  0  0
    1.9460    2.0003   -1.9109 H   0  0  0  0  0  0  0  0  0  0  0  0
    3.6212    2.3925   -1.3817 H   0  0  0  0  0  0  0  0  0  0  0  0
    2.2356    2.7107   -0.2773 H   0  0  0  0  0  0  0  0  0  0  0  0
   -1.3554    2.6584   -2.2874 C   0  0  0  0  0  0  0  0  0  0  0  0
   -0.8108    1.8737   -2.8456 H   0  0  0  0  0  0  0  0  0  0  0  0
   -1.1003    3.6542   -2.6951 H   0  0  0  0  0  0  0  0  0  0  0  0
   -2.4439    2.4850   -2.3995 H   0  0  0  0  0  0  0  0  0  0  0  0
   -2.0179    4.7989   -0.2652 C   0  0  0  0  0  0  0  0  0  0  0  0
   -3.0183    4.5817   -0.6933 H   0  0  0  0  0  0  0  0  0  0  0  0
   -1.4670    5.4198   -1.0020 H   0  0  0  0  0  0  0  0  0  0  0  0
   -2.1697    5.4121    0.6410 H   0  0  0  0  0  0  0  0  0  0  0  0
   -0.8564    3.6861    2.6405 C   0  0  0  0  0  0  0  0  0  0  0  0
    0.1514    3.7828    3.0935 H   0  0  0  0  0  0  0  0  0  0  0  0
   -1.4846    3.0903    3.3354 H   0  0  0  0  0  0  0  0  0  0  0  0
   -1.2965    4.6982    2.5865 H   0  0  0  0  0  0  0  0  0  0  0  0
    0.3007    0.9280    2.0389 C   0  0  0  0  0  0  0  0  0  0  0  0
   -0.0329   -0.1027    1.7982 H   0  0  0  0  0  0  0  0  0  0  0  0
   -0.1001    1.2137    3.0264 H   0  0  0  0  0  0  0  0  0  0  0  0
    1.4076    0.9638    2.0732 H   0  0  0  0  0  0  0  0  0  0  0  0
  2  1  1  6  0  0  0
  2  3  1  0  0  0  0
  3 12  1  0  0  0  0
  3  5  1  0  0  0  0
  4  2  1  0  0  0  0
  4  6  1  0  0  0  0
  5 16  1  0  0  0  0
  6 20  1  0  0  0  0
  6  5  2  0  0  0  0
  7  1  1  1  0  0  0
  7  9  1  0  0  0  0
  8  7  1  0  0  0  0
  8 10  1  0  0  0  0
  9 11  1  0  0  0  0
  9 40  1  0  0  0  0
 10 11  2  0  0  0  0
 11 36  1  0  0  0  0
 12 13  1  0  0  0  0
 12 14  1  0  0  0  0
 15 12  1  0  0  0  0
 16 17  1  0  0  0  0
 16 19  1  0  0  0  0
 18 16  1  0  0  0  0
 20 21  1  0  0  0  0
 20 22  1  0  0  0  0
 23 20  1  0  0  0  0
 24  4  1  0  0  0  0
 24 27  1  0  0  0  0
 25 24  1  0  0  0  0
 26 24  1  0  0  0  0
 28  8  1  0  0  0  0
 29 28  1  0  0  0  0
 30 28  1  0  0  0  0
 31 28  1  0  0  0  0
 32 10  1  0  0  0  0
 32 35  1  0  0  0  0
 33 32  1  0  0  0  0
 34 32  1  0  0  0  0
 36 37  1  0  0  0  0
 36 38  1  0  0  0  0
 39 36  1  0  0  0  0
 40 43  1  0  0  0  0
 40 42  1  0  0  0  0
 41 40  1  0  0  0  0
M  END
