1
 OpenBabel05122313063D

 64 66  0  0  0  0  0  0  0  0999 V2000
    0.6415    0.1369   -0.2762 P   0  0  0  0  0  0  0  0  0  0  0  0
    0.7114   -1.1672   -1.6502 C   0  0  0  0  0  0  0  0  0  0  0  0
    1.7290   -1.1063   -2.0983 H   0  0  0  0  0  0  0  0  0  0  0  0
    0.4838   -2.5973   -1.1264 C   0  0  0  0  0  0  0  0  0  0  0  0
    1.2067   -2.8450   -0.3264 H   0  0  0  0  0  0  0  0  0  0  0  0
   -0.5187   -2.6279   -0.6539 H   0  0  0  0  0  0  0  0  0  0  0  0
    0.5709   -3.6250   -2.2620 C   0  0  0  0  0  0  0  0  0  0  0  0
    0.3805   -4.6434   -1.8615 H   0  0  0  0  0  0  0  0  0  0  0  0
    1.6091   -3.6392   -2.6667 H   0  0  0  0  0  0  0  0  0  0  0  0
   -0.4071   -3.3004   -3.3975 C   0  0  0  0  0  0  0  0  0  0  0  0
   -1.4493   -3.4007   -3.0182 H   0  0  0  0  0  0  0  0  0  0  0  0
   -0.3023   -4.0325   -4.2257 H   0  0  0  0  0  0  0  0  0  0  0  0
   -0.2000   -1.8705   -3.9098 C   0  0  0  0  0  0  0  0  0  0  0  0
    0.8018   -1.7948   -4.3915 H   0  0  0  0  0  0  0  0  0  0  0  0
   -0.9430   -1.6260   -4.6976 H   0  0  0  0  0  0  0  0  0  0  0  0
   -0.2994   -0.8454   -2.7711 C   0  0  0  0  0  0  0  0  0  0  0  0
   -1.3224   -0.8579   -2.3394 H   0  0  0  0  0  0  0  0  0  0  0  0
   -0.1488    0.1819   -3.1573 H   0  0  0  0  0  0  0  0  0  0  0  0
    1.4145   -0.6630    1.2565 C   0  0  0  0  0  0  0  0  0  0  0  0
    0.7409   -0.5960    2.5195 C   0  0  0  0  0  0  0  0  0  0  0  0
   -0.5216    0.2056    2.8126 C   0  0  0  0  0  0  0  0  0  0  0  0
   -0.9126    0.6055    1.8431 H   0  0  0  0  0  0  0  0  0  0  0  0
   -1.6444   -0.6484    3.4150 C   0  0  0  0  0  0  0  0  0  0  0  0
   -1.8388   -1.5399    2.7874 H   0  0  0  0  0  0  0  0  0  0  0  0
   -2.5830   -0.0596    3.4662 H   0  0  0  0  0  0  0  0  0  0  0  0
   -1.4123   -0.9953    4.4441 H   0  0  0  0  0  0  0  0  0  0  0  0
   -0.2021    1.4363    3.6746 C   0  0  0  0  0  0  0  0  0  0  0  0
    0.1783    1.1551    4.6798 H   0  0  0  0  0  0  0  0  0  0  0  0
   -1.1143    2.0517    3.8162 H   0  0  0  0  0  0  0  0  0  0  0  0
    0.5646    2.0746    3.1908 H   0  0  0  0  0  0  0  0  0  0  0  0
    1.2932   -1.2649    3.6331 C   0  0  0  0  0  0  0  0  0  0  0  0
    0.7630   -1.2096    4.5955 H   0  0  0  0  0  0  0  0  0  0  0  0
    2.4867   -1.9777    3.5493 C   0  0  0  0  0  0  0  0  0  0  0  0
    2.8939   -2.4973    4.4301 H   0  0  0  0  0  0  0  0  0  0  0  0
    3.1707   -2.0019    2.3330 C   0  0  0  0  0  0  0  0  0  0  0  0
    4.1315   -2.5338    2.2681 H   0  0  0  0  0  0  0  0  0  0  0  0
    2.6731   -1.3544    1.1856 C   0  0  0  0  0  0  0  0  0  0  0  0
    3.6073   -1.3984   -0.0289 C   0  0  0  0  0  0  0  0  0  0  0  0
    3.0701   -0.9962   -0.9030 H   0  0  0  0  0  0  0  0  0  0  0  0
    4.0594   -2.8182   -0.4140 C   0  0  0  0  0  0  0  0  0  0  0  0
    4.7135   -3.2705    0.3586 H   0  0  0  0  0  0  0  0  0  0  0  0
    4.6431   -2.7886   -1.3567 H   0  0  0  0  0  0  0  0  0  0  0  0
    3.1994   -3.4983   -0.5674 H   0  0  0  0  0  0  0  0  0  0  0  0
    4.8333   -0.4956    0.2132 C   0  0  0  0  0  0  0  0  0  0  0  0
    4.5382    0.5377    0.4835 H   0  0  0  0  0  0  0  0  0  0  0  0
    5.4711   -0.4467   -0.6935 H   0  0  0  0  0  0  0  0  0  0  0  0
    5.4549   -0.8869    1.0443 H   0  0  0  0  0  0  0  0  0  0  0  0
    1.9251    1.4272   -0.7402 C   0  0  0  0  0  0  0  0  0  0  0  0
    2.8762    0.8712   -0.8601 H   0  0  0  0  0  0  0  0  0  0  0  0
    2.1272    2.4236    0.4177 C   0  0  0  0  0  0  0  0  0  0  0  0
    2.4338    1.8716    1.3305 H   0  0  0  0  0  0  0  0  0  0  0  0
    1.1659    2.9199    0.6618 H   0  0  0  0  0  0  0  0  0  0  0  0
    3.1682    3.4953    0.0658 C   0  0  0  0  0  0  0  0  0  0  0  0
    3.2489    4.2242    0.8991 H   0  0  0  0  0  0  0  0  0  0  0  0
    4.1708    3.0194   -0.0319 H   0  0  0  0  0  0  0  0  0  0  0  0
    2.8189    4.2056   -1.2468 C   0  0  0  0  0  0  0  0  0  0  0  0
    3.5824    4.9742   -1.4890 H   0  0  0  0  0  0  0  0  0  0  0  0
    1.8520    4.7425   -1.1257 H   0  0  0  0  0  0  0  0  0  0  0  0
    2.6940    3.1951   -2.3924 C   0  0  0  0  0  0  0  0  0  0  0  0
    3.6823    2.7088   -2.5585 H   0  0  0  0  0  0  0  0  0  0  0  0
    2.4343    3.7075   -3.3422 H   0  0  0  0  0  0  0  0  0  0  0  0
    1.6423    2.1173   -2.0865 C   0  0  0  0  0  0  0  0  0  0  0  0
    0.6342    2.5785   -2.0766 H   0  0  0  0  0  0  0  0  0  0  0  0
    1.6330    1.3640   -2.9008 H   0  0  0  0  0  0  0  0  0  0  0  0
  1 19  1  0  0  0  0
  2  4  1  0  0  0  0
  2  1  1  0  0  0  0
  3  2  1  0  0  0  0
  4  6  1  0  0  0  0
  4  5  1  0  0  0  0
  7  8  1  0  0  0  0
  7  4  1  0  0  0  0
  9  7  1  0  0  0  0
 10 11  1  0  0  0  0
 10  7  1  0  0  0  0
 12 10  1  0  0  0  0
 13 10  1  0  0  0  0
 13 16  1  0  0  0  0
 14 13  1  0  0  0  0
 15 13  1  0  0  0  0
 16 17  1  0  0  0  0
 16  2  1  0  0  0  0
 18 16  1  0  0  0  0
 19 20  1  0  0  0  0
 20 21  1  0  0  0  0
 20 31  2  0  0  0  0
 21 23  1  0  0  0  0
 21 27  1  0  0  0  0
 22 21  1  0  0  0  0
 23 25  1  0  0  0  0
 23 26  1  0  0  0  0
 24 23  1  0  0  0  0
 27 29  1  0  0  0  0
 27 28  1  0  0  0  0
 30 27  1  0  0  0  0
 31 32  1  0  0  0  0
 33 31  1  0  0  0  0
 33 34  1  0  0  0  0
 35 33  2  0  0  0  0
 36 35  1  0  0  0  0
 37 19  2  0  0  0  0
 37 35  1  0  0  0  0
 38 44  1  0  0  0  0
 38 37  1  0  0  0  0
 39 38  1  0  0  0  0
 40 38  1  0  0  0  0
 40 41  1  0  0  0  0
 42 40  1  0  0  0  0
 43 40  1  0  0  0  0
 44 45  1  0  0  0  0
 44 47  1  0  0  0  0
 46 44  1  0  0  0  0
 48  1  1  0  0  0  0
 48 50  1  0  0  0  0
 49 48  1  0  0  0  0
 50 52  1  0  0  0  0
 50 51  1  0  0  0  0
 53 50  1  0  0  0  0
 53 54  1  0  0  0  0
 55 53  1  0  0  0  0
 56 58  1  0  0  0  0
 56 53  1  0  0  0  0
 57 56  1  0  0  0  0
 59 62  1  0  0  0  0
 59 56  1  0  0  0  0
 60 59  1  0  0  0  0
 61 59  1  0  0  0  0
 62 63  1  0  0  0  0
 62 48  1  0  0  0  0
 64 62  1  0  0  0  0
M  END
