1
 OpenBabel05122313063D

 52 52  0  0  1  0  0  0  0  0999 V2000
   -0.1294    0.1428    0.1822 P   0  0  1  0  0  0  0  0  0  0  0  0
   -1.3632    2.6456   -1.2809 Si  0  0  0  0  0  0  0  0  0  0  0  0
   -2.0091    2.0190    1.8773 Si  0  0  0  0  0  0  0  0  0  0  0  0
   -0.8198   -0.8517    1.3859 N   0  0  0  0  0  0  0  0  0  0  0  0
   -2.1112   -2.7960    1.5999 N   0  0  0  0  0  0  0  0  0  0  0  0
   -0.8484   -3.8551   -1.8717 N   0  0  0  0  0  0  0  0  0  0  0  0
   -1.0815   -0.5654   -1.1016 O   0  0  0  0  0  0  0  0  0  0  0  0
   -3.1833   -1.5272   -0.9021 O   0  0  0  0  0  0  0  0  0  0  0  0
   -0.8037    1.8234    0.3812 C   0  0  0  0  0  0  0  0  0  0  0  0
    0.0956    2.4189    0.6582 H   0  0  0  0  0  0  0  0  0  0  0  0
   -0.4183    1.9868   -2.7809 C   0  0  0  0  0  0  0  0  0  0  0  0
   -0.7497    2.5508   -3.6781 H   0  0  0  0  0  0  0  0  0  0  0  0
   -0.5957    0.9097   -2.9603 H   0  0  0  0  0  0  0  0  0  0  0  0
    0.6731    2.1453   -2.6762 H   0  0  0  0  0  0  0  0  0  0  0  0
   -3.2156    2.3690   -1.5477 C   0  0  0  0  0  0  0  0  0  0  0  0
   -3.8330    2.8465   -0.7616 H   0  0  0  0  0  0  0  0  0  0  0  0
   -3.4438    1.2860   -1.5468 H   0  0  0  0  0  0  0  0  0  0  0  0
   -3.5254    2.7881   -2.5271 H   0  0  0  0  0  0  0  0  0  0  0  0
   -0.9540    4.4869   -1.1432 C   0  0  0  0  0  0  0  0  0  0  0  0
   -1.2373    5.0037   -2.0836 H   0  0  0  0  0  0  0  0  0  0  0  0
    0.1393    4.6187   -1.0054 H   0  0  0  0  0  0  0  0  0  0  0  0
   -1.4743    4.9902   -0.3065 H   0  0  0  0  0  0  0  0  0  0  0  0
   -3.5088    0.8609    1.7502 C   0  0  0  0  0  0  0  0  0  0  0  0
   -3.6190    0.4073    0.7465 H   0  0  0  0  0  0  0  0  0  0  0  0
   -4.4428    1.4122    1.9831 H   0  0  0  0  0  0  0  0  0  0  0  0
   -3.4119    0.0297    2.4764 H   0  0  0  0  0  0  0  0  0  0  0  0
   -1.0374    1.7072    3.4688 C   0  0  0  0  0  0  0  0  0  0  0  0
   -0.1746    2.3994    3.5545 H   0  0  0  0  0  0  0  0  0  0  0  0
   -0.6509    0.6703    3.4973 H   0  0  0  0  0  0  0  0  0  0  0  0
   -1.6886    1.8670    4.3534 H   0  0  0  0  0  0  0  0  0  0  0  0
   -2.6182    3.8144    1.9499 C   0  0  0  0  0  0  0  0  0  0  0  0
   -3.2345    3.9381    2.8651 H   0  0  0  0  0  0  0  0  0  0  0  0
   -3.2464    4.1000    1.0833 H   0  0  0  0  0  0  0  0  0  0  0  0
   -1.7745    4.5308    2.0176 H   0  0  0  0  0  0  0  0  0  0  0  0
   -1.5763   -1.7830    0.8808 C   0  0  0  0  0  0  0  0  0  0  0  0
   -2.9820   -3.8297    1.0603 C   0  0  0  0  0  0  0  0  0  0  0  0
   -3.8133   -4.0103    1.7725 H   0  0  0  0  0  0  0  0  0  0  0  0
   -2.4298   -4.7830    0.9137 H   0  0  0  0  0  0  0  0  0  0  0  0
   -3.4227   -3.5073    0.1032 H   0  0  0  0  0  0  0  0  0  0  0  0
   -1.7614   -2.9239    3.0079 C   0  0  0  0  0  0  0  0  0  0  0  0
   -0.9246   -2.2404    3.2354 H   0  0  0  0  0  0  0  0  0  0  0  0
   -1.4580   -3.9696    3.2218 H   0  0  0  0  0  0  0  0  0  0  0  0
   -2.6267   -2.6671    3.6568 H   0  0  0  0  0  0  0  0  0  0  0  0
   -1.8095   -1.6788   -0.6689 C   0  0  2  0  0  0  0  0  0  0  0  0
   -1.2697   -2.8908   -1.3573 C   0  0  0  0  0  0  0  0  0  0  0  0
   -3.5610   -1.4300   -2.2934 C   0  0  0  0  0  0  0  0  0  0  0  0
   -3.2727   -2.3707   -2.8151 H   0  0  0  0  0  0  0  0  0  0  0  0
   -2.9978   -0.5958   -2.7637 H   0  0  0  0  0  0  0  0  0  0  0  0
   -5.0558   -1.1961   -2.3542 C   0  0  0  0  0  0  0  0  0  0  0  0
   -5.6091   -2.0228   -1.8664 H   0  0  0  0  0  0  0  0  0  0  0  0
   -5.3844   -1.1346   -3.4103 H   0  0  0  0  0  0  0  0  0  0  0  0
   -5.3307   -0.2479   -1.8510 H   0  0  0  0  0  0  0  0  0  0  0  0
  1  9  1  1  0  0  0
  1  4  1  0  0  0  0
  2 19  1  0  0  0  0
  2  9  1  0  0  0  0
  3 31  1  0  0  0  0
  3 27  1  0  0  0  0
  5 40  1  0  0  0  0
  6 45  3  0  0  0  0
  7 44  1  0  0  0  0
  7  1  1  0  0  0  0
  8 44  1  0  0  0  0
  9 10  1  0  0  0  0
  9  3  1  0  0  0  0
 11 14  1  0  0  0  0
 11  2  1  0  0  0  0
 12 11  1  0  0  0  0
 13 11  1  0  0  0  0
 15 17  1  0  0  0  0
 15  2  1  0  0  0  0
 15 16  1  0  0  0  0
 18 15  1  0  0  0  0
 19 21  1  0  0  0  0
 19 22  1  0  0  0  0
 20 19  1  0  0  0  0
 23  3  1  0  0  0  0
 23 25  1  0  0  0  0
 23 26  1  0  0  0  0
 24 23  1  0  0  0  0
 27 29  1  0  0  0  0
 27 28  1  0  0  0  0
 27 30  1  0  0  0  0
 31 34  1  0  0  0  0
 31 32  1  0  0  0  0
 33 31  1  0  0  0  0
 35  4  2  0  0  0  0
 35  5  1  0  0  0  0
 36  5  1  0  0  0  0
 36 37  1  0  0  0  0
 38 36  1  0  0  0  0
 39 36  1  0  0  0  0
 40 42  1  0  0  0  0
 40 41  1  0  0  0  0
 40 43  1  0  0  0  0
 44 45  1  6  0  0  0
 44 35  1  0  0  0  0
 46  8  1  0  0  0  0
 47 46  1  0  0  0  0
 48 46  1  0  0  0  0
 49 46  1  0  0  0  0
 49 50  1  0  0  0  0
 49 52  1  0  0  0  0
 51 49  1  0  0  0  0
M  END
