1
 OpenBabel05122313063D

 35 35  0  0  0  0  0  0  0  0999 V2000
   -1.4004   -1.6234   -0.8185 P   0  0  0  0  0  0  0  0  0  0  0  0
   -1.8155   -2.5002    0.7792 C   0  0  0  0  0  0  0  0  0  0  0  0
   -2.4840   -3.3631    0.5847 H   0  0  0  0  0  0  0  0  0  0  0  0
   -0.8495   -2.8921    1.1534 H   0  0  0  0  0  0  0  0  0  0  0  0
   -2.4129   -1.5263    1.7653 C   0  0  0  0  0  0  0  0  0  0  0  0
   -3.8098   -1.3828    1.8929 C   0  0  0  0  0  0  0  0  0  0  0  0
   -4.4797   -2.0393    1.3152 H   0  0  0  0  0  0  0  0  0  0  0  0
   -4.3566   -0.4134    2.7495 C   0  0  0  0  0  0  0  0  0  0  0  0
   -5.4495   -0.3150    2.8363 H   0  0  0  0  0  0  0  0  0  0  0  0
   -3.5109    0.4249    3.4924 C   0  0  0  0  0  0  0  0  0  0  0  0
   -3.9373    1.1877    4.1613 H   0  0  0  0  0  0  0  0  0  0  0  0
   -2.1184    0.2797    3.3805 C   0  0  0  0  0  0  0  0  0  0  0  0
   -1.4474    0.9271    3.9653 H   0  0  0  0  0  0  0  0  0  0  0  0
   -1.5688   -0.6845    2.5231 C   0  0  0  0  0  0  0  0  0  0  0  0
   -0.4725   -0.7776    2.4312 H   0  0  0  0  0  0  0  0  0  0  0  0
   -3.0646   -1.2531   -1.6007 C   0  0  0  0  0  0  0  0  0  0  0  0
   -3.5340   -0.5729   -0.8600 H   0  0  0  0  0  0  0  0  0  0  0  0
   -3.9733   -2.4731   -1.7805 C   0  0  0  0  0  0  0  0  0  0  0  0
   -4.9656   -2.1477   -2.1567 H   0  0  0  0  0  0  0  0  0  0  0  0
   -4.1450   -3.0259   -0.8362 H   0  0  0  0  0  0  0  0  0  0  0  0
   -3.5662   -3.1896   -2.5236 H   0  0  0  0  0  0  0  0  0  0  0  0
   -2.8829   -0.4715   -2.9079 C   0  0  0  0  0  0  0  0  0  0  0  0
   -2.4768   -1.1163   -3.7144 H   0  0  0  0  0  0  0  0  0  0  0  0
   -2.2039    0.3929   -2.7704 H   0  0  0  0  0  0  0  0  0  0  0  0
   -3.8622   -0.0842   -3.2568 H   0  0  0  0  0  0  0  0  0  0  0  0
   -0.6416   -2.9265   -1.9528 C   0  0  0  0  0  0  0  0  0  0  0  0
   -1.5120   -3.3721   -2.4824 H   0  0  0  0  0  0  0  0  0  0  0  0
    0.2753   -2.2517   -2.9837 C   0  0  0  0  0  0  0  0  0  0  0  0
    1.1662   -1.8304   -2.4802 H   0  0  0  0  0  0  0  0  0  0  0  0
   -0.2295   -1.4312   -3.5294 H   0  0  0  0  0  0  0  0  0  0  0  0
    0.6176   -2.9989   -3.7300 H   0  0  0  0  0  0  0  0  0  0  0  0
    0.0919   -4.0454   -1.2035 C   0  0  0  0  0  0  0  0  0  0  0  0
    0.4952   -4.7722   -1.9393 H   0  0  0  0  0  0  0  0  0  0  0  0
   -0.5729   -4.6076   -0.5191 H   0  0  0  0  0  0  0  0  0  0  0  0
    0.9478   -3.6448   -0.6280 H   0  0  0  0  0  0  0  0  0  0  0  0
  1  2  1  0  0  0  0
  2  4  1  0  0  0  0
  2  5  1  0  0  0  0
  3  2  1  0  0  0  0
  5  6  2  0  0  0  0
  5 14  1  0  0  0  0
  6  8  1  0  0  0  0
  7  6  1  0  0  0  0
  8  9  1  0  0  0  0
  8 10  2  0  0  0  0
 10 11  1  0  0  0  0
 12 10  1  0  0  0  0
 12 13  1  0  0  0  0
 14 12  2  0  0  0  0
 15 14  1  0  0  0  0
 16 17  1  0  0  0  0
 16  1  1  0  0  0  0
 18 16  1  0  0  0  0
 18 20  1  0  0  0  0
 19 18  1  0  0  0  0
 21 18  1  0  0  0  0
 22 24  1  0  0  0  0
 22 16  1  0  0  0  0
 23 22  1  0  0  0  0
 25 22  1  0  0  0  0
 26 32  1  0  0  0  0
 26  1  1  0  0  0  0
 27 26  1  0  0  0  0
 28 29  1  0  0  0  0
 28 26  1  0  0  0  0
 30 28  1  0  0  0  0
 31 28  1  0  0  0  0
 32 35  1  0  0  0  0
 32 34  1  0  0  0  0
 33 32  1  0  0  0  0
M  END
