1
 OpenBabel05122313063D

 23 23  0  0  0  0  0  0  0  0999 V2000
   -1.9019    0.2315    0.7898 P   0  0  1  0  0  0  0  0  0  0  0  0
   -1.4786    1.4061    1.8702 F   0  0  0  0  0  0  0  0  0  0  0  0
   -3.0679   -0.7489    1.8493 C   0  0  0  0  0  0  0  0  0  0  0  0
   -2.2658   -1.6144    2.8287 C   0  0  0  0  0  0  0  0  0  0  0  0
   -4.1088    0.1416    2.5316 C   0  0  0  0  0  0  0  0  0  0  0  0
   -2.9329    1.2172   -0.3499 C   0  0  0  0  0  0  0  0  0  0  0  0
   -3.3990    0.6177   -1.5397 C   0  0  0  0  0  0  0  0  0  0  0  0
   -4.1967    1.3610   -2.4208 C   0  0  0  0  0  0  0  0  0  0  0  0
   -4.5183    2.6979   -2.1322 C   0  0  0  0  0  0  0  0  0  0  0  0
   -4.0438    3.2952   -0.9539 C   0  0  0  0  0  0  0  0  0  0  0  0
   -3.2533    2.5592   -0.0584 C   0  0  0  0  0  0  0  0  0  0  0  0
   -3.5446   -1.4139    1.0960 H   0  0  0  0  0  0  0  0  0  0  0  0
   -1.6734   -0.9909    3.5293 H   0  0  0  0  0  0  0  0  0  0  0  0
   -1.5771   -2.2875    2.2812 H   0  0  0  0  0  0  0  0  0  0  0  0
   -2.9567   -2.2399    3.4301 H   0  0  0  0  0  0  0  0  0  0  0  0
   -4.8245   -0.4901    3.0966 H   0  0  0  0  0  0  0  0  0  0  0  0
   -4.6885    0.7411    1.8021 H   0  0  0  0  0  0  0  0  0  0  0  0
   -3.6311    0.8379    3.2496 H   0  0  0  0  0  0  0  0  0  0  0  0
   -3.1292   -0.4292   -1.7587 H   0  0  0  0  0  0  0  0  0  0  0  0
   -4.5645    0.8922   -3.3462 H   0  0  0  0  0  0  0  0  0  0  0  0
   -5.1386    3.2788   -2.8318 H   0  0  0  0  0  0  0  0  0  0  0  0
   -4.2901    4.3439   -0.7277 H   0  0  0  0  0  0  0  0  0  0  0  0
   -2.8798    3.0226    0.8660 H   0  0  0  0  0  0  0  0  0  0  0  0
  1  3  1  0  0  0  0
  1  2  1  1  0  0  0
  3  5  1  0  0  0  0
  3  4  1  0  0  0  0
  4 15  1  0  0  0  0
  4 13  1  0  0  0  0
  5 16  1  0  0  0  0
  5 18  1  0  0  0  0
  6 11  1  0  0  0  0
  6  1  1  0  0  0  0
  7  6  2  0  0  0  0
  8  9  2  0  0  0  0
  8  7  1  0  0  0  0
  9 10  1  0  0  0  0
 10 22  1  0  0  0  0
 10 11  2  0  0  0  0
 11 23  1  0  0  0  0
 12  3  1  0  0  0  0
 14  4  1  0  0  0  0
 17  5  1  0  0  0  0
 19  7  1  0  0  0  0
 20  8  1  0  0  0  0
 21  9  1  0  0  0  0
M  END
