1
 OpenBabel05122313063D

 49 55  0  0  1  0  0  0  0  0999 V2000
    0.1117    0.4112   -0.5841 P   0  0  1  0  0  0  0  0  0  0  0  0
   -0.0397    1.4942   -2.4040 S   0  0  0  0  0  0  0  0  0  0  0  0
   -0.2152    2.2414   -0.6665 C   0  0  1  0  0  0  0  0  0  0  0  0
   -1.6545    2.4445   -0.3516 C   0  0  0  0  0  0  0  0  0  0  0  0
   -2.0581    3.4688   -0.3528 H   0  0  0  0  0  0  0  0  0  0  0  0
   -2.4409    1.3455   -0.1677 C   0  0  0  0  0  0  0  0  0  0  0  0
   -1.7008    0.0137   -0.0812 C   0  0  0  0  0  0  0  0  0  0  0  0
   -2.1679   -1.1692   -0.9086 C   0  0  0  0  0  0  0  0  0  0  0  0
   -2.4620   -1.2283   -2.2749 C   0  0  0  0  0  0  0  0  0  0  0  0
   -2.4182   -0.3197   -2.8929 H   0  0  0  0  0  0  0  0  0  0  0  0
   -2.8031   -2.4724   -2.8337 C   0  0  0  0  0  0  0  0  0  0  0  0
   -3.0379   -2.5399   -3.9066 H   0  0  0  0  0  0  0  0  0  0  0  0
   -2.8448   -3.6331   -2.0376 C   0  0  0  0  0  0  0  0  0  0  0  0
   -3.1055   -4.5979   -2.4980 H   0  0  0  0  0  0  0  0  0  0  0  0
   -2.5617   -3.5739   -0.6641 C   0  0  0  0  0  0  0  0  0  0  0  0
   -2.6006   -4.4832   -0.0456 H   0  0  0  0  0  0  0  0  0  0  0  0
   -2.2275   -2.3343   -0.0958 C   0  0  0  0  0  0  0  0  0  0  0  0
   -1.9229   -1.9554    1.2890 C   0  0  0  0  0  0  0  0  0  0  0  0
   -1.9457   -2.6926    2.4834 C   0  0  0  0  0  0  0  0  0  0  0  0
   -2.1806   -3.7676    2.4756 H   0  0  0  0  0  0  0  0  0  0  0  0
   -1.6660   -2.0339    3.6917 C   0  0  0  0  0  0  0  0  0  0  0  0
   -1.6789   -2.6014    4.6342 H   0  0  0  0  0  0  0  0  0  0  0  0
   -1.3606   -0.6596    3.7151 C   0  0  0  0  0  0  0  0  0  0  0  0
   -1.1408   -0.1662    4.6733 H   0  0  0  0  0  0  0  0  0  0  0  0
   -1.3354    0.0870    2.5245 C   0  0  0  0  0  0  0  0  0  0  0  0
   -1.1092    1.1643    2.5345 H   0  0  0  0  0  0  0  0  0  0  0  0
   -1.6253   -0.5654    1.3219 C   0  0  0  0  0  0  0  0  0  0  0  0
    0.8192    3.2091   -0.1943 C   0  0  0  0  0  0  0  0  0  0  0  0
    2.0285    3.4229   -0.8858 C   0  0  0  0  0  0  0  0  0  0  0  0
    2.1890    2.9171   -1.8493 H   0  0  0  0  0  0  0  0  0  0  0  0
    3.0127    4.2647   -0.3504 C   0  0  0  0  0  0  0  0  0  0  0  0
    3.9533    4.4167   -0.9009 H   0  0  0  0  0  0  0  0  0  0  0  0
    2.8036    4.9083    0.8790 C   0  0  0  0  0  0  0  0  0  0  0  0
    3.5797    5.5650    1.2998 H   0  0  0  0  0  0  0  0  0  0  0  0
    1.5965    4.7114    1.5681 C   0  0  0  0  0  0  0  0  0  0  0  0
    1.4218    5.2135    2.5317 H   0  0  0  0  0  0  0  0  0  0  0  0
    0.6101    3.8701    1.0362 C   0  0  0  0  0  0  0  0  0  0  0  0
   -0.3296    3.7071    1.5866 H   0  0  0  0  0  0  0  0  0  0  0  0
   -3.9127    1.3887   -0.0695 C   0  0  0  0  0  0  0  0  0  0  0  0
   -4.6373    2.4592   -0.6497 C   0  0  0  0  0  0  0  0  0  0  0  0
   -4.0971    3.2355   -1.2113 H   0  0  0  0  0  0  0  0  0  0  0  0
   -6.0318    2.5234   -0.5526 C   0  0  0  0  0  0  0  0  0  0  0  0
   -6.5716    3.3630   -1.0164 H   0  0  0  0  0  0  0  0  0  0  0  0
   -6.7415    1.5113    0.1147 C   0  0  0  0  0  0  0  0  0  0  0  0
   -7.8388    1.5573    0.1847 H   0  0  0  0  0  0  0  0  0  0  0  0
   -6.0405    0.4346    0.6793 C   0  0  0  0  0  0  0  0  0  0  0  0
   -6.5856   -0.3673    1.1997 H   0  0  0  0  0  0  0  0  0  0  0  0
   -4.6442    0.3704    0.5874 C   0  0  0  0  0  0  0  0  0  0  0  0
   -4.1134   -0.4723    1.0492 H   0  0  0  0  0  0  0  0  0  0  0  0
  1  2  1  6  0  0  0
  1  7  1  0  0  0  0
  2  3  1  0  0  0  0
  3  1  1  0  0  0  0
  3  4  1  0  0  0  0
  3 28  1  1  0  0  0
  4  6  2  0  0  0  0
  5  4  1  0  0  0  0
  6  7  1  0  0  0  0
  6 39  1  0  0  0  0
  7 27  1  0  0  0  0
  8 17  1  0  0  0  0
  8  7  1  0  0  0  0
  9  8  2  0  0  0  0
 10  9  1  0  0  0  0
 11  9  1  0  0  0  0
 11 13  2  0  0  0  0
 12 11  1  0  0  0  0
 13 15  1  0  0  0  0
 14 13  1  0  0  0  0
 15 17  2  0  0  0  0
 15 16  1  0  0  0  0
 17 18  1  0  0  0  0
 18 27  2  0  0  0  0
 18 19  1  0  0  0  0
 19 21  2  0  0  0  0
 20 19  1  0  0  0  0
 21 23  1  0  0  0  0
 21 22  1  0  0  0  0
 23 24  1  0  0  0  0
 25 26  1  0  0  0  0
 25 23  2  0  0  0  0
 27 25  1  0  0  0  0
 28 37  1  0  0  0  0
 29 31  1  0  0  0  0
 29 28  2  0  0  0  0
 30 29  1  0  0  0  0
 31 33  2  0  0  0  0
 32 31  1  0  0  0  0
 33 34  1  0  0  0  0
 33 35  1  0  0  0  0
 35 36  1  0  0  0  0
 37 35  2  0  0  0  0
 37 38  1  0  0  0  0
 39 48  1  0  0  0  0
 40 42  1  0  0  0  0
 40 39  2  0  0  0  0
 41 40  1  0  0  0  0
 42 44  2  0  0  0  0
 43 42  1  0  0  0  0
 44 45  1  0  0  0  0
 44 46  1  0  0  0  0
 46 47  1  0  0  0  0
 48 46  2  0  0  0  0
 48 49  1  0  0  0  0
M  END
