1
 OpenBabel05122313063D

 42 44  0  0  1  0  0  0  0  0999 V2000
   -1.1772    0.5802   -0.0777 P   0  0  0  0  0  0  0  0  0  0  0  0
   -0.8071    2.1010    0.8887 C   0  0  0  0  0  0  0  0  0  0  0  0
   -0.6080    2.1298    2.2817 C   0  0  0  0  0  0  0  0  0  0  0  0
   -0.7365    1.2107    2.8687 H   0  0  0  0  0  0  0  0  0  0  0  0
   -0.2386    3.3265    2.9153 C   0  0  0  0  0  0  0  0  0  0  0  0
   -0.0893    3.3421    4.0059 H   0  0  0  0  0  0  0  0  0  0  0  0
   -0.0580    4.4984    2.1641 C   0  0  0  0  0  0  0  0  0  0  0  0
    0.2380    5.4335    2.6635 H   0  0  0  0  0  0  0  0  0  0  0  0
   -0.2602    4.4755    0.7739 C   0  0  0  0  0  0  0  0  0  0  0  0
   -0.1237    5.3923    0.1802 H   0  0  0  0  0  0  0  0  0  0  0  0
   -0.6362    3.2842    0.1386 C   0  0  0  0  0  0  0  0  0  0  0  0
   -0.8018    3.2537   -0.9498 H   0  0  0  0  0  0  0  0  0  0  0  0
   -1.8311   -0.6610    1.1060 C   0  0  0  0  0  0  0  0  0  0  0  0
   -2.7948   -0.3338    2.0815 C   0  0  0  0  0  0  0  0  0  0  0  0
   -3.1154    0.7099    2.2177 H   0  0  0  0  0  0  0  0  0  0  0  0
   -3.3682   -1.3414    2.8699 C   0  0  0  0  0  0  0  0  0  0  0  0
   -4.1332   -1.0801    3.6163 H   0  0  0  0  0  0  0  0  0  0  0  0
   -2.9806   -2.6796    2.6955 C   0  0  0  0  0  0  0  0  0  0  0  0
   -3.4375   -3.4688    3.3120 H   0  0  0  0  0  0  0  0  0  0  0  0
   -2.0181   -3.0104    1.7282 C   0  0  0  0  0  0  0  0  0  0  0  0
   -1.7146   -4.0586    1.5836 H   0  0  0  0  0  0  0  0  0  0  0  0
   -1.4483   -2.0061    0.9330 C   0  0  0  0  0  0  0  0  0  0  0  0
   -0.7077   -2.2549    0.1549 H   0  0  0  0  0  0  0  0  0  0  0  0
   -2.4051    1.1012   -1.1118 N   0  0  0  0  0  0  0  0  0  0  0  0
   -2.2611    0.7288   -2.0713 H   0  0  0  0  0  0  0  0  0  0  0  0
   -3.7534    1.4847   -0.7213 C   0  0  1  0  0  0  0  0  0  0  0  0
   -3.6722    2.1137    0.1954 H   0  0  0  0  0  0  0  0  0  0  0  0
   -4.3612    2.3533   -1.8336 C   0  0  0  0  0  0  0  0  0  0  0  0
   -3.7319    3.2466   -2.0161 H   0  0  0  0  0  0  0  0  0  0  0  0
   -5.3846    2.6786   -1.5634 H   0  0  0  0  0  0  0  0  0  0  0  0
   -4.4293    1.7721   -2.7759 H   0  0  0  0  0  0  0  0  0  0  0  0
   -4.6685    0.3034   -0.3893 C   0  0  0  0  0  0  0  0  0  0  0  0
   -4.4342   -0.9747   -0.9279 C   0  0  0  0  0  0  0  0  0  0  0  0
   -3.5654   -1.1351   -1.5852 H   0  0  0  0  0  0  0  0  0  0  0  0
   -5.2767   -2.0483   -0.6029 C   0  0  0  0  0  0  0  0  0  0  0  0
   -5.0716   -3.0454   -1.0215 H   0  0  0  0  0  0  0  0  0  0  0  0
   -6.3679   -1.8573    0.2593 C   0  0  0  0  0  0  0  0  0  0  0  0
   -7.0230   -2.7026    0.5198 H   0  0  0  0  0  0  0  0  0  0  0  0
   -6.6164   -0.5815    0.7909 C   0  0  0  0  0  0  0  0  0  0  0  0
   -7.4685   -0.4220    1.4697 H   0  0  0  0  0  0  0  0  0  0  0  0
   -5.7707    0.4891    0.4664 C   0  0  0  0  0  0  0  0  0  0  0  0
   -5.9582    1.4859    0.8997 H   0  0  0  0  0  0  0  0  0  0  0  0
  1  2  1  0  0  0  0
  1 13  1  0  0  0  0
  2  3  1  0  0  0  0
  3  4  1  0  0  0  0
  3  5  2  0  0  0  0
  5  6  1  0  0  0  0
  7  8  1  0  0  0  0
  7  5  1  0  0  0  0
  9  7  2  0  0  0  0
 10  9  1  0  0  0  0
 11  9  1  0  0  0  0
 11  2  2  0  0  0  0
 12 11  1  0  0  0  0
 13 14  1  0  0  0  0
 14 15  1  0  0  0  0
 14 16  2  0  0  0  0
 16 17  1  0  0  0  0
 18 16  1  0  0  0  0
 18 19  1  0  0  0  0
 20 18  2  0  0  0  0
 21 20  1  0  0  0  0
 22 13  2  0  0  0  0
 22 20  1  0  0  0  0
 23 22  1  0  0  0  0
 24 26  1  0  0  0  0
 24  1  1  0  0  0  0
 25 24  1  0  0  0  0
 26 32  1  0  0  0  0
 26 27  1  1  0  0  0
 28 30  1  0  0  0  0
 28 26  1  0  0  0  0
 29 28  1  0  0  0  0
 31 28  1  0  0  0  0
 32 41  1  0  0  0  0
 33 35  1  0  0  0  0
 33 32  2  0  0  0  0
 34 33  1  0  0  0  0
 35 37  2  0  0  0  0
 36 35  1  0  0  0  0
 37 38  1  0  0  0  0
 37 39  1  0  0  0  0
 39 40  1  0  0  0  0
 41 39  2  0  0  0  0
 41 42  1  0  0  0  0
M  END
