1
 OpenBabel05122313063D

 28 28  0  0  0  0  0  0  0  0999 V2000
   -1.4702    0.8187    0.4533 P   0  0  0  0  0  0  0  0  0  0  0  0
   -2.5664    0.4405   -0.9621 C   0  0  0  0  0  0  0  0  0  0  0  0
   -3.0733   -0.8724   -1.0700 C   0  0  0  0  0  0  0  0  0  0  0  0
   -2.9108   -1.5892   -0.2501 H   0  0  0  0  0  0  0  0  0  0  0  0
   -3.7950   -1.2582   -2.2081 C   0  0  0  0  0  0  0  0  0  0  0  0
   -4.1938   -2.2812   -2.2831 H   0  0  0  0  0  0  0  0  0  0  0  0
   -4.0172   -0.3381   -3.2461 C   0  0  0  0  0  0  0  0  0  0  0  0
   -4.5852   -0.6411   -4.1384 H   0  0  0  0  0  0  0  0  0  0  0  0
   -3.5288    0.9736   -3.1359 C   0  0  0  0  0  0  0  0  0  0  0  0
   -3.7211    1.7020   -3.9381 H   0  0  0  0  0  0  0  0  0  0  0  0
   -2.8050    1.3649   -1.9991 C   0  0  0  0  0  0  0  0  0  0  0  0
   -2.4438    2.3989   -1.9017 H   0  0  0  0  0  0  0  0  0  0  0  0
   -2.2524    0.1815    1.7579 O   0  0  0  0  0  0  0  0  0  0  0  0
   -3.6247    0.5406    2.0639 C   0  0  0  0  0  0  0  0  0  0  0  0
   -3.9438    1.3856    1.4176 H   0  0  0  0  0  0  0  0  0  0  0  0
   -4.2606   -0.3349    1.8130 H   0  0  0  0  0  0  0  0  0  0  0  0
   -3.7308    0.9000    3.5323 C   0  0  0  0  0  0  0  0  0  0  0  0
   -3.3810    0.0643    4.1699 H   0  0  0  0  0  0  0  0  0  0  0  0
   -4.7850    1.1186    3.7957 H   0  0  0  0  0  0  0  0  0  0  0  0
   -3.1210    1.7941    3.7701 H   0  0  0  0  0  0  0  0  0  0  0  0
   -1.7620    2.4481    0.5211 O   0  0  0  0  0  0  0  0  0  0  0  0
   -1.1819    3.2795    1.5657 C   0  0  0  0  0  0  0  0  0  0  0  0
   -0.9866    2.6628    2.4659 H   0  0  0  0  0  0  0  0  0  0  0  0
   -0.1939    3.6440    1.2125 H   0  0  0  0  0  0  0  0  0  0  0  0
   -2.1369    4.4207    1.8445 C   0  0  0  0  0  0  0  0  0  0  0  0
   -2.3374    5.0096    0.9274 H   0  0  0  0  0  0  0  0  0  0  0  0
   -1.6987    5.1003    2.6024 H   0  0  0  0  0  0  0  0  0  0  0  0
   -3.1052    4.0480    2.2345 H   0  0  0  0  0  0  0  0  0  0  0  0
  1 21  1  0  0  0  0
  1 13  1  0  0  0  0
  2  1  1  0  0  0  0
  3  2  1  0  0  0  0
  3  4  1  0  0  0  0
  5  3  2  0  0  0  0
  6  5  1  0  0  0  0
  7  9  2  0  0  0  0
  7  5  1  0  0  0  0
  8  7  1  0  0  0  0
  9 11  1  0  0  0  0
 10  9  1  0  0  0  0
 11 12  1  0  0  0  0
 11  2  2  0  0  0  0
 13 14  1  0  0  0  0
 14 17  1  0  0  0  0
 15 14  1  0  0  0  0
 16 14  1  0  0  0  0
 17 20  1  0  0  0  0
 17 19  1  0  0  0  0
 17 18  1  0  0  0  0
 21 22  1  0  0  0  0
 22 25  1  0  0  0  0
 22 23  1  0  0  0  0
 24 22  1  0  0  0  0
 25 28  1  0  0  0  0
 25 27  1  0  0  0  0
 26 25  1  0  0  0  0
M  END
