1
 OpenBabel05122313063D

 42 45  0  0  1  0  0  0  0  0999 V2000
   -1.4840   -0.6663    0.0556 P   0  0  1  0  0  0  0  0  0  0  0  0
   -2.6696   -0.0835   -1.2816 C   0  0  1  0  0  0  0  0  0  0  0  0
   -3.6937    0.6877   -0.4673 C   0  0  0  0  0  0  0  0  0  0  0  0
   -3.0778    1.4027    0.5197 C   0  0  0  0  0  0  0  0  0  0  0  0
   -1.5767    1.1657    0.4810 C   0  0  2  0  0  0  0  0  0  0  0  0
   -0.9957    1.7334   -0.8735 C   0  0  1  0  0  0  0  0  0  0  0  0
   -1.7452    0.9481   -1.9966 C   0  0  0  0  0  0  0  0  0  0  0  0
   -1.0668    3.2449   -0.9070 C   0  0  0  0  0  0  0  0  0  0  0  0
   -2.2197    3.9459   -1.3163 C   0  0  0  0  0  0  0  0  0  0  0  0
   -2.2664    5.3477   -1.2609 C   0  0  0  0  0  0  0  0  0  0  0  0
   -1.1591    6.0756   -0.7982 C   0  0  0  0  0  0  0  0  0  0  0  0
   -0.0032    5.3902   -0.3909 C   0  0  0  0  0  0  0  0  0  0  0  0
    0.0391    3.9897   -0.4452 C   0  0  0  0  0  0  0  0  0  0  0  0
   -2.3980   -1.6360    1.3025 C   0  0  0  0  0  0  0  0  0  0  0  0
   -2.7332   -1.1184    2.5699 C   0  0  0  0  0  0  0  0  0  0  0  0
   -3.3947   -1.9285    3.5055 C   0  0  0  0  0  0  0  0  0  0  0  0
   -3.7282   -3.2525    3.1795 C   0  0  0  0  0  0  0  0  0  0  0  0
   -3.3879   -3.7717    1.9189 C   0  0  0  0  0  0  0  0  0  0  0  0
   -2.7150   -2.9744    0.9825 C   0  0  0  0  0  0  0  0  0  0  0  0
   -5.1441    0.6402   -0.8223 C   0  0  0  0  0  0  0  0  0  0  0  0
   -3.6796    2.3623    1.4956 C   0  0  0  0  0  0  0  0  0  0  0  0
   -3.0503   -0.8841   -1.9387 H   0  0  0  0  0  0  0  0  0  0  0  0
   -1.0095    1.5204    1.3587 H   0  0  0  0  0  0  0  0  0  0  0  0
    0.0769    1.4496   -0.8932 H   0  0  0  0  0  0  0  0  0  0  0  0
   -1.0258    0.4222   -2.6555 H   0  0  0  0  0  0  0  0  0  0  0  0
   -2.3562    1.6159   -2.6353 H   0  0  0  0  0  0  0  0  0  0  0  0
   -3.0975    3.3879   -1.6746 H   0  0  0  0  0  0  0  0  0  0  0  0
   -3.1764    5.8758   -1.5852 H   0  0  0  0  0  0  0  0  0  0  0  0
   -1.1950    7.1750   -0.7596 H   0  0  0  0  0  0  0  0  0  0  0  0
    0.8736    5.9502   -0.0311 H   0  0  0  0  0  0  0  0  0  0  0  0
    0.9459    3.4529   -0.1213 H   0  0  0  0  0  0  0  0  0  0  0  0
   -2.4778   -0.0808    2.8299 H   0  0  0  0  0  0  0  0  0  0  0  0
   -3.6528   -1.5203    4.4945 H   0  0  0  0  0  0  0  0  0  0  0  0
   -4.2497   -3.8849    3.9140 H   0  0  0  0  0  0  0  0  0  0  0  0
   -3.6407   -4.8122    1.6641 H   0  0  0  0  0  0  0  0  0  0  0  0
   -2.4161   -3.3772   -0.0005 H   0  0  0  0  0  0  0  0  0  0  0  0
   -5.5241   -0.4031   -0.7713 H   0  0  0  0  0  0  0  0  0  0  0  0
   -5.3154    0.9831   -1.8663 H   0  0  0  0  0  0  0  0  0  0  0  0
   -5.7646    1.2648   -0.1516 H   0  0  0  0  0  0  0  0  0  0  0  0
   -3.4406    2.0771    2.5434 H   0  0  0  0  0  0  0  0  0  0  0  0
   -4.7813    2.4185    1.4037 H   0  0  0  0  0  0  0  0  0  0  0  0
   -3.2689    3.3839    1.3448 H   0  0  0  0  0  0  0  0  0  0  0  0
  1  5  1  0  0  0  0
  1 14  1  1  0  0  0
  2 22  1  6  0  0  0
  2  3  1  0  0  0  0
  2  1  1  0  0  0  0
  3  4  2  0  0  0  0
  4 21  1  0  0  0  0
  5  4  1  0  0  0  0
  5 23  1  1  0  0  0
  6 24  1  6  0  0  0
  6  5  1  0  0  0  0
  7  2  1  0  0  0  0
  7  6  1  0  0  0  0
  8  6  1  0  0  0  0
  8 13  1  0  0  0  0
  9 10  1  0  0  0  0
  9  8  2  0  0  0  0
 10 11  2  0  0  0  0
 11 29  1  0  0  0  0
 11 12  1  0  0  0  0
 12 30  1  0  0  0  0
 13 12  2  0  0  0  0
 13 31  1  0  0  0  0
 14 15  1  0  0  0  0
 15 32  1  0  0  0  0
 15 16  2  0  0  0  0
 16 33  1  0  0  0  0
 17 16  1  0  0  0  0
 17 34  1  0  0  0  0
 18 17  2  0  0  0  0
 19 14  2  0  0  0  0
 19 18  1  0  0  0  0
 20 37  1  0  0  0  0
 20  3  1  0  0  0  0
 20 39  1  0  0  0  0
 21 40  1  0  0  0  0
 25  7  1  0  0  0  0
 26  7  1  0  0  0  0
 27  9  1  0  0  0  0
 28 10  1  0  0  0  0
 35 18  1  0  0  0  0
 36 19  1  0  0  0  0
 38 20  1  0  0  0  0
 41 21  1  0  0  0  0
 42 21  1  0  0  0  0
M  END
