1
 OpenBabel05122313063D

 42 44  0  0  1  0  0  0  0  0999 V2000
   -1.0349    0.7862    0.1167 P   0  0  2  0  0  0  0  0  0  0  0  0
   -1.1827    0.9397   -1.7492 C   0  0  2  0  0  0  0  0  0  0  0  0
   -2.5684    1.5520   -1.9007 C   0  0  0  0  0  0  0  0  0  0  0  0
   -3.4284    1.0120   -0.9900 C   0  0  0  0  0  0  0  0  0  0  0  0
   -2.7131   -0.0128   -0.1298 C   0  0  1  0  0  0  0  0  0  0  0  0
   -2.2483   -1.2081   -1.0435 C   0  0  2  0  0  0  0  0  0  0  0  0
   -1.3008   -0.5770   -2.1026 C   0  0  0  0  0  0  0  0  0  0  0  0
   -3.4630   -1.8985   -1.6764 C   0  0  0  0  0  0  0  0  0  0  0  0
   -3.7910   -1.6661   -2.8443 O   0  0  0  0  0  0  0  0  0  0  0  0
   -4.1953   -2.7434   -0.8673 N   0  0  0  0  0  0  0  0  0  0  0  0
   -5.3896   -3.3602   -1.4159 C   0  0  0  0  0  0  0  0  0  0  0  0
   -3.9000   -3.0818    0.5139 C   0  0  0  0  0  0  0  0  0  0  0  0
   -2.8693    2.4945   -3.0204 C   0  0  0  0  0  0  0  0  0  0  0  0
   -4.8963    1.2424   -0.8379 C   0  0  0  0  0  0  0  0  0  0  0  0
   -1.2650    2.4014    0.9343 C   0  0  0  0  0  0  0  0  0  0  0  0
   -1.4189    2.3824    2.3380 C   0  0  0  0  0  0  0  0  0  0  0  0
   -1.5787    3.5867    3.0375 C   0  0  0  0  0  0  0  0  0  0  0  0
   -1.5647    4.8117    2.3492 C   0  0  0  0  0  0  0  0  0  0  0  0
   -1.3953    4.8323    0.9558 C   0  0  0  0  0  0  0  0  0  0  0  0
   -1.2497    3.6305    0.2457 C   0  0  0  0  0  0  0  0  0  0  0  0
   -0.3628    1.4568   -2.2789 H   0  0  0  0  0  0  0  0  0  0  0  0
   -3.2159   -0.3228    0.8013 H   0  0  0  0  0  0  0  0  0  0  0  0
   -1.6846   -1.9159   -0.4034 H   0  0  0  0  0  0  0  0  0  0  0  0
   -0.3040   -1.0603   -2.0871 H   0  0  0  0  0  0  0  0  0  0  0  0
   -1.7471   -0.6911   -3.1099 H   0  0  0  0  0  0  0  0  0  0  0  0
   -5.4960   -3.0338   -2.4658 H   0  0  0  0  0  0  0  0  0  0  0  0
   -5.3150   -4.4692   -1.3754 H   0  0  0  0  0  0  0  0  0  0  0  0
   -6.2914   -3.0581   -0.8383 H   0  0  0  0  0  0  0  0  0  0  0  0
   -2.9739   -2.6093    0.8888 H   0  0  0  0  0  0  0  0  0  0  0  0
   -4.7319   -2.7627    1.1812 H   0  0  0  0  0  0  0  0  0  0  0  0
   -3.7923   -4.1838    0.6260 H   0  0  0  0  0  0  0  0  0  0  0  0
   -3.9074    2.8757   -2.9792 H   0  0  0  0  0  0  0  0  0  0  0  0
   -2.1811    3.3678   -3.0178 H   0  0  0  0  0  0  0  0  0  0  0  0
   -2.7346    1.9908   -4.0027 H   0  0  0  0  0  0  0  0  0  0  0  0
   -5.2670    2.0469   -1.5014 H   0  0  0  0  0  0  0  0  0  0  0  0
   -5.4654    0.3180   -1.0785 H   0  0  0  0  0  0  0  0  0  0  0  0
   -5.1489    1.5124    0.2099 H   0  0  0  0  0  0  0  0  0  0  0  0
   -1.4087    1.4152    2.8683 H   0  0  0  0  0  0  0  0  0  0  0  0
   -1.7067    3.5689    4.1305 H   0  0  0  0  0  0  0  0  0  0  0  0
   -1.6811    5.7560    2.9026 H   0  0  0  0  0  0  0  0  0  0  0  0
   -1.3791    5.7908    0.4151 H   0  0  0  0  0  0  0  0  0  0  0  0
   -1.1249    3.6512   -0.8465 H   0  0  0  0  0  0  0  0  0  0  0  0
  1 15  1  1  0  0  0
  2 21  1  6  0  0  0
  2  1  1  0  0  0  0
  3  2  1  0  0  0  0
  3  4  2  0  0  0  0
  4 14  1  0  0  0  0
  4  5  1  0  0  0  0
  5  1  1  0  0  0  0
  5 22  1  1  0  0  0
  6 23  1  1  0  0  0
  6  5  1  0  0  0  0
  7 24  1  0  0  0  0
  7  2  1  0  0  0  0
  7  6  1  0  0  0  0
  8  6  1  0  0  0  0
  8 10  1  0  0  0  0
  9  8  2  0  0  0  0
 10 12  1  0  0  0  0
 11 27  1  0  0  0  0
 11 10  1  0  0  0  0
 11 28  1  0  0  0  0
 12 31  1  0  0  0  0
 12 29  1  0  0  0  0
 12 30  1  0  0  0  0
 13 33  1  0  0  0  0
 13 32  1  0  0  0  0
 13  3  1  0  0  0  0
 14 37  1  0  0  0  0
 15 16  1  0  0  0  0
 16 38  1  0  0  0  0
 16 17  2  0  0  0  0
 17 39  1  0  0  0  0
 18 40  1  0  0  0  0
 18 17  1  0  0  0  0
 19 18  2  0  0  0  0
 20 15  2  0  0  0  0
 20 19  1  0  0  0  0
 25  7  1  0  0  0  0
 26 11  1  0  0  0  0
 34 13  1  0  0  0  0
 35 14  1  0  0  0  0
 36 14  1  0  0  0  0
 41 19  1  0  0  0  0
 42 20  1  0  0  0  0
M  END
