1
 OpenBabel05122313063D

 42 45  0  0  1  0  0  0  0  0999 V2000
    0.9088    0.9051   -0.1076 P   0  0  1  0  0  0  0  0  0  0  0  0
    2.6152    0.1288   -0.1500 C   0  0  1  0  0  0  0  0  0  0  0  0
    3.3655    0.9593    0.8724 C   0  0  0  0  0  0  0  0  0  0  0  0
    2.5594    1.2403    1.9382 C   0  0  0  0  0  0  0  0  0  0  0  0
    1.1784    0.6308    1.7343 C   0  0  2  0  0  0  0  0  0  0  0  0
    1.3397   -0.9218    1.7166 C   0  0  0  0  0  0  0  0  0  0  0  0
    2.2436   -1.2649    0.4899 C   0  0  2  0  0  0  0  0  0  0  0  0
    3.4878   -2.0892    0.7434 C   0  0  0  0  0  0  0  0  0  0  0  0
    3.9626   -2.9304   -0.2854 C   0  0  0  0  0  0  0  0  0  0  0  0
    5.1511   -3.6581   -0.1336 C   0  0  0  0  0  0  0  0  0  0  0  0
    5.8925   -3.5567    1.0549 C   0  0  0  0  0  0  0  0  0  0  0  0
    5.4329   -2.7227    2.0857 C   0  0  0  0  0  0  0  0  0  0  0  0
    4.2414   -1.9964    1.9312 C   0  0  0  0  0  0  0  0  0  0  0  0
    1.0539    2.6747   -0.5251 C   0  0  0  0  0  0  0  0  0  0  0  0
    1.0147    3.7044    0.4357 C   0  0  0  0  0  0  0  0  0  0  0  0
    1.0911    5.0453    0.0282 C   0  0  0  0  0  0  0  0  0  0  0  0
    1.2142    5.3619   -1.3337 C   0  0  0  0  0  0  0  0  0  0  0  0
    1.2504    4.3357   -2.2932 C   0  0  0  0  0  0  0  0  0  0  0  0
    1.1600    2.9942   -1.8969 C   0  0  0  0  0  0  0  0  0  0  0  0
    4.8015    1.3125    0.6629 C   0  0  0  0  0  0  0  0  0  0  0  0
    2.9083    1.9400    3.2126 C   0  0  0  0  0  0  0  0  0  0  0  0
    3.0613    0.0364   -1.1543 H   0  0  0  0  0  0  0  0  0  0  0  0
    0.3873    0.9854    2.4189 H   0  0  0  0  0  0  0  0  0  0  0  0
    0.3493   -1.4103    1.6217 H   0  0  0  0  0  0  0  0  0  0  0  0
    1.7851   -1.2564    2.6738 H   0  0  0  0  0  0  0  0  0  0  0  0
    1.6361   -1.7953   -0.2724 H   0  0  0  0  0  0  0  0  0  0  0  0
    3.3856   -3.0009   -1.2218 H   0  0  0  0  0  0  0  0  0  0  0  0
    5.5007   -4.3105   -0.9485 H   0  0  0  0  0  0  0  0  0  0  0  0
    6.8248   -4.1285    1.1782 H   0  0  0  0  0  0  0  0  0  0  0  0
    6.0063   -2.6361    3.0216 H   0  0  0  0  0  0  0  0  0  0  0  0
    3.9000   -1.3398    2.7452 H   0  0  0  0  0  0  0  0  0  0  0  0
    0.9240    3.4616    1.5044 H   0  0  0  0  0  0  0  0  0  0  0  0
    1.0566    5.8473    0.7813 H   0  0  0  0  0  0  0  0  0  0  0  0
    1.2765    6.4143   -1.6499 H   0  0  0  0  0  0  0  0  0  0  0  0
    1.3412    4.5822   -3.3620 H   0  0  0  0  0  0  0  0  0  0  0  0
    1.1646    2.1788   -2.6404 H   0  0  0  0  0  0  0  0  0  0  0  0
    4.9276    1.8846   -0.2815 H   0  0  0  0  0  0  0  0  0  0  0  0
    5.4206    0.3949    0.5645 H   0  0  0  0  0  0  0  0  0  0  0  0
    5.2143    1.9200    1.4912 H   0  0  0  0  0  0  0  0  0  0  0  0
    2.2291    2.7990    3.4060 H   0  0  0  0  0  0  0  0  0  0  0  0
    3.9467    2.3228    3.2092 H   0  0  0  0  0  0  0  0  0  0  0  0
    2.8003    1.2592    4.0860 H   0  0  0  0  0  0  0  0  0  0  0  0
  1 14  1  1  0  0  0
  1  5  1  0  0  0  0
  2 22  1  6  0  0  0
  2  1  1  0  0  0  0
  2  7  1  0  0  0  0
  2  3  1  0  0  0  0
  3  4  2  0  0  0  0
  4 21  1  0  0  0  0
  5  4  1  0  0  0  0
  5 23  1  1  0  0  0
  6  5  1  0  0  0  0
  6 25  1  0  0  0  0
  7 26  1  6  0  0  0
  7  8  1  0  0  0  0
  7  6  1  0  0  0  0
  8 13  1  0  0  0  0
  9 10  1  0  0  0  0
  9  8  2  0  0  0  0
 10 11  2  0  0  0  0
 11 29  1  0  0  0  0
 11 12  1  0  0  0  0
 12 30  1  0  0  0  0
 13 12  2  0  0  0  0
 13 31  1  0  0  0  0
 14 15  1  0  0  0  0
 15 32  1  0  0  0  0
 16 15  2  0  0  0  0
 16 33  1  0  0  0  0
 17 16  1  0  0  0  0
 18 19  1  0  0  0  0
 18 17  2  0  0  0  0
 19 14  2  0  0  0  0
 20  3  1  0  0  0  0
 20 39  1  0  0  0  0
 21 40  1  0  0  0  0
 21 42  1  0  0  0  0
 24  6  1  0  0  0  0
 27  9  1  0  0  0  0
 28 10  1  0  0  0  0
 34 17  1  0  0  0  0
 35 18  1  0  0  0  0
 36 19  1  0  0  0  0
 37 20  1  0  0  0  0
 38 20  1  0  0  0  0
 41 21  1  0  0  0  0
M  END
