1
 OpenBabel05122313063D

 42 43  0  0  0  0  0  0  0  0999 V2000
    1.4647   -0.0981    0.5310 P   0  0  0  0  0  0  0  0  0  0  0  0
    2.8532   -0.7948   -0.4927 C   0  0  0  0  0  0  0  0  0  0  0  0
    4.1597   -0.7133    0.0449 C   0  0  0  0  0  0  0  0  0  0  0  0
    5.2804   -1.1876   -0.6446 C   0  0  0  0  0  0  0  0  0  0  0  0
    5.1099   -1.7513   -1.9163 C   0  0  0  0  0  0  0  0  0  0  0  0
    3.8297   -1.8035   -2.4764 C   0  0  0  0  0  0  0  0  0  0  0  0
    2.6817   -1.3274   -1.8018 C   0  0  0  0  0  0  0  0  0  0  0  0
    1.3636   -1.4184   -2.5222 C   0  0  0  0  0  0  0  0  0  0  0  0
    1.8593    1.7316    0.4614 C   0  0  0  0  0  0  0  0  0  0  0  0
    2.9355    2.1709   -0.3443 C   0  0  0  0  0  0  0  0  0  0  0  0
    3.2390    3.5303   -0.4975 C   0  0  0  0  0  0  0  0  0  0  0  0
    2.4583    4.4930    0.1537 C   0  0  0  0  0  0  0  0  0  0  0  0
    1.3739    4.0754    0.9333 C   0  0  0  0  0  0  0  0  0  0  0  0
    1.0460    2.7143    1.0995 C   0  0  0  0  0  0  0  0  0  0  0  0
   -0.1720    2.3790    1.9134 C   0  0  0  0  0  0  0  0  0  0  0  0
    1.8276   -0.6481    2.3727 C   0  0  0  0  0  0  0  0  0  0  0  0
    2.6470    0.4222    3.1139 C   0  0  0  0  0  0  0  0  0  0  0  0
    0.4748   -0.8537    3.0824 C   0  0  0  0  0  0  0  0  0  0  0  0
    2.5663   -2.0006    2.4023 C   0  0  0  0  0  0  0  0  0  0  0  0
    2.5647   -2.3623    3.4526 H   0  0  0  0  0  0  0  0  0  0  0  0
    3.6185   -1.9330    2.0752 H   0  0  0  0  0  0  0  0  0  0  0  0
    2.0444   -2.7510    1.7782 H   0  0  0  0  0  0  0  0  0  0  0  0
    4.3116   -0.2386    1.0228 H   0  0  0  0  0  0  0  0  0  0  0  0
    6.2791   -1.1088   -0.1898 H   0  0  0  0  0  0  0  0  0  0  0  0
    5.9741   -2.1360   -2.4790 H   0  0  0  0  0  0  0  0  0  0  0  0
    3.6983   -2.2246   -3.4853 H   0  0  0  0  0  0  0  0  0  0  0  0
    0.8041   -0.4625   -2.5015 H   0  0  0  0  0  0  0  0  0  0  0  0
    0.7198   -2.1798   -2.0324 H   0  0  0  0  0  0  0  0  0  0  0  0
    1.5193   -1.7107   -3.5786 H   0  0  0  0  0  0  0  0  0  0  0  0
    3.5476    1.4366   -0.8820 H   0  0  0  0  0  0  0  0  0  0  0  0
    4.0846    3.8294   -1.1350 H   0  0  0  0  0  0  0  0  0  0  0  0
    2.6797    5.5653    0.0425 H   0  0  0  0  0  0  0  0  0  0  0  0
    0.7357    4.8270    1.4241 H   0  0  0  0  0  0  0  0  0  0  0  0
   -0.9104    3.2025    1.8712 H   0  0  0  0  0  0  0  0  0  0  0  0
    0.0756    2.2093    2.9822 H   0  0  0  0  0  0  0  0  0  0  0  0
   -0.6584    1.4642    1.5250 H   0  0  0  0  0  0  0  0  0  0  0  0
    2.8552    0.0553    4.1414 H   0  0  0  0  0  0  0  0  0  0  0  0
    2.1118    1.3856    3.2030 H   0  0  0  0  0  0  0  0  0  0  0  0
    3.6221    0.6334    2.6333 H   0  0  0  0  0  0  0  0  0  0  0  0
    0.6729   -1.1260    4.1409 H   0  0  0  0  0  0  0  0  0  0  0  0
   -0.0879   -1.6806    2.6085 H   0  0  0  0  0  0  0  0  0  0  0  0
   -0.1566    0.0510    3.0812 H   0  0  0  0  0  0  0  0  0  0  0  0
  1 16  1  0  0  0  0
  2  3  1  0  0  0  0
  2  1  1  0  0  0  0
  3 23  1  0  0  0  0
  4 24  1  0  0  0  0
  4  3  2  0  0  0  0
  5  4  1  0  0  0  0
  6  5  2  0  0  0  0
  6  7  1  0  0  0  0
  7  2  2  0  0  0  0
  8 27  1  0  0  0  0
  8 28  1  0  0  0  0
  8  7  1  0  0  0  0
  9  1  1  0  0  0  0
  9 14  1  0  0  0  0
 10  9  2  0  0  0  0
 11 10  1  0  0  0  0
 11 12  2  0  0  0  0
 12 13  1  0  0  0  0
 13 14  2  0  0  0  0
 13 33  1  0  0  0  0
 14 15  1  0  0  0  0
 15 35  1  0  0  0  0
 16 19  1  0  0  0  0
 16 18  1  0  0  0  0
 16 17  1  0  0  0  0
 17 38  1  0  0  0  0
 17 37  1  0  0  0  0
 18 40  1  0  0  0  0
 19 20  1  0  0  0  0
 21 19  1  0  0  0  0
 22 19  1  0  0  0  0
 25  5  1  0  0  0  0
 26  6  1  0  0  0  0
 29  8  1  0  0  0  0
 30 10  1  0  0  0  0
 31 11  1  0  0  0  0
 32 12  1  0  0  0  0
 34 15  1  0  0  0  0
 36 15  1  0  0  0  0
 39 17  1  0  0  0  0
 41 18  1  0  0  0  0
 42 18  1  0  0  0  0
M  END
