1
 OpenBabel05122313063D

 49 51  0  0  0  0  0  0  0  0999 V2000
    0.5162    0.0002   -0.2257 P   0  0  0  0  0  0  0  0  0  0  0  0
    1.5036   -0.0005    1.1996 N   0  0  0  0  0  0  0  0  0  0  0  0
    1.1452    1.4186   -0.9804 N   0  0  0  0  0  0  0  0  0  0  0  0
    1.1456   -1.4168   -0.9824 N   0  0  0  0  0  0  0  0  0  0  0  0
    1.4973   -1.2186    2.0207 C   0  0  0  0  0  0  0  0  0  0  0  0
    1.4405   -2.0994    1.3544 H   0  0  0  0  0  0  0  0  0  0  0  0
    0.5897   -1.2505    2.6723 H   0  0  0  0  0  0  0  0  0  0  0  0
    2.7500   -1.2633    2.9006 C   0  0  0  0  0  0  0  0  0  0  0  0
    2.7221   -2.1754    3.5325 H   0  0  0  0  0  0  0  0  0  0  0  0
    3.6462   -1.3470    2.2471 H   0  0  0  0  0  0  0  0  0  0  0  0
    2.8540   -0.0021    3.7672 C   0  0  0  0  0  0  0  0  0  0  0  0
    3.7964   -0.0025    4.3533 H   0  0  0  0  0  0  0  0  0  0  0  0
    2.0217   -0.0025    4.5063 H   0  0  0  0  0  0  0  0  0  0  0  0
    2.7501    1.2601    2.9021 C   0  0  0  0  0  0  0  0  0  0  0  0
    3.6463    1.3445    2.2487 H   0  0  0  0  0  0  0  0  0  0  0  0
    2.7223    2.1715    3.5350 H   0  0  0  0  0  0  0  0  0  0  0  0
    1.4973    1.2166    2.0221 C   0  0  0  0  0  0  0  0  0  0  0  0
    0.5898    1.2477    2.6738 H   0  0  0  0  0  0  0  0  0  0  0  0
    1.4405    2.0982    1.3569 H   0  0  0  0  0  0  0  0  0  0  0  0
    2.5891    1.6646   -1.0778 C   0  0  0  0  0  0  0  0  0  0  0  0
    2.9879    1.2385   -2.0326 H   0  0  0  0  0  0  0  0  0  0  0  0
    3.0962    1.1388   -0.2472 H   0  0  0  0  0  0  0  0  0  0  0  0
    2.8862    3.1679   -1.0398 C   0  0  0  0  0  0  0  0  0  0  0  0
    3.9797    3.3281   -1.1468 H   0  0  0  0  0  0  0  0  0  0  0  0
    2.5965    3.5673   -0.0433 H   0  0  0  0  0  0  0  0  0  0  0  0
    2.1134    3.9072   -2.1382 C   0  0  0  0  0  0  0  0  0  0  0  0
    2.2790    5.0022   -2.0682 H   0  0  0  0  0  0  0  0  0  0  0  0
    2.5060    3.5920   -3.1317 H   0  0  0  0  0  0  0  0  0  0  0  0
    0.6187    3.5752   -2.0594 C   0  0  0  0  0  0  0  0  0  0  0  0
    0.0670    4.0292   -2.9090 H   0  0  0  0  0  0  0  0  0  0  0  0
    0.1846    3.9947   -1.1271 H   0  0  0  0  0  0  0  0  0  0  0  0
    0.3949    2.0598   -2.0618 C   0  0  0  0  0  0  0  0  0  0  0  0
   -0.6784    1.8220   -1.9418 H   0  0  0  0  0  0  0  0  0  0  0  0
    0.7090    1.6413   -3.0521 H   0  0  0  0  0  0  0  0  0  0  0  0
    0.3951   -2.0580   -2.0636 C   0  0  0  0  0  0  0  0  0  0  0  0
    0.7087   -1.6393   -3.0539 H   0  0  0  0  0  0  0  0  0  0  0  0
   -0.6783   -1.8205   -1.9432 H   0  0  0  0  0  0  0  0  0  0  0  0
    0.6193   -3.5734   -2.0617 C   0  0  0  0  0  0  0  0  0  0  0  0
    0.1857   -3.9933   -1.1293 H   0  0  0  0  0  0  0  0  0  0  0  0
    0.0675   -4.0273   -2.9112 H   0  0  0  0  0  0  0  0  0  0  0  0
    2.1141   -3.9049   -2.1410 C   0  0  0  0  0  0  0  0  0  0  0  0
    2.5063   -3.5894   -3.1345 H   0  0  0  0  0  0  0  0  0  0  0  0
    2.2800   -4.9999   -2.0714 H   0  0  0  0  0  0  0  0  0  0  0  0
    2.8870   -3.1658   -1.0426 C   0  0  0  0  0  0  0  0  0  0  0  0
    2.5977   -3.5656   -0.0461 H   0  0  0  0  0  0  0  0  0  0  0  0
    3.9805   -3.3257   -1.1499 H   0  0  0  0  0  0  0  0  0  0  0  0
    2.5895   -1.6625   -1.0800 C   0  0  0  0  0  0  0  0  0  0  0  0
    3.0966   -1.1369   -0.2492 H   0  0  0  0  0  0  0  0  0  0  0  0
    2.9882   -1.2361   -2.0347 H   0  0  0  0  0  0  0  0  0  0  0  0
  1  2  1  0  0  0  0
  2  5  1  0  0  0  0
  2 17  1  0  0  0  0
  3  1  1  0  0  0  0
  4  1  1  0  0  0  0
  5  7  1  0  0  0  0
  5  8  1  0  0  0  0
  6  5  1  0  0  0  0
  8  9  1  0  0  0  0
  8 11  1  0  0  0  0
 10  8  1  0  0  0  0
 11 12  1  0  0  0  0
 11 13  1  0  0  0  0
 14 16  1  0  0  0  0
 14 11  1  0  0  0  0
 15 14  1  0  0  0  0
 17 18  1  0  0  0  0
 17 14  1  0  0  0  0
 19 17  1  0  0  0  0
 20 23  1  0  0  0  0
 20  3  1  0  0  0  0
 20 22  1  0  0  0  0
 21 20  1  0  0  0  0
 23 25  1  0  0  0  0
 24 23  1  0  0  0  0
 26 27  1  0  0  0  0
 26 29  1  0  0  0  0
 26 23  1  0  0  0  0
 28 26  1  0  0  0  0
 29 31  1  0  0  0  0
 30 29  1  0  0  0  0
 32 29  1  0  0  0  0
 32 33  1  0  0  0  0
 32  3  1  0  0  0  0
 34 32  1  0  0  0  0
 35 38  1  0  0  0  0
 35 37  1  0  0  0  0
 35  4  1  0  0  0  0
 36 35  1  0  0  0  0
 38 39  1  0  0  0  0
 40 38  1  0  0  0  0
 41 43  1  0  0  0  0
 41 38  1  0  0  0  0
 41 44  1  0  0  0  0
 42 41  1  0  0  0  0
 44 45  1  0  0  0  0
 46 44  1  0  0  0  0
 47 44  1  0  0  0  0
 47  4  1  0  0  0  0
 47 48  1  0  0  0  0
 49 47  1  0  0  0  0
M  END
