1
 OpenBabel05122313063D

 62 65  0  0  1  0  0  0  0  0999 V2000
    1.2418    0.0934   -0.0574 P   0  0  1  0  0  0  0  0  0  0  0  0
   -1.6112    0.7603   -1.0837 P   0  0  2  0  0  0  0  0  0  0  0  0
   -3.1312   -0.1351    1.3295 P   0  0  0  0  0  2  0  0  0  0  0  0
   -0.2507    0.0606    1.6094 P   0  0  1  0  0  0  0  0  0  0  0  0
    0.3562   -1.5487   -1.2057 P   0  0  0  0  0  0  0  0  0  0  0  0
   -0.2294    1.2477    0.1503 C   0  0  1  0  0  0  0  0  0  0  0  0
   -3.0765    0.9772    0.0306 C   0  0  2  0  0  3  0  0  0  0  0  0
   -1.5833   -1.1582    0.8616 C   0  0  2  0  0  0  0  0  0  0  0  0
   -1.4354   -1.1168   -0.7174 C   0  0  1  0  0  0  0  0  0  0  0  0
    0.0103    2.7544    0.4580 C   0  0  0  0  0  0  0  0  0  0  0  0
   -1.1494    3.3085    1.3031 C   0  0  0  0  0  0  0  0  0  0  0  0
    0.1473    3.5285   -0.8662 C   0  0  0  0  0  0  0  0  0  0  0  0
    1.2877    2.9600    1.2954 C   0  0  0  0  0  0  0  0  0  0  0  0
   -4.2078    1.9863   -0.2565 C   0  0  0  0  0  0  0  0  0  0  0  0
   -3.7698    3.1371   -1.1882 C   0  0  0  0  0  0  0  0  0  0  0  0
   -4.7809    2.5587    1.0583 C   0  0  0  0  0  0  0  0  0  0  0  0
   -5.3569    1.2419   -0.9870 C   0  0  0  0  0  0  0  0  0  0  0  0
   -1.5184   -2.4807    1.7515 C   0  0  0  0  0  0  0  0  0  0  0  0
   -0.2456   -3.2971    1.4580 C   0  0  0  0  0  0  0  0  0  0  0  0
   -1.4759   -2.0941    3.2543 C   0  0  0  0  0  0  0  0  0  0  0  0
   -2.7575   -3.3904    1.6077 C   0  0  0  0  0  0  0  0  0  0  0  0
   -2.3918   -1.9728   -1.6861 C   0  0  0  0  0  0  0  0  0  0  0  0
   -1.8957   -3.4323   -1.8336 C   0  0  0  0  0  0  0  0  0  0  0  0
   -3.8716   -1.9931   -1.2572 C   0  0  0  0  0  0  0  0  0  0  0  0
   -2.3768   -1.3783   -3.1183 C   0  0  0  0  0  0  0  0  0  0  0  0
    0.3941   -0.8096   -2.4453 H   0  0  0  0  0  0  0  0  0  0  0  0
   -0.9806    4.3838    1.5158 H   0  0  0  0  0  0  0  0  0  0  0  0
   -2.1207    3.2079    0.7968 H   0  0  0  0  0  0  0  0  0  0  0  0
   -1.2241    2.7692    2.2690 H   0  0  0  0  0  0  0  0  0  0  0  0
   -0.7709    3.4535   -1.4817 H   0  0  0  0  0  0  0  0  0  0  0  0
    0.9906    3.1349   -1.4683 H   0  0  0  0  0  0  0  0  0  0  0  0
    0.3441    4.6017   -0.6674 H   0  0  0  0  0  0  0  0  0  0  0  0
    2.2012    2.7054    0.7334 H   0  0  0  0  0  0  0  0  0  0  0  0
    1.3648    4.0255    1.5912 H   0  0  0  0  0  0  0  0  0  0  0  0
    1.2687    2.3559    2.2256 H   0  0  0  0  0  0  0  0  0  0  0  0
   -3.0117    3.7982   -0.7287 H   0  0  0  0  0  0  0  0  0  0  0  0
   -4.6476    3.7667   -1.4378 H   0  0  0  0  0  0  0  0  0  0  0  0
   -3.3493    2.7464   -2.1368 H   0  0  0  0  0  0  0  0  0  0  0  0
   -5.1692    1.7499    1.7103 H   0  0  0  0  0  0  0  0  0  0  0  0
   -4.0122    3.1123    1.6315 H   0  0  0  0  0  0  0  0  0  0  0  0
   -5.6191    3.2520    0.8415 H   0  0  0  0  0  0  0  0  0  0  0  0
   -5.7435    0.4029   -0.3759 H   0  0  0  0  0  0  0  0  0  0  0  0
   -5.0230    0.8404   -1.9646 H   0  0  0  0  0  0  0  0  0  0  0  0
   -6.1915    1.9467   -1.1819 H   0  0  0  0  0  0  0  0  0  0  0  0
    0.6708   -2.6914    1.6034 H   0  0  0  0  0  0  0  0  0  0  0  0
   -0.1854   -4.1561    2.1572 H   0  0  0  0  0  0  0  0  0  0  0  0
   -0.2189   -3.7015    0.4296 H   0  0  0  0  0  0  0  0  0  0  0  0
   -0.5392   -1.5741    3.5348 H   0  0  0  0  0  0  0  0  0  0  0  0
   -1.5384   -3.0166    3.8661 H   0  0  0  0  0  0  0  0  0  0  0  0
   -2.3263   -1.4415    3.5406 H   0  0  0  0  0  0  0  0  0  0  0  0
   -3.6887   -2.8478    1.8707 H   0  0  0  0  0  0  0  0  0  0  0  0
   -2.8802   -3.8171    0.5988 H   0  0  0  0  0  0  0  0  0  0  0  0
   -2.6615   -4.2409    2.3125 H   0  0  0  0  0  0  0  0  0  0  0  0
   -0.9118   -3.4854   -2.3431 H   0  0  0  0  0  0  0  0  0  0  0  0
   -2.6174   -4.0019   -2.4532 H   0  0  0  0  0  0  0  0  0  0  0  0
   -1.7917   -3.9612   -0.8707 H   0  0  0  0  0  0  0  0  0  0  0  0
   -4.4247   -2.6915   -1.9186 H   0  0  0  0  0  0  0  0  0  0  0  0
   -4.0251   -2.3253   -0.2170 H   0  0  0  0  0  0  0  0  0  0  0  0
   -4.3368   -1.0014   -1.3571 H   0  0  0  0  0  0  0  0  0  0  0  0
   -2.9736   -2.0328   -3.7854 H   0  0  0  0  0  0  0  0  0  0  0  0
   -1.3565   -1.3142   -3.5439 H   0  0  0  0  0  0  0  0  0  0  0  0
   -2.8210   -0.3646   -3.1542 H   0  0  0  0  0  0  0  0  0  0  0  0
  1  5  1  6  0  0  0
  1  6  1  0  0  0  0
  1  4  1  0  0  0  0
  2  9  1  0  0  0  0
  2  7  1  0  0  0  0
  2  6  1  0  0  0  0
  5  9  1  0  0  0  0
  6 10  1  0  0  0  0
  6  4  1  0  0  0  0
  7  3  1  0  0  0  0
  8  3  1  0  0  0  0
  8  4  1  0  0  0  0
  8 18  1  0  0  0  0
  9  8  1  0  0  0  0
 10 13  1  0  0  0  0
 10 11  1  0  0  0  0
 11 27  1  0  0  0  0
 11 29  1  0  0  0  0
 12 32  1  0  0  0  0
 12 10  1  0  0  0  0
 13 34  1  0  0  0  0
 13 35  1  0  0  0  0
 14  7  1  0  0  0  0
 14 16  1  0  0  0  0
 15 36  1  0  0  0  0
 15 14  1  0  0  0  0
 16 40  1  0  0  0  0
 16 39  1  0  0  0  0
 17 42  1  0  0  0  0
 17 14  1  0  0  0  0
 18 20  1  0  0  0  0
 19 45  1  0  0  0  0
 19 18  1  0  0  0  0
 19 46  1  0  0  0  0
 20 48  1  0  0  0  0
 20 50  1  0  0  0  0
 20 49  1  0  0  0  0
 21 18  1  0  0  0  0
 21 51  1  0  0  0  0
 21 53  1  0  0  0  0
 22 24  1  0  0  0  0
 22  9  1  0  0  0  0
 23 22  1  0  0  0  0
 23 56  1  0  0  0  0
 24 58  1  0  0  0  0
 25 22  1  0  0  0  0
 26  5  1  0  0  0  0
 28 11  1  0  0  0  0
 30 12  1  0  0  0  0
 31 12  1  0  0  0  0
 33 13  1  0  0  0  0
 37 15  1  0  0  0  0
 38 15  1  0  0  0  0
 41 16  1  0  0  0  0
 43 17  1  0  0  0  0
 44 17  1  0  0  0  0
 47 19  1  0  0  0  0
 52 21  1  0  0  0  0
 54 23  1  0  0  0  0
 55 23  1  0  0  0  0
 57 24  1  0  0  0  0
 59 24  1  0  0  0  0
 60 25  1  0  0  0  0
 61 25  1  0  0  0  0
 62 25  1  0  0  0  0
M  END
