1
 OpenBabel05122313063D

 38 39  0  0  0  0  0  0  0  0999 V2000
   -1.8348    0.1289    0.0746 P   0  0  0  0  0  0  0  0  0  0  0  0
   -1.6142   -0.9281    1.4026 N   0  0  0  0  0  0  0  0  0  0  0  0
   -3.5353   -0.1666   -0.6132 C   0  0  0  0  0  0  0  0  0  0  0  0
   -3.7376   -1.3260   -1.3920 C   0  0  0  0  0  0  0  0  0  0  0  0
   -4.9963   -1.6088   -1.9390 C   0  0  0  0  0  0  0  0  0  0  0  0
   -6.0712   -0.7299   -1.7291 C   0  0  0  0  0  0  0  0  0  0  0  0
   -5.8784    0.4295   -0.9634 C   0  0  0  0  0  0  0  0  0  0  0  0
   -4.6211    0.7082   -0.4049 C   0  0  0  0  0  0  0  0  0  0  0  0
   -1.9835    1.8176    0.8075 C   0  0  0  0  0  0  0  0  0  0  0  0
   -2.2851    2.9110   -0.0341 C   0  0  0  0  0  0  0  0  0  0  0  0
   -2.3185    4.2136    0.4809 C   0  0  0  0  0  0  0  0  0  0  0  0
   -2.0456    4.4428    1.8407 C   0  0  0  0  0  0  0  0  0  0  0  0
   -1.7277    3.3626    2.6775 C   0  0  0  0  0  0  0  0  0  0  0  0
   -1.6874    2.0559    2.1621 C   0  0  0  0  0  0  0  0  0  0  0  0
   -2.5555   -1.6141    2.3298 C   0  0  0  0  0  0  0  0  0  0  0  0
   -3.7716   -0.7407    2.6668 C   0  0  0  0  0  0  0  0  0  0  0  0
   -1.7679   -1.8994    3.6217 C   0  0  0  0  0  0  0  0  0  0  0  0
   -3.0205   -2.9477    1.7100 C   0  0  0  0  0  0  0  0  0  0  0  0
   -0.7630   -1.4814    1.2566 H   0  0  0  0  0  0  0  0  0  0  0  0
   -2.8990   -2.0110   -1.5811 H   0  0  0  0  0  0  0  0  0  0  0  0
   -5.1334   -2.5174   -2.5444 H   0  0  0  0  0  0  0  0  0  0  0  0
   -7.0571   -0.9466   -2.1676 H   0  0  0  0  0  0  0  0  0  0  0  0
   -6.7141    1.1255   -0.7936 H   0  0  0  0  0  0  0  0  0  0  0  0
   -4.4906    1.6118    0.2075 H   0  0  0  0  0  0  0  0  0  0  0  0
   -2.4905    2.7387   -1.1022 H   0  0  0  0  0  0  0  0  0  0  0  0
   -2.5536    5.0569   -0.1857 H   0  0  0  0  0  0  0  0  0  0  0  0
   -2.0736    5.4660    2.2446 H   0  0  0  0  0  0  0  0  0  0  0  0
   -1.5057    3.5361    3.7417 H   0  0  0  0  0  0  0  0  0  0  0  0
   -1.4084    1.2048    2.8008 H   0  0  0  0  0  0  0  0  0  0  0  0
   -4.4028   -0.5495    1.7807 H   0  0  0  0  0  0  0  0  0  0  0  0
   -4.3963   -1.2669    3.4153 H   0  0  0  0  0  0  0  0  0  0  0  0
   -3.4702    0.2331    3.0979 H   0  0  0  0  0  0  0  0  0  0  0  0
   -0.8837   -2.5334    3.4131 H   0  0  0  0  0  0  0  0  0  0  0  0
   -1.4140   -0.9558    4.0840 H   0  0  0  0  0  0  0  0  0  0  0  0
   -2.4049   -2.4328    4.3555 H   0  0  0  0  0  0  0  0  0  0  0  0
   -3.6272   -2.7685    0.8017 H   0  0  0  0  0  0  0  0  0  0  0  0
   -2.1479   -3.5699    1.4232 H   0  0  0  0  0  0  0  0  0  0  0  0
   -3.6366   -3.5274    2.4275 H   0  0  0  0  0  0  0  0  0  0  0  0
  1  9  1  0  0  0  0
  1  2  1  0  0  0  0
  2 15  1  0  0  0  0
  3  8  1  0  0  0  0
  3  1  1  0  0  0  0
  4  3  2  0  0  0  0
  5  6  2  0  0  0  0
  5  4  1  0  0  0  0
  6  7  1  0  0  0  0
  7 23  1  0  0  0  0
  7  8  2  0  0  0  0
  8 24  1  0  0  0  0
  9 14  1  0  0  0  0
 10 11  1  0  0  0  0
 10  9  2  0  0  0  0
 11 12  2  0  0  0  0
 12 27  1  0  0  0  0
 12 13  1  0  0  0  0
 13 28  1  0  0  0  0
 14 13  2  0  0  0  0
 14 29  1  0  0  0  0
 15 16  1  0  0  0  0
 15 17  1  0  0  0  0
 16 32  1  0  0  0  0
 16 31  1  0  0  0  0
 17 34  1  0  0  0  0
 17 35  1  0  0  0  0
 18 15  1  0  0  0  0
 18 38  1  0  0  0  0
 19  2  1  0  0  0  0
 20  4  1  0  0  0  0
 21  5  1  0  0  0  0
 22  6  1  0  0  0  0
 25 10  1  0  0  0  0
 26 11  1  0  0  0  0
 30 16  1  0  0  0  0
 33 17  1  0  0  0  0
 36 18  1  0  0  0  0
 37 18  1  0  0  0  0
M  END
