1
 OpenBabel05122313063D

 62 65  0  0  0  0  0  0  0  0999 V2000
   -1.0343    0.6378   -0.1702 P   0  0  0  0  0  0  0  0  0  0  0  0
    0.8785   -0.4470    1.8288 P   0  0  0  0  0  4  0  0  0  0  0  0
    1.9945    2.3577    2.6174 O   0  0  0  0  0  0  0  0  0  0  0  0
   -0.1657    0.8213    1.3735 N   0  0  0  0  0  0  0  0  0  0  0  0
   -2.6020   -0.1793    0.2770 C   0  0  0  0  0  0  0  0  0  0  0  0
   -3.1253   -1.1283   -0.6236 C   0  0  0  0  0  0  0  0  0  0  0  0
   -2.5850   -1.3518   -1.5576 H   0  0  0  0  0  0  0  0  0  0  0  0
   -4.3160   -1.8028   -0.3148 C   0  0  0  0  0  0  0  0  0  0  0  0
   -4.7192   -2.5455   -1.0190 H   0  0  0  0  0  0  0  0  0  0  0  0
   -4.9832   -1.5377    0.8911 C   0  0  0  0  0  0  0  0  0  0  0  0
   -5.9154   -2.0699    1.1328 H   0  0  0  0  0  0  0  0  0  0  0  0
   -4.4613   -0.5944    1.7934 C   0  0  0  0  0  0  0  0  0  0  0  0
   -4.9842   -0.3876    2.7392 H   0  0  0  0  0  0  0  0  0  0  0  0
   -3.2727    0.0839    1.4910 C   0  0  0  0  0  0  0  0  0  0  0  0
   -2.8634    0.8066    2.2127 H   0  0  0  0  0  0  0  0  0  0  0  0
   -1.4229    2.3585   -0.6333 C   0  0  0  0  0  0  0  0  0  0  0  0
   -2.6597    2.9650   -0.3284 C   0  0  0  0  0  0  0  0  0  0  0  0
   -3.4430    2.3982    0.1965 H   0  0  0  0  0  0  0  0  0  0  0  0
   -2.8990    4.2916   -0.7181 C   0  0  0  0  0  0  0  0  0  0  0  0
   -3.8667    4.7605   -0.4862 H   0  0  0  0  0  0  0  0  0  0  0  0
   -1.9147    5.0130   -1.4121 C   0  0  0  0  0  0  0  0  0  0  0  0
   -2.1101    6.0508   -1.7208 H   0  0  0  0  0  0  0  0  0  0  0  0
   -0.6894    4.4047   -1.7344 C   0  0  0  0  0  0  0  0  0  0  0  0
    0.0714    4.9604   -2.3022 H   0  0  0  0  0  0  0  0  0  0  0  0
   -0.4446    3.0785   -1.3555 C   0  0  0  0  0  0  0  0  0  0  0  0
    0.4953    2.5823   -1.6469 H   0  0  0  0  0  0  0  0  0  0  0  0
    2.4810   -0.3856    0.9978 C   0  0  0  0  0  0  0  0  0  0  0  0
    2.7929    0.6590    0.1063 C   0  0  0  0  0  0  0  0  0  0  0  0
    2.0636    1.4602   -0.0741 H   0  0  0  0  0  0  0  0  0  0  0  0
    4.0285    0.6623   -0.5523 C   0  0  0  0  0  0  0  0  0  0  0  0
    4.2657    1.4673   -1.2628 H   0  0  0  0  0  0  0  0  0  0  0  0
    4.9528   -0.3682   -0.3189 C   0  0  0  0  0  0  0  0  0  0  0  0
    5.9182   -0.3683   -0.8460 H   0  0  0  0  0  0  0  0  0  0  0  0
    4.6478   -1.4027    0.5803 C   0  0  0  0  0  0  0  0  0  0  0  0
    5.3729   -2.2091    0.7629 H   0  0  0  0  0  0  0  0  0  0  0  0
    3.4118   -1.4181    1.2416 C   0  0  0  0  0  0  0  0  0  0  0  0
    3.1747   -2.2436    1.9308 H   0  0  0  0  0  0  0  0  0  0  0  0
    0.0656   -2.0233    1.4560 C   0  0  0  0  0  0  0  0  0  0  0  0
    0.5306   -2.8715    0.4271 C   0  0  0  0  0  0  0  0  0  0  0  0
    1.4307   -2.6185   -0.1516 H   0  0  0  0  0  0  0  0  0  0  0  0
   -0.1802   -4.0414    0.1230 C   0  0  0  0  0  0  0  0  0  0  0  0
    0.1780   -4.6911   -0.6886 H   0  0  0  0  0  0  0  0  0  0  0  0
   -1.3434   -4.3677    0.8371 C   0  0  0  0  0  0  0  0  0  0  0  0
   -1.8999   -5.2839    0.5891 H   0  0  0  0  0  0  0  0  0  0  0  0
   -1.8013   -3.5291    1.8679 C   0  0  0  0  0  0  0  0  0  0  0  0
   -2.7142   -3.7824    2.4261 H   0  0  0  0  0  0  0  0  0  0  0  0
   -1.1016   -2.3577    2.1791 C   0  0  0  0  0  0  0  0  0  0  0  0
   -1.4829   -1.6984    2.9725 H   0  0  0  0  0  0  0  0  0  0  0  0
    1.1220   -0.3685    3.6233 C   0  0  0  0  0  0  0  0  0  0  0  0
    1.6066    0.5943    3.8702 H   0  0  0  0  0  0  0  0  0  0  0  0
    1.7831   -1.2140    3.8949 H   0  0  0  0  0  0  0  0  0  0  0  0
    0.1567   -0.4810    4.1521 H   0  0  0  0  0  0  0  0  0  0  0  0
   -0.3289    2.0267    2.2179 C   0  0  0  0  0  0  0  0  0  0  0  0
   -0.5001    1.7258    3.2721 H   0  0  0  0  0  0  0  0  0  0  0  0
   -1.2450    2.5516    1.8882 H   0  0  0  0  0  0  0  0  0  0  0  0
    0.8353    3.0031    2.1383 C   0  0  0  0  0  0  0  0  0  0  0  0
    0.9725    3.3405    1.0819 H   0  0  0  0  0  0  0  0  0  0  0  0
    0.5924    3.9104    2.7441 H   0  0  0  0  0  0  0  0  0  0  0  0
    3.1787    3.1258    2.4818 C   0  0  0  0  0  0  0  0  0  0  0  0
    4.0160    2.5135    2.8651 H   0  0  0  0  0  0  0  0  0  0  0  0
    3.1206    4.0718    3.0665 H   0  0  0  0  0  0  0  0  0  0  0  0
    3.3800    3.3790    1.4152 H   0  0  0  0  0  0  0  0  0  0  0  0
  1  5  1  0  0  0  0
  1  4  1  0  0  0  0
  2 49  1  0  0  0  0
  4  2  1  0  0  0  0
  4 53  1  0  0  0  0
  5 14  1  0  0  0  0
  6  8  1  0  0  0  0
  6  5  2  0  0  0  0
  7  6  1  0  0  0  0
  8 10  2  0  0  0  0
  9  8  1  0  0  0  0
 10 11  1  0  0  0  0
 10 12  1  0  0  0  0
 12 13  1  0  0  0  0
 14 12  2  0  0  0  0
 14 15  1  0  0  0  0
 16 17  1  0  0  0  0
 16  1  1  0  0  0  0
 17 18  1  0  0  0  0
 19 20  1  0  0  0  0
 19 17  2  0  0  0  0
 21 19  1  0  0  0  0
 22 21  1  0  0  0  0
 23 21  2  0  0  0  0
 23 25  1  0  0  0  0
 24 23  1  0  0  0  0
 25 16  2  0  0  0  0
 26 25  1  0  0  0  0
 27 36  1  0  0  0  0
 27  2  1  0  0  0  0
 28 27  2  0  0  0  0
 29 28  1  0  0  0  0
 30 32  2  0  0  0  0
 30 28  1  0  0  0  0
 31 30  1  0  0  0  0
 32 34  1  0  0  0  0
 33 32  1  0  0  0  0
 34 35  1  0  0  0  0
 34 36  2  0  0  0  0
 36 37  1  0  0  0  0
 38  2  1  0  0  0  0
 38 47  1  0  0  0  0
 39 38  2  0  0  0  0
 40 39  1  0  0  0  0
 41 39  1  0  0  0  0
 41 43  2  0  0  0  0
 42 41  1  0  0  0  0
 43 45  1  0  0  0  0
 44 43  1  0  0  0  0
 45 47  2  0  0  0  0
 45 46  1  0  0  0  0
 47 48  1  0  0  0  0
 49 50  1  0  0  0  0
 49 51  1  0  0  0  0
 49 52  1  0  0  0  0
 53 54  1  0  0  0  0
 55 53  1  0  0  0  0
 56 53  1  0  0  0  0
 56  3  1  0  0  0  0
 56 58  1  0  0  0  0
 57 56  1  0  0  0  0
 59  3  1  0  0  0  0
 59 60  1  0  0  0  0
 59 61  1  0  0  0  0
 62 59  1  0  0  0  0
M  END
