1
 OpenBabel05122313063D

 30 32  0  0  0  0  0  0  0  0999 V2000
    0.5868   -1.1099    0.0000 P   0  0  2  0  0  0  0  0  0  0  0  0
   -0.1371   -2.0106   -1.4080 C   0  0  0  0  0  0  0  0  0  0  0  0
    0.5709   -2.2864   -2.2074 H   0  0  0  0  0  0  0  0  0  0  0  0
   -1.4592   -2.2524   -1.5833 C   0  0  0  0  0  0  0  0  0  0  0  0
   -1.7433   -2.6870   -2.5585 H   0  0  0  0  0  0  0  0  0  0  0  0
   -2.6061   -1.9579   -0.7166 C   0  0  0  0  0  0  0  0  0  0  0  0
   -3.8332   -1.7196   -1.3873 C   0  0  0  0  0  0  0  0  0  0  0  0
   -3.8344   -1.7422   -2.4878 H   0  0  0  0  0  0  0  0  0  0  0  0
   -5.0156   -1.4377   -0.7028 C   0  0  0  0  0  0  0  0  0  0  0  0
   -5.9402   -1.2313   -1.2620 H   0  0  0  0  0  0  0  0  0  0  0  0
    2.3131   -1.7626    0.0001 C   0  0  0  0  0  0  0  0  0  0  0  0
    3.4234   -0.8995   -0.0001 C   0  0  0  0  0  0  0  0  0  0  0  0
    3.2694    0.1883   -0.0003 H   0  0  0  0  0  0  0  0  0  0  0  0
    4.7259   -1.4241   -0.0001 C   0  0  0  0  0  0  0  0  0  0  0  0
    5.5877   -0.7399   -0.0003 H   0  0  0  0  0  0  0  0  0  0  0  0
    4.9263   -2.8122    0.0000 C   0  0  0  0  0  0  0  0  0  0  0  0
    5.9478   -3.2218    0.0000 H   0  0  0  0  0  0  0  0  0  0  0  0
    3.8209   -3.6801    0.0002 C   0  0  0  0  0  0  0  0  0  0  0  0
    3.9740   -4.7700    0.0003 H   0  0  0  0  0  0  0  0  0  0  0  0
    2.5197   -3.1595    0.0002 C   0  0  0  0  0  0  0  0  0  0  0  0
    1.6541   -3.8408    0.0003 H   0  0  0  0  0  0  0  0  0  0  0  0
   -0.1372   -2.0107    1.4080 C   0  0  0  0  0  0  0  0  0  0  0  0
    0.5708   -2.2864    2.2075 H   0  0  0  0  0  0  0  0  0  0  0  0
   -1.4592   -2.2523    1.5834 C   0  0  0  0  0  0  0  0  0  0  0  0
   -1.7434   -2.6870    2.5586 H   0  0  0  0  0  0  0  0  0  0  0  0
   -2.6061   -1.9578    0.7166 C   0  0  0  0  0  0  0  0  0  0  0  0
   -3.8332   -1.7195    1.3873 C   0  0  0  0  0  0  0  0  0  0  0  0
   -3.8344   -1.7419    2.4878 H   0  0  0  0  0  0  0  0  0  0  0  0
   -5.0156   -1.4376    0.7028 C   0  0  0  0  0  0  0  0  0  0  0  0
   -5.9402   -1.2312    1.2620 H   0  0  0  0  0  0  0  0  0  0  0  0
  1 11  1  1  0  0  0
  1 22  1  0  0  0  0
  2  1  1  0  0  0  0
  3  2  1  0  0  0  0
  4  2  2  0  0  0  0
  4  6  1  0  0  0  0
  5  4  1  0  0  0  0
  6 26  1  0  0  0  0
  7  6  2  0  0  0  0
  7  9  1  0  0  0  0
  8  7  1  0  0  0  0
  9 29  2  0  0  0  0
 10  9  1  0  0  0  0
 11 20  1  0  0  0  0
 12 11  2  0  0  0  0
 13 12  1  0  0  0  0
 14 12  1  0  0  0  0
 14 16  2  0  0  0  0
 15 14  1  0  0  0  0
 16 18  1  0  0  0  0
 17 16  1  0  0  0  0
 18 20  2  0  0  0  0
 18 19  1  0  0  0  0
 20 21  1  0  0  0  0
 22 24  2  0  0  0  0
 22 23  1  0  0  0  0
 24 25  1  0  0  0  0
 26 27  2  0  0  0  0
 26 24  1  0  0  0  0
 27 28  1  0  0  0  0
 29 30  1  0  0  0  0
 29 27  1  0  0  0  0
M  END
