1
 OpenBabel05122313063D

 52 55  0  0  0  0  0  0  0  0999 V2000
   -0.3497   -0.3094   -0.6412 P   0  0  0  0  0  0  0  0  0  0  0  0
   -0.6580   -0.0504   -2.0141 H   0  0  0  0  0  0  0  0  0  0  0  0
   -1.0989   -1.8624   -0.5532 N   0  0  0  0  0  0  0  0  0  0  0  0
   -0.7550   -2.7238    0.5859 C   0  0  0  0  0  0  0  0  0  0  0  0
   -0.6012   -2.0952    1.4814 H   0  0  0  0  0  0  0  0  0  0  0  0
    0.2049   -3.2652    0.3920 H   0  0  0  0  0  0  0  0  0  0  0  0
   -1.8685   -3.7407    0.8465 C   0  0  0  0  0  0  0  0  0  0  0  0
   -1.5706   -4.3926    1.6936 H   0  0  0  0  0  0  0  0  0  0  0  0
   -2.7826   -3.1931    1.1632 H   0  0  0  0  0  0  0  0  0  0  0  0
   -2.1543   -4.5684   -0.4104 C   0  0  0  0  0  0  0  0  0  0  0  0
   -2.9912   -5.2763   -0.2378 H   0  0  0  0  0  0  0  0  0  0  0  0
   -1.2606   -5.1873   -0.6504 H   0  0  0  0  0  0  0  0  0  0  0  0
   -2.4630   -3.6478   -1.5962 C   0  0  0  0  0  0  0  0  0  0  0  0
   -2.5792   -4.2312   -2.5333 H   0  0  0  0  0  0  0  0  0  0  0  0
   -3.4292   -3.1264   -1.4211 H   0  0  0  0  0  0  0  0  0  0  0  0
   -1.3565   -2.6060   -1.7963 C   0  0  0  0  0  0  0  0  0  0  0  0
   -0.4279   -3.1217   -2.1447 H   0  0  0  0  0  0  0  0  0  0  0  0
   -1.6489   -1.8852   -2.5861 H   0  0  0  0  0  0  0  0  0  0  0  0
   -1.6286    0.9648    0.1697 C   0  0  0  0  0  0  0  0  0  0  0  0
   -0.9003    2.3103    0.2123 C   0  0  0  0  0  0  0  0  0  0  0  0
   -0.2085    2.7740   -0.9294 C   0  0  0  0  0  0  0  0  0  0  0  0
   -0.1898    2.1673   -1.8463 H   0  0  0  0  0  0  0  0  0  0  0  0
    0.4345    4.0187   -0.9344 C   0  0  0  0  0  0  0  0  0  0  0  0
    0.9808    4.3420   -1.8331 H   0  0  0  0  0  0  0  0  0  0  0  0
    0.3826    4.8401    0.2022 C   0  0  0  0  0  0  0  0  0  0  0  0
    0.8914    5.8156    0.2057 H   0  0  0  0  0  0  0  0  0  0  0  0
   -0.3262    4.4070    1.3323 C   0  0  0  0  0  0  0  0  0  0  0  0
   -0.3843    5.0469    2.2258 H   0  0  0  0  0  0  0  0  0  0  0  0
   -0.9579    3.1540    1.3387 C   0  0  0  0  0  0  0  0  0  0  0  0
   -1.5070    2.8281    2.2331 H   0  0  0  0  0  0  0  0  0  0  0  0
   -2.8731    1.0493   -0.7263 C   0  0  0  0  0  0  0  0  0  0  0  0
   -3.6051   -0.1119   -1.0686 C   0  0  0  0  0  0  0  0  0  0  0  0
   -3.2704   -1.0792   -0.6749 H   0  0  0  0  0  0  0  0  0  0  0  0
   -4.7332   -0.0444   -1.8966 C   0  0  0  0  0  0  0  0  0  0  0  0
   -5.2751   -0.9695   -2.1483 H   0  0  0  0  0  0  0  0  0  0  0  0
   -5.1748    1.1911   -2.3955 C   0  0  0  0  0  0  0  0  0  0  0  0
   -6.0623    1.2468   -3.0438 H   0  0  0  0  0  0  0  0  0  0  0  0
   -4.4744    2.3543   -2.0478 C   0  0  0  0  0  0  0  0  0  0  0  0
   -4.8119    3.3344   -2.4181 H   0  0  0  0  0  0  0  0  0  0  0  0
   -3.3388    2.2853   -1.2250 C   0  0  0  0  0  0  0  0  0  0  0  0
   -2.8115    3.2127   -0.9652 H   0  0  0  0  0  0  0  0  0  0  0  0
   -1.9007    0.3962    1.5684 C   0  0  0  0  0  0  0  0  0  0  0  0
   -3.1711   -0.0421    1.9896 C   0  0  0  0  0  0  0  0  0  0  0  0
   -4.0359    0.0681    1.3225 H   0  0  0  0  0  0  0  0  0  0  0  0
   -3.3527   -0.6147    3.2601 C   0  0  0  0  0  0  0  0  0  0  0  0
   -4.3573   -0.9481    3.5621 H   0  0  0  0  0  0  0  0  0  0  0  0
   -2.2696   -0.7612    4.1378 C   0  0  0  0  0  0  0  0  0  0  0  0
   -2.4127   -1.2194    5.1280 H   0  0  0  0  0  0  0  0  0  0  0  0
   -1.0019   -0.3024    3.7439 C   0  0  0  0  0  0  0  0  0  0  0  0
   -0.1384   -0.4000    4.4187 H   0  0  0  0  0  0  0  0  0  0  0  0
   -0.8259    0.2761    2.4809 C   0  0  0  0  0  0  0  0  0  0  0  0
    0.1679    0.6404    2.1892 H   0  0  0  0  0  0  0  0  0  0  0  0
  1  3  1  0  0  0  0
  1 19  1  0  0  0  0
  2  1  1  0  0  0  0
  3  4  1  0  0  0  0
  4  7  1  0  0  0  0
  4  5  1  0  0  0  0
  6  4  1  0  0  0  0
  7  9  1  0  0  0  0
  7  8  1  0  0  0  0
 10 11  1  0  0  0  0
 10  7  1  0  0  0  0
 12 10  1  0  0  0  0
 13 15  1  0  0  0  0
 13 10  1  0  0  0  0
 14 13  1  0  0  0  0
 16 13  1  0  0  0  0
 16  3  1  0  0  0  0
 17 16  1  0  0  0  0
 18 16  1  0  0  0  0
 19 20  1  0  0  0  0
 19 42  1  0  0  0  0
 20 29  1  0  0  0  0
 21 20  2  0  0  0  0
 22 21  1  0  0  0  0
 23 21  1  0  0  0  0
 23 25  2  0  0  0  0
 24 23  1  0  0  0  0
 25 26  1  0  0  0  0
 25 27  1  0  0  0  0
 27 29  2  0  0  0  0
 27 28  1  0  0  0  0
 29 30  1  0  0  0  0
 31 19  1  0  0  0  0
 32 31  1  0  0  0  0
 32 33  1  0  0  0  0
 34 32  2  0  0  0  0
 35 34  1  0  0  0  0
 36 38  2  0  0  0  0
 36 34  1  0  0  0  0
 37 36  1  0  0  0  0
 38 40  1  0  0  0  0
 39 38  1  0  0  0  0
 40 41  1  0  0  0  0
 40 31  2  0  0  0  0
 42 43  2  0  0  0  0
 42 51  1  0  0  0  0
 43 45  1  0  0  0  0
 44 43  1  0  0  0  0
 45 46  1  0  0  0  0
 45 47  2  0  0  0  0
 47 48  1  0  0  0  0
 49 47  1  0  0  0  0
 49 50  1  0  0  0  0
 51 49  2  0  0  0  0
 52 51  1  0  0  0  0
M  END
