74
 OpenBabel05122313063D

 74 78  0  0  0  0  0  0  0  0999 V2000
   -1.6220    0.3338    0.8909 B   0  0  0  0  0  0  0  0  0  0  0  0
    0.7166   -0.6147    1.8760 C   0  0  0  0  0  0  0  0  0  0  0  0
    1.4333   -1.0928    2.9913 C   0  0  0  0  0  0  0  0  0  0  0  0
    2.5125   -1.2897    2.9064 H   0  0  0  0  0  0  0  0  0  0  0  0
    0.7799   -1.3461    4.2081 C   0  0  0  0  0  0  0  0  0  0  0  0
    1.3558   -1.7078    5.0733 H   0  0  0  0  0  0  0  0  0  0  0  0
   -0.6068   -1.1680    4.2974 C   0  0  0  0  0  0  0  0  0  0  0  0
   -1.1362   -1.3943    5.2356 H   0  0  0  0  0  0  0  0  0  0  0  0
   -1.3227   -0.7145    3.1796 C   0  0  0  0  0  0  0  0  0  0  0  0
   -2.4144   -0.5873    3.2504 H   0  0  0  0  0  0  0  0  0  0  0  0
   -0.6891   -0.3906    1.9553 C   0  0  0  0  0  0  0  0  0  0  0  0
    2.2982    1.3061    0.2307 C   0  0  0  0  0  0  0  0  0  0  0  0
    2.3684    1.9652   -1.0113 C   0  0  0  0  0  0  0  0  0  0  0  0
    1.9425    1.4820   -1.9046 H   0  0  0  0  0  0  0  0  0  0  0  0
    2.9623    3.2325   -1.0969 C   0  0  0  0  0  0  0  0  0  0  0  0
    3.0124    3.7445   -2.0694 H   0  0  0  0  0  0  0  0  0  0  0  0
    3.4736    3.8509    0.0542 C   0  0  0  0  0  0  0  0  0  0  0  0
    3.9329    4.8489   -0.0142 H   0  0  0  0  0  0  0  0  0  0  0  0
    3.3953    3.1988    1.2967 C   0  0  0  0  0  0  0  0  0  0  0  0
    3.7912    3.6842    2.2016 H   0  0  0  0  0  0  0  0  0  0  0  0
    2.8152    1.9260    1.3869 C   0  0  0  0  0  0  0  0  0  0  0  0
    2.7605    1.4134    2.3595 H   0  0  0  0  0  0  0  0  0  0  0  0
    3.1052   -1.4719    0.4760 C   0  0  0  0  0  0  0  0  0  0  0  0
    2.8999   -2.8682    0.4237 C   0  0  0  0  0  0  0  0  0  0  0  0
    1.8842   -3.2645    0.2644 H   0  0  0  0  0  0  0  0  0  0  0  0
    3.9828   -3.7450    0.5607 C   0  0  0  0  0  0  0  0  0  0  0  0
    3.8130   -4.8315    0.5193 H   0  0  0  0  0  0  0  0  0  0  0  0
    5.2825   -3.2385    0.7353 C   0  0  0  0  0  0  0  0  0  0  0  0
    6.1341   -3.9285    0.8344 H   0  0  0  0  0  0  0  0  0  0  0  0
    5.4925   -1.8525    0.7705 C   0  0  0  0  0  0  0  0  0  0  0  0
    6.5094   -1.4505    0.8954 H   0  0  0  0  0  0  0  0  0  0  0  0
    4.4086   -0.9677    0.6423 C   0  0  0  0  0  0  0  0  0  0  0  0
    4.5815    0.1180    0.6659 H   0  0  0  0  0  0  0  0  0  0  0  0
   -3.0779   -0.2339    0.6930 C   0  0  0  0  0  0  0  0  0  0  0  0
   -4.2055    0.6313    0.8853 C   0  0  0  0  0  0  0  0  0  0  0  0
   -5.5073    0.1186    0.7765 C   0  0  0  0  0  0  0  0  0  0  0  0
   -6.3600    0.7953    0.9527 H   0  0  0  0  0  0  0  0  0  0  0  0
   -5.7590   -1.2293    0.4548 C   0  0  0  0  0  0  0  0  0  0  0  0
   -4.6536   -2.0700    0.2675 C   0  0  0  0  0  0  0  0  0  0  0  0
   -4.8225   -3.1303    0.0170 H   0  0  0  0  0  0  0  0  0  0  0  0
   -3.3286   -1.6060    0.3887 C   0  0  0  0  0  0  0  0  0  0  0  0
   -4.0573    2.0966    1.2357 C   0  0  0  0  0  0  0  0  0  0  0  0
   -5.0329    2.5264    1.5348 H   0  0  0  0  0  0  0  0  0  0  0  0
   -3.6743    2.6878    0.3796 H   0  0  0  0  0  0  0  0  0  0  0  0
   -3.3452    2.2651    2.0676 H   0  0  0  0  0  0  0  0  0  0  0  0
   -7.1712   -1.7370    0.3167 C   0  0  0  0  0  0  0  0  0  0  0  0
   -7.7820   -1.4830    1.2077 H   0  0  0  0  0  0  0  0  0  0  0  0
   -7.2006   -2.8353    0.1804 H   0  0  0  0  0  0  0  0  0  0  0  0
   -7.6770   -1.2753   -0.5579 H   0  0  0  0  0  0  0  0  0  0  0  0
   -2.2241   -2.5909    0.0979 C   0  0  0  0  0  0  0  0  0  0  0  0
   -2.5200   -3.6194    0.3846 H   0  0  0  0  0  0  0  0  0  0  0  0
   -1.2825   -2.3405    0.6208 H   0  0  0  0  0  0  0  0  0  0  0  0
   -1.9918   -2.6066   -0.9895 H   0  0  0  0  0  0  0  0  0  0  0  0
   -1.1644    1.7040    0.2651 C   0  0  0  0  0  0  0  0  0  0  0  0
   -0.5223    2.7129    1.0571 C   0  0  0  0  0  0  0  0  0  0  0  0
   -0.1225    3.9204    0.4652 C   0  0  0  0  0  0  0  0  0  0  0  0
    0.3565    4.6873    1.0954 H   0  0  0  0  0  0  0  0  0  0  0  0
   -0.3006    4.1749   -0.9060 C   0  0  0  0  0  0  0  0  0  0  0  0
   -0.9604    3.1996   -1.6703 C   0  0  0  0  0  0  0  0  0  0  0  0
   -1.1381    3.3877   -2.7418 H   0  0  0  0  0  0  0  0  0  0  0  0
   -1.4356    1.9988   -1.1096 C   0  0  0  0  0  0  0  0  0  0  0  0
   -0.3284    2.5790    2.5519 C   0  0  0  0  0  0  0  0  0  0  0  0
   -0.0021    3.5433    2.9869 H   0  0  0  0  0  0  0  0  0  0  0  0
    0.4308    1.8188    2.8176 H   0  0  0  0  0  0  0  0  0  0  0  0
   -1.2612    2.2732    3.0673 H   0  0  0  0  0  0  0  0  0  0  0  0
    0.1699    5.4700   -1.5139 C   0  0  0  0  0  0  0  0  0  0  0  0
   -0.4549    6.3225   -1.1718 H   0  0  0  0  0  0  0  0  0  0  0  0
    0.1258    5.4450   -2.6200 H   0  0  0  0  0  0  0  0  0  0  0  0
    1.2128    5.6980   -1.2114 H   0  0  0  0  0  0  0  0  0  0  0  0
   -2.2648    1.0996   -1.9951 C   0  0  0  0  0  0  0  0  0  0  0  0
   -3.3422    1.2001   -1.7474 H   0  0  0  0  0  0  0  0  0  0  0  0
   -2.0195    0.0267   -1.8983 H   0  0  0  0  0  0  0  0  0  0  0  0
   -2.1346    1.3658   -3.0612 H   0  0  0  0  0  0  0  0  0  0  0  0
    1.6222   -0.3935    0.2825 P   0  0  0  0  0  0  0  0  0  0  0  0
  1 11  1  0  0  0  0
  2 11  2  0  0  0  0
  2  3  1  0  0  0  0
  3  5  2  0  0  0  0
  4  3  1  0  0  0  0
  5  7  1  0  0  0  0
  5  6  1  0  0  0  0
  7  8  1  0  0  0  0
  9 10  1  0  0  0  0
  9  7  2  0  0  0  0
 11  9  1  0  0  0  0
 12 74  1  0  0  0  0
 12 21  1  0  0  0  0
 13 12  2  0  0  0  0
 14 13  1  0  0  0  0
 15 13  1  0  0  0  0
 15 17  2  0  0  0  0
 16 15  1  0  0  0  0
 17 19  1  0  0  0  0
 18 17  1  0  0  0  0
 19 21  2  0  0  0  0
 19 20  1  0  0  0  0
 21 22  1  0  0  0  0
 23 32  1  0  0  0  0
 24 23  2  0  0  0  0
 24 26  1  0  0  0  0
 25 24  1  0  0  0  0
 26 28  2  0  0  0  0
 27 26  1  0  0  0  0
 28 30  1  0  0  0  0
 28 29  1  0  0  0  0
 30 31  1  0  0  0  0
 32 33  1  0  0  0  0
 32 30  2  0  0  0  0
 34 35  1  0  0  0  0
 34  1  1  0  0  0  0
 35 42  1  0  0  0  0
 36 35  2  0  0  0  0
 36 37  1  0  0  0  0
 38 36  1  0  0  0  0
 39 41  1  0  0  0  0
 39 38  2  0  0  0  0
 40 39  1  0  0  0  0
 41 34  2  0  0  0  0
 42 43  1  0  0  0  0
 42 45  1  0  0  0  0
 44 42  1  0  0  0  0
 46 38  1  0  0  0  0
 46 47  1  0  0  0  0
 48 46  1  0  0  0  0
 49 46  1  0  0  0  0
 50 51  1  0  0  0  0
 50 41  1  0  0  0  0
 50 52  1  0  0  0  0
 53 50  1  0  0  0  0
 54  1  1  0  0  0  0
 54 55  1  0  0  0  0
 55 62  1  0  0  0  0
 56 55  2  0  0  0  0
 56 57  1  0  0  0  0
 58 56  1  0  0  0  0
 59 61  1  0  0  0  0
 59 58  2  0  0  0  0
 60 59  1  0  0  0  0
 61 54  2  0  0  0  0
 62 64  1  0  0  0  0
 62 63  1  0  0  0  0
 62 65  1  0  0  0  0
 66 69  1  0  0  0  0
 66 67  1  0  0  0  0
 66 58  1  0  0  0  0
 68 66  1  0  0  0  0
 70 72  1  0  0  0  0
 70 71  1  0  0  0  0
 70 61  1  0  0  0  0
 73 70  1  0  0  0  0
 74 23  1  0  0  0  0
 74  2  1  0  0  0  0
M  END
