1
 OpenBabel05122313063D

 44 47  0  0  0  0  0  0  0  0999 V2000
   -1.2599    0.3964    0.1615 P   0  0  0  0  0  0  0  0  0  0  0  0
   -0.8620    1.2964    1.5910 N   0  0  0  0  0  0  0  0  0  0  0  0
   -1.5812    1.5127    2.2852 H   0  0  0  0  0  0  0  0  0  0  0  0
    0.6986    1.9604    3.2024 N   0  0  0  0  0  0  0  0  0  0  0  0
    1.3594    0.9901    1.0993 N   0  0  0  0  0  0  0  0  0  0  0  0
   -3.0885    0.4992    0.2585 C   0  0  0  0  0  0  0  0  0  0  0  0
   -3.7585    1.7354    0.1404 C   0  0  0  0  0  0  0  0  0  0  0  0
   -3.1880    2.6581   -0.0463 H   0  0  0  0  0  0  0  0  0  0  0  0
   -5.1556    1.7846    0.2414 C   0  0  0  0  0  0  0  0  0  0  0  0
   -5.6767    2.7493    0.1471 H   0  0  0  0  0  0  0  0  0  0  0  0
   -5.8892    0.6044    0.4513 C   0  0  0  0  0  0  0  0  0  0  0  0
   -6.9866    0.6463    0.5245 H   0  0  0  0  0  0  0  0  0  0  0  0
   -5.2256   -0.6274    0.5595 C   0  0  0  0  0  0  0  0  0  0  0  0
   -5.7985   -1.5534    0.7177 H   0  0  0  0  0  0  0  0  0  0  0  0
   -3.8269   -0.6831    0.4624 C   0  0  0  0  0  0  0  0  0  0  0  0
   -3.2951   -1.6454    0.5395 H   0  0  0  0  0  0  0  0  0  0  0  0
   -0.7766    1.5017   -1.2167 C   0  0  0  0  0  0  0  0  0  0  0  0
   -0.6116    0.9314   -2.4935 C   0  0  0  0  0  0  0  0  0  0  0  0
   -0.7422   -0.1551   -2.6263 H   0  0  0  0  0  0  0  0  0  0  0  0
   -0.2623    1.7443   -3.5815 C   0  0  0  0  0  0  0  0  0  0  0  0
   -0.1317    1.2960   -4.5779 H   0  0  0  0  0  0  0  0  0  0  0  0
   -0.0661    3.1223   -3.3960 C   0  0  0  0  0  0  0  0  0  0  0  0
    0.2176    3.7573   -4.2489 H   0  0  0  0  0  0  0  0  0  0  0  0
   -0.2177    3.6884   -2.1196 C   0  0  0  0  0  0  0  0  0  0  0  0
   -0.0496    4.7657   -1.9702 H   0  0  0  0  0  0  0  0  0  0  0  0
   -0.5722    2.8817   -1.0287 C   0  0  0  0  0  0  0  0  0  0  0  0
   -0.6719    3.3157   -0.0220 H   0  0  0  0  0  0  0  0  0  0  0  0
    0.4576    1.4215    1.9928 C   0  0  0  0  0  0  0  0  0  0  0  0
    2.0002    2.0550    3.5162 C   0  0  0  0  0  0  0  0  0  0  0  0
    2.2335    2.4897    4.5044 H   0  0  0  0  0  0  0  0  0  0  0  0
    3.0337    1.6304    2.6707 C   0  0  0  0  0  0  0  0  0  0  0  0
    4.0809    1.7128    2.9873 H   0  0  0  0  0  0  0  0  0  0  0  0
    2.6650    1.0802    1.4206 C   0  0  0  0  0  0  0  0  0  0  0  0
    3.6353    0.5728    0.4208 C   0  0  0  0  0  0  0  0  0  0  0  0
    5.0270    0.7717    0.5584 C   0  0  0  0  0  0  0  0  0  0  0  0
    5.4255    1.3326    1.4163 H   0  0  0  0  0  0  0  0  0  0  0  0
    5.9159    0.2709   -0.4010 C   0  0  0  0  0  0  0  0  0  0  0  0
    6.9973    0.4369   -0.2824 H   0  0  0  0  0  0  0  0  0  0  0  0
    5.4295   -0.4414   -1.5098 C   0  0  0  0  0  0  0  0  0  0  0  0
    6.1303   -0.8406   -2.2589 H   0  0  0  0  0  0  0  0  0  0  0  0
    4.0474   -0.6442   -1.6566 C   0  0  0  0  0  0  0  0  0  0  0  0
    3.6581   -1.2094   -2.5167 H   0  0  0  0  0  0  0  0  0  0  0  0
    3.1569   -0.1376   -0.7040 C   0  0  0  0  0  0  0  0  0  0  0  0
    2.0731   -0.2941   -0.8034 H   0  0  0  0  0  0  0  0  0  0  0  0
  1  6  1  0  0  0  0
  1  2  1  0  0  0  0
  2 28  1  0  0  0  0
  2  3  1  0  0  0  0
  4 29  1  0  0  0  0
  5 33  2  0  0  0  0
  5 28  1  0  0  0  0
  6 15  1  0  0  0  0
  7  9  1  0  0  0  0
  7  6  2  0  0  0  0
  8  7  1  0  0  0  0
  9 11  2  0  0  0  0
 10  9  1  0  0  0  0
 11 12  1  0  0  0  0
 11 13  1  0  0  0  0
 13 14  1  0  0  0  0
 15 16  1  0  0  0  0
 15 13  2  0  0  0  0
 17 26  1  0  0  0  0
 17  1  1  0  0  0  0
 18 17  2  0  0  0  0
 19 18  1  0  0  0  0
 20 22  2  0  0  0  0
 20 18  1  0  0  0  0
 21 20  1  0  0  0  0
 22 24  1  0  0  0  0
 23 22  1  0  0  0  0
 24 25  1  0  0  0  0
 24 26  2  0  0  0  0
 26 27  1  0  0  0  0
 28  4  2  0  0  0  0
 29 30  1  0  0  0  0
 31 32  1  0  0  0  0
 31 29  2  0  0  0  0
 33 31  1  0  0  0  0
 34 35  1  0  0  0  0
 34 33  1  0  0  0  0
 35 36  1  0  0  0  0
 37 38  1  0  0  0  0
 37 35  2  0  0  0  0
 39 37  1  0  0  0  0
 40 39  1  0  0  0  0
 41 39  2  0  0  0  0
 41 43  1  0  0  0  0
 42 41  1  0  0  0  0
 43 34  2  0  0  0  0
 44 43  1  0  0  0  0
M  END
