1
 OpenBabel05122313063D

 53 54  0  0  0  0  0  0  0  0999 V2000
    0.1660    0.4377    0.0199 P   0  0  1  0  0  0  0  0  0  0  0  0
    1.6147    3.0814    0.8168 Si  0  0  0  0  0  0  0  0  0  0  0  0
   -0.5235    3.0190   -1.6738 Si  0  0  0  0  0  0  0  0  0  0  0  0
   -0.5992    0.7559    1.5331 N   0  0  0  0  0  0  0  0  0  0  0  0
   -1.3021   -0.0244   -0.8375 N   0  0  0  0  0  0  0  0  0  0  0  0
   -2.7091    0.4521    2.5036 N   0  0  0  0  0  0  0  0  0  0  0  0
    0.7501    2.0615   -0.5876 C   0  0  0  0  0  0  0  0  0  0  0  0
    1.5787    1.8014   -1.2841 H   0  0  0  0  0  0  0  0  0  0  0  0
   -1.8562    0.3975    1.4301 C   0  0  0  0  0  0  0  0  0  0  0  0
   -2.2503   -0.1221    0.0474 C   0  0  0  0  0  0  0  0  0  0  0  0
   -3.5306   -0.7793   -0.3017 C   0  0  0  0  0  0  0  0  0  0  0  0
   -4.1233   -1.7214    0.5683 C   0  0  0  0  0  0  0  0  0  0  0  0
   -3.6457   -1.9393    1.5345 H   0  0  0  0  0  0  0  0  0  0  0  0
   -5.2931   -2.3912    0.1876 C   0  0  0  0  0  0  0  0  0  0  0  0
   -5.7391   -3.1365    0.8632 H   0  0  0  0  0  0  0  0  0  0  0  0
   -5.8907   -2.1195   -1.0542 C   0  0  0  0  0  0  0  0  0  0  0  0
   -6.8140   -2.6419   -1.3470 H   0  0  0  0  0  0  0  0  0  0  0  0
   -5.3027   -1.1877   -1.9261 C   0  0  0  0  0  0  0  0  0  0  0  0
   -5.7639   -0.9792   -2.9032 H   0  0  0  0  0  0  0  0  0  0  0  0
   -4.1221   -0.5301   -1.5592 C   0  0  0  0  0  0  0  0  0  0  0  0
   -3.6374    0.1842   -2.2411 H   0  0  0  0  0  0  0  0  0  0  0  0
   -4.0979    0.8747    2.3633 C   0  0  0  0  0  0  0  0  0  0  0  0
   -4.2092    1.9336    2.6908 H   0  0  0  0  0  0  0  0  0  0  0  0
   -4.7682    0.2452    2.9843 H   0  0  0  0  0  0  0  0  0  0  0  0
   -4.4320    0.8053    1.3154 H   0  0  0  0  0  0  0  0  0  0  0  0
   -2.1126    0.7416    3.7999 C   0  0  0  0  0  0  0  0  0  0  0  0
   -1.1671    0.1799    3.9086 H   0  0  0  0  0  0  0  0  0  0  0  0
   -2.8226    0.4432    4.5963 H   0  0  0  0  0  0  0  0  0  0  0  0
   -1.8772    1.8246    3.9165 H   0  0  0  0  0  0  0  0  0  0  0  0
    2.4282    1.9936    2.1287 C   0  0  0  0  0  0  0  0  0  0  0  0
    3.1970    1.3210    1.7023 H   0  0  0  0  0  0  0  0  0  0  0  0
    1.6809    1.3826    2.6690 H   0  0  0  0  0  0  0  0  0  0  0  0
    2.9336    2.6562    2.8627 H   0  0  0  0  0  0  0  0  0  0  0  0
    0.3651    4.2005    1.6912 C   0  0  0  0  0  0  0  0  0  0  0  0
    0.8750    4.7652    2.4987 H   0  0  0  0  0  0  0  0  0  0  0  0
   -0.4247    3.5758    2.1553 H   0  0  0  0  0  0  0  0  0  0  0  0
   -0.1145    4.9346    1.0145 H   0  0  0  0  0  0  0  0  0  0  0  0
    2.9908    4.0828   -0.0115 C   0  0  0  0  0  0  0  0  0  0  0  0
    2.6218    4.7922   -0.7762 H   0  0  0  0  0  0  0  0  0  0  0  0
    3.7162    3.3950   -0.4938 H   0  0  0  0  0  0  0  0  0  0  0  0
    3.5419    4.6640    0.7568 H   0  0  0  0  0  0  0  0  0  0  0  0
   -2.1780    3.2775   -0.7836 C   0  0  0  0  0  0  0  0  0  0  0  0
   -2.7530    4.0662   -1.3119 H   0  0  0  0  0  0  0  0  0  0  0  0
   -2.0388    3.6050    0.2648 H   0  0  0  0  0  0  0  0  0  0  0  0
   -2.7948    2.3584   -0.7829 H   0  0  0  0  0  0  0  0  0  0  0  0
    0.1812    4.7206   -2.1235 C   0  0  0  0  0  0  0  0  0  0  0  0
    1.1586    4.6323   -2.6397 H   0  0  0  0  0  0  0  0  0  0  0  0
    0.3123    5.3844   -1.2463 H   0  0  0  0  0  0  0  0  0  0  0  0
   -0.5212    5.2211   -2.8226 H   0  0  0  0  0  0  0  0  0  0  0  0
   -0.7770    2.0636   -3.2841 C   0  0  0  0  0  0  0  0  0  0  0  0
   -1.5189    2.5787   -3.9294 H   0  0  0  0  0  0  0  0  0  0  0  0
   -1.1329    1.0348   -3.0784 H   0  0  0  0  0  0  0  0  0  0  0  0
    0.1731    1.9907   -3.8527 H   0  0  0  0  0  0  0  0  0  0  0  0
  1  7  1  6  0  0  0
  1  4  1  0  0  0  0
  2 34  1  0  0  0  0
  2 30  1  0  0  0  0
  3 42  1  0  0  0  0
  3  7  1  0  0  0  0
  5  1  1  0  0  0  0
  5 10  2  0  0  0  0
  6 26  1  0  0  0  0
  7  2  1  0  0  0  0
  8  7  1  0  0  0  0
  9  4  2  0  0  0  0
  9  6  1  0  0  0  0
 10  9  1  0  0  0  0
 11 10  1  0  0  0  0
 11 12  1  0  0  0  0
 12 13  1  0  0  0  0
 14 12  2  0  0  0  0
 14 15  1  0  0  0  0
 16 14  1  0  0  0  0
 17 16  1  0  0  0  0
 18 20  1  0  0  0  0
 18 16  2  0  0  0  0
 19 18  1  0  0  0  0
 20 11  2  0  0  0  0
 21 20  1  0  0  0  0
 22  6  1  0  0  0  0
 22 23  1  0  0  0  0
 22 24  1  0  0  0  0
 25 22  1  0  0  0  0
 26 27  1  0  0  0  0
 26 29  1  0  0  0  0
 26 28  1  0  0  0  0
 30 32  1  0  0  0  0
 30 33  1  0  0  0  0
 31 30  1  0  0  0  0
 34 36  1  0  0  0  0
 34 35  1  0  0  0  0
 37 34  1  0  0  0  0
 38 41  1  0  0  0  0
 38  2  1  0  0  0  0
 39 38  1  0  0  0  0
 40 38  1  0  0  0  0
 42 45  1  0  0  0  0
 42 44  1  0  0  0  0
 43 42  1  0  0  0  0
 46  3  1  0  0  0  0
 46 48  1  0  0  0  0
 47 46  1  0  0  0  0
 49 46  1  0  0  0  0
 50 52  1  0  0  0  0
 50  3  1  0  0  0  0
 51 50  1  0  0  0  0
 53 50  1  0  0  0  0
M  END
