1
 OpenBabel05122313063D

 36 40  0  0  0  0  0  0  0  0999 V2000
   -1.4832    0.0421   -0.2811 P   0  0  0  0  0  0  0  0  0  0  0  0
   -7.0217   -0.0463    1.9915 O   0  0  0  0  0  0  0  0  0  0  0  0
   -3.3919    2.1500   -0.3077 N   0  0  0  0  0  0  0  0  0  0  0  0
   -3.1429   -0.1865    0.4774 C   0  0  0  0  0  0  0  0  0  0  0  0
   -3.6409   -1.3155    1.1338 C   0  0  0  0  0  0  0  0  0  0  0  0
   -3.0250   -2.2232    1.2033 H   0  0  0  0  0  0  0  0  0  0  0  0
   -4.9421   -1.3008    1.6634 C   0  0  0  0  0  0  0  0  0  0  0  0
   -5.3200   -2.1980    2.1703 H   0  0  0  0  0  0  0  0  0  0  0  0
   -5.7508   -0.1523    1.5240 C   0  0  0  0  0  0  0  0  0  0  0  0
   -5.2466    0.9924    0.8615 C   0  0  0  0  0  0  0  0  0  0  0  0
   -5.8720    1.8889    0.7574 H   0  0  0  0  0  0  0  0  0  0  0  0
   -3.9523    0.9708    0.3510 C   0  0  0  0  0  0  0  0  0  0  0  0
   -1.1537    1.6414    0.6134 C   0  0  0  0  0  0  0  0  0  0  0  0
   -0.0692    1.9813    1.4315 C   0  0  0  0  0  0  0  0  0  0  0  0
    0.7316    1.2608    1.6269 H   0  0  0  0  0  0  0  0  0  0  0  0
   -0.0095    3.2568    2.0185 C   0  0  0  0  0  0  0  0  0  0  0  0
    0.8520    3.5156    2.6520 H   0  0  0  0  0  0  0  0  0  0  0  0
   -1.0356    4.1879    1.8012 C   0  0  0  0  0  0  0  0  0  0  0  0
   -0.9801    5.1878    2.2576 H   0  0  0  0  0  0  0  0  0  0  0  0
   -2.1507    3.8382    1.0202 C   0  0  0  0  0  0  0  0  0  0  0  0
   -2.9895    4.5307    0.8598 H   0  0  0  0  0  0  0  0  0  0  0  0
   -2.2144    2.5666    0.4410 C   0  0  0  0  0  0  0  0  0  0  0  0
   -2.0583    0.7906   -1.8603 C   0  0  0  0  0  0  0  0  0  0  0  0
   -1.6634    0.4025   -3.1472 C   0  0  0  0  0  0  0  0  0  0  0  0
   -0.9540   -0.4297   -3.2732 H   0  0  0  0  0  0  0  0  0  0  0  0
   -2.2120    1.0737   -4.2539 C   0  0  0  0  0  0  0  0  0  0  0  0
   -1.9133    0.7794   -5.2711 H   0  0  0  0  0  0  0  0  0  0  0  0
   -3.1475    2.1055   -4.0683 C   0  0  0  0  0  0  0  0  0  0  0  0
   -3.5736    2.6205   -4.9426 H   0  0  0  0  0  0  0  0  0  0  0  0
   -3.5542    2.4810   -2.7755 C   0  0  0  0  0  0  0  0  0  0  0  0
   -4.2935    3.2771   -2.6066 H   0  0  0  0  0  0  0  0  0  0  0  0
   -3.0068    1.8181   -1.6718 C   0  0  0  0  0  0  0  0  0  0  0  0
   -7.5911   -1.1583    2.6586 C   0  0  0  0  0  0  0  0  0  0  0  0
   -8.6160   -0.8588    2.9453 H   0  0  0  0  0  0  0  0  0  0  0  0
   -7.0220   -1.4264    3.5767 H   0  0  0  0  0  0  0  0  0  0  0  0
   -7.6459   -2.0529    1.9990 H   0  0  0  0  0  0  0  0  0  0  0  0
  1  4  1  0  0  0  0
  1 13  1  0  0  0  0
  2 33  1  0  0  0  0
  3 12  1  0  0  0  0
  3 22  1  0  0  0  0
  4  5  1  0  0  0  0
  5  6  1  0  0  0  0
  5  7  2  0  0  0  0
  7  8  1  0  0  0  0
  9  7  1  0  0  0  0
  9  2  1  0  0  0  0
 10  9  2  0  0  0  0
 11 10  1  0  0  0  0
 12  4  2  0  0  0  0
 12 10  1  0  0  0  0
 13 14  1  0  0  0  0
 14 15  1  0  0  0  0
 14 16  2  0  0  0  0
 16 17  1  0  0  0  0
 18 16  1  0  0  0  0
 18 19  1  0  0  0  0
 20 18  2  0  0  0  0
 21 20  1  0  0  0  0
 22 13  2  0  0  0  0
 22 20  1  0  0  0  0
 23 32  1  0  0  0  0
 23  1  1  0  0  0  0
 24 23  2  0  0  0  0
 25 24  1  0  0  0  0
 26 28  2  0  0  0  0
 26 24  1  0  0  0  0
 27 26  1  0  0  0  0
 28 30  1  0  0  0  0
 29 28  1  0  0  0  0
 30 31  1  0  0  0  0
 30 32  2  0  0  0  0
 32  3  1  0  0  0  0
 33 34  1  0  0  0  0
 33 35  1  0  0  0  0
 36 33  1  0  0  0  0
M  END
