1
 OpenBabel05122313063D

 22 21  0  0  0  0  0  0  0  0999 V2000
   -1.6675    0.0009    0.8464 P   0  0  0  0  0  0  0  0  0  0  0  0
   -3.5240    0.0633    0.5268 C   0  0  0  0  0  0  0  0  0  0  0  0
   -4.0215   -0.1755    1.4937 H   0  0  0  0  0  0  0  0  0  0  0  0
   -3.9090    1.4848    0.0968 C   0  0  0  0  0  0  0  0  0  0  0  0
   -3.6789    2.2344    0.8812 H   0  0  0  0  0  0  0  0  0  0  0  0
   -4.9964    1.5423   -0.1189 H   0  0  0  0  0  0  0  0  0  0  0  0
   -3.3711    1.7798   -0.8279 H   0  0  0  0  0  0  0  0  0  0  0  0
   -3.9266   -0.9651   -0.5352 C   0  0  0  0  0  0  0  0  0  0  0  0
   -3.3815   -0.7701   -1.4811 H   0  0  0  0  0  0  0  0  0  0  0  0
   -5.0163   -0.9064   -0.7380 H   0  0  0  0  0  0  0  0  0  0  0  0
   -3.6930   -2.0043   -0.2320 H   0  0  0  0  0  0  0  0  0  0  0  0
   -1.4604   -1.2205    2.2677 C   0  0  0  0  0  0  0  0  0  0  0  0
   -2.2676   -0.9833    2.9965 H   0  0  0  0  0  0  0  0  0  0  0  0
   -1.6125   -2.6677    1.7935 C   0  0  0  0  0  0  0  0  0  0  0  0
   -0.8974   -2.8886    0.9742 H   0  0  0  0  0  0  0  0  0  0  0  0
   -2.6311   -2.8807    1.4143 H   0  0  0  0  0  0  0  0  0  0  0  0
   -1.4115   -3.3731    2.6268 H   0  0  0  0  0  0  0  0  0  0  0  0
   -1.5724    1.1958    1.6488 H   0  0  0  0  0  0  0  0  0  0  0  0
   -0.0991   -0.9848    2.9322 C   0  0  0  0  0  0  0  0  0  0  0  0
    0.7257   -1.1845    2.2188 H   0  0  0  0  0  0  0  0  0  0  0  0
    0.0297   -1.6592    3.8046 H   0  0  0  0  0  0  0  0  0  0  0  0
    0.0167    0.0590    3.2898 H   0  0  0  0  0  0  0  0  0  0  0  0
  1 18  1  0  0  0  0
  1 12  1  0  0  0  0
  2  1  1  0  0  0  0
  2  3  1  0  0  0  0
  4  2  1  0  0  0  0
  4  5  1  0  0  0  0
  6  4  1  0  0  0  0
  7  4  1  0  0  0  0
  8 11  1  0  0  0  0
  8  2  1  0  0  0  0
  9  8  1  0  0  0  0
 10  8  1  0  0  0  0
 12 19  1  0  0  0  0
 12 13  1  0  0  0  0
 14 12  1  0  0  0  0
 14 17  1  0  0  0  0
 15 14  1  0  0  0  0
 16 14  1  0  0  0  0
 19 22  1  0  0  0  0
 19 21  1  0  0  0  0
 20 19  1  0  0  0  0
M  END
