1
 OpenBabel05122313063D

 47 50  0  0  1  0  0  0  0  0999 V2000
   -0.7231    1.1200    0.4593 P   0  0  2  0  0  0  0  0  0  0  0  0
   -1.2234    1.7160    2.1021 C   0  0  0  0  0  0  0  0  0  0  0  0
   -2.2489    2.0238    2.3477 H   0  0  0  0  0  0  0  0  0  0  0  0
   -0.2257    1.5011    3.0135 C   0  0  0  0  0  0  0  0  0  0  0  0
   -0.3570    1.6805    4.4966 C   0  0  0  0  0  0  0  0  0  0  0  0
   -1.3612    2.0508    4.7746 H   0  0  0  0  0  0  0  0  0  0  0  0
    0.3988    2.3952    4.8860 H   0  0  0  0  0  0  0  0  0  0  0  0
   -0.1850    0.7203    5.0282 H   0  0  0  0  0  0  0  0  0  0  0  0
    1.0401    1.0224    2.4024 C   0  0  0  0  0  0  0  0  0  0  0  0
    2.2787    0.6749    3.1848 C   0  0  0  0  0  0  0  0  0  0  0  0
    2.0601   -0.2345    3.7914 H   0  0  0  0  0  0  0  0  0  0  0  0
    2.5083    1.4689    3.9275 H   0  0  0  0  0  0  0  0  0  0  0  0
    3.4935    0.4273    2.2745 C   0  0  0  0  0  0  0  0  0  0  0  0
    4.2928   -0.0968    2.8361 H   0  0  0  0  0  0  0  0  0  0  0  0
    3.9194    1.4085    1.9712 H   0  0  0  0  0  0  0  0  0  0  0  0
    3.1296   -0.3797    1.0134 C   0  0  1  0  0  0  0  0  0  0  0  0
    2.5650   -1.2839    1.3235 H   0  0  0  0  0  0  0  0  0  0  0  0
    2.1315    0.4664    0.1707 C   0  0  2  0  0  0  0  0  0  0  0  0
    2.6629    1.3970   -0.1546 H   0  0  0  0  0  0  0  0  0  0  0  0
    4.3068   -0.8369    0.1810 C   0  0  0  0  0  0  0  0  0  0  0  0
    0.9789    0.8599    1.0461 C   0  0  0  0  0  0  0  0  0  0  0  0
    5.4400   -0.0251   -0.0300 C   0  0  0  0  0  0  0  0  0  0  0  0
    5.5149    0.9551    0.4657 H   0  0  0  0  0  0  0  0  0  0  0  0
    6.4789   -0.4474   -0.8739 C   0  0  0  0  0  0  0  0  0  0  0  0
    7.3568    0.1993   -1.0255 H   0  0  0  0  0  0  0  0  0  0  0  0
    6.4001   -1.6892   -1.5237 C   0  0  0  0  0  0  0  0  0  0  0  0
    7.2142   -2.0198   -2.1865 H   0  0  0  0  0  0  0  0  0  0  0  0
    5.2780   -2.5082   -1.3183 C   0  0  0  0  0  0  0  0  0  0  0  0
    5.2084   -3.4849   -1.8213 H   0  0  0  0  0  0  0  0  0  0  0  0
    4.2429   -2.0854   -0.4722 C   0  0  0  0  0  0  0  0  0  0  0  0
    3.3565   -2.7203   -0.3198 H   0  0  0  0  0  0  0  0  0  0  0  0
    2.2403    0.1955   -2.2032 C   0  0  0  0  0  0  0  0  0  0  0  0
    2.0993    1.2877   -2.3810 H   0  0  0  0  0  0  0  0  0  0  0  0
    1.7225   -0.3601   -3.0070 H   0  0  0  0  0  0  0  0  0  0  0  0
    3.3266   -0.0399   -2.2405 H   0  0  0  0  0  0  0  0  0  0  0  0
   -0.6010    2.5689   -0.6685 C   0  0  0  0  0  0  0  0  0  0  0  0
    0.1525    3.6925   -0.2674 C   0  0  0  0  0  0  0  0  0  0  0  0
    0.6322    3.6987    0.7242 H   0  0  0  0  0  0  0  0  0  0  0  0
    0.2856    4.7899   -1.1275 C   0  0  0  0  0  0  0  0  0  0  0  0
    0.8735    5.6651   -0.8113 H   0  0  0  0  0  0  0  0  0  0  0  0
   -0.3297    4.7732   -2.3921 C   0  0  0  0  0  0  0  0  0  0  0  0
   -0.2220    5.6355   -3.0675 H   0  0  0  0  0  0  0  0  0  0  0  0
   -1.0802    3.6579   -2.7915 C   0  0  0  0  0  0  0  0  0  0  0  0
   -1.5641    3.6407   -3.7796 H   0  0  0  0  0  0  0  0  0  0  0  0
   -1.2176    2.5555   -1.9319 C   0  0  0  0  0  0  0  0  0  0  0  0
   -1.8028    1.6792   -2.2447 H   0  0  0  0  0  0  0  0  0  0  0  0
    1.6445   -0.2062   -0.9801 O   0  0  0  0  0  0  0  0  0  0  0  0
  1 36  1  6  0  0  0
  1 21  1  0  0  0  0
  1  2  1  0  0  0  0
  2  3  1  0  0  0  0
  2  4  2  0  0  0  0
  4  5  1  0  0  0  0
  5  6  1  0  0  0  0
  5  7  1  0  0  0  0
  5  8  1  0  0  0  0
  9  4  1  0  0  0  0
  9 10  1  0  0  0  0
 10 11  1  0  0  0  0
 10 12  1  0  0  0  0
 13 14  1  0  0  0  0
 13 10  1  0  0  0  0
 15 13  1  0  0  0  0
 16 17  1  1  0  0  0
 16 13  1  0  0  0  0
 18 19  1  6  0  0  0
 18 16  1  0  0  0  0
 18 21  1  0  0  0  0
 20 16  1  0  0  0  0
 21  9  2  0  0  0  0
 22 20  1  0  0  0  0
 22 23  1  0  0  0  0
 24 22  2  0  0  0  0
 25 24  1  0  0  0  0
 26 28  2  0  0  0  0
 26 24  1  0  0  0  0
 27 26  1  0  0  0  0
 28 30  1  0  0  0  0
 29 28  1  0  0  0  0
 30 31  1  0  0  0  0
 30 20  2  0  0  0  0
 32 47  1  0  0  0  0
 33 32  1  0  0  0  0
 34 32  1  0  0  0  0
 35 32  1  0  0  0  0
 36 37  1  0  0  0  0
 37 38  1  0  0  0  0
 39 40  1  0  0  0  0
 39 37  2  0  0  0  0
 41 39  1  0  0  0  0
 42 41  1  0  0  0  0
 43 41  2  0  0  0  0
 43 45  1  0  0  0  0
 44 43  1  0  0  0  0
 45 36  2  0  0  0  0
 46 45  1  0  0  0  0
 47 18  1  0  0  0  0
M  END
