1
 OpenBabel05122313063D

 51 51  0  0  1  0  0  0  0  0999 V2000
    0.4125   -0.1554   -0.7802 P   0  0  0  0  0  2  0  0  0  0  0  0
    1.4469    1.4398    0.3146 P   0  0  0  0  0  4  0  0  0  0  0  0
    1.4679   -1.7496   -0.3560 C   0  0  2  0  0  0  0  0  0  0  0  0
    1.9660   -1.7785    1.0727 C   0  0  0  0  0  0  0  0  0  0  0  0
    3.3393   -1.7176    1.0563 C   0  0  0  0  0  0  0  0  0  0  0  0
    3.8143   -1.6841   -0.3447 C   0  0  0  0  0  0  0  0  0  0  0  0
    2.7350   -1.7107   -1.1901 C   0  0  0  0  0  0  0  0  0  0  0  0
    0.5944   -2.9617   -0.7235 C   0  0  0  0  0  0  0  0  0  0  0  0
    1.0570   -1.9317    2.2459 C   0  0  0  0  0  0  0  0  0  0  0  0
    4.2730   -1.6935    2.2288 C   0  0  0  0  0  0  0  0  0  0  0  0
    5.2662   -1.6293   -0.7108 C   0  0  0  0  0  0  0  0  0  0  0  0
    2.7083   -1.7760   -2.6815 C   0  0  0  0  0  0  0  0  0  0  0  0
    1.5983    1.3680    2.1448 C   0  0  0  0  0  0  0  0  0  0  0  0
    3.2194    1.6351   -0.2563 C   0  0  0  0  0  0  0  0  0  0  0  0
    3.3838    1.6061   -1.7798 C   0  0  0  0  0  0  0  0  0  0  0  0
    3.9522    2.8240    0.3780 C   0  0  0  0  0  0  0  0  0  0  0  0
    0.4235    2.9595   -0.0620 C   0  0  0  0  0  0  0  0  0  0  0  0
    0.5692    3.4112   -1.5199 C   0  0  0  0  0  0  0  0  0  0  0  0
    0.5982    4.1062    0.9402 C   0  0  0  0  0  0  0  0  0  0  0  0
    1.1929   -3.8877   -0.5979 H   0  0  0  0  0  0  0  0  0  0  0  0
    0.2492   -2.9134   -1.7754 H   0  0  0  0  0  0  0  0  0  0  0  0
   -0.2996   -3.0329   -0.0774 H   0  0  0  0  0  0  0  0  0  0  0  0
    0.5525   -2.9220    2.2457 H   0  0  0  0  0  0  0  0  0  0  0  0
    0.2402   -1.1806    2.2236 H   0  0  0  0  0  0  0  0  0  0  0  0
    1.5964   -1.8360    3.2081 H   0  0  0  0  0  0  0  0  0  0  0  0
    3.7335   -1.7382    3.1943 H   0  0  0  0  0  0  0  0  0  0  0  0
    4.9015   -0.7753    2.2357 H   0  0  0  0  0  0  0  0  0  0  0  0
    4.9818   -2.5489    2.2044 H   0  0  0  0  0  0  0  0  0  0  0  0
    5.8200   -2.5130   -0.3272 H   0  0  0  0  0  0  0  0  0  0  0  0
    5.7668   -0.7386   -0.2698 H   0  0  0  0  0  0  0  0  0  0  0  0
    5.4171   -1.5911   -1.8065 H   0  0  0  0  0  0  0  0  0  0  0  0
    3.6855   -1.5134   -3.1310 H   0  0  0  0  0  0  0  0  0  0  0  0
    1.9368   -1.0883   -3.0923 H   0  0  0  0  0  0  0  0  0  0  0  0
    2.4416   -2.7946   -3.0413 H   0  0  0  0  0  0  0  0  0  0  0  0
    2.2555    0.5184    2.4012 H   0  0  0  0  0  0  0  0  0  0  0  0
    0.6025    1.2196    2.5968 H   0  0  0  0  0  0  0  0  0  0  0  0
    2.0344    2.3090    2.5295 H   0  0  0  0  0  0  0  0  0  0  0  0
    3.6464    0.6909    0.1462 H   0  0  0  0  0  0  0  0  0  0  0  0
    3.1996    2.6009   -2.2292 H   0  0  0  0  0  0  0  0  0  0  0  0
    2.6941    0.8828   -2.2526 H   0  0  0  0  0  0  0  0  0  0  0  0
    4.4220    1.3092   -2.0324 H   0  0  0  0  0  0  0  0  0  0  0  0
    5.0247    2.7805    0.0967 H   0  0  0  0  0  0  0  0  0  0  0  0
    3.9044    2.8278    1.4840 H   0  0  0  0  0  0  0  0  0  0  0  0
    3.5596    3.7928    0.0089 H   0  0  0  0  0  0  0  0  0  0  0  0
   -0.6025    2.5547    0.0661 H   0  0  0  0  0  0  0  0  0  0  0  0
   -0.2528    4.1120   -1.7683 H   0  0  0  0  0  0  0  0  0  0  0  0
    0.5042    2.5588   -2.2235 H   0  0  0  0  0  0  0  0  0  0  0  0
    1.5287    3.9389   -1.6904 H   0  0  0  0  0  0  0  0  0  0  0  0
    1.6321    4.5047    0.9586 H   0  0  0  0  0  0  0  0  0  0  0  0
    0.3135    3.8113    1.9680 H   0  0  0  0  0  0  0  0  0  0  0  0
   -0.0711    4.9400    0.6447 H   0  0  0  0  0  0  0  0  0  0  0  0
  1  2  1  0  0  0  0
  2 13  1  0  0  0  0
  3  1  1  6  0  0  0
  3  4  1  0  0  0  0
  4  9  1  0  0  0  0
  5  4  2  0  0  0  0
  5 10  1  0  0  0  0
  6  5  1  0  0  0  0
  7  3  1  0  0  0  0
  7  6  2  0  0  0  0
  8 20  1  0  0  0  0
  8  3  1  0  0  0  0
  8 22  1  0  0  0  0
  9 25  1  0  0  0  0
 10 27  1  0  0  0  0
 10 26  1  0  0  0  0
 11  6  1  0  0  0  0
 11 29  1  0  0  0  0
 11 30  1  0  0  0  0
 12  7  1  0  0  0  0
 13 35  1  0  0  0  0
 13 37  1  0  0  0  0
 13 36  1  0  0  0  0
 14 38  1  0  0  0  0
 14  2  1  0  0  0  0
 14 16  1  0  0  0  0
 15 14  1  0  0  0  0
 16 43  1  0  0  0  0
 17 45  1  0  0  0  0
 17  2  1  0  0  0  0
 17 19  1  0  0  0  0
 18 17  1  0  0  0  0
 19 49  1  0  0  0  0
 19 50  1  0  0  0  0
 21  8  1  0  0  0  0
 23  9  1  0  0  0  0
 24  9  1  0  0  0  0
 28 10  1  0  0  0  0
 31 11  1  0  0  0  0
 32 12  1  0  0  0  0
 33 12  1  0  0  0  0
 34 12  1  0  0  0  0
 39 15  1  0  0  0  0
 40 15  1  0  0  0  0
 41 15  1  0  0  0  0
 42 16  1  0  0  0  0
 44 16  1  0  0  0  0
 46 18  1  0  0  0  0
 47 18  1  0  0  0  0
 48 18  1  0  0  0  0
 51 19  1  0  0  0  0
M  END
