1
 OpenBabel05122313063D

 11 10  0  0  0  0  0  0  0  0999 V2000
    1.5790    0.0816    1.9539 P   0  0  0  0  0  2  0  0  0  0  0  0
    1.6112    1.5233    2.0546 H   0  0  0  0  0  0  0  0  0  0  0  0
    6.1318    0.1109    1.1046 P   0  0  0  0  0  0  0  0  0  0  0  0
    5.9451   -1.2901    0.8082 H   0  0  0  0  0  0  0  0  0  0  0  0
    5.7920    0.4958   -0.2453 H   0  0  0  0  0  0  0  0  0  0  0  0
    3.2401   -0.1509    1.0593 C   0  0  0  0  0  0  0  0  0  0  0  0
    3.3614   -1.2473    0.9332 H   0  0  0  0  0  0  0  0  0  0  0  0
    3.2342    0.2787    0.0362 H   0  0  0  0  0  0  0  0  0  0  0  0
    4.4267    0.4040    1.8451 C   0  0  0  0  0  0  0  0  0  0  0  0
    4.4458   -0.0128    2.8751 H   0  0  0  0  0  0  0  0  0  0  0  0
    4.3326    1.5047    1.9723 H   0  0  0  0  0  0  0  0  0  0  0  0
  1  2  1  0  0  0  0
  3  9  1  0  0  0  0
  4  3  1  0  0  0  0
  5  3  1  0  0  0  0
  6  9  1  0  0  0  0
  6  1  1  0  0  0  0
  7  6  1  0  0  0  0
  8  6  1  0  0  0  0
  9 11  1  0  0  0  0
  9 10  1  0  0  0  0
M  END
