1
 OpenBabel05122313063D

 34 36  0  0  0  0  0  0  0  0999 V2000
   -1.7065   -0.4006    0.2936 P   0  0  0  0  0  0  0  0  0  0  0  0
   -3.9938    1.5274   -3.7914 O   0  0  0  0  0  0  0  0  0  0  0  0
   -3.1363    0.6404   -1.8439 N   0  0  0  0  0  0  0  0  0  0  0  0
   -4.2100    0.9628   -2.7223 C   0  0  0  0  0  0  0  0  0  0  0  0
   -5.5117    0.5452   -2.2062 C   0  0  0  0  0  0  0  0  0  0  0  0
   -5.6427   -0.0871   -0.9913 C   0  0  0  0  0  0  0  0  0  0  0  0
   -4.5054   -0.3675   -0.1751 C   0  0  0  0  0  0  0  0  0  0  0  0
   -3.2582    0.0169   -0.6390 C   0  0  0  0  0  0  0  0  0  0  0  0
   -2.3952   -0.7557    1.9640 C   0  0  0  0  0  0  0  0  0  0  0  0
   -2.7412    0.3517    2.7681 C   0  0  0  0  0  0  0  0  0  0  0  0
   -3.3064    0.1457    4.0333 C   0  0  0  0  0  0  0  0  0  0  0  0
   -3.5275   -1.1583    4.5070 C   0  0  0  0  0  0  0  0  0  0  0  0
   -3.1891   -2.2596    3.7064 C   0  0  0  0  0  0  0  0  0  0  0  0
   -2.6284   -2.0626    2.4341 C   0  0  0  0  0  0  0  0  0  0  0  0
   -1.2561   -2.0507   -0.3836 C   0  0  0  0  0  0  0  0  0  0  0  0
   -1.8424   -2.5707   -1.5530 C   0  0  0  0  0  0  0  0  0  0  0  0
   -1.4025   -3.8004   -2.0702 C   0  0  0  0  0  0  0  0  0  0  0  0
   -0.3933   -4.5239   -1.4175 C   0  0  0  0  0  0  0  0  0  0  0  0
    0.1835   -4.0132   -0.2426 C   0  0  0  0  0  0  0  0  0  0  0  0
   -0.2347   -2.7766    0.2661 C   0  0  0  0  0  0  0  0  0  0  0  0
   -6.3776    0.7727   -2.8436 H   0  0  0  0  0  0  0  0  0  0  0  0
   -6.6413   -0.3843   -0.6320 H   0  0  0  0  0  0  0  0  0  0  0  0
   -4.6102   -0.8704    0.7929 H   0  0  0  0  0  0  0  0  0  0  0  0
   -2.5699    1.3740    2.3928 H   0  0  0  0  0  0  0  0  0  0  0  0
   -3.5731    1.0133    4.6553 H   0  0  0  0  0  0  0  0  0  0  0  0
   -3.9666   -1.3161    5.5038 H   0  0  0  0  0  0  0  0  0  0  0  0
   -3.3654   -3.2833    4.0700 H   0  0  0  0  0  0  0  0  0  0  0  0
   -2.3794   -2.9300    1.8060 H   0  0  0  0  0  0  0  0  0  0  0  0
   -2.6346   -2.0102   -2.0701 H   0  0  0  0  0  0  0  0  0  0  0  0
   -1.8572   -4.1943   -2.9918 H   0  0  0  0  0  0  0  0  0  0  0  0
   -0.0528   -5.4876   -1.8249 H   0  0  0  0  0  0  0  0  0  0  0  0
    0.9700   -4.5808    0.2780 H   0  0  0  0  0  0  0  0  0  0  0  0
    0.2299   -2.3705    1.1786 H   0  0  0  0  0  0  0  0  0  0  0  0
   -2.1908    0.9661   -2.1507 H   0  0  0  0  0  0  0  0  0  0  0  0
  1  9  1  0  0  0  0
  2  4  2  0  0  0  0
  3  8  1  0  0  0  0
  4  5  1  0  0  0  0
  4  3  1  0  0  0  0
  5  6  2  0  0  0  0
  6 22  1  0  0  0  0
  6  7  1  0  0  0  0
  7 23  1  0  0  0  0
  8  7  2  0  0  0  0
  8  1  1  0  0  0  0
  9 14  2  0  0  0  0
  9 10  1  0  0  0  0
 10 11  2  0  0  0  0
 11 12  1  0  0  0  0
 11 25  1  0  0  0  0
 12 26  1  0  0  0  0
 13 27  1  0  0  0  0
 13 12  2  0  0  0  0
 14 13  1  0  0  0  0
 15 20  1  0  0  0  0
 15  1  1  0  0  0  0
 16 15  2  0  0  0  0
 17 16  1  0  0  0  0
 17 18  2  0  0  0  0
 18 19  1  0  0  0  0
 19 20  2  0  0  0  0
 19 32  1  0  0  0  0
 20 33  1  0  0  0  0
 21  5  1  0  0  0  0
 24 10  1  0  0  0  0
 28 14  1  0  0  0  0
 29 16  1  0  0  0  0
 30 17  1  0  0  0  0
 31 18  1  0  0  0  0
 34  3  1  0  0  0  0
M  END
