1
 OpenBabel05122313063D

 59 63  0  0  1  0  0  0  0  0999 V2000
    0.3031    1.3206   -0.2162 P   0  0  0  0  0  0  0  0  0  0  0  0
   -0.2284   -0.0293    3.6287 O   0  0  0  0  0  0  0  0  0  0  0  0
    2.2388   -2.2501    2.1114 O   0  0  0  0  0  0  0  0  0  0  0  0
    2.4957   -0.1009    1.1857 O   0  0  0  0  0  0  0  0  0  0  0  0
   -1.9188    0.7092    2.1650 O   0  0  0  0  0  0  0  0  0  0  0  0
    0.5284    2.8003    3.6626 O   0  0  0  0  0  0  0  0  0  0  0  0
   -0.9959    1.0644    3.1568 C   0  0  2  0  0  0  0  0  0  0  0  0
   -0.1365    2.1964    2.5608 C   0  0  2  0  0  0  0  0  0  0  0  0
    0.9123    1.6893    1.5323 C   0  0  1  0  0  0  0  0  0  0  0  0
    1.6189    0.4736    2.1396 C   0  0  1  0  0  0  0  0  0  0  0  0
    0.6072   -0.5751    2.6165 C   0  0  1  0  0  0  0  0  0  0  0  0
    1.3759   -1.7807    3.1426 C   0  0  0  0  0  0  0  0  0  0  0  0
    3.1498   -1.2725    1.6803 C   0  0  2  0  0  0  0  0  0  0  0  0
   -2.8749   -0.2638    2.5754 C   0  0  0  0  0  0  0  0  0  0  0  0
    3.9844   -1.8087    0.5414 C   0  0  0  0  0  0  0  0  0  0  0  0
    3.4996   -2.8458   -0.2742 C   0  0  0  0  0  0  0  0  0  0  0  0
    4.2490   -3.2754   -1.3799 C   0  0  0  0  0  0  0  0  0  0  0  0
    5.4817   -2.6706   -1.6760 C   0  0  0  0  0  0  0  0  0  0  0  0
    5.9645   -1.6318   -0.8632 C   0  0  0  0  0  0  0  0  0  0  0  0
    5.2162   -1.2023    0.2420 C   0  0  0  0  0  0  0  0  0  0  0  0
   -0.6796    2.8083   -0.6704 C   0  0  0  0  0  0  0  0  0  0  0  0
   -1.7493    2.6383   -1.5732 C   0  0  0  0  0  0  0  0  0  0  0  0
   -2.5103    3.7402   -1.9903 C   0  0  0  0  0  0  0  0  0  0  0  0
   -2.2155    5.0240   -1.5063 C   0  0  0  0  0  0  0  0  0  0  0  0
   -1.1532    5.2037   -0.6061 C   0  0  0  0  0  0  0  0  0  0  0  0
   -0.3879    4.1038   -0.1913 C   0  0  0  0  0  0  0  0  0  0  0  0
    1.8255    1.4503   -1.2429 C   0  0  0  0  0  0  0  0  0  0  0  0
    2.2860    0.2898   -1.8949 C   0  0  0  0  0  0  0  0  0  0  0  0
    3.4650    0.3269   -2.6511 C   0  0  0  0  0  0  0  0  0  0  0  0
    4.1881    1.5241   -2.7681 C   0  0  0  0  0  0  0  0  0  0  0  0
    3.7254    2.6876   -2.1324 C   0  0  0  0  0  0  0  0  0  0  0  0
    2.5470    2.6528   -1.3720 C   0  0  0  0  0  0  0  0  0  0  0  0
   -1.5049    1.4518    4.0700 H   0  0  0  0  0  0  0  0  0  0  0  0
   -0.8475    2.8987    2.0735 H   0  0  0  0  0  0  0  0  0  0  0  0
    1.6623    2.4989    1.3868 H   0  0  0  0  0  0  0  0  0  0  0  0
    2.1818    0.8244    3.0405 H   0  0  0  0  0  0  0  0  0  0  0  0
    0.0027   -0.9098    1.7385 H   0  0  0  0  0  0  0  0  0  0  0  0
    0.6945   -2.6122    3.4055 H   0  0  0  0  0  0  0  0  0  0  0  0
    1.9575   -1.4932    4.0532 H   0  0  0  0  0  0  0  0  0  0  0  0
    3.7917   -0.9567    2.5473 H   0  0  0  0  0  0  0  0  0  0  0  0
    0.9543    3.6138    3.3380 H   0  0  0  0  0  0  0  0  0  0  0  0
   -3.4539    0.0985    3.4559 H   0  0  0  0  0  0  0  0  0  0  0  0
   -3.5572   -0.4271    1.7216 H   0  0  0  0  0  0  0  0  0  0  0  0
   -2.3914   -1.2278    2.8377 H   0  0  0  0  0  0  0  0  0  0  0  0
    2.5334   -3.3089   -0.0288 H   0  0  0  0  0  0  0  0  0  0  0  0
    3.8670   -4.0894   -2.0145 H   0  0  0  0  0  0  0  0  0  0  0  0
    6.0697   -3.0116   -2.5420 H   0  0  0  0  0  0  0  0  0  0  0  0
    6.9291   -1.1538   -1.0919 H   0  0  0  0  0  0  0  0  0  0  0  0
    5.5860   -0.3807    0.8752 H   0  0  0  0  0  0  0  0  0  0  0  0
   -1.9806    1.6279   -1.9474 H   0  0  0  0  0  0  0  0  0  0  0  0
   -3.3420    3.5911   -2.6951 H   0  0  0  0  0  0  0  0  0  0  0  0
   -2.8159    5.8880   -1.8289 H   0  0  0  0  0  0  0  0  0  0  0  0
   -0.9178    6.2082   -0.2228 H   0  0  0  0  0  0  0  0  0  0  0  0
    0.4413    4.2671    0.5139 H   0  0  0  0  0  0  0  0  0  0  0  0
    1.7220   -0.6501   -1.7905 H   0  0  0  0  0  0  0  0  0  0  0  0
    3.8257   -0.5918   -3.1359 H   0  0  0  0  0  0  0  0  0  0  0  0
    5.1161    1.5519   -3.3591 H   0  0  0  0  0  0  0  0  0  0  0  0
    4.2835    3.6312   -2.2307 H   0  0  0  0  0  0  0  0  0  0  0  0
    2.1882    3.5755   -0.8912 H   0  0  0  0  0  0  0  0  0  0  0  0
  1  9  1  0  0  0  0
  3 12  1  0  0  0  0
  4 13  1  0  0  0  0
  4 10  1  0  0  0  0
  5 14  1  0  0  0  0
  5  7  1  0  0  0  0
  7  2  1  0  0  0  0
  7 33  1  1  0  0  0
  8 34  1  6  0  0  0
  8  7  1  0  0  0  0
  8  6  1  0  0  0  0
  9 35  1  6  0  0  0
  9 10  1  0  0  0  0
  9  8  1  0  0  0  0
 10 11  1  0  0  0  0
 10 36  1  1  0  0  0
 11 37  1  6  0  0  0
 11 12  1  0  0  0  0
 11  2  1  0  0  0  0
 12 38  1  0  0  0  0
 12 39  1  0  0  0  0
 13  3  1  0  0  0  0
 13 40  1  1  0  0  0
 14 44  1  0  0  0  0
 14 42  1  0  0  0  0
 15 13  1  0  0  0  0
 16 45  1  0  0  0  0
 16 15  2  0  0  0  0
 17 16  1  0  0  0  0
 18 17  2  0  0  0  0
 18 19  1  0  0  0  0
 19 20  2  0  0  0  0
 20 15  1  0  0  0  0
 20 49  1  0  0  0  0
 21  1  1  0  0  0  0
 21 26  1  0  0  0  0
 22 21  2  0  0  0  0
 23 22  1  0  0  0  0
 23 24  2  0  0  0  0
 24 25  1  0  0  0  0
 25 53  1  0  0  0  0
 25 26  2  0  0  0  0
 26 54  1  0  0  0  0
 27  1  1  0  0  0  0
 28 55  1  0  0  0  0
 28 27  2  0  0  0  0
 29 28  1  0  0  0  0
 30 29  2  0  0  0  0
 30 31  1  0  0  0  0
 31 32  2  0  0  0  0
 32 27  1  0  0  0  0
 32 59  1  0  0  0  0
 41  6  1  0  0  0  0
 43 14  1  0  0  0  0
 46 17  1  0  0  0  0
 47 18  1  0  0  0  0
 48 19  1  0  0  0  0
 50 22  1  0  0  0  0
 51 23  1  0  0  0  0
 52 24  1  0  0  0  0
 56 29  1  0  0  0  0
 57 30  1  0  0  0  0
 58 31  1  0  0  0  0
M  END
