1
 OpenBabel05122313063D

 59 63  0  0  1  0  0  0  0  0999 V2000
    1.7796    0.4320    0.0913 P   0  0  0  0  0  0  0  0  0  0  0  0
    0.5022   -1.5922    3.3194 O   0  0  0  0  0  0  0  0  0  0  0  0
   -0.9350    0.7651    3.1658 O   0  0  0  0  0  0  0  0  0  0  0  0
   -2.8057    0.4256    0.9816 O   0  0  0  0  0  0  0  0  0  0  0  0
   -0.1374   -2.0890    1.1132 O   0  0  0  0  0  0  0  0  0  0  0  0
   -3.6736   -1.6562    0.3182 O   0  0  0  0  0  0  0  0  0  0  0  0
    0.8002   -1.4381    1.9373 C   0  0  1  0  0  0  0  0  0  0  0  0
    0.8785    0.0861    1.6933 C   0  0  2  0  0  0  0  0  0  0  0  0
   -0.5327    0.7295    1.8154 C   0  0  1  0  0  0  0  0  0  0  0  0
   -1.4772   -0.0529    0.8976 C   0  0  1  0  0  0  0  0  0  0  0  0
   -1.4617   -1.5516    1.2130 C   0  0  1  0  0  0  0  0  0  0  0  0
   -2.3859   -2.2559    0.2204 C   0  0  0  0  0  0  0  0  0  0  0  0
   -3.6283   -0.2672    0.0516 C   0  0  1  0  0  0  0  0  0  0  0  0
    0.5189   -2.9459    3.7616 C   0  0  0  0  0  0  0  0  0  0  0  0
   -5.0294    0.2961    0.1048 C   0  0  0  0  0  0  0  0  0  0  0  0
   -5.2494    1.6183    0.5305 C   0  0  0  0  0  0  0  0  0  0  0  0
   -6.5485    2.1476    0.5383 C   0  0  0  0  0  0  0  0  0  0  0  0
   -7.6345    1.3616    0.1218 C   0  0  0  0  0  0  0  0  0  0  0  0
   -7.4162    0.0402   -0.2997 C   0  0  0  0  0  0  0  0  0  0  0  0
   -6.1189   -0.4923   -0.3082 C   0  0  0  0  0  0  0  0  0  0  0  0
    3.4767   -0.1778    0.4505 C   0  0  0  0  0  0  0  0  0  0  0  0
    3.9161   -1.3637   -0.1723 C   0  0  0  0  0  0  0  0  0  0  0  0
    5.1876   -1.8807    0.1201 C   0  0  0  0  0  0  0  0  0  0  0  0
    6.0266   -1.2143    1.0263 C   0  0  0  0  0  0  0  0  0  0  0  0
    5.5949   -0.0270    1.6414 C   0  0  0  0  0  0  0  0  0  0  0  0
    4.3243    0.4923    1.3564 C   0  0  0  0  0  0  0  0  0  0  0  0
    1.9144    2.2585    0.0282 C   0  0  0  0  0  0  0  0  0  0  0  0
    1.9046    3.0692    1.1837 C   0  0  0  0  0  0  0  0  0  0  0  0
    2.0473    4.4599    1.0663 C   0  0  0  0  0  0  0  0  0  0  0  0
    2.2028    5.0498   -0.1980 C   0  0  0  0  0  0  0  0  0  0  0  0
    2.2069    4.2478   -1.3502 C   0  0  0  0  0  0  0  0  0  0  0  0
    2.0574    2.8582   -1.2403 C   0  0  0  0  0  0  0  0  0  0  0  0
    1.7681   -1.9406    1.7073 H   0  0  0  0  0  0  0  0  0  0  0  0
    1.5137    0.5082    2.5001 H   0  0  0  0  0  0  0  0  0  0  0  0
   -0.5108    1.7838    1.4660 H   0  0  0  0  0  0  0  0  0  0  0  0
   -1.0991    0.0663   -0.1529 H   0  0  0  0  0  0  0  0  0  0  0  0
   -1.8661   -1.6907    2.2414 H   0  0  0  0  0  0  0  0  0  0  0  0
   -2.5019   -3.3307    0.4605 H   0  0  0  0  0  0  0  0  0  0  0  0
   -1.9683   -2.1625   -0.8119 H   0  0  0  0  0  0  0  0  0  0  0  0
   -3.1814   -0.1238   -0.9714 H   0  0  0  0  0  0  0  0  0  0  0  0
   -0.6880   -0.1049    3.5507 H   0  0  0  0  0  0  0  0  0  0  0  0
   -0.2217   -3.5648    3.2124 H   0  0  0  0  0  0  0  0  0  0  0  0
    1.5287   -3.3937    3.6204 H   0  0  0  0  0  0  0  0  0  0  0  0
    0.2715   -2.9381    4.8390 H   0  0  0  0  0  0  0  0  0  0  0  0
   -4.3931    2.2197    0.8659 H   0  0  0  0  0  0  0  0  0  0  0  0
   -6.7140    3.1820    0.8767 H   0  0  0  0  0  0  0  0  0  0  0  0
   -8.6533    1.7786    0.1281 H   0  0  0  0  0  0  0  0  0  0  0  0
   -8.2643   -0.5833   -0.6220 H   0  0  0  0  0  0  0  0  0  0  0  0
   -5.9379   -1.5291   -0.6251 H   0  0  0  0  0  0  0  0  0  0  0  0
    3.2549   -1.8726   -0.8926 H   0  0  0  0  0  0  0  0  0  0  0  0
    5.5252   -2.8059   -0.3705 H   0  0  0  0  0  0  0  0  0  0  0  0
    7.0260   -1.6170    1.2502 H   0  0  0  0  0  0  0  0  0  0  0  0
    6.2553    0.5025    2.3446 H   0  0  0  0  0  0  0  0  0  0  0  0
    3.9994    1.4317    1.8295 H   0  0  0  0  0  0  0  0  0  0  0  0
    1.7686    2.6275    2.1822 H   0  0  0  0  0  0  0  0  0  0  0  0
    2.0297    5.0861    1.9709 H   0  0  0  0  0  0  0  0  0  0  0  0
    2.3109    6.1414   -0.2857 H   0  0  0  0  0  0  0  0  0  0  0  0
    2.3164    4.7067   -2.3441 H   0  0  0  0  0  0  0  0  0  0  0  0
    2.0381    2.2259   -2.1424 H   0  0  0  0  0  0  0  0  0  0  0  0
  1 21  1  0  0  0  0
  1  8  1  0  0  0  0
  2 14  1  0  0  0  0
  3 41  1  0  0  0  0
  5 11  1  0  0  0  0
  5  7  1  0  0  0  0
  7 33  1  6  0  0  0
  7  2  1  0  0  0  0
  8  9  1  0  0  0  0
  8  7  1  0  0  0  0
  8 34  1  1  0  0  0
  9 35  1  6  0  0  0
  9  3  1  0  0  0  0
 10 36  1  6  0  0  0
 10  4  1  0  0  0  0
 10 11  1  0  0  0  0
 10  9  1  0  0  0  0
 11 37  1  1  0  0  0
 12  6  1  0  0  0  0
 12 38  1  0  0  0  0
 12 11  1  0  0  0  0
 13 40  1  6  0  0  0
 13 15  1  0  0  0  0
 13  6  1  0  0  0  0
 13  4  1  0  0  0  0
 14 44  1  0  0  0  0
 15 16  1  0  0  0  0
 16 17  2  0  0  0  0
 16 45  1  0  0  0  0
 17 46  1  0  0  0  0
 18 47  1  0  0  0  0
 18 17  1  0  0  0  0
 19 18  2  0  0  0  0
 20 19  1  0  0  0  0
 20 15  2  0  0  0  0
 21 26  1  0  0  0  0
 22 23  1  0  0  0  0
 22 21  2  0  0  0  0
 23 24  2  0  0  0  0
 24 52  1  0  0  0  0
 24 25  1  0  0  0  0
 25 53  1  0  0  0  0
 26 25  2  0  0  0  0
 26 54  1  0  0  0  0
 27  1  1  0  0  0  0
 27 28  1  0  0  0  0
 28 55  1  0  0  0  0
 29 28  2  0  0  0  0
 29 56  1  0  0  0  0
 30 29  1  0  0  0  0
 31 32  1  0  0  0  0
 31 30  2  0  0  0  0
 32 27  2  0  0  0  0
 39 12  1  0  0  0  0
 42 14  1  0  0  0  0
 43 14  1  0  0  0  0
 48 19  1  0  0  0  0
 49 20  1  0  0  0  0
 50 22  1  0  0  0  0
 51 23  1  0  0  0  0
 57 30  1  0  0  0  0
 58 31  1  0  0  0  0
 59 32  1  0  0  0  0
M  END
