1
 OpenBabel05122313063D

 35 37  0  0  1  0  0  0  0  0999 V2000
    0.9477    0.3865    0.4512 P   0  0  2  0  0  0  0  0  0  0  0  0
    0.9776    2.1495   -0.2804 C   0  0  2  0  0  0  0  0  0  0  0  0
    1.4858    2.0645   -1.2641 H   0  0  0  0  0  0  0  0  0  0  0  0
    1.8292    2.9201    0.7181 C   0  0  0  0  0  0  0  0  0  0  0  0
    1.9519    2.3588    1.9445 C   0  0  0  0  0  0  0  0  0  0  0  0
    2.5061    2.8538    2.7591 H   0  0  0  0  0  0  0  0  0  0  0  0
    1.2796    1.0297    2.1668 C   0  0  0  0  0  0  0  0  0  0  0  0
    0.3026    1.1233    2.6909 H   0  0  0  0  0  0  0  0  0  0  0  0
    1.8738    0.2999    2.7538 H   0  0  0  0  0  0  0  0  0  0  0  0
    2.5998   -0.2051   -0.1242 C   0  0  0  0  0  0  0  0  0  0  0  0
    2.6837   -0.6880   -1.4482 C   0  0  0  0  0  0  0  0  0  0  0  0
    1.7814   -0.7188   -2.0786 H   0  0  0  0  0  0  0  0  0  0  0  0
    3.9039   -1.1453   -1.9640 C   0  0  0  0  0  0  0  0  0  0  0  0
    3.9518   -1.5210   -2.9971 H   0  0  0  0  0  0  0  0  0  0  0  0
    5.0549   -1.1367   -1.1599 C   0  0  0  0  0  0  0  0  0  0  0  0
    6.0114   -1.5054   -1.5601 H   0  0  0  0  0  0  0  0  0  0  0  0
    4.9792   -0.6609    0.1575 C   0  0  0  0  0  0  0  0  0  0  0  0
    5.8773   -0.6515    0.7937 H   0  0  0  0  0  0  0  0  0  0  0  0
    3.7607   -0.1913    0.6730 C   0  0  0  0  0  0  0  0  0  0  0  0
    3.7268    0.1907    1.7029 H   0  0  0  0  0  0  0  0  0  0  0  0
   -0.4041    2.7344   -0.4904 C   0  0  0  0  0  0  0  0  0  0  0  0
   -1.0710    3.4325    0.5369 C   0  0  0  0  0  0  0  0  0  0  0  0
   -0.5694    3.5724    1.5069 H   0  0  0  0  0  0  0  0  0  0  0  0
   -2.3571    3.9516    0.3304 C   0  0  0  0  0  0  0  0  0  0  0  0
   -2.8642    4.4913    1.1445 H   0  0  0  0  0  0  0  0  0  0  0  0
   -2.9999    3.7773   -0.9044 C   0  0  0  0  0  0  0  0  0  0  0  0
   -4.0120    4.1787   -1.0632 H   0  0  0  0  0  0  0  0  0  0  0  0
   -2.3456    3.0832   -1.9343 C   0  0  0  0  0  0  0  0  0  0  0  0
   -2.8408    2.9391   -2.9065 H   0  0  0  0  0  0  0  0  0  0  0  0
   -1.0576    2.5699   -1.7294 C   0  0  0  0  0  0  0  0  0  0  0  0
   -0.5500    2.0287   -2.5423 H   0  0  0  0  0  0  0  0  0  0  0  0
    2.4019    4.2386    0.2979 C   0  0  0  0  0  0  0  0  0  0  0  0
    2.9545    4.7307    1.1211 H   0  0  0  0  0  0  0  0  0  0  0  0
    1.5986    4.9237   -0.0475 H   0  0  0  0  0  0  0  0  0  0  0  0
    3.0950    4.1079   -0.5608 H   0  0  0  0  0  0  0  0  0  0  0  0
  1 10  1  6  0  0  0
  1  7  1  0  0  0  0
  2  3  1  6  0  0  0
  2  1  1  0  0  0  0
  2  4  1  0  0  0  0
  4  5  2  0  0  0  0
  5  7  1  0  0  0  0
  5  6  1  0  0  0  0
  7  8  1  0  0  0  0
  7  9  1  0  0  0  0
 10 19  1  0  0  0  0
 11 10  2  0  0  0  0
 12 11  1  0  0  0  0
 13 11  1  0  0  0  0
 13 15  2  0  0  0  0
 14 13  1  0  0  0  0
 15 17  1  0  0  0  0
 16 15  1  0  0  0  0
 17 19  2  0  0  0  0
 17 18  1  0  0  0  0
 19 20  1  0  0  0  0
 21  2  1  0  0  0  0
 21 22  1  0  0  0  0
 22 23  1  0  0  0  0
 24 22  2  0  0  0  0
 24 25  1  0  0  0  0
 26 24  1  0  0  0  0
 27 26  1  0  0  0  0
 28 30  1  0  0  0  0
 28 26  2  0  0  0  0
 29 28  1  0  0  0  0
 30 21  2  0  0  0  0
 31 30  1  0  0  0  0
 32  4  1  0  0  0  0
 32 33  1  0  0  0  0
 34 32  1  0  0  0  0
 35 32  1  0  0  0  0
M  END
