1
 OpenBabel05122313063D

 54 57  0  0  1  0  0  0  0  0999 V2000
   -0.3655    0.1935    0.2619 P   0  0  1  0  0  0  0  0  0  0  0  0
   -2.2512    2.5322   -0.0341 P   0  0  0  0  0  0  0  0  0  0  0  0
   -1.7618    0.9765   -0.3237 O   0  0  0  0  0  0  0  0  0  0  0  0
   -1.1630    3.5524   -0.1198 O   0  0  0  0  0  0  0  0  0  0  0  0
    0.9288    1.2991   -0.3502 C   0  0  0  0  0  3  0  0  0  0  0  0
    0.5365    2.0825   -1.0193 H   0  0  0  0  0  0  0  0  0  0  0  0
    2.2751    1.2282   -0.1476 C   0  0  0  0  0  0  0  0  0  0  0  0
    3.0757    0.2984    0.6787 C   0  0  1  0  0  3  0  0  0  0  0  0
    2.6929   -0.7212    1.5606 C   0  0  0  0  0  0  0  0  0  0  0  0
    1.6364   -0.9170    1.7803 H   0  0  0  0  0  0  0  0  0  0  0  0
    3.6837   -1.4985    2.1859 C   0  0  0  0  0  0  0  0  0  0  0  0
    3.3821   -2.3085    2.8664 H   0  0  0  0  0  0  0  0  0  0  0  0
    5.0459   -1.2463    1.9465 C   0  0  0  0  0  0  0  0  0  0  0  0
    5.8093   -1.8640    2.4433 H   0  0  0  0  0  0  0  0  0  0  0  0
    5.4439   -0.2074    1.0846 C   0  0  0  0  0  0  0  0  0  0  0  0
    6.5120   -0.0084    0.9091 H   0  0  0  0  0  0  0  0  0  0  0  0
    4.4607    0.5642    0.4542 C   0  0  0  0  0  0  0  0  0  0  0  0
    4.5712    1.6997   -0.4751 C   0  0  0  0  0  0  0  0  0  0  0  0
    5.6863    2.3651   -1.0008 C   0  0  0  0  0  0  0  0  0  0  0  0
    6.7074    2.0490   -0.7387 H   0  0  0  0  0  0  0  0  0  0  0  0
    5.4781    3.4502   -1.8712 C   0  0  0  0  0  0  0  0  0  0  0  0
    6.3438    3.9846   -2.2909 H   0  0  0  0  0  0  0  0  0  0  0  0
    4.1759    3.8644   -2.2094 C   0  0  0  0  0  0  0  0  0  0  0  0
    4.0351    4.7205   -2.8860 H   0  0  0  0  0  0  0  0  0  0  0  0
    3.0532    3.1969   -1.6884 C   0  0  0  0  0  0  0  0  0  0  0  0
    2.0366    3.5311   -1.9472 H   0  0  0  0  0  0  0  0  0  0  0  0
    3.2548    2.1135   -0.8251 C   0  0  0  0  0  0  0  0  0  0  0  0
   -3.0074    2.5010    1.3823 O   0  0  0  0  0  0  0  0  0  0  0  0
   -3.9727    1.4771    1.7408 C   0  0  0  0  0  0  0  0  0  0  0  0
   -3.7444    0.5404    1.1912 H   0  0  0  0  0  0  0  0  0  0  0  0
   -3.7924    1.2848    2.8174 H   0  0  0  0  0  0  0  0  0  0  0  0
   -5.3908    1.9471    1.4798 C   0  0  0  0  0  0  0  0  0  0  0  0
   -6.1111    1.1758    1.8200 H   0  0  0  0  0  0  0  0  0  0  0  0
   -5.5504    2.1258    0.3991 H   0  0  0  0  0  0  0  0  0  0  0  0
   -5.6019    2.8868    2.0275 H   0  0  0  0  0  0  0  0  0  0  0  0
   -3.4737    2.6286   -1.0947 O   0  0  0  0  0  0  0  0  0  0  0  0
   -3.1690    2.6810   -2.5128 C   0  0  0  0  0  0  0  0  0  0  0  0
   -2.3693    3.4349   -2.6768 H   0  0  0  0  0  0  0  0  0  0  0  0
   -2.7829    1.6894   -2.8325 H   0  0  0  0  0  0  0  0  0  0  0  0
   -4.4368    3.0466   -3.2549 C   0  0  0  0  0  0  0  0  0  0  0  0
   -5.2285    2.2917   -3.0783 H   0  0  0  0  0  0  0  0  0  0  0  0
   -4.2372    3.0905   -4.3440 H   0  0  0  0  0  0  0  0  0  0  0  0
   -4.8153    4.0348   -2.9274 H   0  0  0  0  0  0  0  0  0  0  0  0
   -0.4821    0.5139    2.0668 C   0  0  0  0  0  0  0  0  0  0  0  0
   -1.0697   -0.4578    2.9016 C   0  0  0  0  0  0  0  0  0  0  0  0
   -1.4066   -1.4144    2.4759 H   0  0  0  0  0  0  0  0  0  0  0  0
   -1.2215   -0.2054    4.2725 C   0  0  0  0  0  0  0  0  0  0  0  0
   -1.6765   -0.9686    4.9216 H   0  0  0  0  0  0  0  0  0  0  0  0
   -0.7868    1.0160    4.8126 C   0  0  0  0  0  0  0  0  0  0  0  0
   -0.9020    1.2123    5.8894 H   0  0  0  0  0  0  0  0  0  0  0  0
   -0.2028    1.9862    3.9815 C   0  0  0  0  0  0  0  0  0  0  0  0
    0.1331    2.9453    4.4031 H   0  0  0  0  0  0  0  0  0  0  0  0
   -0.0462    1.7404    2.6110 C   0  0  0  0  0  0  0  0  0  0  0  0
    0.3901    2.5075    1.9542 H   0  0  0  0  0  0  0  0  0  0  0  0
  1  5  1  6  0  0  0
  1 44  1  0  0  0  0
  2 28  1  0  0  0  0
  3  2  1  0  0  0  0
  3  1  1  0  0  0  0
  4  2  2  0  0  0  0
  5  7  1  0  0  0  0
  6  5  1  0  0  0  0
  8  7  1  6  0  0  0
  8  9  1  0  0  0  0
  9 10  1  0  0  0  0
  9 11  2  0  0  0  0
 11 12  1  0  0  0  0
 13 11  1  0  0  0  0
 13 14  1  0  0  0  0
 15 13  2  0  0  0  0
 16 15  1  0  0  0  0
 17  8  1  0  0  0  0
 17 15  1  0  0  0  0
 18 17  2  0  0  0  0
 19 20  1  0  0  0  0
 19 18  1  0  0  0  0
 21 19  2  0  0  0  0
 22 21  1  0  0  0  0
 23 21  1  0  0  0  0
 23 25  2  0  0  0  0
 24 23  1  0  0  0  0
 25 27  1  0  0  0  0
 26 25  1  0  0  0  0
 27 18  1  0  0  0  0
 27  7  2  0  0  0  0
 28 29  1  0  0  0  0
 29 31  1  0  0  0  0
 30 29  1  0  0  0  0
 32 29  1  0  0  0  0
 32 33  1  0  0  0  0
 32 35  1  0  0  0  0
 34 32  1  0  0  0  0
 36  2  1  0  0  0  0
 37 36  1  0  0  0  0
 38 37  1  0  0  0  0
 39 37  1  0  0  0  0
 40 41  1  0  0  0  0
 40 43  1  0  0  0  0
 40 37  1  0  0  0  0
 42 40  1  0  0  0  0
 44 53  2  0  0  0  0
 44 45  1  0  0  0  0
 45 47  2  0  0  0  0
 46 45  1  0  0  0  0
 47 49  1  0  0  0  0
 47 48  1  0  0  0  0
 49 50  1  0  0  0  0
 51 52  1  0  0  0  0
 51 49  2  0  0  0  0
 53 51  1  0  0  0  0
 54 53  1  0  0  0  0
M  END
