57
 OpenBabel05122313063D

 57 58  0  0  0  0  0  0  0  0999 V2000
   -3.1712   -0.3008   -0.4485 C   0  0  0  0  0  0  0  0  0  0  0  0
   -4.3877   -0.9717   -0.7246 C   0  0  0  0  0  0  0  0  0  0  0  0
   -4.4291   -2.0654   -0.6604 H   0  0  0  0  0  0  0  0  0  0  0  0
   -5.5528   -0.2849   -1.0845 C   0  0  0  0  0  0  0  0  0  0  0  0
   -6.4772   -0.8446   -1.2922 H   0  0  0  0  0  0  0  0  0  0  0  0
   -5.5268    1.1135   -1.1750 C   0  0  0  0  0  0  0  0  0  0  0  0
   -6.4328    1.6737   -1.4519 H   0  0  0  0  0  0  0  0  0  0  0  0
   -4.3325    1.7946   -0.9171 C   0  0  0  0  0  0  0  0  0  0  0  0
   -4.2980    2.8919   -0.9965 H   0  0  0  0  0  0  0  0  0  0  0  0
   -3.1396    1.1224   -0.5606 C   0  0  0  0  0  0  0  0  0  0  0  0
   -1.9355    1.9979   -0.3583 C   0  0  0  0  0  0  0  0  0  0  0  0
   -1.1434    2.3762   -1.4750 C   0  0  0  0  0  0  0  0  0  0  0  0
   -0.0539    3.2461   -1.2792 C   0  0  0  0  0  0  0  0  0  0  0  0
    0.5650    3.5215   -2.1490 H   0  0  0  0  0  0  0  0  0  0  0  0
    0.2740    3.7627   -0.0157 C   0  0  0  0  0  0  0  0  0  0  0  0
   -0.5572    3.4195    1.0642 C   0  0  0  0  0  0  0  0  0  0  0  0
   -0.3306    3.8221    2.0641 H   0  0  0  0  0  0  0  0  0  0  0  0
   -1.6648    2.5682    0.9160 C   0  0  0  0  0  0  0  0  0  0  0  0
   -1.4440    1.9049   -2.8779 C   0  0  0  0  0  0  0  0  0  0  0  0
   -0.5449    1.4564   -3.3483 H   0  0  0  0  0  0  0  0  0  0  0  0
   -1.7474    2.7590   -3.5194 H   0  0  0  0  0  0  0  0  0  0  0  0
   -2.2576    1.1595   -2.9118 H   0  0  0  0  0  0  0  0  0  0  0  0
    1.4870    4.6299    0.2019 C   0  0  0  0  0  0  0  0  0  0  0  0
    1.2179    5.5944    0.6801 H   0  0  0  0  0  0  0  0  0  0  0  0
    2.0110    4.8516   -0.7479 H   0  0  0  0  0  0  0  0  0  0  0  0
    2.1986    4.1185    0.8852 H   0  0  0  0  0  0  0  0  0  0  0  0
   -2.5445    2.3225    2.1176 C   0  0  0  0  0  0  0  0  0  0  0  0
   -2.9565    3.2809    2.4964 H   0  0  0  0  0  0  0  0  0  0  0  0
   -1.9658    1.8716    2.9487 H   0  0  0  0  0  0  0  0  0  0  0  0
   -3.3993    1.6602    1.8900 H   0  0  0  0  0  0  0  0  0  0  0  0
   -2.1265   -2.2105    1.6431 C   0  0  0  0  0  0  0  0  0  0  0  0
   -3.4950   -2.9066    1.6840 C   0  0  0  0  0  0  0  0  0  0  0  0
   -3.6121   -3.6820    0.9041 H   0  0  0  0  0  0  0  0  0  0  0  0
   -4.3288   -2.1847    1.5952 H   0  0  0  0  0  0  0  0  0  0  0  0
   -3.6028   -3.4110    2.6680 H   0  0  0  0  0  0  0  0  0  0  0  0
   -2.1037   -1.1143    2.7236 C   0  0  0  0  0  0  0  0  0  0  0  0
   -1.1314   -0.5806    2.7452 H   0  0  0  0  0  0  0  0  0  0  0  0
   -2.2710   -1.5786    3.7186 H   0  0  0  0  0  0  0  0  0  0  0  0
   -2.9044   -0.3692    2.5594 H   0  0  0  0  0  0  0  0  0  0  0  0
   -1.0092   -3.2274    1.9382 C   0  0  0  0  0  0  0  0  0  0  0  0
   -0.0042   -2.7655    1.8628 H   0  0  0  0  0  0  0  0  0  0  0  0
   -1.0463   -4.1034    1.2621 H   0  0  0  0  0  0  0  0  0  0  0  0
   -1.1322   -3.6042    2.9754 H   0  0  0  0  0  0  0  0  0  0  0  0
   -1.3921   -2.5426   -1.4353 C   0  0  0  0  0  0  0  0  0  0  0  0
   -2.3651   -3.7282   -1.5149 C   0  0  0  0  0  0  0  0  0  0  0  0
   -2.3028   -4.3851   -0.6261 H   0  0  0  0  0  0  0  0  0  0  0  0
   -2.0962   -4.3482   -2.3967 H   0  0  0  0  0  0  0  0  0  0  0  0
   -3.4174   -3.4154   -1.6532 H   0  0  0  0  0  0  0  0  0  0  0  0
   -1.4843   -1.6999   -2.7189 C   0  0  0  0  0  0  0  0  0  0  0  0
   -0.7907   -0.8372   -2.6785 H   0  0  0  0  0  0  0  0  0  0  0  0
   -2.5079   -1.3174   -2.8989 H   0  0  0  0  0  0  0  0  0  0  0  0
   -1.1938   -2.3280   -3.5873 H   0  0  0  0  0  0  0  0  0  0  0  0
    0.0494   -3.0820   -1.3168 C   0  0  0  0  0  0  0  0  0  0  0  0
    0.7907   -2.2590   -1.2630 H   0  0  0  0  0  0  0  0  0  0  0  0
    0.2731   -3.6969   -2.2142 H   0  0  0  0  0  0  0  0  0  0  0  0
    0.1944   -3.7229   -0.4280 H   0  0  0  0  0  0  0  0  0  0  0  0
   -1.6766   -1.3066    0.0126 P   0  0  0  0  0  0  0  0  0  0  0  0
  1 57  1  0  0  0  0
  2  3  1  0  0  0  0
  2  1  2  0  0  0  0
  4  2  1  0  0  0  0
  5  4  1  0  0  0  0
  6  4  2  0  0  0  0
  6  8  1  0  0  0  0
  7  6  1  0  0  0  0
  8 10  2  0  0  0  0
  9  8  1  0  0  0  0
 10  1  1  0  0  0  0
 10 11  1  0  0  0  0
 11 18  1  0  0  0  0
 12 13  1  0  0  0  0
 12 11  2  0  0  0  0
 13 15  2  0  0  0  0
 14 13  1  0  0  0  0
 15 23  1  0  0  0  0
 15 16  1  0  0  0  0
 16 17  1  0  0  0  0
 18 16  2  0  0  0  0
 18 27  1  0  0  0  0
 19 12  1  0  0  0  0
 20 19  1  0  0  0  0
 21 19  1  0  0  0  0
 22 19  1  0  0  0  0
 23 24  1  0  0  0  0
 23 26  1  0  0  0  0
 25 23  1  0  0  0  0
 27 28  1  0  0  0  0
 27 29  1  0  0  0  0
 30 27  1  0  0  0  0
 31 32  1  0  0  0  0
 31 40  1  0  0  0  0
 31 36  1  0  0  0  0
 32 35  1  0  0  0  0
 33 32  1  0  0  0  0
 34 32  1  0  0  0  0
 36 37  1  0  0  0  0
 36 38  1  0  0  0  0
 39 36  1  0  0  0  0
 40 43  1  0  0  0  0
 41 40  1  0  0  0  0
 42 40  1  0  0  0  0
 44 53  1  0  0  0  0
 44 57  1  0  0  0  0
 45 44  1  0  0  0  0
 45 46  1  0  0  0  0
 47 45  1  0  0  0  0
 48 45  1  0  0  0  0
 49 50  1  0  0  0  0
 49 44  1  0  0  0  0
 51 49  1  0  0  0  0
 52 49  1  0  0  0  0
 53 54  1  0  0  0  0
 53 56  1  0  0  0  0
 55 53  1  0  0  0  0
 57 31  1  0  0  0  0
M  END
