1
 OpenBabel05122313063D

 49 53  0  0  0  0  0  0  0  0999 V2000
    1.4637    1.0697   -0.2210 P   0  0  0  0  0  0  0  0  0  0  0  0
    1.9711   -0.0625   -1.6416 C   0  0  0  0  0  0  0  0  0  0  0  0
    1.5742   -1.4858   -1.3585 C   0  0  0  0  0  0  0  0  0  0  0  0
    2.4951   -2.3673   -0.7186 C   0  0  0  0  0  0  0  0  0  0  0  0
    3.8564   -2.0139   -0.4324 C   0  0  0  0  0  0  0  0  0  0  0  0
    4.7078   -2.8765    0.2300 C   0  0  0  0  0  0  0  0  0  0  0  0
    4.2588   -4.1643    0.6480 C   0  0  0  0  0  0  0  0  0  0  0  0
    2.9635   -4.5567    0.3801 C   0  0  0  0  0  0  0  0  0  0  0  0
    2.0494   -3.6875   -0.3015 C   0  0  0  0  0  0  0  0  0  0  0  0
    0.7219   -4.0788   -0.5445 C   0  0  0  0  0  0  0  0  0  0  0  0
   -0.1919   -3.2318   -1.1953 C   0  0  0  0  0  0  0  0  0  0  0  0
   -1.5481   -3.6373   -1.4186 C   0  0  0  0  0  0  0  0  0  0  0  0
   -2.4509   -2.7967   -2.0381 C   0  0  0  0  0  0  0  0  0  0  0  0
   -2.0311   -1.5101   -2.4829 C   0  0  0  0  0  0  0  0  0  0  0  0
   -0.7307   -1.0847   -2.2847 C   0  0  0  0  0  0  0  0  0  0  0  0
    0.2392   -1.9119   -1.6251 C   0  0  0  0  0  0  0  0  0  0  0  0
    2.4755    0.4599    1.1827 C   0  0  0  0  0  0  0  0  0  0  0  0
    3.7505    0.9744    1.4898 C   0  0  0  0  0  0  0  0  0  0  0  0
    4.5126    0.3893    2.5118 C   0  0  0  0  0  0  0  0  0  0  0  0
    4.0112   -0.7110    3.2258 C   0  0  0  0  0  0  0  0  0  0  0  0
    2.7326   -1.2126    2.9354 C   0  0  0  0  0  0  0  0  0  0  0  0
    1.9602   -0.6242    1.9253 C   0  0  0  0  0  0  0  0  0  0  0  0
    2.1444    2.7126   -0.6670 C   0  0  0  0  0  0  0  0  0  0  0  0
    1.4271    3.8559   -0.2564 C   0  0  0  0  0  0  0  0  0  0  0  0
    1.9108    5.1381   -0.5541 C   0  0  0  0  0  0  0  0  0  0  0  0
    3.1078    5.2904   -1.2716 C   0  0  0  0  0  0  0  0  0  0  0  0
    3.8225    4.1571   -1.6912 C   0  0  0  0  0  0  0  0  0  0  0  0
    3.3456    2.8725   -1.3902 C   0  0  0  0  0  0  0  0  0  0  0  0
    3.0595    0.0439   -1.7996 H   0  0  0  0  0  0  0  0  0  0  0  0
    1.4700    0.3517   -2.5377 H   0  0  0  0  0  0  0  0  0  0  0  0
    4.2373   -1.0276   -0.7263 H   0  0  0  0  0  0  0  0  0  0  0  0
    5.7420   -2.5649    0.4397 H   0  0  0  0  0  0  0  0  0  0  0  0
    4.9474   -4.8399    1.1773 H   0  0  0  0  0  0  0  0  0  0  0  0
    2.6021   -5.5498    0.6894 H   0  0  0  0  0  0  0  0  0  0  0  0
    0.3847   -5.0711   -0.2051 H   0  0  0  0  0  0  0  0  0  0  0  0
   -1.8548   -4.6376   -1.0757 H   0  0  0  0  0  0  0  0  0  0  0  0
   -3.4930   -3.1142   -2.1932 H   0  0  0  0  0  0  0  0  0  0  0  0
   -2.7530   -0.8402   -2.9720 H   0  0  0  0  0  0  0  0  0  0  0  0
   -0.4465   -0.0870   -2.6450 H   0  0  0  0  0  0  0  0  0  0  0  0
    4.1488    1.8354    0.9323 H   0  0  0  0  0  0  0  0  0  0  0  0
    5.5068    0.7964    2.7512 H   0  0  0  0  0  0  0  0  0  0  0  0
    4.6160   -1.1727    4.0210 H   0  0  0  0  0  0  0  0  0  0  0  0
    2.3318   -2.0691    3.4975 H   0  0  0  0  0  0  0  0  0  0  0  0
    0.9535   -1.0100    1.6997 H   0  0  0  0  0  0  0  0  0  0  0  0
    0.4792    3.7288    0.2910 H   0  0  0  0  0  0  0  0  0  0  0  0
    1.3434    6.0232   -0.2296 H   0  0  0  0  0  0  0  0  0  0  0  0
    3.4832    6.2970   -1.5106 H   0  0  0  0  0  0  0  0  0  0  0  0
    4.7583    4.2727   -2.2589 H   0  0  0  0  0  0  0  0  0  0  0  0
    3.9182    1.9947   -1.7255 H   0  0  0  0  0  0  0  0  0  0  0  0
  1 17  1  0  0  0  0
  2  3  1  0  0  0  0
  2  1  1  0  0  0  0
  3  4  1  0  0  0  0
  4  5  2  0  0  0  0
  4  9  1  0  0  0  0
  5  6  1  0  0  0  0
  6 32  1  0  0  0  0
  6  7  2  0  0  0  0
  7 33  1  0  0  0  0
  8  7  1  0  0  0  0
  8 34  1  0  0  0  0
  9  8  2  0  0  0  0
 10  9  1  0  0  0  0
 10 35  1  0  0  0  0
 11 10  2  0  0  0  0
 12 11  1  0  0  0  0
 12 36  1  0  0  0  0
 13 12  2  0  0  0  0
 14 15  2  0  0  0  0
 14 13  1  0  0  0  0
 15 16  1  0  0  0  0
 16  3  2  0  0  0  0
 16 11  1  0  0  0  0
 17 18  2  0  0  0  0
 17 22  1  0  0  0  0
 18 19  1  0  0  0  0
 19 41  1  0  0  0  0
 19 20  2  0  0  0  0
 20 42  1  0  0  0  0
 21 20  1  0  0  0  0
 21 43  1  0  0  0  0
 22 21  2  0  0  0  0
 23 24  1  0  0  0  0
 23  1  1  0  0  0  0
 24 45  1  0  0  0  0
 25 24  2  0  0  0  0
 25 46  1  0  0  0  0
 26 25  1  0  0  0  0
 27 28  1  0  0  0  0
 27 26  2  0  0  0  0
 28 23  2  0  0  0  0
 29  2  1  0  0  0  0
 30  2  1  0  0  0  0
 31  5  1  0  0  0  0
 37 13  1  0  0  0  0
 38 14  1  0  0  0  0
 39 15  1  0  0  0  0
 40 18  1  0  0  0  0
 44 22  1  0  0  0  0
 47 26  1  0  0  0  0
 48 27  1  0  0  0  0
 49 28  1  0  0  0  0
M  END
