1
 OpenBabel05122313063D

 38 38  0  0  0  0  0  0  0  0999 V2000
    2.0324    0.9186    0.2098 P   0  0  0  0  0  0  0  0  0  0  0  0
    3.3915   -0.1724   -0.4423 C   0  0  0  0  0  0  0  0  0  0  0  0
    3.0969   -0.9940   -1.5793 C   0  0  0  0  0  0  0  0  0  0  0  0
    4.0554   -1.9286   -2.0209 C   0  0  0  0  0  0  0  0  0  0  0  0
    3.8111   -2.5618   -2.8877 H   0  0  0  0  0  0  0  0  0  0  0  0
    5.2966   -2.0513   -1.3990 C   0  0  0  0  0  0  0  0  0  0  0  0
    6.0297   -2.7904   -1.7544 H   0  0  0  0  0  0  0  0  0  0  0  0
    5.6096   -1.2004   -0.3366 C   0  0  0  0  0  0  0  0  0  0  0  0
    6.6028   -1.2605    0.1334 H   0  0  0  0  0  0  0  0  0  0  0  0
    4.6941   -0.2492    0.1557 C   0  0  0  0  0  0  0  0  0  0  0  0
    1.8481   -0.9168   -2.4292 C   0  0  0  0  0  0  0  0  0  0  0  0
    2.0807   -0.4341   -3.4005 H   0  0  0  0  0  0  0  0  0  0  0  0
    1.0160   -0.3438   -1.9732 H   0  0  0  0  0  0  0  0  0  0  0  0
    1.4694   -1.9329   -2.6582 H   0  0  0  0  0  0  0  0  0  0  0  0
    5.2096    0.6212    1.2806 C   0  0  0  0  0  0  0  0  0  0  0  0
    6.3132    0.5618    1.3164 H   0  0  0  0  0  0  0  0  0  0  0  0
    4.8444    0.2919    2.2741 H   0  0  0  0  0  0  0  0  0  0  0  0
    4.9479    1.6863    1.1563 H   0  0  0  0  0  0  0  0  0  0  0  0
    2.1838    2.5791   -0.6520 C   0  0  0  0  0  0  0  0  0  0  0  0
    1.2774    3.1245   -0.3137 H   0  0  0  0  0  0  0  0  0  0  0  0
    2.1230    2.4214   -2.1754 C   0  0  0  0  0  0  0  0  0  0  0  0
    2.1463    3.4232   -2.6497 H   0  0  0  0  0  0  0  0  0  0  0  0
    1.2034    1.9099   -2.5165 H   0  0  0  0  0  0  0  0  0  0  0  0
    2.9965    1.8528   -2.5531 H   0  0  0  0  0  0  0  0  0  0  0  0
    3.4254    3.3730   -0.2314 C   0  0  0  0  0  0  0  0  0  0  0  0
    4.3562    2.8687   -0.5595 H   0  0  0  0  0  0  0  0  0  0  0  0
    3.4803    3.5492    0.8604 H   0  0  0  0  0  0  0  0  0  0  0  0
    3.4034    4.3679   -0.7212 H   0  0  0  0  0  0  0  0  0  0  0  0
    2.2438    1.2465    2.0450 C   0  0  0  0  0  0  0  0  0  0  0  0
    3.2233    1.7413    2.1691 H   0  0  0  0  0  0  0  0  0  0  0  0
    2.2352   -0.0635    2.8433 C   0  0  0  0  0  0  0  0  0  0  0  0
    2.5487    0.1327    3.8884 H   0  0  0  0  0  0  0  0  0  0  0  0
    2.9119   -0.8332    2.4232 H   0  0  0  0  0  0  0  0  0  0  0  0
    1.2134   -0.4926    2.8801 H   0  0  0  0  0  0  0  0  0  0  0  0
    1.1554    2.2075    2.5415 C   0  0  0  0  0  0  0  0  0  0  0  0
    0.1459    1.7614    2.4322 H   0  0  0  0  0  0  0  0  0  0  0  0
    1.1655    3.1821    2.0152 H   0  0  0  0  0  0  0  0  0  0  0  0
    1.3184    2.4148    3.6185 H   0  0  0  0  0  0  0  0  0  0  0  0
  1 29  1  0  0  0  0
  2 10  1  0  0  0  0
  2  1  1  0  0  0  0
  3  2  2  0  0  0  0
  4  3  1  0  0  0  0
  4  6  2  0  0  0  0
  5  4  1  0  0  0  0
  6  8  1  0  0  0  0
  7  6  1  0  0  0  0
  8  9  1  0  0  0  0
  8 10  2  0  0  0  0
 10 15  1  0  0  0  0
 11 13  1  0  0  0  0
 11  3  1  0  0  0  0
 12 11  1  0  0  0  0
 14 11  1  0  0  0  0
 15 16  1  0  0  0  0
 15 17  1  0  0  0  0
 18 15  1  0  0  0  0
 19 20  1  0  0  0  0
 19 25  1  0  0  0  0
 19  1  1  0  0  0  0
 21 19  1  0  0  0  0
 22 21  1  0  0  0  0
 23 21  1  0  0  0  0
 24 21  1  0  0  0  0
 25 27  1  0  0  0  0
 26 25  1  0  0  0  0
 28 25  1  0  0  0  0
 29 30  1  0  0  0  0
 29 35  1  0  0  0  0
 29 31  1  0  0  0  0
 31 34  1  0  0  0  0
 31 32  1  0  0  0  0
 33 31  1  0  0  0  0
 35 38  1  0  0  0  0
 36 35  1  0  0  0  0
 37 35  1  0  0  0  0
M  END
