1
 OpenBabel05122313063D

 79 87  0  0  1  0  0  0  0  0999 V2000
   -0.0003   -0.0002    0.1739 P   0  0  1  0  0  0  0  0  0  0  0  0
    1.9494   -1.3687   -1.2466 N   0  0  0  0  0  0  0  0  0  0  0  0
    2.2279    0.8599   -1.2676 N   0  0  0  0  0  0  0  0  0  0  0  0
    0.2037    2.3738   -1.2456 N   0  0  0  0  0  0  0  0  0  0  0  0
   -1.8658    1.5009   -1.2579 N   0  0  0  0  0  0  0  0  0  0  0  0
   -2.1647   -1.0091   -1.2366 N   0  0  0  0  0  0  0  0  0  0  0  0
   -0.3741   -2.3649   -1.2581 N   0  0  0  0  0  0  0  0  0  0  0  0
    1.5150   -0.1788   -0.7835 C   0  0  1  0  0  3  0  0  0  0  0  0
    3.0581   -1.0852   -2.0187 C   0  0  0  0  0  0  0  0  0  0  0  0
    3.6327   -1.8721   -2.5145 H   0  0  0  0  0  0  0  0  0  0  0  0
    3.2319    0.2915   -2.0292 C   0  0  0  0  0  0  0  0  0  0  0  0
    3.9922    0.8956   -2.5286 H   0  0  0  0  0  0  0  0  0  0  0  0
   -0.6077    1.4025   -0.7794 C   0  0  1  0  0  3  0  0  0  0  0  0
   -0.5996    3.1925   -2.0141 C   0  0  0  0  0  0  0  0  0  0  0  0
   -0.2074    4.0836   -2.5113 H   0  0  0  0  0  0  0  0  0  0  0  0
   -1.8788    2.6549   -2.0190 C   0  0  0  0  0  0  0  0  0  0  0  0
   -2.7842    3.0116   -2.5143 H   0  0  0  0  0  0  0  0  0  0  0  0
   -0.9158   -1.2266   -0.7761 C   0  0  1  0  0  3  0  0  0  0  0  0
   -2.4756   -2.1135   -2.0044 C   0  0  0  0  0  0  0  0  0  0  0  0
   -3.4458   -2.2190   -2.4973 H   0  0  0  0  0  0  0  0  0  0  0  0
   -1.3704   -2.9525   -2.0152 C   0  0  0  0  0  0  0  0  0  0  0  0
   -1.2287   -3.9145   -2.5120 H   0  0  0  0  0  0  0  0  0  0  0  0
    2.5498    3.4769   -1.9434 C   0  0  1  0  0  0  0  0  0  0  0  0
    1.9697    4.4182   -1.7780 H   0  0  0  0  0  0  0  0  0  0  0  0
    3.8635    3.6750   -1.1603 C   0  0  0  0  0  0  0  0  0  0  0  0
    4.5283    2.7912   -1.2943 H   0  0  0  0  0  0  0  0  0  0  0  0
    4.4513    4.5535   -1.5054 H   0  0  0  0  0  0  0  0  0  0  0  0
    3.4231    3.7961    0.3085 C   0  0  0  0  0  0  0  0  0  0  0  0
    3.0878    4.8411    0.4898 H   0  0  0  0  0  0  0  0  0  0  0  0
    4.2526    3.6122    1.0220 H   0  0  0  0  0  0  0  0  0  0  0  0
    2.2110    2.8374    0.5328 C   0  0  1  0  0  0  0  0  0  0  0  0
    2.5593    1.9397    1.0914 H   0  0  0  0  0  0  0  0  0  0  0  0
    2.6821    3.2923   -3.4572 C   0  0  0  0  0  0  0  0  0  0  0  0
    3.1399    4.1810   -3.9420 H   0  0  0  0  0  0  0  0  0  0  0  0
    1.6974    3.1248   -3.9425 H   0  0  0  0  0  0  0  0  0  0  0  0
    3.3163    2.4253   -3.7318 H   0  0  0  0  0  0  0  0  0  0  0  0
    1.1065    3.5024    1.3633 C   0  0  0  0  0  0  0  0  0  0  0  0
    1.4931    3.8735    2.3358 H   0  0  0  0  0  0  0  0  0  0  0  0
    0.2726    2.8070    1.6007 H   0  0  0  0  0  0  0  0  0  0  0  0
    0.6663    4.3726    0.8300 H   0  0  0  0  0  0  0  0  0  0  0  0
   -3.5609    0.4964    0.5498 C   0  0  1  0  0  0  0  0  0  0  0  0
   -2.9564    1.2483    1.1051 H   0  0  0  0  0  0  0  0  0  0  0  0
   -4.9996    1.0635    0.3330 C   0  0  0  0  0  0  0  0  0  0  0  0
   -5.7343    0.2487    0.5162 H   0  0  0  0  0  0  0  0  0  0  0  0
   -5.2538    1.8721    1.0490 H   0  0  0  0  0  0  0  0  0  0  0  0
   -5.1225    1.5076   -1.1345 C   0  0  0  0  0  0  0  0  0  0  0  0
   -4.6915    2.5260   -1.2690 H   0  0  0  0  0  0  0  0  0  0  0  0
   -6.1788    1.5764   -1.4745 H   0  0  0  0  0  0  0  0  0  0  0  0
   -4.2964    0.4712   -1.9229 C   0  0  1  0  0  0  0  0  0  0  0  0
   -4.8197   -0.5027   -1.7562 H   0  0  0  0  0  0  0  0  0  0  0  0
   -3.5770   -0.7925    1.3809 C   0  0  0  0  0  0  0  0  0  0  0  0
   -4.0875   -0.6445    2.3557 H   0  0  0  0  0  0  0  0  0  0  0  0
   -2.5556   -1.1636    1.6136 H   0  0  0  0  0  0  0  0  0  0  0  0
   -4.1105   -1.6106    0.8503 H   0  0  0  0  0  0  0  0  0  0  0  0
   -4.2102    0.6800   -3.4369 C   0  0  0  0  0  0  0  0  0  0  0  0
   -5.2109    0.6301   -3.9170 H   0  0  0  0  0  0  0  0  0  0  0  0
   -3.5731   -0.0870   -3.9259 H   0  0  0  0  0  0  0  0  0  0  0  0
   -3.7802    1.6640   -3.7126 H   0  0  0  0  0  0  0  0  0  0  0  0
    1.3524   -3.3322    0.5408 C   0  0  1  0  0  0  0  0  0  0  0  0
    0.4020   -3.1845    1.1014 H   0  0  0  0  0  0  0  0  0  0  0  0
    1.5785   -4.8616    0.3215 C   0  0  0  0  0  0  0  0  0  0  0  0
    2.6522   -5.0913    0.4999 H   0  0  0  0  0  0  0  0  0  0  0  0
    1.0080   -5.4864    1.0393 H   0  0  0  0  0  0  0  0  0  0  0  0
    1.2489   -5.1886   -1.1449 C   0  0  0  0  0  0  0  0  0  0  0  0
    1.7160   -6.1375   -1.4879 H   0  0  0  0  0  0  0  0  0  0  0  0
    0.1508   -5.3245   -1.2748 H   0  0  0  0  0  0  0  0  0  0  0  0
    1.7299   -3.9542   -1.9343 C   0  0  1  0  0  0  0  0  0  0  0  0
    2.8357   -3.9206   -1.7727 H   0  0  0  0  0  0  0  0  0  0  0  0
    2.4816   -2.7033    1.3663 C   0  0  0  0  0  0  0  0  0  0  0  0
    2.6134   -3.2202    2.3401 H   0  0  0  0  0  0  0  0  0  0  0  0
    2.2948   -1.6331    1.6009 H   0  0  0  0  0  0  0  0  0  0  0  0
    3.4539   -2.7569    0.8305 H   0  0  0  0  0  0  0  0  0  0  0  0
    1.4988   -3.9821   -3.4472 C   0  0  0  0  0  0  0  0  0  0  0  0
    2.0387   -4.8241   -3.9309 H   0  0  0  0  0  0  0  0  0  0  0  0
    1.8436   -3.0469   -3.9368 H   0  0  0  0  0  0  0  0  0  0  0  0
    0.4301   -4.0997   -3.7179 H   0  0  0  0  0  0  0  0  0  0  0  0
    1.7857    2.3974   -1.0050 B   0  0  2  0  0  0  0  0  0  0  0  0
   -2.9749    0.3490   -0.9910 B   0  0  1  0  0  0  0  0  0  0  0  0
    1.1793   -2.7496   -0.9987 B   0  0  2  0  0  0  0  0  0  0  0  0
  2 79  1  0  0  0  0
  2  8  1  0  0  0  0
  3 77  1  0  0  0  0
  3  8  1  0  0  0  0
  4 77  1  0  0  0  0
  4 13  1  0  0  0  0
  5 78  1  0  0  0  0
  5 13  1  0  0  0  0
  6 78  1  0  0  0  0
  6 18  1  0  0  0  0
  7 79  1  0  0  0  0
  7 18  1  0  0  0  0
  8  1  1  0  0  0  0
  9  2  1  0  0  0  0
 10  9  1  0  0  0  0
 11  9  2  0  0  0  0
 11  3  1  0  0  0  0
 12 11  1  0  0  0  0
 13  1  1  0  0  0  0
 14  4  1  0  0  0  0
 15 14  1  0  0  0  0
 16 14  2  0  0  0  0
 16  5  1  0  0  0  0
 17 16  1  0  0  0  0
 18  1  1  0  0  0  0
 19  6  1  0  0  0  0
 20 19  1  0  0  0  0
 21 19  2  0  0  0  0
 21  7  1  0  0  0  0
 22 21  1  0  0  0  0
 23 24  1  1  0  0  0
 23 25  1  0  0  0  0
 23 77  1  0  0  0  0
 25 28  1  0  0  0  0
 26 25  1  0  0  0  0
 27 25  1  0  0  0  0
 28 29  1  0  0  0  0
 28 31  1  0  0  0  0
 28 30  1  0  0  0  0
 31 32  1  1  0  0  0
 31 37  1  0  0  0  0
 33 23  1  0  0  0  0
 34 33  1  0  0  0  0
 35 33  1  0  0  0  0
 36 33  1  0  0  0  0
 37 39  1  0  0  0  0
 37 38  1  0  0  0  0
 40 37  1  0  0  0  0
 41 42  1  1  0  0  0
 41 51  1  0  0  0  0
 43 44  1  0  0  0  0
 43 41  1  0  0  0  0
 43 45  1  0  0  0  0
 46 43  1  0  0  0  0
 47 46  1  0  0  0  0
 48 46  1  0  0  0  0
 49 50  1  1  0  0  0
 49 46  1  0  0  0  0
 49 78  1  0  0  0  0
 51 53  1  0  0  0  0
 51 52  1  0  0  0  0
 54 51  1  0  0  0  0
 55 49  1  0  0  0  0
 56 55  1  0  0  0  0
 57 55  1  0  0  0  0
 58 55  1  0  0  0  0
 59 60  1  1  0  0  0
 59 69  1  0  0  0  0
 61 62  1  0  0  0  0
 61 59  1  0  0  0  0
 61 63  1  0  0  0  0
 64 61  1  0  0  0  0
 65 64  1  0  0  0  0
 66 64  1  0  0  0  0
 67 68  1  1  0  0  0
 67 64  1  0  0  0  0
 67 79  1  0  0  0  0
 69 71  1  0  0  0  0
 69 70  1  0  0  0  0
 72 69  1  0  0  0  0
 73 67  1  0  0  0  0
 74 73  1  0  0  0  0
 75 73  1  0  0  0  0
 76 73  1  0  0  0  0
 77 31  1  0  0  0  0
 78 41  1  0  0  0  0
 79 59  1  0  0  0  0
M  END
