2
 OpenBabel05122313063D

 44 44  0  0  0  0  0  0  0  0999 V2000
   -0.4712    1.6709   -2.0016 Br  0  0  0  0  0  0  0  0  0  0  0  0
   -0.5071    0.4115   -0.0550 P   0  0  2  0  0  0  0  0  0  0  0  0
   -3.6800    0.4676   -0.8542 Si  0  0  0  0  0  0  0  0  0  0  0  0
   -2.6191   -0.7876    1.9497 Si  0  0  0  0  0  0  0  0  0  0  0  0
   -2.1897   -0.3197    0.1070 C   0  0  0  0  0  0  0  0  0  0  0  0
   -2.0660   -1.3125   -0.3819 H   0  0  0  0  0  0  0  0  0  0  0  0
   -3.5382    0.0044   -2.6822 C   0  0  0  0  0  0  0  0  0  0  0  0
   -4.3986    0.4302   -3.2395 H   0  0  0  0  0  0  0  0  0  0  0  0
   -3.5822   -1.0992   -2.7928 H   0  0  0  0  0  0  0  0  0  0  0  0
   -2.6044    0.3616   -3.1533 H   0  0  0  0  0  0  0  0  0  0  0  0
   -5.3303   -0.2987   -0.3100 C   0  0  0  0  0  0  0  0  0  0  0  0
   -5.5900   -0.1424    0.7542 H   0  0  0  0  0  0  0  0  0  0  0  0
   -5.3637   -1.3862   -0.5219 H   0  0  0  0  0  0  0  0  0  0  0  0
   -6.1262    0.1780   -0.9204 H   0  0  0  0  0  0  0  0  0  0  0  0
   -3.7908    2.3346   -0.5746 C   0  0  0  0  0  0  0  0  0  0  0  0
   -2.9070    2.8663   -0.9771 H   0  0  0  0  0  0  0  0  0  0  0  0
   -3.8965    2.5787    0.5016 H   0  0  0  0  0  0  0  0  0  0  0  0
   -4.6884    2.7265   -1.0964 H   0  0  0  0  0  0  0  0  0  0  0  0
   -3.6326   -2.3815    1.8962 C   0  0  0  0  0  0  0  0  0  0  0  0
   -3.8599   -2.6995    2.9349 H   0  0  0  0  0  0  0  0  0  0  0  0
   -3.0330   -3.1856    1.4228 H   0  0  0  0  0  0  0  0  0  0  0  0
   -4.5886   -2.2861    1.3504 H   0  0  0  0  0  0  0  0  0  0  0  0
   -3.5610    0.6203    2.8000 C   0  0  0  0  0  0  0  0  0  0  0  0
   -4.5069    0.8820    2.2884 H   0  0  0  0  0  0  0  0  0  0  0  0
   -2.9493    1.5417    2.8723 H   0  0  0  0  0  0  0  0  0  0  0  0
   -3.8135    0.3081    3.8346 H   0  0  0  0  0  0  0  0  0  0  0  0
   -1.1256   -1.1910    3.0450 C   0  0  0  0  0  0  0  0  0  0  0  0
   -1.5274   -1.4422    4.0496 H   0  0  0  0  0  0  0  0  0  0  0  0
   -0.3986   -0.3687    3.1828 H   0  0  0  0  0  0  0  0  0  0  0  0
   -0.5714   -2.0759    2.6800 H   0  0  0  0  0  0  0  0  0  0  0  0
   -0.5067    1.8569    1.1465 C   0  0  0  0  0  0  0  0  0  0  0  0
   -1.3651    2.4997    0.8694 H   0  0  0  0  0  0  0  0  0  0  0  0
   -0.7273    1.3970    2.1301 H   0  0  0  0  0  0  0  0  0  0  0  0
    0.7901    2.6151    1.2038 C   0  0  0  0  0  0  0  0  0  0  0  0
    1.8029    2.2187    2.1023 C   0  0  0  0  0  0  0  0  0  0  0  0
    1.6204    1.3843    2.7946 H   0  0  0  0  0  0  0  0  0  0  0  0
    3.0378    2.8814    2.1312 C   0  0  0  0  0  0  0  0  0  0  0  0
    3.8158    2.5522    2.8363 H   0  0  0  0  0  0  0  0  0  0  0  0
    3.2784    3.9569    1.2627 C   0  0  0  0  0  0  0  0  0  0  0  0
    4.2496    4.4739    1.2778 H   0  0  0  0  0  0  0  0  0  0  0  0
    2.2697    4.3759    0.3811 C   0  0  0  0  0  0  0  0  0  0  0  0
    2.4461    5.2267   -0.2943 H   0  0  0  0  0  0  0  0  0  0  0  0
    1.0347    3.7133    0.3533 C   0  0  0  0  0  0  0  0  0  0  0  0
    0.2499    4.0439   -0.3424 H   0  0  0  0  0  0  0  0  0  0  0  0
  2  1  1  6  0  0  0
  2  5  1  0  0  0  0
  2 31  1  0  0  0  0
  3 15  1  0  0  0  0
  3 11  1  0  0  0  0
  3  5  1  0  0  0  0
  4 23  1  0  0  0  0
  4 27  1  0  0  0  0
  5  4  1  0  0  0  0
  6  5  1  0  0  0  0
  7  3  1  0  0  0  0
  8  7  1  0  0  0  0
  9  7  1  0  0  0  0
 10  7  1  0  0  0  0
 11 12  1  0  0  0  0
 13 11  1  0  0  0  0
 14 11  1  0  0  0  0
 15 17  1  0  0  0  0
 16 15  1  0  0  0  0
 18 15  1  0  0  0  0
 19  4  1  0  0  0  0
 19 20  1  0  0  0  0
 21 19  1  0  0  0  0
 22 19  1  0  0  0  0
 23 25  1  0  0  0  0
 23 26  1  0  0  0  0
 24 23  1  0  0  0  0
 27 29  1  0  0  0  0
 27 28  1  0  0  0  0
 30 27  1  0  0  0  0
 31 34  1  0  0  0  0
 31 33  1  0  0  0  0
 32 31  1  0  0  0  0
 34 35  1  0  0  0  0
 35 37  2  0  0  0  0
 35 36  1  0  0  0  0
 37 38  1  0  0  0  0
 39 40  1  0  0  0  0
 39 37  1  0  0  0  0
 41 39  2  0  0  0  0
 42 41  1  0  0  0  0
 43 41  1  0  0  0  0
 43 34  2  0  0  0  0
 44 43  1  0  0  0  0
M  END
