2
 OpenBabel05122313063D

 31 30  0  0  0  0  0  0  0  0999 V2000
    1.0485   -2.0326   -1.6264 Br  0  0  0  0  0  0  0  0  0  0  0  0
    0.4418   -0.0210   -0.7273 P   0  0  0  0  0  0  0  0  0  0  0  0
    0.6647    0.6897   -1.9524 H   0  0  0  0  0  0  0  0  0  0  0  0
    3.1221    1.5566   -0.6741 Si  0  0  0  0  0  0  0  0  0  0  0  0
    2.5447   -0.8047    1.5599 Si  0  0  0  0  0  0  0  0  0  0  0  0
    1.8474    0.5137    0.3238 C   0  0  0  0  0  0  0  0  0  0  0  0
    1.3440    1.2358    1.0089 H   0  0  0  0  0  0  0  0  0  0  0  0
    2.2212    3.1036   -1.2952 C   0  0  0  0  0  0  0  0  0  0  0  0
    2.9240    3.7574   -1.8521 H   0  0  0  0  0  0  0  0  0  0  0  0
    1.8122    3.6924   -0.4481 H   0  0  0  0  0  0  0  0  0  0  0  0
    1.3776    2.8706   -1.9761 H   0  0  0  0  0  0  0  0  0  0  0  0
    3.7997    0.5645   -2.1303 C   0  0  0  0  0  0  0  0  0  0  0  0
    4.4736    1.2051   -2.7359 H   0  0  0  0  0  0  0  0  0  0  0  0
    2.9934    0.1956   -2.7956 H   0  0  0  0  0  0  0  0  0  0  0  0
    4.3781   -0.3160   -1.7881 H   0  0  0  0  0  0  0  0  0  0  0  0
    4.5388    2.1241    0.4439 C   0  0  0  0  0  0  0  0  0  0  0  0
    5.1385    1.2793    0.8361 H   0  0  0  0  0  0  0  0  0  0  0  0
    4.1644    2.7126    1.3059 H   0  0  0  0  0  0  0  0  0  0  0  0
    5.2201    2.7786   -0.1384 H   0  0  0  0  0  0  0  0  0  0  0  0
    3.0561    0.1539    3.1084 C   0  0  0  0  0  0  0  0  0  0  0  0
    3.4532   -0.5493    3.8695 H   0  0  0  0  0  0  0  0  0  0  0  0
    2.1749    0.6634    3.5505 H   0  0  0  0  0  0  0  0  0  0  0  0
    3.8355    0.9144    2.9095 H   0  0  0  0  0  0  0  0  0  0  0  0
    4.0208   -1.7161    0.8097 C   0  0  0  0  0  0  0  0  0  0  0  0
    4.8619   -1.0349    0.5720 H   0  0  0  0  0  0  0  0  0  0  0  0
    3.7274   -2.2453   -0.1186 H   0  0  0  0  0  0  0  0  0  0  0  0
    4.3933   -2.4715    1.5321 H   0  0  0  0  0  0  0  0  0  0  0  0
    1.2340   -2.0622    2.0807 C   0  0  0  0  0  0  0  0  0  0  0  0
    0.8589   -2.6683    1.2340 H   0  0  0  0  0  0  0  0  0  0  0  0
    0.3709   -1.5763    2.5755 H   0  0  0  0  0  0  0  0  0  0  0  0
    1.6920   -2.7561    2.8167 H   0  0  0  0  0  0  0  0  0  0  0  0
  1  2  1  0  0  0  0
  2  6  1  0  0  0  0
  3  2  1  0  0  0  0
  4  6  1  0  0  0  0
  4 16  1  0  0  0  0
  5 28  1  0  0  0  0
  5 20  1  0  0  0  0
  6  7  1  0  0  0  0
  6  5  1  0  0  0  0
  8  4  1  0  0  0  0
  8 10  1  0  0  0  0
  9  8  1  0  0  0  0
 11  8  1  0  0  0  0
 12 15  1  0  0  0  0
 12  4  1  0  0  0  0
 13 12  1  0  0  0  0
 14 12  1  0  0  0  0
 16 17  1  0  0  0  0
 16 18  1  0  0  0  0
 19 16  1  0  0  0  0
 20 22  1  0  0  0  0
 20 21  1  0  0  0  0
 23 20  1  0  0  0  0
 24 27  1  0  0  0  0
 24  5  1  0  0  0  0
 25 24  1  0  0  0  0
 26 24  1  0  0  0  0
 28 30  1  0  0  0  0
 28 31  1  0  0  0  0
 29 28  1  0  0  0  0
M  END
