1
 OpenBabel05122313063D

 60 63  0  0  0  0  0  0  0  0999 V2000
   -0.5255    1.5774    0.0935 P   0  0  0  0  0  0  0  0  0  0  0  0
   -0.9196    2.3392    1.8176 C   0  0  0  0  0  0  0  0  0  0  0  0
   -2.4281    2.1412    2.0759 C   0  0  0  0  0  0  0  0  0  0  0  0
   -2.6649    2.5136    3.0951 H   0  0  0  0  0  0  0  0  0  0  0  0
   -2.7160    1.0727    2.0184 H   0  0  0  0  0  0  0  0  0  0  0  0
   -3.0591    2.6983    1.3583 H   0  0  0  0  0  0  0  0  0  0  0  0
   -0.5924    3.8299    1.9999 C   0  0  0  0  0  0  0  0  0  0  0  0
   -1.1724    4.4733    1.3104 H   0  0  0  0  0  0  0  0  0  0  0  0
    0.4819    4.0644    1.8832 H   0  0  0  0  0  0  0  0  0  0  0  0
   -0.8726    4.1262    3.0330 H   0  0  0  0  0  0  0  0  0  0  0  0
   -0.1350    1.4854    2.8315 C   0  0  0  0  0  0  0  0  0  0  0  0
    0.9588    1.6412    2.7560 H   0  0  0  0  0  0  0  0  0  0  0  0
   -0.3435    0.4049    2.6917 H   0  0  0  0  0  0  0  0  0  0  0  0
   -0.4517    1.7621    3.8591 H   0  0  0  0  0  0  0  0  0  0  0  0
   -0.8715    2.7766   -1.3579 C   0  0  0  0  0  0  0  0  0  0  0  0
    0.0248    4.0229   -1.4102 C   0  0  0  0  0  0  0  0  0  0  0  0
   -0.2810    4.6392   -2.2822 H   0  0  0  0  0  0  0  0  0  0  0  0
    1.0905    3.7605   -1.5527 H   0  0  0  0  0  0  0  0  0  0  0  0
   -0.0656    4.6599   -0.5110 H   0  0  0  0  0  0  0  0  0  0  0  0
   -2.3536    3.1842   -1.2901 C   0  0  0  0  0  0  0  0  0  0  0  0
   -2.5615    3.8688   -0.4444 H   0  0  0  0  0  0  0  0  0  0  0  0
   -3.0142    2.2980   -1.1970 H   0  0  0  0  0  0  0  0  0  0  0  0
   -2.6259    3.7191   -2.2243 H   0  0  0  0  0  0  0  0  0  0  0  0
   -0.6269    1.9400   -2.6288 C   0  0  0  0  0  0  0  0  0  0  0  0
   -0.8579    2.5600   -3.5207 H   0  0  0  0  0  0  0  0  0  0  0  0
   -1.2673    1.0354   -2.6540 H   0  0  0  0  0  0  0  0  0  0  0  0
    0.4312    1.6188   -2.7043 H   0  0  0  0  0  0  0  0  0  0  0  0
    1.8898    0.0754   -0.3027 C   0  0  0  0  0  0  0  0  0  0  0  0
    1.3093    1.3074    0.0491 C   0  0  0  0  0  0  0  0  0  0  0  0
    2.1617    2.4044    0.3976 C   0  0  0  0  0  0  0  0  0  0  0  0
    1.7167    3.3689    0.6668 H   0  0  0  0  0  0  0  0  0  0  0  0
    3.5377    2.2868    0.4082 C   0  0  0  0  0  0  0  0  0  0  0  0
    4.1655    3.1481    0.6844 H   0  0  0  0  0  0  0  0  0  0  0  0
    4.1620    1.0559    0.0646 C   0  0  0  0  0  0  0  0  0  0  0  0
    5.5788    0.9032    0.0708 C   0  0  0  0  0  0  0  0  0  0  0  0
    6.2008    1.7692    0.3458 H   0  0  0  0  0  0  0  0  0  0  0  0
    6.1627   -0.3098   -0.2599 C   0  0  0  0  0  0  0  0  0  0  0  0
    7.2579   -0.4174   -0.2506 H   0  0  0  0  0  0  0  0  0  0  0  0
    5.3464   -1.4173   -0.6108 C   0  0  0  0  0  0  0  0  0  0  0  0
    5.8138   -2.3792   -0.8698 H   0  0  0  0  0  0  0  0  0  0  0  0
    3.9646   -1.2975   -0.6300 C   0  0  0  0  0  0  0  0  0  0  0  0
    3.3400   -2.1587   -0.9039 H   0  0  0  0  0  0  0  0  0  0  0  0
    3.3282   -0.0630   -0.2955 C   0  0  0  0  0  0  0  0  0  0  0  0
    1.1035   -1.1403   -0.6789 C   0  0  0  0  0  0  0  0  0  0  0  0
    0.8008   -1.3976   -2.0148 C   0  0  0  0  0  0  0  0  0  0  0  0
    1.1020   -0.6699   -2.7826 H   0  0  0  0  0  0  0  0  0  0  0  0
    0.1039   -2.5724   -2.3956 C   0  0  0  0  0  0  0  0  0  0  0  0
   -0.1447   -2.7345   -3.4547 H   0  0  0  0  0  0  0  0  0  0  0  0
   -0.2852   -3.4939   -1.4379 C   0  0  0  0  0  0  0  0  0  0  0  0
   -0.8566   -4.3899   -1.7215 H   0  0  0  0  0  0  0  0  0  0  0  0
    0.0328   -3.2918   -0.0642 C   0  0  0  0  0  0  0  0  0  0  0  0
   -0.3660   -4.2190    0.9411 C   0  0  0  0  0  0  0  0  0  0  0  0
   -0.9416   -5.1062    0.6364 H   0  0  0  0  0  0  0  0  0  0  0  0
   -0.0541   -4.0046    2.2745 C   0  0  0  0  0  0  0  0  0  0  0  0
   -0.3758   -4.7268    3.0400 H   0  0  0  0  0  0  0  0  0  0  0  0
    0.6793   -2.8503    2.6577 C   0  0  0  0  0  0  0  0  0  0  0  0
    0.9327   -2.6908    3.7169 H   0  0  0  0  0  0  0  0  0  0  0  0
    1.0733   -1.9213    1.7056 C   0  0  0  0  0  0  0  0  0  0  0  0
    1.6393   -1.0272    2.0045 H   0  0  0  0  0  0  0  0  0  0  0  0
    0.7523   -2.1052    0.3283 C   0  0  0  0  0  0  0  0  0  0  0  0
  1  2  1  0  0  0  0
  2  7  1  0  0  0  0
  2  3  1  0  0  0  0
  2 11  1  0  0  0  0
  3  4  1  0  0  0  0
  5  3  1  0  0  0  0
  6  3  1  0  0  0  0
  7 10  1  0  0  0  0
  8  7  1  0  0  0  0
  9  7  1  0  0  0  0
 11 14  1  0  0  0  0
 12 11  1  0  0  0  0
 13 11  1  0  0  0  0
 15 20  1  0  0  0  0
 15  1  1  0  0  0  0
 16 15  1  0  0  0  0
 16 19  1  0  0  0  0
 17 16  1  0  0  0  0
 18 16  1  0  0  0  0
 20 22  1  0  0  0  0
 20 21  1  0  0  0  0
 23 20  1  0  0  0  0
 24 15  1  0  0  0  0
 25 24  1  0  0  0  0
 26 24  1  0  0  0  0
 27 24  1  0  0  0  0
 28 43  2  0  0  0  0
 28 29  1  0  0  0  0
 29  1  1  0  0  0  0
 29 30  2  0  0  0  0
 30 32  1  0  0  0  0
 30 31  1  0  0  0  0
 32 33  1  0  0  0  0
 34 35  1  0  0  0  0
 34 32  2  0  0  0  0
 35 36  1  0  0  0  0
 37 38  1  0  0  0  0
 37 35  2  0  0  0  0
 39 37  1  0  0  0  0
 40 39  1  0  0  0  0
 41 39  2  0  0  0  0
 41 43  1  0  0  0  0
 42 41  1  0  0  0  0
 43 34  1  0  0  0  0
 44 28  1  0  0  0  0
 44 60  1  0  0  0  0
 45 44  2  0  0  0  0
 46 45  1  0  0  0  0
 47 45  1  0  0  0  0
 47 49  2  0  0  0  0
 48 47  1  0  0  0  0
 49 51  1  0  0  0  0
 50 49  1  0  0  0  0
 51 60  2  0  0  0  0
 51 52  1  0  0  0  0
 52 54  2  0  0  0  0
 53 52  1  0  0  0  0
 54 56  1  0  0  0  0
 54 55  1  0  0  0  0
 56 57  1  0  0  0  0
 58 59  1  0  0  0  0
 58 56  2  0  0  0  0
 60 58  1  0  0  0  0
M  END
