1
 OpenBabel05122313063D

 39 42  0  0  0  0  0  0  0  0999 V2000
    0.3903    0.5598   -1.0573 P   0  0  0  0  0  0  0  0  0  0  0  0
    0.4894    0.4768   -2.4890 H   0  0  0  0  0  0  0  0  0  0  0  0
   -0.3144    2.2283   -0.8457 C   0  0  0  0  0  0  0  0  0  0  0  0
    0.3238    3.4674   -0.9474 C   0  0  0  0  0  0  0  0  0  0  0  0
    1.3935    3.5285   -1.1995 H   0  0  0  0  0  0  0  0  0  0  0  0
   -0.4239    4.6361   -0.7151 C   0  0  0  0  0  0  0  0  0  0  0  0
    0.0632    5.6199   -0.7877 H   0  0  0  0  0  0  0  0  0  0  0  0
   -1.7887    4.5489   -0.3893 C   0  0  0  0  0  0  0  0  0  0  0  0
   -2.3664    5.4694   -0.2157 H   0  0  0  0  0  0  0  0  0  0  0  0
   -2.4267    3.3033   -0.2791 C   0  0  0  0  0  0  0  0  0  0  0  0
   -3.4962    3.2449   -0.0299 H   0  0  0  0  0  0  0  0  0  0  0  0
   -1.6882    2.1231   -0.4949 C   0  0  0  0  0  0  0  0  0  0  0  0
   -2.1854    0.7331   -0.4226 C   0  0  0  0  0  0  0  0  0  0  0  0
   -1.2413   -0.2303   -0.7214 C   0  0  0  0  0  0  0  0  0  0  0  0
   -1.3377   -1.6950   -0.6538 C   0  0  0  0  0  0  0  0  0  0  0  0
   -0.5224   -2.4912   -1.4949 C   0  0  0  0  0  0  0  0  0  0  0  0
    0.1288   -2.0085   -2.2393 H   0  0  0  0  0  0  0  0  0  0  0  0
   -0.5312   -3.8884   -1.4016 C   0  0  0  0  0  0  0  0  0  0  0  0
    0.1181   -4.4806   -2.0637 H   0  0  0  0  0  0  0  0  0  0  0  0
   -1.3557   -4.5240   -0.4607 C   0  0  0  0  0  0  0  0  0  0  0  0
   -1.3585   -5.6213   -0.3782 H   0  0  0  0  0  0  0  0  0  0  0  0
   -2.1675   -3.7490    0.3847 C   0  0  0  0  0  0  0  0  0  0  0  0
   -2.8033   -4.2385    1.1379 H   0  0  0  0  0  0  0  0  0  0  0  0
   -2.1604   -2.3528    0.2937 C   0  0  0  0  0  0  0  0  0  0  0  0
   -2.7740   -1.7582    0.9837 H   0  0  0  0  0  0  0  0  0  0  0  0
   -3.6010    0.4449   -0.0879 C   0  0  0  0  0  0  0  0  0  0  0  0
   -4.1712    0.8964    1.1214 C   0  0  0  0  0  0  0  0  0  0  0  0
   -3.5536    1.4646    1.8335 H   0  0  0  0  0  0  0  0  0  0  0  0
   -5.5038    0.5970    1.4384 C   0  0  0  0  0  0  0  0  0  0  0  0
   -5.9235    0.9464    2.3950 H   0  0  0  0  0  0  0  0  0  0  0  0
   -6.3153   -0.1472    0.5596 C   0  0  0  0  0  0  0  0  0  0  0  0
   -5.7409   -0.5885   -0.6522 C   0  0  0  0  0  0  0  0  0  0  0  0
   -6.3525   -1.1721   -1.3587 H   0  0  0  0  0  0  0  0  0  0  0  0
   -4.4105   -0.3021   -0.9720 C   0  0  0  0  0  0  0  0  0  0  0  0
   -3.9789   -0.6621   -1.9178 H   0  0  0  0  0  0  0  0  0  0  0  0
   -7.7552   -0.4505    0.8860 C   0  0  0  0  0  0  0  0  0  0  0  0
   -8.4426    0.1514    0.2540 H   0  0  0  0  0  0  0  0  0  0  0  0
   -7.9920   -0.2252    1.9437 H   0  0  0  0  0  0  0  0  0  0  0  0
   -7.9981   -1.5160    0.6971 H   0  0  0  0  0  0  0  0  0  0  0  0
  1  3  1  0  0  0  0
  1 14  1  0  0  0  0
  2  1  1  0  0  0  0
  3 12  1  0  0  0  0
  4  3  2  0  0  0  0
  4  6  1  0  0  0  0
  5  4  1  0  0  0  0
  6  8  2  0  0  0  0
  7  6  1  0  0  0  0
  8 10  1  0  0  0  0
  8  9  1  0  0  0  0
 10 11  1  0  0  0  0
 12 13  1  0  0  0  0
 12 10  2  0  0  0  0
 13 26  1  0  0  0  0
 14 15  1  0  0  0  0
 14 13  2  0  0  0  0
 15 24  1  0  0  0  0
 16 18  1  0  0  0  0
 16 15  2  0  0  0  0
 17 16  1  0  0  0  0
 18 20  2  0  0  0  0
 19 18  1  0  0  0  0
 20 21  1  0  0  0  0
 20 22  1  0  0  0  0
 22 23  1  0  0  0  0
 24 22  2  0  0  0  0
 24 25  1  0  0  0  0
 26 27  1  0  0  0  0
 27 29  2  0  0  0  0
 27 28  1  0  0  0  0
 29 30  1  0  0  0  0
 31 36  1  0  0  0  0
 31 29  1  0  0  0  0
 32 31  2  0  0  0  0
 33 32  1  0  0  0  0
 34 32  1  0  0  0  0
 34 26  2  0  0  0  0
 35 34  1  0  0  0  0
 36 38  1  0  0  0  0
 37 36  1  0  0  0  0
 39 36  1  0  0  0  0
M  END
