2
 OpenBabel05122313063D

 36 36  0  0  1  0  0  0  0  0999 V2000
    1.6382   -1.4345   -0.1499 S   0  0  0  0  0  0  0  0  0  0  0  0
    0.4514    0.2610    0.4329 P   0  0  2  0  0  0  0  0  0  0  0  0
    3.3666    1.0683   -0.2516 P   0  0  0  0  0  2  0  0  0  0  0  0
    1.5285    1.5407   -0.4138 C   0  0  2  0  0  0  0  0  0  0  0  0
    1.2777    1.3640   -1.4871 H   0  0  0  0  0  0  0  0  0  0  0  0
    3.2215   -0.6314   -0.1575 C   0  0  2  0  0  3  0  0  0  0  0  0
    0.8398    0.3668    2.2346 C   0  0  0  0  0  0  0  0  0  0  0  0
    1.9208    0.5325    2.4063 H   0  0  0  0  0  0  0  0  0  0  0  0
    0.5241   -0.5883    2.6953 H   0  0  0  0  0  0  0  0  0  0  0  0
    0.2504    1.1868    2.6893 H   0  0  0  0  0  0  0  0  0  0  0  0
    1.2983    3.0624   -0.1166 C   0  0  0  0  0  0  0  0  0  0  0  0
   -0.1875    3.4373   -0.2393 C   0  0  0  0  0  0  0  0  0  0  0  0
   -0.8172    2.9001    0.4972 H   0  0  0  0  0  0  0  0  0  0  0  0
   -0.5808    3.2161   -1.2497 H   0  0  0  0  0  0  0  0  0  0  0  0
   -0.3183    4.5234   -0.0573 H   0  0  0  0  0  0  0  0  0  0  0  0
    2.0864    3.8587   -1.1805 C   0  0  0  0  0  0  0  0  0  0  0  0
    1.9315    4.9468   -1.0326 H   0  0  0  0  0  0  0  0  0  0  0  0
    1.7469    3.6022   -2.2049 H   0  0  0  0  0  0  0  0  0  0  0  0
    3.1761    3.6609   -1.1215 H   0  0  0  0  0  0  0  0  0  0  0  0
    1.8092    3.4648    1.2807 C   0  0  0  0  0  0  0  0  0  0  0  0
    1.7625    4.5667    1.3942 H   0  0  0  0  0  0  0  0  0  0  0  0
    2.8630    3.1536    1.4369 H   0  0  0  0  0  0  0  0  0  0  0  0
    1.1976    3.0268    2.0916 H   0  0  0  0  0  0  0  0  0  0  0  0
    4.4273   -1.5729   -0.0870 C   0  0  0  0  0  0  0  0  0  0  0  0
    4.4163   -2.2946    1.2817 C   0  0  0  0  0  0  0  0  0  0  0  0
    4.4978   -1.5632    2.1107 H   0  0  0  0  0  0  0  0  0  0  0  0
    5.2752   -2.9932    1.3484 H   0  0  0  0  0  0  0  0  0  0  0  0
    3.4831   -2.8741    1.4249 H   0  0  0  0  0  0  0  0  0  0  0  0
    4.3277   -2.6141   -1.2259 C   0  0  0  0  0  0  0  0  0  0  0  0
    3.4059   -3.2252   -1.1430 H   0  0  0  0  0  0  0  0  0  0  0  0
    5.1956   -3.3031   -1.1842 H   0  0  0  0  0  0  0  0  0  0  0  0
    4.3225   -2.1180   -2.2168 H   0  0  0  0  0  0  0  0  0  0  0  0
    5.7465   -0.7935   -0.2329 C   0  0  0  0  0  0  0  0  0  0  0  0
    5.7984   -0.2623   -1.2044 H   0  0  0  0  0  0  0  0  0  0  0  0
    6.6030   -1.4954   -0.1767 H   0  0  0  0  0  0  0  0  0  0  0  0
    5.8665   -0.0435    0.5748 H   0  0  0  0  0  0  0  0  0  0  0  0
  1  2  1  0  0  0  0
  2  7  1  1  0  0  0
  3  6  1  0  0  0  0
  4  5  1  6  0  0  0
  4  3  1  0  0  0  0
  4 11  1  0  0  0  0
  4  2  1  0  0  0  0
  6  1  1  0  0  0  0
  6 24  1  6  0  0  0
  7  8  1  0  0  0  0
  7 10  1  0  0  0  0
  7  9  1  0  0  0  0
 11 20  1  0  0  0  0
 12 11  1  0  0  0  0
 12 15  1  0  0  0  0
 12 13  1  0  0  0  0
 14 12  1  0  0  0  0
 16 19  1  0  0  0  0
 16 17  1  0  0  0  0
 16 11  1  0  0  0  0
 18 16  1  0  0  0  0
 20 21  1  0  0  0  0
 20 22  1  0  0  0  0
 20 23  1  0  0  0  0
 24 25  1  0  0  0  0
 25 27  1  0  0  0  0
 25 28  1  0  0  0  0
 25 26  1  0  0  0  0
 29 31  1  0  0  0  0
 29 30  1  0  0  0  0
 29 24  1  0  0  0  0
 32 29  1  0  0  0  0
 33 35  1  0  0  0  0
 33 24  1  0  0  0  0
 33 36  1  0  0  0  0
 34 33  1  0  0  0  0
M  END
