9
 OpenBabel05122313063D

 32 34  0  0  1  0  0  0  0  0999 V2000
    2.1762   -2.9007    0.7408 B   0  0  1  0  0  0  0  0  0  0  0  0
    0.7563   -2.5608   -0.1680 B   0  0  2  0  0  0  0  0  0  0  0  0
    2.2432   -2.7207   -1.0122 B   0  0  1  0  0  0  0  0  0  0  0  0
    3.6436   -2.2211   -0.0382 B   0  0  0  0  0  0  0  0  0  0  0  0
    1.1140   -1.6277    1.3731 B   0  0  1  0  0  0  0  0  0  0  0  0
    2.9900   -1.0871   -1.3066 B   0  0  0  0  0  2  0  0  0  0  0  0
    3.8372   -0.5312    0.1918 B   0  0  0  0  0  0  0  0  0  0  0  0
    2.9385   -1.4568    1.4686 B   0  0  0  0  0  0  0  0  0  0  0  0
    0.5245   -0.3709    0.0641 P   0  0  0  0  0  2  0  0  0  0  0  0
    1.3220   -1.3177   -1.3070 C   0  0  2  0  0  0  0  0  0  0  0  0
    1.1894    1.3662    0.0279 C   0  0  0  0  0  0  0  0  0  0  0  0
    1.4244    2.0283   -1.1915 C   0  0  0  0  0  0  0  0  0  0  0  0
    1.8607    3.3610   -1.1918 C   0  0  0  0  0  0  0  0  0  0  0  0
    2.0626    4.0359    0.0235 C   0  0  0  0  0  0  0  0  0  0  0  0
    1.8357    3.3736    1.2405 C   0  0  0  0  0  0  0  0  0  0  0  0
    1.4031    2.0384    1.2459 C   0  0  0  0  0  0  0  0  0  0  0  0
    2.2279   -3.9325    1.3705 H   0  0  0  0  0  0  0  0  0  0  0  0
   -0.2164   -3.2178   -0.4521 H   0  0  0  0  0  0  0  0  0  0  0  0
    2.2978   -3.5172   -1.9184 H   0  0  0  0  0  0  0  0  0  0  0  0
    4.6567   -2.8768   -0.1152 H   0  0  0  0  0  0  0  0  0  0  0  0
    0.4533   -1.7690    2.3805 H   0  0  0  0  0  0  0  0  0  0  0  0
    0.8526   -1.2853   -2.3005 H   0  0  0  0  0  0  0  0  0  0  0  0
    3.5151   -0.8985   -2.3822 H   0  0  0  0  0  0  0  0  0  0  0  0
    4.9322   -0.0285    0.2741 H   0  0  0  0  0  0  0  0  0  0  0  0
    3.4719   -1.5357    2.5542 H   0  0  0  0  0  0  0  0  0  0  0  0
    3.1511    0.1543   -0.6795 H   0  0  0  0  0  0  0  0  0  0  0  0
    3.0447   -0.1234    1.1603 H   0  0  0  0  0  0  0  0  0  0  0  0
    1.2763    1.4979   -2.1459 H   0  0  0  0  0  0  0  0  0  0  0  0
    2.0482    3.8743   -2.1470 H   0  0  0  0  0  0  0  0  0  0  0  0
    2.4071    5.0809    0.0214 H   0  0  0  0  0  0  0  0  0  0  0  0
    2.0084    3.8948    2.1942 H   0  0  0  0  0  0  0  0  0  0  0  0
    1.2503    1.5098    2.2004 H   0  0  0  0  0  0  0  0  0  0  0  0
  1 17  1  1  0  0  0
  1  5  1  0  0  0  0
  2 18  1  6  0  0  0
  2  1  1  0  0  0  0
  3 19  1  6  0  0  0
  3  2  1  0  0  0  0
  3  1  1  0  0  0  0
  4  7  1  0  0  0  0
  4  8  1  0  0  0  0
  5  8  1  0  0  0  0
  5 21  1  1  0  0  0
  7 24  1  0  0  0  0
  7 27  1  0  0  0  0
  8 25  1  0  0  0  0
  9  5  1  0  0  0  0
 10 22  1  6  0  0  0
 10  6  1  0  0  0  0
 10  3  1  0  0  0  0
 10  2  1  0  0  0  0
 11  9  1  0  0  0  0
 11 16  1  0  0  0  0
 12 11  2  0  0  0  0
 13 12  1  0  0  0  0
 13 14  2  0  0  0  0
 14 15  1  0  0  0  0
 15 16  2  0  0  0  0
 15 31  1  0  0  0  0
 16 32  1  0  0  0  0
 20  4  1  0  0  0  0
 23  6  1  0  0  0  0
 26  7  1  0  0  0  0
 28 12  1  0  0  0  0
 29 13  1  0  0  0  0
 30 14  1  0  0  0  0
M  END
