1
 OpenBabel05122313063D

 64 69  0  0  0  0  0  0  0  0999 V2000
    0.1365    0.1666   -0.5401 P   0  0  0  0  0  0  0  0  0  0  0  0
    0.9043    2.2418   -2.2379 N   0  0  0  0  0  0  0  0  0  0  0  0
   -0.7557    2.1635    1.1694 N   0  0  0  0  0  0  0  0  0  0  0  0
   -1.2112   -1.1743   -2.5206 N   0  0  0  0  0  0  0  0  0  0  0  0
    2.2507    2.0413   -0.4532 N   0  0  0  0  0  0  0  0  0  0  0  0
   -1.2370    0.1267    1.9823 N   0  0  0  0  0  0  0  0  0  0  0  0
   -2.0888    0.8699   -2.2117 N   0  0  0  0  0  0  0  0  0  0  0  0
    1.1260    1.5823   -1.1038 C   0  0  0  0  0  0  0  0  0  0  0  0
   -0.6708    0.8493    0.9464 C   0  0  0  0  0  0  0  0  0  0  0  0
   -1.1193   -0.0379   -1.8290 C   0  0  0  0  0  0  0  0  0  0  0  0
    1.9143    3.1665   -2.3238 C   0  0  0  0  0  0  0  0  0  0  0  0
   -1.4134    2.3009    2.3606 C   0  0  0  0  0  0  0  0  0  0  0  0
   -2.2632   -1.0033   -3.3770 C   0  0  0  0  0  0  0  0  0  0  0  0
    2.7609    3.0614   -1.2270 C   0  0  0  0  0  0  0  0  0  0  0  0
   -1.7250    1.0501    2.8802 C   0  0  0  0  0  0  0  0  0  0  0  0
   -2.8258    0.2566   -3.1983 C   0  0  0  0  0  0  0  0  0  0  0  0
    2.7491    1.6179    0.8611 C   0  0  0  0  0  0  0  0  0  0  0  0
   -1.3552   -1.3318    2.1261 C   0  0  0  0  0  0  0  0  0  0  0  0
   -2.3203    2.2120   -1.6953 C   0  0  0  0  0  0  0  0  0  0  0  0
    4.2439    1.4006    0.8738 C   0  0  0  0  0  0  0  0  0  0  0  0
   -2.5940   -1.9001    1.4671 C   0  0  0  0  0  0  0  0  0  0  0  0
   -3.3958    2.3073   -0.6308 C   0  0  0  0  0  0  0  0  0  0  0  0
    5.1070    2.3701    1.4182 C   0  0  0  0  0  0  0  0  0  0  0  0
   -3.8394   -1.8474    2.1231 C   0  0  0  0  0  0  0  0  0  0  0  0
   -4.0411    1.1813   -0.0926 C   0  0  0  0  0  0  0  0  0  0  0  0
    6.4972    2.1750    1.4023 C   0  0  0  0  0  0  0  0  0  0  0  0
   -4.9973   -2.3231    1.4911 C   0  0  0  0  0  0  0  0  0  0  0  0
   -5.0015    1.3346    0.9222 C   0  0  0  0  0  0  0  0  0  0  0  0
    7.0337    1.0051    0.8429 C   0  0  0  0  0  0  0  0  0  0  0  0
   -4.9222   -2.8495    0.1905 C   0  0  0  0  0  0  0  0  0  0  0  0
   -5.3249    2.6084    1.4090 C   0  0  0  0  0  0  0  0  0  0  0  0
    6.1774    0.0301    0.3043 C   0  0  0  0  0  0  0  0  0  0  0  0
   -3.6823   -2.9174   -0.4633 C   0  0  0  0  0  0  0  0  0  0  0  0
   -4.6815    3.7375    0.8745 C   0  0  0  0  0  0  0  0  0  0  0  0
    4.7899    0.2259    0.3180 C   0  0  0  0  0  0  0  0  0  0  0  0
   -2.5219   -2.4539    0.1754 C   0  0  0  0  0  0  0  0  0  0  0  0
   -3.7252    3.5859   -0.1370 C   0  0  0  0  0  0  0  0  0  0  0  0
    1.9919    3.8590   -3.1711 H   0  0  0  0  0  0  0  0  0  0  0  0
   -1.6382    3.2853    2.7884 H   0  0  0  0  0  0  0  0  0  0  0  0
   -2.5677   -1.7856   -4.0833 H   0  0  0  0  0  0  0  0  0  0  0  0
    3.6708    3.5967   -0.9369 H   0  0  0  0  0  0  0  0  0  0  0  0
   -2.2360    0.7395    3.7974 H   0  0  0  0  0  0  0  0  0  0  0  0
   -3.6685    0.7662   -3.6781 H   0  0  0  0  0  0  0  0  0  0  0  0
    2.4425    2.3743    1.6125 H   0  0  0  0  0  0  0  0  0  0  0  0
    2.2278    0.6718    1.1143 H   0  0  0  0  0  0  0  0  0  0  0  0
   -0.4392   -1.7856    1.6922 H   0  0  0  0  0  0  0  0  0  0  0  0
   -1.3514   -1.5453    3.2124 H   0  0  0  0  0  0  0  0  0  0  0  0
   -1.3610    2.5904   -1.2915 H   0  0  0  0  0  0  0  0  0  0  0  0
   -2.5678    2.8649   -2.5570 H   0  0  0  0  0  0  0  0  0  0  0  0
    4.6836    3.2845    1.8646 H   0  0  0  0  0  0  0  0  0  0  0  0
   -3.9042   -1.4269    3.1394 H   0  0  0  0  0  0  0  0  0  0  0  0
   -3.7963    0.1727   -0.4583 H   0  0  0  0  0  0  0  0  0  0  0  0
    7.1631    2.9382    1.8327 H   0  0  0  0  0  0  0  0  0  0  0  0
   -5.9644   -2.2837    2.0154 H   0  0  0  0  0  0  0  0  0  0  0  0
   -5.4961    0.4406    1.3281 H   0  0  0  0  0  0  0  0  0  0  0  0
    8.1231    0.8486    0.8330 H   0  0  0  0  0  0  0  0  0  0  0  0
   -5.8318   -3.2165   -0.3085 H   0  0  0  0  0  0  0  0  0  0  0  0
   -6.0788    2.7244    2.2025 H   0  0  0  0  0  0  0  0  0  0  0  0
    6.5903   -0.8960   -0.1230 H   0  0  0  0  0  0  0  0  0  0  0  0
   -3.6085   -3.3346   -1.4785 H   0  0  0  0  0  0  0  0  0  0  0  0
   -4.9271    4.7433    1.2487 H   0  0  0  0  0  0  0  0  0  0  0  0
    4.1215   -0.5491   -0.0919 H   0  0  0  0  0  0  0  0  0  0  0  0
   -1.5547   -2.5189   -0.3466 H   0  0  0  0  0  0  0  0  0  0  0  0
   -3.2150    4.4722   -0.5468 H   0  0  0  0  0  0  0  0  0  0  0  0
  1  9  1  0  0  0  0
  2  8  2  0  0  0  0
  3 12  1  0  0  0  0
  4 10  2  0  0  0  0
  5 17  1  0  0  0  0
  6 18  1  0  0  0  0
  6 15  1  0  0  0  0
  7 10  1  0  0  0  0
  7 19  1  0  0  0  0
  8  1  1  0  0  0  0
  8  5  1  0  0  0  0
  9  3  2  0  0  0  0
  9  6  1  0  0  0  0
 10  1  1  0  0  0  0
 11  2  1  0  0  0  0
 11 14  2  0  0  0  0
 12 39  1  0  0  0  0
 12 15  2  0  0  0  0
 13 16  2  0  0  0  0
 13  4  1  0  0  0  0
 14 41  1  0  0  0  0
 14  5  1  0  0  0  0
 15 42  1  0  0  0  0
 16  7  1  0  0  0  0
 17 20  1  0  0  0  0
 17 45  1  0  0  0  0
 17 44  1  0  0  0  0
 18 47  1  0  0  0  0
 19 48  1  0  0  0  0
 19 22  1  0  0  0  0
 20 23  1  0  0  0  0
 21 24  1  0  0  0  0
 21 18  1  0  0  0  0
 22 37  2  0  0  0  0
 22 25  1  0  0  0  0
 23 50  1  0  0  0  0
 24 51  1  0  0  0  0
 25 28  2  0  0  0  0
 26 23  2  0  0  0  0
 26 53  1  0  0  0  0
 27 54  1  0  0  0  0
 27 24  2  0  0  0  0
 28 55  1  0  0  0  0
 28 31  1  0  0  0  0
 29 26  1  0  0  0  0
 30 27  1  0  0  0  0
 31 58  1  0  0  0  0
 32 35  1  0  0  0  0
 32 29  2  0  0  0  0
 33 36  1  0  0  0  0
 33 30  2  0  0  0  0
 34 61  1  0  0  0  0
 34 31  2  0  0  0  0
 35 20  2  0  0  0  0
 36 21  2  0  0  0  0
 37 34  1  0  0  0  0
 38 11  1  0  0  0  0
 40 13  1  0  0  0  0
 43 16  1  0  0  0  0
 46 18  1  0  0  0  0
 49 19  1  0  0  0  0
 52 25  1  0  0  0  0
 56 29  1  0  0  0  0
 57 30  1  0  0  0  0
 59 32  1  0  0  0  0
 60 33  1  0  0  0  0
 62 35  1  0  0  0  0
 63 36  1  0  0  0  0
 64 37  1  0  0  0  0
M  END
