1
 OpenBabel05122313063D

 63 68  0  0  1  0  0  0  0  0999 V2000
    0.1735   -0.3148    0.0524 P   0  0  1  0  0  0  0  0  0  0  0  0
   -3.3158   -0.8554   -1.8645 F   0  0  0  0  0  0  0  0  0  0  0  0
   -5.9732   -0.8239   -1.8281 F   0  0  0  0  0  0  0  0  0  0  0  0
   -7.3476    1.3586   -0.9011 F   0  0  0  0  0  0  0  0  0  0  0  0
   -5.9672    3.5403    0.0274 F   0  0  0  0  0  0  0  0  0  0  0  0
   -3.2697    3.5404    0.0258 F   0  0  0  0  0  0  0  0  0  0  0  0
    0.2818    3.5099   -1.1154 F   0  0  0  0  0  0  0  0  0  0  0  0
    2.3985    5.1439   -1.2027 F   0  0  0  0  0  0  0  0  0  0  0  0
    4.4187    4.9227    0.6341 F   0  0  0  0  0  0  0  0  0  0  0  0
    4.2661    3.0124    2.6011 F   0  0  0  0  0  0  0  0  0  0  0  0
    2.1171    1.3675    2.7246 F   0  0  0  0  0  0  0  0  0  0  0  0
   -1.0626    0.1065   -1.0109 O   0  0  0  0  0  0  0  0  0  0  0  0
   -1.2738    1.8510    0.5035 O   0  0  0  0  0  0  0  0  0  0  0  0
   -1.6541    1.3748   -0.7846 C   0  0  2  0  0  0  0  0  0  0  0  0
   -1.2653    2.0657   -1.5662 H   0  0  0  0  0  0  0  0  0  0  0  0
   -0.0226    1.3777    0.9477 C   0  0  2  0  0  0  0  0  0  0  0  0
   -0.1093    1.1395    2.0280 H   0  0  0  0  0  0  0  0  0  0  0  0
   -3.1720    1.3236   -0.8501 C   0  0  0  0  0  0  0  0  0  0  0  0
   -3.9027    0.2408   -1.3726 C   0  0  0  0  0  0  0  0  0  0  0  0
   -5.3091    0.2473   -1.3851 C   0  0  0  0  0  0  0  0  0  0  0  0
   -6.0140    1.3601   -0.9090 C   0  0  0  0  0  0  0  0  0  0  0  0
   -5.3061    2.4691   -0.4185 C   0  0  0  0  0  0  0  0  0  0  0  0
   -3.9036    2.4468   -0.4131 C   0  0  0  0  0  0  0  0  0  0  0  0
    1.1312    2.3462    0.7997 C   0  0  0  0  0  0  0  0  0  0  0  0
    1.2283    3.3522   -0.1788 C   0  0  0  0  0  0  0  0  0  0  0  0
    2.3318    4.2188   -0.2455 C   0  0  0  0  0  0  0  0  0  0  0  0
    3.3673    4.1077    0.6960 C   0  0  0  0  0  0  0  0  0  0  0  0
    3.2910    3.1284    1.7004 C   0  0  0  0  0  0  0  0  0  0  0  0
    2.1740    2.2839    1.7455 C   0  0  0  0  0  0  0  0  0  0  0  0
   -0.7154   -1.6000    1.2800 C   0  0  0  0  0  0  0  0  0  0  0  0
   -0.5412   -2.9704    0.6068 C   0  0  0  0  0  0  0  0  0  0  0  0
   -0.8386   -3.1335   -0.7653 C   0  0  0  0  0  0  0  0  0  0  0  0
   -1.2077   -2.2791   -1.3504 H   0  0  0  0  0  0  0  0  0  0  0  0
   -0.7073   -4.3819   -1.3886 C   0  0  0  0  0  0  0  0  0  0  0  0
   -0.9293   -4.4744   -2.4623 H   0  0  0  0  0  0  0  0  0  0  0  0
   -0.2935   -5.4995   -0.6472 C   0  0  0  0  0  0  0  0  0  0  0  0
   -0.1841   -6.4796   -1.1352 H   0  0  0  0  0  0  0  0  0  0  0  0
   -0.0212   -5.3556    0.7207 C   0  0  0  0  0  0  0  0  0  0  0  0
    0.3000   -6.2247    1.3143 H   0  0  0  0  0  0  0  0  0  0  0  0
   -0.1392   -4.1025    1.3414 C   0  0  0  0  0  0  0  0  0  0  0  0
    0.0895   -4.0050    2.4115 H   0  0  0  0  0  0  0  0  0  0  0  0
   -2.2036   -1.2432    1.4438 C   0  0  0  0  0  0  0  0  0  0  0  0
   -2.6064   -0.0944    2.1648 C   0  0  0  0  0  0  0  0  0  0  0  0
   -1.8568    0.5597    2.6255 H   0  0  0  0  0  0  0  0  0  0  0  0
   -3.9587    0.2237    2.3437 C   0  0  0  0  0  0  0  0  0  0  0  0
   -4.2293    1.1310    2.9043 H   0  0  0  0  0  0  0  0  0  0  0  0
   -4.9573   -0.6075    1.8151 C   0  0  0  0  0  0  0  0  0  0  0  0
   -6.0208   -0.3587    1.9512 H   0  0  0  0  0  0  0  0  0  0  0  0
   -4.5810   -1.7624    1.1158 C   0  0  0  0  0  0  0  0  0  0  0  0
   -5.3475   -2.4290    0.6934 H   0  0  0  0  0  0  0  0  0  0  0  0
   -3.2251   -2.0750    0.9357 C   0  0  0  0  0  0  0  0  0  0  0  0
   -2.9631   -2.9902    0.3913 H   0  0  0  0  0  0  0  0  0  0  0  0
    0.0570   -1.5484    2.6082 C   0  0  0  0  0  0  0  0  0  0  0  0
   -0.5932   -1.5868    3.8601 C   0  0  0  0  0  0  0  0  0  0  0  0
   -1.6897   -1.6240    3.9063 H   0  0  0  0  0  0  0  0  0  0  0  0
    0.1439   -1.5997    5.0548 C   0  0  0  0  0  0  0  0  0  0  0  0
   -0.3900   -1.6334    6.0167 H   0  0  0  0  0  0  0  0  0  0  0  0
    1.5462   -1.5748    5.0286 C   0  0  0  0  0  0  0  0  0  0  0  0
    2.1206   -1.5748    5.9671 H   0  0  0  0  0  0  0  0  0  0  0  0
    2.2071   -1.5637    3.7917 C   0  0  0  0  0  0  0  0  0  0  0  0
    3.3062   -1.5522    3.7438 H   0  0  0  0  0  0  0  0  0  0  0  0
    1.4684   -1.5655    2.6018 C   0  0  0  0  0  0  0  0  0  0  0  0
    2.0034   -1.5956    1.6434 H   0  0  0  0  0  0  0  0  0  0  0  0
  1 16  1  0  0  0  0
  1 30  1  1  0  0  0
  2 19  1  0  0  0  0
  3 20  1  0  0  0  0
  7 25  1  0  0  0  0
  8 26  1  0  0  0  0
  9 27  1  0  0  0  0
 12 14  1  0  0  0  0
 12  1  1  0  0  0  0
 13 16  1  0  0  0  0
 14 15  1  6  0  0  0
 14 13  1  0  0  0  0
 16 17  1  1  0  0  0
 18 14  1  0  0  0  0
 18 23  1  0  0  0  0
 19 18  2  0  0  0  0
 20 19  1  0  0  0  0
 20 21  2  0  0  0  0
 21  4  1  0  0  0  0
 21 22  1  0  0  0  0
 22 23  2  0  0  0  0
 22  5  1  0  0  0  0
 23  6  1  0  0  0  0
 24 16  1  0  0  0  0
 24 29  1  0  0  0  0
 25 24  2  0  0  0  0
 26 25  1  0  0  0  0
 26 27  2  0  0  0  0
 27 28  1  0  0  0  0
 28 29  2  0  0  0  0
 28 10  1  0  0  0  0
 29 11  1  0  0  0  0
 30 42  1  0  0  0  0
 30 53  1  0  0  0  0
 31 30  1  0  0  0  0
 31 40  1  0  0  0  0
 32 31  2  0  0  0  0
 33 32  1  0  0  0  0
 34 32  1  0  0  0  0
 34 36  2  0  0  0  0
 35 34  1  0  0  0  0
 36 38  1  0  0  0  0
 37 36  1  0  0  0  0
 38 39  1  0  0  0  0
 38 40  2  0  0  0  0
 40 41  1  0  0  0  0
 42 43  1  0  0  0  0
 43 45  2  0  0  0  0
 43 44  1  0  0  0  0
 45 46  1  0  0  0  0
 47 48  1  0  0  0  0
 47 45  1  0  0  0  0
 49 47  2  0  0  0  0
 50 49  1  0  0  0  0
 51 49  1  0  0  0  0
 51 42  2  0  0  0  0
 52 51  1  0  0  0  0
 53 54  1  0  0  0  0
 54 55  1  0  0  0  0
 54 56  2  0  0  0  0
 56 57  1  0  0  0  0
 58 56  1  0  0  0  0
 58 59  1  0  0  0  0
 60 58  2  0  0  0  0
 61 60  1  0  0  0  0
 62 53  2  0  0  0  0
 62 60  1  0  0  0  0
 63 62  1  0  0  0  0
M  END
