2
 OpenBabel05122313063D

 56 58  0  0  0  0  0  0  0  0999 V2000
    1.5449    0.9025   -0.8129 P   0  0  1  0  0  0  0  0  0  0  0  0
   -0.0013   -0.5294   -0.0250 P   0  0  2  0  0  0  0  0  0  0  0  0
    2.5176    3.6580    0.3148 Si  0  0  0  0  0  0  0  0  0  0  0  0
   -0.1128   -2.3588    2.6840 Si  0  0  0  0  0  0  0  0  0  0  0  0
    1.7217    1.9646    0.6773 C   0  0  0  0  0  0  0  0  0  0  0  0
    1.3291    1.6042    1.9407 C   0  0  0  0  0  0  0  0  0  0  0  0
    1.4558    2.3592    2.7381 H   0  0  0  0  0  0  0  0  0  0  0  0
    0.8698    0.3092    2.4335 C   0  0  0  0  0  0  0  0  0  0  0  0
    0.9298    0.2137    3.5331 H   0  0  0  0  0  0  0  0  0  0  0  0
    0.3988   -0.7735    1.7352 C   0  0  0  0  0  0  0  0  0  0  0  0
    3.1202   -0.0637   -0.7733 C   0  0  0  0  0  0  0  0  0  0  0  0
    3.5041   -0.6982   -1.9747 C   0  0  0  0  0  0  0  0  0  0  0  0
    2.8834   -0.5719   -2.8759 H   0  0  0  0  0  0  0  0  0  0  0  0
    4.6550   -1.4981   -2.0191 C   0  0  0  0  0  0  0  0  0  0  0  0
    4.9406   -1.9938   -2.9593 H   0  0  0  0  0  0  0  0  0  0  0  0
    5.4388   -1.6648   -0.8663 C   0  0  0  0  0  0  0  0  0  0  0  0
    6.3440   -2.2902   -0.9003 H   0  0  0  0  0  0  0  0  0  0  0  0
    5.0695   -1.0266    0.3304 C   0  0  0  0  0  0  0  0  0  0  0  0
    5.6848   -1.1535    1.2346 H   0  0  0  0  0  0  0  0  0  0  0  0
    3.9171   -0.2289    0.3792 C   0  0  0  0  0  0  0  0  0  0  0  0
    3.6220    0.2650    1.3168 H   0  0  0  0  0  0  0  0  0  0  0  0
    0.4740   -2.0738   -0.8976 C   0  0  0  0  0  0  0  0  0  0  0  0
    1.5861   -2.8236   -0.4600 C   0  0  0  0  0  0  0  0  0  0  0  0
    2.1611   -2.4885    0.4142 H   0  0  0  0  0  0  0  0  0  0  0  0
    1.9731   -3.9809   -1.1492 C   0  0  0  0  0  0  0  0  0  0  0  0
    2.8410   -4.5578   -0.7956 H   0  0  0  0  0  0  0  0  0  0  0  0
    1.2684   -4.3892   -2.2930 C   0  0  0  0  0  0  0  0  0  0  0  0
    1.5739   -5.2971   -2.8349 H   0  0  0  0  0  0  0  0  0  0  0  0
    0.1773   -3.6321   -2.7485 C   0  0  0  0  0  0  0  0  0  0  0  0
   -0.3753   -3.9424   -3.6481 H   0  0  0  0  0  0  0  0  0  0  0  0
   -0.2205   -2.4794   -2.0546 C   0  0  0  0  0  0  0  0  0  0  0  0
   -1.0780   -1.8915   -2.4113 H   0  0  0  0  0  0  0  0  0  0  0  0
    4.2964    3.3440   -0.2580 C   0  0  0  0  0  0  0  0  0  0  0  0
    4.3202    2.7115   -1.1686 H   0  0  0  0  0  0  0  0  0  0  0  0
    4.8888    2.8277    0.5241 H   0  0  0  0  0  0  0  0  0  0  0  0
    4.7969    4.3053   -0.4972 H   0  0  0  0  0  0  0  0  0  0  0  0
    2.5031    4.7012    1.8915 C   0  0  0  0  0  0  0  0  0  0  0  0
    2.9561    5.6937    1.6902 H   0  0  0  0  0  0  0  0  0  0  0  0
    3.0825    4.2283    2.7105 H   0  0  0  0  0  0  0  0  0  0  0  0
    1.4664    4.8699    2.2478 H   0  0  0  0  0  0  0  0  0  0  0  0
    1.5660    4.5265   -1.0662 C   0  0  0  0  0  0  0  0  0  0  0  0
    2.0669    5.4781   -1.3398 H   0  0  0  0  0  0  0  0  0  0  0  0
    0.5277    4.7518   -0.7537 H   0  0  0  0  0  0  0  0  0  0  0  0
    1.5196    3.8871   -1.9711 H   0  0  0  0  0  0  0  0  0  0  0  0
    1.3652   -3.5300    2.8994 C   0  0  0  0  0  0  0  0  0  0  0  0
    1.1448   -4.2434    3.7209 H   0  0  0  0  0  0  0  0  0  0  0  0
    2.2850   -2.9729    3.1709 H   0  0  0  0  0  0  0  0  0  0  0  0
    1.5700   -4.1192    1.9850 H   0  0  0  0  0  0  0  0  0  0  0  0
   -1.5165   -3.2486    1.7900 C   0  0  0  0  0  0  0  0  0  0  0  0
   -1.7600   -4.1859    2.3320 H   0  0  0  0  0  0  0  0  0  0  0  0
   -1.2462   -3.5180    0.7502 H   0  0  0  0  0  0  0  0  0  0  0  0
   -2.4335   -2.6287    1.7582 H   0  0  0  0  0  0  0  0  0  0  0  0
   -0.6843   -1.8254    4.4076 C   0  0  0  0  0  0  0  0  0  0  0  0
   -1.5047   -1.0841    4.3450 H   0  0  0  0  0  0  0  0  0  0  0  0
    0.1412   -1.3901    5.0071 H   0  0  0  0  0  0  0  0  0  0  0  0
   -1.0601   -2.7125    4.9585 H   0  0  0  0  0  0  0  0  0  0  0  0
  1 11  1  1  0  0  0
  1  2  1  0  0  0  0
  1  5  1  0  0  0  0
  2 22  1  6  0  0  0
  2 10  1  0  0  0  0
  3  5  1  0  0  0  0
  3 37  1  0  0  0  0
  4 45  1  0  0  0  0
  4 53  1  0  0  0  0
  5  6  2  0  0  0  0
  6  8  1  0  0  0  0
  6  7  1  0  0  0  0
  8  9  1  0  0  0  0
 10  8  2  0  0  0  0
 10  4  1  0  0  0  0
 11 20  1  0  0  0  0
 12 11  2  0  0  0  0
 13 12  1  0  0  0  0
 14 12  1  0  0  0  0
 14 16  2  0  0  0  0
 15 14  1  0  0  0  0
 16 18  1  0  0  0  0
 17 16  1  0  0  0  0
 18 20  2  0  0  0  0
 18 19  1  0  0  0  0
 20 21  1  0  0  0  0
 22 23  1  0  0  0  0
 23 24  1  0  0  0  0
 25 26  1  0  0  0  0
 25 23  2  0  0  0  0
 27 25  1  0  0  0  0
 28 27  1  0  0  0  0
 29 27  2  0  0  0  0
 29 31  1  0  0  0  0
 30 29  1  0  0  0  0
 31 22  2  0  0  0  0
 32 31  1  0  0  0  0
 33  3  1  0  0  0  0
 33 35  1  0  0  0  0
 34 33  1  0  0  0  0
 36 33  1  0  0  0  0
 37 40  1  0  0  0  0
 37 39  1  0  0  0  0
 38 37  1  0  0  0  0
 41 43  1  0  0  0  0
 41  3  1  0  0  0  0
 42 41  1  0  0  0  0
 44 41  1  0  0  0  0
 45 47  1  0  0  0  0
 45 46  1  0  0  0  0
 48 45  1  0  0  0  0
 49 50  1  0  0  0  0
 49  4  1  0  0  0  0
 51 49  1  0  0  0  0
 52 49  1  0  0  0  0
 53 56  1  0  0  0  0
 53 55  1  0  0  0  0
 54 53  1  0  0  0  0
M  END
