1
 OpenBabel05122313063D

 72 74  0  0  0  0  0  0  0  0999 V2000
   -0.2407   -0.3470   -0.0144 P   0  0  0  0  0  2  0  0  0  0  0  0
    0.0706    1.2559    0.1454 C   0  0  0  0  0  2  0  0  0  0  0  0
    0.1827    2.5787    0.3122 C   0  0  0  0  0  3  0  0  0  0  0  0
    0.6526    3.1052    1.6250 C   0  0  0  0  0  0  0  0  0  0  0  0
    1.7123    2.4661    2.3051 C   0  0  0  0  0  0  0  0  0  0  0  0
    2.1384    2.9351    3.5547 C   0  0  0  0  0  0  0  0  0  0  0  0
    1.5113    4.0463    4.1419 C   0  0  0  0  0  0  0  0  0  0  0  0
    0.4591    4.6903    3.4696 C   0  0  0  0  0  0  0  0  0  0  0  0
    0.0332    4.2279    2.2170 C   0  0  0  0  0  0  0  0  0  0  0  0
   -0.1516    3.5203   -0.7901 C   0  0  0  0  0  0  0  0  0  0  0  0
    0.5804    4.7155   -0.9690 C   0  0  0  0  0  0  0  0  0  0  0  0
    0.2798    5.5776   -2.0323 C   0  0  0  0  0  0  0  0  0  0  0  0
   -0.7579    5.2653   -2.9262 C   0  0  0  0  0  0  0  0  0  0  0  0
   -1.4991    4.0853   -2.7490 C   0  0  0  0  0  0  0  0  0  0  0  0
   -1.1999    3.2213   -1.6889 C   0  0  0  0  0  0  0  0  0  0  0  0
    1.4630   -1.0649   -0.2816 C   0  0  0  0  0  0  0  0  0  0  0  0
    2.1867   -1.5331    0.8624 C   0  0  0  0  0  0  0  0  0  0  0  0
    3.5909   -1.5933    0.7630 C   0  0  0  0  0  0  0  0  0  0  0  0
    4.2894   -1.2659   -0.4073 C   0  0  0  0  0  0  0  0  0  0  0  0
    3.5258   -0.9868   -1.5514 C   0  0  0  0  0  0  0  0  0  0  0  0
    2.1222   -0.8996   -1.5421 C   0  0  0  0  0  0  0  0  0  0  0  0
    1.5141   -2.0981    2.1453 C   0  0  0  0  0  0  0  0  0  0  0  0
    2.5428   -2.7567    3.0897 C   0  0  0  0  0  0  0  0  0  0  0  0
    0.7837   -1.0280    2.9880 C   0  0  0  0  0  0  0  0  0  0  0  0
    0.5393   -3.2153    1.7065 C   0  0  0  0  0  0  0  0  0  0  0  0
    5.8247   -1.2571   -0.4879 C   0  0  0  0  0  0  0  0  0  0  0  0
    6.2907   -2.3024   -1.5270 C   0  0  0  0  0  0  0  0  0  0  0  0
    6.4796   -1.5891    0.8640 C   0  0  0  0  0  0  0  0  0  0  0  0
    6.2906    0.1507   -0.9251 C   0  0  0  0  0  0  0  0  0  0  0  0
    1.3930   -0.7097   -2.9013 C   0  0  0  0  0  0  0  0  0  0  0  0
    2.3251   -1.0483   -4.0869 C   0  0  0  0  0  0  0  0  0  0  0  0
    0.9127    0.7441   -3.1091 C   0  0  0  0  0  0  0  0  0  0  0  0
    0.2029   -1.6870   -2.9894 C   0  0  0  0  0  0  0  0  0  0  0  0
    2.2053    1.6056    1.8276 H   0  0  0  0  0  0  0  0  0  0  0  0
    2.9705    2.4332    4.0720 H   0  0  0  0  0  0  0  0  0  0  0  0
    1.8456    4.4146    5.1237 H   0  0  0  0  0  0  0  0  0  0  0  0
   -0.0382    5.5587    3.9277 H   0  0  0  0  0  0  0  0  0  0  0  0
   -0.7981    4.7238    1.6941 H   0  0  0  0  0  0  0  0  0  0  0  0
    1.3981    4.9575   -0.2739 H   0  0  0  0  0  0  0  0  0  0  0  0
    0.8632    6.5013   -2.1663 H   0  0  0  0  0  0  0  0  0  0  0  0
   -0.9935    5.9462   -3.7581 H   0  0  0  0  0  0  0  0  0  0  0  0
   -2.3214    3.8364   -3.4366 H   0  0  0  0  0  0  0  0  0  0  0  0
   -1.7908    2.3078   -1.5332 H   0  0  0  0  0  0  0  0  0  0  0  0
    4.1598   -1.9130    1.6408 H   0  0  0  0  0  0  0  0  0  0  0  0
    4.0516   -0.8246   -2.4997 H   0  0  0  0  0  0  0  0  0  0  0  0
    3.2606   -2.0234    3.5093 H   0  0  0  0  0  0  0  0  0  0  0  0
    2.0024   -3.2107    3.9439 H   0  0  0  0  0  0  0  0  0  0  0  0
    3.1155   -3.5633    2.5905 H   0  0  0  0  0  0  0  0  0  0  0  0
   -0.0425   -0.5315    2.4474 H   0  0  0  0  0  0  0  0  0  0  0  0
    0.3464   -1.5005    3.8907 H   0  0  0  0  0  0  0  0  0  0  0  0
    1.4845   -0.2363    3.3178 H   0  0  0  0  0  0  0  0  0  0  0  0
    1.0832   -4.0200    1.1726 H   0  0  0  0  0  0  0  0  0  0  0  0
    0.0325   -3.6579    2.5879 H   0  0  0  0  0  0  0  0  0  0  0  0
   -0.2465   -2.8389    1.0261 H   0  0  0  0  0  0  0  0  0  0  0  0
    5.8875   -2.0889   -2.5368 H   0  0  0  0  0  0  0  0  0  0  0  0
    7.3978   -2.3067   -1.6012 H   0  0  0  0  0  0  0  0  0  0  0  0
    5.9602   -3.3209   -1.2395 H   0  0  0  0  0  0  0  0  0  0  0  0
    6.2140   -2.6070    1.2140 H   0  0  0  0  0  0  0  0  0  0  0  0
    7.5830   -1.5494    0.7663 H   0  0  0  0  0  0  0  0  0  0  0  0
    6.1875   -0.8657    1.6518 H   0  0  0  0  0  0  0  0  0  0  0  0
    5.9686    0.9193   -0.1936 H   0  0  0  0  0  0  0  0  0  0  0  0
    7.3972    0.1867   -1.0000 H   0  0  0  0  0  0  0  0  0  0  0  0
    5.8757    0.4318   -1.9133 H   0  0  0  0  0  0  0  0  0  0  0  0
    2.7763   -2.0559   -3.9882 H   0  0  0  0  0  0  0  0  0  0  0  0
    1.7317   -1.0330   -5.0227 H   0  0  0  0  0  0  0  0  0  0  0  0
    3.1409   -0.3087   -4.2119 H   0  0  0  0  0  0  0  0  0  0  0  0
    1.7434    1.4638   -2.9651 H   0  0  0  0  0  0  0  0  0  0  0  0
    0.5226    0.8694   -4.1400 H   0  0  0  0  0  0  0  0  0  0  0  0
    0.1049    1.0241   -2.4132 H   0  0  0  0  0  0  0  0  0  0  0  0
   -0.5475   -1.5111   -2.1962 H   0  0  0  0  0  0  0  0  0  0  0  0
   -0.3226   -1.5673   -3.9584 H   0  0  0  0  0  0  0  0  0  0  0  0
    0.5399   -2.7391   -2.8990 H   0  0  0  0  0  0  0  0  0  0  0  0
  1  2  1  0  0  0  0
  2  3  1  0  0  0  0
  3  4  1  0  0  0  0
  4  9  2  0  0  0  0
  4  5  1  0  0  0  0
  5  6  2  0  0  0  0
  6 35  1  0  0  0  0
  6  7  1  0  0  0  0
  7 36  1  0  0  0  0
  8 37  1  0  0  0  0
  8  7  2  0  0  0  0
  9  8  1  0  0  0  0
 10  3  1  0  0  0  0
 11 10  1  0  0  0  0
 11 39  1  0  0  0  0
 12 11  2  0  0  0  0
 13 14  2  0  0  0  0
 13 12  1  0  0  0  0
 14 15  1  0  0  0  0
 15 43  1  0  0  0  0
 15 10  2  0  0  0  0
 16  1  1  0  0  0  0
 16 17  1  0  0  0  0
 17 22  1  0  0  0  0
 18 17  2  0  0  0  0
 18 44  1  0  0  0  0
 19 18  1  0  0  0  0
 20 21  1  0  0  0  0
 20 19  2  0  0  0  0
 21 16  2  0  0  0  0
 22 24  1  0  0  0  0
 22 23  1  0  0  0  0
 23 46  1  0  0  0  0
 23 47  1  0  0  0  0
 24 51  1  0  0  0  0
 24 50  1  0  0  0  0
 25 22  1  0  0  0  0
 25 53  1  0  0  0  0
 26 19  1  0  0  0  0
 26 28  1  0  0  0  0
 27 57  1  0  0  0  0
 27 26  1  0  0  0  0
 28 58  1  0  0  0  0
 28 60  1  0  0  0  0
 29 26  1  0  0  0  0
 29 61  1  0  0  0  0
 30 21  1  0  0  0  0
 31 64  1  0  0  0  0
 31 30  1  0  0  0  0
 32 67  1  0  0  0  0
 32 30  1  0  0  0  0
 32 69  1  0  0  0  0
 33 30  1  0  0  0  0
 33 72  1  0  0  0  0
 33 70  1  0  0  0  0
 34  5  1  0  0  0  0
 38  9  1  0  0  0  0
 40 12  1  0  0  0  0
 41 13  1  0  0  0  0
 42 14  1  0  0  0  0
 45 20  1  0  0  0  0
 48 23  1  0  0  0  0
 49 24  1  0  0  0  0
 52 25  1  0  0  0  0
 54 25  1  0  0  0  0
 55 27  1  0  0  0  0
 56 27  1  0  0  0  0
 59 28  1  0  0  0  0
 62 29  1  0  0  0  0
 63 29  1  0  0  0  0
 65 31  1  0  0  0  0
 66 31  1  0  0  0  0
 68 32  1  0  0  0  0
 71 33  1  0  0  0  0
M  END
