1
 OpenBabel05122313063D

 38 38  0  0  0  0  0  0  0  0999 V2000
   -0.9159   -0.2834    0.0206 P   0  0  0  0  0  0  0  0  0  0  0  0
   -1.4966   -1.9793   -1.4225 Si  0  0  0  0  0  0  0  0  0  0  0  0
   -1.8249   -0.8740    2.0596 Si  0  0  0  0  0  0  0  0  0  0  0  0
   -1.9869    1.1826   -0.3635 C   0  0  0  0  0  0  0  0  0  0  0  0
   -3.1402    1.1026   -1.1712 C   0  0  0  0  0  0  0  0  0  0  0  0
   -3.4291    0.1481   -1.6310 H   0  0  0  0  0  0  0  0  0  0  0  0
   -3.9389    2.2349   -1.3935 C   0  0  0  0  0  0  0  0  0  0  0  0
   -4.8307    2.1525   -2.0334 H   0  0  0  0  0  0  0  0  0  0  0  0
   -3.6053    3.4635   -0.8038 C   0  0  0  0  0  0  0  0  0  0  0  0
   -4.2325    4.3505   -0.9784 H   0  0  0  0  0  0  0  0  0  0  0  0
   -2.4621    3.5534    0.0056 C   0  0  0  0  0  0  0  0  0  0  0  0
   -2.1859    4.5121    0.4700 H   0  0  0  0  0  0  0  0  0  0  0  0
   -1.6565    2.4256    0.2192 C   0  0  0  0  0  0  0  0  0  0  0  0
   -0.7535    2.5142    0.8398 H   0  0  0  0  0  0  0  0  0  0  0  0
   -1.2603   -1.3315   -3.1806 C   0  0  0  0  0  0  0  0  0  0  0  0
   -1.8767   -0.4338   -3.3826 H   0  0  0  0  0  0  0  0  0  0  0  0
   -1.5489   -2.1207   -3.9061 H   0  0  0  0  0  0  0  0  0  0  0  0
   -0.2004   -1.0710   -3.3644 H   0  0  0  0  0  0  0  0  0  0  0  0
   -3.2701   -2.6076   -1.1711 C   0  0  0  0  0  0  0  0  0  0  0  0
   -3.4535   -3.4308   -1.8936 H   0  0  0  0  0  0  0  0  0  0  0  0
   -4.0479   -1.8371   -1.3358 H   0  0  0  0  0  0  0  0  0  0  0  0
   -3.4099   -3.0210   -0.1525 H   0  0  0  0  0  0  0  0  0  0  0  0
   -0.3261   -3.4161   -1.0592 C   0  0  0  0  0  0  0  0  0  0  0  0
   -0.6332   -4.2851   -1.6785 H   0  0  0  0  0  0  0  0  0  0  0  0
   -0.3652   -3.7242    0.0030 H   0  0  0  0  0  0  0  0  0  0  0  0
    0.7223   -3.1735   -1.3107 H   0  0  0  0  0  0  0  0  0  0  0  0
   -1.4973   -2.7015    2.4169 C   0  0  0  0  0  0  0  0  0  0  0  0
   -0.4135   -2.9295    2.4176 H   0  0  0  0  0  0  0  0  0  0  0  0
   -2.0006   -3.3719    1.6930 H   0  0  0  0  0  0  0  0  0  0  0  0
   -1.8948   -2.9377    3.4264 H   0  0  0  0  0  0  0  0  0  0  0  0
   -3.6804   -0.5209    1.9927 C   0  0  0  0  0  0  0  0  0  0  0  0
   -4.1876   -1.0989    1.1957 H   0  0  0  0  0  0  0  0  0  0  0  0
   -3.8703    0.5553    1.8092 H   0  0  0  0  0  0  0  0  0  0  0  0
   -4.1425   -0.7946    2.9645 H   0  0  0  0  0  0  0  0  0  0  0  0
   -1.0164    0.1840    3.3942 C   0  0  0  0  0  0  0  0  0  0  0  0
   -1.5063   -0.0254    4.3683 H   0  0  0  0  0  0  0  0  0  0  0  0
   -1.1202    1.2667    3.1856 H   0  0  0  0  0  0  0  0  0  0  0  0
    0.0617   -0.0478    3.4939 H   0  0  0  0  0  0  0  0  0  0  0  0
  1  3  1  0  0  0  0
  2 19  1  0  0  0  0
  2 23  1  0  0  0  0
  2  1  1  0  0  0  0
  3 27  1  0  0  0  0
  3 35  1  0  0  0  0
  4  1  1  0  0  0  0
  4 13  1  0  0  0  0
  5  4  2  0  0  0  0
  6  5  1  0  0  0  0
  7  5  1  0  0  0  0
  7  9  2  0  0  0  0
  8  7  1  0  0  0  0
  9 11  1  0  0  0  0
 10  9  1  0  0  0  0
 11 13  2  0  0  0  0
 11 12  1  0  0  0  0
 13 14  1  0  0  0  0
 15  2  1  0  0  0  0
 16 15  1  0  0  0  0
 17 15  1  0  0  0  0
 18 15  1  0  0  0  0
 19 22  1  0  0  0  0
 20 19  1  0  0  0  0
 21 19  1  0  0  0  0
 23 25  1  0  0  0  0
 24 23  1  0  0  0  0
 26 23  1  0  0  0  0
 27 28  1  0  0  0  0
 27 30  1  0  0  0  0
 29 27  1  0  0  0  0
 31  3  1  0  0  0  0
 31 34  1  0  0  0  0
 32 31  1  0  0  0  0
 33 31  1  0  0  0  0
 35 38  1  0  0  0  0
 35 36  1  0  0  0  0
 37 35  1  0  0  0  0
M  END
