1
 OpenBabel05122313063D

 45 47  0  0  1  0  0  0  0  0999 V2000
   -0.6986    0.2603    0.2332 P   0  0  0  0  0  0  0  0  0  0  0  0
   -1.8488    1.1286   -0.9381 C   0  0  0  0  0  0  0  0  0  0  0  0
   -1.5569    1.2096   -2.3125 C   0  0  0  0  0  0  0  0  0  0  0  0
   -2.4133    1.9008   -3.1837 C   0  0  0  0  0  0  0  0  0  0  0  0
   -3.5706    2.5203   -2.6901 C   0  0  0  0  0  0  0  0  0  0  0  0
   -3.8742    2.4376   -1.3208 C   0  0  0  0  0  0  0  0  0  0  0  0
   -3.0231    1.7418   -0.4514 C   0  0  0  0  0  0  0  0  0  0  0  0
   -1.9777   -0.5676    1.2917 C   0  0  0  0  0  0  0  0  0  0  0  0
   -2.5872   -1.7248    0.7614 C   0  0  0  0  0  0  0  0  0  0  0  0
   -3.6072   -2.3804    1.4627 C   0  0  0  0  0  0  0  0  0  0  0  0
   -4.0331   -1.8924    2.7088 C   0  0  0  0  0  0  0  0  0  0  0  0
   -3.4396   -0.7386    3.2405 C   0  0  0  0  0  0  0  0  0  0  0  0
   -2.4217   -0.0765    2.5348 C   0  0  0  0  0  0  0  0  0  0  0  0
   -0.0342    1.6755    1.2981 C   0  0  2  0  0  0  0  0  0  0  0  0
    0.6993    2.7031    0.4550 C   0  0  0  0  0  0  0  0  0  0  0  0
    2.0007    2.7435    0.8856 C   0  0  0  0  0  0  0  0  0  0  0  0
    2.1829    1.8158    2.0169 C   0  0  0  0  0  0  0  0  0  0  0  0
    0.9998    1.1714    2.2845 C   0  0  0  0  0  0  0  0  0  0  0  0
    0.0765    3.5789   -0.5888 C   0  0  0  0  0  0  0  0  0  0  0  0
    3.1089    3.5847    0.3352 C   0  0  0  0  0  0  0  0  0  0  0  0
    3.4888    1.6781    2.7331 C   0  0  0  0  0  0  0  0  0  0  0  0
    0.7567    0.1198    3.3198 C   0  0  0  0  0  0  0  0  0  0  0  0
   -0.6482    0.7341   -2.7052 H   0  0  0  0  0  0  0  0  0  0  0  0
   -2.1706    1.9529   -4.2557 H   0  0  0  0  0  0  0  0  0  0  0  0
   -4.2425    3.0618   -3.3731 H   0  0  0  0  0  0  0  0  0  0  0  0
   -4.7861    2.9119   -0.9271 H   0  0  0  0  0  0  0  0  0  0  0  0
   -3.2829    1.6668    0.6154 H   0  0  0  0  0  0  0  0  0  0  0  0
   -2.2621   -2.1125   -0.2159 H   0  0  0  0  0  0  0  0  0  0  0  0
   -4.0688   -3.2823    1.0334 H   0  0  0  0  0  0  0  0  0  0  0  0
   -4.8284   -2.4117    3.2643 H   0  0  0  0  0  0  0  0  0  0  0  0
   -3.7683   -0.3458    4.2147 H   0  0  0  0  0  0  0  0  0  0  0  0
   -1.9778    0.8293    2.9700 H   0  0  0  0  0  0  0  0  0  0  0  0
   -0.9199    2.1339    1.7933 H   0  0  0  0  0  0  0  0  0  0  0  0
   -0.9950    3.7698   -0.3865 H   0  0  0  0  0  0  0  0  0  0  0  0
    0.1288    3.1381   -1.6066 H   0  0  0  0  0  0  0  0  0  0  0  0
    0.5949    4.5575   -0.6366 H   0  0  0  0  0  0  0  0  0  0  0  0
    3.8687    2.9505   -0.1711 H   0  0  0  0  0  0  0  0  0  0  0  0
    3.6429    4.1401    1.1344 H   0  0  0  0  0  0  0  0  0  0  0  0
    2.7458    4.3152   -0.4121 H   0  0  0  0  0  0  0  0  0  0  0  0
    4.3009    1.3868    2.0351 H   0  0  0  0  0  0  0  0  0  0  0  0
    3.4527    0.9190    3.5359 H   0  0  0  0  0  0  0  0  0  0  0  0
    3.7933    2.6439    3.1908 H   0  0  0  0  0  0  0  0  0  0  0  0
    0.3708   -0.8225    2.8745 H   0  0  0  0  0  0  0  0  0  0  0  0
    0.0098    0.4314    4.0813 H   0  0  0  0  0  0  0  0  0  0  0  0
    1.6918   -0.1301    3.8559 H   0  0  0  0  0  0  0  0  0  0  0  0
  1  8  1  0  0  0  0
  1 14  1  0  0  0  0
  2  7  1  0  0  0  0
  2  1  1  0  0  0  0
  3  2  2  0  0  0  0
  4  5  2  0  0  0  0
  4  3  1  0  0  0  0
  5  6  1  0  0  0  0
  6 26  1  0  0  0  0
  6  7  2  0  0  0  0
  7 27  1  0  0  0  0
  8 13  1  0  0  0  0
  9  8  2  0  0  0  0
  9 10  1  0  0  0  0
 10 11  2  0  0  0  0
 11 12  1  0  0  0  0
 11 30  1  0  0  0  0
 12 31  1  0  0  0  0
 13 32  1  0  0  0  0
 13 12  2  0  0  0  0
 14 33  1  1  0  0  0
 14 18  1  0  0  0  0
 15 16  2  0  0  0  0
 15 14  1  0  0  0  0
 16 17  1  0  0  0  0
 17 18  2  0  0  0  0
 17 21  1  0  0  0  0
 18 22  1  0  0  0  0
 19 34  1  0  0  0  0
 19 15  1  0  0  0  0
 20 16  1  0  0  0  0
 20 38  1  0  0  0  0
 21 42  1  0  0  0  0
 21 41  1  0  0  0  0
 22 45  1  0  0  0  0
 22 44  1  0  0  0  0
 23  3  1  0  0  0  0
 24  4  1  0  0  0  0
 25  5  1  0  0  0  0
 28  9  1  0  0  0  0
 29 10  1  0  0  0  0
 35 19  1  0  0  0  0
 36 19  1  0  0  0  0
 37 20  1  0  0  0  0
 39 20  1  0  0  0  0
 40 21  1  0  0  0  0
 43 22  1  0  0  0  0
M  END
