50
 OpenBabel05122313063D

 50 53  0  0  0  0  0  0  0  0999 V2000
   -3.0196   -0.2379   -1.2230 C   0  0  0  0  0  0  0  0  0  0  0  0
   -2.7473   -0.9297   -2.4211 C   0  0  0  0  0  0  0  0  0  0  0  0
   -1.7544   -1.3827   -2.5730 H   0  0  0  0  0  0  0  0  0  0  0  0
   -3.7415   -1.0472   -3.4029 C   0  0  0  0  0  0  0  0  0  0  0  0
   -3.5252   -1.5889   -4.3358 H   0  0  0  0  0  0  0  0  0  0  0  0
   -5.0113   -0.4865   -3.1892 C   0  0  0  0  0  0  0  0  0  0  0  0
   -5.7932   -0.5869   -3.9571 H   0  0  0  0  0  0  0  0  0  0  0  0
   -5.2874    0.1933   -1.9918 C   0  0  0  0  0  0  0  0  0  0  0  0
   -6.2846    0.6254   -1.8192 H   0  0  0  0  0  0  0  0  0  0  0  0
   -4.2953    0.3210   -1.0080 C   0  0  0  0  0  0  0  0  0  0  0  0
   -4.5145    0.8493   -0.0679 H   0  0  0  0  0  0  0  0  0  0  0  0
   -2.4931    0.2372    1.6128 C   0  0  0  0  0  0  0  0  0  0  0  0
   -2.7961   -0.8741    2.4249 C   0  0  0  0  0  0  0  0  0  0  0  0
   -2.4978   -1.8838    2.1004 H   0  0  0  0  0  0  0  0  0  0  0  0
   -3.4577   -0.6869    3.6464 C   0  0  0  0  0  0  0  0  0  0  0  0
   -3.6893   -1.5562    4.2798 H   0  0  0  0  0  0  0  0  0  0  0  0
   -3.8095    0.6065    4.0662 C   0  0  0  0  0  0  0  0  0  0  0  0
   -4.3201    0.7521    5.0301 H   0  0  0  0  0  0  0  0  0  0  0  0
   -3.4989    1.7154    3.2631 C   0  0  0  0  0  0  0  0  0  0  0  0
   -3.7639    2.7304    3.5955 H   0  0  0  0  0  0  0  0  0  0  0  0
   -2.8420    1.5350    2.0365 C   0  0  0  0  0  0  0  0  0  0  0  0
   -2.5903    2.4051    1.4109 H   0  0  0  0  0  0  0  0  0  0  0  0
   -0.8988    1.5480   -0.4335 C   0  0  0  0  0  0  0  0  0  0  0  0
   -1.3275    2.3592   -1.5033 C   0  0  0  0  0  0  0  0  0  0  0  0
   -2.1999    2.0556   -2.0989 H   0  0  0  0  0  0  0  0  0  0  0  0
   -0.6426    3.5423   -1.8155 C   0  0  0  0  0  0  0  0  0  0  0  0
   -0.9578    4.1870   -2.6476 H   0  0  0  0  0  0  0  0  0  0  0  0
    0.4783    3.9081   -1.0662 C   0  0  0  0  0  0  0  0  0  0  0  0
    0.9656    3.1108   -0.0043 C   0  0  0  0  0  0  0  0  0  0  0  0
    0.2260    1.9511    0.3058 C   0  0  0  0  0  0  0  0  0  0  0  0
    3.2404    1.6166    0.4978 C   0  0  0  0  0  0  0  0  0  0  0  0
    3.2505    1.4075   -0.9088 C   0  0  0  0  0  0  0  0  0  0  0  0
    3.6188    0.2008   -1.4852 C   0  0  0  0  0  0  0  0  0  0  0  0
    3.6439    0.0914   -2.5769 H   0  0  0  0  0  0  0  0  0  0  0  0
    3.9889   -0.8840   -0.6549 C   0  0  0  0  0  0  0  0  0  0  0  0
    4.0031   -0.7214    0.7490 C   0  0  0  0  0  0  0  0  0  0  0  0
    4.2491   -1.5388    1.4360 H   0  0  0  0  0  0  0  0  0  0  0  0
    3.6641    0.5180    1.2865 C   0  0  0  0  0  0  0  0  0  0  0  0
    4.7127   -3.1500   -0.5142 C   0  0  0  0  0  0  0  0  0  0  0  0
    3.8753   -3.4735    0.1388 H   0  0  0  0  0  0  0  0  0  0  0  0
    5.6207   -2.9357    0.0912 H   0  0  0  0  0  0  0  0  0  0  0  0
    4.9389   -3.9522   -1.2393 H   0  0  0  0  0  0  0  0  0  0  0  0
    0.6069    1.2039    1.3578 F   0  0  0  0  0  0  0  0  0  0  0  0
    1.1522    5.0180   -1.3773 F   0  0  0  0  0  0  0  0  0  0  0  0
    2.9602    2.4441   -1.7179 F   0  0  0  0  0  0  0  0  0  0  0  0
    3.6730    0.6702    2.6146 F   0  0  0  0  0  0  0  0  0  0  0  0
    2.0207    3.5847    0.8142 N   0  0  0  0  0  0  0  0  0  0  0  0
    2.9900    2.8441    1.1402 N   0  0  0  0  0  0  0  0  0  0  0  0
    4.3340   -2.0166   -1.2903 O   0  0  0  0  0  0  0  0  0  0  0  0
   -1.6690   -0.0562    0.0036 P   0  0  0  0  0  0  0  0  0  0  0  0
  1 10  1  0  0  0  0
  1 50  1  0  0  0  0
  2  1  2  0  0  0  0
  3  2  1  0  0  0  0
  4  6  2  0  0  0  0
  4  2  1  0  0  0  0
  5  4  1  0  0  0  0
  6  8  1  0  0  0  0
  7  6  1  0  0  0  0
  8  9  1  0  0  0  0
  8 10  2  0  0  0  0
 10 11  1  0  0  0  0
 12 21  2  0  0  0  0
 12 13  1  0  0  0  0
 13 15  2  0  0  0  0
 14 13  1  0  0  0  0
 15 17  1  0  0  0  0
 15 16  1  0  0  0  0
 17 18  1  0  0  0  0
 19 20  1  0  0  0  0
 19 17  2  0  0  0  0
 21 19  1  0  0  0  0
 22 21  1  0  0  0  0
 23 50  1  0  0  0  0
 23 30  1  0  0  0  0
 24 23  2  0  0  0  0
 25 24  1  0  0  0  0
 26 24  1  0  0  0  0
 26 28  2  0  0  0  0
 27 26  1  0  0  0  0
 28 29  1  0  0  0  0
 29 30  2  0  0  0  0
 29 47  1  0  0  0  0
 30 43  1  0  0  0  0
 31 48  1  0  0  0  0
 31 38  1  0  0  0  0
 32 31  2  0  0  0  0
 33 32  1  0  0  0  0
 33 35  2  0  0  0  0
 34 33  1  0  0  0  0
 35 36  1  0  0  0  0
 36 38  2  0  0  0  0
 36 37  1  0  0  0  0
 38 46  1  0  0  0  0
 39 41  1  0  0  0  0
 39 40  1  0  0  0  0
 42 39  1  0  0  0  0
 44 28  1  0  0  0  0
 45 32  1  0  0  0  0
 47 48  2  0  0  0  0
 49 35  1  0  0  0  0
 49 39  1  0  0  0  0
 50 12  1  0  0  0  0
M  END
