1
 OpenBabel05122313063D

 44 49  0  0  0  0  0  0  0  0999 V2000
   -0.0947   -0.8191    0.4042 P   0  0  0  0  0  0  0  0  0  0  0  0
    1.2895   -1.2503   -0.7049 C   0  0  0  0  0  0  0  0  0  0  0  0
    1.2911   -2.3040   -1.6460 C   0  0  0  0  0  0  0  0  0  0  0  0
    2.4658   -2.5862   -2.3255 C   0  0  0  0  0  0  0  0  0  0  0  0
    3.6789   -1.9089   -2.0017 C   0  0  0  0  0  0  0  0  0  0  0  0
    4.9154   -2.3115   -2.5878 C   0  0  0  0  0  0  0  0  0  0  0  0
    6.1189   -1.7612   -2.1763 C   0  0  0  0  0  0  0  0  0  0  0  0
    6.1315   -0.7982   -1.1341 C   0  0  0  0  0  0  0  0  0  0  0  0
    4.9436   -0.3511   -0.5730 C   0  0  0  0  0  0  0  0  0  0  0  0
    3.6790   -0.8441   -1.0178 C   0  0  0  0  0  0  0  0  0  0  0  0
    2.4136   -0.4317   -0.4624 C   0  0  0  0  0  0  0  0  0  0  0  0
    2.1133    0.6950    0.4613 C   0  0  0  0  0  0  0  0  0  0  0  0
    2.8014    1.9517    0.6292 C   0  0  0  0  0  0  0  0  0  0  0  0
    3.7844    2.4485   -0.2797 C   0  0  0  0  0  0  0  0  0  0  0  0
    4.3965    3.6779   -0.0803 C   0  0  0  0  0  0  0  0  0  0  0  0
    4.0625    4.4755    1.0448 C   0  0  0  0  0  0  0  0  0  0  0  0
    3.0666    4.0563    1.9128 C   0  0  0  0  0  0  0  0  0  0  0  0
    2.3835    2.8204    1.7120 C   0  0  0  0  0  0  0  0  0  0  0  0
    1.2528    2.4774    2.5113 C   0  0  0  0  0  0  0  0  0  0  0  0
    0.4770    1.3747    2.1931 C   0  0  0  0  0  0  0  0  0  0  0  0
    0.9008    0.5117    1.1594 C   0  0  0  0  0  0  0  0  0  0  0  0
   -0.1272   -2.1283    1.6973 C   0  0  0  0  0  0  0  0  0  0  0  0
    1.0876   -2.6217    2.2143 C   0  0  0  0  0  0  0  0  0  0  0  0
    1.0727   -3.5716    3.2447 C   0  0  0  0  0  0  0  0  0  0  0  0
   -0.1503   -4.0248    3.7679 C   0  0  0  0  0  0  0  0  0  0  0  0
   -1.3590   -3.5294    3.2554 C   0  0  0  0  0  0  0  0  0  0  0  0
   -1.3518   -2.5853    2.2171 C   0  0  0  0  0  0  0  0  0  0  0  0
    0.3572   -2.8622   -1.8194 H   0  0  0  0  0  0  0  0  0  0  0  0
    2.4920   -3.3806   -3.0874 H   0  0  0  0  0  0  0  0  0  0  0  0
    4.8956   -3.0990   -3.3572 H   0  0  0  0  0  0  0  0  0  0  0  0
    7.0648   -2.0936   -2.6300 H   0  0  0  0  0  0  0  0  0  0  0  0
    7.0902   -0.4099   -0.7582 H   0  0  0  0  0  0  0  0  0  0  0  0
    4.9774    0.3680    0.2549 H   0  0  0  0  0  0  0  0  0  0  0  0
    4.0308    1.8625   -1.1739 H   0  0  0  0  0  0  0  0  0  0  0  0
    5.1379    4.0404   -0.8084 H   0  0  0  0  0  0  0  0  0  0  0  0
    4.5684    5.4394    1.2056 H   0  0  0  0  0  0  0  0  0  0  0  0
    2.7587    4.6916    2.7578 H   0  0  0  0  0  0  0  0  0  0  0  0
    0.9611    3.1506    3.3316 H   0  0  0  0  0  0  0  0  0  0  0  0
   -0.4674    1.1738    2.7206 H   0  0  0  0  0  0  0  0  0  0  0  0
    2.0458   -2.2633    1.8070 H   0  0  0  0  0  0  0  0  0  0  0  0
    2.0226   -3.9609    3.6414 H   0  0  0  0  0  0  0  0  0  0  0  0
   -0.1593   -4.7709    4.5771 H   0  0  0  0  0  0  0  0  0  0  0  0
   -2.3184   -3.8875    3.6585 H   0  0  0  0  0  0  0  0  0  0  0  0
   -2.2920   -2.2136    1.7845 H   0  0  0  0  0  0  0  0  0  0  0  0
  1 21  1  0  0  0  0
  1 22  1  0  0  0  0
  2 11  1  0  0  0  0
  2  1  1  0  0  0  0
  3  2  2  0  0  0  0
  4  5  2  0  0  0  0
  4  3  1  0  0  0  0
  5 10  1  0  0  0  0
  6  7  2  0  0  0  0
  6  5  1  0  0  0  0
  7  8  1  0  0  0  0
  8 32  1  0  0  0  0
  8  9  2  0  0  0  0
  9 33  1  0  0  0  0
 10  9  1  0  0  0  0
 10 11  2  0  0  0  0
 11 12  1  0  0  0  0
 12 13  2  0  0  0  0
 12 21  1  0  0  0  0
 13 18  1  0  0  0  0
 14 15  2  0  0  0  0
 14 13  1  0  0  0  0
 15 16  1  0  0  0  0
 16 36  1  0  0  0  0
 16 17  2  0  0  0  0
 17 37  1  0  0  0  0
 18 17  1  0  0  0  0
 18 19  2  0  0  0  0
 19 38  1  0  0  0  0
 20 19  1  0  0  0  0
 20 39  1  0  0  0  0
 21 20  2  0  0  0  0
 22 23  2  0  0  0  0
 22 27  1  0  0  0  0
 23 24  1  0  0  0  0
 24 41  1  0  0  0  0
 24 25  2  0  0  0  0
 25 42  1  0  0  0  0
 26 43  1  0  0  0  0
 26 25  1  0  0  0  0
 27 26  2  0  0  0  0
 28  3  1  0  0  0  0
 29  4  1  0  0  0  0
 30  6  1  0  0  0  0
 31  7  1  0  0  0  0
 34 14  1  0  0  0  0
 35 15  1  0  0  0  0
 40 23  1  0  0  0  0
 44 27  1  0  0  0  0
M  END
