1
 OpenBabel05122313063D

 18 18  0  0  0  0  0  0  0  0999 V2000
   -1.0003   -0.0001    0.4842 P   0  0  1  0  0  0  0  0  0  0  0  0
   -1.2774   -0.0001    2.1073 F   0  0  0  0  0  0  0  0  0  0  0  0
   -2.1698   -1.3399   -0.0166 C   0  0  0  0  0  0  0  0  0  0  0  0
   -3.5267   -0.6807   -0.1644 C   0  0  0  0  0  0  0  0  0  0  0  0
   -3.5267    0.6806   -0.1644 C   0  0  0  0  0  0  0  0  0  0  0  0
   -2.1698    1.3398   -0.0166 C   0  0  0  0  0  0  0  0  0  0  0  0
   -4.7160   -1.5810   -0.3142 C   0  0  0  0  0  0  0  0  0  0  0  0
   -4.7160    1.5810   -0.3142 C   0  0  0  0  0  0  0  0  0  0  0  0
   -1.8178   -1.8075   -0.9634 H   0  0  0  0  0  0  0  0  0  0  0  0
   -2.1498   -2.1393    0.7560 H   0  0  0  0  0  0  0  0  0  0  0  0
   -2.1497    2.1392    0.7560 H   0  0  0  0  0  0  0  0  0  0  0  0
   -1.8177    1.8075   -0.9634 H   0  0  0  0  0  0  0  0  0  0  0  0
   -5.6632   -1.0249   -0.4426 H   0  0  0  0  0  0  0  0  0  0  0  0
   -4.8240   -2.2413    0.5735 H   0  0  0  0  0  0  0  0  0  0  0  0
   -4.5941   -2.2553   -1.1895 H   0  0  0  0  0  0  0  0  0  0  0  0
   -5.6632    1.0249   -0.4428 H   0  0  0  0  0  0  0  0  0  0  0  0
   -4.5939    2.2555   -1.1893 H   0  0  0  0  0  0  0  0  0  0  0  0
   -4.8241    2.2411    0.5736 H   0  0  0  0  0  0  0  0  0  0  0  0
  1  2  1  1  0  0  0
  3  1  1  0  0  0  0
  3 10  1  0  0  0  0
  4  3  1  0  0  0  0
  5  4  2  0  0  0  0
  5  6  1  0  0  0  0
  6  1  1  0  0  0  0
  6 11  1  0  0  0  0
  7  4  1  0  0  0  0
  7 14  1  0  0  0  0
  8  5  1  0  0  0  0
  8 18  1  0  0  0  0
  9  3  1  0  0  0  0
 12  6  1  0  0  0  0
 13  7  1  0  0  0  0
 15  7  1  0  0  0  0
 16  8  1  0  0  0  0
 17  8  1  0  0  0  0
M  END
