1
 OpenBabel05122313063D

 34 36  0  0  0  0  0  0  0  0999 V2000
    2.0970   -0.9599    0.0272 P   0  0  0  0  0  0  0  0  0  0  0  0
    2.9274    0.4998   -2.4026 F   0  0  0  0  0  0  0  0  0  0  0  0
    4.9677    2.2652   -2.7680 F   0  0  0  0  0  0  0  0  0  0  0  0
    6.6500    2.8676   -0.7003 F   0  0  0  0  0  0  0  0  0  0  0  0
    6.2896    1.7036    1.7398 F   0  0  0  0  0  0  0  0  0  0  0  0
    3.5363    0.1774   -0.1224 C   0  0  0  0  0  0  0  0  0  0  0  0
    3.7405    0.7795   -1.3745 C   0  0  0  0  0  0  0  0  0  0  0  0
    4.7880    1.6905   -1.5774 C   0  0  0  0  0  0  0  0  0  0  0  0
    5.6517    2.0030   -0.5130 C   0  0  0  0  0  0  0  0  0  0  0  0
    5.4512    1.3963    0.7401 C   0  0  0  0  0  0  0  0  0  0  0  0
    4.4052    0.4926    0.9384 C   0  0  0  0  0  0  0  0  0  0  0  0
    4.2730    0.0479    1.9342 H   0  0  0  0  0  0  0  0  0  0  0  0
    2.1458   -1.5085    1.7753 C   0  0  0  0  0  0  0  0  0  0  0  0
    1.8226   -0.5458    2.7585 C   0  0  0  0  0  0  0  0  0  0  0  0
    1.6012    0.4920    2.4588 H   0  0  0  0  0  0  0  0  0  0  0  0
    1.7592   -0.9203    4.1071 C   0  0  0  0  0  0  0  0  0  0  0  0
    1.5088   -0.1652    4.8676 H   0  0  0  0  0  0  0  0  0  0  0  0
    1.9958   -2.2543    4.4814 C   0  0  0  0  0  0  0  0  0  0  0  0
    1.9364   -2.5487    5.5402 H   0  0  0  0  0  0  0  0  0  0  0  0
    2.2962   -3.2133    3.5022 C   0  0  0  0  0  0  0  0  0  0  0  0
    2.4669   -4.2617    3.7899 H   0  0  0  0  0  0  0  0  0  0  0  0
    2.3712   -2.8458    2.1492 C   0  0  0  0  0  0  0  0  0  0  0  0
    2.5885   -3.6038    1.3829 H   0  0  0  0  0  0  0  0  0  0  0  0
    2.6482   -2.3541   -1.0303 C   0  0  0  0  0  0  0  0  0  0  0  0
    1.8308   -2.8239   -2.0749 C   0  0  0  0  0  0  0  0  0  0  0  0
    0.8305   -2.3903   -2.2170 H   0  0  0  0  0  0  0  0  0  0  0  0
    2.2934   -3.8496   -2.9132 C   0  0  0  0  0  0  0  0  0  0  0  0
    1.6518   -4.2132   -3.7297 H   0  0  0  0  0  0  0  0  0  0  0  0
    3.5643   -4.4094   -2.7119 C   0  0  0  0  0  0  0  0  0  0  0  0
    3.9220   -5.2155   -3.3705 H   0  0  0  0  0  0  0  0  0  0  0  0
    4.3852   -3.9354   -1.6750 C   0  0  0  0  0  0  0  0  0  0  0  0
    5.3863   -4.3655   -1.5199 H   0  0  0  0  0  0  0  0  0  0  0  0
    3.9345   -2.9036   -0.8400 C   0  0  0  0  0  0  0  0  0  0  0  0
    4.5877   -2.5176   -0.0422 H   0  0  0  0  0  0  0  0  0  0  0  0
  1 13  1  0  0  0  0
  2  7  1  0  0  0  0
  3  8  1  0  0  0  0
  4  9  1  0  0  0  0
  6  1  1  0  0  0  0
  6 11  1  0  0  0  0
  7  6  2  0  0  0  0
  8  7  1  0  0  0  0
  8  9  2  0  0  0  0
  9 10  1  0  0  0  0
 10 11  2  0  0  0  0
 10  5  1  0  0  0  0
 11 12  1  0  0  0  0
 13 22  2  0  0  0  0
 13 14  1  0  0  0  0
 14 16  2  0  0  0  0
 15 14  1  0  0  0  0
 16 18  1  0  0  0  0
 16 17  1  0  0  0  0
 18 19  1  0  0  0  0
 20 21  1  0  0  0  0
 20 18  2  0  0  0  0
 22 20  1  0  0  0  0
 23 22  1  0  0  0  0
 24 33  1  0  0  0  0
 24  1  1  0  0  0  0
 25 24  2  0  0  0  0
 26 25  1  0  0  0  0
 27 29  2  0  0  0  0
 27 25  1  0  0  0  0
 28 27  1  0  0  0  0
 29 31  1  0  0  0  0
 30 29  1  0  0  0  0
 31 32  1  0  0  0  0
 31 33  2  0  0  0  0
 33 34  1  0  0  0  0
M  END
