1
 OpenBabel05122313063D

 23 23  0  0  1  0  0  0  0  0999 V2000
   -1.8865   -0.3713   -0.5562 P   0  0  2  0  0  0  0  0  0  0  0  0
   -2.8568   -0.4368    0.7936 O   0  0  0  0  0  0  0  0  0  0  0  0
   -1.9809    1.2474   -0.9433 O   0  0  0  0  0  0  0  0  0  0  0  0
   -3.0210   -1.0241   -1.6056 O   0  0  0  0  0  0  0  0  0  0  0  0
   -4.6870    0.0795    2.2257 C   0  0  0  0  0  0  0  0  0  0  0  0
   -4.8099   -1.0006    2.4382 H   0  0  0  0  0  0  0  0  0  0  0  0
   -4.0096    0.5130    2.9889 H   0  0  0  0  0  0  0  0  0  0  0  0
   -5.6774    0.5690    2.3146 H   0  0  0  0  0  0  0  0  0  0  0  0
   -2.6289   -1.2040   -2.9699 C   0  0  0  0  0  0  0  0  0  0  0  0
   -3.2567   -2.0130   -3.3935 H   0  0  0  0  0  0  0  0  0  0  0  0
   -2.8016   -0.2738   -3.5554 H   0  0  0  0  0  0  0  0  0  0  0  0
   -1.5540   -1.4780   -3.0522 H   0  0  0  0  0  0  0  0  0  0  0  0
   -4.1113    0.2877    0.8346 C   0  0  1  0  0  0  0  0  0  0  0  0
   -4.7868   -0.1615    0.0711 H   0  0  0  0  0  0  0  0  0  0  0  0
   -3.8751    1.7618    0.4949 C   0  0  0  0  0  0  0  0  0  0  0  0
   -3.2094    2.2120    1.2631 H   0  0  0  0  0  0  0  0  0  0  0  0
   -4.8446    2.3017    0.5295 H   0  0  0  0  0  0  0  0  0  0  0  0
   -2.9523    3.4036   -1.2251 C   0  0  0  0  0  0  0  0  0  0  0  0
   -2.4447    3.4779   -2.2063 H   0  0  0  0  0  0  0  0  0  0  0  0
   -3.8924    3.9894   -1.2648 H   0  0  0  0  0  0  0  0  0  0  0  0
   -2.2867    3.8478   -0.4587 H   0  0  0  0  0  0  0  0  0  0  0  0
   -3.2435    1.9510   -0.8856 C   0  0  1  0  0  0  0  0  0  0  0  0
   -3.9183    1.5077   -1.6552 H   0  0  0  0  0  0  0  0  0  0  0  0
  1  4  1  6  0  0  0
  1  2  1  0  0  0  0
  2 13  1  0  0  0  0
  3 22  1  0  0  0  0
  3  1  1  0  0  0  0
  5  8  1  0  0  0  0
  5  6  1  0  0  0  0
  5  7  1  0  0  0  0
  9  4  1  0  0  0  0
 10  9  1  0  0  0  0
 11  9  1  0  0  0  0
 12  9  1  0  0  0  0
 13 14  1  6  0  0  0
 13  5  1  0  0  0  0
 15 17  1  0  0  0  0
 15 13  1  0  0  0  0
 15 16  1  0  0  0  0
 18 22  1  0  0  0  0
 18 21  1  0  0  0  0
 19 18  1  0  0  0  0
 20 18  1  0  0  0  0
 22 23  1  6  0  0  0
 22 15  1  0  0  0  0
M  END
