1
 OpenBabel05122313063D

 66 68  0  0  0  0  0  0  0  0999 V2000
   -1.9863    0.1140    0.3460 P   0  0  0  0  0  0  0  0  0  0  0  0
    0.2621    0.4160    1.9524 C   0  0  0  0  0  0  0  0  0  0  0  0
    1.4222    1.7371   -0.1400 C   0  0  0  0  0  0  0  0  0  0  0  0
    0.4068    2.0892   -0.4515 H   0  0  0  0  0  0  0  0  0  0  0  0
    1.1876    0.3655    0.6534 B   0  0  0  0  0  0  0  0  0  0  0  0
   -1.8810    0.2869    3.1713 C   0  0  0  0  0  0  0  0  0  0  0  0
   -2.9724    0.1440    3.1637 H   0  0  0  0  0  0  0  0  0  0  0  0
    0.8926    0.6164    3.2061 C   0  0  0  0  0  0  0  0  0  0  0  0
    1.9848    0.7472    3.2447 H   0  0  0  0  0  0  0  0  0  0  0  0
    4.4955   -1.7793    0.8482 C   0  0  0  0  0  0  0  0  0  0  0  0
    4.7029   -1.8156   -0.2445 H   0  0  0  0  0  0  0  0  0  0  0  0
    5.4672   -1.5776    1.3482 H   0  0  0  0  0  0  0  0  0  0  0  0
    1.5803   -2.2503    0.9551 C   0  0  0  0  0  0  0  0  0  0  0  0
    1.3755   -2.1829    2.0480 H   0  0  0  0  0  0  0  0  0  0  0  0
    0.6003   -2.4558    0.4713 H   0  0  0  0  0  0  0  0  0  0  0  0
   -2.6086    1.8492   -0.0162 C   0  0  0  0  0  0  0  0  0  0  0  0
   -1.7186    2.4489    0.2785 H   0  0  0  0  0  0  0  0  0  0  0  0
    2.5533   -3.4021    0.6802 C   0  0  0  0  0  0  0  0  0  0  0  0
    2.1405   -4.3609    1.0603 H   0  0  0  0  0  0  0  0  0  0  0  0
    2.6597   -3.5201   -0.4214 H   0  0  0  0  0  0  0  0  0  0  0  0
    1.9583    2.8483    0.8042 C   0  0  0  0  0  0  0  0  0  0  0  0
    1.3050    2.9490    1.6958 H   0  0  0  0  0  0  0  0  0  0  0  0
    2.9611    2.5504    1.1875 H   0  0  0  0  0  0  0  0  0  0  0  0
   -1.1487    0.2691    1.9639 C   0  0  0  0  0  0  0  0  0  0  0  0
    3.5137   -0.6298    1.1238 C   0  0  0  0  0  0  0  0  0  0  0  0
    3.9428    0.3299    0.7677 H   0  0  0  0  0  0  0  0  0  0  0  0
    3.3843   -0.5282    2.2248 H   0  0  0  0  0  0  0  0  0  0  0  0
    0.1685    0.6478    4.4055 C   0  0  0  0  0  0  0  0  0  0  0  0
    0.6968    0.8005    5.3592 H   0  0  0  0  0  0  0  0  0  0  0  0
    2.2881    1.6531   -1.4108 C   0  0  0  0  0  0  0  0  0  0  0  0
    3.3102    1.3119   -1.1312 H   0  0  0  0  0  0  0  0  0  0  0  0
    1.8897    0.8815   -2.1018 H   0  0  0  0  0  0  0  0  0  0  0  0
    2.1342   -0.9019    0.4564 C   0  0  0  0  0  0  0  0  0  0  0  0
    2.3386   -0.9988   -0.6335 H   0  0  0  0  0  0  0  0  0  0  0  0
   -3.4361   -1.0318    0.6009 C   0  0  0  0  0  0  0  0  0  0  0  0
   -4.0502   -0.5875    1.4144 H   0  0  0  0  0  0  0  0  0  0  0  0
   -1.2244    0.4725    4.3940 C   0  0  0  0  0  0  0  0  0  0  0  0
   -1.7973    0.4797    5.3333 H   0  0  0  0  0  0  0  0  0  0  0  0
   -2.8627    2.0817   -1.5101 C   0  0  0  0  0  0  0  0  0  0  0  0
   -3.7281    1.4987   -1.8820 H   0  0  0  0  0  0  0  0  0  0  0  0
   -1.9812    1.7996   -2.1202 H   0  0  0  0  0  0  0  0  0  0  0  0
   -3.0801    3.1546   -1.6907 H   0  0  0  0  0  0  0  0  0  0  0  0
   -2.9071   -2.4010    1.0487 C   0  0  0  0  0  0  0  0  0  0  0  0
   -3.7553   -3.0888    1.2437 H   0  0  0  0  0  0  0  0  0  0  0  0
   -2.2971   -2.3338    1.9706 H   0  0  0  0  0  0  0  0  0  0  0  0
   -2.2747   -2.8525    0.2563 H   0  0  0  0  0  0  0  0  0  0  0  0
    3.9295   -3.1311    1.3017 C   0  0  0  0  0  0  0  0  0  0  0  0
    3.8324   -3.1280    2.4116 H   0  0  0  0  0  0  0  0  0  0  0  0
    4.6392   -3.9487    1.0538 H   0  0  0  0  0  0  0  0  0  0  0  0
    2.0788    4.1993    0.0845 C   0  0  0  0  0  0  0  0  0  0  0  0
    2.4982    4.9632    0.7740 H   0  0  0  0  0  0  0  0  0  0  0  0
    1.0569    4.5503   -0.1872 H   0  0  0  0  0  0  0  0  0  0  0  0
   -3.7870    2.2632    0.8698 C   0  0  0  0  0  0  0  0  0  0  0  0
   -4.0221    3.3350    0.7053 H   0  0  0  0  0  0  0  0  0  0  0  0
   -3.5644    2.1351    1.9473 H   0  0  0  0  0  0  0  0  0  0  0  0
   -4.7038    1.6868    0.6301 H   0  0  0  0  0  0  0  0  0  0  0  0
   -4.2864   -1.1369   -0.6710 C   0  0  0  0  0  0  0  0  0  0  0  0
   -3.6705   -1.4662   -1.5337 H   0  0  0  0  0  0  0  0  0  0  0  0
   -4.7689   -0.1777   -0.9409 H   0  0  0  0  0  0  0  0  0  0  0  0
   -5.0910   -1.8862   -0.5235 H   0  0  0  0  0  0  0  0  0  0  0  0
    2.9277    4.0977   -1.1885 C   0  0  0  0  0  0  0  0  0  0  0  0
    3.9769    3.8536   -0.9053 H   0  0  0  0  0  0  0  0  0  0  0  0
    2.9661    5.0790   -1.7076 H   0  0  0  0  0  0  0  0  0  0  0  0
    2.3964    3.0060   -2.1251 C   0  0  0  0  0  0  0  0  0  0  0  0
    3.0415    2.9174   -3.0245 H   0  0  0  0  0  0  0  0  0  0  0  0
    1.3877    3.3008   -2.4959 H   0  0  0  0  0  0  0  0  0  0  0  0
  1 35  1  0  0  0  0
  1 24  1  0  0  0  0
  2 24  2  0  0  0  0
  2  8  1  0  0  0  0
  3  5  1  0  0  0  0
  3 21  1  0  0  0  0
  4  3  1  0  0  0  0
  5  2  1  0  0  0  0
  6 37  2  0  0  0  0
  7  6  1  0  0  0  0
  8  9  1  0  0  0  0
  8 28  2  0  0  0  0
 10 25  1  0  0  0  0
 10 47  1  0  0  0  0
 10 12  1  0  0  0  0
 11 10  1  0  0  0  0
 13 14  1  0  0  0  0
 15 13  1  0  0  0  0
 16 17  1  0  0  0  0
 16  1  1  0  0  0  0
 16 53  1  0  0  0  0
 18 13  1  0  0  0  0
 18 19  1  0  0  0  0
 18 47  1  0  0  0  0
 20 18  1  0  0  0  0
 21 23  1  0  0  0  0
 21 22  1  0  0  0  0
 24  6  1  0  0  0  0
 25 27  1  0  0  0  0
 26 25  1  0  0  0  0
 28 29  1  0  0  0  0
 30 31  1  0  0  0  0
 30  3  1  0  0  0  0
 32 30  1  0  0  0  0
 33  5  1  0  0  0  0
 33 13  1  0  0  0  0
 33 25  1  0  0  0  0
 34 33  1  0  0  0  0
 35 43  1  0  0  0  0
 35 36  1  0  0  0  0
 37 28  1  0  0  0  0
 37 38  1  0  0  0  0
 39 16  1  0  0  0  0
 40 39  1  0  0  0  0
 41 39  1  0  0  0  0
 42 39  1  0  0  0  0
 43 44  1  0  0  0  0
 43 45  1  0  0  0  0
 46 43  1  0  0  0  0
 47 48  1  0  0  0  0
 49 47  1  0  0  0  0
 50 51  1  0  0  0  0
 50 21  1  0  0  0  0
 52 50  1  0  0  0  0
 53 55  1  0  0  0  0
 54 53  1  0  0  0  0
 56 53  1  0  0  0  0
 57 60  1  0  0  0  0
 57 35  1  0  0  0  0
 58 57  1  0  0  0  0
 59 57  1  0  0  0  0
 61 62  1  0  0  0  0
 61 50  1  0  0  0  0
 63 61  1  0  0  0  0
 64 30  1  0  0  0  0
 64 61  1  0  0  0  0
 65 64  1  0  0  0  0
 66 64  1  0  0  0  0
M  END
