4
 OpenBabel05122313063D

 61 64  0  0  1  0  0  0  0  0999 V2000
    2.2642   -0.9482    1.1336 P   0  0  2  0  0  0  0  0  0  0  0  0
    3.9408    1.0064   -0.6501 P   0  0  2  0  0  0  0  0  0  0  0  0
    1.0092   -0.0210   -1.3804 P   0  0  1  0  0  0  0  0  0  0  0  0
   -0.4987   -0.1573    0.2690 P   0  0  0  0  0  0  0  0  0  0  0  0
    3.9147   -1.1228   -1.4408 Se  0  0  0  0  0  0  0  0  0  0  0  0
    2.6789    0.8986    0.7501 C   0  0  2  0  0  0  0  0  0  0  0  0
    2.9217    1.7562    2.0473 C   0  0  0  0  0  0  0  0  0  0  0  0
    1.6425    2.5341    2.4169 C   0  0  0  0  0  0  0  0  0  0  0  0
    1.4353    3.3578    1.7113 H   0  0  0  0  0  0  0  0  0  0  0  0
    1.7459    2.9801    3.4275 H   0  0  0  0  0  0  0  0  0  0  0  0
    0.7591    1.8691    2.4233 H   0  0  0  0  0  0  0  0  0  0  0  0
    3.2794    0.8405    3.2376 C   0  0  0  0  0  0  0  0  0  0  0  0
    2.4313    0.1982    3.5398 H   0  0  0  0  0  0  0  0  0  0  0  0
    3.5429    1.4670    4.1143 H   0  0  0  0  0  0  0  0  0  0  0  0
    4.1419    0.1845    3.0090 H   0  0  0  0  0  0  0  0  0  0  0  0
    4.1219    2.7197    1.9123 C   0  0  0  0  0  0  0  0  0  0  0  0
    4.0497    3.3971    1.0466 H   0  0  0  0  0  0  0  0  0  0  0  0
    5.0684    2.1515    1.8179 H   0  0  0  0  0  0  0  0  0  0  0  0
    4.1926    3.3481    2.8239 H   0  0  0  0  0  0  0  0  0  0  0  0
    2.0854    1.3551   -0.6073 C   0  0  1  0  0  0  0  0  0  0  0  0
    1.6468    2.7456   -1.2047 C   0  0  0  0  0  0  0  0  0  0  0  0
    1.8116    2.6548   -2.7423 C   0  0  0  0  0  0  0  0  0  0  0  0
    2.8658    2.4423   -3.0140 H   0  0  0  0  0  0  0  0  0  0  0  0
    1.5218    3.6186   -3.2071 H   0  0  0  0  0  0  0  0  0  0  0  0
    1.1783    1.8607   -3.1839 H   0  0  0  0  0  0  0  0  0  0  0  0
    0.1693    3.0347   -0.8887 C   0  0  0  0  0  0  0  0  0  0  0  0
   -0.4948    2.2883   -1.3685 H   0  0  0  0  0  0  0  0  0  0  0  0
   -0.1265    4.0293   -1.2805 H   0  0  0  0  0  0  0  0  0  0  0  0
   -0.0362    3.0215    0.1981 H   0  0  0  0  0  0  0  0  0  0  0  0
    2.4975    3.9502   -0.7622 C   0  0  0  0  0  0  0  0  0  0  0  0
    3.5762    3.7800   -0.9544 H   0  0  0  0  0  0  0  0  0  0  0  0
    2.3621    4.2130    0.3014 H   0  0  0  0  0  0  0  0  0  0  0  0
    2.1931    4.8349   -1.3564 H   0  0  0  0  0  0  0  0  0  0  0  0
    2.0860   -1.4163   -0.6955 C   0  0  1  0  0  0  0  0  0  0  0  0
    1.6492   -2.8846   -1.0601 C   0  0  0  0  0  0  0  0  0  0  0  0
    0.1613   -3.1674   -0.7812 C   0  0  0  0  0  0  0  0  0  0  0  0
   -0.5028   -2.4839   -1.3479 H   0  0  0  0  0  0  0  0  0  0  0  0
   -0.0981   -3.0791    0.2864 H   0  0  0  0  0  0  0  0  0  0  0  0
   -0.0738   -4.2012   -1.1053 H   0  0  0  0  0  0  0  0  0  0  0  0
    2.4916   -3.8923   -0.2510 C   0  0  0  0  0  0  0  0  0  0  0  0
    3.5779   -3.7398   -0.4102 H   0  0  0  0  0  0  0  0  0  0  0  0
    2.2390   -4.9277   -0.5563 H   0  0  0  0  0  0  0  0  0  0  0  0
    2.2950   -3.7981    0.8362 H   0  0  0  0  0  0  0  0  0  0  0  0
    1.8618   -3.1273   -2.5728 C   0  0  0  0  0  0  0  0  0  0  0  0
    2.9329   -3.1259   -2.8563 H   0  0  0  0  0  0  0  0  0  0  0  0
    1.3468   -2.3539   -3.1782 H   0  0  0  0  0  0  0  0  0  0  0  0
    1.4454   -4.1158   -2.8524 H   0  0  0  0  0  0  0  0  0  0  0  0
    0.4535   -0.8230    1.5303 C   0  0  0  0  0  0  0  0  0  0  0  0
   -0.1089   -1.3530    2.8710 C   0  0  0  0  0  0  0  0  0  0  0  0
    0.9428   -2.1612    3.6605 C   0  0  0  0  0  0  0  0  0  0  0  0
    1.8203   -1.5562    3.9560 H   0  0  0  0  0  0  0  0  0  0  0  0
    1.3151   -3.0232    3.0713 H   0  0  0  0  0  0  0  0  0  0  0  0
    0.4781   -2.5573    4.5863 H   0  0  0  0  0  0  0  0  0  0  0  0
   -1.2967   -2.3111    2.6156 C   0  0  0  0  0  0  0  0  0  0  0  0
   -0.9646   -3.2315    2.0966 H   0  0  0  0  0  0  0  0  0  0  0  0
   -2.0839   -1.8421    2.0007 H   0  0  0  0  0  0  0  0  0  0  0  0
   -1.7500   -2.6128    3.5813 H   0  0  0  0  0  0  0  0  0  0  0  0
   -0.5957   -0.1697    3.7410 C   0  0  0  0  0  0  0  0  0  0  0  0
    0.2461    0.4821    4.0428 H   0  0  0  0  0  0  0  0  0  0  0  0
   -1.0810   -0.5496    4.6632 H   0  0  0  0  0  0  0  0  0  0  0  0
   -1.3326    0.4529    3.1980 H   0  0  0  0  0  0  0  0  0  0  0  0
  1 48  1  1  0  0  0
  2  5  1  6  0  0  0
  2 20  1  0  0  0  0
  2  6  1  0  0  0  0
  3 34  1  0  0  0  0
  3 20  1  0  0  0  0
  3  4  1  1  0  0  0
  4 48  2  0  0  0  0
  5 34  1  0  0  0  0
  6  1  1  0  0  0  0
  6  7  1  1  0  0  0
  7  8  1  0  0  0  0
  7 12  1  0  0  0  0
  8 11  1  0  0  0  0
  8 10  1  0  0  0  0
  9  8  1  0  0  0  0
 12 13  1  0  0  0  0
 12 14  1  0  0  0  0
 15 12  1  0  0  0  0
 16  7  1  0  0  0  0
 16 19  1  0  0  0  0
 17 16  1  0  0  0  0
 18 16  1  0  0  0  0
 20 21  1  6  0  0  0
 20  6  1  0  0  0  0
 21 26  1  0  0  0  0
 21 30  1  0  0  0  0
 22 21  1  0  0  0  0
 23 22  1  0  0  0  0
 24 22  1  0  0  0  0
 25 22  1  0  0  0  0
 26 29  1  0  0  0  0
 27 26  1  0  0  0  0
 28 26  1  0  0  0  0
 30 32  1  0  0  0  0
 31 30  1  0  0  0  0
 33 30  1  0  0  0  0
 34 35  1  6  0  0  0
 34  1  1  0  0  0  0
 35 36  1  0  0  0  0
 35 40  1  0  0  0  0
 36 38  1  0  0  0  0
 37 36  1  0  0  0  0
 39 36  1  0  0  0  0
 40 43  1  0  0  0  0
 41 40  1  0  0  0  0
 42 40  1  0  0  0  0
 44 35  1  0  0  0  0
 45 44  1  0  0  0  0
 46 44  1  0  0  0  0
 47 44  1  0  0  0  0
 48 49  1  0  0  0  0
 49 50  1  0  0  0  0
 49 58  1  0  0  0  0
 50 51  1  0  0  0  0
 50 53  1  0  0  0  0
 52 50  1  0  0  0  0
 54 49  1  0  0  0  0
 54 57  1  0  0  0  0
 55 54  1  0  0  0  0
 56 54  1  0  0  0  0
 58 59  1  0  0  0  0
 58 60  1  0  0  0  0
 61 58  1  0  0  0  0
M  END
