2
 OpenBabel05122313063D

 37 38  0  0  0  0  0  0  0  0999 V2000
    6.0864    1.7204   -1.7651 S   0  0  0  0  0  0  0  0  0  0  0  0
    2.2339   -0.6204   -0.1984 P   0  0  0  0  0  0  0  0  0  0  0  0
    2.3571   -2.4184   -0.5343 C   0  0  0  0  0  0  0  0  0  0  0  0
    3.0577   -2.9390   -1.6408 C   0  0  0  0  0  0  0  0  0  0  0  0
    3.5675   -2.2678   -2.3463 H   0  0  0  0  0  0  0  0  0  0  0  0
    3.1082   -4.3269   -1.8501 C   0  0  0  0  0  0  0  0  0  0  0  0
    3.6562   -4.7261   -2.7171 H   0  0  0  0  0  0  0  0  0  0  0  0
    2.4657   -5.1993   -0.9591 C   0  0  0  0  0  0  0  0  0  0  0  0
    2.5085   -6.2864   -1.1257 H   0  0  0  0  0  0  0  0  0  0  0  0
    1.7635   -4.6818    0.1429 C   0  0  0  0  0  0  0  0  0  0  0  0
    1.2533   -5.3622    0.8416 H   0  0  0  0  0  0  0  0  0  0  0  0
    1.7007   -3.2985    0.3550 C   0  0  0  0  0  0  0  0  0  0  0  0
    1.1364   -2.8822    1.2058 H   0  0  0  0  0  0  0  0  0  0  0  0
    3.3096   -0.3436    1.2664 C   0  0  0  0  0  0  0  0  0  0  0  0
    4.4709   -1.1189    1.4559 C   0  0  0  0  0  0  0  0  0  0  0  0
    4.6889   -1.9575    0.7766 H   0  0  0  0  0  0  0  0  0  0  0  0
    5.3465   -0.8251    2.5119 C   0  0  0  0  0  0  0  0  0  0  0  0
    6.2502   -1.4363    2.6575 H   0  0  0  0  0  0  0  0  0  0  0  0
    5.0705    0.2447    3.3791 C   0  0  0  0  0  0  0  0  0  0  0  0
    5.7586    0.4735    4.2072 H   0  0  0  0  0  0  0  0  0  0  0  0
    3.9127    1.0170    3.1934 C   0  0  0  0  0  0  0  0  0  0  0  0
    3.6878    1.8495    3.8772 H   0  0  0  0  0  0  0  0  0  0  0  0
    3.0286    0.7220    2.1447 C   0  0  0  0  0  0  0  0  0  0  0  0
    2.1045    1.3039    2.0114 H   0  0  0  0  0  0  0  0  0  0  0  0
    3.1975    0.2081   -1.5334 C   0  0  0  0  0  0  0  0  0  0  0  0
    4.2237   -0.2216   -1.5268 H   0  0  0  0  0  0  0  0  0  0  0  0
    2.6991   -0.0337   -2.4943 H   0  0  0  0  0  0  0  0  0  0  0  0
    3.2748    1.7247   -1.3375 C   0  0  0  0  0  0  0  0  0  0  0  0
    3.4094    1.9718   -0.2631 H   0  0  0  0  0  0  0  0  0  0  0  0
    2.3056    2.1733   -1.6398 H   0  0  0  0  0  0  0  0  0  0  0  0
    4.4119    2.3674   -2.1370 C   0  0  0  0  0  0  0  0  0  0  0  0
    4.4122    3.4686   -1.9920 H   0  0  0  0  0  0  0  0  0  0  0  0
    4.2870    2.1816   -3.2246 H   0  0  0  0  0  0  0  0  0  0  0  0
    6.2228    2.1472   -0.0004 C   0  0  0  0  0  0  0  0  0  0  0  0
    7.2544    1.8874    0.3054 H   0  0  0  0  0  0  0  0  0  0  0  0
    5.5178    1.5704    0.6305 H   0  0  0  0  0  0  0  0  0  0  0  0
    6.0689    3.2338    0.1619 H   0  0  0  0  0  0  0  0  0  0  0  0
  1 34  1  0  0  0  0
  2 14  1  0  0  0  0
  3  2  1  0  0  0  0
  3 12  1  0  0  0  0
  4  3  2  0  0  0  0
  5  4  1  0  0  0  0
  6  4  1  0  0  0  0
  6  8  2  0  0  0  0
  7  6  1  0  0  0  0
  8 10  1  0  0  0  0
  9  8  1  0  0  0  0
 10 12  2  0  0  0  0
 10 11  1  0  0  0  0
 12 13  1  0  0  0  0
 14 15  2  0  0  0  0
 14 23  1  0  0  0  0
 15 17  1  0  0  0  0
 16 15  1  0  0  0  0
 17 18  1  0  0  0  0
 17 19  2  0  0  0  0
 19 20  1  0  0  0  0
 21 19  1  0  0  0  0
 21 22  1  0  0  0  0
 23 21  2  0  0  0  0
 24 23  1  0  0  0  0
 25 26  1  0  0  0  0
 25 28  1  0  0  0  0
 25  2  1  0  0  0  0
 27 25  1  0  0  0  0
 28 29  1  0  0  0  0
 30 28  1  0  0  0  0
 31 32  1  0  0  0  0
 31  1  1  0  0  0  0
 31 28  1  0  0  0  0
 33 31  1  0  0  0  0
 34 37  1  0  0  0  0
 34 35  1  0  0  0  0
 34 36  1  0  0  0  0
M  END
