2
 OpenBabel05122313063D

 27 27  0  0  0  0  0  0  0  0999 V2000
    4.0319    1.0181    0.6855 S   0  0  0  0  0  0  0  0  0  0  0  0
    2.0030   -1.1324   -0.3774 P   0  0  2  0  0  0  0  0  0  0  0  0
    1.9864   -1.8760   -1.8499 O   0  0  0  0  0  0  0  0  0  0  0  0
    1.0599   -1.7476   -2.2062 H   0  0  0  0  0  0  0  0  0  0  0  0
    6.4389    2.4309    0.2773 C   0  0  0  0  0  0  0  0  0  0  0  0
    7.2661    2.5533   -0.4479 H   0  0  0  0  0  0  0  0  0  0  0  0
    5.9649    3.4237    0.4241 H   0  0  0  0  0  0  0  0  0  0  0  0
    6.8812    2.1323    1.2507 H   0  0  0  0  0  0  0  0  0  0  0  0
    5.4632    1.4143   -0.2300 C   0  0  0  0  0  0  0  0  0  0  0  0
    5.5073    0.6869   -1.4100 C   0  0  0  0  0  0  0  0  0  0  0  0
    6.3200    0.7956   -2.1424 H   0  0  0  0  0  0  0  0  0  0  0  0
    4.4029   -0.1972   -1.5719 C   0  0  0  0  0  0  0  0  0  0  0  0
    4.2387   -0.8557   -2.4349 H   0  0  0  0  0  0  0  0  0  0  0  0
    3.5096   -0.1449   -0.5076 C   0  0  0  0  0  0  0  0  0  0  0  0
    2.3502   -2.5570    0.8009 C   0  0  0  0  0  0  0  0  0  0  0  0
    3.5320   -3.3683    0.2491 C   0  0  0  0  0  0  0  0  0  0  0  0
    3.7190   -4.2390    0.9124 H   0  0  0  0  0  0  0  0  0  0  0  0
    3.3221   -3.7461   -0.7702 H   0  0  0  0  0  0  0  0  0  0  0  0
    4.4593   -2.7616    0.2128 H   0  0  0  0  0  0  0  0  0  0  0  0
    1.0585   -3.3947    0.8131 C   0  0  0  0  0  0  0  0  0  0  0  0
    1.2105   -4.3040    1.4313 H   0  0  0  0  0  0  0  0  0  0  0  0
    0.2119   -2.8178    1.2381 H   0  0  0  0  0  0  0  0  0  0  0  0
    0.7730   -3.7136   -0.2092 H   0  0  0  0  0  0  0  0  0  0  0  0
    2.6613   -2.0131    2.2017 C   0  0  0  0  0  0  0  0  0  0  0  0
    2.8015   -2.8680    2.8964 H   0  0  0  0  0  0  0  0  0  0  0  0
    3.5944   -1.4145    2.2118 H   0  0  0  0  0  0  0  0  0  0  0  0
    1.8430   -1.3763    2.5909 H   0  0  0  0  0  0  0  0  0  0  0  0
  2  3  1  6  0  0  0
  2 15  1  0  0  0  0
  4  3  1  0  0  0  0
  5  7  1  0  0  0  0
  5  8  1  0  0  0  0
  6  5  1  0  0  0  0
  9  5  1  0  0  0  0
  9  1  1  0  0  0  0
 10  9  2  0  0  0  0
 11 10  1  0  0  0  0
 12 10  1  0  0  0  0
 12 14  2  0  0  0  0
 13 12  1  0  0  0  0
 14  2  1  0  0  0  0
 14  1  1  0  0  0  0
 15 20  1  0  0  0  0
 15 24  1  0  0  0  0
 16 15  1  0  0  0  0
 16 17  1  0  0  0  0
 18 16  1  0  0  0  0
 19 16  1  0  0  0  0
 20 22  1  0  0  0  0
 20 21  1  0  0  0  0
 23 20  1  0  0  0  0
 24 26  1  0  0  0  0
 24 27  1  0  0  0  0
 24 25  1  0  0  0  0
M  END
