36
 OpenBabel05122313063D

 37 37  0  0  0  0  0  0  0  0999 V2000
    0.8329    0.0323    2.3114 C   0  0  0  0  0  0  0  0  0  0  0  0
    1.9105   -0.1781    2.4587 H   0  0  0  0  0  0  0  0  0  0  0  0
    0.2450   -0.4552    3.1140 H   0  0  0  0  0  0  0  0  0  0  0  0
    0.6570    1.1242    2.3572 H   0  0  0  0  0  0  0  0  0  0  0  0
    2.7997    0.0582   -0.1984 C   0  0  0  0  0  0  0  0  0  0  0  0
    3.2958    1.3830   -0.0173 C   0  0  0  0  0  0  0  0  0  0  0  0
    2.3580    2.5746   -0.1640 C   0  0  0  0  0  0  0  0  0  0  0  0
    1.3715    2.2566    0.2369 H   0  0  0  0  0  0  0  0  0  0  0  0
    2.1493    2.9334   -1.6493 C   0  0  0  0  0  0  0  0  0  0  0  0
    3.0983    3.2950   -2.0955 H   0  0  0  0  0  0  0  0  0  0  0  0
    1.3821    3.7257   -1.7597 H   0  0  0  0  0  0  0  0  0  0  0  0
    1.8229    2.0629   -2.2560 H   0  0  0  0  0  0  0  0  0  0  0  0
    2.7837    3.8117    0.6344 C   0  0  0  0  0  0  0  0  0  0  0  0
    3.7080    4.2706    0.2270 H   0  0  0  0  0  0  0  0  0  0  0  0
    2.9662    3.5676    1.7002 H   0  0  0  0  0  0  0  0  0  0  0  0
    1.9901    4.5839    0.5889 H   0  0  0  0  0  0  0  0  0  0  0  0
    4.6606    1.5515    0.2722 C   0  0  0  0  0  0  0  0  0  0  0  0
    5.0634    2.5650    0.4117 H   0  0  0  0  0  0  0  0  0  0  0  0
    5.5133    0.4469    0.4082 C   0  0  0  0  0  0  0  0  0  0  0  0
    6.5761    0.5987    0.6500 H   0  0  0  0  0  0  0  0  0  0  0  0
    5.0110   -0.8465    0.2327 C   0  0  0  0  0  0  0  0  0  0  0  0
    5.6879   -1.7095    0.3280 H   0  0  0  0  0  0  0  0  0  0  0  0
    3.6567   -1.0675   -0.0859 C   0  0  0  0  0  0  0  0  0  0  0  0
    3.1548   -2.4844   -0.3332 C   0  0  0  0  0  0  0  0  0  0  0  0
    2.1025   -2.3971   -0.6717 H   0  0  0  0  0  0  0  0  0  0  0  0
    3.1833   -3.3289    0.9527 C   0  0  0  0  0  0  0  0  0  0  0  0
    4.2219   -3.4650    1.3195 H   0  0  0  0  0  0  0  0  0  0  0  0
    2.7553   -4.3367    0.7746 H   0  0  0  0  0  0  0  0  0  0  0  0
    2.6050   -2.8521    1.7703 H   0  0  0  0  0  0  0  0  0  0  0  0
    3.9358   -3.1707   -1.4666 C   0  0  0  0  0  0  0  0  0  0  0  0
    5.0027   -3.3176   -1.1994 H   0  0  0  0  0  0  0  0  0  0  0  0
    3.9007   -2.5713   -2.3978 H   0  0  0  0  0  0  0  0  0  0  0  0
    3.5072   -4.1703   -1.6841 H   0  0  0  0  0  0  0  0  0  0  0  0
    1.4146   -0.1378   -0.4879 N   0  0  0  0  0  0  0  0  0  0  0  0
    1.0117    0.5480   -1.1320 H   0  0  0  0  0  0  0  0  0  0  0  0
    0.2456   -0.6155    0.6896 P   0  0  0  0  0  0  0  0  0  0  0  0
    0.5584   -2.0015    0.8755 H   0  0  0  0  0  0  0  0  0  0  0  0
  1  4  1  0  0  0  0
  1  2  1  0  0  0  0
  1  3  1  0  0  0  0
  5 23  2  0  0  0  0
  5  6  1  0  0  0  0
  6 17  2  0  0  0  0
  7  6  1  0  0  0  0
  7  8  1  0  0  0  0
  7 13  1  0  0  0  0
  9  7  1  0  0  0  0
 10  9  1  0  0  0  0
 11  9  1  0  0  0  0
 12  9  1  0  0  0  0
 13 15  1  0  0  0  0
 14 13  1  0  0  0  0
 16 13  1  0  0  0  0
 17 19  1  0  0  0  0
 17 18  1  0  0  0  0
 19 20  1  0  0  0  0
 21 22  1  0  0  0  0
 21 19  2  0  0  0  0
 23 21  1  0  0  0  0
 24 23  1  0  0  0  0
 24 26  1  0  0  0  0
 25 24  1  0  0  0  0
 26 27  1  0  0  0  0
 26 29  1  0  0  0  0
 28 26  1  0  0  0  0
 30 31  1  0  0  0  0
 30 24  1  0  0  0  0
 32 30  1  0  0  0  0
 33 30  1  0  0  0  0
 34  5  1  0  0  0  0
 34 36  1  0  0  0  0
 35 34  1  0  0  0  0
 36 37  1  0  0  0  0
 36  1  1  0  0  0  0
M  END
