1
 OpenBabel05122313063D

 57 59  0  0  1  0  0  0  0  0999 V2000
    0.1329   -0.2219    0.0222 P   0  0  1  0  0  0  0  0  0  0  0  0
   -0.3768   -3.3573    0.2531 Si  0  0  0  0  0  0  0  0  0  0  0  0
    0.6075   -1.6308    2.8412 Si  0  0  0  0  0  0  0  0  0  0  0  0
    1.0986    1.0016    0.7703 N   0  0  0  0  0  0  0  0  0  0  0  0
    0.0106    0.1655   -3.7711 N   0  0  0  0  0  0  0  0  0  0  0  0
    1.4100   -0.1635   -1.5696 C   0  0  1  0  0  0  0  0  0  0  0  0
    1.9387    1.5502   -0.0351 C   0  0  0  0  0  0  0  0  0  0  0  0
    2.7595    2.7286    0.2855 C   0  0  0  0  0  0  0  0  0  0  0  0
    2.4978    3.4364    1.4796 C   0  0  0  0  0  0  0  0  0  0  0  0
    1.6717    3.1006    2.1232 H   0  0  0  0  0  0  0  0  0  0  0  0
    3.2717    4.5532    1.8111 C   0  0  0  0  0  0  0  0  0  0  0  0
    3.0635    5.1066    2.7389 H   0  0  0  0  0  0  0  0  0  0  0  0
    4.3074    4.9722    0.9573 C   0  0  0  0  0  0  0  0  0  0  0  0
    4.9134    5.8527    1.2198 H   0  0  0  0  0  0  0  0  0  0  0  0
    4.5653    4.2737   -0.2335 C   0  0  0  0  0  0  0  0  0  0  0  0
    5.3722    4.6054   -0.9038 H   0  0  0  0  0  0  0  0  0  0  0  0
    3.7941    3.1551   -0.5745 C   0  0  0  0  0  0  0  0  0  0  0  0
    3.9832    2.6029   -1.5053 H   0  0  0  0  0  0  0  0  0  0  0  0
    0.5261   -1.7696    0.9100 C   0  0  0  0  0  0  0  0  0  0  0  0
    1.5953   -1.9716    0.6682 H   0  0  0  0  0  0  0  0  0  0  0  0
   -1.1806   -3.0708   -1.4347 C   0  0  0  0  0  0  0  0  0  0  0  0
   -2.1400   -2.5304   -1.3267 H   0  0  0  0  0  0  0  0  0  0  0  0
   -1.4038   -4.0571   -1.8925 H   0  0  0  0  0  0  0  0  0  0  0  0
   -0.5556   -2.5062   -2.1523 H   0  0  0  0  0  0  0  0  0  0  0  0
   -1.7459   -4.0069    1.3858 C   0  0  0  0  0  0  0  0  0  0  0  0
   -2.5942   -3.3021    1.4697 H   0  0  0  0  0  0  0  0  0  0  0  0
   -1.3974   -4.2553    2.4063 H   0  0  0  0  0  0  0  0  0  0  0  0
   -2.1353   -4.9423    0.9315 H   0  0  0  0  0  0  0  0  0  0  0  0
    0.9665   -4.6805    0.1034 C   0  0  0  0  0  0  0  0  0  0  0  0
    0.5262   -5.6194   -0.2918 H   0  0  0  0  0  0  0  0  0  0  0  0
    1.4263   -4.9096    1.0849 H   0  0  0  0  0  0  0  0  0  0  0  0
    1.7709   -4.3627   -0.5888 H   0  0  0  0  0  0  0  0  0  0  0  0
    1.1885   -3.3172    3.4904 C   0  0  0  0  0  0  0  0  0  0  0  0
    2.1763   -3.5845    3.0617 H   0  0  0  0  0  0  0  0  0  0  0  0
    0.4893   -4.1508    3.2901 H   0  0  0  0  0  0  0  0  0  0  0  0
    1.3142   -3.2413    4.5906 H   0  0  0  0  0  0  0  0  0  0  0  0
    1.9413   -0.4034    3.3792 C   0  0  0  0  0  0  0  0  0  0  0  0
    2.1143   -0.5130    4.4705 H   0  0  0  0  0  0  0  0  0  0  0  0
    1.6489    0.6404    3.1618 H   0  0  0  0  0  0  0  0  0  0  0  0
    2.9035   -0.6011    2.8632 H   0  0  0  0  0  0  0  0  0  0  0  0
   -1.0475   -1.1529    3.6057 C   0  0  0  0  0  0  0  0  0  0  0  0
   -0.9621   -1.1885    4.7115 H   0  0  0  0  0  0  0  0  0  0  0  0
   -1.8686   -1.8298    3.3032 H   0  0  0  0  0  0  0  0  0  0  0  0
   -1.3320   -0.1197    3.3276 H   0  0  0  0  0  0  0  0  0  0  0  0
    2.3757   -1.3245   -1.6631 C   0  0  0  0  0  0  0  0  0  0  0  0
    2.2382   -2.3268   -2.6425 C   0  0  0  0  0  0  0  0  0  0  0  0
    1.4295   -2.2574   -3.3847 H   0  0  0  0  0  0  0  0  0  0  0  0
    3.1453   -3.3956   -2.6954 C   0  0  0  0  0  0  0  0  0  0  0  0
    3.0287   -4.1662   -3.4718 H   0  0  0  0  0  0  0  0  0  0  0  0
    4.1987   -3.4772   -1.7722 C   0  0  0  0  0  0  0  0  0  0  0  0
    4.9094   -4.3158   -1.8158 H   0  0  0  0  0  0  0  0  0  0  0  0
    4.3466   -2.4761   -0.7984 C   0  0  0  0  0  0  0  0  0  0  0  0
    5.1764   -2.5240   -0.0774 H   0  0  0  0  0  0  0  0  0  0  0  0
    3.4455   -1.4041   -0.7445 C   0  0  0  0  0  0  0  0  0  0  0  0
    3.5854   -0.6141    0.0080 H   0  0  0  0  0  0  0  0  0  0  0  0
    0.6346    0.0314   -2.7882 C   0  0  0  0  0  0  0  0  0  0  0  0
    2.1391    1.0530   -1.3021 O   0  0  0  0  0  0  0  0  0  0  0  0
  1  4  1  0  0  0  0
  1 19  1  1  0  0  0
  2 19  1  0  0  0  0
  2 25  1  0  0  0  0
  3 37  1  0  0  0  0
  3 33  1  0  0  0  0
  3 41  1  0  0  0  0
  5 56  3  0  0  0  0
  6 56  1  6  0  0  0
  6 57  1  0  0  0  0
  6  1  1  0  0  0  0
  7  8  1  0  0  0  0
  7  4  2  0  0  0  0
  8  9  1  0  0  0  0
  9 11  2  0  0  0  0
  9 10  1  0  0  0  0
 11 12  1  0  0  0  0
 13 14  1  0  0  0  0
 13 11  1  0  0  0  0
 15 13  2  0  0  0  0
 16 15  1  0  0  0  0
 17 15  1  0  0  0  0
 17  8  2  0  0  0  0
 18 17  1  0  0  0  0
 19  3  1  0  0  0  0
 20 19  1  0  0  0  0
 21 22  1  0  0  0  0
 21  2  1  0  0  0  0
 23 21  1  0  0  0  0
 24 21  1  0  0  0  0
 25 26  1  0  0  0  0
 25 27  1  0  0  0  0
 28 25  1  0  0  0  0
 29  2  1  0  0  0  0
 29 31  1  0  0  0  0
 30 29  1  0  0  0  0
 32 29  1  0  0  0  0
 33 36  1  0  0  0  0
 34 33  1  0  0  0  0
 35 33  1  0  0  0  0
 37 38  1  0  0  0  0
 39 37  1  0  0  0  0
 40 37  1  0  0  0  0
 41 42  1  0  0  0  0
 43 41  1  0  0  0  0
 44 41  1  0  0  0  0
 45  6  1  0  0  0  0
 45 54  1  0  0  0  0
 46 45  2  0  0  0  0
 47 46  1  0  0  0  0
 48 46  1  0  0  0  0
 48 50  2  0  0  0  0
 49 48  1  0  0  0  0
 50 52  1  0  0  0  0
 51 50  1  0  0  0  0
 52 54  2  0  0  0  0
 52 53  1  0  0  0  0
 54 55  1  0  0  0  0
 57  7  1  0  0  0  0
M  END
