1
 OpenBabel05122313063D

 38 41  0  0  1  0  0  0  0  0999 V2000
    0.3971    1.0750    0.1293 P   0  0  1  0  0  0  0  0  0  0  0  0
   -0.9680    1.9258    1.1154 C   0  0  1  0  0  0  0  0  0  0  0  0
   -0.9740    2.2110   -0.3901 C   0  0  2  0  0  0  0  0  0  0  0  0
    1.8589    2.1690    0.2559 C   0  0  0  0  0  0  0  0  0  0  0  0
    2.3635    2.8126   -0.8928 C   0  0  0  0  0  0  0  0  0  0  0  0
    3.5329    3.5828   -0.8087 C   0  0  0  0  0  0  0  0  0  0  0  0
    4.2057    3.7106    0.4172 C   0  0  0  0  0  0  0  0  0  0  0  0
    3.7105    3.0640    1.5612 C   0  0  0  0  0  0  0  0  0  0  0  0
    2.5431    2.2907    1.4825 C   0  0  0  0  0  0  0  0  0  0  0  0
   -1.9392    1.0752    1.8548 C   0  0  0  0  0  0  0  0  0  0  0  0
   -2.0566    1.2602    3.2511 C   0  0  0  0  0  0  0  0  0  0  0  0
   -2.8949    0.4438    4.0206 C   0  0  0  0  0  0  0  0  0  0  0  0
   -3.6393   -0.5777    3.4089 C   0  0  0  0  0  0  0  0  0  0  0  0
   -3.5403   -0.7665    2.0225 C   0  0  0  0  0  0  0  0  0  0  0  0
   -2.7008    0.0490    1.2511 C   0  0  0  0  0  0  0  0  0  0  0  0
   -2.0680    1.8163   -1.3337 C   0  0  0  0  0  0  0  0  0  0  0  0
   -3.4010    2.1973   -1.0704 C   0  0  0  0  0  0  0  0  0  0  0  0
   -4.4233    1.8752   -1.9737 C   0  0  0  0  0  0  0  0  0  0  0  0
   -4.1287    1.1695   -3.1519 C   0  0  0  0  0  0  0  0  0  0  0  0
   -2.8046    0.7940   -3.4253 C   0  0  0  0  0  0  0  0  0  0  0  0
   -1.7811    1.1177   -2.5226 C   0  0  0  0  0  0  0  0  0  0  0  0
   -0.5788    2.7615    1.7209 H   0  0  0  0  0  0  0  0  0  0  0  0
   -0.5694    3.2179   -0.6069 H   0  0  0  0  0  0  0  0  0  0  0  0
    1.8425    2.7044   -1.8572 H   0  0  0  0  0  0  0  0  0  0  0  0
    3.9227    4.0836   -1.7079 H   0  0  0  0  0  0  0  0  0  0  0  0
    5.1239    4.3139    0.4805 H   0  0  0  0  0  0  0  0  0  0  0  0
    4.2394    3.1583    2.5216 H   0  0  0  0  0  0  0  0  0  0  0  0
    2.1616    1.7740    2.3772 H   0  0  0  0  0  0  0  0  0  0  0  0
   -1.4701    2.0552    3.7386 H   0  0  0  0  0  0  0  0  0  0  0  0
   -2.9647    0.6042    5.1072 H   0  0  0  0  0  0  0  0  0  0  0  0
   -4.2938   -1.2244    4.0123 H   0  0  0  0  0  0  0  0  0  0  0  0
   -4.1168   -1.5631    1.5284 H   0  0  0  0  0  0  0  0  0  0  0  0
   -2.6416   -0.1191    0.1699 H   0  0  0  0  0  0  0  0  0  0  0  0
   -3.6349    2.7381   -0.1409 H   0  0  0  0  0  0  0  0  0  0  0  0
   -5.4599    2.1720   -1.7528 H   0  0  0  0  0  0  0  0  0  0  0  0
   -4.9335    0.9092   -3.8558 H   0  0  0  0  0  0  0  0  0  0  0  0
   -2.5655    0.2369   -4.3435 H   0  0  0  0  0  0  0  0  0  0  0  0
   -0.7448    0.8103   -2.7287 H   0  0  0  0  0  0  0  0  0  0  0  0
  1  4  1  1  0  0  0
  1  2  1  0  0  0  0
  2 22  1  1  0  0  0
  2 10  1  0  0  0  0
  3 23  1  6  0  0  0
  3  1  1  0  0  0  0
  3  2  1  0  0  0  0
  4  9  1  0  0  0  0
  5  6  1  0  0  0  0
  5  4  2  0  0  0  0
  6  7  2  0  0  0  0
  7 26  1  0  0  0  0
  7  8  1  0  0  0  0
  8 27  1  0  0  0  0
  9  8  2  0  0  0  0
  9 28  1  0  0  0  0
 10 11  1  0  0  0  0
 11 29  1  0  0  0  0
 11 12  2  0  0  0  0
 12 30  1  0  0  0  0
 13 31  1  0  0  0  0
 13 12  1  0  0  0  0
 14 13  2  0  0  0  0
 15 10  2  0  0  0  0
 15 14  1  0  0  0  0
 16 17  1  0  0  0  0
 16  3  1  0  0  0  0
 17 34  1  0  0  0  0
 18 35  1  0  0  0  0
 18 17  2  0  0  0  0
 19 18  1  0  0  0  0
 20 19  2  0  0  0  0
 20 21  1  0  0  0  0
 21 16  2  0  0  0  0
 24  5  1  0  0  0  0
 25  6  1  0  0  0  0
 32 14  1  0  0  0  0
 33 15  1  0  0  0  0
 36 19  1  0  0  0  0
 37 20  1  0  0  0  0
 38 21  1  0  0  0  0
M  END
