1
 OpenBabel05122313063D

 42 45  0  0  1  0  0  0  0  0999 V2000
    0.4536    0.2375   -0.0001 P   0  0  1  0  0  0  0  0  0  0  0  0
    1.8357   -0.7260   -0.7856 C   0  0  2  0  0  0  0  0  0  0  0  0
    1.8358   -0.7254    0.7859 C   0  0  1  0  0  0  0  0  0  0  0  0
    3.2268   -0.0288    0.7962 C   0  0  1  0  0  0  0  0  0  0  0  0
    4.3396   -1.0758    0.6795 C   0  0  0  0  0  0  0  0  0  0  0  0
    4.3395   -1.0762   -0.6794 C   0  0  0  0  0  0  0  0  0  0  0  0
    3.2266   -0.0294   -0.7966 C   0  0  1  0  0  0  0  0  0  0  0  0
    1.5083   -1.8738   -1.7075 C   0  0  0  0  0  0  0  0  0  0  0  0
    1.5148   -1.5424   -2.7663 H   0  0  0  0  0  0  0  0  0  0  0  0
    0.5100   -2.3013   -1.4990 H   0  0  0  0  0  0  0  0  0  0  0  0
    2.2530   -2.6883   -1.5940 H   0  0  0  0  0  0  0  0  0  0  0  0
    1.5086   -1.8725    1.7088 C   0  0  0  0  0  0  0  0  0  0  0  0
    2.2529   -2.6875    1.5952 H   0  0  0  0  0  0  0  0  0  0  0  0
    0.5100   -2.2997    1.5015 H   0  0  0  0  0  0  0  0  0  0  0  0
    1.5162   -1.5404    2.7673 H   0  0  0  0  0  0  0  0  0  0  0  0
    3.5223    1.1713    1.6714 C   0  0  0  0  0  0  0  0  0  0  0  0
    3.4655    0.8947    2.7456 H   0  0  0  0  0  0  0  0  0  0  0  0
    2.8210    2.0071    1.4972 H   0  0  0  0  0  0  0  0  0  0  0  0
    4.5500    1.5422    1.4796 H   0  0  0  0  0  0  0  0  0  0  0  0
    5.1077   -1.7882    1.7386 C   0  0  0  0  0  0  0  0  0  0  0  0
    5.8696   -2.4667    1.3060 H   0  0  0  0  0  0  0  0  0  0  0  0
    4.4432   -2.3921    2.3933 H   0  0  0  0  0  0  0  0  0  0  0  0
    5.6305   -1.0686    2.4053 H   0  0  0  0  0  0  0  0  0  0  0  0
    5.1075   -1.7893   -1.7382 C   0  0  0  0  0  0  0  0  0  0  0  0
    5.8693   -2.4676   -1.3053 H   0  0  0  0  0  0  0  0  0  0  0  0
    5.6303   -1.0702   -2.4054 H   0  0  0  0  0  0  0  0  0  0  0  0
    4.4429   -2.3935   -2.3925 H   0  0  0  0  0  0  0  0  0  0  0  0
    3.5219    1.1702   -1.6727 C   0  0  0  0  0  0  0  0  0  0  0  0
    4.5495    1.5414   -1.4811 H   0  0  0  0  0  0  0  0  0  0  0  0
    2.8204    2.0060   -1.4990 H   0  0  0  0  0  0  0  0  0  0  0  0
    3.4651    0.8928   -2.7467 H   0  0  0  0  0  0  0  0  0  0  0  0
    0.5841    2.0629   -0.0002 C   0  0  0  0  0  0  0  0  0  0  0  0
    0.5056    2.7702    1.2176 C   0  0  0  0  0  0  0  0  0  0  0  0
    0.5124    2.2207    2.1716 H   0  0  0  0  0  0  0  0  0  0  0  0
    0.3963    4.1685    1.2149 C   0  0  0  0  0  0  0  0  0  0  0  0
    0.3387    4.7125    2.1698 H   0  0  0  0  0  0  0  0  0  0  0  0
    0.3495    4.8704   -0.0002 C   0  0  0  0  0  0  0  0  0  0  0  0
    0.2589    5.9670   -0.0001 H   0  0  0  0  0  0  0  0  0  0  0  0
    0.3970    4.1686   -1.2153 C   0  0  0  0  0  0  0  0  0  0  0  0
    0.3399    4.7127   -2.1702 H   0  0  0  0  0  0  0  0  0  0  0  0
    0.5063    2.7704   -1.2181 C   0  0  0  0  0  0  0  0  0  0  0  0
    0.5136    2.2209   -2.1721 H   0  0  0  0  0  0  0  0  0  0  0  0
  1 32  1  6  0  0  0
  1  3  1  0  0  0  0
  2  8  1  6  0  0  0
  2  1  1  0  0  0  0
  2  3  1  0  0  0  0
  3  4  1  0  0  0  0
  3 12  1  1  0  0  0
  4 16  1  1  0  0  0
  5  4  1  0  0  0  0
  5 20  1  0  0  0  0
  6  5  2  0  0  0  0
  7 28  1  6  0  0  0
  7  2  1  0  0  0  0
  7  6  1  0  0  0  0
  7  4  1  0  0  0  0
  8 11  1  0  0  0  0
  8 10  1  0  0  0  0
  9  8  1  0  0  0  0
 12 15  1  0  0  0  0
 13 12  1  0  0  0  0
 14 12  1  0  0  0  0
 16 17  1  0  0  0  0
 18 16  1  0  0  0  0
 19 16  1  0  0  0  0
 20 22  1  0  0  0  0
 20 23  1  0  0  0  0
 21 20  1  0  0  0  0
 24 25  1  0  0  0  0
 24  6  1  0  0  0  0
 26 24  1  0  0  0  0
 27 24  1  0  0  0  0
 28 30  1  0  0  0  0
 28 29  1  0  0  0  0
 31 28  1  0  0  0  0
 32 33  1  0  0  0  0
 33 34  1  0  0  0  0
 35 33  2  0  0  0  0
 35 36  1  0  0  0  0
 37 38  1  0  0  0  0
 37 35  1  0  0  0  0
 39 37  2  0  0  0  0
 40 39  1  0  0  0  0
 41 39  1  0  0  0  0
 41 32  2  0  0  0  0
 42 41  1  0  0  0  0
M  END
