1
 OpenBabel05122313063D

 70 76  0  0  0  0  0  0  0  0999 V2000
    0.8598    2.1633   -0.1786 P   0  0  0  0  0  0  0  0  0  0  0  0
   -2.4813    0.0459   -0.4542 N   0  0  0  0  0  0  0  0  0  0  0  0
   -2.8835    1.2559   -0.9569 N   0  0  0  0  0  0  0  0  0  0  0  0
   -1.8710    2.0703   -0.8931 N   0  0  0  0  0  0  0  0  0  0  0  0
   -0.7898    1.4166   -0.3600 C   0  0  0  0  0  0  0  0  0  0  0  0
   -1.1645    0.0952   -0.0644 C   0  0  0  0  0  0  0  0  0  0  0  0
   -3.3837   -1.0609   -0.4162 C   0  0  0  0  0  0  0  0  0  0  0  0
   -3.5700   -1.7921    0.7814 C   0  0  0  0  0  0  0  0  0  0  0  0
   -4.3595   -2.9537    0.6629 C   0  0  0  0  0  0  0  0  0  0  0  0
   -4.4737   -3.6002    1.5472 H   0  0  0  0  0  0  0  0  0  0  0  0
   -5.1536   -3.1985   -0.4644 C   0  0  0  0  0  0  0  0  0  0  0  0
   -5.8607   -4.0429   -0.4507 H   0  0  0  0  0  0  0  0  0  0  0  0
   -5.1996   -2.2662   -1.5198 C   0  0  0  0  0  0  0  0  0  0  0  0
   -4.1963   -1.2792   -1.5397 C   0  0  0  0  0  0  0  0  0  0  0  0
   -4.1187   -0.5713   -2.3778 H   0  0  0  0  0  0  0  0  0  0  0  0
   -3.2834   -1.2246    2.1571 C   0  0  0  0  0  0  0  0  0  0  0  0
   -2.2322   -0.9001    2.2801 H   0  0  0  0  0  0  0  0  0  0  0  0
   -3.4392   -2.0396    2.8914 H   0  0  0  0  0  0  0  0  0  0  0  0
   -4.2359   -0.0066    2.5304 C   0  0  0  0  0  0  0  0  0  0  0  0
   -4.4205   -0.0528    3.6239 H   0  0  0  0  0  0  0  0  0  0  0  0
   -3.6962    0.9428    2.3369 H   0  0  0  0  0  0  0  0  0  0  0  0
   -5.5251   -0.0117    1.7349 C   0  0  0  0  0  0  0  0  0  0  0  0
   -6.4838   -1.0330    1.8976 C   0  0  0  0  0  0  0  0  0  0  0  0
   -6.4691   -1.6570    2.8062 H   0  0  0  0  0  0  0  0  0  0  0  0
   -7.3283   -1.3890    0.8373 C   0  0  0  0  0  0  0  0  0  0  0  0
   -7.9633   -2.2848    0.9328 H   0  0  0  0  0  0  0  0  0  0  0  0
   -7.2479   -0.7301   -0.4082 C   0  0  0  0  0  0  0  0  0  0  0  0
   -6.5103    0.4694   -0.4513 C   0  0  0  0  0  0  0  0  0  0  0  0
   -6.4736    1.0588   -1.3815 H   0  0  0  0  0  0  0  0  0  0  0  0
   -5.6602    0.8219    0.6058 C   0  0  0  0  0  0  0  0  0  0  0  0
   -4.9742    1.6713    0.4700 H   0  0  0  0  0  0  0  0  0  0  0  0
   -7.6507   -1.4442   -1.6798 C   0  0  0  0  0  0  0  0  0  0  0  0
   -8.1240   -0.7476   -2.4016 H   0  0  0  0  0  0  0  0  0  0  0  0
   -8.4048   -2.2211   -1.4417 H   0  0  0  0  0  0  0  0  0  0  0  0
   -6.4128   -2.1425   -2.4143 C   0  0  0  0  0  0  0  0  0  0  0  0
   -6.7429   -3.1369   -2.7782 H   0  0  0  0  0  0  0  0  0  0  0  0
   -6.1457   -1.5455   -3.3087 H   0  0  0  0  0  0  0  0  0  0  0  0
   -0.3813   -1.0282    0.4687 C   0  0  0  0  0  0  0  0  0  0  0  0
   -0.3152   -2.2607   -0.2158 C   0  0  0  0  0  0  0  0  0  0  0  0
   -0.8816   -2.3970   -1.1480 H   0  0  0  0  0  0  0  0  0  0  0  0
    0.5092   -3.2862    0.2639 C   0  0  0  0  0  0  0  0  0  0  0  0
    0.5918   -4.2262   -0.3013 H   0  0  0  0  0  0  0  0  0  0  0  0
    1.2565   -3.1044    1.4389 C   0  0  0  0  0  0  0  0  0  0  0  0
    1.9138   -3.9085    1.8022 H   0  0  0  0  0  0  0  0  0  0  0  0
    1.1814   -1.8899    2.1367 C   0  0  0  0  0  0  0  0  0  0  0  0
    1.7733   -1.7380    3.0511 H   0  0  0  0  0  0  0  0  0  0  0  0
    0.3752   -0.8511    1.6515 C   0  0  0  0  0  0  0  0  0  0  0  0
    0.3196    0.1057    2.1930 H   0  0  0  0  0  0  0  0  0  0  0  0
    0.9008    3.4991   -1.4298 C   0  0  0  0  0  0  0  0  0  0  0  0
    0.0443    4.6160   -1.3535 C   0  0  0  0  0  0  0  0  0  0  0  0
   -0.6752    4.7066   -0.5279 H   0  0  0  0  0  0  0  0  0  0  0  0
    0.1089    5.6080   -2.3408 C   0  0  0  0  0  0  0  0  0  0  0  0
   -0.5616    6.4786   -2.2827 H   0  0  0  0  0  0  0  0  0  0  0  0
    1.0229    5.4920   -3.4021 C   0  0  0  0  0  0  0  0  0  0  0  0
    1.0702    6.2756   -4.1736 H   0  0  0  0  0  0  0  0  0  0  0  0
    1.8764    4.3809   -3.4781 C   0  0  0  0  0  0  0  0  0  0  0  0
    2.5949    4.2888   -4.3063 H   0  0  0  0  0  0  0  0  0  0  0  0
    1.8183    3.3837   -2.4926 C   0  0  0  0  0  0  0  0  0  0  0  0
    2.4859    2.5081   -2.5391 H   0  0  0  0  0  0  0  0  0  0  0  0
    0.7874    3.0001    1.4546 C   0  0  0  0  0  0  0  0  0  0  0  0
    1.9970    3.2334    2.1403 C   0  0  0  0  0  0  0  0  0  0  0  0
    2.9481    2.8975    1.6969 H   0  0  0  0  0  0  0  0  0  0  0  0
    1.9827    3.8743    3.3876 C   0  0  0  0  0  0  0  0  0  0  0  0
    2.9289    4.0515    3.9207 H   0  0  0  0  0  0  0  0  0  0  0  0
    0.7643    4.2768    3.9587 C   0  0  0  0  0  0  0  0  0  0  0  0
    0.7547    4.7736    4.9407 H   0  0  0  0  0  0  0  0  0  0  0  0
   -0.4425    4.0378    3.2815 C   0  0  0  0  0  0  0  0  0  0  0  0
   -1.3986    4.3479    3.7299 H   0  0  0  0  0  0  0  0  0  0  0  0
   -0.4356    3.3996    2.0318 C   0  0  0  0  0  0  0  0  0  0  0  0
   -1.3822    3.2078    1.5030 H   0  0  0  0  0  0  0  0  0  0  0  0
  1 60  1  0  0  0  0
  2  7  1  0  0  0  0
  2  6  1  0  0  0  0
  3  4  2  0  0  0  0
  3  2  1  0  0  0  0
  4  5  1  0  0  0  0
  5  1  1  0  0  0  0
  5  6  2  0  0  0  0
  6 38  1  0  0  0  0
  7  8  1  0  0  0  0
  8 16  1  0  0  0  0
  9  8  2  0  0  0  0
  9 10  1  0  0  0  0
 11 12  1  0  0  0  0
 11  9  1  0  0  0  0
 13 11  2  0  0  0  0
 14 13  1  0  0  0  0
 14  7  2  0  0  0  0
 15 14  1  0  0  0  0
 16 17  1  0  0  0  0
 16 19  1  0  0  0  0
 16 18  1  0  0  0  0
 19 20  1  0  0  0  0
 21 19  1  0  0  0  0
 22 23  1  0  0  0  0
 22 19  1  0  0  0  0
 23 24  1  0  0  0  0
 25 26  1  0  0  0  0
 25 23  2  0  0  0  0
 27 25  1  0  0  0  0
 28 27  2  0  0  0  0
 28 30  1  0  0  0  0
 29 28  1  0  0  0  0
 30 22  2  0  0  0  0
 31 30  1  0  0  0  0
 32 34  1  0  0  0  0
 32 27  1  0  0  0  0
 33 32  1  0  0  0  0
 35 32  1  0  0  0  0
 35 13  1  0  0  0  0
 36 35  1  0  0  0  0
 37 35  1  0  0  0  0
 38 47  1  0  0  0  0
 39 41  1  0  0  0  0
 39 38  2  0  0  0  0
 40 39  1  0  0  0  0
 41 43  2  0  0  0  0
 42 41  1  0  0  0  0
 43 44  1  0  0  0  0
 43 45  1  0  0  0  0
 45 46  1  0  0  0  0
 47 45  2  0  0  0  0
 47 48  1  0  0  0  0
 49 50  1  0  0  0  0
 49  1  1  0  0  0  0
 50 51  1  0  0  0  0
 52 53  1  0  0  0  0
 52 50  2  0  0  0  0
 54 52  1  0  0  0  0
 55 54  1  0  0  0  0
 56 54  2  0  0  0  0
 56 58  1  0  0  0  0
 57 56  1  0  0  0  0
 58 49  2  0  0  0  0
 59 58  1  0  0  0  0
 60 69  2  0  0  0  0
 60 61  1  0  0  0  0
 61 63  2  0  0  0  0
 62 61  1  0  0  0  0
 63 64  1  0  0  0  0
 63 65  1  0  0  0  0
 65 66  1  0  0  0  0
 67 68  1  0  0  0  0
 67 65  2  0  0  0  0
 69 67  1  0  0  0  0
 70 69  1  0  0  0  0
M  END
