3
 OpenBabel05122313063D

 57 61  0  0  0  0  0  0  0  0999 V2000
   -1.2404    0.6421   -1.4028 O   0  0  0  0  0  0  0  0  0  0  0  0
   -1.9609    0.3543   -0.0916 P   0  0  0  0  0  0  0  0  0  0  0  0
    1.3863    0.5623    0.0445 P   0  0  0  0  0  0  0  0  0  0  0  0
   -1.1145    1.1136    1.3614 C   0  0  0  0  0  0  0  0  0  0  0  0
    0.3036    1.2025    1.4142 C   0  0  0  0  0  0  0  0  0  0  0  0
    0.9055    1.7850    2.5484 C   0  0  0  0  0  0  0  0  0  0  0  0
    2.0008    1.8568    2.6032 H   0  0  0  0  0  0  0  0  0  0  0  0
    0.1297    2.2766    3.6095 C   0  0  0  0  0  0  0  0  0  0  0  0
    0.6266    2.7277    4.4817 H   0  0  0  0  0  0  0  0  0  0  0  0
   -1.2670    2.1978    3.5510 C   0  0  0  0  0  0  0  0  0  0  0  0
   -1.8839    2.5863    4.3752 H   0  0  0  0  0  0  0  0  0  0  0  0
   -1.8806    1.6223    2.4282 C   0  0  0  0  0  0  0  0  0  0  0  0
   -2.9784    1.5716    2.3754 H   0  0  0  0  0  0  0  0  0  0  0  0
   -3.6531    1.0505   -0.0917 C   0  0  0  0  0  0  0  0  0  0  0  0
   -4.7147    0.4960    0.6499 C   0  0  0  0  0  0  0  0  0  0  0  0
   -4.5469   -0.4061    1.2593 H   0  0  0  0  0  0  0  0  0  0  0  0
   -5.9871    1.0855    0.5937 C   0  0  0  0  0  0  0  0  0  0  0  0
   -6.8183    0.6513    1.1701 H   0  0  0  0  0  0  0  0  0  0  0  0
   -6.2019    2.2193   -0.2069 C   0  0  0  0  0  0  0  0  0  0  0  0
   -7.2019    2.6770   -0.2529 H   0  0  0  0  0  0  0  0  0  0  0  0
   -5.1469    2.7618   -0.9600 C   0  0  0  0  0  0  0  0  0  0  0  0
   -5.3212    3.6410   -1.5989 H   0  0  0  0  0  0  0  0  0  0  0  0
   -3.8731    2.1783   -0.9072 C   0  0  0  0  0  0  0  0  0  0  0  0
   -3.0374    2.5706   -1.5076 H   0  0  0  0  0  0  0  0  0  0  0  0
   -2.1470   -1.4145    0.3082 C   0  0  0  0  0  0  0  0  0  0  0  0
   -2.4416   -2.2753   -0.7690 C   0  0  0  0  0  0  0  0  0  0  0  0
   -2.5334   -1.8608   -1.7843 H   0  0  0  0  0  0  0  0  0  0  0  0
   -2.5552   -3.6522   -0.5469 C   0  0  0  0  0  0  0  0  0  0  0  0
   -2.7501   -4.3274   -1.3927 H   0  0  0  0  0  0  0  0  0  0  0  0
   -2.3805   -4.1734    0.7449 C   0  0  0  0  0  0  0  0  0  0  0  0
   -2.4490   -5.2588    0.9116 H   0  0  0  0  0  0  0  0  0  0  0  0
   -2.0941   -3.3176    1.8193 C   0  0  0  0  0  0  0  0  0  0  0  0
   -1.9434   -3.7296    2.8286 H   0  0  0  0  0  0  0  0  0  0  0  0
   -1.9736   -1.9363    1.6054 C   0  0  0  0  0  0  0  0  0  0  0  0
   -1.7217   -1.2672    2.4421 H   0  0  0  0  0  0  0  0  0  0  0  0
    3.0833    0.7559    0.7430 C   0  0  0  0  0  0  0  0  0  0  0  0
    3.6164   -0.3081    1.5008 C   0  0  0  0  0  0  0  0  0  0  0  0
    3.0257   -1.2297    1.6284 H   0  0  0  0  0  0  0  0  0  0  0  0
    4.8929   -0.1989    2.0694 C   0  0  0  0  0  0  0  0  0  0  0  0
    5.3012   -1.0347    2.6574 H   0  0  0  0  0  0  0  0  0  0  0  0
    5.6537    0.9658    1.8738 C   0  0  0  0  0  0  0  0  0  0  0  0
    6.6604    1.0464    2.3114 H   0  0  0  0  0  0  0  0  0  0  0  0
    5.1336    2.0209    1.1080 C   0  0  0  0  0  0  0  0  0  0  0  0
    5.7312    2.9302    0.9424 H   0  0  0  0  0  0  0  0  0  0  0  0
    3.8520    1.9204    0.5441 C   0  0  0  0  0  0  0  0  0  0  0  0
    3.4495    2.7477   -0.0592 H   0  0  0  0  0  0  0  0  0  0  0  0
    1.3153    1.8339   -1.2703 C   0  0  0  0  0  0  0  0  0  0  0  0
    0.9203    3.1576   -1.0005 C   0  0  0  0  0  0  0  0  0  0  0  0
    0.5980    3.4424    0.0125 H   0  0  0  0  0  0  0  0  0  0  0  0
    0.9229    4.1098   -2.0310 C   0  0  0  0  0  0  0  0  0  0  0  0
    0.6083    5.1432   -1.8196 H   0  0  0  0  0  0  0  0  0  0  0  0
    1.3194    3.7447   -3.3274 C   0  0  0  0  0  0  0  0  0  0  0  0
    1.3163    4.4923   -4.1352 H   0  0  0  0  0  0  0  0  0  0  0  0
    1.7109    2.4226   -3.5946 C   0  0  0  0  0  0  0  0  0  0  0  0
    2.0107    2.1298   -4.6121 H   0  0  0  0  0  0  0  0  0  0  0  0
    1.7067    1.4658   -2.5708 C   0  0  0  0  0  0  0  0  0  0  0  0
    1.9849    0.4206   -2.7784 H   0  0  0  0  0  0  0  0  0  0  0  0
  1  2  2  0  0  0  0
  2 25  1  0  0  0  0
  2  4  1  0  0  0  0
  3 36  1  0  0  0  0
  3  5  1  0  0  0  0
  4  5  2  0  0  0  0
  4 12  1  0  0  0  0
  5  6  1  0  0  0  0
  6  7  1  0  0  0  0
  6  8  2  0  0  0  0
  8  9  1  0  0  0  0
 10  8  1  0  0  0  0
 10 11  1  0  0  0  0
 12 10  2  0  0  0  0
 13 12  1  0  0  0  0
 14  2  1  0  0  0  0
 14 15  1  0  0  0  0
 15 16  1  0  0  0  0
 17 15  2  0  0  0  0
 17 18  1  0  0  0  0
 19 17  1  0  0  0  0
 20 19  1  0  0  0  0
 21 23  1  0  0  0  0
 21 19  2  0  0  0  0
 22 21  1  0  0  0  0
 23 14  2  0  0  0  0
 24 23  1  0  0  0  0
 25 34  1  0  0  0  0
 26 28  1  0  0  0  0
 26 25  2  0  0  0  0
 27 26  1  0  0  0  0
 28 30  2  0  0  0  0
 29 28  1  0  0  0  0
 30 31  1  0  0  0  0
 30 32  1  0  0  0  0
 32 33  1  0  0  0  0
 34 32  2  0  0  0  0
 34 35  1  0  0  0  0
 36 37  1  0  0  0  0
 37 38  1  0  0  0  0
 37 39  2  0  0  0  0
 39 40  1  0  0  0  0
 41 39  1  0  0  0  0
 41 42  1  0  0  0  0
 43 41  2  0  0  0  0
 44 43  1  0  0  0  0
 45 36  2  0  0  0  0
 45 43  1  0  0  0  0
 46 45  1  0  0  0  0
 47 48  1  0  0  0  0
 47  3  1  0  0  0  0
 48 49  1  0  0  0  0
 50 51  1  0  0  0  0
 50 48  2  0  0  0  0
 52 50  1  0  0  0  0
 53 52  1  0  0  0  0
 54 52  2  0  0  0  0
 54 56  1  0  0  0  0
 55 54  1  0  0  0  0
 56 47  2  0  0  0  0
 57 56  1  0  0  0  0
M  END
