2
 OpenBabel05122313063D

 53 56  0  0  0  0  0  0  0  0999 V2000
   -3.0778    0.6666    0.0074 P   0  0  0  0  0  4  0  0  0  0  0  0
    1.3685    0.8575    0.0508 P   0  0  0  0  0  0  0  0  0  0  0  0
   -3.3212    2.5734    0.4760 S   0  0  0  0  0  1  0  0  0  0  0  0
   -1.3276    0.1116    0.2334 C   0  0  0  0  0  0  0  0  0  0  0  0
   -1.1599    0.2011    1.3268 H   0  0  0  0  0  0  0  0  0  0  0  0
   -1.2196   -0.9639   -0.0157 H   0  0  0  0  0  0  0  0  0  0  0  0
   -0.3671    0.9928   -0.5643 C   0  0  0  0  0  0  0  0  0  0  0  0
   -0.6871    2.0570   -0.5233 H   0  0  0  0  0  0  0  0  0  0  0  0
   -0.3419    0.7030   -1.6342 H   0  0  0  0  0  0  0  0  0  0  0  0
   -4.0503   -0.4944    1.0474 C   0  0  0  0  0  0  0  0  0  0  0  0
   -4.6709   -0.0006    2.2089 C   0  0  0  0  0  0  0  0  0  0  0  0
   -4.5885    1.0753    2.4334 H   0  0  0  0  0  0  0  0  0  0  0  0
   -5.3825   -0.8745    3.0444 C   0  0  0  0  0  0  0  0  0  0  0  0
   -5.8686   -0.4869    3.9526 H   0  0  0  0  0  0  0  0  0  0  0  0
   -5.4772   -2.2373    2.7212 C   0  0  0  0  0  0  0  0  0  0  0  0
   -6.0370   -2.9214    3.3770 H   0  0  0  0  0  0  0  0  0  0  0  0
   -4.8628   -2.7292    1.5576 C   0  0  0  0  0  0  0  0  0  0  0  0
   -4.9413   -3.7960    1.2994 H   0  0  0  0  0  0  0  0  0  0  0  0
   -4.1506   -1.8612    0.7177 C   0  0  0  0  0  0  0  0  0  0  0  0
   -3.6856   -2.2522   -0.2000 H   0  0  0  0  0  0  0  0  0  0  0  0
   -3.4948    0.2736   -1.7384 C   0  0  0  0  0  0  0  0  0  0  0  0
   -2.8860   -0.7905   -2.4361 C   0  0  0  0  0  0  0  0  0  0  0  0
   -2.1153   -1.4137   -1.9576 H   0  0  0  0  0  0  0  0  0  0  0  0
   -3.2517   -1.0570   -3.7649 C   0  0  0  0  0  0  0  0  0  0  0  0
   -2.7684   -1.8837   -4.3070 H   0  0  0  0  0  0  0  0  0  0  0  0
   -4.2239   -0.2682   -4.3993 C   0  0  0  0  0  0  0  0  0  0  0  0
   -4.5079   -0.4791   -5.4415 H   0  0  0  0  0  0  0  0  0  0  0  0
   -4.8254    0.7962   -3.7076 C   0  0  0  0  0  0  0  0  0  0  0  0
   -5.5806    1.4222   -4.2065 H   0  0  0  0  0  0  0  0  0  0  0  0
   -4.4587    1.0723   -2.3832 C   0  0  0  0  0  0  0  0  0  0  0  0
   -4.8964    1.9211   -1.8340 H   0  0  0  0  0  0  0  0  0  0  0  0
    2.2923    2.0360   -1.0086 C   0  0  0  0  0  0  0  0  0  0  0  0
    2.1101    3.4270   -0.8641 C   0  0  0  0  0  0  0  0  0  0  0  0
    1.4464    3.8195   -0.0779 H   0  0  0  0  0  0  0  0  0  0  0  0
    2.7881    4.3115   -1.7142 C   0  0  0  0  0  0  0  0  0  0  0  0
    2.6462    5.3966   -1.5979 H   0  0  0  0  0  0  0  0  0  0  0  0
    3.6499    3.8150   -2.7068 C   0  0  0  0  0  0  0  0  0  0  0  0
    4.1837    4.5128   -3.3697 H   0  0  0  0  0  0  0  0  0  0  0  0
    3.8363    2.4311   -2.8485 C   0  0  0  0  0  0  0  0  0  0  0  0
    4.5163    2.0399   -3.6200 H   0  0  0  0  0  0  0  0  0  0  0  0
    3.1613    1.5401   -2.0002 C   0  0  0  0  0  0  0  0  0  0  0  0
    3.3096    0.4523   -2.0964 H   0  0  0  0  0  0  0  0  0  0  0  0
    1.3443    1.6234    1.7166 C   0  0  0  0  0  0  0  0  0  0  0  0
    0.2877    2.4458    2.1633 C   0  0  0  0  0  0  0  0  0  0  0  0
   -0.6047    2.6303    1.5426 H   0  0  0  0  0  0  0  0  0  0  0  0
    0.3492    3.0244    3.4412 C   0  0  0  0  0  0  0  0  0  0  0  0
   -0.4842    3.6551    3.7858 H   0  0  0  0  0  0  0  0  0  0  0  0
    1.4565    2.7961    4.2719 C   0  0  0  0  0  0  0  0  0  0  0  0
    1.4981    3.2522    5.2727 H   0  0  0  0  0  0  0  0  0  0  0  0
    2.5067    1.9742    3.8300 C   0  0  0  0  0  0  0  0  0  0  0  0
    3.3723    1.7830    4.4819 H   0  0  0  0  0  0  0  0  0  0  0  0
    2.4491    1.3829    2.5611 C   0  0  0  0  0  0  0  0  0  0  0  0
    3.2611    0.7212    2.2198 H   0  0  0  0  0  0  0  0  0  0  0  0
  1  4  1  0  0  0  0
  1  3  1  0  0  0  0
  1 10  1  0  0  0  0
  2 43  1  0  0  0  0
  4  5  1  0  0  0  0
  6  4  1  0  0  0  0
  7  8  1  0  0  0  0
  7  2  1  0  0  0  0
  7  4  1  0  0  0  0
  9  7  1  0  0  0  0
 10 11  1  0  0  0  0
 11 12  1  0  0  0  0
 11 13  2  0  0  0  0
 13 14  1  0  0  0  0
 15 13  1  0  0  0  0
 15 16  1  0  0  0  0
 17 15  2  0  0  0  0
 18 17  1  0  0  0  0
 19 10  2  0  0  0  0
 19 17  1  0  0  0  0
 20 19  1  0  0  0  0
 21  1  1  0  0  0  0
 22 23  1  0  0  0  0
 22 21  2  0  0  0  0
 24 22  1  0  0  0  0
 25 24  1  0  0  0  0
 26 24  2  0  0  0  0
 26 28  1  0  0  0  0
 27 26  1  0  0  0  0
 28 30  2  0  0  0  0
 29 28  1  0  0  0  0
 30 31  1  0  0  0  0
 30 21  1  0  0  0  0
 32 33  1  0  0  0  0
 32  2  1  0  0  0  0
 33 34  1  0  0  0  0
 35 36  1  0  0  0  0
 35 33  2  0  0  0  0
 37 35  1  0  0  0  0
 38 37  1  0  0  0  0
 39 37  2  0  0  0  0
 39 41  1  0  0  0  0
 40 39  1  0  0  0  0
 41 32  2  0  0  0  0
 42 41  1  0  0  0  0
 43 44  2  0  0  0  0
 43 52  1  0  0  0  0
 44 46  1  0  0  0  0
 45 44  1  0  0  0  0
 46 47  1  0  0  0  0
 46 48  2  0  0  0  0
 48 49  1  0  0  0  0
 50 48  1  0  0  0  0
 50 51  1  0  0  0  0
 52 50  2  0  0  0  0
 53 52  1  0  0  0  0
M  END
