1
 OpenBabel05122313063D

 50 53  0  0  0  0  0  0  0  0999 V2000
    0.6401    0.8776    0.5212 P   0  0  0  0  0  0  0  0  0  0  0  0
   -1.8892   -0.8567    0.0118 P   0  0  0  0  0  4  0  0  0  0  0  0
   -0.8003   -1.8215   -1.5249 Se  0  0  0  0  0  1  0  0  0  0  0  0
   -0.8262    0.0169    1.2683 C   0  0  0  0  0  0  0  0  0  0  0  0
   -0.4399   -0.7547    1.9635 H   0  0  0  0  0  0  0  0  0  0  0  0
   -1.4530    0.7302    1.8411 H   0  0  0  0  0  0  0  0  0  0  0  0
   -2.8616   -2.0167    1.0569 C   0  0  0  0  0  0  0  0  0  0  0  0
   -4.2662   -1.9706    1.1415 C   0  0  0  0  0  0  0  0  0  0  0  0
   -4.8289   -1.1944    0.6030 H   0  0  0  0  0  0  0  0  0  0  0  0
   -4.9521   -2.9266    1.9085 C   0  0  0  0  0  0  0  0  0  0  0  0
   -6.0504   -2.8886    1.9679 H   0  0  0  0  0  0  0  0  0  0  0  0
   -4.2440   -3.9268    2.5906 C   0  0  0  0  0  0  0  0  0  0  0  0
   -4.7852   -4.6735    3.1911 H   0  0  0  0  0  0  0  0  0  0  0  0
   -2.8427   -3.9829    2.4948 C   0  0  0  0  0  0  0  0  0  0  0  0
   -2.2837   -4.7758    3.0142 H   0  0  0  0  0  0  0  0  0  0  0  0
   -2.1529   -3.0389    1.7240 C   0  0  0  0  0  0  0  0  0  0  0  0
   -1.0591   -3.1124    1.6114 H   0  0  0  0  0  0  0  0  0  0  0  0
   -3.0672    0.4460   -0.5397 C   0  0  0  0  0  0  0  0  0  0  0  0
   -3.2441    0.6593   -1.9165 C   0  0  0  0  0  0  0  0  0  0  0  0
   -2.6667    0.0404   -2.6230 H   0  0  0  0  0  0  0  0  0  0  0  0
   -4.1268    1.6547   -2.3618 C   0  0  0  0  0  0  0  0  0  0  0  0
   -4.2548    1.8254   -3.4412 H   0  0  0  0  0  0  0  0  0  0  0  0
   -4.8378    2.4331   -1.4359 C   0  0  0  0  0  0  0  0  0  0  0  0
   -5.5297    3.2135   -1.7874 H   0  0  0  0  0  0  0  0  0  0  0  0
   -4.6660    2.2183   -0.0579 C   0  0  0  0  0  0  0  0  0  0  0  0
   -5.2241    2.8256    0.6708 H   0  0  0  0  0  0  0  0  0  0  0  0
   -3.7811    1.2289    0.3924 C   0  0  0  0  0  0  0  0  0  0  0  0
   -3.6589    1.0637    1.4745 H   0  0  0  0  0  0  0  0  0  0  0  0
   -0.0739    2.0017   -0.7398 C   0  0  0  0  0  0  0  0  0  0  0  0
    0.2252    1.7869   -2.0986 C   0  0  0  0  0  0  0  0  0  0  0  0
    0.8898    0.9552   -2.3788 H   0  0  0  0  0  0  0  0  0  0  0  0
   -0.3359    2.6220   -3.0768 C   0  0  0  0  0  0  0  0  0  0  0  0
   -0.0985    2.4526   -4.1377 H   0  0  0  0  0  0  0  0  0  0  0  0
   -1.1970    3.6646   -2.7025 C   0  0  0  0  0  0  0  0  0  0  0  0
   -1.6395    4.3158   -3.4717 H   0  0  0  0  0  0  0  0  0  0  0  0
   -1.4965    3.8804   -1.3466 C   0  0  0  0  0  0  0  0  0  0  0  0
   -2.1751    4.6949   -1.0524 H   0  0  0  0  0  0  0  0  0  0  0  0
   -0.9341    3.0544   -0.3649 C   0  0  0  0  0  0  0  0  0  0  0  0
   -1.1616    3.2320    0.6976 H   0  0  0  0  0  0  0  0  0  0  0  0
    1.1847    2.0127    1.8610 C   0  0  0  0  0  0  0  0  0  0  0  0
    0.9294    1.7571    3.2230 C   0  0  0  0  0  0  0  0  0  0  0  0
    0.3401    0.8802    3.5285 H   0  0  0  0  0  0  0  0  0  0  0  0
    1.4361    2.6181    4.2094 C   0  0  0  0  0  0  0  0  0  0  0  0
    1.2314    2.4088    5.2702 H   0  0  0  0  0  0  0  0  0  0  0  0
    2.1998    3.7371    3.8462 C   0  0  0  0  0  0  0  0  0  0  0  0
    2.5956    4.4104    4.6213 H   0  0  0  0  0  0  0  0  0  0  0  0
    2.4620    3.9922    2.4897 C   0  0  0  0  0  0  0  0  0  0  0  0
    3.0649    4.8653    2.1979 H   0  0  0  0  0  0  0  0  0  0  0  0
    1.9622    3.1347    1.5014 C   0  0  0  0  0  0  0  0  0  0  0  0
    2.1753    3.3357    0.4401 H   0  0  0  0  0  0  0  0  0  0  0  0
  1  4  1  0  0  0  0
  1 40  1  0  0  0  0
  2  7  1  0  0  0  0
  2  4  1  0  0  0  0
  3  2  1  0  0  0  0
  4  6  1  0  0  0  0
  4  5  1  0  0  0  0
  7  8  2  0  0  0  0
  7 16  1  0  0  0  0
  8 10  1  0  0  0  0
  9  8  1  0  0  0  0
 10 11  1  0  0  0  0
 10 12  2  0  0  0  0
 12 13  1  0  0  0  0
 14 12  1  0  0  0  0
 14 15  1  0  0  0  0
 16 14  2  0  0  0  0
 17 16  1  0  0  0  0
 18  2  1  0  0  0  0
 18 27  1  0  0  0  0
 19 18  2  0  0  0  0
 20 19  1  0  0  0  0
 21 19  1  0  0  0  0
 21 23  2  0  0  0  0
 22 21  1  0  0  0  0
 23 25  1  0  0  0  0
 24 23  1  0  0  0  0
 25 27  2  0  0  0  0
 25 26  1  0  0  0  0
 27 28  1  0  0  0  0
 29 38  1  0  0  0  0
 29  1  1  0  0  0  0
 30 29  2  0  0  0  0
 31 30  1  0  0  0  0
 32 34  2  0  0  0  0
 32 30  1  0  0  0  0
 33 32  1  0  0  0  0
 34 36  1  0  0  0  0
 35 34  1  0  0  0  0
 36 37  1  0  0  0  0
 36 38  2  0  0  0  0
 38 39  1  0  0  0  0
 40 41  1  0  0  0  0
 41 42  1  0  0  0  0
 41 43  2  0  0  0  0
 43 44  1  0  0  0  0
 45 43  1  0  0  0  0
 45 46  1  0  0  0  0
 47 45  2  0  0  0  0
 48 47  1  0  0  0  0
 49 40  2  0  0  0  0
 49 47  1  0  0  0  0
 50 49  1  0  0  0  0
M  END
