28
 OpenBabel05122313063D

 29 30  0  0  0  0  0  0  0  0999 V2000
   -1.5274   -1.0308    1.4468 C   0  0  0  0  0  0  0  0  0  0  0  0
   -1.0228   -2.0095    1.5917 H   0  0  0  0  0  0  0  0  0  0  0  0
   -1.2273   -0.3765    2.2893 H   0  0  0  0  0  0  0  0  0  0  0  0
   -3.0198   -1.1223    1.2843 C   0  0  0  0  0  0  0  0  0  0  0  0
   -3.8312   -0.1949    2.1442 C   0  0  0  0  0  0  0  0  0  0  0  0
   -3.5611    0.8619    1.9274 H   0  0  0  0  0  0  0  0  0  0  0  0
   -3.6129   -0.3636    3.2202 H   0  0  0  0  0  0  0  0  0  0  0  0
   -4.9207   -0.3026    1.9960 H   0  0  0  0  0  0  0  0  0  0  0  0
   -2.5402   -2.7352   -0.5110 C   0  0  0  0  0  0  0  0  0  0  0  0
   -3.0468   -3.3743   -1.2599 H   0  0  0  0  0  0  0  0  0  0  0  0
   -1.9038   -3.3922    0.1159 H   0  0  0  0  0  0  0  0  0  0  0  0
   -3.5150   -1.9324    0.3025 C   0  0  0  0  0  0  0  0  0  0  0  0
   -4.9592   -2.0411   -0.0995 C   0  0  0  0  0  0  0  0  0  0  0  0
   -5.6331   -1.4279    0.5252 H   0  0  0  0  0  0  0  0  0  0  0  0
   -5.3125   -3.0936   -0.0521 H   0  0  0  0  0  0  0  0  0  0  0  0
   -5.0879   -1.7142   -1.1550 H   0  0  0  0  0  0  0  0  0  0  0  0
   -1.7772    1.2094   -0.3366 C   0  0  0  0  0  0  0  0  0  0  0  0
   -1.4873    2.3481    0.4442 C   0  0  0  0  0  0  0  0  0  0  0  0
   -0.6235    2.3454    1.1273 H   0  0  0  0  0  0  0  0  0  0  0  0
   -2.3004    3.4872    0.3533 C   0  0  0  0  0  0  0  0  0  0  0  0
   -2.0695    4.3717    0.9659 H   0  0  0  0  0  0  0  0  0  0  0  0
   -3.3979    3.5009   -0.5232 C   0  0  0  0  0  0  0  0  0  0  0  0
   -4.0308    4.3981   -0.5986 H   0  0  0  0  0  0  0  0  0  0  0  0
   -3.6792    2.3728   -1.3099 C   0  0  0  0  0  0  0  0  0  0  0  0
   -4.5330    2.3832   -2.0045 H   0  0  0  0  0  0  0  0  0  0  0  0
   -2.8727    1.2280   -1.2177 C   0  0  0  0  0  0  0  0  0  0  0  0
   -3.0777    0.3373   -1.8319 H   0  0  0  0  0  0  0  0  0  0  0  0
   -0.7210   -0.2851   -0.0871 P   0  0  2  0  0  0  0  0  0  0  0  0
   -1.3595   -1.7066   -1.5443 S   0  0  0  0  0  0  0  0  0  0  0  0
  1  2  1  0  0  0  0
  1  3  1  0  0  0  0
  4  1  1  0  0  0  0
  4  5  1  0  0  0  0
  5  7  1  0  0  0  0
  6  5  1  0  0  0  0
  8  5  1  0  0  0  0
  9 11  1  0  0  0  0
  9 12  1  0  0  0  0
 10  9  1  0  0  0  0
 12  4  2  0  0  0  0
 13 15  1  0  0  0  0
 13 12  1  0  0  0  0
 13 14  1  0  0  0  0
 16 13  1  0  0  0  0
 17 18  1  0  0  0  0
 18 19  1  0  0  0  0
 20 18  2  0  0  0  0
 20 21  1  0  0  0  0
 22 20  1  0  0  0  0
 23 22  1  0  0  0  0
 24 26  1  0  0  0  0
 24 22  2  0  0  0  0
 25 24  1  0  0  0  0
 26 17  2  0  0  0  0
 27 26  1  0  0  0  0
 28 17  1  6  0  0  0
 28  1  1  0  0  0  0
 29  9  1  0  0  0  0
 29 28  1  0  0  0  0
M  END
