1
 OpenBabel05122313063D

 43 43  0  0  0  0  0  0  0  0999 V2000
    0.4823   -0.2882    0.3534 P   0  0  0  0  0  0  0  0  0  0  0  0
    2.1041    2.3256    0.5599 O   0  0  0  0  0  0  0  0  0  0  0  0
   -2.1335   -1.6911    0.2533 O   0  0  0  0  0  0  0  0  0  0  0  0
    2.6381    3.9652   -1.0952 C   0  0  0  0  0  0  0  0  0  0  0  0
    2.1023    3.7235    0.3030 C   0  0  0  0  0  0  0  0  0  0  0  0
    1.4249    1.9675    1.7487 C   0  0  0  0  0  0  0  0  0  0  0  0
    1.3261    0.4502    1.8277 C   0  0  0  0  0  0  0  0  0  0  0  0
    1.7554   -0.3646   -1.0072 C   0  0  0  0  0  0  0  0  0  0  0  0
    3.0393   -1.0526   -0.6418 C   0  0  0  0  0  0  0  0  0  0  0  0
    4.0856   -0.3429   -0.0104 C   0  0  0  0  0  0  0  0  0  0  0  0
    5.2715   -0.9959    0.3560 C   0  0  0  0  0  0  0  0  0  0  0  0
    5.4354   -2.3673    0.1008 C   0  0  0  0  0  0  0  0  0  0  0  0
    4.4067   -3.0814   -0.5332 C   0  0  0  0  0  0  0  0  0  0  0  0
    3.2203   -2.4285   -0.9018 C   0  0  0  0  0  0  0  0  0  0  0  0
    0.1787   -2.0497    0.8661 C   0  0  0  0  0  0  0  0  0  0  0  0
   -1.0199   -2.5865    0.0883 C   0  0  0  0  0  0  0  0  0  0  0  0
   -3.2131   -2.1682    1.0916 C   0  0  0  0  0  0  0  0  0  0  0  0
   -4.1922   -3.0073    0.2927 C   0  0  0  0  0  0  0  0  0  0  0  0
    2.6821    5.0512   -1.3102 H   0  0  0  0  0  0  0  0  0  0  0  0
    1.9777    3.4901   -1.8479 H   0  0  0  0  0  0  0  0  0  0  0  0
    3.6591    3.5483   -1.2082 H   0  0  0  0  0  0  0  0  0  0  0  0
    2.7221    4.2527    1.0692 H   0  0  0  0  0  0  0  0  0  0  0  0
    1.0615    4.1161    0.3939 H   0  0  0  0  0  0  0  0  0  0  0  0
    0.3976    2.4026    1.7553 H   0  0  0  0  0  0  0  0  0  0  0  0
    1.9617    2.3577    2.6495 H   0  0  0  0  0  0  0  0  0  0  0  0
    0.6967    0.1785    2.6977 H   0  0  0  0  0  0  0  0  0  0  0  0
    2.3221   -0.0261    1.9435 H   0  0  0  0  0  0  0  0  0  0  0  0
    1.2349   -0.8511   -1.8556 H   0  0  0  0  0  0  0  0  0  0  0  0
    1.9108    0.6992   -1.2701 H   0  0  0  0  0  0  0  0  0  0  0  0
    3.9500    0.7321    0.1869 H   0  0  0  0  0  0  0  0  0  0  0  0
    6.0789   -0.4265    0.8416 H   0  0  0  0  0  0  0  0  0  0  0  0
    6.3675   -2.8771    0.3876 H   0  0  0  0  0  0  0  0  0  0  0  0
    4.5317   -4.1530   -0.7517 H   0  0  0  0  0  0  0  0  0  0  0  0
    2.4262   -2.9885   -1.4219 H   0  0  0  0  0  0  0  0  0  0  0  0
    1.0850   -2.6712    0.7085 H   0  0  0  0  0  0  0  0  0  0  0  0
   -0.0474   -2.0380    1.9519 H   0  0  0  0  0  0  0  0  0  0  0  0
   -0.8079   -2.6424   -0.9993 H   0  0  0  0  0  0  0  0  0  0  0  0
   -1.3130   -3.5975    0.4390 H   0  0  0  0  0  0  0  0  0  0  0  0
   -3.6918   -1.2573    1.4962 H   0  0  0  0  0  0  0  0  0  0  0  0
   -2.7730   -2.7229    1.9495 H   0  0  0  0  0  0  0  0  0  0  0  0
   -5.0302   -3.3308    0.9428 H   0  0  0  0  0  0  0  0  0  0  0  0
   -3.7159   -3.9164   -0.1277 H   0  0  0  0  0  0  0  0  0  0  0  0
   -4.6056   -2.4051   -0.5395 H   0  0  0  0  0  0  0  0  0  0  0  0
  1 15  1  0  0  0  0
  1  7  1  0  0  0  0
  2  6  1  0  0  0  0
  3 17  1  0  0  0  0
  4  5  1  0  0  0  0
  5 23  1  0  0  0  0
  5  2  1  0  0  0  0
  5 22  1  0  0  0  0
  6 24  1  0  0  0  0
  6  7  1  0  0  0  0
  6 25  1  0  0  0  0
  7 27  1  0  0  0  0
  7 26  1  0  0  0  0
  8  9  1  0  0  0  0
  8  1  1  0  0  0  0
  9 10  1  0  0  0  0
 10 30  1  0  0  0  0
 10 11  2  0  0  0  0
 11 31  1  0  0  0  0
 12 11  1  0  0  0  0
 12 32  1  0  0  0  0
 13 12  2  0  0  0  0
 14  9  2  0  0  0  0
 14 13  1  0  0  0  0
 15 36  1  0  0  0  0
 16  3  1  0  0  0  0
 16 38  1  0  0  0  0
 16 15  1  0  0  0  0
 17 39  1  0  0  0  0
 17 40  1  0  0  0  0
 18 41  1  0  0  0  0
 18 17  1  0  0  0  0
 19  4  1  0  0  0  0
 20  4  1  0  0  0  0
 21  4  1  0  0  0  0
 28  8  1  0  0  0  0
 29  8  1  0  0  0  0
 33 13  1  0  0  0  0
 34 14  1  0  0  0  0
 35 15  1  0  0  0  0
 37 16  1  0  0  0  0
 42 18  1  0  0  0  0
 43 18  1  0  0  0  0
M  END
