1,2,7,16
 OpenBabel05122313063D

 72 75  0  0  0  0  0  0  0  0999 V2000
   -1.4558   -0.7659    1.5564 O   0  5  0  0  0  0  0  0  0  0  0  0
   -0.0801    1.4163   -1.6152 O   0  5  0  0  0  0  0  0  0  0  0  0
   -0.9686   -1.6560   -2.4122 N   0  0  0  0  0  0  0  0  0  0  0  0
   -2.4113   -2.0796   -0.8420 N   0  0  0  0  0  0  0  0  0  0  0  0
    0.5233    1.7386    2.4297 N   0  0  0  0  0  0  0  0  0  0  0  0
    0.2584    3.0752    0.7360 N   0  0  0  0  0  0  0  0  0  0  0  0
   -1.4258   -1.1904   -1.2079 C   0  0  0  0  0  2  0  0  0  0  0  0
   -1.6404   -2.8086   -2.7870 C   0  0  0  0  0  0  0  0  0  0  0  0
   -2.5510   -3.0803   -1.8017 C   0  0  0  0  0  0  0  0  0  0  0  0
   -2.6276   -1.3766    1.5159 C   0  0  0  0  0  0  0  0  0  0  0  0
   -3.1789   -2.0113    0.3582 C   0  0  0  0  0  0  0  0  0  0  0  0
   -4.4490   -2.6148    0.4033 C   0  0  0  0  0  0  0  0  0  0  0  0
   -5.1842   -2.6621    1.5926 C   0  0  0  0  0  0  0  0  0  0  0  0
   -4.6371   -2.0892    2.7553 C   0  0  0  0  0  0  0  0  0  0  0  0
   -3.3936   -1.4574    2.7127 C   0  0  0  0  0  0  0  0  0  0  0  0
    0.0142    1.7873    1.1593 C   0  0  0  0  0  2  0  0  0  0  0  0
    1.0809    2.9552    2.7900 C   0  0  0  0  0  0  0  0  0  0  0  0
    0.9167    3.8011    1.7269 C   0  0  0  0  0  0  0  0  0  0  0  0
   -0.2080    2.7306   -1.6650 C   0  0  0  0  0  0  0  0  0  0  0  0
   -0.0941    3.6067   -0.5398 C   0  0  0  0  0  0  0  0  0  0  0  0
   -0.2753    4.9943   -0.6858 C   0  0  0  0  0  0  0  0  0  0  0  0
   -0.5140    5.5635   -1.9413 C   0  0  0  0  0  0  0  0  0  0  0  0
   -0.5773    4.7245   -3.0690 C   0  0  0  0  0  0  0  0  0  0  0  0
   -0.4345    3.3435   -2.9297 C   0  0  0  0  0  0  0  0  0  0  0  0
    0.1531   -1.0735   -3.1585 C   0  0  0  0  0  0  0  0  0  0  0  0
    1.5002   -1.3203   -2.4776 C   0  0  0  0  0  0  0  0  0  0  0  0
    1.9730   -2.7776   -2.4750 C   0  0  0  0  0  0  0  0  0  0  0  0
    3.1324   -3.0411   -1.5026 C   0  0  0  0  0  0  0  0  0  0  0  0
    4.3518   -2.1368   -1.7129 C   0  0  0  0  0  0  0  0  0  0  0  0
    5.5169   -2.3856   -0.7432 C   0  0  0  0  0  0  0  0  0  0  0  0
    5.1591   -2.2936    0.7494 C   0  0  0  0  0  0  0  0  0  0  0  0
    4.3997   -1.0278    1.1609 C   0  0  0  0  0  0  0  0  0  0  0  0
    4.2052   -0.9073    2.6784 C   0  0  0  0  0  0  0  0  0  0  0  0
    3.1227    0.0991    3.0970 C   0  0  0  0  0  0  0  0  0  0  0  0
    1.7015   -0.4211    2.8604 C   0  0  0  0  0  0  0  0  0  0  0  0
    0.5748    0.5323    3.2623 C   0  0  0  0  0  0  0  0  0  0  0  0
   -1.4122   -3.3388   -3.7161 H   0  0  0  0  0  0  0  0  0  0  0  0
   -6.1773   -3.1332    1.6080 H   0  0  0  0  0  0  0  0  0  0  0  0
   -4.8732   -3.0445   -0.5160 H   0  0  0  0  0  0  0  0  0  0  0  0
   -3.2525   -3.9090   -1.6880 H   0  0  0  0  0  0  0  0  0  0  0  0
   -5.1985   -2.1180    3.7019 H   0  0  0  0  0  0  0  0  0  0  0  0
   -2.9666   -0.9833    3.6089 H   0  0  0  0  0  0  0  0  0  0  0  0
    1.5499    3.1137    3.7653 H   0  0  0  0  0  0  0  0  0  0  0  0
    1.2364    4.8349    1.5823 H   0  0  0  0  0  0  0  0  0  0  0  0
   -0.2404    5.6381    0.2052 H   0  0  0  0  0  0  0  0  0  0  0  0
   -0.6584    6.6492   -2.0355 H   0  0  0  0  0  0  0  0  0  0  0  0
   -0.7618    5.1527   -4.0663 H   0  0  0  0  0  0  0  0  0  0  0  0
   -0.5078    2.6746   -3.8000 H   0  0  0  0  0  0  0  0  0  0  0  0
    0.1255   -1.5128   -4.1761 H   0  0  0  0  0  0  0  0  0  0  0  0
   -0.0251    0.0151   -3.2207 H   0  0  0  0  0  0  0  0  0  0  0  0
    2.2441   -0.6674   -2.9789 H   0  0  0  0  0  0  0  0  0  0  0  0
    1.4168   -0.9375   -1.4359 H   0  0  0  0  0  0  0  0  0  0  0  0
    2.2677   -3.0727   -3.5082 H   0  0  0  0  0  0  0  0  0  0  0  0
    1.1244   -3.4407   -2.1971 H   0  0  0  0  0  0  0  0  0  0  0  0
    3.4431   -4.1068   -1.5748 H   0  0  0  0  0  0  0  0  0  0  0  0
    2.7492   -2.9088   -0.4669 H   0  0  0  0  0  0  0  0  0  0  0  0
    4.7186   -2.2534   -2.7571 H   0  0  0  0  0  0  0  0  0  0  0  0
    4.0380   -1.0746   -1.6272 H   0  0  0  0  0  0  0  0  0  0  0  0
    5.9582   -3.3873   -0.9413 H   0  0  0  0  0  0  0  0  0  0  0  0
    6.3210   -1.6509   -0.9691 H   0  0  0  0  0  0  0  0  0  0  0  0
    6.0952   -2.3710    1.3455 H   0  0  0  0  0  0  0  0  0  0  0  0
    4.5512   -3.1778    1.0452 H   0  0  0  0  0  0  0  0  0  0  0  0
    3.4072   -1.0171    0.6609 H   0  0  0  0  0  0  0  0  0  0  0  0
    4.9299   -0.1242    0.7841 H   0  0  0  0  0  0  0  0  0  0  0  0
    5.1754   -0.6381    3.1493 H   0  0  0  0  0  0  0  0  0  0  0  0
    3.9395   -1.9063    3.0934 H   0  0  0  0  0  0  0  0  0  0  0  0
    3.2405    0.3456    4.1758 H   0  0  0  0  0  0  0  0  0  0  0  0
    3.2743    1.0545    2.5461 H   0  0  0  0  0  0  0  0  0  0  0  0
    1.5532   -1.3628    3.4322 H   0  0  0  0  0  0  0  0  0  0  0  0
    1.5469   -0.6877    1.7926 H   0  0  0  0  0  0  0  0  0  0  0  0
    0.6906    0.8702    4.3123 H   0  0  0  0  0  0  0  0  0  0  0  0
   -0.3963    0.0172    3.1457 H   0  0  0  0  0  0  0  0  0  0  0  0
  3  7  1  0  0  0  0
  4 11  1  0  0  0  0
  5 17  1  0  0  0  0
  5 36  1  0  0  0  0
  6 16  1  0  0  0  0
  6 18  1  0  0  0  0
  7  4  1  0  0  0  0
  8  3  1  0  0  0  0
  8  9  2  0  0  0  0
  9 40  1  0  0  0  0
  9  4  1  0  0  0  0
 10  1  1  0  0  0  0
 10 15  1  0  0  0  0
 11 12  1  0  0  0  0
 11 10  2  0  0  0  0
 12 13  2  0  0  0  0
 13 38  1  0  0  0  0
 13 14  1  0  0  0  0
 14 41  1  0  0  0  0
 15 14  2  0  0  0  0
 15 42  1  0  0  0  0
 16  5  1  0  0  0  0
 17 43  1  0  0  0  0
 18 17  2  0  0  0  0
 19  2  1  0  0  0  0
 19 20  1  0  0  0  0
 20  6  1  0  0  0  0
 21 20  2  0  0  0  0
 21 45  1  0  0  0  0
 22 21  1  0  0  0  0
 23 24  1  0  0  0  0
 23 22  2  0  0  0  0
 24 19  2  0  0  0  0
 25 26  1  0  0  0  0
 25  3  1  0  0  0  0
 26 27  1  0  0  0  0
 26 52  1  0  0  0  0
 27 54  1  0  0  0  0
 27 28  1  0  0  0  0
 28 56  1  0  0  0  0
 29 58  1  0  0  0  0
 29 28  1  0  0  0  0
 29 30  1  0  0  0  0
 30 31  1  0  0  0  0
 31 62  1  0  0  0  0
 31 32  1  0  0  0  0
 31 61  1  0  0  0  0
 32 33  1  0  0  0  0
 33 66  1  0  0  0  0
 33 34  1  0  0  0  0
 33 65  1  0  0  0  0
 34 67  1  0  0  0  0
 35 34  1  0  0  0  0
 35 36  1  0  0  0  0
 35 69  1  0  0  0  0
 36 71  1  0  0  0  0
 37  8  1  0  0  0  0
 39 12  1  0  0  0  0
 44 18  1  0  0  0  0
 46 22  1  0  0  0  0
 47 23  1  0  0  0  0
 48 24  1  0  0  0  0
 49 25  1  0  0  0  0
 50 25  1  0  0  0  0
 51 26  1  0  0  0  0
 53 27  1  0  0  0  0
 55 28  1  0  0  0  0
 57 29  1  0  0  0  0
 59 30  1  0  0  0  0
 60 30  1  0  0  0  0
 63 32  1  0  0  0  0
 64 32  1  0  0  0  0
 68 34  1  0  0  0  0
 70 35  1  0  0  0  0
 72 36  1  0  0  0  0
M  CHG  2   1  -1   2  -1
M  END
