1,2,3,13
 OpenBabel05122313063D

 52 54  0  0  1  0  0  0  0  0999 V2000
   -0.3205   -0.7676    2.1934 S   0  0  0  0  0  1  0  0  0  0  0  0
   -0.8008    2.3215    0.5743 S   0  0  0  0  0  1  0  0  0  0  0  0
   -0.2493   -2.1895   -1.0068 S   0  0  0  0  0  1  0  0  0  0  0  0
    2.0767   -0.0845    1.1025 N   0  0  0  0  0  0  0  0  0  0  0  0
    3.4172   -0.0210    1.3838 N   0  0  0  0  0  0  0  0  0  0  0  0
    2.2892   -0.7744    3.1506 N   0  0  0  0  0  0  0  0  0  0  0  0
    1.6698    1.8242   -0.4918 N   0  0  0  0  0  0  0  0  0  0  0  0
    2.8213    2.4476   -0.8940 N   0  0  0  0  0  0  0  0  0  0  0  0
    1.3416    3.9474   -0.1619 N   0  0  0  0  0  0  0  0  0  0  0  0
    1.9675   -0.6240   -1.3556 N   0  0  0  0  0  0  0  0  0  0  0  0
    3.1930   -0.6036   -1.9668 N   0  0  0  0  0  0  0  0  0  0  0  0
    2.1202   -2.5003   -2.4421 N   0  0  0  0  0  0  0  0  0  0  0  0
    1.4342    0.3173   -0.2540 B   0  0  0  0  0  0  0  0  0  0  0  0
    1.3736   -0.5423    2.1577 C   0  0  1  0  0  3  0  0  0  0  0  0
    3.5379   -0.4454    2.6239 C   0  0  0  0  0  0  0  0  0  0  0  0
    4.8164   -0.5513    3.3758 C   0  0  0  0  0  0  0  0  0  0  0  0
    5.6404   -0.2442    2.7076 H   0  0  0  0  0  0  0  0  0  0  0  0
    5.0059   -1.5882    3.7206 H   0  0  0  0  0  0  0  0  0  0  0  0
    4.8227    0.1086    4.2677 H   0  0  0  0  0  0  0  0  0  0  0  0
    1.9785   -1.3413    4.4633 C   0  0  0  0  0  0  0  0  0  0  0  0
    1.0113   -0.9006    4.7804 H   0  0  0  0  0  0  0  0  0  0  0  0
    2.7517   -0.9824    5.1702 H   0  0  0  0  0  0  0  0  0  0  0  0
    1.9004   -2.8657    4.4395 C   0  0  0  0  0  0  0  0  0  0  0  0
    1.1160   -3.2047    3.7343 H   0  0  0  0  0  0  0  0  0  0  0  0
    1.6452   -3.2464    5.4475 H   0  0  0  0  0  0  0  0  0  0  0  0
    2.8663   -3.3167    4.1365 H   0  0  0  0  0  0  0  0  0  0  0  0
    0.7618    2.7162   -0.0360 C   0  0  2  0  0  3  0  0  0  0  0  0
    2.6101    3.7328   -0.7064 C   0  0  0  0  0  0  0  0  0  0  0  0
    3.5766    4.8171   -1.0227 C   0  0  0  0  0  0  0  0  0  0  0  0
    3.8602    5.3901   -0.1161 H   0  0  0  0  0  0  0  0  0  0  0  0
    3.1643    5.5328   -1.7629 H   0  0  0  0  0  0  0  0  0  0  0  0
    4.4872    4.3573   -1.4459 H   0  0  0  0  0  0  0  0  0  0  0  0
    0.6780    5.2236    0.1119 C   0  0  0  0  0  0  0  0  0  0  0  0
    1.4687    5.9612    0.3505 H   0  0  0  0  0  0  0  0  0  0  0  0
    0.0738    5.0836    1.0311 H   0  0  0  0  0  0  0  0  0  0  0  0
   -0.1946    5.6879   -1.0516 C   0  0  0  0  0  0  0  0  0  0  0  0
    0.4051    5.8455   -1.9699 H   0  0  0  0  0  0  0  0  0  0  0  0
   -0.6881    6.6452   -0.7945 H   0  0  0  0  0  0  0  0  0  0  0  0
   -0.9833    4.9410   -1.2698 H   0  0  0  0  0  0  0  0  0  0  0  0
    1.3068   -1.7738   -1.6184 C   0  0  1  0  0  3  0  0  0  0  0  0
    3.2771   -1.7391   -2.6267 C   0  0  0  0  0  0  0  0  0  0  0  0
    4.4245   -2.1578   -3.4739 C   0  0  0  0  0  0  0  0  0  0  0  0
    4.1290   -2.2702   -4.5376 H   0  0  0  0  0  0  0  0  0  0  0  0
    4.8541   -3.1225   -3.1360 H   0  0  0  0  0  0  0  0  0  0  0  0
    5.2056   -1.3798   -3.4093 H   0  0  0  0  0  0  0  0  0  0  0  0
    1.8162   -3.8329   -2.9641 C   0  0  0  0  0  0  0  0  0  0  0  0
    2.3626   -3.9454   -3.9206 H   0  0  0  0  0  0  0  0  0  0  0  0
    0.7319   -3.8430   -3.1993 H   0  0  0  0  0  0  0  0  0  0  0  0
    2.1706   -4.9448   -1.9799 C   0  0  0  0  0  0  0  0  0  0  0  0
    3.2537   -4.9485   -1.7455 H   0  0  0  0  0  0  0  0  0  0  0  0
    1.9099   -5.9296   -2.4141 H   0  0  0  0  0  0  0  0  0  0  0  0
    1.6060   -4.8260   -1.0340 H   0  0  0  0  0  0  0  0  0  0  0  0
  4  5  1  0  0  0  0
  4 14  1  0  0  0  0
  5 15  2  0  0  0  0
  6 20  1  0  0  0  0
  7 13  1  0  0  0  0
  7 27  1  0  0  0  0
  8 28  2  0  0  0  0
  8  7  1  0  0  0  0
  9 27  1  0  0  0  0
  9 33  1  0  0  0  0
 10 13  1  0  0  0  0
 11 10  1  0  0  0  0
 12 40  1  0  0  0  0
 13  4  1  0  0  0  0
 14  1  1  1  0  0  0
 14  6  1  0  0  0  0
 15  6  1  0  0  0  0
 15 16  1  0  0  0  0
 16 18  1  0  0  0  0
 16 19  1  0  0  0  0
 17 16  1  0  0  0  0
 20 21  1  0  0  0  0
 20 22  1  0  0  0  0
 23 20  1  0  0  0  0
 23 25  1  0  0  0  0
 24 23  1  0  0  0  0
 26 23  1  0  0  0  0
 27  2  1  1  0  0  0
 28  9  1  0  0  0  0
 29 28  1  0  0  0  0
 29 30  1  0  0  0  0
 31 29  1  0  0  0  0
 32 29  1  0  0  0  0
 33 34  1  0  0  0  0
 33 35  1  0  0  0  0
 36 38  1  0  0  0  0
 36 33  1  0  0  0  0
 37 36  1  0  0  0  0
 39 36  1  0  0  0  0
 40 10  1  0  0  0  0
 40  3  1  1  0  0  0
 41 12  1  0  0  0  0
 41 11  2  0  0  0  0
 42 45  1  0  0  0  0
 42 44  1  0  0  0  0
 42 41  1  0  0  0  0
 43 42  1  0  0  0  0
 46 12  1  0  0  0  0
 46 49  1  0  0  0  0
 47 46  1  0  0  0  0
 48 46  1  0  0  0  0
 49 50  1  0  0  0  0
 49 52  1  0  0  0  0
 51 49  1  0  0  0  0
M  END
