1,2,3,6,7
 OpenBabel05122313063D

 49 49  0  0  0  0  0  0  0  0999 V2000
   -1.0338    0.5174   -2.3585 S   0  0  0  0  0  0  0  0  0  0  0  0
   -0.9117   -1.2402    1.9951 S   0  0  0  0  0  1  0  0  0  0  0  0
   -1.2614    1.9605    0.6374 S   0  0  0  0  0  5  0  0  0  0  0  0
   -1.3905    2.9890   -0.4833 O   0  0  0  0  0  0  0  0  0  0  0  0
   -0.4658    2.4529    1.8239 O   0  0  0  0  0  0  0  0  0  0  0  0
   -3.0887   -0.2979   -0.1984 N   0  0  0  0  0  0  0  0  0  0  0  0
   -1.0696   -2.2206   -0.9050 N   0  0  0  0  0  0  0  0  0  0  0  0
   -2.7986    1.0486   -2.3579 C   0  0  0  0  0  0  0  0  0  0  0  0
   -2.6823    2.0642   -1.9250 H   0  0  0  0  0  0  0  0  0  0  0  0
   -3.1826    1.1218   -3.3956 H   0  0  0  0  0  0  0  0  0  0  0  0
   -3.6849    0.1552   -1.5040 C   0  0  0  0  0  0  0  0  0  0  0  0
   -4.6445    0.6766   -1.2974 H   0  0  0  0  0  0  0  0  0  0  0  0
   -3.9524   -0.7503   -2.0844 H   0  0  0  0  0  0  0  0  0  0  0  0
   -3.3620   -1.7472   -0.0031 C   0  0  0  0  0  0  0  0  0  0  0  0
   -4.4446   -1.9746   -0.1437 H   0  0  0  0  0  0  0  0  0  0  0  0
   -3.0760   -1.9607    1.0454 H   0  0  0  0  0  0  0  0  0  0  0  0
   -2.5179   -2.5944   -0.9353 C   0  0  0  0  0  0  0  0  0  0  0  0
   -2.8784   -2.4902   -1.9770 H   0  0  0  0  0  0  0  0  0  0  0  0
   -2.6381   -3.6695   -0.6801 H   0  0  0  0  0  0  0  0  0  0  0  0
   -0.5306   -2.2534   -2.2926 C   0  0  0  0  0  0  0  0  0  0  0  0
   -0.7266   -3.2485   -2.7618 H   0  0  0  0  0  0  0  0  0  0  0  0
    0.5646   -2.1385   -2.2238 H   0  0  0  0  0  0  0  0  0  0  0  0
   -1.1007   -1.1560   -3.1874 C   0  0  0  0  0  0  0  0  0  0  0  0
   -2.1507   -1.3408   -3.4894 H   0  0  0  0  0  0  0  0  0  0  0  0
   -0.4971   -1.0892   -4.1135 H   0  0  0  0  0  0  0  0  0  0  0  0
   -3.6263    0.4204    1.0024 C   0  0  0  0  0  0  0  0  0  0  0  0
   -3.3214   -0.2186    1.8536 H   0  0  0  0  0  0  0  0  0  0  0  0
   -4.7416    0.4190    0.9491 H   0  0  0  0  0  0  0  0  0  0  0  0
   -3.1173    1.8369    1.2823 C   0  0  0  0  0  0  0  0  0  0  0  0
   -0.4882   -3.0061    1.5017 C   0  0  0  0  0  0  0  0  0  0  0  0
   -0.2693   -3.1154   -0.0244 C   0  0  0  0  0  0  0  0  0  0  0  0
    0.7802   -2.8578   -0.2409 H   0  0  0  0  0  0  0  0  0  0  0  0
   -0.4174   -4.1770   -0.3457 H   0  0  0  0  0  0  0  0  0  0  0  0
   -1.5737   -3.9623    2.0279 C   0  0  0  0  0  0  0  0  0  0  0  0
   -1.2794   -5.0219    1.8600 H   0  0  0  0  0  0  0  0  0  0  0  0
   -2.5640   -3.8094    1.5592 H   0  0  0  0  0  0  0  0  0  0  0  0
   -1.7030   -3.8140    3.1180 H   0  0  0  0  0  0  0  0  0  0  0  0
    0.8414   -3.3808    2.1833 C   0  0  0  0  0  0  0  0  0  0  0  0
    1.1725   -4.4027    1.8895 H   0  0  0  0  0  0  0  0  0  0  0  0
    0.7235   -3.3625    3.2842 H   0  0  0  0  0  0  0  0  0  0  0  0
    1.6373   -2.6551    1.9296 H   0  0  0  0  0  0  0  0  0  0  0  0
   -3.0609    2.0545    2.7944 C   0  0  0  0  0  0  0  0  0  0  0  0
   -2.6386    3.0502    3.0257 H   0  0  0  0  0  0  0  0  0  0  0  0
   -2.4170    1.2974    3.2822 H   0  0  0  0  0  0  0  0  0  0  0  0
   -4.0811    1.9875    3.2315 H   0  0  0  0  0  0  0  0  0  0  0  0
   -3.9231    2.9441    0.6053 C   0  0  0  0  0  0  0  0  0  0  0  0
   -4.9362    2.9979    1.0598 H   0  0  0  0  0  0  0  0  0  0  0  0
   -4.0418    2.7911   -0.4834 H   0  0  0  0  0  0  0  0  0  0  0  0
   -3.4228    3.9219    0.7346 H   0  0  0  0  0  0  0  0  0  0  0  0
  1  8  1  0  0  0  0
  3 29  1  0  0  0  0
  3  5  2  0  0  0  0
  4  3  2  0  0  0  0
  6 14  1  0  0  0  0
  6 26  1  0  0  0  0
  7 31  1  0  0  0  0
  8  9  1  0  0  0  0
  8 11  1  0  0  0  0
 10  8  1  0  0  0  0
 11 12  1  0  0  0  0
 11  6  1  0  0  0  0
 13 11  1  0  0  0  0
 14 16  1  0  0  0  0
 15 14  1  0  0  0  0
 17  7  1  0  0  0  0
 17 19  1  0  0  0  0
 17 14  1  0  0  0  0
 18 17  1  0  0  0  0
 20 22  1  0  0  0  0
 20  7  1  0  0  0  0
 21 20  1  0  0  0  0
 23  1  1  0  0  0  0
 23 20  1  0  0  0  0
 24 23  1  0  0  0  0
 25 23  1  0  0  0  0
 26 29  1  0  0  0  0
 26 27  1  0  0  0  0
 28 26  1  0  0  0  0
 29 42  1  0  0  0  0
 30  2  1  0  0  0  0
 30 34  1  0  0  0  0
 30 38  1  0  0  0  0
 31 30  1  0  0  0  0
 32 31  1  0  0  0  0
 33 31  1  0  0  0  0
 34 37  1  0  0  0  0
 35 34  1  0  0  0  0
 36 34  1  0  0  0  0
 38 40  1  0  0  0  0
 39 38  1  0  0  0  0
 41 38  1  0  0  0  0
 42 43  1  0  0  0  0
 42 45  1  0  0  0  0
 42 44  1  0  0  0  0
 46 49  1  0  0  0  0
 46 47  1  0  0  0  0
 46 29  1  0  0  0  0
 48 46  1  0  0  0  0
M  END
