1,2,3,4,5
 OpenBabel05122313063D

 41 42  0  0  0  0  0  0  0  0999 V2000
   -0.4840   -2.3847   -0.5990 S   0  0  0  0  0  1  0  0  0  0  0  0
   -0.5989    0.5764   -1.5848 S   0  0  0  0  0  1  0  0  0  0  0  0
    2.4617   -1.7606    0.7874 S   0  0  0  0  0  0  0  0  0  0  0  0
    2.0802    0.9254   -0.2800 N   0  0  0  0  0  2  0  0  0  0  0  0
    0.0323   -0.1956    1.3315 N   0  0  0  0  0  2  0  0  0  0  0  0
   -2.3031   -0.7810    0.8584 C   0  0  0  0  0  0  0  0  0  0  0  0
    0.4403    2.7522   -0.1308 C   0  0  0  0  0  0  0  0  0  0  0  0
    3.8340   -0.5213    0.6563 C   0  0  0  0  0  0  0  0  0  0  0  0
    3.9913   -0.0973    1.6679 H   0  0  0  0  0  0  0  0  0  0  0  0
    4.7461   -1.0760    0.3649 H   0  0  0  0  0  0  0  0  0  0  0  0
   -2.0591   -1.8293   -0.0947 C   0  0  0  0  0  0  0  0  0  0  0  0
   -1.2343   -0.2242    1.6474 C   0  0  0  0  0  3  0  0  0  0  0  0
   -1.5154    0.1297    2.6619 H   0  0  0  0  0  0  0  0  0  0  0  0
    0.2766    4.0529    0.4196 C   0  0  0  0  0  0  0  0  0  0  0  0
    1.1479    4.5355    0.8916 H   0  0  0  0  0  0  0  0  0  0  0  0
   -3.6385   -0.4325    1.1957 C   0  0  0  0  0  0  0  0  0  0  0  0
   -3.7994    0.3685    1.9350 H   0  0  0  0  0  0  0  0  0  0  0  0
   -3.1865   -2.5043   -0.6316 C   0  0  0  0  0  0  0  0  0  0  0  0
   -3.0101   -3.3140   -1.3553 H   0  0  0  0  0  0  0  0  0  0  0  0
   -1.9048    2.8199   -0.8264 C   0  0  0  0  0  0  0  0  0  0  0  0
   -2.7619    2.3325   -1.3148 H   0  0  0  0  0  0  0  0  0  0  0  0
   -4.7259   -1.0749    0.6116 C   0  0  0  0  0  0  0  0  0  0  0  0
   -5.7535   -0.7775    0.8661 H   0  0  0  0  0  0  0  0  0  0  0  0
    1.7643    2.1807   -0.1125 C   0  0  0  0  0  3  0  0  0  0  0  0
    2.5972    2.8963    0.0523 H   0  0  0  0  0  0  0  0  0  0  0  0
    1.0051   -0.0460    2.4064 C   0  0  0  0  0  0  0  0  0  0  0  0
    0.5098    0.1345    3.3867 H   0  0  0  0  0  0  0  0  0  0  0  0
    1.6745    0.8138    2.1984 H   0  0  0  0  0  0  0  0  0  0  0  0
   -0.6724    2.1106   -0.7766 C   0  0  0  0  0  0  0  0  0  0  0  0
   -0.9467    4.7150    0.3765 C   0  0  0  0  0  0  0  0  0  0  0  0
   -1.0572    5.7141    0.8221 H   0  0  0  0  0  0  0  0  0  0  0  0
   -2.0408    4.0866   -0.2606 C   0  0  0  0  0  0  0  0  0  0  0  0
   -3.0148    4.5979   -0.3104 H   0  0  0  0  0  0  0  0  0  0  0  0
   -4.4879   -2.1299   -0.2972 C   0  0  0  0  0  0  0  0  0  0  0  0
   -5.3360   -2.6604   -0.7571 H   0  0  0  0  0  0  0  0  0  0  0  0
    3.4897    0.5581   -0.3729 C   0  0  0  0  0  0  0  0  0  0  0  0
    4.1486    1.4436   -0.2327 H   0  0  0  0  0  0  0  0  0  0  0  0
    3.6547    0.1531   -1.3936 H   0  0  0  0  0  0  0  0  0  0  0  0
    1.8134   -1.3438    2.4607 C   0  0  0  0  0  0  0  0  0  0  0  0
    1.1564   -2.1992    2.7168 H   0  0  0  0  0  0  0  0  0  0  0  0
    2.6547   -1.3092    3.1815 H   0  0  0  0  0  0  0  0  0  0  0  0
  1 11  1  0  0  0  0
  2 29  1  0  0  0  0
  3 39  1  0  0  0  0
  4 24  1  0  0  0  0
  5 12  1  0  0  0  0
  5 26  1  0  0  0  0
  6 16  1  0  0  0  0
  6 12  1  0  0  0  0
  7 24  1  0  0  0  0
  7 14  1  0  0  0  0
  8  3  1  0  0  0  0
  8  9  1  0  0  0  0
 10  8  1  0  0  0  0
 11  6  2  0  0  0  0
 12 13  1  0  0  0  0
 14 15  1  0  0  0  0
 16 17  1  0  0  0  0
 18 34  2  0  0  0  0
 18 11  1  0  0  0  0
 19 18  1  0  0  0  0
 20 29  1  0  0  0  0
 20 32  2  0  0  0  0
 21 20  1  0  0  0  0
 22 23  1  0  0  0  0
 22 16  2  0  0  0  0
 24 25  1  0  0  0  0
 26 39  1  0  0  0  0
 26 27  1  0  0  0  0
 28 26  1  0  0  0  0
 29  7  2  0  0  0  0
 30 14  2  0  0  0  0
 30 31  1  0  0  0  0
 32 30  1  0  0  0  0
 33 32  1  0  0  0  0
 34 22  1  0  0  0  0
 35 34  1  0  0  0  0
 36  4  1  0  0  0  0
 36 37  1  0  0  0  0
 36  8  1  0  0  0  0
 38 36  1  0  0  0  0
 39 40  1  0  0  0  0
 39 41  1  0  0  0  0
M  END
