1,15,26,40,51
 OpenBabel05122313063D

 62 66  0  0  0  0  0  0  0  0999 V2000
   -0.7220    1.0283   -0.1481 P   0  0  0  0  0  0  0  0  0  0  0  0
   -1.4336    1.3933    1.5265 C   0  0  0  0  0  0  0  0  0  0  0  0
   -2.1448    2.6020    1.6819 C   0  0  0  0  0  0  0  0  0  0  0  0
   -2.2786    3.2635    0.8121 H   0  0  0  0  0  0  0  0  0  0  0  0
   -2.6798    2.9677    2.9228 C   0  0  0  0  0  0  0  0  0  0  0  0
   -3.2342    3.9124    3.0259 H   0  0  0  0  0  0  0  0  0  0  0  0
   -2.5044    2.1213    4.0293 C   0  0  0  0  0  0  0  0  0  0  0  0
   -2.9246    2.3945    5.0090 H   0  0  0  0  0  0  0  0  0  0  0  0
   -1.7967    0.9214    3.8836 C   0  0  0  0  0  0  0  0  0  0  0  0
   -1.6632    0.2543    4.7503 H   0  0  0  0  0  0  0  0  0  0  0  0
   -1.2505    0.5428    2.6410 C   0  0  0  0  0  0  0  0  0  0  0  0
   -0.4479   -0.7457    2.5490 C   0  0  0  0  0  0  0  0  0  0  0  0
    0.6235   -0.5413    2.7537 H   0  0  0  0  0  0  0  0  0  0  0  0
   -0.7871   -1.4481    3.3394 H   0  0  0  0  0  0  0  0  0  0  0  0
   -0.5419   -1.3777    1.2450 N   0  0  0  0  0  2  0  0  0  0  0  0
   -1.6814   -2.1243    0.9710 C   0  0  0  0  0  0  0  0  0  0  0  0
   -2.7930   -2.3672    1.8088 C   0  0  0  0  0  0  0  0  0  0  0  0
   -2.8544   -1.9269    2.8139 H   0  0  0  0  0  0  0  0  0  0  0  0
   -3.8332   -3.1700    1.3278 C   0  0  0  0  0  0  0  0  0  0  0  0
   -4.7052   -3.3665    1.9691 H   0  0  0  0  0  0  0  0  0  0  0  0
   -3.7783   -3.7312    0.0295 C   0  0  0  0  0  0  0  0  0  0  0  0
   -4.6127   -4.3555   -0.3244 H   0  0  0  0  0  0  0  0  0  0  0  0
   -2.6881   -3.4968   -0.8125 C   0  0  0  0  0  0  0  0  0  0  0  0
   -2.6319   -3.9104   -1.8292 H   0  0  0  0  0  0  0  0  0  0  0  0
   -1.6396   -2.6693   -0.3527 C   0  0  0  0  0  0  0  0  0  0  0  0
   -0.5757   -2.3343   -1.0487 O   0  5  0  0  0  0  0  0  0  0  0  0
    0.3157    2.5203   -0.4236 C   0  0  0  0  0  0  0  0  0  0  0  0
   -0.0538    3.5826   -1.2652 C   0  0  0  0  0  0  0  0  0  0  0  0
   -1.0266    3.5614   -1.7780 H   0  0  0  0  0  0  0  0  0  0  0  0
    0.8159    4.6678   -1.4583 C   0  0  0  0  0  0  0  0  0  0  0  0
    0.5203    5.4939   -2.1224 H   0  0  0  0  0  0  0  0  0  0  0  0
    2.0576    4.6907   -0.8096 C   0  0  0  0  0  0  0  0  0  0  0  0
    2.7494    5.5320   -0.9658 H   0  0  0  0  0  0  0  0  0  0  0  0
    2.4209    3.6368    0.0443 C   0  0  0  0  0  0  0  0  0  0  0  0
    3.3935    3.6600    0.5605 H   0  0  0  0  0  0  0  0  0  0  0  0
    1.5629    2.5454    0.2555 C   0  0  0  0  0  0  0  0  0  0  0  0
    1.9545    1.4472    1.2337 C   0  0  0  0  0  0  0  0  0  0  0  0
    2.8775    1.7524    1.7604 H   0  0  0  0  0  0  0  0  0  0  0  0
    1.1675    1.3712    2.0128 H   0  0  0  0  0  0  0  0  0  0  0  0
    2.1067    0.1253    0.6075 N   0  0  0  0  0  2  0  0  0  0  0  0
    3.3982   -0.4060    0.5045 C   0  0  0  0  0  0  0  0  0  0  0  0
    4.6157    0.1452    0.9647 C   0  0  0  0  0  0  0  0  0  0  0  0
    4.6474    1.1340    1.4431 H   0  0  0  0  0  0  0  0  0  0  0  0
    5.8083   -0.5680    0.7946 C   0  0  0  0  0  0  0  0  0  0  0  0
    6.7551   -0.1299    1.1433 H   0  0  0  0  0  0  0  0  0  0  0  0
    5.8052   -1.8347    0.1721 C   0  0  0  0  0  0  0  0  0  0  0  0
    6.7517   -2.3821    0.0459 H   0  0  0  0  0  0  0  0  0  0  0  0
    4.6139   -2.3971   -0.2974 C   0  0  0  0  0  0  0  0  0  0  0  0
    4.5851   -3.3774   -0.7938 H   0  0  0  0  0  0  0  0  0  0  0  0
    3.4058   -1.6851   -0.1446 C   0  0  0  0  0  0  0  0  0  0  0  0
    2.2393   -2.1440   -0.5727 O   0  5  0  0  0  0  0  0  0  0  0  0
   -2.1861    1.0726   -1.2513 C   0  0  0  0  0  0  0  0  0  0  0  0
   -3.4356    0.6574   -0.7387 C   0  0  0  0  0  0  0  0  0  0  0  0
   -3.5535    0.4585    0.3367 H   0  0  0  0  0  0  0  0  0  0  0  0
   -4.5276    0.4790   -1.5995 C   0  0  0  0  0  0  0  0  0  0  0  0
   -5.4930    0.1481   -1.1879 H   0  0  0  0  0  0  0  0  0  0  0  0
   -4.3877    0.7137   -2.9761 C   0  0  0  0  0  0  0  0  0  0  0  0
   -5.2466    0.5754   -3.6502 H   0  0  0  0  0  0  0  0  0  0  0  0
   -3.1438    1.1112   -3.4925 C   0  0  0  0  0  0  0  0  0  0  0  0
   -3.0228    1.2798   -4.5733 H   0  0  0  0  0  0  0  0  0  0  0  0
   -2.0420    1.2794   -2.6423 C   0  0  0  0  0  0  0  0  0  0  0  0
   -1.0582    1.5331   -3.0605 H   0  0  0  0  0  0  0  0  0  0  0  0
  1  2  1  0  0  0  0
  2  3  2  0  0  0  0
  2 11  1  0  0  0  0
  3  5  1  0  0  0  0
  4  3  1  0  0  0  0
  5  6  1  0  0  0  0
  5  7  2  0  0  0  0
  7  8  1  0  0  0  0
  9  7  1  0  0  0  0
  9 10  1  0  0  0  0
 11  9  2  0  0  0  0
 12 11  1  0  0  0  0
 12 13  1  0  0  0  0
 12 14  1  0  0  0  0
 15 12  1  0  0  0  0
 16 15  1  0  0  0  0
 16 17  1  0  0  0  0
 17 18  1  0  0  0  0
 19 17  2  0  0  0  0
 19 20  1  0  0  0  0
 21 19  1  0  0  0  0
 22 21  1  0  0  0  0
 23 25  1  0  0  0  0
 23 21  2  0  0  0  0
 24 23  1  0  0  0  0
 25 16  2  0  0  0  0
 26 25  1  0  0  0  0
 27  1  1  0  0  0  0
 27 36  1  0  0  0  0
 28 27  2  0  0  0  0
 29 28  1  0  0  0  0
 30 28  1  0  0  0  0
 30 32  2  0  0  0  0
 31 30  1  0  0  0  0
 32 34  1  0  0  0  0
 33 32  1  0  0  0  0
 34 36  2  0  0  0  0
 34 35  1  0  0  0  0
 36 37  1  0  0  0  0
 37 38  1  0  0  0  0
 37 39  1  0  0  0  0
 40 37  1  0  0  0  0
 41 40  1  0  0  0  0
 41 42  1  0  0  0  0
 42 43  1  0  0  0  0
 44 42  2  0  0  0  0
 44 45  1  0  0  0  0
 46 44  1  0  0  0  0
 47 46  1  0  0  0  0
 48 50  1  0  0  0  0
 48 46  2  0  0  0  0
 49 48  1  0  0  0  0
 50 41  2  0  0  0  0
 51 50  1  0  0  0  0
 52 53  1  0  0  0  0
 52  1  1  0  0  0  0
 53 54  1  0  0  0  0
 55 56  1  0  0  0  0
 55 53  2  0  0  0  0
 57 55  1  0  0  0  0
 58 57  1  0  0  0  0
 59 57  2  0  0  0  0
 59 61  1  0  0  0  0
 60 59  1  0  0  0  0
 61 52  2  0  0  0  0
 62 61  1  0  0  0  0
M  CHG  2  26  -1  51  -1
M  END
