1,5,15,19
 OpenBabel05122313063D

 28 28  0  0  0  0  0  0  0  0999 V2000
   -1.6224    1.9002    0.1512 S   0  0  0  0  0  1  0  0  0  0  0  0
   -2.8747    0.6647   -0.4098 C   0  0  0  0  0  0  0  0  0  0  0  0
   -3.8939    1.0439   -0.1830 H   0  0  0  0  0  0  0  0  0  0  0  0
   -2.8313    0.5187   -1.5125 H   0  0  0  0  0  0  0  0  0  0  0  0
   -1.2128   -1.0500    0.1502 N   0  0  0  0  0  0  0  0  0  0  0  0
    0.9173   -1.7800    1.1020 C   0  0  0  0  0  0  0  0  0  0  0  0
    1.4182   -1.2532    1.9355 H   0  0  0  0  0  0  0  0  0  0  0  0
    1.3297   -2.8173    1.0531 H   0  0  0  0  0  0  0  0  0  0  0  0
   -0.6220   -1.7796    1.2931 C   0  0  0  0  0  0  0  0  0  0  0  0
   -1.0314   -2.8173    1.3530 H   0  0  0  0  0  0  0  0  0  0  0  0
   -0.9022   -1.2409    2.2166 H   0  0  0  0  0  0  0  0  0  0  0  0
   -2.6358   -0.6520    0.3166 C   0  0  0  0  0  0  0  0  0  0  0  0
   -2.8001   -0.4930    1.4004 H   0  0  0  0  0  0  0  0  0  0  0  0
   -3.3051   -1.4784   -0.0233 H   0  0  0  0  0  0  0  0  0  0  0  0
    1.6224    1.9002   -0.1512 S   0  0  0  0  0  1  0  0  0  0  0  0
    2.8747    0.6647    0.4098 C   0  0  0  0  0  0  0  0  0  0  0  0
    3.8939    1.0439    0.1830 H   0  0  0  0  0  0  0  0  0  0  0  0
    2.8313    0.5187    1.5125 H   0  0  0  0  0  0  0  0  0  0  0  0
    1.2128   -1.0500   -0.1502 N   0  0  0  0  0  0  0  0  0  0  0  0
   -0.9173   -1.7801   -1.1019 C   0  0  0  0  0  0  0  0  0  0  0  0
   -1.4182   -1.2533   -1.9354 H   0  0  0  0  0  0  0  0  0  0  0  0
   -1.3297   -2.8173   -1.0530 H   0  0  0  0  0  0  0  0  0  0  0  0
    0.6220   -1.7796   -1.2931 C   0  0  0  0  0  0  0  0  0  0  0  0
    1.0314   -2.8174   -1.3529 H   0  0  0  0  0  0  0  0  0  0  0  0
    0.9022   -1.2410   -2.2166 H   0  0  0  0  0  0  0  0  0  0  0  0
    2.6358   -0.6520   -0.3166 C   0  0  0  0  0  0  0  0  0  0  0  0
    2.8001   -0.4930   -1.4004 H   0  0  0  0  0  0  0  0  0  0  0  0
    3.3051   -1.4784    0.0233 H   0  0  0  0  0  0  0  0  0  0  0  0
  2  3  1  0  0  0  0
  2  1  1  0  0  0  0
  2 12  1  0  0  0  0
  4  2  1  0  0  0  0
  5 12  1  0  0  0  0
  5  9  1  0  0  0  0
  6  9  1  0  0  0  0
  6  7  1  0  0  0  0
  8  6  1  0  0  0  0
  9 10  1  0  0  0  0
  9 11  1  0  0  0  0
 12 13  1  0  0  0  0
 14 12  1  0  0  0  0
 15 16  1  0  0  0  0
 16 18  1  0  0  0  0
 17 16  1  0  0  0  0
 19  6  1  0  0  0  0
 20 22  1  0  0  0  0
 20  5  1  0  0  0  0
 21 20  1  0  0  0  0
 23 20  1  0  0  0  0
 23 19  1  0  0  0  0
 24 23  1  0  0  0  0
 25 23  1  0  0  0  0
 26 19  1  0  0  0  0
 26 28  1  0  0  0  0
 26 16  1  0  0  0  0
 27 26  1  0  0  0  0
M  END
