1,2,3,4
 OpenBabel05122313063D

 38 39  0  0  0  0  0  0  0  0999 V2000
   -1.7431    0.9978   -1.4858 S   0  0  0  0  0  1  0  0  0  0  0  0
    1.7430    0.9978    1.4857 S   0  0  0  0  0  1  0  0  0  0  0  0
   -1.0385   -0.5904    1.0395 N   0  0  0  0  0  0  0  0  0  0  0  0
    1.0384   -0.5907   -1.0394 N   0  0  0  0  0  0  0  0  0  0  0  0
   -2.8047   -0.1344   -0.6685 C   0  0  0  0  0  0  0  0  0  0  0  0
   -4.0991   -0.3957   -1.1851 C   0  0  0  0  0  0  0  0  0  0  0  0
   -4.4170    0.1378   -2.0934 H   0  0  0  0  0  0  0  0  0  0  0  0
   -4.9563   -1.3003   -0.5551 C   0  0  0  0  0  0  0  0  0  0  0  0
   -5.9583   -1.4813   -0.9731 H   0  0  0  0  0  0  0  0  0  0  0  0
   -4.5449   -1.9705    0.6110 C   0  0  0  0  0  0  0  0  0  0  0  0
   -5.2146   -2.6814    1.1162 H   0  0  0  0  0  0  0  0  0  0  0  0
   -3.2684   -1.7217    1.1312 C   0  0  0  0  0  0  0  0  0  0  0  0
   -2.9485   -2.2511    2.0407 H   0  0  0  0  0  0  0  0  0  0  0  0
   -2.3979   -0.8106    0.5051 C   0  0  0  0  0  0  0  0  0  0  0  0
   -0.1775   -1.7741    0.7347 C   0  0  0  0  0  0  0  0  0  0  0  0
    0.7388   -1.6951    1.3536 H   0  0  0  0  0  0  0  0  0  0  0  0
   -0.7048   -2.7122    1.0141 H   0  0  0  0  0  0  0  0  0  0  0  0
   -1.0751   -0.3692    2.5078 C   0  0  0  0  0  0  0  0  0  0  0  0
   -0.0583   -0.0828    2.8401 H   0  0  0  0  0  0  0  0  0  0  0  0
   -1.3914   -1.2856    3.0478 H   0  0  0  0  0  0  0  0  0  0  0  0
   -1.7854    0.4458    2.7349 H   0  0  0  0  0  0  0  0  0  0  0  0
    2.8047   -0.1344    0.6685 C   0  0  0  0  0  0  0  0  0  0  0  0
    4.0991   -0.3956    1.1851 C   0  0  0  0  0  0  0  0  0  0  0  0
    4.4171    0.1381    2.0933 H   0  0  0  0  0  0  0  0  0  0  0  0
    4.9563   -1.3002    0.5551 C   0  0  0  0  0  0  0  0  0  0  0  0
    5.9584   -1.4811    0.9730 H   0  0  0  0  0  0  0  0  0  0  0  0
    4.5449   -1.9705   -0.6109 C   0  0  0  0  0  0  0  0  0  0  0  0
    5.2146   -2.6814   -1.1161 H   0  0  0  0  0  0  0  0  0  0  0  0
    3.2684   -1.7218   -1.1310 C   0  0  0  0  0  0  0  0  0  0  0  0
    2.9485   -2.2513   -2.0405 H   0  0  0  0  0  0  0  0  0  0  0  0
    2.3978   -0.8108   -0.5050 C   0  0  0  0  0  0  0  0  0  0  0  0
    0.1774   -1.7743   -0.7341 C   0  0  0  0  0  0  0  0  0  0  0  0
   -0.7389   -1.6956   -1.3530 H   0  0  0  0  0  0  0  0  0  0  0  0
    0.7047   -2.7125   -1.0133 H   0  0  0  0  0  0  0  0  0  0  0  0
    1.0748   -0.3698   -2.5077 C   0  0  0  0  0  0  0  0  0  0  0  0
    0.0580   -0.0834   -2.8399 H   0  0  0  0  0  0  0  0  0  0  0  0
    1.3910   -1.2864   -3.0475 H   0  0  0  0  0  0  0  0  0  0  0  0
    1.7852    0.4450   -2.7351 H   0  0  0  0  0  0  0  0  0  0  0  0
  1  5  1  0  0  0  0
  3 18  1  0  0  0  0
  4 32  1  0  0  0  0
  4 31  1  0  0  0  0
  5 14  1  0  0  0  0
  6  5  2  0  0  0  0
  6  8  1  0  0  0  0
  7  6  1  0  0  0  0
  8 10  2  0  0  0  0
  9  8  1  0  0  0  0
 10 11  1  0  0  0  0
 10 12  1  0  0  0  0
 12 13  1  0  0  0  0
 14  3  1  0  0  0  0
 14 12  2  0  0  0  0
 15 17  1  0  0  0  0
 15  3  1  0  0  0  0
 15 16  1  0  0  0  0
 18 21  1  0  0  0  0
 18 19  1  0  0  0  0
 18 20  1  0  0  0  0
 22 23  1  0  0  0  0
 22  2  1  0  0  0  0
 23 24  1  0  0  0  0
 25 26  1  0  0  0  0
 25 23  2  0  0  0  0
 27 25  1  0  0  0  0
 28 27  1  0  0  0  0
 29 27  2  0  0  0  0
 29 31  1  0  0  0  0
 30 29  1  0  0  0  0
 31 22  2  0  0  0  0
 32 15  1  0  0  0  0
 33 32  1  0  0  0  0
 34 32  1  0  0  0  0
 35  4  1  0  0  0  0
 36 35  1  0  0  0  0
 37 35  1  0  0  0  0
 38 35  1  0  0  0  0
M  END
