1,2,18,19
 OpenBabel05122313063D

 33 32  0  0  0  0  0  0  0  0999 V2000
   -1.5366   -0.5706   -1.8002 S   0  0  0  0  0  1  0  0  0  0  0  0
   -1.3709    0.9093    0.9457 N   0  0  0  0  0  0  0  0  0  0  0  0
   -2.9360    0.0028   -0.7639 C   0  0  0  0  0  0  0  0  0  0  0  0
   -2.5254    1.2108    0.0665 C   0  0  0  0  0  0  0  0  0  0  0  0
   -0.5350    2.1009    1.2124 C   0  0  0  0  0  0  0  0  0  0  0  0
    0.0003    2.8729    0.0012 C   0  0  0  0  0  0  0  0  0  0  0  0
   -1.8501    0.3957    2.2472 C   0  0  0  0  0  0  0  0  0  0  0  0
   -3.7724    0.2722   -1.4399 H   0  0  0  0  0  0  0  0  0  0  0  0
   -3.2708   -0.8393   -0.1226 H   0  0  0  0  0  0  0  0  0  0  0  0
   -2.2472    2.0291   -0.6234 H   0  0  0  0  0  0  0  0  0  0  0  0
   -3.3828    1.5814    0.6775 H   0  0  0  0  0  0  0  0  0  0  0  0
   -1.1071    2.8190    1.8499 H   0  0  0  0  0  0  0  0  0  0  0  0
    0.3103    1.7272    1.8265 H   0  0  0  0  0  0  0  0  0  0  0  0
   -0.7795    3.5560   -0.3980 H   0  0  0  0  0  0  0  0  0  0  0  0
   -0.9838    0.1021    2.8693 H   0  0  0  0  0  0  0  0  0  0  0  0
   -2.4311    1.1811    2.7855 H   0  0  0  0  0  0  0  0  0  0  0  0
   -2.4788   -0.4984    2.0970 H   0  0  0  0  0  0  0  0  0  0  0  0
    1.5368   -0.5716    1.7999 S   0  0  0  0  0  1  0  0  0  0  0  0
    1.3708    0.9099   -0.9454 N   0  0  0  0  0  0  0  0  0  0  0  0
    0.5351    2.1019   -1.2109 C   0  0  0  0  0  0  0  0  0  0  0  0
    0.7805    3.5552    0.4011 H   0  0  0  0  0  0  0  0  0  0  0  0
    2.9360    0.0020    0.7635 C   0  0  0  0  0  0  0  0  0  0  0  0
    2.5255    1.2106   -0.0662 C   0  0  0  0  0  0  0  0  0  0  0  0
    1.8495    0.3974   -2.2475 C   0  0  0  0  0  0  0  0  0  0  0  0
    1.1074    2.8205   -1.8478 H   0  0  0  0  0  0  0  0  0  0  0  0
   -0.3104    1.7291   -1.8252 H   0  0  0  0  0  0  0  0  0  0  0  0
    3.7727    0.2709    1.4394 H   0  0  0  0  0  0  0  0  0  0  0  0
    3.2704   -0.8399    0.1216 H   0  0  0  0  0  0  0  0  0  0  0  0
    2.2474    2.0285    0.6243 H   0  0  0  0  0  0  0  0  0  0  0  0
    3.3828    1.5814   -0.6771 H   0  0  0  0  0  0  0  0  0  0  0  0
    0.9830    0.1044   -2.8696 H   0  0  0  0  0  0  0  0  0  0  0  0
    2.4305    1.1832   -2.7852 H   0  0  0  0  0  0  0  0  0  0  0  0
    2.4783   -0.4969   -2.0982 H   0  0  0  0  0  0  0  0  0  0  0  0
  1  3  1  0  0  0  0
  2  5  1  0  0  0  0
  2  7  1  0  0  0  0
  3  9  1  0  0  0  0
  3  4  1  0  0  0  0
  4 11  1  0  0  0  0
  4  2  1  0  0  0  0
  5 13  1  0  0  0  0
  5 12  1  0  0  0  0
  6 21  1  0  0  0  0
  6  5  1  0  0  0  0
  7 16  1  0  0  0  0
  7 15  1  0  0  0  0
  8  3  1  0  0  0  0
 10  4  1  0  0  0  0
 14  6  1  0  0  0  0
 17  7  1  0  0  0  0
 19 23  1  0  0  0  0
 20 19  1  0  0  0  0
 20  6  1  0  0  0  0
 22 27  1  0  0  0  0
 22 18  1  0  0  0  0
 23 29  1  0  0  0  0
 23 22  1  0  0  0  0
 24 33  1  0  0  0  0
 24 19  1  0  0  0  0
 25 20  1  0  0  0  0
 26 20  1  0  0  0  0
 28 22  1  0  0  0  0
 30 23  1  0  0  0  0
 31 24  1  0  0  0  0
 32 24  1  0  0  0  0
M  END
