1,2,3,5
 OpenBabel05122313063D

 41 40  0  0  0  0  0  0  0  0999 V2000
   -2.4612   -2.1574    0.0293 S   0  0  0  0  0  1  0  0  0  0  0  0
    0.8366   -1.4918    0.1181 S   0  0  0  0  0  1  0  0  0  0  0  0
   -2.5845    0.6599   -0.0239 N   0  0  0  0  0  2  0  0  0  0  0  0
   -3.8578    0.2080   -0.0591 N   0  0  0  0  0  0  0  0  0  0  0  0
   -0.1369    1.1529    0.0502 N   0  0  0  0  0  2  0  0  0  0  0  0
    1.2097    1.2309    0.0957 N   0  0  0  0  0  0  0  0  0  0  0  0
   -5.1025   -1.7312   -0.0815 N   0  0  0  0  0  0  0  0  0  0  0  0
   -5.0977   -2.7484   -0.0193 H   0  0  0  0  0  0  0  0  0  0  0  0
    3.1047   -0.0761    0.1986 N   0  0  0  0  0  0  0  0  0  0  0  0
    3.5528   -0.9975    0.1252 H   0  0  0  0  0  0  0  0  0  0  0  0
    5.7817   -0.6789   -0.0967 N   0  0  0  0  0  0  0  0  0  0  0  0
   -2.3150    1.9627   -0.0339 C   0  0  0  0  0  0  0  0  0  0  0  0
   -0.8892    2.2501    0.0036 C   0  0  0  0  0  0  0  0  0  0  0  0
   -3.3736    3.0163   -0.0884 C   0  0  0  0  0  0  0  0  0  0  0  0
   -4.3614    2.5502    0.0765 H   0  0  0  0  0  0  0  0  0  0  0  0
   -3.1991    3.8022    0.6746 H   0  0  0  0  0  0  0  0  0  0  0  0
   -3.3878    3.5217   -1.0787 H   0  0  0  0  0  0  0  0  0  0  0  0
   -0.3185    3.6314    0.0045 C   0  0  0  0  0  0  0  0  0  0  0  0
    0.7630    3.5807   -0.2157 H   0  0  0  0  0  0  0  0  0  0  0  0
   -0.8237    4.2769   -0.7419 H   0  0  0  0  0  0  0  0  0  0  0  0
   -0.4442    4.1188    0.9963 H   0  0  0  0  0  0  0  0  0  0  0  0
   -3.8932   -1.1202   -0.0401 C   0  0  0  0  0  0  0  0  0  0  0  0
    1.7593    0.0183    0.1343 C   0  0  0  0  0  0  0  0  0  0  0  0
   -6.3587   -1.0127   -0.1024 C   0  0  0  0  0  0  0  0  0  0  0  0
   -7.1844   -1.7281   -0.2738 H   0  0  0  0  0  0  0  0  0  0  0  0
   -6.5424   -0.4720    0.8518 H   0  0  0  0  0  0  0  0  0  0  0  0
   -6.3588   -0.2567   -0.9135 H   0  0  0  0  0  0  0  0  0  0  0  0
    4.0161    1.0453    0.1310 C   0  0  0  0  0  0  0  0  0  0  0  0
    3.6610    1.8591    0.7951 H   0  0  0  0  0  0  0  0  0  0  0  0
    4.0377    1.4781   -0.8968 H   0  0  0  0  0  0  0  0  0  0  0  0
    5.4048    0.5663    0.5653 C   0  0  0  0  0  0  0  0  0  0  0  0
    6.1485    1.3894    0.3965 H   0  0  0  0  0  0  0  0  0  0  0  0
    5.3850    0.3675    1.6572 H   0  0  0  0  0  0  0  0  0  0  0  0
    6.8608   -1.3731    0.5847 C   0  0  0  0  0  0  0  0  0  0  0  0
    7.0356   -2.3590    0.1081 H   0  0  0  0  0  0  0  0  0  0  0  0
    7.8317   -0.8105    0.5663 H   0  0  0  0  0  0  0  0  0  0  0  0
    6.5903   -1.5496    1.6452 H   0  0  0  0  0  0  0  0  0  0  0  0
    6.0480   -0.5168   -1.5174 C   0  0  0  0  0  0  0  0  0  0  0  0
    6.2502   -1.5052   -1.9763 H   0  0  0  0  0  0  0  0  0  0  0  0
    5.1688   -0.0844   -2.0345 H   0  0  0  0  0  0  0  0  0  0  0  0
    6.9298    0.1459   -1.7244 H   0  0  0  0  0  0  0  0  0  0  0  0
  2 23  1  0  0  0  0
  4 22  2  0  0  0  0
  4  3  1  0  0  0  0
  5  6  1  0  0  0  0
  6 23  2  0  0  0  0
  7 22  1  0  0  0  0
  7  8  1  0  0  0  0
 10  9  1  0  0  0  0
 11 31  1  0  0  0  0
 11 34  1  0  0  0  0
 12  3  1  0  0  0  0
 12 13  2  0  0  0  0
 13 18  1  0  0  0  0
 13  5  1  0  0  0  0
 14 12  1  0  0  0  0
 14 15  1  0  0  0  0
 14 16  1  0  0  0  0
 17 14  1  0  0  0  0
 18 21  1  0  0  0  0
 19 18  1  0  0  0  0
 20 18  1  0  0  0  0
 22  1  1  0  0  0  0
 23  9  1  0  0  0  0
 24  7  1  0  0  0  0
 24 26  1  0  0  0  0
 25 24  1  0  0  0  0
 27 24  1  0  0  0  0
 28  9  1  0  0  0  0
 28 31  1  0  0  0  0
 28 29  1  0  0  0  0
 30 28  1  0  0  0  0
 31 33  1  0  0  0  0
 32 31  1  0  0  0  0
 34 37  1  0  0  0  0
 35 34  1  0  0  0  0
 36 34  1  0  0  0  0
 38 11  1  0  0  0  0
 39 38  1  0  0  0  0
 40 38  1  0  0  0  0
 41 38  1  0  0  0  0
M  END
