1,2,3,4
 OpenBabel05122313063D

 66 66  0  0  0  0  0  0  0  0999 V2000
   -0.1158   -2.6694   -0.8471 S   0  0  0  0  0  0  0  0  0  0  0  0
   -0.1192    2.6692   -0.8472 S   0  0  0  0  0  0  0  0  0  0  0  0
    2.2818    0.0014   -0.5668 N   0  0  0  0  0  0  0  0  0  0  0  0
   -2.5015   -0.0016   -0.3240 N   0  0  0  0  0  0  0  0  0  0  0  0
    1.3265   -2.7393    0.3001 C   0  0  0  0  0  0  0  0  0  0  0  0
    2.6963   -2.5116   -0.3704 C   0  0  0  0  0  0  0  0  0  0  0  0
    2.7632   -1.2163   -1.2163 C   0  0  0  0  0  0  0  0  0  0  0  0
    3.7310   -2.4439    0.7736 C   0  0  0  0  0  0  0  0  0  0  0  0
    3.0297   -3.6865   -1.3075 C   0  0  0  0  0  0  0  0  0  0  0  0
    2.7617    1.2200   -1.2156 C   0  0  0  0  0  0  0  0  0  0  0  0
    2.6929    2.5149   -0.3693 C   0  0  0  0  0  0  0  0  0  0  0  0
    1.3224    2.7408    0.3007 C   0  0  0  0  0  0  0  0  0  0  0  0
    3.7271    2.4481    0.7752 C   0  0  0  0  0  0  0  0  0  0  0  0
    3.0252    3.6905   -1.3058 C   0  0  0  0  0  0  0  0  0  0  0  0
   -1.4239    2.7105    0.4542 C   0  0  0  0  0  0  0  0  0  0  0  0
   -2.8560    2.5000   -0.0816 C   0  0  0  0  0  0  0  0  0  0  0  0
   -3.0090    1.2229   -0.9431 C   0  0  0  0  0  0  0  0  0  0  0  0
   -3.2781    3.6960   -0.9538 C   0  0  0  0  0  0  0  0  0  0  0  0
   -3.7813    2.4088    1.1496 C   0  0  0  0  0  0  0  0  0  0  0  0
   -3.0074   -1.2271   -0.9425 C   0  0  0  0  0  0  0  0  0  0  0  0
   -2.8525   -2.5036   -0.0805 C   0  0  0  0  0  0  0  0  0  0  0  0
   -1.4199   -2.7120    0.4549 C   0  0  0  0  0  0  0  0  0  0  0  0
   -3.7775   -2.4132    1.1510 C   0  0  0  0  0  0  0  0  0  0  0  0
   -3.2733   -3.7007   -0.9520 C   0  0  0  0  0  0  0  0  0  0  0  0
    2.4063    0.0012    0.4714 H   0  0  0  0  0  0  0  0  0  0  0  0
   -2.6950   -0.0015    0.6854 H   0  0  0  0  0  0  0  0  0  0  0  0
    1.1569   -1.9698    1.0784 H   0  0  0  0  0  0  0  0  0  0  0  0
    1.3219   -3.7385    0.7856 H   0  0  0  0  0  0  0  0  0  0  0  0
    2.1899   -1.3679   -2.1600 H   0  0  0  0  0  0  0  0  0  0  0  0
    3.8324   -1.0961   -1.5285 H   0  0  0  0  0  0  0  0  0  0  0  0
    3.7378   -3.3927    1.3488 H   0  0  0  0  0  0  0  0  0  0  0  0
    4.7506   -2.2900    0.3644 H   0  0  0  0  0  0  0  0  0  0  0  0
    3.4968   -1.6244    1.4825 H   0  0  0  0  0  0  0  0  0  0  0  0
    2.2573   -3.8069   -2.0946 H   0  0  0  0  0  0  0  0  0  0  0  0
    3.0852   -4.6366   -0.7384 H   0  0  0  0  0  0  0  0  0  0  0  0
    4.0087   -3.5325   -1.8062 H   0  0  0  0  0  0  0  0  0  0  0  0
    3.8311    1.1014   -1.5277 H   0  0  0  0  0  0  0  0  0  0  0  0
    2.1885    1.3713   -2.1594 H   0  0  0  0  0  0  0  0  0  0  0  0
    1.1532    1.9709    1.0788 H   0  0  0  0  0  0  0  0  0  0  0  0
    1.3164    3.7399    0.7863 H   0  0  0  0  0  0  0  0  0  0  0  0
    4.7471    2.2957    0.3663 H   0  0  0  0  0  0  0  0  0  0  0  0
    3.4938    1.6280    1.4836 H   0  0  0  0  0  0  0  0  0  0  0  0
    3.7325    3.3967    1.3508 H   0  0  0  0  0  0  0  0  0  0  0  0
    4.0046    3.5379   -1.8041 H   0  0  0  0  0  0  0  0  0  0  0  0
    2.2530    3.8103   -2.0932 H   0  0  0  0  0  0  0  0  0  0  0  0
    3.0793    4.6405   -0.7363 H   0  0  0  0  0  0  0  0  0  0  0  0
   -1.3712    3.7004    0.9559 H   0  0  0  0  0  0  0  0  0  0  0  0
   -1.1550    1.9266    1.1948 H   0  0  0  0  0  0  0  0  0  0  0  0
   -2.4823    1.3670   -1.9124 H   0  0  0  0  0  0  0  0  0  0  0  0
   -4.0968    1.1227   -1.1916 H   0  0  0  0  0  0  0  0  0  0  0  0
   -4.3014    3.5555   -1.3587 H   0  0  0  0  0  0  0  0  0  0  0  0
   -2.5833    3.8324   -1.8070 H   0  0  0  0  0  0  0  0  0  0  0  0
   -3.2726    4.6330   -0.3610 H   0  0  0  0  0  0  0  0  0  0  0  0
   -4.8394    2.2892    0.8388 H   0  0  0  0  0  0  0  0  0  0  0  0
   -3.5131    1.5582    1.8101 H   0  0  0  0  0  0  0  0  0  0  0  0
   -3.7087    3.3285    1.7648 H   0  0  0  0  0  0  0  0  0  0  0  0
   -4.0954   -1.1286   -1.1909 H   0  0  0  0  0  0  0  0  0  0  0  0
   -2.4806   -1.3710   -1.9118 H   0  0  0  0  0  0  0  0  0  0  0  0
   -1.1519   -1.9276    1.1952 H   0  0  0  0  0  0  0  0  0  0  0  0
   -1.3656   -3.7017    0.9568 H   0  0  0  0  0  0  0  0  0  0  0  0
   -4.8358   -2.2951    0.8404 H   0  0  0  0  0  0  0  0  0  0  0  0
   -3.7035   -3.3326    1.7664 H   0  0  0  0  0  0  0  0  0  0  0  0
   -3.5102   -1.5620    1.8111 H   0  0  0  0  0  0  0  0  0  0  0  0
   -2.5786   -3.8365   -1.8055 H   0  0  0  0  0  0  0  0  0  0  0  0
   -4.2969   -3.5617   -1.3566 H   0  0  0  0  0  0  0  0  0  0  0  0
   -3.2663   -4.6374   -0.3588 H   0  0  0  0  0  0  0  0  0  0  0  0
  1  5  1  0  0  0  0
  1 22  1  0  0  0  0
  2 12  1  0  0  0  0
  2 15  1  0  0  0  0
  3 25  1  0  0  0  0
  4 26  1  0  0  0  0
  5 28  1  0  0  0  0
  5 27  1  0  0  0  0
  6  5  1  0  0  0  0
  6  8  1  0  0  0  0
  7  3  1  0  0  0  0
  7  6  1  0  0  0  0
  8 31  1  0  0  0  0
  8 33  1  0  0  0  0
  9 35  1  0  0  0  0
  9  6  1  0  0  0  0
 10  3  1  0  0  0  0
 10 11  1  0  0  0  0
 11 12  1  0  0  0  0
 11 13  1  0  0  0  0
 12 40  1  0  0  0  0
 12 39  1  0  0  0  0
 13 43  1  0  0  0  0
 13 42  1  0  0  0  0
 14 46  1  0  0  0  0
 14 11  1  0  0  0  0
 15 47  1  0  0  0  0
 15 48  1  0  0  0  0
 16 15  1  0  0  0  0
 16 19  1  0  0  0  0
 17  4  1  0  0  0  0
 17 16  1  0  0  0  0
 18 53  1  0  0  0  0
 18 16  1  0  0  0  0
 19 56  1  0  0  0  0
 19 55  1  0  0  0  0
 20  4  1  0  0  0  0
 20 21  1  0  0  0  0
 21 22  1  0  0  0  0
 21 23  1  0  0  0  0
 22 60  1  0  0  0  0
 22 59  1  0  0  0  0
 23 62  1  0  0  0  0
 23 63  1  0  0  0  0
 24 66  1  0  0  0  0
 24 21  1  0  0  0  0
 29  7  1  0  0  0  0
 30  7  1  0  0  0  0
 32  8  1  0  0  0  0
 34  9  1  0  0  0  0
 36  9  1  0  0  0  0
 37 10  1  0  0  0  0
 38 10  1  0  0  0  0
 41 13  1  0  0  0  0
 44 14  1  0  0  0  0
 45 14  1  0  0  0  0
 49 17  1  0  0  0  0
 50 17  1  0  0  0  0
 51 18  1  0  0  0  0
 52 18  1  0  0  0  0
 54 19  1  0  0  0  0
 57 20  1  0  0  0  0
 58 20  1  0  0  0  0
 61 23  1  0  0  0  0
 64 24  1  0  0  0  0
 65 24  1  0  0  0  0
M  END
