1,2,7
 OpenBabel05122313063D

 52 53  0  0  0  0  0  0  0  0999 V2000
   -2.9515   -1.1832   -2.1737 S   0  0  0  0  0  1  0  0  0  0  0  0
   -2.8784    1.9157   -1.6687 S   0  0  0  0  0  1  0  0  0  0  0  0
    2.0742   -0.3340    1.4057 S   0  0  0  0  0  0  0  0  0  0  0  0
    2.0639   -1.7196    1.9257 O   0  0  0  0  0  0  0  0  0  0  0  0
    1.9581    0.8415    2.3006 O   0  0  0  0  0  0  0  0  0  0  0  0
   -2.1646   -1.4404    0.6811 N   0  0  0  0  0  0  0  0  0  0  0  0
   -1.7493    1.3005    0.9400 N   0  0  0  0  0  0  0  0  0  0  0  0
    0.8057   -0.2364    0.2988 N   0  0  0  0  0  0  0  0  0  0  0  0
   -3.0550   -2.7534   -1.2083 C   0  0  0  0  0  0  0  0  0  0  0  0
   -3.2198   -2.4138    0.2607 C   0  0  0  0  0  0  0  0  0  0  0  0
   -2.4969   -0.8027    1.9800 C   0  0  0  0  0  0  0  0  0  0  0  0
   -1.6438    0.4421    2.1597 C   0  0  0  0  0  0  0  0  0  0  0  0
   -2.8371    2.3129    1.0783 C   0  0  0  0  0  0  0  0  0  0  0  0
   -3.0596    3.0643   -0.2294 C   0  0  0  0  0  0  0  0  0  0  0  0
   -0.8198   -2.1097    0.7025 C   0  0  0  0  0  0  0  0  0  0  0  0
    0.2268   -1.4755   -0.2155 C   0  0  0  0  0  0  0  0  0  0  0  0
    0.4597    1.0745   -0.2460 C   0  0  0  0  0  0  0  0  0  0  0  0
   -0.4445    1.9499    0.6213 C   0  0  0  0  0  0  0  0  0  0  0  0
    3.5631   -0.1170    0.4331 C   0  0  0  0  0  0  0  0  0  0  0  0
    4.1455   -1.2362   -0.1867 C   0  0  0  0  0  0  0  0  0  0  0  0
    5.2687   -1.0528   -0.9992 C   0  0  0  0  0  0  0  0  0  0  0  0
    5.8258    0.2298   -1.2042 C   0  0  0  0  0  0  0  0  0  0  0  0
    5.2300    1.3287   -0.5529 C   0  0  0  0  0  0  0  0  0  0  0  0
    4.1045    1.1669    0.2674 C   0  0  0  0  0  0  0  0  0  0  0  0
    7.0258    0.4066   -2.0977 C   0  0  0  0  0  0  0  0  0  0  0  0
   -3.9297   -3.3438   -1.5510 H   0  0  0  0  0  0  0  0  0  0  0  0
   -2.1568   -3.3895   -1.3752 H   0  0  0  0  0  0  0  0  0  0  0  0
   -4.1992   -1.9183    0.4101 H   0  0  0  0  0  0  0  0  0  0  0  0
   -3.1762   -3.3179    0.9179 H   0  0  0  0  0  0  0  0  0  0  0  0
   -3.5725   -0.5376    1.9513 H   0  0  0  0  0  0  0  0  0  0  0  0
   -2.3498   -1.5081    2.8329 H   0  0  0  0  0  0  0  0  0  0  0  0
   -0.5819    0.1693    2.2955 H   0  0  0  0  0  0  0  0  0  0  0  0
   -1.9462    1.0073    3.0690 H   0  0  0  0  0  0  0  0  0  0  0  0
   -2.5962    3.0102    1.9192 H   0  0  0  0  0  0  0  0  0  0  0  0
   -3.7552    1.7560    1.3523 H   0  0  0  0  0  0  0  0  0  0  0  0
   -2.3519    3.9170   -0.3232 H   0  0  0  0  0  0  0  0  0  0  0  0
   -4.0784    3.5036   -0.2237 H   0  0  0  0  0  0  0  0  0  0  0  0
   -0.9538   -3.1648    0.3904 H   0  0  0  0  0  0  0  0  0  0  0  0
   -0.4246   -2.1347    1.7376 H   0  0  0  0  0  0  0  0  0  0  0  0
    1.0317   -2.2224   -0.3806 H   0  0  0  0  0  0  0  0  0  0  0  0
   -0.2465   -1.2549   -1.1970 H   0  0  0  0  0  0  0  0  0  0  0  0
   -0.0726    0.9037   -1.2059 H   0  0  0  0  0  0  0  0  0  0  0  0
    1.3861    1.6484   -0.4759 H   0  0  0  0  0  0  0  0  0  0  0  0
   -0.6534    2.8577    0.0269 H   0  0  0  0  0  0  0  0  0  0  0  0
    0.0685    2.2480    1.5600 H   0  0  0  0  0  0  0  0  0  0  0  0
    3.7290   -2.2375   -0.0059 H   0  0  0  0  0  0  0  0  0  0  0  0
    5.7339   -1.9271   -1.4813 H   0  0  0  0  0  0  0  0  0  0  0  0
    5.6625    2.3329   -0.6835 H   0  0  0  0  0  0  0  0  0  0  0  0
    3.6577    2.0177    0.8012 H   0  0  0  0  0  0  0  0  0  0  0  0
    7.4312    1.4348   -2.0424 H   0  0  0  0  0  0  0  0  0  0  0  0
    6.7634    0.2039   -3.1576 H   0  0  0  0  0  0  0  0  0  0  0  0
    7.8371   -0.3000   -1.8283 H   0  0  0  0  0  0  0  0  0  0  0  0
  1  9  1  0  0  0  0
  2 14  1  0  0  0  0
  3  4  2  0  0  0  0
  3  5  2  0  0  0  0
  6 15  1  0  0  0  0
  6 11  1  0  0  0  0
  7 13  1  0  0  0  0
  7 12  1  0  0  0  0
  8  3  1  0  0  0  0
  9 10  1  0  0  0  0
 10 28  1  0  0  0  0
 10  6  1  0  0  0  0
 10 29  1  0  0  0  0
 11 12  1  0  0  0  0
 11 31  1  0  0  0  0
 12 32  1  0  0  0  0
 12 33  1  0  0  0  0
 13 35  1  0  0  0  0
 13 34  1  0  0  0  0
 14 37  1  0  0  0  0
 14 13  1  0  0  0  0
 15 39  1  0  0  0  0
 16  8  1  0  0  0  0
 16 15  1  0  0  0  0
 17  8  1  0  0  0  0
 17 18  1  0  0  0  0
 18  7  1  0  0  0  0
 18 45  1  0  0  0  0
 19  3  1  0  0  0  0
 20 46  1  0  0  0  0
 20 19  2  0  0  0  0
 21 20  1  0  0  0  0
 22 21  2  0  0  0  0
 22 23  1  0  0  0  0
 23 24  2  0  0  0  0
 24 19  1  0  0  0  0
 24 49  1  0  0  0  0
 25 50  1  0  0  0  0
 25 52  1  0  0  0  0
 25 22  1  0  0  0  0
 26  9  1  0  0  0  0
 27  9  1  0  0  0  0
 30 11  1  0  0  0  0
 36 14  1  0  0  0  0
 38 15  1  0  0  0  0
 40 16  1  0  0  0  0
 41 16  1  0  0  0  0
 42 17  1  0  0  0  0
 43 17  1  0  0  0  0
 44 18  1  0  0  0  0
 47 21  1  0  0  0  0
 48 23  1  0  0  0  0
 51 25  1  0  0  0  0
M  END
