1,11,12,13
 OpenBabel05122313063D

 48 50  0  0  1  0  0  0  0  0999 V2000
    1.6453    1.0694   -0.4823 N   0  0  0  0  0  2  0  0  0  0  0  0
    2.7888    0.4320   -0.0609 N   0  0  0  0  0  2  0  0  0  0  0  0
    2.7385   -0.8622   -0.2659 C   0  0  2  0  0  3  0  0  0  0  0  0
    3.8131   -1.6705    0.0432 N   0  0  0  0  0  0  0  0  0  0  0  0
    5.0648   -1.3404    0.5300 C   0  0  0  0  0  0  0  0  0  0  0  0
    6.0633   -2.3494    0.7692 C   0  0  0  0  0  0  0  0  0  0  0  0
    7.1978   -1.7220    1.2431 C   0  0  1  0  0  3  0  0  0  0  0  0
    8.0545   -0.7405    1.6589 C   0  0  0  0  0  3  0  0  0  0  0  0
    6.8605   -0.1897    1.2996 C   0  0  1  0  0  3  0  0  0  0  0  0
    5.5580   -0.0332    0.8563 C   0  0  0  0  0  3  0  0  0  0  0  0
    1.3480   -1.6805   -0.9599 S   0  0  0  0  0  1  0  0  0  0  0  0
   -1.5378   -1.2459   -1.6334 S   0  0  0  0  0  1  0  0  0  0  0  0
   -1.4285    1.2102   -0.1552 N   0  0  0  0  0  2  0  0  0  0  0  0
   -2.6087    0.5468    0.1029 N   0  0  0  0  0  2  0  0  0  0  0  0
   -2.7466   -0.5906   -0.5403 C   0  0  1  0  0  3  0  0  0  0  0  0
   -3.8990   -1.3312   -0.4359 N   0  0  0  0  0  0  0  0  0  0  0  0
   -5.1003   -1.0962    0.2467 C   0  0  0  0  0  0  0  0  0  0  0  0
   -6.1132   -2.0783    0.1261 C   0  0  0  0  0  0  0  0  0  0  0  0
   -7.3390   -1.9200    0.7794 C   0  0  0  0  0  0  0  0  0  0  0  0
   -7.5837   -0.7816    1.5658 C   0  0  0  0  0  0  0  0  0  0  0  0
   -6.5801    0.1917    1.6853 C   0  0  0  0  0  0  0  0  0  0  0  0
   -5.3448    0.0491    1.0378 C   0  0  0  0  0  0  0  0  0  0  0  0
    3.0654    3.0636   -0.3986 C   0  0  0  0  0  0  0  0  0  0  0  0
    1.7695    2.3615   -0.6723 C   0  0  2  0  0  3  0  0  0  0  0  0
    0.5636    3.1205   -1.1400 C   0  0  0  0  0  0  0  0  0  0  0  0
   -0.3834    3.4487    0.0183 C   0  0  0  0  0  0  0  0  0  0  0  0
   -1.3783    2.3968    0.4148 C   0  0  1  0  0  3  0  0  0  0  0  0
   -2.4346    2.8251    1.3923 C   0  0  0  0  0  0  0  0  0  0  0  0
    3.6501   -2.6637   -0.1326 H   0  0  0  0  0  0  0  0  0  0  0  0
    5.9245   -3.4262    0.5958 H   0  0  0  0  0  0  0  0  0  0  0  0
    9.0673   -0.5347    2.0398 H   0  0  0  0  0  0  0  0  0  0  0  0
    4.9762    0.8875    0.7626 H   0  0  0  0  0  0  0  0  0  0  0  0
   -3.8581   -2.2122   -0.9515 H   0  0  0  0  0  0  0  0  0  0  0  0
   -5.9288   -2.9732   -0.4903 H   0  0  0  0  0  0  0  0  0  0  0  0
   -8.1117   -2.6963    0.6714 H   0  0  0  0  0  0  0  0  0  0  0  0
   -8.5479   -0.6569    2.0801 H   0  0  0  0  0  0  0  0  0  0  0  0
   -6.7568    1.0886    2.2990 H   0  0  0  0  0  0  0  0  0  0  0  0
   -4.5544    0.8022    1.1269 H   0  0  0  0  0  0  0  0  0  0  0  0
   -0.9975    4.3369   -0.2569 H   0  0  0  0  0  0  0  0  0  0  0  0
    0.1906    3.7801    0.9153 H   0  0  0  0  0  0  0  0  0  0  0  0
   -3.4061    2.9794    0.8744 H   0  0  0  0  0  0  0  0  0  0  0  0
   -2.1496    3.7698    1.8941 H   0  0  0  0  0  0  0  0  0  0  0  0
   -2.6137    2.0344    2.1474 H   0  0  0  0  0  0  0  0  0  0  0  0
    2.9798    4.1512   -0.5774 H   0  0  0  0  0  0  0  0  0  0  0  0
    3.8740    2.6489   -1.0370 H   0  0  0  0  0  0  0  0  0  0  0  0
    3.3951    2.8830    0.6457 H   0  0  0  0  0  0  0  0  0  0  0  0
    0.0155    2.5345   -1.9066 H   0  0  0  0  0  0  0  0  0  0  0  0
    0.8976    4.0638   -1.6131 H   0  0  0  0  0  0  0  0  0  0  0  0
  1  2  1  0  0  0  0
  3 11  1  6  0  0  0
  3  2  1  0  0  0  0
  3  4  1  0  0  0  0
  4  5  1  0  0  0  0
  5  6  2  0  0  0  0
  5 10  1  0  0  0  0
  7  6  1  6  0  0  0
  7  9  1  0  0  0  0
  7  8  1  0  0  0  0
  8 31  1  0  0  0  0
  9 10  1  6  0  0  0
  9  8  1  0  0  0  0
 13 14  1  0  0  0  0
 15 12  1  6  0  0  0
 15 16  1  0  0  0  0
 15 14  1  0  0  0  0
 16 17  1  0  0  0  0
 17 22  1  0  0  0  0
 18 17  2  0  0  0  0
 18 19  1  0  0  0  0
 19 20  2  0  0  0  0
 20 21  1  0  0  0  0
 20 36  1  0  0  0  0
 21 37  1  0  0  0  0
 22 38  1  0  0  0  0
 22 21  2  0  0  0  0
 23 46  1  0  0  0  0
 24  1  1  1  0  0  0
 24 23  1  0  0  0  0
 25 24  1  0  0  0  0
 25 26  1  0  0  0  0
 26 27  1  0  0  0  0
 26 40  1  0  0  0  0
 27 13  1  6  0  0  0
 27 28  1  0  0  0  0
 28 42  1  0  0  0  0
 28 43  1  0  0  0  0
 29  4  1  0  0  0  0
 30  6  1  0  0  0  0
 32 10  1  0  0  0  0
 33 16  1  0  0  0  0
 34 18  1  0  0  0  0
 35 19  1  0  0  0  0
 39 26  1  0  0  0  0
 41 28  1  0  0  0  0
 44 23  1  0  0  0  0
 45 23  1  0  0  0  0
 47 25  1  0  0  0  0
 48 25  1  0  0  0  0
M  END
