1,2,3,4
 OpenBabel05122313063D

 60 61  0  0  0  0  0  0  0  0999 V2000
    1.6530   -0.6916    1.1097 S   0  0  0  0  0  0  0  0  0  0  0  0
   -1.6530    0.6916    1.1098 S   0  0  0  0  0  0  0  0  0  0  0  0
    1.1579    0.7218   -1.7829 N   0  0  0  0  0  2  0  0  0  0  0  0
   -1.1576   -0.7214   -1.7831 N   0  0  0  0  0  2  0  0  0  0  0  0
    2.1681   -2.4776    0.6814 C   0  0  0  0  0  0  0  0  0  0  0  0
    2.4964   -2.5732   -0.8060 C   0  0  0  0  0  0  0  0  0  0  0  0
    3.3727   -1.9509   -1.0755 H   0  0  0  0  0  0  0  0  0  0  0  0
    1.6309   -2.2553   -1.4195 H   0  0  0  0  0  0  0  0  0  0  0  0
    2.7402   -3.6245   -1.0653 H   0  0  0  0  0  0  0  0  0  0  0  0
    3.3519   -2.8831    1.5565 C   0  0  0  0  0  0  0  0  0  0  0  0
    3.6037   -3.9460    1.3589 H   0  0  0  0  0  0  0  0  0  0  0  0
    3.1157   -2.7829    2.6340 H   0  0  0  0  0  0  0  0  0  0  0  0
    4.2553   -2.2827    1.3316 H   0  0  0  0  0  0  0  0  0  0  0  0
    0.9020   -3.2687    1.0293 C   0  0  0  0  0  0  0  0  0  0  0  0
    0.0364   -2.9214    0.4283 H   0  0  0  0  0  0  0  0  0  0  0  0
    0.6454   -3.1775    2.1035 H   0  0  0  0  0  0  0  0  0  0  0  0
    1.0690   -4.3425    0.8077 H   0  0  0  0  0  0  0  0  0  0  0  0
    3.0850    0.2999    0.6544 C   0  0  0  0  0  0  0  0  0  0  0  0
    4.0468    0.4470    1.6724 C   0  0  0  0  0  0  0  0  0  0  0  0
    3.8399    0.0020    2.6564 H   0  0  0  0  0  0  0  0  0  0  0  0
    5.2415    1.1502    1.4568 C   0  0  0  0  0  0  0  0  0  0  0  0
    5.9687    1.2554    2.2754 H   0  0  0  0  0  0  0  0  0  0  0  0
    5.5001    1.7091    0.1976 C   0  0  0  0  0  0  0  0  0  0  0  0
    6.4355    2.2559    0.0099 H   0  0  0  0  0  0  0  0  0  0  0  0
    4.5566    1.5657   -0.8243 C   0  0  0  0  0  0  0  0  0  0  0  0
    4.7595    2.0025   -1.8148 H   0  0  0  0  0  0  0  0  0  0  0  0
    3.3264    0.8908   -0.6249 C   0  0  0  0  0  0  0  0  0  0  0  0
    2.4447    0.8509   -1.7974 C   0  0  0  0  0  3  0  0  0  0  0  0
    2.9647    0.9654   -2.7749 H   0  0  0  0  0  0  0  0  0  0  0  0
    0.4345    0.6366   -3.0500 C   0  0  0  0  0  0  0  0  0  0  0  0
    1.1165    0.6354   -3.9298 H   0  0  0  0  0  0  0  0  0  0  0  0
   -0.2288    1.5253   -3.1305 H   0  0  0  0  0  0  0  0  0  0  0  0
   -0.4343   -0.6360   -3.0501 C   0  0  0  0  0  0  0  0  0  0  0  0
   -1.1162   -0.6346   -3.9299 H   0  0  0  0  0  0  0  0  0  0  0  0
    0.2290   -1.5247   -3.1308 H   0  0  0  0  0  0  0  0  0  0  0  0
   -2.4445   -0.8507   -1.7976 C   0  0  0  0  0  3  0  0  0  0  0  0
   -2.9645   -0.9650   -2.7751 H   0  0  0  0  0  0  0  0  0  0  0  0
   -3.3262   -0.8908   -0.6251 C   0  0  0  0  0  0  0  0  0  0  0  0
   -4.5563   -1.5658   -0.8246 C   0  0  0  0  0  0  0  0  0  0  0  0
   -4.7591   -2.0025   -1.8152 H   0  0  0  0  0  0  0  0  0  0  0  0
   -5.4998   -1.7095    0.1972 C   0  0  0  0  0  0  0  0  0  0  0  0
   -6.4351   -2.2565    0.0095 H   0  0  0  0  0  0  0  0  0  0  0  0
   -5.2412   -1.1509    1.4566 C   0  0  0  0  0  0  0  0  0  0  0  0
   -5.9684   -1.2563    2.2752 H   0  0  0  0  0  0  0  0  0  0  0  0
   -4.0466   -0.4475    1.6723 C   0  0  0  0  0  0  0  0  0  0  0  0
   -3.8398   -0.0026    2.6564 H   0  0  0  0  0  0  0  0  0  0  0  0
   -3.0849   -0.3001    0.6543 C   0  0  0  0  0  0  0  0  0  0  0  0
   -2.1685    2.4775    0.6817 C   0  0  0  0  0  0  0  0  0  0  0  0
   -2.4968    2.5732   -0.8057 C   0  0  0  0  0  0  0  0  0  0  0  0
   -3.3730    1.9508   -1.0752 H   0  0  0  0  0  0  0  0  0  0  0  0
   -1.6312    2.2556   -1.4193 H   0  0  0  0  0  0  0  0  0  0  0  0
   -2.7408    3.6245   -1.0648 H   0  0  0  0  0  0  0  0  0  0  0  0
   -3.3523    2.8827    1.5569 C   0  0  0  0  0  0  0  0  0  0  0  0
   -3.6044    3.9456    1.3593 H   0  0  0  0  0  0  0  0  0  0  0  0
   -3.1161    2.7824    2.6343 H   0  0  0  0  0  0  0  0  0  0  0  0
   -4.2556    2.2822    1.3319 H   0  0  0  0  0  0  0  0  0  0  0  0
   -0.9025    3.2688    1.0297 C   0  0  0  0  0  0  0  0  0  0  0  0
   -1.0697    4.3426    0.8082 H   0  0  0  0  0  0  0  0  0  0  0  0
   -0.0368    2.9217    0.4286 H   0  0  0  0  0  0  0  0  0  0  0  0
   -0.6458    3.1775    2.1039 H   0  0  0  0  0  0  0  0  0  0  0  0
  5 14  1  0  0  0  0
  5  1  1  0  0  0  0
  5 10  1  0  0  0  0
  6  5  1  0  0  0  0
  7  6  1  0  0  0  0
  8  6  1  0  0  0  0
  9  6  1  0  0  0  0
 10 12  1  0  0  0  0
 11 10  1  0  0  0  0
 13 10  1  0  0  0  0
 14 16  1  0  0  0  0
 15 14  1  0  0  0  0
 17 14  1  0  0  0  0
 18  1  1  0  0  0  0
 18 19  1  0  0  0  0
 19 20  1  0  0  0  0
 21 19  2  0  0  0  0
 21 22  1  0  0  0  0
 23 21  1  0  0  0  0
 24 23  1  0  0  0  0
 25 27  1  0  0  0  0
 25 23  2  0  0  0  0
 26 25  1  0  0  0  0
 27 18  2  0  0  0  0
 28  3  1  0  0  0  0
 28 27  1  0  0  0  0
 29 28  1  0  0  0  0
 30  3  1  0  0  0  0
 31 30  1  0  0  0  0
 32 30  1  0  0  0  0
 33 30  1  0  0  0  0
 33  4  1  0  0  0  0
 34 33  1  0  0  0  0
 35 33  1  0  0  0  0
 36  4  1  0  0  0  0
 36 38  1  0  0  0  0
 37 36  1  0  0  0  0
 38 47  1  0  0  0  0
 39 38  2  0  0  0  0
 39 41  1  0  0  0  0
 40 39  1  0  0  0  0
 41 43  2  0  0  0  0
 42 41  1  0  0  0  0
 43 45  1  0  0  0  0
 43 44  1  0  0  0  0
 45 46  1  0  0  0  0
 47  2  1  0  0  0  0
 47 45  2  0  0  0  0
 48 57  1  0  0  0  0
 48  2  1  0  0  0  0
 48 53  1  0  0  0  0
 49 48  1  0  0  0  0
 50 49  1  0  0  0  0
 51 49  1  0  0  0  0
 52 49  1  0  0  0  0
 53 55  1  0  0  0  0
 54 53  1  0  0  0  0
 56 53  1  0  0  0  0
 57 60  1  0  0  0  0
 58 57  1  0  0  0  0
 59 57  1  0  0  0  0
M  END
