1,2,3,4
 OpenBabel05122313063D

 70 72  0  0  1  0  0  0  0  0999 V2000
    1.6359   -1.6267   -0.1492 S   0  0  0  0  0  0  0  0  0  0  0  0
   -1.6359   -1.6268    0.1495 S   0  0  0  0  0  0  0  0  0  0  0  0
    1.3000    1.5539   -0.3077 N   0  0  0  0  0  2  0  0  0  0  0  0
   -1.3001    1.5539    0.3075 N   0  0  0  0  0  2  0  0  0  0  0  0
    2.0466   -2.2687   -1.9101 C   0  0  0  0  0  0  0  0  0  0  0  0
    0.7378   -2.9176   -2.3716 C   0  0  0  0  0  0  0  0  0  0  0  0
    0.9057   -3.3830   -3.3655 H   0  0  0  0  0  0  0  0  0  0  0  0
   -0.0676   -2.1642   -2.4697 H   0  0  0  0  0  0  0  0  0  0  0  0
    0.4124   -3.7125   -1.6704 H   0  0  0  0  0  0  0  0  0  0  0  0
    2.4700   -1.1066   -2.8049 C   0  0  0  0  0  0  0  0  0  0  0  0
    2.6754   -1.4933   -3.8262 H   0  0  0  0  0  0  0  0  0  0  0  0
    3.3996   -0.6303   -2.4336 H   0  0  0  0  0  0  0  0  0  0  0  0
    1.6634   -0.3508   -2.8716 H   0  0  0  0  0  0  0  0  0  0  0  0
    3.1526   -3.3194   -1.7911 C   0  0  0  0  0  0  0  0  0  0  0  0
    3.3075   -3.7787   -2.7902 H   0  0  0  0  0  0  0  0  0  0  0  0
    2.8770   -4.1276   -1.0841 H   0  0  0  0  0  0  0  0  0  0  0  0
    4.1181   -2.8800   -1.4743 H   0  0  0  0  0  0  0  0  0  0  0  0
    3.1968   -0.9006    0.3343 C   0  0  0  0  0  0  0  0  0  0  0  0
    4.1501   -1.7779    0.8805 C   0  0  0  0  0  0  0  0  0  0  0  0
    3.8631   -2.8272    1.0396 H   0  0  0  0  0  0  0  0  0  0  0  0
    5.4353   -1.3368    1.2251 C   0  0  0  0  0  0  0  0  0  0  0  0
    6.1631   -2.0423    1.6529 H   0  0  0  0  0  0  0  0  0  0  0  0
    5.7776    0.0093    1.0202 C   0  0  0  0  0  0  0  0  0  0  0  0
    6.7843    0.3739    1.2734 H   0  0  0  0  0  0  0  0  0  0  0  0
    4.8231    0.8946    0.5158 C   0  0  0  0  0  0  0  0  0  0  0  0
    5.0824    1.9577    0.3890 H   0  0  0  0  0  0  0  0  0  0  0  0
    3.5027    0.4828    0.1878 C   0  0  0  0  0  0  0  0  0  0  0  0
    2.6033    1.5602   -0.2034 C   0  0  0  0  0  3  0  0  0  0  0  0
    3.1225    2.5224   -0.3462 H   0  0  0  0  0  0  0  0  0  0  0  0
    0.5757    2.8264   -0.5217 C   0  0  2  0  0  0  0  0  0  0  0  0
    0.1007    2.7348   -1.5268 H   0  0  0  0  0  0  0  0  0  0  0  0
    1.4101    4.1084   -0.4525 C   0  0  0  0  0  0  0  0  0  0  0  0
    2.1655    4.1106   -1.2651 H   0  0  0  0  0  0  0  0  0  0  0  0
    1.9658    4.1321    0.5108 H   0  0  0  0  0  0  0  0  0  0  0  0
    0.5316    5.3602   -0.5497 C   0  0  0  0  0  0  0  0  0  0  0  0
    1.1657    6.2681   -0.4849 H   0  0  0  0  0  0  0  0  0  0  0  0
    0.0350    5.3922   -1.5448 H   0  0  0  0  0  0  0  0  0  0  0  0
   -0.5317    5.3601    0.5499 C   0  0  0  0  0  0  0  0  0  0  0  0
   -1.1658    6.2681    0.4851 H   0  0  0  0  0  0  0  0  0  0  0  0
   -0.0352    5.3920    1.5449 H   0  0  0  0  0  0  0  0  0  0  0  0
   -1.4103    4.1083    0.4524 C   0  0  0  0  0  0  0  0  0  0  0  0
   -2.1657    4.1104    1.2650 H   0  0  0  0  0  0  0  0  0  0  0  0
   -1.9660    4.1322   -0.5108 H   0  0  0  0  0  0  0  0  0  0  0  0
   -0.5759    2.8263    0.5215 C   0  0  1  0  0  0  0  0  0  0  0  0
   -0.1008    2.7347    1.5267 H   0  0  0  0  0  0  0  0  0  0  0  0
   -2.6034    1.5601    0.2029 C   0  0  0  0  0  3  0  0  0  0  0  0
   -3.1226    2.5224    0.3453 H   0  0  0  0  0  0  0  0  0  0  0  0
   -3.5027    0.4827   -0.1883 C   0  0  0  0  0  0  0  0  0  0  0  0
   -4.8230    0.8944   -0.5167 C   0  0  0  0  0  0  0  0  0  0  0  0
   -5.0823    1.9575   -0.3902 H   0  0  0  0  0  0  0  0  0  0  0  0
   -5.7774    0.0090   -1.0211 C   0  0  0  0  0  0  0  0  0  0  0  0
   -6.7841    0.3735   -1.2745 H   0  0  0  0  0  0  0  0  0  0  0  0
   -5.4351   -1.3372   -1.2255 C   0  0  0  0  0  0  0  0  0  0  0  0
   -6.1627   -2.0428   -1.6534 H   0  0  0  0  0  0  0  0  0  0  0  0
   -4.1500   -1.7782   -0.8806 C   0  0  0  0  0  0  0  0  0  0  0  0
   -3.8628   -2.8275   -1.0394 H   0  0  0  0  0  0  0  0  0  0  0  0
   -3.1967   -0.9008   -0.3344 C   0  0  0  0  0  0  0  0  0  0  0  0
   -2.0466   -2.2682    1.9106 C   0  0  0  0  0  0  0  0  0  0  0  0
   -0.7379   -2.9171    2.3723 C   0  0  0  0  0  0  0  0  0  0  0  0
   -0.9058   -3.3821    3.3663 H   0  0  0  0  0  0  0  0  0  0  0  0
    0.0675   -2.1637    2.4701 H   0  0  0  0  0  0  0  0  0  0  0  0
   -0.4126   -3.7122    1.6713 H   0  0  0  0  0  0  0  0  0  0  0  0
   -2.4699   -1.1058    2.8050 C   0  0  0  0  0  0  0  0  0  0  0  0
   -2.6754   -1.4922    3.8264 H   0  0  0  0  0  0  0  0  0  0  0  0
   -3.3995   -0.6295    2.4336 H   0  0  0  0  0  0  0  0  0  0  0  0
   -1.6633   -0.3501    2.8716 H   0  0  0  0  0  0  0  0  0  0  0  0
   -3.1527   -3.3188    1.7920 C   0  0  0  0  0  0  0  0  0  0  0  0
   -3.3077   -3.7778    2.7912 H   0  0  0  0  0  0  0  0  0  0  0  0
   -2.8773   -4.1272    1.0852 H   0  0  0  0  0  0  0  0  0  0  0  0
   -4.1183   -2.8795    1.4750 H   0  0  0  0  0  0  0  0  0  0  0  0
  1 18  1  0  0  0  0
  2 58  1  0  0  0  0
  3 28  1  0  0  0  0
  4 44  1  0  0  0  0
  5 14  1  0  0  0  0
  5  1  1  0  0  0  0
  6  5  1  0  0  0  0
  6  9  1  0  0  0  0
  7  6  1  0  0  0  0
  8  6  1  0  0  0  0
 10 12  1  0  0  0  0
 10  5  1  0  0  0  0
 11 10  1  0  0  0  0
 13 10  1  0  0  0  0
 14 17  1  0  0  0  0
 14 16  1  0  0  0  0
 15 14  1  0  0  0  0
 18 19  1  0  0  0  0
 19 20  1  0  0  0  0
 19 21  2  0  0  0  0
 21 22  1  0  0  0  0
 23 21  1  0  0  0  0
 23 24  1  0  0  0  0
 25 23  2  0  0  0  0
 26 25  1  0  0  0  0
 27 18  2  0  0  0  0
 27 25  1  0  0  0  0
 28 27  1  0  0  0  0
 29 28  1  0  0  0  0
 30 31  1  6  0  0  0
 30 32  1  0  0  0  0
 30  3  1  0  0  0  0
 30 44  1  0  0  0  0
 32 34  1  0  0  0  0
 33 32  1  0  0  0  0
 35 36  1  0  0  0  0
 35 32  1  0  0  0  0
 35 38  1  0  0  0  0
 37 35  1  0  0  0  0
 38 40  1  0  0  0  0
 39 38  1  0  0  0  0
 41 44  1  0  0  0  0
 41 38  1  0  0  0  0
 41 42  1  0  0  0  0
 43 41  1  0  0  0  0
 44 45  1  1  0  0  0
 46  4  1  0  0  0  0
 46 47  1  0  0  0  0
 48 46  1  0  0  0  0
 49 50  1  0  0  0  0
 49 48  2  0  0  0  0
 51 49  1  0  0  0  0
 52 51  1  0  0  0  0
 53 51  2  0  0  0  0
 53 55  1  0  0  0  0
 54 53  1  0  0  0  0
 55 57  2  0  0  0  0
 56 55  1  0  0  0  0
 57 48  1  0  0  0  0
 57  2  1  0  0  0  0
 58 59  1  0  0  0  0
 58 63  1  0  0  0  0
 59 61  1  0  0  0  0
 59 60  1  0  0  0  0
 62 59  1  0  0  0  0
 63 66  1  0  0  0  0
 63 64  1  0  0  0  0
 65 63  1  0  0  0  0
 67 58  1  0  0  0  0
 67 68  1  0  0  0  0
 69 67  1  0  0  0  0
 70 67  1  0  0  0  0
M  END
