1,2,3,9
 OpenBabel05122313063D

 32 34  0  0  1  0  0  0  0  0999 V2000
    0.0205   -2.6658    0.6328 S   0  0  0  0  0  0  0  0  0  0  0  0
    0.0296    2.6671    0.6254 S   0  0  0  0  0  0  0  0  0  0  0  0
    1.2704   -0.0025   -0.6026 N   0  0  0  0  0  2  0  0  0  0  0  0
    1.8767    1.1673   -0.9257 C   0  0  1  0  0  3  0  0  0  0  0  0
    3.1784    1.1934   -1.4476 C   0  0  0  0  0  0  0  0  0  0  0  0
    3.8553   -0.0104   -1.6762 C   0  0  0  0  0  0  0  0  0  0  0  0
    3.1716   -1.2101   -1.4462 C   0  0  0  0  0  0  0  0  0  0  0  0
    1.8700   -1.1761   -0.9246 C   0  0  0  0  0  0  0  0  0  0  0  0
   -1.4623    0.0017   -0.3609 N   0  0  0  0  0  2  0  0  0  0  0  0
   -1.9043   -1.1786   -0.8648 C   0  0  2  0  0  3  0  0  0  0  0  0
   -2.6803   -1.2064   -2.0348 C   0  0  0  0  0  0  0  0  0  0  0  0
   -3.0408   -0.0008   -2.6526 C   0  0  0  0  0  0  0  0  0  0  0  0
   -2.6739    1.2065   -2.0419 C   0  0  0  0  0  0  0  0  0  0  0  0
   -1.8981    1.1814   -0.8716 C   0  0  0  0  0  0  0  0  0  0  0  0
    1.0814   -2.4692   -0.8359 C   0  0  0  0  0  0  0  0  0  0  0  0
   -1.6582   -2.4175   -0.0472 C   0  0  0  0  0  0  0  0  0  0  0  0
   -1.6473    2.4239   -0.0607 C   0  0  0  0  0  0  0  0  0  0  0  0
    1.0957    2.4653   -0.8385 C   0  0  0  0  0  0  0  0  0  0  0  0
    3.6523    2.1616   -1.6662 H   0  0  0  0  0  0  0  0  0  0  0  0
    4.8932   -0.0135   -2.0403 H   0  0  0  0  0  0  0  0  0  0  0  0
    3.6400   -2.1812   -1.6638 H   0  0  0  0  0  0  0  0  0  0  0  0
   -3.0059   -2.1745   -2.4420 H   0  0  0  0  0  0  0  0  0  0  0  0
   -3.6297   -0.0020   -3.5816 H   0  0  0  0  0  0  0  0  0  0  0  0
   -2.9944    2.1738   -2.4547 H   0  0  0  0  0  0  0  0  0  0  0  0
    0.4338   -2.5480   -1.7355 H   0  0  0  0  0  0  0  0  0  0  0  0
    1.7807   -3.3265   -0.8724 H   0  0  0  0  0  0  0  0  0  0  0  0
   -2.2481   -2.2900    0.8907 H   0  0  0  0  0  0  0  0  0  0  0  0
   -2.0145   -3.3172   -0.5870 H   0  0  0  0  0  0  0  0  0  0  0  0
   -1.9963    3.3224   -0.6071 H   0  0  0  0  0  0  0  0  0  0  0  0
   -2.2419    2.3058    0.8755 H   0  0  0  0  0  0  0  0  0  0  0  0
    1.8006    3.3182   -0.8701 H   0  0  0  0  0  0  0  0  0  0  0  0
    0.4531    2.5498   -1.7411 H   0  0  0  0  0  0  0  0  0  0  0  0
  4  5  1  6  0  0  0
  4 18  1  0  0  0  0
  4  3  1  0  0  0  0
  6  5  2  0  0  0  0
  6  7  1  0  0  0  0
  7  8  2  0  0  0  0
  8 15  1  0  0  0  0
  8  3  1  0  0  0  0
 10 11  1  1  0  0  0
 10  9  1  0  0  0  0
 10 16  1  0  0  0  0
 12 13  1  0  0  0  0
 12 11  2  0  0  0  0
 13 14  2  0  0  0  0
 14  9  1  0  0  0  0
 14 17  1  0  0  0  0
 15  1  1  0  0  0  0
 16  1  1  0  0  0  0
 16 27  1  0  0  0  0
 17  2  1  0  0  0  0
 17 30  1  0  0  0  0
 18  2  1  0  0  0  0
 19  5  1  0  0  0  0
 20  6  1  0  0  0  0
 21  7  1  0  0  0  0
 22 11  1  0  0  0  0
 23 12  1  0  0  0  0
 24 13  1  0  0  0  0
 25 15  1  0  0  0  0
 26 15  1  0  0  0  0
 28 16  1  0  0  0  0
 29 17  1  0  0  0  0
 31 18  1  0  0  0  0
 32 18  1  0  0  0  0
M  END
