1,2,4,5
 OpenBabel05122313063D

 42 41  0  0  0  0  0  0  0  0999 V2000
   -1.3864   -1.4991   -0.2779 S   0  0  0  0  0  0  0  0  0  0  0  0
    1.8833   -1.1769   -0.4238 S   0  0  0  0  0  0  0  0  0  0  0  0
   -3.4917    1.7738    0.3131 O   0  0  0  0  0  0  0  0  0  0  0  0
   -1.2749    1.2716   -0.0008 N   0  0  0  0  0  2  0  0  0  0  0  0
    1.2694    1.6323    0.0722 N   0  0  0  0  0  0  0  0  0  0  0  0
   -1.6527   -1.4332   -2.0819 C   0  0  0  0  0  0  0  0  0  0  0  0
   -2.8550   -0.5590    0.4134 C   0  0  0  0  0  0  0  0  0  0  0  0
   -4.1626   -0.9824   -0.2435 C   0  0  0  0  0  0  0  0  0  0  0  0
   -2.8474   -0.8642    1.9199 C   0  0  0  0  0  0  0  0  0  0  0  0
   -2.5823    0.9510    0.2123 C   0  0  0  0  0  0  0  0  0  0  0  0
   -0.8997    2.6872   -0.0166 C   0  0  0  0  0  0  0  0  0  0  0  0
    0.5139    2.7457   -0.5747 C   0  0  0  0  0  0  0  0  0  0  0  0
    2.6354    1.3828   -0.4380 C   0  0  0  0  0  0  0  0  0  0  0  0
    3.2014    0.0721    0.1328 C   0  0  0  0  0  0  0  0  0  0  0  0
    4.5309   -0.2907   -0.5291 C   0  0  0  0  0  0  0  0  0  0  0  0
    3.3154    0.1123    1.6571 C   0  0  0  0  0  0  0  0  0  0  0  0
    1.9735   -2.5471    0.7716 C   0  0  0  0  0  0  0  0  0  0  0  0
   -1.8935   -0.4000   -2.3941 H   0  0  0  0  0  0  0  0  0  0  0  0
   -2.4631   -2.1338   -2.3565 H   0  0  0  0  0  0  0  0  0  0  0  0
   -0.7068   -1.7597   -2.5533 H   0  0  0  0  0  0  0  0  0  0  0  0
   -1.8761   -0.5947    2.3817 H   0  0  0  0  0  0  0  0  0  0  0  0
   -3.0615   -1.9327    2.1177 H   0  0  0  0  0  0  0  0  0  0  0  0
   -3.6338   -0.2503    2.4017 H   0  0  0  0  0  0  0  0  0  0  0  0
   -4.1804   -0.7789   -1.3306 H   0  0  0  0  0  0  0  0  0  0  0  0
   -4.9654   -0.3653    0.2075 H   0  0  0  0  0  0  0  0  0  0  0  0
   -4.3871   -2.0514   -0.0607 H   0  0  0  0  0  0  0  0  0  0  0  0
   -0.9406    3.1211    1.0107 H   0  0  0  0  0  0  0  0  0  0  0  0
   -1.6051    3.2856   -0.6296 H   0  0  0  0  0  0  0  0  0  0  0  0
    0.5144    2.5489   -1.6658 H   0  0  0  0  0  0  0  0  0  0  0  0
    1.0116    3.7228   -0.3953 H   0  0  0  0  0  0  0  0  0  0  0  0
    1.3236    1.8328    1.0851 H   0  0  0  0  0  0  0  0  0  0  0  0
    3.3164    2.2251   -0.1830 H   0  0  0  0  0  0  0  0  0  0  0  0
    2.5794    1.3263   -1.5446 H   0  0  0  0  0  0  0  0  0  0  0  0
    5.3061    0.4543   -0.2556 H   0  0  0  0  0  0  0  0  0  0  0  0
    4.4462   -0.3176   -1.6327 H   0  0  0  0  0  0  0  0  0  0  0  0
    4.8895   -1.2800   -0.1836 H   0  0  0  0  0  0  0  0  0  0  0  0
    3.9791    0.9514    1.9524 H   0  0  0  0  0  0  0  0  0  0  0  0
    3.7715   -0.8139    2.0551 H   0  0  0  0  0  0  0  0  0  0  0  0
    2.3356    0.2471    2.1590 H   0  0  0  0  0  0  0  0  0  0  0  0
    2.9495   -3.0590    0.6735 H   0  0  0  0  0  0  0  0  0  0  0  0
    1.1657   -3.2437    0.4761 H   0  0  0  0  0  0  0  0  0  0  0  0
    1.8023   -2.2046    1.8077 H   0  0  0  0  0  0  0  0  0  0  0  0
  1  7  1  0  0  0  0
  2 14  1  0  0  0  0
  2 17  1  0  0  0  0
  4 10  1  0  0  0  0
  5 31  1  0  0  0  0
  6  1  1  0  0  0  0
  7  9  1  0  0  0  0
  8 26  1  0  0  0  0
  8 25  1  0  0  0  0
  8  7  1  0  0  0  0
  9 22  1  0  0  0  0
  9 21  1  0  0  0  0
  9 23  1  0  0  0  0
 10  3  2  0  0  0  0
 10  7  1  0  0  0  0
 11  4  1  0  0  0  0
 11 27  1  0  0  0  0
 12 30  1  0  0  0  0
 12 11  1  0  0  0  0
 12  5  1  0  0  0  0
 13 32  1  0  0  0  0
 13  5  1  0  0  0  0
 13 14  1  0  0  0  0
 14 16  1  0  0  0  0
 15 34  1  0  0  0  0
 15 36  1  0  0  0  0
 15 14  1  0  0  0  0
 16 37  1  0  0  0  0
 16 38  1  0  0  0  0
 16 39  1  0  0  0  0
 17 42  1  0  0  0  0
 18  6  1  0  0  0  0
 19  6  1  0  0  0  0
 20  6  1  0  0  0  0
 24  8  1  0  0  0  0
 28 11  1  0  0  0  0
 29 12  1  0  0  0  0
 33 13  1  0  0  0  0
 35 15  1  0  0  0  0
 40 17  1  0  0  0  0
 41 17  1  0  0  0  0
M  END
