1,2,3,4
 OpenBabel05122313063D

 35 36  0  0  0  0  0  0  0  0999 V2000
   -1.5235   -1.8310    0.4043 S   0  0  0  0  0  1  0  0  0  0  0  0
    1.5235   -1.8310    0.4044 S   0  0  0  0  0  1  0  0  0  0  0  0
   -1.4308    1.0452   -0.2221 N   0  0  0  0  0  0  0  0  0  0  0  0
    1.4308    1.0452   -0.2221 N   0  0  0  0  0  0  0  0  0  0  0  0
   -2.9369   -0.8759   -0.0030 C   0  0  0  0  0  0  0  0  0  0  0  0
   -4.2458   -1.4173   -0.0408 C   0  0  0  0  0  0  0  0  0  0  0  0
   -4.3892   -2.4775    0.2164 H   0  0  0  0  0  0  0  0  0  0  0  0
   -5.3327   -0.6240   -0.4230 C   0  0  0  0  0  0  0  0  0  0  0  0
   -6.3390   -1.0693   -0.4576 H   0  0  0  0  0  0  0  0  0  0  0  0
   -5.1547    0.7276   -0.7768 C   0  0  0  0  0  0  0  0  0  0  0  0
   -6.0100    1.3424   -1.0918 H   0  0  0  0  0  0  0  0  0  0  0  0
   -3.8671    1.2825   -0.7234 C   0  0  0  0  0  0  0  0  0  0  0  0
   -3.7073    2.3407   -0.9901 H   0  0  0  0  0  0  0  0  0  0  0  0
   -2.7801    0.4865   -0.3375 C   0  0  0  0  0  0  0  0  0  0  0  0
   -1.2992    1.9585    0.9549 C   0  0  0  0  0  0  0  0  0  0  0  0
   -1.3651    1.3238    1.8611 H   0  0  0  0  0  0  0  0  0  0  0  0
   -2.1631    2.6592    0.9781 H   0  0  0  0  0  0  0  0  0  0  0  0
    0.0000    2.7591    0.9223 C   0  0  0  0  0  0  0  0  0  0  0  0
    0.0000    3.4506    1.7895 H   0  0  0  0  0  0  0  0  0  0  0  0
   -0.0000    3.4162    0.0202 H   0  0  0  0  0  0  0  0  0  0  0  0
    1.2992    1.9586    0.9549 C   0  0  0  0  0  0  0  0  0  0  0  0
    2.1631    2.6592    0.9780 H   0  0  0  0  0  0  0  0  0  0  0  0
    1.3652    1.3239    1.8611 H   0  0  0  0  0  0  0  0  0  0  0  0
    2.7801    0.4865   -0.3375 C   0  0  0  0  0  0  0  0  0  0  0  0
    3.8671    1.2825   -0.7235 C   0  0  0  0  0  0  0  0  0  0  0  0
    3.7072    2.3407   -0.9902 H   0  0  0  0  0  0  0  0  0  0  0  0
    5.1547    0.7275   -0.7769 C   0  0  0  0  0  0  0  0  0  0  0  0
    6.0100    1.3423   -1.0920 H   0  0  0  0  0  0  0  0  0  0  0  0
    5.3327   -0.6240   -0.4230 C   0  0  0  0  0  0  0  0  0  0  0  0
    6.3389   -1.0693   -0.4576 H   0  0  0  0  0  0  0  0  0  0  0  0
    4.2458   -1.4173   -0.0408 C   0  0  0  0  0  0  0  0  0  0  0  0
    4.3892   -2.4775    0.2165 H   0  0  0  0  0  0  0  0  0  0  0  0
    2.9369   -0.8759   -0.0029 C   0  0  0  0  0  0  0  0  0  0  0  0
   -1.2557    1.6061   -1.0718 H   0  0  0  0  0  0  0  0  0  0  0  0
    1.2557    1.6061   -1.0719 H   0  0  0  0  0  0  0  0  0  0  0  0
  3 15  1  0  0  0  0
  4 21  1  0  0  0  0
  5  1  1  0  0  0  0
  6  5  1  0  0  0  0
  6  7  1  0  0  0  0
  8  6  2  0  0  0  0
  9  8  1  0  0  0  0
 10 12  2  0  0  0  0
 10  8  1  0  0  0  0
 11 10  1  0  0  0  0
 12 14  1  0  0  0  0
 13 12  1  0  0  0  0
 14  3  1  0  0  0  0
 14  5  2  0  0  0  0
 15 17  1  0  0  0  0
 15 16  1  0  0  0  0
 18 21  1  0  0  0  0
 18 15  1  0  0  0  0
 18 19  1  0  0  0  0
 20 18  1  0  0  0  0
 21 22  1  0  0  0  0
 21 23  1  0  0  0  0
 24  4  1  0  0  0  0
 24 33  1  0  0  0  0
 25 24  2  0  0  0  0
 26 25  1  0  0  0  0
 27 25  1  0  0  0  0
 27 29  2  0  0  0  0
 28 27  1  0  0  0  0
 29 31  1  0  0  0  0
 30 29  1  0  0  0  0
 31 33  2  0  0  0  0
 31 32  1  0  0  0  0
 33  2  1  0  0  0  0
 34  3  1  0  0  0  0
 35  4  1  0  0  0  0
M  END
