1,2,3,4
 OpenBabel05122313063D

 34 35  0  0  1  0  0  0  0  0999 V2000
   -1.5732   -1.6210   -0.1484 S   0  0  0  0  0  1  0  0  0  0  0  0
    1.5733   -1.6211    0.1487 S   0  0  0  0  0  1  0  0  0  0  0  0
    1.3419    1.5850    0.1687 N   0  0  0  0  0  2  0  0  0  0  0  0
   -1.3419    1.5850   -0.1685 N   0  0  0  0  0  2  0  0  0  0  0  0
    0.6519    2.8607    0.3946 C   0  0  0  0  0  0  0  0  0  0  0  0
    0.4270    2.9519    1.4800 H   0  0  0  0  0  0  0  0  0  0  0  0
    1.2927    3.7190    0.1002 H   0  0  0  0  0  0  0  0  0  0  0  0
   -0.6518    2.8608   -0.3942 C   0  0  0  0  0  0  0  0  0  0  0  0
   -1.2926    3.7189   -0.0997 H   0  0  0  0  0  0  0  0  0  0  0  0
   -0.4270    2.9521   -1.4796 H   0  0  0  0  0  0  0  0  0  0  0  0
   -2.6502    1.5702   -0.1515 C   0  0  0  0  0  0  0  0  0  0  0  0
   -3.1509    2.5560   -0.2370 H   0  0  0  0  0  0  0  0  0  0  0  0
   -3.5462    0.4493   -0.0445 C   0  0  0  0  0  0  0  0  0  0  0  0
   -3.1704   -0.9402   -0.0385 C   0  0  1  0  0  3  0  0  0  0  0  0
   -4.2176   -1.9048    0.0399 C   0  0  0  0  0  0  0  0  0  0  0  0
   -3.9351   -2.9685    0.0438 H   0  0  0  0  0  0  0  0  0  0  0  0
   -5.5565   -1.5383    0.1153 C   0  0  0  0  0  0  0  0  0  0  0  0
   -6.3281   -2.3211    0.1779 H   0  0  0  0  0  0  0  0  0  0  0  0
   -5.9288   -0.1738    0.1134 C   0  0  0  0  0  0  0  0  0  0  0  0
   -6.9866    0.1200    0.1730 H   0  0  0  0  0  0  0  0  0  0  0  0
   -4.9323    0.7877    0.0308 C   0  0  0  0  0  0  0  0  0  0  0  0
   -5.2025    1.8560    0.0206 H   0  0  0  0  0  0  0  0  0  0  0  0
    2.6502    1.5702    0.1513 C   0  0  0  0  0  0  0  0  0  0  0  0
    3.1510    2.5560    0.2365 H   0  0  0  0  0  0  0  0  0  0  0  0
    3.5462    0.4493    0.0441 C   0  0  0  0  0  0  0  0  0  0  0  0
    3.1704   -0.9402    0.0384 C   0  0  0  0  0  0  0  0  0  0  0  0
    4.2176   -1.9048   -0.0400 C   0  0  0  0  0  0  0  0  0  0  0  0
    3.9352   -2.9685   -0.0436 H   0  0  0  0  0  0  0  0  0  0  0  0
    5.5565   -1.5383   -0.1157 C   0  0  0  0  0  0  0  0  0  0  0  0
    6.3281   -2.3211   -0.1784 H   0  0  0  0  0  0  0  0  0  0  0  0
    5.9288   -0.1738   -0.1142 C   0  0  0  0  0  0  0  0  0  0  0  0
    6.9865    0.1200   -0.1741 H   0  0  0  0  0  0  0  0  0  0  0  0
    4.9322    0.7878   -0.0316 C   0  0  0  0  0  3  0  0  0  0  0  0
    5.2025    1.8560   -0.0216 H   0  0  0  0  0  0  0  0  0  0  0  0
  3  5  1  0  0  0  0
  4 11  1  0  0  0  0
  5  6  1  0  0  0  0
  7  5  1  0  0  0  0
  8  4  1  0  0  0  0
  8  9  1  0  0  0  0
  8  5  1  0  0  0  0
 10  8  1  0  0  0  0
 11 13  2  0  0  0  0
 12 11  1  0  0  0  0
 13 14  1  0  0  0  0
 13 21  1  0  0  0  0
 14  1  1  6  0  0  0
 14 15  1  0  0  0  0
 15 16  1  0  0  0  0
 15 17  2  0  0  0  0
 17 18  1  0  0  0  0
 19 17  1  0  0  0  0
 19 20  1  0  0  0  0
 21 19  2  0  0  0  0
 22 21  1  0  0  0  0
 23  3  1  0  0  0  0
 23 24  1  0  0  0  0
 25 23  2  0  0  0  0
 26 25  1  0  0  0  0
 26  2  1  0  0  0  0
 27 26  2  0  0  0  0
 28 27  1  0  0  0  0
 29 31  2  0  0  0  0
 29 27  1  0  0  0  0
 30 29  1  0  0  0  0
 31 33  1  0  0  0  0
 32 31  1  0  0  0  0
 33 34  1  0  0  0  0
 33 25  1  0  0  0  0
M  END
