1,5,37,40
 OpenBabel05122313063D

 56 57  0  0  1  0  0  0  0  0999 V2000
    0.2647    2.4867    0.5079 S   0  0  0  0  0  1  0  0  0  0  0  0
    1.9259    1.9195    0.2366 C   0  0  2  0  0  3  0  0  0  0  0  0
    2.3178    0.7149    0.6235 N   0  0  0  0  0  2  0  0  0  0  0  0
    1.6842   -0.4437    0.5898 C   0  0  1  0  0  3  0  0  0  0  0  0
    0.5670   -0.6831   -0.1862 N   0  0  0  0  0  2  0  0  0  0  0  0
    2.2264   -1.5363    1.4423 C   0  0  0  0  0  0  0  0  0  0  0  0
    1.3988   -2.5990    1.8697 C   0  0  0  0  0  0  0  0  0  0  0  0
    0.3440   -2.6195    1.5610 H   0  0  0  0  0  0  0  0  0  0  0  0
    1.9073   -3.6064    2.6982 C   0  0  0  0  0  0  0  0  0  0  0  0
    1.2485   -4.4243    3.0273 H   0  0  0  0  0  0  0  0  0  0  0  0
    3.2482   -3.5709    3.1153 C   0  0  0  0  0  0  0  0  0  0  0  0
    3.6470   -4.3653    3.7644 H   0  0  0  0  0  0  0  0  0  0  0  0
    4.0753   -2.5114    2.7059 C   0  0  0  0  0  0  0  0  0  0  0  0
    5.1258   -2.4744    3.0327 H   0  0  0  0  0  0  0  0  0  0  0  0
    3.5682   -1.5003    1.8811 C   0  0  0  0  0  0  0  0  0  0  0  0
    4.2042   -0.6647    1.5559 H   0  0  0  0  0  0  0  0  0  0  0  0
    2.8429    2.7631   -0.3050 N   0  0  0  0  0  0  0  0  0  0  0  0
    4.1893    2.2689   -0.6042 C   0  0  0  0  0  0  0  0  0  0  0  0
    4.4826    1.5778    0.2116 H   0  0  0  0  0  0  0  0  0  0  0  0
    4.8783    3.1375   -0.5695 H   0  0  0  0  0  0  0  0  0  0  0  0
    4.2723    1.5592   -1.9556 C   0  0  0  0  0  0  0  0  0  0  0  0
    5.3054    1.2053   -2.1467 H   0  0  0  0  0  0  0  0  0  0  0  0
    3.9811    2.2338   -2.7860 H   0  0  0  0  0  0  0  0  0  0  0  0
    3.5953    0.6820   -1.9771 H   0  0  0  0  0  0  0  0  0  0  0  0
    2.5212    4.1470   -0.6532 C   0  0  0  0  0  0  0  0  0  0  0  0
    1.4565    4.1776   -0.9627 H   0  0  0  0  0  0  0  0  0  0  0  0
    3.1330    4.4139   -1.5399 H   0  0  0  0  0  0  0  0  0  0  0  0
    2.7635    5.1270    0.4942 C   0  0  0  0  0  0  0  0  0  0  0  0
    2.5384    6.1631    0.1704 H   0  0  0  0  0  0  0  0  0  0  0  0
    3.8164    5.0978    0.8423 H   0  0  0  0  0  0  0  0  0  0  0  0
    2.1053    4.8843    1.3520 H   0  0  0  0  0  0  0  0  0  0  0  0
   -1.9469   -2.2575   -0.5865 C   0  0  2  0  0  3  0  0  0  0  0  0
   -2.9828   -3.3355   -0.4174 C   0  0  0  0  0  0  0  0  0  0  0  0
   -3.3774   -3.2977    0.6164 H   0  0  0  0  0  0  0  0  0  0  0  0
   -2.5786   -4.3398   -0.6254 H   0  0  0  0  0  0  0  0  0  0  0  0
   -3.8606   -3.1423   -1.0695 H   0  0  0  0  0  0  0  0  0  0  0  0
   -2.2513   -1.0348   -0.1503 N   0  0  0  0  0  2  0  0  0  0  0  0
   -3.4909   -0.9173    0.4005 N   0  0  0  0  0  0  0  0  0  0  0  0
   -3.8559    0.2974    0.7761 C   0  0  0  0  0  0  0  0  0  0  0  0
   -2.8624    1.7432    0.6157 S   0  0  0  0  0  1  0  0  0  0  0  0
   -5.0880    0.4203    1.3371 N   0  0  0  0  0  0  0  0  0  0  0  0
   -5.6376   -0.4406    1.3522 H   0  0  0  0  0  0  0  0  0  0  0  0
   -5.7062    1.6699    1.7171 C   0  0  0  0  0  0  0  0  0  0  0  0
   -6.5974    1.4574    2.3371 H   0  0  0  0  0  0  0  0  0  0  0  0
   -6.0204    2.2779    0.8391 H   0  0  0  0  0  0  0  0  0  0  0  0
   -5.0015    2.2860    2.3126 H   0  0  0  0  0  0  0  0  0  0  0  0
    0.5451   -1.8452   -0.9713 C   0  0  0  0  0  0  0  0  0  0  0  0
   -0.6672   -2.5642   -1.2265 C   0  0  0  0  0  0  0  0  0  0  0  0
   -0.5946   -3.6816   -2.1018 C   0  0  0  0  0  0  0  0  0  0  0  0
   -1.5174   -4.2269   -2.3414 H   0  0  0  0  0  0  0  0  0  0  0  0
    0.6002   -4.0963   -2.6912 C   0  0  0  0  0  0  0  0  0  0  0  0
    0.6042   -4.9558   -3.3773 H   0  0  0  0  0  0  0  0  0  0  0  0
    1.7873   -3.3988   -2.4095 C   0  0  0  0  0  0  0  0  0  0  0  0
    2.7394   -3.7060   -2.8677 H   0  0  0  0  0  0  0  0  0  0  0  0
    1.7505   -2.2887   -1.5649 C   0  0  0  0  0  0  0  0  0  0  0  0
    2.6671   -1.7151   -1.3657 H   0  0  0  0  0  0  0  0  0  0  0  0
  2  1  1  1  0  0  0
  2  3  1  0  0  0  0
  4  5  1  6  0  0  0
  4  3  1  0  0  0  0
  4  6  1  0  0  0  0
  6  7  2  0  0  0  0
  6 15  1  0  0  0  0
  7  9  1  0  0  0  0
  8  7  1  0  0  0  0
  9 10  1  0  0  0  0
  9 11  2  0  0  0  0
 11 12  1  0  0  0  0
 13 14  1  0  0  0  0
 13 11  1  0  0  0  0
 15 13  2  0  0  0  0
 16 15  1  0  0  0  0
 17  2  1  0  0  0  0
 18 20  1  0  0  0  0
 18 17  1  0  0  0  0
 18 19  1  0  0  0  0
 21 18  1  0  0  0  0
 22 21  1  0  0  0  0
 23 21  1  0  0  0  0
 24 21  1  0  0  0  0
 25 17  1  0  0  0  0
 25 28  1  0  0  0  0
 26 25  1  0  0  0  0
 27 25  1  0  0  0  0
 28 30  1  0  0  0  0
 28 31  1  0  0  0  0
 29 28  1  0  0  0  0
 32 33  1  0  0  0  0
 32 37  1  6  0  0  0
 33 34  1  0  0  0  0
 35 33  1  0  0  0  0
 36 33  1  0  0  0  0
 37 38  1  0  0  0  0
 38 39  2  0  0  0  0
 39 41  1  0  0  0  0
 40 39  1  0  0  0  0
 41 42  1  0  0  0  0
 41 43  1  0  0  0  0
 43 46  1  0  0  0  0
 43 44  1  0  0  0  0
 45 43  1  0  0  0  0
 47  5  1  0  0  0  0
 48 47  1  0  0  0  0
 48 32  1  0  0  0  0
 49 48  2  0  0  0  0
 50 49  1  0  0  0  0
 51 53  2  0  0  0  0
 51 49  1  0  0  0  0
 52 51  1  0  0  0  0
 53 55  1  0  0  0  0
 54 53  1  0  0  0  0
 55 56  1  0  0  0  0
 55 47  2  0  0  0  0
M  END
