1,2,3,4
 OpenBabel05122313063D

 37 38  0  0  0  0  0  0  0  0999 V2000
   -1.4220   -1.5734    0.3589 S   0  0  0  0  0  1  0  0  0  0  0  0
    1.4221   -1.5732   -0.3596 S   0  0  0  0  0  1  0  0  0  0  0  0
   -1.2652    1.3341   -0.5753 N   0  0  0  0  0  2  0  0  0  0  0  0
    1.2651    1.3342    0.5752 N   0  0  0  0  0  2  0  0  0  0  0  0
   -3.0617   -1.0302    0.1882 C   0  0  0  0  0  0  0  0  0  0  0  0
   -4.0751   -1.9725    0.5254 C   0  0  0  0  0  0  0  0  0  0  0  0
   -3.7612   -2.9704    0.8668 H   0  0  0  0  0  0  0  0  0  0  0  0
   -5.4273   -1.6562    0.4317 C   0  0  0  0  0  0  0  0  0  0  0  0
   -6.1788   -2.4129    0.7055 H   0  0  0  0  0  0  0  0  0  0  0  0
   -5.8400   -0.3814   -0.0214 C   0  0  0  0  0  0  0  0  0  0  0  0
   -6.9085   -0.1358   -0.1042 H   0  0  0  0  0  0  0  0  0  0  0  0
   -4.8714    0.5515   -0.3691 C   0  0  0  0  0  0  0  0  0  0  0  0
   -5.1710    1.5482   -0.7317 H   0  0  0  0  0  0  0  0  0  0  0  0
   -3.4788    0.2650   -0.2658 C   0  0  0  0  0  0  0  0  0  0  0  0
   -2.5727    1.3027   -0.6719 C   0  0  0  0  0  3  0  0  0  0  0  0
   -3.0568    2.1839   -1.1425 H   0  0  0  0  0  0  0  0  0  0  0  0
   -0.5991    2.5255   -1.1169 C   0  0  0  0  0  0  0  0  0  0  0  0
   -1.3081    3.1238   -1.7290 H   0  0  0  0  0  0  0  0  0  0  0  0
    0.2088    2.1810   -1.7937 H   0  0  0  0  0  0  0  0  0  0  0  0
   -0.0001    3.3890   -0.0002 C   0  0  0  0  0  0  0  0  0  0  0  0
    0.7774    4.0470   -0.4407 H   0  0  0  0  0  0  0  0  0  0  0  0
   -0.7775    4.0470    0.4403 H   0  0  0  0  0  0  0  0  0  0  0  0
    0.5989    2.5256    1.1167 C   0  0  0  0  0  0  0  0  0  0  0  0
   -0.2090    2.1811    1.7935 H   0  0  0  0  0  0  0  0  0  0  0  0
    1.3079    3.1239    1.7288 H   0  0  0  0  0  0  0  0  0  0  0  0
    2.5726    1.3027    0.6721 C   0  0  0  0  0  3  0  0  0  0  0  0
    3.0566    2.1839    1.1428 H   0  0  0  0  0  0  0  0  0  0  0  0
    3.4788    0.2650    0.2661 C   0  0  0  0  0  0  0  0  0  0  0  0
    4.8714    0.5515    0.3698 C   0  0  0  0  0  0  0  0  0  0  0  0
    5.1708    1.5481    0.7327 H   0  0  0  0  0  0  0  0  0  0  0  0
    5.8400   -0.3813    0.0223 C   0  0  0  0  0  0  0  0  0  0  0  0
    6.9085   -0.1357    0.1055 H   0  0  0  0  0  0  0  0  0  0  0  0
    5.4274   -1.6561   -0.4311 C   0  0  0  0  0  0  0  0  0  0  0  0
    6.1791   -2.4127   -0.7048 H   0  0  0  0  0  0  0  0  0  0  0  0
    4.0753   -1.9723   -0.5252 C   0  0  0  0  0  0  0  0  0  0  0  0
    3.7614   -2.9702   -0.8670 H   0  0  0  0  0  0  0  0  0  0  0  0
    3.0618   -1.0301   -0.1883 C   0  0  0  0  0  0  0  0  0  0  0  0
  2 37  1  0  0  0  0
  4 26  1  0  0  0  0
  4 23  1  0  0  0  0
  5  1  1  0  0  0  0
  5  6  1  0  0  0  0
  6  7  1  0  0  0  0
  8  6  2  0  0  0  0
  8  9  1  0  0  0  0
 10  8  1  0  0  0  0
 11 10  1  0  0  0  0
 12 14  1  0  0  0  0
 12 10  2  0  0  0  0
 13 12  1  0  0  0  0
 14  5  2  0  0  0  0
 15  3  1  0  0  0  0
 15 14  1  0  0  0  0
 16 15  1  0  0  0  0
 17  3  1  0  0  0  0
 17 20  1  0  0  0  0
 18 17  1  0  0  0  0
 19 17  1  0  0  0  0
 20 22  1  0  0  0  0
 20 23  1  0  0  0  0
 21 20  1  0  0  0  0
 23 25  1  0  0  0  0
 23 24  1  0  0  0  0
 26 27  1  0  0  0  0
 28 29  1  0  0  0  0
 28 26  1  0  0  0  0
 29 30  1  0  0  0  0
 31 32  1  0  0  0  0
 31 29  2  0  0  0  0
 33 31  1  0  0  0  0
 34 33  1  0  0  0  0
 35 33  2  0  0  0  0
 35 37  1  0  0  0  0
 36 35  1  0  0  0  0
 37 28  2  0  0  0  0
M  END
