1,2,3,4
 OpenBabel05122313063D

 72 77  0  0  1  0  0  0  0  0999 V2000
    1.2996    0.6952    0.8025 S   0  0  0  0  0  1  0  0  0  0  0  0
   -1.3992    1.1841    0.1923 S   0  0  0  0  0  1  0  0  0  0  0  0
    1.3649   -1.5844   -1.0493 N   0  0  0  0  0  2  0  0  0  0  0  0
   -1.1840   -1.7307   -1.0065 N   0  0  0  0  0  2  0  0  0  0  0  0
    2.6841   -1.3349   -1.2383 C   0  0  2  0  0  3  0  0  0  0  0  0
    3.6031   -2.3913   -1.3350 C   0  0  0  0  0  0  0  0  0  0  0  0
    4.6692   -2.1568   -1.4594 H   0  0  0  0  0  0  0  0  0  0  0  0
    3.1521   -3.7168   -1.2590 C   0  0  0  0  0  0  0  0  0  0  0  0
    3.8628   -4.5536   -1.3197 H   0  0  0  0  0  0  0  0  0  0  0  0
    1.7815   -3.9602   -1.1233 C   0  0  0  0  0  0  0  0  0  0  0  0
    1.3924   -4.9868   -1.0944 H   0  0  0  0  0  0  0  0  0  0  0  0
    0.9027   -2.8677   -1.0374 C   0  0  0  0  0  0  0  0  0  0  0  0
   -0.5585   -2.9528   -0.9955 C   0  0  2  0  0  3  0  0  0  0  0  0
   -1.2843   -4.1535   -0.9982 C   0  0  0  0  0  0  0  0  0  0  0  0
   -0.7540   -5.1145   -0.9629 H   0  0  0  0  0  0  0  0  0  0  0  0
   -2.6793   -4.1040   -1.0586 C   0  0  0  0  0  0  0  0  0  0  0  0
   -3.2746   -5.0284   -1.0514 H   0  0  0  0  0  0  0  0  0  0  0  0
   -3.3007   -2.8529   -1.1526 C   0  0  0  0  0  0  0  0  0  0  0  0
   -4.3931   -2.7665   -1.2308 H   0  0  0  0  0  0  0  0  0  0  0  0
   -2.5355   -1.6748   -1.1399 C   0  0  0  0  0  0  0  0  0  0  0  0
    3.0431    0.7811    0.0955 C   0  0  0  0  0  0  0  0  0  0  0  0
    3.0756    0.1045   -1.3046 C   0  0  0  0  0  0  0  0  0  0  0  0
    2.3655    0.6127   -1.9877 H   0  0  0  0  0  0  0  0  0  0  0  0
    4.0958    0.2015   -1.7243 H   0  0  0  0  0  0  0  0  0  0  0  0
    3.2686    2.2925   -0.0302 C   0  0  0  0  0  0  0  0  0  0  0  0
    2.5510    3.0260   -1.0044 C   0  0  0  0  0  0  0  0  0  0  0  0
    1.8251    2.5154   -1.6568 H   0  0  0  0  0  0  0  0  0  0  0  0
    2.7102    4.4127   -1.1147 C   0  0  0  0  0  0  0  0  0  0  0  0
    2.1399    4.9621   -1.8791 H   0  0  0  0  0  0  0  0  0  0  0  0
    3.5757    5.1009   -0.2480 C   0  0  0  0  0  0  0  0  0  0  0  0
    3.6983    6.1912   -0.3351 H   0  0  0  0  0  0  0  0  0  0  0  0
    4.2674    4.3872    0.7410 C   0  0  0  0  0  0  0  0  0  0  0  0
    4.9347    4.9152    1.4395 H   0  0  0  0  0  0  0  0  0  0  0  0
    4.1126    2.9964    0.8522 C   0  0  0  0  0  0  0  0  0  0  0  0
    4.6522    2.4530    1.6405 H   0  0  0  0  0  0  0  0  0  0  0  0
    4.0605    0.0629    0.9875 C   0  0  0  0  0  0  0  0  0  0  0  0
    5.4332    0.1378    0.6573 C   0  0  0  0  0  0  0  0  0  0  0  0
    5.7560    0.7729   -0.1823 H   0  0  0  0  0  0  0  0  0  0  0  0
    6.3930   -0.5712    1.3918 C   0  0  0  0  0  0  0  0  0  0  0  0
    7.4565   -0.4916    1.1187 H   0  0  0  0  0  0  0  0  0  0  0  0
    6.0006   -1.3770    2.4740 C   0  0  0  0  0  0  0  0  0  0  0  0
    6.7532   -1.9346    3.0522 H   0  0  0  0  0  0  0  0  0  0  0  0
    4.6428   -1.4602    2.8108 C   0  0  0  0  0  0  0  0  0  0  0  0
    4.3205   -2.0865    3.6568 H   0  0  0  0  0  0  0  0  0  0  0  0
    3.6833   -0.7467    2.0734 C   0  0  0  0  0  0  0  0  0  0  0  0
    2.6157   -0.8171    2.3321 H   0  0  0  0  0  0  0  0  0  0  0  0
   -3.1213    0.4815    0.0610 C   0  0  0  0  0  0  0  0  0  0  0  0
   -3.1918   -0.3324   -1.2572 C   0  0  0  0  0  0  0  0  0  0  0  0
   -2.6931    0.2407   -2.0669 H   0  0  0  0  0  0  0  0  0  0  0  0
   -4.2545   -0.4913   -1.5297 H   0  0  0  0  0  0  0  0  0  0  0  0
   -3.9992    1.7316    0.0198 C   0  0  0  0  0  0  0  0  0  0  0  0
   -4.5030    2.2706   -1.1803 C   0  0  0  0  0  0  0  0  0  0  0  0
   -4.2879    1.7835   -2.1415 H   0  0  0  0  0  0  0  0  0  0  0  0
   -5.2714    3.4454   -1.1721 C   0  0  0  0  0  0  0  0  0  0  0  0
   -5.6562    3.8477   -2.1217 H   0  0  0  0  0  0  0  0  0  0  0  0
   -5.5446    4.1061    0.0343 C   0  0  0  0  0  0  0  0  0  0  0  0
   -6.1467    5.0274    0.0390 H   0  0  0  0  0  0  0  0  0  0  0  0
   -5.0381    3.5836    1.2358 C   0  0  0  0  0  0  0  0  0  0  0  0
   -5.2390    4.0956    2.1893 H   0  0  0  0  0  0  0  0  0  0  0  0
   -4.2749    2.4097    1.2279 C   0  0  0  0  0  0  0  0  0  0  0  0
   -3.8771    2.0055    2.1707 H   0  0  0  0  0  0  0  0  0  0  0  0
   -3.5051   -0.4445    1.2240 C   0  0  0  0  0  0  0  0  0  0  0  0
   -4.8626   -0.7914    1.3962 C   0  0  0  0  0  0  0  0  0  0  0  0
   -5.6263   -0.3174    0.7597 H   0  0  0  0  0  0  0  0  0  0  0  0
   -5.2492   -1.7197    2.3730 C   0  0  0  0  0  0  0  0  0  0  0  0
   -6.3139   -1.9726    2.4950 H   0  0  0  0  0  0  0  0  0  0  0  0
   -4.2832   -2.3192    3.1983 C   0  0  0  0  0  0  0  0  0  0  0  0
   -4.5855   -3.0449    3.9688 H   0  0  0  0  0  0  0  0  0  0  0  0
   -2.9327   -1.9765    3.0381 C   0  0  0  0  0  0  0  0  0  0  0  0
   -2.1664   -2.4327    3.6837 H   0  0  0  0  0  0  0  0  0  0  0  0
   -2.5471   -1.0461    2.0594 C   0  0  0  0  0  0  0  0  0  0  0  0
   -1.4894   -0.7717    1.9294 H   0  0  0  0  0  0  0  0  0  0  0  0
  3 12  1  0  0  0  0
  4 13  1  0  0  0  0
  5 22  1  1  0  0  0
  5  3  1  0  0  0  0
  6  8  2  0  0  0  0
  6  5  1  0  0  0  0
  7  6  1  0  0  0  0
  8 10  1  0  0  0  0
  9  8  1  0  0  0  0
 10 11  1  0  0  0  0
 10 12  2  0  0  0  0
 13 12  1  6  0  0  0
 14 13  1  0  0  0  0
 14 15  1  0  0  0  0
 16 17  1  0  0  0  0
 16 14  2  0  0  0  0
 18 20  2  0  0  0  0
 18 16  1  0  0  0  0
 19 18  1  0  0  0  0
 20  4  1  0  0  0  0
 21  1  1  0  0  0  0
 21 36  1  0  0  0  0
 22 21  1  0  0  0  0
 23 22  1  0  0  0  0
 24 22  1  0  0  0  0
 25 21  1  0  0  0  0
 25 34  1  0  0  0  0
 26 25  2  0  0  0  0
 27 26  1  0  0  0  0
 28 26  1  0  0  0  0
 28 30  2  0  0  0  0
 29 28  1  0  0  0  0
 30 32  1  0  0  0  0
 31 30  1  0  0  0  0
 32 34  2  0  0  0  0
 32 33  1  0  0  0  0
 34 35  1  0  0  0  0
 36 45  1  0  0  0  0
 37 36  2  0  0  0  0
 37 39  1  0  0  0  0
 38 37  1  0  0  0  0
 39 41  2  0  0  0  0
 40 39  1  0  0  0  0
 41 43  1  0  0  0  0
 41 42  1  0  0  0  0
 43 44  1  0  0  0  0
 45 46  1  0  0  0  0
 45 43  2  0  0  0  0
 47  2  1  0  0  0  0
 47 62  1  0  0  0  0
 48 20  1  0  0  0  0
 48 47  1  0  0  0  0
 49 48  1  0  0  0  0
 50 48  1  0  0  0  0
 51 47  1  0  0  0  0
 51 60  1  0  0  0  0
 52 54  1  0  0  0  0
 52 51  2  0  0  0  0
 53 52  1  0  0  0  0
 54 56  2  0  0  0  0
 55 54  1  0  0  0  0
 56 57  1  0  0  0  0
 56 58  1  0  0  0  0
 58 59  1  0  0  0  0
 60 58  2  0  0  0  0
 60 61  1  0  0  0  0
 62 63  2  0  0  0  0
 62 71  1  0  0  0  0
 63 65  1  0  0  0  0
 64 63  1  0  0  0  0
 65 66  1  0  0  0  0
 65 67  2  0  0  0  0
 67 68  1  0  0  0  0
 69 67  1  0  0  0  0
 69 70  1  0  0  0  0
 71 69  2  0  0  0  0
 72 71  1  0  0  0  0
M  END
