2,5,10,13
 OpenBabel05122313063D

 38 39  0  0  0  0  0  0  0  0999 V2000
    0.7496    0.7382   -0.0069 C   0  0  0  0  0  0  0  0  0  0  0  0
   -0.4590    1.3084    0.0337 N   0  0  0  0  0  2  0  0  0  0  0  0
   -0.6420    2.6331    0.0032 N   0  0  0  0  0  0  0  0  0  0  0  0
   -1.9308    2.9851    0.0064 C   0  0  0  0  0  0  0  0  0  0  0  0
   -3.3225    1.8979    0.0558 S   0  0  0  0  0  1  0  0  0  0  0  0
   -2.1923    4.3140   -0.0232 N   0  0  0  0  0  0  0  0  0  0  0  0
   -1.4172    4.9701   -0.1125 H   0  0  0  0  0  0  0  0  0  0  0  0
   -3.1534    4.6417   -0.0854 H   0  0  0  0  0  0  0  0  0  0  0  0
    0.7496   -0.7382    0.0067 C   0  0  0  0  0  0  0  0  0  0  0  0
   -0.4591   -1.3084   -0.0338 N   0  0  0  0  0  2  0  0  0  0  0  0
   -0.6421   -2.6331   -0.0032 N   0  0  0  0  0  0  0  0  0  0  0  0
   -1.9308   -2.9850   -0.0062 C   0  0  0  0  0  0  0  0  0  0  0  0
   -3.3226   -1.8978   -0.0554 S   0  0  0  0  0  1  0  0  0  0  0  0
   -2.1924   -4.3139    0.0237 N   0  0  0  0  0  0  0  0  0  0  0  0
   -1.4173   -4.9701    0.1127 H   0  0  0  0  0  0  0  0  0  0  0  0
   -3.1535   -4.6416    0.0858 H   0  0  0  0  0  0  0  0  0  0  0  0
    1.9938    1.5322   -0.1204 C   0  0  0  0  0  0  0  0  0  0  0  0
    2.9743    1.1782   -1.0757 C   0  0  0  0  0  0  0  0  0  0  0  0
    2.8003    0.3180   -1.7378 H   0  0  0  0  0  0  0  0  0  0  0  0
    4.1590    1.9167   -1.1884 C   0  0  0  0  0  0  0  0  0  0  0  0
    4.9085    1.6306   -1.9417 H   0  0  0  0  0  0  0  0  0  0  0  0
    4.3901    3.0137   -0.3436 C   0  0  0  0  0  0  0  0  0  0  0  0
    5.3245    3.5894   -0.4275 H   0  0  0  0  0  0  0  0  0  0  0  0
    3.4223    3.3737    0.6088 C   0  0  0  0  0  0  0  0  0  0  0  0
    3.5980    4.2318    1.2755 H   0  0  0  0  0  0  0  0  0  0  0  0
    2.2302    2.6464    0.7168 C   0  0  0  0  0  0  0  0  0  0  0  0
    1.4706    2.9333    1.4557 H   0  0  0  0  0  0  0  0  0  0  0  0
    1.9938   -1.5322    0.1203 C   0  0  0  0  0  0  0  0  0  0  0  0
    2.2302   -2.6465   -0.7168 C   0  0  0  0  0  0  0  0  0  0  0  0
    1.4706   -2.9334   -1.4557 H   0  0  0  0  0  0  0  0  0  0  0  0
    3.4223   -3.3738   -0.6086 C   0  0  0  0  0  0  0  0  0  0  0  0
    3.5980   -4.2319   -1.2753 H   0  0  0  0  0  0  0  0  0  0  0  0
    4.3900   -3.0138    0.3437 C   0  0  0  0  0  0  0  0  0  0  0  0
    5.3244   -3.5894    0.4278 H   0  0  0  0  0  0  0  0  0  0  0  0
    4.1589   -1.9167    1.1885 C   0  0  0  0  0  0  0  0  0  0  0  0
    4.9084   -1.6305    1.9418 H   0  0  0  0  0  0  0  0  0  0  0  0
    2.9743   -1.1782    1.0756 C   0  0  0  0  0  0  0  0  0  0  0  0
    2.8002   -0.3180    1.7377 H   0  0  0  0  0  0  0  0  0  0  0  0
  1  9  2  0  0  0  0
  1  2  1  0  0  0  0
  3  4  2  0  0  0  0
  3  2  1  0  0  0  0
  4  5  1  0  0  0  0
  6  4  1  0  0  0  0
  7  6  1  0  0  0  0
  8  6  1  0  0  0  0
  9 28  1  0  0  0  0
 10 11  1  0  0  0  0
 10  9  1  0  0  0  0
 12 11  2  0  0  0  0
 12 14  1  0  0  0  0
 13 12  1  0  0  0  0
 14 16  1  0  0  0  0
 14 15  1  0  0  0  0
 17  1  1  0  0  0  0
 17 26  1  0  0  0  0
 18 17  2  0  0  0  0
 19 18  1  0  0  0  0
 20 18  1  0  0  0  0
 20 22  2  0  0  0  0
 21 20  1  0  0  0  0
 22 24  1  0  0  0  0
 23 22  1  0  0  0  0
 24 26  2  0  0  0  0
 24 25  1  0  0  0  0
 26 27  1  0  0  0  0
 28 37  1  0  0  0  0
 29 31  1  0  0  0  0
 29 28  2  0  0  0  0
 30 29  1  0  0  0  0
 31 33  2  0  0  0  0
 32 31  1  0  0  0  0
 33 34  1  0  0  0  0
 33 35  1  0  0  0  0
 35 36  1  0  0  0  0
 37 35  2  0  0  0  0
 37 38  1  0  0  0  0
M  END
