1,2,3,6
 OpenBabel05122313063D

 58 59  0  0  0  0  0  0  0  0999 V2000
   -1.4358   -1.2559   -0.3718 S   0  0  0  0  0  1  0  0  0  0  0  0
    1.4358   -1.2559    0.3719 S   0  0  0  0  0  1  0  0  0  0  0  0
   -1.1557    1.6953    0.7939 N   0  0  0  0  0  2  0  0  0  0  0  0
   -4.1739   -1.2631   -0.2283 N   0  0  0  0  0  0  0  0  0  0  0  0
   -5.2640   -0.5271    0.1411 N   0  0  0  0  0  0  0  0  0  0  0  0
    1.1557    1.6953   -0.7940 N   0  0  0  0  0  2  0  0  0  0  0  0
    4.1739   -1.2630    0.2286 N   0  0  0  0  0  0  0  0  0  0  0  0
    5.2640   -0.5270   -0.1409 N   0  0  0  0  0  0  0  0  0  0  0  0
   -2.9921   -0.6037   -0.0352 C   0  0  0  0  0  0  0  0  0  0  0  0
   -3.3523    0.6604    0.5139 C   0  0  0  0  0  0  0  0  0  0  0  0
   -2.4647    1.6685    0.9581 C   0  0  0  0  0  3  0  0  0  0  0  0
   -0.4724    2.8338    1.4430 C   0  0  0  0  0  0  0  0  0  0  0  0
   -0.4827    4.1121    0.5935 C   0  0  0  0  0  0  0  0  0  0  0  0
   -4.7908    0.6261    0.6032 C   0  0  0  0  0  0  0  0  0  0  0  0
   -5.7073    1.6917    1.1138 C   0  0  0  0  0  0  0  0  0  0  0  0
   -4.3592   -2.6123   -0.7697 C   0  0  0  0  0  0  0  0  0  0  0  0
   -5.0493   -3.5054    0.2642 C   0  0  0  0  0  0  0  0  0  0  0  0
   -5.1082   -2.5468   -2.1032 C   0  0  0  0  0  0  0  0  0  0  0  0
    2.9921   -0.6037    0.0354 C   0  0  0  0  0  0  0  0  0  0  0  0
    3.3523    0.6604   -0.5139 C   0  0  0  0  0  0  0  0  0  0  0  0
    2.4647    1.6684   -0.9581 C   0  0  0  0  0  3  0  0  0  0  0  0
    0.4724    2.8337   -1.4431 C   0  0  0  0  0  0  0  0  0  0  0  0
    0.4827    4.1120   -0.5937 C   0  0  0  0  0  0  0  0  0  0  0  0
    4.7908    0.6261   -0.6032 C   0  0  0  0  0  0  0  0  0  0  0  0
    5.7073    1.6916   -1.1138 C   0  0  0  0  0  0  0  0  0  0  0  0
    4.3592   -2.6122    0.7699 C   0  0  0  0  0  0  0  0  0  0  0  0
    5.0483   -3.5055   -0.2645 C   0  0  0  0  0  0  0  0  0  0  0  0
    5.1093   -2.5470    2.1028 C   0  0  0  0  0  0  0  0  0  0  0  0
   -2.9229    2.5019    1.5308 H   0  0  0  0  0  0  0  0  0  0  0  0
   -0.9727    3.0383    2.4142 H   0  0  0  0  0  0  0  0  0  0  0  0
    0.5670    2.5303    1.6775 H   0  0  0  0  0  0  0  0  0  0  0  0
   -1.5232    4.2756    0.2361 H   0  0  0  0  0  0  0  0  0  0  0  0
   -0.2464    4.9744    1.2524 H   0  0  0  0  0  0  0  0  0  0  0  0
   -5.4916    1.9439    2.1735 H   0  0  0  0  0  0  0  0  0  0  0  0
   -5.6140    2.6300    0.5279 H   0  0  0  0  0  0  0  0  0  0  0  0
   -6.7542    1.3416    1.0471 H   0  0  0  0  0  0  0  0  0  0  0  0
   -3.3268   -2.9833   -0.9437 H   0  0  0  0  0  0  0  0  0  0  0  0
   -4.4567   -3.5558    1.1988 H   0  0  0  0  0  0  0  0  0  0  0  0
   -5.1650   -4.5335   -0.1322 H   0  0  0  0  0  0  0  0  0  0  0  0
   -6.0521   -3.1028    0.5083 H   0  0  0  0  0  0  0  0  0  0  0  0
   -6.1110   -2.0996   -1.9543 H   0  0  0  0  0  0  0  0  0  0  0  0
   -5.2316   -3.5628   -2.5277 H   0  0  0  0  0  0  0  0  0  0  0  0
   -4.5548   -1.9269   -2.8359 H   0  0  0  0  0  0  0  0  0  0  0  0
    2.9229    2.5019   -1.5309 H   0  0  0  0  0  0  0  0  0  0  0  0
   -0.5670    2.5302   -1.6776 H   0  0  0  0  0  0  0  0  0  0  0  0
    0.9727    3.0381   -2.4143 H   0  0  0  0  0  0  0  0  0  0  0  0
    1.5231    4.2756   -0.2363 H   0  0  0  0  0  0  0  0  0  0  0  0
    0.2463    4.9744   -1.2526 H   0  0  0  0  0  0  0  0  0  0  0  0
    5.6141    2.6300   -0.5280 H   0  0  0  0  0  0  0  0  0  0  0  0
    6.7542    1.3415   -1.0472 H   0  0  0  0  0  0  0  0  0  0  0  0
    5.4915    1.9439   -2.1735 H   0  0  0  0  0  0  0  0  0  0  0  0
    3.3269   -2.9829    0.9446 H   0  0  0  0  0  0  0  0  0  0  0  0
    6.0510   -3.1032   -0.5094 H   0  0  0  0  0  0  0  0  0  0  0  0
    5.1640   -4.5337    0.1318 H   0  0  0  0  0  0  0  0  0  0  0  0
    4.4549   -3.5558   -1.1986 H   0  0  0  0  0  0  0  0  0  0  0  0
    5.2327   -3.5630    2.5272 H   0  0  0  0  0  0  0  0  0  0  0  0
    4.5566   -1.9269    2.8359 H   0  0  0  0  0  0  0  0  0  0  0  0
    6.1121   -2.1000    1.9531 H   0  0  0  0  0  0  0  0  0  0  0  0
  1  9  1  0  0  0  0
  3 11  1  0  0  0  0
  3 12  1  0  0  0  0
  4  9  1  0  0  0  0
  4  5  1  0  0  0  0
  5 14  2  0  0  0  0
  7 26  1  0  0  0  0
  8  7  1  0  0  0  0
  9 10  2  0  0  0  0
 10 14  1  0  0  0  0
 10 11  1  0  0  0  0
 11 29  1  0  0  0  0
 12 31  1  0  0  0  0
 12 30  1  0  0  0  0
 13 33  1  0  0  0  0
 13 12  1  0  0  0  0
 14 15  1  0  0  0  0
 15 34  1  0  0  0  0
 16  4  1  0  0  0  0
 16 17  1  0  0  0  0
 17 40  1  0  0  0  0
 17 38  1  0  0  0  0
 18 41  1  0  0  0  0
 18 16  1  0  0  0  0
 19  7  1  0  0  0  0
 19  2  1  0  0  0  0
 20 19  2  0  0  0  0
 21  6  1  0  0  0  0
 21 20  1  0  0  0  0
 22  6  1  0  0  0  0
 22 23  1  0  0  0  0
 23 47  1  0  0  0  0
 23 13  1  0  0  0  0
 24 20  1  0  0  0  0
 24  8  2  0  0  0  0
 25 50  1  0  0  0  0
 25 24  1  0  0  0  0
 25 49  1  0  0  0  0
 26 52  1  0  0  0  0
 26 28  1  0  0  0  0
 27 54  1  0  0  0  0
 27 26  1  0  0  0  0
 28 56  1  0  0  0  0
 28 57  1  0  0  0  0
 32 13  1  0  0  0  0
 35 15  1  0  0  0  0
 36 15  1  0  0  0  0
 37 16  1  0  0  0  0
 39 17  1  0  0  0  0
 42 18  1  0  0  0  0
 43 18  1  0  0  0  0
 44 21  1  0  0  0  0
 45 22  1  0  0  0  0
 46 22  1  0  0  0  0
 48 23  1  0  0  0  0
 51 25  1  0  0  0  0
 53 27  1  0  0  0  0
 55 27  1  0  0  0  0
 58 28  1  0  0  0  0
M  END
