1,2,3,4
 OpenBabel05122313063D

 42 42  0  0  0  0  0  0  0  0999 V2000
   -1.7625   -1.8058   -1.2195 S   0  0  0  0  0  1  0  0  0  0  0  0
    1.7629   -1.8062    1.2183 S   0  0  0  0  0  1  0  0  0  0  0  0
   -1.1823    0.6053    0.7724 N   0  0  0  0  0  0  0  0  0  0  0  0
    1.1824    0.6062   -0.7720 N   0  0  0  0  0  0  0  0  0  0  0  0
   -2.9592   -1.0115   -0.0295 C   0  0  0  0  0  0  0  0  0  0  0  0
   -2.5487    0.4554    0.1957 C   0  0  0  0  0  0  0  0  0  0  0  0
   -0.5461    1.8476    0.4023 C   0  0  0  0  0  0  0  0  0  0  0  0
   -1.1836    3.1172    0.9093 C   0  0  0  0  0  0  0  0  0  0  0  0
   -0.5305    4.3751    0.4147 C   0  0  0  0  0  0  0  0  0  0  0  0
    0.5271    4.3755   -0.4154 C   0  0  0  0  0  0  0  0  0  0  0  0
    1.1821    3.1181   -0.9085 C   0  0  0  0  0  0  0  0  0  0  0  0
    0.5454    1.8480   -0.4018 C   0  0  0  0  0  0  0  0  0  0  0  0
    2.5485    0.4568   -0.1943 C   0  0  0  0  0  0  0  0  0  0  0  0
    2.9598   -1.0100    0.0300 C   0  0  0  0  0  0  0  0  0  0  0  0
   -4.3477   -1.0213   -0.6824 C   0  0  0  0  0  0  0  0  0  0  0  0
   -2.9930   -1.7806    1.3001 C   0  0  0  0  0  0  0  0  0  0  0  0
    2.9952   -1.7779   -1.3003 C   0  0  0  0  0  0  0  0  0  0  0  0
    4.3479   -1.0194    0.6839 C   0  0  0  0  0  0  0  0  0  0  0  0
   -1.2291    0.5332    1.7991 H   0  0  0  0  0  0  0  0  0  0  0  0
    1.2302    0.5347   -1.7987 H   0  0  0  0  0  0  0  0  0  0  0  0
   -3.3045    0.9604    0.8430 H   0  0  0  0  0  0  0  0  0  0  0  0
   -2.5425    0.9644   -0.7883 H   0  0  0  0  0  0  0  0  0  0  0  0
   -2.2648    3.1237    0.6362 H   0  0  0  0  0  0  0  0  0  0  0  0
   -1.1882    3.0960    2.0270 H   0  0  0  0  0  0  0  0  0  0  0  0
   -0.9627    5.3308    0.7533 H   0  0  0  0  0  0  0  0  0  0  0  0
    0.9577    5.3315   -0.7551 H   0  0  0  0  0  0  0  0  0  0  0  0
    1.1885    3.0963   -2.0262 H   0  0  0  0  0  0  0  0  0  0  0  0
    2.2630    3.1258   -0.6338 H   0  0  0  0  0  0  0  0  0  0  0  0
    3.3045    0.9630   -0.8405 H   0  0  0  0  0  0  0  0  0  0  0  0
    2.5411    0.9649    0.7901 H   0  0  0  0  0  0  0  0  0  0  0  0
   -5.1068   -0.5515   -0.0190 H   0  0  0  0  0  0  0  0  0  0  0  0
   -4.6641   -2.0629   -0.8859 H   0  0  0  0  0  0  0  0  0  0  0  0
   -4.3342   -0.4776   -1.6480 H   0  0  0  0  0  0  0  0  0  0  0  0
   -3.2681   -2.8374    1.1205 H   0  0  0  0  0  0  0  0  0  0  0  0
   -1.9984   -1.7926    1.7934 H   0  0  0  0  0  0  0  0  0  0  0  0
   -3.7317   -1.3378    2.0060 H   0  0  0  0  0  0  0  0  0  0  0  0
    3.2710   -2.8347   -1.1214 H   0  0  0  0  0  0  0  0  0  0  0  0
    3.7340   -1.3340   -2.0053 H   0  0  0  0  0  0  0  0  0  0  0  0
    2.0009   -1.7904   -1.7942 H   0  0  0  0  0  0  0  0  0  0  0  0
    4.3334   -0.4765    1.6499 H   0  0  0  0  0  0  0  0  0  0  0  0
    5.1071   -0.5485    0.0214 H   0  0  0  0  0  0  0  0  0  0  0  0
    4.6649   -2.0609    0.8868 H   0  0  0  0  0  0  0  0  0  0  0  0
  1  5  1  0  0  0  0
  3 19  1  0  0  0  0
  4 12  1  0  0  0  0
  4 13  1  0  0  0  0
  5  6  1  0  0  0  0
  5 16  1  0  0  0  0
  6  3  1  0  0  0  0
  6 21  1  0  0  0  0
  7  3  1  0  0  0  0
  7  8  1  0  0  0  0
  8 24  1  0  0  0  0
  9 25  1  0  0  0  0
  9  8  1  0  0  0  0
 10  9  2  0  0  0  0
 11 28  1  0  0  0  0
 11 10  1  0  0  0  0
 11 12  1  0  0  0  0
 12  7  2  0  0  0  0
 13 14  1  0  0  0  0
 13 30  1  0  0  0  0
 14 18  1  0  0  0  0
 14  2  1  0  0  0  0
 15  5  1  0  0  0  0
 15 31  1  0  0  0  0
 16 35  1  0  0  0  0
 16 36  1  0  0  0  0
 17 37  1  0  0  0  0
 17 14  1  0  0  0  0
 18 42  1  0  0  0  0
 18 40  1  0  0  0  0
 20  4  1  0  0  0  0
 22  6  1  0  0  0  0
 23  8  1  0  0  0  0
 26 10  1  0  0  0  0
 27 11  1  0  0  0  0
 29 13  1  0  0  0  0
 32 15  1  0  0  0  0
 33 15  1  0  0  0  0
 34 16  1  0  0  0  0
 38 17  1  0  0  0  0
 39 17  1  0  0  0  0
 41 18  1  0  0  0  0
M  END
