1,2,3,5
 OpenBabel05122313063D

 42 45  0  0  1  0  0  0  0  0999 V2000
    0.0754    1.7715    2.0122 S   0  0  0  0  0  0  0  0  0  0  0  0
    0.2382    1.8812   -1.4598 S   0  0  0  0  0  0  0  0  0  0  0  0
    1.8536    0.1376    0.1483 N   0  0  0  0  0  2  0  0  0  0  0  0
    3.8313    0.3999    1.1088 N   0  0  0  0  0  0  0  0  0  0  0  0
   -1.8979    0.2735   -0.4086 N   0  0  0  0  0  2  0  0  0  0  0  0
   -3.7280    1.1565   -1.3289 N   0  0  0  0  0  0  0  0  0  0  0  0
    2.7803   -0.5813   -0.6050 C   0  0  0  0  0  0  0  0  0  0  0  0
    2.6145   -1.3717   -1.7552 C   0  0  0  0  0  0  0  0  0  0  0  0
    3.7671   -1.9698   -2.2751 C   0  0  0  0  0  0  0  0  0  0  0  0
    5.0389   -1.7910   -1.6757 C   0  0  0  0  0  0  0  0  0  0  0  0
    5.2100   -1.0129   -0.5242 C   0  0  0  0  0  0  0  0  0  0  0  0
    4.0549   -0.4154    0.0011 C   0  0  0  0  0  0  0  0  0  0  0  0
    2.5011    0.7019    1.1716 C   0  0  2  0  0  3  0  0  0  0  0  0
    1.8606    1.4888    2.2723 C   0  0  0  0  0  0  0  0  0  0  0  0
    0.0813    3.3082    1.0248 C   0  0  0  0  0  0  0  0  0  0  0  0
    0.7565    3.2524   -0.3430 C   0  0  0  0  0  0  0  0  0  0  0  0
   -1.5223    2.3040   -1.8054 C   0  0  0  0  0  0  0  0  0  0  0  0
   -2.3797    1.2617   -1.1751 C   0  0  2  0  0  3  0  0  0  0  0  0
   -4.1606    0.0374   -0.6272 C   0  0  0  0  0  0  0  0  0  0  0  0
   -5.4422   -0.5048   -0.4558 C   0  0  0  0  0  0  0  0  0  0  0  0
   -5.5308   -1.6632    0.3211 C   0  0  0  0  0  0  0  0  0  0  0  0
   -4.3780   -2.2504    0.8948 C   0  0  0  0  0  0  0  0  0  0  0  0
   -3.1010   -1.7070    0.7249 C   0  0  0  0  0  0  0  0  0  0  0  0
   -2.9894   -0.5318   -0.0466 C   0  0  0  0  0  0  0  0  0  0  0  0
    1.6099   -1.5236   -2.1825 H   0  0  0  0  0  0  0  0  0  0  0  0
    3.6869   -2.6031   -3.1708 H   0  0  0  0  0  0  0  0  0  0  0  0
    5.9156   -2.2833   -2.1214 H   0  0  0  0  0  0  0  0  0  0  0  0
    6.1968   -0.8857   -0.0571 H   0  0  0  0  0  0  0  0  0  0  0  0
   -6.3306   -0.0441   -0.9109 H   0  0  0  0  0  0  0  0  0  0  0  0
   -6.5135   -2.1288    0.4845 H   0  0  0  0  0  0  0  0  0  0  0  0
   -4.4857   -3.1683    1.4907 H   0  0  0  0  0  0  0  0  0  0  0  0
   -2.2263   -2.2052    1.1535 H   0  0  0  0  0  0  0  0  0  0  0  0
    4.5320    0.6873    1.7934 H   0  0  0  0  0  0  0  0  0  0  0  0
   -4.3173    1.7862   -1.8744 H   0  0  0  0  0  0  0  0  0  0  0  0
    1.9154    0.9043    3.2143 H   0  0  0  0  0  0  0  0  0  0  0  0
    2.3772    2.4562    2.4477 H   0  0  0  0  0  0  0  0  0  0  0  0
   -0.9958    3.5619    0.9332 H   0  0  0  0  0  0  0  0  0  0  0  0
    0.5441    4.1254    1.6175 H   0  0  0  0  0  0  0  0  0  0  0  0
    0.6190    4.2033   -0.8991 H   0  0  0  0  0  0  0  0  0  0  0  0
    1.8503    3.0902   -0.2552 H   0  0  0  0  0  0  0  0  0  0  0  0
   -1.6448    2.3216   -2.9088 H   0  0  0  0  0  0  0  0  0  0  0  0
   -1.7346    3.3262   -1.4276 H   0  0  0  0  0  0  0  0  0  0  0  0
  1 14  1  0  0  0  0
  2 16  1  0  0  0  0
  3 13  1  0  0  0  0
  4 13  1  0  0  0  0
  4 33  1  0  0  0  0
  5 24  1  0  0  0  0
  6 18  1  0  0  0  0
  6 19  1  0  0  0  0
  7 12  1  0  0  0  0
  7  3  1  0  0  0  0
  8  7  2  0  0  0  0
  9  8  1  0  0  0  0
  9 10  2  0  0  0  0
 10 11  1  0  0  0  0
 11 28  1  0  0  0  0
 11 12  2  0  0  0  0
 12  4  1  0  0  0  0
 13 14  1  1  0  0  0
 14 36  1  0  0  0  0
 14 35  1  0  0  0  0
 15 38  1  0  0  0  0
 15  1  1  0  0  0  0
 16 40  1  0  0  0  0
 16 15  1  0  0  0  0
 17  2  1  0  0  0  0
 17 42  1  0  0  0  0
 18 17  1  6  0  0  0
 18  5  1  0  0  0  0
 19 20  2  0  0  0  0
 19 24  1  0  0  0  0
 20 21  1  0  0  0  0
 21 30  1  0  0  0  0
 21 22  2  0  0  0  0
 22 31  1  0  0  0  0
 23 22  1  0  0  0  0
 23 32  1  0  0  0  0
 24 23  2  0  0  0  0
 25  8  1  0  0  0  0
 26  9  1  0  0  0  0
 27 10  1  0  0  0  0
 29 20  1  0  0  0  0
 34  6  1  0  0  0  0
 37 15  1  0  0  0  0
 39 16  1  0  0  0  0
 41 17  1  0  0  0  0
M  END
