1,2,7,8
 OpenBabel05122313063D

 42 43  0  0  1  0  0  0  0  0999 V2000
   -1.7302   -1.5808   -1.0881 S   0  0  0  0  0  0  0  0  0  0  0  0
   -1.3052    1.0151    0.1612 N   0  0  0  0  0  2  0  0  0  0  0  0
   -1.4562    3.4587   -0.3947 C   0  0  0  0  0  0  0  0  0  0  0  0
   -2.4155    3.2448   -0.9035 H   0  0  0  0  0  0  0  0  0  0  0  0
   -0.8391    4.1008   -1.0513 H   0  0  0  0  0  0  0  0  0  0  0  0
   -1.6917    4.0563    0.5125 H   0  0  0  0  0  0  0  0  0  0  0  0
    1.7302   -1.5808    1.0883 S   0  0  0  0  0  0  0  0  0  0  0  0
    1.3052    1.0150   -0.1612 N   0  0  0  0  0  2  0  0  0  0  0  0
   -0.7390    2.1862   -0.0483 C   0  0  2  0  0  3  0  0  0  0  0  0
    0.7391    2.1861    0.0484 C   0  0  1  0  0  3  0  0  0  0  0  0
    1.4564    3.4586    0.3947 C   0  0  0  0  0  0  0  0  0  0  0  0
    2.4158    3.2446    0.9034 H   0  0  0  0  0  0  0  0  0  0  0  0
    0.8394    4.1008    1.0514 H   0  0  0  0  0  0  0  0  0  0  0  0
    1.6918    4.0562   -0.5125 H   0  0  0  0  0  0  0  0  0  0  0  0
   -2.6664    0.7060    0.1413 C   0  0  0  0  0  0  0  0  0  0  0  0
   -3.6857    1.5252    0.6866 C   0  0  0  0  0  0  0  0  0  0  0  0
   -3.4253    2.4967    1.1258 H   0  0  0  0  0  0  0  0  0  0  0  0
   -5.0084    1.0756    0.7333 C   0  0  0  0  0  0  0  0  0  0  0  0
   -5.7820    1.7186    1.1779 H   0  0  0  0  0  0  0  0  0  0  0  0
   -5.3538   -0.1873    0.2206 C   0  0  0  0  0  0  0  0  0  0  0  0
   -6.3982   -0.5302    0.2450 H   0  0  0  0  0  0  0  0  0  0  0  0
   -4.3641   -1.0133   -0.3280 C   0  0  0  0  0  0  0  0  0  0  0  0
   -4.6382   -1.9938   -0.7435 H   0  0  0  0  0  0  0  0  0  0  0  0
   -3.0288   -0.5829   -0.3503 C   0  0  0  0  0  0  0  0  0  0  0  0
    2.6663    0.7059   -0.1413 C   0  0  0  0  0  0  0  0  0  0  0  0
    3.6857    1.5251   -0.6866 C   0  0  0  0  0  0  0  0  0  0  0  0
    3.4252    2.4966   -1.1258 H   0  0  0  0  0  0  0  0  0  0  0  0
    5.0084    1.0755   -0.7335 C   0  0  0  0  0  0  0  0  0  0  0  0
    5.7819    1.7186   -1.1781 H   0  0  0  0  0  0  0  0  0  0  0  0
    5.3538   -0.1874   -0.2208 C   0  0  0  0  0  0  0  0  0  0  0  0
    6.3981   -0.5303   -0.2454 H   0  0  0  0  0  0  0  0  0  0  0  0
    4.3641   -1.0134    0.3278 C   0  0  0  0  0  0  0  0  0  0  0  0
    4.6383   -1.9938    0.7433 H   0  0  0  0  0  0  0  0  0  0  0  0
    3.0289   -0.5830    0.3502 C   0  0  0  0  0  0  0  0  0  0  0  0
   -2.0383   -3.2277   -0.3576 C   0  0  0  0  0  0  0  0  0  0  0  0
   -2.9718   -3.6580   -0.7648 H   0  0  0  0  0  0  0  0  0  0  0  0
   -2.0829   -3.1619    0.7448 H   0  0  0  0  0  0  0  0  0  0  0  0
   -1.1888   -3.8615   -0.6749 H   0  0  0  0  0  0  0  0  0  0  0  0
    2.0380   -3.2277    0.3575 C   0  0  0  0  0  0  0  0  0  0  0  0
    2.9717   -3.6581    0.7644 H   0  0  0  0  0  0  0  0  0  0  0  0
    2.0824   -3.1617   -0.7449 H   0  0  0  0  0  0  0  0  0  0  0  0
    1.1885   -3.8614    0.6750 H   0  0  0  0  0  0  0  0  0  0  0  0
  1 35  1  0  0  0  0
  1 24  1  0  0  0  0
  3  9  1  0  0  0  0
  3  6  1  0  0  0  0
  4  3  1  0  0  0  0
  5  3  1  0  0  0  0
  8 25  1  0  0  0  0
  9 10  1  0  0  0  0
  9  2  1  6  0  0  0
 10  8  1  1  0  0  0
 10 11  1  0  0  0  0
 11 12  1  0  0  0  0
 11 13  1  0  0  0  0
 14 11  1  0  0  0  0
 15  2  1  0  0  0  0
 15 16  1  0  0  0  0
 16 18  2  0  0  0  0
 16 17  1  0  0  0  0
 18 19  1  0  0  0  0
 20 21  1  0  0  0  0
 20 18  1  0  0  0  0
 22 20  2  0  0  0  0
 23 22  1  0  0  0  0
 24 22  1  0  0  0  0
 24 15  2  0  0  0  0
 25 34  1  0  0  0  0
 26 25  2  0  0  0  0
 27 26  1  0  0  0  0
 28 26  1  0  0  0  0
 28 30  2  0  0  0  0
 29 28  1  0  0  0  0
 30 32  1  0  0  0  0
 31 30  1  0  0  0  0
 32 34  2  0  0  0  0
 32 33  1  0  0  0  0
 34  7  1  0  0  0  0
 35 37  1  0  0  0  0
 36 35  1  0  0  0  0
 38 35  1  0  0  0  0
 39 42  1  0  0  0  0
 39 40  1  0  0  0  0
 39  7  1  0  0  0  0
 41 39  1  0  0  0  0
M  END
