1,2,6,7
 OpenBabel05122313063D

 44 45  0  0  0  0  0  0  0  0999 V2000
   -1.6055   -3.3131    0.0577 S   0  0  0  0  0  1  0  0  0  0  0  0
   -3.7026   -0.1526   -0.0610 S   0  0  0  0  0  1  0  0  0  0  0  0
    0.6571   -4.7171   -0.0437 N   0  0  0  0  0  0  0  0  0  0  0  0
   -0.0335   -5.4671    0.0023 H   0  0  0  0  0  0  0  0  0  0  0  0
    1.0386   -2.4501    0.0250 N   0  0  0  0  0  0  0  0  0  0  0  0
    0.4590   -1.2442    0.0461 N   0  0  0  0  0  2  0  0  0  0  0  0
   -0.9850    0.9379   -0.0364 N   0  0  0  0  0  2  0  0  0  0  0  0
   -1.8680    1.9363   -0.0183 N   0  0  0  0  0  0  0  0  0  0  0  0
   -4.0764    2.5034   -0.0038 N   0  0  0  0  0  0  0  0  0  0  0  0
   -3.6988    3.4505    0.0620 H   0  0  0  0  0  0  0  0  0  0  0  0
    0.1618   -3.4561    0.0130 C   0  0  0  0  0  0  0  0  0  0  0  0
    1.1517   -0.1012    0.0015 C   0  0  0  0  0  0  0  0  0  0  0  0
    0.3402    1.1299    0.0090 C   0  0  0  0  0  0  0  0  0  0  0  0
   -3.1437    1.5198   -0.0252 C   0  0  0  0  0  0  0  0  0  0  0  0
    2.0673   -5.0436   -0.0156 C   0  0  0  0  0  0  0  0  0  0  0  0
    2.6350   -4.2424   -0.5250 H   0  0  0  0  0  0  0  0  0  0  0  0
    2.2372   -6.0056   -0.5365 H   0  0  0  0  0  0  0  0  0  0  0  0
    2.4592   -5.1287    1.0231 H   0  0  0  0  0  0  0  0  0  0  0  0
   -5.5049    2.2895    0.0332 C   0  0  0  0  0  0  0  0  0  0  0  0
   -5.8232    1.6185   -0.7919 H   0  0  0  0  0  0  0  0  0  0  0  0
   -6.0178    3.2625   -0.0790 H   0  0  0  0  0  0  0  0  0  0  0  0
   -5.8300    1.8186    0.9869 H   0  0  0  0  0  0  0  0  0  0  0  0
    2.6275   -0.0813   -0.1165 C   0  0  0  0  0  0  0  0  0  0  0  0
    3.4399   -0.8859    0.7151 C   0  0  0  0  0  0  0  0  0  0  0  0
    2.9650   -1.5428    1.4554 H   0  0  0  0  0  0  0  0  0  0  0  0
    4.8352   -0.8426    0.5994 C   0  0  0  0  0  0  0  0  0  0  0  0
    5.4552   -1.4660    1.2619 H   0  0  0  0  0  0  0  0  0  0  0  0
    5.4433   -0.0106   -0.3551 C   0  0  0  0  0  0  0  0  0  0  0  0
    6.5399    0.0185   -0.4455 H   0  0  0  0  0  0  0  0  0  0  0  0
    4.6449    0.7828   -1.1939 C   0  0  0  0  0  0  0  0  0  0  0  0
    5.1116    1.4337   -1.9487 H   0  0  0  0  0  0  0  0  0  0  0  0
    3.2497    0.7529   -1.0736 C   0  0  0  0  0  0  0  0  0  0  0  0
    2.6298    1.3787   -1.7314 H   0  0  0  0  0  0  0  0  0  0  0  0
    0.9390    2.4784    0.1238 C   0  0  0  0  0  0  0  0  0  0  0  0
    1.9533    2.7243    1.0780 C   0  0  0  0  0  0  0  0  0  0  0  0
    2.2835    1.9103    1.7391 H   0  0  0  0  0  0  0  0  0  0  0  0
    2.5343    3.9937    1.1915 C   0  0  0  0  0  0  0  0  0  0  0  0
    3.3185    4.1674    1.9438 H   0  0  0  0  0  0  0  0  0  0  0  0
    2.1200    5.0378    0.3495 C   0  0  0  0  0  0  0  0  0  0  0  0
    2.5814    6.0335    0.4345 H   0  0  0  0  0  0  0  0  0  0  0  0
    1.1125    4.8049   -0.6013 C   0  0  0  0  0  0  0  0  0  0  0  0
    0.7842    5.6184   -1.2662 H   0  0  0  0  0  0  0  0  0  0  0  0
    0.5204    3.5402   -0.7108 C   0  0  0  0  0  0  0  0  0  0  0  0
   -0.2718    3.3615   -1.4495 H   0  0  0  0  0  0  0  0  0  0  0  0
  2 14  1  0  0  0  0
  3 15  1  0  0  0  0
  3  4  1  0  0  0  0
  3 11  1  0  0  0  0
  5  6  1  0  0  0  0
  7  8  1  0  0  0  0
  7 13  1  0  0  0  0
  9 19  1  0  0  0  0
  9 10  1  0  0  0  0
 11  5  2  0  0  0  0
 11  1  1  0  0  0  0
 12 13  2  0  0  0  0
 12  6  1  0  0  0  0
 13 34  1  0  0  0  0
 14  8  2  0  0  0  0
 14  9  1  0  0  0  0
 15 18  1  0  0  0  0
 16 15  1  0  0  0  0
 17 15  1  0  0  0  0
 19 22  1  0  0  0  0
 20 19  1  0  0  0  0
 21 19  1  0  0  0  0
 23 12  1  0  0  0  0
 23 24  1  0  0  0  0
 24 25  1  0  0  0  0
 26 24  2  0  0  0  0
 26 27  1  0  0  0  0
 28 26  1  0  0  0  0
 29 28  1  0  0  0  0
 30 32  1  0  0  0  0
 30 28  2  0  0  0  0
 31 30  1  0  0  0  0
 32 23  2  0  0  0  0
 33 32  1  0  0  0  0
 34 35  1  0  0  0  0
 35 37  2  0  0  0  0
 35 36  1  0  0  0  0
 37 38  1  0  0  0  0
 39 40  1  0  0  0  0
 39 37  1  0  0  0  0
 41 39  2  0  0  0  0
 42 41  1  0  0  0  0
 43 41  1  0  0  0  0
 43 34  2  0  0  0  0
 44 43  1  0  0  0  0
M  END
