1,2,3,4
 OpenBabel05122313063D

 36 36  0  0  1  0  0  0  0  0999 V2000
    0.3267    1.3404   -0.8988 S   0  0  0  0  0  0  0  0  0  0  0  0
    0.3267   -1.3404    0.8988 S   0  0  0  0  0  0  0  0  0  0  0  0
   -1.3679   -1.2506   -1.5156 N   0  0  0  0  0  0  0  0  0  0  0  0
   -1.3679    1.2506    1.5156 N   0  0  0  0  0  0  0  0  0  0  0  0
   -0.9435    2.6278    1.1707 C   0  0  0  0  0  0  0  0  0  0  0  0
    0.4060    2.5900    0.4728 C   0  0  0  0  0  0  0  0  0  0  0  0
   -0.9435   -2.6278   -1.1707 C   0  0  0  0  0  0  0  0  0  0  0  0
    0.4060   -2.5900   -0.4728 C   0  0  0  0  0  0  0  0  0  0  0  0
    1.9077    0.3993   -0.6510 C   0  0  1  0  0  0  0  0  0  0  0  0
    3.1661    1.2658   -0.7932 C   0  0  0  0  0  0  0  0  0  0  0  0
    4.4259    0.3951   -0.6562 C   0  0  0  0  0  0  0  0  0  0  0  0
    4.4259   -0.3951    0.6563 C   0  0  0  0  0  0  0  0  0  0  0  0
    3.1661   -1.2658    0.7932 C   0  0  0  0  0  0  0  0  0  0  0  0
    1.9077   -0.3994    0.6510 C   0  0  2  0  0  0  0  0  0  0  0  0
   -2.3825   -1.2093   -1.7157 H   0  0  0  0  0  0  0  0  0  0  0  0
   -0.8994   -0.8972   -2.3644 H   0  0  0  0  0  0  0  0  0  0  0  0
   -2.3823    1.2092    1.7158 H   0  0  0  0  0  0  0  0  0  0  0  0
   -0.8992    0.8972    2.3643 H   0  0  0  0  0  0  0  0  0  0  0  0
   -0.8914    3.2750    2.0719 H   0  0  0  0  0  0  0  0  0  0  0  0
   -1.7147    3.0327    0.4876 H   0  0  0  0  0  0  0  0  0  0  0  0
    1.2217    2.2888    1.1603 H   0  0  0  0  0  0  0  0  0  0  0  0
    0.6670    3.5708    0.0315 H   0  0  0  0  0  0  0  0  0  0  0  0
   -0.8915   -3.2750   -2.0720 H   0  0  0  0  0  0  0  0  0  0  0  0
   -1.7146   -3.0327   -0.4876 H   0  0  0  0  0  0  0  0  0  0  0  0
    1.2217   -2.2887   -1.1604 H   0  0  0  0  0  0  0  0  0  0  0  0
    0.6671   -3.5708   -0.0316 H   0  0  0  0  0  0  0  0  0  0  0  0
    1.8759   -0.3055   -1.5117 H   0  0  0  0  0  0  0  0  0  0  0  0
    3.1712    2.0461   -0.0013 H   0  0  0  0  0  0  0  0  0  0  0  0
    3.1479    1.7941   -1.7678 H   0  0  0  0  0  0  0  0  0  0  0  0
    4.4818   -0.3075   -1.5167 H   0  0  0  0  0  0  0  0  0  0  0  0
    5.3256    1.0388   -0.7234 H   0  0  0  0  0  0  0  0  0  0  0  0
    4.4818    0.3075    1.5168 H   0  0  0  0  0  0  0  0  0  0  0  0
    5.3256   -1.0388    0.7234 H   0  0  0  0  0  0  0  0  0  0  0  0
    3.1479   -1.7941    1.7678 H   0  0  0  0  0  0  0  0  0  0  0  0
    3.1712   -2.0461    0.0013 H   0  0  0  0  0  0  0  0  0  0  0  0
    1.8759    0.3055    1.5117 H   0  0  0  0  0  0  0  0  0  0  0  0
  1  9  1  0  0  0  0
  1  6  1  0  0  0  0
  3  7  1  0  0  0  0
  4 17  1  0  0  0  0
  4 18  1  0  0  0  0
  5  4  1  0  0  0  0
  5 19  1  0  0  0  0
  6 21  1  0  0  0  0
  6  5  1  0  0  0  0
  7 24  1  0  0  0  0
  7  8  1  0  0  0  0
  8 26  1  0  0  0  0
  8  2  1  0  0  0  0
  9 27  1  6  0  0  0
  9 14  1  0  0  0  0
 10 11  1  0  0  0  0
 10  9  1  0  0  0  0
 10 28  1  0  0  0  0
 11 12  1  0  0  0  0
 12 33  1  0  0  0  0
 12 13  1  0  0  0  0
 12 32  1  0  0  0  0
 13 34  1  0  0  0  0
 14 13  1  0  0  0  0
 14  2  1  0  0  0  0
 14 36  1  1  0  0  0
 15  3  1  0  0  0  0
 16  3  1  0  0  0  0
 20  5  1  0  0  0  0
 22  6  1  0  0  0  0
 23  7  1  0  0  0  0
 25  8  1  0  0  0  0
 29 10  1  0  0  0  0
 30 11  1  0  0  0  0
 31 11  1  0  0  0  0
 35 13  1  0  0  0  0
M  END
