10,12,16,25
 OpenBabel05122313063D

 79 82  0  0  0  0  0  0  0  0999 V2000
    1.4050   -4.3092    0.3514 N   0  0  0  0  0  0  0  0  0  0  0  0
    0.4077   -3.4989    0.3419 C   0  0  0  0  0  0  0  0  0  0  0  0
   -0.9858   -3.9316    0.1303 C   0  0  0  0  0  0  0  0  0  0  0  0
   -1.3184   -5.2894    0.2574 C   0  0  0  0  0  0  0  0  0  0  0  0
   -2.6392   -5.7630    0.1150 C   0  0  0  0  0  0  0  0  0  0  0  0
   -2.9533   -7.2302    0.2622 C   0  0  0  0  0  0  0  0  0  0  0  0
   -3.6328   -4.8165   -0.1573 C   0  0  0  0  0  0  0  0  0  0  0  0
   -3.3502   -3.4318   -0.2910 C   0  0  0  0  0  0  0  0  0  0  0  0
   -2.0020   -2.9649   -0.1703 C   0  0  0  0  0  0  0  0  0  0  0  0
   -1.5109   -1.3271   -0.5249 S   0  0  0  0  0  1  0  0  0  0  0  0
   -4.4443   -2.5632   -0.6444 C   0  0  0  0  0  3  0  0  0  0  0  0
   -4.4771   -1.2540   -0.5938 N   0  0  0  0  0  2  0  0  0  0  0  0
   -5.6815   -0.6020   -1.1205 C   0  0  0  0  0  0  0  0  0  0  0  0
   -6.5349    0.0063    0.0003 C   0  0  0  0  0  0  0  0  0  0  0  0
   -5.6801    0.6128    1.1210 C   0  0  0  0  0  0  0  0  0  0  0  0
   -4.4743    1.2621    0.5942 N   0  0  0  0  0  2  0  0  0  0  0  0
   -4.4386    2.5712    0.6446 C   0  0  0  0  0  3  0  0  0  0  0  0
   -3.3426    3.4373    0.2910 C   0  0  0  0  0  0  0  0  0  0  0  0
   -3.6223    4.8226    0.1569 C   0  0  0  0  0  0  0  0  0  0  0  0
   -2.6267    5.7669   -0.1156 C   0  0  0  0  0  0  0  0  0  0  0  0
   -2.9376    7.2347   -0.2635 C   0  0  0  0  0  0  0  0  0  0  0  0
   -1.3068    5.2905   -0.2578 C   0  0  0  0  0  0  0  0  0  0  0  0
   -0.9771    3.9319   -0.1303 C   0  0  0  0  0  0  0  0  0  0  0  0
   -1.9954    2.9675    0.1704 C   0  0  0  0  0  0  0  0  0  0  0  0
   -1.5080    1.3287    0.5254 S   0  0  0  0  0  1  0  0  0  0  0  0
    0.4154    3.4963   -0.3416 C   0  0  0  0  0  0  0  0  0  0  0  0
    1.4143    4.3047   -0.3516 N   0  0  0  0  0  0  0  0  0  0  0  0
    2.7180    3.7260   -0.5845 C   0  0  0  0  0  0  0  0  0  0  0  0
    3.5912    3.8214    0.6827 C   0  0  0  0  0  0  0  0  0  0  0  0
    4.9593    3.2265    0.4558 C   0  0  0  0  0  0  0  0  0  0  0  0
    5.3786    2.0624    1.1338 C   0  0  0  0  0  0  0  0  0  0  0  0
    6.6497    1.5366    0.8685 C   0  0  0  0  0  0  0  0  0  0  0  0
    7.4629    2.1849   -0.0722 C   0  0  0  0  0  0  0  0  0  0  0  0
    6.9549    3.3326   -0.7041 C   0  0  0  0  0  0  0  0  0  0  0  0
    5.7417    3.8441   -0.4540 N   0  0  0  0  0  0  0  0  0  0  0  0
    2.7098   -3.7330    0.5845 C   0  0  0  0  0  0  0  0  0  0  0  0
    3.5823   -3.8280   -0.6832 C   0  0  0  0  0  0  0  0  0  0  0  0
    4.9509   -3.2343   -0.4562 C   0  0  0  0  0  0  0  0  0  0  0  0
    5.3697   -2.0684   -1.1314 C   0  0  0  0  0  0  0  0  0  0  0  0
    6.6412   -1.5435   -0.8658 C   0  0  0  0  0  0  0  0  0  0  0  0
    7.4552   -2.1947    0.0723 C   0  0  0  0  0  0  0  0  0  0  0  0
    6.9476   -3.3440    0.7014 C   0  0  0  0  0  0  0  0  0  0  0  0
    5.7340   -3.8546    0.4511 N   0  0  0  0  0  0  0  0  0  0  0  0
    0.5400   -2.4018    0.5066 H   0  0  0  0  0  0  0  0  0  0  0  0
   -0.4900   -5.9806    0.4824 H   0  0  0  0  0  0  0  0  0  0  0  0
   -2.3559   -7.8425   -0.4447 H   0  0  0  0  0  0  0  0  0  0  0  0
   -4.0240   -7.4411    0.0743 H   0  0  0  0  0  0  0  0  0  0  0  0
   -2.7105   -7.5942    1.2826 H   0  0  0  0  0  0  0  0  0  0  0  0
   -4.6780   -5.1487   -0.2737 H   0  0  0  0  0  0  0  0  0  0  0  0
   -5.3542   -3.0734   -1.0230 H   0  0  0  0  0  0  0  0  0  0  0  0
   -6.2863   -1.3183   -1.7174 H   0  0  0  0  0  0  0  0  0  0  0  0
   -5.3486    0.1978   -1.8124 H   0  0  0  0  0  0  0  0  0  0  0  0
   -7.1952   -0.7674    0.4439 H   0  0  0  0  0  0  0  0  0  0  0  0
   -7.1936    0.7814   -0.4432 H   0  0  0  0  0  0  0  0  0  0  0  0
   -6.2832    1.3304    1.7180 H   0  0  0  0  0  0  0  0  0  0  0  0
   -5.3489   -0.1877    1.8130 H   0  0  0  0  0  0  0  0  0  0  0  0
   -5.3474    3.0835    1.0232 H   0  0  0  0  0  0  0  0  0  0  0  0
   -4.6668    5.1571    0.2733 H   0  0  0  0  0  0  0  0  0  0  0  0
   -2.3374    7.8463    0.4417 H   0  0  0  0  0  0  0  0  0  0  0  0
   -4.0075    7.4482   -0.0737 H   0  0  0  0  0  0  0  0  0  0  0  0
   -2.6960    7.5973   -1.2847 H   0  0  0  0  0  0  0  0  0  0  0  0
   -0.4770    5.9798   -0.4829 H   0  0  0  0  0  0  0  0  0  0  0  0
    0.5457    2.3988   -0.5056 H   0  0  0  0  0  0  0  0  0  0  0  0
    3.2393    4.2909   -1.3877 H   0  0  0  0  0  0  0  0  0  0  0  0
    2.6609    2.6552   -0.9071 H   0  0  0  0  0  0  0  0  0  0  0  0
    3.6885    4.8916    0.9610 H   0  0  0  0  0  0  0  0  0  0  0  0
    3.0804    3.3030    1.5189 H   0  0  0  0  0  0  0  0  0  0  0  0
    4.7094    1.5779    1.8609 H   0  0  0  0  0  0  0  0  0  0  0  0
    6.9955    0.6272    1.3830 H   0  0  0  0  0  0  0  0  0  0  0  0
    8.4703    1.8132   -0.3140 H   0  0  0  0  0  0  0  0  0  0  0  0
    7.5662    3.8685   -1.4533 H   0  0  0  0  0  0  0  0  0  0  0  0
    3.2304   -4.2998    1.3868 H   0  0  0  0  0  0  0  0  0  0  0  0
    2.6545   -2.6625    0.9085 H   0  0  0  0  0  0  0  0  0  0  0  0
    3.6787   -4.8980   -0.9626 H   0  0  0  0  0  0  0  0  0  0  0  0
    3.0715   -3.3083   -1.5186 H   0  0  0  0  0  0  0  0  0  0  0  0
    4.7000   -1.5818   -1.8566 H   0  0  0  0  0  0  0  0  0  0  0  0
    6.9867   -0.6328   -1.3782 H   0  0  0  0  0  0  0  0  0  0  0  0
    8.4628   -1.8238    0.3141 H   0  0  0  0  0  0  0  0  0  0  0  0
    7.5595   -3.8821    1.4485 H   0  0  0  0  0  0  0  0  0  0  0  0
  1 36  1  0  0  0  0
  2  1  2  0  0  0  0
  2 44  1  0  0  0  0
  3  4  1  0  0  0  0
  3  2  1  0  0  0  0
  4 45  1  0  0  0  0
  5  4  2  0  0  0  0
  5  6  1  0  0  0  0
  6 48  1  0  0  0  0
  7  5  1  0  0  0  0
  8  9  1  0  0  0  0
  8  7  2  0  0  0  0
  9  3  2  0  0  0  0
 10  9  1  0  0  0  0
 11 12  1  0  0  0  0
 11  8  1  0  0  0  0
 13 12  1  0  0  0  0
 13 14  1  0  0  0  0
 14 53  1  0  0  0  0
 14 15  1  0  0  0  0
 15 55  1  0  0  0  0
 15 56  1  0  0  0  0
 16 17  1  0  0  0  0
 16 15  1  0  0  0  0
 17 57  1  0  0  0  0
 18 17  1  0  0  0  0
 19 58  1  0  0  0  0
 19 18  2  0  0  0  0
 20 19  1  0  0  0  0
 21 20  1  0  0  0  0
 21 60  1  0  0  0  0
 21 59  1  0  0  0  0
 22 23  1  0  0  0  0
 22 20  2  0  0  0  0
 23 24  2  0  0  0  0
 24 18  1  0  0  0  0
 24 25  1  0  0  0  0
 26 23  1  0  0  0  0
 27 26  2  0  0  0  0
 28 27  1  0  0  0  0
 28 29  1  0  0  0  0
 29 66  1  0  0  0  0
 29 67  1  0  0  0  0
 30 29  1  0  0  0  0
 30 31  1  0  0  0  0
 31 68  1  0  0  0  0
 32 31  2  0  0  0  0
 32 69  1  0  0  0  0
 33 32  1  0  0  0  0
 34 35  1  0  0  0  0
 34 33  2  0  0  0  0
 35 30  2  0  0  0  0
 36 73  1  0  0  0  0
 36 72  1  0  0  0  0
 37 38  1  0  0  0  0
 37 36  1  0  0  0  0
 38 43  1  0  0  0  0
 39 40  1  0  0  0  0
 39 38  2  0  0  0  0
 40 41  2  0  0  0  0
 41 78  1  0  0  0  0
 41 42  1  0  0  0  0
 42 79  1  0  0  0  0
 43 42  2  0  0  0  0
 46  6  1  0  0  0  0
 47  6  1  0  0  0  0
 49  7  1  0  0  0  0
 50 11  1  0  0  0  0
 51 13  1  0  0  0  0
 52 13  1  0  0  0  0
 54 14  1  0  0  0  0
 61 21  1  0  0  0  0
 62 22  1  0  0  0  0
 63 26  1  0  0  0  0
 64 28  1  0  0  0  0
 65 28  1  0  0  0  0
 70 33  1  0  0  0  0
 71 34  1  0  0  0  0
 74 37  1  0  0  0  0
 75 37  1  0  0  0  0
 76 39  1  0  0  0  0
 77 40  1  0  0  0  0
M  END
