1,2,3,4
 OpenBabel05122313063D

 43 43  0  0  0  0  0  0  0  0999 V2000
   -1.5290   -1.7012    0.2715 S   0  0  0  0  0  1  0  0  0  0  0  0
    1.5857   -1.8061    0.2435 S   0  0  0  0  0  1  0  0  0  0  0  0
   -1.3585    1.2185    0.0308 N   0  0  0  0  0  0  0  0  0  0  0  0
    1.2663    1.1064    0.5704 N   0  0  0  0  0  0  0  0  0  0  0  0
    3.0827   -0.6678    0.2415 C   0  0  0  0  0  0  0  0  0  0  0  0
    2.6199    0.5731    1.0086 C   0  0  0  0  0  0  0  0  0  0  0  0
   -3.1123   -0.6713    0.2403 C   0  0  0  0  0  0  0  0  0  0  0  0
   -2.7671    0.7572   -0.2169 C   0  0  0  0  0  0  0  0  0  0  0  0
   -1.0914    2.4136   -0.8457 C   0  0  0  0  0  0  0  0  0  0  0  0
    0.1822    3.1599   -0.4672 C   0  0  0  0  0  0  0  0  0  0  0  0
    1.4371    2.3050   -0.3298 C   0  0  0  0  0  0  0  0  0  0  0  0
    0.4321    1.4245    1.7788 C   0  0  0  0  0  0  0  0  0  0  0  0
   -1.0799    1.5363    1.4599 C   0  0  0  0  0  0  0  0  0  0  0  0
    3.5229   -0.3781   -1.1969 C   0  0  0  0  0  0  0  0  0  0  0  0
    4.2019   -1.3657    1.0239 C   0  0  0  0  0  0  0  0  0  0  0  0
   -4.0497   -1.3132   -0.7950 C   0  0  0  0  0  0  0  0  0  0  0  0
   -3.7461   -0.7589    1.6373 C   0  0  0  0  0  0  0  0  0  0  0  0
    2.5400    0.3097    2.0796 H   0  0  0  0  0  0  0  0  0  0  0  0
    3.3624    1.3942    0.9209 H   0  0  0  0  0  0  0  0  0  0  0  0
   -2.8953    0.8193   -1.3146 H   0  0  0  0  0  0  0  0  0  0  0  0
   -3.4658    1.4937    0.2394 H   0  0  0  0  0  0  0  0  0  0  0  0
   -1.9592    3.1045   -0.7612 H   0  0  0  0  0  0  0  0  0  0  0  0
   -1.0555    2.0475   -1.8902 H   0  0  0  0  0  0  0  0  0  0  0  0
    0.0210    3.7418    0.4630 H   0  0  0  0  0  0  0  0  0  0  0  0
    0.3762    3.9197   -1.2507 H   0  0  0  0  0  0  0  0  0  0  0  0
    1.7882    1.9285   -1.3100 H   0  0  0  0  0  0  0  0  0  0  0  0
    2.2534    2.9328    0.0869 H   0  0  0  0  0  0  0  0  0  0  0  0
    0.8216    2.3443    2.2646 H   0  0  0  0  0  0  0  0  0  0  0  0
    0.5857    0.5861    2.4823 H   0  0  0  0  0  0  0  0  0  0  0  0
   -1.6257    0.7990    2.0720 H   0  0  0  0  0  0  0  0  0  0  0  0
   -1.4887    2.5397    1.7023 H   0  0  0  0  0  0  0  0  0  0  0  0
    2.7100    0.0433   -1.8212 H   0  0  0  0  0  0  0  0  0  0  0  0
    3.8468   -1.3135   -1.6928 H   0  0  0  0  0  0  0  0  0  0  0  0
    4.3794    0.3286   -1.2047 H   0  0  0  0  0  0  0  0  0  0  0  0
    5.0989   -0.7148    1.0819 H   0  0  0  0  0  0  0  0  0  0  0  0
    4.5008   -2.3021    0.5141 H   0  0  0  0  0  0  0  0  0  0  0  0
    3.8852   -1.6201    2.0548 H   0  0  0  0  0  0  0  0  0  0  0  0
   -4.9978   -0.7387   -0.8645 H   0  0  0  0  0  0  0  0  0  0  0  0
   -4.3065   -2.3493   -0.5006 H   0  0  0  0  0  0  0  0  0  0  0  0
   -3.5817   -1.3459   -1.7986 H   0  0  0  0  0  0  0  0  0  0  0  0
   -3.9350   -1.8167    1.9063 H   0  0  0  0  0  0  0  0  0  0  0  0
   -3.1147   -0.3282    2.4388 H   0  0  0  0  0  0  0  0  0  0  0  0
   -4.7234   -0.2329    1.6471 H   0  0  0  0  0  0  0  0  0  0  0  0
  3 13  1  0  0  0  0
  4  6  1  0  0  0  0
  4 12  1  0  0  0  0
  5  2  1  0  0  0  0
  5  6  1  0  0  0  0
  5 15  1  0  0  0  0
  6 18  1  0  0  0  0
  7  1  1  0  0  0  0
  7 17  1  0  0  0  0
  8  3  1  0  0  0  0
  8 21  1  0  0  0  0
  8  7  1  0  0  0  0
  9 22  1  0  0  0  0
  9 10  1  0  0  0  0
  9  3  1  0  0  0  0
 10 11  1  0  0  0  0
 10 24  1  0  0  0  0
 11 27  1  0  0  0  0
 11  4  1  0  0  0  0
 12 28  1  0  0  0  0
 12 29  1  0  0  0  0
 13 31  1  0  0  0  0
 13 12  1  0  0  0  0
 13 30  1  0  0  0  0
 14  5  1  0  0  0  0
 15 35  1  0  0  0  0
 15 37  1  0  0  0  0
 16 39  1  0  0  0  0
 16  7  1  0  0  0  0
 17 43  1  0  0  0  0
 17 41  1  0  0  0  0
 17 42  1  0  0  0  0
 19  6  1  0  0  0  0
 20  8  1  0  0  0  0
 23  9  1  0  0  0  0
 25 10  1  0  0  0  0
 26 11  1  0  0  0  0
 32 14  1  0  0  0  0
 33 14  1  0  0  0  0
 34 14  1  0  0  0  0
 36 15  1  0  0  0  0
 38 16  1  0  0  0  0
 40 16  1  0  0  0  0
M  END
