1,2,3,4
 OpenBabel05122313063D

 48 50  0  0  1  0  0  0  0  0999 V2000
   -0.5649    2.7487   -1.0552 S   0  0  0  0  0  0  0  0  0  0  0  0
   -1.5896   -0.8132   -1.9783 S   0  0  0  0  0  0  0  0  0  0  0  0
    0.2567    0.7959    1.1502 N   0  0  0  0  0  2  0  0  0  0  0  0
   -3.0105    0.0225    0.5730 N   0  0  0  0  0  2  0  0  0  0  0  0
    0.6806    2.2159   -2.3497 C   0  0  0  0  0  0  0  0  0  0  0  0
    0.0428    1.8137   -3.1654 H   0  0  0  0  0  0  0  0  0  0  0  0
    1.1708    3.1386   -2.7254 H   0  0  0  0  0  0  0  0  0  0  0  0
    1.6369    1.2446   -1.8746 C   0  0  0  0  0  0  0  0  0  0  0  0
    2.4438    0.4608   -1.3794 C   0  0  0  0  0  0  0  0  0  0  0  0
    3.3308   -0.4651   -0.7604 C   0  0  0  0  0  0  0  0  0  0  0  0
    2.8716   -1.7814   -0.4167 C   0  0  0  0  0  0  0  0  0  0  0  0
    1.5253   -2.1415   -0.7082 C   0  0  0  0  0  0  0  0  0  0  0  0
    0.3439   -2.3682   -0.9541 C   0  0  0  0  0  0  0  0  0  0  0  0
   -1.0605   -2.4635   -1.2844 C   0  0  0  0  0  0  0  0  0  0  0  0
   -1.6883   -2.6702   -0.3901 H   0  0  0  0  0  0  0  0  0  0  0  0
   -1.2689   -3.2456   -2.0454 H   0  0  0  0  0  0  0  0  0  0  0  0
    4.6577   -0.0958   -0.4403 C   0  0  0  0  0  0  0  0  0  0  0  0
    5.0055    0.9116   -0.7100 H   0  0  0  0  0  0  0  0  0  0  0  0
    5.5148   -0.9950    0.2046 C   0  0  0  0  0  0  0  0  0  0  0  0
    6.5453   -0.6922    0.4420 H   0  0  0  0  0  0  0  0  0  0  0  0
    5.0628   -2.2829    0.5408 C   0  0  0  0  0  0  0  0  0  0  0  0
    5.7383   -2.9912    1.0429 H   0  0  0  0  0  0  0  0  0  0  0  0
    3.7540   -2.6733    0.2318 C   0  0  0  0  0  0  0  0  0  0  0  0
    3.3967   -3.6808    0.4886 H   0  0  0  0  0  0  0  0  0  0  0  0
    0.5365    3.1120    0.3637 C   0  0  0  0  0  0  0  0  0  0  0  0
    1.3803    3.7414    0.0185 H   0  0  0  0  0  0  0  0  0  0  0  0
   -0.0908    3.7492    1.0244 H   0  0  0  0  0  0  0  0  0  0  0  0
    1.0306    1.9070    1.1393 C   0  0  1  0  0  3  0  0  0  0  0  0
    2.2307    1.9716    1.8654 C   0  0  0  0  0  0  0  0  0  0  0  0
    2.8437    2.8840    1.8293 H   0  0  0  0  0  0  0  0  0  0  0  0
    2.6386    0.8624    2.6177 C   0  0  0  0  0  0  0  0  0  0  0  0
    3.5845    0.8877    3.1783 H   0  0  0  0  0  0  0  0  0  0  0  0
    1.8236   -0.2783    2.6386 C   0  0  0  0  0  0  0  0  0  0  0  0
    2.1037   -1.1740    3.2101 H   0  0  0  0  0  0  0  0  0  0  0  0
    0.6421   -0.2654    1.8920 C   0  0  0  0  0  0  0  0  0  0  0  0
   -0.0213   -1.1432    1.8646 H   0  0  0  0  0  0  0  0  0  0  0  0
   -3.3949   -0.8846   -1.6662 C   0  0  0  0  0  0  0  0  0  0  0  0
   -3.7876    0.0033   -2.2081 H   0  0  0  0  0  0  0  0  0  0  0  0
   -3.8314   -1.7808   -2.1493 H   0  0  0  0  0  0  0  0  0  0  0  0
   -3.7628   -0.8005   -0.2021 C   0  0  2  0  0  3  0  0  0  0  0  0
   -4.8579   -1.5043    0.3216 C   0  0  0  0  0  0  0  0  0  0  0  0
   -5.4466   -2.1652   -0.3316 H   0  0  0  0  0  0  0  0  0  0  0  0
   -5.1923   -1.3482    1.6752 C   0  0  0  0  0  0  0  0  0  0  0  0
   -6.0460   -1.8931    2.1044 H   0  0  0  0  0  0  0  0  0  0  0  0
   -4.4172   -0.4895    2.4673 C   0  0  0  0  0  0  0  0  0  0  0  0
   -4.6397   -0.3352    3.5326 H   0  0  0  0  0  0  0  0  0  0  0  0
   -3.3365    0.1738    1.8761 C   0  0  0  0  0  0  0  0  0  0  0  0
   -2.6937    0.8515    2.4598 H   0  0  0  0  0  0  0  0  0  0  0  0
  1 25  1  0  0  0  0
  2 37  1  0  0  0  0
  2 14  1  0  0  0  0
  3 35  1  0  0  0  0
  4 47  1  0  0  0  0
  5  8  1  0  0  0  0
  5  1  1  0  0  0  0
  6  5  1  0  0  0  0
  7  5  1  0  0  0  0
  8  9  3  0  0  0  0
  9 10  1  0  0  0  0
 10 17  2  0  0  0  0
 10 11  1  0  0  0  0
 11 23  2  0  0  0  0
 12 11  1  0  0  0  0
 13 12  3  0  0  0  0
 14 13  1  0  0  0  0
 14 15  1  0  0  0  0
 16 14  1  0  0  0  0
 17 19  1  0  0  0  0
 18 17  1  0  0  0  0
 19 20  1  0  0  0  0
 19 21  2  0  0  0  0
 21 22  1  0  0  0  0
 23 24  1  0  0  0  0
 23 21  1  0  0  0  0
 25 27  1  0  0  0  0
 26 25  1  0  0  0  0
 28 25  1  1  0  0  0
 28  3  1  0  0  0  0
 28 29  1  0  0  0  0
 29 31  2  0  0  0  0
 30 29  1  0  0  0  0
 31 33  1  0  0  0  0
 31 32  1  0  0  0  0
 33 34  1  0  0  0  0
 35 33  2  0  0  0  0
 36 35  1  0  0  0  0
 38 37  1  0  0  0  0
 39 37  1  0  0  0  0
 40 37  1  6  0  0  0
 40 41  1  0  0  0  0
 40  4  1  0  0  0  0
 41 43  2  0  0  0  0
 42 41  1  0  0  0  0
 43 44  1  0  0  0  0
 43 45  1  0  0  0  0
 45 46  1  0  0  0  0
 47 48  1  0  0  0  0
 47 45  2  0  0  0  0
M  END
