1,2,3,5
 OpenBabel05122313063D

 36 35  0  0  0  0  0  0  0  0999 V2000
    1.6924   -1.7496    0.0229 S   0  0  0  0  0  1  0  0  0  0  0  0
   -1.6922   -1.7497   -0.0206 S   0  0  0  0  0  1  0  0  0  0  0  0
    1.2425    1.0164   -0.0006 N   0  0  0  0  0  2  0  0  0  0  0  0
    2.5764    0.8392   -0.0051 N   0  0  0  0  0  0  0  0  0  0  0  0
   -1.2425    1.0163    0.0008 N   0  0  0  0  0  2  0  0  0  0  0  0
   -2.5763    0.8391    0.0041 N   0  0  0  0  0  0  0  0  0  0  0  0
    4.2311   -0.7775   -0.0239 N   0  0  0  0  0  0  0  0  0  0  0  0
   -4.2311   -0.7775    0.0189 N   0  0  0  0  0  0  0  0  0  0  0  0
    0.7267    2.2465   -0.0001 C   0  0  0  0  0  0  0  0  0  0  0  0
   -0.7267    2.2465    0.0010 C   0  0  0  0  0  0  0  0  0  0  0  0
    1.6115    3.4508   -0.0026 C   0  0  0  0  0  0  0  0  0  0  0  0
    2.2866    3.4359    0.8782 H   0  0  0  0  0  0  0  0  0  0  0  0
    2.2735    3.4425   -0.8936 H   0  0  0  0  0  0  0  0  0  0  0  0
    1.0323    4.3912    0.0048 H   0  0  0  0  0  0  0  0  0  0  0  0
   -1.6115    3.4507    0.0034 C   0  0  0  0  0  0  0  0  0  0  0  0
   -1.0323    4.3911    0.0020 H   0  0  0  0  0  0  0  0  0  0  0  0
   -2.2823    3.4392   -0.8808 H   0  0  0  0  0  0  0  0  0  0  0  0
   -2.2779    3.4391    0.8910 H   0  0  0  0  0  0  0  0  0  0  0  0
    2.9056   -0.4542   -0.0048 C   0  0  0  0  0  0  0  0  0  0  0  0
   -2.9055   -0.4543    0.0034 C   0  0  0  0  0  0  0  0  0  0  0  0
    5.2561    0.2525    0.0020 C   0  0  0  0  0  0  0  0  0  0  0  0
    4.7717    1.2420   -0.0463 H   0  0  0  0  0  0  0  0  0  0  0  0
    5.8582    0.1804    0.9350 H   0  0  0  0  0  0  0  0  0  0  0  0
    5.9455    0.1291   -0.8613 H   0  0  0  0  0  0  0  0  0  0  0  0
    4.7070   -2.1453   -0.0004 C   0  0  0  0  0  0  0  0  0  0  0  0
    3.8600   -2.8423   -0.1340 H   0  0  0  0  0  0  0  0  0  0  0  0
    5.4405   -2.3067   -0.8196 H   0  0  0  0  0  0  0  0  0  0  0  0
    5.2130   -2.3758    0.9641 H   0  0  0  0  0  0  0  0  0  0  0  0
   -5.2561    0.2526   -0.0029 C   0  0  0  0  0  0  0  0  0  0  0  0
   -4.7711    1.2423    0.0339 H   0  0  0  0  0  0  0  0  0  0  0  0
   -5.8678    0.1737   -0.9289 H   0  0  0  0  0  0  0  0  0  0  0  0
   -5.9368    0.1356    0.8684 H   0  0  0  0  0  0  0  0  0  0  0  0
   -4.7079   -2.1450   -0.0003 C   0  0  0  0  0  0  0  0  0  0  0  0
   -5.2326   -2.3703   -0.9558 H   0  0  0  0  0  0  0  0  0  0  0  0
   -3.8588   -2.8428    0.1137 H   0  0  0  0  0  0  0  0  0  0  0  0
   -5.4256   -2.3104    0.8323 H   0  0  0  0  0  0  0  0  0  0  0  0
  2 20  1  0  0  0  0
  3  9  1  0  0  0  0
  4 19  2  0  0  0  0
  4  3  1  0  0  0  0
  5 10  1  0  0  0  0
  5  6  1  0  0  0  0
  7 19  1  0  0  0  0
  7 25  1  0  0  0  0
  7 21  1  0  0  0  0
  9 10  2  0  0  0  0
 10 15  1  0  0  0  0
 11  9  1  0  0  0  0
 11 14  1  0  0  0  0
 11 12  1  0  0  0  0
 13 11  1  0  0  0  0
 15 18  1  0  0  0  0
 16 15  1  0  0  0  0
 17 15  1  0  0  0  0
 19  1  1  0  0  0  0
 20  6  2  0  0  0  0
 20  8  1  0  0  0  0
 21 23  1  0  0  0  0
 22 21  1  0  0  0  0
 24 21  1  0  0  0  0
 25 28  1  0  0  0  0
 26 25  1  0  0  0  0
 27 25  1  0  0  0  0
 29  8  1  0  0  0  0
 29 30  1  0  0  0  0
 29 32  1  0  0  0  0
 31 29  1  0  0  0  0
 33  8  1  0  0  0  0
 33 35  1  0  0  0  0
 33 36  1  0  0  0  0
 34 33  1  0  0  0  0
M  END
