1,2,3,28
 OpenBabel05122313063D

 47 48  0  0  1  0  0  0  0  0999 V2000
   -1.5797   -1.8634    0.1195 S   0  0  0  0  0  1  0  0  0  0  0  0
   -1.4161    0.9601   -0.0443 N   0  0  0  0  0  2  0  0  0  0  0  0
    1.4162    0.9600   -0.0442 N   0  0  0  0  0  2  0  0  0  0  0  0
   -2.9191   -0.7434   -0.2242 C   0  0  0  0  0  0  0  0  0  0  0  0
   -2.7036    0.5393   -0.2797 N   0  0  0  0  0  0  0  0  0  0  0  0
   -5.3456   -0.3827   -0.7305 C   0  0  0  0  0  0  0  0  0  0  0  0
   -5.1405    0.6967   -0.7448 H   0  0  0  0  0  0  0  0  0  0  0  0
   -4.2751   -1.2712   -0.4698 C   0  0  0  0  0  0  0  0  0  0  0  0
    1.2642    2.3146   -0.1326 C   0  0  1  0  0  3  0  0  0  0  0  0
    2.5196    3.1348   -0.2694 C   0  0  0  0  0  0  0  0  0  0  0  0
    3.2490    2.8340    0.5069 H   0  0  0  0  0  0  0  0  0  0  0  0
    2.3220    4.2158   -0.1743 H   0  0  0  0  0  0  0  0  0  0  0  0
    3.0133    2.9272   -1.2402 H   0  0  0  0  0  0  0  0  0  0  0  0
   -6.6339   -0.8742   -0.9621 C   0  0  0  0  0  0  0  0  0  0  0  0
   -7.4575   -0.1721   -1.1625 H   0  0  0  0  0  0  0  0  0  0  0  0
   -4.5325   -2.6601   -0.4482 C   0  0  0  0  0  0  0  0  0  0  0  0
   -3.7075   -3.3598   -0.2464 H   0  0  0  0  0  0  0  0  0  0  0  0
   -5.8252   -3.1479   -0.6799 C   0  0  0  0  0  0  0  0  0  0  0  0
   -6.0092   -4.2325   -0.6591 H   0  0  0  0  0  0  0  0  0  0  0  0
   -1.2641    2.3146   -0.1332 C   0  0  0  0  0  0  0  0  0  0  0  0
    0.0001    2.9427   -0.1223 C   0  0  0  0  0  0  0  0  0  0  0  0
   -2.5194    3.1348   -0.2711 C   0  0  0  0  0  0  0  0  0  0  0  0
   -3.2491    2.8346    0.5052 H   0  0  0  0  0  0  0  0  0  0  0  0
   -3.0127    2.9264   -1.2419 H   0  0  0  0  0  0  0  0  0  0  0  0
   -2.3218    4.2158   -0.1768 H   0  0  0  0  0  0  0  0  0  0  0  0
   -6.8799   -2.2586   -0.9378 C   0  0  0  0  0  0  0  0  0  0  0  0
   -7.8951   -2.6428   -1.1198 H   0  0  0  0  0  0  0  0  0  0  0  0
    1.5796   -1.8634    0.1195 S   0  0  0  0  0  1  0  0  0  0  0  0
    2.7037    0.5393   -0.2795 N   0  0  0  0  0  0  0  0  0  0  0  0
    2.9191   -0.7434   -0.2242 C   0  0  0  0  0  0  0  0  0  0  0  0
    4.2750   -1.2713   -0.4698 C   0  0  0  0  0  0  0  0  0  0  0  0
    4.5324   -2.6603   -0.4482 C   0  0  0  0  0  0  0  0  0  0  0  0
    3.7074   -3.3599   -0.2464 H   0  0  0  0  0  0  0  0  0  0  0  0
    6.6338   -0.8744   -0.9623 C   0  0  0  0  0  0  0  0  0  0  0  0
    7.4575   -0.1724   -1.1627 H   0  0  0  0  0  0  0  0  0  0  0  0
    5.8250   -3.1481   -0.6800 C   0  0  0  0  0  0  0  0  0  0  0  0
    6.0090   -4.2327   -0.6591 H   0  0  0  0  0  0  0  0  0  0  0  0
    6.8798   -2.2588   -0.9380 C   0  0  0  0  0  0  0  0  0  0  0  0
    7.8949   -2.6431   -1.1200 H   0  0  0  0  0  0  0  0  0  0  0  0
    5.3456   -0.3828   -0.7306 C   0  0  0  0  0  0  0  0  0  0  0  0
    5.1405    0.6966   -0.7449 H   0  0  0  0  0  0  0  0  0  0  0  0
    0.0001    4.4740   -0.1904 C   0  0  0  0  0  0  0  0  0  0  0  0
   -0.0008    5.1530    0.8216 O   0  0  0  0  0  0  0  0  0  0  0  0
    0.0011    5.0734   -1.5835 C   0  0  0  0  0  0  0  0  0  0  0  0
    0.0016    6.1777   -1.5272 H   0  0  0  0  0  0  0  0  0  0  0  0
   -0.8845    4.7195   -2.1507 H   0  0  0  0  0  0  0  0  0  0  0  0
    0.8869    4.7187   -2.1500 H   0  0  0  0  0  0  0  0  0  0  0  0
  4  1  1  0  0  0  0
  5  4  2  0  0  0  0
  5  2  1  0  0  0  0
  6  8  1  0  0  0  0
  7  6  1  0  0  0  0
  8 16  2  0  0  0  0
  8  4  1  0  0  0  0
  9 21  1  6  0  0  0
  9  3  1  0  0  0  0
 10 12  1  0  0  0  0
 10  9  1  0  0  0  0
 10 11  1  0  0  0  0
 13 10  1  0  0  0  0
 14 26  1  0  0  0  0
 14  6  2  0  0  0  0
 15 14  1  0  0  0  0
 16 17  1  0  0  0  0
 18 19  1  0  0  0  0
 18 16  1  0  0  0  0
 20 21  2  0  0  0  0
 20  2  1  0  0  0  0
 22 25  1  0  0  0  0
 22 20  1  0  0  0  0
 22 23  1  0  0  0  0
 24 22  1  0  0  0  0
 26 18  2  0  0  0  0
 27 26  1  0  0  0  0
 29 30  2  0  0  0  0
 29  3  1  0  0  0  0
 30 28  1  0  0  0  0
 31 32  1  0  0  0  0
 31 30  1  0  0  0  0
 32 33  1  0  0  0  0
 34 38  2  0  0  0  0
 34 40  1  0  0  0  0
 35 34  1  0  0  0  0
 36 37  1  0  0  0  0
 36 32  2  0  0  0  0
 38 36  1  0  0  0  0
 39 38  1  0  0  0  0
 40 31  2  0  0  0  0
 41 40  1  0  0  0  0
 42 21  1  0  0  0  0
 42 43  2  0  0  0  0
 44 45  1  0  0  0  0
 44 42  1  0  0  0  0
 46 44  1  0  0  0  0
 47 44  1  0  0  0  0
M  END
