1,2,3,4
 OpenBabel05122313063D

 38 39  0  0  0  0  0  0  0  0999 V2000
    1.6332   -1.6533   -0.0473 S   0  0  0  0  0  0  0  0  0  0  0  0
   -1.6332   -1.6533    0.0479 S   0  0  0  0  0  0  0  0  0  0  0  0
    1.2634    1.1620   -0.0991 N   0  0  0  0  0  2  0  0  0  0  0  0
   -1.2634    1.1620    0.1000 N   0  0  0  0  0  2  0  0  0  0  0  0
    1.6158   -2.1629   -1.8149 C   0  0  0  0  0  0  0  0  0  0  0  0
    1.6013   -1.2627   -2.4555 H   0  0  0  0  0  0  0  0  0  0  0  0
    0.6965   -2.7605   -1.9667 H   0  0  0  0  0  0  0  0  0  0  0  0
    2.5104   -2.7807   -2.0216 H   0  0  0  0  0  0  0  0  0  0  0  0
    2.9931   -0.4919    0.0028 C   0  0  0  0  0  0  0  0  0  0  0  0
    4.3284   -0.8983    0.0886 C   0  0  0  0  0  0  0  0  0  0  0  0
    4.5735   -1.9721    0.0744 H   0  0  0  0  0  0  0  0  0  0  0  0
    5.3380    0.0687    0.2113 C   0  0  0  0  0  0  0  0  0  0  0  0
    6.3931   -0.2321    0.2770 H   0  0  0  0  0  0  0  0  0  0  0  0
    4.9684    1.4276    0.2839 C   0  0  0  0  0  0  0  0  0  0  0  0
    5.7504    2.1931    0.4099 H   0  0  0  0  0  0  0  0  0  0  0  0
    3.6340    1.8377    0.2165 C   0  0  0  0  0  0  0  0  0  0  0  0
    3.3871    2.9057    0.2914 H   0  0  0  0  0  0  0  0  0  0  0  0
    2.5879    0.8796    0.0421 C   0  0  0  0  0  0  0  0  0  0  0  0
    0.7324    2.4788    0.2135 C   0  0  0  0  0  0  0  0  0  0  0  0
    1.2887    3.2854   -0.3169 H   0  0  0  0  0  0  0  0  0  0  0  0
    0.8157    2.6937    1.3077 H   0  0  0  0  0  0  0  0  0  0  0  0
   -0.7323    2.4789   -0.2122 C   0  0  0  0  0  0  0  0  0  0  0  0
   -1.2886    3.2854    0.3184 H   0  0  0  0  0  0  0  0  0  0  0  0
   -0.8156    2.6942   -1.3064 H   0  0  0  0  0  0  0  0  0  0  0  0
   -2.5878    0.8796   -0.0422 C   0  0  0  0  0  0  0  0  0  0  0  0
   -3.6338    1.8377   -0.2172 C   0  0  0  0  0  0  0  0  0  0  0  0
   -3.3868    2.9057   -0.2918 H   0  0  0  0  0  0  0  0  0  0  0  0
   -4.9681    1.4276   -0.2855 C   0  0  0  0  0  0  0  0  0  0  0  0
   -5.7501    2.1931   -0.4120 H   0  0  0  0  0  0  0  0  0  0  0  0
   -5.3378    0.0688   -0.2133 C   0  0  0  0  0  0  0  0  0  0  0  0
   -6.3928   -0.2321   -0.2798 H   0  0  0  0  0  0  0  0  0  0  0  0
   -4.3283   -0.8983   -0.0900 C   0  0  0  0  0  0  0  0  0  0  0  0
   -4.5734   -1.9721   -0.0760 H   0  0  0  0  0  0  0  0  0  0  0  0
   -2.9930   -0.4919   -0.0033 C   0  0  0  0  0  0  0  0  0  0  0  0
   -1.6165   -2.1619    1.8158 C   0  0  0  0  0  0  0  0  0  0  0  0
   -2.5112   -2.7795    2.0225 H   0  0  0  0  0  0  0  0  0  0  0  0
   -1.6022   -1.2613    2.4558 H   0  0  0  0  0  0  0  0  0  0  0  0
   -0.6973   -2.7593    1.9684 H   0  0  0  0  0  0  0  0  0  0  0  0
  1  9  1  0  0  0  0
  2 35  1  0  0  0  0
  3 18  1  0  0  0  0
  3 19  1  0  0  0  0
  5  1  1  0  0  0  0
  6  5  1  0  0  0  0
  7  5  1  0  0  0  0
  8  5  1  0  0  0  0
  9 18  2  0  0  0  0
  9 10  1  0  0  0  0
 10 12  2  0  0  0  0
 11 10  1  0  0  0  0
 12 13  1  0  0  0  0
 12 14  1  0  0  0  0
 14 15  1  0  0  0  0
 16 14  2  0  0  0  0
 16 17  1  0  0  0  0
 18 16  1  0  0  0  0
 19 21  1  0  0  0  0
 20 19  1  0  0  0  0
 22  4  1  0  0  0  0
 22 19  1  0  0  0  0
 22 23  1  0  0  0  0
 24 22  1  0  0  0  0
 25 34  1  0  0  0  0
 25  4  1  0  0  0  0
 26 25  2  0  0  0  0
 27 26  1  0  0  0  0
 28 26  1  0  0  0  0
 28 30  2  0  0  0  0
 29 28  1  0  0  0  0
 30 32  1  0  0  0  0
 31 30  1  0  0  0  0
 32 33  1  0  0  0  0
 32 34  2  0  0  0  0
 34  2  1  0  0  0  0
 35 38  1  0  0  0  0
 35 36  1  0  0  0  0
 35 37  1  0  0  0  0
M  END
