1,2,3,4
 OpenBabel05122313063D

 50 50  0  0  0  0  0  0  0  0999 V2000
    1.4256   -1.7827   -0.6798 S   0  0  0  0  0  1  0  0  0  0  0  0
   -1.4733   -1.7118   -0.1681 S   0  0  0  0  0  0  0  0  0  0  0  0
    1.5592    1.1470   -0.2000 N   0  0  0  0  0  0  0  0  0  0  0  0
   -1.3131    1.2931    0.3310 N   0  0  0  0  0  0  0  0  0  0  0  0
    2.9876   -0.9555   -0.0833 C   0  0  0  0  0  0  0  0  0  0  0  0
    2.8601    0.4840   -0.5794 C   0  0  0  0  0  0  0  0  0  0  0  0
    3.7010    1.1269   -0.2314 H   0  0  0  0  0  0  0  0  0  0  0  0
    2.8971    0.4553   -1.6847 H   0  0  0  0  0  0  0  0  0  0  0  0
    1.6766    1.8498    1.1265 C   0  0  0  0  0  0  0  0  0  0  0  0
    1.8267    2.9364    0.9520 H   0  0  0  0  0  0  0  0  0  0  0  0
    2.5958    1.4882    1.6204 H   0  0  0  0  0  0  0  0  0  0  0  0
    0.5031    1.6009    2.0726 C   0  0  0  0  0  0  0  0  0  0  0  0
    0.7082    2.1506    3.0162 H   0  0  0  0  0  0  0  0  0  0  0  0
    0.4833    0.5222    2.3421 H   0  0  0  0  0  0  0  0  0  0  0  0
   -0.8848    2.0096    1.5878 C   0  0  0  0  0  0  0  0  0  0  0  0
   -1.6151    1.7767    2.3859 H   0  0  0  0  0  0  0  0  0  0  0  0
   -0.9483    3.1060    1.4308 H   0  0  0  0  0  0  0  0  0  0  0  0
    1.2071    2.1015   -1.3035 C   0  0  0  0  0  0  0  0  0  0  0  0
    1.0663    1.4884   -2.2163 H   0  0  0  0  0  0  0  0  0  0  0  0
    2.0853    2.7634   -1.4835 H   0  0  0  0  0  0  0  0  0  0  0  0
   -0.0169    2.9753   -1.0563 C   0  0  0  0  0  0  0  0  0  0  0  0
   -0.1499    3.6077   -1.9576 H   0  0  0  0  0  0  0  0  0  0  0  0
    0.1806    3.6945   -0.2360 H   0  0  0  0  0  0  0  0  0  0  0  0
   -1.3349    2.2443   -0.8221 C   0  0  0  0  0  0  0  0  0  0  0  0
   -2.1411    2.9952   -0.6492 H   0  0  0  0  0  0  0  0  0  0  0  0
   -1.6142    1.6757   -1.7267 H   0  0  0  0  0  0  0  0  0  0  0  0
   -2.6571    0.6645    0.5315 C   0  0  0  0  0  0  0  0  0  0  0  0
   -3.4550    1.4276    0.3772 H   0  0  0  0  0  0  0  0  0  0  0  0
   -2.7130    0.3650    1.5951 H   0  0  0  0  0  0  0  0  0  0  0  0
   -2.9706   -0.5841   -0.3048 C   0  0  0  0  0  0  0  0  0  0  0  0
    4.1716   -1.6334   -0.7868 C   0  0  0  0  0  0  0  0  0  0  0  0
    5.1299   -1.1709   -0.4698 H   0  0  0  0  0  0  0  0  0  0  0  0
    4.2131   -2.7076   -0.5201 H   0  0  0  0  0  0  0  0  0  0  0  0
    4.0889   -1.5566   -1.8886 H   0  0  0  0  0  0  0  0  0  0  0  0
    3.1254   -1.1026    1.4367 C   0  0  0  0  0  0  0  0  0  0  0  0
    4.0237   -0.5657    1.8125 H   0  0  0  0  0  0  0  0  0  0  0  0
    2.2330   -0.7303    1.9749 H   0  0  0  0  0  0  0  0  0  0  0  0
    3.2341   -2.1723    1.7006 H   0  0  0  0  0  0  0  0  0  0  0  0
   -4.2240   -1.2677    0.2507 C   0  0  0  0  0  0  0  0  0  0  0  0
   -5.1117   -0.6316    0.0558 H   0  0  0  0  0  0  0  0  0  0  0  0
   -4.3955   -2.2402   -0.2506 H   0  0  0  0  0  0  0  0  0  0  0  0
   -4.1676   -1.4372    1.3436 H   0  0  0  0  0  0  0  0  0  0  0  0
   -3.1185   -0.3617   -1.8176 C   0  0  0  0  0  0  0  0  0  0  0  0
   -3.8434    0.4536   -2.0152 H   0  0  0  0  0  0  0  0  0  0  0  0
   -2.1560   -0.1090   -2.3043 H   0  0  0  0  0  0  0  0  0  0  0  0
   -3.4954   -1.2822   -2.3034 H   0  0  0  0  0  0  0  0  0  0  0  0
   -1.4913   -2.3146    1.5539 C   0  0  0  0  0  0  0  0  0  0  0  0
   -2.3080   -3.0493    1.6837 H   0  0  0  0  0  0  0  0  0  0  0  0
   -0.5111   -2.8150    1.6693 H   0  0  0  0  0  0  0  0  0  0  0  0
   -1.5762   -1.4926    2.2897 H   0  0  0  0  0  0  0  0  0  0  0  0
  1  5  1  0  0  0  0
  2 47  1  0  0  0  0
  3  9  1  0  0  0  0
  4 27  1  0  0  0  0
  4 15  1  0  0  0  0
  5 35  1  0  0  0  0
  6  7  1  0  0  0  0
  6  3  1  0  0  0  0
  6  5  1  0  0  0  0
  8  6  1  0  0  0  0
  9 11  1  0  0  0  0
  9 12  1  0  0  0  0
 10  9  1  0  0  0  0
 12 14  1  0  0  0  0
 12 13  1  0  0  0  0
 15 12  1  0  0  0  0
 15 16  1  0  0  0  0
 17 15  1  0  0  0  0
 18 21  1  0  0  0  0
 18  3  1  0  0  0  0
 19 18  1  0  0  0  0
 20 18  1  0  0  0  0
 21 24  1  0  0  0  0
 21 23  1  0  0  0  0
 22 21  1  0  0  0  0
 24 25  1  0  0  0  0
 24  4  1  0  0  0  0
 26 24  1  0  0  0  0
 27 29  1  0  0  0  0
 28 27  1  0  0  0  0
 30  2  1  0  0  0  0
 30 39  1  0  0  0  0
 30 27  1  0  0  0  0
 31 33  1  0  0  0  0
 31 32  1  0  0  0  0
 31  5  1  0  0  0  0
 34 31  1  0  0  0  0
 35 38  1  0  0  0  0
 35 36  1  0  0  0  0
 35 37  1  0  0  0  0
 39 42  1  0  0  0  0
 40 39  1  0  0  0  0
 41 39  1  0  0  0  0
 43 30  1  0  0  0  0
 44 43  1  0  0  0  0
 45 43  1  0  0  0  0
 46 43  1  0  0  0  0
 47 49  1  0  0  0  0
 47 48  1  0  0  0  0
 47 50  1  0  0  0  0
M  END
