1,2,4,8
 OpenBabel05122313063D

 72 73  0  0  0  0  0  0  0  0999 V2000
    1.9035   -2.5162    0.1474 S   0  0  0  0  0  1  0  0  0  0  0  0
   -1.9032   -2.5164   -0.1475 S   0  0  0  0  0  1  0  0  0  0  0  0
    0.8600    3.6643    1.2014 N   0  0  0  0  0  0  0  0  0  0  0  0
    1.3068    0.3434    0.1094 N   0  0  0  0  0  2  0  0  0  0  0  0
    2.6196    0.1642    0.2854 N   0  0  0  0  0  0  0  0  0  0  0  0
    4.3208   -1.3582    0.5511 N   0  0  0  0  0  0  0  0  0  0  0  0
   -0.8607    3.6640   -1.2017 N   0  0  0  0  0  0  0  0  0  0  0  0
   -1.3068    0.3432   -0.1094 N   0  0  0  0  0  2  0  0  0  0  0  0
   -2.6196    0.1640   -0.2855 N   0  0  0  0  0  0  0  0  0  0  0  0
   -4.3206   -1.3586   -0.5511 N   0  0  0  0  0  0  0  0  0  0  0  0
    1.4804    4.8099    1.5034 C   0  0  0  0  0  0  0  0  0  0  0  0
    2.7426    5.1666    0.9988 C   0  0  0  0  0  0  0  0  0  0  0  0
    3.3847    4.2671    0.1344 C   0  0  0  0  0  0  0  0  0  0  0  0
    2.7513    3.0613   -0.1861 C   0  0  0  0  0  0  0  0  0  0  0  0
    1.4776    2.8011    0.3665 C   0  0  0  0  0  0  0  0  0  0  0  0
    0.7296    1.5532    0.0895 C   0  0  0  0  0  0  0  0  0  0  0  0
    2.9967   -1.1211    0.3374 C   0  0  0  0  0  0  0  0  0  0  0  0
    5.2448   -0.2269    0.6684 C   0  0  0  0  0  0  0  0  0  0  0  0
    4.7355    0.5663    1.2512 H   0  0  0  0  0  0  0  0  0  0  0  0
    6.1199   -0.5759    1.2552 H   0  0  0  0  0  0  0  0  0  0  0  0
    5.7042    0.3584   -0.6740 C   0  0  0  0  0  0  0  0  0  0  0  0
    4.7991    0.5948   -1.2713 H   0  0  0  0  0  0  0  0  0  0  0  0
    6.2674   -0.4089   -1.2461 H   0  0  0  0  0  0  0  0  0  0  0  0
    6.5571    1.6123   -0.4860 C   0  0  0  0  0  0  0  0  0  0  0  0
    5.9926    2.4011    0.0537 H   0  0  0  0  0  0  0  0  0  0  0  0
    6.8788    2.0335   -1.4592 H   0  0  0  0  0  0  0  0  0  0  0  0
    7.4733    1.3998    0.1041 H   0  0  0  0  0  0  0  0  0  0  0  0
    4.8515   -2.7187    0.5818 C   0  0  0  0  0  0  0  0  0  0  0  0
    5.2023   -3.3006   -0.7953 C   0  0  0  0  0  0  0  0  0  0  0  0
    5.9865   -2.6761   -1.2740 H   0  0  0  0  0  0  0  0  0  0  0  0
    4.2990   -3.2303   -1.4369 H   0  0  0  0  0  0  0  0  0  0  0  0
    5.6673   -4.7524   -0.6959 C   0  0  0  0  0  0  0  0  0  0  0  0
    6.5665   -4.8520   -0.0519 H   0  0  0  0  0  0  0  0  0  0  0  0
    5.9235   -5.1635   -1.6922 H   0  0  0  0  0  0  0  0  0  0  0  0
    4.8742   -5.3965   -0.2625 H   0  0  0  0  0  0  0  0  0  0  0  0
   -1.4814    4.8095   -1.5037 C   0  0  0  0  0  0  0  0  0  0  0  0
   -2.7435    5.1660   -0.9990 C   0  0  0  0  0  0  0  0  0  0  0  0
   -3.3853    4.2665   -0.1343 C   0  0  0  0  0  0  0  0  0  0  0  0
   -2.7517    3.0610    0.1862 C   0  0  0  0  0  0  0  0  0  0  0  0
   -1.4780    2.8008   -0.3665 C   0  0  0  0  0  0  0  0  0  0  0  0
   -0.7297    1.5531   -0.0895 C   0  0  0  0  0  0  0  0  0  0  0  0
   -2.9966   -1.1214   -0.3375 C   0  0  0  0  0  0  0  0  0  0  0  0
   -5.2446   -0.2272   -0.6683 C   0  0  0  0  0  0  0  0  0  0  0  0
   -5.7036    0.3581    0.6742 C   0  0  0  0  0  0  0  0  0  0  0  0
   -6.5565    1.6121    0.4865 C   0  0  0  0  0  0  0  0  0  0  0  0
   -5.9921    2.4009   -0.0535 H   0  0  0  0  0  0  0  0  0  0  0  0
   -6.8779    2.0334    1.4597 H   0  0  0  0  0  0  0  0  0  0  0  0
   -7.4728    1.3997   -0.1034 H   0  0  0  0  0  0  0  0  0  0  0  0
   -4.8514   -2.7191   -0.5818 C   0  0  0  0  0  0  0  0  0  0  0  0
   -5.2021   -3.3010    0.7953 C   0  0  0  0  0  0  0  0  0  0  0  0
   -5.6669   -4.7529    0.6959 C   0  0  0  0  0  0  0  0  0  0  0  0
   -6.5661   -4.8526    0.0520 H   0  0  0  0  0  0  0  0  0  0  0  0
   -5.9230   -5.1640    1.6923 H   0  0  0  0  0  0  0  0  0  0  0  0
   -4.8737   -5.3968    0.2625 H   0  0  0  0  0  0  0  0  0  0  0  0
    0.9435    5.4890    2.1904 H   0  0  0  0  0  0  0  0  0  0  0  0
    3.2054    6.1252    1.2767 H   0  0  0  0  0  0  0  0  0  0  0  0
    4.3713    4.5047   -0.2929 H   0  0  0  0  0  0  0  0  0  0  0  0
    3.2185    2.3302   -0.8565 H   0  0  0  0  0  0  0  0  0  0  0  0
    4.0960   -3.3677    1.0732 H   0  0  0  0  0  0  0  0  0  0  0  0
    5.7491   -2.7084    1.2353 H   0  0  0  0  0  0  0  0  0  0  0  0
   -0.9448    5.4886   -2.1909 H   0  0  0  0  0  0  0  0  0  0  0  0
   -3.2066    6.1245   -1.2769 H   0  0  0  0  0  0  0  0  0  0  0  0
   -4.3719    4.5040    0.2931 H   0  0  0  0  0  0  0  0  0  0  0  0
   -3.2186    2.3298    0.8569 H   0  0  0  0  0  0  0  0  0  0  0  0
   -4.7355    0.5659   -1.2513 H   0  0  0  0  0  0  0  0  0  0  0  0
   -6.1200   -0.5763   -1.2548 H   0  0  0  0  0  0  0  0  0  0  0  0
   -4.7984    0.5945    1.2713 H   0  0  0  0  0  0  0  0  0  0  0  0
   -6.2668   -0.4091    1.2466 H   0  0  0  0  0  0  0  0  0  0  0  0
   -5.7490   -2.7088   -1.2353 H   0  0  0  0  0  0  0  0  0  0  0  0
   -4.0959   -3.3681   -1.0733 H   0  0  0  0  0  0  0  0  0  0  0  0
   -5.9864   -2.6766    1.2740 H   0  0  0  0  0  0  0  0  0  0  0  0
   -4.2988   -3.2306    1.4369 H   0  0  0  0  0  0  0  0  0  0  0  0
  1 17  1  0  0  0  0
  3 11  1  0  0  0  0
  4  5  1  0  0  0  0
  5 17  2  0  0  0  0
  6 28  1  0  0  0  0
  6 18  1  0  0  0  0
  7 40  1  0  0  0  0
  8 41  1  0  0  0  0
  9  8  1  0  0  0  0
 10 42  1  0  0  0  0
 11 55  1  0  0  0  0
 12 56  1  0  0  0  0
 12 11  2  0  0  0  0
 13 12  1  0  0  0  0
 14 13  2  0  0  0  0
 14 15  1  0  0  0  0
 15  3  2  0  0  0  0
 16  4  1  0  0  0  0
 16 15  1  0  0  0  0
 17  6  1  0  0  0  0
 18 19  1  0  0  0  0
 18 20  1  0  0  0  0
 21 24  1  0  0  0  0
 21 18  1  0  0  0  0
 22 21  1  0  0  0  0
 23 21  1  0  0  0  0
 24 25  1  0  0  0  0
 24 27  1  0  0  0  0
 26 24  1  0  0  0  0
 28 59  1  0  0  0  0
 28 60  1  0  0  0  0
 29 32  1  0  0  0  0
 29 28  1  0  0  0  0
 30 29  1  0  0  0  0
 31 29  1  0  0  0  0
 32 35  1  0  0  0  0
 32 33  1  0  0  0  0
 34 32  1  0  0  0  0
 36  7  2  0  0  0  0
 36 37  1  0  0  0  0
 37 38  2  0  0  0  0
 38 39  1  0  0  0  0
 38 63  1  0  0  0  0
 39 64  1  0  0  0  0
 40 41  1  0  0  0  0
 40 39  2  0  0  0  0
 41 16  2  0  0  0  0
 42  9  2  0  0  0  0
 42  2  1  0  0  0  0
 43 10  1  0  0  0  0
 43 44  1  0  0  0  0
 44 68  1  0  0  0  0
 44 67  1  0  0  0  0
 45 44  1  0  0  0  0
 45 47  1  0  0  0  0
 46 45  1  0  0  0  0
 48 45  1  0  0  0  0
 49 10  1  0  0  0  0
 49 50  1  0  0  0  0
 50 71  1  0  0  0  0
 50 72  1  0  0  0  0
 51 50  1  0  0  0  0
 51 53  1  0  0  0  0
 52 51  1  0  0  0  0
 54 51  1  0  0  0  0
 57 13  1  0  0  0  0
 58 14  1  0  0  0  0
 61 36  1  0  0  0  0
 62 37  1  0  0  0  0
 65 43  1  0  0  0  0
 66 43  1  0  0  0  0
 69 49  1  0  0  0  0
 70 49  1  0  0  0  0
M  END
