1,2,9,10
 OpenBabel05122313063D

 45 44  0  0  0  0  0  0  0  0999 V2000
    0.2771    1.8040   -1.2419 S   0  0  0  0  0  5  0  0  0  0  0  0
   -0.0985   -1.4784   -1.7141 S   0  0  0  0  0  5  0  0  0  0  0  0
   -0.8650    2.1199   -2.1744 O   0  0  0  0  0  0  0  0  0  0  0  0
    1.6578    1.9341   -1.8520 O   0  0  0  0  0  0  0  0  0  0  0  0
   -1.3027   -1.3154   -2.6095 O   0  0  0  0  0  0  0  0  0  0  0  0
    1.2205   -1.6522   -2.4278 O   0  0  0  0  0  0  0  0  0  0  0  0
    0.5986    1.6309    3.8356 O   0  0  0  0  0  0  0  0  0  0  0  0
    0.1991   -2.7909    3.1965 O   0  0  0  0  0  0  0  0  0  0  0  0
    0.3199    1.1462    1.6173 N   0  0  0  0  0  2  0  0  0  0  0  0
    0.0402   -1.6674    1.2104 N   0  0  0  0  0  2  0  0  0  0  0  0
    0.2326    3.1174    0.1410 C   0  0  0  0  0  0  0  0  0  0  0  0
    0.9430    2.4216    1.2996 C   0  0  0  0  0  0  0  0  0  0  0  0
    0.9815    4.3361   -0.3852 C   0  0  0  0  0  0  0  0  0  0  0  0
   -1.2244    3.4316    0.4612 C   0  0  0  0  0  0  0  0  0  0  0  0
   -0.3692   -3.1029   -0.7478 C   0  0  0  0  0  0  0  0  0  0  0  0
    0.4430   -2.8861    0.5261 C   0  0  0  0  0  0  0  0  0  0  0  0
   -1.8593   -3.2489   -0.4643 C   0  0  0  0  0  0  0  0  0  0  0  0
    0.1714   -4.2270   -1.6230 C   0  0  0  0  0  0  0  0  0  0  0  0
    0.2196    0.8483    2.9383 C   0  0  0  0  0  0  0  0  0  0  0  0
   -0.4750   -0.4770    3.3515 C   0  0  0  0  0  0  0  0  0  0  0  0
   -0.0223   -1.7358    2.5650 C   0  0  0  0  0  0  0  0  0  0  0  0
   -0.1954   -0.7187    4.8429 C   0  0  0  0  0  0  0  0  0  0  0  0
   -2.0005   -0.3063    3.1628 C   0  0  0  0  0  0  0  0  0  0  0  0
    0.9141    3.0578    2.2106 H   0  0  0  0  0  0  0  0  0  0  0  0
    2.0208    2.2940    1.0345 H   0  0  0  0  0  0  0  0  0  0  0  0
    0.9834    5.1373    0.3840 H   0  0  0  0  0  0  0  0  0  0  0  0
    0.4897    4.7283   -1.2985 H   0  0  0  0  0  0  0  0  0  0  0  0
    2.0265    4.0810   -0.6439 H   0  0  0  0  0  0  0  0  0  0  0  0
   -1.2681    4.2676    1.1912 H   0  0  0  0  0  0  0  0  0  0  0  0
   -1.7725    3.7189   -0.4573 H   0  0  0  0  0  0  0  0  0  0  0  0
   -1.7234    2.5580    0.9213 H   0  0  0  0  0  0  0  0  0  0  0  0
    1.5275   -2.8618    0.2581 H   0  0  0  0  0  0  0  0  0  0  0  0
    0.3042   -3.7389    1.2251 H   0  0  0  0  0  0  0  0  0  0  0  0
   -2.0462   -4.2256    0.0309 H   0  0  0  0  0  0  0  0  0  0  0  0
   -2.2090   -2.4529    0.2207 H   0  0  0  0  0  0  0  0  0  0  0  0
   -2.4415   -3.1973   -1.4047 H   0  0  0  0  0  0  0  0  0  0  0  0
    0.0746   -5.1985   -1.0933 H   0  0  0  0  0  0  0  0  0  0  0  0
    1.2349   -4.0510   -1.8734 H   0  0  0  0  0  0  0  0  0  0  0  0
   -0.3969   -4.2873   -2.5733 H   0  0  0  0  0  0  0  0  0  0  0  0
   -0.7048   -1.6427    5.1733 H   0  0  0  0  0  0  0  0  0  0  0  0
   -0.5350    0.1530    5.4321 H   0  0  0  0  0  0  0  0  0  0  0  0
    0.8883   -0.8478    5.0253 H   0  0  0  0  0  0  0  0  0  0  0  0
   -2.5297   -1.2192    3.5077 H   0  0  0  0  0  0  0  0  0  0  0  0
   -2.3622    0.5562    3.7610 H   0  0  0  0  0  0  0  0  0  0  0  0
   -2.2672   -0.1307    2.1070 H   0  0  0  0  0  0  0  0  0  0  0  0
  1 11  1  0  0  0  0
  2 15  1  0  0  0  0
  3  1  2  0  0  0  0
  4  1  2  0  0  0  0
  5  2  2  0  0  0  0
  6  2  2  0  0  0  0
  9 19  1  0  0  0  0
 10 21  1  0  0  0  0
 11 14  1  0  0  0  0
 11 12  1  0  0  0  0
 12  9  1  0  0  0  0
 12 24  1  0  0  0  0
 13 11  1  0  0  0  0
 13 26  1  0  0  0  0
 14 31  1  0  0  0  0
 14 29  1  0  0  0  0
 15 17  1  0  0  0  0
 15 16  1  0  0  0  0
 16 10  1  0  0  0  0
 16 33  1  0  0  0  0
 17 34  1  0  0  0  0
 17 35  1  0  0  0  0
 18 37  1  0  0  0  0
 18 15  1  0  0  0  0
 19 20  1  0  0  0  0
 19  7  2  0  0  0  0
 20 22  1  0  0  0  0
 21  8  2  0  0  0  0
 21 20  1  0  0  0  0
 22 42  1  0  0  0  0
 22 40  1  0  0  0  0
 22 41  1  0  0  0  0
 23 20  1  0  0  0  0
 23 43  1  0  0  0  0
 23 44  1  0  0  0  0
 25 12  1  0  0  0  0
 27 13  1  0  0  0  0
 28 13  1  0  0  0  0
 30 14  1  0  0  0  0
 32 16  1  0  0  0  0
 36 17  1  0  0  0  0
 38 18  1  0  0  0  0
 39 18  1  0  0  0  0
 45 23  1  0  0  0  0
M  END
