1,8,9,16
 OpenBabel05122313063D

 60 63  0  0  0  0  0  0  0  0999 V2000
   -1.2593   -0.6537   -0.5971 N   0  0  0  0  0  2  0  0  0  0  0  0
   -2.5764   -0.6603   -0.5341 C   0  0  0  0  0  3  0  0  0  0  0  0
   -3.3964    0.3278    0.0663 C   0  0  0  0  0  0  0  0  0  0  0  0
   -4.8343    0.3629    0.2205 C   0  0  0  0  0  0  0  0  0  0  0  0
   -5.2312    1.5621    0.6578 N   0  0  0  0  0  0  0  0  0  0  0  0
   -4.1023    2.3099    0.7801 N   0  0  0  0  0  0  0  0  0  0  0  0
   -2.9610    1.6251    0.4581 C   0  0  0  0  0  0  0  0  0  0  0  0
   -1.3868    2.3101    0.5126 S   0  0  0  0  0  1  0  0  0  0  0  0
    1.2593   -0.6536    0.5972 N   0  0  0  0  0  2  0  0  0  0  0  0
    2.5764   -0.6603    0.5341 C   0  0  0  0  0  3  0  0  0  0  0  0
    3.3964    0.3278   -0.0663 C   0  0  0  0  0  0  0  0  0  0  0  0
    4.8343    0.3629   -0.2205 C   0  0  0  0  0  0  0  0  0  0  0  0
    5.2312    1.5621   -0.6578 N   0  0  0  0  0  0  0  0  0  0  0  0
    4.1022    2.3099   -0.7801 N   0  0  0  0  0  0  0  0  0  0  0  0
    2.9609    1.6251   -0.4582 C   0  0  0  0  0  0  0  0  0  0  0  0
    1.3868    2.3100   -0.5127 S   0  0  0  0  0  1  0  0  0  0  0  0
   -4.1762    3.6681    1.2705 C   0  0  0  0  0  0  0  0  0  0  0  0
    4.1761    3.6681   -1.2705 C   0  0  0  0  0  0  0  0  0  0  0  0
   -0.6749   -1.7806   -1.3570 C   0  0  0  0  0  0  0  0  0  0  0  0
   -0.5578   -3.0649   -0.5243 C   0  0  0  0  0  0  0  0  0  0  0  0
    0.5578   -3.0649    0.5245 C   0  0  0  0  0  0  0  0  0  0  0  0
    0.6749   -1.7805    1.3572 C   0  0  0  0  0  0  0  0  0  0  0  0
   -5.8208   -0.6980   -0.0373 C   0  0  0  0  0  0  0  0  0  0  0  0
   -7.1340   -0.3518   -0.4333 C   0  0  0  0  0  0  0  0  0  0  0  0
   -8.0901   -1.3434   -0.6798 C   0  0  0  0  0  0  0  0  0  0  0  0
   -7.7576   -2.7019   -0.5385 C   0  0  0  0  0  0  0  0  0  0  0  0
   -6.4624   -3.0581   -0.1326 C   0  0  0  0  0  0  0  0  0  0  0  0
   -5.5036   -2.0667    0.1217 C   0  0  0  0  0  0  0  0  0  0  0  0
    5.8208   -0.6980    0.0373 C   0  0  0  0  0  0  0  0  0  0  0  0
    7.1340   -0.3518    0.4332 C   0  0  0  0  0  0  0  0  0  0  0  0
    8.0902   -1.3433    0.6797 C   0  0  0  0  0  0  0  0  0  0  0  0
    7.7576   -2.7018    0.5384 C   0  0  0  0  0  0  0  0  0  0  0  0
    6.4625   -3.0581    0.1325 C   0  0  0  0  0  0  0  0  0  0  0  0
    5.5036   -2.0667   -0.1218 C   0  0  0  0  0  0  0  0  0  0  0  0
   -3.1058   -1.4927   -1.0393 H   0  0  0  0  0  0  0  0  0  0  0  0
   -5.2019    4.0370    1.0948 H   0  0  0  0  0  0  0  0  0  0  0  0
   -3.9460    3.7186    2.3557 H   0  0  0  0  0  0  0  0  0  0  0  0
    5.2018    4.0370   -1.0949 H   0  0  0  0  0  0  0  0  0  0  0  0
    0.3169   -1.4698   -1.7394 H   0  0  0  0  0  0  0  0  0  0  0  0
   -0.4055   -3.9204   -1.2159 H   0  0  0  0  0  0  0  0  0  0  0  0
    1.5398   -3.2417    0.0329 H   0  0  0  0  0  0  0  0  0  0  0  0
   -0.3169   -1.4697    1.7396 H   0  0  0  0  0  0  0  0  0  0  0  0
   -7.3813    0.7137   -0.5446 H   0  0  0  0  0  0  0  0  0  0  0  0
   -8.5094   -3.4805   -0.7377 H   0  0  0  0  0  0  0  0  0  0  0  0
   -4.5073   -2.3560    0.4875 H   0  0  0  0  0  0  0  0  0  0  0  0
    9.1060   -1.0554    0.9911 H   0  0  0  0  0  0  0  0  0  0  0  0
    6.1987   -4.1183   -0.0021 H   0  0  0  0  0  0  0  0  0  0  0  0
    3.1058   -1.4927    1.0392 H   0  0  0  0  0  0  0  0  0  0  0  0
   -3.4423    4.2941    0.7258 H   0  0  0  0  0  0  0  0  0  0  0  0
    3.9459    3.7186   -2.3557 H   0  0  0  0  0  0  0  0  0  0  0  0
    3.4422    4.2941   -0.7258 H   0  0  0  0  0  0  0  0  0  0  0  0
   -1.3141   -1.9774   -2.2443 H   0  0  0  0  0  0  0  0  0  0  0  0
   -1.5398   -3.2417   -0.0326 H   0  0  0  0  0  0  0  0  0  0  0  0
    0.4055   -3.9203    1.2161 H   0  0  0  0  0  0  0  0  0  0  0  0
    1.3142   -1.9773    2.2445 H   0  0  0  0  0  0  0  0  0  0  0  0
   -9.1060   -1.0554   -0.9912 H   0  0  0  0  0  0  0  0  0  0  0  0
   -6.1986   -4.1183    0.0020 H   0  0  0  0  0  0  0  0  0  0  0  0
    7.3813    0.7137    0.5445 H   0  0  0  0  0  0  0  0  0  0  0  0
    8.5095   -3.4804    0.7376 H   0  0  0  0  0  0  0  0  0  0  0  0
    4.5074   -2.3559   -0.4877 H   0  0  0  0  0  0  0  0  0  0  0  0
  1  2  1  0  0  0  0
  2  3  1  0  0  0  0
  3  4  1  0  0  0  0
  3  7  2  0  0  0  0
  4  5  2  0  0  0  0
  5  6  1  0  0  0  0
  6 17  1  0  0  0  0
  7  8  1  0  0  0  0
  7  6  1  0  0  0  0
  9 22  1  0  0  0  0
 10  9  1  0  0  0  0
 10 48  1  0  0  0  0
 11 10  1  0  0  0  0
 12 11  1  0  0  0  0
 12 29  1  0  0  0  0
 13 12  2  0  0  0  0
 14 13  1  0  0  0  0
 14 15  1  0  0  0  0
 15 11  2  0  0  0  0
 16 15  1  0  0  0  0
 17 37  1  0  0  0  0
 18 38  1  0  0  0  0
 18 14  1  0  0  0  0
 18 51  1  0  0  0  0
 19  1  1  0  0  0  0
 19 20  1  0  0  0  0
 20 53  1  0  0  0  0
 20 21  1  0  0  0  0
 21 54  1  0  0  0  0
 21 22  1  0  0  0  0
 22 42  1  0  0  0  0
 22 55  1  0  0  0  0
 23 28  1  0  0  0  0
 23  4  1  0  0  0  0
 24 23  2  0  0  0  0
 25 26  2  0  0  0  0
 25 24  1  0  0  0  0
 26 27  1  0  0  0  0
 27 57  1  0  0  0  0
 27 28  2  0  0  0  0
 28 45  1  0  0  0  0
 29 30  1  0  0  0  0
 30 58  1  0  0  0  0
 30 31  2  0  0  0  0
 31 46  1  0  0  0  0
 32 31  1  0  0  0  0
 32 59  1  0  0  0  0
 33 32  2  0  0  0  0
 34 29  2  0  0  0  0
 34 33  1  0  0  0  0
 35  2  1  0  0  0  0
 36 17  1  0  0  0  0
 39 19  1  0  0  0  0
 40 20  1  0  0  0  0
 41 21  1  0  0  0  0
 43 24  1  0  0  0  0
 44 26  1  0  0  0  0
 47 33  1  0  0  0  0
 49 17  1  0  0  0  0
 50 18  1  0  0  0  0
 52 19  1  0  0  0  0
 56 25  1  0  0  0  0
 60 34  1  0  0  0  0
M  END
