1,2,3,4
 OpenBabel05122313063D

 28 29  0  0  0  0  0  0  0  0999 V2000
    1.6201   -0.4261   -1.9572 S   0  0  0  0  0  1  0  0  0  0  0  0
   -1.6199   -0.4278   -1.9572 S   0  0  0  0  0  1  0  0  0  0  0  0
   -1.2479   -0.9767    0.7896 N   0  0  0  0  0  2  0  0  0  0  0  0
    1.2478   -0.9766    0.7895 N   0  0  0  0  0  2  0  0  0  0  0  0
   -4.3179   -0.4610   -1.1702 C   0  0  0  0  0  0  0  0  0  0  0  0
    0.7079   -1.5470    1.8766 C   0  0  0  0  0  0  0  0  0  0  0  0
   -2.9676   -0.5925   -0.8098 C   0  0  0  0  0  0  0  0  0  0  0  0
   -0.7078   -1.5470    1.8766 C   0  0  0  0  0  0  0  0  0  0  0  0
    2.9676   -0.5918   -0.8099 C   0  0  0  0  0  0  0  0  0  0  0  0
    2.6338   -0.8870    0.5386 C   0  0  0  0  0  0  0  0  0  0  0  0
    4.9904   -0.8957    1.1346 C   0  0  0  0  0  0  0  0  0  0  0  0
   -3.6424   -1.0322    1.5077 C   0  0  0  0  0  0  0  0  0  0  0  0
    4.3180   -0.4604   -1.1702 C   0  0  0  0  0  0  0  0  0  0  0  0
    3.6424   -1.0328    1.5074 C   0  0  0  0  0  0  0  0  0  0  0  0
   -2.6338   -0.8871    0.5388 C   0  0  0  0  0  0  0  0  0  0  0  0
   -4.9904   -0.8949    1.1348 C   0  0  0  0  0  0  0  0  0  0  0  0
   -5.3248   -0.6132   -0.1994 C   0  0  0  0  0  0  0  0  0  0  0  0
    5.3248   -0.6134   -0.1995 C   0  0  0  0  0  0  0  0  0  0  0  0
    6.3809   -0.5061   -0.4903 H   0  0  0  0  0  0  0  0  0  0  0  0
    4.5750   -0.2394   -2.2171 H   0  0  0  0  0  0  0  0  0  0  0  0
   -4.5748   -0.2405   -2.2172 H   0  0  0  0  0  0  0  0  0  0  0  0
   -1.3157   -2.0433    2.6495 H   0  0  0  0  0  0  0  0  0  0  0  0
   -3.3806   -1.2375    2.5563 H   0  0  0  0  0  0  0  0  0  0  0  0
    1.3159   -2.0433    2.6493 H   0  0  0  0  0  0  0  0  0  0  0  0
    3.3806   -1.2387    2.5559 H   0  0  0  0  0  0  0  0  0  0  0  0
   -6.3808   -0.5059   -0.4903 H   0  0  0  0  0  0  0  0  0  0  0  0
   -5.7797   -1.0050    1.8930 H   0  0  0  0  0  0  0  0  0  0  0  0
    5.7797   -1.0063    1.8927 H   0  0  0  0  0  0  0  0  0  0  0  0
  1  9  1  0  0  0  0
  2  7  1  0  0  0  0
  3  8  1  0  0  0  0
  4  6  1  0  0  0  0
  5  7  2  0  0  0  0
  5 17  1  0  0  0  0
  6  8  2  0  0  0  0
  6 24  1  0  0  0  0
  7 15  1  0  0  0  0
  8 22  1  0  0  0  0
  9 10  1  0  0  0  0
 10  4  1  0  0  0  0
 10 14  2  0  0  0  0
 11 14  1  0  0  0  0
 11 28  1  0  0  0  0
 12 23  1  0  0  0  0
 13  9  2  0  0  0  0
 13 18  1  0  0  0  0
 14 25  1  0  0  0  0
 15  3  1  0  0  0  0
 15 12  2  0  0  0  0
 16 12  1  0  0  0  0
 16 27  1  0  0  0  0
 17 16  2  0  0  0  0
 18 11  2  0  0  0  0
 19 18  1  0  0  0  0
 20 13  1  0  0  0  0
 21  5  1  0  0  0  0
 26 17  1  0  0  0  0
M  END
