1,2,18,19
 OpenBabel05122313063D

 34 33  0  0  1  0  0  0  0  0999 V2000
   -1.5270    1.6088   -1.1614 S   0  0  0  0  0  1  0  0  0  0  0  0
   -1.2733   -1.2035    0.4961 N   0  0  0  0  0  2  0  0  0  0  0  0
   -4.1403    2.1425   -0.7184 C   0  0  0  0  0  0  0  0  0  0  0  0
   -3.0266    1.1602   -0.4215 C   0  0  0  0  0  0  0  0  0  0  0  0
   -3.3434    0.0449    0.3524 C   0  0  0  0  0  0  0  0  0  0  0  0
   -2.5783   -1.1312    0.6674 C   0  0  1  0  0  3  0  0  0  0  0  0
   -3.3602   -2.3296    1.1699 C   0  0  0  0  0  0  0  0  0  0  0  0
   -0.5288   -2.4456    0.5648 C   0  0  0  0  0  0  0  0  0  0  0  0
   -5.1203    1.7897   -0.3414 H   0  0  0  0  0  0  0  0  0  0  0  0
   -3.9160    3.1278   -0.2595 H   0  0  0  0  0  0  0  0  0  0  0  0
   -4.2166    2.3182   -1.8112 H   0  0  0  0  0  0  0  0  0  0  0  0
   -4.3938   -0.0035    0.6797 H   0  0  0  0  0  0  0  0  0  0  0  0
   -3.4269   -3.1155    0.3874 H   0  0  0  0  0  0  0  0  0  0  0  0
   -2.8771   -2.7900    2.0553 H   0  0  0  0  0  0  0  0  0  0  0  0
   -4.3934   -2.0454    1.4392 H   0  0  0  0  0  0  0  0  0  0  0  0
    0.0056   -2.5173    1.5409 H   0  0  0  0  0  0  0  0  0  0  0  0
   -1.1658   -3.3501    0.4662 H   0  0  0  0  0  0  0  0  0  0  0  0
    1.5270    1.6088    1.1614 S   0  0  0  0  0  1  0  0  0  0  0  0
    1.2733   -1.2035   -0.4961 N   0  0  0  0  0  2  0  0  0  0  0  0
    0.5288   -2.4456   -0.5648 C   0  0  0  0  0  0  0  0  0  0  0  0
    3.0266    1.1602    0.4215 C   0  0  0  0  0  0  0  0  0  0  0  0
    2.5783   -1.1312   -0.6674 C   0  0  1  0  0  3  0  0  0  0  0  0
   -0.0056   -2.5173   -1.5409 H   0  0  0  0  0  0  0  0  0  0  0  0
    1.1658   -3.3501   -0.4662 H   0  0  0  0  0  0  0  0  0  0  0  0
    4.1403    2.1425    0.7184 C   0  0  0  0  0  0  0  0  0  0  0  0
    3.3434    0.0449   -0.3524 C   0  0  0  0  0  0  0  0  0  0  0  0
    3.3602   -2.3296   -1.1699 C   0  0  0  0  0  0  0  0  0  0  0  0
    5.1203    1.7897    0.3414 H   0  0  0  0  0  0  0  0  0  0  0  0
    3.9160    3.1278    0.2595 H   0  0  0  0  0  0  0  0  0  0  0  0
    4.2166    2.3181    1.8112 H   0  0  0  0  0  0  0  0  0  0  0  0
    4.3938   -0.0035   -0.6797 H   0  0  0  0  0  0  0  0  0  0  0  0
    3.4269   -3.1155   -0.3874 H   0  0  0  0  0  0  0  0  0  0  0  0
    2.8771   -2.7900   -2.0553 H   0  0  0  0  0  0  0  0  0  0  0  0
    4.3934   -2.0454   -1.4392 H   0  0  0  0  0  0  0  0  0  0  0  0
  1  4  1  0  0  0  0
  2  8  1  0  0  0  0
  2  6  1  0  0  0  0
  3  4  1  0  0  0  0
  3  9  1  0  0  0  0
  3 10  1  0  0  0  0
  4  5  2  0  0  0  0
  5 12  1  0  0  0  0
  6  5  1  6  0  0  0
  6  7  1  0  0  0  0
  7 15  1  0  0  0  0
  7 14  1  0  0  0  0
  8 16  1  0  0  0  0
 11  3  1  0  0  0  0
 13  7  1  0  0  0  0
 17  8  1  0  0  0  0
 20 19  1  0  0  0  0
 20 24  1  0  0  0  0
 20  8  1  0  0  0  0
 21 25  1  0  0  0  0
 21 18  1  0  0  0  0
 22 19  1  1  0  0  0
 22 26  1  0  0  0  0
 23 20  1  0  0  0  0
 25 30  1  0  0  0  0
 26 21  2  0  0  0  0
 27 22  1  0  0  0  0
 27 32  1  0  0  0  0
 28 25  1  0  0  0  0
 29 25  1  0  0  0  0
 31 26  1  0  0  0  0
 33 27  1  0  0  0  0
 34 27  1  0  0  0  0
M  END
