1,3,39,40
 OpenBabel05122313063D

 76 79  0  0  1  0  0  0  0  0999 V2000
    1.8451   -1.9206    0.3521 S   0  0  0  0  0  0  0  0  0  0  0  0
    1.2222   -1.3876    3.4176 S   0  0  0  0  0  0  0  0  0  0  0  0
   -0.0827    0.5099    1.8101 N   0  0  0  0  0  2  0  0  0  0  0  0
   -1.0617    1.7784    3.3506 N   0  0  0  0  0  0  0  0  0  0  0  0
   -0.8983    1.5565    2.0087 C   0  0  2  0  0  3  0  0  0  0  0  0
   -0.2955    0.8680    4.0421 C   0  0  0  0  0  0  0  0  0  0  0  0
    0.3107    0.0745    3.0753 C   0  0  0  0  0  0  0  0  0  0  0  0
    2.8977   -1.0309    2.7464 C   0  0  0  0  0  0  0  0  0  0  0  0
    2.9484   -0.7515    1.2484 C   0  0  0  0  0  0  0  0  0  0  0  0
   -1.5472    2.3446    0.9524 C   0  0  0  0  0  0  0  0  0  0  0  0
   -0.7435    2.9363   -0.0547 C   0  0  0  0  0  0  0  0  0  0  0  0
   -1.3794    3.5892   -1.1286 C   0  0  0  0  0  0  0  0  0  0  0  0
   -2.7771    3.6867   -1.1882 C   0  0  0  0  0  0  0  0  0  0  0  0
   -3.5656    3.1412   -0.1623 C   0  0  0  0  0  0  0  0  0  0  0  0
   -2.9515    2.4696    0.9029 C   0  0  0  0  0  0  0  0  0  0  0  0
    2.8222   -2.3926   -1.1870 C   0  0  0  0  0  0  0  0  0  0  0  0
    3.2359   -1.1635   -1.9964 C   0  0  0  0  0  0  0  0  0  0  0  0
    4.0388   -3.2140   -0.7500 C   0  0  0  0  0  0  0  0  0  0  0  0
    1.8245   -3.2576   -1.9684 C   0  0  0  0  0  0  0  0  0  0  0  0
   -1.6264    2.5281    3.7544 H   0  0  0  0  0  0  0  0  0  0  0  0
   -0.2311    0.8423    5.1337 H   0  0  0  0  0  0  0  0  0  0  0  0
   -0.7622    4.0555   -1.9109 H   0  0  0  0  0  0  0  0  0  0  0  0
   -3.2529    4.2104   -2.0305 H   0  0  0  0  0  0  0  0  0  0  0  0
   -4.6614    3.2291   -0.1981 H   0  0  0  0  0  0  0  0  0  0  0  0
   -3.5640    2.0015    1.6881 H   0  0  0  0  0  0  0  0  0  0  0  0
    3.3533   -0.1983    3.3206 H   0  0  0  0  0  0  0  0  0  0  0  0
    3.4467   -1.9628    2.9923 H   0  0  0  0  0  0  0  0  0  0  0  0
    3.9872   -0.8795    0.8814 H   0  0  0  0  0  0  0  0  0  0  0  0
    2.6300    0.2847    1.0229 H   0  0  0  0  0  0  0  0  0  0  0  0
    3.7775   -1.4867   -2.9100 H   0  0  0  0  0  0  0  0  0  0  0  0
    3.9155   -0.5008   -1.4245 H   0  0  0  0  0  0  0  0  0  0  0  0
    2.3504   -0.5807   -2.3076 H   0  0  0  0  0  0  0  0  0  0  0  0
    4.5841   -3.5773   -1.6462 H   0  0  0  0  0  0  0  0  0  0  0  0
    3.7349   -4.0933   -0.1497 H   0  0  0  0  0  0  0  0  0  0  0  0
    4.7571   -2.6146   -0.1541 H   0  0  0  0  0  0  0  0  0  0  0  0
    0.9070   -2.6897   -2.2230 H   0  0  0  0  0  0  0  0  0  0  0  0
    1.5255   -4.1523   -1.3865 H   0  0  0  0  0  0  0  0  0  0  0  0
    2.2941   -3.6052   -2.9112 H   0  0  0  0  0  0  0  0  0  0  0  0
   -1.8446   -1.9210   -0.3521 S   0  0  0  0  0  0  0  0  0  0  0  0
    0.0826    0.5101   -1.8101 N   0  0  0  0  0  2  0  0  0  0  0  0
    0.7428    2.9365    0.0548 C   0  0  0  0  0  0  0  0  0  0  0  0
   -2.9482   -0.7521   -1.2485 C   0  0  0  0  0  0  0  0  0  0  0  0
   -2.8216   -2.3933    1.1869 C   0  0  0  0  0  0  0  0  0  0  0  0
    0.8979    1.5568   -2.0086 C   0  0  1  0  0  3  0  0  0  0  0  0
   -0.3107    0.0746   -3.0753 C   0  0  0  0  0  0  0  0  0  0  0  0
    1.5466    2.3450   -0.9523 C   0  0  0  0  0  0  0  0  0  0  0  0
    1.3785    3.5895    1.1287 C   0  0  0  0  0  0  0  0  0  0  0  0
   -2.8974   -1.0314   -2.7464 C   0  0  0  0  0  0  0  0  0  0  0  0
   -3.9869   -0.8804   -0.8814 H   0  0  0  0  0  0  0  0  0  0  0  0
   -2.6300    0.2841   -1.0229 H   0  0  0  0  0  0  0  0  0  0  0  0
   -3.2358   -1.1643    1.9961 C   0  0  0  0  0  0  0  0  0  0  0  0
   -4.0379   -3.2151    0.7499 C   0  0  0  0  0  0  0  0  0  0  0  0
   -1.8236   -3.2578    1.9684 C   0  0  0  0  0  0  0  0  0  0  0  0
    1.0612    1.7788   -3.3506 N   0  0  0  0  0  0  0  0  0  0  0  0
   -1.2218   -1.3877   -3.4177 S   0  0  0  0  0  0  0  0  0  0  0  0
    0.2953    0.8683   -4.0420 C   0  0  0  0  0  0  0  0  0  0  0  0
    2.9509    2.4704   -0.9028 C   0  0  0  0  0  0  0  0  0  0  0  0
    2.7761    3.6874    1.1883 C   0  0  0  0  0  0  0  0  0  0  0  0
    0.7612    4.0556    1.9111 H   0  0  0  0  0  0  0  0  0  0  0  0
   -3.3532   -0.1990   -3.3206 H   0  0  0  0  0  0  0  0  0  0  0  0
   -3.4462   -1.9635   -2.9924 H   0  0  0  0  0  0  0  0  0  0  0  0
   -3.7774   -1.4876    2.9098 H   0  0  0  0  0  0  0  0  0  0  0  0
   -3.9156   -0.5018    1.4242 H   0  0  0  0  0  0  0  0  0  0  0  0
   -2.3505   -0.5811    2.3074 H   0  0  0  0  0  0  0  0  0  0  0  0
   -4.5830   -3.5787    1.6462 H   0  0  0  0  0  0  0  0  0  0  0  0
   -3.7336   -4.0944    0.1497 H   0  0  0  0  0  0  0  0  0  0  0  0
   -4.7564   -2.6162    0.1539 H   0  0  0  0  0  0  0  0  0  0  0  0
   -0.9064   -2.6896    2.2230 H   0  0  0  0  0  0  0  0  0  0  0  0
   -1.5243   -4.1525    1.3866 H   0  0  0  0  0  0  0  0  0  0  0  0
   -2.2932   -3.6056    2.9113 H   0  0  0  0  0  0  0  0  0  0  0  0
    1.6257    2.5287   -3.7543 H   0  0  0  0  0  0  0  0  0  0  0  0
    0.2309    0.8426   -5.1336 H   0  0  0  0  0  0  0  0  0  0  0  0
    3.5648    3.1421    0.1624 C   0  0  0  0  0  0  0  0  0  0  0  0
    3.5635    2.0025   -1.6880 H   0  0  0  0  0  0  0  0  0  0  0  0
    3.2518    4.2112    2.0307 H   0  0  0  0  0  0  0  0  0  0  0  0
    4.6606    3.2303    0.1983 H   0  0  0  0  0  0  0  0  0  0  0  0
  1  9  1  0  0  0  0
  3  5  1  0  0  0  0
  3  7  1  0  0  0  0
  4 20  1  0  0  0  0
  4  6  1  0  0  0  0
  5 10  1  1  0  0  0
  5  4  1  0  0  0  0
  6 21  1  0  0  0  0
  7  2  1  0  0  0  0
  7  6  2  0  0  0  0
  8 27  1  0  0  0  0
  8 26  1  0  0  0  0
  8  2  1  0  0  0  0
  9  8  1  0  0  0  0
 11 41  1  0  0  0  0
 11 10  2  0  0  0  0
 12 11  1  0  0  0  0
 13 12  2  0  0  0  0
 13 14  1  0  0  0  0
 14 15  2  0  0  0  0
 15 10  1  0  0  0  0
 15 25  1  0  0  0  0
 16 18  1  0  0  0  0
 16  1  1  0  0  0  0
 17 31  1  0  0  0  0
 17 16  1  0  0  0  0
 18 35  1  0  0  0  0
 18 34  1  0  0  0  0
 19 37  1  0  0  0  0
 19 16  1  0  0  0  0
 22 12  1  0  0  0  0
 23 13  1  0  0  0  0
 24 14  1  0  0  0  0
 28  9  1  0  0  0  0
 29  9  1  0  0  0  0
 30 17  1  0  0  0  0
 32 17  1  0  0  0  0
 33 18  1  0  0  0  0
 36 19  1  0  0  0  0
 38 19  1  0  0  0  0
 39 43  1  0  0  0  0
 41 47  1  0  0  0  0
 42 50  1  0  0  0  0
 42 49  1  0  0  0  0
 42 39  1  0  0  0  0
 43 53  1  0  0  0  0
 43 51  1  0  0  0  0
 44 40  1  0  0  0  0
 44 46  1  6  0  0  0
 45 40  1  0  0  0  0
 46 57  1  0  0  0  0
 46 41  2  0  0  0  0
 47 58  2  0  0  0  0
 47 59  1  0  0  0  0
 48 42  1  0  0  0  0
 51 64  1  0  0  0  0
 51 62  1  0  0  0  0
 52 43  1  0  0  0  0
 52 65  1  0  0  0  0
 53 68  1  0  0  0  0
 53 70  1  0  0  0  0
 54 44  1  0  0  0  0
 55 45  1  0  0  0  0
 55 48  1  0  0  0  0
 56 54  1  0  0  0  0
 56 45  2  0  0  0  0
 57 73  2  0  0  0  0
 58 75  1  0  0  0  0
 60 48  1  0  0  0  0
 61 48  1  0  0  0  0
 63 51  1  0  0  0  0
 66 52  1  0  0  0  0
 67 52  1  0  0  0  0
 69 53  1  0  0  0  0
 71 54  1  0  0  0  0
 72 56  1  0  0  0  0
 73 76  1  0  0  0  0
 73 58  1  0  0  0  0
 74 57  1  0  0  0  0
M  END
