1,2,5,6
 OpenBabel05122313063D

 38 39  0  0  0  0  0  0  0  0999 V2000
    0.6539    1.0364    0.6060 N   0  0  0  0  0  2  0  0  0  0  0  0
    2.4543   -0.6364   -0.1522 N   0  0  0  0  0  2  0  0  0  0  0  0
   -0.6811    2.9316    1.0115 O   0  0  0  0  0  0  0  0  0  0  0  0
    4.4000   -1.6226   -0.9822 O   0  0  0  0  0  0  0  0  0  0  0  0
   -1.3695   -0.9237    1.0123 S   0  0  0  0  0  0  0  0  0  0  0  0
    0.8871   -3.0133    0.3272 S   0  0  0  0  0  1  0  0  0  0  0  0
   -3.7950    1.1877   -0.7684 C   0  0  0  0  0  0  0  0  0  0  0  0
   -2.9976    1.9488   -0.7760 H   0  0  0  0  0  0  0  0  0  0  0  0
   -5.1421    1.5790   -0.7561 C   0  0  0  0  0  0  0  0  0  0  0  0
   -5.3972    2.6501   -0.7677 H   0  0  0  0  0  0  0  0  0  0  0  0
   -6.1599    0.6117   -0.7263 C   0  0  0  0  0  0  0  0  0  0  0  0
   -7.2172    0.9193   -0.7180 H   0  0  0  0  0  0  0  0  0  0  0  0
   -5.8204   -0.7518   -0.7045 C   0  0  0  0  0  0  0  0  0  0  0  0
   -6.6124   -1.5167   -0.6796 H   0  0  0  0  0  0  0  0  0  0  0  0
   -4.4745   -1.1428   -0.7153 C   0  0  0  0  0  0  0  0  0  0  0  0
   -4.2080   -2.2114   -0.6916 H   0  0  0  0  0  0  0  0  0  0  0  0
   -3.4421   -0.1804   -0.7549 C   0  0  0  0  0  0  0  0  0  0  0  0
   -2.0041   -0.5885   -0.7229 C   0  0  0  0  0  0  0  0  0  0  0  0
   -1.3305    0.1809   -1.1460 H   0  0  0  0  0  0  0  0  0  0  0  0
   -1.7996   -1.5527   -1.2272 H   0  0  0  0  0  0  0  0  0  0  0  0
   -1.4831    0.7737    1.6871 C   0  0  0  0  0  0  0  0  0  0  0  0
   -2.5076    1.1805    1.5761 H   0  0  0  0  0  0  0  0  0  0  0  0
   -1.2710    0.6651    2.7712 H   0  0  0  0  0  0  0  0  0  0  0  0
   -0.4442    1.7091    1.0412 C   0  0  0  0  0  0  0  0  0  0  0  0
    1.8209    1.6478    0.1130 C   0  0  0  0  0  0  0  0  0  0  0  0
    2.0577    3.0347    0.0101 C   0  0  0  0  0  0  0  0  0  0  0  0
    1.2556    3.7181    0.3136 H   0  0  0  0  0  0  0  0  0  0  0  0
    3.2919    3.4992   -0.4746 C   0  0  0  0  0  0  0  0  0  0  0  0
    3.4706    4.5842   -0.5524 H   0  0  0  0  0  0  0  0  0  0  0  0
    4.2886    2.5871   -0.8568 C   0  0  0  0  0  0  0  0  0  0  0  0
    5.2569    2.9527   -1.2366 H   0  0  0  0  0  0  0  0  0  0  0  0
    4.0691    1.2025   -0.7643 C   0  0  0  0  0  0  0  0  0  0  0  0
    4.8299    0.4716   -1.0598 H   0  0  0  0  0  0  0  0  0  0  0  0
    2.8332    0.7129   -0.2821 C   0  0  0  0  0  0  0  0  0  0  0  0
    3.2444   -1.6936   -0.5354 C   0  0  0  0  0  0  0  0  0  0  0  0
    2.5655   -3.0598   -0.4043 C   0  0  0  0  0  0  0  0  0  0  0  0
    3.2352   -3.7105    0.1975 H   0  0  0  0  0  0  0  0  0  0  0  0
    2.5372   -3.5038   -1.4234 H   0  0  0  0  0  0  0  0  0  0  0  0
  1 24  1  0  0  0  0
  3 24  2  0  0  0  0
  4 35  2  0  0  0  0
  5 21  1  0  0  0  0
  7  9  2  0  0  0  0
  7 17  1  0  0  0  0
  8  7  1  0  0  0  0
  9 11  1  0  0  0  0
 10  9  1  0  0  0  0
 11 12  1  0  0  0  0
 11 13  2  0  0  0  0
 13 14  1  0  0  0  0
 15 13  1  0  0  0  0
 15 16  1  0  0  0  0
 17 18  1  0  0  0  0
 17 15  2  0  0  0  0
 18  5  1  0  0  0  0
 19 18  1  0  0  0  0
 20 18  1  0  0  0  0
 21 23  1  0  0  0  0
 22 21  1  0  0  0  0
 24 21  1  0  0  0  0
 25  1  1  0  0  0  0
 26 25  1  0  0  0  0
 26 27  1  0  0  0  0
 28 26  2  0  0  0  0
 29 28  1  0  0  0  0
 30 32  2  0  0  0  0
 30 28  1  0  0  0  0
 31 30  1  0  0  0  0
 32 34  1  0  0  0  0
 33 32  1  0  0  0  0
 34  2  1  0  0  0  0
 34 25  2  0  0  0  0
 35 36  1  0  0  0  0
 35  2  1  0  0  0  0
 36 37  1  0  0  0  0
 36  6  1  0  0  0  0
 38 36  1  0  0  0  0
M  END
