1,2,5,6
 OpenBabel05122313063D

 70 69  0  0  0  0  0  0  0  0999 V2000
    1.5829   -0.9773   -1.7023 S   0  0  0  0  0  1  0  0  0  0  0  0
   -1.6668   -0.4712   -1.9841 S   0  0  0  0  0  1  0  0  0  0  0  0
    2.6341   -0.1630   -0.1415 P   0  0  0  0  0  4  0  0  0  0  0  0
   -2.6532   -0.1111   -0.2253 P   0  0  0  0  0  4  0  0  0  0  0  0
    1.4189    0.5759    0.6786 N   0  0  0  0  0  2  0  0  0  0  0  0
   -1.4920    0.7728    0.5415 N   0  0  0  0  0  2  0  0  0  0  0  0
    1.5616    1.6810    1.6207 C   0  0  0  0  0  0  0  0  0  0  0  0
    0.4654    2.7461    1.4634 C   0  0  0  0  0  0  0  0  0  0  0  0
   -0.8260    2.4334    2.2274 C   0  0  0  0  0  0  0  0  0  0  0  0
   -1.3680    1.0241    1.9664 C   0  0  0  0  0  0  0  0  0  0  0  0
    3.3901   -1.5367    0.9294 C   0  0  0  0  0  0  0  0  0  0  0  0
    3.8854   -0.9401    2.2590 C   0  0  0  0  0  0  0  0  0  0  0  0
    4.5117   -2.2755    0.1877 C   0  0  0  0  0  0  0  0  0  0  0  0
    2.2321   -2.5078    1.2252 C   0  0  0  0  0  0  0  0  0  0  0  0
    3.9426    1.0284   -0.8723 C   0  0  0  0  0  0  0  0  0  0  0  0
    4.6383    0.3427   -2.0629 C   0  0  0  0  0  0  0  0  0  0  0  0
    3.1291    2.2272   -1.3994 C   0  0  0  0  0  0  0  0  0  0  0  0
    5.0000    1.4991    0.1409 C   0  0  0  0  0  0  0  0  0  0  0  0
   -4.1879    0.9730   -0.5055 C   0  0  0  0  0  0  0  0  0  0  0  0
   -5.2955    0.1869   -1.2192 C   0  0  0  0  0  0  0  0  0  0  0  0
   -4.6828    1.5612    0.8277 C   0  0  0  0  0  0  0  0  0  0  0  0
   -3.7019    2.1278   -1.4024 C   0  0  0  0  0  0  0  0  0  0  0  0
   -3.0511   -1.7987    0.5858 C   0  0  0  0  0  0  0  0  0  0  0  0
   -1.6841   -2.3750    1.0004 C   0  0  0  0  0  0  0  0  0  0  0  0
   -3.6966   -2.7442   -0.4420 C   0  0  0  0  0  0  0  0  0  0  0  0
   -3.9552   -1.6521    1.8206 C   0  0  0  0  0  0  0  0  0  0  0  0
    2.5500    2.1773    1.4963 H   0  0  0  0  0  0  0  0  0  0  0  0
    1.5528    1.3147    2.6782 H   0  0  0  0  0  0  0  0  0  0  0  0
    0.2455    2.8433    0.3797 H   0  0  0  0  0  0  0  0  0  0  0  0
    0.8549    3.7277    1.8077 H   0  0  0  0  0  0  0  0  0  0  0  0
   -1.6014    3.1802    1.9490 H   0  0  0  0  0  0  0  0  0  0  0  0
   -0.6543    2.5447    3.3213 H   0  0  0  0  0  0  0  0  0  0  0  0
   -0.6880    0.2786    2.4458 H   0  0  0  0  0  0  0  0  0  0  0  0
   -2.3460    0.9182    2.4881 H   0  0  0  0  0  0  0  0  0  0  0  0
    4.7388   -0.2487    2.1337 H   0  0  0  0  0  0  0  0  0  0  0  0
    4.2200   -1.7646    2.9238 H   0  0  0  0  0  0  0  0  0  0  0  0
    3.0713   -0.4016    2.7827 H   0  0  0  0  0  0  0  0  0  0  0  0
    4.8098   -3.1742    0.7685 H   0  0  0  0  0  0  0  0  0  0  0  0
    4.1734   -2.6181   -0.8113 H   0  0  0  0  0  0  0  0  0  0  0  0
    5.4174   -1.6507    0.0597 H   0  0  0  0  0  0  0  0  0  0  0  0
    1.3868   -1.9776    1.7058 H   0  0  0  0  0  0  0  0  0  0  0  0
    2.5920   -3.3022    1.9126 H   0  0  0  0  0  0  0  0  0  0  0  0
    1.8540   -2.9773    0.2970 H   0  0  0  0  0  0  0  0  0  0  0  0
    5.2942    1.0838   -2.5674 H   0  0  0  0  0  0  0  0  0  0  0  0
    3.8948   -0.0228   -2.7979 H   0  0  0  0  0  0  0  0  0  0  0  0
    5.2727   -0.5092   -1.7539 H   0  0  0  0  0  0  0  0  0  0  0  0
    3.8010    2.8873   -1.9876 H   0  0  0  0  0  0  0  0  0  0  0  0
    2.6872    2.8304   -0.5842 H   0  0  0  0  0  0  0  0  0  0  0  0
    2.3064    1.8876   -2.0595 H   0  0  0  0  0  0  0  0  0  0  0  0
    5.6661    0.6750    0.4628 H   0  0  0  0  0  0  0  0  0  0  0  0
    5.6421    2.2660   -0.3432 H   0  0  0  0  0  0  0  0  0  0  0  0
    4.5582    1.9623    1.0447 H   0  0  0  0  0  0  0  0  0  0  0  0
   -5.7653   -0.5721   -0.5634 H   0  0  0  0  0  0  0  0  0  0  0  0
   -6.0951    0.8878   -1.5405 H   0  0  0  0  0  0  0  0  0  0  0  0
   -4.9114   -0.3202   -2.1278 H   0  0  0  0  0  0  0  0  0  0  0  0
   -5.5295    2.2507    0.6233 H   0  0  0  0  0  0  0  0  0  0  0  0
   -3.8894    2.1553    1.3224 H   0  0  0  0  0  0  0  0  0  0  0  0
   -5.0444    0.7938    1.5369 H   0  0  0  0  0  0  0  0  0  0  0  0
   -3.3641    1.7585   -2.3893 H   0  0  0  0  0  0  0  0  0  0  0  0
   -4.5351    2.8470   -1.5500 H   0  0  0  0  0  0  0  0  0  0  0  0
   -2.8501    2.6570   -0.9321 H   0  0  0  0  0  0  0  0  0  0  0  0
   -1.8325   -3.4027    1.3954 H   0  0  0  0  0  0  0  0  0  0  0  0
   -1.1994   -1.7710    1.7915 H   0  0  0  0  0  0  0  0  0  0  0  0
   -0.9914   -2.4241    0.1369 H   0  0  0  0  0  0  0  0  0  0  0  0
   -3.7840   -3.7573    0.0057 H   0  0  0  0  0  0  0  0  0  0  0  0
   -4.7119   -2.4230   -0.7405 H   0  0  0  0  0  0  0  0  0  0  0  0
   -3.0695   -2.8171   -1.3522 H   0  0  0  0  0  0  0  0  0  0  0  0
   -4.0473   -2.6407    2.3191 H   0  0  0  0  0  0  0  0  0  0  0  0
   -4.9796   -1.3249    1.5557 H   0  0  0  0  0  0  0  0  0  0  0  0
   -3.5420   -0.9457    2.5676 H   0  0  0  0  0  0  0  0  0  0  0  0
  1  3  1  0  0  0  0
  2  4  1  0  0  0  0
  3  5  1  0  0  0  0
  3 11  1  0  0  0  0
  4  6  1  0  0  0  0
  4 23  1  0  0  0  0
  5  7  1  0  0  0  0
  6 10  1  0  0  0  0
  7 28  1  0  0  0  0
  8  7  1  0  0  0  0
  8 30  1  0  0  0  0
  8  9  1  0  0  0  0
  9 32  1  0  0  0  0
 10  9  1  0  0  0  0
 10 33  1  0  0  0  0
 10 34  1  0  0  0  0
 11 14  1  0  0  0  0
 11 12  1  0  0  0  0
 12 37  1  0  0  0  0
 12 36  1  0  0  0  0
 13 38  1  0  0  0  0
 13 11  1  0  0  0  0
 14 41  1  0  0  0  0
 14 42  1  0  0  0  0
 15  3  1  0  0  0  0
 15 18  1  0  0  0  0
 16 46  1  0  0  0  0
 16 15  1  0  0  0  0
 17 15  1  0  0  0  0
 17 48  1  0  0  0  0
 18 50  1  0  0  0  0
 18 52  1  0  0  0  0
 19  4  1  0  0  0  0
 19 21  1  0  0  0  0
 20 53  1  0  0  0  0
 20 19  1  0  0  0  0
 21 57  1  0  0  0  0
 21 58  1  0  0  0  0
 22 61  1  0  0  0  0
 22 19  1  0  0  0  0
 23 24  1  0  0  0  0
 23 26  1  0  0  0  0
 24 62  1  0  0  0  0
 24 63  1  0  0  0  0
 25 65  1  0  0  0  0
 25 23  1  0  0  0  0
 26 68  1  0  0  0  0
 26 70  1  0  0  0  0
 27  7  1  0  0  0  0
 29  8  1  0  0  0  0
 31  9  1  0  0  0  0
 35 12  1  0  0  0  0
 39 13  1  0  0  0  0
 40 13  1  0  0  0  0
 43 14  1  0  0  0  0
 44 16  1  0  0  0  0
 45 16  1  0  0  0  0
 47 17  1  0  0  0  0
 49 17  1  0  0  0  0
 51 18  1  0  0  0  0
 54 20  1  0  0  0  0
 55 20  1  0  0  0  0
 56 21  1  0  0  0  0
 59 22  1  0  0  0  0
 60 22  1  0  0  0  0
 64 24  1  0  0  0  0
 66 25  1  0  0  0  0
 67 25  1  0  0  0  0
 69 26  1  0  0  0  0
M  END
