1,2,3,4
 OpenBabel05122313063D

 50 52  0  0  0  0  0  0  0  0999 V2000
   -2.3375   -1.7862   -0.5571 S   0  0  0  0  0  0  0  0  0  0  0  0
   -0.0670    0.1732    1.9068 S   0  0  0  0  0  0  0  0  0  0  0  0
    1.5839   -1.4321   -0.7246 N   0  0  0  0  0  2  0  0  0  0  0  0
   -0.2134    0.6708   -1.3600 N   0  0  0  0  0  0  0  0  0  0  0  0
    2.5170   -2.2210   -0.1477 C   0  0  0  0  0  3  0  0  0  0  0  0
    3.8804   -2.1126   -0.4381 C   0  0  0  0  0  0  0  0  0  0  0  0
    4.2948   -1.1406   -1.3604 C   0  0  0  0  0  0  0  0  0  0  0  0
    3.3281   -0.3228   -1.9610 C   0  0  0  0  0  0  0  0  0  0  0  0
    1.9788   -0.4927   -1.6236 C   0  0  0  0  0  0  0  0  0  0  0  0
    0.8659    0.2930   -2.2917 C   0  0  0  0  0  0  0  0  0  0  0  0
   -3.1334   -0.1907   -0.2914 C   0  0  0  0  0  0  0  0  0  0  0  0
   -4.1904   -0.0292    0.6195 C   0  0  0  0  0  0  0  0  0  0  0  0
   -4.8132    1.2207    0.7623 C   0  0  0  0  0  0  0  0  0  0  0  0
   -4.3938    2.3106   -0.0100 C   0  0  0  0  0  0  0  0  0  0  0  0
   -3.3393    2.1425   -0.9189 C   0  0  0  0  0  0  0  0  0  0  0  0
   -2.6867    0.9064   -1.0764 C   0  0  0  0  0  0  0  0  0  0  0  0
   -1.5298    0.7859   -2.0437 C   0  0  0  0  0  0  0  0  0  0  0  0
   -3.0098   -2.8323    0.7677 C   0  0  0  0  0  0  0  0  0  0  0  0
    0.0959    1.9108   -0.6005 C   0  0  0  0  0  0  0  0  0  0  0  0
    1.3541    1.8269    0.2297 C   0  0  0  0  0  0  0  0  0  0  0  0
    1.4277    1.0271    1.4030 C   0  0  0  0  0  0  0  0  0  0  0  0
    2.6311    0.9380    2.1243 C   0  0  0  0  0  0  0  0  0  0  0  0
    3.7615    1.6533    1.6999 C   0  0  0  0  0  0  0  0  0  0  0  0
    3.6972    2.4698    0.5634 C   0  0  0  0  0  0  0  0  0  0  0  0
    2.4977    2.5478   -0.1573 C   0  0  0  0  0  0  0  0  0  0  0  0
    0.4808   -0.8700    3.2880 C   0  0  0  0  0  0  0  0  0  0  0  0
    2.1461   -2.9711    0.5682 H   0  0  0  0  0  0  0  0  0  0  0  0
    4.6017   -2.7802    0.0539 H   0  0  0  0  0  0  0  0  0  0  0  0
    5.3595   -1.0191   -1.6083 H   0  0  0  0  0  0  0  0  0  0  0  0
    3.6153    0.4552   -2.6831 H   0  0  0  0  0  0  0  0  0  0  0  0
    0.4164   -0.3656   -3.0660 H   0  0  0  0  0  0  0  0  0  0  0  0
    1.2854    1.1756   -2.8276 H   0  0  0  0  0  0  0  0  0  0  0  0
   -4.5508   -0.8735    1.2212 H   0  0  0  0  0  0  0  0  0  0  0  0
   -5.6398    1.3317    1.4797 H   0  0  0  0  0  0  0  0  0  0  0  0
   -4.8850    3.2889    0.0918 H   0  0  0  0  0  0  0  0  0  0  0  0
   -3.0036    2.9945   -1.5311 H   0  0  0  0  0  0  0  0  0  0  0  0
   -1.5380    1.6642   -2.7315 H   0  0  0  0  0  0  0  0  0  0  0  0
   -1.6485   -0.1201   -2.6747 H   0  0  0  0  0  0  0  0  0  0  0  0
   -2.8326   -2.3781    1.7605 H   0  0  0  0  0  0  0  0  0  0  0  0
   -4.0877   -3.0221    0.6047 H   0  0  0  0  0  0  0  0  0  0  0  0
   -2.4594   -3.7883    0.6893 H   0  0  0  0  0  0  0  0  0  0  0  0
   -0.7802    2.1128    0.0506 H   0  0  0  0  0  0  0  0  0  0  0  0
    0.1814    2.7715   -1.3057 H   0  0  0  0  0  0  0  0  0  0  0  0
    2.7007    0.3233    3.0311 H   0  0  0  0  0  0  0  0  0  0  0  0
    4.6945    1.5767    2.2779 H   0  0  0  0  0  0  0  0  0  0  0  0
    4.5763    3.0451    0.2393 H   0  0  0  0  0  0  0  0  0  0  0  0
    2.4383    3.1834   -1.0551 H   0  0  0  0  0  0  0  0  0  0  0  0
    0.7818   -0.2498    4.1538 H   0  0  0  0  0  0  0  0  0  0  0  0
   -0.4034   -1.4724    3.5683 H   0  0  0  0  0  0  0  0  0  0  0  0
    1.3044   -1.5416    2.9804 H   0  0  0  0  0  0  0  0  0  0  0  0
  1 11  1  0  0  0  0
  1 18  1  0  0  0  0
  2 26  1  0  0  0  0
  3  5  1  0  0  0  0
  4 19  1  0  0  0  0
  5 27  1  0  0  0  0
  6  5  1  0  0  0  0
  6 28  1  0  0  0  0
  7  6  2  0  0  0  0
  8  9  2  0  0  0  0
  8  7  1  0  0  0  0
  9  3  1  0  0  0  0
 10  9  1  0  0  0  0
 10  4  1  0  0  0  0
 11 12  1  0  0  0  0
 12 13  2  0  0  0  0
 12 33  1  0  0  0  0
 13 34  1  0  0  0  0
 14 35  1  0  0  0  0
 14 13  1  0  0  0  0
 15 14  2  0  0  0  0
 16 15  1  0  0  0  0
 16 11  2  0  0  0  0
 17  4  1  0  0  0  0
 17 16  1  0  0  0  0
 18 39  1  0  0  0  0
 19 42  1  0  0  0  0
 19 20  1  0  0  0  0
 20 21  1  0  0  0  0
 21  2  1  0  0  0  0
 21 22  2  0  0  0  0
 22 44  1  0  0  0  0
 23 22  1  0  0  0  0
 23 45  1  0  0  0  0
 24 23  2  0  0  0  0
 25 20  2  0  0  0  0
 25 24  1  0  0  0  0
 26 49  1  0  0  0  0
 26 48  1  0  0  0  0
 29  7  1  0  0  0  0
 30  8  1  0  0  0  0
 31 10  1  0  0  0  0
 32 10  1  0  0  0  0
 36 15  1  0  0  0  0
 37 17  1  0  0  0  0
 38 17  1  0  0  0  0
 40 18  1  0  0  0  0
 41 18  1  0  0  0  0
 43 19  1  0  0  0  0
 46 24  1  0  0  0  0
 47 25  1  0  0  0  0
 50 26  1  0  0  0  0
M  END
