1,2,5,6
 OpenBabel05122313063D

 48 48  0  0  0  0  0  0  0  0999 V2000
    1.5397   -1.7216   -0.3591 S   0  0  0  0  0  3  0  0  0  0  0  0
   -1.5398   -1.7215   -0.3596 S   0  0  0  0  0  3  0  0  0  0  0  0
    2.0475   -1.5239   -1.8219 O   0  0  0  0  0  0  0  0  0  0  0  0
   -2.0478   -1.5228   -1.8222 O   0  0  0  0  0  0  0  0  0  0  0  0
    1.4835    1.2480   -0.1246 N   0  0  0  0  0  0  0  0  0  0  0  0
   -1.4837    1.2479   -0.1243 N   0  0  0  0  0  0  0  0  0  0  0  0
    2.8252   -0.7361    0.6732 C   0  0  0  0  0  0  0  0  0  0  0  0
    2.8326    0.6002   -0.0568 C   0  0  0  0  0  0  0  0  0  0  0  0
    1.3133    2.2887    0.9313 C   0  0  0  0  0  0  0  0  0  0  0  0
    0.0001    2.2035    1.7072 C   0  0  0  0  0  0  0  0  0  0  0  0
   -1.3133    2.2886    0.9316 C   0  0  0  0  0  0  0  0  0  0  0  0
    1.2978    1.7897   -1.5052 C   0  0  0  0  0  0  0  0  0  0  0  0
   -0.0003    2.5596   -1.7262 C   0  0  0  0  0  0  0  0  0  0  0  0
   -1.2983    1.7897   -1.5050 C   0  0  0  0  0  0  0  0  0  0  0  0
   -2.8328    0.6001   -0.0561 C   0  0  0  0  0  0  0  0  0  0  0  0
   -2.8249   -0.7364    0.6735 C   0  0  0  0  0  0  0  0  0  0  0  0
    2.3518   -0.7107    2.1195 C   0  0  0  0  0  0  0  0  0  0  0  0
    4.1711   -1.4341    0.4966 C   0  0  0  0  0  0  0  0  0  0  0  0
   -4.1709   -1.4345    0.4971 C   0  0  0  0  0  0  0  0  0  0  0  0
   -2.3511   -0.7113    2.1195 C   0  0  0  0  0  0  0  0  0  0  0  0
    3.5772    1.3107    0.3697 H   0  0  0  0  0  0  0  0  0  0  0  0
    3.1362    0.3654   -1.0973 H   0  0  0  0  0  0  0  0  0  0  0  0
    1.4470    3.2992    0.4839 H   0  0  0  0  0  0  0  0  0  0  0  0
    2.1373    2.1686    1.6607 H   0  0  0  0  0  0  0  0  0  0  0  0
    0.0002    1.2601    2.2909 H   0  0  0  0  0  0  0  0  0  0  0  0
    0.0002    3.0252    2.4565 H   0  0  0  0  0  0  0  0  0  0  0  0
   -2.1371    2.1686    1.6612 H   0  0  0  0  0  0  0  0  0  0  0  0
   -1.4471    3.2992    0.4842 H   0  0  0  0  0  0  0  0  0  0  0  0
    1.3605    0.9107   -2.1824 H   0  0  0  0  0  0  0  0  0  0  0  0
    2.1556    2.4630   -1.7481 H   0  0  0  0  0  0  0  0  0  0  0  0
   -0.0004    2.8931   -2.7844 H   0  0  0  0  0  0  0  0  0  0  0  0
   -0.0002    3.4982   -1.1325 H   0  0  0  0  0  0  0  0  0  0  0  0
   -2.1562    2.4630   -1.7476 H   0  0  0  0  0  0  0  0  0  0  0  0
   -1.3612    0.9106   -2.1821 H   0  0  0  0  0  0  0  0  0  0  0  0
   -3.1369    0.3657   -1.0965 H   0  0  0  0  0  0  0  0  0  0  0  0
   -3.5771    1.3105    0.3710 H   0  0  0  0  0  0  0  0  0  0  0  0
    3.0229   -0.0972    2.7593 H   0  0  0  0  0  0  0  0  0  0  0  0
    1.3194   -0.3098    2.1889 H   0  0  0  0  0  0  0  0  0  0  0  0
    2.3316   -1.7375    2.5379 H   0  0  0  0  0  0  0  0  0  0  0  0
    5.0024   -0.8232    0.9102 H   0  0  0  0  0  0  0  0  0  0  0  0
    4.1751   -2.4137    1.0150 H   0  0  0  0  0  0  0  0  0  0  0  0
    4.3610   -1.6110   -0.5819 H   0  0  0  0  0  0  0  0  0  0  0  0
   -5.0020   -0.8237    0.9113 H   0  0  0  0  0  0  0  0  0  0  0  0
   -4.3612   -1.6110   -0.5814 H   0  0  0  0  0  0  0  0  0  0  0  0
   -4.1746   -2.4142    1.0152 H   0  0  0  0  0  0  0  0  0  0  0  0
   -3.0221   -0.0983    2.7598 H   0  0  0  0  0  0  0  0  0  0  0  0
   -2.3303   -1.7383    2.5376 H   0  0  0  0  0  0  0  0  0  0  0  0
   -1.3188   -0.3101    2.1887 H   0  0  0  0  0  0  0  0  0  0  0  0
  1  7  1  0  0  0  0
  2 16  1  0  0  0  0
  3  1  2  0  0  0  0
  4  2  2  0  0  0  0
  5  8  1  0  0  0  0
  5  9  1  0  0  0  0
  6 15  1  0  0  0  0
  6 11  1  0  0  0  0
  7 17  1  0  0  0  0
  8 21  1  0  0  0  0
  8  7  1  0  0  0  0
  9 24  1  0  0  0  0
  9 10  1  0  0  0  0
 10 25  1  0  0  0  0
 10 26  1  0  0  0  0
 11 27  1  0  0  0  0
 11 10  1  0  0  0  0
 12  5  1  0  0  0  0
 13 12  1  0  0  0  0
 13 14  1  0  0  0  0
 13 32  1  0  0  0  0
 14  6  1  0  0  0  0
 15 36  1  0  0  0  0
 15 16  1  0  0  0  0
 16 20  1  0  0  0  0
 17 38  1  0  0  0  0
 17 39  1  0  0  0  0
 17 37  1  0  0  0  0
 18  7  1  0  0  0  0
 18 40  1  0  0  0  0
 18 41  1  0  0  0  0
 19 16  1  0  0  0  0
 19 43  1  0  0  0  0
 19 45  1  0  0  0  0
 20 48  1  0  0  0  0
 20 47  1  0  0  0  0
 20 46  1  0  0  0  0
 22  8  1  0  0  0  0
 23  9  1  0  0  0  0
 28 11  1  0  0  0  0
 29 12  1  0  0  0  0
 30 12  1  0  0  0  0
 31 13  1  0  0  0  0
 33 14  1  0  0  0  0
 34 14  1  0  0  0  0
 35 15  1  0  0  0  0
 42 18  1  0  0  0  0
 44 19  1  0  0  0  0
M  END
