3,4,5,6
 OpenBabel05122313063D

 73 75  0  0  0  0  0  0  0  0999 V2000
    1.3576   -2.1638   -0.0966 O   0  0  0  0  0  0  0  0  0  0  0  0
   -1.3342   -1.9789   -1.0629 O   0  0  0  0  0  0  0  0  0  0  0  0
    1.6236    0.1886    2.1944 N   0  0  0  0  0  0  0  0  0  0  0  0
    1.0612    2.0508   -0.1846 N   0  0  0  0  0  0  0  0  0  0  0  0
   -1.7630    1.2084   -1.0191 N   0  0  0  0  0  0  0  0  0  0  0  0
   -1.7877   -1.1074    1.9725 N   0  0  0  0  0  1  0  0  0  0  0  0
    4.9818    1.5813   -3.0161 N   0  0  0  0  0  0  0  0  0  0  0  0
   -5.0717    3.5732    1.6759 N   0  0  0  0  0  0  0  0  0  0  0  0
    1.5340    2.4870    1.1361 C   0  0  0  0  0  0  0  0  0  0  0  0
    0.6382    2.7587    1.7325 H   0  0  0  0  0  0  0  0  0  0  0  0
    2.1532    3.4157    1.0790 H   0  0  0  0  0  0  0  0  0  0  0  0
   -2.7090   -1.9257   -0.9988 C   0  0  0  0  0  0  0  0  0  0  0  0
   -2.6617    1.7309    0.0252 C   0  0  0  0  0  0  0  0  0  0  0  0
   -2.0451    2.1953    0.8205 H   0  0  0  0  0  0  0  0  0  0  0  0
   -3.1681    0.8654    0.4944 H   0  0  0  0  0  0  0  0  0  0  0  0
   -3.3050   -0.7353   -1.4839 C   0  0  0  0  0  0  0  0  0  0  0  0
    2.1176    1.6433   -1.1197 C   0  0  0  0  0  0  0  0  0  0  0  0
    1.6363    1.3021   -2.0569 H   0  0  0  0  0  0  0  0  0  0  0  0
    2.6367    0.7541   -0.7146 H   0  0  0  0  0  0  0  0  0  0  0  0
    4.2002    2.1310   -2.3391 C   0  0  0  0  0  0  0  0  0  0  0  0
    3.2854   -1.2228    0.9221 C   0  0  0  0  0  0  0  0  0  0  0  0
    2.3594    1.4297    1.8714 C   0  0  0  0  0  0  0  0  0  0  0  0
    3.2323    1.1566    1.2508 H   0  0  0  0  0  0  0  0  0  0  0  0
    2.7798    1.8948    2.7937 H   0  0  0  0  0  0  0  0  0  0  0  0
   -2.4587    0.3786   -2.0432 C   0  0  0  0  0  0  0  0  0  0  0  0
   -1.6647   -0.0447   -2.6915 H   0  0  0  0  0  0  0  0  0  0  0  0
   -3.0946    1.0245   -2.6935 H   0  0  0  0  0  0  0  0  0  0  0  0
   -3.4986   -2.9727   -0.4970 C   0  0  0  0  0  0  0  0  0  0  0  0
   -3.0392   -3.8904   -0.1083 H   0  0  0  0  0  0  0  0  0  0  0  0
   -4.7082   -0.6439   -1.4658 C   0  0  0  0  0  0  0  0  0  0  0  0
   -5.1861    0.2607   -1.8744 H   0  0  0  0  0  0  0  0  0  0  0  0
   -0.6815   -3.2116   -0.7709 C   0  0  0  0  0  0  0  0  0  0  0  0
   -1.0903   -4.0261   -1.4087 H   0  0  0  0  0  0  0  0  0  0  0  0
   -0.8274   -3.4902    0.2964 H   0  0  0  0  0  0  0  0  0  0  0  0
    2.6851   -1.8141   -0.2190 C   0  0  0  0  0  0  0  0  0  0  0  0
    0.7873   -3.0354   -1.0780 C   0  0  0  0  0  0  0  0  0  0  0  0
    1.3059   -4.0186   -1.0547 H   0  0  0  0  0  0  0  0  0  0  0  0
    0.8907   -2.6038   -2.0970 H   0  0  0  0  0  0  0  0  0  0  0  0
    3.1855    2.7156   -1.4671 C   0  0  0  0  0  0  0  0  0  0  0  0
    2.7368    3.5990   -1.9682 H   0  0  0  0  0  0  0  0  0  0  0  0
    3.6887    3.0905   -0.5509 H   0  0  0  0  0  0  0  0  0  0  0  0
   -4.8960   -2.8420   -0.4783 C   0  0  0  0  0  0  0  0  0  0  0  0
   -5.5069   -3.6652   -0.0792 H   0  0  0  0  0  0  0  0  0  0  0  0
    0.0576    2.9489   -0.7735 C   0  0  0  0  0  0  0  0  0  0  0  0
    0.5277    3.7720   -1.3616 H   0  0  0  0  0  0  0  0  0  0  0  0
   -0.4781    3.4507    0.0569 H   0  0  0  0  0  0  0  0  0  0  0  0
   -3.7292    2.7581   -0.4331 C   0  0  0  0  0  0  0  0  0  0  0  0
   -3.2669    3.6390   -0.9265 H   0  0  0  0  0  0  0  0  0  0  0  0
   -4.4259    2.3092   -1.1704 H   0  0  0  0  0  0  0  0  0  0  0  0
    0.9582    0.3461    3.4955 C   0  0  0  0  0  0  0  0  0  0  0  0
    0.3989    1.3027    3.4818 H   0  0  0  0  0  0  0  0  0  0  0  0
    1.7137    0.4213    4.3160 H   0  0  0  0  0  0  0  0  0  0  0  0
    4.6364   -0.8329    0.8316 C   0  0  0  0  0  0  0  0  0  0  0  0
    5.1187   -0.3991    1.7222 H   0  0  0  0  0  0  0  0  0  0  0  0
   -0.9448    2.2351   -1.6856 C   0  0  0  0  0  0  0  0  0  0  0  0
   -1.5769    3.0130   -2.1776 H   0  0  0  0  0  0  0  0  0  0  0  0
   -0.4046    1.7314   -2.5136 H   0  0  0  0  0  0  0  0  0  0  0  0
    2.5089   -1.0133    2.1974 C   0  0  0  0  0  0  0  0  0  0  0  0
    1.8639   -1.8965    2.3722 H   0  0  0  0  0  0  0  0  0  0  0  0
    3.2277   -0.9472    3.0496 H   0  0  0  0  0  0  0  0  0  0  0  0
   -0.0200   -0.7825    3.8889 C   0  0  0  0  0  0  0  0  0  0  0  0
    0.5060   -1.7416    4.0749 H   0  0  0  0  0  0  0  0  0  0  0  0
   -0.5140   -0.5089    4.8443 H   0  0  0  0  0  0  0  0  0  0  0  0
   -4.4985    3.2262    0.7156 C   0  0  0  0  0  0  0  0  0  0  0  0
   -5.5088   -1.6806   -0.9647 C   0  0  0  0  0  0  0  0  0  0  0  0
   -6.6035   -1.5830   -0.9620 H   0  0  0  0  0  0  0  0  0  0  0  0
    3.4245   -1.9988   -1.4018 C   0  0  0  0  0  0  0  0  0  0  0  0
    2.9683   -2.4620   -2.2858 H   0  0  0  0  0  0  0  0  0  0  0  0
   -1.0371   -0.9986    2.8691 C   0  0  0  0  0  2  0  0  0  0  0  0
    5.3733   -0.9872   -0.3510 C   0  0  0  0  0  0  0  0  0  0  0  0
    6.4204   -0.6579   -0.4016 H   0  0  0  0  0  0  0  0  0  0  0  0
    4.7583   -1.5677   -1.4679 C   0  0  0  0  0  0  0  0  0  0  0  0
    5.3165   -1.6834   -2.4080 H   0  0  0  0  0  0  0  0  0  0  0  0
  2 12  1  0  0  0  0
  2 32  1  0  0  0  0
  3 58  1  0  0  0  0
  3 50  1  0  0  0  0
  4  9  1  0  0  0  0
  5 13  1  0  0  0  0
  6 69  1  0  0  0  0
  7 20  3  0  0  0  0
  9 10  1  0  0  0  0
  9 22  1  0  0  0  0
 11  9  1  0  0  0  0
 12 28  1  0  0  0  0
 13 15  1  0  0  0  0
 13 14  1  0  0  0  0
 16 30  1  0  0  0  0
 16 12  2  0  0  0  0
 17 19  1  0  0  0  0
 17  4  1  0  0  0  0
 18 17  1  0  0  0  0
 20 39  1  0  0  0  0
 21 58  1  0  0  0  0
 22  3  1  0  0  0  0
 22 24  1  0  0  0  0
 23 22  1  0  0  0  0
 25 16  1  0  0  0  0
 25  5  1  0  0  0  0
 26 25  1  0  0  0  0
 27 25  1  0  0  0  0
 28 42  2  0  0  0  0
 28 29  1  0  0  0  0
 30 65  2  0  0  0  0
 31 30  1  0  0  0  0
 32 34  1  0  0  0  0
 33 32  1  0  0  0  0
 35  1  1  0  0  0  0
 35 21  2  0  0  0  0
 36 37  1  0  0  0  0
 36 32  1  0  0  0  0
 36  1  1  0  0  0  0
 38 36  1  0  0  0  0
 39 17  1  0  0  0  0
 39 41  1  0  0  0  0
 40 39  1  0  0  0  0
 42 43  1  0  0  0  0
 44  4  1  0  0  0  0
 44 46  1  0  0  0  0
 45 44  1  0  0  0  0
 47 13  1  0  0  0  0
 47 64  1  0  0  0  0
 48 47  1  0  0  0  0
 49 47  1  0  0  0  0
 50 61  1  0  0  0  0
 50 52  1  0  0  0  0
 51 50  1  0  0  0  0
 53 21  1  0  0  0  0
 53 54  1  0  0  0  0
 55  5  1  0  0  0  0
 55 44  1  0  0  0  0
 56 55  1  0  0  0  0
 57 55  1  0  0  0  0
 58 59  1  0  0  0  0
 58 60  1  0  0  0  0
 61 62  1  0  0  0  0
 61 63  1  0  0  0  0
 64  8  3  0  0  0  0
 65 66  1  0  0  0  0
 65 42  1  0  0  0  0
 67 35  1  0  0  0  0
 68 67  1  0  0  0  0
 69 61  1  0  0  0  0
 70 53  2  0  0  0  0
 71 70  1  0  0  0  0
 72 67  2  0  0  0  0
 72 70  1  0  0  0  0
 73 72  1  0  0  0  0
M  END
