1,4,7,12
 OpenBabel05122313063D

 42 43  0  0  1  0  0  0  0  0999 V2000
   -0.5508   -2.2202   -0.2076 N   0  0  0  0  0  2  0  0  0  0  0  0
   -1.0479   -2.7928   -1.3334 C   0  0  0  0  0  3  0  0  0  0  0  0
   -0.7247   -2.3197   -2.2743 H   0  0  0  0  0  0  0  0  0  0  0  0
    2.4050    0.6457   -0.0048 N   0  0  0  0  0  2  0  0  0  0  0  0
   -1.9251   -3.8805   -1.2911 C   0  0  0  0  0  0  0  0  0  0  0  0
   -2.3001   -4.3012   -2.2347 H   0  0  0  0  0  0  0  0  0  0  0  0
    2.5692   -2.0018   -0.5132 N   0  0  0  0  0  0  0  0  0  0  0  0
   -2.3213   -4.3991   -0.0513 C   0  0  0  0  0  0  0  0  0  0  0  0
   -3.0113   -5.2529    0.0122 H   0  0  0  0  0  0  0  0  0  0  0  0
   -1.8138   -3.8032    1.1150 C   0  0  0  0  0  0  0  0  0  0  0  0
   -2.0941   -4.1751    2.1112 H   0  0  0  0  0  0  0  0  0  0  0  0
    0.9929   -1.4957    1.8675 N   0  0  0  0  0  0  0  0  0  0  0  0
   -0.9390   -2.7172    1.0081 C   0  0  0  0  0  0  0  0  0  0  0  0
    3.5880    0.2156   -0.5497 C   0  0  2  0  0  3  0  0  0  0  0  0
    4.7597    0.9797   -0.4900 C   0  0  0  0  0  0  0  0  0  0  0  0
    5.6813    0.5801   -0.9373 H   0  0  0  0  0  0  0  0  0  0  0  0
    4.7430    2.2364    0.1299 C   0  0  0  0  0  0  0  0  0  0  0  0
    5.6515    2.8537    0.1775 H   0  0  0  0  0  0  0  0  0  0  0  0
    3.5369    2.6747    0.6937 C   0  0  0  0  0  0  0  0  0  0  0  0
    3.4556    3.6488    1.1957 H   0  0  0  0  0  0  0  0  0  0  0  0
    2.4082    1.8579    0.6097 C   0  0  0  0  0  0  0  0  0  0  0  0
    1.4507    2.1847    1.0288 H   0  0  0  0  0  0  0  0  0  0  0  0
    3.5295   -1.1218   -1.2253 C   0  0  0  0  0  0  0  0  0  0  0  0
    3.1260   -0.9851   -2.2512 H   0  0  0  0  0  0  0  0  0  0  0  0
    4.5367   -1.5902   -1.2916 H   0  0  0  0  0  0  0  0  0  0  0  0
    3.0775   -2.3671    0.8351 C   0  0  0  0  0  0  0  0  0  0  0  0
    3.6644   -1.5118    1.2262 H   0  0  0  0  0  0  0  0  0  0  0  0
    3.7706   -3.2360    0.7770 H   0  0  0  0  0  0  0  0  0  0  0  0
    1.9145   -2.6743    1.7543 C   0  0  0  0  0  0  0  0  0  0  0  0
    2.2722   -2.9766    2.7627 H   0  0  0  0  0  0  0  0  0  0  0  0
    1.3303   -3.5252    1.3512 H   0  0  0  0  0  0  0  0  0  0  0  0
   -0.3756   -1.9829    2.1925 C   0  0  0  0  0  0  0  0  0  0  0  0
   -0.9992   -1.0911    2.4127 H   0  0  0  0  0  0  0  0  0  0  0  0
   -0.3698   -2.6266    3.1009 H   0  0  0  0  0  0  0  0  0  0  0  0
    2.2828   -3.1929   -1.3356 C   0  0  0  0  0  0  0  0  0  0  0  0
    3.2195   -3.7447   -1.5701 H   0  0  0  0  0  0  0  0  0  0  0  0
    1.8001   -2.8592   -2.2730 H   0  0  0  0  0  0  0  0  0  0  0  0
    1.5929   -3.8704   -0.8010 H   0  0  0  0  0  0  0  0  0  0  0  0
    1.4753   -0.5811    2.9204 C   0  0  0  0  0  0  0  0  0  0  0  0
    0.7866    0.2760    3.0001 H   0  0  0  0  0  0  0  0  0  0  0  0
    2.4823   -0.2080    2.6612 H   0  0  0  0  0  0  0  0  0  0  0  0
    1.5221   -1.0997    3.9038 H   0  0  0  0  0  0  0  0  0  0  0  0
  1 13  1  0  0  0  0
  2  5  1  0  0  0  0
  2  1  1  0  0  0  0
  3  2  1  0  0  0  0
  4 21  1  0  0  0  0
  5  8  2  0  0  0  0
  6  5  1  0  0  0  0
  7 26  1  0  0  0  0
  8  9  1  0  0  0  0
  8 10  1  0  0  0  0
 10 11  1  0  0  0  0
 12 32  1  0  0  0  0
 12 39  1  0  0  0  0
 13 10  2  0  0  0  0
 13 32  1  0  0  0  0
 14 23  1  6  0  0  0
 14 15  1  0  0  0  0
 14  4  1  0  0  0  0
 15 17  2  0  0  0  0
 16 15  1  0  0  0  0
 17 18  1  0  0  0  0
 17 19  1  0  0  0  0
 19 20  1  0  0  0  0
 21 19  2  0  0  0  0
 21 22  1  0  0  0  0
 23  7  1  0  0  0  0
 24 23  1  0  0  0  0
 25 23  1  0  0  0  0
 26 27  1  0  0  0  0
 26 29  1  0  0  0  0
 28 26  1  0  0  0  0
 29 12  1  0  0  0  0
 29 30  1  0  0  0  0
 31 29  1  0  0  0  0
 32 33  1  0  0  0  0
 32 34  1  0  0  0  0
 35 38  1  0  0  0  0
 35  7  1  0  0  0  0
 36 35  1  0  0  0  0
 37 35  1  0  0  0  0
 39 40  1  0  0  0  0
 39 42  1  0  0  0  0
 41 39  1  0  0  0  0
M  END
