1,8,19,27
 OpenBabel05122313063D

 53 54  0  0  0  0  0  0  0  0999 V2000
   -0.2745   -1.2803   -1.2057 N   0  0  0  0  0  2  0  0  0  0  0  0
   -0.9885   -2.5602   -1.2630 C   0  0  0  0  0  0  0  0  0  0  0  0
   -0.6151   -3.2195   -0.4435 H   0  0  0  0  0  0  0  0  0  0  0  0
   -0.7946   -3.0987   -2.2154 H   0  0  0  0  0  0  0  0  0  0  0  0
   -2.4846   -2.3341   -1.0818 C   0  0  0  0  0  0  0  0  0  0  0  0
   -2.8645   -1.7042   -1.9124 H   0  0  0  0  0  0  0  0  0  0  0  0
   -3.0312   -3.3043   -1.1250 H   0  0  0  0  0  0  0  0  0  0  0  0
   -2.7194   -1.6178    0.1851 N   0  0  0  0  0  0  0  0  0  0  0  0
   -2.4460   -2.2428    0.9558 H   0  0  0  0  0  0  0  0  0  0  0  0
   -4.1241   -1.2128    0.4090 C   0  0  0  0  0  0  0  0  0  0  0  0
   -4.2505   -1.0608    1.5009 H   0  0  0  0  0  0  0  0  0  0  0  0
   -4.8141   -2.0399    0.1209 H   0  0  0  0  0  0  0  0  0  0  0  0
   -4.5526    0.0669   -0.3166 C   0  0  0  0  0  0  0  0  0  0  0  0
   -5.6504    0.1548   -0.1843 H   0  0  0  0  0  0  0  0  0  0  0  0
   -4.4033   -0.0306   -1.4148 H   0  0  0  0  0  0  0  0  0  0  0  0
   -3.9155    1.3665    0.1823 C   0  0  0  0  0  0  0  0  0  0  0  0
   -4.5787    2.2297   -0.0593 H   0  0  0  0  0  0  0  0  0  0  0  0
   -3.8362    1.3369    1.2896 H   0  0  0  0  0  0  0  0  0  0  0  0
   -2.5629    1.5956   -0.3647 N   0  0  0  0  0  0  0  0  0  0  0  0
   -2.6482    1.7446   -1.3782 H   0  0  0  0  0  0  0  0  0  0  0  0
   -1.8653    2.7534    0.2312 C   0  0  0  0  0  0  0  0  0  0  0  0
   -2.5526    3.6142    0.4009 H   0  0  0  0  0  0  0  0  0  0  0  0
   -1.0901    3.0882   -0.4875 H   0  0  0  0  0  0  0  0  0  0  0  0
   -1.1891    2.3656    1.5509 C   0  0  0  0  0  0  0  0  0  0  0  0
   -0.5907    3.2250    1.9278 H   0  0  0  0  0  0  0  0  0  0  0  0
   -1.9597    2.1499    2.3239 H   0  0  0  0  0  0  0  0  0  0  0  0
   -0.3764    1.1625    1.3733 N   0  0  0  0  0  2  0  0  0  0  0  0
    0.8442    1.1789    1.8183 C   0  0  0  0  0  3  0  0  0  0  0  0
    1.2462    2.1153    2.2639 H   0  0  0  0  0  0  0  0  0  0  0  0
    1.7690    0.0509    1.7523 C   0  0  0  0  0  0  0  0  0  0  0  0
    3.1579    0.3048    1.8350 C   0  0  0  0  0  0  0  0  0  0  0  0
    3.5122    1.3391    1.9651 H   0  0  0  0  0  0  0  0  0  0  0  0
    4.0781   -0.7439    1.7234 C   0  0  0  0  0  0  0  0  0  0  0  0
    5.1568   -0.5349    1.7726 H   0  0  0  0  0  0  0  0  0  0  0  0
    3.6229   -2.0624    1.5576 C   0  0  0  0  0  0  0  0  0  0  0  0
    4.3458   -2.8886    1.4836 H   0  0  0  0  0  0  0  0  0  0  0  0
    2.2423   -2.3298    1.5084 C   0  0  0  0  0  0  0  0  0  0  0  0
    1.8885   -3.3673    1.4085 H   0  0  0  0  0  0  0  0  0  0  0  0
    1.3219   -1.2819    1.6001 C   0  0  0  0  0  0  0  0  0  0  0  0
    0.2386   -1.4745    1.5634 H   0  0  0  0  0  0  0  0  0  0  0  0
    0.9425   -1.2613   -1.6655 C   0  0  0  0  0  3  0  0  0  0  0  0
    1.3846   -2.1981   -2.0692 H   0  0  0  0  0  0  0  0  0  0  0  0
    1.8238   -0.0989   -1.6709 C   0  0  0  0  0  0  0  0  0  0  0  0
    3.2092   -0.3002   -1.8745 C   0  0  0  0  0  0  0  0  0  0  0  0
    3.5884   -1.3204   -2.0412 H   0  0  0  0  0  0  0  0  0  0  0  0
    4.0966    0.7821   -1.8420 C   0  0  0  0  0  0  0  0  0  0  0  0
    5.1735    0.6131   -1.9891 H   0  0  0  0  0  0  0  0  0  0  0  0
    3.6105    2.0826   -1.6301 C   0  0  0  0  0  0  0  0  0  0  0  0
    4.3066    2.9347   -1.6149 H   0  0  0  0  0  0  0  0  0  0  0  0
    2.2306    2.2976   -1.4546 C   0  0  0  0  0  0  0  0  0  0  0  0
    1.8498    3.3205   -1.3109 H   0  0  0  0  0  0  0  0  0  0  0  0
    1.3462    1.2166   -1.4697 C   0  0  0  0  0  0  0  0  0  0  0  0
    0.2650    1.3644   -1.3278 H   0  0  0  0  0  0  0  0  0  0  0  0
  2  1  1  0  0  0  0
  2  5  1  0  0  0  0
  2  3  1  0  0  0  0
  4  2  1  0  0  0  0
  5  8  1  0  0  0  0
  6  5  1  0  0  0  0
  7  5  1  0  0  0  0
  8 10  1  0  0  0  0
  8  9  1  0  0  0  0
 10 11  1  0  0  0  0
 12 10  1  0  0  0  0
 13 14  1  0  0  0  0
 13 16  1  0  0  0  0
 13 10  1  0  0  0  0
 15 13  1  0  0  0  0
 16 18  1  0  0  0  0
 17 16  1  0  0  0  0
 19 16  1  0  0  0  0
 19 21  1  0  0  0  0
 20 19  1  0  0  0  0
 21 22  1  0  0  0  0
 21 24  1  0  0  0  0
 23 21  1  0  0  0  0
 24 25  1  0  0  0  0
 24 26  1  0  0  0  0
 27 24  1  0  0  0  0
 27 28  1  0  0  0  0
 28 29  1  0  0  0  0
 30 28  1  0  0  0  0
 30 31  1  0  0  0  0
 31 32  1  0  0  0  0
 33 34  1  0  0  0  0
 33 31  2  0  0  0  0
 35 33  1  0  0  0  0
 36 35  1  0  0  0  0
 37 35  2  0  0  0  0
 37 39  1  0  0  0  0
 38 37  1  0  0  0  0
 39 30  2  0  0  0  0
 40 39  1  0  0  0  0
 41  1  1  0  0  0  0
 42 41  1  0  0  0  0
 43 41  1  0  0  0  0
 43 52  1  0  0  0  0
 44 46  1  0  0  0  0
 44 43  2  0  0  0  0
 45 44  1  0  0  0  0
 46 48  2  0  0  0  0
 47 46  1  0  0  0  0
 48 49  1  0  0  0  0
 48 50  1  0  0  0  0
 50 51  1  0  0  0  0
 52 50  2  0  0  0  0
 52 53  1  0  0  0  0
M  END
