4,5,37,38
 OpenBabel05122313063D

 66 74  0  0  0  0  0  0  0  0999 V2000
   -2.4258    0.6865    2.0587 O   0  0  0  0  0  0  0  0  0  0  0  0
   -2.9664    1.5805    0.0386 N   0  0  0  0  0  0  0  0  0  0  0  0
    1.5938    2.8320   -0.6099 N   0  0  0  0  0  0  0  0  0  0  0  0
    1.7596    0.5514    0.1297 N   0  0  0  0  0  0  0  0  0  0  0  0
   -0.5530    1.7816   -0.2145 N   0  0  0  0  0  2  0  0  0  0  0  0
   -1.2451    6.0644   -1.9382 C   0  0  0  0  0  0  0  0  0  0  0  0
   -1.0088    7.0585   -2.3472 H   0  0  0  0  0  0  0  0  0  0  0  0
   -0.5517    3.9359   -1.0825 C   0  0  0  0  0  0  0  0  0  0  0  0
   -1.8954    2.2013   -0.3277 C   0  0  0  0  0  0  0  0  0  0  0  0
   -1.8984    3.5619   -0.9144 C   0  0  0  0  0  0  0  0  0  0  0  0
   -4.0520   -0.5305    0.6652 C   0  0  0  0  0  0  0  0  0  0  0  0
   -2.7945    0.3335    0.7306 C   0  0  0  0  0  0  0  0  0  0  0  0
   -2.5938    5.6911   -1.7676 C   0  0  0  0  0  0  0  0  0  0  0  0
   -3.3881    6.3996   -2.0478 H   0  0  0  0  0  0  0  0  0  0  0  0
   -3.7060   -1.7895    0.1524 C   0  0  0  0  0  0  0  0  0  0  0  0
   -5.3601   -0.2416    1.0458 C   0  0  0  0  0  0  0  0  0  0  0  0
   -5.6252    0.7505    1.4397 H   0  0  0  0  0  0  0  0  0  0  0  0
   -2.2014   -0.3940    2.9516 C   0  0  0  0  0  0  0  0  0  0  0  0
   -1.9856    0.0615    3.9366 H   0  0  0  0  0  0  0  0  0  0  0  0
   -3.0922   -1.0547    3.0494 H   0  0  0  0  0  0  0  0  0  0  0  0
   -1.3276   -1.0113    2.6433 H   0  0  0  0  0  0  0  0  0  0  0  0
   -0.1990    5.1888   -1.5908 C   0  0  0  0  0  0  0  0  0  0  0  0
    0.8587    5.4652   -1.7090 H   0  0  0  0  0  0  0  0  0  0  0  0
    2.2603    1.7583   -0.1452 C   0  0  0  0  0  0  0  0  0  0  0  0
   -4.6526   -2.8091    0.0040 C   0  0  0  0  0  0  0  0  0  0  0  0
   -4.3564   -3.7878   -0.4004 H   0  0  0  0  0  0  0  0  0  0  0  0
   -2.9404    4.4303   -1.2442 C   0  0  0  0  0  0  0  0  0  0  0  0
   -3.9870    4.1263   -1.0975 H   0  0  0  0  0  0  0  0  0  0  0  0
   -6.3246   -1.2598    0.8984 C   0  0  0  0  0  0  0  0  0  0  0  0
   -7.3691   -1.0636    1.1852 H   0  0  0  0  0  0  0  0  0  0  0  0
    0.2694    2.7961   -0.6264 C   0  0  0  0  0  0  0  0  0  0  0  0
   -5.9761   -2.5251    0.3858 C   0  0  0  0  0  0  0  0  0  0  0  0
   -6.7519   -3.2987    0.2819 H   0  0  0  0  0  0  0  0  0  0  0  0
    2.4258   -0.6865    2.0587 O   0  0  0  0  0  0  0  0  0  0  0  0
    2.9664   -1.5805    0.0386 N   0  0  0  0  0  0  0  0  0  0  0  0
   -1.5938   -2.8320   -0.6099 N   0  0  0  0  0  0  0  0  0  0  0  0
   -1.7596   -0.5514    0.1297 N   0  0  0  0  0  0  0  0  0  0  0  0
    0.5530   -1.7816   -0.2145 N   0  0  0  0  0  0  0  0  0  0  0  0
    1.2451   -6.0644   -1.9382 C   0  0  0  0  0  0  0  0  0  0  0  0
    1.0088   -7.0585   -2.3472 H   0  0  0  0  0  0  0  0  0  0  0  0
    0.5517   -3.9359   -1.0825 C   0  0  0  0  0  0  0  0  0  0  0  0
    1.8954   -2.2013   -0.3277 C   0  0  0  0  0  0  0  0  0  0  0  0
    1.8984   -3.5619   -0.9144 C   0  0  0  0  0  0  0  0  0  0  0  0
    4.0520    0.5305    0.6652 C   0  0  0  0  0  0  0  0  0  0  0  0
    2.7945   -0.3335    0.7306 C   0  0  0  0  0  0  0  0  0  0  0  0
    2.5938   -5.6911   -1.7676 C   0  0  0  0  0  0  0  0  0  0  0  0
    3.3881   -6.3996   -2.0478 H   0  0  0  0  0  0  0  0  0  0  0  0
    3.7060    1.7895    0.1524 C   0  0  0  0  0  0  0  0  0  0  0  0
    5.3601    0.2416    1.0458 C   0  0  0  0  0  0  0  0  0  0  0  0
    5.6252   -0.7505    1.4397 H   0  0  0  0  0  0  0  0  0  0  0  0
    2.2014    0.3940    2.9516 C   0  0  0  0  0  0  0  0  0  0  0  0
    1.9856   -0.0615    3.9366 H   0  0  0  0  0  0  0  0  0  0  0  0
    3.0922    1.0547    3.0494 H   0  0  0  0  0  0  0  0  0  0  0  0
    1.3276    1.0113    2.6433 H   0  0  0  0  0  0  0  0  0  0  0  0
    0.1990   -5.1888   -1.5908 C   0  0  0  0  0  0  0  0  0  0  0  0
   -0.8587   -5.4652   -1.7090 H   0  0  0  0  0  0  0  0  0  0  0  0
   -2.2603   -1.7583   -0.1452 C   0  0  0  0  0  0  0  0  0  0  0  0
    4.6526    2.8091    0.0040 C   0  0  0  0  0  0  0  0  0  0  0  0
    4.3564    3.7878   -0.4004 H   0  0  0  0  0  0  0  0  0  0  0  0
    2.9404   -4.4303   -1.2442 C   0  0  0  0  0  3  0  0  0  0  0  0
    3.9870   -4.1263   -1.0975 H   0  0  0  0  0  0  0  0  0  0  0  0
    6.3246    1.2598    0.8984 C   0  0  0  0  0  0  0  0  0  0  0  0
    7.3691    1.0636    1.1852 H   0  0  0  0  0  0  0  0  0  0  0  0
   -0.2694   -2.7961   -0.6264 C   0  0  0  0  0  0  0  0  0  0  0  0
    5.9761    2.5251    0.3858 C   0  0  0  0  0  0  0  0  0  0  0  0
    6.7519    3.2987    0.2819 H   0  0  0  0  0  0  0  0  0  0  0  0
  1 18  1  0  0  0  0
  2 12  1  0  0  0  0
  3 24  1  0  0  0  0
  4 45  1  0  0  0  0
  6 13  2  0  0  0  0
  6 22  1  0  0  0  0
  7  6  1  0  0  0  0
  8 10  1  0  0  0  0
  8 31  1  0  0  0  0
  9  5  1  0  0  0  0
  9  2  2  0  0  0  0
 10  9  1  0  0  0  0
 11 12  1  0  0  0  0
 11 16  1  0  0  0  0
 12  1  1  0  0  0  0
 13 27  1  0  0  0  0
 14 13  1  0  0  0  0
 15 11  2  0  0  0  0
 16 17  1  0  0  0  0
 18 20  1  0  0  0  0
 18 19  1  0  0  0  0
 21 18  1  0  0  0  0
 22  8  2  0  0  0  0
 23 22  1  0  0  0  0
 24  4  2  0  0  0  0
 24 48  1  0  0  0  0
 25 15  1  0  0  0  0
 25 32  2  0  0  0  0
 26 25  1  0  0  0  0
 27 28  1  0  0  0  0
 27 10  2  0  0  0  0
 29 16  2  0  0  0  0
 29 30  1  0  0  0  0
 31  3  2  0  0  0  0
 31  5  1  0  0  0  0
 32 29  1  0  0  0  0
 33 32  1  0  0  0  0
 34 51  1  0  0  0  0
 35 45  2  0  0  0  0
 36 57  2  0  0  0  0
 37 12  2  0  0  0  0
 39 46  2  0  0  0  0
 39 55  1  0  0  0  0
 40 39  1  0  0  0  0
 41 43  1  0  0  0  0
 41 64  1  0  0  0  0
 42 38  1  0  0  0  0
 42 35  1  0  0  0  0
 43 42  2  0  0  0  0
 44 45  1  0  0  0  0
 44 49  1  0  0  0  0
 45 34  1  0  0  0  0
 46 60  1  0  0  0  0
 47 46  1  0  0  0  0
 48 44  2  0  0  0  0
 49 50  1  0  0  0  0
 51 53  1  0  0  0  0
 51 52  1  0  0  0  0
 54 51  1  0  0  0  0
 55 41  2  0  0  0  0
 56 55  1  0  0  0  0
 57 37  1  0  0  0  0
 57 15  1  0  0  0  0
 58 48  1  0  0  0  0
 58 65  2  0  0  0  0
 59 58  1  0  0  0  0
 60 61  1  0  0  0  0
 60 43  1  0  0  0  0
 62 49  2  0  0  0  0
 62 63  1  0  0  0  0
 64 36  1  0  0  0  0
 64 38  2  0  0  0  0
 65 62  1  0  0  0  0
 66 65  1  0  0  0  0
M  END
