1,2,41,42
 OpenBabel05122313063D

 80 88  0  0  0  0  0  0  0  0999 V2000
   -0.0117   -2.0623   -0.0049 N   0  0  0  0  0  2  0  0  0  0  0  0
    2.0619   -0.0115   -0.0624 N   0  0  0  0  0  0  0  0  0  0  0  0
   -6.5260   -6.4445   -0.1416 O   0  0  0  0  0  0  0  0  0  0  0  0
   -7.0594   -6.4116    0.6741 H   0  0  0  0  0  0  0  0  0  0  0  0
    6.4933   -6.4792    0.0204 O   0  0  0  0  0  0  0  0  0  0  0  0
    6.4492   -6.9979    0.8451 H   0  0  0  0  0  0  0  0  0  0  0  0
    4.4010   -3.6845   -1.0635 C   0  0  0  0  0  0  0  0  0  0  0  0
    4.3102   -3.0167   -1.9332 H   0  0  0  0  0  0  0  0  0  0  0  0
    3.4989   -3.5320    0.0139 C   0  0  0  0  0  0  0  0  0  0  0  0
    3.6312   -4.4073    1.1123 C   0  0  0  0  0  0  0  0  0  0  0  0
    2.9493   -4.3007    1.9691 H   0  0  0  0  0  0  0  0  0  0  0  0
    5.3931   -4.6696   -1.0519 C   0  0  0  0  0  0  0  0  0  0  0  0
    6.0876   -4.7911   -1.8957 H   0  0  0  0  0  0  0  0  0  0  0  0
    5.5119   -5.5366    0.0530 C   0  0  0  0  0  0  0  0  0  0  0  0
   -1.1250   -2.8786   -0.0043 C   0  0  0  0  0  0  0  0  0  0  0  0
    4.6224   -5.3969    1.1369 C   0  0  0  0  0  0  0  0  0  0  0  0
    4.7137   -6.0646    2.0100 H   0  0  0  0  0  0  0  0  0  0  0  0
    1.0922   -2.8912   -0.0107 C   0  0  0  0  0  0  0  0  0  0  0  0
    0.6622   -4.2769   -0.0235 C   0  0  0  0  0  0  0  0  0  0  0  0
    1.3279   -5.1455   -0.0494 H   0  0  0  0  0  0  0  0  0  0  0  0
   -0.7110   -4.2692   -0.0015 C   0  0  0  0  0  0  0  0  0  0  0  0
   -1.3863   -5.1305    0.0157 H   0  0  0  0  0  0  0  0  0  0  0  0
    2.4457   -2.4740   -0.0080 C   0  0  0  0  0  0  0  0  0  0  0  0
    2.8766   -1.1246   -0.0084 C   0  0  0  0  0  0  0  0  0  0  0  0
   -2.4738   -2.4461   -0.0031 C   0  0  0  0  0  0  0  0  0  0  0  0
   -2.8892   -1.0919    0.0033 C   0  0  0  0  0  0  0  0  0  0  0  0
   -3.5387   -3.4922   -0.0257 C   0  0  0  0  0  0  0  0  0  0  0  0
   -4.4370   -3.6361    1.0525 C   0  0  0  0  0  0  0  0  0  0  0  0
   -4.3392   -2.9725    1.9246 H   0  0  0  0  0  0  0  0  0  0  0  0
   -4.2713   -0.6621   -0.1009 C   0  0  0  0  0  0  0  0  0  0  0  0
   -5.1346   -1.3285   -0.1951 H   0  0  0  0  0  0  0  0  0  0  0  0
   -3.6851   -4.3658   -1.1273 C   0  0  0  0  0  0  0  0  0  0  0  0
   -3.0032   -4.2621   -1.9846 H   0  0  0  0  0  0  0  0  0  0  0  0
   -5.4402   -4.6139    1.0366 C   0  0  0  0  0  0  0  0  0  0  0  0
   -6.1262   -4.7145    1.8942 H   0  0  0  0  0  0  0  0  0  0  0  0
   -4.6834   -5.3442   -1.1561 C   0  0  0  0  0  0  0  0  0  0  0  0
   -4.7999   -6.0161   -2.0186 H   0  0  0  0  0  0  0  0  0  0  0  0
   -4.2635    0.7112   -0.0976 C   0  0  0  0  0  0  0  0  0  0  0  0
   -5.1193    1.3879   -0.1877 H   0  0  0  0  0  0  0  0  0  0  0  0
   -5.5712   -5.4770   -0.0695 C   0  0  0  0  0  0  0  0  0  0  0  0
    0.0117    2.0623    0.0049 N   0  0  0  0  0  0  0  0  0  0  0  0
   -2.0619    0.0115    0.0624 N   0  0  0  0  0  0  0  0  0  0  0  0
    6.5260    6.4445    0.1415 O   0  0  0  0  0  0  0  0  0  0  0  0
    7.0594    6.4116   -0.6742 H   0  0  0  0  0  0  0  0  0  0  0  0
   -6.4933    6.4792   -0.0204 O   0  0  0  0  0  0  0  0  0  0  0  0
   -6.4492    6.9979   -0.8450 H   0  0  0  0  0  0  0  0  0  0  0  0
   -4.4010    3.6845    1.0635 C   0  0  0  0  0  0  0  0  0  0  0  0
   -4.3102    3.0166    1.9333 H   0  0  0  0  0  0  0  0  0  0  0  0
   -3.4989    3.5320   -0.0139 C   0  0  0  0  0  0  0  0  0  0  0  0
   -3.6312    4.4073   -1.1123 C   0  0  0  0  0  0  0  0  0  0  0  0
   -2.9493    4.3007   -1.9691 H   0  0  0  0  0  0  0  0  0  0  0  0
   -5.3931    4.6696    1.0519 C   0  0  0  0  0  0  0  0  0  0  0  0
   -6.0876    4.7911    1.8957 H   0  0  0  0  0  0  0  0  0  0  0  0
   -5.5119    5.5366   -0.0529 C   0  0  0  0  0  0  0  0  0  0  0  0
    1.1250    2.8786    0.0043 C   0  0  0  0  0  0  0  0  0  0  0  0
   -4.6225    5.3969   -1.1369 C   0  0  0  0  0  0  0  0  0  0  0  0
   -4.7137    6.0646   -2.0099 H   0  0  0  0  0  0  0  0  0  0  0  0
   -1.0922    2.8912    0.0108 C   0  0  0  0  0  3  0  0  0  0  0  0
   -0.6622    4.2769    0.0235 C   0  0  0  0  0  0  0  0  0  0  0  0
   -1.3279    5.1455    0.0494 H   0  0  0  0  0  0  0  0  0  0  0  0
    0.7110    4.2692    0.0015 C   0  0  0  0  0  0  0  0  0  0  0  0
    1.3863    5.1305   -0.0157 H   0  0  0  0  0  0  0  0  0  0  0  0
   -2.4457    2.4740    0.0080 C   0  0  0  0  0  0  0  0  0  0  0  0
   -2.8766    1.1246    0.0084 C   0  0  0  0  0  0  0  0  0  0  0  0
    2.4738    2.4461    0.0031 C   0  0  0  0  0  0  0  0  0  0  0  0
    2.8892    1.0919   -0.0034 C   0  0  0  0  0  0  0  0  0  0  0  0
    3.5387    3.4922    0.0256 C   0  0  0  0  0  0  0  0  0  0  0  0
    4.4370    3.6361   -1.0526 C   0  0  0  0  0  0  0  0  0  0  0  0
    4.3392    2.9725   -1.9247 H   0  0  0  0  0  0  0  0  0  0  0  0
    4.2713    0.6621    0.1009 C   0  0  0  0  0  0  0  0  0  0  0  0
    5.1346    1.3285    0.1950 H   0  0  0  0  0  0  0  0  0  0  0  0
    3.6851    4.3658    1.1272 C   0  0  0  0  0  0  0  0  0  0  0  0
    3.0032    4.2621    1.9845 H   0  0  0  0  0  0  0  0  0  0  0  0
    5.4402    4.6139   -1.0366 C   0  0  0  0  0  0  0  0  0  0  0  0
    6.1262    4.7144   -1.8943 H   0  0  0  0  0  0  0  0  0  0  0  0
    4.6834    5.3442    1.1560 C   0  0  0  0  0  0  0  0  0  0  0  0
    4.7999    6.0161    2.0185 H   0  0  0  0  0  0  0  0  0  0  0  0
    4.2635   -0.7112    0.0976 C   0  0  0  0  0  0  0  0  0  0  0  0
    5.1193   -1.3879    0.1877 H   0  0  0  0  0  0  0  0  0  0  0  0
    5.5712    5.4770    0.0694 C   0  0  0  0  0  0  0  0  0  0  0  0
  1 15  1  0  0  0  0
  2 24  2  0  0  0  0
  2 66  1  0  0  0  0
  3 40  1  0  0  0  0
  3  4  1  0  0  0  0
  5 14  1  0  0  0  0
  5  6  1  0  0  0  0
  7 12  2  0  0  0  0
  7  9  1  0  0  0  0
  8  7  1  0  0  0  0
  9 10  2  0  0  0  0
 10 16  1  0  0  0  0
 10 11  1  0  0  0  0
 12 14  1  0  0  0  0
 13 12  1  0  0  0  0
 14 16  2  0  0  0  0
 15 25  2  0  0  0  0
 15 21  1  0  0  0  0
 16 17  1  0  0  0  0
 18 23  2  0  0  0  0
 18  1  1  0  0  0  0
 19 18  1  0  0  0  0
 19 21  2  0  0  0  0
 20 19  1  0  0  0  0
 21 22  1  0  0  0  0
 23  9  1  0  0  0  0
 24 23  1  0  0  0  0
 24 78  1  0  0  0  0
 25 26  1  0  0  0  0
 26 42  2  0  0  0  0
 27 25  1  0  0  0  0
 27 28  1  0  0  0  0
 28 29  1  0  0  0  0
 30 38  2  0  0  0  0
 30 26  1  0  0  0  0
 31 30  1  0  0  0  0
 32 27  2  0  0  0  0
 33 32  1  0  0  0  0
 34 28  2  0  0  0  0
 34 35  1  0  0  0  0
 36 32  1  0  0  0  0
 36 40  2  0  0  0  0
 37 36  1  0  0  0  0
 38 64  1  0  0  0  0
 39 38  1  0  0  0  0
 40 34  1  0  0  0  0
 41 58  1  0  0  0  0
 44 43  1  0  0  0  0
 46 45  1  0  0  0  0
 47 48  1  0  0  0  0
 49 63  1  0  0  0  0
 49 47  2  0  0  0  0
 50 49  1  0  0  0  0
 51 50  1  0  0  0  0
 52 47  1  0  0  0  0
 52 53  1  0  0  0  0
 54 45  1  0  0  0  0
 54 52  2  0  0  0  0
 55 41  2  0  0  0  0
 56 50  2  0  0  0  0
 56 54  1  0  0  0  0
 57 56  1  0  0  0  0
 58 59  1  0  0  0  0
 59 60  1  0  0  0  0
 61 55  1  0  0  0  0
 61 59  2  0  0  0  0
 62 61  1  0  0  0  0
 63 64  2  0  0  0  0
 63 58  1  0  0  0  0
 64 42  1  0  0  0  0
 65 55  1  0  0  0  0
 65 67  1  0  0  0  0
 66 65  2  0  0  0  0
 66 70  1  0  0  0  0
 67 72  1  0  0  0  0
 68 74  1  0  0  0  0
 68 67  2  0  0  0  0
 69 68  1  0  0  0  0
 70 71  1  0  0  0  0
 72 76  2  0  0  0  0
 72 73  1  0  0  0  0
 74 80  2  0  0  0  0
 75 74  1  0  0  0  0
 76 77  1  0  0  0  0
 78 70  2  0  0  0  0
 78 79  1  0  0  0  0
 80 43  1  0  0  0  0
 80 76  1  0  0  0  0
M  END
