3,4,5,6
 OpenBabel05122313063D

 36 38  0  0  1  0  0  0  0  0999 V2000
    1.2606    3.5388    1.2501 O   0  0  0  0  0  0  0  0  0  0  0  0
    1.2772   -3.5339    1.2546 O   0  0  0  0  0  0  0  0  0  0  0  0
    0.3164    1.6939   -1.6849 N   0  0  0  0  0  2  0  0  0  0  0  0
    1.4794    1.2861    0.6130 N   0  0  0  0  0  2  0  0  0  0  0  0
    1.4838   -1.2806    0.6154 N   0  0  0  0  0  2  0  0  0  0  0  0
    0.3203   -1.6966   -1.6811 N   0  0  0  0  0  2  0  0  0  0  0  0
   -0.1546    1.8781   -2.9352 C   0  0  0  0  0  3  0  0  0  0  0  0
   -0.2013    0.9856   -3.5772 H   0  0  0  0  0  0  0  0  0  0  0  0
   -0.5699    3.1268   -3.4137 C   0  0  0  0  0  0  0  0  0  0  0  0
   -0.9416    3.2175   -4.4443 H   0  0  0  0  0  0  0  0  0  0  0  0
   -0.5040    4.2370   -2.5554 C   0  0  0  0  0  0  0  0  0  0  0  0
   -0.8376    5.2290   -2.8957 H   0  0  0  0  0  0  0  0  0  0  0  0
    0.0128    4.0567   -1.2677 C   0  0  0  0  0  0  0  0  0  0  0  0
    0.1358    4.8702   -0.5378 H   0  0  0  0  0  0  0  0  0  0  0  0
    0.4349    2.7803   -0.8684 C   0  0  0  0  0  0  0  0  0  0  0  0
    1.1044    2.5836    0.4708 C   0  0  0  0  0  0  0  0  0  0  0  0
    2.1261    0.7235    1.7161 C   0  0  0  0  0  0  0  0  0  0  0  0
    2.7058    1.4275    2.7927 C   0  0  0  0  0  0  0  0  0  0  0  0
    2.6674    2.5237    2.7807 H   0  0  0  0  0  0  0  0  0  0  0  0
    3.2944    0.7120    3.8474 C   0  0  0  0  0  0  0  0  0  0  0  0
    3.7526    1.2633    4.6829 H   0  0  0  0  0  0  0  0  0  0  0  0
    3.2971   -0.6943    3.8485 C   0  0  0  0  0  0  0  0  0  0  0  0
    3.7575   -1.2424    4.6850 H   0  0  0  0  0  0  0  0  0  0  0  0
    2.7112   -1.4137    2.7951 C   0  0  0  0  0  0  0  0  0  0  0  0
    2.6770   -2.5101    2.7848 H   0  0  0  0  0  0  0  0  0  0  0  0
    2.1287   -0.7138    1.7173 C   0  0  0  0  0  0  0  0  0  0  0  0
    1.1155   -2.5802    0.4746 C   0  0  0  0  0  0  0  0  0  0  0  0
    0.4451   -2.7814   -0.8635 C   0  0  2  0  0  3  0  0  0  0  0  0
    0.0277   -4.0601   -1.2604 C   0  0  0  0  0  0  0  0  0  0  0  0
    0.1560   -4.8722   -0.5298 H   0  0  0  0  0  0  0  0  0  0  0  0
   -0.4916   -4.2441   -2.5465 C   0  0  0  0  0  0  0  0  0  0  0  0
   -0.8216   -5.2379   -2.8849 H   0  0  0  0  0  0  0  0  0  0  0  0
   -0.5650   -3.1351   -3.4057 C   0  0  0  0  0  0  0  0  0  0  0  0
   -0.9395   -3.2284   -4.4351 H   0  0  0  0  0  0  0  0  0  0  0  0
   -0.1538   -1.8841   -2.9297 C   0  0  0  0  0  0  0  0  0  0  0  0
   -0.2065   -0.9924   -3.5724 H   0  0  0  0  0  0  0  0  0  0  0  0
  3 15  1  0  0  0  0
  4 17  1  0  0  0  0
  5 26  1  0  0  0  0
  6 28  1  0  0  0  0
  7  3  1  0  0  0  0
  8  7  1  0  0  0  0
  9  7  1  0  0  0  0
  9 11  2  0  0  0  0
 10  9  1  0  0  0  0
 11 13  1  0  0  0  0
 12 11  1  0  0  0  0
 13 15  2  0  0  0  0
 13 14  1  0  0  0  0
 15 16  1  0  0  0  0
 16  4  1  0  0  0  0
 16  1  2  0  0  0  0
 17 26  2  0  0  0  0
 17 18  1  0  0  0  0
 18 20  2  0  0  0  0
 19 18  1  0  0  0  0
 20 22  1  0  0  0  0
 20 21  1  0  0  0  0
 22 23  1  0  0  0  0
 24 22  2  0  0  0  0
 25 24  1  0  0  0  0
 26 24  1  0  0  0  0
 27  5  1  0  0  0  0
 27  2  2  0  0  0  0
 28 27  1  6  0  0  0
 29 28  1  0  0  0  0
 29 30  1  0  0  0  0
 31 29  2  0  0  0  0
 32 31  1  0  0  0  0
 33 35  2  0  0  0  0
 33 31  1  0  0  0  0
 34 33  1  0  0  0  0
 35  6  1  0  0  0  0
 36 35  1  0  0  0  0
M  END
