1,11,22,32
 OpenBabel05122313063D

 42 42  0  0  0  0  0  0  0  0999 V2000
   -0.7759    1.8254   -0.2288 N   0  0  0  0  0  2  0  0  0  0  0  0
   -0.0000    3.0543   -0.1144 C   0  0  0  0  0  0  0  0  0  0  0  0
   -0.5847    3.8146    0.4492 H   0  0  0  0  0  0  0  0  0  0  0  0
    0.1663    3.4837   -1.1303 H   0  0  0  0  0  0  0  0  0  0  0  0
    1.3364    2.8224    0.5968 C   0  0  0  0  0  0  0  0  0  0  0  0
    1.1417    2.3728    1.5950 H   0  0  0  0  0  0  0  0  0  0  0  0
    1.8057    3.8108    0.7745 H   0  0  0  0  0  0  0  0  0  0  0  0
    2.3433    1.9476   -0.1558 C   0  0  0  0  0  0  0  0  0  0  0  0
    2.5168    2.3459   -1.1826 H   0  0  0  0  0  0  0  0  0  0  0  0
    3.3269    1.9954    0.3624 H   0  0  0  0  0  0  0  0  0  0  0  0
    1.8949    0.5638   -0.2540 N   0  0  0  0  0  2  0  0  0  0  0  0
    2.6303   -0.4040   -0.6921 C   0  0  0  0  0  0  0  0  0  0  0  0
    1.9751   -1.7741   -0.7057 C   0  0  0  0  0  0  0  0  0  0  0  0
    4.0417   -0.2653   -1.1784 C   0  0  0  0  0  0  0  0  0  0  0  0
    4.0761   -0.3412   -2.2868 H   0  0  0  0  0  0  0  0  0  0  0  0
    4.6868   -1.0752   -0.7856 H   0  0  0  0  0  0  0  0  0  0  0  0
    4.4868    0.7050   -0.8962 H   0  0  0  0  0  0  0  0  0  0  0  0
    2.7460   -2.9528   -1.2207 C   0  0  0  0  0  0  0  0  0  0  0  0
    2.0886   -3.8068   -1.4618 H   0  0  0  0  0  0  0  0  0  0  0  0
    3.4727   -3.2966   -0.4522 H   0  0  0  0  0  0  0  0  0  0  0  0
    3.3348   -2.6971   -2.1220 H   0  0  0  0  0  0  0  0  0  0  0  0
    0.7759   -1.8254   -0.2288 N   0  0  0  0  0  2  0  0  0  0  0  0
   -0.0000   -3.0543   -0.1144 C   0  0  0  0  0  0  0  0  0  0  0  0
    0.5847   -3.8146    0.4492 H   0  0  0  0  0  0  0  0  0  0  0  0
   -0.1663   -3.4837   -1.1303 H   0  0  0  0  0  0  0  0  0  0  0  0
   -1.3364   -2.8224    0.5968 C   0  0  0  0  0  0  0  0  0  0  0  0
   -1.1417   -2.3728    1.5950 H   0  0  0  0  0  0  0  0  0  0  0  0
   -1.8057   -3.8108    0.7745 H   0  0  0  0  0  0  0  0  0  0  0  0
   -2.3433   -1.9476   -0.1558 C   0  0  0  0  0  0  0  0  0  0  0  0
   -2.5168   -2.3459   -1.1826 H   0  0  0  0  0  0  0  0  0  0  0  0
   -3.3269   -1.9954    0.3624 H   0  0  0  0  0  0  0  0  0  0  0  0
   -1.8949   -0.5638   -0.2540 N   0  0  0  0  0  2  0  0  0  0  0  0
   -2.6303    0.4040   -0.6921 C   0  0  0  0  0  0  0  0  0  0  0  0
   -1.9751    1.7741   -0.7057 C   0  0  0  0  0  0  0  0  0  0  0  0
   -4.0417    0.2653   -1.1784 C   0  0  0  0  0  0  0  0  0  0  0  0
   -4.0761    0.3412   -2.2868 H   0  0  0  0  0  0  0  0  0  0  0  0
   -4.6868    1.0752   -0.7856 H   0  0  0  0  0  0  0  0  0  0  0  0
   -4.4868   -0.7050   -0.8962 H   0  0  0  0  0  0  0  0  0  0  0  0
   -2.7460    2.9528   -1.2207 C   0  0  0  0  0  0  0  0  0  0  0  0
   -2.0886    3.8068   -1.4618 H   0  0  0  0  0  0  0  0  0  0  0  0
   -3.4727    3.2966   -0.4522 H   0  0  0  0  0  0  0  0  0  0  0  0
   -3.3348    2.6971   -2.1220 H   0  0  0  0  0  0  0  0  0  0  0  0
  1  2  1  0  0  0  0
  2  3  1  0  0  0  0
  2  5  1  0  0  0  0
  4  2  1  0  0  0  0
  5  7  1  0  0  0  0
  5  6  1  0  0  0  0
  8 10  1  0  0  0  0
  8  5  1  0  0  0  0
  9  8  1  0  0  0  0
 11  8  1  0  0  0  0
 12 11  1  0  0  0  0
 13 12  2  0  0  0  0
 13 22  1  0  0  0  0
 14 17  1  0  0  0  0
 14 16  1  0  0  0  0
 14 12  1  0  0  0  0
 15 14  1  0  0  0  0
 18 13  1  0  0  0  0
 18 20  1  0  0  0  0
 19 18  1  0  0  0  0
 21 18  1  0  0  0  0
 22 23  1  0  0  0  0
 23 24  1  0  0  0  0
 23 26  1  0  0  0  0
 25 23  1  0  0  0  0
 26 28  1  0  0  0  0
 26 27  1  0  0  0  0
 29 31  1  0  0  0  0
 29 26  1  0  0  0  0
 30 29  1  0  0  0  0
 32 29  1  0  0  0  0
 33 32  1  0  0  0  0
 34 33  2  0  0  0  0
 34  1  1  0  0  0  0
 35 38  1  0  0  0  0
 35 37  1  0  0  0  0
 35 33  1  0  0  0  0
 36 35  1  0  0  0  0
 39 34  1  0  0  0  0
 39 41  1  0  0  0  0
 40 39  1  0  0  0  0
 42 39  1  0  0  0  0
M  END
