3,4,5,6
 OpenBabel05122313063D

 36 38  0  0  1  0  0  0  0  0999 V2000
   -5.5125   -1.5937   -0.0791 Cl  0  0  0  0  0  0  0  0  0  0  0  0
   -5.5125    1.5937    0.0792 Cl  0  0  0  0  0  0  0  0  0  0  0  0
    2.2218   -1.5809    0.1215 N   0  0  0  0  0  2  0  0  0  0  0  0
   -0.3075   -1.2714   -0.0226 N   0  0  0  0  0  2  0  0  0  0  0  0
   -0.3075    1.2714    0.0226 N   0  0  0  0  0  2  0  0  0  0  0  0
    2.2218    1.5809   -0.1216 N   0  0  0  0  0  2  0  0  0  0  0  0
   -0.7326   -3.5599   -0.3185 O   0  0  0  0  0  0  0  0  0  0  0  0
   -0.7326    3.5599    0.3183 O   0  0  0  0  0  0  0  0  0  0  0  0
    3.5266   -1.6681    0.4296 C   0  0  0  0  0  3  0  0  0  0  0  0
    4.0305   -0.7244    0.6799 H   0  0  0  0  0  0  0  0  0  0  0  0
    4.2064   -2.8927    0.4692 C   0  0  0  0  0  0  0  0  0  0  0  0
    5.2783   -2.9097    0.7144 H   0  0  0  0  0  0  0  0  0  0  0  0
    3.4950   -4.0745    0.2029 C   0  0  0  0  0  0  0  0  0  0  0  0
    4.0043   -5.0506    0.2182 H   0  0  0  0  0  0  0  0  0  0  0  0
    2.1217   -3.9860   -0.0488 C   0  0  0  0  0  0  0  0  0  0  0  0
    1.4704   -4.8566   -0.2142 H   0  0  0  0  0  0  0  0  0  0  0  0
    1.5105   -2.7245   -0.0665 C   0  0  0  0  0  0  0  0  0  0  0  0
    0.0194   -2.5779   -0.1751 C   0  0  0  0  0  0  0  0  0  0  0  0
   -1.5758   -0.7161   -0.0248 C   0  0  0  0  0  0  0  0  0  0  0  0
   -2.7957   -1.4189   -0.0624 C   0  0  0  0  0  0  0  0  0  0  0  0
   -2.7772   -2.5136   -0.1165 H   0  0  0  0  0  0  0  0  0  0  0  0
   -4.0042   -0.7053   -0.0332 C   0  0  0  0  0  0  0  0  0  0  0  0
   -4.0042    0.7053    0.0333 C   0  0  0  0  0  0  0  0  0  0  0  0
   -2.7957    1.4189    0.0624 C   0  0  0  0  0  0  0  0  0  0  0  0
   -2.7772    2.5136    0.1165 H   0  0  0  0  0  0  0  0  0  0  0  0
   -1.5758    0.7161    0.0248 C   0  0  0  0  0  0  0  0  0  0  0  0
    0.0194    2.5779    0.1750 C   0  0  0  0  0  0  0  0  0  0  0  0
    1.5105    2.7245    0.0664 C   0  0  2  0  0  3  0  0  0  0  0  0
    2.1218    3.9860    0.0487 C   0  0  0  0  0  0  0  0  0  0  0  0
    1.4704    4.8566    0.2141 H   0  0  0  0  0  0  0  0  0  0  0  0
    3.4951    4.0744   -0.2028 C   0  0  0  0  0  0  0  0  0  0  0  0
    4.0044    5.0506   -0.2180 H   0  0  0  0  0  0  0  0  0  0  0  0
    4.2064    2.8926   -0.4689 C   0  0  0  0  0  0  0  0  0  0  0  0
    5.2784    2.9096   -0.7140 H   0  0  0  0  0  0  0  0  0  0  0  0
    3.5266    1.6680   -0.4295 C   0  0  0  0  0  0  0  0  0  0  0  0
    4.0306    0.7243   -0.6797 H   0  0  0  0  0  0  0  0  0  0  0  0
  1 22  1  0  0  0  0
  3  9  1  0  0  0  0
  5 26  1  0  0  0  0
  5 27  1  0  0  0  0
  6 28  1  0  0  0  0
  7 18  2  0  0  0  0
  9 11  1  0  0  0  0
  9 10  1  0  0  0  0
 11 12  1  0  0  0  0
 13 14  1  0  0  0  0
 13 11  2  0  0  0  0
 15 13  1  0  0  0  0
 16 15  1  0  0  0  0
 17 15  2  0  0  0  0
 17  3  1  0  0  0  0
 18 17  1  0  0  0  0
 18  4  1  0  0  0  0
 19  4  1  0  0  0  0
 19 26  1  0  0  0  0
 20 22  1  0  0  0  0
 20 19  2  0  0  0  0
 21 20  1  0  0  0  0
 22 23  2  0  0  0  0
 23 24  1  0  0  0  0
 23  2  1  0  0  0  0
 24 25  1  0  0  0  0
 26 24  2  0  0  0  0
 27  8  2  0  0  0  0
 28 27  1  6  0  0  0
 29 28  1  0  0  0  0
 29 30  1  0  0  0  0
 31 29  2  0  0  0  0
 32 31  1  0  0  0  0
 33 35  2  0  0  0  0
 33 31  1  0  0  0  0
 34 33  1  0  0  0  0
 35  6  1  0  0  0  0
 36 35  1  0  0  0  0
M  END
