1,17,25,28
 OpenBabel05122313063D

 51 55  0  0  0  0  0  0  0  0999 V2000
    2.1710    0.2394   -0.8820 N   0  0  0  0  0  2  0  0  0  0  0  0
    2.9312   -0.9088   -1.0820 C   0  0  0  0  0  0  0  0  0  0  0  0
    4.3427   -0.8922   -1.1575 C   0  0  0  0  0  0  0  0  0  0  0  0
    5.0231    0.3142   -1.0481 C   0  0  0  0  0  0  0  0  0  0  0  0
    4.2651    1.4857   -0.8938 C   0  0  0  0  0  0  0  0  0  0  0  0
    2.8626    1.4349   -0.8171 C   0  0  0  0  0  0  0  0  0  0  0  0
    2.0956    2.6791   -0.6687 C   0  0  0  0  0  0  0  0  0  0  0  0
    2.7769    4.0154   -0.8705 C   0  0  0  0  0  0  0  0  0  0  0  0
    0.8383    2.4335   -0.4501 N   0  0  0  0  0  0  0  0  0  0  0  0
   -0.1501    3.3099   -0.2694 N   0  0  0  0  0  0  0  0  0  0  0  0
   -0.0015    4.6807    0.2285 C   0  0  0  0  0  0  0  0  0  0  0  0
   -1.4122    2.7214   -0.3742 C   0  0  0  0  0  0  0  0  0  0  0  0
   -2.6016    3.5047   -0.2989 C   0  0  0  0  0  0  0  0  0  0  0  0
   -3.8407    2.8858   -0.3934 C   0  0  0  0  0  0  0  0  0  0  0  0
   -3.9101    1.4780   -0.5542 C   0  0  0  0  0  0  0  0  0  0  0  0
   -2.6598    0.7980   -0.6379 C   0  0  0  0  0  0  0  0  0  0  0  0
   -1.4348    1.3912   -0.5723 N   0  0  0  0  0  2  0  0  0  0  0  0
   -2.6407   -0.6148   -0.7653 C   0  0  0  0  0  0  0  0  0  0  0  0
   -3.8431   -1.3752   -0.8130 C   0  0  0  0  0  0  0  0  0  0  0  0
   -5.0902   -0.6637   -0.7636 C   0  0  0  0  0  0  0  0  0  0  0  0
   -5.1209    0.7106   -0.6394 C   0  0  0  0  0  0  0  0  0  0  0  0
   -3.7080   -2.7873   -0.8845 C   0  0  0  0  0  0  0  0  0  0  0  0
   -2.4388   -3.3616   -0.8864 C   0  0  0  0  0  0  0  0  0  0  0  0
   -1.3035   -2.5242   -0.8166 C   0  0  0  0  0  0  0  0  0  0  0  0
   -1.3988   -1.1766   -0.7675 N   0  0  0  0  0  2  0  0  0  0  0  0
    0.0073   -2.9717   -0.7970 N   0  0  0  0  0  0  0  0  0  0  0  0
    0.3788   -4.1031    0.0646 C   0  0  0  0  0  0  0  0  0  0  0  0
    0.8810   -1.9065   -0.9366 N   0  0  0  0  0  2  0  0  0  0  0  0
    2.1811   -2.1209   -1.1781 C   0  0  0  0  0  0  0  0  0  0  0  0
    2.7496   -3.4347   -1.6197 C   0  0  0  0  0  0  0  0  0  0  0  0
    4.8862   -1.8380   -1.2819 H   0  0  0  0  0  0  0  0  0  0  0  0
    6.1206    0.3545   -1.0891 H   0  0  0  0  0  0  0  0  0  0  0  0
    4.7714    2.4563   -0.8264 H   0  0  0  0  0  0  0  0  0  0  0  0
    3.5562    3.9292   -1.6502 H   0  0  0  0  0  0  0  0  0  0  0  0
    3.2741    4.3955    0.0470 H   0  0  0  0  0  0  0  0  0  0  0  0
    2.0667    4.7832   -1.2199 H   0  0  0  0  0  0  0  0  0  0  0  0
    0.9592    4.7614    0.7636 H   0  0  0  0  0  0  0  0  0  0  0  0
   -0.8066    4.8956    0.9562 H   0  0  0  0  0  0  0  0  0  0  0  0
   -0.0383    5.4419   -0.5777 H   0  0  0  0  0  0  0  0  0  0  0  0
   -2.5433    4.5952   -0.1968 H   0  0  0  0  0  0  0  0  0  0  0  0
   -4.7631    3.4836   -0.3471 H   0  0  0  0  0  0  0  0  0  0  0  0
   -6.0268   -1.2384   -0.8158 H   0  0  0  0  0  0  0  0  0  0  0  0
   -6.0837    1.2414   -0.5953 H   0  0  0  0  0  0  0  0  0  0  0  0
   -4.6036   -3.4226   -0.9441 H   0  0  0  0  0  0  0  0  0  0  0  0
   -2.3081   -4.4488   -0.9689 H   0  0  0  0  0  0  0  0  0  0  0  0
    1.1345   -3.7518    0.7950 H   0  0  0  0  0  0  0  0  0  0  0  0
    0.7802   -4.9627   -0.5036 H   0  0  0  0  0  0  0  0  0  0  0  0
   -0.5155   -4.4259    0.6276 H   0  0  0  0  0  0  0  0  0  0  0  0
    3.6044   -3.2671   -2.3011 H   0  0  0  0  0  0  0  0  0  0  0  0
    1.9885   -4.0078   -2.1834 H   0  0  0  0  0  0  0  0  0  0  0  0
    3.1094   -4.0733   -0.7860 H   0  0  0  0  0  0  0  0  0  0  0  0
  1  6  1  0  0  0  0
  2  1  1  0  0  0  0
  3  2  1  0  0  0  0
  3  4  2  0  0  0  0
  4  5  1  0  0  0  0
  5 33  1  0  0  0  0
  5  6  2  0  0  0  0
  6  7  1  0  0  0  0
  7  9  2  0  0  0  0
  8  7  1  0  0  0  0
  8 35  1  0  0  0  0
  9 10  1  0  0  0  0
 10 11  1  0  0  0  0
 11 37  1  0  0  0  0
 11 38  1  0  0  0  0
 12 13  2  0  0  0  0
 12 10  1  0  0  0  0
 13 40  1  0  0  0  0
 14 41  1  0  0  0  0
 14 13  1  0  0  0  0
 15 14  2  0  0  0  0
 16 17  1  0  0  0  0
 16 15  1  0  0  0  0
 17 12  1  0  0  0  0
 18 16  2  0  0  0  0
 19 18  1  0  0  0  0
 19 20  1  0  0  0  0
 20 21  2  0  0  0  0
 21 43  1  0  0  0  0
 21 15  1  0  0  0  0
 22 19  2  0  0  0  0
 23 22  1  0  0  0  0
 23 24  2  0  0  0  0
 24 26  1  0  0  0  0
 24 25  1  0  0  0  0
 25 18  1  0  0  0  0
 26 27  1  0  0  0  0
 27 48  1  0  0  0  0
 27 46  1  0  0  0  0
 28 26  1  0  0  0  0
 29  2  2  0  0  0  0
 29 28  1  0  0  0  0
 30 29  1  0  0  0  0
 30 51  1  0  0  0  0
 31  3  1  0  0  0  0
 32  4  1  0  0  0  0
 34  8  1  0  0  0  0
 36  8  1  0  0  0  0
 39 11  1  0  0  0  0
 42 20  1  0  0  0  0
 44 22  1  0  0  0  0
 45 23  1  0  0  0  0
 47 27  1  0  0  0  0
 49 30  1  0  0  0  0
 50 30  1  0  0  0  0
M  END
