1,2,3,4
 OpenBabel05122313063D

 42 43  0  0  1  0  0  0  0  0999 V2000
   -1.8502    0.0255    0.5210 N   0  0  0  0  0  2  0  0  0  0  0  0
   -0.6326   -1.4130   -1.2268 N   0  0  0  0  0  0  0  0  0  0  0  0
    0.6329   -1.4128    1.2268 N   0  0  0  0  0  0  0  0  0  0  0  0
    1.8503    0.0256   -0.5210 N   0  0  0  0  0  2  0  0  0  0  0  0
   -2.3286    0.5521    1.6673 C   0  0  0  0  0  3  0  0  0  0  0  0
   -3.7012    0.5784    1.9370 C   0  0  0  0  0  0  0  0  0  0  0  0
   -4.5877    0.0452    0.9917 C   0  0  0  0  0  0  0  0  0  0  0  0
   -4.0770   -0.4993   -0.1974 C   0  0  0  0  0  0  0  0  0  0  0  0
   -2.6950   -0.4884   -0.4141 C   0  0  0  0  0  0  0  0  0  0  0  0
   -1.9975   -0.9765   -1.6680 C   0  0  2  0  0  0  0  0  0  0  0  0
   -2.7553   -2.0094   -2.4950 C   0  0  0  0  0  0  0  0  0  0  0  0
   -0.6095   -2.6836   -0.4549 C   0  0  0  0  0  0  0  0  0  0  0  0
    0.6099   -2.6835    0.4549 C   0  0  0  0  0  0  0  0  0  0  0  0
    2.7555   -2.0090    2.4951 C   0  0  0  0  0  0  0  0  0  0  0  0
    1.9976   -0.9762    1.6680 C   0  0  1  0  0  0  0  0  0  0  0  0
    2.6952   -0.4881    0.4142 C   0  0  2  0  0  3  0  0  0  0  0  0
    4.0771   -0.4988    0.1975 C   0  0  0  0  0  0  0  0  0  0  0  0
    4.5879    0.0458   -0.9915 C   0  0  0  0  0  0  0  0  0  0  0  0
    3.7014    0.5788   -1.9370 C   0  0  0  0  0  0  0  0  0  0  0  0
    2.3288    0.5523   -1.6673 C   0  0  0  0  0  0  0  0  0  0  0  0
   -0.0232   -1.4880   -2.0544 H   0  0  0  0  0  0  0  0  0  0  0  0
    0.0234   -1.4879    2.0544 H   0  0  0  0  0  0  0  0  0  0  0  0
   -1.5744    0.9784    2.3468 H   0  0  0  0  0  0  0  0  0  0  0  0
   -4.0607    1.0207    2.8766 H   0  0  0  0  0  0  0  0  0  0  0  0
   -5.6724    0.0546    1.1739 H   0  0  0  0  0  0  0  0  0  0  0  0
   -4.7497   -0.9198   -0.9568 H   0  0  0  0  0  0  0  0  0  0  0  0
   -1.8046   -0.0659   -2.2772 H   0  0  0  0  0  0  0  0  0  0  0  0
   -3.6715   -1.5591   -2.9232 H   0  0  0  0  0  0  0  0  0  0  0  0
   -3.0555   -2.8960   -1.9023 H   0  0  0  0  0  0  0  0  0  0  0  0
   -2.1396   -2.3474   -3.3520 H   0  0  0  0  0  0  0  0  0  0  0  0
   -0.6124   -3.5744   -1.1163 H   0  0  0  0  0  0  0  0  0  0  0  0
   -1.5378   -2.7252    0.1511 H   0  0  0  0  0  0  0  0  0  0  0  0
    0.6129   -3.5743    1.1163 H   0  0  0  0  0  0  0  0  0  0  0  0
    1.5382   -2.7249   -0.1511 H   0  0  0  0  0  0  0  0  0  0  0  0
    2.1399   -2.3471    3.3521 H   0  0  0  0  0  0  0  0  0  0  0  0
    3.0558   -2.8956    1.9024 H   0  0  0  0  0  0  0  0  0  0  0  0
    3.6716   -1.5586    2.9233 H   0  0  0  0  0  0  0  0  0  0  0  0
    1.8047   -0.0656    2.2772 H   0  0  0  0  0  0  0  0  0  0  0  0
    4.7499   -0.9191    0.9570 H   0  0  0  0  0  0  0  0  0  0  0  0
    5.6726    0.0553   -1.1737 H   0  0  0  0  0  0  0  0  0  0  0  0
    4.0608    1.0211   -2.8765 H   0  0  0  0  0  0  0  0  0  0  0  0
    1.5745    0.9785   -2.3469 H   0  0  0  0  0  0  0  0  0  0  0  0
  1  5  1  0  0  0  0
  2 12  1  0  0  0  0
  3 15  1  0  0  0  0
  3 22  1  0  0  0  0
  4 16  1  0  0  0  0
  5  6  1  0  0  0  0
  5 23  1  0  0  0  0
  6 24  1  0  0  0  0
  7 25  1  0  0  0  0
  7  6  2  0  0  0  0
  8  7  1  0  0  0  0
  9  8  2  0  0  0  0
  9  1  1  0  0  0  0
 10 27  1  6  0  0  0
 10  2  1  0  0  0  0
 10  9  1  0  0  0  0
 11 29  1  0  0  0  0
 11 10  1  0  0  0  0
 12 32  1  0  0  0  0
 12 13  1  0  0  0  0
 13 33  1  0  0  0  0
 13  3  1  0  0  0  0
 14 37  1  0  0  0  0
 14 35  1  0  0  0  0
 15 38  1  1  0  0  0
 15 14  1  0  0  0  0
 16 15  1  1  0  0  0
 17 16  1  0  0  0  0
 17 39  1  0  0  0  0
 18 17  2  0  0  0  0
 19 20  2  0  0  0  0
 19 18  1  0  0  0  0
 20  4  1  0  0  0  0
 21  2  1  0  0  0  0
 26  8  1  0  0  0  0
 28 11  1  0  0  0  0
 30 11  1  0  0  0  0
 31 12  1  0  0  0  0
 34 13  1  0  0  0  0
 36 14  1  0  0  0  0
 40 18  1  0  0  0  0
 41 19  1  0  0  0  0
 42 20  1  0  0  0  0
M  END
