1,12,20,31
 OpenBabel05122313063D

 41 41  0  0  0  0  0  0  0  0999 V2000
   -0.4152   -1.3715    1.3475 N   0  0  0  0  0  0  0  0  0  0  0  0
   -1.4086   -1.1152    1.5478 H   0  0  0  0  0  0  0  0  0  0  0  0
   -0.3880   -2.8106    1.0042 C   0  0  0  0  0  0  0  0  0  0  0  0
   -0.7540   -3.3751    1.8910 H   0  0  0  0  0  0  0  0  0  0  0  0
    0.6742   -3.0916    0.8487 H   0  0  0  0  0  0  0  0  0  0  0  0
   -1.2121   -3.1733   -0.2144 C   0  0  0  0  0  0  0  0  0  0  0  0
   -2.2438   -2.7691   -0.1299 H   0  0  0  0  0  0  0  0  0  0  0  0
   -1.2981   -4.2773   -0.2648 H   0  0  0  0  0  0  0  0  0  0  0  0
   -0.5532   -2.6730   -1.4835 C   0  0  0  0  0  0  0  0  0  0  0  0
    0.5103   -2.9888   -1.5208 H   0  0  0  0  0  0  0  0  0  0  0  0
   -1.0622   -3.0926   -2.3807 H   0  0  0  0  0  0  0  0  0  0  0  0
   -0.5941   -1.2047   -1.5709 N   0  0  0  0  0  0  0  0  0  0  0  0
   -1.6104   -0.9275   -1.5738 H   0  0  0  0  0  0  0  0  0  0  0  0
    0.0326   -0.7520   -2.8244 C   0  0  0  0  0  0  0  0  0  0  0  0
   -0.4792   -1.1910   -3.7089 H   0  0  0  0  0  0  0  0  0  0  0  0
    1.0889   -1.0944   -2.8266 H   0  0  0  0  0  0  0  0  0  0  0  0
   -0.0347    0.7510   -2.8243 C   0  0  0  0  0  0  0  0  0  0  0  0
    0.4757    1.1900   -3.7096 H   0  0  0  0  0  0  0  0  0  0  0  0
   -1.0910    1.0935   -2.8247 H   0  0  0  0  0  0  0  0  0  0  0  0
    0.5941    1.2036   -1.5718 N   0  0  0  0  0  0  0  0  0  0  0  0
    1.6100    0.9249   -1.5755 H   0  0  0  0  0  0  0  0  0  0  0  0
    0.5554    2.6720   -1.4852 C   0  0  0  0  0  0  0  0  0  0  0  0
    1.0653    3.0902   -2.3825 H   0  0  0  0  0  0  0  0  0  0  0  0
   -0.5076    2.9894   -1.5229 H   0  0  0  0  0  0  0  0  0  0  0  0
    1.2147    3.1721   -0.2162 C   0  0  0  0  0  0  0  0  0  0  0  0
    2.2457    2.7665   -0.1311 H   0  0  0  0  0  0  0  0  0  0  0  0
    1.3022    4.2759   -0.2673 H   0  0  0  0  0  0  0  0  0  0  0  0
    0.3896    2.8113    1.0023 C   0  0  0  0  0  0  0  0  0  0  0  0
   -0.6722    3.0935    0.8461 H   0  0  0  0  0  0  0  0  0  0  0  0
    0.7558    3.3761    1.8889 H   0  0  0  0  0  0  0  0  0  0  0  0
    0.4150    1.3725    1.3468 N   0  0  0  0  0  0  0  0  0  0  0  0
    1.4080    1.1154    1.5480 H   0  0  0  0  0  0  0  0  0  0  0  0
   -0.4479    1.1820    2.5412 C   0  0  0  0  0  0  0  0  0  0  0  0
   -0.4294    2.1057    3.1586 H   0  0  0  0  0  0  0  0  0  0  0  0
   -1.4886    1.0593    2.1809 H   0  0  0  0  0  0  0  0  0  0  0  0
   -0.0016    0.0015    3.3904 C   0  0  0  0  0  0  0  0  0  0  0  0
    0.8407    0.2894    4.0531 H   0  0  0  0  0  0  0  0  0  0  0  0
   -0.8451   -0.2861    4.0516 H   0  0  0  0  0  0  0  0  0  0  0  0
    0.4464   -1.1793    2.5426 C   0  0  0  0  0  0  0  0  0  0  0  0
    1.4874   -1.0563    2.1833 H   0  0  0  0  0  0  0  0  0  0  0  0
    0.4279   -2.1025    3.1608 H   0  0  0  0  0  0  0  0  0  0  0  0
  1  2  1  0  0  0  0
  1 39  1  0  0  0  0
  3  1  1  0  0  0  0
  3  4  1  0  0  0  0
  5  3  1  0  0  0  0
  6  7  1  0  0  0  0
  6  3  1  0  0  0  0
  8  6  1  0  0  0  0
  9  6  1  0  0  0  0
 10  9  1  0  0  0  0
 11  9  1  0  0  0  0
 12  9  1  0  0  0  0
 13 12  1  0  0  0  0
 14 17  1  0  0  0  0
 14 12  1  0  0  0  0
 15 14  1  0  0  0  0
 16 14  1  0  0  0  0
 17 20  1  0  0  0  0
 18 17  1  0  0  0  0
 19 17  1  0  0  0  0
 20 22  1  0  0  0  0
 21 20  1  0  0  0  0
 22 25  1  0  0  0  0
 23 22  1  0  0  0  0
 24 22  1  0  0  0  0
 25 26  1  0  0  0  0
 25 28  1  0  0  0  0
 27 25  1  0  0  0  0
 28 31  1  0  0  0  0
 28 30  1  0  0  0  0
 29 28  1  0  0  0  0
 31 32  1  0  0  0  0
 31 33  1  0  0  0  0
 33 34  1  0  0  0  0
 33 36  1  0  0  0  0
 35 33  1  0  0  0  0
 36 38  1  0  0  0  0
 36 37  1  0  0  0  0
 39 41  1  0  0  0  0
 39 36  1  0  0  0  0
 40 39  1  0  0  0  0
M  END
