1,2,3,4
 OpenBabel05122313063D

 61 60  0  0  0  0  0  0  0  0999 V2000
   -1.0255   -0.9788   -1.4129 N   0  0  0  0  0  2  0  0  0  0  0  0
    1.9169    1.2066   -0.8441 N   0  0  0  0  0  2  0  0  0  0  0  0
    1.3945   -1.6004    0.8286 N   0  0  0  0  0  2  0  0  0  0  0  0
    1.6350   -1.3829   -1.9907 N   0  0  0  0  0  0  0  0  0  0  0  0
   -2.3334   -2.0908   -0.9242 Si  0  0  0  0  0  0  0  0  0  0  0  0
    2.1858    2.9319   -0.4925 Si  0  0  0  0  0  0  0  0  0  0  0  0
    2.2828   -1.4916    2.3540 Si  0  0  0  0  0  0  0  0  0  0  0  0
   -0.6398   -1.0223   -2.8226 C   0  0  0  0  0  0  0  0  0  0  0  0
   -0.4282    0.0028   -3.2130 H   0  0  0  0  0  0  0  0  0  0  0  0
   -1.4355   -1.4284   -3.4906 H   0  0  0  0  0  0  0  0  0  0  0  0
    3.0367    0.6015   -1.5720 C   0  0  0  0  0  0  0  0  0  0  0  0
    3.7493    0.0881   -0.8782 H   0  0  0  0  0  0  0  0  0  0  0  0
    3.6539    1.3533   -2.1184 H   0  0  0  0  0  0  0  0  0  0  0  0
    1.5742   -2.8080    0.0201 C   0  0  0  0  0  0  0  0  0  0  0  0
    0.5935   -3.2614   -0.2583 H   0  0  0  0  0  0  0  0  0  0  0  0
    2.1288   -3.6140    0.5548 H   0  0  0  0  0  0  0  0  0  0  0  0
    0.6210   -1.8875   -2.9382 C   0  0  0  0  0  0  0  0  0  0  0  0
    0.3555   -2.9230   -2.6522 H   0  0  0  0  0  0  0  0  0  0  0  0
    1.0244   -1.9229   -3.9776 H   0  0  0  0  0  0  0  0  0  0  0  0
    2.5301   -0.3905   -2.6106 C   0  0  0  0  0  0  0  0  0  0  0  0
    1.9365    0.1739   -3.3589 H   0  0  0  0  0  0  0  0  0  0  0  0
    3.3723   -0.8863   -3.1526 H   0  0  0  0  0  0  0  0  0  0  0  0
    2.3439   -2.4543   -1.2599 C   0  0  0  0  0  0  0  0  0  0  0  0
    3.3415   -2.0737   -0.9639 H   0  0  0  0  0  0  0  0  0  0  0  0
    2.5034   -3.3438   -1.9149 H   0  0  0  0  0  0  0  0  0  0  0  0
   -2.2882   -2.4175    0.9336 C   0  0  0  0  0  0  0  0  0  0  0  0
   -2.7665   -1.5979    1.5020 H   0  0  0  0  0  0  0  0  0  0  0  0
   -1.2519   -2.5398    1.3097 H   0  0  0  0  0  0  0  0  0  0  0  0
   -2.8476   -3.3536    1.1413 H   0  0  0  0  0  0  0  0  0  0  0  0
   -4.0158   -1.4045   -1.4436 C   0  0  0  0  0  0  0  0  0  0  0  0
   -4.2500   -0.4755   -0.8874 H   0  0  0  0  0  0  0  0  0  0  0  0
   -4.8206   -2.1414   -1.2407 H   0  0  0  0  0  0  0  0  0  0  0  0
   -4.0373   -1.1719   -2.5286 H   0  0  0  0  0  0  0  0  0  0  0  0
   -2.1114   -3.7674   -1.8013 C   0  0  0  0  0  0  0  0  0  0  0  0
   -1.2021   -4.2999   -1.4541 H   0  0  0  0  0  0  0  0  0  0  0  0
   -2.0607   -3.6797   -2.9059 H   0  0  0  0  0  0  0  0  0  0  0  0
   -2.9835   -4.4127   -1.5654 H   0  0  0  0  0  0  0  0  0  0  0  0
    4.0149    3.2094   -0.0521 C   0  0  0  0  0  0  0  0  0  0  0  0
    4.3133    2.5770    0.8097 H   0  0  0  0  0  0  0  0  0  0  0  0
    4.1724    4.2687    0.2390 H   0  0  0  0  0  0  0  0  0  0  0  0
    4.7054    2.9888   -0.8905 H   0  0  0  0  0  0  0  0  0  0  0  0
    1.2073    3.5937    0.9812 C   0  0  0  0  0  0  0  0  0  0  0  0
    0.1081    3.5397    0.8800 H   0  0  0  0  0  0  0  0  0  0  0  0
    1.4821    4.6623    1.1094 H   0  0  0  0  0  0  0  0  0  0  0  0
    1.4732    3.0590    1.9140 H   0  0  0  0  0  0  0  0  0  0  0  0
    1.7843    3.9481   -2.0450 C   0  0  0  0  0  0  0  0  0  0  0  0
    0.7094    3.8612   -2.3055 H   0  0  0  0  0  0  0  0  0  0  0  0
    2.3696    3.5863   -2.9158 H   0  0  0  0  0  0  0  0  0  0  0  0
    2.0170    5.0242   -1.9043 H   0  0  0  0  0  0  0  0  0  0  0  0
    4.0408   -2.1807    2.1362 C   0  0  0  0  0  0  0  0  0  0  0  0
    4.6085   -1.5792    1.3960 H   0  0  0  0  0  0  0  0  0  0  0  0
    4.0517   -3.2375    1.7994 H   0  0  0  0  0  0  0  0  0  0  0  0
    4.5907   -2.1369    3.0993 H   0  0  0  0  0  0  0  0  0  0  0  0
    2.4477    0.3186    2.8686 C   0  0  0  0  0  0  0  0  0  0  0  0
    1.4750    0.7990    3.1028 H   0  0  0  0  0  0  0  0  0  0  0  0
    2.9332    0.9069    2.0629 H   0  0  0  0  0  0  0  0  0  0  0  0
    3.0847    0.3882    3.7747 H   0  0  0  0  0  0  0  0  0  0  0  0
    1.3935   -2.4819    3.7007 C   0  0  0  0  0  0  0  0  0  0  0  0
    0.3730   -2.0767    3.8594 H   0  0  0  0  0  0  0  0  0  0  0  0
    1.9347   -2.4471    4.6689 H   0  0  0  0  0  0  0  0  0  0  0  0
    1.2904   -3.5468    3.4059 H   0  0  0  0  0  0  0  0  0  0  0  0
  1  5  1  0  0  0  0
  2  6  1  0  0  0  0
  3  7  1  0  0  0  0
  4 23  1  0  0  0  0
  5 26  1  0  0  0  0
  6 38  1  0  0  0  0
  6 42  1  0  0  0  0
  7 54  1  0  0  0  0
  7 58  1  0  0  0  0
  8  1  1  0  0  0  0
  9  8  1  0  0  0  0
 10  8  1  0  0  0  0
 11 12  1  0  0  0  0
 11  2  1  0  0  0  0
 13 11  1  0  0  0  0
 14 16  1  0  0  0  0
 14  3  1  0  0  0  0
 15 14  1  0  0  0  0
 17  8  1  0  0  0  0
 17 18  1  0  0  0  0
 17  4  1  0  0  0  0
 19 17  1  0  0  0  0
 20  4  1  0  0  0  0
 20 11  1  0  0  0  0
 21 20  1  0  0  0  0
 22 20  1  0  0  0  0
 23 24  1  0  0  0  0
 23 14  1  0  0  0  0
 25 23  1  0  0  0  0
 26 29  1  0  0  0  0
 26 28  1  0  0  0  0
 26 27  1  0  0  0  0
 30 32  1  0  0  0  0
 30  5  1  0  0  0  0
 30 31  1  0  0  0  0
 33 30  1  0  0  0  0
 34 37  1  0  0  0  0
 34 35  1  0  0  0  0
 34  5  1  0  0  0  0
 36 34  1  0  0  0  0
 38 40  1  0  0  0  0
 38 39  1  0  0  0  0
 41 38  1  0  0  0  0
 42 44  1  0  0  0  0
 42 45  1  0  0  0  0
 43 42  1  0  0  0  0
 46 49  1  0  0  0  0
 46  6  1  0  0  0  0
 47 46  1  0  0  0  0
 48 46  1  0  0  0  0
 50  7  1  0  0  0  0
 50 53  1  0  0  0  0
 51 50  1  0  0  0  0
 52 50  1  0  0  0  0
 54 55  1  0  0  0  0
 54 57  1  0  0  0  0
 56 54  1  0  0  0  0
 58 59  1  0  0  0  0
 58 60  1  0  0  0  0
 61 58  1  0  0  0  0
M  END
