6,9,11,14
 OpenBabel05122313063D

 50 52  0  0  1  0  0  0  0  0999 V2000
   -7.2936   -0.7432    1.0671 O   0  0  0  0  0  0  0  0  0  0  0  0
   -6.7578   -0.2435    0.0763 N   0  0  0  0  0  0  0  0  0  0  0  0
   -3.1948   -1.1809    0.8370 C   0  0  0  0  0  0  0  0  0  0  0  0
   -2.6303   -1.7306    1.6067 H   0  0  0  0  0  0  0  0  0  0  0  0
   -7.3454    0.3617   -0.8216 O   0  0  0  0  0  0  0  0  0  0  0  0
    2.0803   -1.8405   -0.3283 N   0  0  0  0  0  2  0  0  0  0  0  0
   -4.5837   -1.0619    0.9578 C   0  0  0  0  0  0  0  0  0  0  0  0
   -5.1414   -1.4879    1.8023 H   0  0  0  0  0  0  0  0  0  0  0  0
   -0.2632    0.4586    0.2000 N   0  0  0  0  0  0  0  0  0  0  0  0
   -5.2870   -0.3788   -0.0430 C   0  0  0  0  0  0  0  0  0  0  0  0
    1.7173   -0.3913    1.6584 N   0  0  0  0  0  2  0  0  0  0  0  0
   -4.6404    0.1701   -1.1591 C   0  0  0  0  0  0  0  0  0  0  0  0
   -5.2422    0.6784   -1.9240 H   0  0  0  0  0  0  0  0  0  0  0  0
    1.7059    2.1538    0.1373 N   0  0  0  0  0  2  0  0  0  0  0  0
   -3.2516    0.0401   -1.2622 C   0  0  0  0  0  0  0  0  0  0  0  0
   -2.7325    0.4497   -2.1421 H   0  0  0  0  0  0  0  0  0  0  0  0
   -2.5051   -0.6261   -0.2643 C   0  0  0  0  0  0  0  0  0  0  0  0
   -1.0004   -0.7154   -0.3571 C   0  0  0  0  0  0  0  0  0  0  0  0
   -0.6330   -1.6112    0.1785 H   0  0  0  0  0  0  0  0  0  0  0  0
   -0.6613   -0.7954   -1.4098 H   0  0  0  0  0  0  0  0  0  0  0  0
   -0.4395    0.6410    1.6680 C   0  0  0  0  0  0  0  0  0  0  0  0
   -1.5048    0.5312    1.9658 H   0  0  0  0  0  0  0  0  0  0  0  0
   -0.1412    1.6795    1.9037 H   0  0  0  0  0  0  0  0  0  0  0  0
    0.4748   -0.3220    2.4019 C   0  0  0  0  0  0  0  0  0  0  0  0
    0.6249    0.0163    3.4549 H   0  0  0  0  0  0  0  0  0  0  0  0
    0.0149   -1.3401    2.4754 H   0  0  0  0  0  0  0  0  0  0  0  0
    2.5644   -1.5297    1.9778 C   0  0  0  0  0  0  0  0  0  0  0  0
    2.3147   -2.0142    2.9474 H   0  0  0  0  0  0  0  0  0  0  0  0
    3.6212   -1.1669    2.0083 H   0  0  0  0  0  0  0  0  0  0  0  0
    2.4473   -2.4826    0.8193 C   0  0  2  0  0  3  0  0  0  0  0  0
    2.7042   -3.8554    0.8633 C   0  0  0  0  0  0  0  0  0  0  0  0
    2.9921   -4.3224    1.8167 H   0  0  0  0  0  0  0  0  0  0  0  0
    2.6023   -4.6085   -0.3170 C   0  0  0  0  0  0  0  0  0  0  0  0
    2.8000   -5.6907   -0.3122 H   0  0  0  0  0  0  0  0  0  0  0  0
    2.2533   -3.9416   -1.5002 C   0  0  0  0  0  0  0  0  0  0  0  0
    2.1745   -4.4783   -2.4566 H   0  0  0  0  0  0  0  0  0  0  0  0
    2.0043   -2.5656   -1.4692 C   0  0  0  0  0  0  0  0  0  0  0  0
    1.7449   -1.9853   -2.3687 H   0  0  0  0  0  0  0  0  0  0  0  0
   -0.5749    1.7227   -0.4995 C   0  0  0  0  0  0  0  0  0  0  0  0
   -1.5848    2.1114   -0.2422 H   0  0  0  0  0  0  0  0  0  0  0  0
   -0.5182    1.5166   -1.5893 H   0  0  0  0  0  0  0  0  0  0  0  0
    0.5006    2.7160   -0.1563 C   0  0  2  0  0  3  0  0  0  0  0  0
    0.3039    4.0995   -0.1341 C   0  0  0  0  0  0  0  0  0  0  0  0
   -0.6893    4.5092   -0.3697 H   0  0  0  0  0  0  0  0  0  0  0  0
    1.3810    4.9403    0.1917 C   0  0  0  0  0  0  0  0  0  0  0  0
    1.2523    6.0326    0.2090 H   0  0  0  0  0  0  0  0  0  0  0  0
    2.6157    4.3537    0.5031 C   0  0  0  0  0  0  0  0  0  0  0  0
    3.4879    4.9663    0.7726 H   0  0  0  0  0  0  0  0  0  0  0  0
    2.7411    2.9611    0.4696 C   0  0  0  0  0  0  0  0  0  0  0  0
    3.6876    2.4339    0.6723 H   0  0  0  0  0  0  0  0  0  0  0  0
  2  1  2  0  0  0  0
  3  7  1  0  0  0  0
  3  4  1  0  0  0  0
  5  2  2  0  0  0  0
  6 30  1  0  0  0  0
  7  8  1  0  0  0  0
  9 21  1  0  0  0  0
 10  2  1  0  0  0  0
 10  7  2  0  0  0  0
 11 27  1  0  0  0  0
 11 24  1  0  0  0  0
 12 10  1  0  0  0  0
 13 12  1  0  0  0  0
 14 49  1  0  0  0  0
 15 12  2  0  0  0  0
 15 17  1  0  0  0  0
 16 15  1  0  0  0  0
 17  3  2  0  0  0  0
 18 17  1  0  0  0  0
 18 19  1  0  0  0  0
 18  9  1  0  0  0  0
 20 18  1  0  0  0  0
 21 23  1  0  0  0  0
 21 22  1  0  0  0  0
 21 24  1  0  0  0  0
 24 26  1  0  0  0  0
 24 25  1  0  0  0  0
 27 29  1  0  0  0  0
 27 28  1  0  0  0  0
 30 31  1  0  0  0  0
 30 27  1  6  0  0  0
 31 32  1  0  0  0  0
 33 34  1  0  0  0  0
 33 31  2  0  0  0  0
 35 37  2  0  0  0  0
 35 33  1  0  0  0  0
 36 35  1  0  0  0  0
 37  6  1  0  0  0  0
 38 37  1  0  0  0  0
 39 40  1  0  0  0  0
 39  9  1  0  0  0  0
 41 39  1  0  0  0  0
 42 39  1  6  0  0  0
 42 43  1  0  0  0  0
 42 14  1  0  0  0  0
 43 45  2  0  0  0  0
 44 43  1  0  0  0  0
 45 46  1  0  0  0  0
 45 47  1  0  0  0  0
 47 48  1  0  0  0  0
 49 47  2  0  0  0  0
 49 50  1  0  0  0  0
M  END
