1,2,3,4
 OpenBabel05122313063D

 61 64  0  0  1  0  0  0  0  0999 V2000
   -0.5550   -1.4501    0.8474 N   0  0  0  0  0  2  0  0  0  0  0  0
    1.8048   -1.6428   -0.4189 N   0  0  0  0  0  2  0  0  0  0  0  0
    2.5080    1.1635    0.0357 N   0  0  0  0  0  2  0  0  0  0  0  0
   -0.0066    1.1213   -0.8002 N   0  0  0  0  0  2  0  0  0  0  0  0
   -0.3660   -2.5462    0.0366 C   0  0  0  0  0  0  0  0  0  0  0  0
   -1.3622   -3.5432   -0.1579 C   0  0  0  0  0  0  0  0  0  0  0  0
   -1.1663   -4.5873   -1.0630 C   0  0  0  0  0  0  0  0  0  0  0  0
    0.0248   -4.6661   -1.8112 C   0  0  0  0  0  0  0  0  0  0  0  0
    1.0307   -3.7119   -1.6166 C   0  0  0  0  0  0  0  0  0  0  0  0
    0.8780   -2.6677   -0.6735 C   0  0  0  0  0  0  0  0  0  0  0  0
    3.1406   -1.7591   -0.5204 C   0  0  0  0  0  0  0  0  0  0  0  0
    3.8110   -3.1007   -0.7337 C   0  0  0  0  0  0  0  0  0  0  0  0
    4.0260   -0.6510   -0.4137 C   0  0  0  0  0  0  0  0  0  0  0  0
    3.7231    0.7212   -0.3503 C   0  0  1  0  0  3  0  0  0  0  0  0
    4.8025    1.6894   -0.7814 C   0  0  0  0  0  0  0  0  0  0  0  0
    1.9718    2.4225   -0.2719 C   0  0  0  0  0  0  0  0  0  0  0  0
    2.5955    3.6734   -0.0793 C   0  0  0  0  0  0  0  0  0  0  0  0
    1.9048    4.8653   -0.3413 C   0  0  0  0  0  0  0  0  0  0  0  0
    0.5724    4.8345   -0.7798 C   0  0  0  0  0  0  0  0  0  0  0  0
   -0.0678    3.6024   -0.9705 C   0  0  0  0  0  0  0  0  0  0  0  0
    0.6221    2.3962   -0.7465 C   0  0  0  0  0  0  0  0  0  0  0  0
   -0.9265    0.8125   -1.6729 C   0  0  1  0  0  3  0  0  0  0  0  0
   -1.1604    1.5721   -2.9520 C   0  0  0  0  0  0  0  0  0  0  0  0
   -1.8091   -0.4024   -1.4657 C   0  0  0  0  0  0  0  0  0  0  0  0
   -2.5109   -0.4311   -0.1137 C   0  0  0  0  0  0  0  0  0  0  0  0
   -3.8909    0.1027   -0.0586 C   0  0  0  0  0  0  0  0  0  0  0  0
   -4.2261    1.3389   -0.6629 C   0  0  0  0  0  0  0  0  0  0  0  0
   -5.5337    1.8404   -0.6209 C   0  0  0  0  0  0  0  0  0  0  0  0
   -6.5492    1.1145    0.0225 C   0  0  0  0  0  0  0  0  0  0  0  0
   -6.2402   -0.1186    0.6185 C   0  0  0  0  0  0  0  0  0  0  0  0
   -4.9318   -0.6191    0.5738 C   0  0  0  0  0  0  0  0  0  0  0  0
   -1.8430   -0.9031    0.9939 C   0  0  0  0  0  0  0  0  0  0  0  0
   -2.3469   -0.8175    2.4099 C   0  0  0  0  0  0  0  0  0  0  0  0
   -2.3043   -3.4594    0.4028 H   0  0  0  0  0  0  0  0  0  0  0  0
   -1.9569   -5.3406   -1.2016 H   0  0  0  0  0  0  0  0  0  0  0  0
    0.1657   -5.4633   -2.5556 H   0  0  0  0  0  0  0  0  0  0  0  0
    1.9290   -3.7499   -2.2437 H   0  0  0  0  0  0  0  0  0  0  0  0
    4.8159   -3.0801   -0.2713 H   0  0  0  0  0  0  0  0  0  0  0  0
    3.9523   -3.3434   -1.8076 H   0  0  0  0  0  0  0  0  0  0  0  0
    3.2230   -3.9224   -0.2821 H   0  0  0  0  0  0  0  0  0  0  0  0
    5.0866   -0.8951   -0.5649 H   0  0  0  0  0  0  0  0  0  0  0  0
    5.6602    1.1413   -1.2103 H   0  0  0  0  0  0  0  0  0  0  0  0
    5.1748    2.3009    0.0668 H   0  0  0  0  0  0  0  0  0  0  0  0
    4.4254    2.3965   -1.5486 H   0  0  0  0  0  0  0  0  0  0  0  0
    3.6091    3.7160    0.3355 H   0  0  0  0  0  0  0  0  0  0  0  0
    2.4042    5.8291   -0.1609 H   0  0  0  0  0  0  0  0  0  0  0  0
    0.0156    5.7696   -0.9378 H   0  0  0  0  0  0  0  0  0  0  0  0
   -1.1324    3.5766   -1.2410 H   0  0  0  0  0  0  0  0  0  0  0  0
   -2.1463    2.0821   -2.9576 H   0  0  0  0  0  0  0  0  0  0  0  0
   -1.2046    0.8254   -3.7731 H   0  0  0  0  0  0  0  0  0  0  0  0
   -0.3714    2.3126   -3.1715 H   0  0  0  0  0  0  0  0  0  0  0  0
   -1.1940   -1.3186   -1.6100 H   0  0  0  0  0  0  0  0  0  0  0  0
   -2.5642   -0.4165   -2.2744 H   0  0  0  0  0  0  0  0  0  0  0  0
   -3.4372    1.9326   -1.1487 H   0  0  0  0  0  0  0  0  0  0  0  0
   -5.7610    2.8110   -1.0883 H   0  0  0  0  0  0  0  0  0  0  0  0
   -7.5771    1.5063    0.0550 H   0  0  0  0  0  0  0  0  0  0  0  0
   -7.0298   -0.7042    1.1141 H   0  0  0  0  0  0  0  0  0  0  0  0
   -4.7056   -1.6003    1.0169 H   0  0  0  0  0  0  0  0  0  0  0  0
   -1.5136   -0.5123    3.0733 H   0  0  0  0  0  0  0  0  0  0  0  0
   -2.6691   -1.8195    2.7672 H   0  0  0  0  0  0  0  0  0  0  0  0
   -3.1868   -0.1100    2.5334 H   0  0  0  0  0  0  0  0  0  0  0  0
  1 32  1  0  0  0  0
  4 21  1  0  0  0  0
  5  1  1  0  0  0  0
  6  5  1  0  0  0  0
  6 34  1  0  0  0  0
  7  6  2  0  0  0  0
  8  9  2  0  0  0  0
  8  7  1  0  0  0  0
  9 10  1  0  0  0  0
 10  2  1  0  0  0  0
 10  5  2  0  0  0  0
 11  2  1  0  0  0  0
 11 13  2  0  0  0  0
 12 11  1  0  0  0  0
 12 40  1  0  0  0  0
 12 38  1  0  0  0  0
 13 14  1  0  0  0  0
 14 15  1  6  0  0  0
 14  3  1  0  0  0  0
 15 43  1  0  0  0  0
 16 17  1  0  0  0  0
 16  3  1  0  0  0  0
 17 45  1  0  0  0  0
 18 46  1  0  0  0  0
 18 17  2  0  0  0  0
 19 18  1  0  0  0  0
 20 19  2  0  0  0  0
 20 21  1  0  0  0  0
 21 16  2  0  0  0  0
 22 23  1  6  0  0  0
 22 24  1  0  0  0  0
 22  4  1  0  0  0  0
 24 25  1  0  0  0  0
 25 26  1  0  0  0  0
 25 32  2  0  0  0  0
 26 31  1  0  0  0  0
 27 28  1  0  0  0  0
 27 26  2  0  0  0  0
 28 29  2  0  0  0  0
 29 56  1  0  0  0  0
 29 30  1  0  0  0  0
 30 57  1  0  0  0  0
 31 30  2  0  0  0  0
 31 58  1  0  0  0  0
 32 33  1  0  0  0  0
 33 61  1  0  0  0  0
 33 60  1  0  0  0  0
 33 59  1  0  0  0  0
 35  7  1  0  0  0  0
 36  8  1  0  0  0  0
 37  9  1  0  0  0  0
 39 12  1  0  0  0  0
 41 13  1  0  0  0  0
 42 15  1  0  0  0  0
 44 15  1  0  0  0  0
 47 19  1  0  0  0  0
 48 20  1  0  0  0  0
 49 23  1  0  0  0  0
 50 23  1  0  0  0  0
 51 23  1  0  0  0  0
 52 24  1  0  0  0  0
 53 24  1  0  0  0  0
 54 27  1  0  0  0  0
 55 28  1  0  0  0  0
M  END
