1,2,3,4
 OpenBabel05122313063D

 49 51  0  0  0  0  0  0  0  0999 V2000
    1.6053    2.0105   -0.0797 N   0  0  0  0  0  0  0  0  0  0  0  0
    1.4574   -0.2554    1.9144 N   0  0  0  0  0  0  0  0  0  0  0  0
   -1.5926    1.9752    0.1080 N   0  0  0  0  0  0  0  0  0  0  0  0
   -1.3361   -0.6344    1.6838 N   0  0  0  0  0  0  0  0  0  0  0  0
   -0.0485    3.8415   -0.5809 C   0  0  0  0  0  0  0  0  0  0  0  0
    1.3032    3.4539    0.0153 C   0  0  0  0  0  0  0  0  0  0  0  0
    2.9400    1.6867    0.4913 C   0  0  0  0  0  0  0  0  0  0  0  0
    3.2701    0.2222    0.3567 C   0  0  0  0  0  0  0  0  0  0  0  0
    4.2837   -0.2123   -0.5119 C   0  0  0  0  0  0  0  0  0  0  0  0
    4.5476   -1.5776   -0.6924 C   0  0  0  0  0  0  0  0  0  0  0  0
    3.7832   -2.5231    0.0016 C   0  0  0  0  0  0  0  0  0  0  0  0
    2.7702   -2.1122    0.8822 C   0  0  0  0  0  0  0  0  0  0  0  0
    2.5178   -0.7458    1.0688 C   0  0  0  0  0  0  0  0  0  0  0  0
    0.7449   -1.1874    2.8051 C   0  0  0  0  0  0  0  0  0  0  0  0
   -0.4959   -1.7565    2.1182 C   0  0  0  0  0  0  0  0  0  0  0  0
   -2.5289   -0.9002    0.9229 C   0  0  0  0  0  0  0  0  0  0  0  0
   -2.9110   -2.1967    0.5500 C   0  0  0  0  0  0  0  0  0  0  0  0
   -4.0631   -2.3902   -0.2283 C   0  0  0  0  0  0  0  0  0  0  0  0
   -4.8415   -1.2968   -0.6269 C   0  0  0  0  0  0  0  0  0  0  0  0
   -4.4527   -0.0012   -0.2555 C   0  0  0  0  0  0  0  0  0  0  0  0
   -3.2970    0.2177    0.5122 C   0  0  0  0  0  0  0  0  0  0  0  0
   -2.8444    1.6199    0.8325 C   0  0  0  0  0  0  0  0  0  0  0  0
   -1.2784    3.4166    0.2205 C   0  0  0  0  0  0  0  0  0  0  0  0
    1.6320    1.7402   -1.0795 H   0  0  0  0  0  0  0  0  0  0  0  0
    1.8031    0.5516    2.4481 H   0  0  0  0  0  0  0  0  0  0  0  0
   -1.7532    1.7542   -0.8906 H   0  0  0  0  0  0  0  0  0  0  0  0
   -1.5793   -0.0489    2.4976 H   0  0  0  0  0  0  0  0  0  0  0  0
   -0.0693    4.9476   -0.6565 H   0  0  0  0  0  0  0  0  0  0  0  0
   -0.1279    3.4749   -1.6290 H   0  0  0  0  0  0  0  0  0  0  0  0
    1.3332    3.7348    1.0907 H   0  0  0  0  0  0  0  0  0  0  0  0
    2.1101    4.0405   -0.4808 H   0  0  0  0  0  0  0  0  0  0  0  0
    3.7279    2.2989   -0.0002 H   0  0  0  0  0  0  0  0  0  0  0  0
    2.9309    2.0141    1.5566 H   0  0  0  0  0  0  0  0  0  0  0  0
    4.8709    0.5386   -1.0631 H   0  0  0  0  0  0  0  0  0  0  0  0
    5.3406   -1.9003   -1.3817 H   0  0  0  0  0  0  0  0  0  0  0  0
    3.9688   -3.5977   -0.1404 H   0  0  0  0  0  0  0  0  0  0  0  0
    2.1791   -2.8746    1.4067 H   0  0  0  0  0  0  0  0  0  0  0  0
    0.4391   -0.6178    3.7075 H   0  0  0  0  0  0  0  0  0  0  0  0
    1.4032   -2.0067    3.1601 H   0  0  0  0  0  0  0  0  0  0  0  0
   -0.2075   -2.3283    1.2120 H   0  0  0  0  0  0  0  0  0  0  0  0
   -1.0286   -2.4486    2.8063 H   0  0  0  0  0  0  0  0  0  0  0  0
   -2.3156   -3.0673    0.8538 H   0  0  0  0  0  0  0  0  0  0  0  0
   -4.3505   -3.4107   -0.5207 H   0  0  0  0  0  0  0  0  0  0  0  0
   -5.7464   -1.4487   -1.2322 H   0  0  0  0  0  0  0  0  0  0  0  0
   -5.0538    0.8649   -0.5739 H   0  0  0  0  0  0  0  0  0  0  0  0
   -2.6527    1.7656    1.9196 H   0  0  0  0  0  0  0  0  0  0  0  0
   -3.6501    2.3396    0.5683 H   0  0  0  0  0  0  0  0  0  0  0  0
   -2.1598    4.0127   -0.1088 H   0  0  0  0  0  0  0  0  0  0  0  0
   -1.1311    3.6497    1.2974 H   0  0  0  0  0  0  0  0  0  0  0  0
  1  6  1  0  0  0  0
  1  7  1  0  0  0  0
  2 25  1  0  0  0  0
  2 14  1  0  0  0  0
  3 23  1  0  0  0  0
  3 22  1  0  0  0  0
  4 15  1  0  0  0  0
  4 27  1  0  0  0  0
  5  6  1  0  0  0  0
  5 23  1  0  0  0  0
  6 30  1  0  0  0  0
  7 33  1  0  0  0  0
  8  7  1  0  0  0  0
  8 13  1  0  0  0  0
  9  8  2  0  0  0  0
 10  9  1  0  0  0  0
 10 11  2  0  0  0  0
 11 12  1  0  0  0  0
 12 13  2  0  0  0  0
 12 37  1  0  0  0  0
 13  2  1  0  0  0  0
 14 39  1  0  0  0  0
 14 38  1  0  0  0  0
 15 14  1  0  0  0  0
 15 41  1  0  0  0  0
 16  4  1  0  0  0  0
 17 42  1  0  0  0  0
 17 16  1  0  0  0  0
 18 17  2  0  0  0  0
 19 20  2  0  0  0  0
 19 18  1  0  0  0  0
 20 21  1  0  0  0  0
 21 22  1  0  0  0  0
 21 16  2  0  0  0  0
 22 46  1  0  0  0  0
 23 49  1  0  0  0  0
 24  1  1  0  0  0  0
 26  3  1  0  0  0  0
 28  5  1  0  0  0  0
 29  5  1  0  0  0  0
 31  6  1  0  0  0  0
 32  7  1  0  0  0  0
 34  9  1  0  0  0  0
 35 10  1  0  0  0  0
 36 11  1  0  0  0  0
 40 15  1  0  0  0  0
 43 18  1  0  0  0  0
 44 19  1  0  0  0  0
 45 20  1  0  0  0  0
 47 22  1  0  0  0  0
 48 23  1  0  0  0  0
M  END
