3,4,5,6
 OpenBabel05122313063D

 35 36  0  0  1  0  0  0  0  0999 V2000
    3.8160    1.7663   -0.2257 O   0  0  0  0  0  0  0  0  0  0  0  0
   -3.6845    1.8275   -0.6427 O   0  0  0  0  0  0  0  0  0  0  0  0
    1.7037   -1.1079    0.0161 N   0  0  0  0  0  2  0  0  0  0  0  0
    1.5162    1.5367    0.0150 N   0  0  0  0  0  2  0  0  0  0  0  0
   -1.4728    1.5698    0.0124 N   0  0  0  0  0  2  0  0  0  0  0  0
   -1.7436   -1.0604    0.1765 N   0  0  0  0  0  2  0  0  0  0  0  0
    1.7203   -2.4506   -0.0825 C   0  0  0  0  0  3  0  0  0  0  0  0
    0.7488   -2.9607   -0.0506 H   0  0  0  0  0  0  0  0  0  0  0  0
    2.9083   -3.1701   -0.2470 C   0  0  0  0  0  0  0  0  0  0  0  0
    2.8717   -4.2659   -0.3215 H   0  0  0  0  0  0  0  0  0  0  0  0
    4.1227   -2.4683   -0.3228 C   0  0  0  0  0  0  0  0  0  0  0  0
    5.0731   -3.0081   -0.4505 H   0  0  0  0  0  0  0  0  0  0  0  0
    4.0971   -1.0725   -0.2517 C   0  0  0  0  0  0  0  0  0  0  0  0
    4.9901   -0.4358   -0.3314 H   0  0  0  0  0  0  0  0  0  0  0  0
    2.8666   -0.4216   -0.0891 C   0  0  0  0  0  0  0  0  0  0  0  0
    2.7906    1.0814   -0.0981 C   0  0  0  0  0  0  0  0  0  0  0  0
    1.3157    2.9742   -0.0684 C   0  0  0  0  0  0  0  0  0  0  0  0
    1.2925    3.2803   -1.1418 H   0  0  0  0  0  0  0  0  0  0  0  0
    2.2093    3.4666    0.3707 H   0  0  0  0  0  0  0  0  0  0  0  0
    0.0382    3.4521    0.6178 C   0  0  0  0  0  0  0  0  0  0  0  0
    0.0509    4.5617    0.6225 H   0  0  0  0  0  0  0  0  0  0  0  0
    0.0335    3.1325    1.6826 H   0  0  0  0  0  0  0  0  0  0  0  0
   -1.2464    3.0030   -0.0726 C   0  0  0  0  0  0  0  0  0  0  0  0
   -2.1302    3.5164    0.3639 H   0  0  0  0  0  0  0  0  0  0  0  0
   -1.2202    3.3099   -1.1458 H   0  0  0  0  0  0  0  0  0  0  0  0
   -2.7157    1.1279   -0.3176 C   0  0  0  0  0  0  0  0  0  0  0  0
   -2.8493   -0.3652   -0.1825 C   0  0  2  0  0  3  0  0  0  0  0  0
   -4.0888   -0.9923   -0.3670 C   0  0  0  0  0  0  0  0  0  0  0  0
   -4.9304   -0.3538   -0.6720 H   0  0  0  0  0  0  0  0  0  0  0  0
   -4.1930   -2.3685   -0.1433 C   0  0  0  0  0  0  0  0  0  0  0  0
   -5.1516   -2.8904   -0.2839 H   0  0  0  0  0  0  0  0  0  0  0  0
   -3.0544   -3.0720    0.2833 C   0  0  0  0  0  0  0  0  0  0  0  0
   -3.0912   -4.1488    0.5005 H   0  0  0  0  0  0  0  0  0  0  0  0
   -1.8487   -2.3783    0.4321 C   0  0  0  0  0  0  0  0  0  0  0  0
   -0.9398   -2.8891    0.7806 H   0  0  0  0  0  0  0  0  0  0  0  0
  1 16  2  0  0  0  0
  2 26  2  0  0  0  0
  6 34  1  0  0  0  0
  7  8  1  0  0  0  0
  7  3  1  0  0  0  0
  9  7  1  0  0  0  0
 10  9  1  0  0  0  0
 11 13  1  0  0  0  0
 11  9  2  0  0  0  0
 12 11  1  0  0  0  0
 13 15  2  0  0  0  0
 14 13  1  0  0  0  0
 15  3  1  0  0  0  0
 16 15  1  0  0  0  0
 16  4  1  0  0  0  0
 17  4  1  0  0  0  0
 17 19  1  0  0  0  0
 17 20  1  0  0  0  0
 18 17  1  0  0  0  0
 20 21  1  0  0  0  0
 20 22  1  0  0  0  0
 23  5  1  0  0  0  0
 23 24  1  0  0  0  0
 23 20  1  0  0  0  0
 25 23  1  0  0  0  0
 26  5  1  0  0  0  0
 27 26  1  1  0  0  0
 27  6  1  0  0  0  0
 28 27  1  0  0  0  0
 28 30  2  0  0  0  0
 29 28  1  0  0  0  0
 30 32  1  0  0  0  0
 31 30  1  0  0  0  0
 32 34  2  0  0  0  0
 32 33  1  0  0  0  0
 34 35  1  0  0  0  0
M  END
