5,6,7,8
 OpenBabel05122313063D

 78 82  0  0  0  0  0  0  0  0999 V2000
   -3.7979   -3.0215    1.2210 O   0  0  0  0  0  0  0  0  0  0  0  0
   -4.4612   -0.8791    1.5261 O   0  0  0  0  0  0  0  0  0  0  0  0
   -6.2462    1.8752    1.2670 O   0  0  0  0  0  0  0  0  0  0  0  0
   -5.7696    1.2080   -0.8451 O   0  0  0  0  0  0  0  0  0  0  0  0
    0.0338   -1.3246   -0.6369 N   0  0  0  0  0  2  0  0  0  0  0  0
    2.8909   -1.4085   -0.0322 N   0  0  0  0  0  0  0  0  0  0  0  0
    2.9692    1.5020    0.0436 N   0  0  0  0  0  0  0  0  0  0  0  0
    0.1189    1.5865   -0.5232 N   0  0  0  0  0  0  0  0  0  0  0  0
   -1.2864   -1.0864   -0.9490 C   0  0  0  0  0  0  0  0  0  0  0  0
   -1.9932   -2.3511   -1.1477 C   0  0  0  0  0  0  0  0  0  0  0  0
   -1.0641   -3.3535   -0.9130 C   0  0  0  0  0  0  0  0  0  0  0  0
    0.1986   -2.6891   -0.6123 C   0  0  0  0  0  0  0  0  0  0  0  0
    1.4091   -3.3506   -0.3498 C   0  0  0  0  0  0  0  0  0  0  0  0
    1.3795   -4.4496   -0.3641 H   0  0  0  0  0  0  0  0  0  0  0  0
    2.6555   -2.7628   -0.0891 C   0  0  0  0  0  0  0  0  0  0  0  0
    3.8930   -3.5009    0.1503 C   0  0  0  0  0  0  0  0  0  0  0  0
    4.8814   -2.5519    0.3486 C   0  0  0  0  0  0  0  0  0  0  0  0
    4.2316   -1.2490    0.2314 C   0  0  0  0  0  0  0  0  0  0  0  0
    4.8821   -0.0135    0.3729 C   0  0  0  0  0  0  0  0  0  0  0  0
    5.9613   -0.0481    0.5803 H   0  0  0  0  0  0  0  0  0  0  0  0
    4.3004    1.2609    0.2896 C   0  0  0  0  0  3  0  0  0  0  0  0
    5.0177    2.5206    0.4705 C   0  0  0  0  0  0  0  0  0  0  0  0
    4.0775    3.5278    0.3344 C   0  0  0  0  0  0  0  0  0  0  0  0
    2.8018    2.8670    0.0693 C   0  0  0  0  0  0  0  0  0  0  0  0
    1.5786    3.5287   -0.1174 C   0  0  0  0  0  0  0  0  0  0  0  0
    1.5972    4.6260   -0.0481 H   0  0  0  0  0  0  0  0  0  0  0  0
    0.3316    2.9381   -0.3741 C   0  0  0  0  0  0  0  0  0  0  0  0
   -0.9270    3.6662   -0.5148 C   0  0  0  0  0  0  0  0  0  0  0  0
   -1.9005    2.7143   -0.7621 C   0  0  0  0  0  0  0  0  0  0  0  0
   -1.2224    1.4206   -0.7749 C   0  0  0  0  0  0  0  0  0  0  0  0
   -1.8600    0.1933   -1.0144 C   0  0  0  0  0  0  0  0  0  0  0  0
   -2.9302    0.2444   -1.2509 H   0  0  0  0  0  0  0  0  0  0  0  0
   -3.4285   -2.5491   -1.5543 C   0  0  0  0  0  0  0  0  0  0  0  0
   -3.6309   -3.6379   -1.5505 H   0  0  0  0  0  0  0  0  0  0  0  0
   -3.5663   -2.2228   -2.6087 H   0  0  0  0  0  0  0  0  0  0  0  0
   -1.2609   -4.8358   -0.9472 C   0  0  0  0  0  0  0  0  0  0  0  0
   -2.3337   -5.1036   -0.9968 H   0  0  0  0  0  0  0  0  0  0  0  0
   -0.8426   -5.3202   -0.0406 H   0  0  0  0  0  0  0  0  0  0  0  0
   -0.7582   -5.3027   -1.8215 H   0  0  0  0  0  0  0  0  0  0  0  0
    4.0107   -4.9920    0.1633 C   0  0  0  0  0  0  0  0  0  0  0  0
    3.7146   -5.4358   -0.8109 H   0  0  0  0  0  0  0  0  0  0  0  0
    3.3552   -5.4490    0.9346 H   0  0  0  0  0  0  0  0  0  0  0  0
    5.0474   -5.3180    0.3741 H   0  0  0  0  0  0  0  0  0  0  0  0
    6.3357   -2.7599    0.6303 C   0  0  0  0  0  0  0  0  0  0  0  0
    6.5932   -3.8356    0.6752 H   0  0  0  0  0  0  0  0  0  0  0  0
    6.6355   -2.3056    1.5985 H   0  0  0  0  0  0  0  0  0  0  0  0
    6.9754   -2.2975   -0.1510 H   0  0  0  0  0  0  0  0  0  0  0  0
    6.4821    2.6385    0.7518 C   0  0  0  0  0  0  0  0  0  0  0  0
    7.0933    2.1808   -0.0548 H   0  0  0  0  0  0  0  0  0  0  0  0
    6.7617    2.1236    1.6954 H   0  0  0  0  0  0  0  0  0  0  0  0
    6.7961    3.6958    0.8461 H   0  0  0  0  0  0  0  0  0  0  0  0
    4.2704    5.0080    0.4302 C   0  0  0  0  0  0  0  0  0  0  0  0
    3.6547    5.4506    1.2418 H   0  0  0  0  0  0  0  0  0  0  0  0
    3.9769    5.5218   -0.5096 H   0  0  0  0  0  0  0  0  0  0  0  0
    5.3263    5.2698    0.6354 H   0  0  0  0  0  0  0  0  0  0  0  0
   -1.0850    5.1478   -0.3830 C   0  0  0  0  0  0  0  0  0  0  0  0
   -2.1339    5.4599   -0.5516 H   0  0  0  0  0  0  0  0  0  0  0  0
   -0.4526    5.6956   -1.1134 H   0  0  0  0  0  0  0  0  0  0  0  0
   -0.7893    5.5049    0.6263 H   0  0  0  0  0  0  0  0  0  0  0  0
   -3.3858    2.8749   -0.8718 C   0  0  0  0  0  0  0  0  0  0  0  0
   -3.7808    2.2433   -1.6950 H   0  0  0  0  0  0  0  0  0  0  0  0
   -3.6458    3.9199   -1.1365 H   0  0  0  0  0  0  0  0  0  0  0  0
   -4.5094   -1.8361   -0.7096 C   0  0  0  0  0  0  0  0  0  0  0  0
   -4.6780   -0.7858   -1.0098 H   0  0  0  0  0  0  0  0  0  0  0  0
   -5.4835   -2.3452   -0.8772 H   0  0  0  0  0  0  0  0  0  0  0  0
   -4.2629   -1.8269    0.7823 C   0  0  0  0  0  0  0  0  0  0  0  0
   -3.4649   -3.0824    2.6122 C   0  0  0  0  0  0  0  0  0  0  0  0
   -2.6651   -2.3532    2.8530 H   0  0  0  0  0  0  0  0  0  0  0  0
   -3.1123   -4.1124    2.7985 H   0  0  0  0  0  0  0  0  0  0  0  0
   -4.3472   -2.8525    3.2431 H   0  0  0  0  0  0  0  0  0  0  0  0
   -4.1176    2.4621    0.4217 C   0  0  0  0  0  0  0  0  0  0  0  0
   -3.5335    1.6837    0.9614 H   0  0  0  0  0  0  0  0  0  0  0  0
   -4.2344    3.2981    1.1386 H   0  0  0  0  0  0  0  0  0  0  0  0
   -5.4536    1.7971    0.1777 C   0  0  0  0  0  0  0  0  0  0  0  0
   -7.4316    1.0727    1.2266 C   0  0  0  0  0  0  0  0  0  0  0  0
   -8.0078    1.2573    0.2982 H   0  0  0  0  0  0  0  0  0  0  0  0
   -8.0238    1.3522    2.1162 H   0  0  0  0  0  0  0  0  0  0  0  0
   -7.1570   -0.0007    1.2726 H   0  0  0  0  0  0  0  0  0  0  0  0
  1 67  1  0  0  0  0
  4 74  2  0  0  0  0
  5 12  1  0  0  0  0
  6 18  1  0  0  0  0
  7 24  2  0  0  0  0
  7 21  1  0  0  0  0
  8 27  1  0  0  0  0
  9  5  1  0  0  0  0
 10  9  1  0  0  0  0
 10 11  2  0  0  0  0
 11 12  1  0  0  0  0
 12 13  2  0  0  0  0
 13 15  1  0  0  0  0
 14 13  1  0  0  0  0
 15  6  2  0  0  0  0
 15 16  1  0  0  0  0
 16 40  1  0  0  0  0
 16 17  2  0  0  0  0
 17 44  1  0  0  0  0
 18 17  1  0  0  0  0
 18 19  2  0  0  0  0
 19 20  1  0  0  0  0
 21 19  1  0  0  0  0
 21 22  1  0  0  0  0
 22 48  1  0  0  0  0
 23 52  1  0  0  0  0
 23 22  2  0  0  0  0
 24 23  1  0  0  0  0
 25 26  1  0  0  0  0
 25 24  1  0  0  0  0
 27 25  2  0  0  0  0
 28 56  1  0  0  0  0
 28 27  1  0  0  0  0
 29 28  2  0  0  0  0
 30 29  1  0  0  0  0
 30  8  2  0  0  0  0
 31  9  2  0  0  0  0
 31 30  1  0  0  0  0
 32 31  1  0  0  0  0
 33 34  1  0  0  0  0
 33 10  1  0  0  0  0
 33 63  1  0  0  0  0
 35 33  1  0  0  0  0
 36 11  1  0  0  0  0
 36 38  1  0  0  0  0
 37 36  1  0  0  0  0
 39 36  1  0  0  0  0
 40 43  1  0  0  0  0
 40 42  1  0  0  0  0
 41 40  1  0  0  0  0
 44 45  1  0  0  0  0
 44 46  1  0  0  0  0
 47 44  1  0  0  0  0
 48 51  1  0  0  0  0
 48 50  1  0  0  0  0
 49 48  1  0  0  0  0
 52 55  1  0  0  0  0
 52 53  1  0  0  0  0
 54 52  1  0  0  0  0
 56 59  1  0  0  0  0
 57 56  1  0  0  0  0
 58 56  1  0  0  0  0
 60 29  1  0  0  0  0
 60 71  1  0  0  0  0
 61 60  1  0  0  0  0
 62 60  1  0  0  0  0
 63 66  1  0  0  0  0
 64 63  1  0  0  0  0
 65 63  1  0  0  0  0
 66  1  1  0  0  0  0
 66  2  2  0  0  0  0
 67 69  1  0  0  0  0
 67 68  1  0  0  0  0
 67 70  1  0  0  0  0
 71 72  1  0  0  0  0
 71 73  1  0  0  0  0
 74 71  1  0  0  0  0
 74  3  1  0  0  0  0
 75  3  1  0  0  0  0
 75 78  1  0  0  0  0
 75 77  1  0  0  0  0
 76 75  1  0  0  0  0
M  END
