1,2,3,4
 OpenBabel05122313063D

 57 57  0  0  1  0  0  0  0  0999 V2000
   -2.1033   -1.5353   -0.2937 N   0  0  0  0  0  2  0  0  0  0  0  0
   -1.8952    0.9649   -0.0448 N   0  0  0  0  0  2  0  0  0  0  0  0
    0.5530    1.3773    0.5132 N   0  0  0  0  0  2  0  0  0  0  0  0
    0.8273   -1.9573    0.8005 N   0  0  0  0  0  0  0  0  0  0  0  0
    4.5403    0.1817   -0.5737 N   0  0  0  0  0  0  0  0  0  0  0  0
   -4.5183   -1.5878   -0.8869 C   0  0  0  0  0  0  0  0  0  0  0  0
   -4.4155   -2.1105   -1.8617 H   0  0  0  0  0  0  0  0  0  0  0  0
   -5.3635   -0.8840   -0.9737 H   0  0  0  0  0  0  0  0  0  0  0  0
   -4.7927   -2.3606   -0.1391 H   0  0  0  0  0  0  0  0  0  0  0  0
   -3.2479   -0.8927   -0.5087 C   0  0  0  0  0  0  0  0  0  0  0  0
   -3.1699    0.5567   -0.3476 C   0  0  0  0  0  0  0  0  0  0  0  0
   -4.2012    1.5074   -0.4566 C   0  0  0  0  0  0  0  0  0  0  0  0
   -5.2234    1.1888   -0.7003 H   0  0  0  0  0  0  0  0  0  0  0  0
   -3.9109    2.8640   -0.2458 C   0  0  0  0  0  0  0  0  0  0  0  0
   -4.7085    3.6155   -0.3286 H   0  0  0  0  0  0  0  0  0  0  0  0
   -2.6031    3.2594    0.0760 C   0  0  0  0  0  0  0  0  0  0  0  0
   -2.3643    4.3174    0.2469 H   0  0  0  0  0  0  0  0  0  0  0  0
   -1.5972    2.2813    0.1749 C   0  0  0  0  0  0  0  0  0  0  0  0
   -0.1763    2.4848    0.4638 C   0  0  2  0  0  3  0  0  0  0  0  0
    0.3296    3.8863    0.6285 C   0  0  0  0  0  0  0  0  0  0  0  0
    1.3746    3.9386    0.9758 H   0  0  0  0  0  0  0  0  0  0  0  0
   -0.3016    4.4351    1.3568 H   0  0  0  0  0  0  0  0  0  0  0  0
    0.2603    4.4389   -0.3326 H   0  0  0  0  0  0  0  0  0  0  0  0
   -2.0870   -2.9872   -0.4588 C   0  0  0  0  0  0  0  0  0  0  0  0
   -2.6075   -3.2683   -1.3996 H   0  0  0  0  0  0  0  0  0  0  0  0
   -2.6791   -3.4423    0.3692 H   0  0  0  0  0  0  0  0  0  0  0  0
   -0.6807   -3.5724   -0.4608 C   0  0  0  0  0  0  0  0  0  0  0  0
   -0.7781   -4.6722   -0.5608 H   0  0  0  0  0  0  0  0  0  0  0  0
   -0.1287   -3.2356   -1.3623 H   0  0  0  0  0  0  0  0  0  0  0  0
    0.1172   -3.2724    0.8053 C   0  0  0  0  0  0  0  0  0  0  0  0
   -0.5590   -3.2803    1.6845 H   0  0  0  0  0  0  0  0  0  0  0  0
    0.8789   -4.0666    0.9766 H   0  0  0  0  0  0  0  0  0  0  0  0
    1.3107   -1.7112    2.1811 C   0  0  0  0  0  0  0  0  0  0  0  0
    0.4477   -1.6425    2.8686 H   0  0  0  0  0  0  0  0  0  0  0  0
    1.8747   -0.7637    2.2254 H   0  0  0  0  0  0  0  0  0  0  0  0
    1.9803   -2.5363    2.5140 H   0  0  0  0  0  0  0  0  0  0  0  0
    1.9868   -2.0304   -0.1236 C   0  0  0  0  0  0  0  0  0  0  0  0
    2.6194   -2.9131    0.1271 H   0  0  0  0  0  0  0  0  0  0  0  0
    2.6202   -1.1258   -0.0439 H   0  0  0  0  0  0  0  0  0  0  0  0
    1.6385   -2.1278   -1.1677 H   0  0  0  0  0  0  0  0  0  0  0  0
    2.0074    1.4964    0.6141 C   0  0  0  0  0  0  0  0  0  0  0  0
    2.4153    0.5387    0.9818 H   0  0  0  0  0  0  0  0  0  0  0  0
    2.2931    2.2661    1.3625 H   0  0  0  0  0  0  0  0  0  0  0  0
    2.6631    1.8049   -0.7399 C   0  0  0  0  0  0  0  0  0  0  0  0
    2.2123    1.1488   -1.5145 H   0  0  0  0  0  0  0  0  0  0  0  0
    2.4378    2.8470   -1.0477 H   0  0  0  0  0  0  0  0  0  0  0  0
    4.1809    1.5954   -0.6830 C   0  0  0  0  0  0  0  0  0  0  0  0
    4.6604    2.0788   -1.5718 H   0  0  0  0  0  0  0  0  0  0  0  0
    4.5836    2.1262    0.2055 H   0  0  0  0  0  0  0  0  0  0  0  0
    5.7890   -0.0403    0.1440 C   0  0  0  0  0  0  0  0  0  0  0  0
    6.6830    0.3854   -0.3799 H   0  0  0  0  0  0  0  0  0  0  0  0
    5.9626   -1.1284    0.2679 H   0  0  0  0  0  0  0  0  0  0  0  0
    5.7364    0.4133    1.1540 H   0  0  0  0  0  0  0  0  0  0  0  0
    4.5458   -0.4850   -1.8690 C   0  0  0  0  0  0  0  0  0  0  0  0
    5.3529   -0.1070   -2.5481 H   0  0  0  0  0  0  0  0  0  0  0  0
    3.5765   -0.3422   -2.3874 H   0  0  0  0  0  0  0  0  0  0  0  0
    4.6988   -1.5754   -1.7364 H   0  0  0  0  0  0  0  0  0  0  0  0
  2 18  1  0  0  0  0
  3 41  1  0  0  0  0
  4 30  1  0  0  0  0
  4 33  1  0  0  0  0
  5 50  1  0  0  0  0
  6 10  1  0  0  0  0
  6  9  1  0  0  0  0
  7  6  1  0  0  0  0
  8  6  1  0  0  0  0
 10 11  2  0  0  0  0
 10  1  1  0  0  0  0
 11  2  1  0  0  0  0
 12 11  1  0  0  0  0
 12 14  2  0  0  0  0
 13 12  1  0  0  0  0
 14 16  1  0  0  0  0
 15 14  1  0  0  0  0
 16 18  2  0  0  0  0
 16 17  1  0  0  0  0
 18 19  1  0  0  0  0
 19  3  1  6  0  0  0
 19 20  1  0  0  0  0
 20 21  1  0  0  0  0
 20 22  1  0  0  0  0
 23 20  1  0  0  0  0
 24  1  1  0  0  0  0
 24 26  1  0  0  0  0
 25 24  1  0  0  0  0
 27 24  1  0  0  0  0
 27 30  1  0  0  0  0
 28 27  1  0  0  0  0
 29 27  1  0  0  0  0
 30 32  1  0  0  0  0
 30 31  1  0  0  0  0
 33 35  1  0  0  0  0
 33 36  1  0  0  0  0
 33 34  1  0  0  0  0
 37 39  1  0  0  0  0
 37 38  1  0  0  0  0
 37  4  1  0  0  0  0
 40 37  1  0  0  0  0
 41 42  1  0  0  0  0
 41 43  1  0  0  0  0
 44 47  1  0  0  0  0
 44 41  1  0  0  0  0
 45 44  1  0  0  0  0
 46 44  1  0  0  0  0
 47  5  1  0  0  0  0
 47 49  1  0  0  0  0
 48 47  1  0  0  0  0
 50 52  1  0  0  0  0
 50 53  1  0  0  0  0
 51 50  1  0  0  0  0
 54 57  1  0  0  0  0
 54  5  1  0  0  0  0
 55 54  1  0  0  0  0
 56 54  1  0  0  0  0
M  END
