1,2,3,4
 OpenBabel05122313063D

 52 56  0  0  0  0  0  0  0  0999 V2000
   -1.3592   -1.3018    0.0004 N   0  0  0  0  0  0  0  0  0  0  0  0
    1.3601   -1.3009    0.0004 N   0  0  0  0  0  2  0  0  0  0  0  0
    1.3509    1.4116    0.0092 N   0  0  0  0  0  0  0  0  0  0  0  0
   -1.3519    1.4106    0.0091 N   0  0  0  0  0  0  0  0  0  0  0  0
   -2.6461   -1.1641    0.5171 C   0  0  0  0  0  0  0  0  0  0  0  0
   -3.3090   -2.5230    0.5907 C   0  0  0  0  0  0  0  0  0  0  0  0
   -2.5272   -3.3060   -0.4713 C   0  0  0  0  0  0  0  0  0  0  0  0
   -1.2087   -2.5626   -0.4905 C   0  0  0  0  0  0  0  0  0  0  0  0
    0.0011   -3.1589   -0.8662 C   0  0  0  0  0  0  0  0  0  0  0  0
    1.2104   -2.5618   -0.4906 C   0  0  0  0  0  0  0  0  0  0  0  0
    2.5295   -3.3042   -0.4715 C   0  0  0  0  0  0  0  0  0  0  0  0
    3.3109   -2.5207    0.5903 C   0  0  0  0  0  0  0  0  0  0  0  0
    2.6469   -1.1623    0.5170 C   0  0  0  0  0  0  0  0  0  0  0  0
    3.2643    0.0347    0.8003 C   0  0  0  0  0  0  0  0  0  0  0  0
    2.6555    1.2661    0.4108 C   0  0  0  0  0  0  0  0  0  0  0  0
    3.3690    2.4996    0.2253 C   0  0  0  0  0  0  0  0  0  0  0  0
    2.4866    3.3906   -0.3554 C   0  0  0  0  0  0  0  0  0  0  0  0
    1.2194    2.7214   -0.4521 C   0  0  0  0  0  0  0  0  0  0  0  0
   -0.0012    3.3447   -0.7601 C   0  0  0  0  0  0  0  0  0  0  0  0
   -1.2213    2.7205   -0.4523 C   0  0  0  0  0  0  0  0  0  0  0  0
   -2.4891    3.3888   -0.3557 C   0  0  0  0  0  0  0  0  0  0  0  0
   -3.3708    2.4973    0.2250 C   0  0  0  0  0  0  0  0  0  0  0  0
   -2.6564    1.2643    0.4106 C   0  0  0  0  0  3  0  0  0  0  0  0
   -3.2643    0.0325    0.8003 C   0  0  0  0  0  0  0  0  0  0  0  0
    0.0015   -4.5326   -1.4990 C   0  0  0  0  0  0  0  0  0  0  0  0
    4.6595    0.0690    1.3787 C   0  0  0  0  0  0  0  0  0  0  0  0
   -0.0016    4.7635   -1.2754 C   0  0  0  0  0  0  0  0  0  0  0  0
   -4.6595    0.0658    1.3787 C   0  0  0  0  0  0  0  0  0  0  0  0
    0.8902   -4.6810   -2.1425 H   0  0  0  0  0  0  0  0  0  0  0  0
    0.0020   -5.3551   -0.7488 H   0  0  0  0  0  0  0  0  0  0  0  0
   -0.8872   -4.6817   -2.1423 H   0  0  0  0  0  0  0  0  0  0  0  0
    5.4362    0.2088    0.5951 H   0  0  0  0  0  0  0  0  0  0  0  0
    4.7700    0.9069    2.0948 H   0  0  0  0  0  0  0  0  0  0  0  0
    4.9029   -0.8614    1.9247 H   0  0  0  0  0  0  0  0  0  0  0  0
   -0.0015    5.5004   -0.4439 H   0  0  0  0  0  0  0  0  0  0  0  0
    0.8900    4.9655   -1.8975 H   0  0  0  0  0  0  0  0  0  0  0  0
   -0.8936    4.9651   -1.8970 H   0  0  0  0  0  0  0  0  0  0  0  0
   -4.7706    0.9037    2.0948 H   0  0  0  0  0  0  0  0  0  0  0  0
   -5.4363    0.2051    0.5951 H   0  0  0  0  0  0  0  0  0  0  0  0
   -4.9023   -0.8648    1.9247 H   0  0  0  0  0  0  0  0  0  0  0  0
   -3.1542   -2.9752    1.5970 H   0  0  0  0  0  0  0  0  0  0  0  0
   -4.3980   -2.4873    0.4057 H   0  0  0  0  0  0  0  0  0  0  0  0
   -2.4140   -4.3832   -0.2473 H   0  0  0  0  0  0  0  0  0  0  0  0
   -3.0207   -3.2248   -1.4669 H   0  0  0  0  0  0  0  0  0  0  0  0
    2.4171   -4.3815   -0.2476 H   0  0  0  0  0  0  0  0  0  0  0  0
    3.0229   -3.2226   -1.4672 H   0  0  0  0  0  0  0  0  0  0  0  0
    3.1566   -2.9730    1.5967 H   0  0  0  0  0  0  0  0  0  0  0  0
    4.3998   -2.4841    0.4052 H   0  0  0  0  0  0  0  0  0  0  0  0
    4.4248    2.6658    0.4646 H   0  0  0  0  0  0  0  0  0  0  0  0
    2.6806    4.4310   -0.6372 H   0  0  0  0  0  0  0  0  0  0  0  0
   -2.6837    4.4291   -0.6376 H   0  0  0  0  0  0  0  0  0  0  0  0
   -4.4267    2.6626    0.4643 H   0  0  0  0  0  0  0  0  0  0  0  0
  1  5  1  0  0  0  0
  2 13  1  0  0  0  0
  3 15  2  0  0  0  0
  4 23  1  0  0  0  0
  5  6  1  0  0  0  0
  5 24  2  0  0  0  0
  6 41  1  0  0  0  0
  7 43  1  0  0  0  0
  7  6  2  0  0  0  0
  8  7  1  0  0  0  0
  8  1  2  0  0  0  0
  9 10  2  0  0  0  0
  9  8  1  0  0  0  0
 10 11  1  0  0  0  0
 10  2  1  0  0  0  0
 11 45  1  0  0  0  0
 11 12  2  0  0  0  0
 12 47  1  0  0  0  0
 13 12  1  0  0  0  0
 13 14  2  0  0  0  0
 14 26  1  0  0  0  0
 15 14  1  0  0  0  0
 16 15  1  0  0  0  0
 16 49  1  0  0  0  0
 17 16  2  0  0  0  0
 18 17  1  0  0  0  0
 18  3  1  0  0  0  0
 19 20  1  0  0  0  0
 19 18  2  0  0  0  0
 20 21  1  0  0  0  0
 20  4  2  0  0  0  0
 21 22  2  0  0  0  0
 22 23  1  0  0  0  0
 22 52  1  0  0  0  0
 23 24  1  0  0  0  0
 24 28  1  0  0  0  0
 25  9  1  0  0  0  0
 25 30  1  0  0  0  0
 26 34  1  0  0  0  0
 26 33  1  0  0  0  0
 27 19  1  0  0  0  0
 27 35  1  0  0  0  0
 28 40  1  0  0  0  0
 28 38  1  0  0  0  0
 29 25  1  0  0  0  0
 31 25  1  0  0  0  0
 32 26  1  0  0  0  0
 36 27  1  0  0  0  0
 37 27  1  0  0  0  0
 39 28  1  0  0  0  0
 42  6  1  0  0  0  0
 44  7  1  0  0  0  0
 46 11  1  0  0  0  0
 48 12  1  0  0  0  0
 50 17  1  0  0  0  0
 51 21  1  0  0  0  0
M  END
