2,3,4,5
 OpenBabel05122313063D

 59 62  0  0  1  0  0  0  0  0999 V2000
    0.0025    2.3546   -0.9006 Si  0  0  0  0  0  0  0  0  0  0  0  0
   -2.3700   -0.6285   -0.1353 N   0  0  0  0  0  2  0  0  0  0  0  0
   -1.2392    1.1279   -0.8819 N   0  0  0  0  0  2  0  0  0  0  0  0
    1.2347    1.1206   -0.8431 N   0  0  0  0  0  2  0  0  0  0  0  0
    2.3504   -0.6389   -0.0820 N   0  0  0  0  0  2  0  0  0  0  0  0
   -3.4856   -1.4679   -0.0773 C   0  0  0  0  0  0  0  0  0  0  0  0
   -3.4728   -2.5973    0.7774 C   0  0  0  0  0  0  0  0  0  0  0  0
   -2.5732   -2.7866    1.3806 H   0  0  0  0  0  0  0  0  0  0  0  0
   -4.5736   -3.4626    0.8258 C   0  0  0  0  0  0  0  0  0  0  0  0
   -4.5433   -4.3331    1.4994 H   0  0  0  0  0  0  0  0  0  0  0  0
   -5.7051   -3.2337    0.0250 C   0  0  0  0  0  0  0  0  0  0  0  0
   -6.5659   -3.9177    0.0663 H   0  0  0  0  0  0  0  0  0  0  0  0
   -5.7151   -2.1310   -0.8455 C   0  0  0  0  0  0  0  0  0  0  0  0
   -6.5840   -1.9506   -1.4975 H   0  0  0  0  0  0  0  0  0  0  0  0
   -4.6188   -1.2622   -0.9067 C   0  0  0  0  0  0  0  0  0  0  0  0
   -4.6269   -0.4133   -1.6064 H   0  0  0  0  0  0  0  0  0  0  0  0
   -2.3961    0.6884   -0.3995 C   0  0  2  0  0  3  0  0  0  0  0  0
   -3.5299    1.6129   -0.1032 C   0  0  0  0  0  0  0  0  0  0  0  0
   -4.4168    1.3699    0.9682 C   0  0  0  0  0  0  0  0  0  0  0  0
   -4.3137    0.4493    1.5598 H   0  0  0  0  0  0  0  0  0  0  0  0
   -5.4183    2.2983    1.2797 C   0  0  0  0  0  0  0  0  0  0  0  0
   -6.0993    2.1032    2.1219 H   0  0  0  0  0  0  0  0  0  0  0  0
   -5.5571    3.4726    0.5203 C   0  0  0  0  0  0  0  0  0  0  0  0
   -6.3497    4.1964    0.7639 H   0  0  0  0  0  0  0  0  0  0  0  0
   -4.6822    3.7196   -0.5499 C   0  0  0  0  0  0  0  0  0  0  0  0
   -4.7895    4.6355   -1.1508 H   0  0  0  0  0  0  0  0  0  0  0  0
   -3.6712    2.7979   -0.8550 C   0  0  0  0  0  0  0  0  0  0  0  0
   -2.9835    2.9786   -1.6946 H   0  0  0  0  0  0  0  0  0  0  0  0
    0.0266    3.2965   -2.5317 C   0  0  0  0  0  0  0  0  0  0  0  0
   -0.8718    3.9401   -2.6316 H   0  0  0  0  0  0  0  0  0  0  0  0
    0.0500    2.5999   -3.3927 H   0  0  0  0  0  0  0  0  0  0  0  0
    0.9161    3.9567   -2.5956 H   0  0  0  0  0  0  0  0  0  0  0  0
   -0.0194    3.5621    0.5441 C   0  0  0  0  0  0  0  0  0  0  0  0
   -0.8901    4.2455    0.4669 H   0  0  0  0  0  0  0  0  0  0  0  0
    0.9047    4.1760    0.5584 H   0  0  0  0  0  0  0  0  0  0  0  0
   -0.0934    3.0114    1.5011 H   0  0  0  0  0  0  0  0  0  0  0  0
    2.3961    0.6679   -0.3808 C   0  0  2  0  0  3  0  0  0  0  0  0
    3.5573    1.5759   -0.1431 C   0  0  0  0  0  0  0  0  0  0  0  0
    3.7075    2.7306   -0.9392 C   0  0  0  0  0  0  0  0  0  0  0  0
    3.0036    2.8986   -1.7677 H   0  0  0  0  0  0  0  0  0  0  0  0
    4.7466    3.6377   -0.6898 C   0  0  0  0  0  0  0  0  0  0  0  0
    4.8607    4.5294   -1.3249 H   0  0  0  0  0  0  0  0  0  0  0  0
    5.6401    3.4077    0.3688 C   0  0  0  0  0  0  0  0  0  0  0  0
    6.4544    4.1206    0.5687 H   0  0  0  0  0  0  0  0  0  0  0  0
    5.4915    2.2650    1.1731 C   0  0  0  0  0  0  0  0  0  0  0  0
    6.1865    2.0840    2.0070 H   0  0  0  0  0  0  0  0  0  0  0  0
    4.4622    1.3501    0.9171 C   0  0  0  0  0  0  0  0  0  0  0  0
    4.3509    0.4541    1.5444 H   0  0  0  0  0  0  0  0  0  0  0  0
    3.4554   -1.4914   -0.0011 C   0  0  0  0  0  0  0  0  0  0  0  0
    4.5709   -1.3512   -0.8666 C   0  0  0  0  0  0  0  0  0  0  0  0
    4.5745   -0.5431   -1.6132 H   0  0  0  0  0  0  0  0  0  0  0  0
    5.6569   -2.2309   -0.7791 C   0  0  0  0  0  0  0  0  0  0  0  0
    6.5131   -2.1019   -1.4594 H   0  0  0  0  0  0  0  0  0  0  0  0
    5.6520   -3.2794    0.1558 C   0  0  0  0  0  0  0  0  0  0  0  0
    6.5042   -3.9725    0.2184 H   0  0  0  0  0  0  0  0  0  0  0  0
    4.5375   -3.4430    0.9957 C   0  0  0  0  0  0  0  0  0  0  0  0
    4.5126   -4.2708    1.7215 H   0  0  0  0  0  0  0  0  0  0  0  0
    3.4478   -2.5658    0.9209 C   0  0  0  0  0  0  0  0  0  0  0  0
    2.5605   -2.7026    1.5552 H   0  0  0  0  0  0  0  0  0  0  0  0
  1  3  1  0  0  0  0
  1  4  1  0  0  0  0
  1 33  1  0  0  0  0
  2  6  1  0  0  0  0
  5 49  1  0  0  0  0
  6  7  1  0  0  0  0
  7  9  2  0  0  0  0
  7  8  1  0  0  0  0
  9 10  1  0  0  0  0
 11 12  1  0  0  0  0
 11  9  1  0  0  0  0
 13 11  2  0  0  0  0
 14 13  1  0  0  0  0
 15 13  1  0  0  0  0
 15  6  2  0  0  0  0
 16 15  1  0  0  0  0
 17  3  1  1  0  0  0
 17  2  1  0  0  0  0
 17 18  1  0  0  0  0
 18 19  1  0  0  0  0
 19 21  2  0  0  0  0
 19 20  1  0  0  0  0
 21 22  1  0  0  0  0
 23 24  1  0  0  0  0
 23 21  1  0  0  0  0
 25 23  2  0  0  0  0
 26 25  1  0  0  0  0
 27 25  1  0  0  0  0
 27 18  2  0  0  0  0
 28 27  1  0  0  0  0
 29  1  1  0  0  0  0
 30 29  1  0  0  0  0
 31 29  1  0  0  0  0
 32 29  1  0  0  0  0
 33 35  1  0  0  0  0
 33 36  1  0  0  0  0
 34 33  1  0  0  0  0
 37  4  1  1  0  0  0
 37 38  1  0  0  0  0
 37  5  1  0  0  0  0
 38 47  1  0  0  0  0
 39 41  1  0  0  0  0
 39 38  2  0  0  0  0
 40 39  1  0  0  0  0
 41 43  2  0  0  0  0
 42 41  1  0  0  0  0
 43 44  1  0  0  0  0
 43 45  1  0  0  0  0
 45 46  1  0  0  0  0
 47 45  2  0  0  0  0
 47 48  1  0  0  0  0
 49 58  1  0  0  0  0
 50 52  1  0  0  0  0
 50 49  2  0  0  0  0
 51 50  1  0  0  0  0
 52 54  2  0  0  0  0
 53 52  1  0  0  0  0
 54 55  1  0  0  0  0
 54 56  1  0  0  0  0
 56 57  1  0  0  0  0
 58 56  2  0  0  0  0
 58 59  1  0  0  0  0
M  END
