1,2,3,4
 OpenBabel05122313063D

 44 44  0  0  0  0  0  0  0  0999 V2000
    1.7259   -1.5816   -0.5942 N   0  0  0  0  0  0  0  0  0  0  0  0
   -1.7206    1.5812   -0.6137 N   0  0  0  0  0  0  0  0  0  0  0  0
    1.6734    1.6349   -0.5987 N   0  0  0  0  0  0  0  0  0  0  0  0
   -1.6681   -1.6357   -0.6122 N   0  0  0  0  0  0  0  0  0  0  0  0
    1.3466   -2.9833   -0.3165 C   0  0  0  0  0  0  0  0  0  0  0  0
    0.0608   -3.4458   -0.9991 C   0  0  0  0  0  0  0  0  0  0  0  0
   -1.2467   -3.0248   -0.3308 C   0  0  0  0  0  0  0  0  0  0  0  0
   -2.9521   -1.3493    0.0666 C   0  0  0  0  0  0  0  0  0  0  0  0
   -3.6254   -0.0581   -0.3871 C   0  0  0  0  0  0  0  0  0  0  0  0
   -2.9918    1.2520    0.0696 C   0  0  0  0  0  0  0  0  0  0  0  0
   -1.3423    2.9825   -0.3316 C   0  0  0  0  0  0  0  0  0  0  0  0
   -0.0513    3.4447   -1.0046 C   0  0  0  0  0  0  0  0  0  0  0  0
    1.2509    3.0252   -0.3254 C   0  0  0  0  0  0  0  0  0  0  0  0
    2.9514    1.3494    0.0920 C   0  0  0  0  0  0  0  0  0  0  0  0
    3.6289    0.0578   -0.3539 C   0  0  0  0  0  0  0  0  0  0  0  0
    2.9917   -1.2519    0.0989 C   0  0  0  0  0  0  0  0  0  0  0  0
    1.8783   -1.4805   -1.6095 H   0  0  0  0  0  0  0  0  0  0  0  0
   -1.8665    1.4825   -1.6303 H   0  0  0  0  0  0  0  0  0  0  0  0
    1.8257    1.5342   -1.6141 H   0  0  0  0  0  0  0  0  0  0  0  0
   -1.8119   -1.5391   -1.6293 H   0  0  0  0  0  0  0  0  0  0  0  0
    2.1858   -3.6555   -0.6126 H   0  0  0  0  0  0  0  0  0  0  0  0
    1.2362   -3.0776    0.7836 H   0  0  0  0  0  0  0  0  0  0  0  0
    0.0622   -3.1609   -2.0774 H   0  0  0  0  0  0  0  0  0  0  0  0
    0.0784   -4.5545   -1.0009 H   0  0  0  0  0  0  0  0  0  0  0  0
   -2.0605   -3.7234   -0.6364 H   0  0  0  0  0  0  0  0  0  0  0  0
   -1.1455   -3.1163    0.7703 H   0  0  0  0  0  0  0  0  0  0  0  0
   -3.6557   -2.1984   -0.1000 H   0  0  0  0  0  0  0  0  0  0  0  0
   -2.7485   -1.3178    1.1579 H   0  0  0  0  0  0  0  0  0  0  0  0
   -3.7451   -0.0586   -1.4960 H   0  0  0  0  0  0  0  0  0  0  0  0
   -4.6603   -0.0747    0.0109 H   0  0  0  0  0  0  0  0  0  0  0  0
   -3.7225    2.0791   -0.0906 H   0  0  0  0  0  0  0  0  0  0  0  0
   -2.7822    1.2226    1.1599 H   0  0  0  0  0  0  0  0  0  0  0  0
   -2.1789    3.6555   -0.6329 H   0  0  0  0  0  0  0  0  0  0  0  0
   -1.2397    3.0751    0.7693 H   0  0  0  0  0  0  0  0  0  0  0  0
   -0.0692    4.5535   -1.0077 H   0  0  0  0  0  0  0  0  0  0  0  0
   -0.0439    3.1588   -2.0826 H   0  0  0  0  0  0  0  0  0  0  0  0
    2.0674    3.7222   -0.6273 H   0  0  0  0  0  0  0  0  0  0  0  0
    1.1415    3.1207    0.7746 H   0  0  0  0  0  0  0  0  0  0  0  0
    3.6563    2.1984   -0.0695 H   0  0  0  0  0  0  0  0  0  0  0  0
    2.7382    1.3195    1.1816 H   0  0  0  0  0  0  0  0  0  0  0  0
    4.6603    0.0751    0.0531 H   0  0  0  0  0  0  0  0  0  0  0  0
    3.7582    0.0569   -1.4617 H   0  0  0  0  0  0  0  0  0  0  0  0
    3.7237   -2.0790   -0.0551 H   0  0  0  0  0  0  0  0  0  0  0  0
    2.7738   -1.2217    1.1875 H   0  0  0  0  0  0  0  0  0  0  0  0
  1  5  1  0  0  0  0
  1 16  1  0  0  0  0
  2 11  1  0  0  0  0
  2 10  1  0  0  0  0
  3 13  1  0  0  0  0
  3 14  1  0  0  0  0
  4  7  1  0  0  0  0
  4  8  1  0  0  0  0
  5 22  1  0  0  0  0
  6  7  1  0  0  0  0
  6  5  1  0  0  0  0
  7 26  1  0  0  0  0
  8 28  1  0  0  0  0
  9 30  1  0  0  0  0
  9  8  1  0  0  0  0
  9 10  1  0  0  0  0
 10 32  1  0  0  0  0
 11 34  1  0  0  0  0
 12 11  1  0  0  0  0
 12 13  1  0  0  0  0
 13 38  1  0  0  0  0
 14 40  1  0  0  0  0
 15 41  1  0  0  0  0
 15 14  1  0  0  0  0
 15 16  1  0  0  0  0
 16 44  1  0  0  0  0
 17  1  1  0  0  0  0
 18  2  1  0  0  0  0
 19  3  1  0  0  0  0
 20  4  1  0  0  0  0
 21  5  1  0  0  0  0
 23  6  1  0  0  0  0
 24  6  1  0  0  0  0
 25  7  1  0  0  0  0
 27  8  1  0  0  0  0
 29  9  1  0  0  0  0
 31 10  1  0  0  0  0
 33 11  1  0  0  0  0
 35 12  1  0  0  0  0
 36 12  1  0  0  0  0
 37 13  1  0  0  0  0
 39 14  1  0  0  0  0
 42 15  1  0  0  0  0
 43 16  1  0  0  0  0
M  END
