1,2,3,5
 OpenBabel05122313063D

 70 72  0  0  0  0  0  0  0  0999 V2000
    0.0011    2.1620    1.5265 N   0  0  0  0  0  0  0  0  0  0  0  0
   -0.0020    1.1058   -0.8990 N   0  0  0  0  0  2  0  0  0  0  0  0
   -2.0635    0.3281    1.0602 N   0  0  0  0  0  0  0  0  0  0  0  0
   -1.9079   -0.2590    1.9010 H   0  0  0  0  0  0  0  0  0  0  0  0
    2.0643    0.3280    1.0585 N   0  0  0  0  0  0  0  0  0  0  0  0
    1.9088   -0.2599    1.8987 H   0  0  0  0  0  0  0  0  0  0  0  0
   -0.0044    0.4507   -2.1034 C   0  0  0  0  0  3  0  0  0  0  0  0
   -0.0041   -0.6474   -2.0153 H   0  0  0  0  0  0  0  0  0  0  0  0
   -0.0069    1.1248   -3.3224 C   0  0  0  0  0  0  0  0  0  0  0  0
   -0.0087    0.5336   -4.2498 H   0  0  0  0  0  0  0  0  0  0  0  0
   -0.0072    2.5316   -3.3562 C   0  0  0  0  0  0  0  0  0  0  0  0
   -0.0092    3.0832   -4.3069 H   0  0  0  0  0  0  0  0  0  0  0  0
   -0.0048    3.2089   -2.1266 C   0  0  0  0  0  0  0  0  0  0  0  0
   -0.0049    4.3088   -2.0841 H   0  0  0  0  0  0  0  0  0  0  0  0
   -0.0023    2.4834   -0.9323 C   0  0  0  0  0  0  0  0  0  0  0  0
    0.0015    3.1561    0.4134 C   0  0  0  0  0  0  0  0  0  0  0  0
    0.8878    3.8194    0.5065 H   0  0  0  0  0  0  0  0  0  0  0  0
   -0.8806    3.8245    0.5096 H   0  0  0  0  0  0  0  0  0  0  0  0
   -1.2403    2.2503    2.3411 C   0  0  0  0  0  0  0  0  0  0  0  0
   -1.4493    3.3005    2.6518 H   0  0  0  0  0  0  0  0  0  0  0  0
   -1.0718    1.6320    3.2442 H   0  0  0  0  0  0  0  0  0  0  0  0
   -2.4113    1.6871    1.5421 C   0  0  0  0  0  0  0  0  0  0  0  0
   -3.3288    1.6710    2.1720 H   0  0  0  0  0  0  0  0  0  0  0  0
   -2.6334    2.3321    0.6742 H   0  0  0  0  0  0  0  0  0  0  0  0
   -3.0244   -0.3617    0.2222 C   0  0  0  0  0  0  0  0  0  0  0  0
   -3.4050   -1.6715    0.6342 C   0  0  0  0  0  0  0  0  0  0  0  0
   -4.2915   -2.4099   -0.1626 C   0  0  0  0  0  0  0  0  0  0  0  0
   -4.5684   -3.4239    0.1682 H   0  0  0  0  0  0  0  0  0  0  0  0
   -4.8286   -1.9019   -1.3573 C   0  0  0  0  0  0  0  0  0  0  0  0
   -4.4578   -0.6017   -1.7237 C   0  0  0  0  0  0  0  0  0  0  0  0
   -4.8706   -0.1688   -2.6497 H   0  0  0  0  0  0  0  0  0  0  0  0
   -3.5706    0.1899   -0.9651 C   0  0  0  0  0  0  0  0  0  0  0  0
   -2.8648   -2.2834    1.8999 C   0  0  0  0  0  0  0  0  0  0  0  0
   -3.0462   -1.6481    2.7938 H   0  0  0  0  0  0  0  0  0  0  0  0
   -1.7665   -2.4294    1.8204 H   0  0  0  0  0  0  0  0  0  0  0  0
   -3.3380   -3.2644    2.0917 H   0  0  0  0  0  0  0  0  0  0  0  0
   -5.7487   -2.7345   -2.2136 C   0  0  0  0  0  0  0  0  0  0  0  0
   -6.5312   -3.2328   -1.6054 H   0  0  0  0  0  0  0  0  0  0  0  0
   -5.1889   -3.5393   -2.7365 H   0  0  0  0  0  0  0  0  0  0  0  0
   -6.2530   -2.1234   -2.9876 H   0  0  0  0  0  0  0  0  0  0  0  0
   -3.3060    1.5857   -1.4803 C   0  0  0  0  0  0  0  0  0  0  0  0
   -3.5169    1.6365   -2.5654 H   0  0  0  0  0  0  0  0  0  0  0  0
   -2.2640    1.9135   -1.3391 H   0  0  0  0  0  0  0  0  0  0  0  0
   -3.9655    2.3362   -0.9918 H   0  0  0  0  0  0  0  0  0  0  0  0
    1.2424    2.2499    2.3412 C   0  0  0  0  0  0  0  0  0  0  0  0
    1.0738    1.6316    3.2442 H   0  0  0  0  0  0  0  0  0  0  0  0
    1.4518    3.3000    2.6519 H   0  0  0  0  0  0  0  0  0  0  0  0
    2.4132    1.6862    1.5422 C   0  0  0  0  0  0  0  0  0  0  0  0
    2.6366    2.3318    0.6750 H   0  0  0  0  0  0  0  0  0  0  0  0
    3.3303    1.6684    2.1725 H   0  0  0  0  0  0  0  0  0  0  0  0
    3.0252   -0.3608    0.2199 C   0  0  0  0  0  0  0  0  0  0  0  0
    3.4081   -1.6700    0.6319 C   0  0  0  0  0  0  0  0  0  0  0  0
    4.2955   -2.4069   -0.1654 C   0  0  0  0  0  0  0  0  0  0  0  0
    4.5744   -3.4203    0.1655 H   0  0  0  0  0  0  0  0  0  0  0  0
    4.8312   -1.8980   -1.3603 C   0  0  0  0  0  0  0  0  0  0  0  0
    4.4576   -0.5987   -1.7270 C   0  0  0  0  0  0  0  0  0  0  0  0
    4.8688   -0.1653   -2.6535 H   0  0  0  0  0  0  0  0  0  0  0  0
    3.5693    0.1914   -0.9680 C   0  0  0  0  0  0  0  0  0  0  0  0
    2.8691   -2.2825    1.8977 C   0  0  0  0  0  0  0  0  0  0  0  0
    3.0504   -1.6472    2.7917 H   0  0  0  0  0  0  0  0  0  0  0  0
    3.3432   -3.2632    2.0891 H   0  0  0  0  0  0  0  0  0  0  0  0
    1.7708   -2.4295    1.8187 H   0  0  0  0  0  0  0  0  0  0  0  0
    5.7527   -2.7290   -2.2167 C   0  0  0  0  0  0  0  0  0  0  0  0
    6.5378   -3.2236   -1.6089 H   0  0  0  0  0  0  0  0  0  0  0  0
    6.2537   -2.1176   -2.9925 H   0  0  0  0  0  0  0  0  0  0  0  0
    5.1947   -3.5366   -2.7373 H   0  0  0  0  0  0  0  0  0  0  0  0
    3.3006    1.5862   -1.4835 C   0  0  0  0  0  0  0  0  0  0  0  0
    2.2585    1.9123   -1.3385 H   0  0  0  0  0  0  0  0  0  0  0  0
    3.5072    1.6365   -2.5695 H   0  0  0  0  0  0  0  0  0  0  0  0
    3.9607    2.3383   -0.9982 H   0  0  0  0  0  0  0  0  0  0  0  0
  1 19  1  0  0  0  0
  1 45  1  0  0  0  0
  3 22  1  0  0  0  0
  3  4  1  0  0  0  0
  5 48  1  0  0  0  0
  5  6  1  0  0  0  0
  7  8  1  0  0  0  0
  7  2  1  0  0  0  0
  9  7  1  0  0  0  0
 10  9  1  0  0  0  0
 11  9  2  0  0  0  0
 11 13  1  0  0  0  0
 12 11  1  0  0  0  0
 13 14  1  0  0  0  0
 13 15  2  0  0  0  0
 15  2  1  0  0  0  0
 15 16  1  0  0  0  0
 16 17  1  0  0  0  0
 16 18  1  0  0  0  0
 16  1  1  0  0  0  0
 19 20  1  0  0  0  0
 19 21  1  0  0  0  0
 22 23  1  0  0  0  0
 22 19  1  0  0  0  0
 24 22  1  0  0  0  0
 25 26  1  0  0  0  0
 25  3  1  0  0  0  0
 26 33  1  0  0  0  0
 27 28  1  0  0  0  0
 27 26  2  0  0  0  0
 29 27  1  0  0  0  0
 30 29  2  0  0  0  0
 30 32  1  0  0  0  0
 31 30  1  0  0  0  0
 32 25  2  0  0  0  0
 33 36  1  0  0  0  0
 33 34  1  0  0  0  0
 35 33  1  0  0  0  0
 37 38  1  0  0  0  0
 37 29  1  0  0  0  0
 39 37  1  0  0  0  0
 40 37  1  0  0  0  0
 41 43  1  0  0  0  0
 41 44  1  0  0  0  0
 41 32  1  0  0  0  0
 42 41  1  0  0  0  0
 45 47  1  0  0  0  0
 45 46  1  0  0  0  0
 48 50  1  0  0  0  0
 48 45  1  0  0  0  0
 49 48  1  0  0  0  0
 51 52  1  0  0  0  0
 51  5  1  0  0  0  0
 52 59  1  0  0  0  0
 53 54  1  0  0  0  0
 53 52  2  0  0  0  0
 55 53  1  0  0  0  0
 56 55  2  0  0  0  0
 56 58  1  0  0  0  0
 57 56  1  0  0  0  0
 58 51  2  0  0  0  0
 59 61  1  0  0  0  0
 59 60  1  0  0  0  0
 62 59  1  0  0  0  0
 63 64  1  0  0  0  0
 63 55  1  0  0  0  0
 65 63  1  0  0  0  0
 66 63  1  0  0  0  0
 67 68  1  0  0  0  0
 67 70  1  0  0  0  0
 67 58  1  0  0  0  0
 69 67  1  0  0  0  0
M  END
