3,4,26,27
 OpenBabel05122313063D

 46 46  0  0  0  0  0  0  0  0999 V2000
   -5.2516    1.5225   -0.1609 O   0  0  0  0  0  0  0  0  0  0  0  0
   -5.3417   -0.7511   -0.1691 O   0  0  0  0  0  0  0  0  0  0  0  0
   -1.1416    1.4443    0.4536 N   0  0  0  0  0  2  0  0  0  0  0  0
   -1.3586   -1.2288    0.4902 N   0  0  0  0  0  2  0  0  0  0  0  0
   -0.5181    2.6499    0.9962 C   0  0  0  0  0  0  0  0  0  0  0  0
   -2.4531    1.4240    0.3236 C   0  0  0  0  0  3  0  0  0  0  0  0
   -3.2304    0.2613    0.1019 C   0  0  0  0  0  0  0  0  0  0  0  0
   -2.6532   -1.0047    0.3633 C   0  0  0  0  0  0  0  0  0  0  0  0
   -0.9307   -2.4974    1.0769 C   0  0  0  0  0  0  0  0  0  0  0  0
    0.2744    3.4353   -0.0562 C   0  0  0  0  0  0  0  0  0  0  0  0
   -4.6736    0.4444   -0.0854 C   0  0  0  0  0  0  0  0  0  0  0  0
   -6.7552   -0.6401   -0.3272 C   0  0  0  0  0  0  0  0  0  0  0  0
   -3.0191    2.3657    0.4705 H   0  0  0  0  0  0  0  0  0  0  0  0
   -3.3469   -1.8457    0.5554 H   0  0  0  0  0  0  0  0  0  0  0  0
    0.1672    2.3310    1.8087 H   0  0  0  0  0  0  0  0  0  0  0  0
   -0.2019   -2.2622    1.8800 H   0  0  0  0  0  0  0  0  0  0  0  0
    1.0420    4.0465    0.4624 H   0  0  0  0  0  0  0  0  0  0  0  0
   -7.1393   -1.6734   -0.4083 H   0  0  0  0  0  0  0  0  0  0  0  0
   -1.2879    3.2996    1.4642 H   0  0  0  0  0  0  0  0  0  0  0  0
   -1.7915   -3.0012    1.5663 H   0  0  0  0  0  0  0  0  0  0  0  0
   -0.3896    4.1400   -0.5987 H   0  0  0  0  0  0  0  0  0  0  0  0
   -7.0119   -0.0618   -1.2384 H   0  0  0  0  0  0  0  0  0  0  0  0
   -7.2188   -0.1268    0.5407 H   0  0  0  0  0  0  0  0  0  0  0  0
    5.2516   -1.5225    0.1610 O   0  0  0  0  0  0  0  0  0  0  0  0
    5.3417    0.7511    0.1692 O   0  0  0  0  0  0  0  0  0  0  0  0
    1.1416   -1.4443   -0.4537 N   0  0  0  0  0  2  0  0  0  0  0  0
    1.3586    1.2288   -0.4902 N   0  0  0  0  0  2  0  0  0  0  0  0
    0.5181   -2.6499   -0.9962 C   0  0  0  0  0  0  0  0  0  0  0  0
    2.4531   -1.4240   -0.3236 C   0  0  0  0  0  3  0  0  0  0  0  0
    3.2304   -0.2613   -0.1019 C   0  0  0  0  0  0  0  0  0  0  0  0
    2.6532    1.0047   -0.3633 C   0  0  0  0  0  0  0  0  0  0  0  0
    0.9307    2.4974   -1.0770 C   0  0  0  0  0  0  0  0  0  0  0  0
   -0.2744   -3.4353    0.0562 C   0  0  0  0  0  0  0  0  0  0  0  0
    4.6736   -0.4444    0.0854 C   0  0  0  0  0  0  0  0  0  0  0  0
    6.7552    0.6401    0.3274 C   0  0  0  0  0  0  0  0  0  0  0  0
    3.0191   -2.3657   -0.4706 H   0  0  0  0  0  0  0  0  0  0  0  0
    3.3469    1.8457   -0.5554 H   0  0  0  0  0  0  0  0  0  0  0  0
   -0.1672   -2.3310   -1.8087 H   0  0  0  0  0  0  0  0  0  0  0  0
    0.2019    2.2621   -1.8801 H   0  0  0  0  0  0  0  0  0  0  0  0
   -1.0420   -4.0465   -0.4625 H   0  0  0  0  0  0  0  0  0  0  0  0
    7.1392    1.6734    0.4085 H   0  0  0  0  0  0  0  0  0  0  0  0
    1.2879   -3.2996   -1.4642 H   0  0  0  0  0  0  0  0  0  0  0  0
    1.7915    3.0012   -1.5663 H   0  0  0  0  0  0  0  0  0  0  0  0
    0.3896   -4.1400    0.5986 H   0  0  0  0  0  0  0  0  0  0  0  0
    7.0119    0.0618    1.2386 H   0  0  0  0  0  0  0  0  0  0  0  0
    7.2189    0.1269   -0.5406 H   0  0  0  0  0  0  0  0  0  0  0  0
  1 11  2  0  0  0  0
  2 11  1  0  0  0  0
  3  5  1  0  0  0  0
  4  9  1  0  0  0  0
  5 19  1  0  0  0  0
  5 15  1  0  0  0  0
  6  3  1  0  0  0  0
  6 13  1  0  0  0  0
  7  6  1  0  0  0  0
  7  8  2  0  0  0  0
  8  4  1  0  0  0  0
  8 14  1  0  0  0  0
  9 20  1  0  0  0  0
  9 16  1  0  0  0  0
 10 17  1  0  0  0  0
 10  5  1  0  0  0  0
 11  7  1  0  0  0  0
 12  2  1  0  0  0  0
 12 23  1  0  0  0  0
 18 12  1  0  0  0  0
 21 10  1  0  0  0  0
 22 12  1  0  0  0  0
 25 35  1  0  0  0  0
 26 29  1  0  0  0  0
 27 31  1  0  0  0  0
 28 26  1  0  0  0  0
 28 33  1  0  0  0  0
 29 30  1  0  0  0  0
 30 34  1  0  0  0  0
 31 30  2  0  0  0  0
 32 27  1  0  0  0  0
 32 10  1  0  0  0  0
 33 44  1  0  0  0  0
 33  9  1  0  0  0  0
 34 24  2  0  0  0  0
 34 25  1  0  0  0  0
 35 41  1  0  0  0  0
 35 45  1  0  0  0  0
 36 29  1  0  0  0  0
 37 31  1  0  0  0  0
 38 28  1  0  0  0  0
 39 32  1  0  0  0  0
 40 33  1  0  0  0  0
 42 28  1  0  0  0  0
 43 32  1  0  0  0  0
 46 35  1  0  0  0  0
M  END
