3,4,5,6
 OpenBabel05122313063D

 38 39  0  0  0  0  0  0  0  0999 V2000
    2.2114   -3.2847   -0.9669 O   0  0  0  0  0  0  0  0  0  0  0  0
    1.9745    3.3458   -1.0768 O   0  0  0  0  0  0  0  0  0  0  0  0
    1.9016    1.3094    0.0457 N   0  0  0  0  0  2  0  0  0  0  0  0
    1.9537   -1.1999    0.0488 N   0  0  0  0  0  2  0  0  0  0  0  0
   -0.6995    1.3732    0.5076 N   0  0  0  0  0  0  0  0  0  0  0  0
   -0.6232   -1.4120    0.4219 N   0  0  0  0  0  0  0  0  0  0  0  0
    3.2224    0.8145   -0.3703 C   0  0  0  0  0  0  0  0  0  0  0  0
    4.0461    1.4141    0.0749 H   0  0  0  0  0  0  0  0  0  0  0  0
    3.3175    0.9193   -1.4755 H   0  0  0  0  0  0  0  0  0  0  0  0
    3.3123   -0.6691    0.0549 C   0  0  0  0  0  0  0  0  0  0  0  0
    3.9678   -1.2630   -0.6174 H   0  0  0  0  0  0  0  0  0  0  0  0
    3.7366   -0.7428    1.0821 H   0  0  0  0  0  0  0  0  0  0  0  0
    1.5381   -2.3666   -0.4946 C   0  0  0  0  0  0  0  0  0  0  0  0
   -0.0235   -2.4055   -0.5359 C   0  0  0  0  0  0  0  0  0  0  0  0
   -0.3380   -2.1278   -1.5614 H   0  0  0  0  0  0  0  0  0  0  0  0
   -0.3848   -3.4368   -0.3332 H   0  0  0  0  0  0  0  0  0  0  0  0
   -0.7575   -2.0100    1.7712 C   0  0  0  0  0  0  0  0  0  0  0  0
   -1.0925   -1.2430    2.4933 H   0  0  0  0  0  0  0  0  0  0  0  0
    0.2342   -2.3877    2.0821 H   0  0  0  0  0  0  0  0  0  0  0  0
   -1.4911   -2.8473    1.7671 H   0  0  0  0  0  0  0  0  0  0  0  0
   -1.8496   -0.7470   -0.0177 C   0  0  0  0  0  0  0  0  0  0  0  0
   -1.8895    0.6697    0.0281 C   0  0  0  0  0  0  0  0  0  0  0  0
   -0.8464    1.8542    1.9018 C   0  0  0  0  0  0  0  0  0  0  0  0
   -1.6281    2.6437    1.9728 H   0  0  0  0  0  0  0  0  0  0  0  0
    0.1271    2.2646    2.2290 H   0  0  0  0  0  0  0  0  0  0  0  0
   -1.1230    1.0143    2.5652 H   0  0  0  0  0  0  0  0  0  0  0  0
   -0.1750    2.4679   -0.3773 C   0  0  0  0  0  0  0  0  0  0  0  0
   -0.5355    3.4671   -0.0500 H   0  0  0  0  0  0  0  0  0  0  0  0
   -0.5543    2.2951   -1.4039 H   0  0  0  0  0  0  0  0  0  0  0  0
    1.3794    2.4457   -0.4811 C   0  0  0  0  0  0  0  0  0  0  0  0
   -2.9651   -1.4615   -0.4797 C   0  0  0  0  0  0  0  0  0  0  0  0
   -2.9234   -2.5599   -0.5251 H   0  0  0  0  0  0  0  0  0  0  0  0
   -4.1142   -0.7748   -0.9032 C   0  0  0  0  0  0  0  0  0  0  0  0
   -4.9796   -1.3398   -1.2797 H   0  0  0  0  0  0  0  0  0  0  0  0
   -4.1544    0.6270   -0.8561 C   0  0  0  0  0  0  0  0  0  0  0  0
   -5.0517    1.1655   -1.1948 H   0  0  0  0  0  0  0  0  0  0  0  0
   -3.0454    1.3485   -0.3863 C   0  0  0  0  0  0  0  0  0  0  0  0
   -3.0669    2.4481   -0.3586 H   0  0  0  0  0  0  0  0  0  0  0  0
  1 13  2  0  0  0  0
  2 30  2  0  0  0  0
  4 10  1  0  0  0  0
  5 23  1  0  0  0  0
  6 17  1  0  0  0  0
  7  3  1  0  0  0  0
  7 10  1  0  0  0  0
  7  8  1  0  0  0  0
  9  7  1  0  0  0  0
 10 12  1  0  0  0  0
 11 10  1  0  0  0  0
 13  4  1  0  0  0  0
 14 13  1  0  0  0  0
 14 16  1  0  0  0  0
 14  6  1  0  0  0  0
 15 14  1  0  0  0  0
 17 19  1  0  0  0  0
 17 18  1  0  0  0  0
 20 17  1  0  0  0  0
 21 22  1  0  0  0  0
 21  6  1  0  0  0  0
 22  5  1  0  0  0  0
 23 24  1  0  0  0  0
 23 25  1  0  0  0  0
 23 26  1  0  0  0  0
 27 28  1  0  0  0  0
 27  5  1  0  0  0  0
 29 27  1  0  0  0  0
 30 27  1  0  0  0  0
 30  3  1  0  0  0  0
 31 21  2  0  0  0  0
 32 31  1  0  0  0  0
 33 35  2  0  0  0  0
 33 31  1  0  0  0  0
 34 33  1  0  0  0  0
 35 37  1  0  0  0  0
 36 35  1  0  0  0  0
 37 38  1  0  0  0  0
 37 22  2  0  0  0  0
M  END
