3,4,5,6
 OpenBabel05122313063D

 34 34  0  0  0  0  0  0  0  0999 V2000
   -3.1046    1.8457    0.9161 O   0  0  0  0  0  0  0  0  0  0  0  0
    3.3105    1.7135    0.6822 O   0  0  0  0  0  0  0  0  0  0  0  0
   -1.2316    1.2800   -0.3600 N   0  0  0  0  0  2  0  0  0  0  0  0
   -1.4416   -1.2830   -0.0059 N   0  0  0  0  0  0  0  0  0  0  0  0
    1.3718   -1.3603    0.0538 N   0  0  0  0  0  0  0  0  0  0  0  0
    1.2799    1.2585   -0.3503 N   0  0  0  0  0  2  0  0  0  0  0  0
   -2.2717    1.0495    0.4787 C   0  0  0  0  0  0  0  0  0  0  0  0
   -2.2728   -0.4493    0.9183 C   0  0  0  0  0  0  0  0  0  0  0  0
   -1.8329   -0.4957    1.9355 H   0  0  0  0  0  0  0  0  0  0  0  0
   -3.3157   -0.8336    0.9845 H   0  0  0  0  0  0  0  0  0  0  0  0
   -0.7841   -2.4808    0.5969 C   0  0  0  0  0  0  0  0  0  0  0  0
   -0.7333   -3.2644   -0.1848 H   0  0  0  0  0  0  0  0  0  0  0  0
   -1.3886   -2.9045    1.4284 H   0  0  0  0  0  0  0  0  0  0  0  0
    0.6287   -2.1350    1.0877 C   0  0  0  0  0  0  0  0  0  0  0  0
    0.5697   -1.4931    1.9887 H   0  0  0  0  0  0  0  0  0  0  0  0
    1.1729   -3.0672    1.3754 H   0  0  0  0  0  0  0  0  0  0  0  0
    2.5400   -0.5809    0.5805 C   0  0  0  0  0  0  0  0  0  0  0  0
    3.4966   -0.9908    0.1949 H   0  0  0  0  0  0  0  0  0  0  0  0
    2.5773   -0.6802    1.6842 H   0  0  0  0  0  0  0  0  0  0  0  0
    2.4368    0.9401    0.2830 C   0  0  0  0  0  0  0  0  0  0  0  0
    0.7716    2.6382   -0.3139 C   0  0  0  0  0  0  0  0  0  0  0  0
    1.3596    3.3098   -0.9768 H   0  0  0  0  0  0  0  0  0  0  0  0
    0.8865    3.0389    0.7194 H   0  0  0  0  0  0  0  0  0  0  0  0
   -0.7162    2.5938   -0.7296 C   0  0  0  0  0  0  0  0  0  0  0  0
   -1.3137    3.3945   -0.2437 H   0  0  0  0  0  0  0  0  0  0  0  0
   -0.8054    2.7274   -1.8307 H   0  0  0  0  0  0  0  0  0  0  0  0
   -2.2227   -1.6164   -1.2138 C   0  0  0  0  0  0  0  0  0  0  0  0
   -1.5705   -2.1000   -1.9657 H   0  0  0  0  0  0  0  0  0  0  0  0
   -2.6150   -0.6775   -1.6450 H   0  0  0  0  0  0  0  0  0  0  0  0
   -3.0724   -2.2949   -0.9708 H   0  0  0  0  0  0  0  0  0  0  0  0
    1.7546   -2.1625   -1.1213 C   0  0  0  0  0  0  0  0  0  0  0  0
    2.2084   -1.4902   -1.8723 H   0  0  0  0  0  0  0  0  0  0  0  0
    0.8666   -2.6356   -1.5805 H   0  0  0  0  0  0  0  0  0  0  0  0
    2.4872   -2.9577   -0.8489 H   0  0  0  0  0  0  0  0  0  0  0  0
  3  7  1  0  0  0  0
  4 11  1  0  0  0  0
  4  8  1  0  0  0  0
  5 17  1  0  0  0  0
  5 14  1  0  0  0  0
  6 21  1  0  0  0  0
  6 20  1  0  0  0  0
  7  1  2  0  0  0  0
  7  8  1  0  0  0  0
  8 10  1  0  0  0  0
  8  9  1  0  0  0  0
 11 14  1  0  0  0  0
 11 13  1  0  0  0  0
 12 11  1  0  0  0  0
 14 16  1  0  0  0  0
 14 15  1  0  0  0  0
 17 19  1  0  0  0  0
 18 17  1  0  0  0  0
 20 17  1  0  0  0  0
 20  2  2  0  0  0  0
 21 23  1  0  0  0  0
 22 21  1  0  0  0  0
 24  3  1  0  0  0  0
 24 21  1  0  0  0  0
 24 25  1  0  0  0  0
 26 24  1  0  0  0  0
 27 30  1  0  0  0  0
 27  4  1  0  0  0  0
 28 27  1  0  0  0  0
 29 27  1  0  0  0  0
 31 34  1  0  0  0  0
 31  5  1  0  0  0  0
 32 31  1  0  0  0  0
 33 31  1  0  0  0  0
M  END
