1,2,39,40
 OpenBabel05122313063D

 76 84  0  0  0  0  0  0  0  0999 V2000
    1.3030    1.3869   -0.0765 N   0  0  0  0  0  0  0  0  0  0  0  0
   -1.3030    1.3869   -0.0765 N   0  0  0  0  0  0  0  0  0  0  0  0
    2.6666    1.6144   -0.0784 C   0  0  0  0  0  3  0  0  0  0  0  0
    2.8910    3.0524   -0.1915 C   0  0  0  0  0  0  0  0  0  0  0  0
    3.8777    3.5226   -0.2324 H   0  0  0  0  0  0  0  0  0  0  0  0
    1.6649    3.6747   -0.2492 C   0  0  0  0  0  0  0  0  0  0  0  0
    1.4481    4.7446   -0.3399 H   0  0  0  0  0  0  0  0  0  0  0  0
    0.6993    2.6225   -0.1732 C   0  0  0  0  0  0  0  0  0  0  0  0
   -0.6993    2.6225   -0.1732 C   0  0  0  0  0  0  0  0  0  0  0  0
   -1.6649    3.6748   -0.2489 C   0  0  0  0  0  0  0  0  0  0  0  0
   -1.4481    4.7447   -0.3395 H   0  0  0  0  0  0  0  0  0  0  0  0
   -2.8910    3.0525   -0.1912 C   0  0  0  0  0  0  0  0  0  0  0  0
   -3.8777    3.5227   -0.2319 H   0  0  0  0  0  0  0  0  0  0  0  0
   -2.6666    1.6145   -0.0781 C   0  0  0  0  0  3  0  0  0  0  0  0
   -3.7581    0.7051   -0.0181 C   0  0  0  0  0  0  0  0  0  0  0  0
   -3.7581   -0.7051    0.0182 C   0  0  0  0  0  0  0  0  0  0  0  0
   -5.1123    1.3667    0.0081 C   0  0  0  0  0  0  0  0  0  0  0  0
   -5.5985    1.9306    1.2050 C   0  0  0  0  0  0  0  0  0  0  0  0
   -4.9715    1.8893    2.1089 H   0  0  0  0  0  0  0  0  0  0  0  0
   -6.8640    2.5343    1.2493 C   0  0  0  0  0  0  0  0  0  0  0  0
   -7.2309    2.9661    2.1930 H   0  0  0  0  0  0  0  0  0  0  0  0
   -7.6601    2.5857    0.0944 C   0  0  0  0  0  0  0  0  0  0  0  0
   -8.6546    3.0561    0.1281 H   0  0  0  0  0  0  0  0  0  0  0  0
   -7.1796    2.0363   -1.1049 C   0  0  0  0  0  0  0  0  0  0  0  0
   -7.7952    2.0773   -2.0165 H   0  0  0  0  0  0  0  0  0  0  0  0
   -5.9145    1.4326   -1.1477 C   0  0  0  0  0  0  0  0  0  0  0  0
   -5.5396    0.9998   -2.0869 H   0  0  0  0  0  0  0  0  0  0  0  0
   -5.1123   -1.3667   -0.0082 C   0  0  0  0  0  0  0  0  0  0  0  0
   -5.9147   -1.4325    1.1475 C   0  0  0  0  0  0  0  0  0  0  0  0
   -5.5400   -0.9996    2.0868 H   0  0  0  0  0  0  0  0  0  0  0  0
   -7.1798   -2.0362    1.1045 C   0  0  0  0  0  0  0  0  0  0  0  0
   -7.7955   -2.0772    2.0159 H   0  0  0  0  0  0  0  0  0  0  0  0
   -7.6601   -2.5858   -0.0948 C   0  0  0  0  0  0  0  0  0  0  0  0
   -8.6545   -3.0562   -0.1287 H   0  0  0  0  0  0  0  0  0  0  0  0
   -6.8637   -2.5344   -1.2496 C   0  0  0  0  0  0  0  0  0  0  0  0
   -7.2304   -2.9664   -2.1934 H   0  0  0  0  0  0  0  0  0  0  0  0
   -5.5982   -1.9307   -1.2051 C   0  0  0  0  0  0  0  0  0  0  0  0
   -4.9710   -1.8895   -2.1088 H   0  0  0  0  0  0  0  0  0  0  0  0
   -1.3030   -1.3869    0.0766 N   0  0  0  0  0  0  0  0  0  0  0  0
    1.3030   -1.3869    0.0767 N   0  0  0  0  0  0  0  0  0  0  0  0
   -2.6666   -1.6144    0.0784 C   0  0  0  0  0  0  0  0  0  0  0  0
   -2.8910   -3.0524    0.1917 C   0  0  0  0  0  0  0  0  0  0  0  0
   -3.8777   -3.5226    0.2325 H   0  0  0  0  0  0  0  0  0  0  0  0
   -1.6649   -3.6747    0.2494 C   0  0  0  0  0  0  0  0  0  0  0  0
   -1.4481   -4.7446    0.3402 H   0  0  0  0  0  0  0  0  0  0  0  0
   -0.6993   -2.6225    0.1735 C   0  0  0  0  0  3  0  0  0  0  0  0
    0.6993   -2.6225    0.1734 C   0  0  0  0  0  3  0  0  0  0  0  0
    1.6649   -3.6747    0.2492 C   0  0  0  0  0  0  0  0  0  0  0  0
    1.4481   -4.7446    0.3399 H   0  0  0  0  0  0  0  0  0  0  0  0
    2.8910   -3.0525    0.1914 C   0  0  0  0  0  0  0  0  0  0  0  0
    3.8777   -3.5226    0.2321 H   0  0  0  0  0  0  0  0  0  0  0  0
    2.6666   -1.6144    0.0783 C   0  0  0  0  0  0  0  0  0  0  0  0
    3.7581   -0.7051    0.0181 C   0  0  0  0  0  0  0  0  0  0  0  0
    3.7581    0.7051   -0.0182 C   0  0  0  0  0  0  0  0  0  0  0  0
    5.1123   -1.3667   -0.0082 C   0  0  0  0  0  0  0  0  0  0  0  0
    5.5984   -1.9307   -1.2051 C   0  0  0  0  0  0  0  0  0  0  0  0
    4.9713   -1.8893   -2.1089 H   0  0  0  0  0  0  0  0  0  0  0  0
    6.8639   -2.5343   -1.2494 C   0  0  0  0  0  0  0  0  0  0  0  0
    7.2307   -2.9662   -2.1932 H   0  0  0  0  0  0  0  0  0  0  0  0
    7.6601   -2.5858   -0.0945 C   0  0  0  0  0  0  0  0  0  0  0  0
    8.6545   -3.0561   -0.1283 H   0  0  0  0  0  0  0  0  0  0  0  0
    7.1796   -2.0363    1.1048 C   0  0  0  0  0  0  0  0  0  0  0  0
    7.7953   -2.0773    2.0163 H   0  0  0  0  0  0  0  0  0  0  0  0
    5.9146   -1.4325    1.1476 C   0  0  0  0  0  0  0  0  0  0  0  0
    5.5398   -0.9997    2.0869 H   0  0  0  0  0  0  0  0  0  0  0  0
    5.1123    1.3667    0.0080 C   0  0  0  0  0  0  0  0  0  0  0  0
    5.9146    1.4325   -1.1477 C   0  0  0  0  0  0  0  0  0  0  0  0
    5.5398    0.9996   -2.0869 H   0  0  0  0  0  0  0  0  0  0  0  0
    7.1797    2.0362   -1.1049 C   0  0  0  0  0  0  0  0  0  0  0  0
    7.7954    2.0772   -2.0164 H   0  0  0  0  0  0  0  0  0  0  0  0
    7.6601    2.5858    0.0944 C   0  0  0  0  0  0  0  0  0  0  0  0
    8.6545    3.0562    0.1282 H   0  0  0  0  0  0  0  0  0  0  0  0
    6.8639    2.5344    1.2493 C   0  0  0  0  0  0  0  0  0  0  0  0
    7.2306    2.9664    2.1930 H   0  0  0  0  0  0  0  0  0  0  0  0
    5.5984    1.9307    1.2049 C   0  0  0  0  0  0  0  0  0  0  0  0
    4.9712    1.8895    2.1087 H   0  0  0  0  0  0  0  0  0  0  0  0
  3  1  1  0  0  0  0
  3 54  1  0  0  0  0
  4  3  1  0  0  0  0
  5  4  1  0  0  0  0
  6  4  2  0  0  0  0
  6  8  1  0  0  0  0
  7  6  1  0  0  0  0
  8  9  1  0  0  0  0
  8  1  2  0  0  0  0
  9  2  2  0  0  0  0
 10 12  2  0  0  0  0
 10  9  1  0  0  0  0
 11 10  1  0  0  0  0
 12 14  1  0  0  0  0
 13 12  1  0  0  0  0
 14  2  1  0  0  0  0
 14 15  1  0  0  0  0
 15 17  1  0  0  0  0
 15 16  2  0  0  0  0
 16 41  1  0  0  0  0
 17 18  1  0  0  0  0
 18 20  2  0  0  0  0
 18 19  1  0  0  0  0
 20 21  1  0  0  0  0
 22 23  1  0  0  0  0
 22 20  1  0  0  0  0
 24 22  2  0  0  0  0
 25 24  1  0  0  0  0
 26 24  1  0  0  0  0
 26 17  2  0  0  0  0
 27 26  1  0  0  0  0
 28 16  1  0  0  0  0
 28 29  1  0  0  0  0
 29 30  1  0  0  0  0
 31 29  2  0  0  0  0
 31 32  1  0  0  0  0
 33 31  1  0  0  0  0
 34 33  1  0  0  0  0
 35 37  1  0  0  0  0
 35 33  2  0  0  0  0
 36 35  1  0  0  0  0
 37 28  2  0  0  0  0
 38 37  1  0  0  0  0
 39 41  2  0  0  0  0
 39 46  1  0  0  0  0
 40 52  2  0  0  0  0
 40 47  1  0  0  0  0
 41 42  1  0  0  0  0
 42 43  1  0  0  0  0
 42 44  2  0  0  0  0
 44 45  1  0  0  0  0
 46 44  1  0  0  0  0
 47 46  1  0  0  0  0
 47 48  1  0  0  0  0
 48 49  1  0  0  0  0
 50 51  1  0  0  0  0
 50 48  2  0  0  0  0
 52 50  1  0  0  0  0
 53 52  1  0  0  0  0
 54 66  1  0  0  0  0
 54 53  2  0  0  0  0
 55 53  1  0  0  0  0
 55 64  1  0  0  0  0
 56 55  2  0  0  0  0
 57 56  1  0  0  0  0
 58 56  1  0  0  0  0
 58 60  2  0  0  0  0
 59 58  1  0  0  0  0
 60 62  1  0  0  0  0
 61 60  1  0  0  0  0
 62 64  2  0  0  0  0
 62 63  1  0  0  0  0
 64 65  1  0  0  0  0
 66 75  1  0  0  0  0
 67 69  1  0  0  0  0
 67 66  2  0  0  0  0
 68 67  1  0  0  0  0
 69 71  2  0  0  0  0
 70 69  1  0  0  0  0
 71 72  1  0  0  0  0
 71 73  1  0  0  0  0
 73 74  1  0  0  0  0
 75 73  2  0  0  0  0
 75 76  1  0  0  0  0
M  END
