1,2,3,53
 OpenBabel05122313063D

 72 76  0  0  0  0  0  0  0  0999 V2000
   -2.0174   -0.0001    0.0000 N   0  0  0  0  0  2  0  0  0  0  0  0
   -0.0001    2.0121   -0.0000 N   0  0  0  0  0  0  0  0  0  0  0  0
    2.0174    0.0001    0.0000 N   0  0  0  0  0  0  0  0  0  0  0  0
   -4.2117    0.6530    0.2066 C   0  0  0  0  0  0  0  0  0  0  0  0
   -5.0907    1.2756    0.3878 H   0  0  0  0  0  0  0  0  0  0  0  0
   -2.8298    1.0775    0.3081 C   0  0  0  0  0  0  0  0  0  0  0  0
   -2.3997    2.3986    0.5677 C   0  0  0  0  0  0  0  0  0  0  0  0
   -3.3932    3.4581    1.0570 C   0  0  0  0  0  0  0  0  0  0  0  0
   -2.7745    4.3226    1.3629 H   0  0  0  0  0  0  0  0  0  0  0  0
   -4.1423    3.0514    2.3405 C   0  0  0  0  0  0  0  0  0  0  0  0
   -3.4312    2.7120    3.1197 H   0  0  0  0  0  0  0  0  0  0  0  0
   -4.8720    2.2352    2.1822 H   0  0  0  0  0  0  0  0  0  0  0  0
   -4.6987    3.9228    2.7428 H   0  0  0  0  0  0  0  0  0  0  0  0
   -4.3304    3.9806   -0.0486 C   0  0  0  0  0  0  0  0  0  0  0  0
   -4.9444    4.8230    0.3317 H   0  0  0  0  0  0  0  0  0  0  0  0
   -5.0228    3.2018   -0.4228 H   0  0  0  0  0  0  0  0  0  0  0  0
   -3.7465    4.3461   -0.9170 H   0  0  0  0  0  0  0  0  0  0  0  0
   -1.0749    2.8228    0.3122 C   0  0  0  0  0  0  0  0  0  0  0  0
   -0.6526    4.2062    0.2110 C   0  0  0  0  0  0  0  0  0  0  0  0
   -1.2760    5.0870    0.3930 H   0  0  0  0  0  0  0  0  0  0  0  0
    0.6521    4.2063   -0.2113 C   0  0  0  0  0  0  0  0  0  0  0  0
    1.2754    5.0871   -0.3933 H   0  0  0  0  0  0  0  0  0  0  0  0
    1.0746    2.8229   -0.3123 C   0  0  0  0  0  0  0  0  0  0  0  0
    2.3994    2.3988   -0.5677 C   0  0  0  0  0  0  0  0  0  0  0  0
    3.3929    3.4584   -1.0571 C   0  0  0  0  0  0  0  0  0  0  0  0
    2.7740    4.3227   -1.3632 H   0  0  0  0  0  0  0  0  0  0  0  0
    4.3298    3.9812    0.0484 C   0  0  0  0  0  0  0  0  0  0  0  0
    3.7458    4.3467    0.9168 H   0  0  0  0  0  0  0  0  0  0  0  0
    4.9438    4.8236   -0.3319 H   0  0  0  0  0  0  0  0  0  0  0  0
    5.0223    3.2025    0.4228 H   0  0  0  0  0  0  0  0  0  0  0  0
    4.1422    3.0515   -2.3405 C   0  0  0  0  0  0  0  0  0  0  0  0
    3.4311    2.7118   -3.1197 H   0  0  0  0  0  0  0  0  0  0  0  0
    4.8719    2.2354   -2.1820 H   0  0  0  0  0  0  0  0  0  0  0  0
    4.6985    3.9229   -2.7429 H   0  0  0  0  0  0  0  0  0  0  0  0
    2.8297    1.0778   -0.3081 C   0  0  0  0  0  0  0  0  0  0  0  0
    4.2116    0.6534   -0.2066 C   0  0  0  0  0  0  0  0  0  0  0  0
    5.0905    1.2761   -0.3879 H   0  0  0  0  0  0  0  0  0  0  0  0
   -4.2116   -0.6534   -0.2066 C   0  0  0  0  0  0  0  0  0  0  0  0
   -5.0905   -1.2761   -0.3878 H   0  0  0  0  0  0  0  0  0  0  0  0
   -2.8297   -1.0778   -0.3081 C   0  0  0  0  0  0  0  0  0  0  0  0
   -2.3994   -2.3988   -0.5677 C   0  0  0  0  0  0  0  0  0  0  0  0
   -3.3928   -3.4584   -1.0570 C   0  0  0  0  0  0  0  0  0  0  0  0
   -2.7740   -4.3229   -1.3628 H   0  0  0  0  0  0  0  0  0  0  0  0
   -4.1418   -3.0518   -2.3406 C   0  0  0  0  0  0  0  0  0  0  0  0
   -3.4306   -2.7124   -3.1198 H   0  0  0  0  0  0  0  0  0  0  0  0
   -4.8716   -2.2357   -2.1825 H   0  0  0  0  0  0  0  0  0  0  0  0
   -4.6981   -3.9233   -2.7430 H   0  0  0  0  0  0  0  0  0  0  0  0
   -4.3301   -3.9809    0.0485 C   0  0  0  0  0  0  0  0  0  0  0  0
   -4.9440   -4.8234   -0.3318 H   0  0  0  0  0  0  0  0  0  0  0  0
   -5.0226   -3.2021    0.4225 H   0  0  0  0  0  0  0  0  0  0  0  0
   -3.7463   -4.3463    0.9170 H   0  0  0  0  0  0  0  0  0  0  0  0
   -1.0746   -2.8229   -0.3122 C   0  0  0  0  0  0  0  0  0  0  0  0
    0.0001   -2.0121    0.0001 N   0  0  0  0  0  0  0  0  0  0  0  0
    2.8298   -1.0775    0.3081 C   0  0  0  0  0  3  0  0  0  0  0  0
    2.3997   -2.3985    0.5678 C   0  0  0  0  0  0  0  0  0  0  0  0
    1.0749   -2.8228    0.3123 C   0  0  0  0  0  0  0  0  0  0  0  0
    0.6525   -4.2062    0.2112 C   0  0  0  0  0  0  0  0  0  0  0  0
   -0.6521   -4.2063   -0.2111 C   0  0  0  0  0  0  0  0  0  0  0  0
   -1.2754   -5.0871   -0.3931 H   0  0  0  0  0  0  0  0  0  0  0  0
    1.2759   -5.0870    0.3932 H   0  0  0  0  0  0  0  0  0  0  0  0
    3.3932   -3.4581    1.0571 C   0  0  0  0  0  0  0  0  0  0  0  0
    2.7745   -4.3224    1.3633 H   0  0  0  0  0  0  0  0  0  0  0  0
    4.3301   -3.9809   -0.0486 C   0  0  0  0  0  0  0  0  0  0  0  0
    3.7460   -4.3465   -0.9168 H   0  0  0  0  0  0  0  0  0  0  0  0
    4.9442   -4.8233    0.3317 H   0  0  0  0  0  0  0  0  0  0  0  0
    5.0225   -3.2022   -0.4231 H   0  0  0  0  0  0  0  0  0  0  0  0
    4.1427   -3.0510    2.3403 C   0  0  0  0  0  0  0  0  0  0  0  0
    3.4318   -2.7114    3.1196 H   0  0  0  0  0  0  0  0  0  0  0  0
    4.8724   -2.2349    2.1816 H   0  0  0  0  0  0  0  0  0  0  0  0
    4.6991   -3.9224    2.7427 H   0  0  0  0  0  0  0  0  0  0  0  0
    4.2116   -0.6530    0.2067 C   0  0  0  0  0  0  0  0  0  0  0  0
    5.0906   -1.2756    0.3879 H   0  0  0  0  0  0  0  0  0  0  0  0
  1  6  1  0  0  0  0
  2 18  2  0  0  0  0
  3 54  1  0  0  0  0
  4  6  1  0  0  0  0
  4  5  1  0  0  0  0
  6  7  2  0  0  0  0
  7  8  1  0  0  0  0
  8  9  1  0  0  0  0
  8 10  1  0  0  0  0
 10 13  1  0  0  0  0
 10 11  1  0  0  0  0
 12 10  1  0  0  0  0
 14 15  1  0  0  0  0
 14  8  1  0  0  0  0
 16 14  1  0  0  0  0
 17 14  1  0  0  0  0
 18  7  1  0  0  0  0
 19 18  1  0  0  0  0
 19 20  1  0  0  0  0
 21 19  2  0  0  0  0
 22 21  1  0  0  0  0
 23 21  1  0  0  0  0
 23  2  1  0  0  0  0
 24 23  2  0  0  0  0
 24 35  1  0  0  0  0
 25 24  1  0  0  0  0
 25 27  1  0  0  0  0
 26 25  1  0  0  0  0
 27 30  1  0  0  0  0
 27 28  1  0  0  0  0
 29 27  1  0  0  0  0
 31 33  1  0  0  0  0
 31 25  1  0  0  0  0
 32 31  1  0  0  0  0
 34 31  1  0  0  0  0
 35 36  1  0  0  0  0
 35  3  2  0  0  0  0
 36 71  2  0  0  0  0
 37 36  1  0  0  0  0
 38  4  2  0  0  0  0
 39 38  1  0  0  0  0
 40 38  1  0  0  0  0
 40  1  1  0  0  0  0
 41 52  1  0  0  0  0
 41 40  2  0  0  0  0
 42 41  1  0  0  0  0
 42 48  1  0  0  0  0
 43 42  1  0  0  0  0
 44 46  1  0  0  0  0
 44 42  1  0  0  0  0
 45 44  1  0  0  0  0
 47 44  1  0  0  0  0
 48 50  1  0  0  0  0
 48 51  1  0  0  0  0
 49 48  1  0  0  0  0
 52 58  1  0  0  0  0
 52 53  2  0  0  0  0
 53 56  1  0  0  0  0
 54 55  1  0  0  0  0
 55 61  1  0  0  0  0
 56 55  2  0  0  0  0
 57 56  1  0  0  0  0
 57 60  1  0  0  0  0
 58 57  2  0  0  0  0
 59 58  1  0  0  0  0
 61 62  1  0  0  0  0
 61 67  1  0  0  0  0
 63 65  1  0  0  0  0
 63 61  1  0  0  0  0
 64 63  1  0  0  0  0
 66 63  1  0  0  0  0
 67 70  1  0  0  0  0
 67 68  1  0  0  0  0
 69 67  1  0  0  0  0
 71 54  1  0  0  0  0
 71 72  1  0  0  0  0
M  END
