1,2,3,4
 OpenBabel05122313063D

 37 36  0  0  1  0  0  0  0  0999 V2000
   -0.8739    0.6694    2.4428 N   0  0  0  0  0  0  0  0  0  0  0  0
   -0.0745   -1.3760    0.8153 N   0  0  0  0  0  0  0  0  0  0  0  0
   -2.2329    0.2976   -0.2240 N   0  0  0  0  0  0  0  0  0  0  0  0
   -0.6685    2.5278    0.1963 N   0  0  0  0  0  0  0  0  0  0  0  0
   -0.2921   -0.5336    3.1023 C   0  0  0  0  0  0  0  0  0  0  0  0
   -0.5577   -1.7040    2.1799 C   0  0  0  0  0  0  0  0  0  0  0  0
   -0.5609   -2.3876   -0.1778 C   0  0  1  0  0  0  0  0  0  0  0  0
   -2.0343   -2.1633   -0.5364 C   0  0  0  0  0  0  0  0  0  0  0  0
   -2.3860   -0.8352   -1.2090 C   0  0  1  0  0  0  0  0  0  0  0  0
   -2.6517    1.6056   -0.8055 C   0  0  0  0  0  0  0  0  0  0  0  0
   -2.1248    2.7373    0.0546 C   0  0  0  0  0  0  0  0  0  0  0  0
    0.3542   -2.5189   -1.3947 C   0  0  0  0  0  0  0  0  0  0  0  0
   -3.7989   -0.8926   -1.7985 C   0  0  0  0  0  0  0  0  0  0  0  0
   -0.5448    1.5227    2.9196 H   0  0  0  0  0  0  0  0  0  0  0  0
   -1.8968    0.6670    2.5888 H   0  0  0  0  0  0  0  0  0  0  0  0
    0.9941   -1.4599    0.8692 H   0  0  0  0  0  0  0  0  0  0  0  0
   -2.8732    0.0843    0.5604 H   0  0  0  0  0  0  0  0  0  0  0  0
   -0.2525    3.2065    0.8514 H   0  0  0  0  0  0  0  0  0  0  0  0
   -0.2045    2.6656   -0.7193 H   0  0  0  0  0  0  0  0  0  0  0  0
    0.7974   -0.3748    3.2233 H   0  0  0  0  0  0  0  0  0  0  0  0
   -0.7185   -0.7023    4.1126 H   0  0  0  0  0  0  0  0  0  0  0  0
   -1.6470   -1.9204    2.1476 H   0  0  0  0  0  0  0  0  0  0  0  0
   -0.0549   -2.6210    2.5540 H   0  0  0  0  0  0  0  0  0  0  0  0
   -0.5173   -3.3621    0.3611 H   0  0  0  0  0  0  0  0  0  0  0  0
   -2.6897   -2.3010    0.3543 H   0  0  0  0  0  0  0  0  0  0  0  0
   -2.3274   -2.9779   -1.2277 H   0  0  0  0  0  0  0  0  0  0  0  0
   -1.6489   -0.6143   -2.0064 H   0  0  0  0  0  0  0  0  0  0  0  0
   -3.7520    1.6752   -0.9164 H   0  0  0  0  0  0  0  0  0  0  0  0
   -2.2026    1.6645   -1.8175 H   0  0  0  0  0  0  0  0  0  0  0  0
   -2.3671    3.7214   -0.3998 H   0  0  0  0  0  0  0  0  0  0  0  0
   -2.5858    2.7251    1.0652 H   0  0  0  0  0  0  0  0  0  0  0  0
    0.0450   -3.4087   -1.9769 H   0  0  0  0  0  0  0  0  0  0  0  0
    1.4099   -2.6714   -1.0975 H   0  0  0  0  0  0  0  0  0  0  0  0
    0.3134   -1.6393   -2.0610 H   0  0  0  0  0  0  0  0  0  0  0  0
   -4.5659   -1.0449   -1.0090 H   0  0  0  0  0  0  0  0  0  0  0  0
   -3.8694   -1.7503   -2.4944 H   0  0  0  0  0  0  0  0  0  0  0  0
   -4.0645    0.0104   -2.3793 H   0  0  0  0  0  0  0  0  0  0  0  0
  1 15  1  0  0  0  0
  1 14  1  0  0  0  0
  1  5  1  0  0  0  0
  2 16  1  0  0  0  0
  2  6  1  0  0  0  0
  3 17  1  0  0  0  0
  4 18  1  0  0  0  0
  5 20  1  0  0  0  0
  5 21  1  0  0  0  0
  6 23  1  0  0  0  0
  6  5  1  0  0  0  0
  7 24  1  1  0  0  0
  7  2  1  0  0  0  0
  8  7  1  0  0  0  0
  8 25  1  0  0  0  0
  9 27  1  6  0  0  0
  9  8  1  0  0  0  0
  9  3  1  0  0  0  0
 10  3  1  0  0  0  0
 10 11  1  0  0  0  0
 11  4  1  0  0  0  0
 11 31  1  0  0  0  0
 12 33  1  0  0  0  0
 12  7  1  0  0  0  0
 13  9  1  0  0  0  0
 13 35  1  0  0  0  0
 19  4  1  0  0  0  0
 22  6  1  0  0  0  0
 26  8  1  0  0  0  0
 28 10  1  0  0  0  0
 29 10  1  0  0  0  0
 30 11  1  0  0  0  0
 32 12  1  0  0  0  0
 34 12  1  0  0  0  0
 36 13  1  0  0  0  0
 37 13  1  0  0  0  0
M  END
