1,12,32,44
 OpenBabel05122313063D

 62 62  0  0  1  0  0  0  0  0999 V2000
   -0.9944   -1.2823   -1.0518 N   0  0  0  0  0  0  0  0  0  0  0  0
   -0.5449   -0.9755   -1.9297 H   0  0  0  0  0  0  0  0  0  0  0  0
   -0.4685   -2.6534   -0.7643 C   0  0  2  0  0  0  0  0  0  0  0  0
   -0.6908   -3.3350   -1.6182 H   0  0  0  0  0  0  0  0  0  0  0  0
   -1.0532   -3.2610    0.5106 C   0  0  0  0  0  0  0  0  0  0  0  0
   -0.8938   -2.5956    1.3843 H   0  0  0  0  0  0  0  0  0  0  0  0
   -0.5643   -4.2349    0.7086 H   0  0  0  0  0  0  0  0  0  0  0  0
   -2.1374   -3.4625    0.4210 H   0  0  0  0  0  0  0  0  0  0  0  0
    1.0445   -2.4923   -0.6861 C   0  0  0  0  0  0  0  0  0  0  0  0
    1.5236   -3.4648   -0.4555 H   0  0  0  0  0  0  0  0  0  0  0  0
    1.4344   -2.1630   -1.6708 H   0  0  0  0  0  0  0  0  0  0  0  0
    1.3878   -1.4556    0.3207 N   0  0  0  0  0  0  0  0  0  0  0  0
    1.2658   -1.8495    1.2709 H   0  0  0  0  0  0  0  0  0  0  0  0
    2.8269   -0.9651    0.2513 C   0  0  0  0  0  0  0  0  0  0  0  0
    3.7706   -2.1769    0.1009 C   0  0  0  0  0  0  0  0  0  0  0  0
    3.5686   -2.9399    0.8799 H   0  0  0  0  0  0  0  0  0  0  0  0
    4.8179   -1.8435    0.2317 H   0  0  0  0  0  0  0  0  0  0  0  0
    3.7016   -2.6584   -0.8938 H   0  0  0  0  0  0  0  0  0  0  0  0
    3.1690   -0.2485    1.5622 C   0  0  0  0  0  0  0  0  0  0  0  0
    2.4527    0.5569    1.8006 H   0  0  0  0  0  0  0  0  0  0  0  0
    4.1914    0.1721    1.4942 H   0  0  0  0  0  0  0  0  0  0  0  0
    3.1483   -0.9540    2.4161 H   0  0  0  0  0  0  0  0  0  0  0  0
    3.0170   -0.0368   -0.9647 C   0  0  0  0  0  0  0  0  0  0  0  0
    4.1065    0.0038   -1.1671 H   0  0  0  0  0  0  0  0  0  0  0  0
    2.5799   -0.5066   -1.8739 H   0  0  0  0  0  0  0  0  0  0  0  0
    2.5274    1.4160   -0.8731 C   0  0  1  0  0  0  0  0  0  0  0  0
    2.9793    1.8835    0.0258 H   0  0  0  0  0  0  0  0  0  0  0  0
    2.9950    2.1732   -2.1250 C   0  0  0  0  0  0  0  0  0  0  0  0
    2.5696    1.7087   -3.0406 H   0  0  0  0  0  0  0  0  0  0  0  0
    4.0977    2.1312   -2.2216 H   0  0  0  0  0  0  0  0  0  0  0  0
    2.7008    3.2374   -2.1144 H   0  0  0  0  0  0  0  0  0  0  0  0
    1.0546    1.4817   -0.6873 N   0  0  0  0  0  0  0  0  0  0  0  0
    0.6310    1.5238   -1.6273 H   0  0  0  0  0  0  0  0  0  0  0  0
    0.5181    2.6221    0.0989 C   0  0  1  0  0  0  0  0  0  0  0  0
    0.8412    2.4517    1.1501 H   0  0  0  0  0  0  0  0  0  0  0  0
    0.9496    4.0275   -0.3296 C   0  0  0  0  0  0  0  0  0  0  0  0
    2.0436    4.1659   -0.2455 H   0  0  0  0  0  0  0  0  0  0  0  0
    0.4785    4.7832    0.3298 H   0  0  0  0  0  0  0  0  0  0  0  0
    0.6455    4.2522   -1.3730 H   0  0  0  0  0  0  0  0  0  0  0  0
   -1.0022    2.4908    0.0418 C   0  0  0  0  0  0  0  0  0  0  0  0
   -1.4768    3.3423    0.5690 H   0  0  0  0  0  0  0  0  0  0  0  0
   -1.3285    2.5482   -1.0193 H   0  0  0  0  0  0  0  0  0  0  0  0
   -2.8777    0.8118    0.3309 C   0  0  0  0  0  0  0  0  0  0  0  0
   -1.4462    1.2021    0.6177 N   0  0  0  0  0  0  0  0  0  0  0  0
   -1.3494    1.2645    1.6508 H   0  0  0  0  0  0  0  0  0  0  0  0
   -3.8005    2.0425    0.4280 C   0  0  0  0  0  0  0  0  0  0  0  0
   -3.6607    2.5724    1.3916 H   0  0  0  0  0  0  0  0  0  0  0  0
   -4.8563    1.7127    0.3834 H   0  0  0  0  0  0  0  0  0  0  0  0
   -3.6448    2.7628   -0.3984 H   0  0  0  0  0  0  0  0  0  0  0  0
   -3.2951   -0.2013    1.4054 C   0  0  0  0  0  0  0  0  0  0  0  0
   -2.5637   -1.0236    1.4985 H   0  0  0  0  0  0  0  0  0  0  0  0
   -4.2929   -0.6205    1.1709 H   0  0  0  0  0  0  0  0  0  0  0  0
   -3.3574    0.2881    2.3975 H   0  0  0  0  0  0  0  0  0  0  0  0
   -2.9775    0.2244   -1.0934 C   0  0  0  0  0  0  0  0  0  0  0  0
   -4.0488    0.2285   -1.3791 H   0  0  0  0  0  0  0  0  0  0  0  0
   -2.4826    0.9088   -1.8189 H   0  0  0  0  0  0  0  0  0  0  0  0
   -2.4625   -1.2025   -1.2965 C   0  0  1  0  0  0  0  0  0  0  0  0
   -2.9410   -1.8472   -0.5358 H   0  0  0  0  0  0  0  0  0  0  0  0
   -2.8234   -1.7325   -2.6879 C   0  0  0  0  0  0  0  0  0  0  0  0
   -2.3808   -1.0961   -3.4839 H   0  0  0  0  0  0  0  0  0  0  0  0
   -3.9207   -1.7315   -2.8365 H   0  0  0  0  0  0  0  0  0  0  0  0
   -2.4732   -2.7722   -2.8409 H   0  0  0  0  0  0  0  0  0  0  0  0
  1  3  1  0  0  0  0
  2  1  1  0  0  0  0
  3  4  1  6  0  0  0
  3  9  1  0  0  0  0
  3  5  1  0  0  0  0
  5  7  1  0  0  0  0
  5  6  1  0  0  0  0
  8  5  1  0  0  0  0
  9 10  1  0  0  0  0
  9 12  1  0  0  0  0
 11  9  1  0  0  0  0
 12 13  1  0  0  0  0
 14 12  1  0  0  0  0
 14 19  1  0  0  0  0
 15 17  1  0  0  0  0
 15 14  1  0  0  0  0
 15 16  1  0  0  0  0
 18 15  1  0  0  0  0
 19 20  1  0  0  0  0
 19 22  1  0  0  0  0
 21 19  1  0  0  0  0
 23 26  1  0  0  0  0
 23 14  1  0  0  0  0
 24 23  1  0  0  0  0
 25 23  1  0  0  0  0
 26 32  1  0  0  0  0
 26 27  1  1  0  0  0
 28 31  1  0  0  0  0
 28 26  1  0  0  0  0
 29 28  1  0  0  0  0
 30 28  1  0  0  0  0
 32 34  1  0  0  0  0
 33 32  1  0  0  0  0
 34 35  1  1  0  0  0
 36 37  1  0  0  0  0
 36 34  1  0  0  0  0
 36 38  1  0  0  0  0
 39 36  1  0  0  0  0
 40 34  1  0  0  0  0
 40 41  1  0  0  0  0
 40 44  1  0  0  0  0
 42 40  1  0  0  0  0
 43 46  1  0  0  0  0
 43 44  1  0  0  0  0
 43 50  1  0  0  0  0
 44 45  1  0  0  0  0
 46 47  1  0  0  0  0
 48 46  1  0  0  0  0
 49 46  1  0  0  0  0
 50 51  1  0  0  0  0
 50 53  1  0  0  0  0
 52 50  1  0  0  0  0
 54 43  1  0  0  0  0
 55 54  1  0  0  0  0
 56 54  1  0  0  0  0
 57 54  1  0  0  0  0
 57  1  1  0  0  0  0
 57 58  1  1  0  0  0
 59 57  1  0  0  0  0
 60 59  1  0  0  0  0
 61 59  1  0  0  0  0
 62 59  1  0  0  0  0
M  END
