1,17,27,37
 OpenBabel05122313063D

 51 54  0  0  1  0  0  0  0  0999 V2000
   -1.7310   -0.6274    1.0407 N   0  0  0  0  0  2  0  0  0  0  0  0
   -2.0984   -0.0213    2.1825 C   0  0  0  0  0  0  0  0  0  0  0  0
   -1.3741    0.6812    2.6156 H   0  0  0  0  0  0  0  0  0  0  0  0
   -3.3357   -0.2614    2.8150 C   0  0  0  0  0  0  0  0  0  0  0  0
   -3.5646    0.2769    3.7457 H   0  0  0  0  0  0  0  0  0  0  0  0
   -4.2354   -1.1627    2.2644 C   0  0  0  0  0  0  0  0  0  0  0  0
   -5.2027   -1.3738    2.7433 H   0  0  0  0  0  0  0  0  0  0  0  0
   -3.8981   -1.8080    1.0401 C   0  0  0  0  0  0  0  0  0  0  0  0
   -2.6350   -1.4917    0.4414 C   0  0  0  0  0  0  0  0  0  0  0  0
   -2.2819   -2.0484   -0.8123 C   0  0  0  0  0  0  0  0  0  0  0  0
   -3.1451   -2.9364   -1.4473 C   0  0  0  0  0  0  0  0  0  0  0  0
   -2.8825   -3.3557   -2.4289 H   0  0  0  0  0  0  0  0  0  0  0  0
   -4.3786   -3.2849   -0.8444 C   0  0  0  0  0  0  0  0  0  0  0  0
   -5.0496   -3.9889   -1.3585 H   0  0  0  0  0  0  0  0  0  0  0  0
   -4.7532   -2.7275    0.3710 C   0  0  0  0  0  3  0  0  0  0  0  0
   -5.7223   -2.9780    0.8282 H   0  0  0  0  0  0  0  0  0  0  0  0
   -1.0330   -1.5712   -1.4020 N   0  0  0  0  0  0  0  0  0  0  0  0
   -0.1508   -2.6900   -1.8352 C   0  0  0  0  0  0  0  0  0  0  0  0
    0.7265   -2.2096   -2.3098 H   0  0  0  0  0  0  0  0  0  0  0  0
   -0.6807   -3.2742   -2.6199 H   0  0  0  0  0  0  0  0  0  0  0  0
    0.2972   -3.6155   -0.7189 C   0  0  0  0  0  0  0  0  0  0  0  0
    0.7133   -4.5290   -1.1914 H   0  0  0  0  0  0  0  0  0  0  0  0
   -0.5720   -3.9627   -0.1202 H   0  0  0  0  0  0  0  0  0  0  0  0
    1.3955   -3.0346    0.1544 C   0  0  0  0  0  0  0  0  0  0  0  0
    1.8402   -3.8468    0.7705 H   0  0  0  0  0  0  0  0  0  0  0  0
    2.1899   -2.6075   -0.4849 H   0  0  0  0  0  0  0  0  0  0  0  0
    0.9473   -1.9398    1.0629 N   0  0  0  0  0  0  0  0  0  0  0  0
    2.1167   -1.2590    1.6304 C   0  0  0  0  0  0  0  0  0  0  0  0
    3.2838   -1.9066    2.0209 C   0  0  0  0  0  0  0  0  0  0  0  0
    3.4065   -2.9873    1.8721 H   0  0  0  0  0  0  0  0  0  0  0  0
    4.3347   -1.1691    2.6232 C   0  0  0  0  0  0  0  0  0  0  0  0
    5.2582   -1.6924    2.9116 H   0  0  0  0  0  0  0  0  0  0  0  0
    4.2046    0.1917    2.8559 C   0  0  0  0  0  0  0  0  0  0  0  0
    5.0163    0.7609    3.3331 H   0  0  0  0  0  0  0  0  0  0  0  0
    3.0175    0.8786    2.4749 C   0  0  0  0  0  0  0  0  0  0  0  0
    1.9778    0.1346    1.8283 C   0  0  1  0  0  3  0  0  0  0  0  0
    0.8229    0.7218    1.3580 N   0  0  0  0  0  2  0  0  0  0  0  0
    0.6437    2.0293    1.6058 C   0  0  0  0  0  0  0  0  0  0  0  0
   -0.2693    2.4740    1.2068 H   0  0  0  0  0  0  0  0  0  0  0  0
    1.5969    2.8226    2.2764 C   0  0  0  0  0  0  0  0  0  0  0  0
    1.3781    3.8900    2.4187 H   0  0  0  0  0  0  0  0  0  0  0  0
    2.7975    2.2669    2.6905 C   0  0  0  0  0  0  0  0  0  0  0  0
    3.5765    2.8741    3.1747 H   0  0  0  0  0  0  0  0  0  0  0  0
   -1.3191   -0.7747   -2.6394 C   0  0  0  0  0  0  0  0  0  0  0  0
   -1.5268   -1.4659   -3.4843 H   0  0  0  0  0  0  0  0  0  0  0  0
   -0.4402   -0.1484   -2.8774 H   0  0  0  0  0  0  0  0  0  0  0  0
   -2.2083   -0.1459   -2.4869 H   0  0  0  0  0  0  0  0  0  0  0  0
    0.1652   -2.5077    2.1928 C   0  0  0  0  0  0  0  0  0  0  0  0
    0.7687   -3.2682    2.7336 H   0  0  0  0  0  0  0  0  0  0  0  0
   -0.7626   -2.9744    1.8153 H   0  0  0  0  0  0  0  0  0  0  0  0
   -0.1086   -1.7025    2.8957 H   0  0  0  0  0  0  0  0  0  0  0  0
  1  2  1  0  0  0  0
  2  3  1  0  0  0  0
  2  4  2  0  0  0  0
  4  5  1  0  0  0  0
  6  7  1  0  0  0  0
  6  4  1  0  0  0  0
  8  6  2  0  0  0  0
  9  8  1  0  0  0  0
  9  1  1  0  0  0  0
 10  9  2  0  0  0  0
 11 13  2  0  0  0  0
 11 10  1  0  0  0  0
 12 11  1  0  0  0  0
 13 15  1  0  0  0  0
 14 13  1  0  0  0  0
 15 16  1  0  0  0  0
 15  8  1  0  0  0  0
 17 10  1  0  0  0  0
 18 17  1  0  0  0  0
 18 21  1  0  0  0  0
 19 18  1  0  0  0  0
 20 18  1  0  0  0  0
 21 23  1  0  0  0  0
 21 24  1  0  0  0  0
 22 21  1  0  0  0  0
 24 25  1  0  0  0  0
 24 27  1  0  0  0  0
 26 24  1  0  0  0  0
 27 28  1  0  0  0  0
 27 48  1  0  0  0  0
 28 36  1  0  0  0  0
 28 29  2  0  0  0  0
 29 31  1  0  0  0  0
 30 29  1  0  0  0  0
 31 33  2  0  0  0  0
 31 32  1  0  0  0  0
 33 34  1  0  0  0  0
 35 42  2  0  0  0  0
 35 33  1  0  0  0  0
 36 37  1  6  0  0  0
 36 35  1  0  0  0  0
 37 38  1  0  0  0  0
 38 40  2  0  0  0  0
 39 38  1  0  0  0  0
 40 41  1  0  0  0  0
 40 42  1  0  0  0  0
 42 43  1  0  0  0  0
 44 47  1  0  0  0  0
 44 17  1  0  0  0  0
 45 44  1  0  0  0  0
 46 44  1  0  0  0  0
 48 49  1  0  0  0  0
 48 51  1  0  0  0  0
 50 48  1  0  0  0  0
M  END
