1,2,3,4
 OpenBabel05122313063D

 38 40  0  0  1  0  0  0  0  0999 V2000
   -1.7641   -1.5100   -0.0314 N   0  0  0  0  0  2  0  0  0  0  0  0
    0.7387   -1.2535    0.0982 N   0  0  0  0  0  2  0  0  0  0  0  0
    0.7387    1.2535   -0.0982 N   0  0  0  0  0  2  0  0  0  0  0  0
   -1.7641    1.5100    0.0315 N   0  0  0  0  0  0  0  0  0  0  0  0
   -3.0704   -1.8380   -0.1364 C   0  0  0  0  0  3  0  0  0  0  0  0
   -3.8501   -1.0694   -0.2079 H   0  0  0  0  0  0  0  0  0  0  0  0
   -3.2253   -3.2484   -0.1509 C   0  0  0  0  0  0  0  0  0  0  0  0
   -4.1757   -3.7896   -0.2284 H   0  0  0  0  0  0  0  0  0  0  0  0
   -1.9356   -3.8039   -0.0539 C   0  0  0  0  0  0  0  0  0  0  0  0
   -1.6662   -4.8666   -0.0364 H   0  0  0  0  0  0  0  0  0  0  0  0
   -1.0416   -2.7064    0.0178 C   0  0  0  0  0  0  0  0  0  0  0  0
    0.3621   -2.5183    0.1197 C   0  0  0  0  0  0  0  0  0  0  0  0
    1.0840   -3.3480    0.2201 H   0  0  0  0  0  0  0  0  0  0  0  0
    2.0517   -0.6823    0.3600 C   0  0  1  0  0  0  0  0  0  0  0  0
    2.1030   -0.4596    1.4548 H   0  0  0  0  0  0  0  0  0  0  0  0
    3.2841   -1.5034   -0.0166 C   0  0  0  0  0  0  0  0  0  0  0  0
    3.2482   -1.7374   -1.1034 H   0  0  0  0  0  0  0  0  0  0  0  0
    3.2922   -2.4724    0.5240 H   0  0  0  0  0  0  0  0  0  0  0  0
    4.5509   -0.6977    0.3219 C   0  0  0  0  0  0  0  0  0  0  0  0
    4.6207   -0.5885    1.4269 H   0  0  0  0  0  0  0  0  0  0  0  0
    5.4536   -1.2612    0.0085 H   0  0  0  0  0  0  0  0  0  0  0  0
    4.5509    0.6978   -0.3219 C   0  0  0  0  0  0  0  0  0  0  0  0
    4.6207    0.5886   -1.4269 H   0  0  0  0  0  0  0  0  0  0  0  0
    5.4536    1.2613   -0.0085 H   0  0  0  0  0  0  0  0  0  0  0  0
    3.2841    1.5035    0.0166 C   0  0  0  0  0  0  0  0  0  0  0  0
    3.2482    1.7374    1.1034 H   0  0  0  0  0  0  0  0  0  0  0  0
    3.2921    2.4725   -0.5240 H   0  0  0  0  0  0  0  0  0  0  0  0
    2.0517    0.6824   -0.3601 C   0  0  2  0  0  0  0  0  0  0  0  0
    2.1030    0.4596   -1.4548 H   0  0  0  0  0  0  0  0  0  0  0  0
    0.3621    2.5183   -0.1198 C   0  0  0  0  0  3  0  0  0  0  0  0
    1.0839    3.3480   -0.2204 H   0  0  0  0  0  0  0  0  0  0  0  0
   -1.0417    2.7064   -0.0178 C   0  0  0  0  0  0  0  0  0  0  0  0
   -1.9357    3.8038    0.0536 C   0  0  0  0  0  0  0  0  0  0  0  0
   -1.6663    4.8666    0.0359 H   0  0  0  0  0  0  0  0  0  0  0  0
   -3.2254    3.2484    0.1508 C   0  0  0  0  0  0  0  0  0  0  0  0
   -4.1758    3.7895    0.2282 H   0  0  0  0  0  0  0  0  0  0  0  0
   -3.0705    1.8380    0.1365 C   0  0  0  0  0  3  0  0  0  0  0  0
   -3.8501    1.0694    0.2082 H   0  0  0  0  0  0  0  0  0  0  0  0
  1 11  1  0  0  0  0
  2 12  1  0  0  0  0
  2 14  1  0  0  0  0
  4 37  1  0  0  0  0
  5  1  1  0  0  0  0
  6  5  1  0  0  0  0
  7  5  1  0  0  0  0
  7  9  2  0  0  0  0
  8  7  1  0  0  0  0
  9 10  1  0  0  0  0
  9 11  1  0  0  0  0
 11 12  2  0  0  0  0
 12 13  1  0  0  0  0
 14 15  1  1  0  0  0
 16 19  1  0  0  0  0
 16 14  1  0  0  0  0
 16 18  1  0  0  0  0
 17 16  1  0  0  0  0
 19 20  1  0  0  0  0
 21 19  1  0  0  0  0
 22 24  1  0  0  0  0
 22 25  1  0  0  0  0
 22 19  1  0  0  0  0
 23 22  1  0  0  0  0
 25 26  1  0  0  0  0
 27 25  1  0  0  0  0
 28 29  1  6  0  0  0
 28  3  1  0  0  0  0
 28 25  1  0  0  0  0
 28 14  1  0  0  0  0
 30  3  1  0  0  0  0
 30 32  1  0  0  0  0
 31 30  1  0  0  0  0
 32  4  2  0  0  0  0
 32 33  1  0  0  0  0
 33 35  2  0  0  0  0
 34 33  1  0  0  0  0
 35 36  1  0  0  0  0
 37 35  1  0  0  0  0
 37 38  1  0  0  0  0
M  END
