1,4,7,10
 OpenBabel05122313063D

 54 55  0  0  0  0  0  0  0  0999 V2000
   -0.4265   -1.2629    1.5444 N   0  0  0  0  0  2  0  0  0  0  0  0
   -0.7464   -0.5250    2.6388 C   0  0  0  0  0  3  0  0  0  0  0  0
   -1.2115    0.4475    2.4444 H   0  0  0  0  0  0  0  0  0  0  0  0
   -0.2819   -2.6732   -0.6212 N   0  0  0  0  0  0  0  0  0  0  0  0
   -0.4688   -0.9566    3.9364 C   0  0  0  0  0  0  0  0  0  0  0  0
   -0.7300   -0.3034    4.7807 H   0  0  0  0  0  0  0  0  0  0  0  0
   -0.1065   -0.4315   -2.3486 N   0  0  0  0  0  0  0  0  0  0  0  0
    0.1474   -2.2006    4.1358 C   0  0  0  0  0  0  0  0  0  0  0  0
    0.3782   -2.5631    5.1478 H   0  0  0  0  0  0  0  0  0  0  0  0
   -2.4757   -1.0035   -0.8360 N   0  0  0  0  0  0  0  0  0  0  0  0
    0.4784   -2.9669    3.0089 C   0  0  0  0  0  0  0  0  0  0  0  0
    0.9824   -3.9392    3.1075 H   0  0  0  0  0  0  0  0  0  0  0  0
    0.2022   -2.4662    1.7354 C   0  0  0  0  0  0  0  0  0  0  0  0
    0.6102   -3.1583    0.4632 C   0  0  0  0  0  0  0  0  0  0  0  0
    1.6564   -2.8983    0.1947 H   0  0  0  0  0  0  0  0  0  0  0  0
    0.5622   -4.2673    0.5663 H   0  0  0  0  0  0  0  0  0  0  0  0
    0.2554   -2.8874   -1.9956 C   0  0  0  0  0  0  0  0  0  0  0  0
   -0.5583   -3.3018   -2.6243 H   0  0  0  0  0  0  0  0  0  0  0  0
    1.0626   -3.6496   -1.9861 H   0  0  0  0  0  0  0  0  0  0  0  0
    0.8028   -1.5902   -2.5825 C   0  0  0  0  0  0  0  0  0  0  0  0
    1.7694   -1.3567   -2.0992 H   0  0  0  0  0  0  0  0  0  0  0  0
    0.9914   -1.7517   -3.6676 H   0  0  0  0  0  0  0  0  0  0  0  0
    0.5968    0.8775   -2.7237 C   0  0  0  0  0  0  0  0  0  0  0  0
    1.2558    1.0815   -1.8619 H   0  0  0  0  0  0  0  0  0  0  0  0
    1.4532    0.7605   -3.9913 C   0  0  0  0  0  0  0  0  0  0  0  0
    2.3114    0.0725   -3.8772 H   0  0  0  0  0  0  0  0  0  0  0  0
    1.8722    1.7597   -4.2190 H   0  0  0  0  0  0  0  0  0  0  0  0
    0.8585    0.4468   -4.8767 H   0  0  0  0  0  0  0  0  0  0  0  0
   -0.3589    2.0616   -2.8683 C   0  0  0  0  0  0  0  0  0  0  0  0
   -1.0122    2.1793   -1.9903 H   0  0  0  0  0  0  0  0  0  0  0  0
   -0.9667    2.0144   -3.7962 H   0  0  0  0  0  0  0  0  0  0  0  0
    0.2522    2.9813   -2.9152 H   0  0  0  0  0  0  0  0  0  0  0  0
   -1.4050   -0.5904   -3.0446 C   0  0  0  0  0  0  0  0  0  0  0  0
   -1.5072   -1.6328   -3.4034 H   0  0  0  0  0  0  0  0  0  0  0  0
   -1.4642    0.0371   -3.9569 H   0  0  0  0  0  0  0  0  0  0  0  0
   -2.5502   -0.2308   -2.1118 C   0  0  0  0  0  0  0  0  0  0  0  0
   -2.4924    0.8379   -1.8390 H   0  0  0  0  0  0  0  0  0  0  0  0
   -3.5186   -0.4084   -2.6307 H   0  0  0  0  0  0  0  0  0  0  0  0
   -3.4700   -0.4342    0.1701 C   0  0  0  0  0  0  0  0  0  0  0  0
   -2.9844    0.5058    0.4986 H   0  0  0  0  0  0  0  0  0  0  0  0
   -3.6730   -1.3416    1.3846 C   0  0  0  0  0  0  0  0  0  0  0  0
   -2.7261   -1.7093    1.8099 H   0  0  0  0  0  0  0  0  0  0  0  0
   -4.3254   -2.2095    1.1552 H   0  0  0  0  0  0  0  0  0  0  0  0
   -4.1818   -0.7601    2.1776 H   0  0  0  0  0  0  0  0  0  0  0  0
   -4.8412   -0.1004   -0.4359 C   0  0  0  0  0  0  0  0  0  0  0  0
   -4.8036    0.7085   -1.1886 H   0  0  0  0  0  0  0  0  0  0  0  0
   -5.5110    0.2448    0.3756 H   0  0  0  0  0  0  0  0  0  0  0  0
   -5.3216   -0.9899   -0.8970 H   0  0  0  0  0  0  0  0  0  0  0  0
   -2.6991   -2.4561   -1.1128 C   0  0  0  0  0  0  0  0  0  0  0  0
   -2.6797   -2.6254   -2.2060 H   0  0  0  0  0  0  0  0  0  0  0  0
   -3.7042   -2.7826   -0.7787 H   0  0  0  0  0  0  0  0  0  0  0  0
   -1.6271   -3.2858   -0.4316 C   0  0  0  0  0  0  0  0  0  0  0  0
   -1.8136   -3.3227    0.6579 H   0  0  0  0  0  0  0  0  0  0  0  0
   -1.6350   -4.3369   -0.8014 H   0  0  0  0  0  0  0  0  0  0  0  0
  1 13  1  0  0  0  0
  1  2  1  0  0  0  0
  2  5  1  0  0  0  0
  3  2  1  0  0  0  0
  4 52  1  0  0  0  0
  4 14  1  0  0  0  0
  5  8  2  0  0  0  0
  5  6  1  0  0  0  0
  8  9  1  0  0  0  0
 10 39  1  0  0  0  0
 11 12  1  0  0  0  0
 11  8  1  0  0  0  0
 13 11  2  0  0  0  0
 14 16  1  0  0  0  0
 14 13  1  0  0  0  0
 15 14  1  0  0  0  0
 17 19  1  0  0  0  0
 17  4  1  0  0  0  0
 18 17  1  0  0  0  0
 20  7  1  0  0  0  0
 20 21  1  0  0  0  0
 20 17  1  0  0  0  0
 22 20  1  0  0  0  0
 23  7  1  0  0  0  0
 23 24  1  0  0  0  0
 25 26  1  0  0  0  0
 25 23  1  0  0  0  0
 27 25  1  0  0  0  0
 28 25  1  0  0  0  0
 29 23  1  0  0  0  0
 29 30  1  0  0  0  0
 31 29  1  0  0  0  0
 32 29  1  0  0  0  0
 33  7  1  0  0  0  0
 33 36  1  0  0  0  0
 34 33  1  0  0  0  0
 35 33  1  0  0  0  0
 36 37  1  0  0  0  0
 36 10  1  0  0  0  0
 38 36  1  0  0  0  0
 39 40  1  0  0  0  0
 39 41  1  0  0  0  0
 41 42  1  0  0  0  0
 41 44  1  0  0  0  0
 43 41  1  0  0  0  0
 45 39  1  0  0  0  0
 45 47  1  0  0  0  0
 46 45  1  0  0  0  0
 48 45  1  0  0  0  0
 49 10  1  0  0  0  0
 49 51  1  0  0  0  0
 49 52  1  0  0  0  0
 50 49  1  0  0  0  0
 52 53  1  0  0  0  0
 54 52  1  0  0  0  0
M  END
