1,11,21,29
 OpenBabel05122313063D

 40 41  0  0  0  0  0  0  0  0999 V2000
    0.9292    1.8168    0.2069 N   0  0  0  0  0  2  0  0  0  0  0  0
    0.1412    2.8646    0.5392 C   0  0  0  0  0  3  0  0  0  0  0  0
   -0.8978    2.7355    0.8674 H   0  0  0  0  0  0  0  0  0  0  0  0
    0.8756    4.0739    0.4316 C   0  0  0  0  0  0  0  0  0  0  0  0
    0.4870    5.0767    0.6422 H   0  0  0  0  0  0  0  0  0  0  0  0
    2.1759    3.7336    0.0281 C   0  0  0  0  0  0  0  0  0  0  0  0
    3.0205    4.4112   -0.1415 H   0  0  0  0  0  0  0  0  0  0  0  0
    2.1947    2.3204   -0.0962 C   0  0  0  0  0  0  0  0  0  0  0  0
    3.1843    1.3414   -0.3228 C   0  0  0  0  0  0  0  0  0  0  0  0
    4.2396    1.6076   -0.5145 H   0  0  0  0  0  0  0  0  0  0  0  0
    2.8212    0.0698   -0.2544 N   0  0  0  0  0  2  0  0  0  0  0  0
    3.7988   -1.0050   -0.2785 C   0  0  0  0  0  0  0  0  0  0  0  0
    4.1971   -1.1606    0.7519 H   0  0  0  0  0  0  0  0  0  0  0  0
    4.6626   -0.7030   -0.9099 H   0  0  0  0  0  0  0  0  0  0  0  0
    3.2467   -2.3384   -0.7876 C   0  0  0  0  0  0  0  0  0  0  0  0
    2.8887   -2.2357   -1.8356 H   0  0  0  0  0  0  0  0  0  0  0  0
    4.0874   -3.0603   -0.8213 H   0  0  0  0  0  0  0  0  0  0  0  0
    2.1475   -2.9455    0.0852 C   0  0  0  0  0  0  0  0  0  0  0  0
    2.4130   -2.8640    1.1595 H   0  0  0  0  0  0  0  0  0  0  0  0
    2.0246   -4.0271   -0.1429 H   0  0  0  0  0  0  0  0  0  0  0  0
    0.8425   -2.2675   -0.1063 N   0  0  0  0  0  0  0  0  0  0  0  0
    0.5322   -2.4596   -1.0734 H   0  0  0  0  0  0  0  0  0  0  0  0
   -0.2212   -2.7014    0.8328 C   0  0  0  0  0  0  0  0  0  0  0  0
    0.1358   -2.4761    1.8570 H   0  0  0  0  0  0  0  0  0  0  0  0
   -0.3986   -3.7975    0.7663 H   0  0  0  0  0  0  0  0  0  0  0  0
   -1.4995   -1.9235    0.5271 C   0  0  0  0  0  0  0  0  0  0  0  0
   -2.0217   -2.3767   -0.3486 H   0  0  0  0  0  0  0  0  0  0  0  0
   -2.1796   -1.9984    1.4048 H   0  0  0  0  0  0  0  0  0  0  0  0
   -1.1758   -0.5240    0.2279 N   0  0  0  0  0  2  0  0  0  0  0  0
   -2.1136    0.3332   -0.1084 C   0  0  0  0  0  3  0  0  0  0  0  0
   -1.7473    1.3336   -0.3896 H   0  0  0  0  0  0  0  0  0  0  0  0
   -3.5312    0.2133   -0.1891 C   0  0  0  0  0  0  0  0  0  0  0  0
   -4.4012    1.2573   -0.5926 C   0  0  0  0  0  0  0  0  0  0  0  0
   -4.0736    2.2614   -0.8866 H   0  0  0  0  0  0  0  0  0  0  0  0
   -5.7202    0.7719   -0.5458 C   0  0  0  0  0  0  0  0  0  0  0  0
   -6.6373    1.3160   -0.7949 H   0  0  0  0  0  0  0  0  0  0  0  0
   -5.6514   -0.5602   -0.1148 C   0  0  0  0  0  0  0  0  0  0  0  0
   -6.4507   -1.2911    0.0548 H   0  0  0  0  0  0  0  0  0  0  0  0
   -4.3451   -0.8859    0.0937 N   0  0  0  0  0  0  0  0  0  0  0  0
   -4.0301   -1.7970    0.4197 H   0  0  0  0  0  0  0  0  0  0  0  0
  1  2  1  0  0  0  0
  2  3  1  0  0  0  0
  4  2  1  0  0  0  0
  4  5  1  0  0  0  0
  6  4  2  0  0  0  0
  7  6  1  0  0  0  0
  8  6  1  0  0  0  0
  8  1  1  0  0  0  0
  9 11  1  0  0  0  0
  9  8  2  0  0  0  0
 10  9  1  0  0  0  0
 12 11  1  0  0  0  0
 12 13  1  0  0  0  0
 14 12  1  0  0  0  0
 15 12  1  0  0  0  0
 15 18  1  0  0  0  0
 16 15  1  0  0  0  0
 17 15  1  0  0  0  0
 18 19  1  0  0  0  0
 20 18  1  0  0  0  0
 21 18  1  0  0  0  0
 21 23  1  0  0  0  0
 22 21  1  0  0  0  0
 23 24  1  0  0  0  0
 25 23  1  0  0  0  0
 26 23  1  0  0  0  0
 26 28  1  0  0  0  0
 27 26  1  0  0  0  0
 29 26  1  0  0  0  0
 30 29  1  0  0  0  0
 31 30  1  0  0  0  0
 32 30  1  0  0  0  0
 32 39  1  0  0  0  0
 33 35  1  0  0  0  0
 33 32  2  0  0  0  0
 34 33  1  0  0  0  0
 35 37  2  0  0  0  0
 36 35  1  0  0  0  0
 37 38  1  0  0  0  0
 37 39  1  0  0  0  0
 39 40  1  0  0  0  0
M  END
