11,12,13,14
 OpenBabel05122313063D

 62 67  0  0  0  0  0  0  0  0999 V2000
   -4.8222    1.0160    1.8824 F   0  0  0  0  0  0  0  0  0  0  0  0
   -7.5219    0.8871    2.1085 F   0  0  0  0  0  0  0  0  0  0  0  0
   -8.9799   -0.5953    0.3271 F   0  0  0  0  0  0  0  0  0  0  0  0
   -7.7183   -1.9414   -1.6955 F   0  0  0  0  0  0  0  0  0  0  0  0
   -5.0233   -1.8064   -1.9472 F   0  0  0  0  0  0  0  0  0  0  0  0
    5.0222   -1.8067    1.9475 F   0  0  0  0  0  0  0  0  0  0  0  0
    7.7174   -1.9416    1.6974 F   0  0  0  0  0  0  0  0  0  0  0  0
    8.9802   -0.5952   -0.3242 F   0  0  0  0  0  0  0  0  0  0  0  0
    7.5233    0.8875   -2.1063 F   0  0  0  0  0  0  0  0  0  0  0  0
    4.8234    1.0164   -1.8817 F   0  0  0  0  0  0  0  0  0  0  0  0
   -1.3777    1.1412   -0.5518 N   0  0  0  0  0  0  0  0  0  0  0  0
   -1.2107   -1.4633   -0.1115 N   0  0  0  0  0  2  0  0  0  0  0  0
    1.2108   -1.4633    0.1093 N   0  0  0  0  0  2  0  0  0  0  0  0
    1.3775    1.1412    0.5508 N   0  0  0  0  0  0  0  0  0  0  0  0
   -0.0146    2.7934   -1.4445 O   0  0  0  0  0  0  0  0  0  0  0  0
    0.0141    2.7933    1.4432 O   0  0  0  0  0  0  0  0  0  0  0  0
   -1.2373    2.3495   -1.1349 C   0  0  0  0  0  0  0  0  0  0  0  0
   -2.5004    2.9914   -1.3558 C   0  0  0  0  0  0  0  0  0  0  0  0
   -2.6694    3.9673   -1.8216 H   0  0  0  0  0  0  0  0  0  0  0  0
   -3.4548    2.0886   -0.9003 C   0  0  0  0  0  0  0  0  0  0  0  0
   -4.5444    2.1970   -0.9439 H   0  0  0  0  0  0  0  0  0  0  0  0
   -2.7563    0.9232   -0.4335 C   0  0  0  0  0  3  0  0  0  0  0  0
   -3.3478   -0.3261   -0.1474 C   0  0  0  0  0  0  0  0  0  0  0  0
   -2.5834   -1.5085   -0.0270 C   0  0  0  0  0  0  0  0  0  0  0  0
   -2.9738   -2.8859    0.1297 C   0  0  0  0  0  0  0  0  0  0  0  0
   -4.0027   -3.2508    0.2216 H   0  0  0  0  0  0  0  0  0  0  0  0
   -1.8072   -3.6522    0.1210 C   0  0  0  0  0  0  0  0  0  0  0  0
   -1.7267   -4.7408    0.2154 H   0  0  0  0  0  0  0  0  0  0  0  0
   -0.7193   -2.7329   -0.0117 C   0  0  0  0  0  0  0  0  0  0  0  0
    0.7195   -2.7329    0.0092 C   0  0  0  0  0  0  0  0  0  0  0  0
    1.8075   -3.6522   -0.1228 C   0  0  0  0  0  0  0  0  0  0  0  0
    1.7270   -4.7408   -0.2172 H   0  0  0  0  0  0  0  0  0  0  0  0
    2.9740   -2.8859   -0.1307 C   0  0  0  0  0  0  0  0  0  0  0  0
    4.0031   -3.2508   -0.2218 H   0  0  0  0  0  0  0  0  0  0  0  0
    2.5835   -1.5085    0.0257 C   0  0  0  0  0  0  0  0  0  0  0  0
    3.3478   -0.3260    0.1470 C   0  0  0  0  0  0  0  0  0  0  0  0
    2.7562    0.9232    0.4332 C   0  0  0  0  0  0  0  0  0  0  0  0
    3.4545    2.0884    0.9007 C   0  0  0  0  0  0  0  0  0  0  0  0
    4.5441    2.1967    0.9450 H   0  0  0  0  0  0  0  0  0  0  0  0
    2.4999    2.9911    1.3559 C   0  0  0  0  0  0  0  0  0  0  0  0
    2.6687    3.9668    1.8221 H   0  0  0  0  0  0  0  0  0  0  0  0
    1.2368    2.3494    1.1341 C   0  0  0  0  0  3  0  0  0  0  0  0
   -4.8276   -0.4014   -0.0323 C   0  0  0  0  0  0  0  0  0  0  0  0
   -5.5066    0.2909    0.9914 C   0  0  0  0  0  0  0  0  0  0  0  0
   -6.9035    0.2307    1.1231 C   0  0  0  0  0  0  0  0  0  0  0  0
   -7.6529   -0.5325    0.2119 C   0  0  0  0  0  0  0  0  0  0  0  0
   -7.0031   -1.2277   -0.8220 C   0  0  0  0  0  0  0  0  0  0  0  0
   -5.6049   -1.1551   -0.9347 C   0  0  0  0  0  0  0  0  0  0  0  0
    4.8277   -0.4013    0.0328 C   0  0  0  0  0  0  0  0  0  0  0  0
    5.6044   -1.1552    0.9356 C   0  0  0  0  0  0  0  0  0  0  0  0
    7.0027   -1.2278    0.8236 C   0  0  0  0  0  0  0  0  0  0  0  0
    7.6531   -0.5324   -0.2098 C   0  0  0  0  0  0  0  0  0  0  0  0
    6.9042    0.2310   -1.1213 C   0  0  0  0  0  0  0  0  0  0  0  0
    5.5072    0.2911   -0.9904 C   0  0  0  0  0  0  0  0  0  0  0  0
    0.0910    4.0956   -1.9991 C   0  0  0  0  0  0  0  0  0  0  0  0
   -0.4313    4.1640   -2.9779 H   0  0  0  0  0  0  0  0  0  0  0  0
    1.1702    4.2827   -2.1462 H   0  0  0  0  0  0  0  0  0  0  0  0
   -0.3256    4.8654   -1.3131 H   0  0  0  0  0  0  0  0  0  0  0  0
   -0.0917    4.0951    1.9987 C   0  0  0  0  0  0  0  0  0  0  0  0
    0.4302    4.1628    2.9777 H   0  0  0  0  0  0  0  0  0  0  0  0
   -1.1709    4.2822    2.1454 H   0  0  0  0  0  0  0  0  0  0  0  0
    0.3253    4.8654    1.3134 H   0  0  0  0  0  0  0  0  0  0  0  0
  4 47  1  0  0  0  0
  5 48  1  0  0  0  0
  8 52  1  0  0  0  0
  9 53  1  0  0  0  0
 10 54  1  0  0  0  0
 11 22  1  0  0  0  0
 12 24  1  0  0  0  0
 12 29  1  0  0  0  0
 14 42  1  0  0  0  0
 15 17  1  0  0  0  0
 16 59  1  0  0  0  0
 17 11  2  0  0  0  0
 18 17  1  0  0  0  0
 18 20  2  0  0  0  0
 19 18  1  0  0  0  0
 20 22  1  0  0  0  0
 21 20  1  0  0  0  0
 22 23  1  0  0  0  0
 23 43  1  0  0  0  0
 23 24  2  0  0  0  0
 24 25  1  0  0  0  0
 25 26  1  0  0  0  0
 27 25  2  0  0  0  0
 27 28  1  0  0  0  0
 29 30  2  0  0  0  0
 29 27  1  0  0  0  0
 30 13  1  0  0  0  0
 31 30  1  0  0  0  0
 32 31  1  0  0  0  0
 33 31  2  0  0  0  0
 33 35  1  0  0  0  0
 34 33  1  0  0  0  0
 35 13  1  0  0  0  0
 35 36  2  0  0  0  0
 36 37  1  0  0  0  0
 37 14  2  0  0  0  0
 37 38  1  0  0  0  0
 38 39  1  0  0  0  0
 38 40  2  0  0  0  0
 40 41  1  0  0  0  0
 42 40  1  0  0  0  0
 42 16  1  0  0  0  0
 43 44  1  0  0  0  0
 44 45  2  0  0  0  0
 44  1  1  0  0  0  0
 45  2  1  0  0  0  0
 46  3  1  0  0  0  0
 46 45  1  0  0  0  0
 47 46  2  0  0  0  0
 48 47  1  0  0  0  0
 48 43  2  0  0  0  0
 49 36  1  0  0  0  0
 49 50  1  0  0  0  0
 50  6  1  0  0  0  0
 51 50  2  0  0  0  0
 51  7  1  0  0  0  0
 52 51  1  0  0  0  0
 53 54  1  0  0  0  0
 53 52  2  0  0  0  0
 54 49  2  0  0  0  0
 55 15  1  0  0  0  0
 55 58  1  0  0  0  0
 56 55  1  0  0  0  0
 57 55  1  0  0  0  0
 59 61  1  0  0  0  0
 59 60  1  0  0  0  0
 62 59  1  0  0  0  0
M  END
