1,11,24,31
 OpenBabel05122313063D

 53 55  0  0  0  0  0  0  0  0999 V2000
    1.6594   -1.8467   -0.2741 N   0  0  0  0  0  2  0  0  0  0  0  0
    1.3755   -2.5950   -1.3725 C   0  0  0  0  0  3  0  0  0  0  0  0
    1.1202   -2.0054   -2.2686 H   0  0  0  0  0  0  0  0  0  0  0  0
    1.4405   -3.9902   -1.3663 C   0  0  0  0  0  0  0  0  0  0  0  0
    1.2017   -4.5393   -2.2887 H   0  0  0  0  0  0  0  0  0  0  0  0
    1.8085   -4.6651   -0.1914 C   0  0  0  0  0  0  0  0  0  0  0  0
    1.8563   -5.7632   -0.1560 H   0  0  0  0  0  0  0  0  0  0  0  0
    2.1315   -3.8947    0.9368 C   0  0  0  0  0  0  0  0  0  0  0  0
    2.4512   -4.3672    1.8777 H   0  0  0  0  0  0  0  0  0  0  0  0
    2.0701   -2.5007    0.8590 C   0  0  0  0  0  0  0  0  0  0  0  0
    1.7130    1.9998    0.0783 N   0  0  0  0  0  2  0  0  0  0  0  0
    2.8064    2.7407    0.4066 C   0  0  0  0  0  3  0  0  0  0  0  0
    3.7377    2.1560    0.4950 H   0  0  0  0  0  0  0  0  0  0  0  0
    2.7498    4.1273    0.5660 C   0  0  0  0  0  0  0  0  0  0  0  0
    3.6706    4.6720    0.8215 H   0  0  0  0  0  0  0  0  0  0  0  0
    1.5292    4.8002    0.3968 C   0  0  0  0  0  0  0  0  0  0  0  0
    1.4575    5.8908    0.5190 H   0  0  0  0  0  0  0  0  0  0  0  0
    0.3974    4.0370    0.0682 C   0  0  0  0  0  0  0  0  0  0  0  0
   -0.5873    4.5070   -0.0731 H   0  0  0  0  0  0  0  0  0  0  0  0
    0.5214    2.6542   -0.0925 C   0  0  0  0  0  0  0  0  0  0  0  0
   -0.6048    1.7499   -0.4864 C   0  0  0  0  0  0  0  0  0  0  0  0
   -1.5969    2.1750   -0.2200 H   0  0  0  0  0  0  0  0  0  0  0  0
   -0.5412    1.5799   -1.5841 H   0  0  0  0  0  0  0  0  0  0  0  0
   -0.3697    0.4253    0.1452 N   0  0  0  0  0  0  0  0  0  0  0  0
   -0.5493    0.5268    1.6171 C   0  0  0  0  0  0  0  0  0  0  0  0
   -1.6159    0.3999    1.9048 H   0  0  0  0  0  0  0  0  0  0  0  0
   -0.2548    1.5521    1.9214 H   0  0  0  0  0  0  0  0  0  0  0  0
    0.3398   -0.4857    2.3088 C   0  0  0  0  0  0  0  0  0  0  0  0
    0.0196   -1.5179    2.0556 H   0  0  0  0  0  0  0  0  0  0  0  0
    0.2729   -0.3909    3.4158 H   0  0  0  0  0  0  0  0  0  0  0  0
    1.7288   -0.3298    1.8195 N   0  0  0  0  0  0  0  0  0  0  0  0
    2.2097    0.4382    2.3093 H   0  0  0  0  0  0  0  0  0  0  0  0
    2.5122   -1.5767    1.9570 C   0  0  0  0  0  0  0  0  0  0  0  0
    2.4179   -2.0397    2.9645 H   0  0  0  0  0  0  0  0  0  0  0  0
    3.5687   -1.2939    1.7512 H   0  0  0  0  0  0  0  0  0  0  0  0
   -1.2097   -0.6414   -0.4871 C   0  0  0  0  0  0  0  0  0  0  0  0
   -0.9262   -1.6007   -0.0142 H   0  0  0  0  0  0  0  0  0  0  0  0
   -0.8634   -0.6747   -1.5405 H   0  0  0  0  0  0  0  0  0  0  0  0
   -2.7024   -0.4384   -0.3947 C   0  0  0  0  0  0  0  0  0  0  0  0
   -3.3963    0.3420   -1.3488 C   0  0  0  0  0  0  0  0  0  0  0  0
   -2.8424    0.7763   -2.1954 H   0  0  0  0  0  0  0  0  0  0  0  0
   -4.7711    0.5576   -1.2504 C   0  0  0  0  0  0  0  0  0  0  0  0
   -5.3130    1.1586   -1.9949 H   0  0  0  0  0  0  0  0  0  0  0  0
   -5.5072   -0.0108   -0.1866 C   0  0  0  0  0  0  0  0  0  0  0  0
   -6.8406    0.2556   -0.1730 O   0  0  0  0  0  0  0  0  0  0  0  0
   -7.6285   -0.3028    0.8609 C   0  0  0  0  0  0  0  0  0  0  0  0
   -8.6657    0.0363    0.6828 H   0  0  0  0  0  0  0  0  0  0  0  0
   -7.3023    0.0459    1.8667 H   0  0  0  0  0  0  0  0  0  0  0  0
   -7.6052   -1.4158    0.8460 H   0  0  0  0  0  0  0  0  0  0  0  0
   -4.8397   -0.8087    0.7651 C   0  0  0  0  0  0  0  0  0  0  0  0
   -5.3866   -1.2826    1.5909 H   0  0  0  0  0  0  0  0  0  0  0  0
   -3.4549   -1.0113    0.6479 C   0  0  0  0  0  0  0  0  0  0  0  0
   -2.9505   -1.6560    1.3864 H   0  0  0  0  0  0  0  0  0  0  0  0
  1 10  1  0  0  0  0
  2  4  1  0  0  0  0
  2  1  1  0  0  0  0
  3  2  1  0  0  0  0
  4  6  2  0  0  0  0
  5  4  1  0  0  0  0
  6  7  1  0  0  0  0
  6  8  1  0  0  0  0
  8  9  1  0  0  0  0
 10  8  2  0  0  0  0
 10 33  1  0  0  0  0
 11 12  1  0  0  0  0
 12 13  1  0  0  0  0
 12 14  1  0  0  0  0
 14 15  1  0  0  0  0
 16 17  1  0  0  0  0
 16 14  2  0  0  0  0
 18 16  1  0  0  0  0
 19 18  1  0  0  0  0
 20 18  2  0  0  0  0
 20 11  1  0  0  0  0
 21 22  1  0  0  0  0
 21 20  1  0  0  0  0
 21 24  1  0  0  0  0
 23 21  1  0  0  0  0
 24 25  1  0  0  0  0
 25 26  1  0  0  0  0
 25 27  1  0  0  0  0
 25 28  1  0  0  0  0
 28 30  1  0  0  0  0
 29 28  1  0  0  0  0
 31 33  1  0  0  0  0
 31 28  1  0  0  0  0
 31 32  1  0  0  0  0
 33 34  1  0  0  0  0
 35 33  1  0  0  0  0
 36 39  1  0  0  0  0
 36 37  1  0  0  0  0
 36 24  1  0  0  0  0
 38 36  1  0  0  0  0
 39 52  1  0  0  0  0
 40 42  1  0  0  0  0
 40 39  2  0  0  0  0
 41 40  1  0  0  0  0
 42 44  2  0  0  0  0
 43 42  1  0  0  0  0
 44 45  1  0  0  0  0
 44 50  1  0  0  0  0
 45 46  1  0  0  0  0
 46 48  1  0  0  0  0
 47 46  1  0  0  0  0
 49 46  1  0  0  0  0
 50 51  1  0  0  0  0
 52 50  2  0  0  0  0
 52 53  1  0  0  0  0
M  END
