1,2,22,23
 OpenBabel05122313063D

 42 42  0  0  1  0  0  0  0  0999 V2000
   -1.4003    1.2414    0.1680 N   0  0  0  0  0  2  0  0  0  0  0  0
   -1.1474   -1.4271    0.1607 N   0  0  0  0  0  2  0  0  0  0  0  0
   -5.4292    0.3839   -0.8523 O   0  0  0  0  0  0  0  0  0  0  0  0
   -2.7256    1.0503    0.1462 C   0  0  2  0  0  3  0  0  0  0  0  0
   -3.6401    2.2399    0.3356 C   0  0  0  0  0  0  0  0  0  0  0  0
   -3.2916   -0.2644    0.0368 C   0  0  0  0  0  0  0  0  0  0  0  0
   -2.4675   -1.4070    0.0926 C   0  0  0  0  0  0  0  0  0  0  0  0
   -0.4478   -2.6928    0.3371 C   0  0  0  0  0  0  0  0  0  0  0  0
   -0.8627    2.5832    0.4203 C   0  0  0  0  0  0  0  0  0  0  0  0
   -4.7733   -0.4626   -0.1891 C   0  0  0  0  0  0  0  0  0  0  0  0
   -5.3759   -1.6142    0.3874 C   0  0  0  0  0  3  0  0  0  0  0  0
   -4.6955    1.9275    0.2913 H   0  0  0  0  0  0  0  0  0  0  0  0
   -3.4999    2.9848   -0.4747 H   0  0  0  0  0  0  0  0  0  0  0  0
   -3.4188    2.7450    1.2984 H   0  0  0  0  0  0  0  0  0  0  0  0
   -2.9713   -2.3916    0.0630 H   0  0  0  0  0  0  0  0  0  0  0  0
   -0.2377   -2.8483    1.4194 H   0  0  0  0  0  0  0  0  0  0  0  0
   -1.0601   -3.5503   -0.0164 H   0  0  0  0  0  0  0  0  0  0  0  0
   -0.6819    2.7077    1.5122 H   0  0  0  0  0  0  0  0  0  0  0  0
   -1.5622    3.3811    0.1070 H   0  0  0  0  0  0  0  0  0  0  0  0
   -4.8227   -2.3929    0.9306 H   0  0  0  0  0  0  0  0  0  0  0  0
   -6.4641   -1.7280    0.2745 H   0  0  0  0  0  0  0  0  0  0  0  0
    1.4003   -1.2414   -0.1681 N   0  0  0  0  0  2  0  0  0  0  0  0
    1.1474    1.4270   -0.1607 N   0  0  0  0  0  2  0  0  0  0  0  0
    0.8627   -2.5832   -0.4204 C   0  0  0  0  0  0  0  0  0  0  0  0
    0.4478    2.6928   -0.3372 C   0  0  0  0  0  0  0  0  0  0  0  0
    2.7257   -1.0503   -0.1462 C   0  0  1  0  0  3  0  0  0  0  0  0
    2.4675    1.4070   -0.0926 C   0  0  0  0  0  0  0  0  0  0  0  0
    0.6819   -2.7078   -1.5122 H   0  0  0  0  0  0  0  0  0  0  0  0
    1.5622   -3.3812   -0.1071 H   0  0  0  0  0  0  0  0  0  0  0  0
    0.2377    2.8482   -1.4194 H   0  0  0  0  0  0  0  0  0  0  0  0
    1.0601    3.5503    0.0163 H   0  0  0  0  0  0  0  0  0  0  0  0
    3.6402   -2.2398   -0.3355 C   0  0  0  0  0  0  0  0  0  0  0  0
    3.2915    0.2643   -0.0368 C   0  0  0  0  0  0  0  0  0  0  0  0
    2.9713    2.3915   -0.0630 H   0  0  0  0  0  0  0  0  0  0  0  0
    4.6956   -1.9274   -0.2911 H   0  0  0  0  0  0  0  0  0  0  0  0
    3.5001   -2.9847    0.4748 H   0  0  0  0  0  0  0  0  0  0  0  0
    3.4191   -2.7450   -1.2983 H   0  0  0  0  0  0  0  0  0  0  0  0
    4.7733    0.4625    0.1891 C   0  0  0  0  0  0  0  0  0  0  0  0
    5.4292   -0.3840    0.8521 O   0  0  0  0  0  0  0  0  0  0  0  0
    5.3757    1.6145   -0.3869 C   0  0  0  0  0  3  0  0  0  0  0  0
    4.8224    2.3934   -0.9297 H   0  0  0  0  0  0  0  0  0  0  0  0
    6.4639    1.7285   -0.2739 H   0  0  0  0  0  0  0  0  0  0  0  0
  1  9  1  0  0  0  0
  2  8  1  0  0  0  0
  3 10  2  0  0  0  0
  4  1  1  0  0  0  0
  4  5  1  1  0  0  0
  5 14  1  0  0  0  0
  6  7  2  0  0  0  0
  6  4  1  0  0  0  0
  7  2  1  0  0  0  0
  8 16  1  0  0  0  0
  9 18  1  0  0  0  0
 10  6  1  0  0  0  0
 10 11  1  0  0  0  0
 11 20  1  0  0  0  0
 12  5  1  0  0  0  0
 13  5  1  0  0  0  0
 15  7  1  0  0  0  0
 17  8  1  0  0  0  0
 19  9  1  0  0  0  0
 21 11  1  0  0  0  0
 22 26  1  0  0  0  0
 23 27  1  0  0  0  0
 24 22  1  0  0  0  0
 24 29  1  0  0  0  0
 24  8  1  0  0  0  0
 25 23  1  0  0  0  0
 25 31  1  0  0  0  0
 25  9  1  0  0  0  0
 26 32  1  6  0  0  0
 26 33  1  0  0  0  0
 27 34  1  0  0  0  0
 27 33  2  0  0  0  0
 28 24  1  0  0  0  0
 30 25  1  0  0  0  0
 32 35  1  0  0  0  0
 32 36  1  0  0  0  0
 33 38  1  0  0  0  0
 37 32  1  0  0  0  0
 38 39  2  0  0  0  0
 40 42  1  0  0  0  0
 40 38  1  0  0  0  0
 41 40  1  0  0  0  0
M  END
