3,4,5,6
 OpenBabel05122313063D

 46 52  0  0  1  0  0  0  0  0999 V2000
   -0.7306   -4.3781   -0.3371 S   0  0  0  0  0  0  0  0  0  0  0  0
   -0.7281    4.3786    0.3367 S   0  0  0  0  0  0  0  0  0  0  0  0
    1.6509   -1.2120   -0.1356 N   0  0  0  0  0  2  0  0  0  0  0  0
    1.6516    1.2110    0.1365 N   0  0  0  0  0  2  0  0  0  0  0  0
   -0.7442   -1.7856    0.0408 N   0  0  0  0  0  2  0  0  0  0  0  0
   -0.7430    1.7860   -0.0408 N   0  0  0  0  0  2  0  0  0  0  0  0
    1.4733   -2.5407   -0.3503 C   0  0  0  0  0  0  0  0  0  0  0  0
    2.6085   -3.3781   -0.5261 C   0  0  0  0  0  0  0  0  0  0  0  0
    2.4592   -4.4533   -0.7022 H   0  0  0  0  0  0  0  0  0  0  0  0
    3.9033   -2.8501   -0.4585 C   0  0  0  0  0  0  0  0  0  0  0  0
    4.7717   -3.5133   -0.5828 H   0  0  0  0  0  0  0  0  0  0  0  0
    4.0936   -1.4513   -0.2272 C   0  0  0  0  0  0  0  0  0  0  0  0
    5.3119   -0.6895   -0.1122 C   0  0  0  0  0  0  0  0  0  0  0  0
    6.2740   -1.2167   -0.2017 H   0  0  0  0  0  0  0  0  0  0  0  0
    5.3123    0.6866    0.1122 C   0  0  0  0  0  0  0  0  0  0  0  0
    6.2747    1.2133    0.2014 H   0  0  0  0  0  0  0  0  0  0  0  0
    4.0944    1.4490    0.2275 C   0  0  0  0  0  0  0  0  0  0  0  0
    3.9049    2.8480    0.4584 C   0  0  0  0  0  0  0  0  0  0  0  0
    4.7737    3.5108    0.5823 H   0  0  0  0  0  0  0  0  0  0  0  0
    2.6104    3.3768    0.5261 C   0  0  0  0  0  0  0  0  0  0  0  0
    2.4617    4.4521    0.7017 H   0  0  0  0  0  0  0  0  0  0  0  0
    1.4747    2.5399    0.3507 C   0  0  0  0  0  0  0  0  0  0  0  0
    2.9082    0.6963    0.0948 C   0  0  0  0  0  0  0  0  0  0  0  0
    2.9078   -0.6981   -0.0939 C   0  0  0  0  0  0  0  0  0  0  0  0
    0.0604    2.8194    0.2589 C   0  0  1  0  0  3  0  0  0  0  0  0
   -2.0251    2.2111   -0.3324 C   0  0  0  0  0  0  0  0  0  0  0  0
   -2.2336    3.6089   -0.1371 C   0  0  0  0  0  0  0  0  0  0  0  0
   -3.4845    4.2051   -0.3590 C   0  0  0  0  0  0  0  0  0  0  0  0
   -3.6385    5.2809   -0.1929 H   0  0  0  0  0  0  0  0  0  0  0  0
   -4.5249    3.3893   -0.8211 C   0  0  0  0  0  0  0  0  0  0  0  0
   -5.5138    3.8333   -1.0089 H   0  0  0  0  0  0  0  0  0  0  0  0
   -4.3126    2.0158   -1.0805 C   0  0  0  0  0  0  0  0  0  0  0  0
   -5.1343    1.4079   -1.4872 H   0  0  0  0  0  0  0  0  0  0  0  0
   -3.0722    1.4191   -0.8471 C   0  0  0  0  0  0  0  0  0  0  0  0
   -2.8723    0.3696   -1.0966 H   0  0  0  0  0  0  0  0  0  0  0  0
    0.0588   -2.8194   -0.2588 C   0  0  1  0  0  3  0  0  0  0  0  0
   -2.0266   -2.2100    0.3321 C   0  0  0  0  0  0  0  0  0  0  0  0
   -2.2357   -3.6078    0.1365 C   0  0  0  0  0  0  0  0  0  0  0  0
   -3.4870   -4.2033    0.3581 C   0  0  0  0  0  0  0  0  0  0  0  0
   -3.6416   -5.2790    0.1918 H   0  0  0  0  0  0  0  0  0  0  0  0
   -4.5271   -3.3870    0.8201 C   0  0  0  0  0  0  0  0  0  0  0  0
   -5.5162   -3.8304    1.0076 H   0  0  0  0  0  0  0  0  0  0  0  0
   -4.3141   -2.0136    1.0797 C   0  0  0  0  0  0  0  0  0  0  0  0
   -5.1356   -1.4053    1.4863 H   0  0  0  0  0  0  0  0  0  0  0  0
   -3.0733   -1.4175    0.8467 C   0  0  0  0  0  0  0  0  0  0  0  0
   -2.8729   -0.3682    1.0964 H   0  0  0  0  0  0  0  0  0  0  0  0
  1 36  1  0  0  0  0
  1 38  1  0  0  0  0
  3 24  1  0  0  0  0
  4 22  1  0  0  0  0
  5 37  1  0  0  0  0
  6 25  1  0  0  0  0
  7  3  1  0  0  0  0
  8 10  1  0  0  0  0
  8  7  2  0  0  0  0
  9  8  1  0  0  0  0
 10 12  2  0  0  0  0
 11 10  1  0  0  0  0
 12 13  1  0  0  0  0
 12 24  1  0  0  0  0
 13 15  2  0  0  0  0
 14 13  1  0  0  0  0
 15 16  1  0  0  0  0
 15 17  1  0  0  0  0
 17 18  2  0  0  0  0
 18 20  1  0  0  0  0
 18 19  1  0  0  0  0
 20 21  1  0  0  0  0
 22 20  2  0  0  0  0
 23  4  1  0  0  0  0
 23 17  1  0  0  0  0
 24 23  2  0  0  0  0
 25  2  1  0  0  0  0
 25 22  1  6  0  0  0
 26 27  1  0  0  0  0
 26  6  1  0  0  0  0
 27  2  1  0  0  0  0
 28 29  1  0  0  0  0
 28 27  2  0  0  0  0
 30 28  1  0  0  0  0
 31 30  1  0  0  0  0
 32 34  1  0  0  0  0
 32 30  2  0  0  0  0
 33 32  1  0  0  0  0
 34 26  2  0  0  0  0
 35 34  1  0  0  0  0
 36  7  1  1  0  0  0
 36  5  1  0  0  0  0
 37 45  1  0  0  0  0
 38 37  2  0  0  0  0
 38 39  1  0  0  0  0
 39 41  2  0  0  0  0
 40 39  1  0  0  0  0
 41 42  1  0  0  0  0
 41 43  1  0  0  0  0
 43 44  1  0  0  0  0
 45 43  2  0  0  0  0
 45 46  1  0  0  0  0
M  END
