1,2,26,27
 OpenBabel05122313063D

 50 54  0  0  0  0  0  0  0  0999 V2000
    1.3993   -1.1882    0.3438 N   0  0  0  0  0  2  0  0  0  0  0  0
    1.3993    1.1882   -0.3439 N   0  0  0  0  0  2  0  0  0  0  0  0
    1.2403   -2.4761    0.6254 O   0  0  0  0  0  0  0  0  0  0  0  0
    1.2403    2.4761   -0.6255 O   0  0  0  0  0  0  0  0  0  0  0  0
    4.8550   -1.1386   -0.6893 O   0  0  0  0  0  0  0  0  0  0  0  0
    4.8550    1.1386    0.6893 O   0  0  0  0  0  0  0  0  0  0  0  0
   -0.0001   -2.8850   -1.3475 F   0  0  0  0  0  0  0  0  0  0  0  0
   -0.0000   -4.4215    0.4094 F   0  0  0  0  0  0  0  0  0  0  0  0
    2.6276   -0.7303    0.1234 C   0  0  0  0  0  0  0  0  0  0  0  0
    2.6276    0.7303   -0.1234 C   0  0  0  0  0  0  0  0  0  0  0  0
    3.7745   -1.5994    0.0261 C   0  0  0  0  0  0  0  0  0  0  0  0
    4.0189   -2.9064    0.4422 C   0  0  0  0  0  0  0  0  0  0  0  0
    5.3203   -3.2397   -0.0333 C   0  0  0  0  0  0  0  0  0  0  0  0
    5.7758   -2.1307   -0.7168 C   0  0  0  0  0  0  0  0  0  0  0  0
    3.7745    1.5994   -0.0261 C   0  0  0  0  0  0  0  0  0  0  0  0
    4.0189    2.9064   -0.4422 C   0  0  0  0  0  0  0  0  0  0  0  0
    5.3202    3.2397    0.0334 C   0  0  0  0  0  0  0  0  0  0  0  0
    5.7758    2.1307    0.7169 C   0  0  0  0  0  0  0  0  0  0  0  0
   -0.0000   -3.1201    0.0110 B   0  0  0  0  0  0  0  0  0  0  0  0
    3.3280   -3.5291    1.0154 H   0  0  0  0  0  0  0  0  0  0  0  0
    5.8533   -4.1864    0.1048 H   0  0  0  0  0  0  0  0  0  0  0  0
    6.6968   -1.9090   -1.2659 H   0  0  0  0  0  0  0  0  0  0  0  0
    3.3280    3.5291   -1.0154 H   0  0  0  0  0  0  0  0  0  0  0  0
    5.8533    4.1864   -0.1047 H   0  0  0  0  0  0  0  0  0  0  0  0
    6.6968    1.9090    1.2659 H   0  0  0  0  0  0  0  0  0  0  0  0
   -1.3993    1.1882   -0.3438 N   0  0  0  0  0  2  0  0  0  0  0  0
   -1.3993   -1.1882    0.3439 N   0  0  0  0  0  2  0  0  0  0  0  0
    0.0000    3.1201   -0.0110 B   0  0  0  0  0  0  0  0  0  0  0  0
   -1.2403   -2.4761    0.6255 O   0  0  0  0  0  0  0  0  0  0  0  0
   -1.2403    2.4761   -0.6254 O   0  0  0  0  0  0  0  0  0  0  0  0
   -2.6276    0.7303   -0.1234 C   0  0  0  0  0  0  0  0  0  0  0  0
   -2.6276   -0.7303    0.1234 C   0  0  0  0  0  0  0  0  0  0  0  0
    0.0001    2.8850    1.3475 F   0  0  0  0  0  0  0  0  0  0  0  0
    0.0000    4.4215   -0.4094 F   0  0  0  0  0  0  0  0  0  0  0  0
   -3.7745    1.5994   -0.0261 C   0  0  0  0  0  0  0  0  0  0  0  0
   -3.7745   -1.5994    0.0261 C   0  0  0  0  0  0  0  0  0  0  0  0
   -4.8550    1.1386    0.6893 O   0  0  0  0  0  0  0  0  0  0  0  0
   -4.0189    2.9064   -0.4421 C   0  0  0  0  0  0  0  0  0  0  0  0
   -4.8550   -1.1386   -0.6893 O   0  0  0  0  0  0  0  0  0  0  0  0
   -4.0189   -2.9064    0.4422 C   0  0  0  0  0  0  0  0  0  0  0  0
   -5.7758    2.1307    0.7169 C   0  0  0  0  0  0  0  0  0  0  0  0
   -5.3202    3.2398    0.0334 C   0  0  0  0  0  0  0  0  0  0  0  0
   -3.3280    3.5291   -1.0154 H   0  0  0  0  0  0  0  0  0  0  0  0
   -5.7758   -2.1307   -0.7169 C   0  0  0  0  0  0  0  0  0  0  0  0
   -5.3202   -3.2398   -0.0334 C   0  0  0  0  0  0  0  0  0  0  0  0
   -3.3280   -3.5291    1.0154 H   0  0  0  0  0  0  0  0  0  0  0  0
   -6.6968    1.9091    1.2659 H   0  0  0  0  0  0  0  0  0  0  0  0
   -5.8533    4.1864   -0.1047 H   0  0  0  0  0  0  0  0  0  0  0  0
   -6.6967   -1.9091   -1.2660 H   0  0  0  0  0  0  0  0  0  0  0  0
   -5.8533   -4.1864    0.1047 H   0  0  0  0  0  0  0  0  0  0  0  0
  1  3  1  0  0  0  0
  2 10  1  0  0  0  0
  4  2  1  0  0  0  0
  4 28  1  0  0  0  0
  5 11  1  0  0  0  0
  6 18  1  0  0  0  0
  7 19  1  0  0  0  0
  9  1  1  0  0  0  0
 10 15  1  0  0  0  0
 10  9  2  0  0  0  0
 11  9  1  0  0  0  0
 11 12  2  0  0  0  0
 12 20  1  0  0  0  0
 13 21  1  0  0  0  0
 13 12  1  0  0  0  0
 14  5  1  0  0  0  0
 14 13  2  0  0  0  0
 15  6  1  0  0  0  0
 16 15  2  0  0  0  0
 16 17  1  0  0  0  0
 17 18  2  0  0  0  0
 18 25  1  0  0  0  0
 19  8  1  0  0  0  0
 19  3  1  0  0  0  0
 19 29  1  0  0  0  0
 22 14  1  0  0  0  0
 23 16  1  0  0  0  0
 24 17  1  0  0  0  0
 26 31  1  0  0  0  0
 27 29  1  0  0  0  0
 28 33  1  0  0  0  0
 30 26  1  0  0  0  0
 30 28  1  0  0  0  0
 31 35  1  0  0  0  0
 31 32  2  0  0  0  0
 32 27  1  0  0  0  0
 34 28  1  0  0  0  0
 35 37  1  0  0  0  0
 36 32  1  0  0  0  0
 36 40  2  0  0  0  0
 37 41  1  0  0  0  0
 38 35  2  0  0  0  0
 38 42  1  0  0  0  0
 39 36  1  0  0  0  0
 40 46  1  0  0  0  0
 41 47  1  0  0  0  0
 42 41  2  0  0  0  0
 43 38  1  0  0  0  0
 44 39  1  0  0  0  0
 44 45  2  0  0  0  0
 45 50  1  0  0  0  0
 45 40  1  0  0  0  0
 48 42  1  0  0  0  0
 49 44  1  0  0  0  0
M  END
