1,2,3,4
 OpenBabel05122313063D

 47 49  0  0  0  0  0  0  0  0999 V2000
    1.3744    0.8624   -0.1895 N   0  0  0  0  0  2  0  0  0  0  0  0
   -1.3745    0.8622   -0.1895 N   0  0  0  0  0  2  0  0  0  0  0  0
   -1.3927   -1.7469   -0.0416 N   0  0  0  0  0  0  0  0  0  0  0  0
    1.3931   -1.7467   -0.0415 N   0  0  0  0  0  0  0  0  0  0  0  0
    2.6912   -1.1163   -0.2690 C   0  0  0  0  0  0  0  0  0  0  0  0
    3.8778   -1.8427   -0.4079 C   0  0  0  0  0  0  0  0  0  0  0  0
    5.0782   -1.1499   -0.6227 C   0  0  0  0  0  0  0  0  0  0  0  0
    5.0629    0.2544   -0.6930 C   0  0  0  0  0  0  0  0  0  0  0  0
    3.8710    0.9765   -0.5570 C   0  0  0  0  0  0  0  0  0  0  0  0
    2.6562    0.2892   -0.3354 C   0  0  0  0  0  0  0  0  0  0  0  0
    1.2204    2.1882   -0.0905 C   0  0  0  0  0  3  0  0  0  0  0  0
   -0.0002    2.8750   -0.0209 C   0  0  0  0  0  0  0  0  0  0  0  0
   -1.2206    2.1880   -0.0907 C   0  0  0  0  0  0  0  0  0  0  0  0
   -2.6561    0.2888   -0.3354 C   0  0  0  0  0  0  0  0  0  0  0  0
   -3.8710    0.9759   -0.5570 C   0  0  0  0  0  0  0  0  0  0  0  0
   -5.0628    0.2536   -0.6930 C   0  0  0  0  0  0  0  0  0  0  0  0
   -5.0779   -1.1507   -0.6228 C   0  0  0  0  0  0  0  0  0  0  0  0
   -3.8774   -1.8433   -0.4080 C   0  0  0  0  0  0  0  0  0  0  0  0
   -2.6909   -1.1167   -0.2691 C   0  0  0  0  0  0  0  0  0  0  0  0
   -1.2889   -2.4269    1.2882 C   0  0  0  0  0  0  0  0  0  0  0  0
    0.0003   -3.2316    1.4102 C   0  0  0  0  0  0  0  0  0  0  0  0
    1.2893   -2.4267    1.2883 C   0  0  0  0  0  0  0  0  0  0  0  0
   -0.0003    4.3779    0.1802 C   0  0  0  0  0  0  0  0  0  0  0  0
   -0.0014    4.7925    1.6583 C   0  0  0  0  0  0  0  0  0  0  0  0
   -1.2576   -2.4644   -0.7742 H   0  0  0  0  0  0  0  0  0  0  0  0
    1.2581   -2.4642   -0.7741 H   0  0  0  0  0  0  0  0  0  0  0  0
    3.8686   -2.9428   -0.3611 H   0  0  0  0  0  0  0  0  0  0  0  0
    6.0199   -1.7033   -0.7449 H   0  0  0  0  0  0  0  0  0  0  0  0
    6.0005    0.8009   -0.8725 H   0  0  0  0  0  0  0  0  0  0  0  0
    3.8938    2.0705   -0.6479 H   0  0  0  0  0  0  0  0  0  0  0  0
    2.1388    2.7996   -0.0593 H   0  0  0  0  0  0  0  0  0  0  0  0
   -2.1391    2.7994   -0.0597 H   0  0  0  0  0  0  0  0  0  0  0  0
   -3.8941    2.0699   -0.6478 H   0  0  0  0  0  0  0  0  0  0  0  0
   -6.0005    0.8000   -0.8725 H   0  0  0  0  0  0  0  0  0  0  0  0
   -6.0195   -1.7042   -0.7450 H   0  0  0  0  0  0  0  0  0  0  0  0
   -3.8680   -2.9434   -0.3612 H   0  0  0  0  0  0  0  0  0  0  0  0
   -1.3544   -1.6364    2.0625 H   0  0  0  0  0  0  0  0  0  0  0  0
   -2.1651   -3.0947    1.4279 H   0  0  0  0  0  0  0  0  0  0  0  0
    0.0004   -4.0513    0.6546 H   0  0  0  0  0  0  0  0  0  0  0  0
    0.0003   -3.7412    2.3948 H   0  0  0  0  0  0  0  0  0  0  0  0
    2.1656   -3.0943    1.4280 H   0  0  0  0  0  0  0  0  0  0  0  0
    1.3546   -1.6361    2.0626 H   0  0  0  0  0  0  0  0  0  0  0  0
    0.8841    4.8142   -0.3299 H   0  0  0  0  0  0  0  0  0  0  0  0
   -0.8840    4.8142   -0.3312 H   0  0  0  0  0  0  0  0  0  0  0  0
    0.8918    4.3994    2.1857 H   0  0  0  0  0  0  0  0  0  0  0  0
   -0.8953    4.3993    2.1844 H   0  0  0  0  0  0  0  0  0  0  0  0
   -0.0015    5.8954    1.7655 H   0  0  0  0  0  0  0  0  0  0  0  0
  1 11  1  0  0  0  0
  2 13  1  0  0  0  0
  3 20  1  0  0  0  0
  4 22  1  0  0  0  0
  5  4  1  0  0  0  0
  6 27  1  0  0  0  0
  6  5  2  0  0  0  0
  7  6  1  0  0  0  0
  8  7  2  0  0  0  0
  8  9  1  0  0  0  0
  9 10  2  0  0  0  0
 10  5  1  0  0  0  0
 10  1  1  0  0  0  0
 11 31  1  0  0  0  0
 11 12  1  0  0  0  0
 12 23  1  0  0  0  0
 13 32  1  0  0  0  0
 13 12  2  0  0  0  0
 14 19  1  0  0  0  0
 14  2  1  0  0  0  0
 15 14  2  0  0  0  0
 16 17  2  0  0  0  0
 16 15  1  0  0  0  0
 17 18  1  0  0  0  0
 18 36  1  0  0  0  0
 18 19  2  0  0  0  0
 19  3  1  0  0  0  0
 20 21  1  0  0  0  0
 20 38  1  0  0  0  0
 20 37  1  0  0  0  0
 21 40  1  0  0  0  0
 22 21  1  0  0  0  0
 22 41  1  0  0  0  0
 22 42  1  0  0  0  0
 23 24  1  0  0  0  0
 24 47  1  0  0  0  0
 24 46  1  0  0  0  0
 24 45  1  0  0  0  0
 25  3  1  0  0  0  0
 26  4  1  0  0  0  0
 28  7  1  0  0  0  0
 29  8  1  0  0  0  0
 30  9  1  0  0  0  0
 33 15  1  0  0  0  0
 34 16  1  0  0  0  0
 35 17  1  0  0  0  0
 39 21  1  0  0  0  0
 43 23  1  0  0  0  0
 44 23  1  0  0  0  0
M  END
