1,2,3,4
 OpenBabel05122313063D

 72 77  0  0  0  0  0  0  0  0999 V2000
   -1.3810    1.5059    0.4018 N   0  0  0  0  0  0  0  0  0  0  0  0
   -1.2117   -1.1207    0.0462 N   0  0  0  0  0  2  0  0  0  0  0  0
    1.2114   -1.1209   -0.0517 N   0  0  0  0  0  2  0  0  0  0  0  0
    1.3816    1.5067   -0.3988 N   0  0  0  0  0  0  0  0  0  0  0  0
   -1.2297    2.7499    0.9126 C   0  0  0  0  0  3  0  0  0  0  0  0
   -0.2338    3.1411    1.1521 H   0  0  0  0  0  0  0  0  0  0  0  0
   -2.4891    3.3882    1.0984 C   0  0  0  0  0  0  0  0  0  0  0  0
   -2.6465    4.3962    1.4989 H   0  0  0  0  0  0  0  0  0  0  0  0
   -3.4542    2.4674    0.6960 C   0  0  0  0  0  0  0  0  0  0  0  0
   -4.5452    2.5736    0.7144 H   0  0  0  0  0  0  0  0  0  0  0  0
   -2.7584    1.2761    0.2923 C   0  0  0  0  0  0  0  0  0  0  0  0
   -3.3542    0.0149    0.0505 C   0  0  0  0  0  0  0  0  0  0  0  0
   -2.5842   -1.1624   -0.0438 C   0  0  0  0  0  0  0  0  0  0  0  0
   -2.9792   -2.5437   -0.1622 C   0  0  0  0  0  0  0  0  0  0  0  0
   -4.0138   -2.8957   -0.2469 H   0  0  0  0  0  0  0  0  0  0  0  0
   -1.8128   -3.3113   -0.1349 C   0  0  0  0  0  0  0  0  0  0  0  0
   -1.7331   -4.4023   -0.1997 H   0  0  0  0  0  0  0  0  0  0  0  0
   -0.7216   -2.3905   -0.0166 C   0  0  0  0  0  0  0  0  0  0  0  0
    0.7210   -2.3908    0.0066 C   0  0  0  0  0  0  0  0  0  0  0  0
    1.8119   -3.3123    0.1214 C   0  0  0  0  0  0  0  0  0  0  0  0
    1.7319   -4.4035    0.1823 H   0  0  0  0  0  0  0  0  0  0  0  0
    2.9786   -2.5452    0.1511 C   0  0  0  0  0  0  0  0  0  0  0  0
    4.0131   -2.8979    0.2340 H   0  0  0  0  0  0  0  0  0  0  0  0
    2.5839   -1.1634    0.0377 C   0  0  0  0  0  0  0  0  0  0  0  0
    3.3543    0.0140   -0.0525 C   0  0  0  0  0  0  0  0  0  0  0  0
    2.7590    1.2762   -0.2899 C   0  0  0  0  0  3  0  0  0  0  0  0
    3.4552    2.4687   -0.6894 C   0  0  0  0  0  0  0  0  0  0  0  0
    4.5462    2.5747   -0.7074 H   0  0  0  0  0  0  0  0  0  0  0  0
    2.4904    3.3911   -1.0887 C   0  0  0  0  0  0  0  0  0  0  0  0
    2.6480    4.4005   -1.4858 H   0  0  0  0  0  0  0  0  0  0  0  0
    1.2307    2.7525   -0.9052 C   0  0  0  0  0  0  0  0  0  0  0  0
    0.2350    3.1448   -1.1434 H   0  0  0  0  0  0  0  0  0  0  0  0
   -4.8423   -0.0852   -0.0290 C   0  0  0  0  0  0  0  0  0  0  0  0
   -5.5965   -0.3766    1.1364 C   0  0  0  0  0  0  0  0  0  0  0  0
   -4.9097   -0.5704    2.4652 C   0  0  0  0  0  0  0  0  0  0  0  0
   -5.6408   -0.7730    3.2709 H   0  0  0  0  0  0  0  0  0  0  0  0
   -4.3211    0.3271    2.7472 H   0  0  0  0  0  0  0  0  0  0  0  0
   -4.1907   -1.4145    2.4280 H   0  0  0  0  0  0  0  0  0  0  0  0
   -6.9950   -0.4672    1.0283 C   0  0  0  0  0  0  0  0  0  0  0  0
   -7.5820   -0.6878    1.9350 H   0  0  0  0  0  0  0  0  0  0  0  0
   -7.6623   -0.2823   -0.1973 C   0  0  0  0  0  0  0  0  0  0  0  0
   -9.1627   -0.4118   -0.2838 C   0  0  0  0  0  0  0  0  0  0  0  0
   -9.6657    0.1243    0.5465 H   0  0  0  0  0  0  0  0  0  0  0  0
   -9.4769   -1.4754   -0.2155 H   0  0  0  0  0  0  0  0  0  0  0  0
   -9.5538   -0.0111   -1.2391 H   0  0  0  0  0  0  0  0  0  0  0  0
   -6.8882    0.0062   -1.3347 C   0  0  0  0  0  0  0  0  0  0  0  0
   -7.3897    0.1576   -2.3045 H   0  0  0  0  0  0  0  0  0  0  0  0
   -5.4860    0.1093   -1.2754 C   0  0  0  0  0  0  0  0  0  0  0  0
   -4.6799    0.4174   -2.5124 C   0  0  0  0  0  0  0  0  0  0  0  0
   -5.3297    0.5247   -3.4018 H   0  0  0  0  0  0  0  0  0  0  0  0
   -3.9387   -0.3825   -2.7178 H   0  0  0  0  0  0  0  0  0  0  0  0
   -4.0989    1.3546   -2.3909 H   0  0  0  0  0  0  0  0  0  0  0  0
    4.8424   -0.0872    0.0269 C   0  0  0  0  0  0  0  0  0  0  0  0
    5.4853    0.0924    1.2779 C   0  0  0  0  0  0  0  0  0  0  0  0
    4.6759    0.3856    2.5163 C   0  0  0  0  0  0  0  0  0  0  0  0
    5.3237    0.4883    3.4077 H   0  0  0  0  0  0  0  0  0  0  0  0
    3.9382   -0.4196    2.7135 H   0  0  0  0  0  0  0  0  0  0  0  0
    4.0905    1.3210    2.4017 H   0  0  0  0  0  0  0  0  0  0  0  0
    6.8852   -0.0178    1.3393 C   0  0  0  0  0  0  0  0  0  0  0  0
    7.3842    0.1167    2.3131 H   0  0  0  0  0  0  0  0  0  0  0  0
    7.6613   -0.2966    0.1988 C   0  0  0  0  0  0  0  0  0  0  0  0
    9.1648   -0.3786    0.2902 C   0  0  0  0  0  0  0  0  0  0  0  0
    9.6001   -0.9022   -0.5831 H   0  0  0  0  0  0  0  0  0  0  0  0
    9.4889   -0.9092    1.2081 H   0  0  0  0  0  0  0  0  0  0  0  0
    9.6184    0.6353    0.3277 H   0  0  0  0  0  0  0  0  0  0  0  0
    6.9959   -0.4718   -1.0273 C   0  0  0  0  0  0  0  0  0  0  0  0
    7.5837   -0.6943   -1.9329 H   0  0  0  0  0  0  0  0  0  0  0  0
    5.5964   -0.3735   -1.1379 C   0  0  0  0  0  0  0  0  0  0  0  0
    4.9121   -0.5614   -2.4688 C   0  0  0  0  0  0  0  0  0  0  0  0
    5.6448   -0.7619   -3.2736 H   0  0  0  0  0  0  0  0  0  0  0  0
    4.3256    0.3381   -2.7486 H   0  0  0  0  0  0  0  0  0  0  0  0
    4.1918   -1.4046   -2.4365 H   0  0  0  0  0  0  0  0  0  0  0  0
  1  5  1  0  0  0  0
  3 19  1  0  0  0  0
  3 24  1  0  0  0  0
  4 26  1  0  0  0  0
  5  7  1  0  0  0  0
  5  6  1  0  0  0  0
  7  8  1  0  0  0  0
  9 10  1  0  0  0  0
  9  7  2  0  0  0  0
 11  1  2  0  0  0  0
 11  9  1  0  0  0  0
 12 11  1  0  0  0  0
 13  2  1  0  0  0  0
 13 12  2  0  0  0  0
 14 16  2  0  0  0  0
 14 13  1  0  0  0  0
 15 14  1  0  0  0  0
 16 18  1  0  0  0  0
 17 16  1  0  0  0  0
 18 19  2  0  0  0  0
 18  2  1  0  0  0  0
 19 20  1  0  0  0  0
 20 22  2  0  0  0  0
 20 21  1  0  0  0  0
 22 23  1  0  0  0  0
 24 22  1  0  0  0  0
 25 53  1  0  0  0  0
 25 24  2  0  0  0  0
 26 25  1  0  0  0  0
 27 26  1  0  0  0  0
 28 27  1  0  0  0  0
 29 31  1  0  0  0  0
 29 27  2  0  0  0  0
 30 29  1  0  0  0  0
 31  4  2  0  0  0  0
 32 31  1  0  0  0  0
 33 12  1  0  0  0  0
 33 34  1  0  0  0  0
 34 35  1  0  0  0  0
 35 37  1  0  0  0  0
 35 36  1  0  0  0  0
 38 35  1  0  0  0  0
 39 34  2  0  0  0  0
 39 40  1  0  0  0  0
 41 39  1  0  0  0  0
 42 44  1  0  0  0  0
 42 41  1  0  0  0  0
 42 43  1  0  0  0  0
 45 42  1  0  0  0  0
 46 48  1  0  0  0  0
 46 41  2  0  0  0  0
 47 46  1  0  0  0  0
 48 33  2  0  0  0  0
 49 52  1  0  0  0  0
 49 48  1  0  0  0  0
 50 49  1  0  0  0  0
 51 49  1  0  0  0  0
 53 54  1  0  0  0  0
 54 59  2  0  0  0  0
 54 55  1  0  0  0  0
 55 57  1  0  0  0  0
 55 56  1  0  0  0  0
 58 55  1  0  0  0  0
 59 60  1  0  0  0  0
 61 62  1  0  0  0  0
 61 59  1  0  0  0  0
 62 65  1  0  0  0  0
 62 64  1  0  0  0  0
 63 62  1  0  0  0  0
 66 61  2  0  0  0  0
 67 66  1  0  0  0  0
 68 66  1  0  0  0  0
 68 53  2  0  0  0  0
 69 72  1  0  0  0  0
 69 68  1  0  0  0  0
 70 69  1  0  0  0  0
 71 69  1  0  0  0  0
M  END
