1,2,3,4
 OpenBabel05122313063D

 34 35  0  0  0  0  0  0  0  0999 V2000
   -1.8835    0.1984   -0.1217 N   0  0  0  0  0  2  0  0  0  0  0  0
   -0.4656   -1.9152    0.1102 N   0  0  0  0  0  2  0  0  0  0  0  0
    1.8253   -0.1961   -0.5655 N   0  0  0  0  0  2  0  0  0  0  0  0
    0.3946    1.7681    0.1422 N   0  0  0  0  0  0  0  0  0  0  0  0
   -2.7748    1.1762   -0.4106 C   0  0  0  0  0  3  0  0  0  0  0  0
   -2.4516    2.1988   -0.6365 H   0  0  0  0  0  0  0  0  0  0  0  0
   -4.0926    0.6516   -0.3805 C   0  0  0  0  0  0  0  0  0  0  0  0
   -5.0113    1.2189   -0.5711 H   0  0  0  0  0  0  0  0  0  0  0  0
   -3.9865   -0.7170   -0.0696 C   0  0  0  0  0  0  0  0  0  0  0  0
   -4.7987   -1.4480    0.0208 H   0  0  0  0  0  0  0  0  0  0  0  0
   -2.6001   -0.9752    0.0719 C   0  0  0  0  0  0  0  0  0  0  0  0
   -1.7699   -2.1069    0.2331 C   0  0  0  0  0  0  0  0  0  0  0  0
   -2.1732   -3.1126    0.4545 H   0  0  0  0  0  0  0  0  0  0  0  0
    0.4218   -3.0530    0.3472 C   0  0  0  0  0  0  0  0  0  0  0  0
    0.6771   -3.5400   -0.6237 H   0  0  0  0  0  0  0  0  0  0  0  0
   -0.1316   -3.8171    0.9347 H   0  0  0  0  0  0  0  0  0  0  0  0
    1.7134   -2.6640    1.0809 C   0  0  0  0  0  0  0  0  0  0  0  0
    1.4866   -1.8000    1.7398 H   0  0  0  0  0  0  0  0  0  0  0  0
    2.0189   -3.4944    1.7499 H   0  0  0  0  0  0  0  0  0  0  0  0
    2.8800   -2.3284    0.1434 C   0  0  0  0  0  0  0  0  0  0  0  0
    3.2917   -3.2637   -0.2955 H   0  0  0  0  0  0  0  0  0  0  0  0
    3.7034   -1.8646    0.7266 H   0  0  0  0  0  0  0  0  0  0  0  0
    2.4949   -1.4007   -1.0153 C   0  0  0  0  0  0  0  0  0  0  0  0
    3.4034   -1.1364   -1.6009 H   0  0  0  0  0  0  0  0  0  0  0  0
    1.8156   -1.9338   -1.7151 H   0  0  0  0  0  0  0  0  0  0  0  0
    2.4593    0.9647   -0.5890 C   0  0  0  0  0  3  0  0  0  0  0  0
    3.5118    1.0274   -0.9223 H   0  0  0  0  0  0  0  0  0  0  0  0
    1.7113    2.0884   -0.1696 C   0  0  0  0  0  0  0  0  0  0  0  0
    1.9599    3.4460    0.1508 C   0  0  0  0  0  0  0  0  0  0  0  0
    2.9068    3.9836    0.0225 H   0  0  0  0  0  0  0  0  0  0  0  0
    0.7577    3.9403    0.6912 C   0  0  0  0  0  0  0  0  0  0  0  0
    0.5652    4.9540    1.0622 H   0  0  0  0  0  0  0  0  0  0  0  0
   -0.1774    2.8737    0.6758 C   0  0  0  0  0  3  0  0  0  0  0  0
   -1.2130    2.8678    1.0343 H   0  0  0  0  0  0  0  0  0  0  0  0
  1 11  1  0  0  0  0
  2 12  1  0  0  0  0
  2 14  1  0  0  0  0
  4 33  1  0  0  0  0
  5  7  1  0  0  0  0
  5  1  1  0  0  0  0
  6  5  1  0  0  0  0
  7  9  2  0  0  0  0
  8  7  1  0  0  0  0
  9 10  1  0  0  0  0
  9 11  1  0  0  0  0
 11 12  2  0  0  0  0
 12 13  1  0  0  0  0
 14 16  1  0  0  0  0
 14 17  1  0  0  0  0
 15 14  1  0  0  0  0
 17 18  1  0  0  0  0
 17 19  1  0  0  0  0
 20 22  1  0  0  0  0
 20 17  1  0  0  0  0
 21 20  1  0  0  0  0
 23  3  1  0  0  0  0
 23 20  1  0  0  0  0
 24 23  1  0  0  0  0
 25 23  1  0  0  0  0
 26  3  1  0  0  0  0
 26 28  1  0  0  0  0
 27 26  1  0  0  0  0
 28  4  2  0  0  0  0
 28 29  1  0  0  0  0
 29 31  2  0  0  0  0
 30 29  1  0  0  0  0
 31 32  1  0  0  0  0
 33 31  1  0  0  0  0
 33 34  1  0  0  0  0
M  END
