2,5,36,39
 OpenBabel05122313063D

 68 72  0  0  0  0  0  0  0  0999 V2000
   -3.8272    4.0681    0.1661 O   0  0  0  0  0  0  0  0  0  0  0  0
   -1.5729    1.2567    0.1122 N   0  0  0  0  0  2  0  0  0  0  0  0
   -5.0829   -1.7356   -0.0981 O   0  0  0  0  0  0  0  0  0  0  0  0
   -1.5806   -2.7297   -0.2203 C   0  0  0  0  0  0  0  0  0  0  0  0
   -1.4721   -1.3745   -0.0862 N   0  0  0  0  0  2  0  0  0  0  0  0
   -3.3914   -4.3531   -0.3772 O   0  0  0  0  0  0  0  0  0  0  0  0
   -2.7796    0.6020    0.0577 C   0  0  0  0  0  0  0  0  0  0  0  0
   -5.1502    1.2138    0.0239 O   0  0  0  0  0  0  0  0  0  0  0  0
   -3.7231   -1.8771   -0.1058 C   0  0  0  0  0  0  0  0  0  0  0  0
   -1.7945    2.6036    0.1640 C   0  0  0  0  0  0  0  0  0  0  0  0
   -3.2331    2.8336    0.1213 C   0  0  0  0  0  0  0  0  0  0  0  0
   -2.7309   -0.8237   -0.0250 C   0  0  0  0  0  0  0  0  0  0  0  0
   -3.8515    1.5783    0.0613 C   0  0  0  0  0  0  0  0  0  0  0  0
   -0.8448    3.6462    0.2872 C   0  0  0  0  0  0  0  0  0  0  0  0
   -1.3323    4.6298    0.3902 H   0  0  0  0  0  0  0  0  0  0  0  0
   -0.5560   -3.6978   -0.3194 C   0  0  0  0  0  0  0  0  0  0  0  0
   -0.9693   -4.7125   -0.4372 H   0  0  0  0  0  0  0  0  0  0  0  0
   -3.0010   -3.0704   -0.2379 C   0  0  0  0  0  0  0  0  0  0  0  0
   -5.6552   -1.5211    1.1880 C   0  0  0  0  0  0  0  0  0  0  0  0
   -5.5203   -2.4134    1.8432 H   0  0  0  0  0  0  0  0  0  0  0  0
   -6.7371   -1.3437    1.0340 H   0  0  0  0  0  0  0  0  0  0  0  0
   -5.2168   -0.6341    1.6909 H   0  0  0  0  0  0  0  0  0  0  0  0
   -3.8531    4.7678   -1.0765 C   0  0  0  0  0  0  0  0  0  0  0  0
   -2.8351    4.8750   -1.5107 H   0  0  0  0  0  0  0  0  0  0  0  0
   -4.2718    5.7725   -0.8739 H   0  0  0  0  0  0  0  0  0  0  0  0
   -4.4975    4.2478   -1.8226 H   0  0  0  0  0  0  0  0  0  0  0  0
   -6.1371    2.2367    0.0069 C   0  0  0  0  0  0  0  0  0  0  0  0
   -6.0319    2.9263    0.8693 H   0  0  0  0  0  0  0  0  0  0  0  0
   -7.1146    1.7210    0.0516 H   0  0  0  0  0  0  0  0  0  0  0  0
   -6.0876    2.8320   -0.9314 H   0  0  0  0  0  0  0  0  0  0  0  0
   -4.7827   -4.6493   -0.3518 C   0  0  0  0  0  0  0  0  0  0  0  0
   -5.2267   -4.4238    0.6429 H   0  0  0  0  0  0  0  0  0  0  0  0
   -4.8704   -5.7342   -0.5481 H   0  0  0  0  0  0  0  0  0  0  0  0
   -5.3376   -4.0779   -1.1231 H   0  0  0  0  0  0  0  0  0  0  0  0
    3.8272   -4.0681   -0.1662 O   0  0  0  0  0  0  0  0  0  0  0  0
    1.5729   -1.2567   -0.1122 N   0  0  0  0  0  2  0  0  0  0  0  0
    5.0829    1.7356    0.0982 O   0  0  0  0  0  0  0  0  0  0  0  0
    1.5806    2.7297    0.2204 C   0  0  0  0  0  0  0  0  0  0  0  0
    1.4721    1.3745    0.0862 N   0  0  0  0  0  2  0  0  0  0  0  0
    3.3914    4.3531    0.3773 O   0  0  0  0  0  0  0  0  0  0  0  0
    2.7796   -0.6020   -0.0577 C   0  0  0  0  0  0  0  0  0  0  0  0
    5.1502   -1.2138   -0.0240 O   0  0  0  0  0  0  0  0  0  0  0  0
    3.7231    1.8771    0.1058 C   0  0  0  0  0  0  0  0  0  0  0  0
    1.7945   -2.6036   -0.1640 C   0  0  0  0  0  0  0  0  0  0  0  0
    3.2331   -2.8336   -0.1214 C   0  0  0  0  0  0  0  0  0  0  0  0
    2.7309    0.8237    0.0250 C   0  0  0  0  0  0  0  0  0  0  0  0
    3.8515   -1.5783   -0.0613 C   0  0  0  0  0  0  0  0  0  0  0  0
    0.8449   -3.6462   -0.2872 C   0  0  0  0  0  0  0  0  0  0  0  0
    1.3323   -4.6298   -0.3901 H   0  0  0  0  0  0  0  0  0  0  0  0
    0.5560    3.6978    0.3195 C   0  0  0  0  0  0  0  0  0  0  0  0
    0.9693    4.7125    0.4372 H   0  0  0  0  0  0  0  0  0  0  0  0
    3.0010    3.0704    0.2379 C   0  0  0  0  0  0  0  0  0  0  0  0
    5.6552    1.5210   -1.1879 C   0  0  0  0  0  0  0  0  0  0  0  0
    5.5204    2.4133   -1.8432 H   0  0  0  0  0  0  0  0  0  0  0  0
    6.7371    1.3437   -1.0339 H   0  0  0  0  0  0  0  0  0  0  0  0
    5.2168    0.6341   -1.6908 H   0  0  0  0  0  0  0  0  0  0  0  0
    3.8530   -4.7678    1.0764 C   0  0  0  0  0  0  0  0  0  0  0  0
    2.8350   -4.8751    1.5106 H   0  0  0  0  0  0  0  0  0  0  0  0
    4.2717   -5.7725    0.8738 H   0  0  0  0  0  0  0  0  0  0  0  0
    4.4974   -4.2479    1.8226 H   0  0  0  0  0  0  0  0  0  0  0  0
    6.1371   -2.2367   -0.0070 C   0  0  0  0  0  0  0  0  0  0  0  0
    6.0320   -2.9262   -0.8694 H   0  0  0  0  0  0  0  0  0  0  0  0
    7.1146   -1.7209   -0.0517 H   0  0  0  0  0  0  0  0  0  0  0  0
    6.0877   -2.8319    0.9313 H   0  0  0  0  0  0  0  0  0  0  0  0
    4.7828    4.6492    0.3518 C   0  0  0  0  0  0  0  0  0  0  0  0
    5.2267    4.4238   -0.6429 H   0  0  0  0  0  0  0  0  0  0  0  0
    4.8704    5.7342    0.5482 H   0  0  0  0  0  0  0  0  0  0  0  0
    5.3376    4.0779    1.1231 H   0  0  0  0  0  0  0  0  0  0  0  0
  2 10  1  0  0  0  0
  3 19  1  0  0  0  0
  4  5  1  0  0  0  0
  5 12  1  0  0  0  0
  6 31  1  0  0  0  0
  6 18  1  0  0  0  0
  7 13  1  0  0  0  0
  7  2  1  0  0  0  0
  8 13  1  0  0  0  0
  9  3  1  0  0  0  0
  9 12  1  0  0  0  0
 10 14  2  0  0  0  0
 11 10  1  0  0  0  0
 11  1  1  0  0  0  0
 12  7  2  0  0  0  0
 13 11  2  0  0  0  0
 14 50  1  0  0  0  0
 14 15  1  0  0  0  0
 16 48  1  0  0  0  0
 16  4  2  0  0  0  0
 17 16  1  0  0  0  0
 18  4  1  0  0  0  0
 18  9  2  0  0  0  0
 19 22  1  0  0  0  0
 19 20  1  0  0  0  0
 21 19  1  0  0  0  0
 23 25  1  0  0  0  0
 23  1  1  0  0  0  0
 24 23  1  0  0  0  0
 26 23  1  0  0  0  0
 27  8  1  0  0  0  0
 27 29  1  0  0  0  0
 27 28  1  0  0  0  0
 30 27  1  0  0  0  0
 31 32  1  0  0  0  0
 33 31  1  0  0  0  0
 34 31  1  0  0  0  0
 35 45  1  0  0  0  0
 35 57  1  0  0  0  0
 36 41  1  0  0  0  0
 37 43  1  0  0  0  0
 38 52  1  0  0  0  0
 38 50  2  0  0  0  0
 39 38  1  0  0  0  0
 41 46  2  0  0  0  0
 42 61  1  0  0  0  0
 43 52  2  0  0  0  0
 44 45  1  0  0  0  0
 44 36  1  0  0  0  0
 45 47  2  0  0  0  0
 46 39  1  0  0  0  0
 46 43  1  0  0  0  0
 47 41  1  0  0  0  0
 47 42  1  0  0  0  0
 48 44  2  0  0  0  0
 49 48  1  0  0  0  0
 50 51  1  0  0  0  0
 52 40  1  0  0  0  0
 53 55  1  0  0  0  0
 53 37  1  0  0  0  0
 54 53  1  0  0  0  0
 56 53  1  0  0  0  0
 57 58  1  0  0  0  0
 57 60  1  0  0  0  0
 59 57  1  0  0  0  0
 61 64  1  0  0  0  0
 62 61  1  0  0  0  0
 63 61  1  0  0  0  0
 65 40  1  0  0  0  0
 65 67  1  0  0  0  0
 65 68  1  0  0  0  0
 66 65  1  0  0  0  0
M  END
