5,6,7,8
 OpenBabel05122313063D

 79 85  0  0  0  0  0  0  0  0999 V2000
    0.1092    4.2774   -0.1302 P   0  0  0  0  0  0  0  0  0  0  0  0
    1.0289    4.7745    1.1270 O   0  0  0  0  0  0  0  0  0  0  0  0
    1.2133    4.5702   -1.2971 O   0  0  0  0  0  0  0  0  0  0  0  0
   -1.1938    5.0121   -0.2876 O   0  0  0  0  0  0  0  0  0  0  0  0
    1.3891    0.3636    0.0229 N   0  0  0  0  0  0  0  0  0  0  0  0
    1.3117   -2.5147   -0.1022 N   0  0  0  0  0  0  0  0  0  0  0  0
   -1.4901    0.4506   -0.0135 N   0  0  0  0  0  2  0  0  0  0  0  0
   -1.5809   -2.4287   -0.1152 N   0  0  0  0  0  0  0  0  0  0  0  0
    3.3184   -3.6669   -0.1762 C   0  0  0  0  0  0  0  0  0  0  0  0
    4.4005   -3.8309   -0.1860 H   0  0  0  0  0  0  0  0  0  0  0  0
    4.8673   -1.2000    0.1399 C   0  0  0  0  0  0  0  0  0  0  0  0
    2.3133   -4.5940   -0.2870 C   0  0  0  0  0  0  0  0  0  0  0  0
    2.3957   -5.6814   -0.3992 H   0  0  0  0  0  0  0  0  0  0  0  0
    2.6820   -2.3696   -0.0538 C   0  0  0  0  0  3  0  0  0  0  0  0
    0.0080    2.4385   -0.0071 C   0  0  0  0  0  0  0  0  0  0  0  0
    1.2361    1.7381    0.0568 C   0  0  0  0  0  0  0  0  0  0  0  0
   -5.0554   -0.9071    0.0773 C   0  0  0  0  0  0  0  0  0  0  0  0
   -2.5335    2.5191    0.0600 C   0  0  0  0  0  0  0  0  0  0  0  0
   -2.6217    3.6093    0.0664 H   0  0  0  0  0  0  0  0  0  0  0  0
   -3.5628   -0.9431    0.0203 C   0  0  0  0  0  0  0  0  0  0  0  0
   -1.2608    1.8174   -0.0073 C   0  0  0  0  0  0  0  0  0  0  0  0
    3.3762   -1.1498    0.0682 C   0  0  0  0  0  0  0  0  0  0  0  0
    1.0659   -3.8670   -0.2368 C   0  0  0  0  0  0  0  0  0  0  0  0
   -0.1930   -4.4623   -0.3043 C   0  0  0  0  0  0  0  0  0  0  0  0
   -0.2249   -5.5562   -0.4060 H   0  0  0  0  0  0  0  0  0  0  0  0
    2.7487    0.1067    0.1083 C   0  0  0  0  0  0  0  0  0  0  0  0
    6.9159   -1.8397    1.3100 C   0  0  0  0  0  0  0  0  0  0  0  0
    7.3997   -2.2994    2.1866 H   0  0  0  0  0  0  0  0  0  0  0  0
    5.5176   -1.7864    1.2462 C   0  0  0  0  0  0  0  0  0  0  0  0
    4.9118   -2.1993    2.0670 H   0  0  0  0  0  0  0  0  0  0  0  0
    3.4680    1.3562    0.2356 C   0  0  0  0  0  0  0  0  0  0  0  0
    4.5522    1.4439    0.3534 H   0  0  0  0  0  0  0  0  0  0  0  0
    2.5431    2.3620    0.1902 C   0  0  0  0  0  0  0  0  0  0  0  0
    2.7241    3.4361    0.2650 H   0  0  0  0  0  0  0  0  0  0  0  0
   -2.8639    0.2756    0.0410 C   0  0  0  0  0  0  0  0  0  0  0  0
   -3.5134    1.5677    0.1106 C   0  0  0  0  0  0  0  0  0  0  0  0
   -4.5943    1.7192    0.1884 H   0  0  0  0  0  0  0  0  0  0  0  0
   -1.4141   -3.7946   -0.2379 C   0  0  0  0  0  0  0  0  0  0  0  0
   -7.9072   -0.8570    0.1860 C   0  0  0  0  0  0  0  0  0  0  0  0
   -2.7024   -4.4478   -0.2829 C   0  0  0  0  0  0  0  0  0  0  0  0
   -2.8480   -5.5296   -0.3853 H   0  0  0  0  0  0  0  0  0  0  0  0
   -3.6513   -3.4628   -0.1819 C   0  0  0  0  0  0  0  0  0  0  0  0
   -4.7412   -3.5625   -0.1915 H   0  0  0  0  0  0  0  0  0  0  0  0
   -2.9399   -2.2031   -0.0733 C   0  0  0  0  0  0  0  0  0  0  0  0
   -5.8120   -0.3779   -0.9896 C   0  0  0  0  0  0  0  0  0  0  0  0
   -5.2891    0.0100   -1.8769 H   0  0  0  0  0  0  0  0  0  0  0  0
   -7.2113   -0.3560   -0.9339 C   0  0  0  0  0  0  0  0  0  0  0  0
   -7.7793    0.0549   -1.7838 H   0  0  0  0  0  0  0  0  0  0  0  0
   -9.4125   -0.7999    0.2524 C   0  0  0  0  0  0  0  0  0  0  0  0
   -9.7597    0.2124    0.5524 H   0  0  0  0  0  0  0  0  0  0  0  0
   -9.8174   -1.5184    0.9914 H   0  0  0  0  0  0  0  0  0  0  0  0
   -9.8728   -1.0190   -0.7319 H   0  0  0  0  0  0  0  0  0  0  0  0
    0.7895    4.5131   -2.6777 C   0  0  0  0  0  0  0  0  0  0  0  0
    1.4056    5.2735   -3.1992 H   0  0  0  0  0  0  0  0  0  0  0  0
   -0.2716    4.8371   -2.7455 H   0  0  0  0  0  0  0  0  0  0  0  0
    5.6633   -0.6754   -0.8993 C   0  0  0  0  0  0  0  0  0  0  0  0
    5.1725   -0.2277   -1.7766 H   0  0  0  0  0  0  0  0  0  0  0  0
    7.7164   -1.3130    0.2753 C   0  0  0  0  0  0  0  0  0  0  0  0
   -5.7464   -1.4154    1.1962 C   0  0  0  0  0  0  0  0  0  0  0  0
   -5.1721   -1.8311    2.0380 H   0  0  0  0  0  0  0  0  0  0  0  0
    7.0617   -0.7341   -0.8306 C   0  0  0  0  0  0  0  0  0  0  0  0
    7.6612   -0.3260   -1.6600 H   0  0  0  0  0  0  0  0  0  0  0  0
   -7.1469   -1.3886    1.2468 C   0  0  0  0  0  0  0  0  0  0  0  0
   -7.6637   -1.7880    2.1340 H   0  0  0  0  0  0  0  0  0  0  0  0
    0.0928    3.9065    3.2321 C   0  0  0  0  0  0  0  0  0  0  0  0
   -0.6516    3.2339    2.7606 H   0  0  0  0  0  0  0  0  0  0  0  0
   -0.3108    4.2251    4.2146 H   0  0  0  0  0  0  0  0  0  0  0  0
    1.0199    3.3250    3.4060 H   0  0  0  0  0  0  0  0  0  0  0  0
    0.9961    3.1348   -3.2861 C   0  0  0  0  0  0  0  0  0  0  0  0
    0.3365    2.3765   -2.8197 H   0  0  0  0  0  0  0  0  0  0  0  0
    2.0449    2.8012   -3.1566 H   0  0  0  0  0  0  0  0  0  0  0  0
    0.7702    3.1652   -4.3714 H   0  0  0  0  0  0  0  0  0  0  0  0
    0.3706    5.1240    2.3645 C   0  0  0  0  0  0  0  0  0  0  0  0
   -0.5642    5.6767    2.1306 H   0  0  0  0  0  0  0  0  0  0  0  0
    1.0667    5.8245    2.8682 H   0  0  0  0  0  0  0  0  0  0  0  0
    9.2212   -1.3441    0.3643 C   0  0  0  0  0  0  0  0  0  0  0  0
    9.6039   -0.4713    0.9365 H   0  0  0  0  0  0  0  0  0  0  0  0
    9.6913   -1.3087   -0.6380 H   0  0  0  0  0  0  0  0  0  0  0  0
    9.5813   -2.2540    0.8843 H   0  0  0  0  0  0  0  0  0  0  0  0
  1 15  1  0  0  0  0
  1  2  1  0  0  0  0
  2 73  1  0  0  0  0
  3  1  1  0  0  0  0
  4  1  2  0  0  0  0
  5 16  2  0  0  0  0
  5 26  1  0  0  0  0
  6 14  1  0  0  0  0
  7 21  1  0  0  0  0
  7 35  1  0  0  0  0
  8 44  2  0  0  0  0
  9 14  1  0  0  0  0
 10  9  1  0  0  0  0
 11 29  1  0  0  0  0
 12 23  1  0  0  0  0
 12  9  2  0  0  0  0
 13 12  1  0  0  0  0
 14 22  1  0  0  0  0
 15 16  1  0  0  0  0
 16 33  1  0  0  0  0
 17 59  1  0  0  0  0
 18 19  1  0  0  0  0
 18 36  2  0  0  0  0
 20 35  2  0  0  0  0
 20 17  1  0  0  0  0
 21 15  2  0  0  0  0
 21 18  1  0  0  0  0
 22 26  2  0  0  0  0
 22 11  1  0  0  0  0
 23  6  2  0  0  0  0
 24 38  2  0  0  0  0
 24 23  1  0  0  0  0
 25 24  1  0  0  0  0
 26 31  1  0  0  0  0
 27 28  1  0  0  0  0
 29 27  2  0  0  0  0
 29 30  1  0  0  0  0
 31 32  1  0  0  0  0
 33 31  2  0  0  0  0
 33 34  1  0  0  0  0
 35 36  1  0  0  0  0
 36 37  1  0  0  0  0
 38  8  1  0  0  0  0
 39 49  1  0  0  0  0
 39 63  1  0  0  0  0
 40 38  1  0  0  0  0
 40 42  2  0  0  0  0
 41 40  1  0  0  0  0
 42 44  1  0  0  0  0
 43 42  1  0  0  0  0
 44 20  1  0  0  0  0
 45 47  1  0  0  0  0
 45 17  2  0  0  0  0
 46 45  1  0  0  0  0
 47 39  2  0  0  0  0
 48 47  1  0  0  0  0
 49 50  1  0  0  0  0
 49 51  1  0  0  0  0
 52 49  1  0  0  0  0
 53  3  1  0  0  0  0
 54 53  1  0  0  0  0
 55 53  1  0  0  0  0
 56 61  1  0  0  0  0
 56 11  2  0  0  0  0
 57 56  1  0  0  0  0
 58 76  1  0  0  0  0
 58 27  1  0  0  0  0
 59 63  2  0  0  0  0
 59 60  1  0  0  0  0
 61 58  2  0  0  0  0
 62 61  1  0  0  0  0
 63 64  1  0  0  0  0
 65 68  1  0  0  0  0
 65 67  1  0  0  0  0
 66 65  1  0  0  0  0
 69 71  1  0  0  0  0
 69 70  1  0  0  0  0
 69 53  1  0  0  0  0
 72 69  1  0  0  0  0
 73 75  1  0  0  0  0
 73 65  1  0  0  0  0
 74 73  1  0  0  0  0
 76 79  1  0  0  0  0
 76 77  1  0  0  0  0
 78 76  1  0  0  0  0
M  END
