1,2,3,11
 OpenBabel05122313063D

 31 32  0  0  0  0  0  0  0  0999 V2000
   -1.6904   -0.8123    0.1066 N   0  0  0  0  0  0  0  0  0  0  0  0
    1.0932   -1.4004   -0.1798 N   0  0  0  0  0  0  0  0  0  0  0  0
   -1.0675    1.6392   -0.4253 N   0  0  0  0  0  2  0  0  0  0  0  0
    2.4328   -1.0832   -0.3918 C   0  0  0  0  0  0  0  0  0  0  0  0
   -3.6157   -2.0195    0.0816 C   0  0  0  0  0  0  0  0  0  0  0  0
   -4.3062   -2.8567    0.2381 H   0  0  0  0  0  0  0  0  0  0  0  0
    0.7789    3.2189   -0.9551 C   0  0  0  0  0  0  0  0  0  0  0  0
    1.0011    4.3060   -0.9785 H   0  0  0  0  0  0  0  0  0  0  0  0
    0.8879    2.8343   -1.9914 H   0  0  0  0  0  0  0  0  0  0  0  0
   -2.6920   -0.0393   -0.4701 C   0  0  0  0  0  0  0  0  0  0  0  0
    1.6603    1.0837   -0.0970 N   0  0  0  0  0  2  0  0  0  0  0  0
   -2.3066    1.2933   -0.7318 C   0  0  0  0  0  3  0  0  0  0  0  0
   -3.0121    2.0422   -1.1395 H   0  0  0  0  0  0  0  0  0  0  0  0
    2.2340   -3.3179   -0.5985 C   0  0  0  0  0  0  0  0  0  0  0  0
    2.4288   -4.3842   -0.7644 H   0  0  0  0  0  0  0  0  0  0  0  0
    2.6946    0.3052   -0.3476 C   0  0  0  0  0  3  0  0  0  0  0  0
    3.6981    0.7354   -0.5212 H   0  0  0  0  0  0  0  0  0  0  0  0
   -2.2439   -1.9929    0.4520 C   0  0  0  0  0  3  0  0  0  0  0  0
   -1.6647   -2.7689    0.9676 H   0  0  0  0  0  0  0  0  0  0  0  0
    3.1674   -2.2636   -0.6552 C   0  0  0  0  0  0  0  0  0  0  0  0
    4.2403   -2.3296   -0.8709 H   0  0  0  0  0  0  0  0  0  0  0  0
    0.9733   -2.7446   -0.3063 C   0  0  0  0  0  3  0  0  0  0  0  0
    0.0040   -3.2464   -0.2157 H   0  0  0  0  0  0  0  0  0  0  0  0
   -3.9040   -0.7784   -0.5111 C   0  0  0  0  0  0  0  0  0  0  0  0
   -4.8656   -0.4332   -0.9088 H   0  0  0  0  0  0  0  0  0  0  0  0
    1.7943    2.5236   -0.0443 C   0  0  0  0  0  0  0  0  0  0  0  0
    2.8289    2.8134   -0.3323 H   0  0  0  0  0  0  0  0  0  0  0  0
    1.6414    2.8659    1.0055 H   0  0  0  0  0  0  0  0  0  0  0  0
   -0.6586    3.0299   -0.4746 C   0  0  0  0  0  0  0  0  0  0  0  0
   -0.7465    3.4653    0.5499 H   0  0  0  0  0  0  0  0  0  0  0  0
   -1.3585    3.6033   -1.1232 H   0  0  0  0  0  0  0  0  0  0  0  0
  1 18  1  0  0  0  0
  4 16  1  0  0  0  0
  4  2  2  0  0  0  0
  5  6  1  0  0  0  0
  5 18  1  0  0  0  0
  7 29  1  0  0  0  0
  7 26  1  0  0  0  0
  8  7  1  0  0  0  0
  9  7  1  0  0  0  0
 10  1  2  0  0  0  0
 11 26  1  0  0  0  0
 12 10  1  0  0  0  0
 12  3  1  0  0  0  0
 13 12  1  0  0  0  0
 14 22  1  0  0  0  0
 15 14  1  0  0  0  0
 16 11  1  0  0  0  0
 17 16  1  0  0  0  0
 18 19  1  0  0  0  0
 20 14  2  0  0  0  0
 20  4  1  0  0  0  0
 21 20  1  0  0  0  0
 22 23  1  0  0  0  0
 22  2  1  0  0  0  0
 24 10  1  0  0  0  0
 24  5  2  0  0  0  0
 25 24  1  0  0  0  0
 26 28  1  0  0  0  0
 27 26  1  0  0  0  0
 29  3  1  0  0  0  0
 29 30  1  0  0  0  0
 31 29  1  0  0  0  0
M  END
