1,2,3,4
 OpenBabel05122313063D

 58 62  0  0  1  0  0  0  0  0999 V2000
    1.9195   -1.0780    0.8714 N   0  0  0  0  0  2  0  0  0  0  0  0
    1.0140    0.7451   -1.0459 N   0  0  0  0  0  0  0  0  0  0  0  0
   -1.0141    0.7450    1.0460 N   0  0  0  0  0  0  0  0  0  0  0  0
   -1.9194   -1.0778   -0.8715 N   0  0  0  0  0  2  0  0  0  0  0  0
    2.2969   -1.7645    1.9680 C   0  0  0  0  0  0  0  0  0  0  0  0
    1.4798   -2.2515    2.5222 H   0  0  0  0  0  0  0  0  0  0  0  0
    3.6468   -1.8946    2.3406 C   0  0  0  0  0  0  0  0  0  0  0  0
    3.8981   -2.4749    3.2392 H   0  0  0  0  0  0  0  0  0  0  0  0
    4.6384   -1.3355    1.5409 C   0  0  0  0  0  0  0  0  0  0  0  0
    5.7034   -1.4668    1.7831 H   0  0  0  0  0  0  0  0  0  0  0  0
    4.2718   -0.5809    0.3919 C   0  0  0  0  0  0  0  0  0  0  0  0
    2.8725   -0.4181    0.1157 C   0  0  0  0  0  0  0  0  0  0  0  0
    5.2174    0.0148   -0.4920 C   0  0  0  0  0  3  0  0  0  0  0  0
    6.2905   -0.1267   -0.2968 H   0  0  0  0  0  0  0  0  0  0  0  0
    4.7853    0.7507   -1.5836 C   0  0  0  0  0  0  0  0  0  0  0  0
    5.5159    1.1909   -2.2775 H   0  0  0  0  0  0  0  0  0  0  0  0
    3.4021    0.9786   -1.8041 C   0  0  0  0  0  0  0  0  0  0  0  0
    3.0966    1.6049   -2.6522 H   0  0  0  0  0  0  0  0  0  0  0  0
    2.4473    0.4276   -0.9540 C   0  0  0  0  0  0  0  0  0  0  0  0
    0.5387    0.8174   -2.4541 C   0  0  0  0  0  0  0  0  0  0  0  0
    0.7401   -0.1601   -2.9240 H   0  0  0  0  0  0  0  0  0  0  0  0
    1.0319    1.6202   -3.0346 H   0  0  0  0  0  0  0  0  0  0  0  0
   -0.5524    0.9940   -2.4612 H   0  0  0  0  0  0  0  0  0  0  0  0
    0.7309    2.0001   -0.2357 C   0  0  1  0  0  0  0  0  0  0  0  0
    1.3795    1.9148    0.6617 H   0  0  0  0  0  0  0  0  0  0  0  0
    1.1027    3.2978   -0.9709 C   0  0  0  0  0  0  0  0  0  0  0  0
    2.1843    3.2816   -1.2116 H   0  0  0  0  0  0  0  0  0  0  0  0
    0.5550    3.3460   -1.9347 H   0  0  0  0  0  0  0  0  0  0  0  0
    0.7461    4.5491   -0.1644 C   0  0  0  0  0  0  0  0  0  0  0  0
    1.3381    4.5802    0.7767 H   0  0  0  0  0  0  0  0  0  0  0  0
    1.0277    5.4527   -0.7410 H   0  0  0  0  0  0  0  0  0  0  0  0
   -0.7467    4.5490    0.1648 C   0  0  0  0  0  0  0  0  0  0  0  0
   -1.3387    4.5803   -0.7763 H   0  0  0  0  0  0  0  0  0  0  0  0
   -1.0283    5.4525    0.7415 H   0  0  0  0  0  0  0  0  0  0  0  0
   -1.1033    3.2976    0.9710 C   0  0  0  0  0  0  0  0  0  0  0  0
   -2.1849    3.2812    1.2116 H   0  0  0  0  0  0  0  0  0  0  0  0
   -0.5558    3.3458    1.9350 H   0  0  0  0  0  0  0  0  0  0  0  0
   -0.7312    2.0000    0.2358 C   0  0  2  0  0  0  0  0  0  0  0  0
   -1.3795    1.9145   -0.6617 H   0  0  0  0  0  0  0  0  0  0  0  0
   -0.5387    0.8172    2.4541 C   0  0  0  0  0  0  0  0  0  0  0  0
   -0.7400   -0.1604    2.9239 H   0  0  0  0  0  0  0  0  0  0  0  0
   -1.0320    1.6199    3.0347 H   0  0  0  0  0  0  0  0  0  0  0  0
    0.5524    0.9940    2.4612 H   0  0  0  0  0  0  0  0  0  0  0  0
   -2.4473    0.4275    0.9542 C   0  0  0  0  0  0  0  0  0  0  0  0
   -3.4021    0.9780    1.8045 C   0  0  0  0  0  0  0  0  0  0  0  0
   -3.0967    1.6041    2.6528 H   0  0  0  0  0  0  0  0  0  0  0  0
   -4.7853    0.7498    1.5841 C   0  0  0  0  0  0  0  0  0  0  0  0
   -5.5160    1.1895    2.2783 H   0  0  0  0  0  0  0  0  0  0  0  0
   -5.2173    0.0142    0.4923 C   0  0  0  0  0  0  0  0  0  0  0  0
   -6.2904   -0.1275    0.2971 H   0  0  0  0  0  0  0  0  0  0  0  0
   -4.2717   -0.5811   -0.3918 C   0  0  0  0  0  0  0  0  0  0  0  0
   -2.8724   -0.4181   -0.1157 C   0  0  2  0  0  3  0  0  0  0  0  0
   -4.6382   -1.3354   -1.5411 C   0  0  0  0  0  0  0  0  0  0  0  0
   -5.7032   -1.4668   -1.7834 H   0  0  0  0  0  0  0  0  0  0  0  0
   -3.6465   -1.8941   -2.3410 C   0  0  0  0  0  0  0  0  0  0  0  0
   -3.8978   -2.4741   -3.2398 H   0  0  0  0  0  0  0  0  0  0  0  0
   -2.2966   -1.7640   -1.9683 C   0  0  0  0  0  0  0  0  0  0  0  0
   -1.4796   -2.2508   -2.5227 H   0  0  0  0  0  0  0  0  0  0  0  0
  1  5  1  0  0  0  0
  2 19  1  0  0  0  0
  2 24  1  0  0  0  0
  3 40  1  0  0  0  0
  5  7  2  0  0  0  0
  5  6  1  0  0  0  0
  7  8  1  0  0  0  0
  9 10  1  0  0  0  0
  9  7  1  0  0  0  0
 11  9  2  0  0  0  0
 12 11  1  0  0  0  0
 12  1  1  0  0  0  0
 13 14  1  0  0  0  0
 13 11  1  0  0  0  0
 15 13  1  0  0  0  0
 16 15  1  0  0  0  0
 17 15  2  0  0  0  0
 17 19  1  0  0  0  0
 18 17  1  0  0  0  0
 19 12  2  0  0  0  0
 20  2  1  0  0  0  0
 21 20  1  0  0  0  0
 22 20  1  0  0  0  0
 23 20  1  0  0  0  0
 24 38  1  0  0  0  0
 24 25  1  1  0  0  0
 26 24  1  0  0  0  0
 26 29  1  0  0  0  0
 27 26  1  0  0  0  0
 28 26  1  0  0  0  0
 29 32  1  0  0  0  0
 29 30  1  0  0  0  0
 31 29  1  0  0  0  0
 32 34  1  0  0  0  0
 32 35  1  0  0  0  0
 33 32  1  0  0  0  0
 35 36  1  0  0  0  0
 35 37  1  0  0  0  0
 38 39  1  6  0  0  0
 38 35  1  0  0  0  0
 38  3  1  0  0  0  0
 40 43  1  0  0  0  0
 40 41  1  0  0  0  0
 40 42  1  0  0  0  0
 44  3  1  0  0  0  0
 44 45  2  0  0  0  0
 45 46  1  0  0  0  0
 47 45  1  0  0  0  0
 47 48  1  0  0  0  0
 49 47  2  0  0  0  0
 50 49  1  0  0  0  0
 51 52  1  0  0  0  0
 51 49  1  0  0  0  0
 52  4  1  1  0  0  0
 52 44  1  0  0  0  0
 53 51  2  0  0  0  0
 54 53  1  0  0  0  0
 55 57  2  0  0  0  0
 55 53  1  0  0  0  0
 56 55  1  0  0  0  0
 57  4  1  0  0  0  0
 58 57  1  0  0  0  0
M  END
