3,4,5,6
 OpenBabel05122313063D

 50 53  0  0  0  0  0  0  0  0999 V2000
    0.8948   -1.2952   -1.5284 S   0  0  0  0  0  0  0  0  0  0  0  0
   -0.8953   -1.2939    1.5295 S   0  0  0  0  0  0  0  0  0  0  0  0
    1.8955    0.2774    0.8679 N   0  0  0  0  0  2  0  0  0  0  0  0
   -0.1302    1.9283    1.6947 N   0  0  0  0  0  0  0  0  0  0  0  0
    0.1306    1.9270   -1.6959 N   0  0  0  0  0  0  0  0  0  0  0  0
   -1.8954    0.2771   -0.8682 N   0  0  0  0  0  2  0  0  0  0  0  0
    0.8402    2.4787    3.7124 C   0  0  0  0  0  0  0  0  0  0  0  0
    1.5612    2.5203    4.5381 H   0  0  0  0  0  0  0  0  0  0  0  0
   -4.1896   -0.6558   -0.8245 C   0  0  0  0  0  0  0  0  0  0  0  0
   -4.5003   -0.0097   -1.6581 H   0  0  0  0  0  0  0  0  0  0  0  0
   -2.8588   -0.5674   -0.3341 C   0  0  0  0  0  0  0  0  0  0  0  0
   -2.0085    0.8731   -2.0487 C   0  0  0  0  0  3  0  0  0  0  0  0
   -2.8794    0.6956   -2.7099 H   0  0  0  0  0  0  0  0  0  0  0  0
   -3.4742   -2.2532    1.3575 C   0  0  0  0  0  0  0  0  0  0  0  0
   -3.1804   -2.8550    2.2308 H   0  0  0  0  0  0  0  0  0  0  0  0
    3.4737   -2.2546   -1.3561 C   0  0  0  0  0  0  0  0  0  0  0  0
    3.1797   -2.8571   -2.2290 H   0  0  0  0  0  0  0  0  0  0  0  0
    2.5192   -1.3937   -0.7850 C   0  0  0  0  0  0  0  0  0  0  0  0
    2.8588   -0.5676    0.3343 C   0  0  0  0  0  0  0  0  0  0  0  0
    2.0087    0.8742    2.0481 C   0  0  0  0  0  3  0  0  0  0  0  0
    2.8796    0.6969    2.7093 H   0  0  0  0  0  0  0  0  0  0  0  0
   -2.5195   -1.3928    0.7859 C   0  0  0  0  0  0  0  0  0  0  0  0
   -5.1213   -1.5285   -0.2574 C   0  0  0  0  0  0  0  0  0  0  0  0
   -6.1432   -1.5648   -0.6654 H   0  0  0  0  0  0  0  0  0  0  0  0
    0.9831    1.7307    2.5046 C   0  0  0  0  0  3  0  0  0  0  0  0
   -0.9827    1.7291   -2.5058 C   0  0  0  0  0  0  0  0  0  0  0  0
    5.1211   -1.5288    0.2579 C   0  0  0  0  0  0  0  0  0  0  0  0
    6.1431   -1.5648    0.6657 H   0  0  0  0  0  0  0  0  0  0  0  0
   -0.9475    2.7649    2.3545 C   0  0  0  0  0  0  0  0  0  0  0  0
   -1.9099    3.0738    1.9227 H   0  0  0  0  0  0  0  0  0  0  0  0
    4.1896   -0.6556    0.8246 C   0  0  0  0  0  0  0  0  0  0  0  0
    4.5005   -0.0088    1.6575 H   0  0  0  0  0  0  0  0  0  0  0  0
    0.3901    3.1371   -3.6156 C   0  0  0  0  0  0  0  0  0  0  0  0
    0.8464    3.8090   -4.3525 H   0  0  0  0  0  0  0  0  0  0  0  0
    0.0379   -2.7255   -0.7585 C   0  0  0  0  0  0  0  0  0  0  0  0
   -0.9776   -2.7015   -1.2066 H   0  0  0  0  0  0  0  0  0  0  0  0
    0.5342   -3.6567   -1.1041 H   0  0  0  0  0  0  0  0  0  0  0  0
    4.7709   -2.3411   -0.8350 C   0  0  0  0  0  0  0  0  0  0  0  0
    5.5077   -3.0194   -1.2895 H   0  0  0  0  0  0  0  0  0  0  0  0
   -0.0384   -2.7248    0.7609 C   0  0  0  0  0  0  0  0  0  0  0  0
    0.9772   -2.7004    1.2089 H   0  0  0  0  0  0  0  0  0  0  0  0
   -0.5347   -3.6557    1.1073 H   0  0  0  0  0  0  0  0  0  0  0  0
   -0.8396    2.4765   -3.7140 C   0  0  0  0  0  0  0  0  0  0  0  0
   -1.5606    2.5177   -4.5397 H   0  0  0  0  0  0  0  0  0  0  0  0
   -4.7713   -2.3400    0.8362 C   0  0  0  0  0  0  0  0  0  0  0  0
   -5.5082   -3.0179    1.2910 H   0  0  0  0  0  0  0  0  0  0  0  0
   -0.3894    3.1395    3.6137 C   0  0  0  0  0  0  0  0  0  0  0  0
   -0.8455    3.8120    4.3502 H   0  0  0  0  0  0  0  0  0  0  0  0
    0.9481    2.7631   -2.3562 C   0  0  0  0  0  3  0  0  0  0  0  0
    1.9105    3.0721   -1.9245 H   0  0  0  0  0  0  0  0  0  0  0  0
  1 18  1  0  0  0  0
  1 35  1  0  0  0  0
  3 20  1  0  0  0  0
  4 29  2  0  0  0  0
  4 25  1  0  0  0  0
  6 11  1  0  0  0  0
  7  8  1  0  0  0  0
  9 11  2  0  0  0  0
  9 23  1  0  0  0  0
 10  9  1  0  0  0  0
 11 22  1  0  0  0  0
 12  6  1  0  0  0  0
 13 12  1  0  0  0  0
 14 15  1  0  0  0  0
 16 38  2  0  0  0  0
 16 18  1  0  0  0  0
 17 16  1  0  0  0  0
 18 19  2  0  0  0  0
 19 31  1  0  0  0  0
 19  3  1  0  0  0  0
 20 25  1  0  0  0  0
 20 21  1  0  0  0  0
 22 14  2  0  0  0  0
 22  2  1  0  0  0  0
 23 45  2  0  0  0  0
 24 23  1  0  0  0  0
 25  7  1  0  0  0  0
 26 12  1  0  0  0  0
 26  5  2  0  0  0  0
 27 28  1  0  0  0  0
 27 31  2  0  0  0  0
 29 47  1  0  0  0  0
 30 29  1  0  0  0  0
 31 32  1  0  0  0  0
 33 49  1  0  0  0  0
 34 33  1  0  0  0  0
 35 40  1  0  0  0  0
 36 35  1  0  0  0  0
 37 35  1  0  0  0  0
 38 27  1  0  0  0  0
 39 38  1  0  0  0  0
 40 42  1  0  0  0  0
 40 41  1  0  0  0  0
 40  2  1  0  0  0  0
 43 33  2  0  0  0  0
 43 26  1  0  0  0  0
 44 43  1  0  0  0  0
 45 46  1  0  0  0  0
 45 14  1  0  0  0  0
 47  7  2  0  0  0  0
 47 48  1  0  0  0  0
 49 50  1  0  0  0  0
 49  5  1  0  0  0  0
M  END
