1,2,5,6
 OpenBabel05122313063D

 56 59  0  0  0  0  0  0  0  0999 V2000
    1.5931    1.3288   -0.4038 N   0  0  0  0  0  2  0  0  0  0  0  0
   -1.5996   -0.8328    1.0206 N   0  0  0  0  0  2  0  0  0  0  0  0
    1.4040   -1.1865   -1.1054 O   0  0  0  0  0  0  0  0  0  0  0  0
   -1.3888    0.1000   -1.4157 O   0  0  0  0  0  0  0  0  0  0  0  0
    0.8270   -0.6462    2.1714 N   0  0  0  0  0  0  0  0  0  0  0  0
   -0.6601    2.3491    0.7057 N   0  0  0  0  0  0  0  0  0  0  0  0
   -2.6588   -0.2515   -1.0322 C   0  0  0  0  0  0  0  0  0  0  0  0
   -3.7847   -0.1329   -1.8575 C   0  0  0  0  0  0  0  0  0  0  0  0
   -3.6737    0.2525   -2.8813 H   0  0  0  0  0  0  0  0  0  0  0  0
   -5.0507   -0.5003   -1.3706 C   0  0  0  0  0  0  0  0  0  0  0  0
   -5.9324   -0.4010   -2.0209 H   0  0  0  0  0  0  0  0  0  0  0  0
   -5.1903   -0.9761   -0.0566 C   0  0  0  0  0  0  0  0  0  0  0  0
   -6.1845   -1.2473    0.3289 H   0  0  0  0  0  0  0  0  0  0  0  0
   -4.0676   -1.0945    0.7740 C   0  0  0  0  0  0  0  0  0  0  0  0
   -4.1818   -1.4453    1.8105 H   0  0  0  0  0  0  0  0  0  0  0  0
   -2.7828   -0.7495    0.3007 C   0  0  0  0  0  0  0  0  0  0  0  0
   -1.3737   -1.6081    2.0676 C   0  0  0  0  0  3  0  0  0  0  0  0
   -2.1386   -2.3155    2.4451 H   0  0  0  0  0  0  0  0  0  0  0  0
   -0.0977   -1.5504    2.6839 C   0  0  0  0  0  0  0  0  0  0  0  0
    0.4894   -2.2839    3.7542 C   0  0  0  0  0  0  0  0  0  0  0  0
    0.0016   -3.0658    4.3493 H   0  0  0  0  0  0  0  0  0  0  0  0
    1.8023   -1.8052    3.8782 C   0  0  0  0  0  0  0  0  0  0  0  0
    2.5650   -2.1335    4.5947 H   0  0  0  0  0  0  0  0  0  0  0  0
    1.9601   -0.7994    2.8828 C   0  0  0  0  0  3  0  0  0  0  0  0
    2.8514   -0.1954    2.6620 H   0  0  0  0  0  0  0  0  0  0  0  0
   -1.7115    3.0960    1.0918 C   0  0  0  0  0  3  0  0  0  0  0  0
   -2.5519    2.6485    1.6408 H   0  0  0  0  0  0  0  0  0  0  0  0
   -1.5449    4.4520    0.6914 C   0  0  0  0  0  0  0  0  0  0  0  0
   -2.2466    5.2739    0.8782 H   0  0  0  0  0  0  0  0  0  0  0  0
   -0.3144    4.5194    0.0211 C   0  0  0  0  0  0  0  0  0  0  0  0
    0.1547    5.4010   -0.4331 H   0  0  0  0  0  0  0  0  0  0  0  0
    0.2156    3.1977    0.0379 C   0  0  0  0  0  0  0  0  0  0  0  0
    1.4033    2.6361   -0.4931 C   0  0  0  0  0  3  0  0  0  0  0  0
    2.1486    3.2900   -0.9878 H   0  0  0  0  0  0  0  0  0  0  0  0
    2.7792    0.6826   -0.7343 C   0  0  0  0  0  0  0  0  0  0  0  0
    4.0594    1.2736   -0.7027 C   0  0  0  0  0  0  0  0  0  0  0  0
    4.1516    2.3271   -0.3996 H   0  0  0  0  0  0  0  0  0  0  0  0
    5.2066    0.5272   -1.0122 C   0  0  0  0  0  0  0  0  0  0  0  0
    6.1961    1.0066   -0.9757 H   0  0  0  0  0  0  0  0  0  0  0  0
    5.0914   -0.8307   -1.3403 C   0  0  0  0  0  0  0  0  0  0  0  0
    5.9885   -1.4253   -1.5679 H   0  0  0  0  0  0  0  0  0  0  0  0
    3.8282   -1.4500   -1.3677 C   0  0  0  0  0  0  0  0  0  0  0  0
    3.7491   -2.5168   -1.6160 H   0  0  0  0  0  0  0  0  0  0  0  0
    2.6782   -0.7016   -1.0761 C   0  0  0  0  0  0  0  0  0  0  0  0
    1.1563   -2.4958   -1.6140 C   0  0  0  0  0  0  0  0  0  0  0  0
    1.5349   -3.2567   -0.8939 H   0  0  0  0  0  0  0  0  0  0  0  0
    1.7089   -2.6309   -2.5733 H   0  0  0  0  0  0  0  0  0  0  0  0
   -0.3413   -2.6539   -1.8278 C   0  0  0  0  0  0  0  0  0  0  0  0
   -0.8554   -2.4523   -0.8656 H   0  0  0  0  0  0  0  0  0  0  0  0
   -0.5295   -3.7225   -2.0621 H   0  0  0  0  0  0  0  0  0  0  0  0
   -0.9554   -1.7919   -2.9428 C   0  0  0  0  0  0  0  0  0  0  0  0
   -0.4446   -1.9944   -3.9102 H   0  0  0  0  0  0  0  0  0  0  0  0
   -2.0104   -2.1089   -3.0813 H   0  0  0  0  0  0  0  0  0  0  0  0
   -0.9208   -0.2764   -2.7178 C   0  0  0  0  0  0  0  0  0  0  0  0
    0.1109    0.1188   -2.7504 H   0  0  0  0  0  0  0  0  0  0  0  0
   -1.5087    0.2443   -3.5063 H   0  0  0  0  0  0  0  0  0  0  0  0
  2 17  1  0  0  0  0
  3 44  1  0  0  0  0
  4  7  1  0  0  0  0
  5 19  2  0  0  0  0
  5 24  1  0  0  0  0
  6 26  1  0  0  0  0
  7 16  1  0  0  0  0
  8 10  1  0  0  0  0
  8  7  2  0  0  0  0
  9  8  1  0  0  0  0
 10 12  2  0  0  0  0
 11 10  1  0  0  0  0
 12 13  1  0  0  0  0
 12 14  1  0  0  0  0
 14 15  1  0  0  0  0
 16 14  2  0  0  0  0
 16  2  1  0  0  0  0
 17 18  1  0  0  0  0
 17 19  1  0  0  0  0
 19 20  1  0  0  0  0
 20 22  2  0  0  0  0
 20 21  1  0  0  0  0
 22 23  1  0  0  0  0
 24 22  1  0  0  0  0
 25 24  1  0  0  0  0
 26 27  1  0  0  0  0
 28 29  1  0  0  0  0
 28 26  1  0  0  0  0
 30 32  1  0  0  0  0
 30 28  2  0  0  0  0
 31 30  1  0  0  0  0
 32  6  2  0  0  0  0
 33  1  1  0  0  0  0
 33 32  1  0  0  0  0
 34 33  1  0  0  0  0
 35 36  1  0  0  0  0
 35  1  1  0  0  0  0
 36 37  1  0  0  0  0
 38 39  1  0  0  0  0
 38 36  2  0  0  0  0
 40 38  1  0  0  0  0
 41 40  1  0  0  0  0
 42 40  2  0  0  0  0
 42 44  1  0  0  0  0
 43 42  1  0  0  0  0
 44 35  2  0  0  0  0
 45  3  1  0  0  0  0
 45 46  1  0  0  0  0
 47 45  1  0  0  0  0
 48 45  1  0  0  0  0
 48 49  1  0  0  0  0
 50 48  1  0  0  0  0
 51 54  1  0  0  0  0
 51 48  1  0  0  0  0
 52 51  1  0  0  0  0
 53 51  1  0  0  0  0
 54  4  1  0  0  0  0
 55 54  1  0  0  0  0
 56 54  1  0  0  0  0
M  END
