3,4,5,13
 OpenBabel05122313063D

 50 53  0  0  0  0  0  0  0  0999 V2000
    1.0779    1.0179   -1.4196 O   0  0  0  0  0  0  0  0  0  0  0  0
   -1.0768   -1.0218   -1.4174 O   0  0  0  0  0  0  0  0  0  0  0  0
   -1.6687    1.0884    0.1600 N   0  0  0  0  0  2  0  0  0  0  0  0
    1.6687   -1.0880    0.1639 N   0  0  0  0  0  2  0  0  0  0  0  0
    0.4310    1.7235    1.7518 N   0  0  0  0  0  0  0  0  0  0  0  0
   -2.6910    0.5833   -0.6319 C   0  0  0  0  0  0  0  0  0  0  0  0
   -0.2429    3.8802    2.2011 C   0  0  0  0  0  0  0  0  0  0  0  0
   -0.8411    4.7998    2.2044 H   0  0  0  0  0  0  0  0  0  0  0  0
   -2.3658   -0.5253   -1.4666 C   0  0  0  0  0  0  0  0  0  0  0  0
    3.3345    1.1091   -2.2915 C   0  0  0  0  0  0  0  0  0  0  0  0
    3.0490    1.9728   -2.9107 H   0  0  0  0  0  0  0  0  0  0  0  0
    2.3667    0.5207   -1.4672 C   0  0  0  0  0  0  0  0  0  0  0  0
   -0.4318   -1.7179    1.7567 N   0  0  0  0  0  0  0  0  0  0  0  0
    0.2487    0.7174   -2.5477 C   0  0  0  0  0  0  0  0  0  0  0  0
    0.7972    0.9129   -3.4968 H   0  0  0  0  0  0  0  0  0  0  0  0
   -0.6057    1.4210   -2.4905 H   0  0  0  0  0  0  0  0  0  0  0  0
   -1.6527    2.2992    0.6978 C   0  0  0  0  0  3  0  0  0  0  0  0
   -2.4575    3.0326    0.4950 H   0  0  0  0  0  0  0  0  0  0  0  0
    0.9776    3.6488    2.8499 C   0  0  0  0  0  0  0  0  0  0  0  0
    1.5443    4.3515    3.4725 H   0  0  0  0  0  0  0  0  0  0  0  0
    0.5630   -2.6639    1.5309 C   0  0  0  0  0  0  0  0  0  0  0  0
   -4.6441   -0.6149   -2.3075 C   0  0  0  0  0  0  0  0  0  0  0  0
   -5.4032   -1.0849   -2.9498 H   0  0  0  0  0  0  0  0  0  0  0  0
   -0.5640    2.6686    1.5230 C   0  0  0  0  0  0  0  0  0  0  0  0
    1.6520   -2.2973    0.7050 C   0  0  0  0  0  3  0  0  0  0  0  0
    2.4566   -3.0316    0.5045 H   0  0  0  0  0  0  0  0  0  0  0  0
   -4.9832    0.4732   -1.4851 C   0  0  0  0  0  0  0  0  0  0  0  0
   -6.0140    0.8585   -1.4798 H   0  0  0  0  0  0  0  0  0  0  0  0
    4.0240   -1.0625   -0.6469 C   0  0  0  0  0  0  0  0  0  0  0  0
    4.3091   -1.8887    0.0212 H   0  0  0  0  0  0  0  0  0  0  0  0
    4.9837   -0.4789   -1.4825 C   0  0  0  0  0  0  0  0  0  0  0  0
    6.0143   -0.8646   -1.4760 H   0  0  0  0  0  0  0  0  0  0  0  0
   -3.3332   -1.1164   -2.2894 C   0  0  0  0  0  0  0  0  0  0  0  0
   -3.0473   -1.9817   -2.9061 H   0  0  0  0  0  0  0  0  0  0  0  0
   -0.2475   -0.7238   -2.5461 C   0  0  0  0  0  0  0  0  0  0  0  0
   -0.7958   -0.9216   -3.4949 H   0  0  0  0  0  0  0  0  0  0  0  0
    0.6070   -1.4273   -2.4872 H   0  0  0  0  0  0  0  0  0  0  0  0
    4.6451    0.6070   -2.3080 C   0  0  0  0  0  0  0  0  0  0  0  0
    5.4046    1.0749   -2.9516 H   0  0  0  0  0  0  0  0  0  0  0  0
    1.3496    2.3085    2.5411 C   0  0  0  0  0  3  0  0  0  0  0  0
    2.2481    1.7640    2.8639 H   0  0  0  0  0  0  0  0  0  0  0  0
    0.2413   -3.8735    2.2125 C   0  0  0  0  0  0  0  0  0  0  0  0
    0.8392   -4.7932    2.2187 H   0  0  0  0  0  0  0  0  0  0  0  0
   -4.0239    1.0596   -0.6510 C   0  0  0  0  0  0  0  0  0  0  0  0
   -4.3094    1.8875    0.0148 H   0  0  0  0  0  0  0  0  0  0  0  0
   -1.3508   -2.3002    2.5475 C   0  0  0  0  0  3  0  0  0  0  0  0
   -2.2491   -1.7545    2.8684 H   0  0  0  0  0  0  0  0  0  0  0  0
    2.6914   -0.5856   -0.6293 C   0  0  0  0  0  0  0  0  0  0  0  0
   -0.9792   -3.6397    2.8604 C   0  0  0  0  0  0  0  0  0  0  0  0
   -1.5464   -4.3403    3.4850 H   0  0  0  0  0  0  0  0  0  0  0  0
  3 17  1  0  0  0  0
  4 25  1  0  0  0  0
  5 40  1  0  0  0  0
  6  3  1  0  0  0  0
  7  8  1  0  0  0  0
  7 19  2  0  0  0  0
  9  2  1  0  0  0  0
  9  6  2  0  0  0  0
 10 12  1  0  0  0  0
 11 10  1  0  0  0  0
 12  1  1  0  0  0  0
 12 48  2  0  0  0  0
 13 46  1  0  0  0  0
 14 35  1  0  0  0  0
 14 16  1  0  0  0  0
 14  1  1  0  0  0  0
 15 14  1  0  0  0  0
 17 24  1  0  0  0  0
 18 17  1  0  0  0  0
 19 20  1  0  0  0  0
 21 13  2  0  0  0  0
 21 42  1  0  0  0  0
 22 33  2  0  0  0  0
 22 27  1  0  0  0  0
 23 22  1  0  0  0  0
 24  5  2  0  0  0  0
 24  7  1  0  0  0  0
 25 21  1  0  0  0  0
 26 25  1  0  0  0  0
 27 28  1  0  0  0  0
 27 44  2  0  0  0  0
 29 48  1  0  0  0  0
 29 30  1  0  0  0  0
 31 32  1  0  0  0  0
 31 29  2  0  0  0  0
 33  9  1  0  0  0  0
 34 33  1  0  0  0  0
 35 37  1  0  0  0  0
 35  2  1  0  0  0  0
 36 35  1  0  0  0  0
 38 10  2  0  0  0  0
 38 31  1  0  0  0  0
 39 38  1  0  0  0  0
 40 19  1  0  0  0  0
 40 41  1  0  0  0  0
 42 43  1  0  0  0  0
 42 49  2  0  0  0  0
 44  6  1  0  0  0  0
 44 45  1  0  0  0  0
 46 49  1  0  0  0  0
 46 47  1  0  0  0  0
 48  4  1  0  0  0  0
 49 50  1  0  0  0  0
M  END
