1,2,3,4
 OpenBabel05122313063D

 35 36  0  0  1  0  0  0  0  0999 V2000
   -1.4080    1.3431    0.3061 N   0  0  0  0  0  2  0  0  0  0  0  0
   -1.3721   -1.1673   -0.1269 N   0  0  0  0  0  2  0  0  0  0  0  0
    1.5062   -0.9862    0.1995 N   0  0  0  0  0  2  0  0  0  0  0  0
    1.2507    1.4756   -0.2452 N   0  0  0  0  0  2  0  0  0  0  0  0
   -2.4755    3.3314    0.5820 O   0  0  0  0  0  0  0  0  0  0  0  0
    1.9472    3.5407   -0.9082 O   0  0  0  0  0  0  0  0  0  0  0  0
   -2.7241    0.7403    0.4405 C   0  0  0  0  0  0  0  0  0  0  0  0
   -2.6400   -0.7054    0.0860 C   0  0  1  0  0  3  0  0  0  0  0  0
    2.6576   -0.4346   -0.2860 C   0  0  1  0  0  3  0  0  0  0  0  0
    2.4624    0.9361   -0.8485 C   0  0  0  0  0  0  0  0  0  0  0  0
    1.1061    2.8290   -0.3388 C   0  0  0  0  0  0  0  0  0  0  0  0
   -0.0837    3.4330    0.3852 C   0  0  0  0  0  0  0  0  0  0  0  0
   -1.4185    2.7060    0.4059 C   0  0  0  0  0  0  0  0  0  0  0  0
   -3.7570   -1.5370   -0.0860 C   0  0  0  0  0  0  0  0  0  0  0  0
   -3.5844   -2.8541   -0.5251 C   0  0  0  0  0  0  0  0  0  0  0  0
   -2.2819   -3.2993   -0.8092 C   0  0  0  0  0  0  0  0  0  0  0  0
   -1.2110   -2.4313   -0.6019 C   0  0  0  0  0  0  0  0  0  0  0  0
    1.5684   -2.1698    0.8601 C   0  0  0  0  0  0  0  0  0  0  0  0
    2.7598   -2.8831    1.0023 C   0  0  0  0  0  0  0  0  0  0  0  0
    3.9381   -2.3554    0.4492 C   0  0  0  0  0  0  0  0  0  0  0  0
    3.8814   -1.1094   -0.1903 C   0  0  0  0  0  0  0  0  0  0  0  0
   -3.1335    0.8688    1.4732 H   0  0  0  0  0  0  0  0  0  0  0  0
   -3.4745    1.2506   -0.2072 H   0  0  0  0  0  0  0  0  0  0  0  0
    2.3982    0.8867   -1.9658 H   0  0  0  0  0  0  0  0  0  0  0  0
    3.3368    1.5919   -0.6445 H   0  0  0  0  0  0  0  0  0  0  0  0
    0.2169    3.5602    1.4497 H   0  0  0  0  0  0  0  0  0  0  0  0
   -0.2522    4.4525   -0.0066 H   0  0  0  0  0  0  0  0  0  0  0  0
   -4.7588   -1.1271    0.1090 H   0  0  0  0  0  0  0  0  0  0  0  0
   -4.4507   -3.5161   -0.6700 H   0  0  0  0  0  0  0  0  0  0  0  0
   -2.0917   -4.3099   -1.1973 H   0  0  0  0  0  0  0  0  0  0  0  0
   -0.1817   -2.7387   -0.8313 H   0  0  0  0  0  0  0  0  0  0  0  0
    0.6270   -2.5347    1.2955 H   0  0  0  0  0  0  0  0  0  0  0  0
    2.7591   -3.8363    1.5497 H   0  0  0  0  0  0  0  0  0  0  0  0
    4.8923   -2.8948    0.5408 H   0  0  0  0  0  0  0  0  0  0  0  0
    4.7855   -0.6368   -0.6005 H   0  0  0  0  0  0  0  0  0  0  0  0
  1 13  1  0  0  0  0
  1  7  1  0  0  0  0
  2  8  1  0  0  0  0
  3 18  1  0  0  0  0
  6 11  2  0  0  0  0
  7 22  1  0  0  0  0
  8  7  1  6  0  0  0
  9 10  1  1  0  0  0
  9 21  1  0  0  0  0
  9  3  1  0  0  0  0
 10 25  1  0  0  0  0
 10  4  1  0  0  0  0
 11  4  1  0  0  0  0
 11 12  1  0  0  0  0
 12 13  1  0  0  0  0
 12 26  1  0  0  0  0
 13  5  2  0  0  0  0
 14  8  1  0  0  0  0
 14 28  1  0  0  0  0
 15 14  2  0  0  0  0
 16 17  2  0  0  0  0
 16 15  1  0  0  0  0
 17  2  1  0  0  0  0
 18 19  2  0  0  0  0
 18 32  1  0  0  0  0
 19 33  1  0  0  0  0
 20 34  1  0  0  0  0
 20 19  1  0  0  0  0
 21 20  2  0  0  0  0
 23  7  1  0  0  0  0
 24 10  1  0  0  0  0
 27 12  1  0  0  0  0
 29 15  1  0  0  0  0
 30 16  1  0  0  0  0
 31 17  1  0  0  0  0
 35 21  1  0  0  0  0
M  END
