1,2,3,4
 OpenBabel05122313063D

 41 42  0  0  0  0  0  0  0  0999 V2000
    0.4332    1.8093   -0.6512 N   0  0  0  0  0  2  0  0  0  0  0  0
   -1.7709    0.7839   -0.0265 N   0  0  0  0  0  2  0  0  0  0  0  0
   -0.7637   -1.7736   -0.4048 N   0  0  0  0  0  2  0  0  0  0  0  0
    1.6325   -0.9849   -0.5332 N   0  0  0  0  0  2  0  0  0  0  0  0
    1.5808    2.3044   -1.2031 C   0  0  0  0  0  3  0  0  0  0  0  0
    2.3314    1.5601   -1.4981 H   0  0  0  0  0  0  0  0  0  0  0  0
    1.8206    3.6542   -1.4251 C   0  0  0  0  0  0  0  0  0  0  0  0
    2.7734    3.9607   -1.8801 H   0  0  0  0  0  0  0  0  0  0  0  0
    0.8281    4.6105   -1.0769 C   0  0  0  0  0  0  0  0  0  0  0  0
    1.0046    5.6866   -1.2196 H   0  0  0  0  0  0  0  0  0  0  0  0
   -0.3807    4.1420   -0.5840 C   0  0  0  0  0  0  0  0  0  0  0  0
   -1.2041    4.8289   -0.3354 H   0  0  0  0  0  0  0  0  0  0  0  0
   -0.5886    2.7479   -0.4146 C   0  0  0  0  0  0  0  0  0  0  0  0
   -1.8123    2.1276   -0.0773 C   0  0  0  0  0  3  0  0  0  0  0  0
   -2.7474    2.6884    0.0869 H   0  0  0  0  0  0  0  0  0  0  0  0
   -3.0229    0.0963    0.2351 C   0  0  0  0  0  0  0  0  0  0  0  0
   -3.8786    0.7838    0.0452 H   0  0  0  0  0  0  0  0  0  0  0  0
   -3.0781   -0.1921    1.3135 H   0  0  0  0  0  0  0  0  0  0  0  0
   -3.2116   -1.1840   -0.6018 C   0  0  0  0  0  0  0  0  0  0  0  0
   -2.1378   -2.2046   -0.1847 C   0  0  0  0  0  0  0  0  0  0  0  0
   -2.3231   -3.1621   -0.7238 H   0  0  0  0  0  0  0  0  0  0  0  0
   -2.2788   -2.4219    0.9029 H   0  0  0  0  0  0  0  0  0  0  0  0
    0.1084   -2.7516   -0.7256 C   0  0  0  0  0  0  0  0  0  0  0  0
   -0.2229   -3.7880   -0.9030 H   0  0  0  0  0  0  0  0  0  0  0  0
    1.4601   -2.3579   -0.7892 C   0  0  0  0  0  0  0  0  0  0  0  0
    2.5637   -3.2179   -1.0360 C   0  0  0  0  0  0  0  0  0  0  0  0
    2.3609   -4.2786   -1.2490 H   0  0  0  0  0  0  0  0  0  0  0  0
    3.8586   -2.7258   -0.9897 C   0  0  0  0  0  0  0  0  0  0  0  0
    4.7220   -3.3798   -1.1805 H   0  0  0  0  0  0  0  0  0  0  0  0
    4.0390   -1.3538   -0.6618 C   0  0  0  0  0  0  0  0  0  0  0  0
    5.0424   -0.9124   -0.5786 H   0  0  0  0  0  0  0  0  0  0  0  0
    2.9263   -0.5542   -0.4380 C   0  0  0  0  0  0  0  0  0  0  0  0
    3.0600    0.4974   -0.1546 H   0  0  0  0  0  0  0  0  0  0  0  0
   -3.1197   -0.8742   -2.1028 C   0  0  0  0  0  0  0  0  0  0  0  0
   -3.2712   -1.7944   -2.7035 H   0  0  0  0  0  0  0  0  0  0  0  0
   -2.1260   -0.4540   -2.3512 H   0  0  0  0  0  0  0  0  0  0  0  0
   -3.8934   -0.1376   -2.4017 H   0  0  0  0  0  0  0  0  0  0  0  0
   -4.5894   -1.7765   -0.2668 C   0  0  0  0  0  0  0  0  0  0  0  0
   -4.7599   -2.7220   -0.8210 H   0  0  0  0  0  0  0  0  0  0  0  0
   -5.4010   -1.0732   -0.5440 H   0  0  0  0  0  0  0  0  0  0  0  0
   -4.6855   -1.9967    0.8174 H   0  0  0  0  0  0  0  0  0  0  0  0
  1 13  1  0  0  0  0
  2 16  1  0  0  0  0
  3 20  1  0  0  0  0
  4 32  1  0  0  0  0
  5  1  1  0  0  0  0
  6  5  1  0  0  0  0
  7  5  1  0  0  0  0
  7  9  2  0  0  0  0
  8  7  1  0  0  0  0
  9 11  1  0  0  0  0
 10  9  1  0  0  0  0
 11 13  2  0  0  0  0
 11 12  1  0  0  0  0
 13 14  1  0  0  0  0
 14  2  1  0  0  0  0
 14 15  1  0  0  0  0
 16 18  1  0  0  0  0
 17 16  1  0  0  0  0
 19 38  1  0  0  0  0
 19 20  1  0  0  0  0
 19 16  1  0  0  0  0
 20 22  1  0  0  0  0
 21 20  1  0  0  0  0
 23  3  1  0  0  0  0
 24 23  1  0  0  0  0
 25 23  2  0  0  0  0
 25  4  1  0  0  0  0
 26 28  2  0  0  0  0
 26 25  1  0  0  0  0
 27 26  1  0  0  0  0
 28 30  1  0  0  0  0
 29 28  1  0  0  0  0
 30 31  1  0  0  0  0
 30 32  2  0  0  0  0
 32 33  1  0  0  0  0
 34 19  1  0  0  0  0
 35 34  1  0  0  0  0
 36 34  1  0  0  0  0
 37 34  1  0  0  0  0
 38 41  1  0  0  0  0
 39 38  1  0  0  0  0
 40 38  1  0  0  0  0
M  END
