1,2,3,4
 OpenBabel05122313063D

 70 75  0  0  1  0  0  0  0  0999 V2000
   -2.9529    0.0040   -0.0031 N   0  0  0  0  0  0  0  0  0  0  0  0
   -1.1106    0.2067   -2.2423 N   0  0  0  0  0  2  0  0  0  0  0  0
   -1.1133    1.8398    1.2978 N   0  0  0  0  0  2  0  0  0  0  0  0
   -1.1189   -2.0430    0.9412 N   0  0  0  0  0  2  0  0  0  0  0  0
   -3.2990   -0.4428   -1.3458 C   0  0  0  0  0  0  0  0  0  0  0  0
   -4.3794   -0.2886   -1.5868 H   0  0  0  0  0  0  0  0  0  0  0  0
   -3.1211   -1.5395   -1.3865 H   0  0  0  0  0  0  0  0  0  0  0  0
   -2.4474    0.1998   -2.4296 C   0  0  2  0  0  3  0  0  0  0  0  0
   -3.0302    0.7231   -3.5941 C   0  0  0  0  0  0  0  0  0  0  0  0
   -4.1235    0.7153   -3.7137 H   0  0  0  0  0  0  0  0  0  0  0  0
   -2.1946    1.2458   -4.5924 C   0  0  0  0  0  0  0  0  0  0  0  0
   -2.6223    1.6576   -5.5186 H   0  0  0  0  0  0  0  0  0  0  0  0
   -0.8105    1.2237   -4.4018 C   0  0  0  0  0  0  0  0  0  0  0  0
   -0.1292    1.5879   -5.1827 H   0  0  0  0  0  0  0  0  0  0  0  0
   -0.2879    0.6929   -3.2013 C   0  0  0  0  0  0  0  0  0  0  0  0
    1.1742    0.6106   -2.9598 C   0  0  0  0  0  0  0  0  0  0  0  0
    2.0511    1.6033   -3.4502 C   0  0  0  0  0  0  0  0  0  0  0  0
    1.6457    2.4838   -3.9711 H   0  0  0  0  0  0  0  0  0  0  0  0
    3.4353    1.4866   -3.2606 C   0  0  0  0  0  0  0  0  0  0  0  0
    4.1057    2.2697   -3.6451 H   0  0  0  0  0  0  0  0  0  0  0  0
    3.9636    0.3745   -2.5838 C   0  0  0  0  0  0  0  0  0  0  0  0
    5.0512    0.2783   -2.4465 H   0  0  0  0  0  0  0  0  0  0  0  0
    3.1008   -0.6146   -2.0852 C   0  0  0  0  0  0  0  0  0  0  0  0
    3.5031   -1.4910   -1.5582 H   0  0  0  0  0  0  0  0  0  0  0  0
    1.7168   -0.4974   -2.2680 C   0  0  0  0  0  0  0  0  0  0  0  0
    1.0500   -1.3003   -1.9163 H   0  0  0  0  0  0  0  0  0  0  0  0
   -3.2989    1.3905    0.2803 C   0  0  0  0  0  0  0  0  0  0  0  0
   -4.3799    1.5229    0.5309 H   0  0  0  0  0  0  0  0  0  0  0  0
   -3.1175    1.9740   -0.6485 H   0  0  0  0  0  0  0  0  0  0  0  0
   -2.4501    2.0067    1.3815 C   0  0  2  0  0  3  0  0  0  0  0  0
   -3.0351    2.7539    2.4155 C   0  0  0  0  0  0  0  0  0  0  0  0
   -4.1284    2.8624    2.4655 H   0  0  0  0  0  0  0  0  0  0  0  0
   -2.2016    3.3561    3.3698 C   0  0  0  0  0  0  0  0  0  0  0  0
   -2.6311    3.9524    4.1885 H   0  0  0  0  0  0  0  0  0  0  0  0
   -0.8173    3.2010    3.2592 C   0  0  0  0  0  0  0  0  0  0  0  0
   -0.1374    3.6945    3.9669 H   0  0  0  0  0  0  0  0  0  0  0  0
   -0.2925    2.4265    2.2005 C   0  0  0  0  0  0  0  0  0  0  0  0
    1.1699    2.2575    2.0117 C   0  0  0  0  0  0  0  0  0  0  0  0
    2.0445    2.1851    3.1183 C   0  0  0  0  0  0  0  0  0  0  0  0
    1.6371    2.1961    4.1405 H   0  0  0  0  0  0  0  0  0  0  0  0
    3.4291    2.0781    2.9251 C   0  0  0  0  0  0  0  0  0  0  0  0
    4.0977    2.0189    3.7969 H   0  0  0  0  0  0  0  0  0  0  0  0
    3.9599    2.0479    1.6247 C   0  0  0  0  0  0  0  0  0  0  0  0
    5.0477    1.9763    1.4749 H   0  0  0  0  0  0  0  0  0  0  0  0
    3.0994    2.1117    0.5170 C   0  0  0  0  0  0  0  0  0  0  0  0
    3.5037    2.0936   -0.5046 H   0  0  0  0  0  0  0  0  0  0  0  0
    1.7151    2.2123    0.7073 C   0  0  0  0  0  0  0  0  0  0  0  0
    1.0499    2.3098   -0.1651 H   0  0  0  0  0  0  0  0  0  0  0  0
   -3.3035   -0.9343    1.0546 C   0  0  0  0  0  0  0  0  0  0  0  0
   -4.3848   -1.2162    1.0403 H   0  0  0  0  0  0  0  0  0  0  0  0
   -3.1247   -0.4221    2.0251 H   0  0  0  0  0  0  0  0  0  0  0  0
   -2.4562   -2.1971    1.0402 C   0  0  2  0  0  3  0  0  0  0  0  0
   -3.0433   -3.4654    1.1685 C   0  0  0  0  0  0  0  0  0  0  0  0
   -4.1370   -3.5615    1.2344 H   0  0  0  0  0  0  0  0  0  0  0  0
   -2.2115   -4.5942    1.2148 C   0  0  0  0  0  0  0  0  0  0  0  0
   -2.6426   -5.6008    1.3205 H   0  0  0  0  0  0  0  0  0  0  0  0
   -0.8267   -4.4226    1.1393 C   0  0  0  0  0  0  0  0  0  0  0  0
   -0.1483   -5.2833    1.2144 H   0  0  0  0  0  0  0  0  0  0  0  0
   -0.2998   -3.1193    0.9997 C   0  0  0  0  0  0  0  0  0  0  0  0
    1.1631   -2.8731    0.9518 C   0  0  0  0  0  0  0  0  0  0  0  0
    2.0383   -3.7964    0.3382 C   0  0  0  0  0  0  0  0  0  0  0  0
    1.6313   -4.6867   -0.1643 H   0  0  0  0  0  0  0  0  0  0  0  0
    3.4231   -3.5771    0.3459 C   0  0  0  0  0  0  0  0  0  0  0  0
    4.0922   -4.3033   -0.1394 H   0  0  0  0  0  0  0  0  0  0  0  0
    3.9535   -2.4362    0.9712 C   0  0  0  0  0  0  0  0  0  0  0  0
    5.0414   -2.2719    0.9870 H   0  0  0  0  0  0  0  0  0  0  0  0
    3.0923   -1.5079    1.5779 C   0  0  0  0  0  0  0  0  0  0  0  0
    3.4963   -0.6144    2.0739 H   0  0  0  0  0  0  0  0  0  0  0  0
    1.7078   -1.7215    1.5662 C   0  0  0  0  0  0  0  0  0  0  0  0
    1.0420   -1.0138    2.0849 H   0  0  0  0  0  0  0  0  0  0  0  0
  1 27  1  0  0  0  0
  1 49  1  0  0  0  0
  3 30  1  0  0  0  0
  3 37  1  0  0  0  0
  4 59  1  0  0  0  0
  4 52  1  0  0  0  0
  5  1  1  0  0  0  0
  6  5  1  0  0  0  0
  7  5  1  0  0  0  0
  8  2  1  0  0  0  0
  8  5  1  6  0  0  0
  9  8  1  0  0  0  0
 10  9  1  0  0  0  0
 11 13  1  0  0  0  0
 11  9  2  0  0  0  0
 12 11  1  0  0  0  0
 13 15  2  0  0  0  0
 14 13  1  0  0  0  0
 15 16  1  0  0  0  0
 15  2  1  0  0  0  0
 16 25  1  0  0  0  0
 17 19  1  0  0  0  0
 17 16  2  0  0  0  0
 18 17  1  0  0  0  0
 19 21  2  0  0  0  0
 20 19  1  0  0  0  0
 21 22  1  0  0  0  0
 21 23  1  0  0  0  0
 23 24  1  0  0  0  0
 25 23  2  0  0  0  0
 25 26  1  0  0  0  0
 27 28  1  0  0  0  0
 29 27  1  0  0  0  0
 30 27  1  6  0  0  0
 30 31  1  0  0  0  0
 31 32  1  0  0  0  0
 31 33  2  0  0  0  0
 33 34  1  0  0  0  0
 35 33  1  0  0  0  0
 35 36  1  0  0  0  0
 37 35  2  0  0  0  0
 38 37  1  0  0  0  0
 38 39  1  0  0  0  0
 39 40  1  0  0  0  0
 41 39  2  0  0  0  0
 41 42  1  0  0  0  0
 43 41  1  0  0  0  0
 44 43  1  0  0  0  0
 45 47  1  0  0  0  0
 45 43  2  0  0  0  0
 46 45  1  0  0  0  0
 47 38  2  0  0  0  0
 48 47  1  0  0  0  0
 49 51  1  0  0  0  0
 50 49  1  0  0  0  0
 52 49  1  1  0  0  0
 52 53  1  0  0  0  0
 53 55  2  0  0  0  0
 53 54  1  0  0  0  0
 55 56  1  0  0  0  0
 57 58  1  0  0  0  0
 57 55  1  0  0  0  0
 59 57  2  0  0  0  0
 60 59  1  0  0  0  0
 60 69  1  0  0  0  0
 61 63  1  0  0  0  0
 61 60  2  0  0  0  0
 62 61  1  0  0  0  0
 63 65  2  0  0  0  0
 64 63  1  0  0  0  0
 65 66  1  0  0  0  0
 65 67  1  0  0  0  0
 67 68  1  0  0  0  0
 69 67  2  0  0  0  0
 69 70  1  0  0  0  0
M  END
