1,9,17,25
 OpenBabel05122313063D

 41 41  0  0  0  0  0  0  0  0999 V2000
    0.5423    0.9819    1.5605 N   0  0  0  0  0  0  0  0  0  0  0  0
   -0.1114    1.7789    1.4833 H   0  0  0  0  0  0  0  0  0  0  0  0
    0.3608    0.3465    2.8936 C   0  0  0  0  0  0  0  0  0  0  0  0
    0.4767    1.0874    3.7133 H   0  0  0  0  0  0  0  0  0  0  0  0
    1.1578   -0.4160    3.0077 H   0  0  0  0  0  0  0  0  0  0  0  0
   -1.0190   -0.3107    2.9298 C   0  0  0  0  0  0  0  0  0  0  0  0
   -1.1828   -0.8505    3.8864 H   0  0  0  0  0  0  0  0  0  0  0  0
   -1.8188    0.4487    2.8177 H   0  0  0  0  0  0  0  0  0  0  0  0
   -1.0980   -1.2160    1.7589 N   0  0  0  0  0  0  0  0  0  0  0  0
   -0.4515   -2.0106    1.9011 H   0  0  0  0  0  0  0  0  0  0  0  0
   -2.4347   -1.6888    1.3133 C   0  0  0  0  0  0  0  0  0  0  0  0
   -3.1511   -0.8677    1.4978 H   0  0  0  0  0  0  0  0  0  0  0  0
   -2.7582   -2.5603    1.9193 H   0  0  0  0  0  0  0  0  0  0  0  0
   -2.4175   -2.0234   -0.2070 C   0  0  0  0  0  0  0  0  0  0  0  0
   -2.5941   -3.1019   -0.3937 H   0  0  0  0  0  0  0  0  0  0  0  0
   -3.2277   -1.4621   -0.7105 H   0  0  0  0  0  0  0  0  0  0  0  0
   -1.1182   -1.6200   -0.8213 N   0  0  0  0  0  0  0  0  0  0  0  0
   -0.4471   -2.4025   -0.7530 H   0  0  0  0  0  0  0  0  0  0  0  0
   -1.1086   -1.1166   -2.2183 C   0  0  0  0  0  0  0  0  0  0  0  0
   -1.9408   -0.3919   -2.3303 H   0  0  0  0  0  0  0  0  0  0  0  0
   -1.2731   -1.9347   -2.9509 H   0  0  0  0  0  0  0  0  0  0  0  0
    0.2487   -0.4497   -2.4395 C   0  0  0  0  0  0  0  0  0  0  0  0
    1.0708   -1.1937   -2.3928 H   0  0  0  0  0  0  0  0  0  0  0  0
    0.2977    0.0360   -3.4372 H   0  0  0  0  0  0  0  0  0  0  0  0
    0.4734    0.5428   -1.3493 N   0  0  0  0  0  0  0  0  0  0  0  0
   -0.1904    1.3234   -1.4828 H   0  0  0  0  0  0  0  0  0  0  0  0
    1.8448    1.0932   -1.2808 C   0  0  0  0  0  0  0  0  0  0  0  0
    2.0697    1.6038   -2.2438 H   0  0  0  0  0  0  0  0  0  0  0  0
    2.5532    0.2465   -1.1901 H   0  0  0  0  0  0  0  0  0  0  0  0
    2.0599    2.1025   -0.1291 C   0  0  0  0  0  0  0  0  0  0  0  0
    3.5184    2.5887   -0.2382 C   0  0  0  0  0  0  0  0  0  0  0  0
    4.2338    1.7473   -0.1403 H   0  0  0  0  0  0  0  0  0  0  0  0
    3.7479    3.3292    0.5533 H   0  0  0  0  0  0  0  0  0  0  0  0
    3.6986    3.0780   -1.2156 H   0  0  0  0  0  0  0  0  0  0  0  0
    1.1026    3.3030   -0.2633 C   0  0  0  0  0  0  0  0  0  0  0  0
    1.2537    3.8169   -1.2339 H   0  0  0  0  0  0  0  0  0  0  0  0
    1.2945    4.0492    0.5339 H   0  0  0  0  0  0  0  0  0  0  0  0
    0.0293    3.0210   -0.2022 H   0  0  0  0  0  0  0  0  0  0  0  0
    1.9148    1.4352    1.2592 C   0  0  0  0  0  0  0  0  0  0  0  0
    2.5821    0.5544    1.3329 H   0  0  0  0  0  0  0  0  0  0  0  0
    2.2317    2.1653    2.0374 H   0  0  0  0  0  0  0  0  0  0  0  0
  1  3  1  0  0  0  0
  2  1  1  0  0  0  0
  3  6  1  0  0  0  0
  3  5  1  0  0  0  0
  3  4  1  0  0  0  0
  6  7  1  0  0  0  0
  8  6  1  0  0  0  0
  9 10  1  0  0  0  0
  9  6  1  0  0  0  0
 11 12  1  0  0  0  0
 11  9  1  0  0  0  0
 11 13  1  0  0  0  0
 14 11  1  0  0  0  0
 15 14  1  0  0  0  0
 16 14  1  0  0  0  0
 17 18  1  0  0  0  0
 17 14  1  0  0  0  0
 19 17  1  0  0  0  0
 20 19  1  0  0  0  0
 21 19  1  0  0  0  0
 22 23  1  0  0  0  0
 22 19  1  0  0  0  0
 22 25  1  0  0  0  0
 24 22  1  0  0  0  0
 25 27  1  0  0  0  0
 26 25  1  0  0  0  0
 27 29  1  0  0  0  0
 27 30  1  0  0  0  0
 28 27  1  0  0  0  0
 30 39  1  0  0  0  0
 31 32  1  0  0  0  0
 31 30  1  0  0  0  0
 31 33  1  0  0  0  0
 34 31  1  0  0  0  0
 35 38  1  0  0  0  0
 35 30  1  0  0  0  0
 35 37  1  0  0  0  0
 36 35  1  0  0  0  0
 39 40  1  0  0  0  0
 39  1  1  0  0  0  0
 39 41  1  0  0  0  0
M  END
