1,14,30,43
 OpenBabel05122313063D

 43 44  0  0  1  0  0  0  0  0999 V2000
   -1.3890   -0.5515    1.0722 N   0  0  0  0  0  2  0  0  0  0  0  0
   -2.7196   -0.5681    1.0202 C   0  0  1  0  0  3  0  0  0  0  0  0
   -3.5724   -0.2945   -0.1668 C   0  0  0  0  0  0  0  0  0  0  0  0
   -4.4585    0.3250    0.0765 H   0  0  0  0  0  0  0  0  0  0  0  0
   -3.9025   -1.2602   -0.6105 H   0  0  0  0  0  0  0  0  0  0  0  0
   -2.9644    0.2039   -0.9399 H   0  0  0  0  0  0  0  0  0  0  0  0
   -3.1941   -1.0633    2.2132 N   0  0  0  0  0  0  0  0  0  0  0  0
   -4.1811   -1.1905    2.4362 H   0  0  0  0  0  0  0  0  0  0  0  0
   -2.1342   -1.4223    3.0226 C   0  0  0  0  0  0  0  0  0  0  0  0
   -2.2712   -1.8754    4.0081 H   0  0  0  0  0  0  0  0  0  0  0  0
   -0.9974   -1.1272    2.2774 C   0  0  0  0  0  0  0  0  0  0  0  0
    0.3740   -1.5619    2.2896 C   0  0  0  0  0  3  0  0  0  0  0  0
    0.8085   -2.1325    3.1290 H   0  0  0  0  0  0  0  0  0  0  0  0
    1.0193   -1.3851    1.1587 N   0  0  0  0  0  2  0  0  0  0  0  0
    2.2698   -2.0981    0.9581 C   0  0  0  0  0  0  0  0  0  0  0  0
    2.0190   -3.0389    0.4161 H   0  0  0  0  0  0  0  0  0  0  0  0
    2.7001   -2.3919    1.9422 H   0  0  0  0  0  0  0  0  0  0  0  0
    3.3323   -1.3439    0.1388 C   0  0  0  0  0  0  0  0  0  0  0  0
    2.7611   -1.0404   -1.2589 C   0  0  0  0  0  0  0  0  0  0  0  0
    3.5810   -0.6901   -1.9256 H   0  0  0  0  0  0  0  0  0  0  0  0
    2.3568   -1.9826   -1.6950 H   0  0  0  0  0  0  0  0  0  0  0  0
    3.7714   -0.0554    0.8492 C   0  0  0  0  0  0  0  0  0  0  0  0
    4.2263   -0.2902    1.8334 H   0  0  0  0  0  0  0  0  0  0  0  0
    2.9106    0.6215    1.0172 H   0  0  0  0  0  0  0  0  0  0  0  0
    4.5312    0.4840    0.2469 H   0  0  0  0  0  0  0  0  0  0  0  0
    4.5310   -2.2912   -0.0433 C   0  0  0  0  0  0  0  0  0  0  0  0
    4.9542   -2.5843    0.9389 H   0  0  0  0  0  0  0  0  0  0  0  0
    5.3379   -1.7960   -0.6204 H   0  0  0  0  0  0  0  0  0  0  0  0
    4.2450   -3.2185   -0.5821 H   0  0  0  0  0  0  0  0  0  0  0  0
    1.6804   -0.0715   -1.2582 N   0  0  0  0  0  2  0  0  0  0  0  0
    1.5842    0.7583   -2.2688 C   0  0  0  0  0  3  0  0  0  0  0  0
    2.3510    0.8088   -3.0614 H   0  0  0  0  0  0  0  0  0  0  0  0
    0.4359    1.6183   -2.2412 C   0  0  0  0  0  0  0  0  0  0  0  0
    0.0806    2.8085   -2.8645 C   0  0  0  0  0  0  0  0  0  0  0  0
    0.5196    3.3596   -3.7005 H   0  0  0  0  0  0  0  0  0  0  0  0
   -1.0044    3.2705   -2.1520 N   0  0  0  0  0  0  0  0  0  0  0  0
   -1.4853    4.1563   -2.3081 H   0  0  0  0  0  0  0  0  0  0  0  0
   -1.2925    2.3977   -1.1285 C   0  0  2  0  0  3  0  0  0  0  0  0
   -2.2742    2.7108   -0.0554 C   0  0  0  0  0  0  0  0  0  0  0  0
   -1.9677    3.6486    0.4540 H   0  0  0  0  0  0  0  0  0  0  0  0
   -2.2372    1.9158    0.7062 H   0  0  0  0  0  0  0  0  0  0  0  0
   -3.3104    2.8154   -0.4366 H   0  0  0  0  0  0  0  0  0  0  0  0
   -0.4551    1.3624   -1.2020 N   0  0  0  0  0  2  0  0  0  0  0  0
  1 11  1  0  0  0  0
  2  3  1  6  0  0  0
  2  1  1  0  0  0  0
  2  7  1  0  0  0  0
  3  4  1  0  0  0  0
  5  3  1  0  0  0  0
  6  3  1  0  0  0  0
  7  8  1  0  0  0  0
  7  9  1  0  0  0  0
  9 10  1  0  0  0  0
 11 12  1  0  0  0  0
 11  9  2  0  0  0  0
 12 13  1  0  0  0  0
 14 12  1  0  0  0  0
 15 14  1  0  0  0  0
 15 17  1  0  0  0  0
 16 15  1  0  0  0  0
 18 22  1  0  0  0  0
 18 15  1  0  0  0  0
 19 30  1  0  0  0  0
 19 18  1  0  0  0  0
 20 19  1  0  0  0  0
 21 19  1  0  0  0  0
 22 24  1  0  0  0  0
 22 23  1  0  0  0  0
 25 22  1  0  0  0  0
 26 18  1  0  0  0  0
 26 27  1  0  0  0  0
 28 26  1  0  0  0  0
 29 26  1  0  0  0  0
 31 33  1  0  0  0  0
 31 30  1  0  0  0  0
 32 31  1  0  0  0  0
 33 43  1  0  0  0  0
 34 33  2  0  0  0  0
 34 36  1  0  0  0  0
 35 34  1  0  0  0  0
 36 38  1  0  0  0  0
 37 36  1  0  0  0  0
 38 39  1  1  0  0  0
 39 40  1  0  0  0  0
 39 41  1  0  0  0  0
 42 39  1  0  0  0  0
 43 38  1  0  0  0  0
M  END
