1,2,3,4
 OpenBabel05122313063D

 74 78  0  0  0  0  0  0  0  0999 V2000
   -1.8185    1.6106    0.2901 N   0  0  0  0  0  0  0  0  0  0  0  0
    0.9811    1.2460   -0.0512 N   0  0  0  0  0  0  0  0  0  0  0  0
    0.9810   -1.2460    0.0511 N   0  0  0  0  0  0  0  0  0  0  0  0
   -1.8186   -1.6105   -0.2901 N   0  0  0  0  0  0  0  0  0  0  0  0
   -3.0369    1.6806    0.8671 C   0  0  0  0  0  3  0  0  0  0  0  0
   -3.5550    3.0247    0.8115 C   0  0  0  0  0  0  0  0  0  0  0  0
   -2.5745    3.8036    0.1943 C   0  0  0  0  0  0  0  0  0  0  0  0
   -1.4635    2.9171   -0.0850 C   0  0  0  0  0  0  0  0  0  0  0  0
   -0.1752    3.3407   -0.4358 C   0  0  0  0  0  3  0  0  0  0  0  0
   -0.0655    4.4061   -0.6907 H   0  0  0  0  0  0  0  0  0  0  0  0
    1.0030    2.5722   -0.3989 C   0  0  0  0  0  0  0  0  0  0  0  0
    2.3697    2.9353   -0.6738 C   0  0  0  0  0  0  0  0  0  0  0  0
    3.1529    1.7784   -0.4941 C   0  0  0  0  0  0  0  0  0  0  0  0
    2.2438    0.7214   -0.1122 C   0  0  0  0  0  3  0  0  0  0  0  0
    2.2438   -0.7216    0.1122 C   0  0  0  0  0  0  0  0  0  0  0  0
    3.1527   -1.7786    0.4941 C   0  0  0  0  0  0  0  0  0  0  0  0
    2.3696   -2.9354    0.6737 C   0  0  0  0  0  0  0  0  0  0  0  0
    1.0028   -2.5723    0.3988 C   0  0  0  0  0  3  0  0  0  0  0  0
   -0.1754   -3.3407    0.4358 C   0  0  0  0  0  3  0  0  0  0  0  0
   -0.0658   -4.4061    0.6907 H   0  0  0  0  0  0  0  0  0  0  0  0
   -1.4637   -2.9170    0.0850 C   0  0  0  0  0  3  0  0  0  0  0  0
   -2.5748   -3.8034   -0.1943 C   0  0  0  0  0  0  0  0  0  0  0  0
   -3.5553   -3.0245   -0.8115 C   0  0  0  0  0  0  0  0  0  0  0  0
   -3.0370   -1.6804   -0.8671 C   0  0  0  0  0  0  0  0  0  0  0  0
   -3.7129    0.5401    1.5489 C   0  0  0  0  0  0  0  0  0  0  0  0
   -3.1131   -0.3846    1.4849 H   0  0  0  0  0  0  0  0  0  0  0  0
   -4.7221    0.3480    1.1272 H   0  0  0  0  0  0  0  0  0  0  0  0
   -3.8681    0.7857    2.6217 H   0  0  0  0  0  0  0  0  0  0  0  0
   -4.8829    3.4404    1.3631 C   0  0  0  0  0  0  0  0  0  0  0  0
   -5.0923    4.5096    1.1662 H   0  0  0  0  0  0  0  0  0  0  0  0
   -4.9388    3.2910    2.4635 H   0  0  0  0  0  0  0  0  0  0  0  0
   -5.7170    2.8517    0.9239 H   0  0  0  0  0  0  0  0  0  0  0  0
   -2.5939    5.2764   -0.0694 C   0  0  0  0  0  0  0  0  0  0  0  0
   -3.6005    5.7038    0.1036 H   0  0  0  0  0  0  0  0  0  0  0  0
   -2.3072    5.5129   -1.1152 H   0  0  0  0  0  0  0  0  0  0  0  0
   -1.8878    5.8254    0.5902 H   0  0  0  0  0  0  0  0  0  0  0  0
    2.8635    4.3078   -1.0255 C   0  0  0  0  0  0  0  0  0  0  0  0
    2.0714    4.8634   -1.5713 H   0  0  0  0  0  0  0  0  0  0  0  0
    3.7135    4.2226   -1.7367 H   0  0  0  0  0  0  0  0  0  0  0  0
    3.3082    5.1263    0.1992 C   0  0  0  0  0  0  0  0  0  0  0  0
    2.4674    5.2621    0.9092 H   0  0  0  0  0  0  0  0  0  0  0  0
    3.6769    6.1301   -0.0960 H   0  0  0  0  0  0  0  0  0  0  0  0
    4.1220    4.6115    0.7491 H   0  0  0  0  0  0  0  0  0  0  0  0
    4.6360    1.7165   -0.7446 C   0  0  0  0  0  0  0  0  0  0  0  0
    5.1708    2.3585   -0.0061 H   0  0  0  0  0  0  0  0  0  0  0  0
    4.8424    2.1857   -1.7323 H   0  0  0  0  0  0  0  0  0  0  0  0
    5.2329    0.3107   -0.7068 C   0  0  0  0  0  0  0  0  0  0  0  0
    6.2668    0.3425   -1.1080 H   0  0  0  0  0  0  0  0  0  0  0  0
    4.6588   -0.3368   -1.4048 H   0  0  0  0  0  0  0  0  0  0  0  0
    5.2329   -0.3110    0.7069 C   0  0  0  0  0  0  0  0  0  0  0  0
    6.2668   -0.3429    1.1081 H   0  0  0  0  0  0  0  0  0  0  0  0
    4.6588    0.3365    1.4049 H   0  0  0  0  0  0  0  0  0  0  0  0
    4.6359   -1.7168    0.7447 C   0  0  0  0  0  0  0  0  0  0  0  0
    5.1706   -2.3588    0.0062 H   0  0  0  0  0  0  0  0  0  0  0  0
    4.8422   -2.1860    1.7324 H   0  0  0  0  0  0  0  0  0  0  0  0
    2.8633   -4.3081    1.0255 C   0  0  0  0  0  0  0  0  0  0  0  0
    2.0711   -4.8636    1.5713 H   0  0  0  0  0  0  0  0  0  0  0  0
    3.7132   -4.2229    1.7366 H   0  0  0  0  0  0  0  0  0  0  0  0
    3.3079   -5.1265   -0.1993 C   0  0  0  0  0  0  0  0  0  0  0  0
    2.4671   -5.2622   -0.9093 H   0  0  0  0  0  0  0  0  0  0  0  0
    3.6764   -6.1303    0.0959 H   0  0  0  0  0  0  0  0  0  0  0  0
    4.1217   -4.6118   -0.7492 H   0  0  0  0  0  0  0  0  0  0  0  0
   -2.5943   -5.2762    0.0696 C   0  0  0  0  0  0  0  0  0  0  0  0
   -2.3085   -5.5126    1.1156 H   0  0  0  0  0  0  0  0  0  0  0  0
   -1.8875   -5.8252   -0.5894 H   0  0  0  0  0  0  0  0  0  0  0  0
   -3.6007   -5.7037   -0.1044 H   0  0  0  0  0  0  0  0  0  0  0  0
   -4.8832   -3.4400   -1.3630 C   0  0  0  0  0  0  0  0  0  0  0  0
   -5.0927   -4.5093   -1.1661 H   0  0  0  0  0  0  0  0  0  0  0  0
   -4.9391   -3.2907   -2.4634 H   0  0  0  0  0  0  0  0  0  0  0  0
   -5.7172   -2.8512   -0.9239 H   0  0  0  0  0  0  0  0  0  0  0  0
   -3.7129   -0.5399   -1.5489 C   0  0  0  0  0  0  0  0  0  0  0  0
   -3.1131    0.3848   -1.4849 H   0  0  0  0  0  0  0  0  0  0  0  0
   -4.7221   -0.3477   -1.1273 H   0  0  0  0  0  0  0  0  0  0  0  0
   -3.8680   -0.7854   -2.6217 H   0  0  0  0  0  0  0  0  0  0  0  0
  1  5  1  0  0  0  0
  3 15  2  0  0  0  0
  3 18  1  0  0  0  0
  4 21  1  0  0  0  0
  5 25  1  0  0  0  0
  6  5  1  0  0  0  0
  6 29  1  0  0  0  0
  7  6  2  0  0  0  0
  8  7  1  0  0  0  0
  8  1  2  0  0  0  0
  9 11  1  0  0  0  0
  9  8  1  0  0  0  0
 10  9  1  0  0  0  0
 11  2  2  0  0  0  0
 12 13  2  0  0  0  0
 12 11  1  0  0  0  0
 13 14  1  0  0  0  0
 14  2  1  0  0  0  0
 14 15  1  0  0  0  0
 15 16  1  0  0  0  0
 16 17  2  0  0  0  0
 16 53  1  0  0  0  0
 17 56  1  0  0  0  0
 18 19  1  0  0  0  0
 18 17  1  0  0  0  0
 19 20  1  0  0  0  0
 21 19  1  0  0  0  0
 22 63  1  0  0  0  0
 22 21  1  0  0  0  0
 23 22  2  0  0  0  0
 24 23  1  0  0  0  0
 24  4  2  0  0  0  0
 25 28  1  0  0  0  0
 26 25  1  0  0  0  0
 27 25  1  0  0  0  0
 29 31  1  0  0  0  0
 30 29  1  0  0  0  0
 32 29  1  0  0  0  0
 33 34  1  0  0  0  0
 33  7  1  0  0  0  0
 33 36  1  0  0  0  0
 35 33  1  0  0  0  0
 37 12  1  0  0  0  0
 37 40  1  0  0  0  0
 38 37  1  0  0  0  0
 39 37  1  0  0  0  0
 40 43  1  0  0  0  0
 40 41  1  0  0  0  0
 42 40  1  0  0  0  0
 44 47  1  0  0  0  0
 44 13  1  0  0  0  0
 44 45  1  0  0  0  0
 46 44  1  0  0  0  0
 47 50  1  0  0  0  0
 48 47  1  0  0  0  0
 49 47  1  0  0  0  0
 50 53  1  0  0  0  0
 50 51  1  0  0  0  0
 50 52  1  0  0  0  0
 53 55  1  0  0  0  0
 54 53  1  0  0  0  0
 56 57  1  0  0  0  0
 56 58  1  0  0  0  0
 59 61  1  0  0  0  0
 59 56  1  0  0  0  0
 60 59  1  0  0  0  0
 62 59  1  0  0  0  0
 63 64  1  0  0  0  0
 65 63  1  0  0  0  0
 66 63  1  0  0  0  0
 67 68  1  0  0  0  0
 67 70  1  0  0  0  0
 67 23  1  0  0  0  0
 69 67  1  0  0  0  0
 71 72  1  0  0  0  0
 71 73  1  0  0  0  0
 71 24  1  0  0  0  0
 74 71  1  0  0  0  0
M  END
