1,2,3,4
 OpenBabel05122313063D

 52 53  0  0  1  0  0  0  0  0999 V2000
   -1.4411   -1.4430   -1.3467 N   0  0  0  0  0  0  0  0  0  0  0  0
   -1.3714    0.9411   -0.3271 N   0  0  0  0  0  2  0  0  0  0  0  0
    1.3714    0.9408   -0.3270 N   0  0  0  0  0  2  0  0  0  0  0  0
    1.4404   -1.4442   -1.3450 N   0  0  0  0  0  0  0  0  0  0  0  0
   -2.6185   -1.0642   -0.5689 C   0  0  0  0  0  0  0  0  0  0  0  0
   -3.7152   -1.8988   -0.3650 C   0  0  0  0  0  0  0  0  0  0  0  0
   -4.7901   -1.4812    0.4449 C   0  0  0  0  0  0  0  0  0  0  0  0
   -5.9690   -2.3846    0.6813 C   0  0  0  0  0  0  0  0  0  0  0  0
   -4.7195   -0.1980    1.0559 C   0  0  0  0  0  0  0  0  0  0  0  0
   -5.8254    0.2658    1.9660 C   0  0  0  0  0  0  0  0  0  0  0  0
   -3.6073    0.6327    0.8246 C   0  0  0  0  0  0  0  0  0  0  0  0
   -2.5479    0.2280   -0.0147 C   0  0  0  0  0  0  0  0  0  0  0  0
   -1.2569    2.2832   -0.3640 C   0  0  2  0  0  3  0  0  0  0  0  0
   -2.4712    3.1831   -0.3422 C   0  0  0  0  0  0  0  0  0  0  0  0
    0.0001    2.9083   -0.4662 C   0  0  0  0  0  0  0  0  0  0  0  0
    1.2570    2.2829   -0.3642 C   0  0  0  0  0  0  0  0  0  0  0  0
    2.4714    3.1827   -0.3430 C   0  0  0  0  0  0  0  0  0  0  0  0
    2.5478    0.2276   -0.0145 C   0  0  0  0  0  0  0  0  0  0  0  0
    3.6075    0.6327    0.8244 C   0  0  0  0  0  0  0  0  0  0  0  0
    4.7197   -0.1979    1.0555 C   0  0  0  0  0  0  0  0  0  0  0  0
    5.8260    0.2663    1.9650 C   0  0  0  0  0  0  0  0  0  0  0  0
    4.7902   -1.4813    0.4449 C   0  0  0  0  0  0  0  0  0  0  0  0
    5.9693   -2.3846    0.6812 C   0  0  0  0  0  0  0  0  0  0  0  0
    3.7150   -1.8993   -0.3643 C   0  0  0  0  0  0  0  0  0  0  0  0
    2.6182   -1.0648   -0.5680 C   0  0  0  0  0  0  0  0  0  0  0  0
   -1.6331   -1.3393   -2.3593 H   0  0  0  0  0  0  0  0  0  0  0  0
   -1.2386   -2.4446   -1.2050 H   0  0  0  0  0  0  0  0  0  0  0  0
   -3.7387   -2.9004   -0.8241 H   0  0  0  0  0  0  0  0  0  0  0  0
   -5.8706   -3.3402    0.1329 H   0  0  0  0  0  0  0  0  0  0  0  0
   -6.0910   -2.6218    1.7592 H   0  0  0  0  0  0  0  0  0  0  0  0
   -6.9175   -1.9047    0.3609 H   0  0  0  0  0  0  0  0  0  0  0  0
   -6.7974    0.3051    1.4309 H   0  0  0  0  0  0  0  0  0  0  0  0
   -5.9683   -0.4312    2.8180 H   0  0  0  0  0  0  0  0  0  0  0  0
   -5.6236    1.2718    2.3784 H   0  0  0  0  0  0  0  0  0  0  0  0
   -3.5582    1.5948    1.3475 H   0  0  0  0  0  0  0  0  0  0  0  0
   -2.2434    4.1132   -0.8954 H   0  0  0  0  0  0  0  0  0  0  0  0
   -3.3557    2.7018   -0.7999 H   0  0  0  0  0  0  0  0  0  0  0  0
   -2.7438    3.4828    0.6907 H   0  0  0  0  0  0  0  0  0  0  0  0
    0.0002    4.0011   -0.5651 H   0  0  0  0  0  0  0  0  0  0  0  0
    2.7443    3.4828    0.6898 H   0  0  0  0  0  0  0  0  0  0  0  0
    3.3557    2.7012   -0.8008 H   0  0  0  0  0  0  0  0  0  0  0  0
    2.2436    4.1126   -0.8965 H   0  0  0  0  0  0  0  0  0  0  0  0
    3.5586    1.5950    1.3470 H   0  0  0  0  0  0  0  0  0  0  0  0
    5.6241    1.2723    2.3776 H   0  0  0  0  0  0  0  0  0  0  0  0
    5.9696   -0.4306    2.8170 H   0  0  0  0  0  0  0  0  0  0  0  0
    6.7977    0.3060    1.4294 H   0  0  0  0  0  0  0  0  0  0  0  0
    6.9177   -1.9045    0.3608 H   0  0  0  0  0  0  0  0  0  0  0  0
    6.0914   -2.6217    1.7591 H   0  0  0  0  0  0  0  0  0  0  0  0
    5.8709   -3.3402    0.1329 H   0  0  0  0  0  0  0  0  0  0  0  0
    3.7383   -2.9010   -0.8230 H   0  0  0  0  0  0  0  0  0  0  0  0
    1.2370   -2.4452   -1.2008 H   0  0  0  0  0  0  0  0  0  0  0  0
    1.6323   -1.3431   -2.3579 H   0  0  0  0  0  0  0  0  0  0  0  0
  1 27  1  0  0  0  0
  1  5  1  0  0  0  0
  2 12  1  0  0  0  0
  3 18  1  0  0  0  0
  4 51  1  0  0  0  0
  4 25  1  0  0  0  0
  5  6  2  0  0  0  0
  5 12  1  0  0  0  0
  6  7  1  0  0  0  0
  7  8  1  0  0  0  0
  7  9  2  0  0  0  0
  8 30  1  0  0  0  0
  9 10  1  0  0  0  0
 10 34  1  0  0  0  0
 10 33  1  0  0  0  0
 11  9  1  0  0  0  0
 11 35  1  0  0  0  0
 12 11  2  0  0  0  0
 13 15  1  6  0  0  0
 13 14  1  0  0  0  0
 13  2  1  0  0  0  0
 14 38  1  0  0  0  0
 15 16  2  0  0  0  0
 16 17  1  0  0  0  0
 16  3  1  0  0  0  0
 17 40  1  0  0  0  0
 18 19  1  0  0  0  0
 19 20  2  0  0  0  0
 19 43  1  0  0  0  0
 20 21  1  0  0  0  0
 21 44  1  0  0  0  0
 21 45  1  0  0  0  0
 22 23  1  0  0  0  0
 22 20  1  0  0  0  0
 23 48  1  0  0  0  0
 24 22  2  0  0  0  0
 25 24  1  0  0  0  0
 25 18  2  0  0  0  0
 26  1  1  0  0  0  0
 28  6  1  0  0  0  0
 29  8  1  0  0  0  0
 31  8  1  0  0  0  0
 32 10  1  0  0  0  0
 36 14  1  0  0  0  0
 37 14  1  0  0  0  0
 39 15  1  0  0  0  0
 41 17  1  0  0  0  0
 42 17  1  0  0  0  0
 46 21  1  0  0  0  0
 47 23  1  0  0  0  0
 49 23  1  0  0  0  0
 50 24  1  0  0  0  0
 52  4  1  0  0  0  0
M  END
