1,3,5
 OpenBabel05122313063D

 45 46  0  0  1  0  0  0  0  0999 V2000
   -0.0041   -1.5600   -1.0765 N   0  0  0  0  0  0  0  0  0  0  0  0
    0.9052   -2.0379   -0.9316 H   0  0  0  0  0  0  0  0  0  0  0  0
    0.9418    1.0613   -1.3980 N   0  0  1  0  0  0  0  0  0  0  0  0
    0.2913    1.7186    1.2454 N   0  0  1  0  0  0  0  0  0  0  0  0
   -0.6797   -0.8672    1.7348 N   0  0  0  0  0  0  0  0  0  0  0  0
    0.1913   -1.2205    2.1673 H   0  0  0  0  0  0  0  0  0  0  0  0
   -1.1007   -3.0519    0.5943 C   0  0  0  0  0  0  0  0  0  0  0  0
   -0.1010   -3.4295    0.9064 H   0  0  0  0  0  0  0  0  0  0  0  0
   -1.7819   -3.9246    0.6463 H   0  0  0  0  0  0  0  0  0  0  0  0
   -1.0603   -2.5755   -0.8542 C   0  0  0  0  0  0  0  0  0  0  0  0
   -0.8597   -3.4345   -1.5310 H   0  0  0  0  0  0  0  0  0  0  0  0
   -2.0365   -2.1432   -1.1505 H   0  0  0  0  0  0  0  0  0  0  0  0
   -0.0037   -0.9900   -2.4427 C   0  0  0  0  0  0  0  0  0  0  0  0
   -1.0045   -0.5591   -2.6356 H   0  0  0  0  0  0  0  0  0  0  0  0
    0.1787   -1.7805   -3.2027 H   0  0  0  0  0  0  0  0  0  0  0  0
    1.0944    0.0540   -2.4988 C   0  0  0  0  0  0  0  0  0  0  0  0
    1.1214    0.5621   -3.4860 H   0  0  0  0  0  0  0  0  0  0  0  0
    2.0760   -0.4417   -2.3580 H   0  0  0  0  0  0  0  0  0  0  0  0
    2.3066    1.5933   -1.0845 C   0  0  0  0  0  0  0  0  0  0  0  0
    2.9368    0.7165   -0.8551 H   0  0  0  0  0  0  0  0  0  0  0  0
    2.7057    2.0618   -2.0115 H   0  0  0  0  0  0  0  0  0  0  0  0
    2.3953    2.5978    0.0616 C   0  0  0  0  0  0  0  0  0  0  0  0
    2.0784    3.6045   -0.2602 H   0  0  0  0  0  0  0  0  0  0  0  0
    3.4737    2.7051    0.2991 H   0  0  0  0  0  0  0  0  0  0  0  0
    1.7098    2.1855    1.3611 C   0  0  0  0  0  0  0  0  0  0  0  0
    2.2671    1.3470    1.8160 H   0  0  0  0  0  0  0  0  0  0  0  0
    1.7268    3.0420    2.0709 H   0  0  0  0  0  0  0  0  0  0  0  0
   -0.1617    1.3249    2.6194 C   0  0  0  0  0  0  0  0  0  0  0  0
   -0.5285    2.2133    3.1756 H   0  0  0  0  0  0  0  0  0  0  0  0
    0.7287    0.9453    3.1587 H   0  0  0  0  0  0  0  0  0  0  0  0
   -1.2144    0.2346    2.5647 C   0  0  0  0  0  0  0  0  0  0  0  0
   -1.4531   -0.1194    3.5914 H   0  0  0  0  0  0  0  0  0  0  0  0
   -2.1576    0.5832    2.1026 H   0  0  0  0  0  0  0  0  0  0  0  0
   -1.6171   -2.0020    1.5727 C   0  0  0  0  0  0  0  0  0  0  0  0
   -2.5928   -1.6024    1.2306 H   0  0  0  0  0  0  0  0  0  0  0  0
   -1.7823   -2.4602    2.5723 H   0  0  0  0  0  0  0  0  0  0  0  0
    0.0068    2.1483   -1.8289 C   0  0  0  0  0  0  0  0  0  0  0  0
   -0.9031    1.6474   -2.1979 H   0  0  0  0  0  0  0  0  0  0  0  0
    0.4789    2.6731   -2.6892 H   0  0  0  0  0  0  0  0  0  0  0  0
   -0.3729    3.2006   -0.7693 C   0  0  0  0  0  0  0  0  0  0  0  0
    0.3541    4.0304   -0.7994 H   0  0  0  0  0  0  0  0  0  0  0  0
   -1.3256    3.6509   -1.1147 H   0  0  0  0  0  0  0  0  0  0  0  0
   -0.6090    2.7793    0.6942 C   0  0  0  0  0  0  0  0  0  0  0  0
   -0.5001    3.6798    1.3392 H   0  0  0  0  0  0  0  0  0  0  0  0
   -1.6391    2.4049    0.8123 H   0  0  0  0  0  0  0  0  0  0  0  0
  1  2  1  0  0  0  0
  1 10  1  0  0  0  0
  3 16  1  6  0  0  0
  3 19  1  0  0  0  0
  4 43  1  1  0  0  0
  4 25  1  0  0  0  0
  4 28  1  0  0  0  0
  5  6  1  0  0  0  0
  5 31  1  0  0  0  0
  7  9  1  0  0  0  0
  7  8  1  0  0  0  0
  7 34  1  0  0  0  0
 10  7  1  0  0  0  0
 11 10  1  0  0  0  0
 12 10  1  0  0  0  0
 13  1  1  0  0  0  0
 14 13  1  0  0  0  0
 15 13  1  0  0  0  0
 16 13  1  0  0  0  0
 16 18  1  0  0  0  0
 17 16  1  0  0  0  0
 19 20  1  0  0  0  0
 19 22  1  0  0  0  0
 21 19  1  0  0  0  0
 22 24  1  0  0  0  0
 22 25  1  0  0  0  0
 23 22  1  0  0  0  0
 25 26  1  0  0  0  0
 25 27  1  0  0  0  0
 28 30  1  0  0  0  0
 28 29  1  0  0  0  0
 31 28  1  0  0  0  0
 31 32  1  0  0  0  0
 33 31  1  0  0  0  0
 34  5  1  0  0  0  0
 34 36  1  0  0  0  0
 35 34  1  0  0  0  0
 37  3  1  0  0  0  0
 37 40  1  0  0  0  0
 38 37  1  0  0  0  0
 39 37  1  0  0  0  0
 40 43  1  0  0  0  0
 41 40  1  0  0  0  0
 42 40  1  0  0  0  0
 43 45  1  0  0  0  0
 43 44  1  0  0  0  0
M  END
