1,5,36,66
 OpenBabel05122313063D

 74 76  0  0  1  0  0  0  0  0999 V2000
    2.8501    0.2374    0.8897 N   0  0  0  0  0  0  0  0  0  0  0  0
    3.4609    1.4134    0.2606 C   0  0  0  0  0  0  0  0  0  0  0  0
    3.8170    1.1068   -0.7475 H   0  0  0  0  0  0  0  0  0  0  0  0
    4.3510    1.7801    0.8210 H   0  0  0  0  0  0  0  0  0  0  0  0
    1.1790    2.1299   -0.1923 N   0  0  0  0  0  2  0  0  0  0  0  0
    2.4415    2.5245    0.1224 C   0  0  1  0  0  3  0  0  0  0  0  0
    2.7928    3.8546    0.3350 C   0  0  0  0  0  0  0  0  0  0  0  0
    3.8241    4.1211    0.6031 H   0  0  0  0  0  0  0  0  0  0  0  0
    1.7854    4.8344    0.2031 C   0  0  0  0  0  0  0  0  0  0  0  0
    2.0251    5.8984    0.3482 H   0  0  0  0  0  0  0  0  0  0  0  0
    0.4891    4.4552   -0.1045 C   0  0  0  0  0  0  0  0  0  0  0  0
   -0.3021    5.2058   -0.2179 H   0  0  0  0  0  0  0  0  0  0  0  0
    0.1846    3.0704   -0.2972 C   0  0  0  0  0  0  0  0  0  0  0  0
   -1.0705    2.6506   -0.5607 N   0  0  0  0  0  0  0  0  0  0  0  0
   -1.1731    1.6842   -0.9121 H   0  0  0  0  0  0  0  0  0  0  0  0
   -2.2444    3.5092   -0.5391 C   0  0  0  0  0  0  0  0  0  0  0  0
   -2.2447    4.2050   -1.4111 H   0  0  0  0  0  0  0  0  0  0  0  0
   -2.2012    4.1400    0.3758 H   0  0  0  0  0  0  0  0  0  0  0  0
   -3.5725    2.7166   -0.5303 C   0  0  0  0  0  0  0  0  0  0  0  0
   -3.7799    2.0042   -1.8805 C   0  0  0  0  0  0  0  0  0  0  0  0
   -3.8260    2.7369   -2.7120 H   0  0  0  0  0  0  0  0  0  0  0  0
   -4.7335    1.4389   -1.8761 H   0  0  0  0  0  0  0  0  0  0  0  0
   -2.9705    1.2820   -2.1067 H   0  0  0  0  0  0  0  0  0  0  0  0
   -4.7047    3.7374   -0.3161 C   0  0  0  0  0  0  0  0  0  0  0  0
   -4.7051    4.5129   -1.1095 H   0  0  0  0  0  0  0  0  0  0  0  0
   -4.6124    4.2489    0.6641 H   0  0  0  0  0  0  0  0  0  0  0  0
   -5.6910    3.2329   -0.3420 H   0  0  0  0  0  0  0  0  0  0  0  0
   -3.5746    1.6961    0.6239 C   0  0  0  0  0  0  0  0  0  0  0  0
   -4.5524    1.1764    0.6750 H   0  0  0  0  0  0  0  0  0  0  0  0
   -3.4043    2.1941    1.6009 H   0  0  0  0  0  0  0  0  0  0  0  0
   -2.7950    0.9187    0.4955 H   0  0  0  0  0  0  0  0  0  0  0  0
    2.3835    0.4561    2.2612 C   0  0  0  0  0  0  0  0  0  0  0  0
    2.0189    1.5035    2.3273 H   0  0  0  0  0  0  0  0  0  0  0  0
    3.2015    0.3562    3.0096 H   0  0  0  0  0  0  0  0  0  0  0  0
    1.2410   -0.4762    2.6118 C   0  0  2  0  0  3  0  0  0  0  0  0
    0.3581   -0.7605    1.6146 N   0  0  0  0  0  2  0  0  0  0  0  0
    1.1039   -0.9621    3.9093 C   0  0  0  0  0  0  0  0  0  0  0  0
    1.8520   -0.7157    4.6749 H   0  0  0  0  0  0  0  0  0  0  0  0
   -0.0224   -1.7580    4.2051 C   0  0  0  0  0  0  0  0  0  0  0  0
   -0.1747   -2.1472    5.2228 H   0  0  0  0  0  0  0  0  0  0  0  0
   -0.9387   -2.0532    3.2098 C   0  0  0  0  0  0  0  0  0  0  0  0
   -1.8213   -2.6654    3.4278 H   0  0  0  0  0  0  0  0  0  0  0  0
   -0.7309   -1.5539    1.8845 C   0  0  0  0  0  0  0  0  0  0  0  0
   -1.5848   -1.8530    0.8826 N   0  0  0  0  0  0  0  0  0  0  0  0
   -1.4152   -1.4187   -0.0407 H   0  0  0  0  0  0  0  0  0  0  0  0
   -2.7222   -2.7506    1.0382 C   0  0  0  0  0  0  0  0  0  0  0  0
   -3.4686   -2.3008    1.7336 H   0  0  0  0  0  0  0  0  0  0  0  0
   -2.3720   -3.6952    1.5120 H   0  0  0  0  0  0  0  0  0  0  0  0
   -3.4294   -3.1050   -0.2887 C   0  0  0  0  0  0  0  0  0  0  0  0
   -4.5295   -4.1254    0.0575 C   0  0  0  0  0  0  0  0  0  0  0  0
   -5.2570   -3.7070    0.7833 H   0  0  0  0  0  0  0  0  0  0  0  0
   -4.1032   -5.0521    0.4940 H   0  0  0  0  0  0  0  0  0  0  0  0
   -5.0919   -4.4106   -0.8536 H   0  0  0  0  0  0  0  0  0  0  0  0
   -2.4316   -3.7403   -1.2759 C   0  0  0  0  0  0  0  0  0  0  0  0
   -2.9575   -4.0622   -2.1971 H   0  0  0  0  0  0  0  0  0  0  0  0
   -1.9463   -4.6353   -0.8345 H   0  0  0  0  0  0  0  0  0  0  0  0
   -1.6396   -3.0280   -1.5827 H   0  0  0  0  0  0  0  0  0  0  0  0
   -4.0749   -1.8530   -0.9114 C   0  0  0  0  0  0  0  0  0  0  0  0
   -4.7966   -1.3854   -0.2103 H   0  0  0  0  0  0  0  0  0  0  0  0
   -4.6276   -2.1244   -1.8333 H   0  0  0  0  0  0  0  0  0  0  0  0
   -3.3226   -1.0914   -1.1936 H   0  0  0  0  0  0  0  0  0  0  0  0
    3.6121   -0.9963    0.7125 C   0  0  0  0  0  0  0  0  0  0  0  0
    3.1975   -1.7530    1.4142 H   0  0  0  0  0  0  0  0  0  0  0  0
    4.6879   -0.8755    0.9769 H   0  0  0  0  0  0  0  0  0  0  0  0
    3.4702   -1.5316   -0.6977 C   0  0  2  0  0  3  0  0  0  0  0  0
    2.3097   -1.2445   -1.3275 N   0  0  0  0  0  2  0  0  0  0  0  0
    4.4584   -2.3203   -1.3042 C   0  0  0  0  0  0  0  0  0  0  0  0
    5.3980   -2.5288   -0.7715 H   0  0  0  0  0  0  0  0  0  0  0  0
    4.2249   -2.8319   -2.5883 C   0  0  0  0  0  0  0  0  0  0  0  0
    4.9848   -3.4536   -3.0849 H   0  0  0  0  0  0  0  0  0  0  0  0
    3.0147   -2.5327   -3.2306 C   0  0  0  0  0  0  0  0  0  0  0  0
    2.7926   -2.9090   -4.2390 H   0  0  0  0  0  0  0  0  0  0  0  0
    2.0817   -1.7301   -2.5648 C   0  0  0  0  0  0  0  0  0  0  0  0
    1.1123   -1.4531   -3.0101 H   0  0  0  0  0  0  0  0  0  0  0  0
  1 32  1  0  0  0  0
  2  4  1  0  0  0  0
  2  1  1  0  0  0  0
  3  2  1  0  0  0  0
  5  6  1  0  0  0  0
  6  2  1  1  0  0  0
  6  7  1  0  0  0  0
  7  8  1  0  0  0  0
  9  7  2  0  0  0  0
  9 10  1  0  0  0  0
 11  9  1  0  0  0  0
 12 11  1  0  0  0  0
 13  5  1  0  0  0  0
 13 11  2  0  0  0  0
 14 16  1  0  0  0  0
 14 13  1  0  0  0  0
 15 14  1  0  0  0  0
 16 19  1  0  0  0  0
 16 18  1  0  0  0  0
 17 16  1  0  0  0  0
 19 24  1  0  0  0  0
 19 28  1  0  0  0  0
 20 22  1  0  0  0  0
 20 19  1  0  0  0  0
 21 20  1  0  0  0  0
 23 20  1  0  0  0  0
 24 26  1  0  0  0  0
 25 24  1  0  0  0  0
 27 24  1  0  0  0  0
 28 29  1  0  0  0  0
 28 30  1  0  0  0  0
 31 28  1  0  0  0  0
 32 33  1  0  0  0  0
 32 34  1  0  0  0  0
 35 32  1  1  0  0  0
 35 37  1  0  0  0  0
 36 43  1  0  0  0  0
 36 35  1  0  0  0  0
 37 39  2  0  0  0  0
 37 38  1  0  0  0  0
 39 40  1  0  0  0  0
 41 42  1  0  0  0  0
 41 39  1  0  0  0  0
 43 41  2  0  0  0  0
 44 46  1  0  0  0  0
 44 43  1  0  0  0  0
 45 44  1  0  0  0  0
 46 48  1  0  0  0  0
 46 47  1  0  0  0  0
 49 50  1  0  0  0  0
 49 46  1  0  0  0  0
 50 52  1  0  0  0  0
 50 51  1  0  0  0  0
 53 50  1  0  0  0  0
 54 56  1  0  0  0  0
 54 49  1  0  0  0  0
 55 54  1  0  0  0  0
 57 54  1  0  0  0  0
 58 49  1  0  0  0  0
 58 59  1  0  0  0  0
 60 58  1  0  0  0  0
 61 58  1  0  0  0  0
 62  1  1  0  0  0  0
 62 64  1  0  0  0  0
 62 63  1  0  0  0  0
 65 62  1  1  0  0  0
 66 65  1  0  0  0  0
 67 68  1  0  0  0  0
 67 65  1  0  0  0  0
 69 67  2  0  0  0  0
 70 69  1  0  0  0  0
 71 69  1  0  0  0  0
 71 73  2  0  0  0  0
 72 71  1  0  0  0  0
 73 66  1  0  0  0  0
 74 73  1  0  0  0  0
M  END
