1,5,34,47
 OpenBabel05122313063D

 57 59  0  0  1  0  0  0  0  0999 V2000
   -2.1860    0.2938    1.2514 N   0  0  0  0  0  0  0  0  0  0  0  0
   -1.8162   -0.6692    2.2926 C   0  0  0  0  0  0  0  0  0  0  0  0
   -2.1098   -1.6785    1.9302 H   0  0  0  0  0  0  0  0  0  0  0  0
   -2.3667   -0.4991    3.2459 H   0  0  0  0  0  0  0  0  0  0  0  0
    0.4716   -0.5480    1.4458 N   0  0  0  0  0  2  0  0  0  0  0  0
   -0.3230   -0.6606    2.5459 C   0  0  2  0  0  3  0  0  0  0  0  0
    0.1806   -0.7974    3.8357 C   0  0  0  0  0  0  0  0  0  0  0  0
   -0.5018   -0.8723    4.6931 H   0  0  0  0  0  0  0  0  0  0  0  0
    1.5827   -0.8433    3.9991 C   0  0  0  0  0  0  0  0  0  0  0  0
    2.0198   -0.9558    5.0025 H   0  0  0  0  0  0  0  0  0  0  0  0
    2.4105   -0.7452    2.8944 C   0  0  0  0  0  0  0  0  0  0  0  0
    3.5000   -0.7847    3.0077 H   0  0  0  0  0  0  0  0  0  0  0  0
    1.8382   -0.5942    1.5893 C   0  0  0  0  0  0  0  0  0  0  0  0
    2.6106   -0.4893    0.4911 N   0  0  0  0  0  0  0  0  0  0  0  0
    4.0676   -0.4867    0.5273 C   0  0  0  0  0  0  0  0  0  0  0  0
    4.4355   -1.4419    0.9686 H   0  0  0  0  0  0  0  0  0  0  0  0
    4.4133    0.3311    1.1998 H   0  0  0  0  0  0  0  0  0  0  0  0
    4.7213   -0.2984   -0.8590 C   0  0  0  0  0  0  0  0  0  0  0  0
    4.2584    1.0266   -1.4947 C   0  0  0  0  0  0  0  0  0  0  0  0
    4.7843    1.1931   -2.4562 H   0  0  0  0  0  0  0  0  0  0  0  0
    4.4841    1.8885   -0.8329 H   0  0  0  0  0  0  0  0  0  0  0  0
    3.1716    1.0236   -1.7125 H   0  0  0  0  0  0  0  0  0  0  0  0
    6.2430   -0.2538   -0.6285 C   0  0  0  0  0  0  0  0  0  0  0  0
    6.6100   -1.1885   -0.1566 H   0  0  0  0  0  0  0  0  0  0  0  0
    6.5317    0.5965    0.0233 H   0  0  0  0  0  0  0  0  0  0  0  0
    6.7755   -0.1342   -1.5927 H   0  0  0  0  0  0  0  0  0  0  0  0
    4.3777   -1.4848   -1.7801 C   0  0  0  0  0  0  0  0  0  0  0  0
    4.7116   -2.4446   -1.3346 H   0  0  0  0  0  0  0  0  0  0  0  0
    4.8895   -1.3715   -2.7568 H   0  0  0  0  0  0  0  0  0  0  0  0
    3.2911   -1.5536   -1.9870 H   0  0  0  0  0  0  0  0  0  0  0  0
   -2.0253    1.6947    1.6406 C   0  0  0  0  0  0  0  0  0  0  0  0
   -1.1924    1.7448    2.3757 H   0  0  0  0  0  0  0  0  0  0  0  0
   -2.9234    2.1050    2.1564 H   0  0  0  0  0  0  0  0  0  0  0  0
   -0.9228    1.9664   -0.5155 N   0  0  0  0  0  2  0  0  0  0  0  0
   -1.6535    2.5626    0.4526 C   0  0  2  0  0  3  0  0  0  0  0  0
   -1.9923    3.9210    0.3744 C   0  0  0  0  0  0  0  0  0  0  0  0
   -2.5970    4.3836    1.1685 H   0  0  0  0  0  0  0  0  0  0  0  0
   -1.5460    4.6700   -0.7243 C   0  0  0  0  0  0  0  0  0  0  0  0
   -1.7988    5.7378   -0.8059 H   0  0  0  0  0  0  0  0  0  0  0  0
   -0.7820    4.0398   -1.7174 C   0  0  0  0  0  0  0  0  0  0  0  0
   -0.4167    4.5907   -2.5954 H   0  0  0  0  0  0  0  0  0  0  0  0
   -0.4941    2.6775   -1.5778 C   0  0  0  0  0  0  0  0  0  0  0  0
    0.0915    2.1080   -2.3196 H   0  0  0  0  0  0  0  0  0  0  0  0
   -3.4546   -0.0046    0.5900 C   0  0  0  0  0  0  0  0  0  0  0  0
   -3.7308    0.8768   -0.0295 H   0  0  0  0  0  0  0  0  0  0  0  0
   -4.2901   -0.1569    1.3124 H   0  0  0  0  0  0  0  0  0  0  0  0
   -2.1187   -1.3938   -0.8978 N   0  0  0  0  0  2  0  0  0  0  0  0
   -3.3302   -1.2037   -0.3311 C   0  0  2  0  0  3  0  0  0  0  0  0
   -4.4141   -2.0410   -0.6307 C   0  0  0  0  0  0  0  0  0  0  0  0
   -5.3891   -1.8723   -0.1500 H   0  0  0  0  0  0  0  0  0  0  0  0
   -4.2307   -3.0849   -1.5492 C   0  0  0  0  0  0  0  0  0  0  0  0
   -5.0664   -3.7552   -1.8000 H   0  0  0  0  0  0  0  0  0  0  0  0
   -2.9709   -3.2637   -2.1392 C   0  0  0  0  0  0  0  0  0  0  0  0
   -2.7868   -4.0688   -2.8643 H   0  0  0  0  0  0  0  0  0  0  0  0
   -1.9349   -2.3925   -1.7848 C   0  0  0  0  0  0  0  0  0  0  0  0
   -0.9225   -2.4598   -2.2166 H   0  0  0  0  0  0  0  0  0  0  0  0
    2.1363   -0.4684   -0.4307 H   0  0  0  0  0  0  0  0  0  0  0  0
  1 31  1  0  0  0  0
  1  2  1  0  0  0  0
  2  4  1  0  0  0  0
  3  2  1  0  0  0  0
  5 13  1  0  0  0  0
  5  6  1  0  0  0  0
  6  2  1  6  0  0  0
  6  7  1  0  0  0  0
  7  9  2  0  0  0  0
  7  8  1  0  0  0  0
  9 10  1  0  0  0  0
 11 12  1  0  0  0  0
 11  9  1  0  0  0  0
 13 11  2  0  0  0  0
 14 15  1  0  0  0  0
 14 13  1  0  0  0  0
 15 16  1  0  0  0  0
 15 17  1  0  0  0  0
 18 23  1  0  0  0  0
 18 15  1  0  0  0  0
 19 18  1  0  0  0  0
 19 21  1  0  0  0  0
 20 19  1  0  0  0  0
 22 19  1  0  0  0  0
 23 24  1  0  0  0  0
 23 25  1  0  0  0  0
 26 23  1  0  0  0  0
 27 28  1  0  0  0  0
 27 18  1  0  0  0  0
 29 27  1  0  0  0  0
 30 27  1  0  0  0  0
 31 33  1  0  0  0  0
 31 32  1  0  0  0  0
 34 35  1  0  0  0  0
 35 31  1  1  0  0  0
 36 35  1  0  0  0  0
 36 37  1  0  0  0  0
 38 36  2  0  0  0  0
 39 38  1  0  0  0  0
 40 42  2  0  0  0  0
 40 38  1  0  0  0  0
 41 40  1  0  0  0  0
 42 34  1  0  0  0  0
 43 42  1  0  0  0  0
 44  1  1  0  0  0  0
 44 46  1  0  0  0  0
 45 44  1  0  0  0  0
 47 48  1  0  0  0  0
 48 44  1  6  0  0  0
 49 48  1  0  0  0  0
 49 50  1  0  0  0  0
 51 49  2  0  0  0  0
 52 51  1  0  0  0  0
 53 55  2  0  0  0  0
 53 51  1  0  0  0  0
 54 53  1  0  0  0  0
 55 47  1  0  0  0  0
 56 55  1  0  0  0  0
 57 14  1  0  0  0  0
M  END
