1,3,4,5
 OpenBabel05122313063D

 40 40  0  0  0  0  0  0  0  0999 V2000
    0.6646   -1.6371   -1.4639 N   0  0  0  0  0  0  0  0  0  0  0  0
    2.3598   -1.5712    0.7742 N   0  0  0  0  0  0  0  0  0  0  0  0
    2.8026    0.9170   -0.5846 N   0  0  0  0  0  0  0  0  0  0  0  0
    0.5842    2.3607    0.4307 N   0  0  0  0  0  0  0  0  0  0  0  0
   -0.9245    0.6791   -1.3053 N   0  0  0  0  0  0  0  0  0  0  0  0
    0.8986   -2.8772   -0.7078 C   0  0  0  0  0  0  0  0  0  0  0  0
    0.8557   -3.7847   -1.3521 H   0  0  0  0  0  0  0  0  0  0  0  0
    0.0856   -2.9679    0.0436 H   0  0  0  0  0  0  0  0  0  0  0  0
    2.2565   -2.7990   -0.0057 C   0  0  0  0  0  0  0  0  0  0  0  0
    2.4142   -3.7193    0.6010 H   0  0  0  0  0  0  0  0  0  0  0  0
    3.0593   -2.8023   -0.7756 H   0  0  0  0  0  0  0  0  0  0  0  0
    3.6595   -0.9244    0.8482 C   0  0  0  0  0  0  0  0  0  0  0  0
    4.5103   -1.6363    0.9617 H   0  0  0  0  0  0  0  0  0  0  0  0
    3.6711   -0.2825    1.7531 H   0  0  0  0  0  0  0  0  0  0  0  0
    3.8872   -0.0680   -0.4045 C   0  0  0  0  0  0  0  0  0  0  0  0
    4.8854    0.4225   -0.3587 H   0  0  0  0  0  0  0  0  0  0  0  0
    3.9015   -0.7249   -1.2993 H   0  0  0  0  0  0  0  0  0  0  0  0
    3.0007    2.1639    0.1792 C   0  0  0  0  0  0  0  0  0  0  0  0
    3.9287    2.6958   -0.1302 H   0  0  0  0  0  0  0  0  0  0  0  0
    3.1259    1.8962    1.2496 H   0  0  0  0  0  0  0  0  0  0  0  0
    1.7877    3.0746    0.0176 C   0  0  0  0  0  0  0  0  0  0  0  0
    1.9518    4.0263    0.5731 H   0  0  0  0  0  0  0  0  0  0  0  0
    1.6811    3.3558   -1.0531 H   0  0  0  0  0  0  0  0  0  0  0  0
   -0.6860    2.8162   -0.1380 C   0  0  0  0  0  0  0  0  0  0  0  0
   -0.7323    3.9222   -0.2579 H   0  0  0  0  0  0  0  0  0  0  0  0
   -1.4885    2.5311    0.5702 H   0  0  0  0  0  0  0  0  0  0  0  0
   -0.9552    2.1346   -1.4810 C   0  0  0  0  0  0  0  0  0  0  0  0
   -1.9254    2.4904   -1.8959 H   0  0  0  0  0  0  0  0  0  0  0  0
   -0.1720    2.4088   -2.2218 H   0  0  0  0  0  0  0  0  0  0  0  0
   -0.9343   -0.1168   -2.5354 C   0  0  0  0  0  0  0  0  0  0  0  0
   -0.1672    0.3004   -3.2251 H   0  0  0  0  0  0  0  0  0  0  0  0
   -1.9085   -0.0660   -3.0718 H   0  0  0  0  0  0  0  0  0  0  0  0
   -0.6069   -1.5701   -2.1964 C   0  0  0  0  0  0  0  0  0  0  0  0
   -1.3985   -1.9706   -1.5323 H   0  0  0  0  0  0  0  0  0  0  0  0
   -0.6070   -2.1944   -3.1175 H   0  0  0  0  0  0  0  0  0  0  0  0
    2.7481    1.1675   -1.5812 H   0  0  0  0  0  0  0  0  0  0  0  0
    0.5038    2.2919    1.4553 H   0  0  0  0  0  0  0  0  0  0  0  0
    1.4403   -1.5090   -2.1306 H   0  0  0  0  0  0  0  0  0  0  0  0
   -1.7302    0.4009   -0.7202 H   0  0  0  0  0  0  0  0  0  0  0  0
    1.8781   -1.6291    1.6860 H   0  0  0  0  0  0  0  0  0  0  0  0
  1  6  1  0  0  0  0
  2 12  1  0  0  0  0
  2 40  1  0  0  0  0
  3 15  1  0  0  0  0
  3 18  1  0  0  0  0
  4 37  1  0  0  0  0
  5 39  1  0  0  0  0
  6  9  1  0  0  0  0
  6  8  1  0  0  0  0
  7  6  1  0  0  0  0
  9 10  1  0  0  0  0
  9  2  1  0  0  0  0
 11  9  1  0  0  0  0
 12 13  1  0  0  0  0
 12 14  1  0  0  0  0
 15 16  1  0  0  0  0
 15 12  1  0  0  0  0
 17 15  1  0  0  0  0
 18 20  1  0  0  0  0
 19 18  1  0  0  0  0
 21 18  1  0  0  0  0
 21  4  1  0  0  0  0
 21 22  1  0  0  0  0
 23 21  1  0  0  0  0
 24  4  1  0  0  0  0
 24 26  1  0  0  0  0
 25 24  1  0  0  0  0
 27  5  1  0  0  0  0
 27 24  1  0  0  0  0
 28 27  1  0  0  0  0
 29 27  1  0  0  0  0
 30 33  1  0  0  0  0
 30  5  1  0  0  0  0
 31 30  1  0  0  0  0
 32 30  1  0  0  0  0
 33 34  1  0  0  0  0
 33  1  1  0  0  0  0
 35 33  1  0  0  0  0
 36  3  1  0  0  0  0
 38  1  1  0  0  0  0
M  END
