1,2,3,4
 OpenBabel05122313063D

 38 38  0  0  0  0  0  0  0  0999 V2000
    0.8909   -1.9519   -1.1006 N   0  0  0  0  0  0  0  0  0  0  0  0
    2.9361    0.0105    0.0345 N   0  0  0  0  0  0  0  0  0  0  0  0
    0.8665    1.9977   -1.0442 N   0  0  0  0  0  0  0  0  0  0  0  0
   -1.1171    0.0101   -1.4280 N   0  0  0  0  0  0  0  0  0  0  0  0
    1.5893   -2.8826   -0.1873 C   0  0  0  0  0  0  0  0  0  0  0  0
    1.5124   -3.9278   -0.5647 H   0  0  0  0  0  0  0  0  0  0  0  0
    1.0655   -2.8415    0.7913 H   0  0  0  0  0  0  0  0  0  0  0  0
    3.0606   -2.5087   -0.0074 C   0  0  0  0  0  0  0  0  0  0  0  0
    3.5505   -3.3358    0.5453 H   0  0  0  0  0  0  0  0  0  0  0  0
    3.5671   -2.4872   -1.0011 H   0  0  0  0  0  0  0  0  0  0  0  0
    3.3418   -1.2176    0.7603 C   0  0  0  0  0  0  0  0  0  0  0  0
    2.7773   -1.2163    1.7172 H   0  0  0  0  0  0  0  0  0  0  0  0
    4.4264   -1.1681    1.0118 H   0  0  0  0  0  0  0  0  0  0  0  0
    3.3452    1.2256    0.7801 C   0  0  0  0  0  0  0  0  0  0  0  0
    4.4342    1.1770    1.0130 H   0  0  0  0  0  0  0  0  0  0  0  0
    2.8108    1.2024    1.7540 H   0  0  0  0  0  0  0  0  0  0  0  0
    3.0446    2.5325    0.0468 C   0  0  0  0  0  0  0  0  0  0  0  0
    3.5363    3.3490    0.6134 H   0  0  0  0  0  0  0  0  0  0  0  0
    3.5418    2.5352   -0.9518 H   0  0  0  0  0  0  0  0  0  0  0  0
    1.5690    2.9009   -0.1065 C   0  0  0  0  0  0  0  0  0  0  0  0
    1.0495    2.8187    0.8726 H   0  0  0  0  0  0  0  0  0  0  0  0
    1.4813    3.9579   -0.4470 H   0  0  0  0  0  0  0  0  0  0  0  0
   -0.5310    2.3813   -1.3166 C   0  0  0  0  0  0  0  0  0  0  0  0
   -0.6031    3.3640   -1.8340 H   0  0  0  0  0  0  0  0  0  0  0  0
   -1.0446    2.4811   -0.3379 H   0  0  0  0  0  0  0  0  0  0  0  0
   -1.2097    1.2896   -2.1432 C   0  0  0  0  0  0  0  0  0  0  0  0
   -2.2602    1.5783   -2.3650 H   0  0  0  0  0  0  0  0  0  0  0  0
   -0.6916    1.1821   -3.1214 H   0  0  0  0  0  0  0  0  0  0  0  0
   -1.1686   -1.2223   -2.2220 C   0  0  0  0  0  0  0  0  0  0  0  0
   -0.6315   -1.0450   -3.1794 H   0  0  0  0  0  0  0  0  0  0  0  0
   -2.2070   -1.5204   -2.4866 H   0  0  0  0  0  0  0  0  0  0  0  0
   -0.4850   -2.3507   -1.4485 C   0  0  0  0  0  0  0  0  0  0  0  0
   -1.0310   -2.5354   -0.5005 H   0  0  0  0  0  0  0  0  0  0  0  0
   -0.5123   -3.2972   -2.0333 H   0  0  0  0  0  0  0  0  0  0  0  0
    1.4385   -1.8914   -1.9732 H   0  0  0  0  0  0  0  0  0  0  0  0
    1.3831    1.9952   -1.9375 H   0  0  0  0  0  0  0  0  0  0  0  0
   -1.8500   -0.0274   -0.7020 H   0  0  0  0  0  0  0  0  0  0  0  0
    3.4232    0.0197   -0.8760 H   0  0  0  0  0  0  0  0  0  0  0  0
  1  5  1  0  0  0  0
  2 11  1  0  0  0  0
  2 14  1  0  0  0  0
  3 20  1  0  0  0  0
  4 37  1  0  0  0  0
  5  8  1  0  0  0  0
  5  7  1  0  0  0  0
  6  5  1  0  0  0  0
  8  9  1  0  0  0  0
  8 11  1  0  0  0  0
 10  8  1  0  0  0  0
 11 13  1  0  0  0  0
 11 12  1  0  0  0  0
 14 15  1  0  0  0  0
 14 16  1  0  0  0  0
 17 18  1  0  0  0  0
 17 14  1  0  0  0  0
 19 17  1  0  0  0  0
 20 17  1  0  0  0  0
 20 21  1  0  0  0  0
 22 20  1  0  0  0  0
 23  3  1  0  0  0  0
 23 25  1  0  0  0  0
 24 23  1  0  0  0  0
 26  4  1  0  0  0  0
 26 23  1  0  0  0  0
 27 26  1  0  0  0  0
 28 26  1  0  0  0  0
 29 32  1  0  0  0  0
 29  4  1  0  0  0  0
 30 29  1  0  0  0  0
 31 29  1  0  0  0  0
 32  1  1  0  0  0  0
 32 33  1  0  0  0  0
 34 32  1  0  0  0  0
 35  1  1  0  0  0  0
 36  3  1  0  0  0  0
 38  2  1  0  0  0  0
M  END
