7,8,9,10
 OpenBabel05122313063D

 72 76  0  0  1  0  0  0  0  0999 V2000
    2.0958    1.3029   -1.5728 S   0  0  0  0  0  0  0  0  0  0  0  0
    0.5531   -0.8933    1.7609 S   0  0  0  0  0  0  0  0  0  0  0  0
    2.7831    2.5013   -2.1060 O   0  0  0  0  0  0  0  0  0  0  0  0
    1.4576    0.3569   -2.5223 O   0  0  0  0  0  0  0  0  0  0  0  0
    0.7425    0.4987    2.2288 O   0  0  0  0  0  0  0  0  0  0  0  0
    1.3889   -1.9899    2.3017 O   0  0  0  0  0  0  0  0  0  0  0  0
    0.8478    1.7771   -0.5064 N   0  0  0  0  0  2  0  0  0  0  0  0
   -1.8815    1.8008   -0.5896 N   0  0  0  0  0  2  0  0  0  0  0  0
   -1.8455   -0.6979   -1.1246 N   0  0  0  0  0  2  0  0  0  0  0  0
    0.6045   -0.8883    0.0574 N   0  0  0  0  0  2  0  0  0  0  0  0
    6.2482   -1.9291    1.5426 C   0  0  0  0  0  0  0  0  0  0  0  0
    5.7622   -2.5362    2.3347 H   0  0  0  0  0  0  0  0  0  0  0  0
    6.9855   -1.2727    2.0501 H   0  0  0  0  0  0  0  0  0  0  0  0
    6.8057   -2.6173    0.8785 H   0  0  0  0  0  0  0  0  0  0  0  0
    5.2296   -1.1202    0.7811 C   0  0  0  0  0  0  0  0  0  0  0  0
    4.4196   -0.1778    1.4515 C   0  0  0  0  0  0  0  0  0  0  0  0
    4.5243   -0.0477    2.5397 H   0  0  0  0  0  0  0  0  0  0  0  0
    3.4595    0.5761    0.7683 C   0  0  0  0  0  0  0  0  0  0  0  0
    2.7988    1.2596    1.3174 H   0  0  0  0  0  0  0  0  0  0  0  0
    3.2867    0.3664   -0.6070 C   0  0  0  0  0  0  0  0  0  0  0  0
    4.0692   -0.5655   -1.3041 C   0  0  0  0  0  0  0  0  0  0  0  0
    3.8957   -0.7323   -2.3767 H   0  0  0  0  0  0  0  0  0  0  0  0
    5.0431   -1.2925   -0.6051 C   0  0  0  0  0  0  0  0  0  0  0  0
    5.6577   -2.0291   -1.1463 H   0  0  0  0  0  0  0  0  0  0  0  0
    0.7872    3.0352    0.0265 C   0  0  2  0  0  3  0  0  0  0  0  0
    1.9387    3.8155    0.3443 C   0  0  0  0  0  0  0  0  0  0  0  0
    2.9312    3.4173    0.1051 H   0  0  0  0  0  0  0  0  0  0  0  0
    1.8213    5.0635    0.9446 C   0  0  0  0  0  0  0  0  0  0  0  0
    2.7384    5.6203    1.1917 H   0  0  0  0  0  0  0  0  0  0  0  0
    0.5569    5.6217    1.2546 C   0  0  0  0  0  0  0  0  0  0  0  0
    0.4829    6.6052    1.7398 H   0  0  0  0  0  0  0  0  0  0  0  0
   -0.5822    4.9048    0.9266 C   0  0  0  0  0  0  0  0  0  0  0  0
   -1.5805    5.3199    1.1385 H   0  0  0  0  0  0  0  0  0  0  0  0
   -0.5067    3.6227    0.3043 C   0  0  0  0  0  0  0  0  0  0  0  0
   -1.7364    3.0098   -0.0773 C   0  0  0  0  0  0  0  0  0  0  0  0
   -2.6472    3.6149    0.0888 H   0  0  0  0  0  0  0  0  0  0  0  0
   -3.1396    1.2793   -0.9549 C   0  0  0  0  0  0  0  0  0  0  0  0
   -4.3487    1.9941   -1.0571 C   0  0  0  0  0  0  0  0  0  0  0  0
   -4.3680    3.0828   -0.9093 H   0  0  0  0  0  0  0  0  0  0  0  0
   -5.5362    1.3124   -1.3533 C   0  0  0  0  0  0  0  0  0  0  0  0
   -6.4797    1.8735   -1.4243 H   0  0  0  0  0  0  0  0  0  0  0  0
   -5.5295   -0.0807   -1.5556 C   0  0  0  0  0  0  0  0  0  0  0  0
   -6.4686   -0.6106   -1.7734 H   0  0  0  0  0  0  0  0  0  0  0  0
   -4.3287   -0.7983   -1.4821 C   0  0  0  0  0  0  0  0  0  0  0  0
   -4.3300   -1.8889   -1.6170 H   0  0  0  0  0  0  0  0  0  0  0  0
   -3.1285   -0.1190   -1.2074 C   0  0  0  0  0  0  0  0  0  0  0  0
   -1.5721   -1.8922   -1.6022 C   0  0  0  0  0  0  0  0  0  0  0  0
   -2.3655   -2.4242   -2.1599 H   0  0  0  0  0  0  0  0  0  0  0  0
   -0.3223   -2.5815   -1.4615 C   0  0  0  0  0  0  0  0  0  0  0  0
   -0.1566   -3.8141   -2.1501 C   0  0  0  0  0  3  0  0  0  0  0  0
   -0.9553   -4.1491   -2.8308 H   0  0  0  0  0  0  0  0  0  0  0  0
    0.9836   -4.5908   -1.9698 C   0  0  0  0  0  0  0  0  0  0  0  0
    1.1049   -5.5375   -2.5159 H   0  0  0  0  0  0  0  0  0  0  0  0
    1.9816   -4.1473   -1.0747 C   0  0  0  0  0  0  0  0  0  0  0  0
    2.8888   -4.7524   -0.9231 H   0  0  0  0  0  0  0  0  0  0  0  0
    1.8522   -2.9369   -0.3915 C   0  0  0  0  0  0  0  0  0  0  0  0
    2.6332   -2.5889    0.2940 H   0  0  0  0  0  0  0  0  0  0  0  0
    0.7156   -2.1121   -0.5827 C   0  0  0  0  0  0  0  0  0  0  0  0
   -1.1764   -1.3098    2.0330 C   0  0  0  0  0  0  0  0  0  0  0  0
   -2.1033   -0.2680    2.2033 C   0  0  0  0  0  0  0  0  0  0  0  0
   -1.7343    0.7599    2.3317 H   0  0  0  0  0  0  0  0  0  0  0  0
   -3.4691   -0.5669    2.1973 C   0  0  0  0  0  0  0  0  0  0  0  0
   -4.2024    0.2460    2.3196 H   0  0  0  0  0  0  0  0  0  0  0  0
   -3.9277   -1.8916    2.0196 C   0  0  0  0  0  0  0  0  0  0  0  0
   -2.9710   -2.9183    1.8854 C   0  0  0  0  0  0  0  0  0  0  0  0
   -3.3105   -3.9598    1.7689 H   0  0  0  0  0  0  0  0  0  0  0  0
   -1.5953   -2.6396    1.8939 C   0  0  0  0  0  0  0  0  0  0  0  0
   -0.8488   -3.4393    1.7833 H   0  0  0  0  0  0  0  0  0  0  0  0
   -5.4050   -2.1810    1.9577 C   0  0  0  0  0  0  0  0  0  0  0  0
   -5.8580   -1.7073    1.0603 H   0  0  0  0  0  0  0  0  0  0  0  0
   -5.9367   -1.7686    2.8398 H   0  0  0  0  0  0  0  0  0  0  0  0
   -5.6105   -3.2678    1.9107 H   0  0  0  0  0  0  0  0  0  0  0  0
  1 20  1  0  0  0  0
  1  7  1  0  0  0  0
  2 59  1  0  0  0  0
  2  5  2  0  0  0  0
  2  6  2  0  0  0  0
  3  1  2  0  0  0  0
  4  1  2  0  0  0  0
  8 35  1  0  0  0  0
 10  2  1  0  0  0  0
 11 13  1  0  0  0  0
 11 12  1  0  0  0  0
 14 11  1  0  0  0  0
 15 16  1  0  0  0  0
 15 11  1  0  0  0  0
 16 17  1  0  0  0  0
 18 19  1  0  0  0  0
 18 16  2  0  0  0  0
 20 18  1  0  0  0  0
 21 20  2  0  0  0  0
 21 23  1  0  0  0  0
 22 21  1  0  0  0  0
 23 15  2  0  0  0  0
 24 23  1  0  0  0  0
 25  7  1  1  0  0  0
 25 34  1  0  0  0  0
 25 26  1  0  0  0  0
 26 28  2  0  0  0  0
 27 26  1  0  0  0  0
 28 29  1  0  0  0  0
 28 30  1  0  0  0  0
 30 31  1  0  0  0  0
 32 33  1  0  0  0  0
 32 30  2  0  0  0  0
 34 32  1  0  0  0  0
 35 36  1  0  0  0  0
 35 34  2  0  0  0  0
 37  8  1  0  0  0  0
 38 37  1  0  0  0  0
 38 39  1  0  0  0  0
 40 38  2  0  0  0  0
 41 40  1  0  0  0  0
 42 44  2  0  0  0  0
 42 40  1  0  0  0  0
 43 42  1  0  0  0  0
 44 46  1  0  0  0  0
 45 44  1  0  0  0  0
 46  9  1  0  0  0  0
 46 37  2  0  0  0  0
 47 49  2  0  0  0  0
 47  9  1  0  0  0  0
 48 47  1  0  0  0  0
 49 58  1  0  0  0  0
 50 52  1  0  0  0  0
 50 49  1  0  0  0  0
 51 50  1  0  0  0  0
 52 54  2  0  0  0  0
 53 52  1  0  0  0  0
 54 55  1  0  0  0  0
 54 56  1  0  0  0  0
 56 57  1  0  0  0  0
 58 56  2  0  0  0  0
 58 10  1  0  0  0  0
 59 60  1  0  0  0  0
 60 61  1  0  0  0  0
 62 60  2  0  0  0  0
 62 63  1  0  0  0  0
 64 62  1  0  0  0  0
 65 67  1  0  0  0  0
 65 64  2  0  0  0  0
 66 65  1  0  0  0  0
 67 59  2  0  0  0  0
 68 67  1  0  0  0  0
 69 64  1  0  0  0  0
 69 71  1  0  0  0  0
 70 69  1  0  0  0  0
 72 69  1  0  0  0  0
M  END
