4,6,7,8
 OpenBabel05122313063D

 64 65  0  0  1  0  0  0  0  0999 V2000
    1.6257    0.2759   -1.1353 O   0  0  0  0  0  0  0  0  0  0  0  0
    0.2993   -1.8071   -0.8860 O   0  0  0  0  0  0  0  0  0  0  0  0
   -3.6584    0.9569    0.8261 O   0  0  0  0  0  0  0  0  0  0  0  0
    0.7108    1.1246   -0.6709 N   0  0  0  0  0  2  0  0  0  0  0  0
   -2.2953    2.9741    0.6995 O   0  0  0  0  0  1  0  0  0  0  0  0
   -0.8058   -1.2320   -0.4343 N   0  0  0  0  0  2  0  0  0  0  0  0
   -2.7402    0.1187    0.3727 N   0  0  0  0  0  2  0  0  0  0  0  0
   -1.2248    2.4516    0.1818 N   0  0  0  0  0  2  0  0  0  0  0  0
   -0.2315    3.2075   -0.2740 C   0  0  0  0  0  0  0  0  0  0  0  0
    3.0628   -0.2633    1.4631 C   0  0  0  0  0  0  0  0  0  0  0  0
    4.1516   -1.2074   -0.7027 C   0  0  0  0  0  0  0  0  0  0  0  0
    4.3271   -0.8338    0.7849 C   0  0  0  0  0  0  0  0  0  0  0  0
    2.1186    3.0162   -1.4221 C   0  0  0  0  0  0  0  0  0  0  0  0
    0.8851    2.4275   -0.8033 C   0  0  0  0  0  0  0  0  0  0  0  0
    1.7582   -1.0168    1.1332 C   0  0  2  0  0  0  0  0  0  0  0  0
   -1.9332   -1.9202   -0.3975 C   0  0  0  0  0  0  0  0  0  0  0  0
   -3.0563   -1.1400    0.1233 C   0  0  0  0  0  0  0  0  0  0  0  0
    2.8486   -1.9678   -1.0450 C   0  0  1  0  0  0  0  0  0  0  0  0
   -0.2966    4.7018   -0.1698 C   0  0  0  0  0  0  0  0  0  0  0  0
    2.7496   -3.3921   -0.4493 C   0  0  0  0  0  0  0  0  0  0  0  0
   -2.0148   -3.3582   -0.8162 C   0  0  0  0  0  0  0  0  0  0  0  0
   -5.3790   -1.2765   -0.8539 C   0  0  0  0  0  0  0  0  0  0  0  0
   -4.4515   -1.6546    0.3142 C   0  0  0  0  0  0  0  0  0  0  0  0
   -1.6993   -4.3470    0.3191 C   0  0  0  0  0  0  0  0  0  0  0  0
    1.6740   -2.4397    1.7214 C   0  0  0  0  0  0  0  0  0  0  0  0
    2.6470   -3.4592    1.0898 C   0  0  0  0  0  0  0  0  0  0  0  0
    1.6172   -1.1106   -0.4766 B   0  0  2  0  0  0  0  0  0  0  0  0
    3.1803    3.4431   -0.3943 C   0  0  0  0  0  0  0  0  0  0  0  0
   -0.0786    5.2081    1.2667 C   0  0  0  0  0  0  0  0  0  0  0  0
    3.2286   -0.2241    2.5641 H   0  0  0  0  0  0  0  0  0  0  0  0
    2.9338    0.7937    1.1424 H   0  0  0  0  0  0  0  0  0  0  0  0
    5.0426   -1.7888   -1.0332 H   0  0  0  0  0  0  0  0  0  0  0  0
    4.1613   -0.2725   -1.3050 H   0  0  0  0  0  0  0  0  0  0  0  0
    4.6761   -1.7207    1.3505 H   0  0  0  0  0  0  0  0  0  0  0  0
    5.1521   -0.0939    0.8782 H   0  0  0  0  0  0  0  0  0  0  0  0
    2.5435    2.2545   -2.1045 H   0  0  0  0  0  0  0  0  0  0  0  0
    1.8222    3.8882   -2.0416 H   0  0  0  0  0  0  0  0  0  0  0  0
    0.9074   -0.4235    1.5570 H   0  0  0  0  0  0  0  0  0  0  0  0
    2.7944   -2.0613   -2.1528 H   0  0  0  0  0  0  0  0  0  0  0  0
    0.4420    5.1553   -0.8599 H   0  0  0  0  0  0  0  0  0  0  0  0
   -1.3069    5.0134   -0.5107 H   0  0  0  0  0  0  0  0  0  0  0  0
    3.6135   -4.0143   -0.7773 H   0  0  0  0  0  0  0  0  0  0  0  0
    1.8478   -3.8756   -0.8854 H   0  0  0  0  0  0  0  0  0  0  0  0
   -3.0275   -3.5561   -1.2236 H   0  0  0  0  0  0  0  0  0  0  0  0
   -1.2913   -3.5035   -1.6434 H   0  0  0  0  0  0  0  0  0  0  0  0
   -6.4096   -1.6396   -0.6706 H   0  0  0  0  0  0  0  0  0  0  0  0
   -5.0250   -1.7136   -1.8093 H   0  0  0  0  0  0  0  0  0  0  0  0
   -5.4161   -0.1761   -0.9708 H   0  0  0  0  0  0  0  0  0  0  0  0
   -4.4247   -2.7537    0.4517 H   0  0  0  0  0  0  0  0  0  0  0  0
   -4.8455   -1.2128    1.2524 H   0  0  0  0  0  0  0  0  0  0  0  0
   -1.7772   -5.3913   -0.0428 H   0  0  0  0  0  0  0  0  0  0  0  0
   -2.3980   -4.2264    1.1717 H   0  0  0  0  0  0  0  0  0  0  0  0
   -0.6706   -4.1910    0.6980 H   0  0  0  0  0  0  0  0  0  0  0  0
    1.8343   -2.4215    2.8237 H   0  0  0  0  0  0  0  0  0  0  0  0
    0.6331   -2.8045    1.5787 H   0  0  0  0  0  0  0  0  0  0  0  0
    2.3387   -4.4853    1.3883 H   0  0  0  0  0  0  0  0  0  0  0  0
    3.6539   -3.3255    1.5332 H   0  0  0  0  0  0  0  0  0  0  0  0
    4.0669    3.8660   -0.9068 H   0  0  0  0  0  0  0  0  0  0  0  0
    3.5142    2.5759    0.2084 H   0  0  0  0  0  0  0  0  0  0  0  0
    2.7908    4.2121    0.3027 H   0  0  0  0  0  0  0  0  0  0  0  0
   -0.1743    6.3111    1.3135 H   0  0  0  0  0  0  0  0  0  0  0  0
    0.9265    4.9331    1.6446 H   0  0  0  0  0  0  0  0  0  0  0  0
   -0.8353    4.7663    1.9433 H   0  0  0  0  0  0  0  0  0  0  0  0
   -3.1211    1.9403    0.8428 H   0  0  0  0  0  0  0  0  0  0  0  0
  1  4  1  0  0  0  0
  2 27  1  0  0  0  0
  2  6  1  0  0  0  0
  3 64  1  0  0  0  0
  6 16  1  0  0  0  0
  7  3  1  0  0  0  0
  8  5  1  0  0  0  0
  9 19  1  0  0  0  0
  9  8  1  0  0  0  0
 10 30  1  0  0  0  0
 11 12  1  0  0  0  0
 12 35  1  0  0  0  0
 12 34  1  0  0  0  0
 12 10  1  0  0  0  0
 13 14  1  0  0  0  0
 13 28  1  0  0  0  0
 14  4  1  0  0  0  0
 14  9  2  0  0  0  0
 15 10  1  0  0  0  0
 15 38  1  1  0  0  0
 15 25  1  0  0  0  0
 16 17  2  0  0  0  0
 17 23  1  0  0  0  0
 17  7  1  0  0  0  0
 18 39  1  6  0  0  0
 18 11  1  0  0  0  0
 18 27  1  0  0  0  0
 18 20  1  0  0  0  0
 19 29  1  0  0  0  0
 20 26  1  0  0  0  0
 21 16  1  0  0  0  0
 21 24  1  0  0  0  0
 22 46  1  0  0  0  0
 22 23  1  0  0  0  0
 23 49  1  0  0  0  0
 23 50  1  0  0  0  0
 24 53  1  0  0  0  0
 24 52  1  0  0  0  0
 25 54  1  0  0  0  0
 26 56  1  0  0  0  0
 26 57  1  0  0  0  0
 26 25  1  0  0  0  0
 27  1  1  6  0  0  0
 27 15  1  0  0  0  0
 28 59  1  0  0  0  0
 28 60  1  0  0  0  0
 29 61  1  0  0  0  0
 29 62  1  0  0  0  0
 29 63  1  0  0  0  0
 31 10  1  0  0  0  0
 32 11  1  0  0  0  0
 33 11  1  0  0  0  0
 36 13  1  0  0  0  0
 37 13  1  0  0  0  0
 40 19  1  0  0  0  0
 41 19  1  0  0  0  0
 42 20  1  0  0  0  0
 43 20  1  0  0  0  0
 44 21  1  0  0  0  0
 45 21  1  0  0  0  0
 47 22  1  0  0  0  0
 48 22  1  0  0  0  0
 51 24  1  0  0  0  0
 55 25  1  0  0  0  0
 58 28  1  0  0  0  0
M  END
