47,50,51,54
 OpenBabel05122313063D

 54 59  0  0  1  0  0  0  0  0999 V2000
    1.3091   -2.1796    0.6366 C   0  0  0  0  0  3  0  0  0  0  0  0
    0.2628   -2.3666    0.9052 H   0  0  0  0  0  0  0  0  0  0  0  0
    2.2660   -3.1472    0.8179 C   0  0  0  0  0  0  0  0  0  0  0  0
    1.9909   -4.1199    1.2487 H   0  0  0  0  0  0  0  0  0  0  0  0
    3.6081   -2.8879    0.4118 C   0  0  0  0  0  0  0  0  0  0  0  0
    4.6383   -3.8616    0.5105 C   0  0  0  0  0  0  0  0  0  0  0  0
    4.3911   -4.8514    0.9227 H   0  0  0  0  0  0  0  0  0  0  0  0
    5.9284   -3.5736    0.0870 C   0  0  0  0  0  0  0  0  0  0  0  0
    6.7193   -4.3340    0.1633 H   0  0  0  0  0  0  0  0  0  0  0  0
    6.2254   -2.3009   -0.4588 C   0  0  0  0  0  0  0  0  0  0  0  0
    7.2416   -2.0815   -0.8170 H   0  0  0  0  0  0  0  0  0  0  0  0
    5.2368   -1.3288   -0.5572 C   0  0  0  0  0  0  0  0  0  0  0  0
    5.5167   -0.3708   -1.0236 H   0  0  0  0  0  0  0  0  0  0  0  0
    3.9081   -1.5878   -0.1174 C   0  0  0  0  0  0  0  0  0  0  0  0
    2.8366   -0.6066   -0.1699 C   0  0  0  0  0  0  0  0  0  0  0  0
    2.5746    1.9103   -0.5700 C   0  0  2  0  0  3  0  0  0  0  0  0
    3.3573    3.0375   -0.9126 C   0  0  0  0  0  0  0  0  0  0  0  0
    4.4385    2.9212   -1.0786 H   0  0  0  0  0  0  0  0  0  0  0  0
    2.7396    4.2776   -1.0580 C   0  0  0  0  0  0  0  0  0  0  0  0
    3.3318    5.1621   -1.3312 H   0  0  0  0  0  0  0  0  0  0  0  0
    1.3516    4.3754   -0.8835 C   0  0  0  0  0  0  0  0  0  0  0  0
    0.8347    5.3299   -1.0415 H   0  0  0  0  0  0  0  0  0  0  0  0
    0.6269    3.2297   -0.5365 C   0  0  0  0  0  0  0  0  0  0  0  0
   -0.8302    3.1978   -0.3672 C   0  0  2  0  0  3  0  0  0  0  0  0
   -1.6405    4.3385   -0.2937 C   0  0  0  0  0  0  0  0  0  0  0  0
   -1.2048    5.3379   -0.4151 H   0  0  0  0  0  0  0  0  0  0  0  0
   -3.0058    4.1843   -0.0239 C   0  0  0  0  0  0  0  0  0  0  0  0
   -3.6651    5.0614    0.0378 H   0  0  0  0  0  0  0  0  0  0  0  0
   -3.5200    2.9034    0.1842 C   0  0  0  0  0  0  0  0  0  0  0  0
   -4.5846    2.7509    0.4137 H   0  0  0  0  0  0  0  0  0  0  0  0
   -2.6558    1.7933    0.0996 C   0  0  0  0  0  0  0  0  0  0  0  0
   -2.7904   -0.7239   -0.0922 C   0  0  0  0  0  0  0  0  0  0  0  0
   -3.8358   -1.7066   -0.2686 C   0  0  0  0  0  0  0  0  0  0  0  0
   -5.2006   -1.4819    0.0732 C   0  0  0  0  0  0  0  0  0  0  0  0
   -5.5441   -0.5158    0.4752 H   0  0  0  0  0  0  0  0  0  0  0  0
   -6.1505   -2.4810   -0.0941 C   0  0  0  0  0  0  0  0  0  0  0  0
   -7.1975   -2.2891    0.1820 H   0  0  0  0  0  0  0  0  0  0  0  0
   -5.7812   -3.7413   -0.6284 C   0  0  0  0  0  0  0  0  0  0  0  0
   -6.5439   -4.5228   -0.7598 H   0  0  0  0  0  0  0  0  0  0  0  0
   -4.4651   -3.9814   -0.9963 C   0  0  0  0  0  0  0  0  0  0  0  0
   -4.1710   -4.9496   -1.4282 H   0  0  0  0  0  0  0  0  0  0  0  0
   -3.4709   -2.9785   -0.8307 C   0  0  1  0  0  3  0  0  0  0  0  0
   -2.1209   -3.1567   -1.2488 C   0  0  0  0  0  0  0  0  0  0  0  0
   -1.8149   -4.0783   -1.7633 H   0  0  0  0  0  0  0  0  0  0  0  0
   -1.2024   -2.1586   -1.0309 C   0  0  0  0  0  0  0  0  0  0  0  0
   -0.1725   -2.2300   -1.3998 H   0  0  0  0  0  0  0  0  0  0  0  0
    1.5608   -0.9248    0.1208 N   0  0  0  0  0  2  0  0  0  0  0  0
    3.2111    0.6835   -0.4883 N   0  0  0  0  0  0  0  0  0  0  0  0
    4.2126    0.7629   -0.6618 H   0  0  0  0  0  0  0  0  0  0  0  0
    1.2506    2.0204   -0.3341 N   0  0  0  0  0  2  0  0  0  0  0  0
   -1.3514    1.9395   -0.2115 N   0  0  0  0  0  2  0  0  0  0  0  0
   -3.1539    0.5264    0.3982 N   0  0  0  0  0  0  0  0  0  0  0  0
   -4.1208    0.5624    0.7201 H   0  0  0  0  0  0  0  0  0  0  0  0
   -1.5016   -0.9837   -0.3703 N   0  0  0  0  0  2  0  0  0  0  0  0
  1  3  1  0  0  0  0
  1  2  1  0  0  0  0
  3  4  1  0  0  0  0
  5  6  1  0  0  0  0
  5  3  2  0  0  0  0
  6  7  1  0  0  0  0
  8  9  1  0  0  0  0
  8  6  2  0  0  0  0
 10  8  1  0  0  0  0
 11 10  1  0  0  0  0
 12 10  2  0  0  0  0
 12 14  1  0  0  0  0
 13 12  1  0  0  0  0
 14  5  1  0  0  0  0
 15 14  2  0  0  0  0
 15 47  1  0  0  0  0
 16 48  1  6  0  0  0
 16 50  1  0  0  0  0
 17 16  1  0  0  0  0
 18 17  1  0  0  0  0
 19 17  2  0  0  0  0
 19 21  1  0  0  0  0
 20 19  1  0  0  0  0
 21 23  2  0  0  0  0
 22 21  1  0  0  0  0
 23 50  1  0  0  0  0
 24 23  1  1  0  0  0
 24 25  1  0  0  0  0
 24 51  1  0  0  0  0
 25 27  2  0  0  0  0
 26 25  1  0  0  0  0
 27 28  1  0  0  0  0
 27 29  1  0  0  0  0
 29 30  1  0  0  0  0
 31 29  2  0  0  0  0
 31 52  1  0  0  0  0
 32 52  1  0  0  0  0
 33 32  2  0  0  0  0
 33 34  1  0  0  0  0
 34 35  1  0  0  0  0
 36 34  2  0  0  0  0
 36 37  1  0  0  0  0
 38 36  1  0  0  0  0
 39 38  1  0  0  0  0
 40 42  1  0  0  0  0
 40 38  2  0  0  0  0
 41 40  1  0  0  0  0
 42 43  1  6  0  0  0
 42 33  1  0  0  0  0
 43 45  2  0  0  0  0
 44 43  1  0  0  0  0
 45 54  1  0  0  0  0
 46 45  1  0  0  0  0
 47  1  1  0  0  0  0
 48 15  1  0  0  0  0
 49 48  1  0  0  0  0
 51 31  1  0  0  0  0
 52 53  1  0  0  0  0
 54 32  1  0  0  0  0
M  END
