5,6,7,8
 OpenBabel05122313063D

 66 72  0  0  1  0  0  0  0  0999 V2000
    3.5698    1.6513   -1.1538 O   0  0  0  0  0  0  0  0  0  0  0  0
   -3.5698   -1.6513   -1.1538 O   0  0  0  0  0  0  0  0  0  0  0  0
   -3.5113   -1.9841    1.5953 O   0  0  0  0  0  0  0  0  0  0  0  0
    3.5112    1.9841    1.5953 O   0  0  0  0  0  0  0  0  0  0  0  0
    0.6165   -1.7470   -0.1916 N   0  0  0  0  0  2  0  0  0  0  0  0
    1.8331    0.6057   -0.0305 N   0  0  0  0  0  2  0  0  0  0  0  0
   -0.6165    1.7470   -0.1917 N   0  0  0  0  0  2  0  0  0  0  0  0
   -1.8331   -0.6057   -0.0304 N   0  0  0  0  0  2  0  0  0  0  0  0
    1.9992   -3.4495   -0.6415 N   0  0  0  0  0  0  0  0  0  0  0  0
   -1.9992    3.4495   -0.6415 N   0  0  0  0  0  0  0  0  0  0  0  0
   -0.0831   -2.6771   -0.9273 C   0  0  0  0  0  0  0  0  0  0  0  0
    0.7742   -3.7632   -1.2301 C   0  0  0  0  0  0  0  0  0  0  0  0
    0.3252   -4.8497   -1.9959 C   0  0  0  0  0  0  0  0  0  0  0  0
    0.9761   -5.7003   -2.2439 H   0  0  0  0  0  0  0  0  0  0  0  0
   -1.0126   -4.8045   -2.4282 C   0  0  0  0  0  0  0  0  0  0  0  0
   -1.4042   -5.6392   -3.0288 H   0  0  0  0  0  0  0  0  0  0  0  0
   -1.8715   -3.7329   -2.0977 C   0  0  0  0  0  0  0  0  0  0  0  0
   -2.9267   -3.7282   -2.4081 H   0  0  0  0  0  0  0  0  0  0  0  0
   -1.4247   -2.6438   -1.3318 C   0  0  0  0  0  0  0  0  0  0  0  0
   -2.3695   -1.5849   -0.8577 C   0  0  0  0  0  0  0  0  0  0  0  0
   -2.7648    0.0863    0.7481 C   0  0  1  0  0  3  0  0  0  0  0  0
   -3.6841   -0.6420    1.5755 C   0  0  0  0  0  0  0  0  0  0  0  0
   -4.6625    0.0308    2.3234 C   0  0  0  0  0  0  0  0  0  0  0  0
   -5.3662   -0.5388    2.9449 H   0  0  0  0  0  0  0  0  0  0  0  0
   -4.7229    1.4370    2.3214 C   0  0  0  0  0  0  0  0  0  0  0  0
   -5.4717    1.9497    2.9428 H   0  0  0  0  0  0  0  0  0  0  0  0
   -3.8159    2.1750    1.5649 C   0  0  0  0  0  0  0  0  0  0  0  0
   -3.8196    3.2717    1.6215 H   0  0  0  0  0  0  0  0  0  0  0  0
   -2.8503    1.5077    0.7684 C   0  0  0  0  0  0  0  0  0  0  0  0
   -1.8613    2.2245   -0.0107 C   0  0  0  0  0  0  0  0  0  0  0  0
   -3.2141    4.2214   -0.8178 C   0  0  0  0  0  0  0  0  0  0  0  0
   -3.2245    4.6460   -1.8406 H   0  0  0  0  0  0  0  0  0  0  0  0
   -3.2843    5.0543   -0.0874 H   0  0  0  0  0  0  0  0  0  0  0  0
   -4.0930    3.5629   -0.6988 H   0  0  0  0  0  0  0  0  0  0  0  0
   -0.7742    3.7632   -1.2301 C   0  0  0  0  0  0  0  0  0  0  0  0
   -0.3252    4.8497   -1.9959 C   0  0  0  0  0  0  0  0  0  0  0  0
   -0.9761    5.7003   -2.2439 H   0  0  0  0  0  0  0  0  0  0  0  0
    1.0126    4.8045   -2.4283 C   0  0  0  0  0  0  0  0  0  0  0  0
    1.4042    5.6392   -3.0288 H   0  0  0  0  0  0  0  0  0  0  0  0
    1.8715    3.7329   -2.0977 C   0  0  0  0  0  0  0  0  0  0  0  0
    2.9267    3.7282   -2.4082 H   0  0  0  0  0  0  0  0  0  0  0  0
    1.4247    2.6438   -1.3318 C   0  0  0  0  0  0  0  0  0  0  0  0
    0.0831    2.6771   -0.9274 C   0  0  0  0  0  0  0  0  0  0  0  0
    2.3695    1.5849   -0.8577 C   0  0  0  0  0  0  0  0  0  0  0  0
    2.7648   -0.0863    0.7481 C   0  0  1  0  0  3  0  0  0  0  0  0
    3.6841    0.6420    1.5755 C   0  0  0  0  0  0  0  0  0  0  0  0
    4.6625   -0.0308    2.3234 C   0  0  0  0  0  0  0  0  0  0  0  0
    5.3662    0.5388    2.9449 H   0  0  0  0  0  0  0  0  0  0  0  0
    4.7229   -1.4369    2.3214 C   0  0  0  0  0  0  0  0  0  0  0  0
    5.4717   -1.9496    2.9429 H   0  0  0  0  0  0  0  0  0  0  0  0
    3.8159   -2.1750    1.5649 C   0  0  0  0  0  0  0  0  0  0  0  0
    3.8196   -3.2717    1.6215 H   0  0  0  0  0  0  0  0  0  0  0  0
    2.8504   -1.5077    0.7684 C   0  0  0  0  0  0  0  0  0  0  0  0
    1.8613   -2.2245   -0.0107 C   0  0  0  0  0  0  0  0  0  0  0  0
    3.2141   -4.2214   -0.8178 C   0  0  0  0  0  0  0  0  0  0  0  0
    3.2246   -4.6459   -1.8407 H   0  0  0  0  0  0  0  0  0  0  0  0
    3.2843   -5.0543   -0.0874 H   0  0  0  0  0  0  0  0  0  0  0  0
    4.0930   -3.5629   -0.6987 H   0  0  0  0  0  0  0  0  0  0  0  0
   -4.5136   -2.7940    2.1722 C   0  0  0  0  0  0  0  0  0  0  0  0
   -4.2121   -3.8414    1.9862 H   0  0  0  0  0  0  0  0  0  0  0  0
   -5.5043   -2.6117    1.7004 H   0  0  0  0  0  0  0  0  0  0  0  0
   -4.6013   -2.6356    3.2715 H   0  0  0  0  0  0  0  0  0  0  0  0
    4.5136    2.7940    2.1723 C   0  0  0  0  0  0  0  0  0  0  0  0
    4.2120    3.8414    1.9863 H   0  0  0  0  0  0  0  0  0  0  0  0
    5.5043    2.6117    1.7005 H   0  0  0  0  0  0  0  0  0  0  0  0
    4.6012    2.6356    3.2716 H   0  0  0  0  0  0  0  0  0  0  0  0
  1 44  2  0  0  0  0
  2 20  2  0  0  0  0
  3 59  1  0  0  0  0
  4 63  1  0  0  0  0
  5 54  1  0  0  0  0
  7 30  1  0  0  0  0
  9 54  1  0  0  0  0
 10 30  1  0  0  0  0
 11  5  1  0  0  0  0
 12 11  1  0  0  0  0
 12  9  1  0  0  0  0
 13 12  2  0  0  0  0
 14 13  1  0  0  0  0
 15 17  2  0  0  0  0
 15 13  1  0  0  0  0
 16 15  1  0  0  0  0
 17 19  1  0  0  0  0
 18 17  1  0  0  0  0
 19 11  2  0  0  0  0
 19 20  1  0  0  0  0
 20  8  1  0  0  0  0
 21  8  1  1  0  0  0
 21 29  1  0  0  0  0
 21 22  1  0  0  0  0
 22  3  1  0  0  0  0
 22 23  2  0  0  0  0
 23 24  1  0  0  0  0
 25 23  1  0  0  0  0
 25 26  1  0  0  0  0
 27 28  1  0  0  0  0
 27 25  2  0  0  0  0
 29 27  1  0  0  0  0
 30 29  2  0  0  0  0
 31 34  1  0  0  0  0
 31 10  1  0  0  0  0
 31 33  1  0  0  0  0
 32 31  1  0  0  0  0
 35 43  1  0  0  0  0
 35 10  1  0  0  0  0
 36 35  2  0  0  0  0
 37 36  1  0  0  0  0
 38 40  2  0  0  0  0
 38 36  1  0  0  0  0
 39 38  1  0  0  0  0
 40 42  1  0  0  0  0
 41 40  1  0  0  0  0
 42 43  2  0  0  0  0
 42 44  1  0  0  0  0
 43  7  1  0  0  0  0
 44  6  1  0  0  0  0
 45  6  1  1  0  0  0
 45 53  1  0  0  0  0
 45 46  1  0  0  0  0
 46  4  1  0  0  0  0
 46 47  2  0  0  0  0
 47 48  1  0  0  0  0
 49 47  1  0  0  0  0
 49 50  1  0  0  0  0
 51 52  1  0  0  0  0
 51 49  2  0  0  0  0
 53 51  1  0  0  0  0
 54 53  2  0  0  0  0
 55 58  1  0  0  0  0
 55  9  1  0  0  0  0
 55 57  1  0  0  0  0
 56 55  1  0  0  0  0
 59 62  1  0  0  0  0
 60 59  1  0  0  0  0
 61 59  1  0  0  0  0
 63 66  1  0  0  0  0
 64 63  1  0  0  0  0
 65 63  1  0  0  0  0
M  END
