1,5,18,33
 OpenBabel05122313063D

 44 46  0  0  1  0  0  0  0  0999 V2000
   -0.3946    0.2027   -1.8687 N   0  0  0  0  0  0  0  0  0  0  0  0
   -1.7023   -0.3943   -2.1287 C   0  0  0  0  0  0  0  0  0  0  0  0
   -1.8598   -0.6245   -3.2073 H   0  0  0  0  0  0  0  0  0  0  0  0
   -2.4764    0.3554   -1.8541 H   0  0  0  0  0  0  0  0  0  0  0  0
   -1.2820   -1.7081   -0.1076 N   0  0  0  0  0  2  0  0  0  0  0  0
   -1.9376   -1.6339   -1.2893 C   0  0  1  0  0  3  0  0  0  0  0  0
   -2.8346   -2.6328   -1.6958 C   0  0  0  0  0  0  0  0  0  0  0  0
   -3.3381   -2.5505   -2.6704 H   0  0  0  0  0  0  0  0  0  0  0  0
   -3.0754   -3.7209   -0.8473 C   0  0  0  0  0  0  0  0  0  0  0  0
   -3.7774   -4.5142   -1.1444 H   0  0  0  0  0  0  0  0  0  0  0  0
   -2.3968   -3.7867    0.3778 C   0  0  0  0  0  0  0  0  0  0  0  0
   -2.5435   -4.6261    1.0717 H   0  0  0  0  0  0  0  0  0  0  0  0
   -1.5014   -2.7641    0.7055 C   0  0  0  0  0  0  0  0  0  0  0  0
   -0.9081   -2.7978    1.6292 H   0  0  0  0  0  0  0  0  0  0  0  0
    0.7239   -0.4885   -2.5172 C   0  0  0  0  0  0  0  0  0  0  0  0
    0.7857   -0.2678   -3.6076 H   0  0  0  0  0  0  0  0  0  0  0  0
    0.5392   -1.5814   -2.4220 H   0  0  0  0  0  0  0  0  0  0  0  0
    1.9755    0.1199   -0.5142 N   0  0  0  0  0  2  0  0  0  0  0  0
    2.0416   -0.1505   -1.8461 C   0  0  1  0  0  3  0  0  0  0  0  0
    3.2366   -0.1404   -2.5574 C   0  0  0  0  0  0  0  0  0  0  0  0
    3.2456   -0.3514   -3.6353 H   0  0  0  0  0  0  0  0  0  0  0  0
    4.4268    0.1421   -1.8509 C   0  0  0  0  0  0  0  0  0  0  0  0
    5.3946    0.1395   -2.3738 H   0  0  0  0  0  0  0  0  0  0  0  0
    4.3725    0.4446   -0.5002 C   0  0  0  0  0  0  0  0  0  0  0  0
    5.2819    0.6921    0.0655 H   0  0  0  0  0  0  0  0  0  0  0  0
    3.1102    0.4576    0.1646 C   0  0  0  0  0  0  0  0  0  0  0  0
    3.0039    0.8330    1.4587 N   0  0  0  0  0  0  0  0  0  0  0  0
    3.8451    1.0160    2.0012 H   0  0  0  0  0  0  0  0  0  0  0  0
    2.0969    0.7746    1.9444 H   0  0  0  0  0  0  0  0  0  0  0  0
   -0.3793    1.6644   -1.9998 C   0  0  0  0  0  0  0  0  0  0  0  0
   -0.7677    2.0064   -2.9853 H   0  0  0  0  0  0  0  0  0  0  0  0
    0.6794    1.9951   -1.9383 H   0  0  0  0  0  0  0  0  0  0  0  0
   -1.0337    1.7314    0.3520 N   0  0  0  0  0  2  0  0  0  0  0  0
   -1.1621    2.3128   -0.8744 C   0  0  1  0  0  3  0  0  0  0  0  0
   -1.9342    3.4487   -1.0945 C   0  0  0  0  0  0  0  0  0  0  0  0
   -2.0176    3.8774   -2.1024 H   0  0  0  0  0  0  0  0  0  0  0  0
   -2.5966    4.0286    0.0108 C   0  0  0  0  0  0  0  0  0  0  0  0
   -3.2136    4.9296   -0.1226 H   0  0  0  0  0  0  0  0  0  0  0  0
   -2.4701    3.4562    1.2646 C   0  0  0  0  0  0  0  0  0  0  0  0
   -2.9758    3.8871    2.1405 H   0  0  0  0  0  0  0  0  0  0  0  0
   -1.6705    2.2831    1.4278 C   0  0  0  0  0  0  0  0  0  0  0  0
   -1.5464    1.6928    2.6370 N   0  0  0  0  0  0  0  0  0  0  0  0
   -0.8418    0.9526    2.7960 H   0  0  0  0  0  0  0  0  0  0  0  0
   -1.9688    2.1435    3.4462 H   0  0  0  0  0  0  0  0  0  0  0  0
  2  1  1  0  0  0  0
  2  4  1  0  0  0  0
  3  2  1  0  0  0  0
  5 13  1  0  0  0  0
  6  2  1  1  0  0  0
  6  5  1  0  0  0  0
  7  6  1  0  0  0  0
  7  9  2  0  0  0  0
  8  7  1  0  0  0  0
  9 11  1  0  0  0  0
 10  9  1  0  0  0  0
 11 13  2  0  0  0  0
 11 12  1  0  0  0  0
 13 14  1  0  0  0  0
 15 17  1  0  0  0  0
 15  1  1  0  0  0  0
 16 15  1  0  0  0  0
 18 26  1  0  0  0  0
 19 15  1  1  0  0  0
 19 18  1  0  0  0  0
 20 22  2  0  0  0  0
 20 19  1  0  0  0  0
 21 20  1  0  0  0  0
 22 24  1  0  0  0  0
 23 22  1  0  0  0  0
 24 25  1  0  0  0  0
 24 26  2  0  0  0  0
 26 27  1  0  0  0  0
 27 29  1  0  0  0  0
 27 28  1  0  0  0  0
 30 32  1  0  0  0  0
 30  1  1  0  0  0  0
 31 30  1  0  0  0  0
 33 41  1  0  0  0  0
 34 30  1  1  0  0  0
 34 33  1  0  0  0  0
 35 34  1  0  0  0  0
 35 37  2  0  0  0  0
 36 35  1  0  0  0  0
 37 39  1  0  0  0  0
 38 37  1  0  0  0  0
 39 41  2  0  0  0  0
 39 40  1  0  0  0  0
 41 42  1  0  0  0  0
 42 43  1  0  0  0  0
 42 44  1  0  0  0  0
M  END
