1,2,3,4
 OpenBabel05122313063D

 59 61  0  0  1  0  0  0  0  0999 V2000
    1.0346   -2.1560   -0.0159 N   0  0  0  0  0  2  0  0  0  0  0  0
    1.2558    0.4979    0.4453 N   0  0  0  0  0  2  0  0  0  0  0  0
   -1.2701    0.7799    0.2160 N   0  0  0  0  0  2  0  0  0  0  0  0
   -1.5548   -1.9491    0.1198 N   0  0  0  0  0  2  0  0  0  0  0  0
    0.9666   -4.4356    0.5230 O   0  0  0  0  0  0  0  0  0  0  0  0
   -1.7605   -4.1665    0.8709 O   0  0  0  0  0  0  0  0  0  0  0  0
    3.8431    2.2406   -0.3030 O   0  0  0  0  0  0  0  0  0  0  0  0
    3.8716    1.5056    1.8480 O   0  0  0  0  0  0  0  0  0  0  0  0
   -3.2234    2.7491   -1.1246 O   0  0  0  0  0  0  0  0  0  0  0  0
   -3.7325    2.6557    1.0958 O   0  0  0  0  0  0  0  0  0  0  0  0
    2.3521   -2.0977   -0.4295 C   0  0  0  0  0  0  0  0  0  0  0  0
    3.0254   -3.2418   -0.9529 C   0  0  0  0  0  0  0  0  0  0  0  0
    2.4826   -4.1913   -0.9911 H   0  0  0  0  0  0  0  0  0  0  0  0
    4.3454   -3.1729   -1.3890 C   0  0  0  0  0  0  0  0  0  0  0  0
    4.8168   -4.0797   -1.7985 H   0  0  0  0  0  0  0  0  0  0  0  0
    5.0790   -1.9701   -1.3157 C   0  0  0  0  0  0  0  0  0  0  0  0
    6.1207   -1.9226   -1.6639 H   0  0  0  0  0  0  0  0  0  0  0  0
    4.4568   -0.8418   -0.7980 C   0  0  0  0  0  3  0  0  0  0  0  0
    5.0083    0.1077   -0.7532 H   0  0  0  0  0  0  0  0  0  0  0  0
    3.1052   -0.8725   -0.3527 C   0  0  0  0  0  0  0  0  0  0  0  0
    2.5363    0.3254    0.2204 C   0  0  0  0  0  0  0  0  0  0  0  0
    0.7640    1.7256    1.0963 C   0  0  2  0  0  0  0  0  0  0  0  0
    1.4756    2.5619    0.9252 H   0  0  0  0  0  0  0  0  0  0  0  0
    0.5840    1.5097    2.6014 C   0  0  0  0  0  0  0  0  0  0  0  0
    1.5512    1.2366    3.0639 H   0  0  0  0  0  0  0  0  0  0  0  0
   -0.1466    0.6981    2.7906 H   0  0  0  0  0  0  0  0  0  0  0  0
    0.2105    2.4380    3.0778 H   0  0  0  0  0  0  0  0  0  0  0  0
   -0.5370    2.0439    0.3706 C   0  0  0  0  0  0  0  0  0  0  0  0
   -1.1248    2.7930    0.9390 H   0  0  0  0  0  0  0  0  0  0  0  0
   -0.3228    2.4593   -0.6376 H   0  0  0  0  0  0  0  0  0  0  0  0
   -2.5720    0.8066    0.0432 C   0  0  0  0  0  0  0  0  0  0  0  0
   -3.4073   -0.3497   -0.1637 C   0  0  0  0  0  0  0  0  0  0  0  0
   -4.7904   -0.1286   -0.4259 C   0  0  0  0  0  3  0  0  0  0  0  0
   -5.1648    0.9043   -0.4735 H   0  0  0  0  0  0  0  0  0  0  0  0
   -5.6771   -1.1764   -0.6264 C   0  0  0  0  0  0  0  0  0  0  0  0
   -6.7392   -0.9792   -0.8301 H   0  0  0  0  0  0  0  0  0  0  0  0
   -5.1816   -2.4954   -0.5623 C   0  0  0  0  0  0  0  0  0  0  0  0
   -5.8612   -3.3466   -0.7228 H   0  0  0  0  0  0  0  0  0  0  0  0
   -3.8400   -2.7517   -0.2977 C   0  0  0  0  0  0  0  0  0  0  0  0
   -3.4844   -3.7833   -0.2218 H   0  0  0  0  0  0  0  0  0  0  0  0
   -2.8970   -1.6968   -0.0970 C   0  0  0  0  0  0  0  0  0  0  0  0
   -1.0952   -3.2077    0.4996 C   0  0  0  0  0  0  0  0  0  0  0  0
    0.4298   -3.3484    0.3507 C   0  0  0  0  0  0  0  0  0  0  0  0
    3.4935    1.4079    0.6971 C   0  0  0  0  0  0  0  0  0  0  0  0
    4.7668    3.3043    0.0535 C   0  0  0  0  0  0  0  0  0  0  0  0
    5.6934    2.8426    0.4546 H   0  0  0  0  0  0  0  0  0  0  0  0
    4.3188    3.8958    0.8794 H   0  0  0  0  0  0  0  0  0  0  0  0
    5.0201    4.1334   -1.1864 C   0  0  0  0  0  0  0  0  0  0  0  0
    5.7220    4.9573   -0.9504 H   0  0  0  0  0  0  0  0  0  0  0  0
    4.0799    4.5781   -1.5682 H   0  0  0  0  0  0  0  0  0  0  0  0
    5.4657    3.5192   -1.9935 H   0  0  0  0  0  0  0  0  0  0  0  0
   -3.2552    2.1664    0.0911 C   0  0  0  0  0  0  0  0  0  0  0  0
   -3.8145    4.0726   -1.2252 C   0  0  0  0  0  0  0  0  0  0  0  0
   -4.1185    4.1563   -2.2860 H   0  0  0  0  0  0  0  0  0  0  0  0
   -4.7158    4.1064   -0.5806 H   0  0  0  0  0  0  0  0  0  0  0  0
   -2.8206    5.1526   -0.8348 C   0  0  0  0  0  0  0  0  0  0  0  0
   -3.2663    6.1532   -1.0053 H   0  0  0  0  0  0  0  0  0  0  0  0
   -1.8953    5.0811   -1.4404 H   0  0  0  0  0  0  0  0  0  0  0  0
   -2.5573    5.0770    0.2382 H   0  0  0  0  0  0  0  0  0  0  0  0
  1 43  1  0  0  0  0
  2 22  1  0  0  0  0
  3 28  1  0  0  0  0
  4 42  1  0  0  0  0
  7 45  1  0  0  0  0
  7 44  1  0  0  0  0
  9 52  1  0  0  0  0
 11 20  1  0  0  0  0
 11  1  1  0  0  0  0
 12 11  2  0  0  0  0
 13 12  1  0  0  0  0
 14 16  2  0  0  0  0
 14 12  1  0  0  0  0
 15 14  1  0  0  0  0
 16 18  1  0  0  0  0
 17 16  1  0  0  0  0
 18 19  1  0  0  0  0
 18 20  1  0  0  0  0
 20 21  2  0  0  0  0
 21  2  1  0  0  0  0
 21 44  1  0  0  0  0
 22 23  1  6  0  0  0
 22 24  1  0  0  0  0
 24 26  1  0  0  0  0
 24 25  1  0  0  0  0
 24 27  1  0  0  0  0
 28 29  1  0  0  0  0
 28 22  1  0  0  0  0
 30 28  1  0  0  0  0
 31 52  1  0  0  0  0
 31  3  1  0  0  0  0
 32 41  1  0  0  0  0
 32 31  2  0  0  0  0
 33 32  1  0  0  0  0
 34 33  1  0  0  0  0
 35 37  2  0  0  0  0
 35 33  1  0  0  0  0
 36 35  1  0  0  0  0
 37 39  1  0  0  0  0
 38 37  1  0  0  0  0
 39 40  1  0  0  0  0
 39 41  2  0  0  0  0
 41  4  1  0  0  0  0
 42  6  2  0  0  0  0
 43 42  1  0  0  0  0
 43  5  2  0  0  0  0
 44  8  2  0  0  0  0
 45 46  1  0  0  0  0
 45 47  1  0  0  0  0
 48 49  1  0  0  0  0
 48 45  1  0  0  0  0
 50 48  1  0  0  0  0
 51 48  1  0  0  0  0
 52 10  2  0  0  0  0
 53  9  1  0  0  0  0
 53 56  1  0  0  0  0
 53 55  1  0  0  0  0
 54 53  1  0  0  0  0
 56 59  1  0  0  0  0
 57 56  1  0  0  0  0
 58 56  1  0  0  0  0
M  END
