4,5,9,10
 OpenBabel05122313063D

 78 86  0  0  0  0  0  0  0  0999 V2000
   -4.9068   -3.3326   -2.0175 F   0  0  0  0  0  0  0  0  0  0  0  0
   -4.9807   -0.8642    2.0573 F   0  0  0  0  0  0  0  0  0  0  0  0
   -7.6746   -1.1221    2.1525 F   0  0  0  0  0  0  0  0  0  0  0  0
   -1.2438   -3.1170   -0.2315 N   0  0  0  0  0  2  0  0  0  0  0  0
   -1.4758   -0.3146    0.0635 N   0  0  0  0  0  0  0  0  0  0  0  0
   -8.9952   -2.4951    0.1872 F   0  0  0  0  0  0  0  0  0  0  0  0
    4.9113   -3.0057   -2.0577 F   0  0  0  0  0  0  0  0  0  0  0  0
    5.0123   -1.0984    2.2997 F   0  0  0  0  0  0  0  0  0  0  0  0
    1.2700   -3.0909    0.1865 N   0  0  0  0  0  2  0  0  0  0  0  0
    1.4851   -0.3020   -0.0649 N   0  0  0  0  0  2  0  0  0  0  0  0
   -7.5990   -3.6009   -1.8914 F   0  0  0  0  0  0  0  0  0  0  0  0
    9.0264   -2.4207    0.1881 F   0  0  0  0  0  0  0  0  0  0  0  0
    0.7513   -4.3383    0.0703 C   0  0  0  0  0  0  0  0  0  0  0  0
   -0.0194    4.3264   -0.1329 C   0  0  0  0  0  0  0  0  0  0  0  0
   -0.0325    5.6929   -0.1662 C   0  0  0  0  0  3  0  0  0  0  0  0
   -2.6012   -3.1547   -0.0672 C   0  0  0  0  0  0  0  0  0  0  0  0
    7.6142   -3.2544   -2.0045 F   0  0  0  0  0  0  0  0  0  0  0  0
    2.3617    5.8159   -0.9101 C   0  0  0  0  0  0  0  0  0  0  0  0
    2.2350    4.8272   -1.3763 H   0  0  0  0  0  0  0  0  0  0  0  0
   -0.0097    3.0698   -0.1002 C   0  0  0  0  0  0  0  0  0  0  0  0
    2.6345   -3.1287    0.1211 C   0  0  0  0  0  0  0  0  0  0  0  0
    7.7166   -1.3394    2.3355 F   0  0  0  0  0  0  0  0  0  0  0  0
   -2.5983    1.6405   -0.2739 C   0  0  0  0  0  0  0  0  0  0  0  0
   -2.7814    2.7100   -0.4274 H   0  0  0  0  0  0  0  0  0  0  0  0
   -1.7877   -5.2749    0.2230 C   0  0  0  0  0  0  0  0  0  0  0  0
   -1.6911   -6.3475    0.4284 H   0  0  0  0  0  0  0  0  0  0  0  0
    2.8367   -0.5968    0.0421 C   0  0  0  0  0  0  0  0  0  0  0  0
   -0.0017    1.6944   -0.0631 C   0  0  0  0  0  0  0  0  0  0  0  0
    2.6027    1.6773    0.0933 C   0  0  0  0  0  0  0  0  0  0  0  0
    2.7829    2.7565    0.1560 H   0  0  0  0  0  0  0  0  0  0  0  0
    1.8453   -5.2759    0.0006 C   0  0  0  0  0  3  0  0  0  0  0  0
    1.7664   -6.3655   -0.0914 H   0  0  0  0  0  0  0  0  0  0  0  0
    3.3870   -1.9195    0.0965 C   0  0  0  0  0  0  0  0  0  0  0  0
   -3.8522    7.6809   -0.0360 C   0  0  0  0  0  0  0  0  0  0  0  0
   -4.8317    8.1817   -0.0089 H   0  0  0  0  0  0  0  0  0  0  0  0
   -1.5229    7.6464   -0.7393 C   0  0  0  0  0  0  0  0  0  0  0  0
   -0.6918    8.1063   -1.2930 H   0  0  0  0  0  0  0  0  0  0  0  0
    5.5735   -2.5982   -0.9692 C   0  0  0  0  0  0  0  0  0  0  0  0
   -3.3661   -1.9518   -0.0469 C   0  0  0  0  0  0  0  0  0  0  0  0
   -2.9699   -4.5338    0.1888 C   0  0  0  0  0  0  0  0  0  0  0  0
   -3.9839   -4.9098    0.3712 H   0  0  0  0  0  0  0  0  0  0  0  0
    6.9720   -2.7302   -0.9572 C   0  0  0  0  0  0  0  0  0  0  0  0
    3.5475    0.6595    0.1149 C   0  0  0  0  0  0  0  0  0  0  0  0
    4.6339    0.7772    0.1954 H   0  0  0  0  0  0  0  0  0  0  0  0
    3.7486    7.7448   -0.3934 C   0  0  0  0  0  0  0  0  0  0  0  0
    4.7185    8.2622   -0.4447 H   0  0  0  0  0  0  0  0  0  0  0  0
   -3.5363    0.6160   -0.2516 C   0  0  0  0  0  0  0  0  0  0  0  0
   -4.6183    0.7139   -0.3963 H   0  0  0  0  0  0  0  0  0  0  0  0
   -2.8220   -0.6238   -0.0588 C   0  0  0  0  0  3  0  0  0  0  0  0
    3.5936    6.4742   -0.9751 C   0  0  0  0  0  0  0  0  0  0  0  0
    4.4407    5.9959   -1.4896 H   0  0  0  0  0  0  0  0  0  0  0  0
    1.2500    6.4170   -0.2668 C   0  0  0  0  0  0  0  0  0  0  0  0
   -5.5944   -1.5218    1.0684 C   0  0  0  0  0  0  0  0  0  0  0  0
    4.8731   -2.0414    0.1186 C   0  0  0  0  0  0  0  0  0  0  0  0
    1.4223    7.6963    0.3191 C   0  0  0  0  0  0  0  0  0  0  0  0
    0.5844    8.1632    0.8564 H   0  0  0  0  0  0  0  0  0  0  0  0
    2.6598    8.3488    0.2563 C   0  0  0  0  0  0  0  0  0  0  0  0
    2.7780    9.3358    0.7284 H   0  0  0  0  0  0  0  0  0  0  0  0
   -4.8446   -2.0845    0.0129 C   0  0  0  0  0  0  0  0  0  0  0  0
   -0.7096   -4.3457   -0.0069 C   0  0  0  0  0  0  0  0  0  0  0  0
   -5.5541   -2.7957   -0.9787 C   0  0  0  0  0  0  0  0  0  0  0  0
   -1.3288    6.3961   -0.1000 C   0  0  0  0  0  0  0  0  0  0  0  0
   -1.3078    1.0278   -0.0821 C   0  0  0  0  0  0  0  0  0  0  0  0
   -2.4316    5.8014    0.5646 C   0  0  0  0  0  0  0  0  0  0  0  0
   -2.2887    4.8352    1.0717 H   0  0  0  0  0  0  0  0  0  0  0  0
    1.3117    1.0445   -0.0163 C   0  0  0  0  0  0  0  0  0  0  0  0
   -6.9905   -1.6537    1.1360 C   0  0  0  0  0  0  0  0  0  0  0  0
    5.6261   -1.6208    1.2323 C   0  0  0  0  0  0  0  0  0  0  0  0
   -7.6697   -2.3646    0.1317 C   0  0  0  0  0  0  0  0  0  0  0  0
   -3.6758    6.4386    0.5983 C   0  0  0  0  0  0  0  0  0  0  0  0
   -4.5155    5.9661    1.1300 H   0  0  0  0  0  0  0  0  0  0  0  0
   -6.9505   -2.9366   -0.9315 C   0  0  0  0  0  0  0  0  0  0  0  0
    7.6984   -2.3001    0.1661 C   0  0  0  0  0  0  0  0  0  0  0  0
    3.0217   -4.5245    0.0346 C   0  0  0  0  0  0  0  0  0  0  0  0
    4.0457   -4.9120   -0.0253 H   0  0  0  0  0  0  0  0  0  0  0  0
    7.0251   -1.7415    1.2658 C   0  0  0  0  0  0  0  0  0  0  0  0
   -2.7725    8.2776   -0.7072 C   0  0  0  0  0  0  0  0  0  0  0  0
   -2.9072    9.2419   -1.2201 H   0  0  0  0  0  0  0  0  0  0  0  0
  1 61  1  0  0  0  0
  4 16  1  0  0  0  0
  4 60  1  0  0  0  0
  7 38  1  0  0  0  0
 10 66  1  0  0  0  0
 10 27  1  0  0  0  0
 11 72  1  0  0  0  0
 13  9  1  0  0  0  0
 14 20  3  0  0  0  0
 15 14  1  0  0  0  0
 15 62  1  0  0  0  0
 16 39  2  0  0  0  0
 16 40  1  0  0  0  0
 17 42  1  0  0  0  0
 18 52  1  0  0  0  0
 19 18  1  0  0  0  0
 20 28  1  0  0  0  0
 21  9  1  0  0  0  0
 23 47  2  0  0  0  0
 23 63  1  0  0  0  0
 24 23  1  0  0  0  0
 25 26  1  0  0  0  0
 27 33  2  0  0  0  0
 27 43  1  0  0  0  0
 28 66  2  0  0  0  0
 29 43  2  0  0  0  0
 29 30  1  0  0  0  0
 31 74  1  0  0  0  0
 31 13  1  0  0  0  0
 32 31  1  0  0  0  0
 33 54  1  0  0  0  0
 33 21  1  0  0  0  0
 34 35  1  0  0  0  0
 34 70  1  0  0  0  0
 36 77  1  0  0  0  0
 36 62  2  0  0  0  0
 37 36  1  0  0  0  0
 38 42  2  0  0  0  0
 38 54  1  0  0  0  0
 39 59  1  0  0  0  0
 40 25  2  0  0  0  0
 40 41  1  0  0  0  0
 42 73  1  0  0  0  0
 43 44  1  0  0  0  0
 45 57  2  0  0  0  0
 46 45  1  0  0  0  0
 47 49  1  0  0  0  0
 48 47  1  0  0  0  0
 49 39  1  0  0  0  0
 49  5  1  0  0  0  0
 50 18  2  0  0  0  0
 50 45  1  0  0  0  0
 51 50  1  0  0  0  0
 52 15  1  0  0  0  0
 52 55  2  0  0  0  0
 53 67  1  0  0  0  0
 53  2  1  0  0  0  0
 54 68  2  0  0  0  0
 55 56  1  0  0  0  0
 57 55  1  0  0  0  0
 57 58  1  0  0  0  0
 59 53  2  0  0  0  0
 60 13  2  0  0  0  0
 60 25  1  0  0  0  0
 61 72  2  0  0  0  0
 61 59  1  0  0  0  0
 62 64  1  0  0  0  0
 63 28  1  0  0  0  0
 63  5  2  0  0  0  0
 64 70  2  0  0  0  0
 64 65  1  0  0  0  0
 66 29  1  0  0  0  0
 67  3  1  0  0  0  0
 68 76  1  0  0  0  0
 68  8  1  0  0  0  0
 69  6  1  0  0  0  0
 69 67  2  0  0  0  0
 70 71  1  0  0  0  0
 72 69  1  0  0  0  0
 73 12  1  0  0  0  0
 73 76  2  0  0  0  0
 74 21  2  0  0  0  0
 75 74  1  0  0  0  0
 76 22  1  0  0  0  0
 77 34  2  0  0  0  0
 78 77  1  0  0  0  0
M  END
