1,2,37,38
 OpenBabel05122313063D

 72 80  0  0  0  0  0  0  0  0999 V2000
    0.1072   -2.1383   -0.4028 N   0  0  0  0  0  2  0  0  0  0  0  0
   -2.1444   -0.1072   -0.3640 N   0  0  0  0  0  0  0  0  0  0  0  0
    5.7823   -5.2768   -0.6172 N   0  0  0  0  0  0  0  0  0  0  0  0
   -5.2739   -5.7833   -0.6480 N   0  0  0  0  0  0  0  0  0  0  0  0
    1.2637   -2.8713   -0.4570 C   0  0  0  0  0  0  0  0  0  0  0  0
    5.5669   -4.4214   -1.6298 C   0  0  0  0  0  0  0  0  0  0  0  0
    6.2411   -4.5124   -2.5008 H   0  0  0  0  0  0  0  0  0  0  0  0
   -2.8759   -1.2650   -0.4366 C   0  0  0  0  0  0  0  0  0  0  0  0
   -3.4478   -4.5451   -1.6522 C   0  0  0  0  0  0  0  0  0  0  0  0
   -2.7812   -4.4022   -2.5157 H   0  0  0  0  0  0  0  0  0  0  0  0
    0.9076   -4.2829   -0.5678 C   0  0  0  0  0  0  0  0  0  0  0  0
    1.6119   -5.1174   -0.6519 H   0  0  0  0  0  0  0  0  0  0  0  0
   -0.9676   -2.9857   -0.4762 C   0  0  0  0  0  0  0  0  0  0  0  0
   -0.4668   -4.3545   -0.5664 C   0  0  0  0  0  0  0  0  0  0  0  0
   -1.0792   -5.2600   -0.6311 H   0  0  0  0  0  0  0  0  0  0  0  0
   -4.4161   -5.5609   -1.6572 C   0  0  0  0  0  0  0  0  0  0  0  0
   -4.5049   -6.2295   -2.5327 H   0  0  0  0  0  0  0  0  0  0  0  0
   -4.2515   -3.9271    0.5271 C   0  0  0  0  0  0  0  0  0  0  0  0
   -4.2179   -3.2990    1.4300 H   0  0  0  0  0  0  0  0  0  0  0  0
   -5.1817   -4.9721    0.4180 C   0  0  0  0  0  0  0  0  0  0  0  0
   -5.8904   -5.1648    1.2439 H   0  0  0  0  0  0  0  0  0  0  0  0
   -4.2861   -0.9078   -0.5525 C   0  0  0  0  0  0  0  0  0  0  0  0
   -5.1198   -1.6116   -0.6486 H   0  0  0  0  0  0  0  0  0  0  0  0
   -2.3427   -2.5921   -0.4662 C   0  0  0  0  0  0  0  0  0  0  0  0
    3.6946   -3.3505   -0.5181 C   0  0  0  0  0  0  0  0  0  0  0  0
    3.9188   -4.2511    0.5437 C   0  0  0  0  0  0  0  0  0  0  0  0
    3.2833   -4.2165    1.4413 H   0  0  0  0  0  0  0  0  0  0  0  0
    4.5514   -3.4526   -1.6336 C   0  0  0  0  0  0  0  0  0  0  0  0
    4.4143   -2.7879   -2.4995 H   0  0  0  0  0  0  0  0  0  0  0  0
   -2.9909    0.9688   -0.4501 C   0  0  0  0  0  0  0  0  0  0  0  0
   -4.3582    0.4675   -0.5470 C   0  0  0  0  0  0  0  0  0  0  0  0
   -5.2633    1.0796   -0.6203 H   0  0  0  0  0  0  0  0  0  0  0  0
    2.5926   -2.3424   -0.4608 C   0  0  0  0  0  0  0  0  0  0  0  0
    4.9640   -5.1822    0.4431 C   0  0  0  0  0  0  0  0  0  0  0  0
    5.1503   -5.8899    1.2714 H   0  0  0  0  0  0  0  0  0  0  0  0
   -3.3486   -3.6951   -0.5312 C   0  0  0  0  0  0  0  0  0  0  0  0
   -0.1072    2.1383   -0.4028 N   0  0  0  0  0  0  0  0  0  0  0  0
    2.1444    0.1073   -0.3639 N   0  0  0  0  0  0  0  0  0  0  0  0
   -5.7823    5.2769   -0.6172 N   0  0  0  0  0  0  0  0  0  0  0  0
    5.2739    5.7833   -0.6479 N   0  0  0  0  0  0  0  0  0  0  0  0
   -1.2637    2.8714   -0.4570 C   0  0  0  0  0  3  0  0  0  0  0  0
   -5.5669    4.4214   -1.6298 C   0  0  0  0  0  0  0  0  0  0  0  0
   -6.2411    4.5125   -2.5007 H   0  0  0  0  0  0  0  0  0  0  0  0
    2.8759    1.2650   -0.4365 C   0  0  0  0  0  0  0  0  0  0  0  0
    3.4478    4.5452   -1.6521 C   0  0  0  0  0  0  0  0  0  0  0  0
    2.7812    4.4022   -2.5156 H   0  0  0  0  0  0  0  0  0  0  0  0
   -0.9076    4.2830   -0.5677 C   0  0  0  0  0  0  0  0  0  0  0  0
   -1.6119    5.1175   -0.6518 H   0  0  0  0  0  0  0  0  0  0  0  0
    0.9676    2.9857   -0.4761 C   0  0  0  0  0  0  0  0  0  0  0  0
    0.4669    4.3546   -0.5664 C   0  0  0  0  0  0  0  0  0  0  0  0
    1.0792    5.2601   -0.6310 H   0  0  0  0  0  0  0  0  0  0  0  0
    4.4161    5.5610   -1.6571 C   0  0  0  0  0  0  0  0  0  0  0  0
    4.5049    6.2296   -2.5326 H   0  0  0  0  0  0  0  0  0  0  0  0
    4.2515    3.9271    0.5272 C   0  0  0  0  0  0  0  0  0  0  0  0
    4.2179    3.2990    1.4301 H   0  0  0  0  0  0  0  0  0  0  0  0
    5.1817    4.9722    0.4181 C   0  0  0  0  0  0  0  0  0  0  0  0
    5.8905    5.1648    1.2441 H   0  0  0  0  0  0  0  0  0  0  0  0
    4.2861    0.9079   -0.5525 C   0  0  0  0  0  0  0  0  0  0  0  0
    5.1198    1.6116   -0.6485 H   0  0  0  0  0  0  0  0  0  0  0  0
    2.3427    2.5921   -0.4661 C   0  0  0  0  0  0  0  0  0  0  0  0
   -3.6946    3.3505   -0.5181 C   0  0  0  0  0  0  0  0  0  0  0  0
   -3.9188    4.2512    0.5437 C   0  0  0  0  0  0  0  0  0  0  0  0
   -3.2833    4.2165    1.4414 H   0  0  0  0  0  0  0  0  0  0  0  0
   -4.5514    3.4526   -1.6336 C   0  0  0  0  0  0  0  0  0  0  0  0
   -4.4142    2.7880   -2.4995 H   0  0  0  0  0  0  0  0  0  0  0  0
    2.9909   -0.9688   -0.4501 C   0  0  0  0  0  0  0  0  0  0  0  0
    4.3582   -0.4675   -0.5470 C   0  0  0  0  0  0  0  0  0  0  0  0
    5.2633   -1.0795   -0.6203 H   0  0  0  0  0  0  0  0  0  0  0  0
   -2.5926    2.3424   -0.4608 C   0  0  0  0  0  0  0  0  0  0  0  0
   -4.9640    5.1822    0.4432 C   0  0  0  0  0  0  0  0  0  0  0  0
   -5.1503    5.8900    1.2715 H   0  0  0  0  0  0  0  0  0  0  0  0
    3.3486    3.6951   -0.5311 C   0  0  0  0  0  0  0  0  0  0  0  0
  3 34  1  0  0  0  0
  4 20  1  0  0  0  0
  5  1  1  0  0  0  0
  6  3  2  0  0  0  0
  7  6  1  0  0  0  0
  8  2  2  0  0  0  0
  9 36  2  0  0  0  0
 10  9  1  0  0  0  0
 11 14  2  0  0  0  0
 11  5  1  0  0  0  0
 12 11  1  0  0  0  0
 13 24  2  0  0  0  0
 13  1  1  0  0  0  0
 14 13  1  0  0  0  0
 15 14  1  0  0  0  0
 16  9  1  0  0  0  0
 16  4  2  0  0  0  0
 17 16  1  0  0  0  0
 18 19  1  0  0  0  0
 20 18  2  0  0  0  0
 20 21  1  0  0  0  0
 22 31  2  0  0  0  0
 22  8  1  0  0  0  0
 23 22  1  0  0  0  0
 24  8  1  0  0  0  0
 25 33  1  0  0  0  0
 25 26  1  0  0  0  0
 26 27  1  0  0  0  0
 28  6  1  0  0  0  0
 28 25  2  0  0  0  0
 29 28  1  0  0  0  0
 30  2  1  0  0  0  0
 31 30  1  0  0  0  0
 32 31  1  0  0  0  0
 33  5  2  0  0  0  0
 33 66  1  0  0  0  0
 34 26  2  0  0  0  0
 34 35  1  0  0  0  0
 36 24  1  0  0  0  0
 36 18  1  0  0  0  0
 39 70  1  0  0  0  0
 40 56  1  0  0  0  0
 41 37  1  0  0  0  0
 42 39  2  0  0  0  0
 43 42  1  0  0  0  0
 44 38  1  0  0  0  0
 45 72  2  0  0  0  0
 46 45  1  0  0  0  0
 47 50  2  0  0  0  0
 47 41  1  0  0  0  0
 48 47  1  0  0  0  0
 49 60  1  0  0  0  0
 49 37  2  0  0  0  0
 50 49  1  0  0  0  0
 51 50  1  0  0  0  0
 52 45  1  0  0  0  0
 52 40  2  0  0  0  0
 53 52  1  0  0  0  0
 54 55  1  0  0  0  0
 56 54  2  0  0  0  0
 56 57  1  0  0  0  0
 58 67  2  0  0  0  0
 58 44  1  0  0  0  0
 59 58  1  0  0  0  0
 60 44  2  0  0  0  0
 61 69  1  0  0  0  0
 61 62  1  0  0  0  0
 62 63  1  0  0  0  0
 64 42  1  0  0  0  0
 64 61  2  0  0  0  0
 65 64  1  0  0  0  0
 66 38  2  0  0  0  0
 67 66  1  0  0  0  0
 68 67  1  0  0  0  0
 69 41  1  0  0  0  0
 69 30  2  0  0  0  0
 70 62  2  0  0  0  0
 70 71  1  0  0  0  0
 72 60  1  0  0  0  0
 72 54  1  0  0  0  0
M  END
