1,2,4,6
 OpenBabel05122313063D

 43 45  0  0  0  0  0  0  0  0999 V2000
    0.0160   -0.0739    1.8498 N   0  0  0  0  0  0  0  0  0  0  0  0
   -0.0169    1.6934   -0.6171 N   0  0  0  0  0  2  0  0  0  0  0  0
    0.1061    2.6964    0.2795 N   0  0  0  0  0  0  0  0  0  0  0  0
   -1.9362   -0.2820   -0.3140 N   0  0  0  0  0  2  0  0  0  0  0  0
   -2.7963   -0.7108    0.6422 N   0  0  0  0  0  0  0  0  0  0  0  0
    1.9291   -0.2140   -0.3281 N   0  0  0  0  0  2  0  0  0  0  0  0
    2.7032   -0.9462    0.5026 N   0  0  0  0  0  0  0  0  0  0  0  0
   -0.3562    1.2991    2.2889 C   0  0  0  0  0  0  0  0  0  0  0  0
   -0.2681    1.3727    3.3970 H   0  0  0  0  0  0  0  0  0  0  0  0
   -1.4152    1.4792    2.0288 H   0  0  0  0  0  0  0  0  0  0  0  0
    0.4748    2.4147    1.6558 C   0  0  0  0  0  0  0  0  0  0  0  0
    0.3077    3.3448    2.2309 H   0  0  0  0  0  0  0  0  0  0  0  0
    1.5630    2.1972    1.7046 H   0  0  0  0  0  0  0  0  0  0  0  0
   -0.0058    3.9121   -0.3336 C   0  0  0  0  0  3  0  0  0  0  0  0
    0.0800    4.8441    0.2361 H   0  0  0  0  0  0  0  0  0  0  0  0
   -0.2207    3.6715   -1.6883 C   0  0  0  0  0  0  0  0  0  0  0  0
   -0.3639    4.4155   -2.4779 H   0  0  0  0  0  0  0  0  0  0  0  0
   -0.2194    2.2658   -1.8180 C   0  0  0  0  0  0  0  0  0  0  0  0
   -0.3407    1.6289   -2.7021 H   0  0  0  0  0  0  0  0  0  0  0  0
   -0.9718   -1.1002    2.3107 C   0  0  0  0  0  0  0  0  0  0  0  0
   -0.6937   -2.0525    1.8186 H   0  0  0  0  0  0  0  0  0  0  0  0
   -0.8729   -1.2247    3.4127 H   0  0  0  0  0  0  0  0  0  0  0  0
   -2.4366   -0.8043    2.0459 C   0  0  0  0  0  0  0  0  0  0  0  0
   -3.0145   -1.6451    2.4776 H   0  0  0  0  0  0  0  0  0  0  0  0
   -2.7742    0.1109    2.5787 H   0  0  0  0  0  0  0  0  0  0  0  0
   -4.0524   -0.8588    0.1323 C   0  0  0  0  0  3  0  0  0  0  0  0
   -4.8817   -1.1847    0.7701 H   0  0  0  0  0  0  0  0  0  0  0  0
   -3.9963   -0.5277   -1.2173 C   0  0  0  0  0  0  0  0  0  0  0  0
   -4.8136   -0.5560   -1.9441 H   0  0  0  0  0  0  0  0  0  0  0  0
   -2.6514   -0.1833   -1.4528 C   0  0  0  0  0  0  0  0  0  0  0  0
   -2.1448    0.0634   -2.3895 H   0  0  0  0  0  0  0  0  0  0  0  0
    1.3379   -0.4439    2.4529 C   0  0  0  0  0  0  0  0  0  0  0  0
    1.9732    0.4600    2.5011 H   0  0  0  0  0  0  0  0  0  0  0  0
    1.1657   -0.7750    3.5001 H   0  0  0  0  0  0  0  0  0  0  0  0
    2.1077   -1.5202    1.6941 C   0  0  0  0  0  0  0  0  0  0  0  0
    2.9290   -1.9003    2.3294 H   0  0  0  0  0  0  0  0  0  0  0  0
    1.4611   -2.3691    1.3923 H   0  0  0  0  0  0  0  0  0  0  0  0
    3.9915   -0.9708    0.0667 C   0  0  0  0  0  3  0  0  0  0  0  0
    4.7660   -1.5105    0.6225 H   0  0  0  0  0  0  0  0  0  0  0  0
    4.0417   -0.2286   -1.1141 C   0  0  0  0  0  0  0  0  0  0  0  0
    4.9179   -0.0441   -1.7428 H   0  0  0  0  0  0  0  0  0  0  0  0
    2.7241    0.2202   -1.3262 C   0  0  0  0  0  0  0  0  0  0  0  0
    2.3017    0.8037   -2.1496 H   0  0  0  0  0  0  0  0  0  0  0  0
  1  8  1  0  0  0  0
  1 20  1  0  0  0  0
  1 32  1  0  0  0  0
  2  3  1  0  0  0  0
  3 11  1  0  0  0  0
  4  5  1  0  0  0  0
  5 23  1  0  0  0  0
  6  7  1  0  0  0  0
  7 35  1  0  0  0  0
  8  9  1  0  0  0  0
 10  8  1  0  0  0  0
 11 13  1  0  0  0  0
 11 12  1  0  0  0  0
 11  8  1  0  0  0  0
 14 15  1  0  0  0  0
 14  3  1  0  0  0  0
 16 14  1  0  0  0  0
 17 16  1  0  0  0  0
 18 16  2  0  0  0  0
 18  2  1  0  0  0  0
 19 18  1  0  0  0  0
 20 22  1  0  0  0  0
 21 20  1  0  0  0  0
 23 20  1  0  0  0  0
 23 24  1  0  0  0  0
 23 25  1  0  0  0  0
 26  5  1  0  0  0  0
 26 27  1  0  0  0  0
 28 26  1  0  0  0  0
 29 28  1  0  0  0  0
 30 28  2  0  0  0  0
 30  4  1  0  0  0  0
 31 30  1  0  0  0  0
 32 33  1  0  0  0  0
 32 34  1  0  0  0  0
 35 36  1  0  0  0  0
 35 32  1  0  0  0  0
 37 35  1  0  0  0  0
 38  7  1  0  0  0  0
 38 39  1  0  0  0  0
 40 38  1  0  0  0  0
 41 40  1  0  0  0  0
 42 40  2  0  0  0  0
 42  6  1  0  0  0  0
 43 42  1  0  0  0  0
M  END
