1,2,3,4
 OpenBabel05122313063D

 66 67  0  0  1  0  0  0  0  0999 V2000
   -1.3927    1.9128    0.3696 N   0  0  0  0  0  0  0  0  0  0  0  0
    0.0825    0.3839    1.9408 N   0  0  0  0  0  2  0  0  0  0  0  0
    1.3938    1.9117   -0.3706 N   0  0  0  0  0  0  0  0  0  0  0  0
   -0.0823    0.3830   -1.9410 N   0  0  0  0  0  2  0  0  0  0  0  0
   -3.7439    2.7127   -0.6577 C   0  0  0  0  0  0  0  0  0  0  0  0
    0.9981   -0.2868    2.6868 C   0  0  0  0  0  3  0  0  0  0  0  0
    1.7576   -0.8365    2.1154 H   0  0  0  0  0  0  0  0  0  0  0  0
    2.3917    1.9414    0.7355 C   0  0  0  0  0  0  0  0  0  0  0  0
    2.6355    0.8788    0.9222 H   0  0  0  0  0  0  0  0  0  0  0  0
    1.8433    2.3046    1.6262 H   0  0  0  0  0  0  0  0  0  0  0  0
    0.5632    3.1400   -0.5060 C   0  0  0  0  0  0  0  0  0  0  0  0
    0.1455    3.1416   -1.5335 H   0  0  0  0  0  0  0  0  0  0  0  0
    1.1709    4.0615   -0.4077 H   0  0  0  0  0  0  0  0  0  0  0  0
   -0.9392    1.0128    2.5883 C   0  0  0  0  0  0  0  0  0  0  0  0
    0.9400    1.0105   -2.5888 C   0  0  1  0  0  3  0  0  0  0  0  0
   -1.9933    1.5680    1.6805 C   0  0  0  0  0  0  0  0  0  0  0  0
   -2.7583    0.7794    1.5185 H   0  0  0  0  0  0  0  0  0  0  0  0
   -2.5008    2.4422    2.1419 H   0  0  0  0  0  0  0  0  0  0  0  0
   -2.3907    1.9424   -0.7364 C   0  0  0  0  0  0  0  0  0  0  0  0
   -2.6349    0.8799   -0.9227 H   0  0  0  0  0  0  0  0  0  0  0  0
   -1.8423    2.3050   -1.6273 H   0  0  0  0  0  0  0  0  0  0  0  0
   -0.5614    3.1407    0.5042 C   0  0  0  0  0  0  0  0  0  0  0  0
   -0.1437    3.1429    1.5316 H   0  0  0  0  0  0  0  0  0  0  0  0
   -1.1685    4.0625    0.4051 H   0  0  0  0  0  0  0  0  0  0  0  0
   -0.9982   -0.2876   -2.6867 C   0  0  0  0  0  0  0  0  0  0  0  0
   -1.7584   -0.8361   -2.1150 H   0  0  0  0  0  0  0  0  0  0  0  0
    1.9943    1.5658   -1.6812 C   0  0  0  0  0  0  0  0  0  0  0  0
    2.5022    2.4395   -2.1431 H   0  0  0  0  0  0  0  0  0  0  0  0
    2.7591    0.7771   -1.5186 H   0  0  0  0  0  0  0  0  0  0  0  0
    1.0355    1.0390   -3.9840 C   0  0  0  0  0  0  0  0  0  0  0  0
    1.8774    1.5669   -4.4551 H   0  0  0  0  0  0  0  0  0  0  0  0
   -1.0343    1.0425    3.9835 C   0  0  0  0  0  0  0  0  0  0  0  0
   -1.8757    1.5714    4.4544 H   0  0  0  0  0  0  0  0  0  0  0  0
    0.9525   -0.3107    4.0805 C   0  0  0  0  0  0  0  0  0  0  0  0
    1.7166   -0.8788    4.6297 H   0  0  0  0  0  0  0  0  0  0  0  0
    4.7590    2.0516   -0.3040 C   0  0  0  0  0  0  0  0  0  0  0  0
    5.7814    2.4194   -0.0802 H   0  0  0  0  0  0  0  0  0  0  0  0
    4.5598    2.2919   -1.3653 H   0  0  0  0  0  0  0  0  0  0  0  0
    4.7596    0.9470   -0.2076 H   0  0  0  0  0  0  0  0  0  0  0  0
    3.7452    2.7111    0.6566 C   0  0  0  0  0  0  0  0  0  0  0  0
   -3.5973    4.2055   -0.3149 C   0  0  0  0  0  0  0  0  0  0  0  0
   -2.8877    4.7193   -0.9969 H   0  0  0  0  0  0  0  0  0  0  0  0
   -3.2580    4.3659    0.7288 H   0  0  0  0  0  0  0  0  0  0  0  0
   -4.5776    4.7156   -0.4140 H   0  0  0  0  0  0  0  0  0  0  0  0
    0.0730    0.3702   -4.7518 C   0  0  0  0  0  0  0  0  0  0  0  0
    0.1319    0.3684   -5.8499 H   0  0  0  0  0  0  0  0  0  0  0  0
   -0.9524   -0.3128   -4.0803 C   0  0  0  0  0  0  0  0  0  0  0  0
   -1.7167   -0.8807   -4.6292 H   0  0  0  0  0  0  0  0  0  0  0  0
    3.5991    4.2039    0.3134 C   0  0  0  0  0  0  0  0  0  0  0  0
    2.8895    4.7181    0.9951 H   0  0  0  0  0  0  0  0  0  0  0  0
    3.2601    4.3642   -0.7304 H   0  0  0  0  0  0  0  0  0  0  0  0
    4.5796    4.7138    0.4126 H   0  0  0  0  0  0  0  0  0  0  0  0
   -0.0721    0.3736    4.7517 C   0  0  0  0  0  0  0  0  0  0  0  0
   -0.1307    0.3729    5.8498 H   0  0  0  0  0  0  0  0  0  0  0  0
   -4.3099    2.5916   -2.0911 C   0  0  0  0  0  0  0  0  0  0  0  0
   -4.4390    1.5288   -2.3811 H   0  0  0  0  0  0  0  0  0  0  0  0
   -3.6396    3.0671   -2.8369 H   0  0  0  0  0  0  0  0  0  0  0  0
   -5.3008    3.0836   -2.1596 H   0  0  0  0  0  0  0  0  0  0  0  0
    4.3110    2.5903    2.0902 C   0  0  0  0  0  0  0  0  0  0  0  0
    4.4398    1.5275    2.3804 H   0  0  0  0  0  0  0  0  0  0  0  0
    3.6408    3.0662    2.8358 H   0  0  0  0  0  0  0  0  0  0  0  0
    5.3020    3.0821    2.1587 H   0  0  0  0  0  0  0  0  0  0  0  0
   -4.7578    2.0538    0.3033 C   0  0  0  0  0  0  0  0  0  0  0  0
   -5.7801    2.4218    0.0794 H   0  0  0  0  0  0  0  0  0  0  0  0
   -4.5585    2.2943    1.3645 H   0  0  0  0  0  0  0  0  0  0  0  0
   -4.7588    0.9491    0.2073 H   0  0  0  0  0  0  0  0  0  0  0  0
  1 22  1  0  0  0  0
  1 16  1  0  0  0  0
  2 14  1  0  0  0  0
  2  6  1  0  0  0  0
  3  8  1  0  0  0  0
  5 41  1  0  0  0  0
  5 63  1  0  0  0  0
  6 34  1  0  0  0  0
  7  6  1  0  0  0  0
  8  9  1  0  0  0  0
  8 10  1  0  0  0  0
 11 13  1  0  0  0  0
 11  3  1  0  0  0  0
 11 22  1  0  0  0  0
 12 11  1  0  0  0  0
 14 32  2  0  0  0  0
 15  4  1  0  0  0  0
 15 27  1  1  0  0  0
 16 18  1  0  0  0  0
 16 14  1  0  0  0  0
 17 16  1  0  0  0  0
 19  5  1  0  0  0  0
 19  1  1  0  0  0  0
 20 19  1  0  0  0  0
 21 19  1  0  0  0  0
 22 23  1  0  0  0  0
 24 22  1  0  0  0  0
 25 26  1  0  0  0  0
 25  4  1  0  0  0  0
 27 29  1  0  0  0  0
 27  3  1  0  0  0  0
 28 27  1  0  0  0  0
 30 15  1  0  0  0  0
 31 30  1  0  0  0  0
 32 33  1  0  0  0  0
 32 53  1  0  0  0  0
 34 35  1  0  0  0  0
 34 53  2  0  0  0  0
 36 39  1  0  0  0  0
 36 37  1  0  0  0  0
 36 40  1  0  0  0  0
 38 36  1  0  0  0  0
 40  8  1  0  0  0  0
 40 59  1  0  0  0  0
 41 43  1  0  0  0  0
 42 41  1  0  0  0  0
 44 41  1  0  0  0  0
 45 47  1  0  0  0  0
 45 30  2  0  0  0  0
 46 45  1  0  0  0  0
 47 25  2  0  0  0  0
 48 47  1  0  0  0  0
 49 52  1  0  0  0  0
 49 40  1  0  0  0  0
 49 50  1  0  0  0  0
 51 49  1  0  0  0  0
 53 54  1  0  0  0  0
 55  5  1  0  0  0  0
 56 55  1  0  0  0  0
 57 55  1  0  0  0  0
 58 55  1  0  0  0  0
 59 62  1  0  0  0  0
 59 60  1  0  0  0  0
 59 61  1  0  0  0  0
 63 65  1  0  0  0  0
 64 63  1  0  0  0  0
 66 63  1  0  0  0  0
M  END
