25,27,28,29
 OpenBabel05122313063D

 32 32  0  0  1  0  0  0  0  0999 V2000
    2.2281   -1.7720    0.1598 C   0  0  0  0  0  3  0  0  0  0  0  0
    1.6441   -2.7071    0.1220 H   0  0  0  0  0  0  0  0  0  0  0  0
    3.6384   -1.7367    0.1801 C   0  0  0  0  0  0  0  0  0  0  0  0
    4.2238   -2.6716    0.1992 H   0  0  0  0  0  0  0  0  0  0  0  0
    3.6026    0.5539    0.1428 C   0  0  0  0  0  0  0  0  0  0  0  0
    4.1746    1.4964    0.1159 H   0  0  0  0  0  0  0  0  0  0  0  0
    2.1934    0.5486    0.1280 C   0  0  0  0  0  0  0  0  0  0  0  0
    1.3383    1.7745    0.0356 C   0  0  1  0  0  3  0  0  0  0  0  0
    1.9848    3.1215    0.1422 C   0  0  0  0  0  0  0  0  0  0  0  0
    2.5611    3.2007    1.0866 H   0  0  0  0  0  0  0  0  0  0  0  0
    2.7112    3.2687   -0.6842 H   0  0  0  0  0  0  0  0  0  0  0  0
    1.2535    3.9472    0.1115 H   0  0  0  0  0  0  0  0  0  0  0  0
   -0.9646    2.5379   -0.2791 C   0  0  0  0  0  0  0  0  0  0  0  0
   -0.6220    3.4713   -0.7729 H   0  0  0  0  0  0  0  0  0  0  0  0
   -1.3007    2.8284    0.7429 H   0  0  0  0  0  0  0  0  0  0  0  0
   -2.1430    1.9366   -1.0713 C   0  0  0  0  0  0  0  0  0  0  0  0
   -3.0019    2.6435   -1.0472 H   0  0  0  0  0  0  0  0  0  0  0  0
   -1.8408    1.8241   -2.1317 H   0  0  0  0  0  0  0  0  0  0  0  0
   -3.3237    0.5182    0.6359 C   0  0  0  0  0  0  0  0  0  0  0  0
   -4.4058    0.6439    0.4115 H   0  0  0  0  0  0  0  0  0  0  0  0
   -3.0448    1.3511    1.3169 H   0  0  0  0  0  0  0  0  0  0  0  0
   -3.0865   -0.8219    1.3355 C   0  0  0  0  0  0  0  0  0  0  0  0
   -3.7638   -0.9272    2.2085 H   0  0  0  0  0  0  0  0  0  0  0  0
   -3.3043   -1.6501    0.6299 H   0  0  0  0  0  0  0  0  0  0  0  0
    1.5327   -0.6311    0.1576 N   0  0  0  0  0  2  0  0  0  0  0  0
    4.3151   -0.5818    0.1781 N   0  0  0  0  0  0  0  0  0  0  0  0
    0.0787    1.5418   -0.1488 N   0  0  0  0  0  2  0  0  0  0  0  0
   -2.4841    0.6015   -0.5692 N   0  0  0  0  0  0  0  0  0  0  0  0
   -1.6565   -0.9519    1.7099 N   0  0  0  0  0  0  0  0  0  0  0  0
   -1.4498   -0.4287    2.5728 H   0  0  0  0  0  0  0  0  0  0  0  0
   -1.4326   -1.9399    1.8954 H   0  0  0  0  0  0  0  0  0  0  0  0
   -2.8685    0.0092   -1.3169 H   0  0  0  0  0  0  0  0  0  0  0  0
  1  3  1  0  0  0  0
  2  1  1  0  0  0  0
  3  4  1  0  0  0  0
  5 26  1  0  0  0  0
  6  5  1  0  0  0  0
  7  5  2  0  0  0  0
  7 25  1  0  0  0  0
  8 27  1  6  0  0  0
  8  7  1  0  0  0  0
  8  9  1  0  0  0  0
  9 10  1  0  0  0  0
 11  9  1  0  0  0  0
 12  9  1  0  0  0  0
 13 27  1  0  0  0  0
 13 15  1  0  0  0  0
 14 13  1  0  0  0  0
 16 17  1  0  0  0  0
 16 28  1  0  0  0  0
 16 13  1  0  0  0  0
 18 16  1  0  0  0  0
 19 21  1  0  0  0  0
 19 22  1  0  0  0  0
 20 19  1  0  0  0  0
 22 29  1  0  0  0  0
 22 23  1  0  0  0  0
 24 22  1  0  0  0  0
 25  1  1  0  0  0  0
 26  3  2  0  0  0  0
 28 19  1  0  0  0  0
 29 31  1  0  0  0  0
 29 30  1  0  0  0  0
 32 28  1  0  0  0  0
M  END
