1,2,3,4
 OpenBabel05122313063D

 70 74  0  0  0  0  0  0  0  0999 V2000
    0.6809   -1.3738    0.1479 N   0  0  0  0  0  0  0  0  0  0  0  0
   -1.9022   -0.4633   -0.1049 N   0  0  0  0  0  2  0  0  0  0  0  0
   -1.0297    2.1035    0.2128 N   0  0  0  0  0  0  0  0  0  0  0  0
    1.5420    1.2714    0.3388 N   0  0  0  0  0  2  0  0  0  0  0  0
    2.0067   -1.6620   -0.0654 C   0  0  0  0  0  0  0  0  0  0  0  0
    2.2877   -3.0644    0.1376 C   0  0  0  0  0  0  0  0  0  0  0  0
    1.0760   -3.6448    0.4963 C   0  0  0  0  0  0  0  0  0  0  0  0
    0.0826   -2.5863    0.4560 C   0  0  0  0  0  3  0  0  0  0  0  0
   -1.2976   -2.7778    0.4670 C   0  0  0  0  0  0  0  0  0  0  0  0
   -2.2216   -1.7907    0.1135 C   0  0  0  0  0  0  0  0  0  0  0  0
   -3.6206   -2.0331   -0.1908 C   0  0  0  0  0  0  0  0  0  0  0  0
   -4.1352   -0.8302   -0.6498 C   0  0  0  0  0  0  0  0  0  0  0  0
   -3.0618    0.1408   -0.5468 C   0  0  0  0  0  0  0  0  0  0  0  0
   -3.2211    1.5243   -0.7076 C   0  0  0  0  0  0  0  0  0  0  0  0
   -2.2751    2.4504   -0.2859 C   0  0  0  0  0  0  0  0  0  0  0  0
   -2.5190    3.8708   -0.0805 C   0  0  0  0  0  0  0  0  0  0  0  0
   -1.4330    4.3537    0.6298 C   0  0  0  0  0  0  0  0  0  0  0  0
   -0.5084    3.2396    0.7776 C   0  0  0  0  0  3  0  0  0  0  0  0
    0.7570    3.2995    1.3806 C   0  0  0  0  0  0  0  0  0  0  0  0
    1.7517    2.3496    1.1568 C   0  0  0  0  0  0  0  0  0  0  0  0
    2.6466    0.7460   -0.2934 C   0  0  0  0  0  0  0  0  0  0  0  0
    3.7850    1.4106   -0.9079 C   0  0  0  0  0  0  0  0  0  0  0  0
    4.6251    0.3955   -1.3258 C   0  0  0  0  0  0  0  0  0  0  0  0
    2.8813   -0.6277   -0.4352 C   0  0  0  0  0  0  0  0  0  0  0  0
    3.6325   -3.7056   -0.0045 C   0  0  0  0  0  0  0  0  0  0  0  0
    0.8005   -5.0731    0.8635 C   0  0  0  0  0  0  0  0  0  0  0  0
    0.6281   -5.2909    2.3762 C   0  0  0  0  0  0  0  0  0  0  0  0
   -4.0911   -4.2319   -1.3736 C   0  0  0  0  0  0  0  0  0  0  0  0
   -4.3025   -3.3686   -0.1181 C   0  0  0  0  0  0  0  0  0  0  0  0
   -5.5247   -0.5275   -1.1156 C   0  0  0  0  0  0  0  0  0  0  0  0
   -3.7534    4.5939   -0.5166 C   0  0  0  0  0  0  0  0  0  0  0  0
   -1.1781    5.7373    1.1373 C   0  0  0  0  0  0  0  0  0  0  0  0
    3.0775    2.5115    1.8722 C   0  0  0  0  0  0  0  0  0  0  0  0
    3.9511    2.8750   -1.1863 C   0  0  0  0  0  0  0  0  0  0  0  0
    5.9207    0.4007   -2.0511 C   0  0  0  0  0  0  0  0  0  0  0  0
    4.0961   -0.8396   -1.0311 O   0  0  0  0  0  0  0  0  0  0  0  0
   -1.6757   -3.7930    0.6506 H   0  0  0  0  0  0  0  0  0  0  0  0
   -4.1940    1.8949   -1.0583 H   0  0  0  0  0  0  0  0  0  0  0  0
    0.9975    4.1706    2.0055 H   0  0  0  0  0  0  0  0  0  0  0  0
    4.0283   -3.6017   -1.0358 H   0  0  0  0  0  0  0  0  0  0  0  0
    4.3830   -3.2317    0.6625 H   0  0  0  0  0  0  0  0  0  0  0  0
    3.5929   -4.7839    0.2428 H   0  0  0  0  0  0  0  0  0  0  0  0
    1.6258   -5.7135    0.4885 H   0  0  0  0  0  0  0  0  0  0  0  0
   -0.1127   -5.4256    0.3356 H   0  0  0  0  0  0  0  0  0  0  0  0
    1.5433   -4.9910    2.9255 H   0  0  0  0  0  0  0  0  0  0  0  0
   -0.2082   -4.6810    2.7739 H   0  0  0  0  0  0  0  0  0  0  0  0
    0.4190   -6.3549    2.6099 H   0  0  0  0  0  0  0  0  0  0  0  0
   -4.6042   -5.2113   -1.2829 H   0  0  0  0  0  0  0  0  0  0  0  0
   -4.4834   -3.7199   -2.2754 H   0  0  0  0  0  0  0  0  0  0  0  0
   -3.0129   -4.4228   -1.5486 H   0  0  0  0  0  0  0  0  0  0  0  0
   -5.3905   -3.2138    0.0422 H   0  0  0  0  0  0  0  0  0  0  0  0
   -3.9470   -3.9229    0.7771 H   0  0  0  0  0  0  0  0  0  0  0  0
   -6.1703   -1.4256   -1.0691 H   0  0  0  0  0  0  0  0  0  0  0  0
   -6.0066    0.2604   -0.4981 H   0  0  0  0  0  0  0  0  0  0  0  0
   -5.5378   -0.1639   -2.1651 H   0  0  0  0  0  0  0  0  0  0  0  0
   -3.9188    4.5004   -1.6105 H   0  0  0  0  0  0  0  0  0  0  0  0
   -4.6627    4.1927   -0.0199 H   0  0  0  0  0  0  0  0  0  0  0  0
   -2.0188    6.4183    0.9027 H   0  0  0  0  0  0  0  0  0  0  0  0
   -1.0386    5.7506    2.2396 H   0  0  0  0  0  0  0  0  0  0  0  0
   -3.6968    5.6734   -0.2784 H   0  0  0  0  0  0  0  0  0  0  0  0
   -0.2585    6.1759    0.6946 H   0  0  0  0  0  0  0  0  0  0  0  0
    3.7713    3.2099    1.3636 H   0  0  0  0  0  0  0  0  0  0  0  0
    2.8924    2.9223    2.8838 H   0  0  0  0  0  0  0  0  0  0  0  0
    3.5968    1.5396    1.9741 H   0  0  0  0  0  0  0  0  0  0  0  0
    2.9955    3.4120   -1.0305 H   0  0  0  0  0  0  0  0  0  0  0  0
    4.7136    3.3569   -0.5383 H   0  0  0  0  0  0  0  0  0  0  0  0
    4.2621    3.0465   -2.2368 H   0  0  0  0  0  0  0  0  0  0  0  0
    6.2182    1.4366   -2.2974 H   0  0  0  0  0  0  0  0  0  0  0  0
    6.7309   -0.0532   -1.4412 H   0  0  0  0  0  0  0  0  0  0  0  0
    5.8597   -0.1812   -2.9952 H   0  0  0  0  0  0  0  0  0  0  0  0
  1  8  1  0  0  0  0
  2 10  1  0  0  0  0
  3 18  1  0  0  0  0
  4 20  1  0  0  0  0
  5  6  1  0  0  0  0
  5  1  2  0  0  0  0
  6  7  2  0  0  0  0
  7 26  1  0  0  0  0
  8  9  1  0  0  0  0
  8  7  1  0  0  0  0
  9 37  1  0  0  0  0
 10  9  2  0  0  0  0
 11 29  1  0  0  0  0
 11 10  1  0  0  0  0
 12 13  1  0  0  0  0
 12 11  2  0  0  0  0
 13  2  1  0  0  0  0
 14 13  2  0  0  0  0
 14 15  1  0  0  0  0
 15 16  1  0  0  0  0
 15  3  2  0  0  0  0
 16 17  2  0  0  0  0
 17 18  1  0  0  0  0
 17 32  1  0  0  0  0
 18 19  1  0  0  0  0
 19 39  1  0  0  0  0
 20 19  2  0  0  0  0
 20 33  1  0  0  0  0
 21  4  1  0  0  0  0
 22 21  1  0  0  0  0
 23 36  1  0  0  0  0
 23 22  2  0  0  0  0
 24 21  2  0  0  0  0
 24  5  1  0  0  0  0
 25  6  1  0  0  0  0
 25 42  1  0  0  0  0
 25 41  1  0  0  0  0
 26 27  1  0  0  0  0
 27 47  1  0  0  0  0
 27 46  1  0  0  0  0
 27 45  1  0  0  0  0
 28 48  1  0  0  0  0
 28 29  1  0  0  0  0
 29 51  1  0  0  0  0
 29 52  1  0  0  0  0
 30 53  1  0  0  0  0
 30 12  1  0  0  0  0
 30 54  1  0  0  0  0
 31 60  1  0  0  0  0
 31 16  1  0  0  0  0
 31 57  1  0  0  0  0
 32 59  1  0  0  0  0
 33 64  1  0  0  0  0
 33 63  1  0  0  0  0
 34 65  1  0  0  0  0
 34 22  1  0  0  0  0
 34 66  1  0  0  0  0
 35 69  1  0  0  0  0
 35 23  1  0  0  0  0
 36 24  1  0  0  0  0
 38 14  1  0  0  0  0
 40 25  1  0  0  0  0
 43 26  1  0  0  0  0
 44 26  1  0  0  0  0
 49 28  1  0  0  0  0
 50 28  1  0  0  0  0
 55 30  1  0  0  0  0
 56 31  1  0  0  0  0
 58 32  1  0  0  0  0
 61 32  1  0  0  0  0
 62 33  1  0  0  0  0
 67 34  1  0  0  0  0
 68 35  1  0  0  0  0
 70 35  1  0  0  0  0
M  END
