10,19,30,43
 OpenBabel05122313063D

 72 73  0  0  1  0  0  0  0  0999 V2000
    2.1692   -1.1879    0.8862 C   0  0  0  0  0  0  0  0  0  0  0  0
    2.9942   -2.0461    1.6078 C   0  0  0  0  0  0  0  0  0  0  0  0
    2.6086   -2.6277    2.4558 H   0  0  0  0  0  0  0  0  0  0  0  0
    4.3479   -2.1732    1.2437 C   0  0  0  0  0  0  0  0  0  0  0  0
    4.9887   -2.8552    1.8158 H   0  0  0  0  0  0  0  0  0  0  0  0
    4.8531   -1.4318    0.1541 C   0  0  0  0  0  0  0  0  0  0  0  0
    4.0065   -0.5621   -0.5722 C   0  0  0  0  0  0  0  0  0  0  0  0
    4.4008   -0.0070   -1.4306 H   0  0  0  0  0  0  0  0  0  0  0  0
    2.6555   -0.4317   -0.2129 C   0  0  0  0  0  0  0  0  0  0  0  0
    1.6985    0.3716   -0.8439 N   0  0  0  0  0  2  0  0  0  0  0  0
    1.8241    0.9309   -2.0837 C   0  0  0  0  0  0  0  0  0  0  0  0
    2.8197    0.9364   -2.8062 O   0  0  0  0  0  0  0  0  0  0  0  0
    0.4708    1.5100   -2.5608 C   0  0  2  0  0  0  0  0  0  0  0  0
   -0.0792    0.6639   -3.0239 H   0  0  0  0  0  0  0  0  0  0  0  0
    0.6513    2.6081   -3.6000 C   0  0  0  0  0  0  0  0  0  0  0  0
   -0.2989    2.9079   -4.0808 H   0  0  0  0  0  0  0  0  0  0  0  0
    1.3253    2.1983   -4.3766 H   0  0  0  0  0  0  0  0  0  0  0  0
    1.1560    3.5041   -3.1908 H   0  0  0  0  0  0  0  0  0  0  0  0
   -0.3481    1.8790   -1.3469 N   0  0  0  0  0  0  0  0  0  0  0  0
   -1.7814    2.0274   -1.6955 C   0  0  0  0  0  0  0  0  0  0  0  0
   -2.3699    2.2776   -0.7964 H   0  0  0  0  0  0  0  0  0  0  0  0
   -2.1634    1.0772   -2.1068 H   0  0  0  0  0  0  0  0  0  0  0  0
   -1.9029    2.8281   -2.4523 H   0  0  0  0  0  0  0  0  0  0  0  0
    0.1815    3.1252   -0.7157 C   0  0  0  0  0  0  0  0  0  0  0  0
    1.2803    3.1376   -0.8503 H   0  0  0  0  0  0  0  0  0  0  0  0
   -0.2269    4.0220   -1.2246 H   0  0  0  0  0  0  0  0  0  0  0  0
   -0.1784    3.1169    0.7489 C   0  0  0  0  0  0  0  0  0  0  0  0
    0.2308    4.0076    1.2680 H   0  0  0  0  0  0  0  0  0  0  0  0
   -1.2771    3.1289    0.8838 H   0  0  0  0  0  0  0  0  0  0  0  0
    0.3502    1.8631    1.3658 N   0  0  0  0  0  0  0  0  0  0  0  0
    1.7837    2.0062    1.7155 C   0  0  0  0  0  0  0  0  0  0  0  0
    2.3722    2.2667    0.8193 H   0  0  0  0  0  0  0  0  0  0  0  0
    2.1652    1.0508    2.1151 H   0  0  0  0  0  0  0  0  0  0  0  0
    1.9063    2.7976    2.4819 H   0  0  0  0  0  0  0  0  0  0  0  0
   -0.4685    1.4812    2.5757 C   0  0  1  0  0  0  0  0  0  0  0  0
    0.0809    0.6295    3.0292 H   0  0  0  0  0  0  0  0  0  0  0  0
   -0.6477    2.5676    3.6274 C   0  0  0  0  0  0  0  0  0  0  0  0
    0.3029    2.8613    4.1110 H   0  0  0  0  0  0  0  0  0  0  0  0
   -1.3215    2.1494    4.3998 H   0  0  0  0  0  0  0  0  0  0  0  0
   -1.1522    3.4684    3.2287 H   0  0  0  0  0  0  0  0  0  0  0  0
   -1.8226    0.9087    2.0928 C   0  0  0  0  0  0  0  0  0  0  0  0
   -2.8173    0.9057    2.8165 O   0  0  0  0  0  0  0  0  0  0  0  0
   -1.6986    0.3646    0.8462 N   0  0  0  0  0  2  0  0  0  0  0  0
   -2.6564   -0.4315    0.2072 C   0  0  0  0  0  0  0  0  0  0  0  0
   -4.0069   -0.5659    0.5668 C   0  0  0  0  0  0  0  0  0  0  0  0
   -4.4001   -0.0202    1.4318 H   0  0  0  0  0  0  0  0  0  0  0  0
   -4.8544   -1.4280   -0.1674 C   0  0  0  0  0  0  0  0  0  0  0  0
   -4.3506   -2.1578   -1.2655 C   0  0  0  0  0  0  0  0  0  0  0  0
   -4.9920   -2.8339   -1.8438 H   0  0  0  0  0  0  0  0  0  0  0  0
   -2.9974   -2.0264   -1.6300 C   0  0  0  0  0  0  0  0  0  0  0  0
   -2.6128   -2.5989   -2.4848 H   0  0  0  0  0  0  0  0  0  0  0  0
   -2.1715   -1.1757   -0.9007 C   0  0  0  0  0  0  0  0  0  0  0  0
    0.8026   -0.9734    1.1858 O   0  0  0  0  0  0  0  0  0  0  0  0
    0.0882   -2.0353    1.8463 C   0  0  0  0  0  0  0  0  0  0  0  0
    0.2719   -2.9954    1.3233 H   0  0  0  0  0  0  0  0  0  0  0  0
   -0.9824   -1.7733    1.8090 H   0  0  0  0  0  0  0  0  0  0  0  0
    0.4141   -2.1142    2.9026 H   0  0  0  0  0  0  0  0  0  0  0  0
    6.1336   -1.4843   -0.2782 O   0  0  0  0  0  0  0  0  0  0  0  0
    7.0479   -2.3382    0.3931 C   0  0  0  0  0  0  0  0  0  0  0  0
    7.1704   -2.0510    1.4608 H   0  0  0  0  0  0  0  0  0  0  0  0
    8.0171   -2.2226   -0.1247 H   0  0  0  0  0  0  0  0  0  0  0  0
    6.7317   -3.4032    0.3376 H   0  0  0  0  0  0  0  0  0  0  0  0
   -6.1342   -1.4854    0.2661 O   0  0  0  0  0  0  0  0  0  0  0  0
   -7.0492   -2.3330   -0.4123 C   0  0  0  0  0  0  0  0  0  0  0  0
   -7.1736   -2.0350   -1.4768 H   0  0  0  0  0  0  0  0  0  0  0  0
   -8.0175   -2.2233    0.1082 H   0  0  0  0  0  0  0  0  0  0  0  0
   -6.7321   -3.3983   -0.3682 H   0  0  0  0  0  0  0  0  0  0  0  0
   -0.8055   -0.9574   -1.2009 O   0  0  0  0  0  0  0  0  0  0  0  0
   -0.0907   -2.0164   -1.8662 C   0  0  0  0  0  0  0  0  0  0  0  0
   -0.2730   -2.9787   -1.3468 H   0  0  0  0  0  0  0  0  0  0  0  0
    0.9796   -1.7533   -1.8291 H   0  0  0  0  0  0  0  0  0  0  0  0
   -0.4177   -2.0913   -2.9223 H   0  0  0  0  0  0  0  0  0  0  0  0
  1 53  1  0  0  0  0
  1  2  1  0  0  0  0
  2  3  1  0  0  0  0
  4  2  2  0  0  0  0
  4  5  1  0  0  0  0
  6  4  1  0  0  0  0
  7  9  1  0  0  0  0
  7  6  2  0  0  0  0
  8  7  1  0  0  0  0
  9  1  2  0  0  0  0
 10  9  1  0  0  0  0
 11 10  1  0  0  0  0
 12 11  2  0  0  0  0
 13 14  1  6  0  0  0
 13 11  1  0  0  0  0
 13 19  1  0  0  0  0
 15 18  1  0  0  0  0
 15 13  1  0  0  0  0
 16 15  1  0  0  0  0
 17 15  1  0  0  0  0
 19 24  1  0  0  0  0
 20 19  1  0  0  0  0
 20 21  1  0  0  0  0
 22 20  1  0  0  0  0
 23 20  1  0  0  0  0
 24 27  1  0  0  0  0
 25 24  1  0  0  0  0
 26 24  1  0  0  0  0
 27 29  1  0  0  0  0
 27 28  1  0  0  0  0
 27 30  1  0  0  0  0
 30 31  1  0  0  0  0
 30 35  1  0  0  0  0
 31 33  1  0  0  0  0
 31 34  1  0  0  0  0
 32 31  1  0  0  0  0
 35 36  1  1  0  0  0
 35 37  1  0  0  0  0
 37 38  1  0  0  0  0
 37 39  1  0  0  0  0
 40 37  1  0  0  0  0
 41 35  1  0  0  0  0
 41 42  2  0  0  0  0
 43 41  1  0  0  0  0
 44 45  1  0  0  0  0
 44 43  1  0  0  0  0
 45 46  1  0  0  0  0
 47 63  1  0  0  0  0
 47 45  2  0  0  0  0
 48 47  1  0  0  0  0
 49 48  1  0  0  0  0
 50 48  2  0  0  0  0
 50 52  1  0  0  0  0
 51 50  1  0  0  0  0
 52 44  2  0  0  0  0
 53 54  1  0  0  0  0
 54 57  1  0  0  0  0
 55 54  1  0  0  0  0
 56 54  1  0  0  0  0
 58  6  1  0  0  0  0
 58 59  1  0  0  0  0
 59 60  1  0  0  0  0
 61 59  1  0  0  0  0
 62 59  1  0  0  0  0
 64 67  1  0  0  0  0
 64 66  1  0  0  0  0
 64 63  1  0  0  0  0
 65 64  1  0  0  0  0
 68 52  1  0  0  0  0
 69 71  1  0  0  0  0
 69 70  1  0  0  0  0
 69 68  1  0  0  0  0
 72 69  1  0  0  0  0
M  END
