1,2,3,4
 OpenBabel05122313063D

 47 48  0  0  1  0  0  0  0  0999 V2000
   -1.0306    1.3140    0.1230 N   0  0  0  0  0  2  0  0  0  0  0  0
   -1.0303   -1.3142    0.1231 N   0  0  0  0  0  2  0  0  0  0  0  0
    1.8821   -1.4941   -0.1404 N   0  0  0  0  0  2  0  0  0  0  0  0
    1.8820    1.4944   -0.1400 N   0  0  0  0  0  2  0  0  0  0  0  0
   -2.2475    0.7171   -0.2418 C   0  0  0  0  0  0  0  0  0  0  0  0
   -3.3970    1.4029   -0.6870 C   0  0  0  0  0  0  0  0  0  0  0  0
   -4.5390    0.7007   -1.1006 C   0  0  0  0  0  0  0  0  0  0  0  0
   -4.5389   -0.7016   -1.1005 C   0  0  0  0  0  0  0  0  0  0  0  0
   -3.3967   -1.4036   -0.6869 C   0  0  0  0  0  0  0  0  0  0  0  0
   -2.2474   -0.7175   -0.2417 C   0  0  0  0  0  0  0  0  0  0  0  0
   -0.8838   -2.5148    0.7132 C   0  0  2  0  0  3  0  0  0  0  0  0
   -2.0729   -3.2733    1.2700 C   0  0  0  0  0  0  0  0  0  0  0  0
    0.3749   -3.1182    0.8847 C   0  0  0  0  0  0  0  0  0  0  0  0
    1.6339   -2.6977    0.3827 C   0  0  0  0  0  0  0  0  0  0  0  0
    2.7528   -3.7185    0.4458 C   0  0  0  0  0  0  0  0  0  0  0  0
    3.1728   -1.2756   -0.7817 C   0  0  0  0  0  0  0  0  0  0  0  0
    3.2267    0.0004   -1.6082 C   0  0  0  0  0  0  0  0  0  0  0  0
    3.1731    1.2755   -0.7803 C   0  0  0  0  0  0  0  0  0  0  0  0
    1.6335    2.6980    0.3828 C   0  0  1  0  0  3  0  0  0  0  0  0
    2.7524    3.7187    0.4465 C   0  0  0  0  0  0  0  0  0  0  0  0
    0.3743    3.1185    0.8842 C   0  0  0  0  0  0  0  0  0  0  0  0
   -0.8844    2.5149    0.7126 C   0  0  0  0  0  0  0  0  0  0  0  0
   -2.0737    3.2735    1.2689 C   0  0  0  0  0  0  0  0  0  0  0  0
   -3.3815    2.4961   -0.7674 H   0  0  0  0  0  0  0  0  0  0  0  0
   -5.4165    1.2575   -1.4620 H   0  0  0  0  0  0  0  0  0  0  0  0
   -5.4163   -1.2585   -1.4619 H   0  0  0  0  0  0  0  0  0  0  0  0
   -3.3811   -2.4968   -0.7673 H   0  0  0  0  0  0  0  0  0  0  0  0
   -2.5185   -3.9644    0.5249 H   0  0  0  0  0  0  0  0  0  0  0  0
   -2.8731   -2.5888    1.6101 H   0  0  0  0  0  0  0  0  0  0  0  0
   -1.7415   -3.8901    2.1265 H   0  0  0  0  0  0  0  0  0  0  0  0
    0.3688   -4.0921    1.3917 H   0  0  0  0  0  0  0  0  0  0  0  0
    3.0536   -4.0507   -0.5706 H   0  0  0  0  0  0  0  0  0  0  0  0
    2.4372   -4.6133    1.0108 H   0  0  0  0  0  0  0  0  0  0  0  0
    3.6625   -3.3020    0.9251 H   0  0  0  0  0  0  0  0  0  0  0  0
    3.4163   -2.1324   -1.4488 H   0  0  0  0  0  0  0  0  0  0  0  0
    3.9883   -1.2389   -0.0177 H   0  0  0  0  0  0  0  0  0  0  0  0
    2.4009    0.0010   -2.3521 H   0  0  0  0  0  0  0  0  0  0  0  0
    4.1810    0.0005   -2.1756 H   0  0  0  0  0  0  0  0  0  0  0  0
    3.4179    2.1328   -1.4463 H   0  0  0  0  0  0  0  0  0  0  0  0
    3.9878    1.2373   -0.0156 H   0  0  0  0  0  0  0  0  0  0  0  0
    3.0537    4.0510   -0.5697 H   0  0  0  0  0  0  0  0  0  0  0  0
    3.6618    3.3022    0.9263 H   0  0  0  0  0  0  0  0  0  0  0  0
    2.4365    4.6135    1.0114 H   0  0  0  0  0  0  0  0  0  0  0  0
    0.3679    4.0926    1.3909 H   0  0  0  0  0  0  0  0  0  0  0  0
   -2.5193    3.9641    0.5234 H   0  0  0  0  0  0  0  0  0  0  0  0
   -1.7425    3.8907    2.1251 H   0  0  0  0  0  0  0  0  0  0  0  0
   -2.8738    2.5890    1.6091 H   0  0  0  0  0  0  0  0  0  0  0  0
  1 22  1  0  0  0  0
  2 11  1  0  0  0  0
  3 14  1  0  0  0  0
  4 19  1  0  0  0  0
  5 10  1  0  0  0  0
  5  1  1  0  0  0  0
  6  5  2  0  0  0  0
  7  8  2  0  0  0  0
  7  6  1  0  0  0  0
  8  9  1  0  0  0  0
  9 10  2  0  0  0  0
 10  2  1  0  0  0  0
 11 13  1  0  0  0  0
 11 12  1  1  0  0  0
 12 29  1  0  0  0  0
 12 30  1  0  0  0  0
 13 31  1  0  0  0  0
 14 15  1  0  0  0  0
 14 13  2  0  0  0  0
 15 34  1  0  0  0  0
 15 33  1  0  0  0  0
 16  3  1  0  0  0  0
 16 36  1  0  0  0  0
 17 16  1  0  0  0  0
 17 18  1  0  0  0  0
 18  4  1  0  0  0  0
 18 40  1  0  0  0  0
 19 20  1  6  0  0  0
 19 21  1  0  0  0  0
 20 42  1  0  0  0  0
 20 43  1  0  0  0  0
 21 44  1  0  0  0  0
 22 21  2  0  0  0  0
 22 23  1  0  0  0  0
 23 47  1  0  0  0  0
 23 46  1  0  0  0  0
 24  6  1  0  0  0  0
 25  7  1  0  0  0  0
 26  8  1  0  0  0  0
 27  9  1  0  0  0  0
 28 12  1  0  0  0  0
 32 15  1  0  0  0  0
 35 16  1  0  0  0  0
 37 17  1  0  0  0  0
 38 17  1  0  0  0  0
 39 18  1  0  0  0  0
 41 20  1  0  0  0  0
 45 23  1  0  0  0  0
M  END
