9,12,15,16
 OpenBabel05122313063D

 66 73  0  0  0  0  0  0  0  0999 V2000
   -7.7507   -0.1731    2.2481 F   0  0  0  0  0  0  0  0  0  0  0  0
   -5.0270   -0.1643    2.2180 F   0  0  0  0  0  0  0  0  0  0  0  0
    5.0278   -0.1635   -2.2173 F   0  0  0  0  0  0  0  0  0  0  0  0
   -7.7996   -2.0811   -2.0929 F   0  0  0  0  0  0  0  0  0  0  0  0
    5.0753   -2.0841    2.1270 F   0  0  0  0  0  0  0  0  0  0  0  0
    7.7514   -0.1723   -2.2466 F   0  0  0  0  0  0  0  0  0  0  0  0
   -5.0759   -2.0837   -2.1268 F   0  0  0  0  0  0  0  0  0  0  0  0
   -9.1360   -1.1287    0.0937 F   0  0  0  0  0  0  0  0  0  0  0  0
   -1.4534    0.3225    0.0042 N   0  0  0  0  0  0  0  0  0  0  0  0
    7.7991   -2.0816    2.0939 F   0  0  0  0  0  0  0  0  0  0  0  0
    9.1361   -1.1287   -0.0921 F   0  0  0  0  0  0  0  0  0  0  0  0
    1.4584   -2.5614   -0.0062 N   0  0  0  0  0  2  0  0  0  0  0  0
   -0.8475    3.9119   -2.2182 F   0  0  0  0  0  0  0  0  0  0  0  0
    0.8473    3.9122    2.2180 F   0  0  0  0  0  0  0  0  0  0  0  0
   -1.4583   -2.5615    0.0053 N   0  0  0  0  0  0  0  0  0  0  0  0
    1.4534    0.3226   -0.0043 N   0  0  0  0  0  0  0  0  0  0  0  0
   -2.8250    0.1136   -0.0037 C   0  0  0  0  0  0  0  0  0  0  0  0
    0.0001   -4.5636   -0.0009 C   0  0  0  0  0  0  0  0  0  0  0  0
    0.0002   -5.6618   -0.0012 H   0  0  0  0  0  0  0  0  0  0  0  0
   -7.0963   -0.6326    1.1861 C   0  0  0  0  0  0  0  0  0  0  0  0
   -3.4903   -1.1235    0.0265 C   0  0  0  0  0  0  0  0  0  0  0  0
    0.8406    6.6372    2.2168 F   0  0  0  0  0  0  0  0  0  0  0  0
   -7.8101   -1.1270    0.0779 C   0  0  0  0  0  0  0  0  0  0  0  0
   -1.2404    1.6926   -0.0035 C   0  0  0  0  0  3  0  0  0  0  0  0
    4.9795   -1.1226   -0.0437 C   0  0  0  0  0  0  0  0  0  0  0  0
    3.4904   -1.1232   -0.0264 C   0  0  0  0  0  0  0  0  0  0  0  0
    2.5076   -4.6090   -0.0851 C   0  0  0  0  0  0  0  0  0  0  0  0
    2.6239   -5.6983   -0.1156 H   0  0  0  0  0  0  0  0  0  0  0  0
    5.7171   -1.6137    1.0522 C   0  0  0  0  0  0  0  0  0  0  0  0
   -0.0001    3.8417   -0.0001 C   0  0  0  0  0  0  0  0  0  0  0  0
   -0.8412    6.6368   -2.2173 F   0  0  0  0  0  0  0  0  0  0  0  0
    2.5174    2.3612    0.0144 C   0  0  0  0  0  0  0  0  0  0  0  0
    2.6503    3.4473    0.0097 H   0  0  0  0  0  0  0  0  0  0  0  0
    1.2390   -3.9294   -0.0276 C   0  0  0  0  0  0  0  0  0  0  0  0
   -2.5176    2.3611   -0.0140 C   0  0  0  0  0  0  0  0  0  0  0  0
   -2.6505    3.4472   -0.0092 H   0  0  0  0  0  0  0  0  0  0  0  0
    5.6929   -0.6346   -1.1569 C   0  0  0  0  0  0  0  0  0  0  0  0
   -5.7174   -1.6136   -1.0517 C   0  0  0  0  0  0  0  0  0  0  0  0
    1.2403    1.6927    0.0034 C   0  0  0  0  0  0  0  0  0  0  0  0
   -4.9794   -1.1228    0.0442 C   0  0  0  0  0  0  0  0  0  0  0  0
   -1.2388   -3.9295    0.0261 C   0  0  0  0  0  0  0  0  0  0  0  0
   -2.8282   -2.3619    0.0439 C   0  0  0  0  0  0  0  0  0  0  0  0
    2.8250    0.1137    0.0040 C   0  0  0  0  0  0  0  0  0  0  0  0
    3.4847   -3.6461   -0.1040 C   0  0  0  0  0  0  0  0  0  0  0  0
    4.5688   -3.7854   -0.1607 H   0  0  0  0  0  0  0  0  0  0  0  0
    2.8283   -2.3618   -0.0444 C   0  0  0  0  0  0  0  0  0  0  0  0
   -5.6925   -0.6351    1.1577 C   0  0  0  0  0  0  0  0  0  0  0  0
   -0.0003    7.9980   -0.0003 F   0  0  0  0  0  0  0  0  0  0  0  0
   -0.0001    2.3514   -0.0000 C   0  0  0  0  0  0  0  0  0  0  0  0
   -7.1215   -1.6194   -1.0469 C   0  0  0  0  0  0  0  0  0  0  0  0
    7.8102   -1.1269   -0.0767 C   0  0  0  0  0  0  0  0  0  0  0  0
   -3.4845   -3.6464    0.1029 C   0  0  0  0  0  0  0  0  0  0  0  0
   -4.5686   -3.7857    0.1599 H   0  0  0  0  0  0  0  0  0  0  0  0
    7.0967   -0.6321   -1.1849 C   0  0  0  0  0  0  0  0  0  0  0  0
    0.4306    4.5666    1.1286 C   0  0  0  0  0  0  0  0  0  0  0  0
    0.4344    5.9708    1.1405 C   0  0  0  0  0  0  0  0  0  0  0  0
    3.4880    1.3936    0.0307 C   0  0  0  0  0  0  0  0  0  0  0  0
    4.5734    1.5300    0.0580 H   0  0  0  0  0  0  0  0  0  0  0  0
   -3.4881    1.3934   -0.0302 C   0  0  0  0  0  0  0  0  0  0  0  0
   -4.5735    1.5297   -0.0571 H   0  0  0  0  0  0  0  0  0  0  0  0
   -0.4310    4.5664   -1.1289 C   0  0  0  0  0  0  0  0  0  0  0  0
   -0.0003    6.6719   -0.0003 C   0  0  0  0  0  0  0  0  0  0  0  0
   -0.4349    5.9706   -1.1409 C   0  0  0  0  0  0  0  0  0  0  0  0
   -2.5073   -4.6092    0.0834 C   0  0  0  0  0  0  0  0  0  0  0  0
   -2.6236   -5.6985    0.1135 H   0  0  0  0  0  0  0  0  0  0  0  0
    7.1213   -1.6196    1.0478 C   0  0  0  0  0  0  0  0  0  0  0  0
  3 37  1  0  0  0  0
  4 50  1  0  0  0  0
  6 54  1  0  0  0  0
  7 38  1  0  0  0  0
 11 51  1  0  0  0  0
 13 61  1  0  0  0  0
 15 41  2  0  0  0  0
 15 42  1  0  0  0  0
 16 39  1  0  0  0  0
 16 43  2  0  0  0  0
 17  9  2  0  0  0  0
 17 21  1  0  0  0  0
 18 41  1  0  0  0  0
 19 18  1  0  0  0  0
 20  1  1  0  0  0  0
 21 42  2  0  0  0  0
 21 40  1  0  0  0  0
 23  8  1  0  0  0  0
 23 20  2  0  0  0  0
 24 49  1  0  0  0  0
 24  9  1  0  0  0  0
 25 26  1  0  0  0  0
 25 29  1  0  0  0  0
 26 43  1  0  0  0  0
 27 34  1  0  0  0  0
 28 27  1  0  0  0  0
 29  5  1  0  0  0  0
 30 49  1  0  0  0  0
 30 55  1  0  0  0  0
 31 63  1  0  0  0  0
 32 57  2  0  0  0  0
 33 32  1  0  0  0  0
 34 12  1  0  0  0  0
 34 18  2  0  0  0  0
 35 36  1  0  0  0  0
 35 24  1  0  0  0  0
 37 25  2  0  0  0  0
 38 50  2  0  0  0  0
 38 40  1  0  0  0  0
 39 32  1  0  0  0  0
 40 47  2  0  0  0  0
 41 64  1  0  0  0  0
 42 52  1  0  0  0  0
 43 57  1  0  0  0  0
 44 27  2  0  0  0  0
 44 46  1  0  0  0  0
 45 44  1  0  0  0  0
 46 26  2  0  0  0  0
 46 12  1  0  0  0  0
 47 20  1  0  0  0  0
 47  2  1  0  0  0  0
 48 62  1  0  0  0  0
 49 39  2  0  0  0  0
 50 23  1  0  0  0  0
 51 66  1  0  0  0  0
 52 53  1  0  0  0  0
 54 37  1  0  0  0  0
 54 51  2  0  0  0  0
 55 56  2  0  0  0  0
 55 14  1  0  0  0  0
 56 22  1  0  0  0  0
 57 58  1  0  0  0  0
 59 35  2  0  0  0  0
 59 17  1  0  0  0  0
 60 59  1  0  0  0  0
 61 30  2  0  0  0  0
 62 56  1  0  0  0  0
 63 61  1  0  0  0  0
 63 62  2  0  0  0  0
 64 52  2  0  0  0  0
 64 65  1  0  0  0  0
 66 29  2  0  0  0  0
 66 10  1  0  0  0  0
M  END
