1,5,9,13
 OpenBabel05122313063D

 40 41  0  0  1  0  0  0  0  0999 V2000
   -0.1925    1.5765    0.5120 N   0  0  0  0  0  0  0  0  0  0  0  0
   -1.4820    1.3188    1.1769 C   0  0  2  0  0  0  0  0  0  0  0  0
   -1.2070    0.5389    2.4910 C   0  0  0  0  0  0  0  0  0  0  0  0
   -0.7330   -0.9196    2.3781 C   0  0  0  0  0  0  0  0  0  0  0  0
    0.4814   -1.1413    1.5600 N   0  0  0  0  0  0  0  0  0  0  0  0
    1.7647   -0.7063    2.1571 C   0  0  0  0  0  0  0  0  0  0  0  0
    2.9323   -0.7274    1.1555 C   0  0  0  0  0  0  0  0  0  0  0  0
    3.0382    0.4718    0.1980 C   0  0  0  0  0  0  0  0  0  0  0  0
    2.1000    0.4125   -0.9488 N   0  0  0  0  0  0  0  0  0  0  0  0
    1.9972    1.6590   -1.7429 C   0  0  0  0  0  0  0  0  0  0  0  0
    1.2732    2.8172   -1.0416 C   0  0  0  0  0  0  0  0  0  0  0  0
   -0.1662    2.5584   -0.5840 C   0  0  0  0  0  0  0  0  0  0  0  0
   -1.7390   -0.3047   -0.6758 N   0  0  0  0  0  2  0  0  0  0  0  0
   -2.6861   -0.9153   -1.3822 C   0  0  0  0  0  3  0  0  0  0  0  0
   -3.9028   -0.4635   -0.9813 N   0  0  0  0  0  0  0  0  0  0  0  0
   -3.7255    0.4714    0.0248 C   0  0  0  0  0  0  0  0  0  0  0  0
   -2.3571    0.5568    0.2107 C   0  0  0  0  0  0  0  0  0  0  0  0
    0.4870    1.8633    1.2273 H   0  0  0  0  0  0  0  0  0  0  0  0
   -1.9992    2.2694    1.4507 H   0  0  0  0  0  0  0  0  0  0  0  0
   -0.4914    1.1391    3.0952 H   0  0  0  0  0  0  0  0  0  0  0  0
   -2.1426    0.5238    3.0857 H   0  0  0  0  0  0  0  0  0  0  0  0
   -0.5893   -1.3152    3.4096 H   0  0  0  0  0  0  0  0  0  0  0  0
   -1.5355   -1.5296    1.9154 H   0  0  0  0  0  0  0  0  0  0  0  0
    0.5540   -2.1489    1.3436 H   0  0  0  0  0  0  0  0  0  0  0  0
    2.0093   -1.3454    3.0350 H   0  0  0  0  0  0  0  0  0  0  0  0
    1.6335    0.3217    2.5564 H   0  0  0  0  0  0  0  0  0  0  0  0
    3.8707   -0.7561    1.7450 H   0  0  0  0  0  0  0  0  0  0  0  0
    2.9067   -1.6732    0.5699 H   0  0  0  0  0  0  0  0  0  0  0  0
    2.8425    1.4096    0.7588 H   0  0  0  0  0  0  0  0  0  0  0  0
    4.0816    0.5552   -0.1799 H   0  0  0  0  0  0  0  0  0  0  0  0
    2.3980   -0.3592   -1.5706 H   0  0  0  0  0  0  0  0  0  0  0  0
    3.0099    2.0074   -2.0504 H   0  0  0  0  0  0  0  0  0  0  0  0
    1.4540    1.3937   -2.6740 H   0  0  0  0  0  0  0  0  0  0  0  0
    1.8696    3.1809   -0.1751 H   0  0  0  0  0  0  0  0  0  0  0  0
    1.2624    3.6685   -1.7521 H   0  0  0  0  0  0  0  0  0  0  0  0
   -0.7750    2.1618   -1.4252 H   0  0  0  0  0  0  0  0  0  0  0  0
   -0.6389    3.5220   -0.2785 H   0  0  0  0  0  0  0  0  0  0  0  0
   -2.5163   -1.6707   -2.1589 H   0  0  0  0  0  0  0  0  0  0  0  0
   -4.8026   -0.7586   -1.3682 H   0  0  0  0  0  0  0  0  0  0  0  0
   -4.5662    0.9800    0.5064 H   0  0  0  0  0  0  0  0  0  0  0  0
  1  2  1  0  0  0  0
  1 18  1  0  0  0  0
  2 19  1  1  0  0  0
  2  3  1  0  0  0  0
  3 21  1  0  0  0  0
  3 20  1  0  0  0  0
  4  3  1  0  0  0  0
  4 22  1  0  0  0  0
  5  6  1  0  0  0  0
  5  4  1  0  0  0  0
  6 26  1  0  0  0  0
  6 25  1  0  0  0  0
  7 27  1  0  0  0  0
  7  6  1  0  0  0  0
  8 29  1  0  0  0  0
  8  7  1  0  0  0  0
  9  8  1  0  0  0  0
 10 11  1  0  0  0  0
 10  9  1  0  0  0  0
 11 12  1  0  0  0  0
 11 34  1  0  0  0  0
 12 37  1  0  0  0  0
 12  1  1  0  0  0  0
 13 17  1  0  0  0  0
 14 15  1  0  0  0  0
 14 13  1  0  0  0  0
 15 16  1  0  0  0  0
 16 17  2  0  0  0  0
 16 40  1  0  0  0  0
 17  2  1  0  0  0  0
 23  4  1  0  0  0  0
 24  5  1  0  0  0  0
 28  7  1  0  0  0  0
 30  8  1  0  0  0  0
 31  9  1  0  0  0  0
 32 10  1  0  0  0  0
 33 10  1  0  0  0  0
 35 11  1  0  0  0  0
 36 12  1  0  0  0  0
 38 14  1  0  0  0  0
 39 15  1  0  0  0  0
M  END
