1,2,3,4
 OpenBabel05122313063D

 82 87  0  0  0  0  0  0  0  0999 V2000
   -1.8375   -1.7268   -0.0988 N   0  0  0  0  0  2  0  0  0  0  0  0
   -2.6066    0.9430    0.0702 N   0  0  0  0  0  0  0  0  0  0  0  0
   -0.0366    1.6407    0.0993 N   0  0  0  0  0  0  0  0  0  0  0  0
    0.8138   -0.9889   -0.0642 N   0  0  0  0  0  0  0  0  0  0  0  0
   -1.3425   -2.9901    0.1910 C   0  0  0  0  0  0  0  0  0  0  0  0
   -2.3869   -3.9960   -0.0184 C   0  0  0  0  0  0  0  0  0  0  0  0
   -2.2954   -5.4881    0.0975 C   0  0  0  0  0  0  0  0  0  0  0  0
   -3.5012   -3.3117   -0.4703 C   0  0  0  0  0  0  0  0  0  0  0  0
   -4.8496   -3.8668   -0.8269 C   0  0  0  0  0  0  0  0  0  0  0  0
   -5.7974   -3.9861    0.3787 C   0  0  0  0  0  0  0  0  0  0  0  0
   -3.1603   -1.9053   -0.4489 C   0  0  0  0  0  0  0  0  0  0  0  0
   -4.1025   -0.8861   -0.5838 C   0  0  0  0  0  0  0  0  0  0  0  0
   -3.8510    0.4408   -0.2593 C   0  0  0  0  0  0  0  0  0  0  0  0
   -4.8771    1.4614   -0.1253 C   0  0  0  0  0  0  0  0  0  0  0  0
   -6.3300    1.2576   -0.4166 C   0  0  0  0  0  0  0  0  0  0  0  0
   -4.2379    2.5968    0.3334 C   0  0  0  0  0  0  0  0  0  0  0  0
   -4.8267    3.9513    0.6018 C   0  0  0  0  0  0  0  0  0  0  0  0
   -4.7870    4.8866   -0.6189 C   0  0  0  0  0  0  0  0  0  0  0  0
   -2.8211    2.2693    0.4075 C   0  0  0  0  0  0  0  0  0  0  0  0
   -1.8181    3.2115    0.6356 C   0  0  0  0  0  0  0  0  0  0  0  0
   -0.4763    2.9226    0.4074 C   0  0  0  0  0  3  0  0  0  0  0  0
    0.6180    3.8958    0.3215 C   0  0  0  0  0  0  0  0  0  0  0  0
    0.4633    5.3618    0.6106 C   0  0  0  0  0  0  0  0  0  0  0  0
    1.7598    6.1649    0.4940 C   0  0  0  0  0  0  0  0  0  0  0  0
    1.7153    3.1640   -0.0965 C   0  0  0  0  0  0  0  0  0  0  0  0
    3.1816    3.2211   -0.4315 C   0  0  0  0  0  0  0  0  0  0  0  0
    3.5571    1.7299   -0.7555 C   0  0  0  0  0  0  0  0  0  0  0  0
    1.2743    1.8036   -0.1996 C   0  0  0  0  0  0  0  0  0  0  0  0
    2.2985    0.9128   -0.4877 C   0  0  0  0  0  0  0  0  0  0  0  0
    2.0696   -0.4658   -0.3786 C   0  0  0  0  0  0  0  0  0  0  0  0
    3.0631   -1.5125   -0.3799 C   0  0  0  0  0  0  0  0  0  0  0  0
    4.5230   -1.3527   -0.6839 C   0  0  0  0  0  0  0  0  0  0  0  0
    5.3727   -1.1660    0.5967 C   0  0  0  0  0  0  0  0  0  0  0  0
    6.8224   -0.8463    0.3028 C   0  0  0  0  0  0  0  0  0  0  0  0
    8.2555    0.7534   -0.6850 C   0  0  0  0  0  0  0  0  0  0  0  0
    2.4275   -2.6730    0.0327 C   0  0  0  0  0  0  0  0  0  0  0  0
    3.0985   -4.0109    0.1305 C   0  0  0  0  0  0  0  0  0  0  0  0
    1.0200   -2.3294    0.2149 C   0  0  0  0  0  0  0  0  0  0  0  0
   -0.0009   -3.2607    0.5187 C   0  0  0  0  0  0  0  0  0  0  0  0
    0.3526   -4.5616    1.2038 C   0  0  0  0  0  0  0  0  0  0  0  0
    7.7843   -1.5413    0.5647 O   0  0  0  0  0  0  0  0  0  0  0  0
    6.9256    0.3562   -0.3338 O   0  0  0  0  0  0  0  0  0  0  0  0
   -3.1841   -5.9600   -0.3647 H   0  0  0  0  0  0  0  0  0  0  0  0
   -1.4008   -5.8986   -0.4113 H   0  0  0  0  0  0  0  0  0  0  0  0
   -2.2549   -5.8392    1.1497 H   0  0  0  0  0  0  0  0  0  0  0  0
   -4.7232   -4.8671   -1.2932 H   0  0  0  0  0  0  0  0  0  0  0  0
   -5.3192   -3.2344   -1.6096 H   0  0  0  0  0  0  0  0  0  0  0  0
   -6.7847   -4.3930    0.0788 H   0  0  0  0  0  0  0  0  0  0  0  0
   -5.3705   -4.6553    1.1528 H   0  0  0  0  0  0  0  0  0  0  0  0
   -5.9617   -2.9980    0.8545 H   0  0  0  0  0  0  0  0  0  0  0  0
   -5.1313   -1.1670   -0.8443 H   0  0  0  0  0  0  0  0  0  0  0  0
   -6.9190    2.1664   -0.1870 H   0  0  0  0  0  0  0  0  0  0  0  0
   -6.5043    1.0106   -1.4855 H   0  0  0  0  0  0  0  0  0  0  0  0
   -6.7576    0.4227    0.1782 H   0  0  0  0  0  0  0  0  0  0  0  0
   -4.2971    4.4285    1.4539 H   0  0  0  0  0  0  0  0  0  0  0  0
   -5.8786    3.8298    0.9366 H   0  0  0  0  0  0  0  0  0  0  0  0
   -5.2258    5.8777   -0.3831 H   0  0  0  0  0  0  0  0  0  0  0  0
   -3.7461    5.0449   -0.9667 H   0  0  0  0  0  0  0  0  0  0  0  0
   -5.3533    4.4525   -1.4675 H   0  0  0  0  0  0  0  0  0  0  0  0
   -2.1082    4.2405    0.8851 H   0  0  0  0  0  0  0  0  0  0  0  0
    0.0354    5.4898    1.6304 H   0  0  0  0  0  0  0  0  0  0  0  0
   -0.3029    5.7910   -0.0747 H   0  0  0  0  0  0  0  0  0  0  0  0
    1.5891    7.2360    0.7199 H   0  0  0  0  0  0  0  0  0  0  0  0
    2.5301    5.7906    1.1981 H   0  0  0  0  0  0  0  0  0  0  0  0
    2.1835    6.1004   -0.5284 H   0  0  0  0  0  0  0  0  0  0  0  0
    3.7880    3.6032    0.4165 H   0  0  0  0  0  0  0  0  0  0  0  0
    3.3985    3.8911   -1.2894 H   0  0  0  0  0  0  0  0  0  0  0  0
    4.4281    1.3995   -0.1565 H   0  0  0  0  0  0  0  0  0  0  0  0
    3.8727    1.6249   -1.8163 H   0  0  0  0  0  0  0  0  0  0  0  0
    4.6937   -0.4966   -1.3614 H   0  0  0  0  0  0  0  0  0  0  0  0
    4.8954   -2.2486   -1.2246 H   0  0  0  0  0  0  0  0  0  0  0  0
    5.3481   -2.0815    1.2167 H   0  0  0  0  0  0  0  0  0  0  0  0
    4.9423   -0.3388    1.1990 H   0  0  0  0  0  0  0  0  0  0  0  0
    8.1610    1.7283   -1.1956 H   0  0  0  0  0  0  0  0  0  0  0  0
    8.8910    0.8506    0.2186 H   0  0  0  0  0  0  0  0  0  0  0  0
    8.7265    0.0083   -1.3576 H   0  0  0  0  0  0  0  0  0  0  0  0
    4.1053   -3.9675   -0.3289 H   0  0  0  0  0  0  0  0  0  0  0  0
    3.2384   -4.3520    1.1775 H   0  0  0  0  0  0  0  0  0  0  0  0
    2.5334   -4.8071   -0.3923 H   0  0  0  0  0  0  0  0  0  0  0  0
   -0.4811   -4.8965    1.8449 H   0  0  0  0  0  0  0  0  0  0  0  0
    0.5898   -5.3951    0.5106 H   0  0  0  0  0  0  0  0  0  0  0  0
    1.2272   -4.4249    1.8630 H   0  0  0  0  0  0  0  0  0  0  0  0
  1  5  1  0  0  0  0
  2 19  1  0  0  0  0
  3 21  1  0  0  0  0
  4 38  2  0  0  0  0
  5 39  2  0  0  0  0
  6  7  1  0  0  0  0
  6  5  1  0  0  0  0
  7 45  1  0  0  0  0
  8 11  1  0  0  0  0
  8  6  2  0  0  0  0
  9  8  1  0  0  0  0
  9 10  1  0  0  0  0
 10 50  1  0  0  0  0
 10 49  1  0  0  0  0
 11  1  1  0  0  0  0
 12 11  2  0  0  0  0
 12 13  1  0  0  0  0
 13 14  1  0  0  0  0
 13  2  2  0  0  0  0
 14 16  2  0  0  0  0
 15 52  1  0  0  0  0
 15 14  1  0  0  0  0
 15 54  1  0  0  0  0
 16 19  1  0  0  0  0
 16 17  1  0  0  0  0
 17 56  1  0  0  0  0
 17 55  1  0  0  0  0
 18 57  1  0  0  0  0
 18 17  1  0  0  0  0
 19 20  2  0  0  0  0
 20 60  1  0  0  0  0
 21 20  1  0  0  0  0
 22 21  1  0  0  0  0
 22 23  1  0  0  0  0
 23 61  1  0  0  0  0
 24 23  1  0  0  0  0
 24 63  1  0  0  0  0
 24 64  1  0  0  0  0
 25 22  2  0  0  0  0
 26 25  1  0  0  0  0
 26 66  1  0  0  0  0
 27 29  1  0  0  0  0
 27 26  1  0  0  0  0
 27 68  1  0  0  0  0
 28 25  1  0  0  0  0
 28  3  2  0  0  0  0
 29 30  2  0  0  0  0
 29 28  1  0  0  0  0
 30  4  1  0  0  0  0
 31 30  1  0  0  0  0
 31 36  2  0  0  0  0
 32 31  1  0  0  0  0
 32 33  1  0  0  0  0
 33 73  1  0  0  0  0
 33 72  1  0  0  0  0
 34 41  2  0  0  0  0
 34 33  1  0  0  0  0
 35 42  1  0  0  0  0
 35 75  1  0  0  0  0
 36 37  1  0  0  0  0
 36 38  1  0  0  0  0
 37 78  1  0  0  0  0
 38 39  1  0  0  0  0
 39 40  1  0  0  0  0
 40 80  1  0  0  0  0
 40 82  1  0  0  0  0
 42 34  1  0  0  0  0
 43  7  1  0  0  0  0
 44  7  1  0  0  0  0
 46  9  1  0  0  0  0
 47  9  1  0  0  0  0
 48 10  1  0  0  0  0
 51 12  1  0  0  0  0
 53 15  1  0  0  0  0
 58 18  1  0  0  0  0
 59 18  1  0  0  0  0
 62 23  1  0  0  0  0
 65 24  1  0  0  0  0
 67 26  1  0  0  0  0
 69 27  1  0  0  0  0
 70 32  1  0  0  0  0
 71 32  1  0  0  0  0
 74 35  1  0  0  0  0
 76 35  1  0  0  0  0
 77 37  1  0  0  0  0
 79 37  1  0  0  0  0
 81 40  1  0  0  0  0
M  END
