1,7,13,19
 OpenBabel05122313063D

 38 41  0  0  0  0  0  0  0  0999 V2000
   -2.3930   -1.0010   -0.4864 N   0  0  0  0  0  2  0  0  0  0  0  0
   -3.2913   -0.0568   -0.2347 C   0  0  0  0  0  0  0  0  0  0  0  0
   -4.9184   -0.6621   -0.1518 S   0  0  0  0  0  0  0  0  0  0  0  0
   -4.3282   -2.2491   -0.4794 C   0  0  0  0  0  0  0  0  0  0  0  0
   -2.9474   -2.2531   -0.6291 C   0  0  0  0  0  0  0  0  0  0  0  0
   -2.0881   -3.4430   -0.9072 C   0  0  0  0  0  0  0  0  0  0  0  0
   -1.5955    1.5980   -0.0980 N   0  0  0  0  0  2  0  0  0  0  0  0
   -2.9173    1.3520   -0.0424 C   0  0  0  0  0  0  0  0  0  0  0  0
   -3.8446    2.3896    0.1858 C   0  0  0  0  0  0  0  0  0  0  0  0
   -3.3541    3.6897    0.3514 C   0  0  0  0  0  0  0  0  0  0  0  0
   -1.9732    3.9279    0.2922 C   0  0  0  0  0  0  0  0  0  0  0  0
   -1.1067    2.8394    0.0667 C   0  0  0  0  0  0  0  0  0  0  0  0
    1.0505    1.8343   -0.2773 N   0  0  0  0  0  2  0  0  0  0  0  0
    2.3954    1.8021   -0.2914 C   0  0  0  0  0  0  0  0  0  0  0  0
    3.1549    2.9630   -0.0317 C   0  0  0  0  0  0  0  0  0  0  0  0
    2.4747    4.1510    0.2537 C   0  0  0  0  0  0  0  0  0  0  0  0
    1.0719    4.1615    0.2840 C   0  0  0  0  0  0  0  0  0  0  0  0
    0.3825    2.9632    0.0150 C   0  0  0  0  0  0  0  0  0  0  0  0
    2.2505   -0.5810   -0.8592 N   0  0  0  0  0  2  0  0  0  0  0  0
    2.9861    0.4871   -0.5734 C   0  0  0  0  0  0  0  0  0  0  0  0
    4.6908    0.1556   -0.5278 S   0  0  0  0  0  0  0  0  0  0  0  0
    4.3669   -1.4903   -0.9180 C   0  0  0  0  0  0  0  0  0  0  0  0
    3.0037   -1.7170   -1.0517 C   0  0  0  0  0  0  0  0  0  0  0  0
    2.3511   -3.0293   -1.3399 C   0  0  0  0  0  0  0  0  0  0  0  0
   -1.4025   -3.6163   -0.0524 H   0  0  0  0  0  0  0  0  0  0  0  0
    4.2541    2.9316   -0.0483 H   0  0  0  0  0  0  0  0  0  0  0  0
    5.1842   -2.2151   -1.0119 H   0  0  0  0  0  0  0  0  0  0  0  0
    3.0373    5.0720    0.4644 H   0  0  0  0  0  0  0  0  0  0  0  0
   -1.5848    4.9464    0.4208 H   0  0  0  0  0  0  0  0  0  0  0  0
    3.0978   -3.8026   -1.5935 H   0  0  0  0  0  0  0  0  0  0  0  0
    1.7774   -3.3489   -0.4463 H   0  0  0  0  0  0  0  0  0  0  0  0
    0.5341    5.0862    0.5298 H   0  0  0  0  0  0  0  0  0  0  0  0
   -4.0495    4.5228    0.5292 H   0  0  0  0  0  0  0  0  0  0  0  0
   -4.9236    2.1818    0.2325 H   0  0  0  0  0  0  0  0  0  0  0  0
    1.6308   -2.9331   -2.1769 H   0  0  0  0  0  0  0  0  0  0  0  0
   -5.0164   -3.1007   -0.5393 H   0  0  0  0  0  0  0  0  0  0  0  0
   -1.4568   -3.2603   -1.8003 H   0  0  0  0  0  0  0  0  0  0  0  0
   -2.6984   -4.3476   -1.0779 H   0  0  0  0  0  0  0  0  0  0  0  0
  1  2  1  0  0  0  0
  2  3  1  0  0  0  0
  2  8  2  0  0  0  0
  4  3  1  0  0  0  0
  5  1  1  0  0  0  0
  5  4  2  0  0  0  0
  6  5  1  0  0  0  0
  6 25  1  0  0  0  0
  7  8  1  0  0  0  0
  7 12  1  0  0  0  0
  8  9  1  0  0  0  0
  9 34  1  0  0  0  0
  9 10  2  0  0  0  0
 10 33  1  0  0  0  0
 11 10  1  0  0  0  0
 11 29  1  0  0  0  0
 12 11  2  0  0  0  0
 13 18  1  0  0  0  0
 14 13  1  0  0  0  0
 14 15  1  0  0  0  0
 15 16  2  0  0  0  0
 16 17  1  0  0  0  0
 16 28  1  0  0  0  0
 17 32  1  0  0  0  0
 18 12  1  0  0  0  0
 18 17  2  0  0  0  0
 19 20  1  0  0  0  0
 20 21  1  0  0  0  0
 20 14  2  0  0  0  0
 22 21  1  0  0  0  0
 23 22  2  0  0  0  0
 23 19  1  0  0  0  0
 24 23  1  0  0  0  0
 24 31  1  0  0  0  0
 26 15  1  0  0  0  0
 27 22  1  0  0  0  0
 30 24  1  0  0  0  0
 35 24  1  0  0  0  0
 36  4  1  0  0  0  0
 37  6  1  0  0  0  0
 38  6  1  0  0  0  0
M  END
