1,8,13,18
 OpenBabel05122313063D

 74 80  0  0  1  0  0  0  0  0999 V2000
   -1.3293    1.3365   -0.2624 N   0  0  0  0  0  2  0  0  0  0  0  0
   -0.7522    2.5823   -0.3260 C   0  0  0  0  0  0  0  0  0  0  0  0
   -1.3945    3.7296   -0.3280 N   0  0  0  0  0  0  0  0  0  0  0  0
   -2.7522    3.6785   -0.1432 C   0  0  0  0  0  0  0  0  0  0  0  0
   -3.3175    0.0326    0.0736 N   0  0  0  0  0  0  0  0  0  0  0  0
   -3.4943    4.8911   -0.1277 C   0  0  0  0  0  0  0  0  0  0  0  0
   -2.9405    5.8266   -0.2908 H   0  0  0  0  0  0  0  0  0  0  0  0
   -1.4283   -1.4780    0.1115 N   0  0  0  0  0  2  0  0  0  0  0  0
   -4.8661    4.8701    0.1008 C   0  0  0  0  0  0  0  0  0  0  0  0
   -5.4334    5.8134    0.1148 H   0  0  0  0  0  0  0  0  0  0  0  0
   -5.5412    3.6427    0.3204 C   0  0  0  0  0  0  0  0  0  0  0  0
   -6.6272    3.6425    0.4995 H   0  0  0  0  0  0  0  0  0  0  0  0
    1.4279   -1.4783    0.1121 N   0  0  0  0  0  2  0  0  0  0  0  0
   -4.8393    2.4403    0.3047 C   0  0  0  0  0  0  0  0  0  0  0  0
   -5.3359    1.4724    0.4607 H   0  0  0  0  0  0  0  0  0  0  0  0
    3.3174    0.0320    0.0743 N   0  0  0  0  0  0  0  0  0  0  0  0
   -3.4444    2.4379    0.0627 C   0  0  0  0  0  0  0  0  0  0  0  0
    1.3295    1.3362   -0.2619 N   0  0  0  0  0  2  0  0  0  0  0  0
   -2.6661    1.2157   -0.0420 C   0  0  0  0  0  0  0  0  0  0  0  0
    1.3953    3.7293   -0.3290 N   0  0  0  0  0  0  0  0  0  0  0  0
   -2.7530   -1.1568    0.1370 C   0  0  0  0  0  0  0  0  0  0  0  0
   -3.5837   -2.4325    0.3374 C   0  0  0  0  0  0  0  0  0  0  0  0
   -2.5960   -3.5043   -0.2844 C   0  0  0  0  0  0  0  0  0  0  0  0
   -1.2514   -2.8192   -0.0071 C   0  0  1  0  0  3  0  0  0  0  0  0
   -0.0004   -3.4565    0.0081 C   0  0  0  0  0  0  0  0  0  0  0  0
   -0.0004   -4.5486   -0.1163 H   0  0  0  0  0  0  0  0  0  0  0  0
   -4.9615   -2.3478   -0.3196 C   0  0  0  0  0  0  0  0  0  0  0  0
   -5.4972   -3.3157   -0.2339 H   0  0  0  0  0  0  0  0  0  0  0  0
   -4.9033   -2.0689   -1.3882 H   0  0  0  0  0  0  0  0  0  0  0  0
   -5.5675   -1.5715    0.1858 H   0  0  0  0  0  0  0  0  0  0  0  0
    0.7527    2.5822   -0.3262 C   0  0  0  0  0  0  0  0  0  0  0  0
    2.7530    3.6778   -0.1445 C   0  0  0  0  0  0  0  0  0  0  0  0
    3.4955    4.8902   -0.1299 C   0  0  0  0  0  0  0  0  0  0  0  0
    2.9420    5.8258   -0.2935 H   0  0  0  0  0  0  0  0  0  0  0  0
    4.8674    4.8690    0.0983 C   0  0  0  0  0  0  0  0  0  0  0  0
    5.4350    5.8121    0.1116 H   0  0  0  0  0  0  0  0  0  0  0  0
    5.5421    3.6416    0.3185 C   0  0  0  0  0  0  0  0  0  0  0  0
    6.6281    3.6411    0.4973 H   0  0  0  0  0  0  0  0  0  0  0  0
    4.8399    2.4394    0.3037 C   0  0  0  0  0  0  0  0  0  0  0  0
    5.3363    1.4714    0.4602 H   0  0  0  0  0  0  0  0  0  0  0  0
    3.4449    2.4372    0.0620 C   0  0  0  0  0  0  0  0  0  0  0  0
    2.6663    1.2152   -0.0418 C   0  0  0  0  0  0  0  0  0  0  0  0
    2.7527   -1.1573    0.1380 C   0  0  0  0  0  0  0  0  0  0  0  0
   -3.7544   -2.6285    1.8603 C   0  0  0  0  0  0  0  0  0  0  0  0
   -4.3613   -3.5286    2.0841 H   0  0  0  0  0  0  0  0  0  0  0  0
   -4.2748   -1.7482    2.2868 H   0  0  0  0  0  0  0  0  0  0  0  0
   -2.7765   -2.7303    2.3726 H   0  0  0  0  0  0  0  0  0  0  0  0
   -2.7661   -3.6003   -1.8179 C   0  0  0  0  0  0  0  0  0  0  0  0
   -1.9531   -4.2180   -2.2488 H   0  0  0  0  0  0  0  0  0  0  0  0
   -2.7222   -2.6008   -2.2953 H   0  0  0  0  0  0  0  0  0  0  0  0
   -3.7331   -4.0707   -2.0864 H   0  0  0  0  0  0  0  0  0  0  0  0
   -2.7090   -4.9052    0.3243 C   0  0  0  0  0  0  0  0  0  0  0  0
   -2.0549   -5.6224   -0.2115 H   0  0  0  0  0  0  0  0  0  0  0  0
   -3.7476   -5.2838    0.2306 H   0  0  0  0  0  0  0  0  0  0  0  0
   -2.4272   -4.9263    1.3940 H   0  0  0  0  0  0  0  0  0  0  0  0
    1.2507   -2.8194   -0.0065 C   0  0  0  0  0  0  0  0  0  0  0  0
    2.5954   -3.5048   -0.2831 C   0  0  0  0  0  0  0  0  0  0  0  0
    3.5830   -2.4332    0.3390 C   0  0  0  0  0  0  0  0  0  0  0  0
    3.7530   -2.6290    1.8620 C   0  0  0  0  0  0  0  0  0  0  0  0
    4.3595   -3.5292    2.0862 H   0  0  0  0  0  0  0  0  0  0  0  0
    2.7747   -2.7305    2.3738 H   0  0  0  0  0  0  0  0  0  0  0  0
    4.2733   -1.7487    2.2887 H   0  0  0  0  0  0  0  0  0  0  0  0
    4.9611   -2.3488   -0.3174 C   0  0  0  0  0  0  0  0  0  0  0  0
    5.4965   -3.3168   -0.2313 H   0  0  0  0  0  0  0  0  0  0  0  0
    5.5671   -1.5726    0.1882 H   0  0  0  0  0  0  0  0  0  0  0  0
    4.9036   -2.0700   -1.3860 H   0  0  0  0  0  0  0  0  0  0  0  0
    2.7079   -4.9057    0.3258 C   0  0  0  0  0  0  0  0  0  0  0  0
    3.7464   -5.2845    0.2326 H   0  0  0  0  0  0  0  0  0  0  0  0
    2.0539   -5.6228   -0.2102 H   0  0  0  0  0  0  0  0  0  0  0  0
    2.4255   -4.9266    1.3953 H   0  0  0  0  0  0  0  0  0  0  0  0
    2.7662   -3.6010   -1.8165 C   0  0  0  0  0  0  0  0  0  0  0  0
    3.7332   -4.0717   -2.0845 H   0  0  0  0  0  0  0  0  0  0  0  0
    2.7227   -2.6016   -2.2941 H   0  0  0  0  0  0  0  0  0  0  0  0
    1.9532   -4.2187   -2.2478 H   0  0  0  0  0  0  0  0  0  0  0  0
  1 19  1  0  0  0  0
  2  1  1  0  0  0  0
  3  2  1  0  0  0  0
  3  4  2  0  0  0  0
  4  6  1  0  0  0  0
  4 17  1  0  0  0  0
  5 21  2  0  0  0  0
  6  9  2  0  0  0  0
  7  6  1  0  0  0  0
  8 21  1  0  0  0  0
  9 10  1  0  0  0  0
  9 11  1  0  0  0  0
 11 12  1  0  0  0  0
 13 43  1  0  0  0  0
 14 11  2  0  0  0  0
 14 15  1  0  0  0  0
 16 43  2  0  0  0  0
 17 14  1  0  0  0  0
 18 42  1  0  0  0  0
 19 17  2  0  0  0  0
 19  5  1  0  0  0  0
 20 31  1  0  0  0  0
 20 32  2  0  0  0  0
 21 22  1  0  0  0  0
 22 44  1  0  0  0  0
 23 24  1  0  0  0  0
 23 52  1  0  0  0  0
 23 22  1  0  0  0  0
 24 25  1  6  0  0  0
 24  8  1  0  0  0  0
 26 25  1  0  0  0  0
 27 28  1  0  0  0  0
 27 30  1  0  0  0  0
 27 22  1  0  0  0  0
 29 27  1  0  0  0  0
 31  2  2  0  0  0  0
 31 18  1  0  0  0  0
 32 33  1  0  0  0  0
 32 41  1  0  0  0  0
 33 35  2  0  0  0  0
 34 33  1  0  0  0  0
 35 36  1  0  0  0  0
 35 37  1  0  0  0  0
 37 38  1  0  0  0  0
 39 37  2  0  0  0  0
 39 40  1  0  0  0  0
 41 39  1  0  0  0  0
 42 41  2  0  0  0  0
 42 16  1  0  0  0  0
 43 58  1  0  0  0  0
 44 45  1  0  0  0  0
 44 46  1  0  0  0  0
 44 47  1  0  0  0  0
 48 23  1  0  0  0  0
 49 48  1  0  0  0  0
 50 48  1  0  0  0  0
 51 48  1  0  0  0  0
 52 55  1  0  0  0  0
 53 52  1  0  0  0  0
 54 52  1  0  0  0  0
 56 25  2  0  0  0  0
 56 13  1  0  0  0  0
 57 56  1  0  0  0  0
 57 67  1  0  0  0  0
 57 58  1  0  0  0  0
 58 59  1  0  0  0  0
 59 60  1  0  0  0  0
 59 62  1  0  0  0  0
 59 61  1  0  0  0  0
 63 64  1  0  0  0  0
 63 65  1  0  0  0  0
 63 58  1  0  0  0  0
 66 63  1  0  0  0  0
 67 70  1  0  0  0  0
 68 67  1  0  0  0  0
 69 67  1  0  0  0  0
 71 57  1  0  0  0  0
 72 71  1  0  0  0  0
 73 71  1  0  0  0  0
 74 71  1  0  0  0  0
M  END
