9,10,11,12
 OpenBabel05122313063D

 76 79  0  0  0  0  0  0  0  0999 V2000
    5.1443    0.0191   -1.0359 S   0  0  0  0  0  0  0  0  0  0  0  0
    5.1442   -0.0209    1.0358 S   0  0  0  0  0  0  0  0  0  0  0  0
   -0.7924    1.7896    1.6204 S   0  0  0  0  0  0  0  0  0  0  0  0
   -0.7931   -1.7896   -1.6204 S   0  0  0  0  0  0  0  0  0  0  0  0
   -0.8946    0.3131    1.8415 O   0  0  0  0  0  0  0  0  0  0  0  0
   -0.4422    2.6495    2.7805 O   0  0  0  0  0  0  0  0  0  0  0  0
   -0.8947   -0.3130   -1.8416 O   0  0  0  0  0  0  0  0  0  0  0  0
   -0.4432   -2.6497   -2.7805 O   0  0  0  0  0  0  0  0  0  0  0  0
    2.0444    0.5968   -1.6014 N   0  0  0  0  0  2  0  0  0  0  0  0
    0.3112    1.8720    0.3710 N   0  0  0  0  0  2  0  0  0  0  0  0
    2.0441   -0.5975    1.6013 N   0  0  0  0  0  2  0  0  0  0  0  0
    0.3105   -1.8722   -0.3709 N   0  0  0  0  0  2  0  0  0  0  0  0
    3.7972   -1.1426   -1.5490 C   0  0  0  0  0  0  0  0  0  0  0  0
    4.2528   -1.9581   -2.1463 H   0  0  0  0  0  0  0  0  0  0  0  0
    3.3764   -1.5885   -0.6268 H   0  0  0  0  0  0  0  0  0  0  0  0
    2.7126   -0.4367   -2.3711 C   0  0  0  0  0  0  0  0  0  0  0  0
    3.1493   -0.0150   -3.3056 H   0  0  0  0  0  0  0  0  0  0  0  0
    1.9565   -1.1976   -2.6695 H   0  0  0  0  0  0  0  0  0  0  0  0
    2.1404    1.8347   -1.9846 C   0  0  0  0  0  3  0  0  0  0  0  0
    2.7375    2.0408   -2.9006 H   0  0  0  0  0  0  0  0  0  0  0  0
    1.5787    3.0217   -1.3694 C   0  0  0  0  0  0  0  0  0  0  0  0
    1.9420    4.2472   -1.9928 C   0  0  0  0  0  0  0  0  0  0  0  0
    2.6044    4.1974   -2.8717 H   0  0  0  0  0  0  0  0  0  0  0  0
    1.4966    5.4810   -1.5315 C   0  0  0  0  0  0  0  0  0  0  0  0
    1.7961    6.4109   -2.0351 H   0  0  0  0  0  0  0  0  0  0  0  0
    0.6587    5.5078   -0.3987 C   0  0  0  0  0  0  0  0  0  0  0  0
    0.3019    6.4705   -0.0007 H   0  0  0  0  0  0  0  0  0  0  0  0
    0.2743    4.3318    0.2422 C   0  0  0  0  0  0  0  0  0  0  0  0
   -0.3472    4.3852    1.1440 H   0  0  0  0  0  0  0  0  0  0  0  0
    0.7017    3.0536   -0.2202 C   0  0  0  0  0  0  0  0  0  0  0  0
   -2.3587    2.3532    0.9512 C   0  0  0  0  0  0  0  0  0  0  0  0
   -2.8210    1.8080   -0.2593 C   0  0  0  0  0  0  0  0  0  0  0  0
   -2.2145    1.0787   -0.8202 H   0  0  0  0  0  0  0  0  0  0  0  0
   -4.0693    2.2170   -0.7394 C   0  0  0  0  0  0  0  0  0  0  0  0
   -4.4394    1.7961   -1.6876 H   0  0  0  0  0  0  0  0  0  0  0  0
   -4.8620    3.1524   -0.0365 C   0  0  0  0  0  0  0  0  0  0  0  0
   -4.3660    3.6738    1.1752 C   0  0  0  0  0  0  0  0  0  0  0  0
   -4.9701    4.4023    1.7384 H   0  0  0  0  0  0  0  0  0  0  0  0
   -3.1166    3.2810    1.6765 C   0  0  0  0  0  0  0  0  0  0  0  0
   -2.7209    3.6810    2.6214 H   0  0  0  0  0  0  0  0  0  0  0  0
   -6.1971    3.5851   -0.5853 C   0  0  0  0  0  0  0  0  0  0  0  0
   -6.7511    4.2194    0.1330 H   0  0  0  0  0  0  0  0  0  0  0  0
   -6.8322    2.7106   -0.8354 H   0  0  0  0  0  0  0  0  0  0  0  0
   -6.0716    4.1666   -1.5231 H   0  0  0  0  0  0  0  0  0  0  0  0
    3.7975    1.1413    1.5488 C   0  0  0  0  0  0  0  0  0  0  0  0
    4.2535    1.9567    2.1461 H   0  0  0  0  0  0  0  0  0  0  0  0
    3.3769    1.5874    0.6265 H   0  0  0  0  0  0  0  0  0  0  0  0
    2.7127    0.4359    2.3709 C   0  0  0  0  0  0  0  0  0  0  0  0
    3.1492    0.0141    3.3054 H   0  0  0  0  0  0  0  0  0  0  0  0
    1.9568    1.1970    2.6693 H   0  0  0  0  0  0  0  0  0  0  0  0
    2.1395   -1.8353    1.9847 C   0  0  0  0  0  3  0  0  0  0  0  0
    2.7364   -2.0415    2.9008 H   0  0  0  0  0  0  0  0  0  0  0  0
    1.5774   -3.0221    1.3696 C   0  0  0  0  0  0  0  0  0  0  0  0
    1.9401   -4.2477    1.9932 C   0  0  0  0  0  0  0  0  0  0  0  0
    2.6025   -4.1981    2.8721 H   0  0  0  0  0  0  0  0  0  0  0  0
    1.4943   -5.4814    1.5321 C   0  0  0  0  0  0  0  0  0  0  0  0
    1.7934   -6.4114    2.0358 H   0  0  0  0  0  0  0  0  0  0  0  0
    0.6564   -5.5080    0.3992 C   0  0  0  0  0  0  0  0  0  0  0  0
    0.2993   -6.4706    0.0014 H   0  0  0  0  0  0  0  0  0  0  0  0
    0.2726   -4.3320   -0.2418 C   0  0  0  0  0  0  0  0  0  0  0  0
   -0.3490   -4.3852   -1.1437 H   0  0  0  0  0  0  0  0  0  0  0  0
    0.7004   -3.0539    0.2204 C   0  0  0  0  0  0  0  0  0  0  0  0
   -2.3596   -2.3524   -0.9512 C   0  0  0  0  0  0  0  0  0  0  0  0
   -3.1179   -3.2799   -1.6766 C   0  0  0  0  0  0  0  0  0  0  0  0
   -2.7224   -3.6800   -2.6215 H   0  0  0  0  0  0  0  0  0  0  0  0
   -4.3674   -3.6722   -1.1754 C   0  0  0  0  0  0  0  0  0  0  0  0
   -4.9719   -4.4004   -1.7386 H   0  0  0  0  0  0  0  0  0  0  0  0
   -4.8633   -3.1506    0.0363 C   0  0  0  0  0  0  0  0  0  0  0  0
   -4.0702   -2.2156    0.7393 C   0  0  0  0  0  0  0  0  0  0  0  0
   -4.4402   -1.7945    1.6875 H   0  0  0  0  0  0  0  0  0  0  0  0
   -2.8218   -1.8071    0.2592 C   0  0  0  0  0  0  0  0  0  0  0  0
   -2.2150   -1.0780    0.8202 H   0  0  0  0  0  0  0  0  0  0  0  0
   -6.1987   -3.5827    0.5851 C   0  0  0  0  0  0  0  0  0  0  0  0
   -6.8336   -2.7079    0.8344 H   0  0  0  0  0  0  0  0  0  0  0  0
   -6.0735   -4.1635    1.5233 H   0  0  0  0  0  0  0  0  0  0  0  0
   -6.7526   -4.2173   -0.1329 H   0  0  0  0  0  0  0  0  0  0  0  0
  1  2  1  0  0  0  0
  2 45  1  0  0  0  0
  3  5  2  0  0  0  0
  3  6  2  0  0  0  0
  4 63  1  0  0  0  0
  4 12  1  0  0  0  0
  7  4  2  0  0  0  0
  8  4  2  0  0  0  0
 10  3  1  0  0  0  0
 11 51  1  0  0  0  0
 11 48  1  0  0  0  0
 12 62  1  0  0  0  0
 13  1  1  0  0  0  0
 13 15  1  0  0  0  0
 14 13  1  0  0  0  0
 16  9  1  0  0  0  0
 16 13  1  0  0  0  0
 17 16  1  0  0  0  0
 18 16  1  0  0  0  0
 19  9  1  0  0  0  0
 19 21  1  0  0  0  0
 20 19  1  0  0  0  0
 21 30  1  0  0  0  0
 22 24  1  0  0  0  0
 22 21  2  0  0  0  0
 23 22  1  0  0  0  0
 24 26  2  0  0  0  0
 25 24  1  0  0  0  0
 26 27  1  0  0  0  0
 26 28  1  0  0  0  0
 28 29  1  0  0  0  0
 30 28  2  0  0  0  0
 30 10  1  0  0  0  0
 31  3  1  0  0  0  0
 31 39  1  0  0  0  0
 32 31  2  0  0  0  0
 33 32  1  0  0  0  0
 34 32  1  0  0  0  0
 34 36  2  0  0  0  0
 35 34  1  0  0  0  0
 36 37  1  0  0  0  0
 37 39  2  0  0  0  0
 37 38  1  0  0  0  0
 39 40  1  0  0  0  0
 41 36  1  0  0  0  0
 41 42  1  0  0  0  0
 43 41  1  0  0  0  0
 44 41  1  0  0  0  0
 45 46  1  0  0  0  0
 45 48  1  0  0  0  0
 47 45  1  0  0  0  0
 48 50  1  0  0  0  0
 48 49  1  0  0  0  0
 51 52  1  0  0  0  0
 53 51  1  0  0  0  0
 53 54  1  0  0  0  0
 54 55  1  0  0  0  0
 56 54  2  0  0  0  0
 56 57  1  0  0  0  0
 58 56  1  0  0  0  0
 59 58  1  0  0  0  0
 60 62  1  0  0  0  0
 60 58  2  0  0  0  0
 61 60  1  0  0  0  0
 62 53  2  0  0  0  0
 63 71  1  0  0  0  0
 64 66  1  0  0  0  0
 64 63  2  0  0  0  0
 65 64  1  0  0  0  0
 66 68  2  0  0  0  0
 67 66  1  0  0  0  0
 68 73  1  0  0  0  0
 68 69  1  0  0  0  0
 69 70  1  0  0  0  0
 71 69  2  0  0  0  0
 71 72  1  0  0  0  0
 73 74  1  0  0  0  0
 73 75  1  0  0  0  0
 76 73  1  0  0  0  0
M  END
