1,2,3,4
 OpenBabel05122313063D

 46 48  0  0  1  0  0  0  0  0999 V2000
   -0.9742   -0.3315   -1.9830 N   0  0  0  0  0  0  0  0  0  0  0  0
   -1.6234   -0.0404    2.1576 N   0  0  0  0  0  0  0  0  0  0  0  0
   -2.3385    1.1000   -0.1851 N   0  0  0  0  0  2  0  0  0  0  0  0
   -2.3640   -1.4806   -0.0065 N   0  0  0  0  0  2  0  0  0  0  0  0
   -1.7244   -1.5893   -2.2966 C   0  0  0  0  0  0  0  0  0  0  0  0
   -0.9753   -2.4083   -2.3164 H   0  0  0  0  0  0  0  0  0  0  0  0
   -2.1930   -1.5431   -3.3015 H   0  0  0  0  0  0  0  0  0  0  0  0
   -2.7281   -1.9263   -1.2263 C   0  0  1  0  0  3  0  0  0  0  0  0
   -3.8911   -2.6888   -1.3851 C   0  0  0  0  0  0  0  0  0  0  0  0
   -4.1879   -3.0519   -2.3794 H   0  0  0  0  0  0  0  0  0  0  0  0
   -4.6642   -2.9745   -0.2467 C   0  0  0  0  0  0  0  0  0  0  0  0
   -5.5878   -3.5639   -0.3427 H   0  0  0  0  0  0  0  0  0  0  0  0
   -4.2581   -2.5044    1.0126 C   0  0  0  0  0  0  0  0  0  0  0  0
   -4.8467   -2.7212    1.9157 H   0  0  0  0  0  0  0  0  0  0  0  0
   -3.0814   -1.7485    1.1041 C   0  0  0  0  0  0  0  0  0  0  0  0
   -2.4407   -1.2559    2.3776 C   0  0  0  0  0  0  0  0  0  0  0  0
   -1.7458   -2.0539    2.7160 H   0  0  0  0  0  0  0  0  0  0  0  0
   -3.1967   -1.1206    3.1817 H   0  0  0  0  0  0  0  0  0  0  0  0
   -2.4102    1.2130    2.2077 C   0  0  0  0  0  0  0  0  0  0  0  0
   -1.6953    2.0329    2.4341 H   0  0  0  0  0  0  0  0  0  0  0  0
   -3.1675    1.2083    3.0218 H   0  0  0  0  0  0  0  0  0  0  0  0
   -3.0403    1.5441    0.8779 C   0  0  1  0  0  3  0  0  0  0  0  0
   -4.1873    2.3253    0.6822 C   0  0  0  0  0  0  0  0  0  0  0  0
   -4.7641    2.6855    1.5462 H   0  0  0  0  0  0  0  0  0  0  0  0
   -4.5781    2.6368   -0.6301 C   0  0  0  0  0  0  0  0  0  0  0  0
   -5.4788    3.2427   -0.8070 H   0  0  0  0  0  0  0  0  0  0  0  0
   -3.8174    2.1746   -1.7175 C   0  0  0  0  0  0  0  0  0  0  0  0
   -4.1001    2.4154   -2.7522 H   0  0  0  0  0  0  0  0  0  0  0  0
   -2.6839    1.3964   -1.4548 C   0  0  0  0  0  0  0  0  0  0  0  0
   -1.6901    0.8919   -2.4665 C   0  0  0  0  0  0  0  0  0  0  0  0
   -0.9194    1.6814   -2.5945 H   0  0  0  0  0  0  0  0  0  0  0  0
   -2.1601    0.7230   -3.4575 H   0  0  0  0  0  0  0  0  0  0  0  0
    0.4098   -0.3896   -2.5573 C   0  0  0  0  0  0  0  0  0  0  0  0
    0.9075   -1.2555   -2.0815 H   0  0  0  0  0  0  0  0  0  0  0  0
    0.9375    0.5106   -2.1903 H   0  0  0  0  0  0  0  0  0  0  0  0
    0.4854   -0.4815   -4.0776 C   0  0  0  0  0  0  0  0  0  0  0  0
    1.5525   -0.5206   -4.3713 H   0  0  0  0  0  0  0  0  0  0  0  0
    0.0435    0.3990   -4.5854 H   0  0  0  0  0  0  0  0  0  0  0  0
    0.0057   -1.3961   -4.4804 H   0  0  0  0  0  0  0  0  0  0  0  0
   -0.4285    0.0054    3.0447 C   0  0  0  0  0  0  0  0  0  0  0  0
    0.1757    0.8642    2.6922 H   0  0  0  0  0  0  0  0  0  0  0  0
    0.1562   -0.9046    2.8060 H   0  0  0  0  0  0  0  0  0  0  0  0
   -0.7228    0.1071    4.5384 C   0  0  0  0  0  0  0  0  0  0  0  0
    0.2339    0.1345    5.0959 H   0  0  0  0  0  0  0  0  0  0  0  0
   -1.2961   -0.7620    4.9203 H   0  0  0  0  0  0  0  0  0  0  0  0
   -1.2780    1.0305    4.8013 H   0  0  0  0  0  0  0  0  0  0  0  0
  2 19  1  0  0  0  0
  2 16  1  0  0  0  0
  2 40  1  0  0  0  0
  4 15  1  0  0  0  0
  5  1  1  0  0  0  0
  5  8  1  0  0  0  0
  6  5  1  0  0  0  0
  7  5  1  0  0  0  0
  8  9  1  1  0  0  0
  8  4  1  0  0  0  0
  9 11  2  0  0  0  0
 10  9  1  0  0  0  0
 11 13  1  0  0  0  0
 12 11  1  0  0  0  0
 13 15  2  0  0  0  0
 13 14  1  0  0  0  0
 15 16  1  0  0  0  0
 16 17  1  0  0  0  0
 16 18  1  0  0  0  0
 19 20  1  0  0  0  0
 19 21  1  0  0  0  0
 22  3  1  6  0  0  0
 22 19  1  0  0  0  0
 23 22  1  0  0  0  0
 23 24  1  0  0  0  0
 25 23  2  0  0  0  0
 26 25  1  0  0  0  0
 27 29  2  0  0  0  0
 27 25  1  0  0  0  0
 28 27  1  0  0  0  0
 29  3  1  0  0  0  0
 30  1  1  0  0  0  0
 30 29  1  0  0  0  0
 31 30  1  0  0  0  0
 32 30  1  0  0  0  0
 33 35  1  0  0  0  0
 33 34  1  0  0  0  0
 33  1  1  0  0  0  0
 36 33  1  0  0  0  0
 37 36  1  0  0  0  0
 38 36  1  0  0  0  0
 39 36  1  0  0  0  0
 40 43  1  0  0  0  0
 41 40  1  0  0  0  0
 42 40  1  0  0  0  0
 43 46  1  0  0  0  0
 43 45  1  0  0  0  0
 43 44  1  0  0  0  0
M  END
