1,2,4
 OpenBabel05122313063D

 51 51  0  0  0  0  0  0  0  0999 V2000
    0.6962   -1.9500   -0.7557 N   0  0  0  0  0  1  0  0  0  0  0  0
    2.8140    0.1768    0.1026 N   0  0  0  0  0  0  0  0  0  0  0  0
    0.6435   -0.8409    1.7616 N   0  0  0  0  0  0  0  0  0  0  0  0
    0.3619    1.8967    0.7055 N   0  0  0  0  0  0  0  0  0  0  0  0
    1.6625    2.4640    0.2979 C   0  0  0  0  0  0  0  0  0  0  0  0
    2.8657    1.5785    0.6282 C   0  0  0  0  0  0  0  0  0  0  0  0
    3.0882   -0.8240    1.1624 C   0  0  0  0  0  0  0  0  0  0  0  0
    2.0394   -0.8249    2.2682 C   0  0  0  0  0  0  0  0  0  0  0  0
   -0.1887    0.1772    2.4438 C   0  0  0  0  0  0  0  0  0  0  0  0
    0.2782    1.5993    2.1572 C   0  0  0  0  0  0  0  0  0  0  0  0
    3.8028    0.0194   -1.0485 C   0  0  0  0  0  0  0  0  0  0  0  0
    3.6684   -1.3109   -1.7902 C   0  0  0  0  0  0  0  0  0  0  0  0
    5.2656    0.2320   -0.6268 C   0  0  0  0  0  0  0  0  0  0  0  0
    0.0087   -2.1848    1.9551 C   0  0  0  0  0  0  0  0  0  0  0  0
    0.6885   -3.3487    1.2323 C   0  0  0  0  0  0  0  0  0  0  0  0
    0.5118   -3.2847   -0.3014 C   0  0  0  0  0  0  0  0  0  0  0  0
   -0.8149    2.7672    0.3153 C   0  0  0  0  0  0  0  0  0  0  0  0
   -0.7268    4.1823    0.9142 C   0  0  0  0  0  0  0  0  0  0  0  0
   -1.0839    2.8571   -1.1848 C   0  0  0  0  0  0  0  0  0  0  0  0
    1.8579    3.4567    0.7711 H   0  0  0  0  0  0  0  0  0  0  0  0
    1.6179    2.6103   -0.7993 H   0  0  0  0  0  0  0  0  0  0  0  0
    3.0289    1.5442    1.7237 H   0  0  0  0  0  0  0  0  0  0  0  0
    3.7567    2.0991    0.2257 H   0  0  0  0  0  0  0  0  0  0  0  0
    4.0869   -0.6601    1.6308 H   0  0  0  0  0  0  0  0  0  0  0  0
    3.1057   -1.8103    0.6665 H   0  0  0  0  0  0  0  0  0  0  0  0
    2.1756    0.0627    2.9155 H   0  0  0  0  0  0  0  0  0  0  0  0
    2.2211   -1.7000    2.9287 H   0  0  0  0  0  0  0  0  0  0  0  0
   -0.1991    0.0040    3.5475 H   0  0  0  0  0  0  0  0  0  0  0  0
   -1.2217    0.0467    2.0721 H   0  0  0  0  0  0  0  0  0  0  0  0
   -0.4262    2.2904    2.6638 H   0  0  0  0  0  0  0  0  0  0  0  0
    1.2566    1.7938    2.6396 H   0  0  0  0  0  0  0  0  0  0  0  0
    3.4967    0.8175   -1.7543 H   0  0  0  0  0  0  0  0  0  0  0  0
    4.2966   -1.2644   -2.7014 H   0  0  0  0  0  0  0  0  0  0  0  0
    4.0363   -2.1662   -1.1862 H   0  0  0  0  0  0  0  0  0  0  0  0
    2.6238   -1.5078   -2.0900 H   0  0  0  0  0  0  0  0  0  0  0  0
    5.8943    0.2745   -1.5375 H   0  0  0  0  0  0  0  0  0  0  0  0
    5.4428    1.1729   -0.0689 H   0  0  0  0  0  0  0  0  0  0  0  0
    5.6464   -0.6086   -0.0116 H   0  0  0  0  0  0  0  0  0  0  0  0
   -0.0138   -2.3897    3.0523 H   0  0  0  0  0  0  0  0  0  0  0  0
   -1.0383   -2.1069    1.6009 H   0  0  0  0  0  0  0  0  0  0  0  0
    0.2411   -4.2871    1.6216 H   0  0  0  0  0  0  0  0  0  0  0  0
    1.7666   -3.3980    1.4992 H   0  0  0  0  0  0  0  0  0  0  0  0
   -0.5182   -3.6258   -0.5590 H   0  0  0  0  0  0  0  0  0  0  0  0
    1.2193   -3.9964   -0.7930 H   0  0  0  0  0  0  0  0  0  0  0  0
   -1.6830    2.2427    0.7635 H   0  0  0  0  0  0  0  0  0  0  0  0
   -1.6993    4.6963    0.7860 H   0  0  0  0  0  0  0  0  0  0  0  0
   -0.4919    4.1925    1.9978 H   0  0  0  0  0  0  0  0  0  0  0  0
    0.0354    4.7967    0.3931 H   0  0  0  0  0  0  0  0  0  0  0  0
   -1.9923    3.4746   -1.3322 H   0  0  0  0  0  0  0  0  0  0  0  0
   -0.2562    3.3434   -1.7372 H   0  0  0  0  0  0  0  0  0  0  0  0
   -1.2646    1.8675   -1.6345 H   0  0  0  0  0  0  0  0  0  0  0  0
  1 16  1  0  0  0  0
  2  6  1  0  0  0  0
  2  7  1  0  0  0  0
  3 14  1  0  0  0  0
  3  8  1  0  0  0  0
  3  9  1  0  0  0  0
  4 10  1  0  0  0  0
  5  6  1  0  0  0  0
  5  4  1  0  0  0  0
  5 20  1  0  0  0  0
  6 22  1  0  0  0  0
  7 24  1  0  0  0  0
  7  8  1  0  0  0  0
  8 26  1  0  0  0  0
  8 27  1  0  0  0  0
  9 28  1  0  0  0  0
 10  9  1  0  0  0  0
 10 31  1  0  0  0  0
 10 30  1  0  0  0  0
 11 13  1  0  0  0  0
 11  2  1  0  0  0  0
 12 34  1  0  0  0  0
 12 11  1  0  0  0  0
 13 37  1  0  0  0  0
 13 38  1  0  0  0  0
 14 39  1  0  0  0  0
 15 42  1  0  0  0  0
 15 41  1  0  0  0  0
 15 14  1  0  0  0  0
 16 15  1  0  0  0  0
 17  4  1  0  0  0  0
 17 45  1  0  0  0  0
 17 18  1  0  0  0  0
 18 47  1  0  0  0  0
 19 17  1  0  0  0  0
 21  5  1  0  0  0  0
 23  6  1  0  0  0  0
 25  7  1  0  0  0  0
 29  9  1  0  0  0  0
 32 11  1  0  0  0  0
 33 12  1  0  0  0  0
 35 12  1  0  0  0  0
 36 13  1  0  0  0  0
 40 14  1  0  0  0  0
 43 16  1  0  0  0  0
 44 16  1  0  0  0  0
 46 18  1  0  0  0  0
 48 18  1  0  0  0  0
 49 19  1  0  0  0  0
 50 19  1  0  0  0  0
 51 19  1  0  0  0  0
M  END
