3,4,5,6
 OpenBabel05122313063D

 33 33  0  0  0  0  0  0  0  0999 V2000
    3.6358   -1.4808    0.0118 O   0  0  0  0  0  0  0  0  0  0  0  0
    3.6358    1.4807    0.0118 O   0  0  0  0  0  0  0  0  0  0  0  0
   -1.2311   -1.5233   -0.0699 N   0  0  0  0  0  0  0  0  0  0  0  0
    1.3407   -1.2284   -0.1491 N   0  0  0  0  0  2  0  0  0  0  0  0
    1.3407    1.2284   -0.1492 N   0  0  0  0  0  2  0  0  0  0  0  0
   -1.2310    1.5233   -0.0699 N   0  0  0  0  0  0  0  0  0  0  0  0
   -3.1370    0.0000    0.2199 N   0  0  0  0  0  0  0  0  0  0  0  0
   -0.4342   -2.6433    0.5243 C   0  0  0  0  0  0  0  0  0  0  0  0
    0.9518   -2.6168   -0.1220 C   0  0  0  0  0  0  0  0  0  0  0  0
    2.6264   -0.7805   -0.0639 C   0  0  0  0  0  0  0  0  0  0  0  0
    2.6264    0.7805   -0.0639 C   0  0  0  0  0  0  0  0  0  0  0  0
    0.9519    2.6168   -0.1220 C   0  0  0  0  0  0  0  0  0  0  0  0
   -0.4342    2.6433    0.5243 C   0  0  0  0  0  0  0  0  0  0  0  0
   -2.5095    1.2225    0.6388 C   0  0  0  0  0  0  0  0  0  0  0  0
   -2.5095   -1.2224    0.6390 C   0  0  0  0  0  0  0  0  0  0  0  0
   -3.7005   -0.0001   -1.1202 C   0  0  0  0  0  0  0  0  0  0  0  0
   -0.9588   -3.6179    0.4006 H   0  0  0  0  0  0  0  0  0  0  0  0
   -0.3439   -2.4280    1.6086 H   0  0  0  0  0  0  0  0  0  0  0  0
    0.8995   -3.0640   -1.1477 H   0  0  0  0  0  0  0  0  0  0  0  0
    1.6816   -3.2317    0.4497 H   0  0  0  0  0  0  0  0  0  0  0  0
    0.8995    3.0640   -1.1476 H   0  0  0  0  0  0  0  0  0  0  0  0
    1.6817    3.2317    0.4498 H   0  0  0  0  0  0  0  0  0  0  0  0
   -0.3439    2.4280    1.6086 H   0  0  0  0  0  0  0  0  0  0  0  0
   -0.9587    3.6179    0.4006 H   0  0  0  0  0  0  0  0  0  0  0  0
   -2.2622    1.1549    1.7177 H   0  0  0  0  0  0  0  0  0  0  0  0
   -3.2299    2.0623    0.5029 H   0  0  0  0  0  0  0  0  0  0  0  0
   -2.2620   -1.1545    1.7179 H   0  0  0  0  0  0  0  0  0  0  0  0
   -3.2298   -2.0622    0.5033 H   0  0  0  0  0  0  0  0  0  0  0  0
   -2.9412   -0.0000   -1.9431 H   0  0  0  0  0  0  0  0  0  0  0  0
   -4.3416   -0.8949   -1.2566 H   0  0  0  0  0  0  0  0  0  0  0  0
   -4.3418    0.8946   -1.2567 H   0  0  0  0  0  0  0  0  0  0  0  0
   -1.4509   -1.7824   -1.0462 H   0  0  0  0  0  0  0  0  0  0  0  0
   -1.4508    1.7824   -1.0463 H   0  0  0  0  0  0  0  0  0  0  0  0
  3  8  1  0  0  0  0
  3 15  1  0  0  0  0
  4  9  1  0  0  0  0
  4 10  1  0  0  0  0
  5 12  1  0  0  0  0
  5 11  1  0  0  0  0
  6 13  1  0  0  0  0
  6 14  1  0  0  0  0
  7 14  1  0  0  0  0
  7 15  1  0  0  0  0
  8 18  1  0  0  0  0
  9 20  1  0  0  0  0
  9  8  1  0  0  0  0
 10  1  2  0  0  0  0
 11 10  1  0  0  0  0
 11  2  2  0  0  0  0
 12 22  1  0  0  0  0
 12 13  1  0  0  0  0
 13 23  1  0  0  0  0
 14 25  1  0  0  0  0
 15 27  1  0  0  0  0
 16  7  1  0  0  0  0
 17  8  1  0  0  0  0
 19  9  1  0  0  0  0
 21 12  1  0  0  0  0
 24 13  1  0  0  0  0
 26 14  1  0  0  0  0
 28 15  1  0  0  0  0
 29 16  1  0  0  0  0
 30 16  1  0  0  0  0
 31 16  1  0  0  0  0
 32  3  1  0  0  0  0
 33  6  1  0  0  0  0
M  END
