3,4,5,6
 OpenBabel05122313063D

 83 88  0  0  1  0  0  0  0  0999 V2000
    2.8192    2.9774    0.7456 O   0  0  0  0  0  0  0  0  0  0  0  0
   -4.1820    3.1478   -0.2846 O   0  0  0  0  0  0  0  0  0  0  0  0
    0.6648    0.1306    0.6209 N   0  0  0  0  0  2  0  0  0  0  0  0
    0.5498    2.6338    0.3400 N   0  0  0  0  0  2  0  0  0  0  0  0
   -1.8919    2.6996   -0.1703 N   0  0  0  0  0  2  0  0  0  0  0  0
   -2.1544    0.2010   -0.4243 N   0  0  0  0  0  2  0  0  0  0  0  0
    0.5446   -0.9317    1.3906 C   0  0  0  0  0  3  0  0  0  0  0  0
    1.9904    0.7204    0.3705 C   0  0  2  0  0  0  0  0  0  0  0  0
    2.7112    0.3535    1.1291 H   0  0  0  0  0  0  0  0  0  0  0  0
    1.8411    2.2511    0.5421 C   0  0  0  0  0  0  0  0  0  0  0  0
   -3.2211    2.3829   -0.2139 C   0  0  0  0  0  0  0  0  0  0  0  0
   -3.4058    0.8586   -0.0593 C   0  0  0  0  0  0  0  0  0  0  0  0
   -3.6485    0.6744    1.0101 H   0  0  0  0  0  0  0  0  0  0  0  0
   -4.2666    0.5090   -0.6637 H   0  0  0  0  0  0  0  0  0  0  0  0
   -2.1266   -0.9331   -1.0873 C   0  0  0  0  0  3  0  0  0  0  0  0
   -0.7517   -1.2544    2.0330 C   0  0  0  0  0  0  0  0  0  0  0  0
   -1.5390   -0.2215    2.5937 C   0  0  0  0  0  0  0  0  0  0  0  0
   -1.2028    0.8227    2.4925 H   0  0  0  0  0  0  0  0  0  0  0  0
   -2.7053   -0.5273    3.3079 C   0  0  0  0  0  0  0  0  0  0  0  0
   -3.2939    0.2844    3.7620 H   0  0  0  0  0  0  0  0  0  0  0  0
   -3.1092   -1.8654    3.4641 C   0  0  0  0  0  0  0  0  0  0  0  0
   -4.0242   -2.1029    4.0276 H   0  0  0  0  0  0  0  0  0  0  0  0
   -2.3337   -2.8981    2.9106 C   0  0  0  0  0  0  0  0  0  0  0  0
   -2.6463   -3.9465    3.0275 H   0  0  0  0  0  0  0  0  0  0  0  0
   -1.1575   -2.5968    2.2111 C   0  0  0  0  0  0  0  0  0  0  0  0
   -0.5373   -3.4049    1.7952 H   0  0  0  0  0  0  0  0  0  0  0  0
    1.6975   -1.7976    1.7596 C   0  0  0  0  0  0  0  0  0  0  0  0
    2.5492   -2.3486    0.7765 C   0  0  0  0  0  0  0  0  0  0  0  0
    2.3443   -2.1581   -0.2842 H   0  0  0  0  0  0  0  0  0  0  0  0
    3.6366   -3.1509    1.1449 C   0  0  0  0  0  0  0  0  0  0  0  0
    4.2975   -3.5556    0.3640 H   0  0  0  0  0  0  0  0  0  0  0  0
    3.8871   -3.4205    2.4990 C   0  0  0  0  0  0  0  0  0  0  0  0
    4.7472   -4.0431    2.7882 H   0  0  0  0  0  0  0  0  0  0  0  0
    3.0356   -2.8939    3.4853 C   0  0  0  0  0  0  0  0  0  0  0  0
    3.2274   -3.1020    4.5487 H   0  0  0  0  0  0  0  0  0  0  0  0
    1.9435   -2.0972    3.1204 C   0  0  0  0  0  0  0  0  0  0  0  0
    1.2795   -1.6807    3.8925 H   0  0  0  0  0  0  0  0  0  0  0  0
    2.5536    0.4064   -1.0460 C   0  0  0  0  0  0  0  0  0  0  0  0
    1.9812   -0.4366   -1.4700 H   0  0  0  0  0  0  0  0  0  0  0  0
    2.3445    1.2671   -1.7167 H   0  0  0  0  0  0  0  0  0  0  0  0
    4.0292    0.0691   -1.0701 C   0  0  0  0  0  0  0  0  0  0  0  0
    4.4881   -1.0372   -1.8142 C   0  0  0  0  0  0  0  0  0  0  0  0
    3.7611   -1.6445   -2.3768 H   0  0  0  0  0  0  0  0  0  0  0  0
    5.8502   -1.3740   -1.8431 C   0  0  0  0  0  0  0  0  0  0  0  0
    6.1878   -2.2427   -2.4296 H   0  0  0  0  0  0  0  0  0  0  0  0
    6.7776   -0.6063   -1.1217 C   0  0  0  0  0  0  0  0  0  0  0  0
    7.8463   -0.8694   -1.1377 H   0  0  0  0  0  0  0  0  0  0  0  0
    6.3316    0.5012   -0.3822 C   0  0  0  0  0  0  0  0  0  0  0  0
    7.0531    1.1125    0.1816 H   0  0  0  0  0  0  0  0  0  0  0  0
    4.9706    0.8405   -0.3567 C   0  0  0  0  0  0  0  0  0  0  0  0
    4.6189    1.7152    0.2154 H   0  0  0  0  0  0  0  0  0  0  0  0
    0.0560    3.9457    0.2555 C   0  0  0  0  0  0  0  0  0  0  0  0
   -1.3336    3.9824   -0.0659 C   0  0  0  0  0  0  0  0  0  0  0  0
   -1.9975    5.2156   -0.2124 C   0  0  0  0  0  0  0  0  0  0  0  0
   -3.0691    5.2187   -0.4462 H   0  0  0  0  0  0  0  0  0  0  0  0
   -1.2668    6.4011   -0.0350 C   0  0  0  0  0  0  0  0  0  0  0  0
   -1.7789    7.3695   -0.1438 H   0  0  0  0  0  0  0  0  0  0  0  0
    0.1032    6.3651    0.2824 C   0  0  0  0  0  0  0  0  0  0  0  0
    0.6604    7.3052    0.4140 H   0  0  0  0  0  0  0  0  0  0  0  0
    0.7763    5.1424    0.4350 C   0  0  0  0  0  0  0  0  0  0  0  0
    1.8438    5.0894    0.6807 H   0  0  0  0  0  0  0  0  0  0  0  0
   -3.2808   -1.8566   -1.1930 C   0  0  0  0  0  0  0  0  0  0  0  0
   -4.1033   -2.1264   -0.0736 C   0  0  0  0  0  0  0  0  0  0  0  0
   -3.8828   -1.6484    0.8899 H   0  0  0  0  0  0  0  0  0  0  0  0
   -5.1643   -3.0335   -0.1731 C   0  0  0  0  0  0  0  0  0  0  0  0
   -5.7844   -3.2426    0.7118 H   0  0  0  0  0  0  0  0  0  0  0  0
   -5.4321   -3.6796   -1.3916 C   0  0  0  0  0  0  0  0  0  0  0  0
   -6.2707   -4.3881   -1.4688 H   0  0  0  0  0  0  0  0  0  0  0  0
   -4.6209   -3.4230   -2.5092 C   0  0  0  0  0  0  0  0  0  0  0  0
   -4.8255   -3.9251   -3.4668 H   0  0  0  0  0  0  0  0  0  0  0  0
   -3.5479   -2.5289   -2.4101 C   0  0  0  0  0  0  0  0  0  0  0  0
   -2.9118   -2.3317   -3.2854 H   0  0  0  0  0  0  0  0  0  0  0  0
   -0.9119   -1.2804   -1.8679 C   0  0  0  0  0  0  0  0  0  0  0  0
   -0.3363   -2.5677   -1.8156 C   0  0  0  0  0  0  0  0  0  0  0  0
   -0.7305   -3.3052   -1.1003 H   0  0  0  0  0  0  0  0  0  0  0  0
    0.7246   -2.9018   -2.6696 C   0  0  0  0  0  0  0  0  0  0  0  0
    1.1799   -3.9020   -2.6109 H   0  0  0  0  0  0  0  0  0  0  0  0
    1.1923   -1.9689   -3.6115 C   0  0  0  0  0  0  0  0  0  0  0  0
    2.0054   -2.2417   -4.3011 H   0  0  0  0  0  0  0  0  0  0  0  0
    0.6179   -0.6879   -3.6748 C   0  0  0  0  0  0  0  0  0  0  0  0
    0.9827    0.0451   -4.4097 H   0  0  0  0  0  0  0  0  0  0  0  0
   -0.4140   -0.3364   -2.7947 C   0  0  0  0  0  0  0  0  0  0  0  0
   -0.8728    0.6630   -2.8371 H   0  0  0  0  0  0  0  0  0  0  0  0
  2 11  2  0  0  0  0
  3  7  1  0  0  0  0
  4 10  1  0  0  0  0
  5 53  1  0  0  0  0
  6 12  1  0  0  0  0
  7 27  1  0  0  0  0
  7 16  1  0  0  0  0
  8 10  1  0  0  0  0
  8  3  1  0  0  0  0
  8  9  1  1  0  0  0
 10  1  2  0  0  0  0
 11  5  1  0  0  0  0
 11 12  1  0  0  0  0
 12 13  1  0  0  0  0
 14 12  1  0  0  0  0
 15  6  1  0  0  0  0
 16 25  2  0  0  0  0
 16 17  1  0  0  0  0
 17 19  2  0  0  0  0
 18 17  1  0  0  0  0
 19 21  1  0  0  0  0
 19 20  1  0  0  0  0
 21 22  1  0  0  0  0
 23 24  1  0  0  0  0
 23 21  2  0  0  0  0
 25 23  1  0  0  0  0
 26 25  1  0  0  0  0
 27 36  1  0  0  0  0
 28 30  1  0  0  0  0
 28 27  2  0  0  0  0
 29 28  1  0  0  0  0
 30 32  2  0  0  0  0
 31 30  1  0  0  0  0
 32 33  1  0  0  0  0
 32 34  1  0  0  0  0
 34 35  1  0  0  0  0
 36 34  2  0  0  0  0
 36 37  1  0  0  0  0
 38  8  1  0  0  0  0
 39 38  1  0  0  0  0
 40 38  1  0  0  0  0
 41 38  1  0  0  0  0
 41 50  1  0  0  0  0
 42 41  2  0  0  0  0
 43 42  1  0  0  0  0
 44 42  1  0  0  0  0
 44 46  2  0  0  0  0
 45 44  1  0  0  0  0
 46 48  1  0  0  0  0
 47 46  1  0  0  0  0
 48 50  2  0  0  0  0
 48 49  1  0  0  0  0
 50 51  1  0  0  0  0
 52  4  1  0  0  0  0
 52 60  1  0  0  0  0
 53 52  2  0  0  0  0
 54 53  1  0  0  0  0
 54 56  2  0  0  0  0
 55 54  1  0  0  0  0
 56 58  1  0  0  0  0
 57 56  1  0  0  0  0
 58 59  1  0  0  0  0
 58 60  2  0  0  0  0
 60 61  1  0  0  0  0
 62 15  1  0  0  0  0
 62 63  1  0  0  0  0
 63 64  1  0  0  0  0
 65 63  2  0  0  0  0
 65 66  1  0  0  0  0
 67 65  1  0  0  0  0
 68 67  1  0  0  0  0
 69 71  1  0  0  0  0
 69 67  2  0  0  0  0
 70 69  1  0  0  0  0
 71 62  2  0  0  0  0
 72 71  1  0  0  0  0
 73 74  1  0  0  0  0
 73 15  1  0  0  0  0
 74 75  1  0  0  0  0
 76 77  1  0  0  0  0
 76 74  2  0  0  0  0
 78 76  1  0  0  0  0
 79 78  1  0  0  0  0
 80 78  2  0  0  0  0
 80 82  1  0  0  0  0
 81 80  1  0  0  0  0
 82 73  2  0  0  0  0
 83 82  1  0  0  0  0
M  END
