3,4,5,6
 OpenBabel05122313063D

 34 36  0  0  1  0  0  0  0  0999 V2000
   -3.5560    1.5300   -0.3228 O   0  0  0  0  0  0  0  0  0  0  0  0
    3.5792    1.4752    0.3221 O   0  0  0  0  0  0  0  0  0  0  0  0
   -1.5776   -1.4269    0.1041 N   0  0  0  0  0  2  0  0  0  0  0  0
   -1.2632    1.1016   -0.0307 N   0  0  0  0  0  2  0  0  0  0  0  0
    1.2799    1.0821    0.0323 N   0  0  0  0  0  2  0  0  0  0  0  0
    1.5555   -1.4508   -0.1045 N   0  0  0  0  0  2  0  0  0  0  0  0
   -1.7063   -2.7324    0.3935 C   0  0  0  0  0  3  0  0  0  0  0  0
   -0.7901   -3.2886    0.6349 H   0  0  0  0  0  0  0  0  0  0  0  0
   -2.9700   -3.3408    0.4141 C   0  0  0  0  0  0  0  0  0  0  0  0
   -3.0543   -4.4192    0.6363 H   0  0  0  0  0  0  0  0  0  0  0  0
   -4.1069   -2.6651    0.1719 N   0  0  0  0  0  0  0  0  0  0  0  0
   -3.9676   -1.3498   -0.0508 C   0  0  0  0  0  0  0  0  0  0  0  0
   -4.8661   -0.7313   -0.2139 H   0  0  0  0  0  0  0  0  0  0  0  0
   -2.7166   -0.7080   -0.0748 C   0  0  0  0  0  0  0  0  0  0  0  0
   -2.5724    0.7799   -0.1818 C   0  0  0  0  0  0  0  0  0  0  0  0
   -0.6978    2.3697   -0.0271 C   0  0  0  0  0  0  0  0  0  0  0  0
   -1.3932    3.5966   -0.0644 C   0  0  0  0  0  0  0  0  0  0  0  0
   -2.4886    3.5707   -0.1194 H   0  0  0  0  0  0  0  0  0  0  0  0
   -0.6660    4.7974   -0.0339 C   0  0  0  0  0  0  0  0  0  0  0  0
   -1.2075    5.7565   -0.0625 H   0  0  0  0  0  0  0  0  0  0  0  0
    0.7395    4.7867    0.0339 C   0  0  0  0  0  0  0  0  0  0  0  0
    1.2956    5.7373    0.0621 H   0  0  0  0  0  0  0  0  0  0  0  0
    1.4482    3.5748    0.0650 C   0  0  0  0  0  0  0  0  0  0  0  0
    2.5430    3.5322    0.1199 H   0  0  0  0  0  0  0  0  0  0  0  0
    0.7340    2.3587    0.0283 C   0  0  0  0  0  0  0  0  0  0  0  0
    2.5842    0.7403    0.1818 C   0  0  0  0  0  0  0  0  0  0  0  0
    2.7055   -0.7495    0.0743 C   0  0  2  0  0  3  0  0  0  0  0  0
    3.9464   -1.4106    0.0496 C   0  0  0  0  0  0  0  0  0  0  0  0
    4.8544   -0.8060    0.2124 H   0  0  0  0  0  0  0  0  0  0  0  0
    4.0654   -2.7278   -0.1733 N   0  0  0  0  0  0  0  0  0  0  0  0
    2.9181   -3.3859   -0.4150 C   0  0  0  0  0  0  0  0  0  0  0  0
    2.9856   -4.4655   -0.6372 H   0  0  0  0  0  0  0  0  0  0  0  0
    1.6639   -2.7580   -0.3939 C   0  0  0  0  0  0  0  0  0  0  0  0
    0.7391   -3.3000   -0.6352 H   0  0  0  0  0  0  0  0  0  0  0  0
  1 15  2  0  0  0  0
  3  7  1  0  0  0  0
  4 16  1  0  0  0  0
  5 26  1  0  0  0  0
  6 27  1  0  0  0  0
  7  9  1  0  0  0  0
  7  8  1  0  0  0  0
  9 10  1  0  0  0  0
 11  9  2  0  0  0  0
 12 11  1  0  0  0  0
 13 12  1  0  0  0  0
 14 12  2  0  0  0  0
 14  3  1  0  0  0  0
 15 14  1  0  0  0  0
 15  4  1  0  0  0  0
 16 25  1  0  0  0  0
 17 19  1  0  0  0  0
 17 16  2  0  0  0  0
 18 17  1  0  0  0  0
 19 21  2  0  0  0  0
 20 19  1  0  0  0  0
 21 22  1  0  0  0  0
 21 23  1  0  0  0  0
 23 24  1  0  0  0  0
 25  5  1  0  0  0  0
 25 23  2  0  0  0  0
 26  2  2  0  0  0  0
 27 26  1  6  0  0  0
 28 27  1  0  0  0  0
 28 29  1  0  0  0  0
 30 28  2  0  0  0  0
 31 33  2  0  0  0  0
 31 30  1  0  0  0  0
 32 31  1  0  0  0  0
 33  6  1  0  0  0  0
 34 33  1  0  0  0  0
M  END
