3,4,5,6
 OpenBabel05122313063D

 76 79  0  0  0  0  0  0  0  0999 V2000
   -3.4890   -1.9171   -2.1196 O   0  0  0  0  0  0  0  0  0  0  0  0
   -2.5074   -2.1965    2.2732 O   0  0  0  0  0  0  0  0  0  0  0  0
   -1.1834   -0.8960   -1.2418 N   0  0  0  0  0  2  0  0  0  0  0  0
    1.3719   -1.2122   -0.6090 N   0  0  0  0  0  0  0  0  0  0  0  0
    1.4091    1.5233   -0.3716 N   0  0  0  0  0  2  0  0  0  0  0  0
   -1.2588    1.3603    0.0028 N   0  0  0  0  0  0  0  0  0  0  0  0
   -3.7418   -2.2979    1.6303 N   0  0  0  0  0  0  0  0  0  0  0  0
   -2.9208   -4.2070   -1.6909 C   0  0  0  0  0  0  0  0  0  0  0  0
   -3.9095   -4.4070   -2.1406 H   0  0  0  0  0  0  0  0  0  0  0  0
   -2.9482   -4.4972   -0.6190 H   0  0  0  0  0  0  0  0  0  0  0  0
   -2.1456   -4.8223   -2.1875 H   0  0  0  0  0  0  0  0  0  0  0  0
   -2.6300   -2.7279   -1.7779 C   0  0  0  0  0  0  0  0  0  0  0  0
   -1.2713   -2.2178   -1.3506 C   0  0  0  0  0  0  0  0  0  0  0  0
   -0.1803   -3.0655   -1.0655 C   0  0  0  0  0  0  0  0  0  0  0  0
    1.0828   -2.5535   -0.7474 C   0  0  0  0  0  0  0  0  0  0  0  0
    2.2979   -3.3396   -0.5355 C   0  0  0  0  0  0  0  0  0  0  0  0
    2.3514   -4.8326   -0.5784 C   0  0  0  0  0  0  0  0  0  0  0  0
    3.3823   -5.2075   -0.4313 H   0  0  0  0  0  0  0  0  0  0  0  0
    1.9848   -5.2282   -1.5493 H   0  0  0  0  0  0  0  0  0  0  0  0
    1.7158   -5.2863    0.2118 H   0  0  0  0  0  0  0  0  0  0  0  0
    3.3212   -2.4398   -0.3050 C   0  0  0  0  0  0  0  0  0  0  0  0
    4.7573   -2.7203    0.0228 C   0  0  0  0  0  0  0  0  0  0  0  0
    5.4113   -2.0082   -0.5256 H   0  0  0  0  0  0  0  0  0  0  0  0
    5.0302   -3.7285   -0.3527 H   0  0  0  0  0  0  0  0  0  0  0  0
    5.0579   -2.6349    1.5295 C   0  0  0  0  0  0  0  0  0  0  0  0
    6.1268   -2.8426    1.7393 H   0  0  0  0  0  0  0  0  0  0  0  0
    4.4470   -3.3664    2.0958 H   0  0  0  0  0  0  0  0  0  0  0  0
    4.8189   -1.6281    1.9279 H   0  0  0  0  0  0  0  0  0  0  0  0
    2.7280   -1.1052   -0.3620 C   0  0  0  0  0  3  0  0  0  0  0  0
    3.4000    0.1072   -0.2390 C   0  0  0  0  0  0  0  0  0  0  0  0
    2.7722    1.3667   -0.3140 C   0  0  0  0  0  0  0  0  0  0  0  0
    3.4260    2.6621   -0.3875 C   0  0  0  0  0  0  0  0  0  0  0  0
    4.9065    2.8827   -0.2811 C   0  0  0  0  0  0  0  0  0  0  0  0
    5.1663    3.8586   -0.7423 H   0  0  0  0  0  0  0  0  0  0  0  0
    5.4421    2.1171   -0.8835 H   0  0  0  0  0  0  0  0  0  0  0  0
    5.4259    2.8490    1.1665 C   0  0  0  0  0  0  0  0  0  0  0  0
    6.5230    3.0070    1.2064 H   0  0  0  0  0  0  0  0  0  0  0  0
    5.2031    1.8760    1.6502 H   0  0  0  0  0  0  0  0  0  0  0  0
    4.9420    3.6367    1.7784 H   0  0  0  0  0  0  0  0  0  0  0  0
    2.4160    3.6075   -0.5182 C   0  0  0  0  0  0  0  0  0  0  0  0
    2.5441    5.0938   -0.6333 C   0  0  0  0  0  0  0  0  0  0  0  0
    3.6029    5.4021   -0.7301 H   0  0  0  0  0  0  0  0  0  0  0  0
    2.1291    5.6131    0.2569 H   0  0  0  0  0  0  0  0  0  0  0  0
    1.9997    5.4871   -1.5174 H   0  0  0  0  0  0  0  0  0  0  0  0
    1.1583    2.8840   -0.4969 C   0  0  0  0  0  0  0  0  0  0  0  0
   -0.1260    3.4418   -0.5275 C   0  0  0  0  0  0  0  0  0  0  0  0
   -1.2998    2.7219   -0.2747 C   0  0  0  0  0  0  0  0  0  0  0  0
   -2.6301    3.2165   -0.0240 C   0  0  0  0  0  0  0  0  0  0  0  0
   -3.0942    4.6265   -0.2087 C   0  0  0  0  0  0  0  0  0  0  0  0
   -3.9740    4.8492    0.4274 H   0  0  0  0  0  0  0  0  0  0  0  0
   -3.3954    4.8277   -1.2600 H   0  0  0  0  0  0  0  0  0  0  0  0
   -2.3034    5.3614    0.0453 H   0  0  0  0  0  0  0  0  0  0  0  0
   -3.3715    2.1296    0.4630 C   0  0  0  0  0  0  0  0  0  0  0  0
   -4.8118    2.1184    0.8838 C   0  0  0  0  0  0  0  0  0  0  0  0
   -5.0651    3.0845    1.3718 H   0  0  0  0  0  0  0  0  0  0  0  0
   -4.9629    1.3366    1.6579 H   0  0  0  0  0  0  0  0  0  0  0  0
   -5.7777    1.8781   -0.2891 C   0  0  0  0  0  0  0  0  0  0  0  0
   -6.8320    1.8468    0.0539 H   0  0  0  0  0  0  0  0  0  0  0  0
   -5.5541    0.9219   -0.8052 H   0  0  0  0  0  0  0  0  0  0  0  0
   -5.6881    2.6818   -1.0479 H   0  0  0  0  0  0  0  0  0  0  0  0
   -2.4804    0.9984    0.4890 C   0  0  0  0  0  3  0  0  0  0  0  0
   -2.7348   -0.3077    1.0964 C   0  0  0  0  0  0  0  0  0  0  0  0
   -3.8709   -1.1713    0.9522 C   0  0  0  0  0  0  0  0  0  0  0  0
   -1.9115   -1.0206    1.9621 C   0  0  0  0  0  0  0  0  0  0  0  0
   -0.5975   -0.7192    2.6050 C   0  0  0  0  0  0  0  0  0  0  0  0
   -0.7954   -0.2691    3.6048 H   0  0  0  0  0  0  0  0  0  0  0  0
   -0.1079    0.0743    2.0037 H   0  0  0  0  0  0  0  0  0  0  0  0
    0.3238   -1.9342    2.7553 C   0  0  0  0  0  0  0  0  0  0  0  0
    1.2756   -1.6385    3.2381 H   0  0  0  0  0  0  0  0  0  0  0  0
    0.5639   -2.3704    1.7669 H   0  0  0  0  0  0  0  0  0  0  0  0
   -0.1499   -2.7226    3.3719 H   0  0  0  0  0  0  0  0  0  0  0  0
   -0.2966   -4.1529   -1.1401 H   0  0  0  0  0  0  0  0  0  0  0  0
    4.4917    0.0822   -0.1188 H   0  0  0  0  0  0  0  0  0  0  0  0
   -0.2062    4.5298   -0.6671 H   0  0  0  0  0  0  0  0  0  0  0  0
   -4.7587   -1.0249    0.3239 H   0  0  0  0  0  0  0  0  0  0  0  0
   -2.0836   -0.4549   -1.4933 H   0  0  0  0  0  0  0  0  0  0  0  0
  1 12  2  0  0  0  0
  4 29  1  0  0  0  0
  5 31  1  0  0  0  0
  6 61  1  0  0  0  0
  7  2  1  0  0  0  0
  8 10  1  0  0  0  0
  9  8  1  0  0  0  0
 11  8  1  0  0  0  0
 12  8  1  0  0  0  0
 12 13  1  0  0  0  0
 13  3  1  0  0  0  0
 13 14  2  0  0  0  0
 14 15  1  0  0  0  0
 15  4  2  0  0  0  0
 15 16  1  0  0  0  0
 16 21  2  0  0  0  0
 17 16  1  0  0  0  0
 17 18  1  0  0  0  0
 17 20  1  0  0  0  0
 19 17  1  0  0  0  0
 21 22  1  0  0  0  0
 22 25  1  0  0  0  0
 23 22  1  0  0  0  0
 24 22  1  0  0  0  0
 25 26  1  0  0  0  0
 25 28  1  0  0  0  0
 25 27  1  0  0  0  0
 29 21  1  0  0  0  0
 29 30  1  0  0  0  0
 30 73  1  0  0  0  0
 31 30  2  0  0  0  0
 32 31  1  0  0  0  0
 32 33  1  0  0  0  0
 33 36  1  0  0  0  0
 34 33  1  0  0  0  0
 35 33  1  0  0  0  0
 36 37  1  0  0  0  0
 36 38  1  0  0  0  0
 36 39  1  0  0  0  0
 40 45  1  0  0  0  0
 40 32  2  0  0  0  0
 41 40  1  0  0  0  0
 41 43  1  0  0  0  0
 42 41  1  0  0  0  0
 44 41  1  0  0  0  0
 45  5  1  0  0  0  0
 46 45  2  0  0  0  0
 46 47  1  0  0  0  0
 47 48  1  0  0  0  0
 47  6  2  0  0  0  0
 48 53  2  0  0  0  0
 49 48  1  0  0  0  0
 49 52  1  0  0  0  0
 49 50  1  0  0  0  0
 51 49  1  0  0  0  0
 53 61  1  0  0  0  0
 53 54  1  0  0  0  0
 54 55  1  0  0  0  0
 54 56  1  0  0  0  0
 57 58  1  0  0  0  0
 57 54  1  0  0  0  0
 59 57  1  0  0  0  0
 60 57  1  0  0  0  0
 61 62  1  0  0  0  0
 62 64  2  0  0  0  0
 63 62  1  0  0  0  0
 63  7  2  0  0  0  0
 64  2  1  0  0  0  0
 64 65  1  0  0  0  0
 65 68  1  0  0  0  0
 65 66  1  0  0  0  0
 67 65  1  0  0  0  0
 68 69  1  0  0  0  0
 68 71  1  0  0  0  0
 70 68  1  0  0  0  0
 72 14  1  0  0  0  0
 74 46  1  0  0  0  0
 75 63  1  0  0  0  0
 76  3  1  0  0  0  0
M  END
