1,3,7,9
 OpenBabel05122313063D

 44 45  0  0  1  0  0  0  0  0999 V2000
    1.7348    0.2846   -0.8623 N   0  0  0  0  0  2  0  0  0  0  0  0
    3.1287   -1.8425    1.6245 O   0  0  0  0  0  0  0  0  0  0  0  0
    0.8535   -1.2024    1.0773 N   0  0  0  0  0  0  0  0  0  0  0  0
    2.0169    0.8471   -2.0571 C   0  0  0  0  0  3  0  0  0  0  0  0
    1.1672    1.3447   -2.5509 H   0  0  0  0  0  0  0  0  0  0  0  0
    2.7240   -0.3014   -0.1408 C   0  0  0  0  0  0  0  0  0  0  0  0
   -0.8537   -1.2023   -1.0772 N   0  0  0  0  0  0  0  0  0  0  0  0
   -3.1289   -1.8423   -1.6245 O   0  0  0  0  0  0  0  0  0  0  0  0
   -1.7348    0.2848    0.8623 N   0  0  0  0  0  2  0  0  0  0  0  0
    3.3117    0.8155   -2.5874 C   0  0  0  0  0  0  0  0  0  0  0  0
    3.5066    1.2857   -3.5615 H   0  0  0  0  0  0  0  0  0  0  0  0
    4.3353    0.1912   -1.8604 C   0  0  0  0  0  0  0  0  0  0  0  0
    5.3607    0.1528   -2.2568 H   0  0  0  0  0  0  0  0  0  0  0  0
    4.0360   -0.3760   -0.6121 C   0  0  0  0  0  0  0  0  0  0  0  0
    4.7940   -0.8738    0.0074 H   0  0  0  0  0  0  0  0  0  0  0  0
    2.2907   -0.8104    1.2181 C   0  0  2  0  0  0  0  0  0  0  0  0
    3.1540   -2.0750    3.0311 C   0  0  0  0  0  0  0  0  0  0  0  0
    3.9148   -2.8548    3.2149 H   0  0  0  0  0  0  0  0  0  0  0  0
    2.1741   -2.4432    3.4119 H   0  0  0  0  0  0  0  0  0  0  0  0
    3.4322   -1.1529    3.5878 H   0  0  0  0  0  0  0  0  0  0  0  0
    0.6809   -2.4762    0.3340 C   0  0  0  0  0  0  0  0  0  0  0  0
    1.4903   -2.5325   -0.4220 H   0  0  0  0  0  0  0  0  0  0  0  0
    0.8082   -3.3594    0.9923 H   0  0  0  0  0  0  0  0  0  0  0  0
   -0.6812   -2.4762   -0.3339 C   0  0  0  0  0  0  0  0  0  0  0  0
   -1.4905   -2.5324    0.4220 H   0  0  0  0  0  0  0  0  0  0  0  0
   -0.8085   -3.3593   -0.9922 H   0  0  0  0  0  0  0  0  0  0  0  0
   -2.2908   -0.8103   -1.2181 C   0  0  1  0  0  0  0  0  0  0  0  0
   -3.1542   -2.0748   -3.0311 C   0  0  0  0  0  0  0  0  0  0  0  0
   -3.9151   -2.8546   -3.2149 H   0  0  0  0  0  0  0  0  0  0  0  0
   -2.1743   -2.4432   -3.4118 H   0  0  0  0  0  0  0  0  0  0  0  0
   -3.4323   -1.1527   -3.5878 H   0  0  0  0  0  0  0  0  0  0  0  0
   -2.7241   -0.3013    0.1408 C   0  0  2  0  0  3  0  0  0  0  0  0
   -4.0362   -0.3758    0.6121 C   0  0  0  0  0  0  0  0  0  0  0  0
   -4.7941   -0.8735   -0.0074 H   0  0  0  0  0  0  0  0  0  0  0  0
   -4.3354    0.1915    1.8604 C   0  0  0  0  0  0  0  0  0  0  0  0
   -5.3607    0.1532    2.2568 H   0  0  0  0  0  0  0  0  0  0  0  0
   -3.3117    0.8158    2.5874 C   0  0  0  0  0  0  0  0  0  0  0  0
   -3.5066    1.2860    3.5614 H   0  0  0  0  0  0  0  0  0  0  0  0
   -2.0169    0.8473    2.0570 C   0  0  0  0  0  0  0  0  0  0  0  0
   -1.1672    1.3449    2.5509 H   0  0  0  0  0  0  0  0  0  0  0  0
    2.2858    0.0447    1.9344 H   0  0  0  0  0  0  0  0  0  0  0  0
   -0.4106   -1.2515   -2.0056 H   0  0  0  0  0  0  0  0  0  0  0  0
    0.4104   -1.2514    2.0056 H   0  0  0  0  0  0  0  0  0  0  0  0
   -2.2859    0.0448   -1.9344 H   0  0  0  0  0  0  0  0  0  0  0  0
  1  6  1  0  0  0  0
  2 17  1  0  0  0  0
  3 16  1  0  0  0  0
  3 43  1  0  0  0  0
  4  1  1  0  0  0  0
  5  4  1  0  0  0  0
  6 16  1  0  0  0  0
  7 24  1  0  0  0  0
  8 27  1  0  0  0  0
  9 39  1  0  0  0  0
 10  4  1  0  0  0  0
 10 12  2  0  0  0  0
 11 10  1  0  0  0  0
 12 14  1  0  0  0  0
 13 12  1  0  0  0  0
 14  6  2  0  0  0  0
 14 15  1  0  0  0  0
 16  2  1  0  0  0  0
 16 41  1  1  0  0  0
 17 18  1  0  0  0  0
 17 19  1  0  0  0  0
 17 20  1  0  0  0  0
 21 23  1  0  0  0  0
 21  3  1  0  0  0  0
 22 21  1  0  0  0  0
 24 21  1  0  0  0  0
 24 25  1  0  0  0  0
 26 24  1  0  0  0  0
 27 44  1  6  0  0  0
 27  7  1  0  0  0  0
 28  8  1  0  0  0  0
 29 28  1  0  0  0  0
 30 28  1  0  0  0  0
 31 28  1  0  0  0  0
 32 27  1  6  0  0  0
 32 33  1  0  0  0  0
 32  9  1  0  0  0  0
 33 35  2  0  0  0  0
 34 33  1  0  0  0  0
 35 36  1  0  0  0  0
 35 37  1  0  0  0  0
 37 38  1  0  0  0  0
 39 40  1  0  0  0  0
 39 37  2  0  0  0  0
 42  7  1  0  0  0  0
M  END
