2,3,4,5
 OpenBabel05122313063D

 70 76  0  0  0  0  0  0  0  0999 V2000
   -0.0814    6.6881   -0.4991 Si  0  0  0  0  0  0  0  0  0  0  0  0
   -1.3589   -2.5365   -0.6234 N   0  0  0  0  0  0  0  0  0  0  0  0
    1.4146   -2.5089   -0.6243 N   0  0  0  0  0  2  0  0  0  0  0  0
    1.3741    0.1501   -0.0051 N   0  0  0  0  0  0  0  0  0  0  0  0
   -1.3711    0.1230   -0.0056 N   0  0  0  0  0  0  0  0  0  0  0  0
   -2.6972   -2.4867   -0.2662 C   0  0  0  0  0  0  0  0  0  0  0  0
   -3.3557   -3.7322   -0.5990 C   0  0  0  0  0  0  0  0  0  0  0  0
   -2.4231   -4.5146   -1.2303 C   0  0  0  0  0  0  0  0  0  0  0  0
   -1.1818   -3.7791   -1.2063 C   0  0  0  0  0  0  0  0  0  0  0  0
    0.0455   -4.3288   -1.5620 C   0  0  0  0  0  0  0  0  0  0  0  0
    1.2620   -3.7544   -1.2078 C   0  0  0  0  0  0  0  0  0  0  0  0
    2.5178   -4.4647   -1.2337 C   0  0  0  0  0  0  0  0  0  0  0  0
    3.4351   -3.6641   -0.6026 C   0  0  0  0  0  0  0  0  0  0  0  0
    2.7519   -2.4325   -0.2681 C   0  0  0  0  0  0  0  0  0  0  0  0
    3.3863   -1.2863    0.2356 C   0  0  0  0  0  0  0  0  0  0  0  0
    2.7184   -0.0534    0.2749 C   0  0  0  0  0  0  0  0  0  0  0  0
    3.3981    1.2143    0.4291 C   0  0  0  0  0  0  0  0  0  0  0  0
    2.4683    2.1931    0.1898 C   0  0  0  0  0  0  0  0  0  0  0  0
    1.2148    1.5211   -0.0458 C   0  0  0  0  0  0  0  0  0  0  0  0
   -0.0187    2.1952   -0.1581 C   0  0  0  0  0  0  0  0  0  0  0  0
   -1.2390    1.4969   -0.0473 C   0  0  0  0  0  0  0  0  0  0  0  0
   -2.5058    2.1442    0.1864 C   0  0  0  0  0  0  0  0  0  0  0  0
   -3.4161    1.1473    0.4261 C   0  0  0  0  0  0  0  0  0  0  0  0
   -2.7113   -0.1068    0.2738 C   0  0  0  0  0  3  0  0  0  0  0  0
   -3.3544   -1.3528    0.2362 C   0  0  0  0  0  0  0  0  0  0  0  0
    1.2385    7.4018    0.6513 C   0  0  0  0  0  0  0  0  0  0  0  0
    0.2832    7.1625   -2.2924 C   0  0  0  0  0  0  0  0  0  0  0  0
   -1.8008    7.2891    0.0074 C   0  0  0  0  0  0  0  0  0  0  0  0
    4.8245   -1.3326    0.6270 C   0  0  0  0  0  0  0  0  0  0  0  0
    5.8383   -1.5780   -0.3243 C   0  0  0  0  0  0  0  0  0  0  0  0
    7.1871   -1.6018    0.0596 C   0  0  0  0  0  0  0  0  0  0  0  0
    7.5446   -1.3786    1.3988 C   0  0  0  0  0  0  0  0  0  0  0  0
    6.5452   -1.1260    2.3518 C   0  0  0  0  0  0  0  0  0  0  0  0
    5.1962   -1.1008    1.9690 C   0  0  0  0  0  0  0  0  0  0  0  0
   -0.0334    3.6137   -0.2563 C   0  0  0  0  0  0  0  0  0  0  0  0
   -0.0486    4.8468   -0.3546 C   0  0  0  0  0  0  0  0  0  0  0  0
   -4.7913   -1.4274    0.6281 C   0  0  0  0  0  0  0  0  0  0  0  0
   -5.1671   -1.2009    1.9698 C   0  0  0  0  0  0  0  0  0  0  0  0
   -6.5153   -1.2529    2.3531 C   0  0  0  0  0  0  0  0  0  0  0  0
   -7.5096   -1.5274    1.4010 C   0  0  0  0  0  0  0  0  0  0  0  0
   -7.1481   -1.7456    0.0619 C   0  0  0  0  0  0  0  0  0  0  0  0
   -5.8001   -1.6950   -0.3224 C   0  0  0  0  0  0  0  0  0  0  0  0
   -4.4050   -3.9597   -0.3865 H   0  0  0  0  0  0  0  0  0  0  0  0
   -2.5391   -5.5260   -1.6374 H   0  0  0  0  0  0  0  0  0  0  0  0
    0.0554   -5.3288   -2.0165 H   0  0  0  0  0  0  0  0  0  0  0  0
    2.6538   -5.4732   -1.6416 H   0  0  0  0  0  0  0  0  0  0  0  0
    4.4889   -3.8705   -0.3912 H   0  0  0  0  0  0  0  0  0  0  0  0
    4.4645    1.3241    0.6511 H   0  0  0  0  0  0  0  0  0  0  0  0
    2.5901    3.2815    0.1970 H   0  0  0  0  0  0  0  0  0  0  0  0
   -2.6495    3.2299    0.1922 H   0  0  0  0  0  0  0  0  0  0  0  0
   -4.4847    1.2361    0.6471 H   0  0  0  0  0  0  0  0  0  0  0  0
    5.5590   -1.7335   -1.3772 H   0  0  0  0  0  0  0  0  0  0  0  0
    7.9658   -1.7882   -0.6958 H   0  0  0  0  0  0  0  0  0  0  0  0
    8.6033   -1.3974    1.6991 H   0  0  0  0  0  0  0  0  0  0  0  0
    6.8171   -0.9493    3.4037 H   0  0  0  0  0  0  0  0  0  0  0  0
    4.4105   -0.9053    2.7143 H   0  0  0  0  0  0  0  0  0  0  0  0
   -4.3853   -0.9882    2.7145 H   0  0  0  0  0  0  0  0  0  0  0  0
   -6.7904   -1.0799    3.4047 H   0  0  0  0  0  0  0  0  0  0  0  0
   -8.5676   -1.5672    1.7016 H   0  0  0  0  0  0  0  0  0  0  0  0
   -7.9230   -1.9490   -0.6928 H   0  0  0  0  0  0  0  0  0  0  0  0
   -5.5181   -1.8466   -1.3751 H   0  0  0  0  0  0  0  0  0  0  0  0
    2.2469    7.0335    0.3736 H   0  0  0  0  0  0  0  0  0  0  0  0
    1.2489    8.5099    0.5926 H   0  0  0  0  0  0  0  0  0  0  0  0
    1.0460    7.1128    1.7041 H   0  0  0  0  0  0  0  0  0  0  0  0
    0.2705    8.2656   -2.4136 H   0  0  0  0  0  0  0  0  0  0  0  0
    1.2801    6.7919   -2.6054 H   0  0  0  0  0  0  0  0  0  0  0  0
   -0.4729    6.7301   -2.9781 H   0  0  0  0  0  0  0  0  0  0  0  0
   -2.5809    6.8557   -0.6508 H   0  0  0  0  0  0  0  0  0  0  0  0
   -1.8654    8.3946   -0.0643 H   0  0  0  0  0  0  0  0  0  0  0  0
   -2.0313    6.9970    1.0518 H   0  0  0  0  0  0  0  0  0  0  0  0
  1 36  1  0  0  0  0
  1 28  1  0  0  0  0
  1 26  1  0  0  0  0
  2  6  1  0  0  0  0
  3 14  1  0  0  0  0
  4 16  2  0  0  0  0
  5 24  1  0  0  0  0
  6 25  2  0  0  0  0
  7 43  1  0  0  0  0
  7  6  1  0  0  0  0
  8  9  1  0  0  0  0
  8  7  2  0  0  0  0
  9  2  2  0  0  0  0
 10 11  2  0  0  0  0
 10  9  1  0  0  0  0
 11  3  1  0  0  0  0
 12 11  1  0  0  0  0
 12 13  2  0  0  0  0
 13 47  1  0  0  0  0
 13 14  1  0  0  0  0
 14 15  2  0  0  0  0
 15 16  1  0  0  0  0
 15 29  1  0  0  0  0
 16 17  1  0  0  0  0
 17 48  1  0  0  0  0
 18 49  1  0  0  0  0
 18 17  2  0  0  0  0
 19  4  1  0  0  0  0
 19 18  1  0  0  0  0
 20 21  1  0  0  0  0
 20 19  2  0  0  0  0
 21  5  2  0  0  0  0
 21 22  1  0  0  0  0
 22 50  1  0  0  0  0
 22 23  2  0  0  0  0
 23 51  1  0  0  0  0
 24 23  1  0  0  0  0
 25 24  1  0  0  0  0
 25 37  1  0  0  0  0
 26 64  1  0  0  0  0
 27  1  1  0  0  0  0
 28 70  1  0  0  0  0
 29 34  1  0  0  0  0
 30 31  1  0  0  0  0
 30 29  2  0  0  0  0
 31 32  2  0  0  0  0
 32 54  1  0  0  0  0
 32 33  1  0  0  0  0
 33 55  1  0  0  0  0
 34 33  2  0  0  0  0
 34 56  1  0  0  0  0
 35 20  1  0  0  0  0
 36 35  3  0  0  0  0
 37 38  1  0  0  0  0
 38 39  2  0  0  0  0
 38 57  1  0  0  0  0
 39 58  1  0  0  0  0
 40 59  1  0  0  0  0
 40 39  1  0  0  0  0
 41 40  2  0  0  0  0
 42 41  1  0  0  0  0
 42 37  2  0  0  0  0
 44  8  1  0  0  0  0
 45 10  1  0  0  0  0
 46 12  1  0  0  0  0
 52 30  1  0  0  0  0
 53 31  1  0  0  0  0
 60 41  1  0  0  0  0
 61 42  1  0  0  0  0
 62 26  1  0  0  0  0
 63 26  1  0  0  0  0
 65 27  1  0  0  0  0
 66 27  1  0  0  0  0
 67 27  1  0  0  0  0
 68 28  1  0  0  0  0
 69 28  1  0  0  0  0
M  END
