3,4,5,6
 OpenBabel05122313063D

 47 49  0  0  1  0  0  0  0  0999 V2000
   -4.8910    0.6715   -0.8788 O   0  0  0  0  0  0  0  0  0  0  0  0
    0.4741   -3.7226    0.5769 O   0  0  0  0  0  0  0  0  0  0  0  0
    0.1808    2.0156    0.1392 N   0  0  0  0  0  2  0  0  0  0  0  0
   -2.6787    1.1276   -0.3059 N   0  0  0  0  0  2  0  0  0  0  0  0
   -2.1465   -1.3887    0.0649 N   0  0  0  0  0  2  0  0  0  0  0  0
    0.4105   -1.3927    0.5997 N   0  0  0  0  0  2  0  0  0  0  0  0
    4.3441    0.1675   -0.2155 N   0  0  0  0  0  0  0  0  0  0  0  0
    1.4987    1.9504   -0.1553 C   0  0  0  0  0  3  0  0  0  0  0  0
    1.9631    0.9606   -0.2183 H   0  0  0  0  0  0  0  0  0  0  0  0
    2.2826    3.0837   -0.3762 C   0  0  0  0  0  0  0  0  0  0  0  0
    3.3477    2.9410   -0.6035 H   0  0  0  0  0  0  0  0  0  0  0  0
    1.6757    4.3419   -0.3013 C   0  0  0  0  0  0  0  0  0  0  0  0
    2.2529    5.2632   -0.4722 H   0  0  0  0  0  0  0  0  0  0  0  0
    0.3085    4.4057   -0.0101 C   0  0  0  0  0  0  0  0  0  0  0  0
   -0.2094    5.3736    0.0472 H   0  0  0  0  0  0  0  0  0  0  0  0
   -0.4352    3.2308    0.2094 C   0  0  0  0  0  0  0  0  0  0  0  0
   -1.9166    3.3168    0.4872 C   0  0  0  0  0  0  0  0  0  0  0  0
   -2.2007    4.3868    0.4768 H   0  0  0  0  0  0  0  0  0  0  0  0
   -2.1311    2.9419    1.5116 H   0  0  0  0  0  0  0  0  0  0  0  0
   -2.8015    2.5486   -0.5108 C   0  0  0  0  0  0  0  0  0  0  0  0
   -3.8647    2.8437   -0.3816 H   0  0  0  0  0  0  0  0  0  0  0  0
   -2.5145    2.8251   -1.5529 H   0  0  0  0  0  0  0  0  0  0  0  0
   -3.7594    0.3181   -0.5265 C   0  0  0  0  0  0  0  0  0  0  0  0
   -3.4152   -1.1433   -0.3157 C   0  0  1  0  0  3  0  0  0  0  0  0
   -4.2762   -2.2243   -0.5380 C   0  0  0  0  0  0  0  0  0  0  0  0
   -5.3088   -2.0120   -0.8489 H   0  0  0  0  0  0  0  0  0  0  0  0
   -3.7710   -3.5275   -0.3746 C   0  0  0  0  0  0  0  0  0  0  0  0
   -4.4296   -4.3926   -0.5466 H   0  0  0  0  0  0  0  0  0  0  0  0
   -2.4267   -3.7348   -0.0187 C   0  0  0  0  0  0  0  0  0  0  0  0
   -1.9744   -4.7312    0.0844 H   0  0  0  0  0  0  0  0  0  0  0  0
   -1.6128   -2.6141    0.1929 C   0  0  0  0  0  0  0  0  0  0  0  0
   -0.1303   -2.6422    0.4887 C   0  0  0  0  0  0  0  0  0  0  0  0
    1.8437   -1.3458    0.7967 C   0  0  0  0  0  0  0  0  0  0  0  0
    2.1496   -2.1537    1.4969 H   0  0  0  0  0  0  0  0  0  0  0  0
    2.1181   -0.3783    1.2649 H   0  0  0  0  0  0  0  0  0  0  0  0
    2.6259   -1.5207   -0.5304 C   0  0  0  0  0  0  0  0  0  0  0  0
    2.5113   -2.5697   -0.8636 H   0  0  0  0  0  0  0  0  0  0  0  0
    2.1519   -0.8759   -1.2996 H   0  0  0  0  0  0  0  0  0  0  0  0
    4.0751   -1.1489   -0.3800 C   0  0  0  0  0  0  0  0  0  0  0  0
    5.0985   -2.1194   -0.3661 C   0  0  0  0  0  0  0  0  0  0  0  0
    4.8421   -3.1814   -0.4960 H   0  0  0  0  0  0  0  0  0  0  0  0
    6.4276   -1.7137   -0.1905 C   0  0  0  0  0  0  0  0  0  0  0  0
    7.2414   -2.4553   -0.1814 H   0  0  0  0  0  0  0  0  0  0  0  0
    6.7012   -0.3484   -0.0257 C   0  0  0  0  0  0  0  0  0  0  0  0
    7.7281    0.0198    0.1154 H   0  0  0  0  0  0  0  0  0  0  0  0
    5.6192    0.5455   -0.0443 C   0  0  0  0  0  0  0  0  0  0  0  0
    5.7960    1.6290    0.0866 H   0  0  0  0  0  0  0  0  0  0  0  0
  1 23  2  0  0  0  0
  3 16  1  0  0  0  0
  5 31  1  0  0  0  0
  6 33  1  0  0  0  0
  7 46  1  0  0  0  0
  8  3  1  0  0  0  0
  9  8  1  0  0  0  0
 10 12  2  0  0  0  0
 10  8  1  0  0  0  0
 11 10  1  0  0  0  0
 12 14  1  0  0  0  0
 13 12  1  0  0  0  0
 14 15  1  0  0  0  0
 14 16  2  0  0  0  0
 16 17  1  0  0  0  0
 17 19  1  0  0  0  0
 18 17  1  0  0  0  0
 20 21  1  0  0  0  0
 20  4  1  0  0  0  0
 20 17  1  0  0  0  0
 22 20  1  0  0  0  0
 23  4  1  0  0  0  0
 24 23  1  6  0  0  0
 24  5  1  0  0  0  0
 25 27  2  0  0  0  0
 25 24  1  0  0  0  0
 26 25  1  0  0  0  0
 27 29  1  0  0  0  0
 28 27  1  0  0  0  0
 29 30  1  0  0  0  0
 29 31  2  0  0  0  0
 31 32  1  0  0  0  0
 32  2  2  0  0  0  0
 32  6  1  0  0  0  0
 33 35  1  0  0  0  0
 33 34  1  0  0  0  0
 36 39  1  0  0  0  0
 36 33  1  0  0  0  0
 37 36  1  0  0  0  0
 38 36  1  0  0  0  0
 39 40  1  0  0  0  0
 39  7  2  0  0  0  0
 40 42  2  0  0  0  0
 41 40  1  0  0  0  0
 42 43  1  0  0  0  0
 42 44  1  0  0  0  0
 44 45  1  0  0  0  0
 46 44  2  0  0  0  0
 46 47  1  0  0  0  0
M  END
