4,5,7,9
 OpenBabel05122313063D

 48 49  0  0  0  0  0  0  0  0999 V2000
   -5.2401    2.3158    0.0383 O   0  0  0  0  0  0  0  0  0  0  0  0
   -5.9901    2.9383   -0.0823 H   0  0  0  0  0  0  0  0  0  0  0  0
   -6.9266    0.8757   -0.4267 O   0  0  0  0  0  0  0  0  0  0  0  0
   -0.0960   -0.3513   -0.3249 N   0  0  0  0  0  0  0  0  0  0  0  0
    1.7637    1.5215   -1.0440 N   0  0  0  0  0  0  0  0  0  0  0  0
    1.9957    1.1793   -1.9907 H   0  0  0  0  0  0  0  0  0  0  0  0
    3.7636    0.4389    0.3561 N   0  0  0  0  0  0  0  0  0  0  0  0
    3.9514    0.5308    1.3666 H   0  0  0  0  0  0  0  0  0  0  0  0
    2.3464   -1.4069   -1.0057 N   0  0  0  0  0  0  0  0  0  0  0  0
    2.3521   -2.1437   -0.2624 H   0  0  0  0  0  0  0  0  0  0  0  0
   -0.5014    0.7556   -1.2666 C   0  0  0  0  0  0  0  0  0  0  0  0
   -0.3790    0.3946   -2.3077 H   0  0  0  0  0  0  0  0  0  0  0  0
   -1.5796    0.9797   -1.1478 H   0  0  0  0  0  0  0  0  0  0  0  0
    0.3559    1.9870   -1.0449 C   0  0  0  0  0  0  0  0  0  0  0  0
    0.1756    2.7528   -1.8300 H   0  0  0  0  0  0  0  0  0  0  0  0
    0.1690    2.4350   -0.0495 H   0  0  0  0  0  0  0  0  0  0  0  0
    2.7931    2.5058   -0.6262 C   0  0  0  0  0  0  0  0  0  0  0  0
    2.4230    2.9733    0.3051 H   0  0  0  0  0  0  0  0  0  0  0  0
    2.9473    3.2886   -1.3992 H   0  0  0  0  0  0  0  0  0  0  0  0
    4.0739    1.7254   -0.3568 C   0  0  0  0  0  0  0  0  0  0  0  0
    4.5790    1.4700   -1.3107 H   0  0  0  0  0  0  0  0  0  0  0  0
    4.7919    2.3306    0.2313 H   0  0  0  0  0  0  0  0  0  0  0  0
    4.4942   -0.7285   -0.2155 C   0  0  0  0  0  0  0  0  0  0  0  0
    4.4828   -1.5261    0.5533 H   0  0  0  0  0  0  0  0  0  0  0  0
    5.5505   -0.4772   -0.4470 H   0  0  0  0  0  0  0  0  0  0  0  0
    3.7322   -1.2003   -1.4568 C   0  0  0  0  0  0  0  0  0  0  0  0
    3.7489   -0.4401   -2.2676 H   0  0  0  0  0  0  0  0  0  0  0  0
    4.1795   -2.1277   -1.8747 H   0  0  0  0  0  0  0  0  0  0  0  0
    1.2402   -1.6887   -1.9296 C   0  0  0  0  0  0  0  0  0  0  0  0
    1.3477   -2.6795   -2.4223 H   0  0  0  0  0  0  0  0  0  0  0  0
    1.2267   -0.9286   -2.7396 H   0  0  0  0  0  0  0  0  0  0  0  0
   -0.0217   -1.6495   -1.0694 C   0  0  0  0  0  0  0  0  0  0  0  0
    0.0379   -2.4527   -0.3083 H   0  0  0  0  0  0  0  0  0  0  0  0
   -0.9399   -1.8178   -1.6697 H   0  0  0  0  0  0  0  0  0  0  0  0
   -1.0277   -0.4449    0.8675 C   0  0  0  0  0  0  0  0  0  0  0  0
   -0.9390    0.5227    1.3951 H   0  0  0  0  0  0  0  0  0  0  0  0
   -0.5788   -1.2076    1.5320 H   0  0  0  0  0  0  0  0  0  0  0  0
   -2.4634   -0.7624    0.5283 C   0  0  0  0  0  0  0  0  0  0  0  0
   -3.4020    0.2762    0.3698 C   0  0  0  0  0  0  0  0  0  0  0  0
   -3.1082    1.3236    0.5370 H   0  0  0  0  0  0  0  0  0  0  0  0
   -4.7391   -0.0057    0.0326 C   0  0  0  0  0  0  0  0  0  0  0  0
   -5.7604    1.0750   -0.1451 C   0  0  0  0  0  0  0  0  0  0  0  0
   -5.1532   -1.3405   -0.1342 C   0  0  0  0  0  0  0  0  0  0  0  0
   -6.2054   -1.5329   -0.3903 H   0  0  0  0  0  0  0  0  0  0  0  0
   -4.2356   -2.3830    0.0484 C   0  0  0  0  0  0  0  0  0  0  0  0
   -4.5631   -3.4281   -0.0536 H   0  0  0  0  0  0  0  0  0  0  0  0
   -2.9025   -2.0965    0.3792 C   0  0  0  0  0  0  0  0  0  0  0  0
   -2.1981   -2.9252    0.5519 H   0  0  0  0  0  0  0  0  0  0  0  0
  2  1  1  0  0  0  0
  3 42  2  0  0  0  0
  4 35  1  0  0  0  0
  5 17  1  0  0  0  0
  6  5  1  0  0  0  0
  7  8  1  0  0  0  0
  9 10  1  0  0  0  0
 11 13  1  0  0  0  0
 11 14  1  0  0  0  0
 11  4  1  0  0  0  0
 12 11  1  0  0  0  0
 14  5  1  0  0  0  0
 14 16  1  0  0  0  0
 15 14  1  0  0  0  0
 17 20  1  0  0  0  0
 17 18  1  0  0  0  0
 19 17  1  0  0  0  0
 20 22  1  0  0  0  0
 20  7  1  0  0  0  0
 21 20  1  0  0  0  0
 23  7  1  0  0  0  0
 23 24  1  0  0  0  0
 25 23  1  0  0  0  0
 26  9  1  0  0  0  0
 26 23  1  0  0  0  0
 27 26  1  0  0  0  0
 28 26  1  0  0  0  0
 29 32  1  0  0  0  0
 29  9  1  0  0  0  0
 30 29  1  0  0  0  0
 31 29  1  0  0  0  0
 32  4  1  0  0  0  0
 32 33  1  0  0  0  0
 34 32  1  0  0  0  0
 35 36  1  0  0  0  0
 35 37  1  0  0  0  0
 38 35  1  0  0  0  0
 39 38  2  0  0  0  0
 39 40  1  0  0  0  0
 41 39  1  0  0  0  0
 42 41  1  0  0  0  0
 42  1  1  0  0  0  0
 43 41  2  0  0  0  0
 43 45  1  0  0  0  0
 44 43  1  0  0  0  0
 45 47  2  0  0  0  0
 46 45  1  0  0  0  0
 47 38  1  0  0  0  0
 47 48  1  0  0  0  0
M  END
