1,2,3,4
 OpenBabel05122313063D

 83 88  0  0  0  0  0  0  0  0999 V2000
   -2.0059    1.5073   -0.1304 N   0  0  0  0  0  2  0  0  0  0  0  0
   -2.3787   -1.2710    0.2749 N   0  0  0  0  0  0  0  0  0  0  0  0
    0.4893   -1.6159    0.3167 N   0  0  0  0  0  0  0  0  0  0  0  0
    0.6820    1.1814    0.6546 N   0  0  0  0  0  0  0  0  0  0  0  0
   -1.5949    2.7961   -0.3726 C   0  0  0  0  0  0  0  0  0  0  0  0
   -2.7605    3.6641   -0.5659 C   0  0  0  0  0  0  0  0  0  0  0  0
   -2.6925    5.1261   -0.8710 C   0  0  0  0  0  0  0  0  0  0  0  0
   -3.8715    2.8838   -0.3038 C   0  0  0  0  0  0  0  0  0  0  0  0
   -5.3202    3.2671   -0.3793 C   0  0  0  0  0  0  0  0  0  0  0  0
   -5.9857    2.8788   -1.7113 C   0  0  0  0  0  0  0  0  0  0  0  0
   -3.3754    1.5294   -0.0443 C   0  0  0  0  0  0  0  0  0  0  0  0
   -4.1698    0.4104    0.2306 C   0  0  0  0  0  0  0  0  0  0  0  0
   -3.6933   -0.8979    0.4095 C   0  0  0  0  0  0  0  0  0  0  0  0
   -4.5326   -2.0788    0.5970 C   0  0  0  0  0  0  0  0  0  0  0  0
   -6.0294   -2.0673    0.7106 C   0  0  0  0  0  0  0  0  0  0  0  0
   -6.7460   -2.0184   -0.6502 C   0  0  0  0  0  0  0  0  0  0  0  0
   -3.6905   -3.1744    0.4920 C   0  0  0  0  0  0  0  0  0  0  0  0
   -4.0311   -4.6275    0.5877 C   0  0  0  0  0  0  0  0  0  0  0  0
   -2.3437   -2.6450    0.3054 C   0  0  0  0  0  0  0  0  0  0  0  0
   -1.1862   -3.4068    0.1031 C   0  0  0  0  0  0  0  0  0  0  0  0
    0.1011   -2.8694   -0.0659 C   0  0  0  0  0  0  0  0  0  0  0  0
    1.2105   -3.5814   -0.7015 C   0  0  0  0  0  0  0  0  0  0  0  0
    1.1179   -4.9848   -1.2086 C   0  0  0  0  0  0  0  0  0  0  0  0
    2.2814   -2.7144   -0.7466 C   0  0  0  0  0  0  0  0  0  0  0  0
    3.6028   -2.9812   -1.3971 C   0  0  0  0  0  0  0  0  0  0  0  0
    1.8419   -1.4803   -0.0584 C   0  0  0  0  0  3  0  0  0  0  0  0
    2.6047   -0.3857    0.2859 C   0  0  0  0  0  0  0  0  0  0  0  0
    4.0433   -0.2966   -0.0755 C   0  0  0  0  0  0  0  0  0  0  0  0
    5.0344   -0.9247    0.7052 C   0  0  0  0  0  0  0  0  0  0  0  0
    6.3938   -0.7889    0.3888 C   0  0  0  0  0  0  0  0  0  0  0  0
    6.8129   -0.0243   -0.7179 C   0  0  0  0  0  0  0  0  0  0  0  0
    5.8174    0.6050   -1.4964 C   0  0  0  0  0  0  0  0  0  0  0  0
    4.4590    0.4750   -1.1826 C   0  0  0  0  0  0  0  0  0  0  0  0
    2.0132    0.7406    1.1523 C   0  0  0  0  0  0  0  0  0  0  0  0
    1.8293    0.2232    2.6006 C   0  0  0  0  0  0  0  0  0  0  0  0
    2.8662    2.0124    1.1110 C   0  0  0  0  0  0  0  0  0  0  0  0
    4.2281    2.1546    1.7152 C   0  0  0  0  0  0  0  0  0  0  0  0
    2.1310    2.9954    0.5192 C   0  0  0  0  0  0  0  0  0  0  0  0
    2.5221    4.4143    0.2529 C   0  0  0  0  0  0  0  0  0  0  0  0
    0.7869    2.4549    0.2447 C   0  0  0  0  0  0  0  0  0  0  0  0
   -0.2756    3.2388   -0.2688 C   0  0  0  0  0  0  0  0  0  0  0  0
    8.2717    0.0991   -1.0790 C   0  0  0  0  0  0  0  0  0  0  0  0
   -2.1813    5.3199   -1.8380 H   0  0  0  0  0  0  0  0  0  0  0  0
   -2.1246    5.6821   -0.0944 H   0  0  0  0  0  0  0  0  0  0  0  0
   -3.7021    5.5767   -0.9313 H   0  0  0  0  0  0  0  0  0  0  0  0
   -5.4179    4.3624   -0.2254 H   0  0  0  0  0  0  0  0  0  0  0  0
   -5.8745    2.7956    0.4610 H   0  0  0  0  0  0  0  0  0  0  0  0
   -7.0547    3.1741   -1.7291 H   0  0  0  0  0  0  0  0  0  0  0  0
   -5.9289    1.7847   -1.8824 H   0  0  0  0  0  0  0  0  0  0  0  0
   -5.4774    3.3714   -2.5646 H   0  0  0  0  0  0  0  0  0  0  0  0
   -5.2533    0.5693    0.3198 H   0  0  0  0  0  0  0  0  0  0  0  0
   -6.3514   -1.2032    1.3305 H   0  0  0  0  0  0  0  0  0  0  0  0
   -6.3590   -2.9717    1.2648 H   0  0  0  0  0  0  0  0  0  0  0  0
   -6.4567   -1.1130   -1.2216 H   0  0  0  0  0  0  0  0  0  0  0  0
   -7.8485   -2.0088   -0.5272 H   0  0  0  0  0  0  0  0  0  0  0  0
   -6.4760   -2.8970   -1.2702 H   0  0  0  0  0  0  0  0  0  0  0  0
   -3.4523   -5.1340    1.3887 H   0  0  0  0  0  0  0  0  0  0  0  0
   -3.8025   -5.1650   -0.3579 H   0  0  0  0  0  0  0  0  0  0  0  0
   -5.1063   -4.7807    0.8030 H   0  0  0  0  0  0  0  0  0  0  0  0
   -1.3122   -4.4879   -0.0490 H   0  0  0  0  0  0  0  0  0  0  0  0
    0.3209   -5.0899   -1.9748 H   0  0  0  0  0  0  0  0  0  0  0  0
    0.8665   -5.6936   -0.3907 H   0  0  0  0  0  0  0  0  0  0  0  0
    2.0694   -5.3255   -1.6593 H   0  0  0  0  0  0  0  0  0  0  0  0
    4.4245   -3.0914   -0.6607 H   0  0  0  0  0  0  0  0  0  0  0  0
    3.9069   -2.1530   -2.0670 H   0  0  0  0  0  0  0  0  0  0  0  0
    3.5609   -3.9105   -1.9979 H   0  0  0  0  0  0  0  0  0  0  0  0
    4.7281   -1.5245    1.5761 H   0  0  0  0  0  0  0  0  0  0  0  0
    7.1495   -1.2859    1.0181 H   0  0  0  0  0  0  0  0  0  0  0  0
    6.1163    1.2109   -2.3670 H   0  0  0  0  0  0  0  0  0  0  0  0
    3.6980    0.9814   -1.7950 H   0  0  0  0  0  0  0  0  0  0  0  0
    2.7992   -0.1025    3.0267 H   0  0  0  0  0  0  0  0  0  0  0  0
    1.1364   -0.6384    2.5920 H   0  0  0  0  0  0  0  0  0  0  0  0
    1.4086    1.0287    3.2349 H   0  0  0  0  0  0  0  0  0  0  0  0
    4.3705    1.4569    2.5632 H   0  0  0  0  0  0  0  0  0  0  0  0
    4.3832    3.1853    2.0932 H   0  0  0  0  0  0  0  0  0  0  0  0
    5.0417    1.9409    0.9915 H   0  0  0  0  0  0  0  0  0  0  0  0
    1.8247    5.1277    0.7407 H   0  0  0  0  0  0  0  0  0  0  0  0
    2.4971    4.6398   -0.8345 H   0  0  0  0  0  0  0  0  0  0  0  0
    3.5445    4.6328    0.6151 H   0  0  0  0  0  0  0  0  0  0  0  0
   -0.0630    4.2871   -0.5155 H   0  0  0  0  0  0  0  0  0  0  0  0
    8.5219    1.1226   -1.4236 H   0  0  0  0  0  0  0  0  0  0  0  0
    8.5377   -0.5932   -1.9067 H   0  0  0  0  0  0  0  0  0  0  0  0
    8.9279   -0.1465   -0.2214 H   0  0  0  0  0  0  0  0  0  0  0  0
  1 11  1  0  0  0  0
  2 19  1  0  0  0  0
  2 13  2  0  0  0  0
  4 34  1  0  0  0  0
  5 41  2  0  0  0  0
  5  1  1  0  0  0  0
  6  5  1  0  0  0  0
  6  8  2  0  0  0  0
  7  6  1  0  0  0  0
  7 44  1  0  0  0  0
  8 11  1  0  0  0  0
  9  8  1  0  0  0  0
  9 46  1  0  0  0  0
  9 47  1  0  0  0  0
 10  9  1  0  0  0  0
 11 12  2  0  0  0  0
 12 51  1  0  0  0  0
 12 13  1  0  0  0  0
 13 14  1  0  0  0  0
 14 15  1  0  0  0  0
 15 53  1  0  0  0  0
 15 52  1  0  0  0  0
 16 55  1  0  0  0  0
 16 15  1  0  0  0  0
 17 18  1  0  0  0  0
 17 14  2  0  0  0  0
 18 59  1  0  0  0  0
 18 57  1  0  0  0  0
 19 17  1  0  0  0  0
 20 19  2  0  0  0  0
 21 20  1  0  0  0  0
 21  3  2  0  0  0  0
 22 21  1  0  0  0  0
 23 22  1  0  0  0  0
 23 62  1  0  0  0  0
 24 22  2  0  0  0  0
 24 26  1  0  0  0  0
 25 24  1  0  0  0  0
 25 64  1  0  0  0  0
 26 27  1  0  0  0  0
 26  3  1  0  0  0  0
 27 34  2  0  0  0  0
 28 27  1  0  0  0  0
 28 29  1  0  0  0  0
 29 67  1  0  0  0  0
 30 29  2  0  0  0  0
 30 68  1  0  0  0  0
 31 30  1  0  0  0  0
 32 33  1  0  0  0  0
 32 31  2  0  0  0  0
 33 28  2  0  0  0  0
 34 35  1  0  0  0  0
 35 71  1  0  0  0  0
 35 73  1  0  0  0  0
 36 34  1  0  0  0  0
 36 37  1  0  0  0  0
 37 75  1  0  0  0  0
 37 74  1  0  0  0  0
 38 36  2  0  0  0  0
 39 38  1  0  0  0  0
 39 79  1  0  0  0  0
 39 77  1  0  0  0  0
 40 38  1  0  0  0  0
 40  4  2  0  0  0  0
 41 40  1  0  0  0  0
 42 31  1  0  0  0  0
 42 83  1  0  0  0  0
 43  7  1  0  0  0  0
 45  7  1  0  0  0  0
 48 10  1  0  0  0  0
 49 10  1  0  0  0  0
 50 10  1  0  0  0  0
 54 16  1  0  0  0  0
 56 16  1  0  0  0  0
 58 18  1  0  0  0  0
 60 20  1  0  0  0  0
 61 23  1  0  0  0  0
 63 23  1  0  0  0  0
 65 25  1  0  0  0  0
 66 25  1  0  0  0  0
 69 32  1  0  0  0  0
 70 33  1  0  0  0  0
 72 35  1  0  0  0  0
 76 37  1  0  0  0  0
 78 39  1  0  0  0  0
 80 41  1  0  0  0  0
 81 42  1  0  0  0  0
 82 42  1  0  0  0  0
M  END
