1,3,4,6
 OpenBabel05122313063D

 43 44  0  0  1  0  0  0  0  0999 V2000
   -1.4678    0.3952   -0.8822 N   0  0  0  0  0  2  0  0  0  0  0  0
   -3.5116   -0.4235   -1.2640 N   0  0  0  0  0  0  0  0  0  0  0  0
   -0.3639   -1.6981   -0.0095 N   0  0  0  0  0  2  0  0  0  0  0  0
    1.5768    0.0306   -0.9119 N   0  0  0  0  0  2  0  0  0  0  0  0
    1.6768    3.6604   -0.6529 N   0  0  0  0  0  0  0  0  0  0  0  0
    0.4864    2.0059    0.2546 N   0  0  0  0  0  2  0  0  0  0  0  0
   -2.2712    1.4289   -1.2819 C   0  0  0  0  0  0  0  0  0  0  0  0
   -1.9065    2.4580   -1.3589 H   0  0  0  0  0  0  0  0  0  0  0  0
   -3.5465    0.9349   -1.5187 C   0  0  0  0  0  0  0  0  0  0  0  0
   -4.4662    1.4331   -1.8403 H   0  0  0  0  0  0  0  0  0  0  0  0
   -4.6602   -1.2992   -1.1060 C   0  0  0  0  0  0  0  0  0  0  0  0
   -4.4234   -2.3122   -1.4837 H   0  0  0  0  0  0  0  0  0  0  0  0
   -5.5103   -0.8959   -1.6855 H   0  0  0  0  0  0  0  0  0  0  0  0
   -4.9267   -1.3499   -0.0277 H   0  0  0  0  0  0  0  0  0  0  0  0
   -2.2353   -0.7222   -0.8727 C   0  0  1  0  0  3  0  0  0  0  0  0
   -1.5763   -1.9278   -0.4792 C   0  0  0  0  0  3  0  0  0  0  0  0
   -1.9595   -2.9437   -0.6715 H   0  0  0  0  0  0  0  0  0  0  0  0
    0.6437   -2.7321   -0.0544 C   0  0  0  0  0  0  0  0  0  0  0  0
    0.1716   -3.7349   -0.1550 H   0  0  0  0  0  0  0  0  0  0  0  0
    1.2454   -2.7103    0.8750 H   0  0  0  0  0  0  0  0  0  0  0  0
    1.5767   -2.4999   -1.2835 C   0  0  0  0  0  0  0  0  0  0  0  0
    0.7670   -2.4846   -2.5891 C   0  0  0  0  0  0  0  0  0  0  0  0
    0.1429   -3.3967   -2.6889 H   0  0  0  0  0  0  0  0  0  0  0  0
    1.4486   -2.4463   -3.4634 H   0  0  0  0  0  0  0  0  0  0  0  0
    0.0988   -1.6024   -2.6417 H   0  0  0  0  0  0  0  0  0  0  0  0
    2.6060   -3.6435   -1.2950 C   0  0  0  0  0  0  0  0  0  0  0  0
    3.1769   -3.6692   -0.3445 H   0  0  0  0  0  0  0  0  0  0  0  0
    3.3279   -3.5184   -2.1280 H   0  0  0  0  0  0  0  0  0  0  0  0
    2.1048   -4.6234   -1.4289 H   0  0  0  0  0  0  0  0  0  0  0  0
    2.3624   -1.1812   -1.1359 C   0  0  0  0  0  0  0  0  0  0  0  0
    3.0485   -1.2814   -0.2616 H   0  0  0  0  0  0  0  0  0  0  0  0
    3.0053   -1.0451   -2.0351 H   0  0  0  0  0  0  0  0  0  0  0  0
    2.1259    1.1901   -1.2335 C   0  0  0  0  0  0  0  0  0  0  0  0
    3.0515    1.2624   -1.8293 H   0  0  0  0  0  0  0  0  0  0  0  0
    1.4817    2.3012   -0.6111 C   0  0  0  0  0  0  0  0  0  0  0  0
    2.6980    4.3511   -1.4168 C   0  0  0  0  0  0  0  0  0  0  0  0
    2.4895    5.4362   -1.4073 H   0  0  0  0  0  0  0  0  0  0  0  0
    2.6935    4.0021   -2.4684 H   0  0  0  0  0  0  0  0  0  0  0  0
    3.7060    4.1781   -0.9860 H   0  0  0  0  0  0  0  0  0  0  0  0
    0.7696    4.2242    0.2302 C   0  0  0  0  0  0  0  0  0  0  0  0
    0.7340    5.3051    0.3994 H   0  0  0  0  0  0  0  0  0  0  0  0
    0.0325    3.1836    0.7822 C   0  0  0  0  0  0  0  0  0  0  0  0
   -0.7721    3.2022    1.5249 H   0  0  0  0  0  0  0  0  0  0  0  0
  1 15  1  0  0  0  0
  2 11  1  0  0  0  0
  2 15  1  0  0  0  0
  5 35  1  0  0  0  0
  5 40  1  0  0  0  0
  6 42  1  0  0  0  0
  7  1  1  0  0  0  0
  8  7  1  0  0  0  0
  9  7  2  0  0  0  0
  9  2  1  0  0  0  0
 10  9  1  0  0  0  0
 11 14  1  0  0  0  0
 12 11  1  0  0  0  0
 13 11  1  0  0  0  0
 15 16  1  6  0  0  0
 16  3  1  0  0  0  0
 17 16  1  0  0  0  0
 18  3  1  0  0  0  0
 18 20  1  0  0  0  0
 19 18  1  0  0  0  0
 21 30  1  0  0  0  0
 21 18  1  0  0  0  0
 22 21  1  0  0  0  0
 23 22  1  0  0  0  0
 24 22  1  0  0  0  0
 25 22  1  0  0  0  0
 26 21  1  0  0  0  0
 26 27  1  0  0  0  0
 28 26  1  0  0  0  0
 29 26  1  0  0  0  0
 30  4  1  0  0  0  0
 30 31  1  0  0  0  0
 32 30  1  0  0  0  0
 33  4  1  0  0  0  0
 33 35  2  0  0  0  0
 34 33  1  0  0  0  0
 35  6  1  0  0  0  0
 36 37  1  0  0  0  0
 36 39  1  0  0  0  0
 36  5  1  0  0  0  0
 38 36  1  0  0  0  0
 40 41  1  0  0  0  0
 40 42  2  0  0  0  0
 42 43  1  0  0  0  0
M  END
