1,2,3,4
 OpenBabel05122313063D

 62 63  0  0  0  0  0  0  0  0999 V2000
   -1.2596    0.4782    2.1252 N   0  0  0  0  0  0  0  0  0  0  0  0
   -0.9798   -1.8825    1.0448 N   0  0  0  0  0  2  0  0  0  0  0  0
   -1.7790    1.7506   -0.7338 N   0  0  0  0  0  2  0  0  0  0  0  0
   -1.8695   -0.6590   -1.7480 N   0  0  0  0  0  2  0  0  0  0  0  0
   -2.5370    0.0137   -3.8362 N   0  0  0  0  0  0  0  0  0  0  0  0
   -0.8815   -0.2202    4.2755 N   0  0  0  0  0  0  0  0  0  0  0  0
   -0.7609   -1.8246    2.3425 C   0  0  0  0  0  3  0  0  0  0  0  0
   -0.4628   -2.7212    2.9118 H   0  0  0  0  0  0  0  0  0  0  0  0
   -0.9309   -0.5659    2.9739 C   0  0  0  0  0  3  0  0  0  0  0  0
   -1.2030    1.0946    4.2694 C   0  0  0  0  0  0  0  0  0  0  0  0
   -1.2539    1.6879    5.1925 H   0  0  0  0  0  0  0  0  0  0  0  0
   -2.0599   -1.7718   -2.5060 C   0  0  0  0  0  3  0  0  0  0  0  0
   -1.9046   -2.7884   -2.1323 H   0  0  0  0  0  0  0  0  0  0  0  0
   -2.4664   -1.3369   -3.7895 C   0  0  0  0  0  0  0  0  0  0  0  0
   -2.7011   -1.9649   -4.6597 H   0  0  0  0  0  0  0  0  0  0  0  0
   -2.0796    1.6846   -2.0146 C   0  0  0  0  0  0  0  0  0  0  0  0
   -2.2274    2.5986   -2.6144 H   0  0  0  0  0  0  0  0  0  0  0  0
   -0.7282   -3.1278    0.3318 C   0  0  0  0  0  0  0  0  0  0  0  0
   -1.6288   -3.3756   -0.2665 H   0  0  0  0  0  0  0  0  0  0  0  0
   -0.6063   -3.9424    1.0795 H   0  0  0  0  0  0  0  0  0  0  0  0
    0.5112   -3.0703   -0.5702 C   0  0  0  0  0  0  0  0  0  0  0  0
    0.3690   -2.2833   -1.3402 H   0  0  0  0  0  0  0  0  0  0  0  0
    0.5628   -4.0359   -1.1201 H   0  0  0  0  0  0  0  0  0  0  0  0
    1.8271   -2.8258    0.1717 C   0  0  0  0  0  0  0  0  0  0  0  0
    1.9290   -3.5522    1.0107 H   0  0  0  0  0  0  0  0  0  0  0  0
    1.7981   -1.8189    0.6421 H   0  0  0  0  0  0  0  0  0  0  0  0
   -1.4913    3.0476   -0.1326 C   0  0  0  0  0  0  0  0  0  0  0  0
   -2.1567    3.1911    0.7443 H   0  0  0  0  0  0  0  0  0  0  0  0
   -1.7515    3.8407   -0.8677 H   0  0  0  0  0  0  0  0  0  0  0  0
   -0.0222    3.1804    0.2903 C   0  0  0  0  0  0  0  0  0  0  0  0
    0.1092    4.1783    0.7622 H   0  0  0  0  0  0  0  0  0  0  0  0
    0.1870    2.4343    1.0841 H   0  0  0  0  0  0  0  0  0  0  0  0
    0.9871    2.9853   -0.8423 C   0  0  0  0  0  0  0  0  0  0  0  0
    0.7394    2.0504   -1.3917 H   0  0  0  0  0  0  0  0  0  0  0  0
    0.9031    3.8104   -1.5853 H   0  0  0  0  0  0  0  0  0  0  0  0
    2.4230    2.8724   -0.3252 C   0  0  0  0  0  0  0  0  0  0  0  0
    2.7038    3.7961    0.2300 H   0  0  0  0  0  0  0  0  0  0  0  0
    2.4464    2.0547    0.4283 H   0  0  0  0  0  0  0  0  0  0  0  0
    3.4599    2.5923   -1.4155 C   0  0  0  0  0  0  0  0  0  0  0  0
    3.4897    3.4472   -2.1260 H   0  0  0  0  0  0  0  0  0  0  0  0
    3.1202    1.7214   -2.0190 H   0  0  0  0  0  0  0  0  0  0  0  0
    4.8780    2.3316   -0.8832 C   0  0  0  0  0  0  0  0  0  0  0  0
    5.5569    2.1593   -1.7472 H   0  0  0  0  0  0  0  0  0  0  0  0
    5.2527    3.2515   -0.3825 H   0  0  0  0  0  0  0  0  0  0  0  0
    3.0457   -2.9426   -0.7502 C   0  0  0  0  0  0  0  0  0  0  0  0
    3.0361   -3.9479   -1.2263 H   0  0  0  0  0  0  0  0  0  0  0  0
    2.9354   -2.2206   -1.5894 H   0  0  0  0  0  0  0  0  0  0  0  0
   -1.4470    1.5431    2.9499 C   0  0  0  0  0  0  0  0  0  0  0  0
   -1.7329    2.5369    2.5914 H   0  0  0  0  0  0  0  0  0  0  0  0
   -2.1794    0.3939   -2.5938 C   0  0  0  0  0  0  0  0  0  0  0  0
    4.4035   -2.7407   -0.0625 C   0  0  0  0  0  0  0  0  0  0  0  0
    5.2053   -2.9558   -0.8029 H   0  0  0  0  0  0  0  0  0  0  0  0
    4.5196   -3.5046    0.7380 H   0  0  0  0  0  0  0  0  0  0  0  0
    4.6537   -1.3483    0.5366 C   0  0  0  0  0  0  0  0  0  0  0  0
    5.6659   -1.3415    0.9976 H   0  0  0  0  0  0  0  0  0  0  0  0
    3.9481   -1.1584    1.3762 H   0  0  0  0  0  0  0  0  0  0  0  0
    4.5538   -0.1980   -0.4707 C   0  0  0  0  0  0  0  0  0  0  0  0
    5.1618   -0.4395   -1.3729 H   0  0  0  0  0  0  0  0  0  0  0  0
    3.5052   -0.1178   -0.8309 H   0  0  0  0  0  0  0  0  0  0  0  0
    5.0047    1.1522    0.0950 C   0  0  0  0  0  0  0  0  0  0  0  0
    6.0644    1.0715    0.4229 H   0  0  0  0  0  0  0  0  0  0  0  0
    4.4291    1.3668    1.0228 H   0  0  0  0  0  0  0  0  0  0  0  0
  1 48  2  0  0  0  0
  1  9  1  0  0  0  0
  2  7  1  0  0  0  0
  3 27  1  0  0  0  0
  5 14  2  0  0  0  0
  5 50  1  0  0  0  0
  7  8  1  0  0  0  0
  7  9  1  0  0  0  0
  9  6  1  0  0  0  0
 10  6  2  0  0  0  0
 10 11  1  0  0  0  0
 12 13  1  0  0  0  0
 12  4  1  0  0  0  0
 14 12  1  0  0  0  0
 15 14  1  0  0  0  0
 16  3  1  0  0  0  0
 17 16  1  0  0  0  0
 18  2  1  0  0  0  0
 18 20  1  0  0  0  0
 19 18  1  0  0  0  0
 21 24  1  0  0  0  0
 21 18  1  0  0  0  0
 22 21  1  0  0  0  0
 23 21  1  0  0  0  0
 24 26  1  0  0  0  0
 24 25  1  0  0  0  0
 27 30  1  0  0  0  0
 27 28  1  0  0  0  0
 29 27  1  0  0  0  0
 30 31  1  0  0  0  0
 30 32  1  0  0  0  0
 33 36  1  0  0  0  0
 33 30  1  0  0  0  0
 34 33  1  0  0  0  0
 35 33  1  0  0  0  0
 36 37  1  0  0  0  0
 36 38  1  0  0  0  0
 39 42  1  0  0  0  0
 39 36  1  0  0  0  0
 40 39  1  0  0  0  0
 41 39  1  0  0  0  0
 42 44  1  0  0  0  0
 42 60  1  0  0  0  0
 43 42  1  0  0  0  0
 45 51  1  0  0  0  0
 45 24  1  0  0  0  0
 46 45  1  0  0  0  0
 47 45  1  0  0  0  0
 48 10  1  0  0  0  0
 49 48  1  0  0  0  0
 50 16  2  0  0  0  0
 50  4  1  0  0  0  0
 51 54  1  0  0  0  0
 51 53  1  0  0  0  0
 52 51  1  0  0  0  0
 54 55  1  0  0  0  0
 54 56  1  0  0  0  0
 57 60  1  0  0  0  0
 57 54  1  0  0  0  0
 58 57  1  0  0  0  0
 59 57  1  0  0  0  0
 60 61  1  0  0  0  0
 60 62  1  0  0  0  0
M  END
