3,4,5,6
 OpenBabel05122313063D

 51 55  0  0  1  0  0  0  0  0999 V2000
   -1.8466   -3.6207   -1.0139 O   0  0  0  0  0  0  0  0  0  0  0  0
   -2.3889    3.1926    0.9553 O   0  0  0  0  0  0  0  0  0  0  0  0
    0.8299   -1.5585    0.1188 N   0  0  0  0  0  2  0  0  0  0  0  0
   -1.6673   -1.4059   -0.2655 N   0  0  0  0  0  2  0  0  0  0  0  0
    0.5897    1.5673   -0.1308 N   0  0  0  0  0  2  0  0  0  0  0  0
   -1.8615    1.0319    0.2105 N   0  0  0  0  0  2  0  0  0  0  0  0
   -1.2033   -2.6354   -0.6300 C   0  0  0  0  0  0  0  0  0  0  0  0
    0.2847   -2.6814   -0.3941 C   0  0  0  0  0  0  0  0  0  0  0  0
    1.0200   -3.8730   -0.5789 C   0  0  0  0  0  0  0  0  0  0  0  0
    0.4866   -4.7256   -1.0235 H   0  0  0  0  0  0  0  0  0  0  0  0
    2.3488   -3.9091   -0.1903 C   0  0  0  0  0  0  0  0  0  0  0  0
    2.9647   -4.8082   -0.3473 H   0  0  0  0  0  0  0  0  0  0  0  0
    2.9175   -2.7835    0.4725 C   0  0  0  0  0  0  0  0  0  0  0  0
    4.2430   -2.7808    0.9941 C   0  0  0  0  0  0  0  0  0  0  0  0
    4.8682   -3.6744    0.8442 H   0  0  0  0  0  0  0  0  0  0  0  0
    4.7262   -1.6880    1.6986 C   0  0  0  0  0  0  0  0  0  0  0  0
    5.7490   -1.7004    2.1035 H   0  0  0  0  0  0  0  0  0  0  0  0
    3.8914   -0.5613    1.9248 C   0  0  0  0  0  0  0  0  0  0  0  0
    4.2666    0.2854    2.5187 H   0  0  0  0  0  0  0  0  0  0  0  0
    2.6049   -0.5179    1.4091 C   0  0  0  0  0  0  0  0  0  0  0  0
    1.9436    0.3371    1.5973 H   0  0  0  0  0  0  0  0  0  0  0  0
    2.0997   -1.6082    0.6494 C   0  0  2  0  0  3  0  0  0  0  0  0
   -1.5977    2.3171    0.5823 C   0  0  0  0  0  0  0  0  0  0  0  0
   -0.1298    2.5919    0.3721 C   0  0  0  0  0  0  0  0  0  0  0  0
    0.4102    3.8817    0.5698 C   0  0  0  0  0  0  0  0  0  0  0  0
   -0.2556    4.6412    1.0046 H   0  0  0  0  0  0  0  0  0  0  0  0
    1.7246    4.1223    0.2054 C   0  0  0  0  0  0  0  0  0  0  0  0
    2.1925    5.1048    0.3735 H   0  0  0  0  0  0  0  0  0  0  0  0
    2.4709    3.0990   -0.4465 C   0  0  0  0  0  0  0  0  0  0  0  0
    3.7906    3.3008   -0.9437 C   0  0  0  0  0  3  0  0  0  0  0  0
    4.2688    4.2791   -0.7824 H   0  0  0  0  0  0  0  0  0  0  0  0
    4.4480    2.2968   -1.6390 C   0  0  0  0  0  0  0  0  0  0  0  0
    5.4640    2.4667   -2.0250 H   0  0  0  0  0  0  0  0  0  0  0  0
    3.8000    1.0560   -1.8805 C   0  0  0  0  0  0  0  0  0  0  0  0
    4.3113    0.2784   -2.4671 H   0  0  0  0  0  0  0  0  0  0  0  0
    2.5263    0.8147   -1.3883 C   0  0  0  0  0  0  0  0  0  0  0  0
    2.0074   -0.1313   -1.5878 H   0  0  0  0  0  0  0  0  0  0  0  0
    1.8464    1.8127   -0.6383 C   0  0  0  0  0  0  0  0  0  0  0  0
   -2.9993   -0.9829   -0.1853 C   0  0  0  0  0  0  0  0  0  0  0  0
   -3.1120    0.4086    0.1087 C   0  0  0  0  0  0  0  0  0  0  0  0
   -4.1575   -1.7620   -0.3461 C   0  0  0  0  0  0  0  0  0  0  0  0
   -4.0571   -2.8279   -0.5850 H   0  0  0  0  0  0  0  0  0  0  0  0
   -4.3735    1.0088    0.2488 C   0  0  0  0  0  0  0  0  0  0  0  0
   -4.4271    2.0792    0.4869 H   0  0  0  0  0  0  0  0  0  0  0  0
   -5.4119   -1.1443   -0.2064 C   0  0  0  0  0  0  0  0  0  0  0  0
   -6.3220   -1.7511   -0.3357 H   0  0  0  0  0  0  0  0  0  0  0  0
   -5.5401    0.2282    0.0929 C   0  0  0  0  0  0  0  0  0  0  0  0
   -6.8963    0.8695    0.2557 C   0  0  0  0  0  0  0  0  0  0  0  0
   -7.7149    0.1529    0.0495 H   0  0  0  0  0  0  0  0  0  0  0  0
   -7.0199    1.7353   -0.4280 H   0  0  0  0  0  0  0  0  0  0  0  0
   -7.0377    1.2573    1.2869 H   0  0  0  0  0  0  0  0  0  0  0  0
  1  7  2  0  0  0  0
  4 39  1  0  0  0  0
  5 24  1  0  0  0  0
  6 23  1  0  0  0  0
  7  8  1  0  0  0  0
  7  4  1  0  0  0  0
  8  3  1  0  0  0  0
  9  8  2  0  0  0  0
  9 11  1  0  0  0  0
 10  9  1  0  0  0  0
 11 13  2  0  0  0  0
 12 11  1  0  0  0  0
 13 22  1  0  0  0  0
 13 14  1  0  0  0  0
 14 16  2  0  0  0  0
 15 14  1  0  0  0  0
 16 18  1  0  0  0  0
 16 17  1  0  0  0  0
 18 19  1  0  0  0  0
 20 21  1  0  0  0  0
 20 18  2  0  0  0  0
 22  3  1  1  0  0  0
 22 20  1  0  0  0  0
 23  2  2  0  0  0  0
 24 25  2  0  0  0  0
 24 23  1  0  0  0  0
 25 26  1  0  0  0  0
 27 28  1  0  0  0  0
 27 25  1  0  0  0  0
 29 27  2  0  0  0  0
 30 31  1  0  0  0  0
 30 29  1  0  0  0  0
 32 30  1  0  0  0  0
 33 32  1  0  0  0  0
 34 32  2  0  0  0  0
 34 36  1  0  0  0  0
 35 34  1  0  0  0  0
 36 38  2  0  0  0  0
 37 36  1  0  0  0  0
 38 29  1  0  0  0  0
 38  5  1  0  0  0  0
 39 40  1  0  0  0  0
 40  6  1  0  0  0  0
 40 43  2  0  0  0  0
 41 45  1  0  0  0  0
 41 39  2  0  0  0  0
 42 41  1  0  0  0  0
 43 44  1  0  0  0  0
 45 47  2  0  0  0  0
 46 45  1  0  0  0  0
 47 43  1  0  0  0  0
 47 48  1  0  0  0  0
 48 51  1  0  0  0  0
 49 48  1  0  0  0  0
 50 48  1  0  0  0  0
M  END
