1,2,3,4
 OpenBabel05122313063D

 82 90  0  0  0  0  0  0  0  0999 V2000
   -1.0030    1.4207   -0.2853 N   0  0  0  0  0  2  0  0  0  0  0  0
   -0.9393   -1.4896   -0.2970 N   0  0  0  0  0  0  0  0  0  0  0  0
    1.9664   -1.4277   -0.0052 N   0  0  0  0  0  0  0  0  0  0  0  0
    1.9082    1.4856   -0.0612 N   0  0  0  0  0  0  0  0  0  0  0  0
   -2.3537    1.1890   -0.4614 C   0  0  0  0  0  0  0  0  0  0  0  0
   -2.9840   -0.0778   -0.5111 C   0  0  0  0  0  0  0  0  0  0  0  0
   -2.3066   -1.3152   -0.3917 C   0  0  0  0  0  0  0  0  0  0  0  0
   -2.9611   -2.6107   -0.3489 C   0  0  0  0  0  0  0  0  0  0  0  0
   -1.9747   -3.5577   -0.2271 C   0  0  0  0  0  0  0  0  0  0  0  0
   -0.7102   -2.8470   -0.2135 C   0  0  0  0  0  0  0  0  0  0  0  0
    0.5563   -3.4754   -0.1273 C   0  0  0  0  0  0  0  0  0  0  0  0
    1.7961   -2.7958   -0.0660 C   0  0  0  0  0  0  0  0  0  0  0  0
    3.0912   -3.4505   -0.0871 C   0  0  0  0  0  0  0  0  0  0  0  0
    4.0396   -2.4595   -0.0263 C   0  0  0  0  0  0  0  0  0  0  0  0
    3.3264   -1.1968    0.0361 C   0  0  0  0  0  3  0  0  0  0  0  0
    3.9506    0.0717    0.1135 C   0  0  0  0  0  0  0  0  0  0  0  0
    3.2673    1.3119    0.1012 C   0  0  0  0  0  0  0  0  0  0  0  0
    3.9067    2.6008    0.2927 C   0  0  0  0  0  0  0  0  0  0  0  0
    2.9161    3.5499    0.2336 C   0  0  0  0  0  0  0  0  0  0  0  0
    1.6696    2.8435    0.0020 C   0  0  0  0  0  0  0  0  0  0  0  0
    0.4058    3.4693   -0.1142 C   0  0  0  0  0  0  0  0  0  0  0  0
   -0.8266    2.7883   -0.2682 C   0  0  0  0  0  0  0  0  0  0  0  0
   -2.1047    3.4484   -0.4546 C   0  0  0  0  0  0  0  0  0  0  0  0
   -3.0491    2.4589   -0.5716 C   0  0  0  0  0  0  0  0  0  0  0  0
   -4.4964   -0.1077   -0.6115 C   0  0  0  0  0  0  0  0  0  0  0  0
   -5.1976   -0.0407    0.7690 C   0  0  0  0  0  0  0  0  0  0  0  0
   -6.7017   -0.0652    0.6462 C   0  0  0  0  0  0  0  0  0  0  0  0
   -7.4060   -1.2864    0.6277 C   0  0  0  0  0  0  0  0  0  0  0  0
   -8.7979   -1.3147    0.4548 C   0  0  0  0  0  0  0  0  0  0  0  0
   -9.5119   -0.1165    0.2945 C   0  0  0  0  0  0  0  0  0  0  0  0
   -8.8241    1.1073    0.3107 C   0  0  0  0  0  0  0  0  0  0  0  0
   -7.4322    1.1298    0.4839 C   0  0  0  0  0  0  0  0  0  0  0  0
    0.5888   -4.9690   -0.1097 C   0  0  0  0  0  0  0  0  0  0  0  0
    0.1403   -5.7154   -1.2214 C   0  0  0  0  0  0  0  0  0  0  0  0
    0.1750   -7.1173   -1.2043 C   0  0  0  0  0  0  0  0  0  0  0  0
    0.6573   -7.7981   -0.0750 C   0  0  0  0  0  0  0  0  0  0  0  0
    1.1061   -7.0674    1.0366 C   0  0  0  0  0  0  0  0  0  0  0  0
    1.0734   -5.6654    1.0191 C   0  0  0  0  0  0  0  0  0  0  0  0
    5.4398    0.1053    0.2233 C   0  0  0  0  0  0  0  0  0  0  0  0
    6.2241    0.7007   -0.7889 C   0  0  0  0  0  0  0  0  0  0  0  0
    7.6224    0.7332   -0.6864 C   0  0  0  0  0  0  0  0  0  0  0  0
    8.2617    0.1729    0.4310 C   0  0  0  0  0  0  0  0  0  0  0  0
    7.4931   -0.4209    1.4449 C   0  0  0  0  0  0  0  0  0  0  0  0
    6.0949   -0.4553    1.3418 C   0  0  0  0  0  0  0  0  0  0  0  0
    0.3686    4.9624   -0.0681 C   0  0  0  0  0  0  0  0  0  0  0  0
    0.9861    5.7309   -1.0790 C   0  0  0  0  0  0  0  0  0  0  0  0
    0.9511    7.1323   -1.0357 C   0  0  0  0  0  0  0  0  0  0  0  0
    0.2996    7.7902    0.0197 C   0  0  0  0  0  0  0  0  0  0  0  0
   -0.3173    7.0372    1.0314 C   0  0  0  0  0  0  0  0  0  0  0  0
   -0.2838    5.6358    0.9877 C   0  0  0  0  0  0  0  0  0  0  0  0
   -4.0404   -2.7906   -0.3904 H   0  0  0  0  0  0  0  0  0  0  0  0
   -2.0928   -4.6429   -0.1454 H   0  0  0  0  0  0  0  0  0  0  0  0
    3.2525   -4.5306   -0.1637 H   0  0  0  0  0  0  0  0  0  0  0  0
    5.1286   -2.5704   -0.0439 H   0  0  0  0  0  0  0  0  0  0  0  0
    4.9749    2.7558    0.4754 H   0  0  0  0  0  0  0  0  0  0  0  0
    3.0157    4.6330    0.3572 H   0  0  0  0  0  0  0  0  0  0  0  0
   -2.2573    4.5312   -0.5055 H   0  0  0  0  0  0  0  0  0  0  0  0
   -4.1243    2.5952   -0.7277 H   0  0  0  0  0  0  0  0  0  0  0  0
   -4.8320   -1.0213   -1.1379 H   0  0  0  0  0  0  0  0  0  0  0  0
   -4.8587    0.7327   -1.2340 H   0  0  0  0  0  0  0  0  0  0  0  0
   -4.8480   -0.8937    1.3869 H   0  0  0  0  0  0  0  0  0  0  0  0
   -4.8692    0.8830    1.2890 H   0  0  0  0  0  0  0  0  0  0  0  0
   -6.8511   -2.2298    0.7594 H   0  0  0  0  0  0  0  0  0  0  0  0
   -9.3297   -2.2785    0.4494 H   0  0  0  0  0  0  0  0  0  0  0  0
  -10.6043   -0.1363    0.1617 H   0  0  0  0  0  0  0  0  0  0  0  0
   -9.3767    2.0520    0.1916 H   0  0  0  0  0  0  0  0  0  0  0  0
   -6.8979    2.0939    0.5021 H   0  0  0  0  0  0  0  0  0  0  0  0
   -0.2281   -5.1807   -2.1098 H   0  0  0  0  0  0  0  0  0  0  0  0
   -0.1721   -7.6823   -2.0829 H   0  0  0  0  0  0  0  0  0  0  0  0
    0.6839   -8.8983   -0.0616 H   0  0  0  0  0  0  0  0  0  0  0  0
    1.4810   -7.5932    1.9281 H   0  0  0  0  0  0  0  0  0  0  0  0
    1.4180   -5.0916    1.8926 H   0  0  0  0  0  0  0  0  0  0  0  0
    5.7225    1.1318   -1.6684 H   0  0  0  0  0  0  0  0  0  0  0  0
    8.2176    1.1953   -1.4888 H   0  0  0  0  0  0  0  0  0  0  0  0
    9.3590    0.1992    0.5118 H   0  0  0  0  0  0  0  0  0  0  0  0
    7.9858   -0.8565    2.3276 H   0  0  0  0  0  0  0  0  0  0  0  0
    5.4912   -0.9117    2.1406 H   0  0  0  0  0  0  0  0  0  0  0  0
    1.4891    5.2141   -1.9101 H   0  0  0  0  0  0  0  0  0  0  0  0
    1.4324    7.7149   -1.8361 H   0  0  0  0  0  0  0  0  0  0  0  0
    0.2728    8.8900    0.0538 H   0  0  0  0  0  0  0  0  0  0  0  0
   -0.8246    7.5450    1.8660 H   0  0  0  0  0  0  0  0  0  0  0  0
   -0.7590    5.0446    1.7850 H   0  0  0  0  0  0  0  0  0  0  0  0
  1 22  1  0  0  0  0
  2 10  1  0  0  0  0
  3 15  1  0  0  0  0
  4 20  2  0  0  0  0
  4 17  1  0  0  0  0
  5  1  1  0  0  0  0
  6  5  2  0  0  0  0
  6  7  1  0  0  0  0
  7  8  1  0  0  0  0
  7  2  2  0  0  0  0
  8  9  2  0  0  0  0
  9 10  1  0  0  0  0
  9 52  1  0  0  0  0
 10 11  2  0  0  0  0
 11 33  1  0  0  0  0
 11 12  1  0  0  0  0
 12  3  2  0  0  0  0
 13 12  1  0  0  0  0
 13 14  2  0  0  0  0
 14 15  1  0  0  0  0
 15 16  1  0  0  0  0
 16 39  1  0  0  0  0
 17 16  2  0  0  0  0
 17 18  1  0  0  0  0
 18 55  1  0  0  0  0
 19 18  2  0  0  0  0
 19 56  1  0  0  0  0
 20 19  1  0  0  0  0
 21 45  1  0  0  0  0
 21 20  1  0  0  0  0
 22 21  2  0  0  0  0
 23 22  1  0  0  0  0
 24  5  1  0  0  0  0
 24 23  2  0  0  0  0
 25  6  1  0  0  0  0
 25 26  1  0  0  0  0
 26 62  1  0  0  0  0
 26 61  1  0  0  0  0
 27 26  1  0  0  0  0
 28 27  1  0  0  0  0
 28 63  1  0  0  0  0
 29 28  2  0  0  0  0
 30 31  2  0  0  0  0
 30 29  1  0  0  0  0
 31 32  1  0  0  0  0
 32 67  1  0  0  0  0
 32 27  2  0  0  0  0
 33 38  1  0  0  0  0
 34 35  1  0  0  0  0
 34 33  2  0  0  0  0
 35 36  2  0  0  0  0
 36 70  1  0  0  0  0
 36 37  1  0  0  0  0
 37 71  1  0  0  0  0
 38 37  2  0  0  0  0
 38 72  1  0  0  0  0
 39 44  1  0  0  0  0
 40 41  1  0  0  0  0
 40 39  2  0  0  0  0
 41 42  2  0  0  0  0
 42 75  1  0  0  0  0
 42 43  1  0  0  0  0
 43 76  1  0  0  0  0
 44 43  2  0  0  0  0
 44 77  1  0  0  0  0
 45 50  1  0  0  0  0
 46 47  1  0  0  0  0
 46 45  2  0  0  0  0
 47 48  2  0  0  0  0
 48 80  1  0  0  0  0
 48 49  1  0  0  0  0
 49 81  1  0  0  0  0
 50 49  2  0  0  0  0
 50 82  1  0  0  0  0
 51  8  1  0  0  0  0
 53 13  1  0  0  0  0
 54 14  1  0  0  0  0
 57 23  1  0  0  0  0
 58 24  1  0  0  0  0
 59 25  1  0  0  0  0
 60 25  1  0  0  0  0
 64 29  1  0  0  0  0
 65 30  1  0  0  0  0
 66 31  1  0  0  0  0
 68 34  1  0  0  0  0
 69 35  1  0  0  0  0
 73 40  1  0  0  0  0
 74 41  1  0  0  0  0
 78 46  1  0  0  0  0
 79 47  1  0  0  0  0
M  END
