27,28,29,30
 OpenBabel05122313063D

 32 33  0  0  1  0  0  0  0  0999 V2000
    1.9153   -2.4038   -0.0007 C   0  0  0  0  0  3  0  0  0  0  0  0
    0.9867   -2.9930   -0.0010 H   0  0  0  0  0  0  0  0  0  0  0  0
    3.1603   -3.0332   -0.0008 C   0  0  0  0  0  0  0  0  0  0  0  0
    3.2178   -4.1306   -0.0013 H   0  0  0  0  0  0  0  0  0  0  0  0
    4.3151   -2.2343   -0.0004 C   0  0  0  0  0  0  0  0  0  0  0  0
    5.3159   -2.6909   -0.0004 H   0  0  0  0  0  0  0  0  0  0  0  0
    4.1674   -0.8440    0.0002 C   0  0  0  0  0  0  0  0  0  0  0  0
    5.0454   -0.1814    0.0005 H   0  0  0  0  0  0  0  0  0  0  0  0
    2.8853   -0.2690    0.0002 C   0  0  0  0  0  0  0  0  0  0  0  0
    2.6874    1.2264    0.0005 C   0  0  0  0  0  0  0  0  0  0  0  0
    3.2113    1.6661    0.8851 H   0  0  0  0  0  0  0  0  0  0  0  0
    3.2103    1.6663   -0.8846 H   0  0  0  0  0  0  0  0  0  0  0  0
    0.7831    2.7979    0.0005 C   0  0  0  0  0  0  0  0  0  0  0  0
   -0.7831    2.7979    0.0001 C   0  0  0  0  0  0  0  0  0  0  0  0
   -2.6874    1.2264   -0.0014 C   0  0  0  0  0  0  0  0  0  0  0  0
   -3.2094    1.6653   -0.8876 H   0  0  0  0  0  0  0  0  0  0  0  0
   -3.2121    1.6671    0.8822 H   0  0  0  0  0  0  0  0  0  0  0  0
   -2.8853   -0.2690   -0.0005 C   0  0  1  0  0  3  0  0  0  0  0  0
   -4.1675   -0.8440    0.0001 C   0  0  0  0  0  0  0  0  0  0  0  0
   -5.0454   -0.1814    0.0002 H   0  0  0  0  0  0  0  0  0  0  0  0
   -4.3151   -2.2343    0.0007 C   0  0  0  0  0  0  0  0  0  0  0  0
   -5.3159   -2.6909    0.0012 H   0  0  0  0  0  0  0  0  0  0  0  0
   -3.1603   -3.0331    0.0007 C   0  0  0  0  0  0  0  0  0  0  0  0
   -3.2178   -4.1306    0.0012 H   0  0  0  0  0  0  0  0  0  0  0  0
   -1.9153   -2.4038    0.0002 C   0  0  0  0  0  0  0  0  0  0  0  0
   -0.9867   -2.9930    0.0002 H   0  0  0  0  0  0  0  0  0  0  0  0
    1.7657   -1.0591   -0.0002 N   0  0  0  0  0  2  0  0  0  0  0  0
    1.2841    1.5293    0.0013 N   0  0  0  0  0  2  0  0  0  0  0  0
   -1.2841    1.5293    0.0004 N   0  0  0  0  0  2  0  0  0  0  0  0
   -1.7657   -1.0591   -0.0004 N   0  0  0  0  0  2  0  0  0  0  0  0
    1.4630    3.8233    0.0000 O   0  0  0  0  0  0  0  0  0  0  0  0
   -1.4630    3.8233   -0.0008 O   0  0  0  0  0  0  0  0  0  0  0  0
  1 27  1  0  0  0  0
  2  1  1  0  0  0  0
  3  1  1  0  0  0  0
  3  5  2  0  0  0  0
  4  3  1  0  0  0  0
  5  7  1  0  0  0  0
  6  5  1  0  0  0  0
  7  9  2  0  0  0  0
  7  8  1  0  0  0  0
  9 10  1  0  0  0  0
 10 28  1  0  0  0  0
 10 11  1  0  0  0  0
 12 10  1  0  0  0  0
 13 28  1  0  0  0  0
 14 29  1  0  0  0  0
 14 13  1  0  0  0  0
 15 29  1  0  0  0  0
 15 17  1  0  0  0  0
 16 15  1  0  0  0  0
 18 15  1  6  0  0  0
 18 30  1  0  0  0  0
 18 19  1  0  0  0  0
 19 20  1  0  0  0  0
 19 21  2  0  0  0  0
 21 22  1  0  0  0  0
 23 21  1  0  0  0  0
 23 24  1  0  0  0  0
 25 26  1  0  0  0  0
 25 23  2  0  0  0  0
 27  9  1  0  0  0  0
 30 25  1  0  0  0  0
 31 13  2  0  0  0  0
 32 14  2  0  0  0  0
M  END
