17,18,35,36
 OpenBabel05122313063D

 37 40  0  0  1  0  0  0  0  0999 V2000
    0.0000   -3.4337    0.0000 S   0  0  0  0  0  0  0  0  0  0  0  0
    1.2459    2.6551   -0.9212 C   0  0  0  0  0  3  0  0  0  0  0  0
    0.2225    2.9204   -1.2191 H   0  0  0  0  0  0  0  0  0  0  0  0
    2.3273    3.5182   -1.1179 C   0  0  0  0  0  0  0  0  0  0  0  0
    2.1521    4.5163   -1.5435 H   0  0  0  0  0  0  0  0  0  0  0  0
    3.6207    3.0867   -0.7752 C   0  0  0  0  0  0  0  0  0  0  0  0
    4.4888    3.7487   -0.9067 H   0  0  0  0  0  0  0  0  0  0  0  0
    3.7895    1.7801   -0.3057 C   0  0  0  0  0  0  0  0  0  0  0  0
    4.7916    1.3840   -0.0919 H   0  0  0  0  0  0  0  0  0  0  0  0
    2.6593    0.9603   -0.1421 C   0  0  0  0  0  0  0  0  0  0  0  0
    2.6853   -0.4727    0.1396 C   0  0  2  0  0  3  0  0  0  0  0  0
    3.8306   -1.2123    0.4570 C   0  0  0  0  0  0  0  0  0  0  0  0
    4.8044   -0.7234    0.5900 H   0  0  0  0  0  0  0  0  0  0  0  0
    3.6787   -2.5943    0.6159 C   0  0  0  0  0  0  0  0  0  0  0  0
    4.5339   -3.2422    0.8713 H   0  0  0  0  0  0  0  0  0  0  0  0
    1.4374   -2.4229    0.1706 C   0  0  0  0  0  0  0  0  0  0  0  0
    1.3993    1.4264   -0.3825 N   0  0  0  0  0  2  0  0  0  0  0  0
    1.4570   -1.0814   -0.0162 N   0  0  0  0  0  2  0  0  0  0  0  0
    2.4878   -3.1902    0.4713 N   0  0  0  0  0  0  0  0  0  0  0  0
   -1.2459    2.6551    0.9212 C   0  0  0  0  0  3  0  0  0  0  0  0
   -0.2225    2.9204    1.2191 H   0  0  0  0  0  0  0  0  0  0  0  0
   -2.3273    3.5182    1.1179 C   0  0  0  0  0  0  0  0  0  0  0  0
   -2.1521    4.5163    1.5435 H   0  0  0  0  0  0  0  0  0  0  0  0
   -3.6207    3.0867    0.7752 C   0  0  0  0  0  0  0  0  0  0  0  0
   -4.4888    3.7487    0.9067 H   0  0  0  0  0  0  0  0  0  0  0  0
   -3.7895    1.7801    0.3057 C   0  0  0  0  0  0  0  0  0  0  0  0
   -4.7916    1.3840    0.0918 H   0  0  0  0  0  0  0  0  0  0  0  0
   -2.6593    0.9603    0.1421 C   0  0  0  0  0  0  0  0  0  0  0  0
   -2.6853   -0.4727   -0.1396 C   0  0  2  0  0  3  0  0  0  0  0  0
   -3.8306   -1.2123   -0.4570 C   0  0  0  0  0  0  0  0  0  0  0  0
   -4.8044   -0.7234   -0.5900 H   0  0  0  0  0  0  0  0  0  0  0  0
   -3.6787   -2.5943   -0.6159 C   0  0  0  0  0  0  0  0  0  0  0  0
   -4.5339   -3.2422   -0.8713 H   0  0  0  0  0  0  0  0  0  0  0  0
   -1.4374   -2.4229   -0.1706 C   0  0  0  0  0  0  0  0  0  0  0  0
   -1.3993    1.4264    0.3825 N   0  0  0  0  0  2  0  0  0  0  0  0
   -1.4570   -1.0814    0.0162 N   0  0  0  0  0  2  0  0  0  0  0  0
   -2.4878   -3.1902   -0.4713 N   0  0  0  0  0  0  0  0  0  0  0  0
  1 16  1  0  0  0  0
  2 17  1  0  0  0  0
  3  2  1  0  0  0  0
  4  2  1  0  0  0  0
  4  6  2  0  0  0  0
  5  4  1  0  0  0  0
  6  8  1  0  0  0  0
  7  6  1  0  0  0  0
  8 10  2  0  0  0  0
  8  9  1  0  0  0  0
 11 10  1  6  0  0  0
 11 12  1  0  0  0  0
 12 13  1  0  0  0  0
 12 14  2  0  0  0  0
 14 15  1  0  0  0  0
 16 19  2  0  0  0  0
 17 10  1  0  0  0  0
 18 11  1  0  0  0  0
 18 16  1  0  0  0  0
 19 14  1  0  0  0  0
 20 22  1  0  0  0  0
 20 21  1  0  0  0  0
 22 23  1  0  0  0  0
 24 25  1  0  0  0  0
 24 22  2  0  0  0  0
 26 24  1  0  0  0  0
 27 26  1  0  0  0  0
 28 26  2  0  0  0  0
 28 35  1  0  0  0  0
 29 36  1  0  0  0  0
 29 28  1  1  0  0  0
 30 29  1  0  0  0  0
 31 30  1  0  0  0  0
 32 37  1  0  0  0  0
 32 30  2  0  0  0  0
 33 32  1  0  0  0  0
 34  1  1  0  0  0  0
 34 36  1  0  0  0  0
 35 20  1  0  0  0  0
 37 34  2  0  0  0  0
M  END
