2,3,4,5
 OpenBabel05122313063D

 82 91  0  0  1  0  0  0  0  0999 V2000
   -4.6913    1.6609    2.5879 Cl  0  0  0  0  0  0  0  0  0  0  0  0
   -1.3236   -0.2919   -0.0565 N   0  0  0  0  0  0  0  0  0  0  0  0
    0.8883   -1.9117   -0.1901 N   0  0  0  0  0  0  0  0  0  0  0  0
    2.4947    0.2753    0.1362 N   0  0  0  0  0  0  0  0  0  0  0  0
    0.3283    1.8977   -0.2448 N   0  0  0  0  0  2  0  0  0  0  0  0
   -1.9936   -1.4782   -0.2710 C   0  0  0  0  0  0  0  0  0  0  0  0
   -3.3700   -1.3690    0.2188 C   0  0  0  0  0  0  0  0  0  0  0  0
   -3.4834   -0.0584    0.7733 C   0  0  0  0  0  0  0  0  0  0  0  0
   -2.2545    0.6416    0.4029 C   0  0  0  0  0  0  0  0  0  0  0  0
   -2.1128    2.0180    0.1637 C   0  0  0  0  0  0  0  0  0  0  0  0
   -0.8865    2.5499   -0.2931 C   0  0  0  0  0  0  0  0  0  0  0  0
   -0.7169    3.8766   -0.8420 C   0  0  0  0  0  0  0  0  0  0  0  0
   -1.5299    4.5841   -1.0306 H   0  0  0  0  0  0  0  0  0  0  0  0
    0.6251    4.0413   -1.0827 C   0  0  0  0  0  0  0  0  0  0  0  0
    1.1367    4.9141   -1.5004 H   0  0  0  0  0  0  0  0  0  0  0  0
    1.2774    2.8265   -0.6546 C   0  0  0  0  0  0  0  0  0  0  0  0
    2.6622    2.6640   -0.4979 C   0  0  0  0  0  0  0  0  0  0  0  0
    3.1931    1.4640    0.0089 C   0  0  0  0  0  0  0  0  0  0  0  0
    4.5510    1.2981    0.4720 C   0  0  0  0  0  0  0  0  0  0  0  0
    5.3023    2.0942    0.4946 H   0  0  0  0  0  0  0  0  0  0  0  0
    4.6812   -0.0102    0.8670 C   0  0  0  0  0  0  0  0  0  0  0  0
    5.5686   -0.5203    1.2558 H   0  0  0  0  0  0  0  0  0  0  0  0
    3.4126   -0.6516    0.6085 C   0  0  0  0  0  0  0  0  0  0  0  0
    3.2342   -2.0448    0.5763 C   0  0  0  0  0  0  0  0  0  0  0  0
    2.0609   -2.6090    0.0546 C   0  0  0  0  0  3  0  0  0  0  0  0
    1.9091   -3.9897   -0.3416 C   0  0  0  0  0  0  0  0  0  0  0  0
    2.6838   -4.7569   -0.2445 H   0  0  0  0  0  0  0  0  0  0  0  0
    0.6483   -4.1173   -0.8687 C   0  0  0  0  0  0  0  0  0  0  0  0
    0.1808   -5.0116   -1.2917 H   0  0  0  0  0  0  0  0  0  0  0  0
   -0.0073   -2.8385   -0.6948 C   0  0  0  0  0  0  0  0  0  0  0  0
   -1.3989   -2.6484   -0.7753 C   0  0  0  0  0  0  0  0  0  0  0  0
   -3.2822    2.9375    0.1875 C   0  0  0  0  0  0  0  0  0  0  0  0
   -4.4264    2.6552   -0.5890 C   0  0  0  0  0  0  0  0  0  0  0  0
   -4.4497    1.7392   -1.1974 H   0  0  0  0  0  0  0  0  0  0  0  0
   -5.5212    3.5299   -0.5903 C   0  0  0  0  0  0  0  0  0  0  0  0
   -6.4064    3.2943   -1.2005 H   0  0  0  0  0  0  0  0  0  0  0  0
   -5.4875    4.7048    0.1770 C   0  0  0  0  0  0  0  0  0  0  0  0
   -6.3496    5.3891    0.1786 H   0  0  0  0  0  0  0  0  0  0  0  0
   -4.3471    5.0050    0.9396 C   0  0  0  0  0  0  0  0  0  0  0  0
   -4.3141    5.9240    1.5447 H   0  0  0  0  0  0  0  0  0  0  0  0
   -3.2525    4.1312    0.9419 C   0  0  0  0  0  0  0  0  0  0  0  0
   -2.3667    4.3521    1.5557 H   0  0  0  0  0  0  0  0  0  0  0  0
    3.5878    3.7895   -0.8001 C   0  0  0  0  0  0  0  0  0  0  0  0
    3.4598    5.0380   -0.1513 C   0  0  0  0  0  0  0  0  0  0  0  0
    2.6658    5.1721    0.5983 H   0  0  0  0  0  0  0  0  0  0  0  0
    4.3450    6.0871   -0.4372 C   0  0  0  0  0  0  0  0  0  0  0  0
    4.2354    7.0502    0.0844 H   0  0  0  0  0  0  0  0  0  0  0  0
    5.3733    5.9082   -1.3763 C   0  0  0  0  0  0  0  0  0  0  0  0
    6.0671    6.7326   -1.6008 H   0  0  0  0  0  0  0  0  0  0  0  0
    5.5139    4.6708   -2.0247 C   0  0  0  0  0  0  0  0  0  0  0  0
    6.3154    4.5232   -2.7645 H   0  0  0  0  0  0  0  0  0  0  0  0
    4.6314    3.6200   -1.7376 C   0  0  0  0  0  0  0  0  0  0  0  0
    4.7357    2.6519   -2.2500 H   0  0  0  0  0  0  0  0  0  0  0  0
    4.3636   -2.9244    0.9974 C   0  0  0  0  0  0  0  0  0  0  0  0
    4.7066   -3.0276    2.3622 C   0  0  0  0  0  0  0  0  0  0  0  0
    4.1208   -2.4646    3.1045 H   0  0  0  0  0  0  0  0  0  0  0  0
    5.7749   -3.8397    2.7707 C   0  0  0  0  0  0  0  0  0  0  0  0
    6.0272   -3.9122    3.8397 H   0  0  0  0  0  0  0  0  0  0  0  0
    6.5166   -4.5608    1.8217 C   0  0  0  0  0  0  0  0  0  0  0  0
    7.3544   -5.1984    2.1426 H   0  0  0  0  0  0  0  0  0  0  0  0
    6.1869   -4.4611    0.4607 C   0  0  0  0  0  0  0  0  0  0  0  0
    6.7700   -5.0156   -0.2905 H   0  0  0  0  0  0  0  0  0  0  0  0
    5.1205   -3.6471    0.0507 C   0  0  0  0  0  0  0  0  0  0  0  0
    4.8729   -3.5537   -1.0174 H   0  0  0  0  0  0  0  0  0  0  0  0
   -2.2604   -3.7406   -1.3081 C   0  0  0  0  0  0  0  0  0  0  0  0
   -2.3687   -4.9898   -0.6585 C   0  0  0  0  0  0  0  0  0  0  0  0
   -1.8022   -5.1627    0.2685 H   0  0  0  0  0  0  0  0  0  0  0  0
   -3.2175   -5.9857   -1.1640 C   0  0  0  0  0  0  0  0  0  0  0  0
   -3.3000   -6.9501   -0.6399 H   0  0  0  0  0  0  0  0  0  0  0  0
   -3.9684   -5.7502   -2.3272 C   0  0  0  0  0  0  0  0  0  0  0  0
   -4.6358   -6.5313   -2.7217 H   0  0  0  0  0  0  0  0  0  0  0  0
   -3.8645   -4.5130   -2.9835 C   0  0  0  0  0  0  0  0  0  0  0  0
   -4.4480   -4.3223   -3.8971 H   0  0  0  0  0  0  0  0  0  0  0  0
   -3.0186   -3.5162   -2.4774 C   0  0  0  0  0  0  0  0  0  0  0  0
   -2.9404   -2.5426   -2.9840 H   0  0  0  0  0  0  0  0  0  0  0  0
   -4.6048    0.2407    1.5819 C   0  0  1  0  0  3  0  0  0  0  0  0
   -5.6517   -0.6862    1.6852 C   0  0  0  0  0  0  0  0  0  0  0  0
   -6.5170   -0.4350    2.3143 H   0  0  0  0  0  0  0  0  0  0  0  0
   -5.5692   -1.9320    1.0365 C   0  0  0  0  0  0  0  0  0  0  0  0
   -6.4030   -2.6434    1.1328 H   0  0  0  0  0  0  0  0  0  0  0  0
   -4.4214   -2.3013    0.3273 C   0  0  0  0  0  3  0  0  0  0  0  0
   -4.3462   -3.3030   -0.1092 H   0  0  0  0  0  0  0  0  0  0  0  0
  2  9  2  0  0  0  0
  3 25  1  0  0  0  0
  4 23  1  0  0  0  0
  6  2  1  0  0  0  0
  6  7  1  0  0  0  0
  7 81  1  0  0  0  0
  7  8  2  0  0  0  0
  8 76  1  0  0  0  0
  9  8  1  0  0  0  0
 10 32  1  0  0  0  0
 10  9  1  0  0  0  0
 11  5  1  0  0  0  0
 11 10  2  0  0  0  0
 12 11  1  0  0  0  0
 13 12  1  0  0  0  0
 14 12  2  0  0  0  0
 14 16  1  0  0  0  0
 15 14  1  0  0  0  0
 16 17  2  0  0  0  0
 16  5  1  0  0  0  0
 17 18  1  0  0  0  0
 18  4  2  0  0  0  0
 18 19  1  0  0  0  0
 19 20  1  0  0  0  0
 19 21  2  0  0  0  0
 21 22  1  0  0  0  0
 23 21  1  0  0  0  0
 24 23  2  0  0  0  0
 24 54  1  0  0  0  0
 25 24  1  0  0  0  0
 26 27  1  0  0  0  0
 26 25  1  0  0  0  0
 28 30  1  0  0  0  0
 28 26  2  0  0  0  0
 29 28  1  0  0  0  0
 30  3  2  0  0  0  0
 31 30  1  0  0  0  0
 31  6  2  0  0  0  0
 32 41  1  0  0  0  0
 33 32  2  0  0  0  0
 34 33  1  0  0  0  0
 35 33  1  0  0  0  0
 35 37  2  0  0  0  0
 36 35  1  0  0  0  0
 37 38  1  0  0  0  0
 37 39  1  0  0  0  0
 39 41  2  0  0  0  0
 39 40  1  0  0  0  0
 41 42  1  0  0  0  0
 43 17  1  0  0  0  0
 43 44  1  0  0  0  0
 44 45  1  0  0  0  0
 46 44  2  0  0  0  0
 46 47  1  0  0  0  0
 48 46  1  0  0  0  0
 49 48  1  0  0  0  0
 50 52  1  0  0  0  0
 50 48  2  0  0  0  0
 51 50  1  0  0  0  0
 52 43  2  0  0  0  0
 53 52  1  0  0  0  0
 54 55  1  0  0  0  0
 55 57  2  0  0  0  0
 55 56  1  0  0  0  0
 57 58  1  0  0  0  0
 59 60  1  0  0  0  0
 59 57  1  0  0  0  0
 61 59  2  0  0  0  0
 62 61  1  0  0  0  0
 63 61  1  0  0  0  0
 63 54  2  0  0  0  0
 64 63  1  0  0  0  0
 65 31  1  0  0  0  0
 65 66  1  0  0  0  0
 66 67  1  0  0  0  0
 68 66  2  0  0  0  0
 68 69  1  0  0  0  0
 70 68  1  0  0  0  0
 71 70  1  0  0  0  0
 72 74  1  0  0  0  0
 72 70  2  0  0  0  0
 73 72  1  0  0  0  0
 74 65  2  0  0  0  0
 75 74  1  0  0  0  0
 76 77  1  0  0  0  0
 76  1  1  1  0  0  0
 77 78  1  0  0  0  0
 79 80  1  0  0  0  0
 79 77  2  0  0  0  0
 81 79  1  0  0  0  0
 82 81  1  0  0  0  0
M  END
