1,21,28,29
 OpenBabel05122313063D

 47 50  0  0  1  0  0  0  0  0999 V2000
    1.7360   -1.2545   -0.0128 N   0  0  0  0  0  2  0  0  0  0  0  0
    1.3487   -2.5597   -0.1125 C   0  0  0  0  0  0  0  0  0  0  0  0
    2.0479   -3.5770   -0.1736 O   0  0  0  0  0  0  0  0  0  0  0  0
   -0.1650   -2.6151   -0.1531 C   0  0  2  0  0  3  0  0  0  0  0  0
   -0.8788   -3.8034   -0.2874 C   0  0  0  0  0  0  0  0  0  0  0  0
   -2.2824   -3.7414   -0.3163 C   0  0  0  0  0  0  0  0  0  0  0  0
   -2.9166   -2.4998   -0.1933 C   0  0  0  0  0  0  0  0  0  0  0  0
   -2.1465   -1.3253   -0.0577 C   0  0  0  0  0  0  0  0  0  0  0  0
   -2.8789   -0.0001    0.2273 C   0  0  1  0  0  0  0  0  0  0  0  0
   -4.1328   -0.0002   -0.4581 O   0  0  0  0  0  0  0  0  0  0  0  0
   -4.0537   -0.0002   -1.8786 C   0  0  0  0  0  0  0  0  0  0  0  0
   -3.2671   -0.0001    1.7388 C   0  0  0  0  0  0  0  0  0  0  0  0
   -2.0943    0.0011    2.7145 C   0  0  0  0  0  0  0  0  0  0  0  0
   -2.1466    1.3251   -0.0578 C   0  0  1  0  0  3  0  0  0  0  0  0
   -2.9167    2.4996   -0.1937 C   0  0  0  0  0  0  0  0  0  0  0  0
   -2.2825    3.7412   -0.3168 C   0  0  0  0  0  0  0  0  0  0  0  0
   -0.8790    3.8032   -0.2877 C   0  0  0  0  0  0  0  0  0  0  0  0
   -0.1651    2.6150   -0.1531 C   0  0  0  0  0  0  0  0  0  0  0  0
    1.3486    2.5596   -0.1126 C   0  0  0  0  0  0  0  0  0  0  0  0
    2.0477    3.5769   -0.1741 O   0  0  0  0  0  0  0  0  0  0  0  0
    1.7360    1.2546   -0.0121 N   0  0  0  0  0  2  0  0  0  0  0  0
    3.0308   -0.7159   -0.0062 C   0  0  0  0  0  0  0  0  0  0  0  0
    3.0307    0.7159   -0.0059 C   0  0  0  0  0  0  0  0  0  0  0  0
    4.2446    1.4259   -0.0112 C   0  0  0  0  0  0  0  0  0  0  0  0
    5.4504    0.7031   -0.0133 C   0  0  0  0  0  0  0  0  0  0  0  0
    5.4504   -0.7029   -0.0135 C   0  0  0  0  0  0  0  0  0  0  0  0
    4.2446   -1.4258   -0.0116 C   0  0  0  0  0  0  0  0  0  0  0  0
   -0.7999   -1.4064   -0.0515 N   0  0  0  0  0  2  0  0  0  0  0  0
   -0.7999    1.4063   -0.0514 N   0  0  0  0  0  2  0  0  0  0  0  0
   -0.3056   -4.7385   -0.3656 H   0  0  0  0  0  0  0  0  0  0  0  0
   -2.8816   -4.6576   -0.4262 H   0  0  0  0  0  0  0  0  0  0  0  0
   -4.0113   -2.4093   -0.1933 H   0  0  0  0  0  0  0  0  0  0  0  0
   -5.0958   -0.0014   -2.2499 H   0  0  0  0  0  0  0  0  0  0  0  0
   -3.5317   -0.9019   -2.2702 H   0  0  0  0  0  0  0  0  0  0  0  0
   -3.5336    0.9026   -2.2703 H   0  0  0  0  0  0  0  0  0  0  0  0
   -3.9110   -0.8905    1.8952 H   0  0  0  0  0  0  0  0  0  0  0  0
   -3.9123    0.8894    1.8948 H   0  0  0  0  0  0  0  0  0  0  0  0
   -1.4485   -0.8910    2.5919 H   0  0  0  0  0  0  0  0  0  0  0  0
   -1.4513    0.8954    2.5928 H   0  0  0  0  0  0  0  0  0  0  0  0
   -2.4686   -0.0000    3.7568 H   0  0  0  0  0  0  0  0  0  0  0  0
   -4.0114    2.4090   -0.1937 H   0  0  0  0  0  0  0  0  0  0  0  0
   -2.8818    4.6573   -0.4268 H   0  0  0  0  0  0  0  0  0  0  0  0
   -0.3058    4.7384   -0.3660 H   0  0  0  0  0  0  0  0  0  0  0  0
    4.2191    2.5229   -0.0179 H   0  0  0  0  0  0  0  0  0  0  0  0
    6.4053    1.2505   -0.0163 H   0  0  0  0  0  0  0  0  0  0  0  0
    6.4053   -1.2503   -0.0165 H   0  0  0  0  0  0  0  0  0  0  0  0
    4.2192   -2.5228   -0.0185 H   0  0  0  0  0  0  0  0  0  0  0  0
  1 22  1  0  0  0  0
  2  1  1  0  0  0  0
  3  2  2  0  0  0  0
  4  5  1  6  0  0  0
  4  2  1  0  0  0  0
  4 28  1  0  0  0  0
  6  5  2  0  0  0  0
  6  7  1  0  0  0  0
  7  8  2  0  0  0  0
  8 28  1  0  0  0  0
  8  9  1  0  0  0  0
  9 10  1  6  0  0  0
  9 12  1  0  0  0  0
 11 10  1  0  0  0  0
 12 37  1  0  0  0  0
 12 36  1  0  0  0  0
 12 13  1  0  0  0  0
 13 40  1  0  0  0  0
 14 15  1  1  0  0  0
 14 29  1  0  0  0  0
 14  9  1  0  0  0  0
 16 17  1  0  0  0  0
 16 15  2  0  0  0  0
 17 18  2  0  0  0  0
 18 19  1  0  0  0  0
 18 29  1  0  0  0  0
 19 21  1  0  0  0  0
 20 19  2  0  0  0  0
 21 23  1  0  0  0  0
 22 23  1  0  0  0  0
 24 23  2  0  0  0  0
 25 24  1  0  0  0  0
 26 25  2  0  0  0  0
 26 27  1  0  0  0  0
 27 22  2  0  0  0  0
 30  5  1  0  0  0  0
 31  6  1  0  0  0  0
 32  7  1  0  0  0  0
 33 11  1  0  0  0  0
 34 11  1  0  0  0  0
 35 11  1  0  0  0  0
 38 13  1  0  0  0  0
 39 13  1  0  0  0  0
 41 15  1  0  0  0  0
 42 16  1  0  0  0  0
 43 17  1  0  0  0  0
 44 24  1  0  0  0  0
 45 25  1  0  0  0  0
 46 26  1  0  0  0  0
 47 27  1  0  0  0  0
M  END
