3,4,5,6
 OpenBabel05122313063D

 46 48  0  0  0  0  0  0  0  0999 V2000
   -5.7283   -0.3307   -1.3874 O   0  0  0  0  0  0  0  0  0  0  0  0
   -4.8255    0.1882    0.6327 O   0  0  0  0  0  0  0  0  0  0  0  0
    1.6330   -0.0897   -1.6776 N   0  0  0  0  0  0  0  0  0  0  0  0
    1.5418    1.8909    0.2963 N   0  0  0  0  0  2  0  0  0  0  0  0
    1.9970   -1.5296    0.6913 N   0  0  0  0  0  2  0  0  0  0  0  0
   -0.9674   -0.3179   -0.7008 N   0  0  0  0  0  2  0  0  0  0  0  0
    1.7960    2.7201    1.3297 C   0  0  0  0  0  3  0  0  0  0  0  0
    2.4690    3.9377    1.1792 C   0  0  0  0  0  0  0  0  0  0  0  0
    2.9055    4.3076   -0.1012 C   0  0  0  0  0  0  0  0  0  0  0  0
    2.6485    3.4438   -1.1751 C   0  0  0  0  0  0  0  0  0  0  0  0
    1.9568    2.2448   -0.9442 C   0  0  0  0  0  0  0  0  0  0  0  0
    1.5971    1.3032   -2.0822 C   0  0  0  0  0  0  0  0  0  0  0  0
    1.9655   -2.4203    1.7038 C   0  0  0  0  0  3  0  0  0  0  0  0
    2.8228   -3.5242    1.7735 C   0  0  0  0  0  0  0  0  0  0  0  0
    3.7507   -3.7170    0.7399 C   0  0  0  0  0  0  0  0  0  0  0  0
    3.7834   -2.7943   -0.3149 C   0  0  0  0  0  0  0  0  0  0  0  0
    2.8984   -1.7050   -0.3047 C   0  0  0  0  0  0  0  0  0  0  0  0
    2.9443   -0.6366   -1.3852 C   0  0  0  0  0  0  0  0  0  0  0  0
   -2.2396   -0.1352   -0.3020 C   0  0  0  0  0  3  0  0  0  0  0  0
   -3.3456   -0.3669   -1.1322 C   0  0  0  0  0  0  0  0  0  0  0  0
   -3.1080   -0.7903   -2.4530 C   0  0  0  0  0  0  0  0  0  0  0  0
   -1.7861   -0.9642   -2.8740 C   0  0  0  0  0  0  0  0  0  0  0  0
   -0.7345   -0.7308   -1.9716 C   0  0  0  0  0  0  0  0  0  0  0  0
    0.7131   -0.9769   -2.3603 C   0  0  0  0  0  0  0  0  0  0  0  0
   -4.7572   -0.1753   -0.6729 C   0  0  0  0  0  0  0  0  0  0  0  0
   -6.1583    0.4018    1.1317 C   0  0  0  0  0  0  0  0  0  0  0  0
    1.4411    2.3808    2.3165 H   0  0  0  0  0  0  0  0  0  0  0  0
    2.6524    4.5774    2.0543 H   0  0  0  0  0  0  0  0  0  0  0  0
    3.4455    5.2525   -0.2613 H   0  0  0  0  0  0  0  0  0  0  0  0
    2.9815    3.6936   -2.1938 H   0  0  0  0  0  0  0  0  0  0  0  0
    2.2419    1.5258   -2.9677 H   0  0  0  0  0  0  0  0  0  0  0  0
    0.5551    1.5363   -2.3937 H   0  0  0  0  0  0  0  0  0  0  0  0
    1.2166   -2.2283    2.4893 H   0  0  0  0  0  0  0  0  0  0  0  0
    2.7565   -4.2207    2.6214 H   0  0  0  0  0  0  0  0  0  0  0  0
    4.4370   -4.5767    0.7517 H   0  0  0  0  0  0  0  0  0  0  0  0
    4.4936   -2.9120   -1.1473 H   0  0  0  0  0  0  0  0  0  0  0  0
    3.5774    0.1952   -1.0056 H   0  0  0  0  0  0  0  0  0  0  0  0
    3.4696   -1.0387   -2.2860 H   0  0  0  0  0  0  0  0  0  0  0  0
   -2.3879    0.2166    0.7286 H   0  0  0  0  0  0  0  0  0  0  0  0
   -3.9651   -0.9661   -3.1199 H   0  0  0  0  0  0  0  0  0  0  0  0
   -1.5599   -1.2845   -3.9021 H   0  0  0  0  0  0  0  0  0  0  0  0
    0.8083   -0.9490   -3.4738 H   0  0  0  0  0  0  0  0  0  0  0  0
    0.9626   -2.0184   -2.0587 H   0  0  0  0  0  0  0  0  0  0  0  0
   -6.7600   -0.5245    1.0465 H   0  0  0  0  0  0  0  0  0  0  0  0
   -6.0463    0.6961    2.1899 H   0  0  0  0  0  0  0  0  0  0  0  0
   -6.6655    1.2025    0.5583 H   0  0  0  0  0  0  0  0  0  0  0  0
  1 25  2  0  0  0  0
  2 26  1  0  0  0  0
  3 18  1  0  0  0  0
  4  7  1  0  0  0  0
  5 13  1  0  0  0  0
  6 19  1  0  0  0  0
  7 27  1  0  0  0  0
  8  7  1  0  0  0  0
  8 28  1  0  0  0  0
  9  8  2  0  0  0  0
 10 11  2  0  0  0  0
 10  9  1  0  0  0  0
 11  4  1  0  0  0  0
 12  3  1  0  0  0  0
 12 11  1  0  0  0  0
 13 14  1  0  0  0  0
 13 33  1  0  0  0  0
 14 34  1  0  0  0  0
 15 35  1  0  0  0  0
 15 14  2  0  0  0  0
 16 17  2  0  0  0  0
 16 15  1  0  0  0  0
 17  5  1  0  0  0  0
 18 37  1  0  0  0  0
 18 17  1  0  0  0  0
 19 39  1  0  0  0  0
 20 25  1  0  0  0  0
 20 19  1  0  0  0  0
 21 20  2  0  0  0  0
 22 21  1  0  0  0  0
 22 23  2  0  0  0  0
 23  6  1  0  0  0  0
 24 43  1  0  0  0  0
 24 23  1  0  0  0  0
 24  3  1  0  0  0  0
 25  2  1  0  0  0  0
 26 45  1  0  0  0  0
 29  9  1  0  0  0  0
 30 10  1  0  0  0  0
 31 12  1  0  0  0  0
 32 12  1  0  0  0  0
 36 16  1  0  0  0  0
 38 18  1  0  0  0  0
 40 21  1  0  0  0  0
 41 22  1  0  0  0  0
 42 24  1  0  0  0  0
 44 26  1  0  0  0  0
 46 26  1  0  0  0  0
M  END
