2,3,22,39
 OpenBabel05122313063D

 42 43  0  0  1  0  0  0  0  0999 V2000
   -2.3874    2.0855   -1.2145 F   0  0  0  0  0  0  0  0  0  0  0  0
   -1.9879    0.0746   -0.1784 N   0  0  0  0  0  2  0  0  0  0  0  0
   -0.3186   -1.3784    1.2832 N   0  0  0  0  0  0  0  0  0  0  0  0
   -2.5571   -1.0337    0.4111 C   0  0  1  0  0  3  0  0  0  0  0  0
   -3.9353   -1.2423    0.4956 C   0  0  0  0  0  0  0  0  0  0  0  0
   -4.3074   -2.1477    0.9958 H   0  0  0  0  0  0  0  0  0  0  0  0
   -4.8133   -0.3138   -0.0820 C   0  0  0  0  0  0  0  0  0  0  0  0
   -5.9023   -0.4611   -0.0532 H   0  0  0  0  0  0  0  0  0  0  0  0
   -4.2566    0.8140   -0.6918 C   0  0  0  0  0  0  0  0  0  0  0  0
   -4.8620    1.6012   -1.1607 H   0  0  0  0  0  0  0  0  0  0  0  0
   -2.8648    0.9640   -0.6943 C   0  0  0  0  0  0  0  0  0  0  0  0
   -1.5771   -2.0499    0.9002 C   0  0  0  0  0  0  0  0  0  0  0  0
   -1.9940   -2.6645    1.7316 H   0  0  0  0  0  0  0  0  0  0  0  0
   -1.3215   -2.6937    0.0273 H   0  0  0  0  0  0  0  0  0  0  0  0
    0.7452   -2.3869    1.4220 C   0  0  0  0  0  0  0  0  0  0  0  0
    0.4639   -3.1602    2.1735 H   0  0  0  0  0  0  0  0  0  0  0  0
    1.6864   -1.9054    1.7450 H   0  0  0  0  0  0  0  0  0  0  0  0
    0.9011   -2.8524    0.4319 H   0  0  0  0  0  0  0  0  0  0  0  0
   -0.4933   -0.5770    2.5203 C   0  0  0  0  0  0  0  0  0  0  0  0
   -0.3723   -1.2085    3.4304 H   0  0  0  0  0  0  0  0  0  0  0  0
   -1.5326   -0.1902    2.5327 H   0  0  0  0  0  0  0  0  0  0  0  0
    0.3183    1.3776    1.2836 N   0  0  0  0  0  0  0  0  0  0  0  0
    2.5570    1.0337    0.4116 C   0  0  1  0  0  3  0  0  0  0  0  0
    3.9351    1.2426    0.4963 C   0  0  0  0  0  0  0  0  0  0  0  0
    4.3069    2.1480    0.9968 H   0  0  0  0  0  0  0  0  0  0  0  0
    4.8134    0.3146   -0.0816 C   0  0  0  0  0  0  0  0  0  0  0  0
    5.9023    0.4624   -0.0526 H   0  0  0  0  0  0  0  0  0  0  0  0
    1.5767    2.0495    0.9009 C   0  0  0  0  0  0  0  0  0  0  0  0
    1.9934    2.6639    1.7325 H   0  0  0  0  0  0  0  0  0  0  0  0
    1.3211    2.6935    0.0281 H   0  0  0  0  0  0  0  0  0  0  0  0
   -0.7458    2.3858    1.4225 C   0  0  0  0  0  0  0  0  0  0  0  0
   -0.4648    3.1590    2.1741 H   0  0  0  0  0  0  0  0  0  0  0  0
   -1.6868    1.9040    1.7453 H   0  0  0  0  0  0  0  0  0  0  0  0
   -0.9017    2.8515    0.4324 H   0  0  0  0  0  0  0  0  0  0  0  0
    0.4930    0.5759    2.5205 C   0  0  0  0  0  0  0  0  0  0  0  0
    0.3719    1.2071    3.4308 H   0  0  0  0  0  0  0  0  0  0  0  0
    1.5322    0.1891    2.5329 H   0  0  0  0  0  0  0  0  0  0  0  0
    2.3887   -2.0851   -1.2152 F   0  0  0  0  0  0  0  0  0  0  0  0
    1.9881   -0.0746   -0.1784 N   0  0  0  0  0  2  0  0  0  0  0  0
    4.2572   -0.8131   -0.6919 C   0  0  0  0  0  0  0  0  0  0  0  0
    4.8628   -1.5999   -1.1610 H   0  0  0  0  0  0  0  0  0  0  0  0
    2.8654   -0.9635   -0.6946 C   0  0  0  0  0  0  0  0  0  0  0  0
  1 11  1  0  0  0  0
  2  4  1  0  0  0  0
  3 15  1  0  0  0  0
  3 19  1  0  0  0  0
  4  5  1  0  0  0  0
  4 12  1  6  0  0  0
  5  6  1  0  0  0  0
  7  8  1  0  0  0  0
  7  5  2  0  0  0  0
  9  7  1  0  0  0  0
 10  9  1  0  0  0  0
 11  9  2  0  0  0  0
 11  2  1  0  0  0  0
 12  3  1  0  0  0  0
 12 13  1  0  0  0  0
 14 12  1  0  0  0  0
 15 17  1  0  0  0  0
 15 16  1  0  0  0  0
 18 15  1  0  0  0  0
 19 35  1  0  0  0  0
 19 21  1  0  0  0  0
 19 20  1  0  0  0  0
 22 31  1  0  0  0  0
 22 35  1  0  0  0  0
 23 24  1  0  0  0  0
 23 28  1  6  0  0  0
 24 25  1  0  0  0  0
 26 27  1  0  0  0  0
 26 24  2  0  0  0  0
 28 22  1  0  0  0  0
 28 29  1  0  0  0  0
 30 28  1  0  0  0  0
 31 33  1  0  0  0  0
 31 32  1  0  0  0  0
 34 31  1  0  0  0  0
 35 37  1  0  0  0  0
 35 36  1  0  0  0  0
 38 42  1  0  0  0  0
 39 23  1  0  0  0  0
 40 26  1  0  0  0  0
 41 40  1  0  0  0  0
 42 40  2  0  0  0  0
 42 39  1  0  0  0  0
M  END
