2,3,44,45
 OpenBabel05122313063D

 84 87  0  0  0  0  0  0  0  0999 V2000
   -0.0188   -2.7439    1.6041 O   0  0  0  0  0  0  0  0  0  0  0  0
   -1.3023   -1.2253    0.3162 N   0  0  0  0  0  2  0  0  0  0  0  0
   -1.3215    1.3524   -0.3539 N   0  0  0  0  0  0  0  0  0  0  0  0
   -1.0581   -2.4621    1.0261 C   0  0  0  0  0  0  0  0  0  0  0  0
   -2.3020   -3.2805    0.9620 C   0  0  0  0  0  0  0  0  0  0  0  0
   -3.2433   -2.5321    0.3125 C   0  0  0  0  0  0  0  0  0  0  0  0
   -2.6042   -1.2494   -0.0653 C   0  0  0  0  0  0  0  0  0  0  0  0
   -3.2274   -0.1649   -0.6836 C   0  0  0  0  0  0  0  0  0  0  0  0
   -2.6155    1.0928   -0.7824 C   0  0  0  0  0  0  0  0  0  0  0  0
   -3.2647    2.3251   -1.2025 C   0  0  0  0  0  0  0  0  0  0  0  0
   -2.3555    3.3453   -0.9758 C   0  0  0  0  0  0  0  0  0  0  0  0
   -1.1521    2.7200   -0.4404 C   0  0  0  0  0  3  0  0  0  0  0  0
    0.0001    3.3773   -0.0000 C   0  0  0  0  0  3  0  0  0  0  0  0
   -2.3905   -4.6231    1.6114 C   0  0  0  0  0  0  0  0  0  0  0  0
   -2.5073   -4.5407    3.1432 C   0  0  0  0  0  0  0  0  0  0  0  0
   -4.6822   -2.8563    0.0521 C   0  0  0  0  0  0  0  0  0  0  0  0
   -5.6379   -2.2068    1.0694 C   0  0  0  0  0  0  0  0  0  0  0  0
   -4.6822    2.4297   -1.6844 C   0  0  0  0  0  0  0  0  0  0  0  0
   -5.7177    2.4717   -0.5468 C   0  0  0  0  0  0  0  0  0  0  0  0
   -2.5540    4.8221   -1.1473 C   0  0  0  0  0  0  0  0  0  0  0  0
   -2.9590    5.5412    0.1519 C   0  0  0  0  0  0  0  0  0  0  0  0
   -4.2718   -0.2633   -1.0083 H   0  0  0  0  0  0  0  0  0  0  0  0
    0.0001    4.4762   -0.0000 H   0  0  0  0  0  0  0  0  0  0  0  0
   -1.4735   -5.1955    1.3533 H   0  0  0  0  0  0  0  0  0  0  0  0
   -3.2512   -5.1858    1.1926 H   0  0  0  0  0  0  0  0  0  0  0  0
   -2.5440   -5.5521    3.5961 H   0  0  0  0  0  0  0  0  0  0  0  0
   -1.6353   -4.0052    3.5676 H   0  0  0  0  0  0  0  0  0  0  0  0
   -3.4242   -3.9945    3.4457 H   0  0  0  0  0  0  0  0  0  0  0  0
   -4.8151   -3.9577    0.0711 H   0  0  0  0  0  0  0  0  0  0  0  0
   -4.9561   -2.5305   -0.9748 H   0  0  0  0  0  0  0  0  0  0  0  0
   -6.6928   -2.4630    0.8446 H   0  0  0  0  0  0  0  0  0  0  0  0
   -5.4108   -2.5512    2.0982 H   0  0  0  0  0  0  0  0  0  0  0  0
   -5.5448   -1.1018    1.0635 H   0  0  0  0  0  0  0  0  0  0  0  0
   -4.9107    1.5772   -2.3599 H   0  0  0  0  0  0  0  0  0  0  0  0
   -4.7875    3.3425   -2.3081 H   0  0  0  0  0  0  0  0  0  0  0  0
   -6.7505    2.5423   -0.9446 H   0  0  0  0  0  0  0  0  0  0  0  0
   -5.6568    1.5635    0.0870 H   0  0  0  0  0  0  0  0  0  0  0  0
   -5.5444    3.3438    0.1152 H   0  0  0  0  0  0  0  0  0  0  0  0
   -3.3317    4.9971   -1.9202 H   0  0  0  0  0  0  0  0  0  0  0  0
   -1.6230    5.2797   -1.5461 H   0  0  0  0  0  0  0  0  0  0  0  0
   -3.0867    6.6301   -0.0145 H   0  0  0  0  0  0  0  0  0  0  0  0
   -3.9142    5.1397    0.5458 H   0  0  0  0  0  0  0  0  0  0  0  0
   -2.1950    5.4025    0.9434 H   0  0  0  0  0  0  0  0  0  0  0  0
    1.3022   -1.2254   -0.3162 N   0  0  0  0  0  2  0  0  0  0  0  0
    1.3216    1.3524    0.3540 N   0  0  0  0  0  0  0  0  0  0  0  0
    1.1522    2.7199    0.4404 C   0  0  0  0  0  0  0  0  0  0  0  0
    1.0580   -2.4621   -1.0261 C   0  0  0  0  0  0  0  0  0  0  0  0
    2.6041   -1.2496    0.0653 C   0  0  0  0  0  0  0  0  0  0  0  0
    2.6155    1.0927    0.7824 C   0  0  0  0  0  3  0  0  0  0  0  0
    2.3556    3.3452    0.9758 C   0  0  0  0  0  0  0  0  0  0  0  0
    0.0187   -2.7439   -1.6041 O   0  0  0  0  0  0  0  0  0  0  0  0
    2.3019   -3.2806   -0.9620 C   0  0  0  0  0  0  0  0  0  0  0  0
    3.2432   -2.5322   -0.3125 C   0  0  0  0  0  0  0  0  0  0  0  0
    3.2274   -0.1651    0.6836 C   0  0  0  0  0  0  0  0  0  0  0  0
    3.2648    2.3250    1.2025 C   0  0  0  0  0  0  0  0  0  0  0  0
    2.5542    4.8220    1.1473 C   0  0  0  0  0  0  0  0  0  0  0  0
    2.3904   -4.6231   -1.6115 C   0  0  0  0  0  0  0  0  0  0  0  0
    4.6821   -2.8565   -0.0521 C   0  0  0  0  0  0  0  0  0  0  0  0
    4.2718   -0.2635    1.0083 H   0  0  0  0  0  0  0  0  0  0  0  0
    4.6823    2.4295    1.6844 C   0  0  0  0  0  0  0  0  0  0  0  0
    2.9593    5.5411   -0.1519 C   0  0  0  0  0  0  0  0  0  0  0  0
    3.3320    4.9970    1.9202 H   0  0  0  0  0  0  0  0  0  0  0  0
    1.6232    5.2797    1.5461 H   0  0  0  0  0  0  0  0  0  0  0  0
    2.5071   -4.5406   -3.1433 C   0  0  0  0  0  0  0  0  0  0  0  0
    1.4734   -5.1955   -1.3534 H   0  0  0  0  0  0  0  0  0  0  0  0
    3.2510   -5.1859   -1.1928 H   0  0  0  0  0  0  0  0  0  0  0  0
    5.6378   -2.2070   -1.0693 C   0  0  0  0  0  0  0  0  0  0  0  0
    4.8150   -3.9579   -0.0712 H   0  0  0  0  0  0  0  0  0  0  0  0
    4.9560   -2.5307    0.9748 H   0  0  0  0  0  0  0  0  0  0  0  0
    5.7178    2.4714    0.5468 C   0  0  0  0  0  0  0  0  0  0  0  0
    4.9108    1.5770    2.3599 H   0  0  0  0  0  0  0  0  0  0  0  0
    4.7876    3.3423    2.3081 H   0  0  0  0  0  0  0  0  0  0  0  0
    3.0870    6.6300    0.0145 H   0  0  0  0  0  0  0  0  0  0  0  0
    3.9145    5.1395   -0.5458 H   0  0  0  0  0  0  0  0  0  0  0  0
    2.1953    5.4024   -0.9434 H   0  0  0  0  0  0  0  0  0  0  0  0
    2.5438   -5.5521   -3.5962 H   0  0  0  0  0  0  0  0  0  0  0  0
    1.6351   -4.0051   -3.5677 H   0  0  0  0  0  0  0  0  0  0  0  0
    3.4240   -3.9944   -3.4457 H   0  0  0  0  0  0  0  0  0  0  0  0
    6.6927   -2.4632   -0.8446 H   0  0  0  0  0  0  0  0  0  0  0  0
    5.4107   -2.5514   -2.0982 H   0  0  0  0  0  0  0  0  0  0  0  0
    5.5448   -1.1019   -1.0634 H   0  0  0  0  0  0  0  0  0  0  0  0
    6.7506    2.5420    0.9446 H   0  0  0  0  0  0  0  0  0  0  0  0
    5.6569    1.5632   -0.0870 H   0  0  0  0  0  0  0  0  0  0  0  0
    5.5445    3.3436   -0.1152 H   0  0  0  0  0  0  0  0  0  0  0  0
  2  4  1  0  0  0  0
  4  1  2  0  0  0  0
  5  4  1  0  0  0  0
  5 14  1  0  0  0  0
  6  5  2  0  0  0  0
  7  6  1  0  0  0  0
  7  2  1  0  0  0  0
  8  7  2  0  0  0  0
  9  8  1  0  0  0  0
  9  3  2  0  0  0  0
 10 11  2  0  0  0  0
 10  9  1  0  0  0  0
 11 12  1  0  0  0  0
 12  3  1  0  0  0  0
 12 13  1  0  0  0  0
 13 46  1  0  0  0  0
 14 15  1  0  0  0  0
 15 28  1  0  0  0  0
 15 27  1  0  0  0  0
 15 26  1  0  0  0  0
 16 29  1  0  0  0  0
 16  6  1  0  0  0  0
 16 17  1  0  0  0  0
 17 32  1  0  0  0  0
 18 10  1  0  0  0  0
 18 19  1  0  0  0  0
 19 37  1  0  0  0  0
 19 38  1  0  0  0  0
 20 11  1  0  0  0  0
 20 21  1  0  0  0  0
 21 42  1  0  0  0  0
 21 43  1  0  0  0  0
 22  8  1  0  0  0  0
 23 13  1  0  0  0  0
 24 14  1  0  0  0  0
 25 14  1  0  0  0  0
 30 16  1  0  0  0  0
 31 17  1  0  0  0  0
 33 17  1  0  0  0  0
 34 18  1  0  0  0  0
 35 18  1  0  0  0  0
 36 19  1  0  0  0  0
 39 20  1  0  0  0  0
 40 20  1  0  0  0  0
 41 21  1  0  0  0  0
 44 48  1  0  0  0  0
 45 46  2  0  0  0  0
 45 49  1  0  0  0  0
 46 50  1  0  0  0  0
 47 52  1  0  0  0  0
 47 44  1  0  0  0  0
 48 54  2  0  0  0  0
 49 55  1  0  0  0  0
 50 56  1  0  0  0  0
 50 55  2  0  0  0  0
 51 47  2  0  0  0  0
 52 53  2  0  0  0  0
 53 58  1  0  0  0  0
 53 48  1  0  0  0  0
 54 49  1  0  0  0  0
 54 59  1  0  0  0  0
 55 60  1  0  0  0  0
 56 63  1  0  0  0  0
 56 62  1  0  0  0  0
 57 65  1  0  0  0  0
 57 66  1  0  0  0  0
 57 52  1  0  0  0  0
 58 69  1  0  0  0  0
 60 72  1  0  0  0  0
 60 71  1  0  0  0  0
 61 73  1  0  0  0  0
 61 56  1  0  0  0  0
 64 57  1  0  0  0  0
 67 81  1  0  0  0  0
 67 79  1  0  0  0  0
 67 58  1  0  0  0  0
 68 58  1  0  0  0  0
 70 82  1  0  0  0  0
 70 60  1  0  0  0  0
 74 61  1  0  0  0  0
 75 61  1  0  0  0  0
 76 64  1  0  0  0  0
 77 64  1  0  0  0  0
 78 64  1  0  0  0  0
 80 67  1  0  0  0  0
 83 70  1  0  0  0  0
 84 70  1  0  0  0  0
M  END
