1,2,3,4
 OpenBabel05122313063D

 45 46  0  0  1  0  0  0  0  0999 V2000
    1.2415   -1.1120   -0.5259 N   0  0  0  0  0  2  0  0  0  0  0  0
    1.7240    1.1802    0.7206 N   0  0  0  0  0  0  0  0  0  0  0  0
   -0.4533   -0.7279    1.7424 N   0  0  0  0  0  0  0  0  0  0  0  0
   -1.5364   -0.4611   -0.6188 N   0  0  0  0  0  2  0  0  0  0  0  0
    0.8595   -2.3235   -0.9982 C   0  0  0  0  0  3  0  0  0  0  0  0
    1.7793   -3.2942   -1.3998 C   0  0  0  0  0  0  0  0  0  0  0  0
    3.1496   -3.0087   -1.3040 C   0  0  0  0  0  0  0  0  0  0  0  0
    3.5423   -1.7597   -0.8093 C   0  0  0  0  0  0  0  0  0  0  0  0
    2.5661   -0.8263   -0.4297 C   0  0  0  0  0  0  0  0  0  0  0  0
    2.9249    0.5518    0.0731 C   0  0  1  0  0  0  0  0  0  0  0  0
    3.4682    1.4478   -1.0495 C   0  0  0  0  0  0  0  0  0  0  0  0
    1.8428    1.3906    2.1812 C   0  0  0  0  0  0  0  0  0  0  0  0
    1.5569    0.1314    2.9914 C   0  0  0  0  0  0  0  0  0  0  0  0
    0.0748   -0.2274    3.0362 C   0  0  0  0  0  0  0  0  0  0  0  0
   -1.9543   -0.7970    1.7346 C   0  0  2  0  0  0  0  0  0  0  0  0
   -2.5292   -1.8208    2.7102 C   0  0  0  0  0  0  0  0  0  0  0  0
   -2.3927   -0.9796    0.2983 C   0  0  1  0  0  3  0  0  0  0  0  0
   -3.5964   -1.5704   -0.1082 C   0  0  0  0  0  0  0  0  0  0  0  0
   -3.9191   -1.6024   -1.4731 C   0  0  0  0  0  0  0  0  0  0  0  0
   -3.0246   -1.0515   -2.4010 C   0  0  0  0  0  0  0  0  0  0  0  0
   -1.8320   -0.4886   -1.9372 C   0  0  0  0  0  0  0  0  0  0  0  0
    3.7661    2.4343   -0.6408 H   0  0  0  0  0  0  0  0  0  0  0  0
    2.6949    1.5910   -1.8287 H   0  0  0  0  0  0  0  0  0  0  0  0
    4.3647    0.9911   -1.5104 H   0  0  0  0  0  0  0  0  0  0  0  0
   -2.2001   -1.6204    3.7465 H   0  0  0  0  0  0  0  0  0  0  0  0
   -3.6343   -1.7665    2.7218 H   0  0  0  0  0  0  0  0  0  0  0  0
   -2.2401   -2.8565    2.4368 H   0  0  0  0  0  0  0  0  0  0  0  0
   -0.2221   -2.5087   -1.0619 H   0  0  0  0  0  0  0  0  0  0  0  0
    1.4189   -4.2594   -1.7822 H   0  0  0  0  0  0  0  0  0  0  0  0
    3.9020   -3.7507   -1.6089 H   0  0  0  0  0  0  0  0  0  0  0  0
    4.6066   -1.4994   -0.7136 H   0  0  0  0  0  0  0  0  0  0  0  0
    3.7127    0.4377    0.8497 H   0  0  0  0  0  0  0  0  0  0  0  0
    1.5991    2.1034    0.2807 H   0  0  0  0  0  0  0  0  0  0  0  0
    1.1124    2.1792    2.4490 H   0  0  0  0  0  0  0  0  0  0  0  0
    2.8586    1.7806    2.4083 H   0  0  0  0  0  0  0  0  0  0  0  0
    1.8865    0.3112    4.0346 H   0  0  0  0  0  0  0  0  0  0  0  0
    2.1668   -0.7270    2.6309 H   0  0  0  0  0  0  0  0  0  0  0  0
   -0.1041   -0.9837    3.8285 H   0  0  0  0  0  0  0  0  0  0  0  0
   -0.5165    0.6739    3.2941 H   0  0  0  0  0  0  0  0  0  0  0  0
   -0.0891   -1.6841    1.5967 H   0  0  0  0  0  0  0  0  0  0  0  0
   -2.2757    0.2299    2.0185 H   0  0  0  0  0  0  0  0  0  0  0  0
   -4.2827   -1.9920    0.6378 H   0  0  0  0  0  0  0  0  0  0  0  0
   -4.8655   -2.0532   -1.8064 H   0  0  0  0  0  0  0  0  0  0  0  0
   -3.2407   -1.0502   -3.4784 H   0  0  0  0  0  0  0  0  0  0  0  0
   -1.0834   -0.0329   -2.6029 H   0  0  0  0  0  0  0  0  0  0  0  0
  1  9  1  0  0  0  0
  2 12  1  0  0  0  0
  3 14  1  0  0  0  0
  4 17  1  0  0  0  0
  5  1  1  0  0  0  0
  6  7  2  0  0  0  0
  6  5  1  0  0  0  0
  7  8  1  0  0  0  0
  8 31  1  0  0  0  0
  8  9  2  0  0  0  0
  9 10  1  0  0  0  0
 10  2  1  0  0  0  0
 10 32  1  1  0  0  0
 11 22  1  0  0  0  0
 11 10  1  0  0  0  0
 12 35  1  0  0  0  0
 12 34  1  0  0  0  0
 12 13  1  0  0  0  0
 13 14  1  0  0  0  0
 13 36  1  0  0  0  0
 14 39  1  0  0  0  0
 14 38  1  0  0  0  0
 15  3  1  0  0  0  0
 15 41  1  1  0  0  0
 15 16  1  0  0  0  0
 16 26  1  0  0  0  0
 16 25  1  0  0  0  0
 17 15  1  1  0  0  0
 18 17  1  0  0  0  0
 18 42  1  0  0  0  0
 19 18  2  0  0  0  0
 20 21  2  0  0  0  0
 20 19  1  0  0  0  0
 21  4  1  0  0  0  0
 23 11  1  0  0  0  0
 24 11  1  0  0  0  0
 27 16  1  0  0  0  0
 28  5  1  0  0  0  0
 29  6  1  0  0  0  0
 30  7  1  0  0  0  0
 33  2  1  0  0  0  0
 37 13  1  0  0  0  0
 40  3  1  0  0  0  0
 43 19  1  0  0  0  0
 44 20  1  0  0  0  0
 45 21  1  0  0  0  0
M  END
