1,2,3,4
 OpenBabel05122313063D

 75 83  0  0  0  0  0  0  0  0999 V2000
    1.4404    1.4405   -0.0106 N   0  0  0  0  0  2  0  0  0  0  0  0
    1.4434   -1.4426    0.0100 N   0  0  0  0  0  0  0  0  0  0  0  0
   -1.4412   -1.4448   -0.0100 N   0  0  0  0  0  0  0  0  0  0  0  0
   -1.4426    1.4383    0.0106 N   0  0  0  0  0  0  0  0  0  0  0  0
    1.2373    2.8067   -0.0736 C   0  0  0  0  0  0  0  0  0  0  0  0
    2.5099    3.4819   -0.2234 C   0  0  0  0  0  0  0  0  0  0  0  0
    2.6334    4.5639   -0.3315 H   0  0  0  0  0  0  0  0  0  0  0  0
    3.4798    2.5136   -0.2234 C   0  0  0  0  0  0  0  0  0  0  0  0
    4.5617    2.6388   -0.3314 H   0  0  0  0  0  0  0  0  0  0  0  0
    2.8067    1.2399   -0.0737 C   0  0  0  0  0  0  0  0  0  0  0  0
    3.4709    0.0009   -0.0005 C   0  0  0  0  0  0  0  0  0  0  0  0
    2.8097   -1.2390    0.0725 C   0  0  0  0  0  0  0  0  0  0  0  0
    3.4854   -2.5117    0.2187 C   0  0  0  0  0  0  0  0  0  0  0  0
    4.5675   -2.6354    0.3259 H   0  0  0  0  0  0  0  0  0  0  0  0
    2.5178   -3.4821    0.2157 C   0  0  0  0  0  0  0  0  0  0  0  0
    2.6472   -4.5637    0.3217 H   0  0  0  0  0  0  0  0  0  0  0  0
    1.2435   -2.8089    0.0689 C   0  0  0  0  0  0  0  0  0  0  0  0
    0.0026   -3.4695    0.0002 C   0  0  0  0  0  0  0  0  0  0  0  0
   -1.2392   -2.8107   -0.0687 C   0  0  0  0  0  3  0  0  0  0  0  0
   -2.5125   -3.4860   -0.2156 C   0  0  0  0  0  0  0  0  0  0  0  0
   -2.6402   -4.5678   -0.3214 H   0  0  0  0  0  0  0  0  0  0  0  0
   -3.4815   -2.5170   -0.2188 C   0  0  0  0  0  0  0  0  0  0  0  0
   -4.5634   -2.6424   -0.3261 H   0  0  0  0  0  0  0  0  0  0  0  0
   -2.8078   -1.2433   -0.0727 C   0  0  0  0  0  0  0  0  0  0  0  0
   -3.4709   -0.0043    0.0002 C   0  0  0  0  0  0  0  0  0  0  0  0
   -2.8086    1.2356    0.0735 C   0  0  0  0  0  0  0  0  0  0  0  0
   -3.4837    2.5083    0.2233 C   0  0  0  0  0  0  0  0  0  0  0  0
   -4.5658    2.6317    0.3311 H   0  0  0  0  0  0  0  0  0  0  0  0
   -2.5153    3.4780    0.2236 C   0  0  0  0  0  0  0  0  0  0  0  0
   -2.6404    4.5599    0.3317 H   0  0  0  0  0  0  0  0  0  0  0  0
   -1.2416    2.8048    0.0738 C   0  0  0  0  0  0  0  0  0  0  0  0
   -0.0026    3.4684    0.0002 C   0  0  0  0  0  0  0  0  0  0  0  0
    4.9645    0.0026   -0.0009 C   0  0  0  0  0  0  0  0  0  0  0  0
    5.6848   -0.5800   -1.0660 C   0  0  0  0  0  0  0  0  0  0  0  0
    5.1304   -1.0289   -1.9039 H   0  0  0  0  0  0  0  0  0  0  0  0
    7.0874   -0.5773   -1.0661 C   0  0  0  0  0  0  0  0  0  0  0  0
    7.6337   -1.0298   -1.9077 H   0  0  0  0  0  0  0  0  0  0  0  0
    7.7922    0.0054   -0.0009 C   0  0  0  0  0  0  0  0  0  0  0  0
    8.8928    0.0064   -0.0008 H   0  0  0  0  0  0  0  0  0  0  0  0
    7.0862    0.5869    1.0643 C   0  0  0  0  0  0  0  0  0  0  0  0
    7.6316    1.0404    1.9060 H   0  0  0  0  0  0  0  0  0  0  0  0
    5.6837    0.5869    1.0642 C   0  0  0  0  0  0  0  0  0  0  0  0
    5.1283    1.0349    1.9019 H   0  0  0  0  0  0  0  0  0  0  0  0
    0.0038   -4.9614    0.0003 C   0  0  0  0  0  0  0  0  0  0  0  0
    0.5977   -5.6971   -1.0456 C   0  0  0  0  0  0  0  0  0  0  0  0
    1.0669   -5.1748   -1.8927 H   0  0  0  0  0  0  0  0  0  0  0  0
    0.5697   -7.0994   -0.9956 C   0  0  0  0  0  0  0  0  0  0  0  0
    1.0272   -7.6869   -1.8123 H   0  0  0  0  0  0  0  0  0  0  0  0
    0.0059   -7.8016    0.0005 N   0  0  0  0  0  0  0  0  0  0  0  0
   -0.5590   -7.1001    0.9965 C   0  0  0  0  0  0  0  0  0  0  0  0
   -1.0157   -7.6881    1.8133 H   0  0  0  0  0  0  0  0  0  0  0  0
   -0.5891   -5.6978    1.0463 C   0  0  0  0  0  0  0  0  0  0  0  0
   -1.0590   -5.1761    1.8933 H   0  0  0  0  0  0  0  0  0  0  0  0
   -4.9645   -0.0049    0.0003 C   0  0  0  0  0  0  0  0  0  0  0  0
   -5.6843    0.5783   -1.0649 C   0  0  0  0  0  0  0  0  0  0  0  0
   -5.1295    1.0271   -1.9026 H   0  0  0  0  0  0  0  0  0  0  0  0
   -7.0868    0.5763   -1.0653 C   0  0  0  0  0  0  0  0  0  0  0  0
   -7.6328    1.0289   -1.9070 H   0  0  0  0  0  0  0  0  0  0  0  0
   -7.7922   -0.0062   -0.0002 C   0  0  0  0  0  0  0  0  0  0  0  0
   -8.8928   -0.0068   -0.0004 H   0  0  0  0  0  0  0  0  0  0  0  0
   -7.0867   -0.5878    1.0652 C   0  0  0  0  0  0  0  0  0  0  0  0
   -7.6325   -1.0411    1.9067 H   0  0  0  0  0  0  0  0  0  0  0  0
   -5.6842   -0.5885    1.0653 C   0  0  0  0  0  0  0  0  0  0  0  0
   -5.1293   -1.0366    1.9033 H   0  0  0  0  0  0  0  0  0  0  0  0
   -0.0038    4.9619    0.0003 C   0  0  0  0  0  0  0  0  0  0  0  0
   -0.5897    5.6814   -1.0636 C   0  0  0  0  0  0  0  0  0  0  0  0
   -1.0394    5.1262   -1.9006 H   0  0  0  0  0  0  0  0  0  0  0  0
   -0.5894    7.0839   -1.0637 C   0  0  0  0  0  0  0  0  0  0  0  0
   -1.0443    7.6295   -1.9044 H   0  0  0  0  0  0  0  0  0  0  0  0
   -0.0058    7.7897    0.0005 C   0  0  0  0  0  0  0  0  0  0  0  0
   -0.0066    8.8903    0.0006 H   0  0  0  0  0  0  0  0  0  0  0  0
    0.5787    7.0846    1.0646 C   0  0  0  0  0  0  0  0  0  0  0  0
    1.0329    7.6307    1.9054 H   0  0  0  0  0  0  0  0  0  0  0  0
    0.5812    5.6821    1.0643 C   0  0  0  0  0  0  0  0  0  0  0  0
    1.0316    5.1274    1.9012 H   0  0  0  0  0  0  0  0  0  0  0  0
  2 17  1  0  0  0  0
  2 12  2  0  0  0  0
  4 26  1  0  0  0  0
  4 31  2  0  0  0  0
  5  1  1  0  0  0  0
  5 32  2  0  0  0  0
  6  8  2  0  0  0  0
  6  5  1  0  0  0  0
  7  6  1  0  0  0  0
  8 10  1  0  0  0  0
  9  8  1  0  0  0  0
 10  1  1  0  0  0  0
 10 11  2  0  0  0  0
 11 12  1  0  0  0  0
 12 13  1  0  0  0  0
 13 14  1  0  0  0  0
 15 13  2  0  0  0  0
 15 16  1  0  0  0  0
 17 15  1  0  0  0  0
 18 44  1  0  0  0  0
 18 17  2  0  0  0  0
 19  3  1  0  0  0  0
 19 18  1  0  0  0  0
 20 19  1  0  0  0  0
 21 20  1  0  0  0  0
 22 20  2  0  0  0  0
 22 24  1  0  0  0  0
 23 22  1  0  0  0  0
 24  3  2  0  0  0  0
 24 25  1  0  0  0  0
 25 54  1  0  0  0  0
 25 26  2  0  0  0  0
 26 27  1  0  0  0  0
 27 29  2  0  0  0  0
 27 28  1  0  0  0  0
 29 30  1  0  0  0  0
 31 29  1  0  0  0  0
 32 65  1  0  0  0  0
 32 31  1  0  0  0  0
 33 11  1  0  0  0  0
 33 42  1  0  0  0  0
 34 33  2  0  0  0  0
 35 34  1  0  0  0  0
 36 34  1  0  0  0  0
 36 38  2  0  0  0  0
 37 36  1  0  0  0  0
 38 39  1  0  0  0  0
 38 40  1  0  0  0  0
 40 41  1  0  0  0  0
 42 40  2  0  0  0  0
 42 43  1  0  0  0  0
 44 52  1  0  0  0  0
 45 47  1  0  0  0  0
 45 44  2  0  0  0  0
 46 45  1  0  0  0  0
 47 49  2  0  0  0  0
 48 47  1  0  0  0  0
 49 50  1  0  0  0  0
 50 52  2  0  0  0  0
 50 51  1  0  0  0  0
 52 53  1  0  0  0  0
 54 63  1  0  0  0  0
 55 54  2  0  0  0  0
 56 55  1  0  0  0  0
 57 55  1  0  0  0  0
 57 59  2  0  0  0  0
 58 57  1  0  0  0  0
 59 61  1  0  0  0  0
 60 59  1  0  0  0  0
 61 63  2  0  0  0  0
 61 62  1  0  0  0  0
 63 64  1  0  0  0  0
 65 74  1  0  0  0  0
 66 65  2  0  0  0  0
 67 66  1  0  0  0  0
 68 66  1  0  0  0  0
 68 70  2  0  0  0  0
 69 68  1  0  0  0  0
 70 71  1  0  0  0  0
 70 72  1  0  0  0  0
 72 73  1  0  0  0  0
 74 72  2  0  0  0  0
 74 75  1  0  0  0  0
M  END
