1,2,3,5
 OpenBabel05122313063D

 40 40  0  0  0  0  0  0  0  0999 V2000
    0.6687   -1.2360   -0.1515 N   0  0  0  0  0  2  0  0  0  0  0  0
   -1.8807   -1.6459    0.1290 N   0  0  0  0  0  0  0  0  0  0  0  0
   -1.9400    1.6118   -0.0030 N   0  0  0  0  0  0  0  0  0  0  0  0
    1.9484    0.7257    0.0316 C   0  0  0  0  0  0  0  0  0  0  0  0
    0.6499    1.2551   -0.0997 N   0  0  0  0  0  2  0  0  0  0  0  0
    1.1108    3.5427   -0.2667 O   0  0  0  0  0  0  0  0  0  0  0  0
    0.3503    2.5712   -0.2781 C   0  0  0  0  0  0  0  0  0  0  0  0
    3.1528    1.4434    0.1591 C   0  0  0  0  0  0  0  0  0  0  0  0
    3.1212    2.5391    0.1706 H   0  0  0  0  0  0  0  0  0  0  0  0
    0.3803   -2.5438   -0.3970 C   0  0  0  0  0  0  0  0  0  0  0  0
    1.9595   -0.6947   -0.0040 C   0  0  0  0  0  0  0  0  0  0  0  0
    3.1738   -1.4009    0.0857 C   0  0  0  0  0  0  0  0  0  0  0  0
    3.1582   -2.4959    0.0360 H   0  0  0  0  0  0  0  0  0  0  0  0
   -3.2506    1.5796   -0.6795 C   0  0  0  0  0  0  0  0  0  0  0  0
   -3.7168    2.5906   -0.6710 H   0  0  0  0  0  0  0  0  0  0  0  0
   -3.9359    0.8848   -0.1661 H   0  0  0  0  0  0  0  0  0  0  0  0
   -3.1215    1.2548   -1.7289 H   0  0  0  0  0  0  0  0  0  0  0  0
    1.1555   -3.4986   -0.4955 O   0  0  0  0  0  0  0  0  0  0  0  0
   -1.1383    2.7211   -0.5959 C   0  0  0  0  0  0  0  0  0  0  0  0
   -1.5117    3.7095   -0.2479 H   0  0  0  0  0  0  0  0  0  0  0  0
   -1.2585    2.6830   -1.6981 H   0  0  0  0  0  0  0  0  0  0  0  0
   -2.1244    1.8667    1.4435 C   0  0  0  0  0  0  0  0  0  0  0  0
   -2.6915    2.8116    1.6093 H   0  0  0  0  0  0  0  0  0  0  0  0
   -1.1356    1.9466    1.9308 H   0  0  0  0  0  0  0  0  0  0  0  0
   -2.6846    1.0314    1.9044 H   0  0  0  0  0  0  0  0  0  0  0  0
   -1.1288   -2.7079   -0.5986 C   0  0  0  0  0  0  0  0  0  0  0  0
   -1.3577   -2.6160   -1.6803 H   0  0  0  0  0  0  0  0  0  0  0  0
   -1.4495   -3.7206   -0.2666 H   0  0  0  0  0  0  0  0  0  0  0  0
   -3.2820   -1.6663   -0.3253 C   0  0  0  0  0  0  0  0  0  0  0  0
   -3.7043   -2.6926   -0.2359 H   0  0  0  0  0  0  0  0  0  0  0  0
   -3.3431   -1.3472   -1.3821 H   0  0  0  0  0  0  0  0  0  0  0  0
   -3.8966   -0.9923    0.2981 H   0  0  0  0  0  0  0  0  0  0  0  0
   -1.8345   -1.9289    1.5841 C   0  0  0  0  0  0  0  0  0  0  0  0
   -2.3401   -2.8959    1.8099 H   0  0  0  0  0  0  0  0  0  0  0  0
   -2.3461   -1.1213    2.1404 H   0  0  0  0  0  0  0  0  0  0  0  0
   -0.7829   -1.9795    1.9176 H   0  0  0  0  0  0  0  0  0  0  0  0
    4.3590    0.7289    0.2577 C   0  0  0  0  0  0  0  0  0  0  0  0
    5.3042    1.2836    0.3620 H   0  0  0  0  0  0  0  0  0  0  0  0
    4.3696   -0.6753    0.2209 C   0  0  0  0  0  0  0  0  0  0  0  0
    5.3232   -1.2204    0.2946 H   0  0  0  0  0  0  0  0  0  0  0  0
  1 11  1  0  0  0  0
  2 33  1  0  0  0  0
  3 22  1  0  0  0  0
  4  8  1  0  0  0  0
  5  4  1  0  0  0  0
  7  6  2  0  0  0  0
  7  5  1  0  0  0  0
  8  9  1  0  0  0  0
  8 37  2  0  0  0  0
 10  1  1  0  0  0  0
 11  4  2  0  0  0  0
 11 12  1  0  0  0  0
 12 39  2  0  0  0  0
 13 12  1  0  0  0  0
 14 15  1  0  0  0  0
 14 16  1  0  0  0  0
 14  3  1  0  0  0  0
 17 14  1  0  0  0  0
 18 10  2  0  0  0  0
 19  7  1  0  0  0  0
 19 20  1  0  0  0  0
 19  3  1  0  0  0  0
 21 19  1  0  0  0  0
 22 23  1  0  0  0  0
 22 25  1  0  0  0  0
 22 24  1  0  0  0  0
 26 10  1  0  0  0  0
 26 28  1  0  0  0  0
 26  2  1  0  0  0  0
 27 26  1  0  0  0  0
 29 30  1  0  0  0  0
 29  2  1  0  0  0  0
 29 32  1  0  0  0  0
 31 29  1  0  0  0  0
 33 34  1  0  0  0  0
 33 36  1  0  0  0  0
 33 35  1  0  0  0  0
 37 38  1  0  0  0  0
 39 37  1  0  0  0  0
 39 40  1  0  0  0  0
M  END
