42,43,54,55
 OpenBabel05122313063D

 84 87  0  0  1  0  0  0  0  0999 V2000
    1.2617   -2.6312   -0.8556 C   0  0  0  0  0  0  0  0  0  0  0  0
    2.5490   -3.3815   -0.7125 C   0  0  2  0  0  3  0  0  0  0  0  0
    3.4437   -2.5342   -0.1253 C   0  0  0  0  0  0  0  0  0  0  0  0
    2.7232   -1.2517    0.1425 C   0  0  0  0  0  0  0  0  0  0  0  0
    3.3371   -0.0643    0.6008 C   0  0  0  0  0  0  0  0  0  0  0  0
    4.3929   -0.1142    0.8968 H   0  0  0  0  0  0  0  0  0  0  0  0
    2.7363    1.1929    0.5707 C   0  0  0  0  0  0  0  0  0  0  0  0
    3.4056    2.4658    0.8643 C   0  0  0  0  0  0  0  0  0  0  0  0
    2.4709    3.4572    0.6540 C   0  0  0  0  0  0  0  0  0  0  0  0
    1.2186    2.7821    0.2705 C   0  0  0  0  0  0  0  0  0  0  0  0
   -0.0001    3.4193   -0.0000 C   0  0  0  0  0  0  0  0  0  0  0  0
   -0.0002    4.5178   -0.0000 H   0  0  0  0  0  0  0  0  0  0  0  0
    2.7177   -4.7585   -1.2619 C   0  0  0  0  0  0  0  0  0  0  0  0
    1.8275   -5.3590   -0.9781 H   0  0  0  0  0  0  0  0  0  0  0  0
    3.5974   -5.2398   -0.7879 H   0  0  0  0  0  0  0  0  0  0  0  0
    2.8658   -4.7744   -2.7949 C   0  0  0  0  0  0  0  0  0  0  0  0
    1.9777   -4.3255   -3.2810 H   0  0  0  0  0  0  0  0  0  0  0  0
    2.9700   -5.8135   -3.1638 H   0  0  0  0  0  0  0  0  0  0  0  0
    3.7606   -4.2045   -3.1169 H   0  0  0  0  0  0  0  0  0  0  0  0
    4.9007   -2.7423    0.1448 C   0  0  0  0  0  0  0  0  0  0  0  0
    5.0929   -3.8303    0.2385 H   0  0  0  0  0  0  0  0  0  0  0  0
    5.1656   -2.3003    1.1295 H   0  0  0  0  0  0  0  0  0  0  0  0
    5.8081   -2.1546   -0.9525 C   0  0  0  0  0  0  0  0  0  0  0  0
    5.5934   -2.6217   -1.9339 H   0  0  0  0  0  0  0  0  0  0  0  0
    6.8750   -2.3310   -0.7133 H   0  0  0  0  0  0  0  0  0  0  0  0
    5.6618   -1.0610   -1.0673 H   0  0  0  0  0  0  0  0  0  0  0  0
    4.8506    2.6078    1.2376 C   0  0  0  0  0  0  0  0  0  0  0  0
    5.1263    1.8154    1.9658 H   0  0  0  0  0  0  0  0  0  0  0  0
    4.9911    3.5668    1.7763 H   0  0  0  0  0  0  0  0  0  0  0  0
    5.7977    2.5542    0.0253 C   0  0  0  0  0  0  0  0  0  0  0  0
    5.7059    1.5944   -0.5228 H   0  0  0  0  0  0  0  0  0  0  0  0
    6.8525    2.6634    0.3453 H   0  0  0  0  0  0  0  0  0  0  0  0
    5.5706    3.3670   -0.6927 H   0  0  0  0  0  0  0  0  0  0  0  0
    2.6226    4.9358    0.8378 C   0  0  0  0  0  0  0  0  0  0  0  0
    2.0948    5.4685    0.0178 H   0  0  0  0  0  0  0  0  0  0  0  0
    3.6923    5.2066    0.7297 H   0  0  0  0  0  0  0  0  0  0  0  0
    2.0991    5.4294    2.1993 C   0  0  0  0  0  0  0  0  0  0  0  0
    1.0238    5.1942    2.3320 H   0  0  0  0  0  0  0  0  0  0  0  0
    2.2236    6.5260    2.2931 H   0  0  0  0  0  0  0  0  0  0  0  0
    2.6482    4.9483    3.0328 H   0  0  0  0  0  0  0  0  0  0  0  0
    0.2624   -2.9592   -1.4649 O   0  0  0  0  0  0  0  0  0  0  0  0
    1.4346   -1.3422   -0.2069 N   0  0  0  0  0  2  0  0  0  0  0  0
    1.4195    1.4311    0.2133 N   0  0  0  0  0  2  0  0  0  0  0  0
   -1.2188    2.7820   -0.2706 C   0  0  0  0  0  0  0  0  0  0  0  0
   -2.4711    3.4570   -0.6540 C   0  0  0  0  0  0  0  0  0  0  0  0
   -3.4058    2.4656   -0.8643 C   0  0  0  0  0  0  0  0  0  0  0  0
   -2.7364    1.1927   -0.5707 C   0  0  0  0  0  0  0  0  0  0  0  0
   -3.3371   -0.0645   -0.6008 C   0  0  0  0  0  0  0  0  0  0  0  0
   -2.7231   -1.2519   -0.1425 C   0  0  0  0  0  0  0  0  0  0  0  0
   -3.4436   -2.5344    0.1253 C   0  0  0  0  0  0  0  0  0  0  0  0
   -2.5488   -3.3817    0.7125 C   0  0  0  0  0  0  0  0  0  0  0  0
   -1.2615   -2.6312    0.8556 C   0  0  0  0  0  0  0  0  0  0  0  0
   -0.2621   -2.9592    1.4649 O   0  0  0  0  0  0  0  0  0  0  0  0
   -1.4345   -1.3423    0.2068 N   0  0  0  0  0  2  0  0  0  0  0  0
   -1.4196    1.4310   -0.2133 N   0  0  0  0  0  2  0  0  0  0  0  0
   -2.7174   -4.7586    1.2619 C   0  0  0  0  0  0  0  0  0  0  0  0
   -1.8272   -5.3591    0.9781 H   0  0  0  0  0  0  0  0  0  0  0  0
   -3.5971   -5.2401    0.7880 H   0  0  0  0  0  0  0  0  0  0  0  0
   -2.8655   -4.7746    2.7950 C   0  0  0  0  0  0  0  0  0  0  0  0
   -1.9774   -4.3256    3.2810 H   0  0  0  0  0  0  0  0  0  0  0  0
   -2.9696   -5.8136    3.1638 H   0  0  0  0  0  0  0  0  0  0  0  0
   -3.7602   -4.2047    3.1169 H   0  0  0  0  0  0  0  0  0  0  0  0
   -4.9005   -2.7426   -0.1448 C   0  0  0  0  0  0  0  0  0  0  0  0
   -5.0926   -3.8306   -0.2385 H   0  0  0  0  0  0  0  0  0  0  0  0
   -5.1655   -2.3006   -1.1294 H   0  0  0  0  0  0  0  0  0  0  0  0
   -5.8079   -2.1549    0.9526 C   0  0  0  0  0  0  0  0  0  0  0  0
   -5.5931   -2.6220    1.9340 H   0  0  0  0  0  0  0  0  0  0  0  0
   -6.8748   -2.3314    0.7134 H   0  0  0  0  0  0  0  0  0  0  0  0
   -5.6617   -1.0614    1.0673 H   0  0  0  0  0  0  0  0  0  0  0  0
   -4.3929   -0.1145   -0.8968 H   0  0  0  0  0  0  0  0  0  0  0  0
   -4.8508    2.6075   -1.2376 C   0  0  0  0  0  0  0  0  0  0  0  0
   -5.1265    1.8151   -1.9657 H   0  0  0  0  0  0  0  0  0  0  0  0
   -4.9914    3.5665   -1.7762 H   0  0  0  0  0  0  0  0  0  0  0  0
   -5.7979    2.5538   -0.0253 C   0  0  0  0  0  0  0  0  0  0  0  0
   -5.7060    1.5940    0.5228 H   0  0  0  0  0  0  0  0  0  0  0  0
   -6.8527    2.6629   -0.3453 H   0  0  0  0  0  0  0  0  0  0  0  0
   -5.5708    3.3666    0.6927 H   0  0  0  0  0  0  0  0  0  0  0  0
   -2.6229    4.9357   -0.8378 C   0  0  0  0  0  0  0  0  0  0  0  0
   -2.0951    5.4684   -0.0178 H   0  0  0  0  0  0  0  0  0  0  0  0
   -3.6927    5.2064   -0.7297 H   0  0  0  0  0  0  0  0  0  0  0  0
   -2.0995    5.4292   -2.1993 C   0  0  0  0  0  0  0  0  0  0  0  0
   -1.0242    5.1941   -2.3320 H   0  0  0  0  0  0  0  0  0  0  0  0
   -2.2240    6.5259   -2.2931 H   0  0  0  0  0  0  0  0  0  0  0  0
   -2.6486    4.9481   -3.0328 H   0  0  0  0  0  0  0  0  0  0  0  0
  1  2  1  0  0  0  0
  1 42  1  0  0  0  0
  2 13  1  6  0  0  0
  2  3  1  0  0  0  0
  3  4  2  0  0  0  0
  3 20  1  0  0  0  0
  4  5  1  0  0  0  0
  5  6  1  0  0  0  0
  7  5  2  0  0  0  0
  7  8  1  0  0  0  0
  8 27  1  0  0  0  0
  9 34  1  0  0  0  0
  9  8  2  0  0  0  0
 10  9  1  0  0  0  0
 11 12  1  0  0  0  0
 11 10  2  0  0  0  0
 13 14  1  0  0  0  0
 13 15  1  0  0  0  0
 16 13  1  0  0  0  0
 17 16  1  0  0  0  0
 18 16  1  0  0  0  0
 19 16  1  0  0  0  0
 20 21  1  0  0  0  0
 20 22  1  0  0  0  0
 23 25  1  0  0  0  0
 23 20  1  0  0  0  0
 24 23  1  0  0  0  0
 26 23  1  0  0  0  0
 27 29  1  0  0  0  0
 27 28  1  0  0  0  0
 30 32  1  0  0  0  0
 30 27  1  0  0  0  0
 31 30  1  0  0  0  0
 33 30  1  0  0  0  0
 34 37  1  0  0  0  0
 35 34  1  0  0  0  0
 36 34  1  0  0  0  0
 37 39  1  0  0  0  0
 37 38  1  0  0  0  0
 37 40  1  0  0  0  0
 41  1  2  0  0  0  0
 42  4  1  0  0  0  0
 43 10  1  0  0  0  0
 43  7  1  0  0  0  0
 44 55  1  0  0  0  0
 44 11  1  0  0  0  0
 45 44  2  0  0  0  0
 46 45  1  0  0  0  0
 46 47  2  0  0  0  0
 47 55  1  0  0  0  0
 48 47  1  0  0  0  0
 48 49  2  0  0  0  0
 49 50  1  0  0  0  0
 49 54  1  0  0  0  0
 50 51  2  0  0  0  0
 51 52  1  0  0  0  0
 51 56  1  0  0  0  0
 52 53  2  0  0  0  0
 54 52  1  0  0  0  0
 56 59  1  0  0  0  0
 57 56  1  0  0  0  0
 58 56  1  0  0  0  0
 59 62  1  0  0  0  0
 59 61  1  0  0  0  0
 59 60  1  0  0  0  0
 63 50  1  0  0  0  0
 63 66  1  0  0  0  0
 64 63  1  0  0  0  0
 65 63  1  0  0  0  0
 66 69  1  0  0  0  0
 66 67  1  0  0  0  0
 68 66  1  0  0  0  0
 70 48  1  0  0  0  0
 71 46  1  0  0  0  0
 71 74  1  0  0  0  0
 72 71  1  0  0  0  0
 73 71  1  0  0  0  0
 74 75  1  0  0  0  0
 74 77  1  0  0  0  0
 76 74  1  0  0  0  0
 78 80  1  0  0  0  0
 78 45  1  0  0  0  0
 78 79  1  0  0  0  0
 81 78  1  0  0  0  0
 82 81  1  0  0  0  0
 83 81  1  0  0  0  0
 84 81  1  0  0  0  0
M  END
