1,2,3,4
 OpenBabel05122313063D

 83 92  0  0  0  0  0  0  0  0999 V2000
    1.4569   -0.0003   -0.0007 N   0  0  0  0  0  0  0  0  0  0  0  0
   -0.4966    1.9431    0.0155 N   0  0  0  0  0  2  0  0  0  0  0  0
   -2.4167    0.0002   -0.0021 N   0  0  0  0  0  0  0  0  0  0  0  0
   -0.4968   -1.9436   -0.0121 N   0  0  0  0  0  0  0  0  0  0  0  0
    5.7792   -0.0079    0.0142 N   0  0  0  0  0  0  0  0  0  0  0  0
    2.2771   -1.0581   -0.3838 C   0  0  0  0  0  0  0  0  0  0  0  0
    3.6688   -0.6589   -0.2780 C   0  0  0  0  0  0  0  0  0  0  0  0
    3.6693    0.6611    0.2654 C   0  0  0  0  0  0  0  0  0  0  0  0
    2.2776    1.0573    0.3816 C   0  0  0  0  0  0  0  0  0  0  0  0
    1.8587    2.3605    0.6455 C   0  0  0  0  0  0  0  0  0  0  0  0
    0.5460    2.7782    0.3638 C   0  0  0  0  0  0  0  0  0  0  0  0
    0.1520    4.1618    0.2363 C   0  0  0  0  0  0  0  0  0  0  0  0
    0.7937    5.0182    0.4676 H   0  0  0  0  0  0  0  0  0  0  0  0
   -1.1242    4.1635   -0.2699 C   0  0  0  0  0  0  0  0  0  0  0  0
   -1.7476    5.0232   -0.5343 H   0  0  0  0  0  0  0  0  0  0  0  0
   -1.5410    2.7829   -0.3547 C   0  0  0  0  0  0  0  0  0  0  0  0
   -2.8510    2.3660   -0.6210 C   0  0  0  0  0  0  0  0  0  0  0  0
   -3.2542    1.0435   -0.3640 C   0  0  0  0  0  0  0  0  0  0  0  0
   -4.6359    0.6425   -0.2489 C   0  0  0  0  0  0  0  0  0  0  0  0
   -5.4916    1.2867   -0.4758 H   0  0  0  0  0  0  0  0  0  0  0  0
   -4.6369   -0.6424    0.2352 C   0  0  0  0  0  0  0  0  0  0  0  0
   -5.4934   -1.2867    0.4585 H   0  0  0  0  0  0  0  0  0  0  0  0
   -3.2556   -1.0430    0.3568 C   0  0  0  0  0  0  0  0  0  0  0  0
   -2.8531   -2.3647    0.6190 C   0  0  0  0  0  0  0  0  0  0  0  0
   -1.5419   -2.7821    0.3592 C   0  0  0  0  0  3  0  0  0  0  0  0
   -1.1245   -4.1629    0.2814 C   0  0  0  0  0  0  0  0  0  0  0  0
   -1.7483   -5.0217    0.5481 H   0  0  0  0  0  0  0  0  0  0  0  0
    0.1527   -4.1630   -0.2222 C   0  0  0  0  0  0  0  0  0  0  0  0
    0.7950   -5.0202   -0.4489 H   0  0  0  0  0  0  0  0  0  0  0  0
    0.5464   -2.7799   -0.3555 C   0  0  0  0  0  0  0  0  0  0  0  0
    1.8586   -2.3627   -0.6409 C   0  0  0  0  0  0  0  0  0  0  0  0
    4.9959    1.0551    0.4354 C   0  0  0  0  0  3  0  0  0  0  0  0
    5.4496    1.9725    0.8234 H   0  0  0  0  0  0  0  0  0  0  0  0
    4.9953   -1.0621   -0.4273 C   0  0  0  0  0  3  0  0  0  0  0  0
    5.4487   -1.9827   -0.8080 H   0  0  0  0  0  0  0  0  0  0  0  0
    7.2279    0.0184   -0.0508 C   0  0  0  0  0  0  0  0  0  0  0  0
    7.6275    0.6503    0.7650 H   0  0  0  0  0  0  0  0  0  0  0  0
    7.5872    0.4235   -1.0207 H   0  0  0  0  0  0  0  0  0  0  0  0
    7.6265   -1.0062    0.0737 H   0  0  0  0  0  0  0  0  0  0  0  0
    2.8968    3.3467    1.0667 C   0  0  0  0  0  0  0  0  0  0  0  0
    3.4370    4.2750    0.1515 C   0  0  0  0  0  0  0  0  0  0  0  0
    3.0587    4.2880   -0.8818 H   0  0  0  0  0  0  0  0  0  0  0  0
    4.4547    5.1571    0.5451 C   0  0  0  0  0  0  0  0  0  0  0  0
    4.8677    5.8739   -0.1813 H   0  0  0  0  0  0  0  0  0  0  0  0
    4.9502    5.1215    1.8587 C   0  0  0  0  0  0  0  0  0  0  0  0
    5.7489    5.8133    2.1673 H   0  0  0  0  0  0  0  0  0  0  0  0
    4.4198    4.2010    2.7772 C   0  0  0  0  0  0  0  0  0  0  0  0
    4.8005    4.1699    3.8097 H   0  0  0  0  0  0  0  0  0  0  0  0
    3.4016    3.3197    2.3834 C   0  0  0  0  0  0  0  0  0  0  0  0
    2.9882    2.5918    3.0976 H   0  0  0  0  0  0  0  0  0  0  0  0
   -3.8829    3.3505   -1.0573 C   0  0  0  0  0  0  0  0  0  0  0  0
   -4.4791    3.2258   -2.3308 C   0  0  0  0  0  0  0  0  0  0  0  0
   -4.1566    2.4077   -2.9924 H   0  0  0  0  0  0  0  0  0  0  0  0
   -5.4629    4.1322   -2.7525 C   0  0  0  0  0  0  0  0  0  0  0  0
   -5.9127    4.0236   -3.7513 H   0  0  0  0  0  0  0  0  0  0  0  0
   -5.8707    5.1756   -1.9064 C   0  0  0  0  0  0  0  0  0  0  0  0
   -6.6433    5.8865   -2.2369 H   0  0  0  0  0  0  0  0  0  0  0  0
   -5.2919    5.3037   -0.6337 C   0  0  0  0  0  0  0  0  0  0  0  0
   -5.6152    6.1113    0.0408 H   0  0  0  0  0  0  0  0  0  0  0  0
   -4.3076    4.3979   -0.2114 C   0  0  0  0  0  0  0  0  0  0  0  0
   -3.8683    4.4856    0.7935 H   0  0  0  0  0  0  0  0  0  0  0  0
   -3.8865   -3.3481    1.0540 C   0  0  0  0  0  0  0  0  0  0  0  0
   -4.3066   -4.3989    0.2101 C   0  0  0  0  0  0  0  0  0  0  0  0
   -3.8624   -4.4902   -0.7924 H   0  0  0  0  0  0  0  0  0  0  0  0
   -5.2924   -5.3037    0.6311 C   0  0  0  0  0  0  0  0  0  0  0  0
   -5.6121   -6.1140   -0.0420 H   0  0  0  0  0  0  0  0  0  0  0  0
   -5.8774   -5.1711    1.9005 C   0  0  0  0  0  0  0  0  0  0  0  0
   -6.6512   -5.8811    2.2300 H   0  0  0  0  0  0  0  0  0  0  0  0
   -5.4741   -4.1243    2.7447 C   0  0  0  0  0  0  0  0  0  0  0  0
   -5.9287   -4.0122    3.7409 H   0  0  0  0  0  0  0  0  0  0  0  0
   -4.4888   -3.2190    2.3242 C   0  0  0  0  0  0  0  0  0  0  0  0
   -4.1700   -2.3983    2.9843 H   0  0  0  0  0  0  0  0  0  0  0  0
    2.8966   -3.3503   -1.0588 C   0  0  0  0  0  0  0  0  0  0  0  0
    3.4022   -3.3274   -2.3753 C   0  0  0  0  0  0  0  0  0  0  0  0
    2.9891   -2.6017   -3.0920 H   0  0  0  0  0  0  0  0  0  0  0  0
    4.4206   -4.2098   -2.7658 C   0  0  0  0  0  0  0  0  0  0  0  0
    4.8020   -4.1818   -3.7981 H   0  0  0  0  0  0  0  0  0  0  0  0
    4.9505   -5.1276   -1.8441 C   0  0  0  0  0  0  0  0  0  0  0  0
    5.7493   -5.8203   -2.1502 H   0  0  0  0  0  0  0  0  0  0  0  0
    4.4542   -5.1592   -0.5307 C   0  0  0  0  0  0  0  0  0  0  0  0
    4.8667   -5.8738    0.1980 H   0  0  0  0  0  0  0  0  0  0  0  0
    3.4363   -4.2758   -0.1404 C   0  0  0  0  0  0  0  0  0  0  0  0
    3.0577   -4.2855    0.8927 H   0  0  0  0  0  0  0  0  0  0  0  0
  1  9  2  0  0  0  0
  2 11  1  0  0  0  0
  3 23  1  0  0  0  0
  4 25  1  0  0  0  0
  5 32  1  0  0  0  0
  6  7  1  0  0  0  0
  6  1  1  0  0  0  0
  7  8  2  0  0  0  0
  8  9  1  0  0  0  0
  8 32  1  0  0  0  0
  9 10  1  0  0  0  0
 10 40  1  0  0  0  0
 11 10  2  0  0  0  0
 12 11  1  0  0  0  0
 12 13  1  0  0  0  0
 14 12  2  0  0  0  0
 15 14  1  0  0  0  0
 16 14  1  0  0  0  0
 16  2  1  0  0  0  0
 17 18  1  0  0  0  0
 17 16  2  0  0  0  0
 18 19  1  0  0  0  0
 18  3  2  0  0  0  0
 19 21  2  0  0  0  0
 20 19  1  0  0  0  0
 21 23  1  0  0  0  0
 21 22  1  0  0  0  0
 23 24  2  0  0  0  0
 24 62  1  0  0  0  0
 25 24  1  0  0  0  0
 26 25  1  0  0  0  0
 26 27  1  0  0  0  0
 28 26  2  0  0  0  0
 29 28  1  0  0  0  0
 30 28  1  0  0  0  0
 30  4  2  0  0  0  0
 31  6  2  0  0  0  0
 31 30  1  0  0  0  0
 32 33  1  0  0  0  0
 34  7  1  0  0  0  0
 34  5  1  0  0  0  0
 35 34  1  0  0  0  0
 36  5  1  0  0  0  0
 36 39  1  0  0  0  0
 36 37  1  0  0  0  0
 38 36  1  0  0  0  0
 40 49  1  0  0  0  0
 41 43  1  0  0  0  0
 41 40  2  0  0  0  0
 42 41  1  0  0  0  0
 43 45  2  0  0  0  0
 44 43  1  0  0  0  0
 45 46  1  0  0  0  0
 45 47  1  0  0  0  0
 47 48  1  0  0  0  0
 49 47  2  0  0  0  0
 49 50  1  0  0  0  0
 51 17  1  0  0  0  0
 51 60  1  0  0  0  0
 52 51  2  0  0  0  0
 53 52  1  0  0  0  0
 54 52  1  0  0  0  0
 54 56  2  0  0  0  0
 55 54  1  0  0  0  0
 56 58  1  0  0  0  0
 57 56  1  0  0  0  0
 58 60  2  0  0  0  0
 58 59  1  0  0  0  0
 60 61  1  0  0  0  0
 62 71  1  0  0  0  0
 63 65  1  0  0  0  0
 63 62  2  0  0  0  0
 64 63  1  0  0  0  0
 65 67  2  0  0  0  0
 66 65  1  0  0  0  0
 67 68  1  0  0  0  0
 67 69  1  0  0  0  0
 69 70  1  0  0  0  0
 71 69  2  0  0  0  0
 71 72  1  0  0  0  0
 73 31  1  0  0  0  0
 73 82  1  0  0  0  0
 74 73  2  0  0  0  0
 75 74  1  0  0  0  0
 76 74  1  0  0  0  0
 76 78  2  0  0  0  0
 77 76  1  0  0  0  0
 78 80  1  0  0  0  0
 79 78  1  0  0  0  0
 80 82  2  0  0  0  0
 80 81  1  0  0  0  0
 82 83  1  0  0  0  0
M  END
