1,2,3,4
 OpenBabel05122313063D

 69 74  0  0  0  0  0  0  0  0999 V2000
    2.3916    1.5455    0.7966 N   0  0  0  0  0  2  0  0  0  0  0  0
   -0.0826    1.4955   -0.2739 N   0  0  0  0  0  2  0  0  0  0  0  0
   -0.3176   -1.2895   -0.5578 N   0  0  0  0  0  2  0  0  0  0  0  0
    2.3622   -1.5471   -0.1668 N   0  0  0  0  0  2  0  0  0  0  0  0
    3.5204    1.6144    1.5036 C   0  0  0  0  0  0  0  0  0  0  0  0
    3.7022    0.7789    2.2006 H   0  0  0  0  0  0  0  0  0  0  0  0
    4.4105    2.7069    1.3867 C   0  0  0  0  0  0  0  0  0  0  0  0
    5.3332    2.7241    1.9837 H   0  0  0  0  0  0  0  0  0  0  0  0
    4.1007    3.7439    0.5107 C   0  0  0  0  0  0  0  0  0  0  0  0
    4.7838    4.5981    0.3862 H   0  0  0  0  0  0  0  0  0  0  0  0
    2.8773    3.7141   -0.2113 C   0  0  0  0  0  0  0  0  0  0  0  0
    2.0387    2.5795   -0.0042 C   0  0  0  0  0  0  0  0  0  0  0  0
    2.4401    4.7513   -1.1081 C   0  0  0  0  0  0  0  0  0  0  0  0
    3.1028    5.6124   -1.2810 H   0  0  0  0  0  0  0  0  0  0  0  0
    1.2166    4.6770   -1.7338 C   0  0  0  0  0  0  0  0  0  0  0  0
    0.8923    5.4754   -2.4179 H   0  0  0  0  0  0  0  0  0  0  0  0
    0.3228    3.5765   -1.4890 C   0  0  0  0  0  0  0  0  0  0  0  0
    0.7281    2.5279   -0.6156 C   0  0  0  0  0  0  0  0  0  0  0  0
   -0.9735    3.4537   -2.0506 C   0  0  0  0  0  0  0  0  0  0  0  0
   -1.3355    4.2137   -2.7598 H   0  0  0  0  0  0  0  0  0  0  0  0
   -1.7885    2.3871   -1.6899 C   0  0  0  0  0  0  0  0  0  0  0  0
   -2.7927    2.3053   -2.1216 H   0  0  0  0  0  0  0  0  0  0  0  0
   -1.3325    1.4166   -0.7542 C   0  0  0  0  0  0  0  0  0  0  0  0
   -2.2134    0.2557   -0.2474 C   0  0  0  0  0  0  0  0  0  0  0  0
   -1.6103   -1.0473   -0.8177 C   0  0  0  0  0  0  0  0  0  0  0  0
   -2.3650   -1.9744   -1.5867 C   0  0  0  0  0  0  0  0  0  0  0  0
   -3.4191   -1.7776   -1.8104 H   0  0  0  0  0  0  0  0  0  0  0  0
   -1.7745   -3.1450   -2.0456 C   0  0  0  0  0  0  0  0  0  0  0  0
   -2.3629   -3.8762   -2.6206 H   0  0  0  0  0  0  0  0  0  0  0  0
   -0.4048   -3.3968   -1.7855 C   0  0  0  0  0  0  0  0  0  0  0  0
    0.2920   -2.3984   -1.0439 C   0  0  0  0  0  0  0  0  0  0  0  0
    0.2943   -4.5705   -2.2328 C   0  0  0  0  0  0  0  0  0  0  0  0
   -0.2658   -5.3362   -2.7900 H   0  0  0  0  0  0  0  0  0  0  0  0
    1.6336   -4.7363   -1.9720 C   0  0  0  0  0  0  0  0  0  0  0  0
    2.1621   -5.6389   -2.3130 H   0  0  0  0  0  0  0  0  0  0  0  0
    2.3789   -3.7303   -1.2638 C   0  0  0  0  0  0  0  0  0  0  0  0
    1.7121   -2.5528   -0.8071 C   0  0  0  0  0  0  0  0  0  0  0  0
    3.7687   -3.8324   -0.9954 C   0  0  0  0  0  0  0  0  0  0  0  0
    4.3211   -4.7261   -1.3233 H   0  0  0  0  0  0  0  0  0  0  0  0
    4.4144   -2.8004   -0.3234 C   0  0  0  0  0  0  0  0  0  0  0  0
    5.4891   -2.8497   -0.0996 H   0  0  0  0  0  0  0  0  0  0  0  0
    3.6686   -1.6691    0.0732 C   0  0  0  0  0  0  0  0  0  0  0  0
    4.1536   -0.8358    0.6037 H   0  0  0  0  0  0  0  0  0  0  0  0
   -3.6863    0.4243   -0.6931 C   0  0  0  0  0  0  0  0  0  0  0  0
   -3.7369    0.4992   -1.8015 H   0  0  0  0  0  0  0  0  0  0  0  0
   -4.2238   -0.5104   -0.4427 H   0  0  0  0  0  0  0  0  0  0  0  0
   -4.4527    1.5925   -0.0553 C   0  0  0  0  0  0  0  0  0  0  0  0
   -3.8265    2.5100   -0.0382 H   0  0  0  0  0  0  0  0  0  0  0  0
   -4.6576    1.3559    1.0107 H   0  0  0  0  0  0  0  0  0  0  0  0
   -5.7804    1.9023   -0.7615 C   0  0  0  0  0  0  0  0  0  0  0  0
   -5.5747    2.2059   -1.8135 H   0  0  0  0  0  0  0  0  0  0  0  0
   -6.2345    2.7924   -0.2776 H   0  0  0  0  0  0  0  0  0  0  0  0
   -6.7874    0.7500   -0.7480 C   0  0  0  0  0  0  0  0  0  0  0  0
   -6.4241   -0.1336   -1.3125 H   0  0  0  0  0  0  0  0  0  0  0  0
   -7.7499    1.0521   -1.2057 H   0  0  0  0  0  0  0  0  0  0  0  0
   -7.0023    0.4173    0.2891 H   0  0  0  0  0  0  0  0  0  0  0  0
   -2.1436    0.2103    1.3132 C   0  0  0  0  0  0  0  0  0  0  0  0
   -1.0874    0.1712    1.6471 H   0  0  0  0  0  0  0  0  0  0  0  0
   -2.5312    1.1756    1.6988 H   0  0  0  0  0  0  0  0  0  0  0  0
   -2.8791   -0.9592    1.9662 C   0  0  0  0  0  0  0  0  0  0  0  0
   -3.9580   -0.9514    1.6941 H   0  0  0  0  0  0  0  0  0  0  0  0
   -2.4704   -1.9181    1.5755 H   0  0  0  0  0  0  0  0  0  0  0  0
   -2.7409   -0.9467    3.4932 C   0  0  0  0  0  0  0  0  0  0  0  0
   -1.6596   -0.9543    3.7484 H   0  0  0  0  0  0  0  0  0  0  0  0
   -3.1440    0.0139    3.8847 H   0  0  0  0  0  0  0  0  0  0  0  0
   -3.4506   -2.1200    4.1673 C   0  0  0  0  0  0  0  0  0  0  0  0
   -4.5383   -2.1244    3.9443 H   0  0  0  0  0  0  0  0  0  0  0  0
   -3.3364   -2.0836    5.2687 H   0  0  0  0  0  0  0  0  0  0  0  0
   -3.0373   -3.0911    3.8234 H   0  0  0  0  0  0  0  0  0  0  0  0
  1  5  1  0  0  0  0
  4 42  1  0  0  0  0
  5  6  1  0  0  0  0
  7  5  2  0  0  0  0
  7  8  1  0  0  0  0
  9  7  1  0  0  0  0
 10  9  1  0  0  0  0
 11 12  1  0  0  0  0
 11  9  2  0  0  0  0
 12  1  1  0  0  0  0
 13 11  1  0  0  0  0
 14 13  1  0  0  0  0
 15 17  1  0  0  0  0
 15 13  2  0  0  0  0
 16 15  1  0  0  0  0
 17 18  1  0  0  0  0
 18  2  1  0  0  0  0
 18 12  2  0  0  0  0
 19 21  1  0  0  0  0
 19 17  2  0  0  0  0
 20 19  1  0  0  0  0
 21 23  2  0  0  0  0
 22 21  1  0  0  0  0
 23  2  1  0  0  0  0
 23 24  1  0  0  0  0
 24 57  1  0  0  0  0
 25  3  1  0  0  0  0
 25 24  1  0  0  0  0
 26 25  2  0  0  0  0
 27 26  1  0  0  0  0
 28 30  2  0  0  0  0
 28 26  1  0  0  0  0
 29 28  1  0  0  0  0
 30 31  1  0  0  0  0
 31 37  2  0  0  0  0
 31  3  1  0  0  0  0
 32 34  2  0  0  0  0
 32 30  1  0  0  0  0
 33 32  1  0  0  0  0
 34 36  1  0  0  0  0
 35 34  1  0  0  0  0
 36 38  2  0  0  0  0
 36 37  1  0  0  0  0
 37  4  1  0  0  0  0
 38 40  1  0  0  0  0
 39 38  1  0  0  0  0
 40 41  1  0  0  0  0
 40 42  2  0  0  0  0
 42 43  1  0  0  0  0
 44 46  1  0  0  0  0
 44 24  1  0  0  0  0
 44 47  1  0  0  0  0
 45 44  1  0  0  0  0
 47 48  1  0  0  0  0
 47 49  1  0  0  0  0
 50 53  1  0  0  0  0
 50 52  1  0  0  0  0
 50 47  1  0  0  0  0
 51 50  1  0  0  0  0
 53 56  1  0  0  0  0
 54 53  1  0  0  0  0
 55 53  1  0  0  0  0
 57 58  1  0  0  0  0
 57 59  1  0  0  0  0
 57 60  1  0  0  0  0
 60 63  1  0  0  0  0
 61 60  1  0  0  0  0
 62 60  1  0  0  0  0
 63 64  1  0  0  0  0
 63 65  1  0  0  0  0
 63 66  1  0  0  0  0
 66 68  1  0  0  0  0
 67 66  1  0  0  0  0
 69 66  1  0  0  0  0
M  END
