1,4,5,8
 OpenBabel05122313063D

 31 30  0  0  0  0  0  0  0  0999 V2000
   -0.3284   -2.0277   -0.4512 N   0  0  0  0  0  0  0  0  0  0  0  0
    0.1098   -2.7986    0.0770 H   0  0  0  0  0  0  0  0  0  0  0  0
   -1.3204   -2.2903   -0.5675 H   0  0  0  0  0  0  0  0  0  0  0  0
    1.4612    0.0408   -0.5847 N   0  0  0  0  0  0  0  0  0  0  0  0
   -0.4406    1.6009    1.0409 N   0  0  0  0  0  0  0  0  0  0  0  0
   -1.4045    1.6056    1.4204 H   0  0  0  0  0  0  0  0  0  0  0  0
    0.1722    1.8327    1.8392 H   0  0  0  0  0  0  0  0  0  0  0  0
    0.7884   -0.8237    1.9690 N   0  0  0  0  0  0  0  0  0  0  0  0
    0.7153   -0.1355    2.7342 H   0  0  0  0  0  0  0  0  0  0  0  0
    0.4251   -1.6956    2.3827 H   0  0  0  0  0  0  0  0  0  0  0  0
    1.0942    2.5808   -0.6560 C   0  0  0  0  0  0  0  0  0  0  0  0
    1.8863    2.8234    0.0866 H   0  0  0  0  0  0  0  0  0  0  0  0
    1.1524    3.3992   -1.4022 H   0  0  0  0  0  0  0  0  0  0  0  0
   -0.2854    2.6395   -0.0097 C   0  0  0  0  0  0  0  0  0  0  0  0
   -0.4581    3.6451    0.4278 H   0  0  0  0  0  0  0  0  0  0  0  0
   -1.0730    2.4438   -0.7615 H   0  0  0  0  0  0  0  0  0  0  0  0
    1.4132    1.2887   -1.4085 C   0  0  0  0  0  0  0  0  0  0  0  0
    0.6335    1.1168   -2.1771 H   0  0  0  0  0  0  0  0  0  0  0  0
    2.3885    1.3999   -1.9342 H   0  0  0  0  0  0  0  0  0  0  0  0
    2.2036   -0.9747    1.5406 C   0  0  0  0  0  0  0  0  0  0  0  0
    2.3306   -1.9955    1.1277 H   0  0  0  0  0  0  0  0  0  0  0  0
    2.9173   -0.8888    2.3862 H   0  0  0  0  0  0  0  0  0  0  0  0
    2.5042    0.0794    0.4782 C   0  0  0  0  0  0  0  0  0  0  0  0
    3.5227   -0.0629    0.0535 H   0  0  0  0  0  0  0  0  0  0  0  0
    2.4921    1.0858    0.9393 H   0  0  0  0  0  0  0  0  0  0  0  0
    1.6651   -1.1477   -1.4874 C   0  0  0  0  0  0  0  0  0  0  0  0
    2.1624   -0.8360   -2.4289 H   0  0  0  0  0  0  0  0  0  0  0  0
    2.3575   -1.8553   -0.9881 H   0  0  0  0  0  0  0  0  0  0  0  0
    0.3362   -1.8326   -1.7617 C   0  0  0  0  0  0  0  0  0  0  0  0
    0.4869   -2.7869   -2.3091 H   0  0  0  0  0  0  0  0  0  0  0  0
   -0.3365   -1.1860   -2.3569 H   0  0  0  0  0  0  0  0  0  0  0  0
  1  2  1  0  0  0  0
  3  1  1  0  0  0  0
  4 23  1  0  0  0  0
  5  6  1  0  0  0  0
  5  7  1  0  0  0  0
  8 10  1  0  0  0  0
  8  9  1  0  0  0  0
 11 14  1  0  0  0  0
 11 12  1  0  0  0  0
 13 11  1  0  0  0  0
 14 15  1  0  0  0  0
 14  5  1  0  0  0  0
 16 14  1  0  0  0  0
 17 11  1  0  0  0  0
 17  4  1  0  0  0  0
 18 17  1  0  0  0  0
 19 17  1  0  0  0  0
 20  8  1  0  0  0  0
 20 22  1  0  0  0  0
 21 20  1  0  0  0  0
 23 25  1  0  0  0  0
 23 20  1  0  0  0  0
 24 23  1  0  0  0  0
 26 28  1  0  0  0  0
 26  4  1  0  0  0  0
 27 26  1  0  0  0  0
 29 26  1  0  0  0  0
 29  1  1  0  0  0  0
 30 29  1  0  0  0  0
 31 29  1  0  0  0  0
M  END
