1,2,3,4
 OpenBabel05122313063D

 40 42  0  0  1  0  0  0  0  0999 V2000
    0.4788    0.0016    2.0941 N   0  0  0  0  0  0  0  0  0  0  0  0
   -0.6383   -1.3277    0.0010 N   0  0  0  0  0  2  0  0  0  0  0  0
    0.4788   -0.0016   -2.0941 N   0  0  0  0  0  0  0  0  0  0  0  0
   -0.6383    1.3277   -0.0010 N   0  0  0  0  0  2  0  0  0  0  0  0
   -0.3177   -1.2500    2.3640 C   0  0  0  0  0  0  0  0  0  0  0  0
   -1.1778   -1.6593    1.1935 C   0  0  2  0  0  3  0  0  0  0  0  0
   -2.3691   -2.3946    1.2232 C   0  0  0  0  0  0  0  0  0  0  0  0
   -2.9630   -2.7605    0.0021 C   0  0  0  0  0  0  0  0  0  0  0  0
   -2.3690   -2.3966   -1.2196 C   0  0  0  0  0  0  0  0  0  0  0  0
   -1.1777   -1.6612   -1.1910 C   0  0  0  0  0  0  0  0  0  0  0  0
   -0.3175   -1.2538   -2.3621 C   0  0  0  0  0  0  0  0  0  0  0  0
   -0.3178    1.2500   -2.3641 C   0  0  0  0  0  0  0  0  0  0  0  0
   -1.1778    1.6592   -1.1935 C   0  0  2  0  0  3  0  0  0  0  0  0
   -2.3692    2.3946   -1.2232 C   0  0  0  0  0  0  0  0  0  0  0  0
   -2.9630    2.7605   -0.0021 C   0  0  0  0  0  0  0  0  0  0  0  0
   -2.3691    2.3966    1.2196 C   0  0  0  0  0  0  0  0  0  0  0  0
   -1.1777    1.6612    1.1910 C   0  0  0  0  0  0  0  0  0  0  0  0
   -0.3175    1.2538    2.3621 C   0  0  0  0  0  0  0  0  0  0  0  0
    1.7202    0.0022    2.9162 C   0  0  0  0  0  0  0  0  0  0  0  0
    1.7201   -0.0021   -2.9162 C   0  0  0  0  0  0  0  0  0  0  0  0
    0.4284   -2.0593    2.5095 H   0  0  0  0  0  0  0  0  0  0  0  0
   -0.8999   -1.1498    3.3039 H   0  0  0  0  0  0  0  0  0  0  0  0
   -2.8248   -2.6796    2.1820 H   0  0  0  0  0  0  0  0  0  0  0  0
   -3.9004   -3.3356    0.0025 H   0  0  0  0  0  0  0  0  0  0  0  0
   -2.8247   -2.6832   -2.1780 H   0  0  0  0  0  0  0  0  0  0  0  0
    0.4288   -2.0632   -2.5060 H   0  0  0  0  0  0  0  0  0  0  0  0
   -0.8995   -1.1553   -3.3022 H   0  0  0  0  0  0  0  0  0  0  0  0
   -0.9000    1.1498   -3.3039 H   0  0  0  0  0  0  0  0  0  0  0  0
    0.4283    2.0593   -2.5096 H   0  0  0  0  0  0  0  0  0  0  0  0
   -2.8249    2.6796   -2.1820 H   0  0  0  0  0  0  0  0  0  0  0  0
   -3.9004    3.3356   -0.0025 H   0  0  0  0  0  0  0  0  0  0  0  0
   -2.8247    2.6832    2.1780 H   0  0  0  0  0  0  0  0  0  0  0  0
    0.4287    2.0632    2.5061 H   0  0  0  0  0  0  0  0  0  0  0  0
   -0.8996    1.1552    3.3022 H   0  0  0  0  0  0  0  0  0  0  0  0
    1.4700    0.0030    3.9983 H   0  0  0  0  0  0  0  0  0  0  0  0
    2.3106    0.8961    2.6454 H   0  0  0  0  0  0  0  0  0  0  0  0
    2.3105   -0.8922    2.6468 H   0  0  0  0  0  0  0  0  0  0  0  0
    2.3104    0.8923   -2.6469 H   0  0  0  0  0  0  0  0  0  0  0  0
    2.3106   -0.8960   -2.6455 H   0  0  0  0  0  0  0  0  0  0  0  0
    1.4700   -0.0030   -3.9983 H   0  0  0  0  0  0  0  0  0  0  0  0
  1 18  1  0  0  0  0
  1  5  1  0  0  0  0
  1 19  1  0  0  0  0
  4 17  1  0  0  0  0
  5 21  1  0  0  0  0
  5 22  1  0  0  0  0
  6  2  1  6  0  0  0
  6  7  1  0  0  0  0
  6  5  1  0  0  0  0
  7 23  1  0  0  0  0
  8 24  1  0  0  0  0
  8  7  2  0  0  0  0
  9 10  2  0  0  0  0
  9  8  1  0  0  0  0
 10  2  1  0  0  0  0
 11  3  1  0  0  0  0
 11 10  1  0  0  0  0
 12  3  1  0  0  0  0
 12 13  1  0  0  0  0
 13 14  1  1  0  0  0
 13  4  1  0  0  0  0
 14 15  2  0  0  0  0
 15 16  1  0  0  0  0
 16 32  1  0  0  0  0
 17 16  2  0  0  0  0
 17 18  1  0  0  0  0
 18 33  1  0  0  0  0
 18 34  1  0  0  0  0
 19 35  1  0  0  0  0
 20 38  1  0  0  0  0
 20 39  1  0  0  0  0
 20  3  1  0  0  0  0
 25  9  1  0  0  0  0
 26 11  1  0  0  0  0
 27 11  1  0  0  0  0
 28 12  1  0  0  0  0
 29 12  1  0  0  0  0
 30 14  1  0  0  0  0
 31 15  1  0  0  0  0
 36 19  1  0  0  0  0
 37 19  1  0  0  0  0
 40 20  1  0  0  0  0
M  END
