1,2,4,5
 OpenBabel05122313063D

 55 57  0  0  0  0  0  0  0  0999 V2000
    2.9711   -1.1446    0.5511 N   0  0  0  0  0  2  0  0  0  0  0  0
    0.4605   -2.2070    0.6471 N   0  0  0  0  0  2  0  0  0  0  0  0
   -1.7779   -0.2734    0.6586 N   0  0  0  0  0  0  0  0  0  0  0  0
   -0.3762    2.1408    0.3163 N   0  0  0  0  0  2  0  0  0  0  0  0
    1.8437    1.6970   -1.2219 N   0  0  0  0  0  2  0  0  0  0  0  0
   -4.8834    1.5666   -0.0448 N   0  0  0  0  0  0  0  0  0  0  0  0
   -5.5283    2.0685    0.8748 O   0  0  0  0  0  0  0  0  0  0  0  0
   -4.1567    2.1966   -0.8217 O   0  0  0  0  0  0  0  0  0  0  0  0
    4.1929   -0.6059    0.5911 C   0  0  0  0  0  3  0  0  0  0  0  0
    4.2287    0.4951    0.6393 H   0  0  0  0  0  0  0  0  0  0  0  0
    5.3587   -1.3928    0.6009 C   0  0  0  0  0  0  0  0  0  0  0  0
    6.3472   -0.9124    0.6307 H   0  0  0  0  0  0  0  0  0  0  0  0
    5.2268   -2.7877    0.5745 C   0  0  0  0  0  0  0  0  0  0  0  0
    6.1165   -3.4352    0.5755 H   0  0  0  0  0  0  0  0  0  0  0  0
    3.9422   -3.3480    0.5553 C   0  0  0  0  0  0  0  0  0  0  0  0
    3.7926   -4.4378    0.5441 H   0  0  0  0  0  0  0  0  0  0  0  0
    2.8307   -2.4875    0.5466 C   0  0  0  0  0  0  0  0  0  0  0  0
    1.4494   -3.0155    0.5625 C   0  0  0  0  0  3  0  0  0  0  0  0
    1.3195   -4.1170    0.4902 H   0  0  0  0  0  0  0  0  0  0  0  0
   -0.9175   -2.6224    0.6047 C   0  0  0  0  0  0  0  0  0  0  0  0
   -1.0682   -3.6255    1.0645 H   0  0  0  0  0  0  0  0  0  0  0  0
   -1.1756   -2.7195   -0.4756 H   0  0  0  0  0  0  0  0  0  0  0  0
   -1.7994   -1.5841    1.3131 C   0  0  0  0  0  0  0  0  0  0  0  0
   -2.8321   -1.9967    1.4141 H   0  0  0  0  0  0  0  0  0  0  0  0
   -1.4080   -1.4429    2.3405 H   0  0  0  0  0  0  0  0  0  0  0  0
   -2.0596    0.8372    1.5757 C   0  0  0  0  0  0  0  0  0  0  0  0
   -1.4681    0.6389    2.4912 H   0  0  0  0  0  0  0  0  0  0  0  0
   -3.1339    0.8967    1.8788 H   0  0  0  0  0  0  0  0  0  0  0  0
   -1.6318    2.2145    1.0296 C   0  0  0  0  0  0  0  0  0  0  0  0
   -2.4066    2.6274    0.3458 H   0  0  0  0  0  0  0  0  0  0  0  0
   -1.5654    2.9220    1.8859 H   0  0  0  0  0  0  0  0  0  0  0  0
    0.2180    3.1544   -0.1914 C   0  0  0  0  0  0  0  0  0  0  0  0
   -0.1619    4.1953   -0.0833 H   0  0  0  0  0  0  0  0  0  0  0  0
    1.4223    2.9652   -1.0331 C   0  0  0  0  0  0  0  0  0  0  0  0
    2.0455    4.0493   -1.6763 C   0  0  0  0  0  0  0  0  0  0  0  0
    1.6837    5.0743   -1.5047 H   0  0  0  0  0  0  0  0  0  0  0  0
    3.1181    3.7903   -2.5429 C   0  0  0  0  0  0  0  0  0  0  0  0
    3.6294    4.6185   -3.0562 H   0  0  0  0  0  0  0  0  0  0  0  0
    3.5126    2.4632   -2.7609 C   0  0  0  0  0  0  0  0  0  0  0  0
    4.3284    2.2170   -3.4559 H   0  0  0  0  0  0  0  0  0  0  0  0
    2.8373    1.4351   -2.0763 C   0  0  0  0  0  0  0  0  0  0  0  0
    3.0594    0.3629   -2.2320 H   0  0  0  0  0  0  0  0  0  0  0  0
   -2.4502   -0.2222   -0.6594 C   0  0  0  0  0  0  0  0  0  0  0  0
   -1.8673   -0.8562   -1.3573 H   0  0  0  0  0  0  0  0  0  0  0  0
   -2.3670    0.8058   -1.0490 H   0  0  0  0  0  0  0  0  0  0  0  0
   -3.8997   -0.6806   -0.6398 C   0  0  0  0  0  0  0  0  0  0  0  0
   -4.1785   -2.0391   -0.9045 C   0  0  0  0  0  0  0  0  0  0  0  0
   -3.3454   -2.6845   -1.2236 H   0  0  0  0  0  0  0  0  0  0  0  0
   -5.4672   -2.5781   -0.7868 C   0  0  0  0  0  0  0  0  0  0  0  0
   -5.6377   -3.6399   -1.0191 H   0  0  0  0  0  0  0  0  0  0  0  0
   -6.5344   -1.7667   -0.3699 C   0  0  0  0  0  0  0  0  0  0  0  0
   -7.5477   -2.1815   -0.2655 H   0  0  0  0  0  0  0  0  0  0  0  0
   -6.3020   -0.4152   -0.0973 C   0  0  0  0  0  0  0  0  0  0  0  0
   -7.1081    0.2569    0.2273 H   0  0  0  0  0  0  0  0  0  0  0  0
   -5.0099    0.1105   -0.2597 C   0  0  0  0  0  0  0  0  0  0  0  0
  1  9  1  0  0  0  0
  3 23  1  0  0  0  0
  3 26  1  0  0  0  0
  4 29  1  0  0  0  0
  5 34  1  0  0  0  0
  6  7  2  0  0  0  0
  8  6  2  0  0  0  0
  9 11  1  0  0  0  0
  9 10  1  0  0  0  0
 11 12  1  0  0  0  0
 13 14  1  0  0  0  0
 13 11  2  0  0  0  0
 15 13  1  0  0  0  0
 16 15  1  0  0  0  0
 17  1  1  0  0  0  0
 17 15  2  0  0  0  0
 17 18  1  0  0  0  0
 18  2  1  0  0  0  0
 19 18  1  0  0  0  0
 20  2  1  0  0  0  0
 20 21  1  0  0  0  0
 20 23  1  0  0  0  0
 22 20  1  0  0  0  0
 23 24  1  0  0  0  0
 23 25  1  0  0  0  0
 26 28  1  0  0  0  0
 26 27  1  0  0  0  0
 29 26  1  0  0  0  0
 29 31  1  0  0  0  0
 30 29  1  0  0  0  0
 32 33  1  0  0  0  0
 32  4  1  0  0  0  0
 34 32  2  0  0  0  0
 35 36  1  0  0  0  0
 35 34  1  0  0  0  0
 37 35  2  0  0  0  0
 38 37  1  0  0  0  0
 39 37  1  0  0  0  0
 39 41  2  0  0  0  0
 40 39  1  0  0  0  0
 41  5  1  0  0  0  0
 42 41  1  0  0  0  0
 43 46  1  0  0  0  0
 43  3  1  0  0  0  0
 44 43  1  0  0  0  0
 45 43  1  0  0  0  0
 46 55  1  0  0  0  0
 47 49  1  0  0  0  0
 47 46  2  0  0  0  0
 48 47  1  0  0  0  0
 49 51  2  0  0  0  0
 50 49  1  0  0  0  0
 51 52  1  0  0  0  0
 51 53  1  0  0  0  0
 53 54  1  0  0  0  0
 55 53  2  0  0  0  0
 55  6  1  0  0  0  0
M  END
