1,2,3,4
 OpenBabel05122313063D

 52 56  0  0  1  0  0  0  0  0999 V2000
    0.2566   -0.8171    1.9850 N   0  0  0  0  0  0  0  0  0  0  0  0
   -2.0088   -0.2376    0.5798 N   0  0  0  0  0  2  0  0  0  0  0  0
    0.5693    1.6434    0.5526 N   0  0  0  0  0  2  0  0  0  0  0  0
    2.1069   -0.7128   -0.1408 N   0  0  0  0  0  2  0  0  0  0  0  0
   -0.9475   -1.5987    2.3023 C   0  0  0  0  0  0  0  0  0  0  0  0
   -2.1852   -0.9992    1.6610 C   0  0  0  0  0  0  0  0  0  0  0  0
   -3.4758   -1.2880    2.1782 C   0  0  0  0  0  0  0  0  0  0  0  0
   -4.5901   -0.7856    1.5283 C   0  0  0  0  0  0  0  0  0  0  0  0
   -5.5259    0.6313   -0.3123 C   0  0  0  0  0  3  0  0  0  0  0  0
   -5.3025    1.4685   -1.3953 C   0  0  0  0  0  0  0  0  0  0  0  0
   -3.9758    1.7671   -1.8058 C   0  0  0  0  0  0  0  0  0  0  0  0
   -2.8859    1.2113   -1.1488 C   0  0  0  0  0  0  0  0  0  0  0  0
   -3.0880    0.3266   -0.0536 C   0  0  0  0  0  0  0  0  0  0  0  0
   -4.4305    0.0505    0.3882 C   0  0  0  0  0  0  0  0  0  0  0  0
    0.2943    0.4700    2.6979 C   0  0  0  0  0  0  0  0  0  0  0  0
    0.7346    1.6704    1.8750 C   0  0  0  0  0  0  0  0  0  0  0  0
    1.2364    2.8147    2.5523 C   0  0  0  0  0  0  0  0  0  0  0  0
    1.5549    3.9468    1.8234 C   0  0  0  0  0  0  0  0  0  0  0  0
    1.7292    5.0631   -0.4065 C   0  0  0  0  0  3  0  0  0  0  0  0
    1.5873    4.9915   -1.7840 C   0  0  0  0  0  0  0  0  0  0  0  0
    1.1217    3.7948   -2.3908 C   0  0  0  0  0  0  0  0  0  0  0  0
    0.7892    2.6851   -1.6244 C   0  0  0  0  0  0  0  0  0  0  0  0
    0.9106    2.7376   -0.2078 C   0  0  0  0  0  0  0  0  0  0  0  0
    1.4023    3.9434    0.4101 C   0  0  0  0  0  0  0  0  0  0  0  0
    1.5089   -1.5862    2.0563 C   0  0  0  0  0  0  0  0  0  0  0  0
    2.5574   -1.1284    1.0614 C   0  0  1  0  0  3  0  0  0  0  0  0
    3.9293   -1.2454    1.3247 C   0  0  0  0  0  0  0  0  0  0  0  0
    4.8440   -0.9480    0.3050 C   0  0  0  0  0  0  0  0  0  0  0  0
    4.3623   -0.5366   -0.9457 C   0  0  0  0  0  0  0  0  0  0  0  0
    2.9793   -0.4262   -1.1233 C   0  0  0  0  0  0  0  0  0  0  0  0
   -0.8148   -2.6120    1.8712 H   0  0  0  0  0  0  0  0  0  0  0  0
   -1.1058   -1.7120    3.3993 H   0  0  0  0  0  0  0  0  0  0  0  0
   -3.5736   -1.9167    3.0750 H   0  0  0  0  0  0  0  0  0  0  0  0
   -5.6035   -1.0132    1.8933 H   0  0  0  0  0  0  0  0  0  0  0  0
   -6.5497    0.4088    0.0244 H   0  0  0  0  0  0  0  0  0  0  0  0
   -6.1520    1.9147   -1.9326 H   0  0  0  0  0  0  0  0  0  0  0  0
   -3.8106    2.4555   -2.6480 H   0  0  0  0  0  0  0  0  0  0  0  0
   -1.8597    1.4721   -1.4432 H   0  0  0  0  0  0  0  0  0  0  0  0
    0.9296    0.4003    3.6093 H   0  0  0  0  0  0  0  0  0  0  0  0
   -0.7318    0.6961    3.0604 H   0  0  0  0  0  0  0  0  0  0  0  0
    1.3611    2.7888    3.6446 H   0  0  0  0  0  0  0  0  0  0  0  0
    1.9381    4.8493    2.3241 H   0  0  0  0  0  0  0  0  0  0  0  0
    2.1000    5.9807    0.0748 H   0  0  0  0  0  0  0  0  0  0  0  0
    1.8418    5.8583   -2.4113 H   0  0  0  0  0  0  0  0  0  0  0  0
    1.0276    3.7445   -3.4860 H   0  0  0  0  0  0  0  0  0  0  0  0
    0.4498    1.7532   -2.1004 H   0  0  0  0  0  0  0  0  0  0  0  0
    1.2765   -2.6345    1.7722 H   0  0  0  0  0  0  0  0  0  0  0  0
    1.9313   -1.5987    3.0858 H   0  0  0  0  0  0  0  0  0  0  0  0
    4.2728   -1.5823    2.3136 H   0  0  0  0  0  0  0  0  0  0  0  0
    5.9254   -1.0402    0.4853 H   0  0  0  0  0  0  0  0  0  0  0  0
    5.0446   -0.3027   -1.7748 H   0  0  0  0  0  0  0  0  0  0  0  0
    2.5492   -0.1041   -2.0839 H   0  0  0  0  0  0  0  0  0  0  0  0
  1 25  1  0  0  0  0
  1  5  1  0  0  0  0
  1 15  1  0  0  0  0
  2  6  1  0  0  0  0
  3 16  1  0  0  0  0
  4 26  1  0  0  0  0
  5 32  1  0  0  0  0
  6  7  2  0  0  0  0
  6  5  1  0  0  0  0
  7 33  1  0  0  0  0
  8 34  1  0  0  0  0
  8  7  1  0  0  0  0
  9 35  1  0  0  0  0
  9 14  1  0  0  0  0
 10  9  1  0  0  0  0
 11 10  2  0  0  0  0
 11 12  1  0  0  0  0
 12 13  2  0  0  0  0
 13 14  1  0  0  0  0
 13  2  1  0  0  0  0
 14  8  2  0  0  0  0
 15 40  1  0  0  0  0
 15 39  1  0  0  0  0
 16 17  2  0  0  0  0
 16 15  1  0  0  0  0
 17 41  1  0  0  0  0
 18 42  1  0  0  0  0
 18 17  1  0  0  0  0
 19 43  1  0  0  0  0
 19 24  1  0  0  0  0
 20 19  1  0  0  0  0
 21 20  2  0  0  0  0
 21 22  1  0  0  0  0
 22 23  2  0  0  0  0
 23 24  1  0  0  0  0
 23  3  1  0  0  0  0
 24 18  2  0  0  0  0
 25 48  1  0  0  0  0
 26 27  1  0  0  0  0
 26 25  1  6  0  0  0
 27 49  1  0  0  0  0
 28 50  1  0  0  0  0
 28 27  2  0  0  0  0
 29 28  1  0  0  0  0
 30 29  2  0  0  0  0
 30  4  1  0  0  0  0
 31  5  1  0  0  0  0
 36 10  1  0  0  0  0
 37 11  1  0  0  0  0
 38 12  1  0  0  0  0
 44 20  1  0  0  0  0
 45 21  1  0  0  0  0
 46 22  1  0  0  0  0
 47 25  1  0  0  0  0
 51 29  1  0  0  0  0
 52 30  1  0  0  0  0
M  END
