24,25,61,62
 OpenBabel05122313063D

 74 82  0  0  0  0  0  0  0  0999 V2000
   -2.6253    1.4972   -0.0406 C   0  0  0  0  0  0  0  0  0  0  0  0
   -4.2919   -0.0060   -0.0073 C   0  0  0  0  0  0  0  0  0  0  0  0
   -2.9776   -0.6776    0.0261 C   0  0  0  0  0  0  0  0  0  0  0  0
   -2.7927   -2.0619    0.0789 C   0  0  0  0  0  0  0  0  0  0  0  0
   -1.5242   -2.6737    0.1004 C   0  0  0  0  0  0  0  0  0  0  0  0
   -1.3039   -4.0978    0.1994 C   0  0  0  0  0  3  0  0  0  0  0  0
   -2.0961   -4.8490    0.2752 H   0  0  0  0  0  0  0  0  0  0  0  0
    0.0528   -4.2982    0.2000 C   0  0  0  0  0  0  0  0  0  0  0  0
    0.5942   -5.2461    0.2776 H   0  0  0  0  0  0  0  0  0  0  0  0
    0.6719   -2.9969    0.1011 C   0  0  0  0  0  0  0  0  0  0  0  0
    2.0652   -2.7735    0.0840 C   0  0  0  0  0  0  0  0  0  0  0  0
   -3.9942   -2.9435    0.1203 C   0  0  0  0  0  0  0  0  0  0  0  0
   -4.8330   -2.9758    1.2489 C   0  0  0  0  0  0  0  0  0  0  0  0
   -5.9681   -3.7969    1.2959 C   0  0  0  0  0  0  0  0  0  0  0  0
   -6.2790   -4.6088    0.1905 C   0  0  0  0  0  0  0  0  0  0  0  0
   -5.4583   -4.5941   -0.9501 C   0  0  0  0  0  0  0  0  0  0  0  0
   -4.3267   -3.7628   -0.9734 C   0  0  0  0  0  0  0  0  0  0  0  0
    2.9982   -3.9309    0.1103 C   0  0  0  0  0  0  0  0  0  0  0  0
    3.8779   -4.1268    1.1931 C   0  0  0  0  0  0  0  0  0  0  0  0
    4.7736   -5.2067    1.2255 C   0  0  0  0  0  0  0  0  0  0  0  0
    4.7930   -6.1207    0.1572 C   0  0  0  0  0  0  0  0  0  0  0  0
    3.9246   -5.9492   -0.9350 C   0  0  0  0  0  0  0  0  0  0  0  0
    3.0406   -4.8584   -0.9491 C   0  0  0  0  0  0  0  0  0  0  0  0
   -1.9963    0.2895   -0.0038 N   0  0  0  0  0  2  0  0  0  0  0  0
   -0.3026   -2.0201    0.0498 N   0  0  0  0  0  0  0  0  0  0  0  0
   -3.9769    1.3683   -0.0309 O   0  0  0  0  0  0  0  0  0  0  0  0
   -5.4312   -0.3984   -0.0184 O   0  0  0  0  0  0  0  0  0  0  0  0
   -4.5579   -2.2000    2.3022 F   0  0  0  0  0  0  0  0  0  0  0  0
   -6.7520   -3.8143    2.3751 F   0  0  0  0  0  0  0  0  0  0  0  0
   -7.3537   -5.3951    0.2254 F   0  0  0  0  0  0  0  0  0  0  0  0
   -5.7569   -5.3654   -1.9976 F   0  0  0  0  0  0  0  0  0  0  0  0
   -3.5596   -3.7576   -2.0704 F   0  0  0  0  0  0  0  0  0  0  0  0
    3.8656   -3.2760    2.2229 F   0  0  0  0  0  0  0  0  0  0  0  0
    5.5952   -5.3775    2.2618 F   0  0  0  0  0  0  0  0  0  0  0  0
    5.6357   -7.1513    0.1799 F   0  0  0  0  0  0  0  0  0  0  0  0
    3.9510   -6.8148   -1.9498 F   0  0  0  0  0  0  0  0  0  0  0  0
    2.2334   -4.7060   -2.0049 F   0  0  0  0  0  0  0  0  0  0  0  0
    2.6253   -1.4972    0.0406 C   0  0  0  0  0  0  0  0  0  0  0  0
    4.2919    0.0060    0.0073 C   0  0  0  0  0  0  0  0  0  0  0  0
    2.9776    0.6776   -0.0261 C   0  0  0  0  0  0  0  0  0  0  0  0
    2.7927    2.0619   -0.0789 C   0  0  0  0  0  0  0  0  0  0  0  0
    1.5242    2.6737   -0.1004 C   0  0  0  0  0  0  0  0  0  0  0  0
    1.3039    4.0978   -0.1994 C   0  0  0  0  0  0  0  0  0  0  0  0
    2.0961    4.8490   -0.2752 H   0  0  0  0  0  0  0  0  0  0  0  0
   -0.0528    4.2982   -0.2001 C   0  0  0  0  0  0  0  0  0  0  0  0
   -0.5942    5.2461   -0.2777 H   0  0  0  0  0  0  0  0  0  0  0  0
   -0.6719    2.9969   -0.1012 C   0  0  0  0  0  0  0  0  0  0  0  0
   -2.0652    2.7735   -0.0840 C   0  0  0  0  0  0  0  0  0  0  0  0
    3.9942    2.9435   -0.1203 C   0  0  0  0  0  0  0  0  0  0  0  0
    4.8330    2.9758   -1.2488 C   0  0  0  0  0  0  0  0  0  0  0  0
    5.9681    3.7969   -1.2959 C   0  0  0  0  0  0  0  0  0  0  0  0
    6.2790    4.6088   -0.1905 C   0  0  0  0  0  0  0  0  0  0  0  0
    5.4583    4.5941    0.9501 C   0  0  0  0  0  0  0  0  0  0  0  0
    4.3267    3.7628    0.9734 C   0  0  0  0  0  0  0  0  0  0  0  0
   -2.9982    3.9309   -0.1103 C   0  0  0  0  0  0  0  0  0  0  0  0
   -3.8779    4.1268   -1.1931 C   0  0  0  0  0  0  0  0  0  0  0  0
   -4.7736    5.2067   -1.2255 C   0  0  0  0  0  0  0  0  0  0  0  0
   -4.7930    6.1207   -0.1572 C   0  0  0  0  0  0  0  0  0  0  0  0
   -3.9246    5.9492    0.9350 C   0  0  0  0  0  0  0  0  0  0  0  0
   -3.0406    4.8584    0.9491 C   0  0  0  0  0  0  0  0  0  0  0  0
    1.9963   -0.2895    0.0038 N   0  0  0  0  0  2  0  0  0  0  0  0
    0.3026    2.0201   -0.0498 N   0  0  0  0  0  2  0  0  0  0  0  0
    3.9769   -1.3683    0.0309 O   0  0  0  0  0  0  0  0  0  0  0  0
    5.4312    0.3984    0.0184 O   0  0  0  0  0  0  0  0  0  0  0  0
    4.5579    2.2000   -2.3022 F   0  0  0  0  0  0  0  0  0  0  0  0
    6.7520    3.8143   -2.3751 F   0  0  0  0  0  0  0  0  0  0  0  0
    7.3537    5.3950   -0.2254 F   0  0  0  0  0  0  0  0  0  0  0  0
    5.7569    5.3654    1.9976 F   0  0  0  0  0  0  0  0  0  0  0  0
    3.5596    3.7577    2.0704 F   0  0  0  0  0  0  0  0  0  0  0  0
   -3.8656    3.2760   -2.2229 F   0  0  0  0  0  0  0  0  0  0  0  0
   -5.5951    5.3775   -2.2619 F   0  0  0  0  0  0  0  0  0  0  0  0
   -5.6357    7.1513   -0.1800 F   0  0  0  0  0  0  0  0  0  0  0  0
   -3.9510    6.8149    1.9498 F   0  0  0  0  0  0  0  0  0  0  0  0
   -2.2334    4.7060    2.0048 F   0  0  0  0  0  0  0  0  0  0  0  0
  1 26  1  0  0  0  0
  1 24  1  0  0  0  0
  2  3  1  0  0  0  0
  3  4  2  0  0  0  0
  4  5  1  0  0  0  0
  4 12  1  0  0  0  0
  5  6  1  0  0  0  0
  6  8  1  0  0  0  0
  6  7  1  0  0  0  0
  8  9  1  0  0  0  0
 10  8  2  0  0  0  0
 11 10  1  0  0  0  0
 11 18  1  0  0  0  0
 12 13  1  0  0  0  0
 13 14  2  0  0  0  0
 13 28  1  0  0  0  0
 14 29  1  0  0  0  0
 15 30  1  0  0  0  0
 15 14  1  0  0  0  0
 16 15  2  0  0  0  0
 17 16  1  0  0  0  0
 17 12  2  0  0  0  0
 18 19  1  0  0  0  0
 19 20  2  0  0  0  0
 19 33  1  0  0  0  0
 20 34  1  0  0  0  0
 21 35  1  0  0  0  0
 21 20  1  0  0  0  0
 22 21  2  0  0  0  0
 23 22  1  0  0  0  0
 23 18  2  0  0  0  0
 24  3  1  0  0  0  0
 25  5  2  0  0  0  0
 25 10  1  0  0  0  0
 26  2  1  0  0  0  0
 27  2  2  0  0  0  0
 31 16  1  0  0  0  0
 32 17  1  0  0  0  0
 36 22  1  0  0  0  0
 37 23  1  0  0  0  0
 38 11  2  0  0  0  0
 39 64  2  0  0  0  0
 39 63  1  0  0  0  0
 40 61  1  0  0  0  0
 40 39  1  0  0  0  0
 41 40  2  0  0  0  0
 42 41  1  0  0  0  0
 42 62  1  0  0  0  0
 43 42  2  0  0  0  0
 44 43  1  0  0  0  0
 45 43  1  0  0  0  0
 45 47  2  0  0  0  0
 46 45  1  0  0  0  0
 47 48  1  0  0  0  0
 47 62  1  0  0  0  0
 48  1  2  0  0  0  0
 49 41  1  0  0  0  0
 49 54  1  0  0  0  0
 50 49  2  0  0  0  0
 51 50  1  0  0  0  0
 51 52  2  0  0  0  0
 52 53  1  0  0  0  0
 53 54  2  0  0  0  0
 53 68  1  0  0  0  0
 54 69  1  0  0  0  0
 55 48  1  0  0  0  0
 55 60  1  0  0  0  0
 56 55  2  0  0  0  0
 57 56  1  0  0  0  0
 57 58  2  0  0  0  0
 58 59  1  0  0  0  0
 59 60  2  0  0  0  0
 59 73  1  0  0  0  0
 60 74  1  0  0  0  0
 61 38  1  0  0  0  0
 63 38  1  0  0  0  0
 65 50  1  0  0  0  0
 66 51  1  0  0  0  0
 67 52  1  0  0  0  0
 70 56  1  0  0  0  0
 71 57  1  0  0  0  0
 72 58  1  0  0  0  0
M  END
