1,2,22,23
 OpenBabel05122313063D

 40 40  0  0  1  0  0  0  0  0999 V2000
   -1.3593   -1.4808    0.0160 N   0  0  0  0  0  2  0  0  0  0  0  0
   -1.3612    1.4790   -0.0244 N   0  0  0  0  0  2  0  0  0  0  0  0
   -0.6992   -2.7631    0.2982 C   0  0  0  0  0  0  0  0  0  0  0  0
   -0.6381   -2.9221    1.3994 H   0  0  0  0  0  0  0  0  0  0  0  0
   -1.2752   -3.6071   -0.1289 H   0  0  0  0  0  0  0  0  0  0  0  0
   -0.7029    2.7624   -0.3066 C   0  0  0  0  0  0  0  0  0  0  0  0
   -0.6417    2.9216   -1.4077 H   0  0  0  0  0  0  0  0  0  0  0  0
   -1.2801    3.6052    0.1212 H   0  0  0  0  0  0  0  0  0  0  0  0
   -2.6818    1.2795   -0.1560 C   0  0  1  0  0  3  0  0  0  0  0  0
   -3.2995   -0.0021    0.0032 C   0  0  0  0  0  0  0  0  0  0  0  0
   -2.6801   -1.2835    0.1531 C   0  0  0  0  0  0  0  0  0  0  0  0
   -5.0633    0.0012    0.0183 Cl  0  0  0  0  0  0  0  0  0  0  0  0
   -3.5165    2.4979   -0.4666 C   0  0  0  0  0  0  0  0  0  0  0  0
   -3.0746    3.0658   -1.3084 H   0  0  0  0  0  0  0  0  0  0  0  0
   -3.5590    3.1766    0.4113 H   0  0  0  0  0  0  0  0  0  0  0  0
   -4.5489    2.2234   -0.7308 H   0  0  0  0  0  0  0  0  0  0  0  0
   -3.5098   -2.5060    0.4610 C   0  0  0  0  0  0  0  0  0  0  0  0
   -3.0879   -3.0489    1.3298 H   0  0  0  0  0  0  0  0  0  0  0  0
   -3.5114   -3.2045   -0.4019 H   0  0  0  0  0  0  0  0  0  0  0  0
   -4.5537   -2.2412    0.6857 H   0  0  0  0  0  0  0  0  0  0  0  0
    0.7029   -2.7624   -0.3066 C   0  0  0  0  0  0  0  0  0  0  0  0
    1.3612   -1.4790   -0.0243 N   0  0  0  0  0  2  0  0  0  0  0  0
    1.3593    1.4808    0.0161 N   0  0  0  0  0  2  0  0  0  0  0  0
    0.6991    2.7631    0.2983 C   0  0  0  0  0  0  0  0  0  0  0  0
    0.6380    2.9221    1.3995 H   0  0  0  0  0  0  0  0  0  0  0  0
    1.2752    3.6071   -0.1288 H   0  0  0  0  0  0  0  0  0  0  0  0
    2.6801    1.2836    0.1533 C   0  0  1  0  0  3  0  0  0  0  0  0
    3.2995    0.0021    0.0034 C   0  0  0  0  0  0  0  0  0  0  0  0
    2.6818   -1.2794   -0.1558 C   0  0  0  0  0  0  0  0  0  0  0  0
    3.5166   -2.4979   -0.4663 C   0  0  0  0  0  0  0  0  0  0  0  0
    3.0753   -3.0653   -1.3087 H   0  0  0  0  0  0  0  0  0  0  0  0
    3.5583   -3.1770    0.4114 H   0  0  0  0  0  0  0  0  0  0  0  0
    4.5492   -2.2233   -0.7296 H   0  0  0  0  0  0  0  0  0  0  0  0
    5.0633   -0.0013    0.0179 Cl  0  0  0  0  0  0  0  0  0  0  0  0
    3.5097    2.5061    0.4613 C   0  0  0  0  0  0  0  0  0  0  0  0
    3.0872    3.0493    1.3296 H   0  0  0  0  0  0  0  0  0  0  0  0
    3.5118    3.2043   -0.4018 H   0  0  0  0  0  0  0  0  0  0  0  0
    4.5535    2.2414    0.6867 H   0  0  0  0  0  0  0  0  0  0  0  0
    0.6418   -2.9216   -1.4077 H   0  0  0  0  0  0  0  0  0  0  0  0
    1.2801   -3.6052    0.1214 H   0  0  0  0  0  0  0  0  0  0  0  0
  1 11  1  0  0  0  0
  1  3  1  0  0  0  0
  3  4  1  0  0  0  0
  5  3  1  0  0  0  0
  6  2  1  0  0  0  0
  6  8  1  0  0  0  0
  6 24  1  0  0  0  0
  7  6  1  0  0  0  0
  9 13  1  1  0  0  0
  9  2  1  0  0  0  0
  9 10  1  0  0  0  0
 10 12  1  0  0  0  0
 10 11  2  0  0  0  0
 11 17  1  0  0  0  0
 13 15  1  0  0  0  0
 14 13  1  0  0  0  0
 16 13  1  0  0  0  0
 17 20  1  0  0  0  0
 17 18  1  0  0  0  0
 19 17  1  0  0  0  0
 21 22  1  0  0  0  0
 21 40  1  0  0  0  0
 21  3  1  0  0  0  0
 23 27  1  0  0  0  0
 23 24  1  0  0  0  0
 24 25  1  0  0  0  0
 26 24  1  0  0  0  0
 27 35  1  6  0  0  0
 28 34  1  0  0  0  0
 28 27  1  0  0  0  0
 29 22  1  0  0  0  0
 29 28  2  0  0  0  0
 30 29  1  0  0  0  0
 30 32  1  0  0  0  0
 31 30  1  0  0  0  0
 33 30  1  0  0  0  0
 35 38  1  0  0  0  0
 35 36  1  0  0  0  0
 37 35  1  0  0  0  0
 39 21  1  0  0  0  0
M  END
