3,4,5,10
 OpenBabel05122313063D

 31 30  0  0  1  0  0  0  0  0999 V2000
   -0.9113    2.7375    0.6278 O   0  0  0  0  0  0  0  0  0  0  0  0
   -1.6982    2.0405    0.8231 H   0  0  0  0  0  0  0  0  0  0  0  0
    1.9958    0.2208   -0.1133 N   0  0  0  0  0  0  0  0  0  0  0  0
    0.1068   -0.7684    1.6528 N   0  0  0  0  0  2  0  0  0  0  0  0
    0.2448   -1.5461   -1.0314 N   0  0  0  0  0  2  0  0  0  0  0  0
   -0.7119   -2.5030   -1.0877 O   0  0  0  0  0  0  0  0  0  0  0  0
   -1.5071   -2.1039   -0.5334 H   0  0  0  0  0  0  0  0  0  0  0  0
   -0.8096   -1.4278    2.4180 O   0  0  0  0  0  0  0  0  0  0  0  0
   -1.6177   -1.4202    1.7943 H   0  0  0  0  0  0  0  0  0  0  0  0
    0.0933    1.9770    0.1556 N   0  0  0  0  0  2  0  0  0  0  0  0
    1.8456   -3.2528   -1.2886 N   0  0  0  0  0  0  0  0  0  0  0  0
    1.0508   -3.8777   -1.4525 H   0  0  0  0  0  0  0  0  0  0  0  0
    2.7011   -3.4764   -1.7961 H   0  0  0  0  0  0  0  0  0  0  0  0
    1.7177   -1.4946    3.2266 N   0  0  0  0  0  0  0  0  0  0  0  0
    0.9134   -1.7971    3.7869 H   0  0  0  0  0  0  0  0  0  0  0  0
    2.4797   -1.0981    3.7797 H   0  0  0  0  0  0  0  0  0  0  0  0
    1.4892   -1.9403   -1.1491 C   0  0  2  0  0  3  0  0  0  0  0  0
    1.5158    3.8404    0.3939 N   0  0  0  0  0  0  0  0  0  0  0  0
    0.7244    4.2910    0.8648 H   0  0  0  0  0  0  0  0  0  0  0  0
    2.4411    4.0965    0.7386 H   0  0  0  0  0  0  0  0  0  0  0  0
    2.3288    1.6208   -0.5138 C   0  0  0  0  0  0  0  0  0  0  0  0
    2.2435    1.6617   -1.6214 H   0  0  0  0  0  0  0  0  0  0  0  0
    3.3617    1.9085   -0.2078 H   0  0  0  0  0  0  0  0  0  0  0  0
    1.2840    2.5232    0.0922 C   0  0  2  0  0  3  0  0  0  0  0  0
    2.4956   -0.8186   -1.0652 C   0  0  0  0  0  0  0  0  0  0  0  0
    3.4921   -1.2027   -0.7538 H   0  0  0  0  0  0  0  0  0  0  0  0
    2.5874   -0.3331   -2.0588 H   0  0  0  0  0  0  0  0  0  0  0  0
    1.3214   -0.7996    2.0999 C   0  0  1  0  0  3  0  0  0  0  0  0
    2.3636   -0.0410    1.3096 C   0  0  0  0  0  0  0  0  0  0  0  0
    2.5351    0.9461    1.7923 H   0  0  0  0  0  0  0  0  0  0  0  0
    3.3305   -0.5926    1.3507 H   0  0  0  0  0  0  0  0  0  0  0  0
  1  2  1  0  0  0  0
  3 29  1  0  0  0  0
  4  8  1  0  0  0  0
  6  5  1  0  0  0  0
  6  7  1  0  0  0  0
  9  8  1  0  0  0  0
 10  1  1  0  0  0  0
 11 17  1  0  0  0  0
 12 11  1  0  0  0  0
 13 11  1  0  0  0  0
 14 16  1  0  0  0  0
 14 15  1  0  0  0  0
 17 25  1  0  0  0  0
 17  5  1  1  0  0  0
 18 20  1  0  0  0  0
 18 19  1  0  0  0  0
 21 23  1  0  0  0  0
 21  3  1  0  0  0  0
 21 24  1  0  0  0  0
 22 21  1  0  0  0  0
 24 10  1  6  0  0  0
 24 18  1  0  0  0  0
 25 26  1  0  0  0  0
 25  3  1  0  0  0  0
 27 25  1  0  0  0  0
 28  4  1  6  0  0  0
 28 14  1  0  0  0  0
 29 31  1  0  0  0  0
 29 30  1  0  0  0  0
 29 28  1  0  0  0  0
M  END
