1,2,27,28
 OpenBabel05122313063D

 50 50  0  0  0  0  0  0  0  0999 V2000
   -1.6985    1.2037    0.1420 N   0  0  0  0  0  0  0  0  0  0  0  0
    1.0071    1.8175   -0.2467 N   0  0  0  0  0  0  0  0  0  0  0  0
   -3.0592   -0.6761    0.9345 N   0  0  0  0  0  0  0  0  0  0  0  0
   -2.6820    0.6756    1.1651 C   0  0  0  0  0  0  0  0  0  0  0  0
   -1.2444    2.6035    0.3421 C   0  0  0  0  0  0  0  0  0  0  0  0
   -0.0148    2.8601   -0.5246 C   0  0  0  0  0  0  0  0  0  0  0  0
    2.1279    1.6972   -1.2592 C   0  0  0  0  0  0  0  0  0  0  0  0
   -4.1578   -1.0416    0.0195 C   0  0  0  0  0  0  0  0  0  0  0  0
   -4.9453    0.1343   -0.5535 C   0  0  0  0  0  0  0  0  0  0  0  0
   -5.5019    1.0143    0.4100 O   0  0  0  0  0  0  0  0  0  0  0  0
   -2.0485    0.9922   -0.8423 H   0  0  0  0  0  0  0  0  0  0  0  0
    1.4039    1.8409    0.7442 H   0  0  0  0  0  0  0  0  0  0  0  0
   -2.1791    0.7791    2.1509 H   0  0  0  0  0  0  0  0  0  0  0  0
   -3.5894    1.3165    1.1391 H   0  0  0  0  0  0  0  0  0  0  0  0
   -2.0629    3.3106    0.0927 H   0  0  0  0  0  0  0  0  0  0  0  0
   -0.9957    2.7276    1.4169 H   0  0  0  0  0  0  0  0  0  0  0  0
    0.4037    3.8701   -0.3317 H   0  0  0  0  0  0  0  0  0  0  0  0
   -0.2793    2.7947   -1.6010 H   0  0  0  0  0  0  0  0  0  0  0  0
    1.6387    1.5038   -2.2385 H   0  0  0  0  0  0  0  0  0  0  0  0
    2.6416    2.6815   -1.3035 H   0  0  0  0  0  0  0  0  0  0  0  0
   -3.7572   -1.5873   -0.8642 H   0  0  0  0  0  0  0  0  0  0  0  0
   -4.8500   -1.7255    0.5633 H   0  0  0  0  0  0  0  0  0  0  0  0
   -5.7187   -0.2890   -1.2343 H   0  0  0  0  0  0  0  0  0  0  0  0
   -4.2819    0.7448   -1.2010 H   0  0  0  0  0  0  0  0  0  0  0  0
   -6.1935    0.5364    0.9055 H   0  0  0  0  0  0  0  0  0  0  0  0
   -2.1273   -1.6970    1.2593 C   0  0  0  0  0  0  0  0  0  0  0  0
   -1.0069   -1.8173    0.2464 N   0  0  0  0  0  0  0  0  0  0  0  0
    1.6987   -1.2038   -0.1423 N   0  0  0  0  0  0  0  0  0  0  0  0
    2.6825   -0.6755   -1.1650 C   0  0  0  0  0  0  0  0  0  0  0  0
    3.0596    0.6761   -0.9341 N   0  0  0  0  0  0  0  0  0  0  0  0
    4.1575    1.0415   -0.0182 C   0  0  0  0  0  0  0  0  0  0  0  0
    4.9454   -0.1345    0.5540 C   0  0  0  0  0  0  0  0  0  0  0  0
    5.5024   -1.0137   -0.4100 O   0  0  0  0  0  0  0  0  0  0  0  0
    6.1938   -0.5351   -0.9051 H   0  0  0  0  0  0  0  0  0  0  0  0
    5.7185    0.2886    1.2352 H   0  0  0  0  0  0  0  0  0  0  0  0
    4.2821   -0.7457    1.2011 H   0  0  0  0  0  0  0  0  0  0  0  0
    3.7563    1.5862    0.8658 H   0  0  0  0  0  0  0  0  0  0  0  0
    4.8496    1.7262   -0.5612 H   0  0  0  0  0  0  0  0  0  0  0  0
    2.1799   -0.7789   -2.1509 H   0  0  0  0  0  0  0  0  0  0  0  0
    3.5899   -1.3164   -1.1389 H   0  0  0  0  0  0  0  0  0  0  0  0
    1.2444   -2.6035   -0.3429 C   0  0  0  0  0  0  0  0  0  0  0  0
    0.0149   -2.8602    0.5238 C   0  0  0  0  0  0  0  0  0  0  0  0
   -1.4041   -1.8404   -0.7445 H   0  0  0  0  0  0  0  0  0  0  0  0
   -0.4039   -3.8700    0.3306 H   0  0  0  0  0  0  0  0  0  0  0  0
    0.2795   -2.7952    1.6002 H   0  0  0  0  0  0  0  0  0  0  0  0
    2.0628   -3.3108   -0.0940 H   0  0  0  0  0  0  0  0  0  0  0  0
    0.9955   -2.7271   -1.4178 H   0  0  0  0  0  0  0  0  0  0  0  0
    2.0484   -0.9927    0.8421 H   0  0  0  0  0  0  0  0  0  0  0  0
   -1.6378   -1.5036    2.2384 H   0  0  0  0  0  0  0  0  0  0  0  0
   -2.6409   -2.6814    1.3037 H   0  0  0  0  0  0  0  0  0  0  0  0
  1  5  1  0  0  0  0
  1  4  1  0  0  0  0
  2 12  1  0  0  0  0
  3  4  1  0  0  0  0
  3 26  1  0  0  0  0
  4 13  1  0  0  0  0
  5 16  1  0  0  0  0
  6 17  1  0  0  0  0
  6  2  1  0  0  0  0
  6  5  1  0  0  0  0
  7 30  1  0  0  0  0
  7  2  1  0  0  0  0
  8 22  1  0  0  0  0
  8  3  1  0  0  0  0
  9  8  1  0  0  0  0
  9 10  1  0  0  0  0
 10 25  1  0  0  0  0
 11  1  1  0  0  0  0
 14  4  1  0  0  0  0
 15  5  1  0  0  0  0
 18  6  1  0  0  0  0
 19  7  1  0  0  0  0
 20  7  1  0  0  0  0
 21  8  1  0  0  0  0
 23  9  1  0  0  0  0
 24  9  1  0  0  0  0
 26 50  1  0  0  0  0
 26 49  1  0  0  0  0
 27 42  1  0  0  0  0
 27 26  1  0  0  0  0
 28 48  1  0  0  0  0
 29 40  1  0  0  0  0
 29 30  1  0  0  0  0
 29 28  1  0  0  0  0
 30 31  1  0  0  0  0
 31 32  1  0  0  0  0
 31 37  1  0  0  0  0
 32 36  1  0  0  0  0
 32 35  1  0  0  0  0
 33 32  1  0  0  0  0
 34 33  1  0  0  0  0
 38 31  1  0  0  0  0
 39 29  1  0  0  0  0
 41 28  1  0  0  0  0
 41 46  1  0  0  0  0
 41 42  1  0  0  0  0
 42 45  1  0  0  0  0
 43 27  1  0  0  0  0
 44 42  1  0  0  0  0
 47 41  1  0  0  0  0
M  END
