1,4,8,12
 OpenBabel05122313063D

 38 39  0  0  1  0  0  0  0  0999 V2000
   -1.2802    0.6177   -0.0964 N   0  0  0  0  0  2  0  0  0  0  0  0
   -3.2583   -2.3188   -0.6339 O   0  0  0  0  0  0  0  0  0  0  0  0
   -1.3410    1.9508    0.1512 C   0  0  1  0  0  3  0  0  0  0  0  0
   -1.0202   -1.8425   -0.1461 N   0  0  0  0  0  2  0  0  0  0  0  0
    0.4848    2.3844    1.6631 O   0  0  0  0  0  0  0  0  0  0  0  0
   -2.5300    2.6869    0.1162 C   0  0  0  0  0  0  0  0  0  0  0  0
   -2.5107    3.7666    0.3230 H   0  0  0  0  0  0  0  0  0  0  0  0
    1.5697   -2.0633   -0.0227 N   0  0  0  0  0  0  0  0  0  0  0  0
    1.7415   -2.1402   -1.0442 H   0  0  0  0  0  0  0  0  0  0  0  0
   -3.7288    2.0107   -0.1831 C   0  0  0  0  0  0  0  0  0  0  0  0
   -4.6805    2.5598   -0.2330 H   0  0  0  0  0  0  0  0  0  0  0  0
    2.4279    0.6592    0.1598 N   0  0  0  0  0  0  0  0  0  0  0  0
    2.4187    1.0117    1.1283 H   0  0  0  0  0  0  0  0  0  0  0  0
   -3.6847    0.6231   -0.3930 C   0  0  0  0  0  0  0  0  0  0  0  0
   -4.5783    0.0142   -0.5952 H   0  0  0  0  0  0  0  0  0  0  0  0
   -2.4616   -0.0494   -0.3257 C   0  0  0  0  0  0  0  0  0  0  0  0
    0.7204    2.9922   -0.5383 N   0  0  0  0  0  0  0  0  0  0  0  0
    0.3158    2.8117   -1.4625 H   0  0  0  0  0  0  0  0  0  0  0  0
   -2.3163   -1.5365   -0.4131 C   0  0  0  0  0  0  0  0  0  0  0  0
   -0.5472   -3.2073   -0.2473 C   0  0  0  0  0  0  0  0  0  0  0  0
   -0.4365   -3.5063   -1.3186 H   0  0  0  0  0  0  0  0  0  0  0  0
   -1.2661   -3.9254    0.2043 H   0  0  0  0  0  0  0  0  0  0  0  0
    0.8137   -3.2448    0.4465 C   0  0  0  0  0  0  0  0  0  0  0  0
    0.6935   -3.1465    1.5456 H   0  0  0  0  0  0  0  0  0  0  0  0
    1.3664   -4.1918    0.2497 H   0  0  0  0  0  0  0  0  0  0  0  0
    2.8155   -1.7407    0.6724 C   0  0  0  0  0  0  0  0  0  0  0  0
    2.5791   -1.5853    1.7462 H   0  0  0  0  0  0  0  0  0  0  0  0
    3.5708   -2.5588    0.6038 H   0  0  0  0  0  0  0  0  0  0  0  0
    3.3710   -0.4684    0.0486 C   0  0  0  0  0  0  0  0  0  0  0  0
    3.5232   -0.6483   -1.0373 H   0  0  0  0  0  0  0  0  0  0  0  0
    4.3699   -0.2226    0.4802 H   0  0  0  0  0  0  0  0  0  0  0  0
    2.8390    1.7397   -0.7531 C   0  0  0  0  0  0  0  0  0  0  0  0
    2.5734    1.3938   -1.7770 H   0  0  0  0  0  0  0  0  0  0  0  0
    3.9441    1.8998   -0.7185 H   0  0  0  0  0  0  0  0  0  0  0  0
    2.1689    3.0807   -0.4581 C   0  0  0  0  0  0  0  0  0  0  0  0
    2.5320    3.8386   -1.1800 H   0  0  0  0  0  0  0  0  0  0  0  0
    2.4210    3.4359    0.5612 H   0  0  0  0  0  0  0  0  0  0  0  0
    0.0220    2.4769    0.5038 C   0  0  0  0  0  0  0  0  0  0  0  0
  2 19  2  0  0  0  0
  3  1  1  1  0  0  0
  3 38  1  0  0  0  0
  6  3  1  0  0  0  0
  6  7  1  0  0  0  0
  8 23  1  0  0  0  0
  8 26  1  0  0  0  0
  9  8  1  0  0  0  0
 10  6  2  0  0  0  0
 11 10  1  0  0  0  0
 12 13  1  0  0  0  0
 14 16  2  0  0  0  0
 14 10  1  0  0  0  0
 15 14  1  0  0  0  0
 16  1  1  0  0  0  0
 17 35  1  0  0  0  0
 17 38  1  0  0  0  0
 18 17  1  0  0  0  0
 19 16  1  0  0  0  0
 19  4  1  0  0  0  0
 20  4  1  0  0  0  0
 20 22  1  0  0  0  0
 20 23  1  0  0  0  0
 21 20  1  0  0  0  0
 23 24  1  0  0  0  0
 25 23  1  0  0  0  0
 26 27  1  0  0  0  0
 28 26  1  0  0  0  0
 29 12  1  0  0  0  0
 29 31  1  0  0  0  0
 29 26  1  0  0  0  0
 30 29  1  0  0  0  0
 32 34  1  0  0  0  0
 32 35  1  0  0  0  0
 32 12  1  0  0  0  0
 33 32  1  0  0  0  0
 35 37  1  0  0  0  0
 36 35  1  0  0  0  0
 38  5  2  0  0  0  0
M  END
