1,4,19,20
 OpenBabel05122313063D

 36 36  0  0  1  0  0  0  0  0999 V2000
   -1.3305   -1.2497   -0.1782 N   0  0  0  0  0  2  0  0  0  0  0  0
   -1.2208   -2.4995   -0.4506 N   0  0  0  0  0  0  0  0  0  0  0  0
    1.2208   -2.4995   -0.4506 N   0  0  0  0  0  2  0  0  0  0  0  0
    1.3305   -1.2497   -0.1782 N   0  0  0  0  0  2  0  0  0  0  0  0
   -2.9953   -1.0602    1.6258 C   0  0  0  0  0  0  0  0  0  0  0  0
   -2.6836   -0.7553    0.1581 C   0  0  1  0  0  0  0  0  0  0  0  0
   -0.0000   -3.0571   -0.6168 C   0  0  0  0  0  0  0  0  0  0  0  0
    2.6836   -0.7553    0.1581 C   0  0  2  0  0  0  0  0  0  0  0  0
    2.9953   -1.0602    1.6258 C   0  0  0  0  0  0  0  0  0  0  0  0
   -3.4101   -1.2822   -0.4957 H   0  0  0  0  0  0  0  0  0  0  0  0
   -0.0000   -4.1237   -0.8813 H   0  0  0  0  0  0  0  0  0  0  0  0
    3.4101   -1.2822   -0.4957 H   0  0  0  0  0  0  0  0  0  0  0  0
   -2.2856   -0.5234    2.2877 H   0  0  0  0  0  0  0  0  0  0  0  0
   -2.9012   -2.1471    1.8153 H   0  0  0  0  0  0  0  0  0  0  0  0
   -4.0258   -0.7430    1.8820 H   0  0  0  0  0  0  0  0  0  0  0  0
    4.0258   -0.7430    1.8820 H   0  0  0  0  0  0  0  0  0  0  0  0
    2.9012   -2.1471    1.8153 H   0  0  0  0  0  0  0  0  0  0  0  0
    2.2856   -0.5234    2.2877 H   0  0  0  0  0  0  0  0  0  0  0  0
    1.3305    1.2497    0.1782 N   0  0  0  0  0  2  0  0  0  0  0  0
   -1.3305    1.2497    0.1782 N   0  0  0  0  0  2  0  0  0  0  0  0
   -2.6836    0.7553   -0.1581 C   0  0  1  0  0  0  0  0  0  0  0  0
    2.6836    0.7553   -0.1581 C   0  0  2  0  0  0  0  0  0  0  0  0
    1.2208    2.4995    0.4506 N   0  0  0  0  0  0  0  0  0  0  0  0
   -1.2208    2.4995    0.4506 N   0  0  0  0  0  2  0  0  0  0  0  0
   -2.9953    1.0602   -1.6258 C   0  0  0  0  0  0  0  0  0  0  0  0
   -3.4101    1.2822    0.4957 H   0  0  0  0  0  0  0  0  0  0  0  0
    2.9953    1.0602   -1.6258 C   0  0  0  0  0  0  0  0  0  0  0  0
    3.4101    1.2822    0.4957 H   0  0  0  0  0  0  0  0  0  0  0  0
    0.0000    3.0571    0.6168 C   0  0  0  0  0  0  0  0  0  0  0  0
   -4.0258    0.7430   -1.8820 H   0  0  0  0  0  0  0  0  0  0  0  0
   -2.9012    2.1471   -1.8153 H   0  0  0  0  0  0  0  0  0  0  0  0
   -2.2856    0.5234   -2.2877 H   0  0  0  0  0  0  0  0  0  0  0  0
    2.2856    0.5234   -2.2877 H   0  0  0  0  0  0  0  0  0  0  0  0
    2.9012    2.1471   -1.8153 H   0  0  0  0  0  0  0  0  0  0  0  0
    4.0259    0.7430   -1.8820 H   0  0  0  0  0  0  0  0  0  0  0  0
    0.0000    4.1237    0.8813 H   0  0  0  0  0  0  0  0  0  0  0  0
  1  6  1  0  0  0  0
  2  1  1  0  0  0  0
  3  4  1  0  0  0  0
  4  8  1  0  0  0  0
  5 14  1  0  0  0  0
  5 15  1  0  0  0  0
  5 13  1  0  0  0  0
  6 10  1  6  0  0  0
  6  5  1  0  0  0  0
  7  2  2  0  0  0  0
  7  3  1  0  0  0  0
  8 12  1  6  0  0  0
  8  9  1  0  0  0  0
  9 17  1  0  0  0  0
  9 16  1  0  0  0  0
  9 18  1  0  0  0  0
 11  7  1  0  0  0  0
 19 23  1  0  0  0  0
 20 24  1  0  0  0  0
 21  6  1  0  0  0  0
 21 20  1  0  0  0  0
 21 26  1  1  0  0  0
 22  8  1  0  0  0  0
 22 19  1  0  0  0  0
 22 28  1  1  0  0  0
 23 29  2  0  0  0  0
 24 29  1  0  0  0  0
 25 21  1  0  0  0  0
 27 22  1  0  0  0  0
 29 36  1  0  0  0  0
 30 25  1  0  0  0  0
 31 25  1  0  0  0  0
 32 25  1  0  0  0  0
 33 27  1  0  0  0  0
 34 27  1  0  0  0  0
 35 27  1  0  0  0  0
M  END
