1,3,36,38
 OpenBabel05122313063D

 70 72  0  0  1  0  0  0  0  0999 V2000
    1.5682    0.8155   -0.8240 N   0  0  0  0  0  0  0  0  0  0  0  0
    1.4818    0.4396   -1.8085 H   0  0  0  0  0  0  0  0  0  0  0  0
    1.1916   -1.2936    0.7523 N   0  0  0  0  0  0  0  0  0  0  0  0
    1.3092   -0.8180    1.7005 H   0  0  0  0  0  0  0  0  0  0  0  0
    2.7847    0.2123   -0.2245 C   0  0  2  0  0  0  0  0  0  0  0  0
    2.9334    0.6725    0.7764 H   0  0  0  0  0  0  0  0  0  0  0  0
    4.0543    0.3937   -1.0648 C   0  0  0  0  0  0  0  0  0  0  0  0
    4.2852    1.4700   -1.1969 H   0  0  0  0  0  0  0  0  0  0  0  0
    3.8676   -0.0263   -2.0782 H   0  0  0  0  0  0  0  0  0  0  0  0
    5.2407   -0.3191   -0.4035 C   0  0  0  0  0  0  0  0  0  0  0  0
    6.1459   -0.2137   -1.0360 H   0  0  0  0  0  0  0  0  0  0  0  0
    5.4725    0.1802    0.5634 H   0  0  0  0  0  0  0  0  0  0  0  0
    4.9294   -1.7968   -0.1490 C   0  0  0  0  0  0  0  0  0  0  0  0
    5.7782   -2.2906    0.3670 H   0  0  0  0  0  0  0  0  0  0  0  0
    4.8072   -2.3183   -1.1240 H   0  0  0  0  0  0  0  0  0  0  0  0
    3.6461   -1.9717    0.6746 C   0  0  0  0  0  0  0  0  0  0  0  0
    3.7804   -1.5466    1.6944 H   0  0  0  0  0  0  0  0  0  0  0  0
    3.4314   -3.0514    0.7980 H   0  0  0  0  0  0  0  0  0  0  0  0
    2.4677   -1.2593   -0.0055 C   0  0  1  0  0  0  0  0  0  0  0  0
    2.2596   -1.7295   -0.9942 H   0  0  0  0  0  0  0  0  0  0  0  0
    1.6065    2.3021   -0.9154 C   0  0  1  0  0  0  0  0  0  0  0  0
    2.5802    2.5784   -1.3795 H   0  0  0  0  0  0  0  0  0  0  0  0
    0.5162    2.7474   -1.8915 C   0  0  0  0  0  0  0  0  0  0  0  0
    0.5882    2.1417   -2.8193 H   0  0  0  0  0  0  0  0  0  0  0  0
    0.6896    3.8041   -2.1763 H   0  0  0  0  0  0  0  0  0  0  0  0
   -0.8839    2.6357   -1.3187 C   0  0  0  0  0  0  0  0  0  0  0  0
   -0.9866    3.2630   -0.4095 H   0  0  0  0  0  0  0  0  0  0  0  0
   -1.6066    3.0273   -2.0649 H   0  0  0  0  0  0  0  0  0  0  0  0
    1.5307    2.9585    0.4690 C   0  0  0  0  0  0  0  0  0  0  0  0
    0.5893    2.6583    0.9750 H   0  0  0  0  0  0  0  0  0  0  0  0
    2.3362    2.5528    1.1135 H   0  0  0  0  0  0  0  0  0  0  0  0
    1.6536    4.4810    0.4432 C   0  0  0  0  0  0  0  0  0  0  0  0
    2.5894    4.8113   -0.0553 H   0  0  0  0  0  0  0  0  0  0  0  0
    1.6625    4.8767    1.4772 H   0  0  0  0  0  0  0  0  0  0  0  0
    0.8078    4.9657   -0.0870 H   0  0  0  0  0  0  0  0  0  0  0  0
   -1.6500   -0.7883    0.7736 N   0  0  0  0  0  0  0  0  0  0  0  0
   -1.4584   -0.2765    1.6714 H   0  0  0  0  0  0  0  0  0  0  0  0
   -1.2691    1.2557   -0.9527 N   0  0  0  0  0  0  0  0  0  0  0  0
   -1.3989    0.6878   -1.8354 H   0  0  0  0  0  0  0  0  0  0  0  0
   -2.8529   -0.2114    0.1257 C   0  0  1  0  0  0  0  0  0  0  0  0
   -2.9744   -0.7291   -0.8496 H   0  0  0  0  0  0  0  0  0  0  0  0
   -4.1398   -0.3538    0.9492 C   0  0  0  0  0  0  0  0  0  0  0  0
   -4.3700   -1.4241    1.1216 H   0  0  0  0  0  0  0  0  0  0  0  0
   -3.9761    0.1069    1.9492 H   0  0  0  0  0  0  0  0  0  0  0  0
   -5.3207    0.3245    0.2450 C   0  0  0  0  0  0  0  0  0  0  0  0
   -6.2330    0.2413    0.8706 H   0  0  0  0  0  0  0  0  0  0  0  0
   -5.5389   -0.2160   -0.7027 H   0  0  0  0  0  0  0  0  0  0  0  0
   -5.0099    1.7898   -0.0672 C   0  0  0  0  0  0  0  0  0  0  0  0
   -5.8543    2.2635   -0.6086 H   0  0  0  0  0  0  0  0  0  0  0  0
   -4.8929    2.3522    0.8856 H   0  0  0  0  0  0  0  0  0  0  0  0
   -3.7229    1.9243   -0.8907 C   0  0  0  0  0  0  0  0  0  0  0  0
   -3.8587    1.4505   -1.8888 H   0  0  0  0  0  0  0  0  0  0  0  0
   -3.5062    2.9959   -1.0680 H   0  0  0  0  0  0  0  0  0  0  0  0
   -2.5404    1.2467   -0.1813 C   0  0  2  0  0  0  0  0  0  0  0  0
   -2.3288    1.7748    0.7766 H   0  0  0  0  0  0  0  0  0  0  0  0
   -1.7733   -2.2429    1.0675 C   0  0  2  0  0  0  0  0  0  0  0  0
   -2.6308   -2.3628    1.7693 H   0  0  0  0  0  0  0  0  0  0  0  0
   -0.5343   -2.6976    1.8337 C   0  0  0  0  0  0  0  0  0  0  0  0
   -0.3890   -2.0563    2.7299 H   0  0  0  0  0  0  0  0  0  0  0  0
   -0.7027   -3.7270    2.2049 H   0  0  0  0  0  0  0  0  0  0  0  0
    0.7350   -2.6713    1.0019 C   0  0  0  0  0  0  0  0  0  0  0  0
    0.6012   -3.1746    0.0227 H   0  0  0  0  0  0  0  0  0  0  0  0
    1.5288   -3.2173    1.5534 H   0  0  0  0  0  0  0  0  0  0  0  0
   -2.0774   -3.0602   -0.1995 C   0  0  0  0  0  0  0  0  0  0  0  0
   -1.3628   -2.7866   -1.0063 H   0  0  0  0  0  0  0  0  0  0  0  0
   -3.0766   -2.7621   -0.5786 H   0  0  0  0  0  0  0  0  0  0  0  0
   -2.0857   -4.5725    0.0264 C   0  0  0  0  0  0  0  0  0  0  0  0
   -2.7545   -4.8646    0.8642 H   0  0  0  0  0  0  0  0  0  0  0  0
   -2.4428   -5.0964   -0.8817 H   0  0  0  0  0  0  0  0  0  0  0  0
   -1.0763   -4.9725    0.2516 H   0  0  0  0  0  0  0  0  0  0  0  0
  1  5  1  0  0  0  0
  2  1  1  0  0  0  0
  3 61  1  0  0  0  0
  3  4  1  0  0  0  0
  5 19  1  0  0  0  0
  5  6  1  1  0  0  0
  7 10  1  0  0  0  0
  7  5  1  0  0  0  0
  8  7  1  0  0  0  0
  9  7  1  0  0  0  0
 10 13  1  0  0  0  0
 10 12  1  0  0  0  0
 11 10  1  0  0  0  0
 13 14  1  0  0  0  0
 13 16  1  0  0  0  0
 15 13  1  0  0  0  0
 16 18  1  0  0  0  0
 16 17  1  0  0  0  0
 19 20  1  6  0  0  0
 19 16  1  0  0  0  0
 19  3  1  0  0  0  0
 21 22  1  6  0  0  0
 21  1  1  0  0  0  0
 21 29  1  0  0  0  0
 23 26  1  0  0  0  0
 23 21  1  0  0  0  0
 24 23  1  0  0  0  0
 25 23  1  0  0  0  0
 26 38  1  0  0  0  0
 26 27  1  0  0  0  0
 28 26  1  0  0  0  0
 29 30  1  0  0  0  0
 29 31  1  0  0  0  0
 32 29  1  0  0  0  0
 32 34  1  0  0  0  0
 33 32  1  0  0  0  0
 35 32  1  0  0  0  0
 36 56  1  0  0  0  0
 36 37  1  0  0  0  0
 38 54  1  0  0  0  0
 39 38  1  0  0  0  0
 40 41  1  6  0  0  0
 40 36  1  0  0  0  0
 40 42  1  0  0  0  0
 42 43  1  0  0  0  0
 42 44  1  0  0  0  0
 45 46  1  0  0  0  0
 45 42  1  0  0  0  0
 47 45  1  0  0  0  0
 48 45  1  0  0  0  0
 48 50  1  0  0  0  0
 49 48  1  0  0  0  0
 51 54  1  0  0  0  0
 51 48  1  0  0  0  0
 52 51  1  0  0  0  0
 53 51  1  0  0  0  0
 54 40  1  0  0  0  0
 54 55  1  1  0  0  0
 56 57  1  1  0  0  0
 56 58  1  0  0  0  0
 58 60  1  0  0  0  0
 58 59  1  0  0  0  0
 61 63  1  0  0  0  0
 61 58  1  0  0  0  0
 62 61  1  0  0  0  0
 64 67  1  0  0  0  0
 64 56  1  0  0  0  0
 65 64  1  0  0  0  0
 66 64  1  0  0  0  0
 67 70  1  0  0  0  0
 67 68  1  0  0  0  0
 69 67  1  0  0  0  0
M  END
