4,5,6
 OpenBabel05122313063D

 60 63  0  0  1  0  0  0  0  0999 V2000
    0.1899    1.8360   -0.9473 O   0  0  0  0  0  0  0  0  0  0  0  0
    1.2405   -2.4049    1.1040 N   0  0  0  0  0  0  0  0  0  0  0  0
   -2.2837    0.4944   -0.8237 O   0  0  0  0  0  0  0  0  0  0  0  0
    0.2361    0.3497    1.6228 N   0  0  0  0  0  2  0  0  0  0  0  0
   -1.4392   -2.2470   -0.0445 N   0  0  0  0  0  2  0  0  0  0  0  0
    2.7376   -0.4451   -0.2572 N   0  0  0  0  0  2  0  0  0  0  0  0
    0.3960    2.9477   -0.1704 C   0  0  0  0  0  0  0  0  0  0  0  0
    0.2827   -3.5284    1.1315 C   0  0  0  0  0  0  0  0  0  0  0  0
   -0.2964   -3.4746    2.0758 H   0  0  0  0  0  0  0  0  0  0  0  0
    0.8161   -4.5054    1.1490 H   0  0  0  0  0  0  0  0  0  0  0  0
   -4.5515    1.0759   -0.1831 C   0  0  0  0  0  0  0  0  0  0  0  0
   -4.4225    2.1126   -0.5165 H   0  0  0  0  0  0  0  0  0  0  0  0
   -4.9676   -1.5516    0.6407 C   0  0  0  0  0  0  0  0  0  0  0  0
   -5.1285   -2.5980    0.9439 H   0  0  0  0  0  0  0  0  0  0  0  0
   -2.7225   -2.2906    0.0861 C   0  0  0  0  0  3  0  0  0  0  0  0
   -3.2010   -3.2916    0.2037 H   0  0  0  0  0  0  0  0  0  0  0  0
   -3.4910    0.1539   -0.2888 C   0  0  0  0  0  0  0  0  0  0  0  0
    0.5325    2.7983    1.2426 C   0  0  0  0  0  0  0  0  0  0  0  0
   -2.1704    1.7646   -1.4738 C   0  0  0  0  0  0  0  0  0  0  0  0
   -2.3693    2.5872   -0.7503 H   0  0  0  0  0  0  0  0  0  0  0  0
   -2.9091    1.8407   -2.3023 H   0  0  0  0  0  0  0  0  0  0  0  0
    0.5293    4.2188   -0.7570 C   0  0  0  0  0  0  0  0  0  0  0  0
    0.4496    4.3265   -1.8473 H   0  0  0  0  0  0  0  0  0  0  0  0
    0.4164    1.5660    2.0202 C   0  0  0  0  0  3  0  0  0  0  0  0
    0.5083    1.7430    3.1170 H   0  0  0  0  0  0  0  0  0  0  0  0
    4.8453    0.6424   -0.6605 C   0  0  0  0  0  0  0  0  0  0  0  0
    5.3881    1.5393   -0.9908 H   0  0  0  0  0  0  0  0  0  0  0  0
    1.3623   -1.7047    2.3926 C   0  0  0  0  0  0  0  0  0  0  0  0
    2.3188   -1.1457    2.3992 H   0  0  0  0  0  0  0  0  0  0  0  0
    1.4007   -2.4219    3.2461 H   0  0  0  0  0  0  0  0  0  0  0  0
    4.7833   -1.6265    0.1704 C   0  0  0  0  0  0  0  0  0  0  0  0
    5.2847   -2.5450    0.5101 H   0  0  0  0  0  0  0  0  0  0  0  0
   -3.6892   -1.1957    0.1405 C   0  0  0  0  0  0  0  0  0  0  0  0
   -5.7911    0.6897    0.3458 C   0  0  0  0  0  0  0  0  0  0  0  0
   -6.5969    1.4353    0.4185 H   0  0  0  0  0  0  0  0  0  0  0  0
    0.7929    5.3479    0.0292 C   0  0  0  0  0  0  0  0  0  0  0  0
    0.9008    6.3292   -0.4564 H   0  0  0  0  0  0  0  0  0  0  0  0
    3.3796   -1.5614    0.1400 C   0  0  2  0  0  3  0  0  0  0  0  0
    0.8019    3.9665    2.0052 C   0  0  0  0  0  0  0  0  0  0  0  0
    0.9060    3.8594    3.0962 H   0  0  0  0  0  0  0  0  0  0  0  0
   -6.0094   -0.6310    0.7617 C   0  0  0  0  0  0  0  0  0  0  0  0
   -6.9846   -0.9413    1.1620 H   0  0  0  0  0  0  0  0  0  0  0  0
    0.9300    5.2265    1.4213 C   0  0  0  0  0  0  0  0  0  0  0  0
    1.1367    6.1089    2.0429 H   0  0  0  0  0  0  0  0  0  0  0  0
    2.5277   -2.7649    0.5037 C   0  0  0  0  0  0  0  0  0  0  0  0
    2.3163   -3.3193   -0.4373 H   0  0  0  0  0  0  0  0  0  0  0  0
    3.1181   -3.4531    1.1556 H   0  0  0  0  0  0  0  0  0  0  0  0
    3.4451    0.6280   -0.6489 C   0  0  0  0  0  0  0  0  0  0  0  0
    2.8588    1.5028   -0.9734 H   0  0  0  0  0  0  0  0  0  0  0  0
   -0.7050   -3.5030   -0.0430 C   0  0  0  0  0  0  0  0  0  0  0  0
   -0.1558   -3.5718   -1.0091 H   0  0  0  0  0  0  0  0  0  0  0  0
   -1.3792   -4.3870    0.0278 H   0  0  0  0  0  0  0  0  0  0  0  0
    0.2170   -0.7054    2.6265 C   0  0  0  0  0  0  0  0  0  0  0  0
   -0.7589   -1.2340    2.5536 H   0  0  0  0  0  0  0  0  0  0  0  0
    0.2995   -0.2939    3.6577 H   0  0  0  0  0  0  0  0  0  0  0  0
   -0.7693    1.8921   -2.0301 C   0  0  0  0  0  0  0  0  0  0  0  0
   -0.5084    1.0328   -2.6839 H   0  0  0  0  0  0  0  0  0  0  0  0
   -0.6764    2.8303   -2.6103 H   0  0  0  0  0  0  0  0  0  0  0  0
    5.5248   -0.5106   -0.2406 C   0  0  0  0  0  0  0  0  0  0  0  0
    6.6246   -0.5405   -0.2304 H   0  0  0  0  0  0  0  0  0  0  0  0
  1  7  1  0  0  0  0
  2  8  1  0  0  0  0
  2 28  1  0  0  0  0
  3 17  1  0  0  0  0
  4 24  1  0  0  0  0
  4 53  1  0  0  0  0
  5 50  1  0  0  0  0
  5 15  1  0  0  0  0
  6 38  1  0  0  0  0
  7 18  1  0  0  0  0
  8 10  1  0  0  0  0
  8  9  1  0  0  0  0
 11 34  1  0  0  0  0
 12 11  1  0  0  0  0
 13 41  1  0  0  0  0
 13 14  1  0  0  0  0
 15 33  1  0  0  0  0
 15 16  1  0  0  0  0
 17 11  2  0  0  0  0
 17 33  1  0  0  0  0
 18 39  2  0  0  0  0
 18 24  1  0  0  0  0
 19  3  1  0  0  0  0
 19 20  1  0  0  0  0
 21 19  1  0  0  0  0
 22  7  2  0  0  0  0
 22 36  1  0  0  0  0
 23 22  1  0  0  0  0
 24 25  1  0  0  0  0
 26 48  2  0  0  0  0
 26 59  1  0  0  0  0
 27 26  1  0  0  0  0
 28 29  1  0  0  0  0
 28 53  1  0  0  0  0
 28 30  1  0  0  0  0
 31 32  1  0  0  0  0
 33 13  2  0  0  0  0
 34 35  1  0  0  0  0
 34 41  2  0  0  0  0
 36 43  2  0  0  0  0
 37 36  1  0  0  0  0
 38 31  1  0  0  0  0
 38 45  1  6  0  0  0
 39 40  1  0  0  0  0
 41 42  1  0  0  0  0
 43 39  1  0  0  0  0
 43 44  1  0  0  0  0
 45  2  1  0  0  0  0
 45 47  1  0  0  0  0
 46 45  1  0  0  0  0
 48  6  1  0  0  0  0
 49 48  1  0  0  0  0
 50 52  1  0  0  0  0
 50  8  1  0  0  0  0
 51 50  1  0  0  0  0
 53 55  1  0  0  0  0
 54 53  1  0  0  0  0
 56 19  1  0  0  0  0
 56  1  1  0  0  0  0
 57 56  1  0  0  0  0
 58 56  1  0  0  0  0
 59 60  1  0  0  0  0
 59 31  2  0  0  0  0
M  END
