1,2,3,4
 OpenBabel05122313063D

 40 42  0  0  1  0  0  0  0  0999 V2000
   -0.0244   -0.8044   -1.5277 N   0  0  0  0  0  0  0  0  0  0  0  0
    0.3111    1.4152   -0.0578 N   0  0  0  0  0  2  0  0  0  0  0  0
   -1.9795   -0.1937    0.1052 N   0  0  0  0  0  2  0  0  0  0  0  0
    1.8666   -0.6758    0.3564 N   0  0  0  0  0  2  0  0  0  0  0  0
   -2.4935    1.2345    1.8054 F   0  0  0  0  0  0  0  0  0  0  0  0
    0.4632    1.6263   -1.3986 C   0  0  1  0  0  3  0  0  0  0  0  0
    0.5885    2.4335    0.7984 C   0  0  0  0  0  0  0  0  0  0  0  0
    0.4442    2.1712    1.8622 H   0  0  0  0  0  0  0  0  0  0  0  0
    2.7794   -0.3176    1.2879 C   0  0  0  0  0  3  0  0  0  0  0  0
    2.3371    0.0234    2.2404 H   0  0  0  0  0  0  0  0  0  0  0  0
    0.0147    0.4841   -2.2734 C   0  0  0  0  0  0  0  0  0  0  0  0
   -1.0178    0.7019   -2.6200 H   0  0  0  0  0  0  0  0  0  0  0  0
    0.6430    0.4003   -3.1863 H   0  0  0  0  0  0  0  0  0  0  0  0
   -2.3933   -0.8345   -1.0366 C   0  0  1  0  0  3  0  0  0  0  0  0
    0.9211    2.8444   -1.9109 C   0  0  0  0  0  0  0  0  0  0  0  0
    1.0441    2.9636   -2.9979 H   0  0  0  0  0  0  0  0  0  0  0  0
    2.2962   -1.1463   -0.8499 C   0  0  0  0  0  0  0  0  0  0  0  0
    1.1828   -1.6444   -1.7255 C   0  0  0  0  0  0  0  0  0  0  0  0
    1.4784   -1.7205   -2.7953 H   0  0  0  0  0  0  0  0  0  0  0  0
    0.9086   -2.6479   -1.3293 H   0  0  0  0  0  0  0  0  0  0  0  0
   -1.2924   -1.5437   -1.7688 C   0  0  0  0  0  0  0  0  0  0  0  0
   -1.1582   -2.5348   -1.2767 H   0  0  0  0  0  0  0  0  0  0  0  0
   -1.5216   -1.6661   -2.8513 H   0  0  0  0  0  0  0  0  0  0  0  0
    4.1542   -0.4058    1.0431 C   0  0  0  0  0  0  0  0  0  0  0  0
    4.8603   -0.1088    1.8321 H   0  0  0  0  0  0  0  0  0  0  0  0
    3.6553   -1.2387   -1.1650 C   0  0  0  0  0  0  0  0  0  0  0  0
    3.9596   -1.6123   -2.1539 H   0  0  0  0  0  0  0  0  0  0  0  0
    1.0290    3.6795    0.3471 C   0  0  0  0  0  0  0  0  0  0  0  0
    1.2375    4.4711    1.0815 H   0  0  0  0  0  0  0  0  0  0  0  0
    1.2114    3.8971   -1.0287 C   0  0  0  0  0  0  0  0  0  0  0  0
    1.5745    4.8632   -1.4086 H   0  0  0  0  0  0  0  0  0  0  0  0
    4.6070   -0.8621   -0.2035 C   0  0  0  0  0  0  0  0  0  0  0  0
    5.6823   -0.9266   -0.4263 H   0  0  0  0  0  0  0  0  0  0  0  0
   -2.9047    0.5118    0.7771 C   0  0  0  0  0  0  0  0  0  0  0  0
   -3.7235   -0.8307   -1.4610 C   0  0  0  0  0  0  0  0  0  0  0  0
   -3.9978   -1.3595   -2.3847 H   0  0  0  0  0  0  0  0  0  0  0  0
   -4.2649    0.5456    0.4412 C   0  0  0  0  0  0  0  0  0  0  0  0
   -4.9502    1.1253    1.0739 H   0  0  0  0  0  0  0  0  0  0  0  0
   -4.6856   -0.1495   -0.6964 C   0  0  0  0  0  0  0  0  0  0  0  0
   -5.7439   -0.1438   -0.9946 H   0  0  0  0  0  0  0  0  0  0  0  0
  2  7  1  0  0  0  0
  3 34  1  0  0  0  0
  4  9  1  0  0  0  0
  6 11  1  6  0  0  0
  6  2  1  0  0  0  0
  7  8  1  0  0  0  0
  9 10  1  0  0  0  0
 11  1  1  0  0  0  0
 12 11  1  0  0  0  0
 13 11  1  0  0  0  0
 14 21  1  1  0  0  0
 14  3  1  0  0  0  0
 15  6  1  0  0  0  0
 15 30  2  0  0  0  0
 16 15  1  0  0  0  0
 17  4  1  0  0  0  0
 18  1  1  0  0  0  0
 18 20  1  0  0  0  0
 18 17  1  0  0  0  0
 19 18  1  0  0  0  0
 21  1  1  0  0  0  0
 21 22  1  0  0  0  0
 23 21  1  0  0  0  0
 24  9  1  0  0  0  0
 24 25  1  0  0  0  0
 26 17  2  0  0  0  0
 26 32  1  0  0  0  0
 27 26  1  0  0  0  0
 28  7  2  0  0  0  0
 28 29  1  0  0  0  0
 30 28  1  0  0  0  0
 31 30  1  0  0  0  0
 32 24  2  0  0  0  0
 33 32  1  0  0  0  0
 34  5  1  0  0  0  0
 35 14  1  0  0  0  0
 35 39  2  0  0  0  0
 36 35  1  0  0  0  0
 37 34  2  0  0  0  0
 37 38  1  0  0  0  0
 39 37  1  0  0  0  0
 40 39  1  0  0  0  0
M  END
