1,2,3,4
 OpenBabel05122313063D

 42 47  0  0  0  0  0  0  0  0999 V2000
    1.5036    0.0374   -0.5116 N   0  0  0  0  0  0  0  0  0  0  0  0
   -0.5218   -2.0843   -0.6762 N   0  0  0  0  0  2  0  0  0  0  0  0
   -2.6594   -0.0763   -0.8246 N   0  0  0  0  0  0  0  0  0  0  0  0
   -0.6561    2.0443   -0.6785 N   0  0  0  0  0  0  0  0  0  0  0  0
    2.2634    1.1804   -0.4529 C   0  0  0  0  0  0  0  0  0  0  0  0
    3.6818    0.8192   -0.3790 C   0  0  0  0  0  0  0  0  0  0  0  0
    3.7297   -0.6016   -0.4028 C   0  0  0  0  0  0  0  0  0  0  0  0
    2.3385   -1.0539   -0.4878 C   0  0  0  0  0  0  0  0  0  0  0  0
    1.9240   -2.3918   -0.5386 C   0  0  0  0  0  0  0  0  0  0  0  0
    2.7166   -3.1540   -0.5131 H   0  0  0  0  0  0  0  0  0  0  0  0
    0.6016   -2.8709   -0.6358 C   0  0  0  0  0  0  0  0  0  0  0  0
    0.2258   -4.2733   -0.7045 C   0  0  0  0  0  0  0  0  0  0  0  0
    0.9279   -5.1162   -0.6991 H   0  0  0  0  0  0  0  0  0  0  0  0
   -1.1471   -4.3099   -0.7863 C   0  0  0  0  0  0  0  0  0  0  0  0
   -1.7985   -5.1894   -0.8615 H   0  0  0  0  0  0  0  0  0  0  0  0
   -1.6041   -2.9307   -0.7689 C   0  0  0  0  0  0  0  0  0  0  0  0
   -2.9464   -2.5257   -0.8561 C   0  0  0  0  0  0  0  0  0  0  0  0
   -3.6957   -3.3286   -0.9249 H   0  0  0  0  0  0  0  0  0  0  0  0
   -3.4361   -1.2066   -0.8960 C   0  0  0  0  0  0  0  0  0  0  0  0
   -4.8327   -0.8357   -1.0489 C   0  0  0  0  0  0  0  0  0  0  0  0
   -5.6679   -1.5415   -1.1375 H   0  0  0  0  0  0  0  0  0  0  0  0
   -4.8755    0.5398   -1.0730 C   0  0  0  0  0  0  0  0  0  0  0  0
   -5.7528    1.1890   -1.1850 H   0  0  0  0  0  0  0  0  0  0  0  0
   -3.5048    1.0010   -0.9328 C   0  0  0  0  0  0  0  0  0  0  0  0
   -3.0959    2.3486   -0.9175 C   0  0  0  0  0  0  0  0  0  0  0  0
   -3.8893    3.1047   -1.0149 H   0  0  0  0  0  0  0  0  0  0  0  0
   -1.7801    2.8302   -0.8089 C   0  0  0  0  0  0  0  0  0  0  0  0
   -1.3994    4.2326   -0.8150 C   0  0  0  0  0  0  0  0  0  0  0  0
   -2.0952    5.0749   -0.9146 H   0  0  0  0  0  0  0  0  0  0  0  0
   -0.0304    4.2708   -0.6849 C   0  0  0  0  0  0  0  0  0  0  0  0
    0.6237    5.1511   -0.6567 H   0  0  0  0  0  0  0  0  0  0  0  0
    0.4200    2.8912   -0.6020 C   0  0  0  0  0  3  0  0  0  0  0  0
    1.7651    2.4893   -0.4820 C   0  0  0  0  0  0  0  0  0  0  0  0
    2.5088    3.2981   -0.4294 H   0  0  0  0  0  0  0  0  0  0  0  0
    4.8644    1.5746   -0.3018 C   0  0  0  0  0  0  0  0  0  0  0  0
    4.8372    2.6750   -0.2852 H   0  0  0  0  0  0  0  0  0  0  0  0
    6.0881    0.8936   -0.2462 C   0  0  0  0  0  0  0  0  0  0  0  0
    7.0271    1.4644   -0.1844 H   0  0  0  0  0  0  0  0  0  0  0  0
    6.1356   -0.5194   -0.2704 C   0  0  0  0  0  0  0  0  0  0  0  0
    7.1109   -1.0277   -0.2275 H   0  0  0  0  0  0  0  0  0  0  0  0
    4.9602   -1.2785   -0.3502 C   0  0  0  0  0  0  0  0  0  0  0  0
    5.0067   -2.3782   -0.3716 H   0  0  0  0  0  0  0  0  0  0  0  0
  1  8  2  0  0  0  0
  1  5  1  0  0  0  0
  2 11  1  0  0  0  0
  4 32  1  0  0  0  0
  5  6  1  0  0  0  0
  6 35  1  0  0  0  0
  7  6  2  0  0  0  0
  7 41  1  0  0  0  0
  8  7  1  0  0  0  0
  9 10  1  0  0  0  0
  9  8  1  0  0  0  0
 11  9  2  0  0  0  0
 12 13  1  0  0  0  0
 12 11  1  0  0  0  0
 14 16  1  0  0  0  0
 14 12  2  0  0  0  0
 15 14  1  0  0  0  0
 16  2  1  0  0  0  0
 17 16  2  0  0  0  0
 18 17  1  0  0  0  0
 19 17  1  0  0  0  0
 19  3  2  0  0  0  0
 20 19  1  0  0  0  0
 21 20  1  0  0  0  0
 22 20  2  0  0  0  0
 22 24  1  0  0  0  0
 23 22  1  0  0  0  0
 24 25  2  0  0  0  0
 24  3  1  0  0  0  0
 25 27  1  0  0  0  0
 26 25  1  0  0  0  0
 27  4  2  0  0  0  0
 28 27  1  0  0  0  0
 28 30  2  0  0  0  0
 29 28  1  0  0  0  0
 30 31  1  0  0  0  0
 30 32  1  0  0  0  0
 32 33  1  0  0  0  0
 33  5  2  0  0  0  0
 33 34  1  0  0  0  0
 35 36  1  0  0  0  0
 35 37  2  0  0  0  0
 37 38  1  0  0  0  0
 39 37  1  0  0  0  0
 39 40  1  0  0  0  0
 41 39  2  0  0  0  0
 42 41  1  0  0  0  0
M  END
