57,58,60,62
 OpenBabel05122313063D

 62 67  0  0  1  0  0  0  0  0999 V2000
   -3.7005    2.6002    0.0127 C   0  0  0  0  0  3  0  0  0  0  0  0
   -4.2167    1.9944    0.7732 H   0  0  0  0  0  0  0  0  0  0  0  0
   -4.1620    3.8765   -0.3215 C   0  0  0  0  0  0  0  0  0  0  0  0
   -5.0498    4.2879    0.1789 H   0  0  0  0  0  0  0  0  0  0  0  0
   -3.4652    4.6035   -1.2978 C   0  0  0  0  0  0  0  0  0  0  0  0
   -3.7944    5.6118   -1.5900 H   0  0  0  0  0  0  0  0  0  0  0  0
   -2.3346    4.0270   -1.8876 C   0  0  0  0  0  0  0  0  0  0  0  0
   -1.7528    4.5716   -2.6465 H   0  0  0  0  0  0  0  0  0  0  0  0
   -1.9302    2.7376   -1.5010 C   0  0  0  0  0  0  0  0  0  0  0  0
   -0.7234    2.0822   -2.1593 C   0  0  0  0  0  0  0  0  0  0  0  0
   -1.0870    1.5141   -3.0423 H   0  0  0  0  0  0  0  0  0  0  0  0
   -0.0599    2.8854   -2.5540 H   0  0  0  0  0  0  0  0  0  0  0  0
    0.8711    1.6152   -0.3071 C   0  0  0  0  0  0  0  0  0  0  0  0
    0.8214    2.9585    0.1681 C   0  0  0  0  0  0  0  0  0  0  0  0
    0.1064    3.6737   -0.2598 H   0  0  0  0  0  0  0  0  0  0  0  0
    1.6753    3.3746    1.1767 C   0  0  0  0  0  0  0  0  0  0  0  0
    1.6298    4.4145    1.5346 H   0  0  0  0  0  0  0  0  0  0  0  0
    2.6191    2.4874    1.7656 C   0  0  0  0  0  0  0  0  0  0  0  0
    3.5029    2.8998    2.8051 C   0  0  0  0  0  0  0  0  0  0  0  0
    3.4522    3.9410    3.1594 H   0  0  0  0  0  0  0  0  0  0  0  0
    4.4109    2.0105    3.3591 C   0  0  0  0  0  0  0  0  0  0  0  0
    5.0900    2.3399    4.1593 H   0  0  0  0  0  0  0  0  0  0  0  0
    4.4693    0.6699    2.8905 C   0  0  0  0  0  0  0  0  0  0  0  0
    5.1968   -0.0280    3.3316 H   0  0  0  0  0  0  0  0  0  0  0  0
    3.6247    0.2350    1.8798 C   0  0  0  0  0  0  0  0  0  0  0  0
    3.6805   -0.8007    1.5131 H   0  0  0  0  0  0  0  0  0  0  0  0
    2.6775    1.1255    1.2887 C   0  0  0  0  0  0  0  0  0  0  0  0
    1.7887    0.7043    0.2465 C   0  0  0  0  0  0  0  0  0  0  0  0
    1.7887   -0.7042   -0.2466 C   0  0  0  0  0  0  0  0  0  0  0  0
    2.6775   -1.1255   -1.2887 C   0  0  0  0  0  0  0  0  0  0  0  0
    3.6247   -0.2350   -1.8799 C   0  0  0  0  0  0  0  0  0  0  0  0
    3.6804    0.8007   -1.5132 H   0  0  0  0  0  0  0  0  0  0  0  0
    4.4692   -0.6700   -2.8906 C   0  0  0  0  0  0  0  0  0  0  0  0
    5.1967    0.0279   -3.3317 H   0  0  0  0  0  0  0  0  0  0  0  0
    4.4107   -2.0105   -3.3592 C   0  0  0  0  0  0  0  0  0  0  0  0
    5.0898   -2.3399   -4.1594 H   0  0  0  0  0  0  0  0  0  0  0  0
    3.5028   -2.8998   -2.8052 C   0  0  0  0  0  0  0  0  0  0  0  0
    3.4520   -3.9410   -3.1595 H   0  0  0  0  0  0  0  0  0  0  0  0
    2.6190   -2.4873   -1.7656 C   0  0  0  0  0  0  0  0  0  0  0  0
    1.6752   -3.3745   -1.1768 C   0  0  0  0  0  0  0  0  0  0  0  0
    1.6296   -4.4145   -1.5346 H   0  0  0  0  0  0  0  0  0  0  0  0
    0.8213   -2.9584   -0.1681 C   0  0  0  0  0  0  0  0  0  0  0  0
    0.1063   -3.6736    0.2599 H   0  0  0  0  0  0  0  0  0  0  0  0
    0.8710   -1.6151    0.3071 C   0  0  0  0  0  0  0  0  0  0  0  0
   -0.7233   -2.0822    2.1593 C   0  0  0  0  0  0  0  0  0  0  0  0
   -1.0870   -1.5141    3.0423 H   0  0  0  0  0  0  0  0  0  0  0  0
   -0.0598   -2.8854    2.5540 H   0  0  0  0  0  0  0  0  0  0  0  0
   -1.9301   -2.7376    1.5011 C   0  0  1  0  0  3  0  0  0  0  0  0
   -2.3345   -4.0271    1.8876 C   0  0  0  0  0  0  0  0  0  0  0  0
   -1.7526   -4.5716    2.6465 H   0  0  0  0  0  0  0  0  0  0  0  0
   -3.4650   -4.6036    1.2978 C   0  0  0  0  0  0  0  0  0  0  0  0
   -3.7942   -5.6119    1.5900 H   0  0  0  0  0  0  0  0  0  0  0  0
   -4.1619   -3.8765    0.3215 C   0  0  0  0  0  0  0  0  0  0  0  0
   -5.0497   -4.2880   -0.1789 H   0  0  0  0  0  0  0  0  0  0  0  0
   -3.7005   -2.6002   -0.0127 C   0  0  0  0  0  0  0  0  0  0  0  0
   -4.2166   -1.9944   -0.7732 H   0  0  0  0  0  0  0  0  0  0  0  0
   -2.6129    2.0413   -0.5656 N   0  0  0  0  0  2  0  0  0  0  0  0
   -0.0176    1.1502   -1.3026 N   0  0  0  0  0  0  0  0  0  0  0  0
    0.3635    0.3342   -1.7928 H   0  0  0  0  0  0  0  0  0  0  0  0
   -0.0176   -1.1501    1.3026 N   0  0  0  0  0  0  0  0  0  0  0  0
    0.3635   -0.3341    1.7928 H   0  0  0  0  0  0  0  0  0  0  0  0
   -2.6129   -2.0413    0.5657 N   0  0  0  0  0  2  0  0  0  0  0  0
  1  2  1  0  0  0  0
  3  1  1  0  0  0  0
  3  4  1  0  0  0  0
  5  3  2  0  0  0  0
  6  5  1  0  0  0  0
  7  9  2  0  0  0  0
  7  5  1  0  0  0  0
  8  7  1  0  0  0  0
  9 57  1  0  0  0  0
 10  9  1  0  0  0  0
 10 58  1  0  0  0  0
 11 10  1  0  0  0  0
 12 10  1  0  0  0  0
 13 14  2  0  0  0  0
 13 28  1  0  0  0  0
 14 16  1  0  0  0  0
 15 14  1  0  0  0  0
 16 17  1  0  0  0  0
 16 18  2  0  0  0  0
 18 19  1  0  0  0  0
 19 20  1  0  0  0  0
 19 21  2  0  0  0  0
 21 22  1  0  0  0  0
 23 24  1  0  0  0  0
 23 21  1  0  0  0  0
 25 23  2  0  0  0  0
 26 25  1  0  0  0  0
 27 18  1  0  0  0  0
 27 25  1  0  0  0  0
 28 27  2  0  0  0  0
 29 28  1  0  0  0  0
 29 44  1  0  0  0  0
 30 29  2  0  0  0  0
 31 32  1  0  0  0  0
 31 30  1  0  0  0  0
 33 31  2  0  0  0  0
 34 33  1  0  0  0  0
 35 33  1  0  0  0  0
 35 37  2  0  0  0  0
 36 35  1  0  0  0  0
 37 39  1  0  0  0  0
 38 37  1  0  0  0  0
 39 30  1  0  0  0  0
 39 40  2  0  0  0  0
 40 42  1  0  0  0  0
 41 40  1  0  0  0  0
 42 43  1  0  0  0  0
 42 44  2  0  0  0  0
 44 60  1  0  0  0  0
 45 47  1  0  0  0  0
 45 46  1  0  0  0  0
 48 49  1  0  0  0  0
 48 45  1  1  0  0  0
 49 50  1  0  0  0  0
 51 52  1  0  0  0  0
 51 49  2  0  0  0  0
 53 51  1  0  0  0  0
 54 53  1  0  0  0  0
 55 53  2  0  0  0  0
 55 62  1  0  0  0  0
 56 55  1  0  0  0  0
 57  1  1  0  0  0  0
 58 13  1  0  0  0  0
 59 58  1  0  0  0  0
 60 61  1  0  0  0  0
 60 45  1  0  0  0  0
 62 48  1  0  0  0  0
M  END
