33,34,35,36
 OpenBabel05122313063D

 40 40  0  0  1  0  0  0  0  0999 V2000
    1.2817   -3.6840    0.2425 C   0  0  0  0  0  0  0  0  0  0  0  0
    2.2025   -4.2798    0.4196 H   0  0  0  0  0  0  0  0  0  0  0  0
    0.7804   -4.1015   -0.6634 H   0  0  0  0  0  0  0  0  0  0  0  0
    0.5842   -3.8350    1.0970 H   0  0  0  0  0  0  0  0  0  0  0  0
    2.9958   -2.0410    0.0416 C   0  0  0  0  0  0  0  0  0  0  0  0
    3.2960   -0.5291   -0.0400 C   0  0  0  0  0  0  0  0  0  0  0  0
    1.9779    1.5593   -0.0499 C   0  0  0  0  0  0  0  0  0  0  0  0
    3.0070    2.5265   -0.0708 C   0  0  0  0  0  0  0  0  0  0  0  0
    4.0456    2.1736   -0.0849 H   0  0  0  0  0  0  0  0  0  0  0  0
    2.6674    3.8908   -0.0736 C   0  0  0  0  0  0  0  0  0  0  0  0
    3.4727    4.6435   -0.0901 H   0  0  0  0  0  0  0  0  0  0  0  0
    1.3241    4.3054   -0.0551 C   0  0  0  0  0  0  0  0  0  0  0  0
    1.0765    5.3791   -0.0558 H   0  0  0  0  0  0  0  0  0  0  0  0
    0.2865    3.3550   -0.0344 C   0  0  0  0  0  0  0  0  0  0  0  0
   -0.7722    3.6421   -0.0163 H   0  0  0  0  0  0  0  0  0  0  0  0
    0.6102    1.9847   -0.0341 C   0  0  0  0  0  0  0  0  0  0  0  0
   -1.6273    0.9758    0.0247 C   0  0  0  0  0  0  0  0  0  0  0  0
   -2.1649   -0.4382   -0.0152 C   0  0  2  0  0  3  0  0  0  0  0  0
   -1.7379   -2.7834   -0.1681 C   0  0  0  0  0  0  0  0  0  0  0  0
   -2.8204   -2.8479   -0.3931 H   0  0  0  0  0  0  0  0  0  0  0  0
   -1.5359   -3.3345    0.7746 H   0  0  0  0  0  0  0  0  0  0  0  0
   -1.1591   -3.2945   -0.9618 H   0  0  0  0  0  0  0  0  0  0  0  0
   -4.5378    0.2443   -0.1694 C   0  0  0  0  0  0  0  0  0  0  0  0
   -4.1378    1.1001   -0.7460 H   0  0  0  0  0  0  0  0  0  0  0  0
   -5.6447   -0.4769   -0.9276 C   0  0  0  0  0  0  0  0  0  0  0  0
   -5.2825   -0.8305   -1.9132 H   0  0  0  0  0  0  0  0  0  0  0  0
   -6.5015    0.2062   -1.0943 H   0  0  0  0  0  0  0  0  0  0  0  0
   -6.0064   -1.3564   -0.3549 H   0  0  0  0  0  0  0  0  0  0  0  0
   -4.9629    0.7418    1.2057 C   0  0  0  0  0  0  0  0  0  0  0  0
   -5.2595   -0.1057    1.8578 H   0  0  0  0  0  0  0  0  0  0  0  0
   -5.8253    1.4332    1.1116 H   0  0  0  0  0  0  0  0  0  0  0  0
   -4.1251    1.2997    1.6641 H   0  0  0  0  0  0  0  0  0  0  0  0
    1.6494   -2.2959    0.0883 N   0  0  0  0  0  2  0  0  0  0  0  0
    2.1253    0.1761   -0.0370 N   0  0  0  0  0  2  0  0  0  0  0  0
   -0.2804    0.9019   -0.0244 N   0  0  0  0  0  2  0  0  0  0  0  0
   -1.2825   -1.4116   -0.0556 N   0  0  0  0  0  2  0  0  0  0  0  0
    3.9082   -2.8783    0.0802 O   0  0  0  0  0  0  0  0  0  0  0  0
    4.4439   -0.0722   -0.0835 O   0  0  0  0  0  0  0  0  0  0  0  0
   -2.3614    1.9926    0.0863 O   0  0  0  0  0  0  0  0  0  0  0  0
   -3.4743   -0.7417   -0.0163 O   0  0  0  0  0  0  0  0  0  0  0  0
  1  2  1  0  0  0  0
  1  4  1  0  0  0  0
  3  1  1  0  0  0  0
  5 37  2  0  0  0  0
  5 33  1  0  0  0  0
  6 34  1  0  0  0  0
  6  5  1  0  0  0  0
  7 34  1  0  0  0  0
  7 16  1  0  0  0  0
  8  7  2  0  0  0  0
  9  8  1  0  0  0  0
 10  8  1  0  0  0  0
 10 12  2  0  0  0  0
 11 10  1  0  0  0  0
 12 14  1  0  0  0  0
 13 12  1  0  0  0  0
 14 16  2  0  0  0  0
 14 15  1  0  0  0  0
 16 35  1  0  0  0  0
 17 39  2  0  0  0  0
 18 36  1  6  0  0  0
 18 17  1  0  0  0  0
 19 36  1  0  0  0  0
 19 21  1  0  0  0  0
 20 19  1  0  0  0  0
 22 19  1  0  0  0  0
 23 40  1  0  0  0  0
 23 29  1  0  0  0  0
 24 23  1  0  0  0  0
 25 28  1  0  0  0  0
 25 23  1  0  0  0  0
 26 25  1  0  0  0  0
 27 25  1  0  0  0  0
 29 32  1  0  0  0  0
 29 30  1  0  0  0  0
 31 29  1  0  0  0  0
 33  1  1  0  0  0  0
 35 17  1  0  0  0  0
 38  6  2  0  0  0  0
 40 18  1  0  0  0  0
M  END
