1,4,7,10
 OpenBabel05122313063D

 56 56  0  0  1  0  0  0  0  0999 V2000
    1.8292   -0.9949   -0.1250 N   0  0  0  0  0  0  0  0  0  0  0  0
    2.6246   -0.1114   -1.0495 C   0  0  1  0  0  0  0  0  0  0  0  0
    1.6973    0.9778   -1.6325 C   0  0  0  0  0  0  0  0  0  0  0  0
    0.8707    1.5167   -0.5325 N   0  0  0  0  0  0  0  0  0  0  0  0
   -0.3247    2.3534   -0.8312 C   0  0  1  0  0  0  0  0  0  0  0  0
   -1.1748    2.3219    0.4514 C   0  0  0  0  0  0  0  0  0  0  0  0
   -1.3560    0.9216    0.9209 N   0  0  0  0  0  0  0  0  0  0  0  0
   -2.5205    0.1593    0.3352 C   0  0  1  0  0  0  0  0  0  0  0  0
   -2.0102   -1.2054   -0.1591 C   0  0  0  0  0  0  0  0  0  0  0  0
   -0.7637   -0.9294   -0.9169 N   0  0  0  0  0  0  0  0  0  0  0  0
    0.0620   -2.0389   -1.5253 C   0  0  1  0  0  0  0  0  0  0  0  0
    1.2773   -2.2801   -0.6246 C   0  0  0  0  0  0  0  0  0  0  0  0
    3.8072    0.4867   -0.2676 C   0  0  0  0  0  0  0  0  0  0  0  0
    4.8479   -0.5448    0.1709 C   0  0  0  0  0  0  0  0  0  0  0  0
    0.0244    3.7678   -1.3095 C   0  0  0  0  0  0  0  0  0  0  0  0
   -1.1830    4.5979   -1.7496 C   0  0  0  0  0  0  0  0  0  0  0  0
   -3.6669    0.0625    1.3455 C   0  0  0  0  0  0  0  0  0  0  0  0
   -4.9185   -0.6385    0.8161 C   0  0  0  0  0  0  0  0  0  0  0  0
   -0.7083   -3.3225   -1.8458 C   0  0  0  0  0  0  0  0  0  0  0  0
   -1.7038   -3.1823   -2.9984 C   0  0  0  0  0  0  0  0  0  0  0  0
    2.4220   -1.2062    0.6923 H   0  0  0  0  0  0  0  0  0  0  0  0
    3.0232   -0.7240   -1.8894 H   0  0  0  0  0  0  0  0  0  0  0  0
    2.3031    1.7587   -2.1408 H   0  0  0  0  0  0  0  0  0  0  0  0
    1.0132    0.5567   -2.3963 H   0  0  0  0  0  0  0  0  0  0  0  0
    1.4707    2.0249    0.1396 H   0  0  0  0  0  0  0  0  0  0  0  0
   -0.8772    1.8340   -1.6481 H   0  0  0  0  0  0  0  0  0  0  0  0
   -0.6348    2.8665    1.2531 H   0  0  0  0  0  0  0  0  0  0  0  0
   -2.1509    2.8280    0.3002 H   0  0  0  0  0  0  0  0  0  0  0  0
   -1.4443    0.9184    1.9491 H   0  0  0  0  0  0  0  0  0  0  0  0
   -2.8673    0.7410   -0.5502 H   0  0  0  0  0  0  0  0  0  0  0  0
   -1.7616   -1.8490    0.7065 H   0  0  0  0  0  0  0  0  0  0  0  0
   -2.7813   -1.7022   -0.7824 H   0  0  0  0  0  0  0  0  0  0  0  0
   -1.0221   -0.2951   -1.6861 H   0  0  0  0  0  0  0  0  0  0  0  0
    0.4283   -1.6181   -2.4875 H   0  0  0  0  0  0  0  0  0  0  0  0
    0.9714   -2.8432    0.2795 H   0  0  0  0  0  0  0  0  0  0  0  0
    2.0493   -2.8678   -1.1671 H   0  0  0  0  0  0  0  0  0  0  0  0
    4.2875    1.2497   -0.9144 H   0  0  0  0  0  0  0  0  0  0  0  0
    3.4126    1.0179    0.6271 H   0  0  0  0  0  0  0  0  0  0  0  0
    5.6869   -0.0512    0.6972 H   0  0  0  0  0  0  0  0  0  0  0  0
    5.2679   -1.0945   -0.6960 H   0  0  0  0  0  0  0  0  0  0  0  0
    4.4371   -1.2937    0.8811 H   0  0  0  0  0  0  0  0  0  0  0  0
    0.5761    4.2907   -0.4967 H   0  0  0  0  0  0  0  0  0  0  0  0
    0.7362    3.6768   -2.1574 H   0  0  0  0  0  0  0  0  0  0  0  0
   -0.8569    5.5712   -2.1634 H   0  0  0  0  0  0  0  0  0  0  0  0
   -1.8716    4.8175   -0.9095 H   0  0  0  0  0  0  0  0  0  0  0  0
   -1.7646    4.0808   -2.5407 H   0  0  0  0  0  0  0  0  0  0  0  0
   -3.2818   -0.4638    2.2471 H   0  0  0  0  0  0  0  0  0  0  0  0
   -3.9255    1.0943    1.6683 H   0  0  0  0  0  0  0  0  0  0  0  0
   -5.7309   -0.5992    1.5667 H   0  0  0  0  0  0  0  0  0  0  0  0
   -4.7347   -1.7083    0.5929 H   0  0  0  0  0  0  0  0  0  0  0  0
   -5.2968   -0.1554   -0.1084 H   0  0  0  0  0  0  0  0  0  0  0  0
    0.0395   -4.1028   -2.1000 H   0  0  0  0  0  0  0  0  0  0  0  0
   -1.2087   -3.6868   -0.9236 H   0  0  0  0  0  0  0  0  0  0  0  0
   -2.2298   -4.1378   -3.1870 H   0  0  0  0  0  0  0  0  0  0  0  0
   -1.1917   -2.8944   -3.9395 H   0  0  0  0  0  0  0  0  0  0  0  0
   -2.4828   -2.4183   -2.7968 H   0  0  0  0  0  0  0  0  0  0  0  0
  1 21  1  0  0  0  0
  2 22  1  6  0  0  0
  2 13  1  0  0  0  0
  2  1  1  0  0  0  0
  3  2  1  0  0  0  0
  3  4  1  0  0  0  0
  4 25  1  0  0  0  0
  5 26  1  6  0  0  0
  5  4  1  0  0  0  0
  5  6  1  0  0  0  0
  6  7  1  0  0  0  0
  6 27  1  0  0  0  0
  7 29  1  0  0  0  0
  8 30  1  6  0  0  0
  8  7  1  0  0  0  0
  8 17  1  0  0  0  0
  9  8  1  0  0  0  0
  9 31  1  0  0  0  0
 10  9  1  0  0  0  0
 11 34  1  6  0  0  0
 11 10  1  0  0  0  0
 11 12  1  0  0  0  0
 12  1  1  0  0  0  0
 12 35  1  0  0  0  0
 13 14  1  0  0  0  0
 13 38  1  0  0  0  0
 14 39  1  0  0  0  0
 14 41  1  0  0  0  0
 15  5  1  0  0  0  0
 15 42  1  0  0  0  0
 16 15  1  0  0  0  0
 16 45  1  0  0  0  0
 17 48  1  0  0  0  0
 17 47  1  0  0  0  0
 18 17  1  0  0  0  0
 18 49  1  0  0  0  0
 19 11  1  0  0  0  0
 19 53  1  0  0  0  0
 20 56  1  0  0  0  0
 20 19  1  0  0  0  0
 23  3  1  0  0  0  0
 24  3  1  0  0  0  0
 28  6  1  0  0  0  0
 32  9  1  0  0  0  0
 33 10  1  0  0  0  0
 36 12  1  0  0  0  0
 37 13  1  0  0  0  0
 40 14  1  0  0  0  0
 43 15  1  0  0  0  0
 44 16  1  0  0  0  0
 46 16  1  0  0  0  0
 50 18  1  0  0  0  0
 51 18  1  0  0  0  0
 52 19  1  0  0  0  0
 54 20  1  0  0  0  0
 55 20  1  0  0  0  0
M  END
