3,4,6,8
 OpenBabel05122313063D

 34 35  0  0  1  0  0  0  0  0999 V2000
    4.1842   -1.2456   -0.1167 O   0  0  0  0  0  0  0  0  0  0  0  0
    3.8297   -2.1517   -0.0467 H   0  0  0  0  0  0  0  0  0  0  0  0
    0.9466    0.3512    0.3823 N   0  0  0  0  0  2  0  0  0  0  0  0
   -1.1133    2.0479    0.0455 N   0  0  0  0  0  0  0  0  0  0  0  0
   -1.9311    2.4838    0.4902 H   0  0  0  0  0  0  0  0  0  0  0  0
   -1.9063   -0.3101   -1.4130 N   0  0  0  0  0  0  0  0  0  0  0  0
   -2.7701   -0.8604   -1.3120 H   0  0  0  0  0  0  0  0  0  0  0  0
   -0.1305   -2.1207   -0.0364 N   0  0  0  0  0  0  0  0  0  0  0  0
   -0.5944   -2.7502    0.6260 H   0  0  0  0  0  0  0  0  0  0  0  0
    1.8434   -0.6313    0.2066 C   0  0  1  0  0  3  0  0  0  0  0  0
    3.2159   -0.3227    0.0463 C   0  0  0  0  0  0  0  0  0  0  0  0
    3.5912    1.0379    0.0411 C   0  0  0  0  0  0  0  0  0  0  0  0
    4.6531    1.2873   -0.0994 H   0  0  0  0  0  0  0  0  0  0  0  0
    2.6222    2.0316    0.2004 C   0  0  0  0  0  0  0  0  0  0  0  0
    2.9050    3.0943    0.1851 H   0  0  0  0  0  0  0  0  0  0  0  0
    1.2818    1.6537    0.3777 C   0  0  0  0  0  0  0  0  0  0  0  0
    0.1301    2.6236    0.5801 C   0  0  0  0  0  0  0  0  0  0  0  0
   -0.0186    2.7914    1.6686 H   0  0  0  0  0  0  0  0  0  0  0  0
    0.3811    3.6103    0.1314 H   0  0  0  0  0  0  0  0  0  0  0  0
   -1.2261    2.0804   -1.4235 C   0  0  0  0  0  0  0  0  0  0  0  0
   -0.2210    1.8579   -1.8399 H   0  0  0  0  0  0  0  0  0  0  0  0
   -1.5085    3.0854   -1.8074 H   0  0  0  0  0  0  0  0  0  0  0  0
   -2.2371    1.0396   -1.9143 C   0  0  0  0  0  0  0  0  0  0  0  0
   -3.2459    1.2948   -1.5301 H   0  0  0  0  0  0  0  0  0  0  0  0
   -2.2966    1.0691   -3.0245 H   0  0  0  0  0  0  0  0  0  0  0  0
   -0.9128   -1.0849   -2.1765 C   0  0  0  0  0  0  0  0  0  0  0  0
   -0.0035   -0.4596   -2.2978 H   0  0  0  0  0  0  0  0  0  0  0  0
   -1.2718   -1.3386   -3.1992 H   0  0  0  0  0  0  0  0  0  0  0  0
   -0.5736   -2.3758   -1.4179 C   0  0  0  0  0  0  0  0  0  0  0  0
   -1.4819   -3.0118   -1.3698 H   0  0  0  0  0  0  0  0  0  0  0  0
    0.1834   -2.9523   -1.9945 H   0  0  0  0  0  0  0  0  0  0  0  0
    1.3069   -2.0565    0.2252 C   0  0  0  0  0  0  0  0  0  0  0  0
    1.8778   -2.6835   -0.5024 H   0  0  0  0  0  0  0  0  0  0  0  0
    1.4970   -2.4909    1.2313 H   0  0  0  0  0  0  0  0  0  0  0  0
  1  2  1  0  0  0  0
  1 11  1  0  0  0  0
  4  5  1  0  0  0  0
  4 17  1  0  0  0  0
  6  7  1  0  0  0  0
  8 32  1  0  0  0  0
  8  9  1  0  0  0  0
 10 11  1  1  0  0  0
 10 32  1  0  0  0  0
 10  3  1  0  0  0  0
 12 11  2  0  0  0  0
 12 14  1  0  0  0  0
 13 12  1  0  0  0  0
 14 16  2  0  0  0  0
 15 14  1  0  0  0  0
 16  3  1  0  0  0  0
 16 17  1  0  0  0  0
 17 18  1  0  0  0  0
 19 17  1  0  0  0  0
 20  4  1  0  0  0  0
 21 20  1  0  0  0  0
 22 20  1  0  0  0  0
 23 24  1  0  0  0  0
 23 20  1  0  0  0  0
 23  6  1  0  0  0  0
 25 23  1  0  0  0  0
 26 29  1  0  0  0  0
 26  6  1  0  0  0  0
 27 26  1  0  0  0  0
 28 26  1  0  0  0  0
 29 30  1  0  0  0  0
 29  8  1  0  0  0  0
 31 29  1  0  0  0  0
 32 34  1  0  0  0  0
 33 32  1  0  0  0  0
M  END
