1,2,3,4
 OpenBabel05122313063D

 37 36  0  0  0  0  0  0  0  0999 V2000
    1.5684   -0.0514   -0.8367 N   0  0  0  0  0  0  0  0  0  0  0  0
   -0.4402    2.0387    0.3435 N   0  0  0  0  0  0  0  0  0  0  0  0
   -0.0738   -1.9169    0.6117 N   0  0  0  0  0  0  0  0  0  0  0  0
    0.9362    0.3082    2.1356 N   0  0  0  0  0  0  0  0  0  0  0  0
    1.9421    1.2674   -1.4518 C   0  0  0  0  0  0  0  0  0  0  0  0
    0.7960    2.2160   -1.7850 C   0  0  0  0  0  0  0  0  0  0  0  0
    0.2974    2.9558   -0.5515 C   0  0  0  0  0  0  0  0  0  0  0  0
    1.1721   -0.9732   -1.9673 C   0  0  0  0  0  0  0  0  0  0  0  0
    0.9056   -2.4371   -1.6135 C   0  0  0  0  0  0  0  0  0  0  0  0
   -0.2398   -2.6939   -0.6432 C   0  0  0  0  0  0  0  0  0  0  0  0
    2.7939   -0.5942   -0.1685 C   0  0  0  0  0  0  0  0  0  0  0  0
    3.1937    0.0507    1.1576 C   0  0  0  0  0  0  0  0  0  0  0  0
    2.2758   -0.2925    2.3239 C   0  0  0  0  0  0  0  0  0  0  0  0
    2.6287    1.7826   -0.7514 H   0  0  0  0  0  0  0  0  0  0  0  0
    2.5370    1.0445   -2.3638 H   0  0  0  0  0  0  0  0  0  0  0  0
   -0.0458    1.6906   -2.2810 H   0  0  0  0  0  0  0  0  0  0  0  0
    1.1782    2.9598   -2.5124 H   0  0  0  0  0  0  0  0  0  0  0  0
   -0.5088    2.4326    1.2945 H   0  0  0  0  0  0  0  0  0  0  0  0
   -1.4411    2.0099    0.0366 H   0  0  0  0  0  0  0  0  0  0  0  0
    1.1574    3.3913   -0.0003 H   0  0  0  0  0  0  0  0  0  0  0  0
   -0.3651    3.7993   -0.8382 H   0  0  0  0  0  0  0  0  0  0  0  0
   -0.9307   -2.0039    1.1888 H   0  0  0  0  0  0  0  0  0  0  0  0
    0.7018   -2.3073    1.1672 H   0  0  0  0  0  0  0  0  0  0  0  0
    1.9949   -0.9412   -2.7153 H   0  0  0  0  0  0  0  0  0  0  0  0
    0.2712   -0.5321   -2.4312 H   0  0  0  0  0  0  0  0  0  0  0  0
    0.2697   -0.0273    2.8517 H   0  0  0  0  0  0  0  0  0  0  0  0
    1.0153    1.3214    2.3120 H   0  0  0  0  0  0  0  0  0  0  0  0
    0.6592   -2.9442   -2.5687 H   0  0  0  0  0  0  0  0  0  0  0  0
    1.8335   -2.9387   -1.2637 H   0  0  0  0  0  0  0  0  0  0  0  0
   -0.3012   -3.7758   -0.4008 H   0  0  0  0  0  0  0  0  0  0  0  0
   -1.2071   -2.3869   -1.0779 H   0  0  0  0  0  0  0  0  0  0  0  0
    2.6422   -1.6756    0.0024 H   0  0  0  0  0  0  0  0  0  0  0  0
    3.6365   -0.5165   -0.8913 H   0  0  0  0  0  0  0  0  0  0  0  0
    3.2914    1.1542    1.0648 H   0  0  0  0  0  0  0  0  0  0  0  0
    4.2136   -0.3090    1.4026 H   0  0  0  0  0  0  0  0  0  0  0  0
    2.7183    0.0488    3.2836 H   0  0  0  0  0  0  0  0  0  0  0  0
    2.1587   -1.3930    2.4120 H   0  0  0  0  0  0  0  0  0  0  0  0
  1 11  1  0  0  0  0
  2 18  1  0  0  0  0
  3 23  1  0  0  0  0
  3 22  1  0  0  0  0
  4 27  1  0  0  0  0
  4 13  1  0  0  0  0
  4 26  1  0  0  0  0
  5  1  1  0  0  0  0
  5 14  1  0  0  0  0
  6  5  1  0  0  0  0
  6  7  1  0  0  0  0
  7 20  1  0  0  0  0
  7  2  1  0  0  0  0
  8  9  1  0  0  0  0
  8  1  1  0  0  0  0
  9 29  1  0  0  0  0
  9 10  1  0  0  0  0
 10 30  1  0  0  0  0
 10  3  1  0  0  0  0
 11 32  1  0  0  0  0
 11 12  1  0  0  0  0
 12 35  1  0  0  0  0
 12 13  1  0  0  0  0
 13 37  1  0  0  0  0
 13 36  1  0  0  0  0
 15  5  1  0  0  0  0
 16  6  1  0  0  0  0
 17  6  1  0  0  0  0
 19  2  1  0  0  0  0
 21  7  1  0  0  0  0
 24  8  1  0  0  0  0
 25  8  1  0  0  0  0
 28  9  1  0  0  0  0
 31 10  1  0  0  0  0
 33 11  1  0  0  0  0
 34 12  1  0  0  0  0
M  END
