3,4,8,39
 OpenBabel05122313063D

 60 64  0  0  0  0  0  0  0  0999 V2000
    3.5720    1.3814   -1.6686 C   0  0  0  0  0  0  0  0  0  0  0  0
    4.3319    2.0902   -2.0108 H   0  0  0  0  0  0  0  0  0  0  0  0
   -1.5740    0.8983    1.2647 N   0  0  0  0  0  2  0  0  0  0  0  0
    0.1003    2.3274   -0.4484 N   0  0  0  0  0  0  0  0  0  0  0  0
    5.0112   -0.6919   -1.9466 C   0  0  0  0  0  0  0  0  0  0  0  0
    5.4825   -0.2634   -2.8532 H   0  0  0  0  0  0  0  0  0  0  0  0
    4.7139   -1.7330   -2.1867 H   0  0  0  0  0  0  0  0  0  0  0  0
    1.8458    0.2796   -0.8257 N   0  0  0  0  0  2  0  0  0  0  0  0
    2.7211   -0.6330   -1.1794 N   0  0  0  0  0  2  0  0  0  0  0  0
   -3.9573    2.0570    2.1764 C   0  0  0  0  0  0  0  0  0  0  0  0
   -4.8953    2.5115    2.5274 H   0  0  0  0  0  0  0  0  0  0  0  0
    8.2250   -0.9178    0.1011 C   0  0  0  0  0  0  0  0  0  0  0  0
    9.2909   -1.1221   -0.0797 H   0  0  0  0  0  0  0  0  0  0  0  0
   -3.7462    0.6772    2.2737 C   0  0  0  0  0  0  0  0  0  0  0  0
   -4.5094    0.0092    2.6949 H   0  0  0  0  0  0  0  0  0  0  0  0
   -0.5895    3.0457    0.6595 C   0  0  0  0  0  0  0  0  0  0  0  0
   -0.8922    4.0731    0.3623 H   0  0  0  0  0  0  0  0  0  0  0  0
    0.1507    3.1055    1.4863 H   0  0  0  0  0  0  0  0  0  0  0  0
    7.3274   -0.9060   -0.9758 C   0  0  0  0  0  0  0  0  0  0  0  0
    7.6950   -1.1022   -1.9958 H   0  0  0  0  0  0  0  0  0  0  0  0
    2.3170    1.5477   -1.1072 C   0  0  0  0  0  0  0  0  0  0  0  0
   -2.9463    2.8535    1.6167 C   0  0  0  0  0  0  0  0  0  0  0  0
   -3.0673    3.9425    1.5240 H   0  0  0  0  0  0  0  0  0  0  0  0
    3.7690    0.0289   -1.6931 N   0  0  0  0  0  0  0  0  0  0  0  0
   -2.5469    0.1285    1.8030 C   0  0  0  0  0  3  0  0  0  0  0  0
   -2.3203   -0.9526    1.8399 H   0  0  0  0  0  0  0  0  0  0  0  0
    5.9605   -0.6461   -0.7599 C   0  0  0  0  0  0  0  0  0  0  0  0
   -1.7632    2.2516    1.1764 C   0  0  0  0  0  0  0  0  0  0  0  0
    1.5312    2.7269   -0.6128 C   0  0  0  0  0  0  0  0  0  0  0  0
    1.6436    3.6216   -1.2621 H   0  0  0  0  0  0  0  0  0  0  0  0
    1.9086    2.9695    0.4016 H   0  0  0  0  0  0  0  0  0  0  0  0
    5.5032   -0.3875    0.5470 C   0  0  0  0  0  0  0  0  0  0  0  0
    4.4421   -0.1697    0.7474 H   0  0  0  0  0  0  0  0  0  0  0  0
    7.7664   -0.6615    1.4031 C   0  0  0  0  0  0  0  0  0  0  0  0
    8.4717   -0.6659    2.2474 H   0  0  0  0  0  0  0  0  0  0  0  0
    6.4069   -0.3936    1.6214 C   0  0  0  0  0  0  0  0  0  0  0  0
    6.0389   -0.1850    2.6371 H   0  0  0  0  0  0  0  0  0  0  0  0
   -2.0564   -0.8929   -1.5030 N   0  0  0  0  0  2  0  0  0  0  0  0
   -1.1882    0.0665   -1.2650 N   0  0  0  0  0  2  0  0  0  0  0  0
   -3.0059   -0.3559   -2.2803 N   0  0  0  0  0  0  0  0  0  0  0  0
   -2.7597    0.9630   -2.5427 C   0  0  0  0  0  0  0  0  0  0  0  0
   -3.4335    1.5792   -3.1455 H   0  0  0  0  0  0  0  0  0  0  0  0
   -1.5650    1.2348   -1.8932 C   0  0  0  0  0  0  0  0  0  0  0  0
   -0.6427    2.4022   -1.7541 C   0  0  0  0  0  0  0  0  0  0  0  0
   -1.1749    3.3717   -1.8487 H   0  0  0  0  0  0  0  0  0  0  0  0
    0.1136    2.3620   -2.5651 H   0  0  0  0  0  0  0  0  0  0  0  0
   -5.1108   -1.2431   -1.3283 C   0  0  0  0  0  0  0  0  0  0  0  0
   -4.2159   -1.1463   -2.5485 C   0  0  0  0  0  0  0  0  0  0  0  0
   -3.8706   -2.1464   -2.8760 H   0  0  0  0  0  0  0  0  0  0  0  0
   -4.7378   -0.6665   -3.3972 H   0  0  0  0  0  0  0  0  0  0  0  0
   -4.7113   -2.0101   -0.2139 C   0  0  0  0  0  0  0  0  0  0  0  0
   -3.7391   -2.5263   -0.2144 H   0  0  0  0  0  0  0  0  0  0  0  0
   -6.3397   -0.5585   -1.2930 C   0  0  0  0  0  0  0  0  0  0  0  0
   -6.6603    0.0386   -2.1618 H   0  0  0  0  0  0  0  0  0  0  0  0
   -5.5432   -2.0982    0.9111 C   0  0  0  0  0  0  0  0  0  0  0  0
   -5.2281   -2.7086    1.7710 H   0  0  0  0  0  0  0  0  0  0  0  0
   -7.1689   -0.6455   -0.1636 C   0  0  0  0  0  0  0  0  0  0  0  0
   -8.1327   -0.1150   -0.1501 H   0  0  0  0  0  0  0  0  0  0  0  0
   -6.7731   -1.4188    0.9383 C   0  0  0  0  0  0  0  0  0  0  0  0
   -7.4284   -1.4985    1.8188 H   0  0  0  0  0  0  0  0  0  0  0  0
  1 21  2  0  0  0  0
  2  1  1  0  0  0  0
  3 25  1  0  0  0  0
  4 16  1  0  0  0  0
  5 24  1  0  0  0  0
  5 27  1  0  0  0  0
  6  5  1  0  0  0  0
  7  5  1  0  0  0  0
  9  8  1  0  0  0  0
 10 14  2  0  0  0  0
 10 11  1  0  0  0  0
 12 34  1  0  0  0  0
 13 12  1  0  0  0  0
 14 15  1  0  0  0  0
 16 28  1  0  0  0  0
 16 18  1  0  0  0  0
 17 16  1  0  0  0  0
 19 27  1  0  0  0  0
 19 12  2  0  0  0  0
 20 19  1  0  0  0  0
 21  8  1  0  0  0  0
 21 29  1  0  0  0  0
 22 10  1  0  0  0  0
 23 22  1  0  0  0  0
 24  1  1  0  0  0  0
 24  9  1  0  0  0  0
 25 26  1  0  0  0  0
 25 14  1  0  0  0  0
 27 32  2  0  0  0  0
 28  3  1  0  0  0  0
 28 22  2  0  0  0  0
 29  4  1  0  0  0  0
 29 31  1  0  0  0  0
 30 29  1  0  0  0  0
 32 33  1  0  0  0  0
 32 36  1  0  0  0  0
 34 36  2  0  0  0  0
 34 35  1  0  0  0  0
 36 37  1  0  0  0  0
 38 39  1  0  0  0  0
 40 38  1  0  0  0  0
 41 40  1  0  0  0  0
 41 43  2  0  0  0  0
 42 41  1  0  0  0  0
 43 44  1  0  0  0  0
 43 39  1  0  0  0  0
 44  4  1  0  0  0  0
 45 44  1  0  0  0  0
 46 44  1  0  0  0  0
 47 53  2  0  0  0  0
 47 51  1  0  0  0  0
 48 40  1  0  0  0  0
 48 47  1  0  0  0  0
 49 48  1  0  0  0  0
 50 48  1  0  0  0  0
 51 55  2  0  0  0  0
 52 51  1  0  0  0  0
 53 57  1  0  0  0  0
 54 53  1  0  0  0  0
 55 59  1  0  0  0  0
 55 56  1  0  0  0  0
 57 58  1  0  0  0  0
 57 59  2  0  0  0  0
 59 60  1  0  0  0  0
M  END
