3,4,5,6
 OpenBabel05122313063D

 52 55  0  0  1  0  0  0  0  0999 V2000
    1.2982    5.8098    0.0237 O   0  0  0  0  0  0  0  0  0  0  0  0
   -1.3617    5.7651    0.0535 O   0  0  0  0  0  0  0  0  0  0  0  0
    1.2843   -1.8933    0.1358 N   0  0  0  0  0  2  0  0  0  0  0  0
    1.2727    0.8472   -0.0475 N   0  0  0  0  0  2  0  0  0  0  0  0
   -1.2750    0.8584    0.0365 N   0  0  0  0  0  2  0  0  0  0  0  0
   -1.3002   -1.8909   -0.0223 N   0  0  0  0  0  2  0  0  0  0  0  0
    2.6284   -1.7965    0.1252 C   0  0  0  0  0  0  0  0  0  0  0  0
    3.5047   -2.9169    0.3629 C   0  0  0  0  0  0  0  0  0  0  0  0
    3.0810   -3.8869    0.6496 H   0  0  0  0  0  0  0  0  0  0  0  0
    4.8796   -2.8114    0.2434 C   0  0  0  0  0  0  0  0  0  0  0  0
    5.4949   -3.7074    0.4289 H   0  0  0  0  0  0  0  0  0  0  0  0
    5.5298   -1.5882   -0.0996 C   0  0  0  0  0  0  0  0  0  0  0  0
    4.7135   -0.4801   -0.2681 C   0  0  0  0  0  3  0  0  0  0  0  0
    5.1680    0.4992   -0.4938 H   0  0  0  0  0  0  0  0  0  0  0  0
    3.2916   -0.5320   -0.1360 C   0  0  0  0  0  0  0  0  0  0  0  0
    2.5794    0.6847   -0.2114 C   0  0  0  0  0  0  0  0  0  0  0  0
    3.1900    1.5859   -0.3999 H   0  0  0  0  0  0  0  0  0  0  0  0
    0.7113    2.1345   -0.0180 C   0  0  0  0  0  0  0  0  0  0  0  0
    1.4205    3.3587   -0.0111 C   0  0  0  0  0  0  0  0  0  0  0  0
    2.5200    3.3805   -0.0089 H   0  0  0  0  0  0  0  0  0  0  0  0
    0.7215    4.5643    0.0125 C   0  0  0  0  0  0  0  0  0  0  0  0
   -0.7017    4.5786    0.0343 C   0  0  0  0  0  0  0  0  0  0  0  0
   -1.4022    3.3713    0.0408 C   0  0  0  0  0  0  0  0  0  0  0  0
   -2.4979    3.4257    0.0556 H   0  0  0  0  0  0  0  0  0  0  0  0
   -0.7034    2.1441    0.0250 C   0  0  0  0  0  0  0  0  0  0  0  0
   -2.5908    0.7118    0.1237 C   0  0  0  0  0  0  0  0  0  0  0  0
   -3.2027    1.6245    0.2307 H   0  0  0  0  0  0  0  0  0  0  0  0
   -3.3073   -0.5026    0.0612 C   0  0  0  0  0  0  0  0  0  0  0  0
   -4.7342   -0.4333    0.1009 C   0  0  0  0  0  0  0  0  0  0  0  0
   -5.1911    0.5614    0.2354 H   0  0  0  0  0  0  0  0  0  0  0  0
   -5.5498   -1.5452   -0.0439 C   0  0  0  0  0  0  0  0  0  0  0  0
   -4.8923   -2.7931   -0.2603 C   0  0  0  0  0  0  0  0  0  0  0  0
   -5.5043   -3.6963   -0.4200 H   0  0  0  0  0  0  0  0  0  0  0  0
   -3.5137   -2.9149   -0.2884 C   0  0  0  0  0  0  0  0  0  0  0  0
   -3.0830   -3.9048   -0.4806 H   0  0  0  0  0  0  0  0  0  0  0  0
   -2.6424   -1.7844   -0.0825 C   0  0  2  0  0  3  0  0  0  0  0  0
   -0.6984   -3.2055   -0.1947 C   0  0  0  0  0  0  0  0  0  0  0  0
   -1.3049   -4.0055    0.2807 H   0  0  0  0  0  0  0  0  0  0  0  0
   -0.6153   -3.4555   -1.2794 H   0  0  0  0  0  0  0  0  0  0  0  0
    0.6736   -3.1790    0.4411 C   0  0  0  0  0  0  0  0  0  0  0  0
    1.2714   -4.0289    0.0501 H   0  0  0  0  0  0  0  0  0  0  0  0
    0.5897   -3.3155    1.5456 H   0  0  0  0  0  0  0  0  0  0  0  0
    7.0285   -1.5250   -0.2395 C   0  0  0  0  0  0  0  0  0  0  0  0
    7.3903   -2.1833   -1.0583 H   0  0  0  0  0  0  0  0  0  0  0  0
    7.5407   -1.8609    0.6873 H   0  0  0  0  0  0  0  0  0  0  0  0
    7.3736   -0.4961   -0.4608 H   0  0  0  0  0  0  0  0  0  0  0  0
   -7.0535   -1.4634   -0.0026 C   0  0  0  0  0  0  0  0  0  0  0  0
   -7.4724   -2.0661    0.8316 H   0  0  0  0  0  0  0  0  0  0  0  0
   -7.5102   -1.8540   -0.9370 H   0  0  0  0  0  0  0  0  0  0  0  0
   -7.4006   -0.4202    0.1311 H   0  0  0  0  0  0  0  0  0  0  0  0
    2.2680    5.7245    0.0028 H   0  0  0  0  0  0  0  0  0  0  0  0
   -0.6759    6.4647    0.0460 H   0  0  0  0  0  0  0  0  0  0  0  0
  3 40  1  0  0  0  0
  4 18  1  0  0  0  0
  5 26  1  0  0  0  0
  7  3  1  0  0  0  0
  7  8  2  0  0  0  0
  8  9  1  0  0  0  0
 10  8  1  0  0  0  0
 10 11  1  0  0  0  0
 12 10  2  0  0  0  0
 13 15  1  0  0  0  0
 13 12  1  0  0  0  0
 14 13  1  0  0  0  0
 15  7  1  0  0  0  0
 16 15  2  0  0  0  0
 16  4  1  0  0  0  0
 17 16  1  0  0  0  0
 18 19  2  0  0  0  0
 18 25  1  0  0  0  0
 19 20  1  0  0  0  0
 19 21  1  0  0  0  0
 21  1  1  0  0  0  0
 21 22  2  0  0  0  0
 22 23  1  0  0  0  0
 22  2  1  0  0  0  0
 23 24  1  0  0  0  0
 25  5  1  0  0  0  0
 25 23  2  0  0  0  0
 26 27  1  0  0  0  0
 28 29  1  0  0  0  0
 28 26  2  0  0  0  0
 29 30  1  0  0  0  0
 31 47  1  0  0  0  0
 31 29  2  0  0  0  0
 32 31  1  0  0  0  0
 33 32  1  0  0  0  0
 34 32  2  0  0  0  0
 35 34  1  0  0  0  0
 36 34  1  1  0  0  0
 36  6  1  0  0  0  0
 36 28  1  0  0  0  0
 37  6  1  0  0  0  0
 37 38  1  0  0  0  0
 37 40  1  0  0  0  0
 39 37  1  0  0  0  0
 40 42  1  0  0  0  0
 41 40  1  0  0  0  0
 43 12  1  0  0  0  0
 43 45  1  0  0  0  0
 44 43  1  0  0  0  0
 46 43  1  0  0  0  0
 47 50  1  0  0  0  0
 47 48  1  0  0  0  0
 49 47  1  0  0  0  0
 51  1  1  0  0  0  0
 52  2  1  0  0  0  0
M  END
