3,5,6,8
 OpenBabel05122313063D

 46 46  0  0  1  0  0  0  0  0999 V2000
    3.4505   -2.6549    0.7405 O   0  0  0  0  0  0  0  0  0  0  0  0
   -3.4484   -2.6577   -0.7401 O   0  0  0  0  0  0  0  0  0  0  0  0
    1.3101   -1.8403    0.4892 N   0  0  0  0  0  2  0  0  0  0  0  0
    3.2102   -0.5591   -0.2051 N   0  0  0  0  0  0  0  0  0  0  0  0
    1.2708    0.7930   -0.1301 N   0  0  0  0  0  2  0  0  0  0  0  0
   -1.2714    0.7921    0.1300 N   0  0  0  0  0  2  0  0  0  0  0  0
   -3.2099   -0.5613    0.2045 N   0  0  0  0  0  0  0  0  0  0  0  0
   -1.3087   -1.8414   -0.4888 N   0  0  0  0  0  2  0  0  0  0  0  0
    2.6481   -1.7846    0.3762 C   0  0  0  0  0  0  0  0  0  0  0  0
    2.5460    0.6069   -0.3508 C   0  0  0  0  0  3  0  0  0  0  0  0
    0.6545    2.1033   -0.3967 C   0  0  1  0  0  0  0  0  0  0  0  0
   -0.6560    2.1028    0.3968 C   0  0  1  0  0  0  0  0  0  0  0  0
   -2.5466    0.6052    0.3502 C   0  0  0  0  0  3  0  0  0  0  0  0
   -2.6468   -1.7867   -0.3761 C   0  0  0  0  0  0  0  0  0  0  0  0
    1.4873    3.3490   -0.0802 C   0  0  0  0  0  0  0  0  0  0  0  0
    0.6692    4.6165   -0.3710 C   0  0  0  0  0  0  0  0  0  0  0  0
   -0.6724    4.6160    0.3715 C   0  0  0  0  0  0  0  0  0  0  0  0
   -1.4897    3.3480    0.0804 C   0  0  0  0  0  0  0  0  0  0  0  0
    0.8716   -3.0086    1.2570 C   0  0  0  0  0  0  0  0  0  0  0  0
    4.6375   -0.5844   -0.5143 C   0  0  0  0  0  0  0  0  0  0  0  0
   -4.6374   -0.5873    0.5128 C   0  0  0  0  0  0  0  0  0  0  0  0
   -0.8692   -3.0098   -1.2560 C   0  0  0  0  0  0  0  0  0  0  0  0
    3.1730    1.4530   -0.6889 H   0  0  0  0  0  0  0  0  0  0  0  0
    0.3732    2.1317   -1.4775 H   0  0  0  0  0  0  0  0  0  0  0  0
   -0.3747    2.1312    1.4775 H   0  0  0  0  0  0  0  0  0  0  0  0
   -3.1743    1.4509    0.6879 H   0  0  0  0  0  0  0  0  0  0  0  0
    1.7916    3.3179    0.9893 H   0  0  0  0  0  0  0  0  0  0  0  0
    2.4202    3.3677   -0.6799 H   0  0  0  0  0  0  0  0  0  0  0  0
    1.2587    5.5168   -0.1023 H   0  0  0  0  0  0  0  0  0  0  0  0
    0.4811    4.6819   -1.4656 H   0  0  0  0  0  0  0  0  0  0  0  0
   -0.4844    4.6814    1.4660 H   0  0  0  0  0  0  0  0  0  0  0  0
   -1.2626    5.5160    0.1028 H   0  0  0  0  0  0  0  0  0  0  0  0
   -2.4226    3.3659    0.6803 H   0  0  0  0  0  0  0  0  0  0  0  0
   -1.7940    3.3169   -0.9890 H   0  0  0  0  0  0  0  0  0  0  0  0
    1.0847   -3.9611    0.7259 H   0  0  0  0  0  0  0  0  0  0  0  0
    1.4125   -3.0610    2.2258 H   0  0  0  0  0  0  0  0  0  0  0  0
   -0.2131   -2.9369    1.4455 H   0  0  0  0  0  0  0  0  0  0  0  0
    4.8134   -0.5503   -1.6098 H   0  0  0  0  0  0  0  0  0  0  0  0
    5.0254   -1.5356   -0.1068 H   0  0  0  0  0  0  0  0  0  0  0  0
    5.1667    0.2625   -0.0331 H   0  0  0  0  0  0  0  0  0  0  0  0
   -5.0241   -1.5399    0.1072 H   0  0  0  0  0  0  0  0  0  0  0  0
   -5.1672    0.2579    0.0292 H   0  0  0  0  0  0  0  0  0  0  0  0
   -4.8140   -0.5507    1.6081 H   0  0  0  0  0  0  0  0  0  0  0  0
   -1.4101   -3.0632   -2.2248 H   0  0  0  0  0  0  0  0  0  0  0  0
    0.2154   -2.9374   -1.4445 H   0  0  0  0  0  0  0  0  0  0  0  0
   -1.0816   -3.9622   -0.7243 H   0  0  0  0  0  0  0  0  0  0  0  0
  2 14  2  0  0  0  0
  3 19  1  0  0  0  0
  4  9  1  0  0  0  0
  6 13  1  0  0  0  0
  6 12  1  0  0  0  0
  7 13  1  0  0  0  0
  7 21  1  0  0  0  0
  8 14  1  0  0  0  0
  9  3  1  0  0  0  0
  9  1  2  0  0  0  0
 10  4  1  0  0  0  0
 10  5  1  0  0  0  0
 11 24  1  6  0  0  0
 11  5  1  0  0  0  0
 11 15  1  0  0  0  0
 11 12  1  0  0  0  0
 12 25  1  1  0  0  0
 13 26  1  0  0  0  0
 14  7  1  0  0  0  0
 15 27  1  0  0  0  0
 16 29  1  0  0  0  0
 16 15  1  0  0  0  0
 16 17  1  0  0  0  0
 17 31  1  0  0  0  0
 18 17  1  0  0  0  0
 18 12  1  0  0  0  0
 18 33  1  0  0  0  0
 19 37  1  0  0  0  0
 19 36  1  0  0  0  0
 20  4  1  0  0  0  0
 20 39  1  0  0  0  0
 20 40  1  0  0  0  0
 21 43  1  0  0  0  0
 22 46  1  0  0  0  0
 22  8  1  0  0  0  0
 23 10  1  0  0  0  0
 28 15  1  0  0  0  0
 30 16  1  0  0  0  0
 32 17  1  0  0  0  0
 34 18  1  0  0  0  0
 35 19  1  0  0  0  0
 38 20  1  0  0  0  0
 41 21  1  0  0  0  0
 42 21  1  0  0  0  0
 44 22  1  0  0  0  0
 45 22  1  0  0  0  0
M  END
