4,5,6,7
 OpenBabel05122313063D

 52 54  0  0  1  0  0  0  0  0999 V2000
    2.8058   -3.0104   -1.1912 O   0  0  0  0  0  0  0  0  0  0  0  0
    1.8456    2.7648    2.5214 O   0  0  0  0  0  0  0  0  0  0  0  0
   -4.6092   -0.3139   -0.1998 O   0  0  0  0  0  0  0  0  0  0  0  0
   -0.4622   -1.5925    2.1046 N   0  0  0  0  0  0  0  0  0  0  0  0
    1.0335   -1.8828   -0.2125 N   0  0  0  0  0  2  0  0  0  0  0  0
    0.7715    0.9141    1.6224 N   0  0  0  0  0  2  0  0  0  0  0  0
   -2.3743   -0.4612    0.4407 N   0  0  0  0  0  2  0  0  0  0  0  0
    2.5490   -0.8783   -1.7712 N   0  0  0  0  0  0  0  0  0  0  0  0
    1.5994    2.7270    0.3042 N   0  0  0  0  0  0  0  0  0  0  0  0
   -3.1311    0.8584   -1.3909 N   0  0  0  0  0  0  0  0  0  0  0  0
    2.1298    0.0791   -1.8311 H   0  0  0  0  0  0  0  0  0  0  0  0
    1.5802    2.2325   -0.6169 H   0  0  0  0  0  0  0  0  0  0  0  0
   -2.1485    0.9501   -1.7319 H   0  0  0  0  0  0  0  0  0  0  0  0
   -0.2802   -2.9507    1.5786 C   0  0  0  0  0  0  0  0  0  0  0  0
   -1.1897   -3.1988    0.9965 H   0  0  0  0  0  0  0  0  0  0  0  0
   -0.2032   -3.7078    2.3947 H   0  0  0  0  0  0  0  0  0  0  0  0
    0.9384   -3.0554    0.6640 C   0  0  0  0  0  0  0  0  0  0  0  0
    0.8594   -3.9993    0.0829 H   0  0  0  0  0  0  0  0  0  0  0  0
    1.8701   -3.1595    1.2647 H   0  0  0  0  0  0  0  0  0  0  0  0
    2.0589   -1.8891   -1.0259 C   0  0  1  0  0  3  0  0  0  0  0  0
    3.9528   -2.6811   -2.0141 C   0  0  0  0  0  0  0  0  0  0  0  0
    4.1361   -3.5237   -2.7054 H   0  0  0  0  0  0  0  0  0  0  0  0
    4.8321   -2.5544   -1.3477 H   0  0  0  0  0  0  0  0  0  0  0  0
    3.5506   -1.3686   -2.7058 C   0  0  0  0  0  0  0  0  0  0  0  0
    4.3989   -0.6637   -2.8057 H   0  0  0  0  0  0  0  0  0  0  0  0
    3.1225   -1.5398   -3.7197 H   0  0  0  0  0  0  0  0  0  0  0  0
    0.6104   -1.1188    2.9888 C   0  0  0  0  0  0  0  0  0  0  0  0
    1.5702   -1.5146    2.6039 H   0  0  0  0  0  0  0  0  0  0  0  0
    0.4884   -1.5009    4.0295 H   0  0  0  0  0  0  0  0  0  0  0  0
    0.6840    0.4082    2.9954 C   0  0  0  0  0  0  0  0  0  0  0  0
   -0.2033    0.8413    3.5114 H   0  0  0  0  0  0  0  0  0  0  0  0
    1.5610    0.7174    3.5997 H   0  0  0  0  0  0  0  0  0  0  0  0
    1.3674    2.0664    1.4628 C   0  0  1  0  0  3  0  0  0  0  0  0
    2.3209    4.0484    2.0467 C   0  0  0  0  0  0  0  0  0  0  0  0
    3.2479    4.3011    2.5932 H   0  0  0  0  0  0  0  0  0  0  0  0
    1.5431    4.8078    2.2729 H   0  0  0  0  0  0  0  0  0  0  0  0
    2.5109    3.8406    0.5367 C   0  0  0  0  0  0  0  0  0  0  0  0
    2.2304    4.7363   -0.0517 H   0  0  0  0  0  0  0  0  0  0  0  0
    3.5603    3.5719    0.2785 H   0  0  0  0  0  0  0  0  0  0  0  0
   -1.8067   -1.3622    2.6431 C   0  0  0  0  0  0  0  0  0  0  0  0
   -1.8000   -0.3835    3.1614 H   0  0  0  0  0  0  0  0  0  0  0  0
   -2.0855   -2.1328    3.3999 H   0  0  0  0  0  0  0  0  0  0  0  0
   -2.8471   -1.3178    1.5286 C   0  0  0  0  0  0  0  0  0  0  0  0
   -3.0617   -2.3432    1.1494 H   0  0  0  0  0  0  0  0  0  0  0  0
   -3.8064   -0.9534    1.9510 H   0  0  0  0  0  0  0  0  0  0  0  0
   -3.3026    0.0121   -0.3491 C   0  0  1  0  0  3  0  0  0  0  0  0
   -5.3782    0.4707   -1.1468 C   0  0  0  0  0  0  0  0  0  0  0  0
   -5.8164    1.3355   -0.6058 H   0  0  0  0  0  0  0  0  0  0  0  0
   -6.1906   -0.1647   -1.5441 H   0  0  0  0  0  0  0  0  0  0  0  0
   -4.3420    0.9087   -2.1954 C   0  0  0  0  0  0  0  0  0  0  0  0
   -4.2996    0.2073   -3.0605 H   0  0  0  0  0  0  0  0  0  0  0  0
   -4.5451    1.9263   -2.5835 H   0  0  0  0  0  0  0  0  0  0  0  0
  1 20  1  0  0  0  0
  4 40  1  0  0  0  0
  4 27  1  0  0  0  0
  5 17  1  0  0  0  0
  6 30  1  0  0  0  0
  7 43  1  0  0  0  0
  8 20  1  0  0  0  0
  9 37  1  0  0  0  0
  9 33  1  0  0  0  0
 10 46  1  0  0  0  0
 11  8  1  0  0  0  0
 12  9  1  0  0  0  0
 13 10  1  0  0  0  0
 14  4  1  0  0  0  0
 14 16  1  0  0  0  0
 15 14  1  0  0  0  0
 17 19  1  0  0  0  0
 17 14  1  0  0  0  0
 18 17  1  0  0  0  0
 20  5  1  1  0  0  0
 21 23  1  0  0  0  0
 21  1  1  0  0  0  0
 22 21  1  0  0  0  0
 24 21  1  0  0  0  0
 24  8  1  0  0  0  0
 25 24  1  0  0  0  0
 26 24  1  0  0  0  0
 27 30  1  0  0  0  0
 27 29  1  0  0  0  0
 28 27  1  0  0  0  0
 30 31  1  0  0  0  0
 30 32  1  0  0  0  0
 33  6  1  1  0  0  0
 33  2  1  0  0  0  0
 34 36  1  0  0  0  0
 34  2  1  0  0  0  0
 34 35  1  0  0  0  0
 37 34  1  0  0  0  0
 38 37  1  0  0  0  0
 39 37  1  0  0  0  0
 40 41  1  0  0  0  0
 40 42  1  0  0  0  0
 43 45  1  0  0  0  0
 43 40  1  0  0  0  0
 44 43  1  0  0  0  0
 46  3  1  0  0  0  0
 46  7  1  6  0  0  0
 47 48  1  0  0  0  0
 47  3  1  0  0  0  0
 49 47  1  0  0  0  0
 50 10  1  0  0  0  0
 50 47  1  0  0  0  0
 51 50  1  0  0  0  0
 52 50  1  0  0  0  0
M  END
