1,2,25,26
 OpenBabel05122313063D

 48 47  0  0  0  0  0  0  0  0999 V2000
   -0.8201   -0.9701    0.9098 N   0  0  0  0  0  2  0  0  0  0  0  0
   -1.9106    0.6036   -1.0831 N   0  0  0  0  0  0  0  0  0  0  0  0
   -0.5027   -2.2126    0.5123 C   0  0  0  0  0  0  0  0  0  0  0  0
   -1.1406   -3.4493    1.0833 C   0  0  0  0  0  0  0  0  0  0  0  0
   -1.0294   -3.4925    2.1872 H   0  0  0  0  0  0  0  0  0  0  0  0
   -0.6848   -4.3667    0.6710 H   0  0  0  0  0  0  0  0  0  0  0  0
   -2.2292   -3.5006    0.8698 H   0  0  0  0  0  0  0  0  0  0  0  0
   -2.0101   -0.7867    1.7260 C   0  0  0  0  0  0  0  0  0  0  0  0
   -1.8884    0.1527    2.3009 H   0  0  0  0  0  0  0  0  0  0  0  0
   -2.1652   -1.6322    2.4280 H   0  0  0  0  0  0  0  0  0  0  0  0
   -3.2059   -0.6591    0.7725 C   0  0  0  0  0  0  0  0  0  0  0  0
   -3.3367   -1.6083    0.2079 H   0  0  0  0  0  0  0  0  0  0  0  0
   -4.1370   -0.5193    1.3616 H   0  0  0  0  0  0  0  0  0  0  0  0
   -3.0977    0.5316   -0.1730 C   0  0  0  0  0  0  0  0  0  0  0  0
   -4.0086    0.5651   -0.8162 H   0  0  0  0  0  0  0  0  0  0  0  0
   -3.0607    1.4596    0.4284 H   0  0  0  0  0  0  0  0  0  0  0  0
   -2.0497    1.8906   -1.8068 C   0  0  0  0  0  0  0  0  0  0  0  0
   -1.2549    1.9801   -2.5642 H   0  0  0  0  0  0  0  0  0  0  0  0
   -1.9300    2.7173   -1.0839 H   0  0  0  0  0  0  0  0  0  0  0  0
   -3.0539    1.9353   -2.2877 H   0  0  0  0  0  0  0  0  0  0  0  0
   -1.9376   -0.4906   -2.0705 C   0  0  0  0  0  0  0  0  0  0  0  0
   -1.0865   -0.3665   -2.7635 H   0  0  0  0  0  0  0  0  0  0  0  0
   -2.8893   -0.4708   -2.6508 H   0  0  0  0  0  0  0  0  0  0  0  0
   -1.8438   -1.4720   -1.5719 H   0  0  0  0  0  0  0  0  0  0  0  0
    0.8199   -0.9702   -0.9097 N   0  0  0  0  0  2  0  0  0  0  0  0
    1.9108    0.6036    1.0831 N   0  0  0  0  0  0  0  0  0  0  0  0
    0.5025   -2.2126   -0.5121 C   0  0  0  0  0  0  0  0  0  0  0  0
    1.1403   -3.4494   -1.0832 C   0  0  0  0  0  0  0  0  0  0  0  0
    1.0280   -3.4932   -2.1870 H   0  0  0  0  0  0  0  0  0  0  0  0
    0.6852   -4.3667   -0.6701 H   0  0  0  0  0  0  0  0  0  0  0  0
    2.2291   -3.5002   -0.8708 H   0  0  0  0  0  0  0  0  0  0  0  0
    2.0099   -0.7870   -1.7261 C   0  0  0  0  0  0  0  0  0  0  0  0
    1.8883    0.1523   -2.3011 H   0  0  0  0  0  0  0  0  0  0  0  0
    2.1649   -1.6326   -2.4279 H   0  0  0  0  0  0  0  0  0  0  0  0
    3.2058   -0.6595   -0.7726 C   0  0  0  0  0  0  0  0  0  0  0  0
    3.3365   -1.6087   -0.2080 H   0  0  0  0  0  0  0  0  0  0  0  0
    4.1369   -0.5198   -1.3618 H   0  0  0  0  0  0  0  0  0  0  0  0
    3.0978    0.5313    0.1729 C   0  0  0  0  0  0  0  0  0  0  0  0
    4.0087    0.5646    0.8161 H   0  0  0  0  0  0  0  0  0  0  0  0
    3.0609    1.4593   -0.4286 H   0  0  0  0  0  0  0  0  0  0  0  0
    2.0502    1.8906    1.8067 C   0  0  0  0  0  0  0  0  0  0  0  0
    1.2554    1.9802    2.5641 H   0  0  0  0  0  0  0  0  0  0  0  0
    1.9305    2.7172    1.0837 H   0  0  0  0  0  0  0  0  0  0  0  0
    3.0544    1.9352    2.2875 H   0  0  0  0  0  0  0  0  0  0  0  0
    1.9377   -0.4906    2.0705 C   0  0  0  0  0  0  0  0  0  0  0  0
    1.0866   -0.3663    2.7636 H   0  0  0  0  0  0  0  0  0  0  0  0
    2.8894   -0.4708    2.6509 H   0  0  0  0  0  0  0  0  0  0  0  0
    1.8437   -1.4720    1.5721 H   0  0  0  0  0  0  0  0  0  0  0  0
  1  8  1  0  0  0  0
  2 14  1  0  0  0  0
  3  1  1  0  0  0  0
  3  4  1  0  0  0  0
  4  5  1  0  0  0  0
  6  4  1  0  0  0  0
  7  4  1  0  0  0  0
  8  9  1  0  0  0  0
  8 10  1  0  0  0  0
 11 13  1  0  0  0  0
 11  8  1  0  0  0  0
 12 11  1  0  0  0  0
 14 16  1  0  0  0  0
 14 11  1  0  0  0  0
 15 14  1  0  0  0  0
 17 19  1  0  0  0  0
 17  2  1  0  0  0  0
 18 17  1  0  0  0  0
 20 17  1  0  0  0  0
 21 24  1  0  0  0  0
 21  2  1  0  0  0  0
 22 21  1  0  0  0  0
 23 21  1  0  0  0  0
 25 27  1  0  0  0  0
 26 41  1  0  0  0  0
 26 45  1  0  0  0  0
 27  3  2  0  0  0  0
 28 31  1  0  0  0  0
 28 30  1  0  0  0  0
 28 27  1  0  0  0  0
 29 28  1  0  0  0  0
 32 25  1  0  0  0  0
 32 35  1  0  0  0  0
 33 32  1  0  0  0  0
 34 32  1  0  0  0  0
 35 36  1  0  0  0  0
 35 38  1  0  0  0  0
 37 35  1  0  0  0  0
 38 39  1  0  0  0  0
 38 26  1  0  0  0  0
 40 38  1  0  0  0  0
 41 44  1  0  0  0  0
 41 42  1  0  0  0  0
 43 41  1  0  0  0  0
 45 47  1  0  0  0  0
 45 46  1  0  0  0  0
 48 45  1  0  0  0  0
M  END
