4,5,6,7
 OpenBabel05122313063D

 69 76  0  0  0  0  0  0  0  0999 V2000
    8.0091   -1.7731    0.8389 F   0  0  0  0  0  0  0  0  0  0  0  0
    8.1221   -0.8771   -1.1531 F   0  0  0  0  0  0  0  0  0  0  0  0
    8.1439    0.3914    0.6192 F   0  0  0  0  0  0  0  0  0  0  0  0
   -3.2529   -1.1455    0.0319 N   0  0  0  0  0  0  0  0  0  0  0  0
   -0.3690   -1.4434   -0.0194 N   0  0  0  0  0  2  0  0  0  0  0  0
   -0.0631    1.4669   -0.0561 N   0  0  0  0  0  0  0  0  0  0  0  0
   -2.9456    1.7760    0.0239 N   0  0  0  0  0  0  0  0  0  0  0  0
   -4.5844   -0.7909    0.0174 C   0  0  0  0  0  0  0  0  0  0  0  0
   -5.4129   -1.9788   -0.0187 C   0  0  0  0  0  0  0  0  0  0  0  0
   -6.5094   -1.9819   -0.0425 H   0  0  0  0  0  0  0  0  0  0  0  0
   -4.5606   -3.0562   -0.0349 C   0  0  0  0  0  0  0  0  0  0  0  0
   -4.8179   -4.1194   -0.0817 H   0  0  0  0  0  0  0  0  0  0  0  0
   -3.2081   -2.5227    0.0033 C   0  0  0  0  0  0  0  0  0  0  0  0
   -2.0287   -3.3046   -0.0207 C   0  0  0  0  0  0  0  0  0  0  0  0
   -0.7123   -2.7809   -0.0312 C   0  0  0  0  0  0  0  0  0  0  0  0
    0.4909   -3.5927   -0.0364 C   0  0  0  0  0  0  0  0  0  0  0  0
    0.5154   -4.6871   -0.0327 H   0  0  0  0  0  0  0  0  0  0  0  0
    1.5572   -2.7275   -0.0433 C   0  0  0  0  0  0  0  0  0  0  0  0
    2.6222   -2.9797   -0.0654 H   0  0  0  0  0  0  0  0  0  0  0  0
    1.0093   -1.3833   -0.0201 C   0  0  0  0  0  0  0  0  0  0  0  0
    1.7863   -0.1994   -0.0112 C   0  0  0  0  0  0  0  0  0  0  0  0
    1.2714    1.1200   -0.0089 C   0  0  0  0  0  0  0  0  0  0  0  0
    2.0855    2.3181    0.0873 C   0  0  0  0  0  0  0  0  0  0  0  0
    3.1770    2.3395    0.1698 H   0  0  0  0  0  0  0  0  0  0  0  0
    1.2231    3.3867    0.0883 C   0  0  0  0  0  0  0  0  0  0  0  0
    1.4723    4.4494    0.1714 H   0  0  0  0  0  0  0  0  0  0  0  0
   -0.1205    2.8457   -0.0069 C   0  0  0  0  0  0  0  0  0  0  0  0
   -1.2987    3.6334   -0.0105 C   0  0  0  0  0  0  0  0  0  0  0  0
   -2.6155    3.1138   -0.0090 C   0  0  0  0  0  0  0  0  0  0  0  0
   -3.8275    3.9159   -0.0628 C   0  0  0  0  0  0  0  0  0  0  0  0
   -3.8589    5.0089   -0.1194 H   0  0  0  0  0  0  0  0  0  0  0  0
   -4.8851    3.0390   -0.0467 C   0  0  0  0  0  0  0  0  0  0  0  0
   -5.9568    3.2696   -0.0788 H   0  0  0  0  0  0  0  0  0  0  0  0
   -4.3216    1.7055    0.0041 C   0  0  0  0  0  3  0  0  0  0  0  0
   -5.0750    0.5227    0.0127 C   0  0  0  0  0  0  0  0  0  0  0  0
   -6.1688    0.6378   -0.0020 H   0  0  0  0  0  0  0  0  0  0  0  0
   -2.1856   -4.7908   -0.0430 C   0  0  0  0  0  0  0  0  0  0  0  0
   -1.7890   -5.5416   -1.1709 C   0  0  0  0  0  0  0  0  0  0  0  0
   -1.3667   -5.0166   -2.0410 H   0  0  0  0  0  0  0  0  0  0  0  0
   -1.9404   -6.9358   -1.1920 C   0  0  0  0  0  0  0  0  0  0  0  0
   -1.6311   -7.5046   -2.0822 H   0  0  0  0  0  0  0  0  0  0  0  0
   -2.4902   -7.6033   -0.0860 C   0  0  0  0  0  0  0  0  0  0  0  0
   -2.6084   -8.6973   -0.1026 H   0  0  0  0  0  0  0  0  0  0  0  0
   -2.8885   -6.8673    1.0413 C   0  0  0  0  0  0  0  0  0  0  0  0
   -3.3156   -7.3833    1.9148 H   0  0  0  0  0  0  0  0  0  0  0  0
   -2.7382   -5.4729    1.0626 C   0  0  0  0  0  0  0  0  0  0  0  0
   -3.0423   -4.8959    1.9490 H   0  0  0  0  0  0  0  0  0  0  0  0
   -1.1387    5.1185   -0.0086 C   0  0  0  0  0  0  0  0  0  0  0  0
   -0.5290    5.7792   -1.0975 C   0  0  0  0  0  0  0  0  0  0  0  0
   -0.1803    5.1849   -1.9555 H   0  0  0  0  0  0  0  0  0  0  0  0
   -0.3796    7.1737   -1.0965 C   0  0  0  0  0  0  0  0  0  0  0  0
    0.0921    7.6723   -1.9570 H   0  0  0  0  0  0  0  0  0  0  0  0
   -0.8352    7.9319   -0.0062 C   0  0  0  0  0  0  0  0  0  0  0  0
   -0.7169    9.0261   -0.0052 H   0  0  0  0  0  0  0  0  0  0  0  0
   -1.4419    7.2865    1.0830 C   0  0  0  0  0  0  0  0  0  0  0  0
   -1.7956    7.8727    1.9449 H   0  0  0  0  0  0  0  0  0  0  0  0
   -1.5933    5.8922    1.0818 C   0  0  0  0  0  0  0  0  0  0  0  0
   -2.0592    5.3845    1.9398 H   0  0  0  0  0  0  0  0  0  0  0  0
    3.2725   -0.3516    0.0078 C   0  0  0  0  0  0  0  0  0  0  0  0
    3.9266   -0.9338    1.1151 C   0  0  0  0  0  0  0  0  0  0  0  0
    3.3280   -1.2728    1.9734 H   0  0  0  0  0  0  0  0  0  0  0  0
    5.3194   -1.0740    1.1345 C   0  0  0  0  0  0  0  0  0  0  0  0
    5.8188   -1.5299    2.0015 H   0  0  0  0  0  0  0  0  0  0  0  0
    6.0853   -0.6327    0.0418 C   0  0  0  0  0  0  0  0  0  0  0  0
    5.4480   -0.0543   -1.0695 C   0  0  0  0  0  0  0  0  0  0  0  0
    6.0468    0.2754   -1.9307 H   0  0  0  0  0  0  0  0  0  0  0  0
    4.0551    0.0846   -1.0832 C   0  0  0  0  0  0  0  0  0  0  0  0
    3.5552    0.5278   -1.9571 H   0  0  0  0  0  0  0  0  0  0  0  0
    7.5910   -0.7280    0.0846 C   0  0  0  0  0  0  0  0  0  0  0  0
  2 69  1  0  0  0  0
  6 22  2  0  0  0  0
  6 27  1  0  0  0  0
  8  4  1  0  0  0  0
  9  8  1  0  0  0  0
 10  9  1  0  0  0  0
 11  9  2  0  0  0  0
 11 13  1  0  0  0  0
 12 11  1  0  0  0  0
 13  4  2  0  0  0  0
 14 13  1  0  0  0  0
 15 14  2  0  0  0  0
 15  5  1  0  0  0  0
 16 17  1  0  0  0  0
 16 15  1  0  0  0  0
 18 16  2  0  0  0  0
 18 20  1  0  0  0  0
 19 18  1  0  0  0  0
 20  5  1  0  0  0  0
 20 21  2  0  0  0  0
 21 22  1  0  0  0  0
 21 59  1  0  0  0  0
 22 23  1  0  0  0  0
 23 25  2  0  0  0  0
 23 24  1  0  0  0  0
 25 26  1  0  0  0  0
 27 25  1  0  0  0  0
 28 29  1  0  0  0  0
 28 48  1  0  0  0  0
 28 27  2  0  0  0  0
 29  7  2  0  0  0  0
 30 32  2  0  0  0  0
 30 29  1  0  0  0  0
 31 30  1  0  0  0  0
 32 34  1  0  0  0  0
 33 32  1  0  0  0  0
 34 35  1  0  0  0  0
 34  7  1  0  0  0  0
 35  8  2  0  0  0  0
 36 35  1  0  0  0  0
 37 14  1  0  0  0  0
 37 46  1  0  0  0  0
 38 37  2  0  0  0  0
 39 38  1  0  0  0  0
 40 38  1  0  0  0  0
 40 42  2  0  0  0  0
 41 40  1  0  0  0  0
 42 44  1  0  0  0  0
 43 42  1  0  0  0  0
 44 46  2  0  0  0  0
 44 45  1  0  0  0  0
 46 47  1  0  0  0  0
 48 57  1  0  0  0  0
 49 51  1  0  0  0  0
 49 48  2  0  0  0  0
 50 49  1  0  0  0  0
 51 53  2  0  0  0  0
 52 51  1  0  0  0  0
 53 54  1  0  0  0  0
 53 55  1  0  0  0  0
 55 56  1  0  0  0  0
 57 55  2  0  0  0  0
 57 58  1  0  0  0  0
 59 60  1  0  0  0  0
 60 62  2  0  0  0  0
 60 61  1  0  0  0  0
 62 63  1  0  0  0  0
 64 69  1  0  0  0  0
 64 62  1  0  0  0  0
 65 64  2  0  0  0  0
 66 65  1  0  0  0  0
 67 65  1  0  0  0  0
 67 59  2  0  0  0  0
 68 67  1  0  0  0  0
 69  3  1  0  0  0  0
 69  1  1  0  0  0  0
M  END
