5,6,7,8
 OpenBabel05122313063D

 61 62  0  0  1  0  0  0  0  0999 V2000
    3.1711    3.3464   -0.6617 O   0  0  0  0  0  0  0  0  0  0  0  0
    5.0586    2.6554    0.3975 O   0  0  0  0  0  0  0  0  0  0  0  0
   -5.2059    1.4796    0.3711 O   0  0  0  0  0  0  0  0  0  0  0  0
   -3.5032    2.4741    1.5131 O   0  0  0  0  0  0  0  0  0  0  0  0
    1.6813   -0.5211    0.0508 N   0  0  0  0  0  2  0  0  0  0  0  0
    1.7718   -3.0565    0.2920 N   0  0  0  0  0  2  0  0  0  0  0  0
   -0.8230   -3.1992   -0.7655 N   0  0  0  0  0  2  0  0  0  0  0  0
   -1.2293   -0.8075   -0.0219 N   0  0  0  0  0  0  0  0  0  0  0  0
    2.8062    5.5279   -1.5621 C   0  0  0  0  0  0  0  0  0  0  0  0
    3.2457    6.5338   -1.7136 H   0  0  0  0  0  0  0  0  0  0  0  0
    2.5497    5.1094   -2.5559 H   0  0  0  0  0  0  0  0  0  0  0  0
    1.8671    5.6442   -0.9850 H   0  0  0  0  0  0  0  0  0  0  0  0
    3.7876    4.6335   -0.8311 C   0  0  0  0  0  0  0  0  0  0  0  0
    4.7403    4.5114   -1.3904 H   0  0  0  0  0  0  0  0  0  0  0  0
    4.0624    5.0404    0.1659 H   0  0  0  0  0  0  0  0  0  0  0  0
    3.9283    2.4105   -0.0098 C   0  0  0  0  0  0  0  0  0  0  0  0
    3.2389    1.1264    0.1330 C   0  0  0  0  0  0  0  0  0  0  0  0
    1.9175    0.7601   -0.3090 C   0  0  1  0  0  3  0  0  0  0  0  0
    2.8367   -1.0221    0.6597 C   0  0  0  0  0  0  0  0  0  0  0  0
    3.8228   -0.0139    0.7540 C   0  0  0  0  0  0  0  0  0  0  0  0
    0.9585    1.5741   -1.1106 C   0  0  0  0  0  0  0  0  0  0  0  0
    1.4384    1.8966   -2.0562 H   0  0  0  0  0  0  0  0  0  0  0  0
    0.6773    2.5069   -0.5846 H   0  0  0  0  0  0  0  0  0  0  0  0
    0.0516    0.9880   -1.3397 H   0  0  0  0  0  0  0  0  0  0  0  0
    5.1902   -0.1404    1.3412 C   0  0  0  0  0  0  0  0  0  0  0  0
    5.9696    0.1396    0.6045 H   0  0  0  0  0  0  0  0  0  0  0  0
    5.3866   -1.1674    1.7067 H   0  0  0  0  0  0  0  0  0  0  0  0
    5.3241    0.5664    2.1854 H   0  0  0  0  0  0  0  0  0  0  0  0
    2.8410   -2.4295    0.7611 C   0  0  0  0  0  0  0  0  0  0  0  0
    3.7055   -2.9987    1.1492 H   0  0  0  0  0  0  0  0  0  0  0  0
    1.7866   -4.5070    0.1798 C   0  0  0  0  0  0  0  0  0  0  0  0
    2.3209   -4.7913   -0.7584 H   0  0  0  0  0  0  0  0  0  0  0  0
    2.3701   -4.9434    1.0212 H   0  0  0  0  0  0  0  0  0  0  0  0
    0.3928   -5.1253    0.1387 C   0  0  0  0  0  0  0  0  0  0  0  0
   -0.1420   -4.9440    1.0951 H   0  0  0  0  0  0  0  0  0  0  0  0
    0.5014   -6.2233    0.0224 H   0  0  0  0  0  0  0  0  0  0  0  0
   -0.4443   -4.5741   -1.0173 C   0  0  0  0  0  0  0  0  0  0  0  0
    0.1483   -4.6419   -1.9606 H   0  0  0  0  0  0  0  0  0  0  0  0
   -1.3568   -5.1934   -1.1632 H   0  0  0  0  0  0  0  0  0  0  0  0
   -2.0391   -2.7577   -1.0415 C   0  0  0  0  0  3  0  0  0  0  0  0
   -2.7953   -3.4259   -1.4924 H   0  0  0  0  0  0  0  0  0  0  0  0
   -2.3125   -1.4263   -0.6586 C   0  0  0  0  0  0  0  0  0  0  0  0
   -3.4902   -0.6615   -0.4989 C   0  0  0  0  0  0  0  0  0  0  0  0
   -3.0950    0.4460    0.3051 C   0  0  0  0  0  0  0  0  0  0  0  0
   -1.6930    0.2999    0.5990 C   0  0  0  0  0  3  0  0  0  0  0  0
   -4.8429   -0.9993   -1.0390 C   0  0  0  0  0  0  0  0  0  0  0  0
   -5.2111   -0.2023   -1.7164 H   0  0  0  0  0  0  0  0  0  0  0  0
   -5.5941   -1.0711   -0.2271 H   0  0  0  0  0  0  0  0  0  0  0  0
   -4.8310   -1.9544   -1.5997 H   0  0  0  0  0  0  0  0  0  0  0  0
   -0.8832    1.1597    1.5076 C   0  0  0  0  0  0  0  0  0  0  0  0
   -1.3808    1.2277    2.4954 H   0  0  0  0  0  0  0  0  0  0  0  0
   -0.8345    2.2035    1.1398 H   0  0  0  0  0  0  0  0  0  0  0  0
    0.1363    0.7550    1.6281 H   0  0  0  0  0  0  0  0  0  0  0  0
   -3.9039    1.5609    0.7992 C   0  0  0  0  0  0  0  0  0  0  0  0
   -6.0739    2.5488    0.7891 C   0  0  0  0  0  0  0  0  0  0  0  0
   -7.0924    2.1123    0.7641 H   0  0  0  0  0  0  0  0  0  0  0  0
   -5.8230    2.8298    1.8324 H   0  0  0  0  0  0  0  0  0  0  0  0
   -5.9639    3.7561   -0.1300 C   0  0  0  0  0  0  0  0  0  0  0  0
   -6.6998    4.5314    0.1654 H   0  0  0  0  0  0  0  0  0  0  0  0
   -4.9513    4.1989   -0.0639 H   0  0  0  0  0  0  0  0  0  0  0  0
   -6.1621    3.4732   -1.1834 H   0  0  0  0  0  0  0  0  0  0  0  0
  1 16  1  0  0  0  0
  3 55  1  0  0  0  0
  3 54  1  0  0  0  0
  5 19  1  0  0  0  0
  6 29  1  0  0  0  0
  8 45  1  0  0  0  0
  9 12  1  0  0  0  0
  9 13  1  0  0  0  0
 10  9  1  0  0  0  0
 11  9  1  0  0  0  0
 13  1  1  0  0  0  0
 13 15  1  0  0  0  0
 14 13  1  0  0  0  0
 16 17  1  0  0  0  0
 16  2  2  0  0  0  0
 17 20  2  0  0  0  0
 18 21  1  6  0  0  0
 18  5  1  0  0  0  0
 18 17  1  0  0  0  0
 19 20  1  0  0  0  0
 19 29  2  0  0  0  0
 20 25  1  0  0  0  0
 21 23  1  0  0  0  0
 22 21  1  0  0  0  0
 24 21  1  0  0  0  0
 25 27  1  0  0  0  0
 25 28  1  0  0  0  0
 26 25  1  0  0  0  0
 29 30  1  0  0  0  0
 31  6  1  0  0  0  0
 31 33  1  0  0  0  0
 32 31  1  0  0  0  0
 34 31  1  0  0  0  0
 34 35  1  0  0  0  0
 36 34  1  0  0  0  0
 37  7  1  0  0  0  0
 37 34  1  0  0  0  0
 38 37  1  0  0  0  0
 39 37  1  0  0  0  0
 40  7  1  0  0  0  0
 40 42  1  0  0  0  0
 41 40  1  0  0  0  0
 42 43  1  0  0  0  0
 42  8  2  0  0  0  0
 43 44  2  0  0  0  0
 44 45  1  0  0  0  0
 44 54  1  0  0  0  0
 45 50  1  0  0  0  0
 46 43  1  0  0  0  0
 46 48  1  0  0  0  0
 47 46  1  0  0  0  0
 49 46  1  0  0  0  0
 50 53  1  0  0  0  0
 50 51  1  0  0  0  0
 52 50  1  0  0  0  0
 54  4  2  0  0  0  0
 55 57  1  0  0  0  0
 56 55  1  0  0  0  0
 58 60  1  0  0  0  0
 58 59  1  0  0  0  0
 58 55  1  0  0  0  0
 61 58  1  0  0  0  0
M  END
