1,2,3,4
 OpenBabel05122313063D

 39 40  0  0  1  0  0  0  0  0999 V2000
   -0.3049    2.6456    0.3761 N   0  0  0  0  0  2  0  0  0  0  0  0
   -1.7197    0.4060    1.3265 N   0  0  0  0  0  2  0  0  0  0  0  0
    0.5046   -0.6681    2.0052 N   0  0  0  0  0  2  0  0  0  0  0  0
    1.9348    1.3761    0.3320 N   0  0  0  0  0  2  0  0  0  0  0  0
   -1.6845    4.6472   -0.1681 C   0  0  0  0  0  0  0  0  0  0  0  0
   -2.7517    4.9266   -0.2344 H   0  0  0  0  0  0  0  0  0  0  0  0
   -1.2146    4.8737   -1.1508 H   0  0  0  0  0  0  0  0  0  0  0  0
   -1.2055    5.3274    0.5696 H   0  0  0  0  0  0  0  0  0  0  0  0
   -1.5365    3.1952    0.2253 C   0  0  0  0  0  0  0  0  0  0  0  0
   -2.7056    2.4396    0.4510 C   0  0  0  0  0  0  0  0  0  0  0  0
   -3.6568    2.9524    0.2486 H   0  0  0  0  0  0  0  0  0  0  0  0
   -2.8144    1.1385    0.9746 C   0  0  2  0  0  3  0  0  0  0  0  0
   -4.1881    0.5599    1.1975 C   0  0  0  0  0  0  0  0  0  0  0  0
   -4.3091   -0.3991    0.6498 H   0  0  0  0  0  0  0  0  0  0  0  0
   -4.3743    0.3478    2.2728 H   0  0  0  0  0  0  0  0  0  0  0  0
   -4.9709    1.2562    0.8457 H   0  0  0  0  0  0  0  0  0  0  0  0
    0.8401    3.5169    0.1206 C   0  0  0  0  0  0  0  0  0  0  0  0
    0.9349    4.2902    0.9197 H   0  0  0  0  0  0  0  0  0  0  0  0
    0.7372    4.0892   -0.8309 H   0  0  0  0  0  0  0  0  0  0  0  0
    2.1016    2.7096    0.0450 C   0  0  2  0  0  3  0  0  0  0  0  0
    3.3324    3.2510   -0.3379 C   0  0  0  0  0  0  0  0  0  0  0  0
    3.3986    4.3299   -0.5451 H   0  0  0  0  0  0  0  0  0  0  0  0
    4.4550    2.4186   -0.4691 C   0  0  0  0  0  0  0  0  0  0  0  0
    5.4314    2.8258   -0.7678 H   0  0  0  0  0  0  0  0  0  0  0  0
    4.2758    1.0441   -0.2362 C   0  0  0  0  0  0  0  0  0  0  0  0
    5.1006    0.3280   -0.3623 H   0  0  0  0  0  0  0  0  0  0  0  0
    3.0247    0.5665    0.1489 C   0  0  0  0  0  0  0  0  0  0  0  0
    2.8545   -0.5070    0.2951 H   0  0  0  0  0  0  0  0  0  0  0  0
   -1.8451   -0.8147    1.9341 C   0  0  0  0  0  0  0  0  0  0  0  0
   -2.8206   -1.2754    2.1326 H   0  0  0  0  0  0  0  0  0  0  0  0
   -0.6432   -1.4124    2.3399 C   0  0  0  0  0  0  0  0  0  0  0  0
   -0.5222   -2.6537    3.0347 C   0  0  0  0  0  0  0  0  0  0  0  0
   -1.4333   -3.2450    3.2121 H   0  0  0  0  0  0  0  0  0  0  0  0
    0.7153   -3.0827    3.4870 C   0  0  0  0  0  0  0  0  0  0  0  0
    0.8144   -4.0335    4.0321 H   0  0  0  0  0  0  0  0  0  0  0  0
    1.8510   -2.2568    3.2577 C   0  0  0  0  0  0  0  0  0  0  0  0
    2.8419   -2.5183    3.6542 H   0  0  0  0  0  0  0  0  0  0  0  0
    1.6915   -1.0883    2.5222 C   0  0  0  0  0  0  0  0  0  0  0  0
    2.5562   -0.4367    2.3301 H   0  0  0  0  0  0  0  0  0  0  0  0
  2 29  1  0  0  0  0
  3 31  1  0  0  0  0
  3 38  1  0  0  0  0
  5  9  1  0  0  0  0
  5  8  1  0  0  0  0
  6  5  1  0  0  0  0
  7  5  1  0  0  0  0
  9  1  1  0  0  0  0
  9 10  2  0  0  0  0
 11 10  1  0  0  0  0
 12 10  1  1  0  0  0
 12 13  1  0  0  0  0
 12  2  1  0  0  0  0
 13 15  1  0  0  0  0
 14 13  1  0  0  0  0
 16 13  1  0  0  0  0
 17  1  1  0  0  0  0
 17 18  1  0  0  0  0
 19 17  1  0  0  0  0
 20 17  1  6  0  0  0
 20  4  1  0  0  0  0
 21 20  1  0  0  0  0
 22 21  1  0  0  0  0
 23 21  2  0  0  0  0
 23 25  1  0  0  0  0
 24 23  1  0  0  0  0
 25 27  2  0  0  0  0
 26 25  1  0  0  0  0
 27 28  1  0  0  0  0
 27  4  1  0  0  0  0
 29 30  1  0  0  0  0
 29 31  2  0  0  0  0
 31 32  1  0  0  0  0
 32 33  1  0  0  0  0
 32 34  2  0  0  0  0
 34 35  1  0  0  0  0
 36 34  1  0  0  0  0
 36 37  1  0  0  0  0
 38 36  2  0  0  0  0
 39 38  1  0  0  0  0
M  END
