2,3,4,5
 OpenBabel05122313063D

 49 52  0  0  1  0  0  0  0  0999 V2000
    0.1633   -0.0001   -1.5631 N   0  0  0  0  0  0  0  0  0  0  0  0
   -1.5018    1.4627    0.1784 N   0  0  0  0  0  2  0  0  0  0  0  0
   -1.5018   -1.4630    0.1784 N   0  0  0  0  0  2  0  0  0  0  0  0
    1.5501   -1.4262    0.3818 N   0  0  0  0  0  2  0  0  0  0  0  0
    1.5500    1.4262    0.3818 N   0  0  0  0  0  2  0  0  0  0  0  0
   -0.4800    1.2277   -2.0356 C   0  0  0  0  0  0  0  0  0  0  0  0
   -1.6069    1.7219   -1.1384 C   0  0  2  0  0  3  0  0  0  0  0  0
   -2.6727    2.4807   -1.6479 C   0  0  0  0  0  0  0  0  0  0  0  0
   -3.6293    2.9893   -0.7572 C   0  0  0  0  0  0  0  0  0  0  0  0
   -3.4995    2.7209    0.6137 C   0  0  0  0  0  0  0  0  0  0  0  0
   -2.4180    1.9407    1.0408 C   0  0  0  0  0  0  0  0  0  0  0  0
   -0.4798   -1.2279   -2.0355 C   0  0  0  0  0  0  0  0  0  0  0  0
   -1.6069   -1.7220   -1.1385 C   0  0  1  0  0  3  0  0  0  0  0  0
   -2.6729   -2.4806   -1.6481 C   0  0  0  0  0  0  0  0  0  0  0  0
   -3.6296   -2.9890   -0.7575 C   0  0  0  0  0  0  0  0  0  0  0  0
   -3.4998   -2.7208    0.6134 C   0  0  0  0  0  0  0  0  0  0  0  0
   -2.4181   -1.9408    1.0406 C   0  0  0  0  0  0  0  0  0  0  0  0
    1.6377    0.0000   -1.5736 C   0  0  2  0  0  0  0  0  0  0  0  0
    2.1487   -1.2244   -0.8088 C   0  0  1  0  0  3  0  0  0  0  0  0
    3.1998   -2.0364   -1.2535 C   0  0  0  0  0  0  0  0  0  0  0  0
    3.6297   -3.0849   -0.4227 C   0  0  0  0  0  0  0  0  0  0  0  0
    3.0044   -3.2806    0.8171 C   0  0  0  0  0  0  0  0  0  0  0  0
    1.9594   -2.4197    1.1852 C   0  0  0  0  0  0  0  0  0  0  0  0
    2.1485    1.2245   -0.8088 C   0  0  2  0  0  3  0  0  0  0  0  0
    3.1995    2.0367   -1.2536 C   0  0  0  0  0  0  0  0  0  0  0  0
    3.6292    3.0853   -0.4228 C   0  0  0  0  0  0  0  0  0  0  0  0
    3.0039    3.2809    0.8171 C   0  0  0  0  0  0  0  0  0  0  0  0
    1.9591    2.4198    1.1852 C   0  0  0  0  0  0  0  0  0  0  0  0
    2.0753    0.0000   -2.5989 H   0  0  0  0  0  0  0  0  0  0  0  0
    3.6711    1.8536   -2.2304 H   0  0  0  0  0  0  0  0  0  0  0  0
    0.2833    2.0338   -2.0737 H   0  0  0  0  0  0  0  0  0  0  0  0
   -0.8568    1.1157   -3.0773 H   0  0  0  0  0  0  0  0  0  0  0  0
   -0.8564   -1.1161   -3.0773 H   0  0  0  0  0  0  0  0  0  0  0  0
    0.2835   -2.0340   -2.0733 H   0  0  0  0  0  0  0  0  0  0  0  0
   -2.7490    2.6721   -2.7288 H   0  0  0  0  0  0  0  0  0  0  0  0
   -4.4734    3.5869   -1.1330 H   0  0  0  0  0  0  0  0  0  0  0  0
   -4.2288    3.1005    1.3433 H   0  0  0  0  0  0  0  0  0  0  0  0
   -2.2536    1.6642    2.0976 H   0  0  0  0  0  0  0  0  0  0  0  0
   -2.7491   -2.6718   -2.7291 H   0  0  0  0  0  0  0  0  0  0  0  0
   -4.4738   -3.5864   -1.1334 H   0  0  0  0  0  0  0  0  0  0  0  0
   -4.2292   -3.1003    1.3430 H   0  0  0  0  0  0  0  0  0  0  0  0
   -2.2537   -1.6645    2.0975 H   0  0  0  0  0  0  0  0  0  0  0  0
    3.6714   -1.8532   -2.2303 H   0  0  0  0  0  0  0  0  0  0  0  0
    4.4504   -3.7437   -0.7438 H   0  0  0  0  0  0  0  0  0  0  0  0
    3.3199   -4.0870    1.4942 H   0  0  0  0  0  0  0  0  0  0  0  0
    1.4306   -2.5032    2.1498 H   0  0  0  0  0  0  0  0  0  0  0  0
    4.4498    3.7442   -0.7439 H   0  0  0  0  0  0  0  0  0  0  0  0
    3.3193    4.0874    1.4942 H   0  0  0  0  0  0  0  0  0  0  0  0
    1.4303    2.5032    2.1498 H   0  0  0  0  0  0  0  0  0  0  0  0
  2 11  1  0  0  0  0
  3 17  1  0  0  0  0
  4 23  1  0  0  0  0
  5 28  1  0  0  0  0
  6  1  1  0  0  0  0
  7  6  1  1  0  0  0
  7  2  1  0  0  0  0
  8  7  1  0  0  0  0
  8  9  2  0  0  0  0
  9 10  1  0  0  0  0
 10 11  2  0  0  0  0
 10 37  1  0  0  0  0
 11 38  1  0  0  0  0
 12  1  1  0  0  0  0
 13 12  1  1  0  0  0
 13  3  1  0  0  0  0
 14 13  1  0  0  0  0
 14 15  2  0  0  0  0
 15 16  1  0  0  0  0
 16 17  2  0  0  0  0
 16 41  1  0  0  0  0
 17 42  1  0  0  0  0
 18 29  1  6  0  0  0
 18  1  1  0  0  0  0
 19 18  1  1  0  0  0
 19  4  1  0  0  0  0
 20 19  1  0  0  0  0
 20 21  2  0  0  0  0
 21 22  1  0  0  0  0
 22 23  2  0  0  0  0
 22 45  1  0  0  0  0
 23 46  1  0  0  0  0
 24 18  1  1  0  0  0
 24  5  1  0  0  0  0
 25 24  1  0  0  0  0
 25 26  2  0  0  0  0
 26 27  1  0  0  0  0
 27 28  2  0  0  0  0
 27 48  1  0  0  0  0
 28 49  1  0  0  0  0
 30 25  1  0  0  0  0
 31  6  1  0  0  0  0
 32  6  1  0  0  0  0
 33 12  1  0  0  0  0
 34 12  1  0  0  0  0
 35  8  1  0  0  0  0
 36  9  1  0  0  0  0
 39 14  1  0  0  0  0
 40 15  1  0  0  0  0
 43 20  1  0  0  0  0
 44 21  1  0  0  0  0
 47 26  1  0  0  0  0
M  END
