2,3,4,5
 OpenBabel05122313063D

 70 77  0  0  0  0  0  0  0  0999 V2000
    1.6000    5.1023   -0.6977 O   0  0  0  0  0  0  0  0  0  0  0  0
    1.4120    0.3237   -0.6041 N   0  0  0  0  0  2  0  0  0  0  0  0
   -1.3239    0.1802   -0.6329 N   0  0  0  0  0  0  0  0  0  0  0  0
   -1.2329   -2.0875    0.8992 N   0  0  0  0  0  0  0  0  0  0  0  0
    1.5216   -1.9261    0.9428 N   0  0  0  0  0  0  0  0  0  0  0  0
   -1.6115    4.3489    0.6221 N   0  0  0  0  0  0  0  0  0  0  0  0
    2.7633    0.0752   -0.7993 C   0  0  0  0  0  0  0  0  0  0  0  0
    3.3843    1.1895   -1.4787 C   0  0  0  0  0  0  0  0  0  0  0  0
    4.4347    1.2317   -1.7827 H   0  0  0  0  0  0  0  0  0  0  0  0
    2.4236    2.1568   -1.6156 C   0  0  0  0  0  0  0  0  0  0  0  0
    2.5371    3.1636   -2.0293 H   0  0  0  0  0  0  0  0  0  0  0  0
    1.1917    1.5989   -1.1018 C   0  0  0  0  0  0  0  0  0  0  0  0
   -0.0597    2.2227   -1.2393 C   0  0  0  0  0  0  0  0  0  0  0  0
   -1.2482    1.4956   -1.0722 C   0  0  0  0  0  0  0  0  0  0  0  0
   -2.5500    1.9472   -1.5107 C   0  0  0  0  0  0  0  0  0  0  0  0
   -2.7877    2.9520   -1.8704 H   0  0  0  0  0  0  0  0  0  0  0  0
   -3.4022    0.8812   -1.4003 C   0  0  0  0  0  0  0  0  0  0  0  0
   -4.4692    0.8346   -1.6404 H   0  0  0  0  0  0  0  0  0  0  0  0
   -2.6407   -0.2046   -0.8254 C   0  0  0  0  0  0  0  0  0  0  0  0
   -3.2317   -1.3974   -0.3770 C   0  0  0  0  0  0  0  0  0  0  0  0
   -2.5513   -2.2500    0.5044 C   0  0  0  0  0  0  0  0  0  0  0  0
   -3.1673   -3.3364    1.2369 C   0  0  0  0  0  0  0  0  0  0  0  0
   -4.1910   -3.6921    1.0841 H   0  0  0  0  0  0  0  0  0  0  0  0
   -2.2350   -3.7808    2.1396 C   0  0  0  0  0  0  0  0  0  0  0  0
   -2.3259   -4.5857    2.8785 H   0  0  0  0  0  0  0  0  0  0  0  0
   -1.0302   -3.0245    1.8971 C   0  0  0  0  0  3  0  0  0  0  0  0
    0.1985   -3.3198    2.4798 C   0  0  0  0  0  0  0  0  0  0  0  0
    0.2296   -4.0707    3.2810 H   0  0  0  0  0  0  0  0  0  0  0  0
    1.4031   -2.8417    1.9751 C   0  0  0  0  0  0  0  0  0  0  0  0
    2.6955   -3.3746    2.3349 C   0  0  0  0  0  0  0  0  0  0  0  0
    2.8658   -4.1079    3.1320 H   0  0  0  0  0  0  0  0  0  0  0  0
    3.6040   -2.8204    1.4698 C   0  0  0  0  0  0  0  0  0  0  0  0
    4.6860   -2.9797    1.4174 H   0  0  0  0  0  0  0  0  0  0  0  0
    2.8677   -1.9044    0.6239 C   0  0  0  0  0  0  0  0  0  0  0  0
    3.4744   -1.0164   -0.2777 C   0  0  0  0  0  0  0  0  0  0  0  0
   -0.0965    3.6768   -1.6729 C   0  0  0  0  0  0  0  0  0  0  0  0
   -1.1379    3.9937   -1.8464 H   0  0  0  0  0  0  0  0  0  0  0  0
    0.4882    3.8413   -2.5970 H   0  0  0  0  0  0  0  0  0  0  0  0
    0.4965    4.5814   -0.5919 C   0  0  0  0  0  0  0  0  0  0  0  0
   -0.3375    4.7857    0.6482 C   0  0  0  0  0  0  0  0  0  0  0  0
    0.2390    5.4196    1.7665 C   0  0  0  0  0  0  0  0  0  0  0  0
    1.2841    5.7551    1.7031 H   0  0  0  0  0  0  0  0  0  0  0  0
   -0.5465    5.5893    2.9122 C   0  0  0  0  0  0  0  0  0  0  0  0
   -0.1333    6.0730    3.8105 H   0  0  0  0  0  0  0  0  0  0  0  0
   -1.8713    5.1262    2.8937 C   0  0  0  0  0  0  0  0  0  0  0  0
   -2.5248    5.2339    3.7723 H   0  0  0  0  0  0  0  0  0  0  0  0
   -2.3555    4.5168    1.7219 C   0  0  0  0  0  0  0  0  0  0  0  0
   -3.3943    4.1447    1.6730 H   0  0  0  0  0  0  0  0  0  0  0  0
   -4.6463   -1.6781   -0.7556 C   0  0  0  0  0  0  0  0  0  0  0  0
   -4.9773   -1.9254   -2.1057 C   0  0  0  0  0  0  0  0  0  0  0  0
   -4.1759   -1.9243   -2.8598 H   0  0  0  0  0  0  0  0  0  0  0  0
   -6.3045   -2.1766   -2.4830 C   0  0  0  0  0  0  0  0  0  0  0  0
   -6.5434   -2.3737   -3.5393 H   0  0  0  0  0  0  0  0  0  0  0  0
   -7.3241   -2.1806   -1.5179 C   0  0  0  0  0  0  0  0  0  0  0  0
   -8.3657   -2.3772   -1.8140 H   0  0  0  0  0  0  0  0  0  0  0  0
   -7.0084   -1.9273   -0.1735 C   0  0  0  0  0  0  0  0  0  0  0  0
   -7.8038   -1.9164    0.5875 H   0  0  0  0  0  0  0  0  0  0  0  0
   -5.6812   -1.6766    0.2049 C   0  0  0  0  0  0  0  0  0  0  0  0
   -5.4366   -1.4584    1.2552 H   0  0  0  0  0  0  0  0  0  0  0  0
    4.9276   -1.1816   -0.5697 C   0  0  0  0  0  0  0  0  0  0  0  0
    5.3770   -2.3150   -1.2813 C   0  0  0  0  0  0  0  0  0  0  0  0
    4.6390   -3.0531   -1.6298 H   0  0  0  0  0  0  0  0  0  0  0  0
    6.7417   -2.4970   -1.5490 C   0  0  0  0  0  0  0  0  0  0  0  0
    7.0740   -3.3832   -2.1110 H   0  0  0  0  0  0  0  0  0  0  0  0
    7.6801   -1.5516   -1.1056 C   0  0  0  0  0  0  0  0  0  0  0  0
    8.7510   -1.6946   -1.3152 H   0  0  0  0  0  0  0  0  0  0  0  0
    7.2456   -0.4251   -0.3891 C   0  0  0  0  0  0  0  0  0  0  0  0
    7.9761    0.3148   -0.0279 H   0  0  0  0  0  0  0  0  0  0  0  0
    5.8810   -0.2416   -0.1218 C   0  0  0  0  0  0  0  0  0  0  0  0
    5.5421    0.6316    0.4556 H   0  0  0  0  0  0  0  0  0  0  0  0
  1 39  2  0  0  0  0
  4 26  1  0  0  0  0
  5 29  1  0  0  0  0
  6 40  2  0  0  0  0
  6 47  1  0  0  0  0
  7  2  1  0  0  0  0
  7 35  2  0  0  0  0
  8  7  1  0  0  0  0
  9  8  1  0  0  0  0
 10  8  2  0  0  0  0
 10 12  1  0  0  0  0
 11 10  1  0  0  0  0
 12  2  1  0  0  0  0
 13 12  2  0  0  0  0
 13 14  1  0  0  0  0
 14  3  2  0  0  0  0
 15 17  2  0  0  0  0
 15 14  1  0  0  0  0
 16 15  1  0  0  0  0
 17 19  1  0  0  0  0
 18 17  1  0  0  0  0
 19  3  1  0  0  0  0
 19 20  2  0  0  0  0
 20 21  1  0  0  0  0
 21  4  2  0  0  0  0
 21 22  1  0  0  0  0
 22 24  2  0  0  0  0
 23 22  1  0  0  0  0
 24 25  1  0  0  0  0
 26 24  1  0  0  0  0
 26 27  1  0  0  0  0
 27 28  1  0  0  0  0
 29 30  1  0  0  0  0
 29 27  2  0  0  0  0
 30 31  1  0  0  0  0
 32 30  2  0  0  0  0
 33 32  1  0  0  0  0
 34  5  2  0  0  0  0
 34 32  1  0  0  0  0
 35 34  1  0  0  0  0
 36 13  1  0  0  0  0
 36 39  1  0  0  0  0
 37 36  1  0  0  0  0
 38 36  1  0  0  0  0
 39 40  1  0  0  0  0
 40 41  1  0  0  0  0
 41 43  2  0  0  0  0
 42 41  1  0  0  0  0
 43 44  1  0  0  0  0
 45 43  1  0  0  0  0
 45 46  1  0  0  0  0
 47 45  2  0  0  0  0
 48 47  1  0  0  0  0
 49 20  1  0  0  0  0
 49 58  1  0  0  0  0
 50 49  2  0  0  0  0
 51 50  1  0  0  0  0
 52 50  1  0  0  0  0
 52 54  2  0  0  0  0
 53 52  1  0  0  0  0
 54 56  1  0  0  0  0
 55 54  1  0  0  0  0
 56 58  2  0  0  0  0
 56 57  1  0  0  0  0
 58 59  1  0  0  0  0
 60 35  1  0  0  0  0
 60 69  1  0  0  0  0
 61 60  2  0  0  0  0
 62 61  1  0  0  0  0
 63 61  1  0  0  0  0
 63 65  2  0  0  0  0
 64 63  1  0  0  0  0
 65 67  1  0  0  0  0
 66 65  1  0  0  0  0
 67 69  2  0  0  0  0
 67 68  1  0  0  0  0
 69 70  1  0  0  0  0
M  END
