1,2,3,4
 OpenBabel05122313063D

 40 41  0  0  1  0  0  0  0  0999 V2000
    1.2737   -1.4183    0.2756 N   0  0  0  0  0  2  0  0  0  0  0  0
    1.4342    0.9681   -0.5054 N   0  0  0  0  0  2  0  0  0  0  0  0
   -1.4194    1.2288    0.1838 N   0  0  0  0  0  2  0  0  0  0  0  0
   -1.4885   -1.3054   -0.1127 N   0  0  0  0  0  0  0  0  0  0  0  0
    1.3703   -2.6403    0.8529 C   0  0  0  0  0  3  0  0  0  0  0  0
    0.4821   -3.1834    1.1960 H   0  0  0  0  0  0  0  0  0  0  0  0
    2.7310   -3.0303    0.9242 C   0  0  0  0  0  0  0  0  0  0  0  0
    3.1067   -3.9752    1.3345 H   0  0  0  0  0  0  0  0  0  0  0  0
    3.4916   -1.9804    0.3727 C   0  0  0  0  0  0  0  0  0  0  0  0
    4.5832   -1.9299    0.2796 H   0  0  0  0  0  0  0  0  0  0  0  0
    2.5603   -0.9841   -0.0115 C   0  0  0  0  0  0  0  0  0  0  0  0
    2.6152    0.3559   -0.4915 C   0  0  0  0  0  0  0  0  0  0  0  0
    3.8967    0.9888   -0.9555 C   0  0  0  0  0  0  0  0  0  0  0  0
    4.0766    1.9666   -0.4650 H   0  0  0  0  0  0  0  0  0  0  0  0
    3.8791    1.1678   -2.0513 H   0  0  0  0  0  0  0  0  0  0  0  0
    4.7539    0.3268   -0.7379 H   0  0  0  0  0  0  0  0  0  0  0  0
    1.2692    2.3149   -1.0154 C   0  0  0  0  0  0  0  0  0  0  0  0
    0.3391    2.3342   -1.6225 H   0  0  0  0  0  0  0  0  0  0  0  0
    2.0960    2.5942   -1.7023 H   0  0  0  0  0  0  0  0  0  0  0  0
    1.1623    3.3394    0.1206 C   0  0  0  0  0  0  0  0  0  0  0  0
    0.9075    4.3277   -0.3215 H   0  0  0  0  0  0  0  0  0  0  0  0
    2.1533    3.4578    0.6091 H   0  0  0  0  0  0  0  0  0  0  0  0
    0.1205    2.9537    1.1747 C   0  0  0  0  0  0  0  0  0  0  0  0
    0.4741    2.0802    1.7618 H   0  0  0  0  0  0  0  0  0  0  0  0
    0.0130    3.7921    1.8935 H   0  0  0  0  0  0  0  0  0  0  0  0
   -1.2631    2.6222    0.6069 C   0  0  0  0  0  0  0  0  0  0  0  0
   -2.0208    2.8470    1.3887 H   0  0  0  0  0  0  0  0  0  0  0  0
   -1.4950    3.3142   -0.2397 H   0  0  0  0  0  0  0  0  0  0  0  0
   -2.6542    0.7350    0.0809 C   0  0  2  0  0  3  0  0  0  0  0  0
   -3.8934    1.5717    0.2154 C   0  0  0  0  0  0  0  0  0  0  0  0
   -3.8666    2.4530   -0.4575 H   0  0  0  0  0  0  0  0  0  0  0  0
   -3.9996    1.9615    1.2505 H   0  0  0  0  0  0  0  0  0  0  0  0
   -4.7948    0.9765   -0.0148 H   0  0  0  0  0  0  0  0  0  0  0  0
   -2.7211   -0.6695   -0.1359 C   0  0  0  0  0  3  0  0  0  0  0  0
   -3.7322   -1.6074   -0.4635 C   0  0  0  0  0  0  0  0  0  0  0  0
   -4.8057   -1.4075   -0.5645 H   0  0  0  0  0  0  0  0  0  0  0  0
   -3.0722   -2.8358   -0.6592 C   0  0  0  0  0  0  0  0  0  0  0  0
   -3.5271   -3.7971   -0.9261 H   0  0  0  0  0  0  0  0  0  0  0  0
   -1.6905   -2.6033   -0.4455 C   0  0  0  0  0  0  0  0  0  0  0  0
   -0.8573   -3.3106   -0.5267 H   0  0  0  0  0  0  0  0  0  0  0  0
  1  5  1  0  0  0  0
  2 12  1  0  0  0  0
  3 26  1  0  0  0  0
  5  7  1  0  0  0  0
  5  6  1  0  0  0  0
  7  8  1  0  0  0  0
  9  7  2  0  0  0  0
 10  9  1  0  0  0  0
 11  1  1  0  0  0  0
 11  9  1  0  0  0  0
 12 11  2  0  0  0  0
 13 16  1  0  0  0  0
 13 12  1  0  0  0  0
 13 14  1  0  0  0  0
 15 13  1  0  0  0  0
 17  2  1  0  0  0  0
 17 20  1  0  0  0  0
 18 17  1  0  0  0  0
 19 17  1  0  0  0  0
 20 22  1  0  0  0  0
 20 23  1  0  0  0  0
 21 20  1  0  0  0  0
 23 24  1  0  0  0  0
 23 25  1  0  0  0  0
 26 23  1  0  0  0  0
 26 27  1  0  0  0  0
 28 26  1  0  0  0  0
 29  3  1  1  0  0  0
 29 30  1  0  0  0  0
 30 32  1  0  0  0  0
 31 30  1  0  0  0  0
 33 30  1  0  0  0  0
 34  4  1  0  0  0  0
 34 29  1  0  0  0  0
 35 34  1  0  0  0  0
 36 35  1  0  0  0  0
 37 35  2  0  0  0  0
 37 39  1  0  0  0  0
 38 37  1  0  0  0  0
 39  4  2  0  0  0  0
 40 39  1  0  0  0  0
M  END
