1,2,3,4
 OpenBabel05122313063D

 41 43  0  0  1  0  0  0  0  0999 V2000
    2.1029   -1.0428   -0.0245 N   0  0  0  0  0  2  0  0  0  0  0  0
    1.2360    1.2928   -0.5211 N   0  0  0  0  0  2  0  0  0  0  0  0
   -1.2361    1.2928   -0.5211 N   0  0  0  0  0  2  0  0  0  0  0  0
   -2.1029   -1.0428   -0.0239 N   0  0  0  0  0  2  0  0  0  0  0  0
    2.3789   -2.3506    0.1511 C   0  0  0  0  0  3  0  0  0  0  0  0
    1.5165   -3.0331    0.1262 H   0  0  0  0  0  0  0  0  0  0  0  0
    3.6821   -2.8146    0.3367 C   0  0  0  0  0  0  0  0  0  0  0  0
    3.8677   -3.8890    0.4755 H   0  0  0  0  0  0  0  0  0  0  0  0
    4.7357   -1.8835    0.3381 C   0  0  0  0  0  0  0  0  0  0  0  0
    5.7753   -2.2153    0.4800 H   0  0  0  0  0  0  0  0  0  0  0  0
    4.4432   -0.5296    0.1497 C   0  0  0  0  0  0  0  0  0  0  0  0
    5.2372    0.2315    0.1374 H   0  0  0  0  0  0  0  0  0  0  0  0
    3.1027   -0.1439   -0.0310 C   0  0  0  0  0  0  0  0  0  0  0  0
    2.6489    1.2659   -0.2461 C   0  0  0  0  0  0  0  0  0  0  0  0
    2.9079    1.8725    0.6611 H   0  0  0  0  0  0  0  0  0  0  0  0
    3.2434    1.7231   -1.0786 H   0  0  0  0  0  0  0  0  0  0  0  0
    0.7455    2.5893   -0.8531 C   0  0  1  0  0  0  0  0  0  0  0  0
    1.3097    3.1402   -1.6328 H   0  0  0  0  0  0  0  0  0  0  0  0
   -0.7455    2.5893   -0.8531 C   0  0  2  0  0  0  0  0  0  0  0  0
   -1.3099    3.1402   -1.6328 H   0  0  0  0  0  0  0  0  0  0  0  0
   -2.6491    1.2658   -0.2467 C   0  0  0  0  0  0  0  0  0  0  0  0
   -3.2433    1.7224   -1.0798 H   0  0  0  0  0  0  0  0  0  0  0  0
   -2.9087    1.8727    0.6600 H   0  0  0  0  0  0  0  0  0  0  0  0
   -3.1028   -0.1440   -0.0311 C   0  0  1  0  0  3  0  0  0  0  0  0
   -4.4433   -0.5298    0.1493 C   0  0  0  0  0  0  0  0  0  0  0  0
   -5.2374    0.2312    0.1364 H   0  0  0  0  0  0  0  0  0  0  0  0
   -4.7356   -1.8837    0.3382 C   0  0  0  0  0  0  0  0  0  0  0  0
   -5.7752   -2.2156    0.4800 H   0  0  0  0  0  0  0  0  0  0  0  0
   -3.6819   -2.8146    0.3376 C   0  0  0  0  0  0  0  0  0  0  0  0
   -3.8674   -3.8890    0.4770 H   0  0  0  0  0  0  0  0  0  0  0  0
   -2.3787   -2.3505    0.1522 C   0  0  0  0  0  0  0  0  0  0  0  0
   -1.5162   -3.0329    0.1281 H   0  0  0  0  0  0  0  0  0  0  0  0
   -0.0001    3.4427    0.1957 C   0  0  0  0  0  0  0  0  0  0  0  0
   -0.0001    4.9367   -0.0550 C   0  0  0  0  0  0  0  0  0  0  0  0
    0.8963    5.4170    0.3932 H   0  0  0  0  0  0  0  0  0  0  0  0
   -0.8965    5.4170    0.3932 H   0  0  0  0  0  0  0  0  0  0  0  0
   -0.0001    5.1744   -1.1388 H   0  0  0  0  0  0  0  0  0  0  0  0
   -0.0001    3.0307    1.6490 C   0  0  0  0  0  0  0  0  0  0  0  0
   -0.8942    3.4344    2.1708 H   0  0  0  0  0  0  0  0  0  0  0  0
    0.8940    3.4344    2.1708 H   0  0  0  0  0  0  0  0  0  0  0  0
   -0.0001    1.9309    1.7715 H   0  0  0  0  0  0  0  0  0  0  0  0
  1  5  1  0  0  0  0
  2 14  1  0  0  0  0
  3 21  1  0  0  0  0
  4 31  1  0  0  0  0
  5  7  1  0  0  0  0
  6  5  1  0  0  0  0
  7  9  2  0  0  0  0
  7  8  1  0  0  0  0
  9 10  1  0  0  0  0
 11  9  1  0  0  0  0
 12 11  1  0  0  0  0
 13  1  1  0  0  0  0
 13 11  2  0  0  0  0
 14 13  1  0  0  0  0
 14 15  1  0  0  0  0
 16 14  1  0  0  0  0
 17 18  1  6  0  0  0
 17  2  1  0  0  0  0
 17 33  1  0  0  0  0
 19 20  1  6  0  0  0
 19 17  1  0  0  0  0
 19  3  1  0  0  0  0
 19 33  1  0  0  0  0
 21 23  1  0  0  0  0
 22 21  1  0  0  0  0
 24 21  1  6  0  0  0
 24  4  1  0  0  0  0
 24 25  1  0  0  0  0
 25 27  2  0  0  0  0
 26 25  1  0  0  0  0
 27 28  1  0  0  0  0
 29 27  1  0  0  0  0
 29 30  1  0  0  0  0
 31 29  2  0  0  0  0
 32 31  1  0  0  0  0
 33 38  1  0  0  0  0
 34 33  1  0  0  0  0
 34 35  1  0  0  0  0
 34 36  1  0  0  0  0
 37 34  1  0  0  0  0
 38 41  1  0  0  0  0
 38 39  1  0  0  0  0
 38 40  1  0  0  0  0
M  END
