1,2,3,4
 OpenBabel05122313063D

 80 85  0  0  0  0  0  0  0  0999 V2000
    1.1652    1.7781   -0.1937 N   0  0  0  0  0  2  0  0  0  0  0  0
    2.5036   -0.6102    0.3620 N   0  0  0  0  0  0  0  0  0  0  0  0
    0.2937   -1.9589   -0.2715 N   0  0  0  0  0  0  0  0  0  0  0  0
   -1.0667    0.3566   -0.9178 N   0  0  0  0  0  0  0  0  0  0  0  0
    0.5039    2.8376   -0.7767 C   0  0  0  0  0  0  0  0  0  0  0  0
    1.1012    4.1015   -0.3459 C   0  0  0  0  0  0  0  0  0  0  0  0
    0.6683    5.5000   -0.6693 C   0  0  0  0  0  0  0  0  0  0  0  0
    2.1369    3.7731    0.5128 C   0  0  0  0  0  0  0  0  0  0  0  0
    3.0962    4.6975    1.2039 C   0  0  0  0  0  0  0  0  0  0  0  0
    4.3157    5.0649    0.3413 C   0  0  0  0  0  0  0  0  0  0  0  0
    2.1983    2.3276    0.5510 C   0  0  0  0  0  0  0  0  0  0  0  0
    3.2540    1.6085    1.0963 C   0  0  0  0  0  0  0  0  0  0  0  0
    3.4354    0.2352    0.9248 C   0  0  0  0  0  0  0  0  0  0  0  0
    4.6561   -0.4782    1.2542 C   0  0  0  0  0  0  0  0  0  0  0  0
    5.8692    0.1469    1.8668 C   0  0  0  0  0  0  0  0  0  0  0  0
    4.4597   -1.7900    0.8617 C   0  0  0  0  0  0  0  0  0  0  0  0
    5.4258   -2.9368    0.9177 C   0  0  0  0  0  0  0  0  0  0  0  0
    6.0785   -3.2492   -0.4395 C   0  0  0  0  0  0  0  0  0  0  0  0
    3.1031   -1.8654    0.3439 C   0  0  0  0  0  0  0  0  0  0  0  0
    2.4509   -3.0595    0.0368 C   0  0  0  0  0  0  0  0  0  0  0  0
    1.0806   -3.1186   -0.2010 C   0  0  0  0  0  3  0  0  0  0  0  0
    0.2573   -4.3129   -0.2894 C   0  0  0  0  0  0  0  0  0  0  0  0
    0.7333   -5.7287   -0.2658 C   0  0  0  0  0  0  0  0  0  0  0  0
   -1.0530   -3.8357   -0.3779 C   0  0  0  0  0  0  0  0  0  0  0  0
   -2.4666   -4.2116   -0.5409 C   0  0  0  0  0  0  0  0  0  0  0  0
   -3.2603   -2.8565   -0.6482 C   0  0  0  0  0  0  0  0  0  0  0  0
   -0.9666   -2.4122   -0.3748 C   0  0  0  0  0  0  0  0  0  0  0  0
   -2.1967   -1.7743   -0.5951 C   0  0  0  0  0  0  0  0  0  0  0  0
   -2.2142   -0.4297   -0.8910 C   0  0  0  0  0  0  0  0  0  0  0  0
   -3.4136    0.3670   -1.3490 C   0  0  0  0  0  0  0  0  0  0  0  0
   -4.1251    1.0864   -0.1859 C   0  0  0  0  0  0  0  0  0  0  0  0
   -4.7203    0.1455    0.8556 C   0  0  0  0  0  0  0  0  0  0  0  0
   -5.4397    0.8824    1.9673 C   0  0  0  0  0  0  0  0  0  0  0  0
   -6.6137    0.6072    3.9922 C   0  0  0  0  0  0  0  0  0  0  0  0
   -2.7204    1.3660   -2.2966 C   0  0  0  0  0  0  0  0  0  0  0  0
   -2.5642    0.8069   -3.7202 C   0  0  0  0  0  0  0  0  0  0  0  0
   -1.3694    1.5106   -1.6025 C   0  0  0  0  0  0  0  0  0  0  0  0
   -0.6268    2.6876   -1.6222 C   0  0  0  0  0  0  0  0  0  0  0  0
   -1.0943    3.8258   -2.5033 C   0  0  0  0  0  0  0  0  0  0  0  0
   -2.9790   -5.3206   -0.5958 O   0  0  0  0  0  0  0  0  0  0  0  0
   -5.5881    2.0879    2.0417 O   0  0  0  0  0  0  0  0  0  0  0  0
   -5.9129    0.0115    2.8944 O   0  0  0  0  0  0  0  0  0  0  0  0
    1.1791    6.2202   -0.0009 H   0  0  0  0  0  0  0  0  0  0  0  0
    0.9124    5.7981   -1.7103 H   0  0  0  0  0  0  0  0  0  0  0  0
   -0.4224    5.6456   -0.5408 H   0  0  0  0  0  0  0  0  0  0  0  0
    3.4365    4.2398    2.1564 H   0  0  0  0  0  0  0  0  0  0  0  0
    2.5623    5.6265    1.4971 H   0  0  0  0  0  0  0  0  0  0  0  0
    5.0040    5.7450    0.8834 H   0  0  0  0  0  0  0  0  0  0  0  0
    4.8848    4.1587    0.0505 H   0  0  0  0  0  0  0  0  0  0  0  0
    4.0014    5.5691   -0.5949 H   0  0  0  0  0  0  0  0  0  0  0  0
    4.0463    2.1688    1.6102 H   0  0  0  0  0  0  0  0  0  0  0  0
    6.6450   -0.6107    2.0890 H   0  0  0  0  0  0  0  0  0  0  0  0
    6.3279    0.9028    1.1941 H   0  0  0  0  0  0  0  0  0  0  0  0
    5.6289    0.6675    2.8177 H   0  0  0  0  0  0  0  0  0  0  0  0
    4.9102   -3.8453    1.2975 H   0  0  0  0  0  0  0  0  0  0  0  0
    6.2158   -2.7108    1.6640 H   0  0  0  0  0  0  0  0  0  0  0  0
    6.7829   -4.1022   -0.3611 H   0  0  0  0  0  0  0  0  0  0  0  0
    5.3147   -3.5043   -1.2017 H   0  0  0  0  0  0  0  0  0  0  0  0
    6.6406   -2.3723   -0.8191 H   0  0  0  0  0  0  0  0  0  0  0  0
    3.0202   -3.9977    0.0828 H   0  0  0  0  0  0  0  0  0  0  0  0
   -0.1231   -6.4178   -0.3871 H   0  0  0  0  0  0  0  0  0  0  0  0
    1.4644   -5.9315   -1.0765 H   0  0  0  0  0  0  0  0  0  0  0  0
    1.2398   -5.9744    0.6919 H   0  0  0  0  0  0  0  0  0  0  0  0
   -3.9960   -2.8072    0.1834 H   0  0  0  0  0  0  0  0  0  0  0  0
   -3.8523   -2.8556   -1.5886 H   0  0  0  0  0  0  0  0  0  0  0  0
   -4.1382   -0.2831   -1.8828 H   0  0  0  0  0  0  0  0  0  0  0  0
   -4.9270    1.7325   -0.6003 H   0  0  0  0  0  0  0  0  0  0  0  0
   -3.4100    1.7761    0.3101 H   0  0  0  0  0  0  0  0  0  0  0  0
   -3.9389   -0.4931    1.3198 H   0  0  0  0  0  0  0  0  0  0  0  0
   -5.4424   -0.5667    0.3993 H   0  0  0  0  0  0  0  0  0  0  0  0
   -6.9292   -0.2265    4.6445 H   0  0  0  0  0  0  0  0  0  0  0  0
   -5.9568    1.3058    4.5491 H   0  0  0  0  0  0  0  0  0  0  0  0
   -7.4972    1.1758    3.6373 H   0  0  0  0  0  0  0  0  0  0  0  0
   -3.2672    2.3288   -2.3259 H   0  0  0  0  0  0  0  0  0  0  0  0
   -1.9741    1.4880   -4.3647 H   0  0  0  0  0  0  0  0  0  0  0  0
   -2.0408   -0.1705   -3.6985 H   0  0  0  0  0  0  0  0  0  0  0  0
   -3.5560    0.6571   -4.1935 H   0  0  0  0  0  0  0  0  0  0  0  0
   -0.2427    4.4160   -2.8851 H   0  0  0  0  0  0  0  0  0  0  0  0
   -1.6398    3.4466   -3.3864 H   0  0  0  0  0  0  0  0  0  0  0  0
   -1.7761    4.5290   -1.9792 H   0  0  0  0  0  0  0  0  0  0  0  0
  1 11  1  0  0  0  0
  2 13  2  0  0  0  0
  3 21  1  0  0  0  0
  4 29  1  0  0  0  0
  5  6  1  0  0  0  0
  5  1  1  0  0  0  0
  6  8  2  0  0  0  0
  7 45  1  0  0  0  0
  7  6  1  0  0  0  0
  7 43  1  0  0  0  0
  8 11  1  0  0  0  0
  8  9  1  0  0  0  0
  9 47  1  0  0  0  0
  9 46  1  0  0  0  0
 10 48  1  0  0  0  0
 10  9  1  0  0  0  0
 11 12  2  0  0  0  0
 12 51  1  0  0  0  0
 13 12  1  0  0  0  0
 13 14  1  0  0  0  0
 14 15  1  0  0  0  0
 15 52  1  0  0  0  0
 15 54  1  0  0  0  0
 16 17  1  0  0  0  0
 16 14  2  0  0  0  0
 17 55  1  0  0  0  0
 17 56  1  0  0  0  0
 18 57  1  0  0  0  0
 18 17  1  0  0  0  0
 19  2  1  0  0  0  0
 19 16  1  0  0  0  0
 20 60  1  0  0  0  0
 20 19  2  0  0  0  0
 21 20  1  0  0  0  0
 22 23  1  0  0  0  0
 22 21  1  0  0  0  0
 23 63  1  0  0  0  0
 24 27  1  0  0  0  0
 24 22  2  0  0  0  0
 25 24  1  0  0  0  0
 26 28  1  0  0  0  0
 26 25  1  0  0  0  0
 26 64  1  0  0  0  0
 27  3  2  0  0  0  0
 28 27  1  0  0  0  0
 29 28  2  0  0  0  0
 30 29  1  0  0  0  0
 30 31  1  0  0  0  0
 31 68  1  0  0  0  0
 31 32  1  0  0  0  0
 32 69  1  0  0  0  0
 32 33  1  0  0  0  0
 33 41  2  0  0  0  0
 33 42  1  0  0  0  0
 34 72  1  0  0  0  0
 34 71  1  0  0  0  0
 35 37  1  0  0  0  0
 35 30  2  0  0  0  0
 36 76  1  0  0  0  0
 36 35  1  0  0  0  0
 37  4  2  0  0  0  0
 38 37  1  0  0  0  0
 38  5  2  0  0  0  0
 39 80  1  0  0  0  0
 39 38  1  0  0  0  0
 40 25  2  0  0  0  0
 42 34  1  0  0  0  0
 44  7  1  0  0  0  0
 49 10  1  0  0  0  0
 50 10  1  0  0  0  0
 53 15  1  0  0  0  0
 58 18  1  0  0  0  0
 59 18  1  0  0  0  0
 61 23  1  0  0  0  0
 62 23  1  0  0  0  0
 65 26  1  0  0  0  0
 66 30  1  0  0  0  0
 67 31  1  0  0  0  0
 70 32  1  0  0  0  0
 73 34  1  0  0  0  0
 74 35  1  0  0  0  0
 75 36  1  0  0  0  0
 77 36  1  0  0  0  0
 78 39  1  0  0  0  0
 79 39  1  0  0  0  0
M  END
