1,2,41,42
 OpenBabel05122313063D

 80 82  0  0  1  0  0  0  0  0999 V2000
    0.4845    0.4689    1.8050 N   0  0  0  0  0  0  0  0  0  0  0  0
    1.0418    1.4075   -0.8057 N   0  0  0  0  0  2  0  0  0  0  0  0
    1.9120    3.5539   -0.7520 O   0  0  0  0  0  0  0  0  0  0  0  0
    2.9463    1.1604    1.4414 O   0  0  0  0  0  0  0  0  0  0  0  0
   -0.5358   -0.0804    2.7078 C   0  0  0  0  0  0  0  0  0  0  0  0
    0.8253    1.8651    2.1086 C   0  0  0  0  0  0  0  0  0  0  0  0
    2.0459    2.2765    1.2875 C   0  0  2  0  0  0  0  0  0  0  0  0
    1.6324    2.4698   -0.2025 C   0  0  0  0  0  0  0  0  0  0  0  0
    0.8607    1.5087   -2.2816 C   0  0  0  0  0  0  0  0  0  0  0  0
    2.6637    3.5585    1.8375 C   0  0  0  0  0  0  0  0  0  0  0  0
    4.0768    1.1110    0.5785 C   0  0  0  0  0  0  0  0  0  0  0  0
    4.3607   -0.3216    0.1874 C   0  0  0  0  0  0  0  0  0  0  0  0
    3.2998   -1.1803   -0.1655 C   0  0  0  0  0  0  0  0  0  0  0  0
    3.5495   -2.5039   -0.5524 C   0  0  0  0  0  0  0  0  0  0  0  0
    4.8678   -2.9872   -0.6058 C   0  0  0  0  0  0  0  0  0  0  0  0
    5.9305   -2.1377   -0.2614 C   0  0  0  0  0  0  0  0  0  0  0  0
    5.6766   -0.8158    0.1393 C   0  0  0  0  0  0  0  0  0  0  0  0
   -0.2942    2.4730   -2.6184 C   0  0  0  0  0  0  0  0  0  0  0  0
    2.1436    1.9114   -3.0361 C   0  0  0  0  0  0  0  0  0  0  0  0
    1.3794   -0.0439    1.9180 H   0  0  0  0  0  0  0  0  0  0  0  0
   -1.4434    0.5505    2.6151 H   0  0  0  0  0  0  0  0  0  0  0  0
   -0.1888   -0.0358    3.7647 H   0  0  0  0  0  0  0  0  0  0  0  0
    1.0475    1.9546    3.1971 H   0  0  0  0  0  0  0  0  0  0  0  0
   -0.0359    2.5231    1.8778 H   0  0  0  0  0  0  0  0  0  0  0  0
    3.0400    3.3803    2.8640 H   0  0  0  0  0  0  0  0  0  0  0  0
    3.4893    3.8976    1.1858 H   0  0  0  0  0  0  0  0  0  0  0  0
    1.9189    4.3772    1.8534 H   0  0  0  0  0  0  0  0  0  0  0  0
    4.9686    1.5560    1.0770 H   0  0  0  0  0  0  0  0  0  0  0  0
    3.8838    1.7174   -0.3365 H   0  0  0  0  0  0  0  0  0  0  0  0
    2.2676   -0.7907   -0.1298 H   0  0  0  0  0  0  0  0  0  0  0  0
    2.7061   -3.1642   -0.8102 H   0  0  0  0  0  0  0  0  0  0  0  0
    5.0661   -4.0267   -0.9082 H   0  0  0  0  0  0  0  0  0  0  0  0
    6.9660   -2.5099   -0.2922 H   0  0  0  0  0  0  0  0  0  0  0  0
    6.5138   -0.1586    0.4250 H   0  0  0  0  0  0  0  0  0  0  0  0
   -1.2340    2.1806   -2.1047 H   0  0  0  0  0  0  0  0  0  0  0  0
   -0.0217    3.4867   -2.2700 H   0  0  0  0  0  0  0  0  0  0  0  0
   -0.4845    2.5085   -3.7108 H   0  0  0  0  0  0  0  0  0  0  0  0
    2.9903    1.2718   -2.7127 H   0  0  0  0  0  0  0  0  0  0  0  0
    1.9975    1.7638   -4.1261 H   0  0  0  0  0  0  0  0  0  0  0  0
    2.4035    2.9648   -2.8419 H   0  0  0  0  0  0  0  0  0  0  0  0
   -0.4846   -0.4693   -1.8050 N   0  0  0  0  0  0  0  0  0  0  0  0
   -1.0420   -1.4078    0.8057 N   0  0  0  0  0  2  0  0  0  0  0  0
   -0.8605   -1.5092    2.2816 C   0  0  0  0  0  0  0  0  0  0  0  0
    0.5359    0.0799   -2.7077 C   0  0  0  0  0  0  0  0  0  0  0  0
   -0.8257   -1.8653   -2.1086 C   0  0  0  0  0  0  0  0  0  0  0  0
   -1.3793    0.0438   -1.9181 H   0  0  0  0  0  0  0  0  0  0  0  0
   -1.6327   -2.4700    0.2024 C   0  0  0  0  0  0  0  0  0  0  0  0
    0.2944   -2.4735    2.6180 C   0  0  0  0  0  0  0  0  0  0  0  0
   -2.1433   -1.9121    3.0362 C   0  0  0  0  0  0  0  0  0  0  0  0
    1.4434   -0.5512   -2.6149 H   0  0  0  0  0  0  0  0  0  0  0  0
    0.1890    0.0352   -3.7646 H   0  0  0  0  0  0  0  0  0  0  0  0
   -2.0463   -2.2765   -1.2874 C   0  0  1  0  0  0  0  0  0  0  0  0
   -1.0480   -1.9548   -3.1971 H   0  0  0  0  0  0  0  0  0  0  0  0
    0.0353   -2.5235   -1.8779 H   0  0  0  0  0  0  0  0  0  0  0  0
   -1.9122   -3.5542    0.7518 O   0  0  0  0  0  0  0  0  0  0  0  0
    1.2342   -2.1810    2.1042 H   0  0  0  0  0  0  0  0  0  0  0  0
    0.0220   -3.4871    2.2695 H   0  0  0  0  0  0  0  0  0  0  0  0
    0.4850   -2.5091    3.7103 H   0  0  0  0  0  0  0  0  0  0  0  0
   -2.9901   -1.2725    2.7131 H   0  0  0  0  0  0  0  0  0  0  0  0
   -1.9971   -1.7647    4.1263 H   0  0  0  0  0  0  0  0  0  0  0  0
   -2.4032   -2.9655    2.8419 H   0  0  0  0  0  0  0  0  0  0  0  0
   -2.9465   -1.1601   -1.4412 O   0  0  0  0  0  0  0  0  0  0  0  0
   -2.6645   -3.5583   -1.8375 C   0  0  0  0  0  0  0  0  0  0  0  0
   -4.0769   -1.1105   -0.5783 C   0  0  0  0  0  0  0  0  0  0  0  0
   -3.0408   -3.3799   -2.8640 H   0  0  0  0  0  0  0  0  0  0  0  0
   -3.4901   -3.8972   -1.1857 H   0  0  0  0  0  0  0  0  0  0  0  0
   -1.9199   -4.3772   -1.8536 H   0  0  0  0  0  0  0  0  0  0  0  0
   -4.3605    0.3221   -0.1872 C   0  0  0  0  0  0  0  0  0  0  0  0
   -4.9687   -1.5554   -1.0768 H   0  0  0  0  0  0  0  0  0  0  0  0
   -3.8839   -1.7169    0.3368 H   0  0  0  0  0  0  0  0  0  0  0  0
   -3.2996    1.1807    0.1655 C   0  0  0  0  0  0  0  0  0  0  0  0
   -5.6764    0.8165   -0.1392 C   0  0  0  0  0  0  0  0  0  0  0  0
   -3.5490    2.5044    0.5523 C   0  0  0  0  0  0  0  0  0  0  0  0
   -2.2674    0.7909    0.1299 H   0  0  0  0  0  0  0  0  0  0  0  0
   -5.9301    2.1385    0.2614 C   0  0  0  0  0  0  0  0  0  0  0  0
   -6.5137    0.1595   -0.4248 H   0  0  0  0  0  0  0  0  0  0  0  0
   -4.8672    2.9879    0.6058 C   0  0  0  0  0  0  0  0  0  0  0  0
   -2.7055    3.1645    0.8101 H   0  0  0  0  0  0  0  0  0  0  0  0
   -6.9655    2.5109    0.2923 H   0  0  0  0  0  0  0  0  0  0  0  0
   -5.0653    4.0275    0.9082 H   0  0  0  0  0  0  0  0  0  0  0  0
  1 20  1  0  0  0  0
  1  6  1  0  0  0  0
  1  5  1  0  0  0  0
  2  8  1  0  0  0  0
  3  8  2  0  0  0  0
  5 22  1  0  0  0  0
  6 23  1  0  0  0  0
  7  4  1  1  0  0  0
  7 10  1  0  0  0  0
  7  6  1  0  0  0  0
  8  7  1  0  0  0  0
  9  2  1  0  0  0  0
 10 27  1  0  0  0  0
 10 25  1  0  0  0  0
 11 28  1  0  0  0  0
 11  4  1  0  0  0  0
 12 11  1  0  0  0  0
 13 30  1  0  0  0  0
 13 12  2  0  0  0  0
 14 13  1  0  0  0  0
 15 14  2  0  0  0  0
 15 16  1  0  0  0  0
 16 17  2  0  0  0  0
 17 12  1  0  0  0  0
 17 34  1  0  0  0  0
 18  9  1  0  0  0  0
 18 36  1  0  0  0  0
 18 35  1  0  0  0  0
 19 40  1  0  0  0  0
 19 38  1  0  0  0  0
 19  9  1  0  0  0  0
 21  5  1  0  0  0  0
 24  6  1  0  0  0  0
 26 10  1  0  0  0  0
 29 11  1  0  0  0  0
 31 14  1  0  0  0  0
 32 15  1  0  0  0  0
 33 16  1  0  0  0  0
 37 18  1  0  0  0  0
 39 19  1  0  0  0  0
 42 43  1  0  0  0  0
 43 48  1  0  0  0  0
 43  5  1  0  0  0  0
 43 49  1  0  0  0  0
 44 50  1  0  0  0  0
 44  9  1  0  0  0  0
 44 41  1  0  0  0  0
 45 54  1  0  0  0  0
 45 41  1  0  0  0  0
 45 52  1  0  0  0  0
 46 41  1  0  0  0  0
 47 55  2  0  0  0  0
 47 42  1  0  0  0  0
 48 58  1  0  0  0  0
 49 60  1  0  0  0  0
 51 44  1  0  0  0  0
 52 62  1  6  0  0  0
 52 47  1  0  0  0  0
 53 45  1  0  0  0  0
 56 48  1  0  0  0  0
 57 48  1  0  0  0  0
 59 49  1  0  0  0  0
 61 49  1  0  0  0  0
 62 64  1  0  0  0  0
 63 52  1  0  0  0  0
 63 66  1  0  0  0  0
 64 68  1  0  0  0  0
 64 70  1  0  0  0  0
 65 63  1  0  0  0  0
 67 63  1  0  0  0  0
 68 72  2  0  0  0  0
 68 71  1  0  0  0  0
 69 64  1  0  0  0  0
 71 73  2  0  0  0  0
 72 75  1  0  0  0  0
 73 77  1  0  0  0  0
 73 78  1  0  0  0  0
 74 71  1  0  0  0  0
 75 79  1  0  0  0  0
 75 77  2  0  0  0  0
 76 72  1  0  0  0  0
 77 80  1  0  0  0  0
M  END
