1,2,3,4
 OpenBabel05122313063D

 36 37  0  0  1  0  0  0  0  0999 V2000
    1.3012   -1.1046    0.0636 N   0  0  0  0  0  2  0  0  0  0  0  0
   -1.3012   -1.1046   -0.0657 N   0  0  0  0  0  2  0  0  0  0  0  0
    1.2705    1.5704    0.1476 N   0  0  0  0  0  2  0  0  0  0  0  0
   -1.2706    1.5704   -0.1477 N   0  0  0  0  0  2  0  0  0  0  0  0
    0.6575    2.8780    0.3799 C   0  0  0  0  0  0  0  0  0  0  0  0
   -0.6576    2.8779   -0.3801 C   0  0  0  0  0  0  0  0  0  0  0  0
    2.6397   -1.0196    0.0192 C   0  0  0  0  0  0  0  0  0  0  0  0
    3.4682   -2.1935   -0.0308 C   0  0  0  0  0  0  0  0  0  0  0  0
    4.8501   -2.1066   -0.0801 C   0  0  0  0  0  0  0  0  0  0  0  0
    5.5111   -0.8484   -0.0777 C   0  0  0  0  0  0  0  0  0  0  0  0
    4.7438    0.3055   -0.0200 C   0  0  0  0  0  3  0  0  0  0  0  0
    3.3213    0.2588    0.0303 C   0  0  0  0  0  0  0  0  0  0  0  0
    2.5829    1.4715    0.1272 C   0  0  0  0  0  0  0  0  0  0  0  0
   -2.6396   -1.0196   -0.0197 C   0  0  2  0  0  3  0  0  0  0  0  0
   -3.4681   -2.1936    0.0307 C   0  0  0  0  0  0  0  0  0  0  0  0
   -4.8500   -2.1067    0.0812 C   0  0  0  0  0  0  0  0  0  0  0  0
   -5.5110   -0.8485    0.0795 C   0  0  0  0  0  0  0  0  0  0  0  0
   -4.7438    0.3055    0.0215 C   0  0  0  0  0  0  0  0  0  0  0  0
   -3.3213    0.2588   -0.0299 C   0  0  0  0  0  0  0  0  0  0  0  0
   -2.5830    1.4716   -0.1269 C   0  0  0  0  0  0  0  0  0  0  0  0
    0.9814   -2.0801    0.0826 H   0  0  0  0  0  0  0  0  0  0  0  0
   -0.9815   -2.0801   -0.0849 H   0  0  0  0  0  0  0  0  0  0  0  0
    2.9736   -3.1783   -0.0344 H   0  0  0  0  0  0  0  0  0  0  0  0
    5.4443   -3.0331   -0.1215 H   0  0  0  0  0  0  0  0  0  0  0  0
    6.6082   -0.7947   -0.1163 H   0  0  0  0  0  0  0  0  0  0  0  0
    5.2296    1.2949   -0.0082 H   0  0  0  0  0  0  0  0  0  0  0  0
    3.1667    2.4108    0.2081 H   0  0  0  0  0  0  0  0  0  0  0  0
   -2.9735   -3.1783    0.0337 H   0  0  0  0  0  0  0  0  0  0  0  0
   -5.4441   -3.0332    0.1229 H   0  0  0  0  0  0  0  0  0  0  0  0
   -6.6081   -0.7948    0.1190 H   0  0  0  0  0  0  0  0  0  0  0  0
   -5.2296    1.2948    0.0103 H   0  0  0  0  0  0  0  0  0  0  0  0
   -3.1668    2.4108   -0.2074 H   0  0  0  0  0  0  0  0  0  0  0  0
    0.4589    3.0002    1.4687 H   0  0  0  0  0  0  0  0  0  0  0  0
    1.3253    3.7067    0.0589 H   0  0  0  0  0  0  0  0  0  0  0  0
   -0.4590    3.0001   -1.4689 H   0  0  0  0  0  0  0  0  0  0  0  0
   -1.3254    3.7067   -0.0592 H   0  0  0  0  0  0  0  0  0  0  0  0
  1 21  1  0  0  0  0
  3  5  1  0  0  0  0
  4 20  1  0  0  0  0
  5 33  1  0  0  0  0
  6  4  1  0  0  0  0
  6 36  1  0  0  0  0
  6  5  1  0  0  0  0
  7 12  1  0  0  0  0
  7  1  1  0  0  0  0
  8  7  2  0  0  0  0
  9 10  2  0  0  0  0
  9  8  1  0  0  0  0
 10 11  1  0  0  0  0
 11 26  1  0  0  0  0
 11 12  1  0  0  0  0
 12 13  2  0  0  0  0
 13  3  1  0  0  0  0
 13 27  1  0  0  0  0
 14  2  1  6  0  0  0
 14 15  1  0  0  0  0
 15 28  1  0  0  0  0
 15 16  2  0  0  0  0
 16 29  1  0  0  0  0
 17 16  1  0  0  0  0
 17 30  1  0  0  0  0
 18 17  2  0  0  0  0
 19 14  1  0  0  0  0
 19 18  1  0  0  0  0
 20 19  2  0  0  0  0
 22  2  1  0  0  0  0
 23  8  1  0  0  0  0
 24  9  1  0  0  0  0
 25 10  1  0  0  0  0
 31 18  1  0  0  0  0
 32 20  1  0  0  0  0
 34  5  1  0  0  0  0
 35  6  1  0  0  0  0
M  END
