1,2,3,4
 OpenBabel05122313063D

 56 57  0  0  1  0  0  0  0  0999 V2000
    1.0222    1.2215   -0.1587 N   0  0  0  0  0  2  0  0  0  0  0  0
    1.5839   -1.4281   -0.3987 N   0  0  0  0  0  2  0  0  0  0  0  0
   -1.4560    0.7116    0.0256 N   0  0  0  0  0  2  0  0  0  0  0  0
   -0.9397   -1.9598    0.0665 N   0  0  0  0  0  2  0  0  0  0  0  0
    5.0095    1.8920    0.1608 O   0  0  0  0  0  0  0  0  0  0  0  0
    5.5544   -0.2989    0.2824 O   0  0  0  0  0  0  0  0  0  0  0  0
   -5.2611   -2.2944    0.0822 O   0  0  0  0  0  0  0  0  0  0  0  0
   -5.3155   -0.0415    0.1321 O   0  0  0  0  0  0  0  0  0  0  0  0
   -1.1676    2.0930   -0.0066 C   0  0  0  0  0  0  0  0  0  0  0  0
   -2.0940    3.1530    0.0715 C   0  0  0  0  0  0  0  0  0  0  0  0
   -3.1685    2.9541    0.1864 H   0  0  0  0  0  0  0  0  0  0  0  0
   -1.6434    4.4770    0.0086 C   0  0  0  0  0  0  0  0  0  0  0  0
   -2.3708    5.3003    0.0673 H   0  0  0  0  0  0  0  0  0  0  0  0
   -0.2711    4.7560   -0.1328 C   0  0  0  0  0  0  0  0  0  0  0  0
    0.0774    5.7976   -0.1943 H   0  0  0  0  0  0  0  0  0  0  0  0
    0.6587    3.7119   -0.2008 C   0  0  0  0  0  0  0  0  0  0  0  0
    1.7260    3.9407   -0.3258 H   0  0  0  0  0  0  0  0  0  0  0  0
    0.2159    2.3757   -0.1231 C   0  0  0  0  0  0  0  0  0  0  0  0
    2.3437    1.3136   -0.0737 C   0  0  0  0  0  3  0  0  0  0  0  0
    2.7942    2.3078    0.0911 H   0  0  0  0  0  0  0  0  0  0  0  0
    3.2755    0.2661   -0.1809 C   0  0  0  0  0  0  0  0  0  0  0  0
    4.6656    0.7181    0.0754 C   0  0  0  0  0  0  0  0  0  0  0  0
    6.9038    0.1084    0.5765 C   0  0  0  0  0  0  0  0  0  0  0  0
    6.8971    0.7463    1.4857 H   0  0  0  0  0  0  0  0  0  0  0  0
    7.2821    0.7466   -0.2503 H   0  0  0  0  0  0  0  0  0  0  0  0
    7.7366   -1.1441    0.7628 C   0  0  0  0  0  0  0  0  0  0  0  0
    8.7817   -0.8722    1.0114 H   0  0  0  0  0  0  0  0  0  0  0  0
    7.3369   -1.7684    1.5867 H   0  0  0  0  0  0  0  0  0  0  0  0
    7.7516   -1.7582   -0.1599 H   0  0  0  0  0  0  0  0  0  0  0  0
    2.8663   -1.0804   -0.4832 C   0  0  0  0  0  0  0  0  0  0  0  0
    3.8692   -2.1002   -0.9833 C   0  0  0  0  0  0  0  0  0  0  0  0
    3.4477   -2.6729   -1.8319 H   0  0  0  0  0  0  0  0  0  0  0  0
    4.7988   -1.6127   -1.3102 H   0  0  0  0  0  0  0  0  0  0  0  0
    4.1497   -2.8246   -0.1898 H   0  0  0  0  0  0  0  0  0  0  0  0
    1.1796   -2.8014   -0.6925 C   0  0  0  0  0  0  0  0  0  0  0  0
    1.9797   -3.5365   -0.4755 H   0  0  0  0  0  0  0  0  0  0  0  0
    0.9148   -2.9007   -1.7706 H   0  0  0  0  0  0  0  0  0  0  0  0
   -0.0340   -3.1042    0.1613 C   0  0  0  0  0  0  0  0  0  0  0  0
   -0.5045   -4.0477   -0.1781 H   0  0  0  0  0  0  0  0  0  0  0  0
    0.2800   -3.2514    1.2205 H   0  0  0  0  0  0  0  0  0  0  0  0
   -2.2499   -2.1516    0.2144 C   0  0  1  0  0  3  0  0  0  0  0  0
   -2.7489   -3.5481    0.5139 C   0  0  0  0  0  0  0  0  0  0  0  0
   -2.5885   -4.2230   -0.3534 H   0  0  0  0  0  0  0  0  0  0  0  0
   -3.8292   -3.5417    0.7217 H   0  0  0  0  0  0  0  0  0  0  0  0
   -2.1952   -3.9787    1.3726 H   0  0  0  0  0  0  0  0  0  0  0  0
   -3.1694   -1.0427    0.1331 C   0  0  0  0  0  0  0  0  0  0  0  0
   -4.6412   -1.2359    0.1166 C   0  0  0  0  0  0  0  0  0  0  0  0
   -6.7485   -0.1328    0.0818 C   0  0  0  0  0  0  0  0  0  0  0  0
   -7.1060   -0.7342    0.9449 H   0  0  0  0  0  0  0  0  0  0  0  0
   -7.0478   -0.6890   -0.8324 H   0  0  0  0  0  0  0  0  0  0  0  0
   -7.3031    1.2777    0.0998 C   0  0  0  0  0  0  0  0  0  0  0  0
   -8.4104    1.2521    0.0659 H   0  0  0  0  0  0  0  0  0  0  0  0
   -6.9982    1.8137    1.0208 H   0  0  0  0  0  0  0  0  0  0  0  0
   -6.9446    1.8585   -0.7736 H   0  0  0  0  0  0  0  0  0  0  0  0
   -2.7138    0.2879    0.0488 C   0  0  0  0  0  0  0  0  0  0  0  0
   -3.5024    1.0529    0.0056 H   0  0  0  0  0  0  0  0  0  0  0  0
  1 18  1  0  0  0  0
  1 19  1  0  0  0  0
  3 55  1  0  0  0  0
  4 38  1  0  0  0  0
  4 41  1  0  0  0  0
  6 23  1  0  0  0  0
  7 47  2  0  0  0  0
  9  3  1  0  0  0  0
  9 10  1  0  0  0  0
 10 11  1  0  0  0  0
 12 13  1  0  0  0  0
 12 10  2  0  0  0  0
 14 12  1  0  0  0  0
 15 14  1  0  0  0  0
 16 14  2  0  0  0  0
 16 18  1  0  0  0  0
 17 16  1  0  0  0  0
 18  9  2  0  0  0  0
 19 20  1  0  0  0  0
 21 19  1  0  0  0  0
 21 22  1  0  0  0  0
 22  5  2  0  0  0  0
 22  6  1  0  0  0  0
 23 26  1  0  0  0  0
 23 24  1  0  0  0  0
 25 23  1  0  0  0  0
 26 27  1  0  0  0  0
 26 28  1  0  0  0  0
 29 26  1  0  0  0  0
 30  2  1  0  0  0  0
 30 21  2  0  0  0  0
 31 30  1  0  0  0  0
 31 34  1  0  0  0  0
 32 31  1  0  0  0  0
 33 31  1  0  0  0  0
 35 36  1  0  0  0  0
 35  2  1  0  0  0  0
 35 38  1  0  0  0  0
 37 35  1  0  0  0  0
 38 40  1  0  0  0  0
 39 38  1  0  0  0  0
 41 42  1  1  0  0  0
 42 44  1  0  0  0  0
 42 45  1  0  0  0  0
 43 42  1  0  0  0  0
 46 41  1  0  0  0  0
 47  8  1  0  0  0  0
 47 46  1  0  0  0  0
 48 51  1  0  0  0  0
 48  8  1  0  0  0  0
 48 49  1  0  0  0  0
 50 48  1  0  0  0  0
 51 53  1  0  0  0  0
 52 51  1  0  0  0  0
 54 51  1  0  0  0  0
 55 46  2  0  0  0  0
 56 55  1  0  0  0  0
M  END
