3,5,6,8
 OpenBabel05122313063D

 42 42  0  0  1  0  0  0  0  0999 V2000
   -4.1116   -1.5134    0.0002 S   0  0  0  0  0  0  0  0  0  0  0  0
    4.1116   -1.5134    0.0001 S   0  0  0  0  0  0  0  0  0  0  0  0
   -1.3714    1.2611    0.0000 N   0  0  0  0  0  2  0  0  0  0  0  0
   -2.6471    0.7411    0.0000 N   0  0  0  0  0  0  0  0  0  0  0  0
   -1.3756   -1.2073   -0.0001 N   0  0  0  0  0  2  0  0  0  0  0  0
    1.3756   -1.2073    0.0000 N   0  0  0  0  0  2  0  0  0  0  0  0
    2.6471    0.7411   -0.0001 N   0  0  0  0  0  0  0  0  0  0  0  0
    1.3714    1.2611   -0.0002 N   0  0  0  0  0  2  0  0  0  0  0  0
   -2.6221   -0.5617    0.0000 C   0  0  0  0  0  0  0  0  0  0  0  0
   -1.2384   -2.5393   -0.0003 C   0  0  0  0  0  3  0  0  0  0  0  0
    0.0000   -3.1993   -0.0003 C   0  0  0  0  0  0  0  0  0  0  0  0
    1.2384   -2.5393   -0.0001 C   0  0  0  0  0  0  0  0  0  0  0  0
    2.6221   -0.5617    0.0000 C   0  0  0  0  0  0  0  0  0  0  0  0
    1.2596    2.6038   -0.0000 C   0  0  2  0  0  3  0  0  0  0  0  0
   -0.0000    3.2374   -0.0001 C   0  0  0  0  0  0  0  0  0  0  0  0
   -1.2596    2.6038   -0.0001 C   0  0  0  0  0  0  0  0  0  0  0  0
    5.3504   -0.1622    0.0000 C   0  0  0  0  0  0  0  0  0  0  0  0
    6.7512   -0.7621    0.0002 C   0  0  0  0  0  0  0  0  0  0  0  0
   -5.3504   -0.1622    0.0001 C   0  0  0  0  0  0  0  0  0  0  0  0
   -6.7512   -0.7621    0.0002 C   0  0  0  0  0  0  0  0  0  0  0  0
    2.5159    3.4334    0.0002 C   0  0  0  0  0  0  0  0  0  0  0  0
   -2.5159    3.4334   -0.0002 C   0  0  0  0  0  0  0  0  0  0  0  0
   -2.1598   -3.1516   -0.0004 H   0  0  0  0  0  0  0  0  0  0  0  0
   -0.0000   -4.2969   -0.0004 H   0  0  0  0  0  0  0  0  0  0  0  0
   -0.0000    4.3347   -0.0001 H   0  0  0  0  0  0  0  0  0  0  0  0
    3.1400    3.1953    0.8848 H   0  0  0  0  0  0  0  0  0  0  0  0
    2.2743    4.5116    0.0001 H   0  0  0  0  0  0  0  0  0  0  0  0
    2.1598   -3.1516   -0.0002 H   0  0  0  0  0  0  0  0  0  0  0  0
   -5.1590    0.4676    0.8912 H   0  0  0  0  0  0  0  0  0  0  0  0
   -5.1591    0.4674   -0.8911 H   0  0  0  0  0  0  0  0  0  0  0  0
    5.1591    0.4674   -0.8912 H   0  0  0  0  0  0  0  0  0  0  0  0
    5.1590    0.4676    0.8911 H   0  0  0  0  0  0  0  0  0  0  0  0
    3.1403    3.1953   -0.8842 H   0  0  0  0  0  0  0  0  0  0  0  0
   -6.9280   -1.3891   -0.8969 H   0  0  0  0  0  0  0  0  0  0  0  0
   -7.5061    0.0496    0.0002 H   0  0  0  0  0  0  0  0  0  0  0  0
   -6.9279   -1.3890    0.8975 H   0  0  0  0  0  0  0  0  0  0  0  0
    6.9279   -1.3890    0.8974 H   0  0  0  0  0  0  0  0  0  0  0  0
    7.5061    0.0496    0.0001 H   0  0  0  0  0  0  0  0  0  0  0  0
    6.9280   -1.3891   -0.8970 H   0  0  0  0  0  0  0  0  0  0  0  0
   -2.2743    4.5116   -0.0002 H   0  0  0  0  0  0  0  0  0  0  0  0
   -3.1401    3.1952   -0.8847 H   0  0  0  0  0  0  0  0  0  0  0  0
   -3.1402    3.1953    0.8843 H   0  0  0  0  0  0  0  0  0  0  0  0
  3  4  1  0  0  0  0
  5  9  1  0  0  0  0
  6 13  1  0  0  0  0
  7 13  2  0  0  0  0
  8  7  1  0  0  0  0
  8 14  1  0  0  0  0
  9  4  2  0  0  0  0
  9  1  1  0  0  0  0
 10  5  1  0  0  0  0
 11 10  1  0  0  0  0
 11 12  2  0  0  0  0
 12  6  1  0  0  0  0
 13  2  1  0  0  0  0
 14 21  1  6  0  0  0
 15 25  1  0  0  0  0
 15 14  1  0  0  0  0
 16 15  2  0  0  0  0
 16  3  1  0  0  0  0
 17  2  1  0  0  0  0
 17 18  1  0  0  0  0
 17 32  1  0  0  0  0
 18 37  1  0  0  0  0
 19  1  1  0  0  0  0
 19 20  1  0  0  0  0
 19 29  1  0  0  0  0
 20 36  1  0  0  0  0
 21 26  1  0  0  0  0
 22 16  1  0  0  0  0
 22 42  1  0  0  0  0
 23 10  1  0  0  0  0
 24 11  1  0  0  0  0
 27 21  1  0  0  0  0
 28 12  1  0  0  0  0
 30 19  1  0  0  0  0
 31 17  1  0  0  0  0
 33 21  1  0  0  0  0
 34 20  1  0  0  0  0
 35 20  1  0  0  0  0
 38 18  1  0  0  0  0
 39 18  1  0  0  0  0
 40 22  1  0  0  0  0
 41 22  1  0  0  0  0
M  END
