1,2,3,4
 OpenBabel05122313063D

 84 89  0  0  0  0  0  0  0  0999 V2000
   -2.1184   -0.3399    0.0026 P   0  0  0  0  0  0  0  0  0  0  0  0
    2.1184   -0.3401   -0.0026 P   0  0  0  0  0  0  0  0  0  0  0  0
   -0.7331    2.4631   -1.0257 Si  0  0  0  0  0  0  0  0  0  0  0  0
    0.7333    2.4631    1.0256 Si  0  0  0  0  0  0  0  0  0  0  0  0
   -0.2808    1.3807   -2.5417 C   0  0  0  0  0  0  0  0  0  0  0  0
   -0.2183    0.2828   -2.3978 H   0  0  0  0  0  0  0  0  0  0  0  0
    0.6887    1.7292   -2.9504 H   0  0  0  0  0  0  0  0  0  0  0  0
   -1.0662    1.5583   -3.3068 H   0  0  0  0  0  0  0  0  0  0  0  0
   -0.3535    4.2242   -1.6191 C   0  0  0  0  0  0  0  0  0  0  0  0
   -0.8444    4.3839   -2.6018 H   0  0  0  0  0  0  0  0  0  0  0  0
    0.7387    4.3506   -1.7628 H   0  0  0  0  0  0  0  0  0  0  0  0
   -0.7026    5.0088   -0.9220 H   0  0  0  0  0  0  0  0  0  0  0  0
   -2.5968    2.3416   -0.5949 C   0  0  0  0  0  0  0  0  0  0  0  0
   -3.1982    1.1331   -0.1425 C   0  0  0  0  0  0  0  0  0  0  0  0
   -4.5688    1.0761    0.1769 C   0  0  0  0  0  0  0  0  0  0  0  0
   -5.0084    0.1387    0.5521 H   0  0  0  0  0  0  0  0  0  0  0  0
   -5.3687    2.2210    0.0438 C   0  0  0  0  0  0  0  0  0  0  0  0
   -6.4377    2.1775    0.3005 H   0  0  0  0  0  0  0  0  0  0  0  0
   -4.7973    3.4188   -0.4105 C   0  0  0  0  0  0  0  0  0  0  0  0
   -5.4194    4.3205   -0.5151 H   0  0  0  0  0  0  0  0  0  0  0  0
   -3.4291    3.4750   -0.7242 C   0  0  0  0  0  0  0  0  0  0  0  0
   -3.0058    4.4290   -1.0736 H   0  0  0  0  0  0  0  0  0  0  0  0
    0.2809    1.3808    2.5416 C   0  0  0  0  0  0  0  0  0  0  0  0
    1.0665    1.5580    3.3066 H   0  0  0  0  0  0  0  0  0  0  0  0
    0.2180    0.2828    2.3978 H   0  0  0  0  0  0  0  0  0  0  0  0
   -0.6884    1.7296    2.9505 H   0  0  0  0  0  0  0  0  0  0  0  0
    0.3539    4.2242    1.6189 C   0  0  0  0  0  0  0  0  0  0  0  0
   -0.7384    4.3508    1.7624 H   0  0  0  0  0  0  0  0  0  0  0  0
    0.7033    5.0087    0.9219 H   0  0  0  0  0  0  0  0  0  0  0  0
    0.8445    4.3838    2.6017 H   0  0  0  0  0  0  0  0  0  0  0  0
    2.5970    2.3414    0.5950 C   0  0  0  0  0  0  0  0  0  0  0  0
    3.1983    1.1328    0.1426 C   0  0  0  0  0  0  0  0  0  0  0  0
    4.5690    1.0756   -0.1767 C   0  0  0  0  0  0  0  0  0  0  0  0
    5.0085    0.1383   -0.5520 H   0  0  0  0  0  0  0  0  0  0  0  0
    5.3690    2.2205   -0.0434 C   0  0  0  0  0  0  0  0  0  0  0  0
    6.4380    2.1769   -0.3000 H   0  0  0  0  0  0  0  0  0  0  0  0
    4.7977    3.4183    0.4109 C   0  0  0  0  0  0  0  0  0  0  0  0
    5.4199    4.3200    0.5156 H   0  0  0  0  0  0  0  0  0  0  0  0
    3.4295    3.4747    0.7244 C   0  0  0  0  0  0  0  0  0  0  0  0
    3.0063    4.4287    1.0739 H   0  0  0  0  0  0  0  0  0  0  0  0
   -2.4352   -1.4382   -1.4292 C   0  0  0  0  0  0  0  0  0  0  0  0
   -1.3532   -2.2116   -1.9044 C   0  0  0  0  0  0  0  0  0  0  0  0
   -0.3632   -2.1199   -1.4273 H   0  0  0  0  0  0  0  0  0  0  0  0
   -1.5319   -3.0841   -2.9872 C   0  0  0  0  0  0  0  0  0  0  0  0
   -0.6812   -3.6793   -3.3520 H   0  0  0  0  0  0  0  0  0  0  0  0
   -2.7875   -3.1799   -3.6082 C   0  0  0  0  0  0  0  0  0  0  0  0
   -2.9283   -3.8573   -4.4637 H   0  0  0  0  0  0  0  0  0  0  0  0
   -3.8632   -2.4041   -3.1445 C   0  0  0  0  0  0  0  0  0  0  0  0
   -4.8448   -2.4740   -3.6366 H   0  0  0  0  0  0  0  0  0  0  0  0
   -3.6925   -1.5344   -2.0571 C   0  0  0  0  0  0  0  0  0  0  0  0
   -4.5368   -0.9224   -1.7066 H   0  0  0  0  0  0  0  0  0  0  0  0
   -2.6540   -1.2673    1.4868 C   0  0  0  0  0  0  0  0  0  0  0  0
   -2.9252   -0.5684    2.6830 C   0  0  0  0  0  0  0  0  0  0  0  0
   -2.9317    0.5323    2.6904 H   0  0  0  0  0  0  0  0  0  0  0  0
   -3.2003   -1.2762    3.8613 C   0  0  0  0  0  0  0  0  0  0  0  0
   -3.4197   -0.7259    4.7885 H   0  0  0  0  0  0  0  0  0  0  0  0
   -3.1982   -2.6810    3.8590 C   0  0  0  0  0  0  0  0  0  0  0  0
   -3.4150   -3.2332    4.7855 H   0  0  0  0  0  0  0  0  0  0  0  0
   -2.9286   -3.3782    2.6708 C   0  0  0  0  0  0  0  0  0  0  0  0
   -2.9396   -4.4786    2.6611 H   0  0  0  0  0  0  0  0  0  0  0  0
   -2.6570   -2.6775    1.4852 C   0  0  0  0  0  0  0  0  0  0  0  0
   -2.4548   -3.2288    0.5543 H   0  0  0  0  0  0  0  0  0  0  0  0
    2.6539   -1.2673   -1.4868 C   0  0  0  0  0  0  0  0  0  0  0  0
    2.9252   -0.5684   -2.6830 C   0  0  0  0  0  0  0  0  0  0  0  0
    2.9318    0.5324   -2.6902 H   0  0  0  0  0  0  0  0  0  0  0  0
    3.2002   -1.2760   -3.8613 C   0  0  0  0  0  0  0  0  0  0  0  0
    3.4196   -0.7257   -4.7885 H   0  0  0  0  0  0  0  0  0  0  0  0
    3.1979   -2.6809   -3.8593 C   0  0  0  0  0  0  0  0  0  0  0  0
    3.4146   -3.2330   -4.7858 H   0  0  0  0  0  0  0  0  0  0  0  0
    2.9282   -3.3782   -2.6710 C   0  0  0  0  0  0  0  0  0  0  0  0
    2.9392   -4.4785   -2.6615 H   0  0  0  0  0  0  0  0  0  0  0  0
    2.6567   -2.6776   -1.4855 C   0  0  0  0  0  0  0  0  0  0  0  0
    2.4545   -3.2290   -0.5546 H   0  0  0  0  0  0  0  0  0  0  0  0
    2.4351   -1.4385    1.4292 C   0  0  0  0  0  0  0  0  0  0  0  0
    1.3529   -2.2116    1.9043 C   0  0  0  0  0  0  0  0  0  0  0  0
    0.3630   -2.1198    1.4273 H   0  0  0  0  0  0  0  0  0  0  0  0
    1.5314   -3.0842    2.9872 C   0  0  0  0  0  0  0  0  0  0  0  0
    0.6807   -3.6792    3.3519 H   0  0  0  0  0  0  0  0  0  0  0  0
    2.7871   -3.1802    3.6081 C   0  0  0  0  0  0  0  0  0  0  0  0
    2.9277   -3.8577    4.4636 H   0  0  0  0  0  0  0  0  0  0  0  0
    3.8629   -2.4046    3.1445 C   0  0  0  0  0  0  0  0  0  0  0  0
    4.8445   -2.4747    3.6365 H   0  0  0  0  0  0  0  0  0  0  0  0
    3.6924   -1.5349    2.0570 C   0  0  0  0  0  0  0  0  0  0  0  0
    4.5367   -0.9231    1.7065 H   0  0  0  0  0  0  0  0  0  0  0  0
  1 52  1  0  0  0  0
  2 32  1  0  0  0  0
  2 74  1  0  0  0  0
  3 13  1  0  0  0  0
  3  4  1  0  0  0  0
  4 27  1  0  0  0  0
  4 23  1  0  0  0  0
  5  6  1  0  0  0  0
  5  3  1  0  0  0  0
  7  5  1  0  0  0  0
  8  5  1  0  0  0  0
  9  3  1  0  0  0  0
  9 12  1  0  0  0  0
 10  9  1  0  0  0  0
 11  9  1  0  0  0  0
 13 14  1  0  0  0  0
 14  1  1  0  0  0  0
 14 15  2  0  0  0  0
 15 16  1  0  0  0  0
 17 15  1  0  0  0  0
 17 18  1  0  0  0  0
 19 17  2  0  0  0  0
 20 19  1  0  0  0  0
 21 13  2  0  0  0  0
 21 19  1  0  0  0  0
 22 21  1  0  0  0  0
 23 26  1  0  0  0  0
 23 24  1  0  0  0  0
 25 23  1  0  0  0  0
 27 28  1  0  0  0  0
 27 30  1  0  0  0  0
 29 27  1  0  0  0  0
 31 39  1  0  0  0  0
 31  4  1  0  0  0  0
 32 31  2  0  0  0  0
 33 35  2  0  0  0  0
 33 32  1  0  0  0  0
 34 33  1  0  0  0  0
 35 37  1  0  0  0  0
 36 35  1  0  0  0  0
 37 38  1  0  0  0  0
 37 39  2  0  0  0  0
 39 40  1  0  0  0  0
 41  1  1  0  0  0  0
 42 41  1  0  0  0  0
 42 43  1  0  0  0  0
 44 42  2  0  0  0  0
 45 44  1  0  0  0  0
 46 48  2  0  0  0  0
 46 44  1  0  0  0  0
 47 46  1  0  0  0  0
 48 50  1  0  0  0  0
 49 48  1  0  0  0  0
 50 51  1  0  0  0  0
 50 41  2  0  0  0  0
 52 53  1  0  0  0  0
 53 54  1  0  0  0  0
 53 55  2  0  0  0  0
 55 56  1  0  0  0  0
 57 55  1  0  0  0  0
 57 58  1  0  0  0  0
 59 57  2  0  0  0  0
 60 59  1  0  0  0  0
 61 52  2  0  0  0  0
 61 59  1  0  0  0  0
 62 61  1  0  0  0  0
 63 72  1  0  0  0  0
 63  2  1  0  0  0  0
 64 63  2  0  0  0  0
 65 64  1  0  0  0  0
 66 68  2  0  0  0  0
 66 64  1  0  0  0  0
 67 66  1  0  0  0  0
 68 70  1  0  0  0  0
 69 68  1  0  0  0  0
 70 71  1  0  0  0  0
 70 72  2  0  0  0  0
 72 73  1  0  0  0  0
 74 75  2  0  0  0  0
 74 83  1  0  0  0  0
 75 77  1  0  0  0  0
 76 75  1  0  0  0  0
 77 78  1  0  0  0  0
 77 79  2  0  0  0  0
 79 80  1  0  0  0  0
 81 79  1  0  0  0  0
 81 82  1  0  0  0  0
 83 81  2  0  0  0  0
 84 83  1  0  0  0  0
M  END
