1,2,3,4,5
 OpenBabel05122313063D

 35 35  0  0  0  0  0  0  0  0999 V2000
   -1.1279    1.1033   -1.5512 S   0  0  0  0  0  0  0  0  0  0  0  0
   -0.0731   -2.1001   -1.0459 S   0  0  0  0  0  0  0  0  0  0  0  0
    0.4833    1.9247    1.2171 S   0  0  0  0  0  0  0  0  0  0  0  0
   -1.9493   -0.5583    1.1749 S   0  0  0  0  0  0  0  0  0  0  0  0
    2.0482    0.2175   -1.0677 S   0  0  0  0  0  0  0  0  0  0  0  0
   -3.2027    0.5266    0.3426 C   0  0  0  0  0  0  0  0  0  0  0  0
   -4.2020    0.0629    0.4746 H   0  0  0  0  0  0  0  0  0  0  0  0
   -3.1848    1.4438    0.9650 H   0  0  0  0  0  0  0  0  0  0  0  0
    3.0036    1.0479    0.2808 C   0  0  0  0  0  0  0  0  0  0  0  0
    3.0593    0.3523    1.1429 H   0  0  0  0  0  0  0  0  0  0  0  0
    4.0140    1.3069   -0.0953 H   0  0  0  0  0  0  0  0  0  0  0  0
   -0.7966    2.8898   -1.1373 C   0  0  0  0  0  0  0  0  0  0  0  0
    0.0958    3.1085   -1.7594 H   0  0  0  0  0  0  0  0  0  0  0  0
   -1.6331    3.4949   -1.5430 H   0  0  0  0  0  0  0  0  0  0  0  0
    1.6885   -2.6189   -0.7416 C   0  0  0  0  0  0  0  0  0  0  0  0
    1.7765   -2.7335    0.3559 H   0  0  0  0  0  0  0  0  0  0  0  0
    1.8708   -3.5778   -1.2672 H   0  0  0  0  0  0  0  0  0  0  0  0
   -0.5430    3.1906    0.3284 C   0  0  0  0  0  0  0  0  0  0  0  0
   -1.4816    3.2057    0.9182 H   0  0  0  0  0  0  0  0  0  0  0  0
   -0.0605    4.1807    0.4613 H   0  0  0  0  0  0  0  0  0  0  0  0
    2.6590   -1.5451   -1.2461 C   0  0  0  0  0  0  0  0  0  0  0  0
    2.8536   -1.6362   -2.3325 H   0  0  0  0  0  0  0  0  0  0  0  0
    3.6289   -1.6262   -0.7168 H   0  0  0  0  0  0  0  0  0  0  0  0
    2.2251    2.3164    0.6194 C   0  0  0  0  0  0  0  0  0  0  0  0
    2.1425    2.9910   -0.2575 H   0  0  0  0  0  0  0  0  0  0  0  0
    2.7241    2.8665    1.4416 H   0  0  0  0  0  0  0  0  0  0  0  0
   -2.3403   -2.2480    0.4583 C   0  0  0  0  0  0  0  0  0  0  0  0
   -2.9811   -2.7722    1.1950 H   0  0  0  0  0  0  0  0  0  0  0  0
   -2.9205   -2.1074   -0.4770 H   0  0  0  0  0  0  0  0  0  0  0  0
   -1.0591   -3.0369    0.2113 C   0  0  0  0  0  0  0  0  0  0  0  0
   -1.2943   -4.0435   -0.1891 H   0  0  0  0  0  0  0  0  0  0  0  0
   -0.4423   -3.1147    1.1303 H   0  0  0  0  0  0  0  0  0  0  0  0
   -2.9180    0.8221   -1.1188 C   0  0  0  0  0  0  0  0  0  0  0  0
   -3.4975    1.6952   -1.4822 H   0  0  0  0  0  0  0  0  0  0  0  0
   -3.1848   -0.0364   -1.7687 H   0  0  0  0  0  0  0  0  0  0  0  0
  1 12  1  0  0  0  0
  1 33  1  0  0  0  0
  2 15  1  0  0  0  0
  2 30  1  0  0  0  0
  5  9  1  0  0  0  0
  6  7  1  0  0  0  0
  6  8  1  0  0  0  0
  6  4  1  0  0  0  0
  9 24  1  0  0  0  0
  9 10  1  0  0  0  0
 11  9  1  0  0  0  0
 12 18  1  0  0  0  0
 13 12  1  0  0  0  0
 14 12  1  0  0  0  0
 15 16  1  0  0  0  0
 17 15  1  0  0  0  0
 18 20  1  0  0  0  0
 18 19  1  0  0  0  0
 18  3  1  0  0  0  0
 21  5  1  0  0  0  0
 21 15  1  0  0  0  0
 21 23  1  0  0  0  0
 22 21  1  0  0  0  0
 24  3  1  0  0  0  0
 24 26  1  0  0  0  0
 25 24  1  0  0  0  0
 27  4  1  0  0  0  0
 27 28  1  0  0  0  0
 29 27  1  0  0  0  0
 30 27  1  0  0  0  0
 30 32  1  0  0  0  0
 31 30  1  0  0  0  0
 33  6  1  0  0  0  0
 34 33  1  0  0  0  0
 35 33  1  0  0  0  0
M  END
