1,2,5,19
 OpenBabel05122313063D

 79 78  0  0  0  0  0  0  0  0999 V2000
   -2.4296   -0.3366    0.0856 P   0  0  1  0  0  0  0  0  0  0  0  0
    2.2902   -0.4581    0.0375 P   0  0  0  0  0  0  0  0  0  0  0  0
   -1.5145    2.5424   -0.1566 Si  0  0  0  0  0  0  0  0  0  0  0  0
    1.5788    2.5454    0.5957 Si  0  0  0  0  0  0  0  0  0  0  0  0
   -0.0429    1.6767    0.5223 N   0  0  0  0  0  0  0  0  0  0  0  0
   -0.2674    1.5238    1.5236 H   0  0  0  0  0  0  0  0  0  0  0  0
   -1.3907    2.6110   -2.0267 C   0  0  0  0  0  0  0  0  0  0  0  0
   -0.5618    3.2631   -2.3627 H   0  0  0  0  0  0  0  0  0  0  0  0
   -2.3310    3.0303   -2.4399 H   0  0  0  0  0  0  0  0  0  0  0  0
   -1.2468    1.6037   -2.4624 H   0  0  0  0  0  0  0  0  0  0  0  0
   -1.6899    4.2599    0.5932 C   0  0  0  0  0  0  0  0  0  0  0  0
   -0.8737    4.9458    0.2910 H   0  0  0  0  0  0  0  0  0  0  0  0
   -1.7198    4.2229    1.7011 H   0  0  0  0  0  0  0  0  0  0  0  0
   -2.6426    4.7143    0.2504 H   0  0  0  0  0  0  0  0  0  0  0  0
   -2.9247    1.4252    0.4222 C   0  0  0  0  0  0  0  0  0  0  0  0
   -3.1124    1.5749    1.5039 H   0  0  0  0  0  0  0  0  0  0  0  0
   -3.8705    1.6753   -0.0976 H   0  0  0  0  0  0  0  0  0  0  0  0
   -2.2219   -1.1955    1.7934 C   0  0  0  0  0  0  0  0  0  0  0  0
   -0.6849   -0.9724    1.8352 C   0  0  0  0  0  3  0  0  0  0  0  0
   -0.1445   -1.8747    2.1880 H   0  0  0  0  0  0  0  0  0  0  0  0
   -0.4159   -0.1346    2.5219 H   0  0  0  0  0  0  0  0  0  0  0  0
   -2.9734   -0.5488    2.9605 C   0  0  0  0  0  0  0  0  0  0  0  0
   -2.7205   -1.0840    3.8996 H   0  0  0  0  0  0  0  0  0  0  0  0
   -4.0728   -0.6071    2.8283 H   0  0  0  0  0  0  0  0  0  0  0  0
   -2.6977    0.5133    3.1165 H   0  0  0  0  0  0  0  0  0  0  0  0
   -2.5498   -2.6950    1.7425 C   0  0  0  0  0  0  0  0  0  0  0  0
   -2.2372   -3.1539    2.7036 H   0  0  0  0  0  0  0  0  0  0  0  0
   -2.0111   -3.2266    0.9371 H   0  0  0  0  0  0  0  0  0  0  0  0
   -3.6348   -2.8838    1.6275 H   0  0  0  0  0  0  0  0  0  0  0  0
   -3.8198   -1.0087   -1.0282 C   0  0  0  0  0  0  0  0  0  0  0  0
   -5.1548   -0.9824   -0.2666 C   0  0  0  0  0  0  0  0  0  0  0  0
   -5.9712   -1.3144   -0.9420 H   0  0  0  0  0  0  0  0  0  0  0  0
   -5.4181    0.0330    0.0916 H   0  0  0  0  0  0  0  0  0  0  0  0
   -5.1486   -1.6650    0.6051 H   0  0  0  0  0  0  0  0  0  0  0  0
   -3.4844   -2.4314   -1.5058 C   0  0  0  0  0  0  0  0  0  0  0  0
   -4.2754   -2.7648   -2.2093 H   0  0  0  0  0  0  0  0  0  0  0  0
   -3.4454   -3.1658   -0.6827 H   0  0  0  0  0  0  0  0  0  0  0  0
   -2.5207   -2.4650   -2.0490 H   0  0  0  0  0  0  0  0  0  0  0  0
   -3.8806   -0.0927   -2.2654 C   0  0  0  0  0  0  0  0  0  0  0  0
   -4.6543   -0.4807   -2.9600 H   0  0  0  0  0  0  0  0  0  0  0  0
   -2.9162   -0.0841   -2.8118 H   0  0  0  0  0  0  0  0  0  0  0  0
   -4.1563    0.9523   -2.0244 H   0  0  0  0  0  0  0  0  0  0  0  0
    1.5962    3.5463    2.1893 C   0  0  0  0  0  0  0  0  0  0  0  0
    0.8514    4.3664    2.1747 H   0  0  0  0  0  0  0  0  0  0  0  0
    2.5952    4.0052    2.3399 H   0  0  0  0  0  0  0  0  0  0  0  0
    1.3905    2.9071    3.0730 H   0  0  0  0  0  0  0  0  0  0  0  0
    1.8545    3.6872   -0.8731 C   0  0  0  0  0  0  0  0  0  0  0  0
    1.1147    4.5116   -0.8970 H   0  0  0  0  0  0  0  0  0  0  0  0
    1.8468    3.1858   -1.8589 H   0  0  0  0  0  0  0  0  0  0  0  0
    2.8543    4.1532   -0.7473 H   0  0  0  0  0  0  0  0  0  0  0  0
    2.8638    1.1650    0.7244 C   0  0  0  0  0  0  0  0  0  0  0  0
    3.8553    1.4646    0.3305 H   0  0  0  0  0  0  0  0  0  0  0  0
    2.9945    0.9991    1.8130 H   0  0  0  0  0  0  0  0  0  0  0  0
    2.7746   -0.4108   -1.8222 C   0  0  0  0  0  0  0  0  0  0  0  0
    2.9365   -1.8293   -2.3944 C   0  0  0  0  0  0  0  0  0  0  0  0
    3.0583   -1.7558   -3.4954 H   0  0  0  0  0  0  0  0  0  0  0  0
    2.0549   -2.4702   -2.2042 H   0  0  0  0  0  0  0  0  0  0  0  0
    3.8348   -2.3418   -2.0021 H   0  0  0  0  0  0  0  0  0  0  0  0
    4.0304    0.4187   -2.1233 C   0  0  0  0  0  0  0  0  0  0  0  0
    4.2304    0.3972   -3.2154 H   0  0  0  0  0  0  0  0  0  0  0  0
    4.9291    0.0173   -1.6170 H   0  0  0  0  0  0  0  0  0  0  0  0
    3.9149    1.4820   -1.8364 H   0  0  0  0  0  0  0  0  0  0  0  0
    1.5428    0.2455   -2.4867 C   0  0  0  0  0  0  0  0  0  0  0  0
    1.6691    0.2798   -3.5901 H   0  0  0  0  0  0  0  0  0  0  0  0
    1.3756    1.2824   -2.1444 H   0  0  0  0  0  0  0  0  0  0  0  0
    0.6035   -0.3467   -2.3169 H   0  0  0  0  0  0  0  0  0  0  0  0
    3.3041   -1.7382    1.0309 C   0  0  0  0  0  0  0  0  0  0  0  0
    4.8058   -1.6312    0.7238 C   0  0  0  0  0  0  0  0  0  0  0  0
    5.3663   -2.3142    1.3963 H   0  0  0  0  0  0  0  0  0  0  0  0
    5.1966   -0.6084    0.8970 H   0  0  0  0  0  0  0  0  0  0  0  0
    5.0467   -1.9265   -0.3151 H   0  0  0  0  0  0  0  0  0  0  0  0
    3.0591   -1.4446    2.5259 C   0  0  0  0  0  0  0  0  0  0  0  0
    3.4603   -2.2885    3.1240 H   0  0  0  0  0  0  0  0  0  0  0  0
    1.9799   -1.3537    2.7617 H   0  0  0  0  0  0  0  0  0  0  0  0
    3.5781   -0.5315    2.8776 H   0  0  0  0  0  0  0  0  0  0  0  0
    2.7778   -3.1550    0.7401 C   0  0  0  0  0  0  0  0  0  0  0  0
    3.3709   -3.8837    1.3306 H   0  0  0  0  0  0  0  0  0  0  0  0
    2.8617   -3.4448   -0.3219 H   0  0  0  0  0  0  0  0  0  0  0  0
    1.7193   -3.2641    1.0431 H   0  0  0  0  0  0  0  0  0  0  0  0
  1 30  1  6  0  0  0
  1 15  1  0  0  0  0
  1 18  1  0  0  0  0
  2 51  1  0  0  0  0
  2 67  1  0  0  0  0
  3 15  1  0  0  0  0
  3  5  1  0  0  0  0
  3 11  1  0  0  0  0
  4 51  1  0  0  0  0
  4 43  1  0  0  0  0
  5  4  1  0  0  0  0
  5  6  1  0  0  0  0
  7  3  1  0  0  0  0
  8  7  1  0  0  0  0
  9  7  1  0  0  0  0
 10  7  1  0  0  0  0
 11 13  1  0  0  0  0
 12 11  1  0  0  0  0
 14 11  1  0  0  0  0
 15 16  1  0  0  0  0
 17 15  1  0  0  0  0
 18 19  1  0  0  0  0
 18 22  1  0  0  0  0
 19 20  1  0  0  0  0
 19 21  1  0  0  0  0
 22 25  1  0  0  0  0
 22 23  1  0  0  0  0
 24 22  1  0  0  0  0
 26 18  1  0  0  0  0
 26 27  1  0  0  0  0
 28 26  1  0  0  0  0
 29 26  1  0  0  0  0
 30 31  1  0  0  0  0
 31 33  1  0  0  0  0
 31 34  1  0  0  0  0
 32 31  1  0  0  0  0
 35 30  1  0  0  0  0
 35 37  1  0  0  0  0
 36 35  1  0  0  0  0
 38 35  1  0  0  0  0
 39 42  1  0  0  0  0
 39 30  1  0  0  0  0
 40 39  1  0  0  0  0
 41 39  1  0  0  0  0
 43 45  1  0  0  0  0
 43 46  1  0  0  0  0
 44 43  1  0  0  0  0
 47 50  1  0  0  0  0
 47  4  1  0  0  0  0
 48 47  1  0  0  0  0
 49 47  1  0  0  0  0
 51 53  1  0  0  0  0
 52 51  1  0  0  0  0
 54  2  1  0  0  0  0
 55 57  1  0  0  0  0
 55 58  1  0  0  0  0
 55 54  1  0  0  0  0
 56 55  1  0  0  0  0
 59 62  1  0  0  0  0
 59 54  1  0  0  0  0
 59 61  1  0  0  0  0
 60 59  1  0  0  0  0
 63 66  1  0  0  0  0
 63 65  1  0  0  0  0
 63 54  1  0  0  0  0
 64 63  1  0  0  0  0
 67 72  1  0  0  0  0
 68 70  1  0  0  0  0
 68 67  1  0  0  0  0
 68 69  1  0  0  0  0
 71 68  1  0  0  0  0
 72 74  1  0  0  0  0
 72 75  1  0  0  0  0
 72 73  1  0  0  0  0
 76 67  1  0  0  0  0
 76 79  1  0  0  0  0
 76 77  1  0  0  0  0
 78 76  1  0  0  0  0
M  END
