1,4
 OpenBabel05122313063D

 61 65  0  0  0  0  0  0  0  0999 V2000
    1.0755   -0.6644    0.3882 P   0  0  0  0  0  0  0  0  0  0  0  0
   -2.6089    0.4055   -0.3035 P   0  0  0  0  0  0  0  0  0  0  0  0
   -1.8684    0.8920   -1.5372 O   0  0  0  0  0  0  0  0  0  0  0  0
    1.4213    2.1562    0.0385 N   0  0  0  0  0  2  0  0  0  0  0  0
   -0.1092    0.5502    0.8539 N   0  0  0  0  0  0  0  0  0  0  0  0
    1.7732    3.4454   -0.1984 C   0  0  0  0  0  3  0  0  0  0  0  0
    2.7667    3.5562   -0.6674 H   0  0  0  0  0  0  0  0  0  0  0  0
    0.9423    4.5189    0.1126 C   0  0  0  0  0  0  0  0  0  0  0  0
    1.2752    5.5415   -0.1102 H   0  0  0  0  0  0  0  0  0  0  0  0
   -0.3039    4.2544    0.7016 C   0  0  0  0  0  0  0  0  0  0  0  0
   -0.9937    5.0709    0.9623 H   0  0  0  0  0  0  0  0  0  0  0  0
   -0.6731    2.9339    0.9570 C   0  0  0  0  0  0  0  0  0  0  0  0
   -1.6463    2.7147    1.4116 H   0  0  0  0  0  0  0  0  0  0  0  0
    0.2051    1.8833    0.6123 C   0  0  0  0  0  0  0  0  0  0  0  0
    1.4133   -1.5726    1.9345 C   0  0  0  0  0  0  0  0  0  0  0  0
    2.2336   -2.7199    1.8547 C   0  0  0  0  0  0  0  0  0  0  0  0
    2.6307   -3.0368    0.8776 H   0  0  0  0  0  0  0  0  0  0  0  0
    2.5739   -3.4108    3.0250 C   0  0  0  0  0  0  0  0  0  0  0  0
    3.2184   -4.3005    2.9615 H   0  0  0  0  0  0  0  0  0  0  0  0
    2.1089   -2.9644    4.2736 C   0  0  0  0  0  0  0  0  0  0  0  0
    2.3802   -3.5107    5.1897 H   0  0  0  0  0  0  0  0  0  0  0  0
    1.3129   -1.8113    4.3543 C   0  0  0  0  0  0  0  0  0  0  0  0
    0.9629   -1.4481    5.3325 H   0  0  0  0  0  0  0  0  0  0  0  0
    0.9691   -1.1101    3.1884 C   0  0  0  0  0  0  0  0  0  0  0  0
    0.3684   -0.1908    3.2538 H   0  0  0  0  0  0  0  0  0  0  0  0
    0.1764   -1.8345   -0.6833 C   0  0  0  0  0  0  0  0  0  0  0  0
    0.1025   -1.5266   -2.0580 C   0  0  0  0  0  0  0  0  0  0  0  0
    0.5790   -0.6083   -2.4316 H   0  0  0  0  0  0  0  0  0  0  0  0
   -0.5641   -2.3983   -2.9269 C   0  0  0  0  0  0  0  0  0  0  0  0
   -0.6153   -2.1611   -3.9999 H   0  0  0  0  0  0  0  0  0  0  0  0
   -1.1595   -3.5707   -2.4325 C   0  0  0  0  0  0  0  0  0  0  0  0
   -1.6809   -4.2539   -3.1198 H   0  0  0  0  0  0  0  0  0  0  0  0
   -1.0935   -3.8750   -1.0642 C   0  0  0  0  0  0  0  0  0  0  0  0
   -1.5662   -4.7895   -0.6766 H   0  0  0  0  0  0  0  0  0  0  0  0
   -0.4237   -3.0103   -0.1871 C   0  0  0  0  0  0  0  0  0  0  0  0
   -0.3543   -3.2576    0.8830 H   0  0  0  0  0  0  0  0  0  0  0  0
   -1.4612    0.1604    1.1892 C   0  0  0  0  0  0  0  0  0  0  0  0
   -1.8522    0.7238    2.0633 H   0  0  0  0  0  0  0  0  0  0  0  0
   -1.4621   -0.9120    1.4623 H   0  0  0  0  0  0  0  0  0  0  0  0
   -3.8753    1.6061    0.2579 C   0  0  0  0  0  0  0  0  0  0  0  0
   -3.9505    2.8152   -0.4604 C   0  0  0  0  0  0  0  0  0  0  0  0
   -3.2723    2.9585   -1.3163 H   0  0  0  0  0  0  0  0  0  0  0  0
   -4.8686    3.8015   -0.0708 C   0  0  0  0  0  0  0  0  0  0  0  0
   -4.9301    4.7453   -0.6339 H   0  0  0  0  0  0  0  0  0  0  0  0
   -5.7081    3.5851    1.0344 C   0  0  0  0  0  0  0  0  0  0  0  0
   -6.4270    4.3605    1.3398 H   0  0  0  0  0  0  0  0  0  0  0  0
   -5.6361    2.3775    1.7490 C   0  0  0  0  0  0  0  0  0  0  0  0
   -6.2993    2.2055    2.6102 H   0  0  0  0  0  0  0  0  0  0  0  0
   -4.7232    1.3851    1.3608 C   0  0  0  0  0  0  0  0  0  0  0  0
   -4.6870    0.4335    1.9145 H   0  0  0  0  0  0  0  0  0  0  0  0
   -3.4830   -1.1813   -0.5348 C   0  0  0  0  0  0  0  0  0  0  0  0
   -3.7888   -1.5331   -1.8631 C   0  0  0  0  0  0  0  0  0  0  0  0
   -3.4528   -0.8717   -2.6761 H   0  0  0  0  0  0  0  0  0  0  0  0
   -4.4902   -2.7182   -2.1283 C   0  0  0  0  0  0  0  0  0  0  0  0
   -4.7281   -2.9913   -3.1676 H   0  0  0  0  0  0  0  0  0  0  0  0
   -4.8769   -3.5595   -1.0735 C   0  0  0  0  0  0  0  0  0  0  0  0
   -5.4240   -4.4910   -1.2838 H   0  0  0  0  0  0  0  0  0  0  0  0
   -4.5607   -3.2176    0.2519 C   0  0  0  0  0  0  0  0  0  0  0  0
   -4.8556   -3.8809    1.0790 H   0  0  0  0  0  0  0  0  0  0  0  0
   -3.8662   -2.0299    0.5233 C   0  0  0  0  0  0  0  0  0  0  0  0
   -3.6206   -1.7781    1.5675 H   0  0  0  0  0  0  0  0  0  0  0  0
  1  5  1  0  0  0  0
  1 15  1  0  0  0  0
  2 40  1  0  0  0  0
  2 37  1  0  0  0  0
  3  2  2  0  0  0  0
  4 14  1  0  0  0  0
  5 37  1  0  0  0  0
  6  4  1  0  0  0  0
  6  8  1  0  0  0  0
  7  6  1  0  0  0  0
  8 10  2  0  0  0  0
  9  8  1  0  0  0  0
 10 12  1  0  0  0  0
 10 11  1  0  0  0  0
 12 13  1  0  0  0  0
 14  5  1  0  0  0  0
 14 12  2  0  0  0  0
 15 24  1  0  0  0  0
 16 15  2  0  0  0  0
 16 18  1  0  0  0  0
 17 16  1  0  0  0  0
 18 20  2  0  0  0  0
 19 18  1  0  0  0  0
 20 22  1  0  0  0  0
 20 21  1  0  0  0  0
 22 23  1  0  0  0  0
 24 25  1  0  0  0  0
 24 22  2  0  0  0  0
 26 35  1  0  0  0  0
 26  1  1  0  0  0  0
 27 26  2  0  0  0  0
 28 27  1  0  0  0  0
 29 31  2  0  0  0  0
 29 27  1  0  0  0  0
 30 29  1  0  0  0  0
 31 33  1  0  0  0  0
 32 31  1  0  0  0  0
 33 34  1  0  0  0  0
 33 35  2  0  0  0  0
 35 36  1  0  0  0  0
 37 39  1  0  0  0  0
 37 38  1  0  0  0  0
 40 49  1  0  0  0  0
 41 43  1  0  0  0  0
 41 40  2  0  0  0  0
 42 41  1  0  0  0  0
 43 45  2  0  0  0  0
 44 43  1  0  0  0  0
 45 46  1  0  0  0  0
 45 47  1  0  0  0  0
 47 48  1  0  0  0  0
 49 47  2  0  0  0  0
 49 50  1  0  0  0  0
 51  2  1  0  0  0  0
 51 60  1  0  0  0  0
 52 51  2  0  0  0  0
 53 52  1  0  0  0  0
 54 52  1  0  0  0  0
 54 56  2  0  0  0  0
 55 54  1  0  0  0  0
 56 58  1  0  0  0  0
 57 56  1  0  0  0  0
 58 60  2  0  0  0  0
 58 59  1  0  0  0  0
 60 61  1  0  0  0  0
M  END
