1,2
 OpenBabel05122313063D

 48 49  0  0  1  0  0  0  0  0999 V2000
   -1.8346    0.3168    0.1369 P   0  0  0  0  0  0  0  0  0  0  0  0
    0.6778    1.4340   -0.0686 N   0  0  0  0  0  2  0  0  0  0  0  0
   -1.5632    2.0169   -0.1767 O   0  0  0  0  0  0  0  0  0  0  0  0
    2.5105   -0.2395    1.4219 C   0  0  0  0  0  0  0  0  0  0  0  0
    1.4595   -0.2521    1.7570 H   0  0  0  0  0  0  0  0  0  0  0  0
    3.3984   -1.2221    1.8702 C   0  0  0  0  0  0  0  0  0  0  0  0
    3.0345   -2.0193    2.5350 H   0  0  0  0  0  0  0  0  0  0  0  0
    4.7393   -1.1961    1.4566 C   0  0  0  0  0  0  0  0  0  0  0  0
    5.4371   -1.9761    1.7968 H   0  0  0  0  0  0  0  0  0  0  0  0
    5.1882   -0.1749    0.6021 C   0  0  0  0  0  0  0  0  0  0  0  0
    6.2357   -0.1592    0.2656 H   0  0  0  0  0  0  0  0  0  0  0  0
    4.3016    0.8113    0.1542 C   0  0  0  0  0  0  0  0  0  0  0  0
    4.6475    1.5794   -0.5531 H   0  0  0  0  0  0  0  0  0  0  0  0
    2.9477    0.7817    0.5478 C   0  0  0  0  0  0  0  0  0  0  0  0
    1.9897    1.8083    0.0970 C   0  0  2  0  0  3  0  0  0  0  0  0
    2.3615    3.1546   -0.0600 C   0  0  0  0  0  0  0  0  0  0  0  0
    3.4125    3.4350    0.0873 H   0  0  0  0  0  0  0  0  0  0  0  0
    1.3891    4.1231   -0.3411 C   0  0  0  0  0  0  0  0  0  0  0  0
    1.6754    5.1771   -0.4714 H   0  0  0  0  0  0  0  0  0  0  0  0
    0.0419    3.7516   -0.3961 C   0  0  0  0  0  0  0  0  0  0  0  0
   -0.7713    4.4717   -0.5521 H   0  0  0  0  0  0  0  0  0  0  0  0
   -0.2733    2.3957   -0.2221 C   0  0  0  0  0  0  0  0  0  0  0  0
   -2.6974    0.4189    1.8236 C   0  0  0  0  0  0  0  0  0  0  0  0
   -3.4885    1.7265    1.9918 C   0  0  0  0  0  0  0  0  0  0  0  0
   -4.3429    1.7998    1.2940 H   0  0  0  0  0  0  0  0  0  0  0  0
   -2.8490    2.6177    1.8492 H   0  0  0  0  0  0  0  0  0  0  0  0
   -3.8948    1.7569    3.0249 H   0  0  0  0  0  0  0  0  0  0  0  0
   -3.6072   -0.8051    2.0243 C   0  0  0  0  0  0  0  0  0  0  0  0
   -3.9543   -0.8193    3.0792 H   0  0  0  0  0  0  0  0  0  0  0  0
   -3.0651   -1.7507    1.8259 H   0  0  0  0  0  0  0  0  0  0  0  0
   -4.5069   -0.7637    1.3800 H   0  0  0  0  0  0  0  0  0  0  0  0
   -1.5373    0.3754    2.8393 C   0  0  0  0  0  0  0  0  0  0  0  0
   -1.9506    0.4553    3.8668 H   0  0  0  0  0  0  0  0  0  0  0  0
   -0.8292    1.2167    2.6952 H   0  0  0  0  0  0  0  0  0  0  0  0
   -0.9742   -0.5754    2.7592 H   0  0  0  0  0  0  0  0  0  0  0  0
   -2.9813   -0.0093   -1.3379 C   0  0  0  0  0  0  0  0  0  0  0  0
   -4.1879    0.9439   -1.3051 C   0  0  0  0  0  0  0  0  0  0  0  0
   -3.8803    2.0036   -1.2149 H   0  0  0  0  0  0  0  0  0  0  0  0
   -4.8893    0.7016   -0.4830 H   0  0  0  0  0  0  0  0  0  0  0  0
   -4.7473    0.8330   -2.2578 H   0  0  0  0  0  0  0  0  0  0  0  0
   -3.4476   -1.4732   -1.3759 C   0  0  0  0  0  0  0  0  0  0  0  0
   -4.0317   -1.6220   -2.3083 H   0  0  0  0  0  0  0  0  0  0  0  0
   -4.1011   -1.7366   -0.5238 H   0  0  0  0  0  0  0  0  0  0  0  0
   -2.5913   -2.1739   -1.3828 H   0  0  0  0  0  0  0  0  0  0  0  0
   -2.1079    0.2730   -2.5784 C   0  0  0  0  0  0  0  0  0  0  0  0
   -1.2058   -0.3726   -2.6024 H   0  0  0  0  0  0  0  0  0  0  0  0
   -1.7801    1.3296   -2.6237 H   0  0  0  0  0  0  0  0  0  0  0  0
   -2.7115    0.0649   -3.4866 H   0  0  0  0  0  0  0  0  0  0  0  0
  1 23  1  0  0  0  0
  2 15  1  0  0  0  0
  3  1  1  0  0  0  0
  4  5  1  0  0  0  0
  4  6  1  0  0  0  0
  6  7  1  0  0  0  0
  8  9  1  0  0  0  0
  8  6  2  0  0  0  0
 10  8  1  0  0  0  0
 11 10  1  0  0  0  0
 12 14  1  0  0  0  0
 12 10  2  0  0  0  0
 13 12  1  0  0  0  0
 14  4  2  0  0  0  0
 15 14  1  1  0  0  0
 16 17  1  0  0  0  0
 16 15  1  0  0  0  0
 18 16  2  0  0  0  0
 19 18  1  0  0  0  0
 20 18  1  0  0  0  0
 20 22  2  0  0  0  0
 21 20  1  0  0  0  0
 22  3  1  0  0  0  0
 22  2  1  0  0  0  0
 23 24  1  0  0  0  0
 23 28  1  0  0  0  0
 23 32  1  0  0  0  0
 24 27  1  0  0  0  0
 25 24  1  0  0  0  0
 26 24  1  0  0  0  0
 28 29  1  0  0  0  0
 30 28  1  0  0  0  0
 31 28  1  0  0  0  0
 32 33  1  0  0  0  0
 34 32  1  0  0  0  0
 35 32  1  0  0  0  0
 36 37  1  0  0  0  0
 36  1  1  0  0  0  0
 37 38  1  0  0  0  0
 37 39  1  0  0  0  0
 40 37  1  0  0  0  0
 41 36  1  0  0  0  0
 41 43  1  0  0  0  0
 42 41  1  0  0  0  0
 44 41  1  0  0  0  0
 45 36  1  0  0  0  0
 46 45  1  0  0  0  0
 47 45  1  0  0  0  0
 48 45  1  0  0  0  0
M  END
