1,5
 OpenBabel05122313063D

 65 68  0  0  1  0  0  0  0  0999 V2000
    1.7930    0.0134    0.0256 P   0  0  0  0  0  0  0  0  0  0  0  0
    0.8168    1.1383   -1.1927 C   0  0  0  0  0  0  0  0  0  0  0  0
   -0.6505    0.9690   -0.7658 C   0  0  2  0  0  3  0  0  0  0  0  0
    0.9844    0.4904   -2.5907 C   0  0  0  0  0  0  0  0  0  0  0  0
   -1.0131   -0.2013   -0.3187 N   0  0  0  0  0  2  0  0  0  0  0  0
    1.3412    2.5789   -1.2221 C   0  0  0  0  0  0  0  0  0  0  0  0
    3.4932   -0.0239   -0.6585 C   0  0  0  0  0  0  0  0  0  0  0  0
    3.8371   -1.0964   -1.5087 C   0  0  0  0  0  0  0  0  0  0  0  0
    5.1029   -1.1389   -2.1116 C   0  0  0  0  0  0  0  0  0  0  0  0
    6.0355   -0.1189   -1.8647 C   0  0  0  0  0  0  0  0  0  0  0  0
    5.7018    0.9465   -1.0122 C   0  0  0  0  0  0  0  0  0  0  0  0
    4.4362    0.9968   -0.4097 C   0  0  0  0  0  0  0  0  0  0  0  0
    1.9531    0.9134    1.6170 C   0  0  0  0  0  0  0  0  0  0  0  0
    2.9693    0.5016    2.5094 C   0  0  0  0  0  0  0  0  0  0  0  0
    3.0524    1.0519    3.7953 C   0  0  0  0  0  0  0  0  0  0  0  0
    2.1201    2.0148    4.2155 C   0  0  0  0  0  0  0  0  0  0  0  0
    1.1014    2.4209    3.3407 C   0  0  0  0  0  0  0  0  0  0  0  0
    1.0144    1.8726    2.0520 C   0  0  0  0  0  0  0  0  0  0  0  0
   -1.5972    2.1148   -0.8898 C   0  0  0  0  0  0  0  0  0  0  0  0
   -2.3596    2.5266    0.2267 C   0  0  0  0  0  0  0  0  0  0  0  0
   -3.2497    3.6031    0.1245 C   0  0  0  0  0  0  0  0  0  0  0  0
   -3.4073    4.2773   -1.0967 C   0  0  0  0  0  0  0  0  0  0  0  0
   -2.6617    3.8731   -2.2147 C   0  0  0  0  0  0  0  0  0  0  0  0
   -1.7580    2.8066   -2.1113 C   0  0  0  0  0  0  0  0  0  0  0  0
   -2.3757   -0.5141   -0.0309 C   0  0  0  0  0  0  0  0  0  0  0  0
   -2.7749   -0.6837    1.3169 C   0  0  0  0  0  0  0  0  0  0  0  0
   -4.1171   -1.0028    1.5713 C   0  0  0  0  0  0  0  0  0  0  0  0
   -5.0506   -1.2014    0.5362 C   0  0  0  0  0  0  0  0  0  0  0  0
   -4.5968   -1.0905   -0.7883 C   0  0  0  0  0  0  0  0  0  0  0  0
   -3.2662   -0.7608   -1.1005 C   0  0  0  0  0  0  0  0  0  0  0  0
   -1.7783   -0.5551    2.4364 C   0  0  0  0  0  0  0  0  0  0  0  0
   -6.4779   -1.5756    0.8484 C   0  0  0  0  0  0  0  0  0  0  0  0
   -2.7810   -0.7489   -2.5252 C   0  0  0  0  0  0  0  0  0  0  0  0
    0.6645   -0.5704   -2.5789 H   0  0  0  0  0  0  0  0  0  0  0  0
    0.3702    1.0334   -3.3368 H   0  0  0  0  0  0  0  0  0  0  0  0
    2.0407    0.5425   -2.9202 H   0  0  0  0  0  0  0  0  0  0  0  0
    1.1833    3.1170   -0.2697 H   0  0  0  0  0  0  0  0  0  0  0  0
    2.4281    2.5705   -1.4367 H   0  0  0  0  0  0  0  0  0  0  0  0
    0.8527    3.1663   -2.0235 H   0  0  0  0  0  0  0  0  0  0  0  0
    3.1022   -1.8974   -1.6837 H   0  0  0  0  0  0  0  0  0  0  0  0
    5.3645   -1.9800   -2.7712 H   0  0  0  0  0  0  0  0  0  0  0  0
    7.0308   -0.1571   -2.3332 H   0  0  0  0  0  0  0  0  0  0  0  0
    6.4333    1.7444   -0.8129 H   0  0  0  0  0  0  0  0  0  0  0  0
    4.1824    1.8269    0.2666 H   0  0  0  0  0  0  0  0  0  0  0  0
    3.6976   -0.2615    2.1946 H   0  0  0  0  0  0  0  0  0  0  0  0
    3.8504    0.7207    4.4770 H   0  0  0  0  0  0  0  0  0  0  0  0
    2.1862    2.4452    5.2260 H   0  0  0  0  0  0  0  0  0  0  0  0
    0.3627    3.1715    3.6606 H   0  0  0  0  0  0  0  0  0  0  0  0
    0.2013    2.1998    1.3898 H   0  0  0  0  0  0  0  0  0  0  0  0
   -2.2530    1.9949    1.1818 H   0  0  0  0  0  0  0  0  0  0  0  0
   -3.8315    3.9110    1.0061 H   0  0  0  0  0  0  0  0  0  0  0  0
   -4.1139    5.1169   -1.1780 H   0  0  0  0  0  0  0  0  0  0  0  0
   -2.7846    4.3903   -3.1781 H   0  0  0  0  0  0  0  0  0  0  0  0
   -1.1899    2.4927   -2.9987 H   0  0  0  0  0  0  0  0  0  0  0  0
   -4.4385   -1.1180    2.6194 H   0  0  0  0  0  0  0  0  0  0  0  0
   -5.2967   -1.2850   -1.6171 H   0  0  0  0  0  0  0  0  0  0  0  0
   -0.9779   -1.3199    2.3202 H   0  0  0  0  0  0  0  0  0  0  0  0
   -1.2608    0.4268    2.4483 H   0  0  0  0  0  0  0  0  0  0  0  0
   -2.2608   -0.7001    3.4213 H   0  0  0  0  0  0  0  0  0  0  0  0
   -7.1236   -1.5092   -0.0488 H   0  0  0  0  0  0  0  0  0  0  0  0
   -6.5436   -2.6171    1.2298 H   0  0  0  0  0  0  0  0  0  0  0  0
   -6.9099   -0.9194    1.6317 H   0  0  0  0  0  0  0  0  0  0  0  0
   -3.5750   -1.0935   -3.2141 H   0  0  0  0  0  0  0  0  0  0  0  0
   -2.4639    0.2611   -2.8585 H   0  0  0  0  0  0  0  0  0  0  0  0
   -1.9101   -1.4294   -2.6305 H   0  0  0  0  0  0  0  0  0  0  0  0
  1 13  1  0  0  0  0
  2  3  1  0  0  0  0
  2  1  1  0  0  0  0
  3  5  1  6  0  0  0
  4 34  1  0  0  0  0
  4  2  1  0  0  0  0
  5 25  1  0  0  0  0
  6  2  1  0  0  0  0
  6 37  1  0  0  0  0
  7 12  1  0  0  0  0
  7  1  1  0  0  0  0
  8  7  2  0  0  0  0
  9 10  2  0  0  0  0
  9  8  1  0  0  0  0
 10 11  1  0  0  0  0
 11 43  1  0  0  0  0
 11 12  2  0  0  0  0
 12 44  1  0  0  0  0
 13 18  2  0  0  0  0
 13 14  1  0  0  0  0
 14 15  2  0  0  0  0
 15 16  1  0  0  0  0
 15 46  1  0  0  0  0
 16 47  1  0  0  0  0
 17 48  1  0  0  0  0
 17 16  2  0  0  0  0
 18 17  1  0  0  0  0
 19  3  1  0  0  0  0
 19 20  1  0  0  0  0
 20 50  1  0  0  0  0
 21 20  2  0  0  0  0
 21 51  1  0  0  0  0
 22 21  1  0  0  0  0
 23 24  1  0  0  0  0
 23 22  2  0  0  0  0
 24 19  2  0  0  0  0
 25 26  1  0  0  0  0
 26 27  2  0  0  0  0
 26 31  1  0  0  0  0
 27 55  1  0  0  0  0
 28 32  1  0  0  0  0
 28 27  1  0  0  0  0
 29 28  2  0  0  0  0
 30 29  1  0  0  0  0
 30 25  2  0  0  0  0
 31 58  1  0  0  0  0
 31 59  1  0  0  0  0
 32 61  1  0  0  0  0
 32 62  1  0  0  0  0
 33 30  1  0  0  0  0
 35  4  1  0  0  0  0
 36  4  1  0  0  0  0
 38  6  1  0  0  0  0
 39  6  1  0  0  0  0
 40  8  1  0  0  0  0
 41  9  1  0  0  0  0
 42 10  1  0  0  0  0
 45 14  1  0  0  0  0
 49 18  1  0  0  0  0
 52 22  1  0  0  0  0
 53 23  1  0  0  0  0
 54 24  1  0  0  0  0
 56 29  1  0  0  0  0
 57 31  1  0  0  0  0
 60 32  1  0  0  0  0
 63 33  1  0  0  0  0
 64 33  1  0  0  0  0
 65 33  1  0  0  0  0
M  END
