1,2
 OpenBabel05122313063D

 74 78  0  0  1  0  0  0  0  0999 V2000
   -0.0595    1.2318    0.1650 P   0  0  1  0  0  0  0  0  0  0  0  0
    1.5275   -1.2881    0.2825 N   0  0  0  0  0  2  0  0  0  0  0  0
    2.3075   -2.0139    2.2559 O   0  0  0  0  0  0  0  0  0  0  0  0
   -2.3328   -0.4761    0.0486 N   0  0  0  0  0  0  0  0  0  0  0  0
   -4.1333    0.0717   -1.2258 O   0  0  0  0  0  0  0  0  0  0  0  0
   -0.2097    0.6851    1.9164 C   0  0  0  0  0  0  0  0  0  0  0  0
   -1.0585    1.3843    2.7923 C   0  0  0  0  0  0  0  0  0  0  0  0
   -1.6392    2.2361    2.4099 H   0  0  0  0  0  0  0  0  0  0  0  0
   -1.1840    1.0054    4.1369 C   0  0  0  0  0  0  0  0  0  0  0  0
   -1.8649    1.5618    4.7984 H   0  0  0  0  0  0  0  0  0  0  0  0
   -0.4426   -0.0779    4.6305 C   0  0  0  0  0  0  0  0  0  0  0  0
   -0.5339   -0.3824    5.6835 H   0  0  0  0  0  0  0  0  0  0  0  0
    0.4136   -0.7785    3.7752 C   0  0  0  0  0  0  0  0  0  0  0  0
    0.9962   -1.6327    4.1446 H   0  0  0  0  0  0  0  0  0  0  0  0
    0.5367   -0.4174    2.4134 C   0  0  0  0  0  0  0  0  0  0  0  0
    1.4475   -1.2189    1.5823 C   0  0  2  0  0  3  0  0  0  0  0  0
    2.9400   -2.8653    1.2613 C   0  0  0  0  0  0  0  0  0  0  0  0
    2.4449   -3.8580    1.3065 H   0  0  0  0  0  0  0  0  0  0  0  0
    4.0042   -2.9712    1.5383 H   0  0  0  0  0  0  0  0  0  0  0  0
    2.6897   -2.1432   -0.0736 C   0  0  2  0  0  0  0  0  0  0  0  0
    2.3436   -2.8376   -0.8665 H   0  0  0  0  0  0  0  0  0  0  0  0
    3.9043   -1.3281   -0.6286 C   0  0  0  0  0  0  0  0  0  0  0  0
    3.5192   -0.6338   -1.9468 C   0  0  0  0  0  0  0  0  0  0  0  0
    2.7396    0.1383   -1.7869 H   0  0  0  0  0  0  0  0  0  0  0  0
    3.1125   -1.3546   -2.6829 H   0  0  0  0  0  0  0  0  0  0  0  0
    4.4083   -0.1340   -2.3832 H   0  0  0  0  0  0  0  0  0  0  0  0
    4.3809   -0.2760    0.3878 C   0  0  0  0  0  0  0  0  0  0  0  0
    5.2543    0.2755   -0.0149 H   0  0  0  0  0  0  0  0  0  0  0  0
    4.6898   -0.7264    1.3536 H   0  0  0  0  0  0  0  0  0  0  0  0
    3.5894    0.4723    0.5917 H   0  0  0  0  0  0  0  0  0  0  0  0
    5.0335   -2.3344   -0.9261 C   0  0  0  0  0  0  0  0  0  0  0  0
    4.6972   -3.1109   -1.6433 H   0  0  0  0  0  0  0  0  0  0  0  0
    5.4062   -2.8446   -0.0140 H   0  0  0  0  0  0  0  0  0  0  0  0
    5.8972   -1.8081   -1.3800 H   0  0  0  0  0  0  0  0  0  0  0  0
   -1.4848    2.3684   -0.0967 C   0  0  0  0  0  0  0  0  0  0  0  0
   -1.2702    3.7589   -0.0354 C   0  0  0  0  0  0  0  0  0  0  0  0
   -0.2641    4.1440    0.1833 H   0  0  0  0  0  0  0  0  0  0  0  0
   -2.3207    4.6610   -0.2637 C   0  0  0  0  0  0  0  0  0  0  0  0
   -2.1283    5.7430   -0.2092 H   0  0  0  0  0  0  0  0  0  0  0  0
   -3.6015    4.1824   -0.5743 C   0  0  0  0  0  0  0  0  0  0  0  0
   -4.4252    4.8854   -0.7689 H   0  0  0  0  0  0  0  0  0  0  0  0
   -3.8293    2.8028   -0.6437 C   0  0  0  0  0  0  0  0  0  0  0  0
   -4.8213    2.4057   -0.9000 H   0  0  0  0  0  0  0  0  0  0  0  0
   -2.7896    1.8863   -0.3923 C   0  0  0  0  0  0  0  0  0  0  0  0
   -3.0602    0.4461   -0.4820 C   0  0  0  0  0  0  0  0  0  0  0  0
   -4.1643   -1.3774   -1.1676 C   0  0  0  0  0  0  0  0  0  0  0  0
   -4.2376   -1.7587   -2.2029 H   0  0  0  0  0  0  0  0  0  0  0  0
   -5.0719   -1.6786   -0.6010 H   0  0  0  0  0  0  0  0  0  0  0  0
   -2.8358   -1.7626   -0.4614 C   0  0  2  0  0  0  0  0  0  0  0  0
   -2.0946   -2.1118   -1.2180 H   0  0  0  0  0  0  0  0  0  0  0  0
   -2.9256   -2.8697    0.6208 C   0  0  0  0  0  0  0  0  0  0  0  0
   -1.5002   -3.1599    1.1227 C   0  0  0  0  0  0  0  0  0  0  0  0
   -1.0875   -2.2676    1.6288 H   0  0  0  0  0  0  0  0  0  0  0  0
   -0.8274   -3.4144    0.2782 H   0  0  0  0  0  0  0  0  0  0  0  0
   -1.5046   -4.0005    1.8471 H   0  0  0  0  0  0  0  0  0  0  0  0
   -3.5010   -4.1383   -0.0341 C   0  0  0  0  0  0  0  0  0  0  0  0
   -3.5236   -4.9756    0.6932 H   0  0  0  0  0  0  0  0  0  0  0  0
   -2.8792   -4.4536   -0.8973 H   0  0  0  0  0  0  0  0  0  0  0  0
   -4.5398   -3.9875   -0.3948 H   0  0  0  0  0  0  0  0  0  0  0  0
   -3.8030   -2.4201    1.8003 C   0  0  0  0  0  0  0  0  0  0  0  0
   -3.8278   -3.2020    2.5867 H   0  0  0  0  0  0  0  0  0  0  0  0
   -4.8525   -2.2284    1.4943 H   0  0  0  0  0  0  0  0  0  0  0  0
   -3.4014   -1.4889    2.2495 H   0  0  0  0  0  0  0  0  0  0  0  0
    1.4046    2.3455    0.1760 C   0  0  0  0  0  0  0  0  0  0  0  0
    2.0726    2.7378    1.3523 C   0  0  0  0  0  0  0  0  0  0  0  0
    1.6867    2.4290    2.3354 H   0  0  0  0  0  0  0  0  0  0  0  0
    3.2384    3.5171    1.2683 C   0  0  0  0  0  0  0  0  0  0  0  0
    3.7629    3.8142    2.1891 H   0  0  0  0  0  0  0  0  0  0  0  0
    3.7341    3.9120    0.0164 C   0  0  0  0  0  0  0  0  0  0  0  0
    4.6501    4.5189   -0.0460 H   0  0  0  0  0  0  0  0  0  0  0  0
    3.0632    3.5282   -1.1582 C   0  0  0  0  0  0  0  0  0  0  0  0
    3.4514    3.8331   -2.1418 H   0  0  0  0  0  0  0  0  0  0  0  0
    1.9070    2.7410   -1.0841 C   0  0  0  0  0  0  0  0  0  0  0  0
    1.3850    2.4141   -1.9991 H   0  0  0  0  0  0  0  0  0  0  0  0
  1 35  1  1  0  0  0
  1 64  1  0  0  0  0
  1  6  1  0  0  0  0
  2 16  1  0  0  0  0
  5 46  1  0  0  0  0
  5 45  1  0  0  0  0
  6 15  2  0  0  0  0
  6  7  1  0  0  0  0
  7  9  2  0  0  0  0
  8  7  1  0  0  0  0
  9 11  1  0  0  0  0
  9 10  1  0  0  0  0
 11 12  1  0  0  0  0
 13 14  1  0  0  0  0
 13 11  2  0  0  0  0
 15 13  1  0  0  0  0
 16  3  1  0  0  0  0
 16 15  1  6  0  0  0
 17 18  1  0  0  0  0
 17 19  1  0  0  0  0
 17  3  1  0  0  0  0
 20 21  1  6  0  0  0
 20  2  1  0  0  0  0
 20 17  1  0  0  0  0
 22 20  1  0  0  0  0
 22 27  1  0  0  0  0
 23 24  1  0  0  0  0
 23 22  1  0  0  0  0
 25 23  1  0  0  0  0
 26 23  1  0  0  0  0
 27 30  1  0  0  0  0
 27 29  1  0  0  0  0
 28 27  1  0  0  0  0
 31 22  1  0  0  0  0
 31 33  1  0  0  0  0
 32 31  1  0  0  0  0
 34 31  1  0  0  0  0
 35 36  1  0  0  0  0
 36 37  1  0  0  0  0
 38 39  1  0  0  0  0
 38 36  2  0  0  0  0
 40 38  1  0  0  0  0
 41 40  1  0  0  0  0
 42 40  2  0  0  0  0
 42 44  1  0  0  0  0
 43 42  1  0  0  0  0
 44 35  2  0  0  0  0
 45 44  1  0  0  0  0
 45  4  2  0  0  0  0
 46 48  1  0  0  0  0
 46 49  1  0  0  0  0
 47 46  1  0  0  0  0
 49 50  1  6  0  0  0
 49  4  1  0  0  0  0
 49 51  1  0  0  0  0
 51 52  1  0  0  0  0
 51 60  1  0  0  0  0
 52 53  1  0  0  0  0
 52 55  1  0  0  0  0
 54 52  1  0  0  0  0
 56 51  1  0  0  0  0
 56 57  1  0  0  0  0
 58 56  1  0  0  0  0
 59 56  1  0  0  0  0
 60 63  1  0  0  0  0
 60 61  1  0  0  0  0
 62 60  1  0  0  0  0
 64 65  1  0  0  0  0
 65 66  1  0  0  0  0
 67 65  2  0  0  0  0
 67 68  1  0  0  0  0
 69 67  1  0  0  0  0
 70 69  1  0  0  0  0
 71 73  1  0  0  0  0
 71 69  2  0  0  0  0
 72 71  1  0  0  0  0
 73 64  2  0  0  0  0
 74 73  1  0  0  0  0
M  END
