1,2
 OpenBabel05122313063D

 36 35  0  0  0  0  0  0  0  0999 V2000
    2.5805   -0.7396   -0.1392 P   0  0  0  0  0  0  0  0  0  0  0  0
    0.2843   -1.8458   -1.9226 N   0  0  0  0  0  0  0  0  0  0  0  0
    2.7786   -1.5001   -1.8401 C   0  0  0  0  0  0  0  0  0  0  0  0
    2.8312   -0.6597   -2.5623 H   0  0  0  0  0  0  0  0  0  0  0  0
    3.7398   -2.0486   -1.9199 H   0  0  0  0  0  0  0  0  0  0  0  0
    1.6156   -2.4341   -2.1731 C   0  0  0  0  0  0  0  0  0  0  0  0
    1.6876   -2.7667   -3.2389 H   0  0  0  0  0  0  0  0  0  0  0  0
    1.6822   -3.3468   -1.5507 H   0  0  0  0  0  0  0  0  0  0  0  0
   -0.0514   -0.8070   -2.9104 C   0  0  0  0  0  0  0  0  0  0  0  0
    0.6648    0.0335   -2.8482 H   0  0  0  0  0  0  0  0  0  0  0  0
   -1.0554   -0.4060   -2.6794 H   0  0  0  0  0  0  0  0  0  0  0  0
   -0.0483   -1.2224   -3.9476 H   0  0  0  0  0  0  0  0  0  0  0  0
   -0.7441   -2.8971   -1.9215 C   0  0  0  0  0  0  0  0  0  0  0  0
   -0.8043   -3.4060   -2.9133 H   0  0  0  0  0  0  0  0  0  0  0  0
   -1.7225   -2.4464   -1.6717 H   0  0  0  0  0  0  0  0  0  0  0  0
   -0.5043   -3.6460   -1.1429 H   0  0  0  0  0  0  0  0  0  0  0  0
    3.6102    0.8193   -0.2486 C   0  0  0  0  0  0  0  0  0  0  0  0
    3.5936    1.1996    0.7940 H   0  0  0  0  0  0  0  0  0  0  0  0
    2.8864    1.8429   -1.1312 C   0  0  0  0  0  0  0  0  0  0  0  0
    3.3885    2.8297   -1.0708 H   0  0  0  0  0  0  0  0  0  0  0  0
    1.8303    1.9793   -0.8255 H   0  0  0  0  0  0  0  0  0  0  0  0
    2.8921    1.5412   -2.1999 H   0  0  0  0  0  0  0  0  0  0  0  0
    5.0630    0.5886   -0.6750 C   0  0  0  0  0  0  0  0  0  0  0  0
    5.1284    0.1698   -1.7006 H   0  0  0  0  0  0  0  0  0  0  0  0
    5.6063   -0.0940    0.0087 H   0  0  0  0  0  0  0  0  0  0  0  0
    5.6129    1.5526   -0.6831 H   0  0  0  0  0  0  0  0  0  0  0  0
    3.5464   -1.9011    0.9768 C   0  0  0  0  0  0  0  0  0  0  0  0
    4.5622   -1.9859    0.5307 H   0  0  0  0  0  0  0  0  0  0  0  0
    3.6627   -1.3296    2.3929 C   0  0  0  0  0  0  0  0  0  0  0  0
    2.6587   -1.2041    2.8470 H   0  0  0  0  0  0  0  0  0  0  0  0
    4.1757   -0.3480    2.4167 H   0  0  0  0  0  0  0  0  0  0  0  0
    4.2417   -2.0245    3.0357 H   0  0  0  0  0  0  0  0  0  0  0  0
    2.8905   -3.2878    0.9997 C   0  0  0  0  0  0  0  0  0  0  0  0
    3.3996   -3.9375    1.7414 H   0  0  0  0  0  0  0  0  0  0  0  0
    2.9505   -3.8017    0.0205 H   0  0  0  0  0  0  0  0  0  0  0  0
    1.8205   -3.2094    1.2862 H   0  0  0  0  0  0  0  0  0  0  0  0
  1 27  1  0  0  0  0
  2 13  1  0  0  0  0
  3  1  1  0  0  0  0
  4  3  1  0  0  0  0
  5  3  1  0  0  0  0
  6  2  1  0  0  0  0
  6  3  1  0  0  0  0
  6  8  1  0  0  0  0
  7  6  1  0  0  0  0
  9 10  1  0  0  0  0
  9 11  1  0  0  0  0
  9  2  1  0  0  0  0
 12  9  1  0  0  0  0
 13 15  1  0  0  0  0
 13 16  1  0  0  0  0
 14 13  1  0  0  0  0
 17  1  1  0  0  0  0
 17 18  1  0  0  0  0
 19 20  1  0  0  0  0
 19 21  1  0  0  0  0
 19 17  1  0  0  0  0
 22 19  1  0  0  0  0
 23 17  1  0  0  0  0
 23 25  1  0  0  0  0
 24 23  1  0  0  0  0
 26 23  1  0  0  0  0
 27 33  1  0  0  0  0
 27 29  1  0  0  0  0
 28 27  1  0  0  0  0
 29 31  1  0  0  0  0
 29 30  1  0  0  0  0
 29 32  1  0  0  0  0
 33 36  1  0  0  0  0
 33 34  1  0  0  0  0
 35 33  1  0  0  0  0
M  END
