1,2
 OpenBabel05122313063D

 35 37  0  0  1  0  0  0  0  0999 V2000
   -1.3473   -0.0932    0.3190 P   0  0  0  0  0  0  0  0  0  0  0  0
    1.1488   -1.0546    1.4011 N   0  0  0  0  0  2  0  0  0  0  0  0
    0.4555   -2.2308    3.1981 O   0  0  0  0  0  0  0  0  0  0  0  0
    2.3600   -1.7530    1.8447 C   0  0  0  0  0  0  0  0  0  0  0  0
    3.1724   -1.0176    2.0114 H   0  0  0  0  0  0  0  0  0  0  0  0
    2.7077   -2.4299    1.0377 H   0  0  0  0  0  0  0  0  0  0  0  0
    1.8946   -2.4908    3.1241 C   0  0  0  0  0  0  0  0  0  0  0  0
    2.0357   -3.5885    3.0911 H   0  0  0  0  0  0  0  0  0  0  0  0
    2.3510   -2.0968    4.0544 H   0  0  0  0  0  0  0  0  0  0  0  0
    0.1753   -1.3839    2.1916 C   0  0  1  0  0  3  0  0  0  0  0  0
   -1.2147   -0.8589    2.0391 C   0  0  0  0  0  0  0  0  0  0  0  0
   -1.3923   -0.0527    2.7817 H   0  0  0  0  0  0  0  0  0  0  0  0
   -1.9619   -1.6542    2.2304 H   0  0  0  0  0  0  0  0  0  0  0  0
   -2.2859   -1.3283   -0.6626 C   0  0  0  0  0  0  0  0  0  0  0  0
   -3.4279   -1.9892   -0.1611 C   0  0  0  0  0  0  0  0  0  0  0  0
   -3.7973   -1.7730    0.8539 H   0  0  0  0  0  0  0  0  0  0  0  0
   -4.1067   -2.9236   -0.9567 C   0  0  0  0  0  0  0  0  0  0  0  0
   -4.9946   -3.4385   -0.5593 H   0  0  0  0  0  0  0  0  0  0  0  0
   -3.6532   -3.2012   -2.2572 C   0  0  0  0  0  0  0  0  0  0  0  0
   -4.1864   -3.9361   -2.8792 H   0  0  0  0  0  0  0  0  0  0  0  0
   -2.5182   -2.5462   -2.7600 C   0  0  0  0  0  0  0  0  0  0  0  0
   -2.1572   -2.7661   -3.7759 H   0  0  0  0  0  0  0  0  0  0  0  0
   -1.8320   -1.6147   -1.9660 C   0  0  0  0  0  0  0  0  0  0  0  0
   -0.9279   -1.1069   -2.3380 H   0  0  0  0  0  0  0  0  0  0  0  0
   -2.4873    1.3277    0.5576 C   0  0  0  0  0  0  0  0  0  0  0  0
   -3.8166    1.3525    0.0941 C   0  0  0  0  0  0  0  0  0  0  0  0
   -4.2348    0.4834   -0.4341 H   0  0  0  0  0  0  0  0  0  0  0  0
   -4.6074    2.4954    0.2959 C   0  0  0  0  0  0  0  0  0  0  0  0
   -5.6445    2.5107   -0.0724 H   0  0  0  0  0  0  0  0  0  0  0  0
   -4.0787    3.6139    0.9573 C   0  0  0  0  0  0  0  0  0  0  0  0
   -4.7014    4.5081    1.1115 H   0  0  0  0  0  0  0  0  0  0  0  0
   -2.7470    3.5982    1.4061 C   0  0  0  0  0  0  0  0  0  0  0  0
   -2.3212    4.4812    1.9059 H   0  0  0  0  0  0  0  0  0  0  0  0
   -1.9493    2.4657    1.1973 C   0  0  0  0  0  0  0  0  0  0  0  0
   -0.8897    2.4639    1.5021 H   0  0  0  0  0  0  0  0  0  0  0  0
  1 25  1  0  0  0  0
  1 11  1  0  0  0  0
  2  4  1  0  0  0  0
  2 10  1  0  0  0  0
  4  5  1  0  0  0  0
  4  7  1  0  0  0  0
  6  4  1  0  0  0  0
  7  3  1  0  0  0  0
  7  9  1  0  0  0  0
  8  7  1  0  0  0  0
 10 11  1  1  0  0  0
 10  3  1  0  0  0  0
 11 13  1  0  0  0  0
 11 12  1  0  0  0  0
 14 15  1  0  0  0  0
 14  1  1  0  0  0  0
 15 16  1  0  0  0  0
 17 18  1  0  0  0  0
 17 15  2  0  0  0  0
 19 17  1  0  0  0  0
 20 19  1  0  0  0  0
 21 19  2  0  0  0  0
 21 23  1  0  0  0  0
 22 21  1  0  0  0  0
 23 14  2  0  0  0  0
 24 23  1  0  0  0  0
 25 34  1  0  0  0  0
 26 28  1  0  0  0  0
 26 25  2  0  0  0  0
 27 26  1  0  0  0  0
 28 30  2  0  0  0  0
 29 28  1  0  0  0  0
 30 31  1  0  0  0  0
 30 32  1  0  0  0  0
 32 33  1  0  0  0  0
 34 32  2  0  0  0  0
 34 35  1  0  0  0  0
M  END
