1,2
 OpenBabel05122313063D

 43 45  0  0  0  0  0  0  0  0999 V2000
   -1.4675   -0.2803   -0.0717 P   0  0  0  0  0  0  0  0  0  0  0  0
    1.1107   -1.6323    0.5562 N   0  0  0  0  0  2  0  0  0  0  0  0
   -2.1483   -0.9989    1.4650 C   0  0  0  0  0  0  0  0  0  0  0  0
   -2.7530    0.8095   -0.7698 C   0  0  0  0  0  0  0  0  0  0  0  0
   -1.3639   -1.6932   -1.2558 C   0  0  0  0  0  0  0  0  0  0  0  0
   -2.9957   -2.1258    1.4469 C   0  0  0  0  0  0  0  0  0  0  0  0
   -3.2522   -2.6111    0.4928 H   0  0  0  0  0  0  0  0  0  0  0  0
   -1.8161   -0.3826    2.6903 C   0  0  0  0  0  0  0  0  0  0  0  0
   -1.1468    0.4930    2.6972 H   0  0  0  0  0  0  0  0  0  0  0  0
   -2.4308    1.5668   -1.9180 C   0  0  0  0  0  0  0  0  0  0  0  0
   -1.4215    1.5020   -2.3542 H   0  0  0  0  0  0  0  0  0  0  0  0
   -4.0294    0.9215   -0.1839 C   0  0  0  0  0  0  0  0  0  0  0  0
   -4.2791    0.3398    0.7158 H   0  0  0  0  0  0  0  0  0  0  0  0
   -2.3010   -1.8229   -2.2951 C   0  0  0  0  0  0  0  0  0  0  0  0
   -3.0787   -1.0566   -2.4236 H   0  0  0  0  0  0  0  0  0  0  0  0
   -0.3721   -2.7029   -1.0857 C   0  0  0  0  0  0  0  0  0  0  0  0
   -3.5085   -2.6287    2.6519 C   0  0  0  0  0  0  0  0  0  0  0  0
   -4.1685   -3.5090    2.6388 H   0  0  0  0  0  0  0  0  0  0  0  0
   -2.3376   -0.8889    3.8897 C   0  0  0  0  0  0  0  0  0  0  0  0
   -2.0807   -0.4066    4.8446 H   0  0  0  0  0  0  0  0  0  0  0  0
   -2.2631   -2.9247   -3.1679 C   0  0  0  0  0  0  0  0  0  0  0  0
   -3.0027   -3.0000   -3.9788 H   0  0  0  0  0  0  0  0  0  0  0  0
    0.6361   -2.6876   -0.0187 C   0  0  0  0  0  3  0  0  0  0  0  0
    0.9999   -3.6851    0.2962 H   0  0  0  0  0  0  0  0  0  0  0  0
   -0.3785   -3.8239   -1.9440 C   0  0  0  0  0  0  0  0  0  0  0  0
    0.3681   -4.6185   -1.7891 H   0  0  0  0  0  0  0  0  0  0  0  0
   -1.3025   -3.9293   -2.9918 C   0  0  0  0  0  0  0  0  0  0  0  0
   -1.2775   -4.8002   -3.6628 H   0  0  0  0  0  0  0  0  0  0  0  0
   -3.1816   -2.0116    3.8707 C   0  0  0  0  0  0  0  0  0  0  0  0
   -3.5859   -2.4104    4.8131 H   0  0  0  0  0  0  0  0  0  0  0  0
   -3.3901    2.4150   -2.4841 C   0  0  0  0  0  0  0  0  0  0  0  0
   -3.1387    3.0036   -3.3788 H   0  0  0  0  0  0  0  0  0  0  0  0
   -4.9813    1.7833   -0.7527 C   0  0  0  0  0  0  0  0  0  0  0  0
   -5.9768    1.8733   -0.2933 H   0  0  0  0  0  0  0  0  0  0  0  0
   -4.6649    2.5255   -1.9008 C   0  0  0  0  0  0  0  0  0  0  0  0
   -5.4137    3.1998   -2.3425 H   0  0  0  0  0  0  0  0  0  0  0  0
    2.0149   -1.7494    1.7102 C   0  0  0  0  0  0  0  0  0  0  0  0
    1.4680   -1.2822    2.5600 H   0  0  0  0  0  0  0  0  0  0  0  0
    2.8762   -1.0801    1.5092 H   0  0  0  0  0  0  0  0  0  0  0  0
    2.5064   -3.1387    2.0875 C   0  0  0  0  0  0  0  0  0  0  0  0
    3.1862   -3.0510    2.9566 H   0  0  0  0  0  0  0  0  0  0  0  0
    3.0833   -3.6076    1.2644 H   0  0  0  0  0  0  0  0  0  0  0  0
    1.6835   -3.8209    2.3816 H   0  0  0  0  0  0  0  0  0  0  0  0
  1  3  1  0  0  0  0
  2 37  1  0  0  0  0
  3  8  1  0  0  0  0
  4 12  1  0  0  0  0
  4  1  1  0  0  0  0
  5 16  1  0  0  0  0
  5  1  1  0  0  0  0
  6  3  2  0  0  0  0
  6 17  1  0  0  0  0
  7  6  1  0  0  0  0
  8  9  1  0  0  0  0
  8 19  2  0  0  0  0
 10  4  2  0  0  0  0
 11 10  1  0  0  0  0
 12 13  1  0  0  0  0
 14  5  2  0  0  0  0
 15 14  1  0  0  0  0
 16 23  1  0  0  0  0
 17 29  2  0  0  0  0
 18 17  1  0  0  0  0
 19 20  1  0  0  0  0
 21 27  2  0  0  0  0
 21 14  1  0  0  0  0
 22 21  1  0  0  0  0
 23 24  1  0  0  0  0
 23  2  1  0  0  0  0
 25 26  1  0  0  0  0
 25 16  2  0  0  0  0
 27 25  1  0  0  0  0
 28 27  1  0  0  0  0
 29 19  1  0  0  0  0
 29 30  1  0  0  0  0
 31 10  1  0  0  0  0
 31 35  2  0  0  0  0
 32 31  1  0  0  0  0
 33 34  1  0  0  0  0
 33 12  2  0  0  0  0
 35 33  1  0  0  0  0
 36 35  1  0  0  0  0
 37 40  1  0  0  0  0
 37 38  1  0  0  0  0
 39 37  1  0  0  0  0
 40 43  1  0  0  0  0
 40 41  1  0  0  0  0
 42 40  1  0  0  0  0
M  END
