1,12
 OpenBabel05122313063D

 26 27  0  0  1  0  0  0  0  0999 V2000
    0.8072   -0.7095    0.0020 P   0  0  0  0  0  0  0  0  0  0  0  0
    2.2666   -1.6332    0.0016 C   0  0  0  0  0  0  0  0  0  0  0  0
    3.5567   -1.0744    0.0007 C   0  0  0  0  0  0  0  0  0  0  0  0
    3.7887    0.3361   -0.0000 C   0  0  0  0  0  0  0  0  0  0  0  0
    2.7327    1.2656   -0.0001 C   0  0  0  0  0  0  0  0  0  0  0  0
    1.3645    0.9484    0.0007 C   0  0  0  0  0  0  0  0  0  0  0  0
    0.2583    1.9102    0.0002 C   0  0  2  0  0  3  0  0  0  0  0  0
    0.4637    3.3079    0.0003 C   0  0  0  0  0  0  0  0  0  0  0  0
   -0.6215    4.1832   -0.0002 C   0  0  0  0  0  0  0  0  0  0  0  0
   -1.9157    3.6400   -0.0007 C   0  0  0  0  0  0  0  0  0  0  0  0
   -2.0599    2.2510   -0.0007 C   0  0  0  0  0  0  0  0  0  0  0  0
   -1.0177    1.3866   -0.0003 N   0  0  0  0  0  2  0  0  0  0  0  0
    4.7422   -2.0084    0.0006 C   0  0  0  0  0  0  0  0  0  0  0  0
    5.2076    0.8494   -0.0009 C   0  0  0  0  0  0  0  0  0  0  0  0
    2.1636   -2.7302    0.0021 H   0  0  0  0  0  0  0  0  0  0  0  0
    3.0233    2.3303   -0.0009 H   0  0  0  0  0  0  0  0  0  0  0  0
    1.4903    3.6985    0.0008 H   0  0  0  0  0  0  0  0  0  0  0  0
   -0.4622    5.2717   -0.0002 H   0  0  0  0  0  0  0  0  0  0  0  0
   -2.8116    4.2763   -0.0011 H   0  0  0  0  0  0  0  0  0  0  0  0
   -3.0605    1.7992   -0.0011 H   0  0  0  0  0  0  0  0  0  0  0  0
    4.4256   -3.0677    0.0013 H   0  0  0  0  0  0  0  0  0  0  0  0
    5.3869   -1.8423   -0.8880 H   0  0  0  0  0  0  0  0  0  0  0  0
    5.3878   -1.8414    0.8884 H   0  0  0  0  0  0  0  0  0  0  0  0
    5.2360    1.9555   -0.0016 H   0  0  0  0  0  0  0  0  0  0  0  0
    5.7743    0.4981    0.8874 H   0  0  0  0  0  0  0  0  0  0  0  0
    5.7737    0.4969   -0.8891 H   0  0  0  0  0  0  0  0  0  0  0  0
  2  1  2  0  0  0  0
  2 15  1  0  0  0  0
  3  2  1  0  0  0  0
  4  3  2  0  0  0  0
  5  4  1  0  0  0  0
  5  6  2  0  0  0  0
  6  1  1  0  0  0  0
  7  8  1  0  0  0  0
  7  6  1  1  0  0  0
  8 17  1  0  0  0  0
  9 18  1  0  0  0  0
  9  8  2  0  0  0  0
 10 11  2  0  0  0  0
 10  9  1  0  0  0  0
 11 12  1  0  0  0  0
 12  7  1  0  0  0  0
 13  3  1  0  0  0  0
 13 21  1  0  0  0  0
 13 23  1  0  0  0  0
 14  4  1  0  0  0  0
 14 25  1  0  0  0  0
 16  5  1  0  0  0  0
 19 10  1  0  0  0  0
 20 11  1  0  0  0  0
 22 13  1  0  0  0  0
 24 14  1  0  0  0  0
 26 14  1  0  0  0  0
M  END
