1,2
 OpenBabel05122313063D

 44 45  0  0  0  0  0  0  0  0999 V2000
    0.9477   -0.0159   -0.4575 P   0  0  0  0  0  0  0  0  0  0  0  0
   -2.0461   -0.1410   -1.4485 N   0  0  0  0  0  0  0  0  0  0  0  0
    0.3656   -0.0484   -2.2302 C   0  0  0  0  0  0  0  0  0  0  0  0
   -0.9859   -0.7564   -2.2983 C   0  0  0  0  0  0  0  0  0  0  0  0
   -2.3828    1.2137   -1.9859 C   0  0  0  0  0  0  0  0  0  0  0  0
   -3.5882    1.8858   -1.3434 C   0  0  0  0  0  0  0  0  0  0  0  0
   -3.2444   -1.0407   -1.4369 C   0  0  0  0  0  0  0  0  0  0  0  0
   -3.9455   -1.2790   -2.7760 C   0  0  0  0  0  0  0  0  0  0  0  0
    2.1223   -1.4378   -0.3207 C   0  0  0  0  0  0  0  0  0  0  0  0
    2.1289   -2.1929    0.8683 C   0  0  0  0  0  0  0  0  0  0  0  0
    3.0342   -3.2535    1.0278 C   0  0  0  0  0  0  0  0  0  0  0  0
    3.9372   -3.5698    0.0020 C   0  0  0  0  0  0  0  0  0  0  0  0
    3.9430   -2.8139   -1.1823 C   0  0  0  0  0  0  0  0  0  0  0  0
    3.0453   -1.7489   -1.3404 C   0  0  0  0  0  0  0  0  0  0  0  0
    2.1005    1.4200   -0.3780 C   0  0  0  0  0  0  0  0  0  0  0  0
    2.7700    1.9294   -1.5093 C   0  0  0  0  0  0  0  0  0  0  0  0
    3.6525    3.0128   -1.3801 C   0  0  0  0  0  0  0  0  0  0  0  0
    3.8800    3.5901   -0.1209 C   0  0  0  0  0  0  0  0  0  0  0  0
    3.2208    3.0825    1.0099 C   0  0  0  0  0  0  0  0  0  0  0  0
    2.3319    2.0054    0.8837 C   0  0  0  0  0  0  0  0  0  0  0  0
    1.0844   -0.5645   -2.8974 H   0  0  0  0  0  0  0  0  0  0  0  0
    0.2921    1.0001   -2.5806 H   0  0  0  0  0  0  0  0  0  0  0  0
   -1.3214   -0.7836   -3.3611 H   0  0  0  0  0  0  0  0  0  0  0  0
   -0.8692   -1.8073   -1.9621 H   0  0  0  0  0  0  0  0  0  0  0  0
   -1.4907    1.8500   -1.8334 H   0  0  0  0  0  0  0  0  0  0  0  0
   -2.5383    1.1396   -3.0893 H   0  0  0  0  0  0  0  0  0  0  0  0
   -3.6430    2.9370   -1.6878 H   0  0  0  0  0  0  0  0  0  0  0  0
   -3.5001    1.8946   -0.2403 H   0  0  0  0  0  0  0  0  0  0  0  0
   -4.5450    1.3974   -1.6123 H   0  0  0  0  0  0  0  0  0  0  0  0
   -3.9587   -0.6220   -0.7050 H   0  0  0  0  0  0  0  0  0  0  0  0
   -2.9062   -2.0045   -1.0097 H   0  0  0  0  0  0  0  0  0  0  0  0
   -4.8150   -1.9446   -2.6064 H   0  0  0  0  0  0  0  0  0  0  0  0
   -3.2966   -1.7777   -3.5228 H   0  0  0  0  0  0  0  0  0  0  0  0
   -4.3342   -0.3447   -3.2284 H   0  0  0  0  0  0  0  0  0  0  0  0
    1.4216   -1.9414    1.6720 H   0  0  0  0  0  0  0  0  0  0  0  0
    3.0281   -3.8373    1.9606 H   0  0  0  0  0  0  0  0  0  0  0  0
    4.6427   -4.4055    0.1251 H   0  0  0  0  0  0  0  0  0  0  0  0
    4.6558   -3.0521   -1.9865 H   0  0  0  0  0  0  0  0  0  0  0  0
    3.0782   -1.1509   -2.2646 H   0  0  0  0  0  0  0  0  0  0  0  0
    2.6085    1.4847   -2.5031 H   0  0  0  0  0  0  0  0  0  0  0  0
    4.1660    3.4078   -2.2700 H   0  0  0  0  0  0  0  0  0  0  0  0
    4.5712    4.4408   -0.0217 H   0  0  0  0  0  0  0  0  0  0  0  0
    3.3916    3.5335    1.9990 H   0  0  0  0  0  0  0  0  0  0  0  0
    1.8052    1.6167    1.7686 H   0  0  0  0  0  0  0  0  0  0  0  0
  1 15  1  0  0  0  0
  1  9  1  0  0  0  0
  2  7  1  0  0  0  0
  3  1  1  0  0  0  0
  4  3  1  0  0  0  0
  4 24  1  0  0  0  0
  4  2  1  0  0  0  0
  5 25  1  0  0  0  0
  5  2  1  0  0  0  0
  5  6  1  0  0  0  0
  6 28  1  0  0  0  0
  7 31  1  0  0  0  0
  7 30  1  0  0  0  0
  8 32  1  0  0  0  0
  8  7  1  0  0  0  0
  9 10  1  0  0  0  0
 10 11  2  0  0  0  0
 10 35  1  0  0  0  0
 11 36  1  0  0  0  0
 12 37  1  0  0  0  0
 12 11  1  0  0  0  0
 13 12  2  0  0  0  0
 14 13  1  0  0  0  0
 14  9  2  0  0  0  0
 15 20  1  0  0  0  0
 16 17  1  0  0  0  0
 16 15  2  0  0  0  0
 17 18  2  0  0  0  0
 18 42  1  0  0  0  0
 18 19  1  0  0  0  0
 19 43  1  0  0  0  0
 20 19  2  0  0  0  0
 20 44  1  0  0  0  0
 21  3  1  0  0  0  0
 22  3  1  0  0  0  0
 23  4  1  0  0  0  0
 26  5  1  0  0  0  0
 27  6  1  0  0  0  0
 29  6  1  0  0  0  0
 33  8  1  0  0  0  0
 34  8  1  0  0  0  0
 38 13  1  0  0  0  0
 39 14  1  0  0  0  0
 40 16  1  0  0  0  0
 41 17  1  0  0  0  0
M  END
