1,2
 OpenBabel05122313063D

 46 50  0  0  1  0  0  0  0  0999 V2000
   -1.8533    1.6620   -0.0101 N   0  0  0  0  0  2  0  0  0  0  0  0
    0.2600   -0.2186    0.4868 P   0  0  1  0  0  0  0  0  0  0  0  0
    3.5655   -0.7739   -2.5530 S   0  0  0  0  0  0  0  0  0  0  0  0
    0.3161    1.5092    1.2063 C   0  0  1  0  0  0  0  0  0  0  0  0
    0.1516    1.4440    2.3029 H   0  0  0  0  0  0  0  0  0  0  0  0
    1.7007    2.0231    0.8666 C   0  0  0  0  0  0  0  0  0  0  0  0
    2.3698    2.9932    1.5504 C   0  0  0  0  0  0  0  0  0  0  0  0
    3.7107    3.4918    1.0860 C   0  0  0  0  0  0  0  0  0  0  0  0
    4.5246    2.9508    1.6257 H   0  0  0  0  0  0  0  0  0  0  0  0
    3.8372    4.5596    1.3619 H   0  0  0  0  0  0  0  0  0  0  0  0
    3.8645    3.3040   -0.4288 C   0  0  0  0  0  0  0  0  0  0  0  0
    4.8797    3.6000   -0.7608 H   0  0  0  0  0  0  0  0  0  0  0  0
    3.1481    3.9817   -0.9408 H   0  0  0  0  0  0  0  0  0  0  0  0
    3.5770    1.8592   -0.8598 C   0  0  0  0  0  0  0  0  0  0  0  0
    3.5390    1.7902   -1.9678 H   0  0  0  0  0  0  0  0  0  0  0  0
    4.4190    1.1935   -0.5563 H   0  0  0  0  0  0  0  0  0  0  0  0
    2.2976    1.3181   -0.2712 C   0  0  0  0  0  0  0  0  0  0  0  0
    1.6903    0.1249   -0.6276 C   0  0  0  0  0  0  0  0  0  0  0  0
    2.0842   -0.8712   -1.5925 C   0  0  0  0  0  0  0  0  0  0  0  0
    1.4063   -2.0604   -1.8873 C   0  0  0  0  0  0  0  0  0  0  0  0
    0.4509   -2.3443   -1.4123 H   0  0  0  0  0  0  0  0  0  0  0  0
    2.0631   -2.8548   -2.8628 C   0  0  0  0  0  0  0  0  0  0  0  0
    1.6765   -3.8169   -3.2247 H   0  0  0  0  0  0  0  0  0  0  0  0
    3.2427   -2.2881   -3.3154 C   0  0  0  0  0  0  0  0  0  0  0  0
    3.9433   -2.6783   -4.0642 H   0  0  0  0  0  0  0  0  0  0  0  0
   -0.8098    2.3238    0.5841 C   0  0  2  0  0  3  0  0  0  0  0  0
   -0.7922    3.7254    0.6308 C   0  0  0  0  0  0  0  0  0  0  0  0
    0.0681    4.2227    1.0982 H   0  0  0  0  0  0  0  0  0  0  0  0
   -1.8440    4.4672    0.0820 C   0  0  0  0  0  0  0  0  0  0  0  0
   -1.8306    5.5666    0.1191 H   0  0  0  0  0  0  0  0  0  0  0  0
   -2.9054    3.7749   -0.5142 C   0  0  0  0  0  0  0  0  0  0  0  0
   -3.7598    4.3001   -0.9640 H   0  0  0  0  0  0  0  0  0  0  0  0
   -2.8758    2.3808   -0.5450 C   0  0  0  0  0  0  0  0  0  0  0  0
   -3.6821    1.7667   -0.9827 H   0  0  0  0  0  0  0  0  0  0  0  0
    0.9142   -1.3475    1.7677 C   0  0  0  0  0  0  0  0  0  0  0  0
    0.0146   -2.1594    2.4878 C   0  0  0  0  0  0  0  0  0  0  0  0
   -1.0518   -2.1591    2.2176 H   0  0  0  0  0  0  0  0  0  0  0  0
    0.4963   -2.9866    3.5130 C   0  0  0  0  0  0  0  0  0  0  0  0
   -0.2061   -3.6247    4.0700 H   0  0  0  0  0  0  0  0  0  0  0  0
    1.8666   -3.0124    3.8168 C   0  0  0  0  0  0  0  0  0  0  0  0
    2.2404   -3.6682    4.6179 H   0  0  0  0  0  0  0  0  0  0  0  0
    2.7638   -2.2111    3.0915 C   0  0  0  0  0  0  0  0  0  0  0  0
    3.8397   -2.2377    3.3216 H   0  0  0  0  0  0  0  0  0  0  0  0
    2.2923   -1.3804    2.0654 C   0  0  0  0  0  0  0  0  0  0  0  0
    2.9946   -0.7602    1.4885 H   0  0  0  0  0  0  0  0  0  0  0  0
    1.9271    3.4211    2.4651 H   0  0  0  0  0  0  0  0  0  0  0  0
  2  4  1  0  0  0  0
  2 35  1  1  0  0  0
  3 19  1  0  0  0  0
  4  5  1  1  0  0  0
  6  4  1  0  0  0  0
  6  7  2  0  0  0  0
  7 46  1  0  0  0  0
  8 10  1  0  0  0  0
  8  7  1  0  0  0  0
  8  9  1  0  0  0  0
 11  8  1  0  0  0  0
 12 11  1  0  0  0  0
 13 11  1  0  0  0  0
 14 16  1  0  0  0  0
 14 11  1  0  0  0  0
 14 17  1  0  0  0  0
 15 14  1  0  0  0  0
 17  6  1  0  0  0  0
 18 17  2  0  0  0  0
 18  2  1  0  0  0  0
 19 18  1  0  0  0  0
 20 19  2  0  0  0  0
 20 21  1  0  0  0  0
 22 20  1  0  0  0  0
 23 22  1  0  0  0  0
 24 22  2  0  0  0  0
 24  3  1  0  0  0  0
 25 24  1  0  0  0  0
 26  1  1  1  0  0  0
 26 27  1  0  0  0  0
 26  4  1  0  0  0  0
 27 28  1  0  0  0  0
 29 30  1  0  0  0  0
 29 27  2  0  0  0  0
 31 29  1  0  0  0  0
 32 31  1  0  0  0  0
 33 31  2  0  0  0  0
 33  1  1  0  0  0  0
 34 33  1  0  0  0  0
 35 44  2  0  0  0  0
 35 36  1  0  0  0  0
 36 38  2  0  0  0  0
 37 36  1  0  0  0  0
 38 40  1  0  0  0  0
 38 39  1  0  0  0  0
 40 41  1  0  0  0  0
 42 43  1  0  0  0  0
 42 40  2  0  0  0  0
 44 42  1  0  0  0  0
 45 44  1  0  0  0  0
M  END
