1,4
 OpenBabel05122313063D

 39 39  0  0  1  0  0  0  0  0999 V2000
   -0.9078    0.1759    0.2294 P   0  0  0  0  0  0  0  0  0  0  0  0
    0.1243    0.7686    1.5220 N   0  0  0  0  0  0  0  0  0  0  0  0
   -0.1912    1.2987    2.3357 H   0  0  0  0  0  0  0  0  0  0  0  0
    1.8028    0.0957    0.0780 N   0  0  0  0  0  2  0  0  0  0  0  0
    1.4736    0.7426    1.2482 C   0  0  1  0  0  3  0  0  0  0  0  0
    2.4657    1.3371    2.0486 C   0  0  0  0  0  0  0  0  0  0  0  0
    2.1719    1.8422    2.9800 H   0  0  0  0  0  0  0  0  0  0  0  0
    3.8052    1.2737    1.6467 C   0  0  0  0  0  0  0  0  0  0  0  0
    4.5882    1.7332    2.2668 H   0  0  0  0  0  0  0  0  0  0  0  0
    4.1296    0.6243    0.4414 C   0  0  0  0  0  0  0  0  0  0  0  0
    5.1653    0.5598    0.0815 H   0  0  0  0  0  0  0  0  0  0  0  0
    3.1066    0.0510   -0.3101 C   0  0  0  0  0  0  0  0  0  0  0  0
    3.2956   -0.4627   -1.2645 H   0  0  0  0  0  0  0  0  0  0  0  0
   -2.2583   -0.8785    1.0767 C   0  0  0  0  0  0  0  0  0  0  0  0
   -2.6734   -1.9151    0.0111 C   0  0  0  0  0  0  0  0  0  0  0  0
   -3.4612   -2.5753    0.4321 H   0  0  0  0  0  0  0  0  0  0  0  0
   -1.8123   -2.5472   -0.2815 H   0  0  0  0  0  0  0  0  0  0  0  0
   -3.0871   -1.4364   -0.8996 H   0  0  0  0  0  0  0  0  0  0  0  0
   -1.6075   -1.5887    2.2769 C   0  0  0  0  0  0  0  0  0  0  0  0
   -1.3737   -0.8802    3.0962 H   0  0  0  0  0  0  0  0  0  0  0  0
   -0.6794   -2.1191    1.9881 H   0  0  0  0  0  0  0  0  0  0  0  0
   -2.3249   -2.3382    2.6733 H   0  0  0  0  0  0  0  0  0  0  0  0
   -3.4954   -0.1102    1.5635 C   0  0  0  0  0  0  0  0  0  0  0  0
   -4.1857   -0.8365    2.0430 H   0  0  0  0  0  0  0  0  0  0  0  0
   -4.0532    0.3740    0.7395 H   0  0  0  0  0  0  0  0  0  0  0  0
   -3.2485    0.6555    2.3248 H   0  0  0  0  0  0  0  0  0  0  0  0
   -1.5994    1.8098   -0.4945 C   0  0  0  0  0  0  0  0  0  0  0  0
   -2.5447    1.4502   -1.6522 C   0  0  0  0  0  0  0  0  0  0  0  0
   -3.4591    0.9293   -1.3040 H   0  0  0  0  0  0  0  0  0  0  0  0
   -2.0269    0.8115   -2.3959 H   0  0  0  0  0  0  0  0  0  0  0  0
   -2.8686    2.3792   -2.1677 H   0  0  0  0  0  0  0  0  0  0  0  0
   -0.3741    2.5757   -1.0337 C   0  0  0  0  0  0  0  0  0  0  0  0
    0.1886    1.9836   -1.7785 H   0  0  0  0  0  0  0  0  0  0  0  0
    0.3138    2.8726   -0.2167 H   0  0  0  0  0  0  0  0  0  0  0  0
   -0.7292    3.5067   -1.5243 H   0  0  0  0  0  0  0  0  0  0  0  0
   -2.2932    2.7052    0.5467 C   0  0  0  0  0  0  0  0  0  0  0  0
   -2.4708    3.7019    0.0897 H   0  0  0  0  0  0  0  0  0  0  0  0
   -1.6550    2.8776    1.4383 H   0  0  0  0  0  0  0  0  0  0  0  0
   -3.2705    2.3199    0.8821 H   0  0  0  0  0  0  0  0  0  0  0  0
  1 14  1  0  0  0  0
  1  2  1  0  0  0  0
  2  3  1  0  0  0  0
  4  5  1  0  0  0  0
  5  2  1  6  0  0  0
  5  6  1  0  0  0  0
  6  7  1  0  0  0  0
  8  6  2  0  0  0  0
  8  9  1  0  0  0  0
 10  8  1  0  0  0  0
 11 10  1  0  0  0  0
 12  4  1  0  0  0  0
 12 10  2  0  0  0  0
 13 12  1  0  0  0  0
 14 23  1  0  0  0  0
 14 19  1  0  0  0  0
 15 16  1  0  0  0  0
 15 14  1  0  0  0  0
 17 15  1  0  0  0  0
 18 15  1  0  0  0  0
 19 22  1  0  0  0  0
 19 20  1  0  0  0  0
 21 19  1  0  0  0  0
 23 24  1  0  0  0  0
 23 26  1  0  0  0  0
 25 23  1  0  0  0  0
 27  1  1  0  0  0  0
 27 36  1  0  0  0  0
 28 29  1  0  0  0  0
 28 27  1  0  0  0  0
 30 28  1  0  0  0  0
 31 28  1  0  0  0  0
 32 27  1  0  0  0  0
 32 34  1  0  0  0  0
 33 32  1  0  0  0  0
 35 32  1  0  0  0  0
 36 39  1  0  0  0  0
 36 38  1  0  0  0  0
 37 36  1  0  0  0  0
M  END
