1,2
 OpenBabel05122313063D

 33 33  0  0  1  0  0  0  0  0999 V2000
    1.0774    0.3110    0.2198 P   0  0  0  0  0  0  0  0  0  0  0  0
   -1.6141   -0.0397    0.0810 N   0  0  0  0  0  2  0  0  0  0  0  0
   -0.0242    1.0229    1.3832 N   0  0  0  0  0  0  0  0  0  0  0  0
    0.2349    1.6799    2.1208 H   0  0  0  0  0  0  0  0  0  0  0  0
   -1.3624    0.8019    1.1424 C   0  0  1  0  0  3  0  0  0  0  0  0
   -2.4146    1.3711    1.8805 C   0  0  0  0  0  0  0  0  0  0  0  0
   -2.1791    2.0354    2.7244 H   0  0  0  0  0  0  0  0  0  0  0  0
   -3.7393    1.0829    1.5290 C   0  0  0  0  0  0  0  0  0  0  0  0
   -4.5692    1.5209    2.1018 H   0  0  0  0  0  0  0  0  0  0  0  0
   -3.9872    0.2372    0.4326 C   0  0  0  0  0  0  0  0  0  0  0  0
   -5.0091   -0.0070    0.1122 H   0  0  0  0  0  0  0  0  0  0  0  0
   -2.9063   -0.2964   -0.2651 C   0  0  0  0  0  0  0  0  0  0  0  0
   -3.0395   -0.9493   -1.1404 H   0  0  0  0  0  0  0  0  0  0  0  0
    2.4292   -0.4336    1.2711 C   0  0  0  0  0  0  0  0  0  0  0  0
    3.0123    0.4257    1.6685 H   0  0  0  0  0  0  0  0  0  0  0  0
    1.8700   -1.2409    2.4456 C   0  0  0  0  0  0  0  0  0  0  0  0
    1.2434   -2.0799    2.0833 H   0  0  0  0  0  0  0  0  0  0  0  0
    1.2504   -0.6160    3.1181 H   0  0  0  0  0  0  0  0  0  0  0  0
    2.7086   -1.6579    3.0411 H   0  0  0  0  0  0  0  0  0  0  0  0
    3.3240   -1.2743    0.3489 C   0  0  0  0  0  0  0  0  0  0  0  0
    4.1739   -1.7000    0.9207 H   0  0  0  0  0  0  0  0  0  0  0  0
    3.7465   -0.6819   -0.4890 H   0  0  0  0  0  0  0  0  0  0  0  0
    2.7388   -2.1129   -0.0804 H   0  0  0  0  0  0  0  0  0  0  0  0
    1.8571    1.7869   -0.6557 C   0  0  0  0  0  0  0  0  0  0  0  0
    2.2381    1.3253   -1.5934 H   0  0  0  0  0  0  0  0  0  0  0  0
    0.7555    2.7864   -1.0303 C   0  0  0  0  0  0  0  0  0  0  0  0
    0.3411    3.2817   -0.1282 H   0  0  0  0  0  0  0  0  0  0  0  0
   -0.0685    2.2882   -1.5763 H   0  0  0  0  0  0  0  0  0  0  0  0
    1.1735    3.5753   -1.6886 H   0  0  0  0  0  0  0  0  0  0  0  0
    3.0084    2.4611    0.0967 C   0  0  0  0  0  0  0  0  0  0  0  0
    3.3684    3.3369   -0.4825 H   0  0  0  0  0  0  0  0  0  0  0  0
    3.8762    1.7911    0.2525 H   0  0  0  0  0  0  0  0  0  0  0  0
    2.6851    2.8435    1.0886 H   0  0  0  0  0  0  0  0  0  0  0  0
  1 14  1  0  0  0  0
  1  3  1  0  0  0  0
  2  5  1  0  0  0  0
  3  4  1  0  0  0  0
  5  3  1  6  0  0  0
  5  6  1  0  0  0  0
  6  7  1  0  0  0  0
  8  6  2  0  0  0  0
  8  9  1  0  0  0  0
 10  8  1  0  0  0  0
 11 10  1  0  0  0  0
 12  2  1  0  0  0  0
 12 10  2  0  0  0  0
 13 12  1  0  0  0  0
 14 15  1  0  0  0  0
 14 16  1  0  0  0  0
 16 19  1  0  0  0  0
 16 18  1  0  0  0  0
 17 16  1  0  0  0  0
 20 21  1  0  0  0  0
 20 14  1  0  0  0  0
 22 20  1  0  0  0  0
 23 20  1  0  0  0  0
 24 30  1  0  0  0  0
 24  1  1  0  0  0  0
 25 24  1  0  0  0  0
 26 24  1  0  0  0  0
 26 27  1  0  0  0  0
 28 26  1  0  0  0  0
 29 26  1  0  0  0  0
 30 32  1  0  0  0  0
 30 33  1  0  0  0  0
 31 30  1  0  0  0  0
M  END
