1,2
 OpenBabel05122313063D

 60 62  0  0  1  0  0  0  0  0999 V2000
    0.7040   -0.0410    0.2168 P   0  0  0  0  0  0  0  0  0  0  0  0
   -0.7053    2.4432   -1.1344 N   0  0  0  0  0  0  0  0  0  0  0  0
    1.8612    1.3797    0.4125 C   0  0  0  0  0  0  0  0  0  0  0  0
    2.8545    1.3436    1.4174 C   0  0  0  0  0  0  0  0  0  0  0  0
    3.7187    2.4246    1.6311 C   0  0  0  0  0  0  0  0  0  0  0  0
    3.5885    3.5780    0.8452 C   0  0  0  0  0  0  0  0  0  0  0  0
    2.5933    3.6338   -0.1381 C   0  0  0  0  0  0  0  0  0  0  0  0
    1.7204    2.5518   -0.3745 C   0  0  0  0  0  0  0  0  0  0  0  0
    0.7262    2.7070   -1.5180 C   0  0  1  0  0  0  0  0  0  0  0  0
    1.1530    1.8940   -2.7449 C   0  0  0  0  0  0  0  0  0  0  0  0
   -1.0918    3.2620    0.0362 C   0  0  0  0  0  0  0  0  0  0  0  0
   -1.5828    2.8237   -2.2748 C   0  0  0  0  0  0  0  0  0  0  0  0
    1.6827   -1.5281   -0.3421 C   0  0  0  0  0  0  0  0  0  0  0  0
    1.9926   -1.4961   -1.8477 C   0  0  0  0  0  0  0  0  0  0  0  0
    2.5985   -2.8319   -2.3018 C   0  0  0  0  0  0  0  0  0  0  0  0
    3.8435   -3.1934   -1.4836 C   0  0  0  0  0  0  0  0  0  0  0  0
    3.5374   -3.1970    0.0188 C   0  0  0  0  0  0  0  0  0  0  0  0
    2.9415   -1.8552    0.4763 C   0  0  0  0  0  0  0  0  0  0  0  0
    0.2222   -0.4321    1.9892 C   0  0  0  0  0  0  0  0  0  0  0  0
   -0.4558    0.7778    2.6565 C   0  0  0  0  0  0  0  0  0  0  0  0
   -0.8231    0.4782    4.1164 C   0  0  0  0  0  0  0  0  0  0  0  0
   -1.6979   -0.7754    4.2310 C   0  0  0  0  0  0  0  0  0  0  0  0
   -1.0256   -1.9777    3.5590 C   0  0  0  0  0  0  0  0  0  0  0  0
   -0.6734   -1.6787    2.0955 C   0  0  0  0  0  0  0  0  0  0  0  0
    2.9510    0.4542    2.0551 H   0  0  0  0  0  0  0  0  0  0  0  0
    4.4869    2.3665    2.4167 H   0  0  0  0  0  0  0  0  0  0  0  0
    4.2531    4.4402    1.0045 H   0  0  0  0  0  0  0  0  0  0  0  0
    2.4809    4.5464   -0.7449 H   0  0  0  0  0  0  0  0  0  0  0  0
    0.7608    3.7866   -1.7963 H   0  0  0  0  0  0  0  0  0  0  0  0
    0.6501    2.2350   -3.6690 H   0  0  0  0  0  0  0  0  0  0  0  0
    2.2443    1.9939   -2.8960 H   0  0  0  0  0  0  0  0  0  0  0  0
    0.9185    0.8232   -2.5895 H   0  0  0  0  0  0  0  0  0  0  0  0
   -2.1364    3.0124    0.2973 H   0  0  0  0  0  0  0  0  0  0  0  0
   -0.4356    3.0316    0.8927 H   0  0  0  0  0  0  0  0  0  0  0  0
   -1.0071    4.3466   -0.2013 H   0  0  0  0  0  0  0  0  0  0  0  0
   -2.6327    2.7373   -1.9497 H   0  0  0  0  0  0  0  0  0  0  0  0
   -1.3557    3.8668   -2.5924 H   0  0  0  0  0  0  0  0  0  0  0  0
   -1.4346    2.1388   -3.1274 H   0  0  0  0  0  0  0  0  0  0  0  0
    0.9509   -2.3516   -0.1835 H   0  0  0  0  0  0  0  0  0  0  0  0
    2.7031   -0.6667   -2.0629 H   0  0  0  0  0  0  0  0  0  0  0  0
    1.0595   -1.2927   -2.4111 H   0  0  0  0  0  0  0  0  0  0  0  0
    2.8411   -2.7860   -3.3839 H   0  0  0  0  0  0  0  0  0  0  0  0
    1.8262   -3.6229   -2.1811 H   0  0  0  0  0  0  0  0  0  0  0  0
    4.2401   -4.1814   -1.7974 H   0  0  0  0  0  0  0  0  0  0  0  0
    4.6493   -2.4523   -1.6896 H   0  0  0  0  0  0  0  0  0  0  0  0
    2.8099   -4.0079    0.2433 H   0  0  0  0  0  0  0  0  0  0  0  0
    4.4532   -3.4194    0.6058 H   0  0  0  0  0  0  0  0  0  0  0  0
    2.7102   -1.9001    1.5613 H   0  0  0  0  0  0  0  0  0  0  0  0
    3.6981   -1.0522    0.3368 H   0  0  0  0  0  0  0  0  0  0  0  0
    1.1788   -0.6413    2.5209 H   0  0  0  0  0  0  0  0  0  0  0  0
   -1.3786    1.0178    2.0831 H   0  0  0  0  0  0  0  0  0  0  0  0
    0.2032    1.6699    2.6055 H   0  0  0  0  0  0  0  0  0  0  0  0
   -1.3360    1.3573    4.5597 H   0  0  0  0  0  0  0  0  0  0  0  0
    0.1117    0.3318    4.7040 H   0  0  0  0  0  0  0  0  0  0  0  0
   -2.6754   -0.5833    3.7356 H   0  0  0  0  0  0  0  0  0  0  0  0
   -1.9217   -0.9959    5.2956 H   0  0  0  0  0  0  0  0  0  0  0  0
   -0.0994   -2.2444    4.1175 H   0  0  0  0  0  0  0  0  0  0  0  0
   -1.6847   -2.8690    3.6014 H   0  0  0  0  0  0  0  0  0  0  0  0
   -0.1965   -2.5641    1.6294 H   0  0  0  0  0  0  0  0  0  0  0  0
   -1.6048   -1.4938    1.5208 H   0  0  0  0  0  0  0  0  0  0  0  0
  1  3  1  0  0  0  0
  1 19  1  0  0  0  0
  2 11  1  0  0  0  0
  3  4  1  0  0  0  0
  4  5  2  0  0  0  0
  4 25  1  0  0  0  0
  5 26  1  0  0  0  0
  6 27  1  0  0  0  0
  6  5  1  0  0  0  0
  7  6  2  0  0  0  0
  8  7  1  0  0  0  0
  8  3  2  0  0  0  0
  9 29  1  6  0  0  0
  9  2  1  0  0  0  0
  9  8  1  0  0  0  0
 10 32  1  0  0  0  0
 10  9  1  0  0  0  0
 11 33  1  0  0  0  0
 11 34  1  0  0  0  0
 12 36  1  0  0  0  0
 12  2  1  0  0  0  0
 13 39  1  0  0  0  0
 13  1  1  0  0  0  0
 13 18  1  0  0  0  0
 14 13  1  0  0  0  0
 15 43  1  0  0  0  0
 15 14  1  0  0  0  0
 15 16  1  0  0  0  0
 16 17  1  0  0  0  0
 17 46  1  0  0  0  0
 17 18  1  0  0  0  0
 17 47  1  0  0  0  0
 18 48  1  0  0  0  0
 19 24  1  0  0  0  0
 19 50  1  0  0  0  0
 19 20  1  0  0  0  0
 20 21  1  0  0  0  0
 21 22  1  0  0  0  0
 21 53  1  0  0  0  0
 21 54  1  0  0  0  0
 22 56  1  0  0  0  0
 23 58  1  0  0  0  0
 23 57  1  0  0  0  0
 23 22  1  0  0  0  0
 24 23  1  0  0  0  0
 28  7  1  0  0  0  0
 30 10  1  0  0  0  0
 31 10  1  0  0  0  0
 35 11  1  0  0  0  0
 37 12  1  0  0  0  0
 38 12  1  0  0  0  0
 40 14  1  0  0  0  0
 41 14  1  0  0  0  0
 42 15  1  0  0  0  0
 44 16  1  0  0  0  0
 45 16  1  0  0  0  0
 49 18  1  0  0  0  0
 51 20  1  0  0  0  0
 52 20  1  0  0  0  0
 55 22  1  0  0  0  0
 59 24  1  0  0  0  0
 60 24  1  0  0  0  0
M  END
