1,4
 OpenBabel05122313063D

 32 32  0  0  0  0  0  0  0  0999 V2000
   -0.9624    0.5681    0.0000 P   0  0  1  0  0  0  0  0  0  0  0  0
   -0.6374    2.1726   -0.2671 O   0  0  0  0  0  0  0  0  0  0  0  0
   -1.8040    0.7775    1.4149 O   0  0  0  0  0  0  0  0  0  0  0  0
    2.2165    0.8140   -0.2324 N   0  0  0  0  0  0  0  0  0  0  0  0
    2.9890    0.5001    0.3834 H   0  0  0  0  0  0  0  0  0  0  0  0
    2.5869    0.6949   -1.1897 H   0  0  0  0  0  0  0  0  0  0  0  0
   -2.2930    0.1150   -0.9514 N   0  0  0  0  0  0  0  0  0  0  0  0
   -2.1274   -0.8635   -1.2399 H   0  0  0  0  0  0  0  0  0  0  0  0
    0.5995    2.5821   -0.8407 C   0  0  0  0  0  0  0  0  0  0  0  0
    0.5226    3.6834   -0.9332 H   0  0  0  0  0  0  0  0  0  0  0  0
    0.7214    2.1665   -1.8678 H   0  0  0  0  0  0  0  0  0  0  0  0
    1.8597    2.2496   -0.0028 C   0  0  0  0  0  0  0  0  0  0  0  0
   -3.0803    0.1192    1.3192 C   0  0  0  0  0  0  0  0  0  0  0  0
   -3.7643    0.6173    2.0345 H   0  0  0  0  0  0  0  0  0  0  0  0
   -2.9640   -0.9526    1.5908 H   0  0  0  0  0  0  0  0  0  0  0  0
   -3.5494    0.2623   -0.1552 C   0  0  0  0  0  0  0  0  0  0  0  0
    1.6191    2.4659    1.4929 C   0  0  0  0  0  0  0  0  0  0  0  0
    0.8114    1.8132    1.8756 H   0  0  0  0  0  0  0  0  0  0  0  0
    1.3301    3.5170    1.6856 H   0  0  0  0  0  0  0  0  0  0  0  0
    2.5421    2.2492    2.0678 H   0  0  0  0  0  0  0  0  0  0  0  0
    3.0194    3.1193   -0.5124 C   0  0  0  0  0  0  0  0  0  0  0  0
    3.9673    2.8425   -0.0088 H   0  0  0  0  0  0  0  0  0  0  0  0
    2.8267    4.1903   -0.3067 H   0  0  0  0  0  0  0  0  0  0  0  0
    3.1640    3.0025   -1.6071 H   0  0  0  0  0  0  0  0  0  0  0  0
   -4.5317   -0.8436   -0.5347 C   0  0  0  0  0  0  0  0  0  0  0  0
   -4.0663   -1.8416   -0.4013 H   0  0  0  0  0  0  0  0  0  0  0  0
   -4.8520   -0.7393   -1.5903 H   0  0  0  0  0  0  0  0  0  0  0  0
   -5.4362   -0.7937    0.1039 H   0  0  0  0  0  0  0  0  0  0  0  0
   -4.1291    1.6609   -0.4061 C   0  0  0  0  0  0  0  0  0  0  0  0
   -4.3310    1.8001   -1.4858 H   0  0  0  0  0  0  0  0  0  0  0  0
   -3.4107    2.4422   -0.0877 H   0  0  0  0  0  0  0  0  0  0  0  0
   -5.0738    1.8025    0.1566 H   0  0  0  0  0  0  0  0  0  0  0  0
  1  2  1  6  0  0  0
  1  3  1  0  0  0  0
  4 12  1  0  0  0  0
  4  5  1  0  0  0  0
  6  4  1  0  0  0  0
  7 16  1  0  0  0  0
  7  1  1  0  0  0  0
  8  7  1  0  0  0  0
  9  2  1  0  0  0  0
  9 12  1  0  0  0  0
 10  9  1  0  0  0  0
 11  9  1  0  0  0  0
 12 17  1  0  0  0  0
 13  3  1  0  0  0  0
 13 15  1  0  0  0  0
 13 14  1  0  0  0  0
 16 13  1  0  0  0  0
 17 19  1  0  0  0  0
 17 18  1  0  0  0  0
 17 20  1  0  0  0  0
 21 23  1  0  0  0  0
 21 22  1  0  0  0  0
 21 12  1  0  0  0  0
 24 21  1  0  0  0  0
 25 26  1  0  0  0  0
 25 16  1  0  0  0  0
 25 28  1  0  0  0  0
 27 25  1  0  0  0  0
 29 16  1  0  0  0  0
 29 31  1  0  0  0  0
 29 32  1  0  0  0  0
 30 29  1  0  0  0  0
M  END
