1,6
 OpenBabel05122313063D

 56 59  0  0  1  0  0  0  0  0999 V2000
    1.1625   -0.2664   -0.3397 N   0  0  0  0  0  2  0  0  0  0  0  0
    0.9837    0.9613   -0.7690 C   0  0  2  0  0  3  0  0  0  0  0  0
   -0.4224    1.3461   -1.1682 C   0  0  0  0  0  0  0  0  0  0  0  0
   -0.6276    1.0205   -2.2114 H   0  0  0  0  0  0  0  0  0  0  0  0
   -0.6005    2.4378   -1.1176 H   0  0  0  0  0  0  0  0  0  0  0  0
   -1.5983    0.3305   -0.1399 P   0  0  0  0  0  0  0  0  0  0  0  0
    2.4539   -0.7529    0.0398 C   0  0  0  0  0  0  0  0  0  0  0  0
    2.7319   -0.9049    1.4192 C   0  0  0  0  0  0  0  0  0  0  0  0
    1.6840   -0.5990    2.4547 C   0  0  0  0  0  0  0  0  0  0  0  0
    2.0959   -0.6864    3.4776 H   0  0  0  0  0  0  0  0  0  0  0  0
    0.8328   -1.3096    2.3600 H   0  0  0  0  0  0  0  0  0  0  0  0
    1.2506    0.4171    2.3400 H   0  0  0  0  0  0  0  0  0  0  0  0
    4.0122   -1.3623    1.7762 C   0  0  0  0  0  0  0  0  0  0  0  0
    4.2552   -1.4769    2.8440 H   0  0  0  0  0  0  0  0  0  0  0  0
    4.9641   -1.6838    0.7985 C   0  0  0  0  0  0  0  0  0  0  0  0
    5.9591   -2.0452    1.0983 H   0  0  0  0  0  0  0  0  0  0  0  0
    4.6395   -1.5728   -0.5596 C   0  0  0  0  0  0  0  0  0  0  0  0
    5.3720   -1.8629   -1.3287 H   0  0  0  0  0  0  0  0  0  0  0  0
    3.3747   -1.1151   -0.9693 C   0  0  0  0  0  0  0  0  0  0  0  0
    2.9751   -1.0747   -2.4183 C   0  0  0  0  0  0  0  0  0  0  0  0
    3.7878   -1.4566   -3.0640 H   0  0  0  0  0  0  0  0  0  0  0  0
    2.7240   -0.0491   -2.7615 H   0  0  0  0  0  0  0  0  0  0  0  0
    2.0789   -1.7145   -2.5661 H   0  0  0  0  0  0  0  0  0  0  0  0
    2.0449    1.9889   -0.9037 C   0  0  0  0  0  0  0  0  0  0  0  0
    2.0110    2.8500   -2.0280 C   0  0  0  0  0  0  0  0  0  0  0  0
    1.2222    2.7295   -2.7854 H   0  0  0  0  0  0  0  0  0  0  0  0
    2.9918    3.8333   -2.2076 C   0  0  0  0  0  0  0  0  0  0  0  0
    2.9604    4.4783   -3.0983 H   0  0  0  0  0  0  0  0  0  0  0  0
    4.0077    3.9950   -1.2525 C   0  0  0  0  0  0  0  0  0  0  0  0
    4.7755    4.7714   -1.3888 H   0  0  0  0  0  0  0  0  0  0  0  0
    4.0364    3.1649   -0.1203 C   0  0  0  0  0  0  0  0  0  0  0  0
    4.8224    3.2929    0.6388 H   0  0  0  0  0  0  0  0  0  0  0  0
    3.0722    2.1648    0.0532 C   0  0  0  0  0  0  0  0  0  0  0  0
    3.1113    1.5218    0.9408 H   0  0  0  0  0  0  0  0  0  0  0  0
   -1.6823    1.1278    1.4988 C   0  0  0  0  0  0  0  0  0  0  0  0
   -2.3951    0.4262    2.4972 C   0  0  0  0  0  0  0  0  0  0  0  0
   -2.8806   -0.5309    2.2435 H   0  0  0  0  0  0  0  0  0  0  0  0
   -2.4459    0.9336    3.8012 C   0  0  0  0  0  0  0  0  0  0  0  0
   -3.0001    0.3844    4.5771 H   0  0  0  0  0  0  0  0  0  0  0  0
   -1.7778    2.1284    4.1228 C   0  0  0  0  0  0  0  0  0  0  0  0
   -1.8131    2.5191    5.1510 H   0  0  0  0  0  0  0  0  0  0  0  0
   -1.0576    2.8178    3.1359 C   0  0  0  0  0  0  0  0  0  0  0  0
   -0.5272    3.7489    3.3865 H   0  0  0  0  0  0  0  0  0  0  0  0
   -1.0078    2.3217    1.8226 C   0  0  0  0  0  0  0  0  0  0  0  0
   -0.4327    2.8698    1.0613 H   0  0  0  0  0  0  0  0  0  0  0  0
   -3.2342    0.5498   -0.9131 C   0  0  0  0  0  0  0  0  0  0  0  0
   -3.7212   -0.4448   -1.7850 C   0  0  0  0  0  0  0  0  0  0  0  0
   -3.1531   -1.3790   -1.9107 H   0  0  0  0  0  0  0  0  0  0  0  0
   -4.9487   -0.2497   -2.4352 C   0  0  0  0  0  0  0  0  0  0  0  0
   -5.3354   -1.0285   -3.1096 H   0  0  0  0  0  0  0  0  0  0  0  0
   -5.6891    0.9227   -2.2139 C   0  0  0  0  0  0  0  0  0  0  0  0
   -6.6550    1.0668   -2.7217 H   0  0  0  0  0  0  0  0  0  0  0  0
   -5.2077    1.9069   -1.3344 C   0  0  0  0  0  0  0  0  0  0  0  0
   -5.7935    2.8206   -1.1521 H   0  0  0  0  0  0  0  0  0  0  0  0
   -3.9818    1.7227   -0.6793 C   0  0  0  0  0  0  0  0  0  0  0  0
   -3.6089    2.4853    0.0223 H   0  0  0  0  0  0  0  0  0  0  0  0
  1  7  1  0  0  0  0
  2  1  1  6  0  0  0
  3  5  1  0  0  0  0
  3  2  1  0  0  0  0
  3  6  1  0  0  0  0
  4  3  1  0  0  0  0
  6 35  1  0  0  0  0
  7  8  1  0  0  0  0
  8 13  2  0  0  0  0
  8  9  1  0  0  0  0
  9 10  1  0  0  0  0
 11  9  1  0  0  0  0
 12  9  1  0  0  0  0
 13 14  1  0  0  0  0
 15 16  1  0  0  0  0
 15 13  1  0  0  0  0
 17 15  2  0  0  0  0
 18 17  1  0  0  0  0
 19 17  1  0  0  0  0
 19  7  2  0  0  0  0
 20 19  1  0  0  0  0
 21 20  1  0  0  0  0
 22 20  1  0  0  0  0
 23 20  1  0  0  0  0
 24  2  1  0  0  0  0
 24 33  1  0  0  0  0
 25 24  2  0  0  0  0
 26 25  1  0  0  0  0
 27 25  1  0  0  0  0
 27 29  2  0  0  0  0
 28 27  1  0  0  0  0
 29 31  1  0  0  0  0
 30 29  1  0  0  0  0
 31 33  2  0  0  0  0
 31 32  1  0  0  0  0
 33 34  1  0  0  0  0
 35 44  2  0  0  0  0
 35 36  1  0  0  0  0
 36 38  2  0  0  0  0
 37 36  1  0  0  0  0
 38 40  1  0  0  0  0
 38 39  1  0  0  0  0
 40 41  1  0  0  0  0
 42 43  1  0  0  0  0
 42 40  2  0  0  0  0
 44 42  1  0  0  0  0
 45 44  1  0  0  0  0
 46 55  1  0  0  0  0
 46  6  1  0  0  0  0
 47 46  2  0  0  0  0
 48 47  1  0  0  0  0
 49 51  2  0  0  0  0
 49 47  1  0  0  0  0
 50 49  1  0  0  0  0
 51 53  1  0  0  0  0
 52 51  1  0  0  0  0
 53 54  1  0  0  0  0
 53 55  2  0  0  0  0
 55 56  1  0  0  0  0
M  END
