1,2
 OpenBabel05122313063D

 56 58  0  0  0  0  0  0  0  0999 V2000
    0.5330    0.0256    0.0380 P   0  0  0  0  0  0  0  0  0  0  0  0
   -1.1616    2.8801    0.1699 N   0  0  0  0  0  0  0  0  0  0  0  0
    5.1388   -0.3071   -0.3205 N   0  0  0  0  0  0  0  0  0  0  0  0
    1.1067   -0.7773    1.6055 C   0  0  0  0  0  0  0  0  0  0  0  0
    1.7672    1.3962   -0.2215 C   0  0  0  0  0  0  0  0  0  0  0  0
    0.8545   -1.1449   -1.3402 C   0  0  0  0  0  0  0  0  0  0  0  0
    1.4239   -0.6677   -2.5418 C   0  0  0  0  0  0  0  0  0  0  0  0
    1.7792    0.3726   -2.6012 H   0  0  0  0  0  0  0  0  0  0  0  0
    1.2930    2.7055   -0.5239 C   0  0  0  0  0  0  0  0  0  0  0  0
    3.1659    1.1827   -0.0558 C   0  0  0  0  0  0  0  0  0  0  0  0
    1.2656   -0.5595    4.0332 C   0  0  0  0  0  0  0  0  0  0  0  0
    1.1040    0.0375    4.9433 H   0  0  0  0  0  0  0  0  0  0  0  0
    1.6498   -2.0720    1.7007 C   0  0  0  0  0  0  0  0  0  0  0  0
    1.8228   -2.6699    0.7952 H   0  0  0  0  0  0  0  0  0  0  0  0
    0.9092   -0.0297    2.7858 C   0  0  0  0  0  0  0  0  0  0  0  0
    0.4362    0.9626    2.7254 H   0  0  0  0  0  0  0  0  0  0  0  0
    1.0976   -2.8414   -3.5845 C   0  0  0  0  0  0  0  0  0  0  0  0
    1.1917   -3.5031   -4.4588 H   0  0  0  0  0  0  0  0  0  0  0  0
    1.9881   -2.6085    2.9527 C   0  0  0  0  0  0  0  0  0  0  0  0
    2.4016   -3.6268    3.0112 H   0  0  0  0  0  0  0  0  0  0  0  0
    0.3959   -2.4812   -1.2786 C   0  0  0  0  0  0  0  0  0  0  0  0
   -0.0893   -2.8620   -0.3697 H   0  0  0  0  0  0  0  0  0  0  0  0
   -0.1399    3.0375   -0.8923 C   0  0  0  0  0  0  0  0  0  0  0  0
   -0.1490    4.0970   -1.2424 H   0  0  0  0  0  0  0  0  0  0  0  0
   -0.4774    2.4151   -1.7471 H   0  0  0  0  0  0  0  0  0  0  0  0
    4.0476    2.2791   -0.1139 C   0  0  0  0  0  0  0  0  0  0  0  0
    5.1195    2.0683    0.0189 H   0  0  0  0  0  0  0  0  0  0  0  0
    1.5452   -1.5117   -3.6544 C   0  0  0  0  0  0  0  0  0  0  0  0
    1.9940   -1.1270   -4.5830 H   0  0  0  0  0  0  0  0  0  0  0  0
    3.5764    3.5714   -0.3541 C   0  0  0  0  0  0  0  0  0  0  0  0
    4.2746    4.4215   -0.3868 H   0  0  0  0  0  0  0  0  0  0  0  0
    1.8017   -1.8549    4.1214 C   0  0  0  0  0  0  0  0  0  0  0  0
    2.0658   -2.2793    5.1018 H   0  0  0  0  0  0  0  0  0  0  0  0
    2.2100    3.7737   -0.5746 C   0  0  0  0  0  0  0  0  0  0  0  0
    1.8328    4.7828   -0.8025 H   0  0  0  0  0  0  0  0  0  0  0  0
    5.8537   -1.4114    0.2922 C   0  0  0  0  0  0  0  0  0  0  0  0
    5.8642   -1.2946    1.3949 H   0  0  0  0  0  0  0  0  0  0  0  0
    6.9044   -1.4241   -0.0628 H   0  0  0  0  0  0  0  0  0  0  0  0
    5.4070   -2.4158    0.0605 H   0  0  0  0  0  0  0  0  0  0  0  0
    3.7795   -0.1867    0.1879 C   0  0  0  0  0  0  0  0  0  0  0  0
    3.8014   -0.3701    1.2835 H   0  0  0  0  0  0  0  0  0  0  0  0
    3.1168   -0.9794   -0.2356 H   0  0  0  0  0  0  0  0  0  0  0  0
   -2.4243    3.4795   -0.3060 C   0  0  0  0  0  0  0  0  0  0  0  0
   -3.2170    3.2674    0.4355 H   0  0  0  0  0  0  0  0  0  0  0  0
   -2.7090    3.0085   -1.2638 H   0  0  0  0  0  0  0  0  0  0  0  0
   -2.3022    4.5782   -0.4573 H   0  0  0  0  0  0  0  0  0  0  0  0
    0.5244   -3.3197   -2.3956 C   0  0  0  0  0  0  0  0  0  0  0  0
    0.1572   -4.3552   -2.3336 H   0  0  0  0  0  0  0  0  0  0  0  0
   -0.7642    3.5077    1.4407 C   0  0  0  0  0  0  0  0  0  0  0  0
   -0.6390    4.6108    1.3260 H   0  0  0  0  0  0  0  0  0  0  0  0
    0.1932    3.0787    1.7900 H   0  0  0  0  0  0  0  0  0  0  0  0
   -1.5534    3.2928    2.1861 H   0  0  0  0  0  0  0  0  0  0  0  0
    5.1786   -0.3722   -1.7727 C   0  0  0  0  0  0  0  0  0  0  0  0
    6.2306   -0.3741   -2.1236 H   0  0  0  0  0  0  0  0  0  0  0  0
    4.6755    0.5144   -2.2085 H   0  0  0  0  0  0  0  0  0  0  0  0
    4.6723   -1.2852   -2.1841 H   0  0  0  0  0  0  0  0  0  0  0  0
  1  4  1  0  0  0  0
  2 49  1  0  0  0  0
  3 40  1  0  0  0  0
  3 36  1  0  0  0  0
  4 13  2  0  0  0  0
  4 15  1  0  0  0  0
  5 10  1  0  0  0  0
  5  1  1  0  0  0  0
  6 21  1  0  0  0  0
  6  1  1  0  0  0  0
  7  6  2  0  0  0  0
  8  7  1  0  0  0  0
  9  5  2  0  0  0  0
 10 40  1  0  0  0  0
 11 32  1  0  0  0  0
 11 12  1  0  0  0  0
 13 19  1  0  0  0  0
 14 13  1  0  0  0  0
 15 11  2  0  0  0  0
 16 15  1  0  0  0  0
 17 47  1  0  0  0  0
 18 17  1  0  0  0  0
 19 20  1  0  0  0  0
 19 32  2  0  0  0  0
 21 22  1  0  0  0  0
 23  9  1  0  0  0  0
 23  2  1  0  0  0  0
 24 23  1  0  0  0  0
 25 23  1  0  0  0  0
 26 10  2  0  0  0  0
 26 27  1  0  0  0  0
 28 17  2  0  0  0  0
 28  7  1  0  0  0  0
 29 28  1  0  0  0  0
 30 26  1  0  0  0  0
 31 30  1  0  0  0  0
 32 33  1  0  0  0  0
 34  9  1  0  0  0  0
 34 30  2  0  0  0  0
 35 34  1  0  0  0  0
 36 37  1  0  0  0  0
 38 36  1  0  0  0  0
 39 36  1  0  0  0  0
 40 41  1  0  0  0  0
 42 40  1  0  0  0  0
 43  2  1  0  0  0  0
 43 44  1  0  0  0  0
 45 43  1  0  0  0  0
 46 43  1  0  0  0  0
 47 48  1  0  0  0  0
 47 21  2  0  0  0  0
 49 51  1  0  0  0  0
 49 52  1  0  0  0  0
 50 49  1  0  0  0  0
 53  3  1  0  0  0  0
 54 53  1  0  0  0  0
 55 53  1  0  0  0  0
 56 53  1  0  0  0  0
M  END
