1,2
 OpenBabel05122313063D

 51 54  0  0  0  0  0  0  0  0999 V2000
   -0.7509    0.7892    0.6812 P   0  0  0  0  0  0  0  0  0  0  0  0
    0.9943   -1.0439   -1.0572 N   0  0  0  0  0  2  0  0  0  0  0  0
    1.9238   -0.5063    0.1559 P   0  0  0  0  0  4  0  0  0  0  0  0
    3.0233   -1.7983    0.8210 C   0  0  0  0  0  0  0  0  0  0  0  0
    4.4296   -1.7103    0.7874 C   0  0  0  0  0  0  0  0  0  0  0  0
    4.9217   -0.8121    0.3870 H   0  0  0  0  0  0  0  0  0  0  0  0
    5.2048   -2.7828    1.2550 C   0  0  0  0  0  0  0  0  0  0  0  0
    6.3027   -2.7152    1.2252 H   0  0  0  0  0  0  0  0  0  0  0  0
    4.5821   -3.9385    1.7512 C   0  0  0  0  0  0  0  0  0  0  0  0
    5.1937   -4.7771    2.1174 H   0  0  0  0  0  0  0  0  0  0  0  0
    3.1798   -4.0327    1.7670 C   0  0  0  0  0  0  0  0  0  0  0  0
    2.6899   -4.9450    2.1392 H   0  0  0  0  0  0  0  0  0  0  0  0
    2.3952   -2.9725    1.2953 C   0  0  0  0  0  0  0  0  0  0  0  0
    1.2929   -3.0581    1.2647 H   0  0  0  0  0  0  0  0  0  0  0  0
    2.9392    0.9598   -0.2606 C   0  0  0  0  0  0  0  0  0  0  0  0
    2.7111    1.5599   -1.5130 C   0  0  0  0  0  0  0  0  0  0  0  0
    1.9893    1.0985   -2.2047 H   0  0  0  0  0  0  0  0  0  0  0  0
    3.3709    2.7522   -1.8464 C   0  0  0  0  0  0  0  0  0  0  0  0
    3.1786    3.2261   -2.8203 H   0  0  0  0  0  0  0  0  0  0  0  0
    4.2578    3.3438   -0.9343 C   0  0  0  0  0  0  0  0  0  0  0  0
    4.7719    4.2810   -1.1959 H   0  0  0  0  0  0  0  0  0  0  0  0
    4.4864    2.7468    0.3179 C   0  0  0  0  0  0  0  0  0  0  0  0
    5.1802    3.2136    1.0337 H   0  0  0  0  0  0  0  0  0  0  0  0
    3.8258    1.5585    0.6599 C   0  0  0  0  0  0  0  0  0  0  0  0
    3.9955    1.1041    1.6490 H   0  0  0  0  0  0  0  0  0  0  0  0
    0.7701    0.0398    1.4691 C   0  0  0  0  0  0  0  0  0  0  0  0
    1.2719    0.6784    2.2213 H   0  0  0  0  0  0  0  0  0  0  0  0
    0.3782   -0.8837    1.9481 H   0  0  0  0  0  0  0  0  0  0  0  0
   -1.9119    0.9794    2.1003 C   0  0  0  0  0  0  0  0  0  0  0  0
   -2.9543    0.0470    2.2746 C   0  0  0  0  0  0  0  0  0  0  0  0
   -3.0461   -0.8043    1.5835 H   0  0  0  0  0  0  0  0  0  0  0  0
   -3.8453    0.1920    3.3487 C   0  0  0  0  0  0  0  0  0  0  0  0
   -4.6575   -0.5391    3.4781 H   0  0  0  0  0  0  0  0  0  0  0  0
   -3.7053    1.2597    4.2485 C   0  0  0  0  0  0  0  0  0  0  0  0
   -4.4095    1.3708    5.0872 H   0  0  0  0  0  0  0  0  0  0  0  0
   -2.6692    2.1917    4.0737 C   0  0  0  0  0  0  0  0  0  0  0  0
   -2.5599    3.0360    4.7713 H   0  0  0  0  0  0  0  0  0  0  0  0
   -1.7761    2.0567    3.0013 C   0  0  0  0  0  0  0  0  0  0  0  0
   -0.9814    2.8039    2.8559 H   0  0  0  0  0  0  0  0  0  0  0  0
   -0.2996    2.5295    0.2885 C   0  0  0  0  0  0  0  0  0  0  0  0
   -1.1237    3.2107   -0.6315 C   0  0  0  0  0  0  0  0  0  0  0  0
   -1.9821    2.6900   -1.0820 H   0  0  0  0  0  0  0  0  0  0  0  0
   -0.8467    4.5391   -0.9816 C   0  0  0  0  0  0  0  0  0  0  0  0
   -1.4937    5.0558   -1.7060 H   0  0  0  0  0  0  0  0  0  0  0  0
    0.2583    5.2005   -0.4222 C   0  0  0  0  0  0  0  0  0  0  0  0
    0.4822    6.2395   -0.7077 H   0  0  0  0  0  0  0  0  0  0  0  0
    1.0770    4.5324    0.5010 C   0  0  0  0  0  0  0  0  0  0  0  0
    1.9464    5.0415    0.9432 H   0  0  0  0  0  0  0  0  0  0  0  0
    0.7958    3.2059    0.8608 C   0  0  0  0  0  0  0  0  0  0  0  0
    1.4518    2.7013    1.5829 H   0  0  0  0  0  0  0  0  0  0  0  0
    1.4820   -1.6562   -1.7181 H   0  0  0  0  0  0  0  0  0  0  0  0
  1 26  1  0  0  0  0
  1 29  1  0  0  0  0
  2  3  1  0  0  0  0
  3  4  1  0  0  0  0
  3 26  1  0  0  0  0
  4 13  1  0  0  0  0
  5  4  2  0  0  0  0
  5  7  1  0  0  0  0
  6  5  1  0  0  0  0
  7  9  2  0  0  0  0
  8  7  1  0  0  0  0
  9 11  1  0  0  0  0
  9 10  1  0  0  0  0
 11 12  1  0  0  0  0
 13 11  2  0  0  0  0
 14 13  1  0  0  0  0
 15  3  1  0  0  0  0
 15 24  1  0  0  0  0
 16 15  2  0  0  0  0
 17 16  1  0  0  0  0
 18 16  1  0  0  0  0
 18 20  2  0  0  0  0
 19 18  1  0  0  0  0
 20 22  1  0  0  0  0
 21 20  1  0  0  0  0
 22 24  2  0  0  0  0
 22 23  1  0  0  0  0
 24 25  1  0  0  0  0
 26 28  1  0  0  0  0
 26 27  1  0  0  0  0
 29 30  2  0  0  0  0
 29 38  1  0  0  0  0
 30 32  1  0  0  0  0
 31 30  1  0  0  0  0
 32 33  1  0  0  0  0
 32 34  2  0  0  0  0
 34 35  1  0  0  0  0
 36 34  1  0  0  0  0
 36 37  1  0  0  0  0
 38 36  2  0  0  0  0
 39 38  1  0  0  0  0
 40  1  1  0  0  0  0
 40 49  1  0  0  0  0
 41 40  2  0  0  0  0
 42 41  1  0  0  0  0
 43 41  1  0  0  0  0
 43 45  2  0  0  0  0
 44 43  1  0  0  0  0
 45 47  1  0  0  0  0
 46 45  1  0  0  0  0
 47 49  2  0  0  0  0
 47 48  1  0  0  0  0
 49 50  1  0  0  0  0
 51  2  1  0  0  0  0
M  END
