1,4
 OpenBabel05122313063D

 37 40  0  0  1  0  0  0  0  0999 V2000
   -0.8907    1.0761   -0.1256 P   0  0  0  0  0  0  0  0  0  0  0  0
   -0.1794    2.0668    0.9926 O   0  0  0  0  0  0  0  0  0  0  0  0
    0.0528    1.3690   -1.4655 O   0  0  0  0  0  0  0  0  0  0  0  0
   -3.5924   -0.0163   -0.3892 N   0  0  0  0  0  2  0  0  0  0  0  0
   -2.2714    1.9053   -0.6666 N   0  0  0  0  0  0  0  0  0  0  0  0
   -2.1766    2.8354   -1.0832 H   0  0  0  0  0  0  0  0  0  0  0  0
   -4.8540   -1.9757   -0.2159 N   0  0  0  0  0  0  0  0  0  0  0  0
   -4.0689   -2.4364    0.2884 H   0  0  0  0  0  0  0  0  0  0  0  0
   -5.7631   -2.4315   -0.2231 H   0  0  0  0  0  0  0  0  0  0  0  0
   -3.5144    1.2859   -0.7784 C   0  0  1  0  0  3  0  0  0  0  0  0
   -4.6025    2.0104   -1.2872 C   0  0  0  0  0  0  0  0  0  0  0  0
   -4.4816    3.0627   -1.5762 H   0  0  0  0  0  0  0  0  0  0  0  0
   -5.8319    1.3432   -1.4084 C   0  0  0  0  0  0  0  0  0  0  0  0
   -6.7102    1.8787   -1.7991 H   0  0  0  0  0  0  0  0  0  0  0  0
   -5.9373    0.0104   -1.0405 C   0  0  0  0  0  0  0  0  0  0  0  0
   -6.8841   -0.5392   -1.1346 H   0  0  0  0  0  0  0  0  0  0  0  0
   -4.7894   -0.6687   -0.5342 C   0  0  0  0  0  0  0  0  0  0  0  0
    0.1588    3.3786    0.6740 C   0  0  0  0  0  0  0  0  0  0  0  0
   -0.5872    4.4040    1.2744 C   0  0  0  0  0  0  0  0  0  0  0  0
   -1.4282    4.1259    1.9255 H   0  0  0  0  0  0  0  0  0  0  0  0
   -0.2280    5.7414    1.0599 C   0  0  0  0  0  0  0  0  0  0  0  0
   -0.8071    6.5467    1.5359 H   0  0  0  0  0  0  0  0  0  0  0  0
    0.8735    6.0431    0.2424 C   0  0  0  0  0  0  0  0  0  0  0  0
    1.1611    7.0899    0.0653 H   0  0  0  0  0  0  0  0  0  0  0  0
    1.6037    5.0105   -0.3591 C   0  0  0  0  0  0  0  0  0  0  0  0
    2.4510    5.2501   -1.0188 H   0  0  0  0  0  0  0  0  0  0  0  0
    1.2656    3.6509   -0.1668 C   0  0  0  0  0  0  0  0  0  0  0  0
    2.0563    2.5783   -0.8170 C   0  0  0  0  0  0  0  0  0  0  0  0
    3.4647    2.6609   -0.8942 C   0  0  0  0  0  0  0  0  0  0  0  0
    3.9711    3.4996   -0.3935 H   0  0  0  0  0  0  0  0  0  0  0  0
    4.2182    1.6882   -1.5616 C   0  0  0  0  0  0  0  0  0  0  0  0
    5.3148    1.7638   -1.5822 H   0  0  0  0  0  0  0  0  0  0  0  0
    3.5732    0.6079   -2.1840 C   0  0  0  0  0  0  0  0  0  0  0  0
    4.1587   -0.1647   -2.7029 H   0  0  0  0  0  0  0  0  0  0  0  0
    2.1790    0.4960   -2.1235 C   0  0  0  0  0  0  0  0  0  0  0  0
    1.6472   -0.3493   -2.5816 H   0  0  0  0  0  0  0  0  0  0  0  0
    1.4386    1.4671   -1.4394 C   0  0  0  0  0  0  0  0  0  0  0  0
  1  2  1  0  0  0  0
  3 37  1  0  0  0  0
  3  1  1  0  0  0  0
  5  1  1  0  0  0  0
  6  5  1  0  0  0  0
  7  8  1  0  0  0  0
  9  7  1  0  0  0  0
 10  5  1  6  0  0  0
 10  4  1  0  0  0  0
 11 10  1  0  0  0  0
 12 11  1  0  0  0  0
 13 11  2  0  0  0  0
 13 15  1  0  0  0  0
 14 13  1  0  0  0  0
 15 17  2  0  0  0  0
 16 15  1  0  0  0  0
 17  4  1  0  0  0  0
 17  7  1  0  0  0  0
 18  2  1  0  0  0  0
 18 19  1  0  0  0  0
 19 20  1  0  0  0  0
 21 19  2  0  0  0  0
 21 22  1  0  0  0  0
 23 21  1  0  0  0  0
 24 23  1  0  0  0  0
 25 27  1  0  0  0  0
 25 23  2  0  0  0  0
 26 25  1  0  0  0  0
 27 18  2  0  0  0  0
 28 27  1  0  0  0  0
 29 28  1  0  0  0  0
 29 30  1  0  0  0  0
 31 29  2  0  0  0  0
 32 31  1  0  0  0  0
 33 35  2  0  0  0  0
 33 31  1  0  0  0  0
 34 33  1  0  0  0  0
 35 37  1  0  0  0  0
 36 35  1  0  0  0  0
 37 28  2  0  0  0  0
M  END
