1,3
 OpenBabel05122313063D

 44 46  0  0  1  0  0  0  0  0999 V2000
   -0.8572    0.0330    0.3119 P   0  0  0  0  0  0  0  0  0  0  0  0
   -0.3051   -0.2820    1.8778 O   0  0  0  0  0  0  0  0  0  0  0  0
    2.2356    0.0401    0.2626 N   0  0  0  0  0  2  0  0  0  0  0  0
    2.3968   -0.9324    1.1995 N   0  0  0  0  0  0  0  0  0  0  0  0
    3.1784    0.9779    0.4804 C   0  0  1  0  0  3  0  0  0  0  0  0
    3.9580    0.5838    1.5959 C   0  0  0  0  0  0  0  0  0  0  0  0
    4.8144    1.1190    2.0180 H   0  0  0  0  0  0  0  0  0  0  0  0
    3.4344   -0.6310    2.0406 C   0  0  0  0  0  0  0  0  0  0  0  0
    3.2937    2.1885   -0.3827 C   0  0  0  0  0  0  0  0  0  0  0  0
    4.1454    2.8159   -0.0623 H   0  0  0  0  0  0  0  0  0  0  0  0
    2.3652    2.7940   -0.3351 H   0  0  0  0  0  0  0  0  0  0  0  0
    3.4228    1.8769   -1.4401 H   0  0  0  0  0  0  0  0  0  0  0  0
    3.8393   -1.5182    3.1707 C   0  0  0  0  0  0  0  0  0  0  0  0
    4.7224   -1.0920    3.6803 H   0  0  0  0  0  0  0  0  0  0  0  0
    4.1116   -2.5363    2.8212 H   0  0  0  0  0  0  0  0  0  0  0  0
    3.0356   -1.6287    3.9288 H   0  0  0  0  0  0  0  0  0  0  0  0
    1.4091   -1.9847    1.3253 C   0  0  0  0  0  0  0  0  0  0  0  0
    1.8906   -2.8810    1.7634 H   0  0  0  0  0  0  0  0  0  0  0  0
    1.0837   -2.2461    0.2972 H   0  0  0  0  0  0  0  0  0  0  0  0
    0.2108   -1.5675    2.1949 C   0  0  0  0  0  0  0  0  0  0  0  0
   -0.5774   -2.3516    2.1103 H   0  0  0  0  0  0  0  0  0  0  0  0
    0.5142   -1.5022    3.2599 H   0  0  0  0  0  0  0  0  0  0  0  0
   -2.1894   -1.2142    0.1479 C   0  0  0  0  0  0  0  0  0  0  0  0
   -3.3255   -1.1342    0.9796 C   0  0  0  0  0  0  0  0  0  0  0  0
   -3.4563   -0.2722    1.6519 H   0  0  0  0  0  0  0  0  0  0  0  0
   -4.2930   -2.1481    0.9375 C   0  0  0  0  0  0  0  0  0  0  0  0
   -5.1841   -2.0805    1.5799 H   0  0  0  0  0  0  0  0  0  0  0  0
   -4.1289   -3.2419    0.0709 C   0  0  0  0  0  0  0  0  0  0  0  0
   -4.8928   -4.0337    0.0359 H   0  0  0  0  0  0  0  0  0  0  0  0
   -2.9970   -3.3222   -0.7561 C   0  0  0  0  0  0  0  0  0  0  0  0
   -2.8726   -4.1731   -1.4426 H   0  0  0  0  0  0  0  0  0  0  0  0
   -2.0260   -2.3105   -0.7222 C   0  0  0  0  0  0  0  0  0  0  0  0
   -1.1522   -2.3450   -1.3906 H   0  0  0  0  0  0  0  0  0  0  0  0
   -1.6607    1.6364    0.6369 C   0  0  0  0  0  0  0  0  0  0  0  0
   -1.8612    2.1040    1.9523 C   0  0  0  0  0  0  0  0  0  0  0  0
   -1.5150    1.4997    2.8023 H   0  0  0  0  0  0  0  0  0  0  0  0
   -2.4878    3.3422    2.1591 C   0  0  0  0  0  0  0  0  0  0  0  0
   -2.6423    3.7092    3.1853 H   0  0  0  0  0  0  0  0  0  0  0  0
   -2.9124    4.1113    1.0641 C   0  0  0  0  0  0  0  0  0  0  0  0
   -3.4028    5.0824    1.2316 H   0  0  0  0  0  0  0  0  0  0  0  0
   -2.7038    3.6454   -0.2446 C   0  0  0  0  0  0  0  0  0  0  0  0
   -3.0277    4.2502   -1.1050 H   0  0  0  0  0  0  0  0  0  0  0  0
   -2.0744    2.4129   -0.4665 C   0  0  0  0  0  0  0  0  0  0  0  0
   -1.8923    2.0394   -1.4878 H   0  0  0  0  0  0  0  0  0  0  0  0
  1 34  1  0  0  0  0
  1  2  1  0  0  0  0
  2 20  1  0  0  0  0
  3  5  1  0  0  0  0
  3  4  1  0  0  0  0
  4 17  1  0  0  0  0
  4  8  1  0  0  0  0
  5  9  1  6  0  0  0
  5  6  1  0  0  0  0
  6  7  1  0  0  0  0
  6  8  2  0  0  0  0
  8 13  1  0  0  0  0
  9 11  1  0  0  0  0
  9 10  1  0  0  0  0
 12  9  1  0  0  0  0
 13 14  1  0  0  0  0
 13 16  1  0  0  0  0
 15 13  1  0  0  0  0
 17 18  1  0  0  0  0
 17 20  1  0  0  0  0
 19 17  1  0  0  0  0
 20 22  1  0  0  0  0
 21 20  1  0  0  0  0
 23  1  1  0  0  0  0
 23 24  1  0  0  0  0
 24 25  1  0  0  0  0
 26 24  2  0  0  0  0
 26 27  1  0  0  0  0
 28 26  1  0  0  0  0
 29 28  1  0  0  0  0
 30 32  1  0  0  0  0
 30 28  2  0  0  0  0
 31 30  1  0  0  0  0
 32 23  2  0  0  0  0
 33 32  1  0  0  0  0
 34 35  1  0  0  0  0
 35 37  2  0  0  0  0
 35 36  1  0  0  0  0
 37 38  1  0  0  0  0
 39 40  1  0  0  0  0
 39 37  1  0  0  0  0
 41 39  2  0  0  0  0
 42 41  1  0  0  0  0
 43 41  1  0  0  0  0
 43 34  2  0  0  0  0
 44 43  1  0  0  0  0
M  END
