1,2
 OpenBabel05122313063D

 39 41  0  0  1  0  0  0  0  0999 V2000
   -0.7171    0.8333    0.0146 P   0  0  0  0  0  0  0  0  0  0  0  0
    1.7365   -0.6577    0.5275 N   0  0  0  0  0  2  0  0  0  0  0  0
    0.9247    1.4584    0.0754 N   0  0  0  0  0  0  0  0  0  0  0  0
    1.9781    0.6046    0.2778 C   0  0  2  0  0  3  0  0  0  0  0  0
    3.3471    1.1703    0.1869 C   0  0  0  0  0  0  0  0  0  0  0  0
    4.3604    0.7148    1.0574 C   0  0  0  0  0  0  0  0  0  0  0  0
    5.6582    1.2326    0.9610 C   0  0  0  0  0  0  0  0  0  0  0  0
    5.9588    2.2079   -0.0040 C   0  0  0  0  0  0  0  0  0  0  0  0
    4.9561    2.6640   -0.8747 C   0  0  0  0  0  0  0  0  0  0  0  0
    3.6553    2.1517   -0.7804 C   0  0  0  0  0  0  0  0  0  0  0  0
   -1.5276    1.7745    1.3675 C   0  0  0  0  0  0  0  0  0  0  0  0
   -0.8351    1.9977    2.5748 C   0  0  0  0  0  0  0  0  0  0  0  0
   -1.4835    2.6164    3.6526 C   0  0  0  0  0  0  0  0  0  0  0  0
   -2.8285    3.0029    3.5385 C   0  0  0  0  0  0  0  0  0  0  0  0
   -3.5251    2.7696    2.3423 C   0  0  0  0  0  0  0  0  0  0  0  0
   -2.8798    2.1580    1.2575 C   0  0  0  0  0  0  0  0  0  0  0  0
   -1.4284    1.5945   -1.4913 C   0  0  0  0  0  0  0  0  0  0  0  0
   -1.4248    2.9979   -1.6476 C   0  0  0  0  0  0  0  0  0  0  0  0
   -1.9737    3.5766   -2.7993 C   0  0  0  0  0  0  0  0  0  0  0  0
   -2.5420    2.7585   -3.7914 C   0  0  0  0  0  0  0  0  0  0  0  0
   -2.5579    1.3650   -3.6311 C   0  0  0  0  0  0  0  0  0  0  0  0
   -1.9975    0.7764   -2.4862 C   0  0  0  0  0  0  0  0  0  0  0  0
    4.1189   -0.0319    1.8293 H   0  0  0  0  0  0  0  0  0  0  0  0
    6.4394    0.8780    1.6498 H   0  0  0  0  0  0  0  0  0  0  0  0
    6.9792    2.6128   -0.0786 H   0  0  0  0  0  0  0  0  0  0  0  0
    5.1913    3.4166   -1.6420 H   0  0  0  0  0  0  0  0  0  0  0  0
    2.8798    2.4816   -1.4886 H   0  0  0  0  0  0  0  0  0  0  0  0
    0.2135    1.6783    2.6734 H   0  0  0  0  0  0  0  0  0  0  0  0
   -0.9361    2.7893    4.5913 H   0  0  0  0  0  0  0  0  0  0  0  0
   -3.3373    3.4838    4.3876 H   0  0  0  0  0  0  0  0  0  0  0  0
   -4.5806    3.0669    2.2503 H   0  0  0  0  0  0  0  0  0  0  0  0
   -3.4287    1.9807    0.3203 H   0  0  0  0  0  0  0  0  0  0  0  0
   -1.0130    3.6459   -0.8569 H   0  0  0  0  0  0  0  0  0  0  0  0
   -1.9680    4.6705   -2.9197 H   0  0  0  0  0  0  0  0  0  0  0  0
   -2.9780    3.2140   -4.6936 H   0  0  0  0  0  0  0  0  0  0  0  0
   -3.0015    0.7234   -4.4070 H   0  0  0  0  0  0  0  0  0  0  0  0
   -1.9707   -0.3172   -2.3740 H   0  0  0  0  0  0  0  0  0  0  0  0
    2.5819   -1.2359    0.5419 H   0  0  0  0  0  0  0  0  0  0  0  0
    1.1272    2.4592    0.0265 H   0  0  0  0  0  0  0  0  0  0  0  0
  1  3  1  0  0  0  0
  1 11  1  0  0  0  0
  2 38  1  0  0  0  0
  3  4  1  0  0  0  0
  4  2  1  6  0  0  0
  5  4  1  0  0  0  0
  5  6  1  0  0  0  0
  6 23  1  0  0  0  0
  7  6  2  0  0  0  0
  7 24  1  0  0  0  0
  8  7  1  0  0  0  0
  9 10  1  0  0  0  0
  9  8  2  0  0  0  0
 10  5  2  0  0  0  0
 11 12  1  0  0  0  0
 12 28  1  0  0  0  0
 12 13  2  0  0  0  0
 13 29  1  0  0  0  0
 14 13  1  0  0  0  0
 14 30  1  0  0  0  0
 15 14  2  0  0  0  0
 16 11  2  0  0  0  0
 16 15  1  0  0  0  0
 17  1  1  0  0  0  0
 18 17  1  0  0  0  0
 18 33  1  0  0  0  0
 19 18  2  0  0  0  0
 20 21  2  0  0  0  0
 20 19  1  0  0  0  0
 21 22  1  0  0  0  0
 22 37  1  0  0  0  0
 22 17  2  0  0  0  0
 25  8  1  0  0  0  0
 26  9  1  0  0  0  0
 27 10  1  0  0  0  0
 31 15  1  0  0  0  0
 32 16  1  0  0  0  0
 34 19  1  0  0  0  0
 35 20  1  0  0  0  0
 36 21  1  0  0  0  0
 39  3  1  0  0  0  0
M  END
