1,2
 OpenBabel05122313063D

 39 41  0  0  0  0  0  0  0  0999 V2000
    1.8839    0.3012    0.0418 P   0  0  0  0  0  0  0  0  0  0  0  0
    1.6773   -2.7400    0.1316 N   0  0  0  0  0  0  0  0  0  0  0  0
    1.2994   -3.2423   -0.6922 H   0  0  0  0  0  0  0  0  0  0  0  0
    3.2592   -0.8571   -0.3578 C   0  0  0  0  0  0  0  0  0  0  0  0
    4.5346   -0.4101   -0.7584 C   0  0  0  0  0  0  0  0  0  0  0  0
    4.7379    0.6693   -0.8154 H   0  0  0  0  0  0  0  0  0  0  0  0
    5.5353   -1.3265   -1.0994 C   0  0  0  0  0  0  0  0  0  0  0  0
    6.5265   -0.9679   -1.4131 H   0  0  0  0  0  0  0  0  0  0  0  0
    5.2627   -2.7038   -1.0539 C   0  0  0  0  0  0  0  0  0  0  0  0
    6.0366   -3.4316   -1.3388 H   0  0  0  0  0  0  0  0  0  0  0  0
    4.0006   -3.1576   -0.6504 C   0  0  0  0  0  0  0  0  0  0  0  0
    3.7942   -4.2382   -0.6274 H   0  0  0  0  0  0  0  0  0  0  0  0
    2.9993   -2.2388   -0.2884 C   0  0  0  0  0  0  0  0  0  0  0  0
    1.7628   -3.6654    1.2915 C   0  0  0  0  0  0  0  0  0  0  0  0
    2.4766   -4.4940    1.1137 H   0  0  0  0  0  0  0  0  0  0  0  0
    0.7611   -4.0902    1.4857 H   0  0  0  0  0  0  0  0  0  0  0  0
    2.0798   -3.0942    2.1824 H   0  0  0  0  0  0  0  0  0  0  0  0
    2.5186    1.3160    1.4410 C   0  0  0  0  0  0  0  0  0  0  0  0
    3.4347    2.3613    1.1836 C   0  0  0  0  0  0  0  0  0  0  0  0
    3.7087    2.6208    0.1506 H   0  0  0  0  0  0  0  0  0  0  0  0
    3.9838    3.0914    2.2467 C   0  0  0  0  0  0  0  0  0  0  0  0
    4.6939    3.9051    2.0366 H   0  0  0  0  0  0  0  0  0  0  0  0
    3.6263    2.7899    3.5708 C   0  0  0  0  0  0  0  0  0  0  0  0
    4.0568    3.3674    4.4025 H   0  0  0  0  0  0  0  0  0  0  0  0
    2.7181    1.7522    3.8290 C   0  0  0  0  0  0  0  0  0  0  0  0
    2.4334    1.5104    4.8640 H   0  0  0  0  0  0  0  0  0  0  0  0
    2.1660    1.0135    2.7707 C   0  0  0  0  0  0  0  0  0  0  0  0
    1.4530    0.2009    2.9799 H   0  0  0  0  0  0  0  0  0  0  0  0
    1.8003    1.4511   -1.3787 C   0  0  0  0  0  0  0  0  0  0  0  0
    2.1497    1.0191   -2.6733 C   0  0  0  0  0  0  0  0  0  0  0  0
    2.4880   -0.0133   -2.8395 H   0  0  0  0  0  0  0  0  0  0  0  0
    2.0588    1.9104   -3.7527 C   0  0  0  0  0  0  0  0  0  0  0  0
    2.3396    1.5714   -4.7610 H   0  0  0  0  0  0  0  0  0  0  0  0
    1.6190    3.2270   -3.5476 C   0  0  0  0  0  0  0  0  0  0  0  0
    1.5595    3.9258   -4.3954 H   0  0  0  0  0  0  0  0  0  0  0  0
    1.2444    3.6501   -2.2621 C   0  0  0  0  0  0  0  0  0  0  0  0
    0.8806    4.6749   -2.0996 H   0  0  0  0  0  0  0  0  0  0  0  0
    1.3225    2.7642   -1.1801 C   0  0  0  0  0  0  0  0  0  0  0  0
    1.0240    3.1023   -0.1767 H   0  0  0  0  0  0  0  0  0  0  0  0
  1 18  1  0  0  0  0
  2 14  1  0  0  0  0
  3  2  1  0  0  0  0
  4 13  1  0  0  0  0
  4  1  1  0  0  0  0
  5  4  2  0  0  0  0
  6  5  1  0  0  0  0
  7  9  2  0  0  0  0
  7  5  1  0  0  0  0
  8  7  1  0  0  0  0
  9 11  1  0  0  0  0
 10  9  1  0  0  0  0
 11 12  1  0  0  0  0
 11 13  2  0  0  0  0
 13  2  1  0  0  0  0
 14 16  1  0  0  0  0
 14 17  1  0  0  0  0
 15 14  1  0  0  0  0
 18 27  1  0  0  0  0
 19 18  2  0  0  0  0
 19 21  1  0  0  0  0
 20 19  1  0  0  0  0
 21 23  2  0  0  0  0
 22 21  1  0  0  0  0
 23 25  1  0  0  0  0
 23 24  1  0  0  0  0
 25 26  1  0  0  0  0
 27 28  1  0  0  0  0
 27 25  2  0  0  0  0
 29 38  1  0  0  0  0
 29  1  1  0  0  0  0
 30 29  2  0  0  0  0
 31 30  1  0  0  0  0
 32 34  2  0  0  0  0
 32 30  1  0  0  0  0
 33 32  1  0  0  0  0
 34 36  1  0  0  0  0
 35 34  1  0  0  0  0
 36 37  1  0  0  0  0
 36 38  2  0  0  0  0
 38 39  1  0  0  0  0
M  END
