2,3
 OpenBabel05122313063D

 32 32  0  0  1  0  0  0  0  0999 V2000
    3.0371    1.1049    0.2863 S   0  0  0  0  0  0  0  0  0  0  0  0
    1.7883   -0.6719    0.3137 P   0  0  0  0  0  0  0  0  0  0  0  0
    0.4497    2.0180    0.1480 N   0  0  0  0  0  2  0  0  0  0  0  0
    1.7681    2.3232    0.3496 C   0  0  1  0  0  3  0  0  0  0  0  0
    2.1929    3.6385    0.6427 C   0  0  0  0  0  0  0  0  0  0  0  0
    3.2647    3.8297    0.7935 H   0  0  0  0  0  0  0  0  0  0  0  0
    1.2540    4.6610    0.7634 C   0  0  0  0  0  0  0  0  0  0  0  0
    1.5757    5.6876    0.9923 H   0  0  0  0  0  0  0  0  0  0  0  0
   -0.1054    4.3392    0.6166 C   0  0  0  0  0  0  0  0  0  0  0  0
   -0.8956    5.0933    0.7335 H   0  0  0  0  0  0  0  0  0  0  0  0
   -0.4551    3.0248    0.3212 C   0  0  0  0  0  0  0  0  0  0  0  0
   -1.5066    2.7343    0.2132 H   0  0  0  0  0  0  0  0  0  0  0  0
    2.0122   -1.2521    2.0876 C   0  0  0  0  0  0  0  0  0  0  0  0
    1.6428   -0.3501    2.6197 H   0  0  0  0  0  0  0  0  0  0  0  0
    1.0678   -2.4110    2.4421 C   0  0  0  0  0  0  0  0  0  0  0  0
    1.4392   -3.3817    2.0641 H   0  0  0  0  0  0  0  0  0  0  0  0
    0.0462   -2.2509    2.0473 H   0  0  0  0  0  0  0  0  0  0  0  0
    0.9916   -2.4928    3.5453 H   0  0  0  0  0  0  0  0  0  0  0  0
    3.4612   -1.4899    2.5210 C   0  0  0  0  0  0  0  0  0  0  0  0
    3.4955   -1.6454    3.6189 H   0  0  0  0  0  0  0  0  0  0  0  0
    4.1103   -0.6223    2.2886 H   0  0  0  0  0  0  0  0  0  0  0  0
    3.8983   -2.3926    2.0518 H   0  0  0  0  0  0  0  0  0  0  0  0
    2.7587   -1.8229   -0.8364 C   0  0  0  0  0  0  0  0  0  0  0  0
    2.2406   -1.6489   -1.8039 H   0  0  0  0  0  0  0  0  0  0  0  0
    2.5898   -3.2996   -0.4460 C   0  0  0  0  0  0  0  0  0  0  0  0
    2.9464   -3.9380   -1.2801 H   0  0  0  0  0  0  0  0  0  0  0  0
    1.5430   -3.5826   -0.2309 H   0  0  0  0  0  0  0  0  0  0  0  0
    3.2008   -3.5552    0.4406 H   0  0  0  0  0  0  0  0  0  0  0  0
    4.2389   -1.4669   -1.0217 C   0  0  0  0  0  0  0  0  0  0  0  0
    4.8065   -1.5411   -0.0732 H   0  0  0  0  0  0  0  0  0  0  0  0
    4.3765   -0.4479   -1.4308 H   0  0  0  0  0  0  0  0  0  0  0  0
    4.6984   -2.1818   -1.7353 H   0  0  0  0  0  0  0  0  0  0  0  0
  1  2  1  0  0  0  0
  2 13  1  0  0  0  0
  3 11  1  0  0  0  0
  3  4  1  0  0  0  0
  4  1  1  1  0  0  0
  4  5  1  0  0  0  0
  5  7  2  0  0  0  0
  5  6  1  0  0  0  0
  7  8  1  0  0  0  0
  9 10  1  0  0  0  0
  9  7  1  0  0  0  0
 11  9  2  0  0  0  0
 12 11  1  0  0  0  0
 13 15  1  0  0  0  0
 13 19  1  0  0  0  0
 13 14  1  0  0  0  0
 15 18  1  0  0  0  0
 16 15  1  0  0  0  0
 17 15  1  0  0  0  0
 19 20  1  0  0  0  0
 21 19  1  0  0  0  0
 22 19  1  0  0  0  0
 23 25  1  0  0  0  0
 23  2  1  0  0  0  0
 24 23  1  0  0  0  0
 25 27  1  0  0  0  0
 25 28  1  0  0  0  0
 26 25  1  0  0  0  0
 29 23  1  0  0  0  0
 29 30  1  0  0  0  0
 31 29  1  0  0  0  0
 32 29  1  0  0  0  0
M  END
