1,2
 OpenBabel05122313063D

 47 50  0  0  1  0  0  0  0  0999 V2000
   -0.8572   -0.1988   -0.1434 P   0  0  0  0  0  0  0  0  0  0  0  0
    1.9073    0.4848    0.1112 N   0  0  0  0  0  2  0  0  0  0  0  0
    1.9784   -0.5879    0.9605 N   0  0  0  0  0  0  0  0  0  0  0  0
    3.0729   -1.3724    0.6601 C   0  0  1  0  0  3  0  0  0  0  0  0
    3.4007   -2.6513    1.3560 C   0  0  0  0  0  0  0  0  0  0  0  0
    3.9396   -2.4905    2.3127 H   0  0  0  0  0  0  0  0  0  0  0  0
    4.0551   -3.2605    0.7051 H   0  0  0  0  0  0  0  0  0  0  0  0
    2.4894   -3.2387    1.5841 H   0  0  0  0  0  0  0  0  0  0  0  0
    2.9558    0.4002   -0.7311 C   0  0  0  0  0  0  0  0  0  0  0  0
    3.7138   -0.7518   -0.4078 C   0  0  0  0  0  0  0  0  0  0  0  0
    4.6222   -1.0986   -0.9102 H   0  0  0  0  0  0  0  0  0  0  0  0
    3.1769    1.3921   -1.8212 C   0  0  0  0  0  0  0  0  0  0  0  0
    2.4331    1.2482   -2.6325 H   0  0  0  0  0  0  0  0  0  0  0  0
    4.1897    1.2777   -2.2496 H   0  0  0  0  0  0  0  0  0  0  0  0
    3.0331    2.4198   -1.4272 H   0  0  0  0  0  0  0  0  0  0  0  0
    0.9551   -0.8697    1.9087 C   0  0  0  0  0  0  0  0  0  0  0  0
   -0.4120   -0.8491    1.5223 C   0  0  0  0  0  0  0  0  0  0  0  0
   -1.3859   -1.1923    2.4775 C   0  0  0  0  0  0  0  0  0  0  0  0
   -2.4468   -1.1746    2.1882 H   0  0  0  0  0  0  0  0  0  0  0  0
   -1.0198   -1.5504    3.7841 C   0  0  0  0  0  0  0  0  0  0  0  0
   -1.7979   -1.8190    4.5137 H   0  0  0  0  0  0  0  0  0  0  0  0
    0.3308   -1.5496    4.1589 C   0  0  0  0  0  0  0  0  0  0  0  0
    0.6237   -1.8024    5.1885 H   0  0  0  0  0  0  0  0  0  0  0  0
    1.3167   -1.2032    3.2235 C   0  0  0  0  0  0  0  0  0  0  0  0
    2.3743   -1.1640    3.5165 H   0  0  0  0  0  0  0  0  0  0  0  0
   -0.1264   -1.4065   -1.3167 C   0  0  0  0  0  0  0  0  0  0  0  0
    0.1764   -2.7314   -0.9455 C   0  0  0  0  0  0  0  0  0  0  0  0
   -0.0541   -3.0818    0.0727 H   0  0  0  0  0  0  0  0  0  0  0  0
    0.7747   -3.5994   -1.8721 C   0  0  0  0  0  0  0  0  0  0  0  0
    1.0141   -4.6326   -1.5776 H   0  0  0  0  0  0  0  0  0  0  0  0
    1.0666   -3.1512   -3.1701 C   0  0  0  0  0  0  0  0  0  0  0  0
    1.5385   -3.8327   -3.8941 H   0  0  0  0  0  0  0  0  0  0  0  0
    0.7603   -1.8320   -3.5440 C   0  0  0  0  0  0  0  0  0  0  0  0
    0.9907   -1.4778   -4.5601 H   0  0  0  0  0  0  0  0  0  0  0  0
    0.1705   -0.9580   -2.6200 C   0  0  0  0  0  0  0  0  0  0  0  0
   -0.0536    0.0845   -2.8973 H   0  0  0  0  0  0  0  0  0  0  0  0
   -2.6668   -0.4001   -0.2659 C   0  0  0  0  0  0  0  0  0  0  0  0
   -3.2348   -1.5054   -0.9324 C   0  0  0  0  0  0  0  0  0  0  0  0
   -2.5874   -2.2498   -1.4190 H   0  0  0  0  0  0  0  0  0  0  0  0
   -4.6291   -1.6521   -0.9751 C   0  0  0  0  0  0  0  0  0  0  0  0
   -5.0704   -2.5142   -1.4979 H   0  0  0  0  0  0  0  0  0  0  0  0
   -5.4567   -0.7018   -0.3557 C   0  0  0  0  0  0  0  0  0  0  0  0
   -6.5506   -0.8183   -0.3934 H   0  0  0  0  0  0  0  0  0  0  0  0
   -4.8903    0.4023    0.3016 C   0  0  0  0  0  0  0  0  0  0  0  0
   -5.5375    1.1567    0.7737 H   0  0  0  0  0  0  0  0  0  0  0  0
   -3.4980    0.5645    0.3445 C   0  0  0  0  0  0  0  0  0  0  0  0
   -3.0475    1.4526    0.8120 H   0  0  0  0  0  0  0  0  0  0  0  0
  1 17  1  0  0  0  0
  2  3  1  0  0  0  0
  3 16  1  0  0  0  0
  4  3  1  0  0  0  0
  4  5  1  6  0  0  0
  5  8  1  0  0  0  0
  5  6  1  0  0  0  0
  7  5  1  0  0  0  0
  9 10  2  0  0  0  0
  9  2  1  0  0  0  0
 10  4  1  0  0  0  0
 11 10  1  0  0  0  0
 12 15  1  0  0  0  0
 12  9  1  0  0  0  0
 13 12  1  0  0  0  0
 14 12  1  0  0  0  0
 16 24  1  0  0  0  0
 17 16  2  0  0  0  0
 17 18  1  0  0  0  0
 18 20  2  0  0  0  0
 19 18  1  0  0  0  0
 20 22  1  0  0  0  0
 20 21  1  0  0  0  0
 22 23  1  0  0  0  0
 24 25  1  0  0  0  0
 24 22  2  0  0  0  0
 26 27  1  0  0  0  0
 26  1  1  0  0  0  0
 27 28  1  0  0  0  0
 29 30  1  0  0  0  0
 29 27  2  0  0  0  0
 31 29  1  0  0  0  0
 32 31  1  0  0  0  0
 33 31  2  0  0  0  0
 33 35  1  0  0  0  0
 34 33  1  0  0  0  0
 35 26  2  0  0  0  0
 36 35  1  0  0  0  0
 37  1  1  0  0  0  0
 37 46  1  0  0  0  0
 38 37  2  0  0  0  0
 39 38  1  0  0  0  0
 40 38  1  0  0  0  0
 40 42  2  0  0  0  0
 41 40  1  0  0  0  0
 42 44  1  0  0  0  0
 43 42  1  0  0  0  0
 44 46  2  0  0  0  0
 44 45  1  0  0  0  0
 46 47  1  0  0  0  0
M  END
