1,44
 OpenBabel05122313063D

 45 46  0  0  1  0  0  0  0  0999 V2000
    0.4631    1.6851    0.0000 P   0  0  0  0  0  0  0  0  0  0  0  0
    1.3189    2.2739    1.6024 C   0  0  0  0  0  0  0  0  0  0  0  0
    1.1689    3.7962    1.7667 C   0  0  0  0  0  0  0  0  0  0  0  0
    0.1087    4.1131    1.7173 H   0  0  0  0  0  0  0  0  0  0  0  0
    1.7442    4.3617    1.0089 H   0  0  0  0  0  0  0  0  0  0  0  0
    1.5607    4.0893    2.7639 H   0  0  0  0  0  0  0  0  0  0  0  0
    2.7999    1.8739    1.6631 C   0  0  0  0  0  0  0  0  0  0  0  0
    3.4268    2.4994    1.0010 H   0  0  0  0  0  0  0  0  0  0  0  0
    2.9581    0.8128    1.3917 H   0  0  0  0  0  0  0  0  0  0  0  0
    3.1708    2.0198    2.6999 H   0  0  0  0  0  0  0  0  0  0  0  0
    0.5350    1.5687    2.7266 C   0  0  0  0  0  0  0  0  0  0  0  0
    0.9281    1.9010    3.7107 H   0  0  0  0  0  0  0  0  0  0  0  0
    0.6349    0.4668    2.6626 H   0  0  0  0  0  0  0  0  0  0  0  0
   -0.5447    1.8145    2.6795 H   0  0  0  0  0  0  0  0  0  0  0  0
    1.3181    2.2735   -1.6030 C   0  0  0  0  0  0  0  0  0  0  0  0
    1.1680    3.7958   -1.7675 C   0  0  0  0  0  0  0  0  0  0  0  0
    1.7438    4.3614   -1.0102 H   0  0  0  0  0  0  0  0  0  0  0  0
    0.1078    4.1127   -1.7176 H   0  0  0  0  0  0  0  0  0  0  0  0
    1.5592    4.0887   -2.7650 H   0  0  0  0  0  0  0  0  0  0  0  0
    0.5334    1.5681   -2.7266 C   0  0  0  0  0  0  0  0  0  0  0  0
    0.9259    1.9003   -3.7110 H   0  0  0  0  0  0  0  0  0  0  0  0
   -0.5463    1.8139   -2.6789 H   0  0  0  0  0  0  0  0  0  0  0  0
    0.6334    0.4662   -2.6624 H   0  0  0  0  0  0  0  0  0  0  0  0
    2.7989    1.8734   -1.6645 C   0  0  0  0  0  0  0  0  0  0  0  0
    3.1692    2.0189   -2.7016 H   0  0  0  0  0  0  0  0  0  0  0  0
    2.9573    0.8124   -1.3928 H   0  0  0  0  0  0  0  0  0  0  0  0
    3.4263    2.4992   -1.0030 H   0  0  0  0  0  0  0  0  0  0  0  0
   -1.1795    2.3802    0.0004 C   0  0  0  0  0  3  0  0  0  0  0  0
   -1.3479    3.4656    0.0006 H   0  0  0  0  0  0  0  0  0  0  0  0
   -2.2633    1.4970    0.0004 C   0  0  0  0  0  0  0  0  0  0  0  0
   -3.6492    1.9309    0.0005 C   0  0  0  0  0  0  0  0  0  0  0  0
   -3.8536    3.0114    0.0006 H   0  0  0  0  0  0  0  0  0  0  0  0
   -4.6771    1.0237    0.0004 C   0  0  0  0  0  0  0  0  0  0  0  0
   -5.7236    1.3670    0.0005 H   0  0  0  0  0  0  0  0  0  0  0  0
   -4.4144   -0.3919    0.0002 C   0  0  0  0  0  0  0  0  0  0  0  0
   -5.4164   -1.3918    0.0001 C   0  0  0  0  0  0  0  0  0  0  0  0
   -6.4722   -1.0797    0.0002 H   0  0  0  0  0  0  0  0  0  0  0  0
   -5.0823   -2.7472   -0.0000 C   0  0  0  0  0  0  0  0  0  0  0  0
   -5.8670   -3.5169   -0.0001 H   0  0  0  0  0  0  0  0  0  0  0  0
   -3.7219   -3.1387   -0.0002 C   0  0  0  0  0  0  0  0  0  0  0  0
   -3.4232   -4.1966   -0.0003 H   0  0  0  0  0  0  0  0  0  0  0  0
   -2.7444   -2.1594   -0.0001 C   0  0  0  0  0  0  0  0  0  0  0  0
   -3.0287   -0.7687    0.0001 C   0  0  2  0  0  3  0  0  0  0  0  0
   -2.0172    0.1394    0.0002 N   0  0  0  0  0  2  0  0  0  0  0  0
   -1.4136   -2.5291   -0.0002 F   0  0  0  0  0  0  0  0  0  0  0  0
  1 28  1  0  0  0  0
  1  2  1  0  0  0  0
  2  7  1  0  0  0  0
  2  3  1  0  0  0  0
  2 11  1  0  0  0  0
  3  6  1  0  0  0  0
  4  3  1  0  0  0  0
  5  3  1  0  0  0  0
  7 10  1  0  0  0  0
  8  7  1  0  0  0  0
  9  7  1  0  0  0  0
 11 12  1  0  0  0  0
 13 11  1  0  0  0  0
 14 11  1  0  0  0  0
 15  1  1  0  0  0  0
 16 18  1  0  0  0  0
 16 15  1  0  0  0  0
 16 17  1  0  0  0  0
 19 16  1  0  0  0  0
 20 22  1  0  0  0  0
 20 23  1  0  0  0  0
 20 15  1  0  0  0  0
 21 20  1  0  0  0  0
 24 15  1  0  0  0  0
 24 26  1  0  0  0  0
 24 27  1  0  0  0  0
 25 24  1  0  0  0  0
 28 29  1  0  0  0  0
 30 28  1  0  0  0  0
 30 31  2  0  0  0  0
 31 32  1  0  0  0  0
 33 31  1  0  0  0  0
 33 34  1  0  0  0  0
 35 33  2  0  0  0  0
 36 35  1  0  0  0  0
 36 37  1  0  0  0  0
 38 36  2  0  0  0  0
 39 38  1  0  0  0  0
 40 42  2  0  0  0  0
 40 38  1  0  0  0  0
 41 40  1  0  0  0  0
 43 42  1  1  0  0  0
 43 44  1  0  0  0  0
 43 35  1  0  0  0  0
 44 30  1  0  0  0  0
 45 42  1  0  0  0  0
M  END
