51,53
 OpenBabel05122313063D

 53 57  0  0  1  0  0  0  0  0999 V2000
    1.5851   -3.2687    1.2666 C   0  0  0  0  0  3  0  0  0  0  0  0
    2.2662   -3.5583    0.4542 H   0  0  0  0  0  0  0  0  0  0  0  0
    1.3758   -4.0751    2.3865 C   0  0  0  0  0  0  0  0  0  0  0  0
    1.9493   -5.0071    2.4878 H   0  0  0  0  0  0  0  0  0  0  0  0
    0.4299   -3.6818    3.3404 C   0  0  0  0  0  0  0  0  0  0  0  0
    0.2246   -4.3000    4.2270 H   0  0  0  0  0  0  0  0  0  0  0  0
   -0.2463   -2.4732    3.1425 C   0  0  0  0  0  0  0  0  0  0  0  0
   -0.9910   -2.1150    3.8674 H   0  0  0  0  0  0  0  0  0  0  0  0
    0.0126   -1.6803    2.0106 C   0  0  0  0  0  0  0  0  0  0  0  0
   -0.6501   -0.3259    1.9056 C   0  0  2  0  0  0  0  0  0  0  0  0
   -1.3331   -0.2228    2.7720 H   0  0  0  0  0  0  0  0  0  0  0  0
   -1.5030   -0.0487    0.6295 C   0  0  2  0  0  0  0  0  0  0  0  0
   -1.3322   -0.8442   -0.1267 H   0  0  0  0  0  0  0  0  0  0  0  0
   -0.9517    1.3067    0.0317 C   0  0  1  0  0  0  0  0  0  0  0  0
   -1.3173    1.5197   -0.9875 H   0  0  0  0  0  0  0  0  0  0  0  0
   -1.1171    2.4098    1.0582 C   0  0  0  0  0  0  0  0  0  0  0  0
   -2.0713    3.5346    0.8241 C   0  0  0  0  0  0  0  0  0  0  0  0
   -3.1047    3.1526    0.6753 H   0  0  0  0  0  0  0  0  0  0  0  0
   -1.8041    4.0905   -0.1004 H   0  0  0  0  0  0  0  0  0  0  0  0
   -2.0908    4.2535    1.6649 H   0  0  0  0  0  0  0  0  0  0  0  0
   -0.2541    2.9170    3.4340 C   0  0  0  0  0  0  0  0  0  0  0  0
   -0.8769    3.8313    3.4196 H   0  0  0  0  0  0  0  0  0  0  0  0
    0.7955    3.2213    3.6379 H   0  0  0  0  0  0  0  0  0  0  0  0
   -0.5802    2.2981    4.2981 H   0  0  0  0  0  0  0  0  0  0  0  0
   -0.3495    2.1503    2.1556 C   0  0  0  0  0  0  0  0  0  0  0  0
    0.4051    0.8421    1.9803 C   0  0  2  0  0  0  0  0  0  0  0  0
    1.2058    0.6483    2.7165 H   0  0  0  0  0  0  0  0  0  0  0  0
   -2.9966    0.0683    0.9227 C   0  0  0  0  0  0  0  0  0  0  0  0
   -3.9274    0.0870   -0.2513 C   0  0  0  0  0  0  0  0  0  0  0  0
   -3.5133   -0.2088   -1.5703 C   0  0  0  0  0  0  0  0  0  0  0  0
   -2.4698   -0.4807   -1.7899 H   0  0  0  0  0  0  0  0  0  0  0  0
   -4.4383   -0.1731   -2.6230 C   0  0  0  0  0  0  0  0  0  0  0  0
   -4.1079   -0.4109   -3.6451 H   0  0  0  0  0  0  0  0  0  0  0  0
   -5.7791    0.1604   -2.3730 C   0  0  0  0  0  0  0  0  0  0  0  0
   -6.5017    0.1893   -3.2029 H   0  0  0  0  0  0  0  0  0  0  0  0
   -6.1998    0.4534   -1.0634 C   0  0  0  0  0  0  0  0  0  0  0  0
   -7.2515    0.7119   -0.8672 H   0  0  0  0  0  0  0  0  0  0  0  0
   -5.2809    0.4128   -0.0103 C   0  0  0  0  0  0  0  0  0  0  0  0
   -5.5792    0.6295    1.0263 H   0  0  0  0  0  0  0  0  0  0  0  0
    1.8858    2.3589   -0.1257 C   0  0  0  0  0  0  0  0  0  0  0  0
    2.7441    2.8353    0.8866 C   0  0  0  0  0  0  0  0  0  0  0  0
    2.7996    2.3192    1.8569 H   0  0  0  0  0  0  0  0  0  0  0  0
    3.5359    3.9699    0.6590 C   0  0  0  0  0  0  0  0  0  0  0  0
    4.2039    4.3376    1.4526 H   0  0  0  0  0  0  0  0  0  0  0  0
    3.4754    4.6329   -0.5771 C   0  0  0  0  0  0  0  0  0  0  0  0
    4.0968    5.5238   -0.7544 H   0  0  0  0  0  0  0  0  0  0  0  0
    2.6277    4.1542   -1.5888 C   0  0  0  0  0  0  0  0  0  0  0  0
    2.5865    4.6657   -2.5623 H   0  0  0  0  0  0  0  0  0  0  0  0
    1.8363    3.0172   -1.3721 C   0  0  0  0  0  0  0  0  0  0  0  0
    1.2007    2.6145   -2.1734 H   0  0  0  0  0  0  0  0  0  0  0  0
    0.9139   -2.1017    1.0701 N   0  0  0  0  0  2  0  0  0  0  0  0
   -3.4151    0.1908    2.0719 O   0  0  0  0  0  0  0  0  0  0  0  0
    0.8701    0.8773    0.1709 P   0  0  2  0  0  0  0  0  0  0  0  0
  1  3  1  0  0  0  0
  2  1  1  0  0  0  0
  3  4  1  0  0  0  0
  3  5  2  0  0  0  0
  5  6  1  0  0  0  0
  7  5  1  0  0  0  0
  7  8  1  0  0  0  0
  9  7  2  0  0  0  0
 10 26  1  0  0  0  0
 10  9  1  0  0  0  0
 10 11  1  1  0  0  0
 12 13  1  6  0  0  0
 12 28  1  0  0  0  0
 12 10  1  0  0  0  0
 14 15  1  6  0  0  0
 14 53  1  0  0  0  0
 14 12  1  0  0  0  0
 14 16  1  0  0  0  0
 16 25  2  0  0  0  0
 17 16  1  0  0  0  0
 17 20  1  0  0  0  0
 18 17  1  0  0  0  0
 19 17  1  0  0  0  0
 21 23  1  0  0  0  0
 21 24  1  0  0  0  0
 22 21  1  0  0  0  0
 25 21  1  0  0  0  0
 26 25  1  0  0  0  0
 26 27  1  1  0  0  0
 28 52  2  0  0  0  0
 29 38  1  0  0  0  0
 29 28  1  0  0  0  0
 30 29  2  0  0  0  0
 31 30  1  0  0  0  0
 32 34  2  0  0  0  0
 32 30  1  0  0  0  0
 33 32  1  0  0  0  0
 34 36  1  0  0  0  0
 35 34  1  0  0  0  0
 36 37  1  0  0  0  0
 36 38  2  0  0  0  0
 38 39  1  0  0  0  0
 40 41  1  0  0  0  0
 41 42  1  0  0  0  0
 43 41  2  0  0  0  0
 43 44  1  0  0  0  0
 45 43  1  0  0  0  0
 46 45  1  0  0  0  0
 47 49  1  0  0  0  0
 47 45  2  0  0  0  0
 48 47  1  0  0  0  0
 49 40  2  0  0  0  0
 50 49  1  0  0  0  0
 51  1  1  0  0  0  0
 51  9  1  0  0  0  0
 53 40  1  1  0  0  0
 53 26  1  0  0  0  0
M  END
