1,2
 OpenBabel05122313063D

 30 32  0  0  1  0  0  0  0  0999 V2000
    1.9057    0.4125   -0.0764 P   0  0  1  0  0  0  0  0  0  0  0  0
    2.2040   -2.4040   -0.0987 N   0  0  0  0  0  0  0  0  0  0  0  0
    2.8701    0.1683    1.3038 N   0  0  1  0  0  0  0  0  0  0  0  0
    1.9483    2.1168   -0.0254 N   0  0  2  0  0  0  0  0  0  0  0  0
    2.8315    0.2667   -1.5290 N   0  0  2  0  0  0  0  0  0  0  0  0
    2.8755   -2.2687   -1.4270 C   0  0  0  0  0  0  0  0  0  0  0  0
    3.6260   -0.9544   -1.6608 C   0  0  0  0  0  0  0  0  0  0  0  0
    3.5545    1.5251   -1.7628 C   0  0  0  0  0  0  0  0  0  0  0  0
    2.6113    2.6240   -1.2430 C   0  0  0  0  0  0  0  0  0  0  0  0
    2.4006    2.5215    1.3221 C   0  0  0  0  0  0  0  0  0  0  0  0
    3.3376    1.4281    1.8965 C   0  0  0  0  0  0  0  0  0  0  0  0
    2.8164   -1.1037    2.0168 C   0  0  0  0  0  0  0  0  0  0  0  0
    3.0949   -2.3118    1.1056 C   0  0  0  0  0  0  0  0  0  0  0  0
    1.6966   -3.3087   -0.0874 H   0  0  0  0  0  0  0  0  0  0  0  0
    3.6107   -3.0936   -1.5521 H   0  0  0  0  0  0  0  0  0  0  0  0
    2.0827   -2.3986   -2.1897 H   0  0  0  0  0  0  0  0  0  0  0  0
    4.0293   -1.0058   -2.6941 H   0  0  0  0  0  0  0  0  0  0  0  0
    4.5175   -0.9052   -0.9855 H   0  0  0  0  0  0  0  0  0  0  0  0
    4.5282    1.5389   -1.2120 H   0  0  0  0  0  0  0  0  0  0  0  0
    3.7769    1.6479   -2.8435 H   0  0  0  0  0  0  0  0  0  0  0  0
    1.8395    2.8625   -2.0046 H   0  0  0  0  0  0  0  0  0  0  0  0
    3.1543    3.5595   -1.0098 H   0  0  0  0  0  0  0  0  0  0  0  0
    2.8981    3.5081    1.2583 H   0  0  0  0  0  0  0  0  0  0  0  0
    1.5117    2.6366    1.9746 H   0  0  0  0  0  0  0  0  0  0  0  0
    3.2536    1.3890    3.0024 H   0  0  0  0  0  0  0  0  0  0  0  0
    4.4050    1.6224    1.6435 H   0  0  0  0  0  0  0  0  0  0  0  0
    3.5941   -1.1023    2.8071 H   0  0  0  0  0  0  0  0  0  0  0  0
    1.8318   -1.2441    2.5223 H   0  0  0  0  0  0  0  0  0  0  0  0
    2.9611   -3.2350    1.7031 H   0  0  0  0  0  0  0  0  0  0  0  0
    4.1493   -2.2865    0.7627 H   0  0  0  0  0  0  0  0  0  0  0  0
  1  4  1  0  0  0  0
  1  3  1  0  0  0  0
  2 14  1  0  0  0  0
  2 13  1  0  0  0  0
  3 11  1  1  0  0  0
  3 12  1  0  0  0  0
  4 10  1  0  0  0  0
  5  8  1  1  0  0  0
  5  1  1  0  0  0  0
  6  2  1  0  0  0  0
  7  5  1  0  0  0  0
  7  6  1  0  0  0  0
  7 18  1  0  0  0  0
  8  9  1  0  0  0  0
  8 19  1  0  0  0  0
  9 22  1  0  0  0  0
  9  4  1  0  0  0  0
 10 11  1  0  0  0  0
 10 24  1  0  0  0  0
 11 25  1  0  0  0  0
 12 28  1  0  0  0  0
 12 27  1  0  0  0  0
 13 29  1  0  0  0  0
 13 12  1  0  0  0  0
 15  6  1  0  0  0  0
 16  6  1  0  0  0  0
 17  7  1  0  0  0  0
 20  8  1  0  0  0  0
 21  9  1  0  0  0  0
 23 10  1  0  0  0  0
 26 11  1  0  0  0  0
 30 13  1  0  0  0  0
M  END
