1,2
 OpenBabel05122313063D

 49 53  0  0  1  0  0  0  0  0999 V2000
    0.2373   -0.1503    0.3732 P   0  0  1  0  0  0  0  0  0  0  0  0
   -2.6883    0.0647    0.2445 N   0  0  0  0  0  2  0  0  0  0  0  0
   -0.7426    1.2242    1.1929 C   0  0  1  0  0  0  0  0  0  0  0  0
   -0.3759    1.3507    2.2347 H   0  0  0  0  0  0  0  0  0  0  0  0
   -0.3463    2.4598    0.3781 C   0  0  0  0  0  0  0  0  0  0  0  0
   -1.0935    3.5900    0.2548 C   0  0  0  0  0  0  0  0  0  0  0  0
   -2.0945    3.6363    0.7139 H   0  0  0  0  0  0  0  0  0  0  0  0
   -0.5874    4.7968   -0.4854 C   0  0  0  0  0  0  0  0  0  0  0  0
   -0.9794    5.7209   -0.0105 H   0  0  0  0  0  0  0  0  0  0  0  0
   -1.0047    4.8010   -1.5206 H   0  0  0  0  0  0  0  0  0  0  0  0
    0.9461    4.8206   -0.5382 C   0  0  0  0  0  0  0  0  0  0  0  0
    1.3374    5.0230    0.4826 H   0  0  0  0  0  0  0  0  0  0  0  0
    1.2993    5.6473   -1.1868 H   0  0  0  0  0  0  0  0  0  0  0  0
    1.5052    3.4848   -1.0395 C   0  0  0  0  0  0  0  0  0  0  0  0
    1.1971    3.3313   -2.1002 H   0  0  0  0  0  0  0  0  0  0  0  0
    2.6104    3.4838   -1.0513 H   0  0  0  0  0  0  0  0  0  0  0  0
    0.9591    2.3056   -0.2672 C   0  0  2  0  0  3  0  0  0  0  0  0
    1.4961    1.0347   -0.2385 C   0  0  2  0  0  3  0  0  0  0  0  0
    2.8436    0.6092   -0.6475 C   0  0  0  0  0  0  0  0  0  0  0  0
    3.9730    1.3756   -0.2647 C   0  0  0  0  0  0  0  0  0  0  0  0
    3.8311    2.2841    0.3403 H   0  0  0  0  0  0  0  0  0  0  0  0
    5.2668    0.9667   -0.6096 C   0  0  0  0  0  0  0  0  0  0  0  0
    6.1315    1.5720   -0.2971 H   0  0  0  0  0  0  0  0  0  0  0  0
    5.4611   -0.2200   -1.3362 C   0  0  0  0  0  0  0  0  0  0  0  0
    6.4783   -0.5425   -1.6060 H   0  0  0  0  0  0  0  0  0  0  0  0
    4.3513   -0.9995   -1.6984 C   0  0  0  0  0  0  0  0  0  0  0  0
    4.4922   -1.9383   -2.2552 H   0  0  0  0  0  0  0  0  0  0  0  0
    3.0539   -0.5988   -1.3518 C   0  0  0  0  0  0  0  0  0  0  0  0
    2.1895   -1.2249   -1.6342 H   0  0  0  0  0  0  0  0  0  0  0  0
   -2.2112    0.9223    1.1942 C   0  0  1  0  0  3  0  0  0  0  0  0
   -3.0766    1.5296    2.1186 C   0  0  0  0  0  0  0  0  0  0  0  0
   -2.6547    2.1944    2.8860 H   0  0  0  0  0  0  0  0  0  0  0  0
   -4.4544    1.2870    2.0494 C   0  0  0  0  0  0  0  0  0  0  0  0
   -5.1415    1.7570    2.7689 H   0  0  0  0  0  0  0  0  0  0  0  0
   -4.9310    0.4328    1.0473 C   0  0  0  0  0  0  0  0  0  0  0  0
   -6.0019    0.2083    0.9421 H   0  0  0  0  0  0  0  0  0  0  0  0
   -4.0207   -0.1653    0.1707 C   0  0  0  0  0  0  0  0  0  0  0  0
   -4.3152   -0.8659   -0.6325 H   0  0  0  0  0  0  0  0  0  0  0  0
    1.0457   -1.1876    1.6356 C   0  0  0  0  0  0  0  0  0  0  0  0
    1.8560   -0.6008    2.6304 C   0  0  0  0  0  0  0  0  0  0  0  0
    2.0169    0.4892    2.6409 H   0  0  0  0  0  0  0  0  0  0  0  0
    2.4703   -1.4108    3.5943 C   0  0  0  0  0  0  0  0  0  0  0  0
    3.1014   -0.9549    4.3721 H   0  0  0  0  0  0  0  0  0  0  0  0
    2.2896   -2.8047    3.5586 C   0  0  0  0  0  0  0  0  0  0  0  0
    2.7777   -3.4393    4.3140 H   0  0  0  0  0  0  0  0  0  0  0  0
    1.5003   -3.3890    2.5561 C   0  0  0  0  0  0  0  0  0  0  0  0
    1.3727   -4.4813    2.5191 H   0  0  0  0  0  0  0  0  0  0  0  0
    0.8754   -2.5851    1.5900 C   0  0  0  0  0  0  0  0  0  0  0  0
    0.2831   -3.0296    0.7744 H   0  0  0  0  0  0  0  0  0  0  0  0
  1  3  1  0  0  0  0
  1 39  1  1  0  0  0
  3 30  1  0  0  0  0
  3  4  1  1  0  0  0
  5  3  1  0  0  0  0
  6  5  2  0  0  0  0
  6  7  1  0  0  0  0
  8  9  1  0  0  0  0
  8  6  1  0  0  0  0
 10  8  1  0  0  0  0
 11  8  1  0  0  0  0
 11 12  1  0  0  0  0
 13 11  1  0  0  0  0
 14 11  1  0  0  0  0
 14 17  1  0  0  0  0
 15 14  1  0  0  0  0
 16 14  1  0  0  0  0
 17 18  1  0  0  0  0
 17  5  1  6  0  0  0
 18 19  1  6  0  0  0
 18  1  1  0  0  0  0
 19 20  1  0  0  0  0
 20 21  1  0  0  0  0
 22 23  1  0  0  0  0
 22 20  2  0  0  0  0
 24 22  1  0  0  0  0
 25 24  1  0  0  0  0
 26 28  1  0  0  0  0
 26 24  2  0  0  0  0
 27 26  1  0  0  0  0
 28 19  2  0  0  0  0
 29 28  1  0  0  0  0
 30  2  1  6  0  0  0
 30 31  1  0  0  0  0
 31 32  1  0  0  0  0
 33 31  2  0  0  0  0
 33 34  1  0  0  0  0
 35 33  1  0  0  0  0
 36 35  1  0  0  0  0
 37  2  1  0  0  0  0
 37 35  2  0  0  0  0
 38 37  1  0  0  0  0
 39 40  1  0  0  0  0
 40 41  1  0  0  0  0
 40 42  2  0  0  0  0
 42 43  1  0  0  0  0
 44 42  1  0  0  0  0
 44 45  1  0  0  0  0
 46 44  2  0  0  0  0
 47 46  1  0  0  0  0
 48 39  2  0  0  0  0
 48 46  1  0  0  0  0
 49 48  1  0  0  0  0
M  END
