34,35
 OpenBabel05122313063D

 35 37  0  0  0  0  0  0  0  0999 V2000
    0.1634    0.3391    2.1240 C   0  0  0  0  0  0  0  0  0  0  0  0
    0.2050   -0.6708    2.5872 H   0  0  0  0  0  0  0  0  0  0  0  0
    0.8012    1.0262    2.7130 H   0  0  0  0  0  0  0  0  0  0  0  0
   -1.2647    0.7742    2.0514 C   0  0  0  0  0  0  0  0  0  0  0  0
   -3.3513    0.9527    1.2499 C   0  0  0  0  0  0  0  0  0  0  0  0
   -4.1190    0.1472    1.2883 H   0  0  0  0  0  0  0  0  0  0  0  0
   -3.5991    1.5503    0.3425 H   0  0  0  0  0  0  0  0  0  0  0  0
   -3.2568    1.7672    2.4958 C   0  0  0  0  0  3  0  0  0  0  0  0
   -4.0840    2.3439    2.9307 H   0  0  0  0  0  0  0  0  0  0  0  0
   -1.9860    1.6523    2.9733 C   0  0  0  0  0  0  0  0  0  0  0  0
   -1.5559    2.1130    3.8718 H   0  0  0  0  0  0  0  0  0  0  0  0
    1.3195    1.6837   -0.2232 C   0  0  0  0  0  0  0  0  0  0  0  0
    1.9153    1.7106   -1.5035 C   0  0  0  0  0  0  0  0  0  0  0  0
    2.0451    0.7717   -2.0642 H   0  0  0  0  0  0  0  0  0  0  0  0
    2.3163    2.9277   -2.0659 C   0  0  0  0  0  0  0  0  0  0  0  0
    2.7799    2.9400   -3.0638 H   0  0  0  0  0  0  0  0  0  0  0  0
    2.1140    4.1302   -1.3669 C   0  0  0  0  0  0  0  0  0  0  0  0
    2.4254    5.0867   -1.8132 H   0  0  0  0  0  0  0  0  0  0  0  0
    1.5049    4.1098   -0.1040 C   0  0  0  0  0  0  0  0  0  0  0  0
    1.3354    5.0495    0.4433 H   0  0  0  0  0  0  0  0  0  0  0  0
    1.1055    2.8910    0.4678 C   0  0  0  0  0  0  0  0  0  0  0  0
    0.6195    2.8952    1.4546 H   0  0  0  0  0  0  0  0  0  0  0  0
    2.2937   -0.9160    0.5423 C   0  0  0  0  0  0  0  0  0  0  0  0
    3.4813   -0.2893    0.9778 C   0  0  0  0  0  0  0  0  0  0  0  0
    3.4857    0.7897    1.1974 H   0  0  0  0  0  0  0  0  0  0  0  0
    4.6587   -1.0377    1.1138 C   0  0  0  0  0  0  0  0  0  0  0  0
    5.5826   -0.5457    1.4539 H   0  0  0  0  0  0  0  0  0  0  0  0
    4.6593   -2.4089    0.8083 C   0  0  0  0  0  0  0  0  0  0  0  0
    5.5861   -2.9940    0.9103 H   0  0  0  0  0  0  0  0  0  0  0  0
    3.4811   -3.0303    0.3663 C   0  0  0  0  0  0  0  0  0  0  0  0
    3.4809   -4.1025    0.1186 H   0  0  0  0  0  0  0  0  0  0  0  0
    2.2966   -2.2905    0.2308 C   0  0  0  0  0  0  0  0  0  0  0  0
    1.3700   -2.7715   -0.1139 H   0  0  0  0  0  0  0  0  0  0  0  0
   -2.0354    0.3665    1.0685 N   0  0  0  0  0  2  0  0  0  0  0  0
    0.7465    0.0555    0.3759 P   0  0  0  0  0  0  0  0  0  0  0  0
  1  2  1  0  0  0  0
  1  3  1  0  0  0  0
  4  1  1  0  0  0  0
  4 10  2  0  0  0  0
  5  6  1  0  0  0  0
  5  8  1  0  0  0  0
  7  5  1  0  0  0  0
  8  9  1  0  0  0  0
  8 10  1  0  0  0  0
 10 11  1  0  0  0  0
 12 35  1  0  0  0  0
 12 21  1  0  0  0  0
 13 12  2  0  0  0  0
 14 13  1  0  0  0  0
 15 13  1  0  0  0  0
 15 17  2  0  0  0  0
 16 15  1  0  0  0  0
 17 19  1  0  0  0  0
 18 17  1  0  0  0  0
 19 20  1  0  0  0  0
 19 21  2  0  0  0  0
 21 22  1  0  0  0  0
 23 24  1  0  0  0  0
 24 26  2  0  0  0  0
 24 25  1  0  0  0  0
 26 27  1  0  0  0  0
 28 29  1  0  0  0  0
 28 26  1  0  0  0  0
 30 28  2  0  0  0  0
 31 30  1  0  0  0  0
 32 30  1  0  0  0  0
 32 23  2  0  0  0  0
 33 32  1  0  0  0  0
 34  5  1  0  0  0  0
 34  4  1  0  0  0  0
 35 23  1  0  0  0  0
 35  1  1  0  0  0  0
M  END
