1,3
 OpenBabel05122313063D

 33 33  0  0  1  0  0  0  0  0999 V2000
    1.2439    0.2890    0.0084 P   0  0  0  0  0  0  0  0  0  0  0  0
   -1.6168    3.1219   -0.1990 O   0  0  0  0  0  0  0  0  0  0  0  0
   -1.5768    0.8730   -0.0302 N   0  0  0  0  0  2  0  0  0  0  0  0
   -2.9940    1.2030    0.1280 C   0  0  0  0  0  0  0  0  0  0  0  0
   -3.3242    0.9073    1.1453 H   0  0  0  0  0  0  0  0  0  0  0  0
   -3.5954    0.6049   -0.5846 H   0  0  0  0  0  0  0  0  0  0  0  0
   -3.0269    2.7320   -0.1164 C   0  0  0  0  0  0  0  0  0  0  0  0
   -3.5052    3.0156   -1.0761 H   0  0  0  0  0  0  0  0  0  0  0  0
   -3.4897    3.3153    0.7027 H   0  0  0  0  0  0  0  0  0  0  0  0
   -0.9135    1.9722   -0.1884 C   0  0  1  0  0  3  0  0  0  0  0  0
    0.5691    2.0102   -0.3705 C   0  0  0  0  0  0  0  0  0  0  0  0
    1.0236    2.8075    0.2530 H   0  0  0  0  0  0  0  0  0  0  0  0
    0.7975    2.2634   -1.4278 H   0  0  0  0  0  0  0  0  0  0  0  0
    2.6382    0.0638   -1.2144 C   0  0  0  0  0  0  0  0  0  0  0  0
    3.0763   -0.9093   -0.8998 H   0  0  0  0  0  0  0  0  0  0  0  0
    2.0548   -0.1172   -2.6210 C   0  0  0  0  0  0  0  0  0  0  0  0
    1.5969    0.8215   -2.9984 H   0  0  0  0  0  0  0  0  0  0  0  0
    1.2725   -0.9023   -2.6330 H   0  0  0  0  0  0  0  0  0  0  0  0
    2.8545   -0.4011   -3.3355 H   0  0  0  0  0  0  0  0  0  0  0  0
    3.7180    1.1477   -1.1476 C   0  0  0  0  0  0  0  0  0  0  0  0
    4.5248    0.9308   -1.8783 H   0  0  0  0  0  0  0  0  0  0  0  0
    4.1889    1.2176   -0.1470 H   0  0  0  0  0  0  0  0  0  0  0  0
    3.3096    2.1478   -1.4031 H   0  0  0  0  0  0  0  0  0  0  0  0
    2.0499    0.5198    1.6818 C   0  0  0  0  0  0  0  0  0  0  0  0
    2.7348    1.3931    1.5949 H   0  0  0  0  0  0  0  0  0  0  0  0
    0.9627    0.8269    2.7195 C   0  0  0  0  0  0  0  0  0  0  0  0
    0.2308   -0.0056    2.7733 H   0  0  0  0  0  0  0  0  0  0  0  0
    0.3997    1.7527    2.4835 H   0  0  0  0  0  0  0  0  0  0  0  0
    1.4181    0.9601    3.7224 H   0  0  0  0  0  0  0  0  0  0  0  0
    2.8530   -0.7309    2.0562 C   0  0  0  0  0  0  0  0  0  0  0  0
    3.2791   -0.6197    3.0745 H   0  0  0  0  0  0  0  0  0  0  0  0
    3.6959   -0.9184    1.3615 H   0  0  0  0  0  0  0  0  0  0  0  0
    2.2027   -1.6291    2.0551 H   0  0  0  0  0  0  0  0  0  0  0  0
  1 24  1  0  0  0  0
  2 10  1  0  0  0  0
  2  7  1  0  0  0  0
  3  4  1  0  0  0  0
  4  5  1  0  0  0  0
  6  4  1  0  0  0  0
  7  4  1  0  0  0  0
  7  9  1  0  0  0  0
  8  7  1  0  0  0  0
 10 11  1  6  0  0  0
 10  3  1  0  0  0  0
 11  1  1  0  0  0  0
 11 12  1  0  0  0  0
 13 11  1  0  0  0  0
 14 20  1  0  0  0  0
 14 15  1  0  0  0  0
 14  1  1  0  0  0  0
 16 14  1  0  0  0  0
 17 16  1  0  0  0  0
 18 16  1  0  0  0  0
 19 16  1  0  0  0  0
 20 22  1  0  0  0  0
 21 20  1  0  0  0  0
 23 20  1  0  0  0  0
 24 30  1  0  0  0  0
 24 26  1  0  0  0  0
 25 24  1  0  0  0  0
 26 27  1  0  0  0  0
 26 29  1  0  0  0  0
 28 26  1  0  0  0  0
 30 31  1  0  0  0  0
 32 30  1  0  0  0  0
 33 30  1  0  0  0  0
M  END
