1,57
 OpenBabel05122313063D

 58 61  0  0  0  0  0  0  0  0999 V2000
    1.5669   -0.1703   -0.5410 P   0  0  0  0  0  0  0  0  0  0  0  0
   -1.8575   -0.1728   -0.4868 P   0  0  0  0  0  4  0  0  0  0  0  0
    0.4979   -0.8694   -1.8983 C   0  0  0  0  0  0  0  0  0  0  0  0
    1.0634   -0.8266   -2.8517 H   0  0  0  0  0  0  0  0  0  0  0  0
    0.3187   -1.9376   -1.6623 H   0  0  0  0  0  0  0  0  0  0  0  0
   -0.8210   -0.1050   -2.0375 C   0  0  0  0  0  0  0  0  0  0  0  0
   -1.4302   -0.5222   -2.8644 H   0  0  0  0  0  0  0  0  0  0  0  0
   -0.6322    0.9627   -2.2717 H   0  0  0  0  0  0  0  0  0  0  0  0
   -1.5936   -2.4051    1.0898 C   0  0  0  0  0  0  0  0  0  0  0  0
   -2.6878   -2.5853    0.9853 H   0  0  0  0  0  0  0  0  0  0  0  0
   -1.3423   -2.5311    2.1681 H   0  0  0  0  0  0  0  0  0  0  0  0
   -0.8787   -3.4056    0.2740 C   0  0  0  0  0  0  0  0  0  0  0  0
   -3.4774   -0.8460   -0.9776 C   0  0  0  0  0  0  0  0  0  0  0  0
   -3.5322   -2.0387   -1.7321 C   0  0  0  0  0  0  0  0  0  0  0  0
   -2.6069   -2.5328   -2.0693 H   0  0  0  0  0  0  0  0  0  0  0  0
   -4.7732   -2.6156   -2.0359 C   0  0  0  0  0  0  0  0  0  0  0  0
   -4.8131   -3.5472   -2.6198 H   0  0  0  0  0  0  0  0  0  0  0  0
   -5.9593   -2.0077   -1.5919 C   0  0  0  0  0  0  0  0  0  0  0  0
   -6.9322   -2.4614   -1.8343 H   0  0  0  0  0  0  0  0  0  0  0  0
   -5.9060   -0.8259   -0.8359 C   0  0  0  0  0  0  0  0  0  0  0  0
   -6.8349   -0.3522   -0.4848 H   0  0  0  0  0  0  0  0  0  0  0  0
   -4.6682   -0.2446   -0.5231 C   0  0  0  0  0  0  0  0  0  0  0  0
   -4.6222    0.6790    0.0735 H   0  0  0  0  0  0  0  0  0  0  0  0
   -2.0876    1.5368    0.0837 C   0  0  0  0  0  0  0  0  0  0  0  0
   -2.2972    2.5816   -0.8402 C   0  0  0  0  0  0  0  0  0  0  0  0
   -2.3421    2.3784   -1.9214 H   0  0  0  0  0  0  0  0  0  0  0  0
   -2.4458    3.8970   -0.3792 C   0  0  0  0  0  0  0  0  0  0  0  0
   -2.6019    4.7140   -1.0993 H   0  0  0  0  0  0  0  0  0  0  0  0
   -2.3827    4.1684    0.9982 C   0  0  0  0  0  0  0  0  0  0  0  0
   -2.4842    5.2040    1.3572 H   0  0  0  0  0  0  0  0  0  0  0  0
   -2.1891    3.1235    1.9158 C   0  0  0  0  0  0  0  0  0  0  0  0
   -2.1322    3.3320    2.9945 H   0  0  0  0  0  0  0  0  0  0  0  0
   -2.0473    1.8008    1.4687 C   0  0  0  0  0  0  0  0  0  0  0  0
   -1.8591    0.9848    2.1898 H   0  0  0  0  0  0  0  0  0  0  0  0
    1.8846    1.5271   -1.1600 C   0  0  0  0  0  0  0  0  0  0  0  0
    1.3755    2.6253   -0.4394 C   0  0  0  0  0  0  0  0  0  0  0  0
    0.8901    2.4513    0.5328 H   0  0  0  0  0  0  0  0  0  0  0  0
    1.5086    3.9229   -0.9564 C   0  0  0  0  0  0  0  0  0  0  0  0
    1.1062    4.7755   -0.3890 H   0  0  0  0  0  0  0  0  0  0  0  0
    2.1562    4.1309   -2.1841 C   0  0  0  0  0  0  0  0  0  0  0  0
    2.2645    5.1504   -2.5850 H   0  0  0  0  0  0  0  0  0  0  0  0
    2.6754    3.0384   -2.8997 C   0  0  0  0  0  0  0  0  0  0  0  0
    3.1926    3.2003   -3.8577 H   0  0  0  0  0  0  0  0  0  0  0  0
    2.5388    1.7381   -2.3922 C   0  0  0  0  0  0  0  0  0  0  0  0
    2.9546    0.8846   -2.9508 H   0  0  0  0  0  0  0  0  0  0  0  0
    3.1221   -1.1124   -0.6980 C   0  0  0  0  0  0  0  0  0  0  0  0
    4.3653   -0.4625   -0.5564 C   0  0  0  0  0  0  0  0  0  0  0  0
    4.3981    0.6222   -0.3816 H   0  0  0  0  0  0  0  0  0  0  0  0
    5.5515   -1.2067   -0.6183 C   0  0  0  0  0  0  0  0  0  0  0  0
    6.5197   -0.6955   -0.5074 H   0  0  0  0  0  0  0  0  0  0  0  0
    5.5055   -2.5973   -0.8066 C   0  0  0  0  0  0  0  0  0  0  0  0
    6.4391   -3.1786   -0.8501 H   0  0  0  0  0  0  0  0  0  0  0  0
    4.2669   -3.2478   -0.9233 C   0  0  0  0  0  0  0  0  0  0  0  0
    4.2235   -4.3398   -1.0516 H   0  0  0  0  0  0  0  0  0  0  0  0
    3.0737   -2.5131   -0.8636 C   0  0  0  0  0  0  0  0  0  0  0  0
    2.1117   -3.0459   -0.9214 H   0  0  0  0  0  0  0  0  0  0  0  0
   -1.2124   -1.0592    0.7148 N   0  0  0  0  0  2  0  0  0  0  0  0
   -0.2724   -4.0886   -0.4626 N   0  0  0  0  0  0  0  0  0  0  0  0
  2 24  1  0  0  0  0
  2 57  1  0  0  0  0
  3  5  1  0  0  0  0
  3  1  1  0  0  0  0
  4  3  1  0  0  0  0
  6  3  1  0  0  0  0
  6  2  1  0  0  0  0
  7  6  1  0  0  0  0
  8  6  1  0  0  0  0
  9 11  1  0  0  0  0
 10  9  1  0  0  0  0
 12  9  1  0  0  0  0
 13 22  1  0  0  0  0
 13  2  1  0  0  0  0
 14 13  2  0  0  0  0
 15 14  1  0  0  0  0
 16 14  1  0  0  0  0
 16 18  2  0  0  0  0
 17 16  1  0  0  0  0
 18 20  1  0  0  0  0
 19 18  1  0  0  0  0
 20 22  2  0  0  0  0
 20 21  1  0  0  0  0
 22 23  1  0  0  0  0
 24 33  1  0  0  0  0
 25 27  1  0  0  0  0
 25 24  2  0  0  0  0
 26 25  1  0  0  0  0
 27 29  2  0  0  0  0
 28 27  1  0  0  0  0
 29 30  1  0  0  0  0
 29 31  1  0  0  0  0
 31 32  1  0  0  0  0
 33 31  2  0  0  0  0
 33 34  1  0  0  0  0
 35  1  1  0  0  0  0
 35 36  1  0  0  0  0
 36 37  1  0  0  0  0
 38 36  2  0  0  0  0
 38 39  1  0  0  0  0
 40 38  1  0  0  0  0
 41 40  1  0  0  0  0
 42 44  1  0  0  0  0
 42 40  2  0  0  0  0
 43 42  1  0  0  0  0
 44 35  2  0  0  0  0
 45 44  1  0  0  0  0
 46 47  1  0  0  0  0
 46  1  1  0  0  0  0
 47 48  1  0  0  0  0
 49 47  2  0  0  0  0
 49 50  1  0  0  0  0
 51 49  1  0  0  0  0
 52 51  1  0  0  0  0
 53 55  1  0  0  0  0
 53 51  2  0  0  0  0
 54 53  1  0  0  0  0
 55 46  2  0  0  0  0
 56 55  1  0  0  0  0
 57  9  1  0  0  0  0
 58 12  3  0  0  0  0
M  END
