1,2
 OpenBabel05122313063D

 53 58  0  0  0  0  0  0  0  0999 V2000
   -1.0905    0.0850    0.0831 P   0  0  1  0  0  0  0  0  0  0  0  0
    1.7639   -0.3045   -0.2400 N   0  0  0  0  0  2  0  0  0  0  0  0
    3.0416   -0.5588   -0.1985 N   0  0  0  0  0  2  0  0  0  0  0  0
    3.6515    0.6030    0.0921 N   0  0  0  0  0  0  0  0  0  0  0  0
   -2.4668    1.1840   -0.5017 C   0  0  0  0  0  0  0  0  0  0  0  0
   -1.9340    2.4429   -0.6926 C   0  0  0  0  0  0  0  0  0  0  0  0
   -2.4677    3.7470   -1.2348 C   0  0  0  0  0  0  0  0  0  0  0  0
   -2.9177    4.3487   -0.4120 H   0  0  0  0  0  0  0  0  0  0  0  0
   -3.2591    3.6085   -1.9977 H   0  0  0  0  0  0  0  0  0  0  0  0
   -1.1958    4.4440   -1.7866 C   0  0  0  0  0  0  0  0  0  0  0  0
   -1.0242    4.1062   -2.8294 H   0  0  0  0  0  0  0  0  0  0  0  0
   -1.2819    5.5477   -1.8067 H   0  0  0  0  0  0  0  0  0  0  0  0
   -0.0306    3.9430   -0.8949 C   0  0  0  0  0  0  0  0  0  0  0  0
    0.9503    3.9163   -1.4134 H   0  0  0  0  0  0  0  0  0  0  0  0
    0.0990    4.5992   -0.0044 H   0  0  0  0  0  0  0  0  0  0  0  0
   -0.4976    2.5840   -0.4503 C   0  0  0  0  0  0  0  0  0  0  0  0
    0.1275    1.4524    0.0076 C   0  0  0  0  0  0  0  0  0  0  0  0
    1.5056    1.0367    0.0363 C   0  0  0  0  0  0  0  0  0  0  0  0
    2.7466    1.6264    0.2458 C   0  0  0  0  0  0  0  0  0  0  0  0
    3.0338    2.6552    0.4709 H   0  0  0  0  0  0  0  0  0  0  0  0
   -3.8486    0.7304   -0.5947 C   0  0  0  0  0  0  0  0  0  0  0  0
   -4.1368   -0.6506   -0.7375 C   0  0  0  0  0  0  0  0  0  0  0  0
   -3.3128   -1.3845   -0.8131 H   0  0  0  0  0  0  0  0  0  0  0  0
   -5.4608   -1.0961   -0.8201 C   0  0  0  0  0  0  0  0  0  0  0  0
   -5.6589   -2.1720   -0.9392 H   0  0  0  0  0  0  0  0  0  0  0  0
   -6.5248   -0.1819   -0.7548 C   0  0  0  0  0  0  0  0  0  0  0  0
   -7.5652   -0.5358   -0.8170 H   0  0  0  0  0  0  0  0  0  0  0  0
   -6.2546    1.1891   -0.6008 C   0  0  0  0  0  0  0  0  0  0  0  0
   -7.0833    1.9105   -0.5341 H   0  0  0  0  0  0  0  0  0  0  0  0
   -4.9340    1.6429   -0.5188 C   0  0  0  0  0  0  0  0  0  0  0  0
   -4.7396    2.7133   -0.3657 H   0  0  0  0  0  0  0  0  0  0  0  0
    5.0740    0.6361    0.1917 C   0  0  0  0  0  0  0  0  0  0  0  0
    5.7150    1.7374    0.7851 C   0  0  0  0  0  0  0  0  0  0  0  0
    5.1338    2.5705    1.2041 H   0  0  0  0  0  0  0  0  0  0  0  0
    7.1147    1.7554    0.8600 C   0  0  0  0  0  0  0  0  0  0  0  0
    7.6187    2.6157    1.3249 H   0  0  0  0  0  0  0  0  0  0  0  0
    7.8667    0.6820    0.3585 C   0  0  0  0  0  0  0  0  0  0  0  0
    8.9646    0.7003    0.4229 H   0  0  0  0  0  0  0  0  0  0  0  0
    7.2113   -0.4170   -0.2214 C   0  0  0  0  0  0  0  0  0  0  0  0
    7.7938   -1.2635   -0.6143 H   0  0  0  0  0  0  0  0  0  0  0  0
    5.8147   -0.4492   -0.3126 C   0  0  0  0  0  0  0  0  0  0  0  0
    5.2825   -1.2981   -0.7631 H   0  0  0  0  0  0  0  0  0  0  0  0
   -1.5442   -0.2313    1.8331 C   0  0  0  0  0  0  0  0  0  0  0  0
   -1.6772    0.8326    2.7477 C   0  0  0  0  0  0  0  0  0  0  0  0
   -1.4927    1.8670    2.4178 H   0  0  0  0  0  0  0  0  0  0  0  0
   -2.0417    0.5646    4.0736 C   0  0  0  0  0  0  0  0  0  0  0  0
   -2.1392    1.3922    4.7927 H   0  0  0  0  0  0  0  0  0  0  0  0
   -2.2851   -0.7583    4.4832 C   0  0  0  0  0  0  0  0  0  0  0  0
   -2.5727   -0.9651    5.5254 H   0  0  0  0  0  0  0  0  0  0  0  0
   -2.1632   -1.8135    3.5667 C   0  0  0  0  0  0  0  0  0  0  0  0
   -2.3564   -2.8489    3.8852 H   0  0  0  0  0  0  0  0  0  0  0  0
   -1.7883   -1.5582    2.2378 C   0  0  0  0  0  0  0  0  0  0  0  0
   -1.6931   -2.3764    1.5047 H   0  0  0  0  0  0  0  0  0  0  0  0
  1 43  1  1  0  0  0
  2  3  1  0  0  0  0
  2 18  1  0  0  0  0
  3  4  1  0  0  0  0
  4 32  1  0  0  0  0
  4 19  1  0  0  0  0
  5  1  1  0  0  0  0
  6  5  2  0  0  0  0
  6 16  1  0  0  0  0
  7  6  1  0  0  0  0
  7  8  1  0  0  0  0
  9  7  1  0  0  0  0
 10  7  1  0  0  0  0
 10 13  1  0  0  0  0
 11 10  1  0  0  0  0
 12 10  1  0  0  0  0
 13 16  1  0  0  0  0
 13 15  1  0  0  0  0
 14 13  1  0  0  0  0
 16 17  2  0  0  0  0
 17 18  1  0  0  0  0
 17  1  1  0  0  0  0
 18 19  2  0  0  0  0
 19 20  1  0  0  0  0
 21 30  1  0  0  0  0
 21  5  1  0  0  0  0
 22 21  2  0  0  0  0
 23 22  1  0  0  0  0
 24 26  2  0  0  0  0
 24 22  1  0  0  0  0
 25 24  1  0  0  0  0
 26 28  1  0  0  0  0
 27 26  1  0  0  0  0
 28 29  1  0  0  0  0
 28 30  2  0  0  0  0
 30 31  1  0  0  0  0
 32 33  1  0  0  0  0
 33 35  2  0  0  0  0
 33 34  1  0  0  0  0
 35 36  1  0  0  0  0
 37 38  1  0  0  0  0
 37 35  1  0  0  0  0
 39 37  2  0  0  0  0
 40 39  1  0  0  0  0
 41 39  1  0  0  0  0
 41 32  2  0  0  0  0
 42 41  1  0  0  0  0
 43 52  2  0  0  0  0
 43 44  1  0  0  0  0
 44 46  2  0  0  0  0
 45 44  1  0  0  0  0
 46 48  1  0  0  0  0
 46 47  1  0  0  0  0
 48 49  1  0  0  0  0
 50 51  1  0  0  0  0
 50 48  2  0  0  0  0
 52 50  1  0  0  0  0
 53 52  1  0  0  0  0
M  END
