1,3
 OpenBabel05122313063D

 74 78  0  0  1  0  0  0  0  0999 V2000
    0.8655   -0.8778    0.3275 P   0  0  0  0  0  0  0  0  0  0  0  0
   -1.1340    5.3468    0.4228 O   0  0  0  0  0  0  0  0  0  0  0  0
   -1.5006    0.2633   -0.3958 N   0  0  0  0  0  2  0  0  0  0  0  0
    0.7062    0.8982    0.1078 N   0  0  0  0  0  0  0  0  0  0  0  0
   -1.0003    2.5207    0.2478 N   0  0  0  0  0  0  0  0  0  0  0  0
   -0.6528    1.2095   -0.0351 C   0  0  2  0  0  3  0  0  0  0  0  0
   -2.9215    0.3693   -0.0148 C   0  0  0  0  0  0  0  0  0  0  0  0
   -3.0515    1.2716    0.6260 H   0  0  0  0  0  0  0  0  0  0  0  0
   -3.3013   -0.8474    0.8526 C   0  0  0  0  0  0  0  0  0  0  0  0
   -2.6303   -0.8893    1.7356 H   0  0  0  0  0  0  0  0  0  0  0  0
   -3.1084   -1.7652    0.2544 H   0  0  0  0  0  0  0  0  0  0  0  0
   -4.7725   -0.7964    1.2802 C   0  0  0  0  0  0  0  0  0  0  0  0
   -5.0193   -1.7000    1.8761 H   0  0  0  0  0  0  0  0  0  0  0  0
   -4.9349    0.0757    1.9550 H   0  0  0  0  0  0  0  0  0  0  0  0
   -5.7024   -0.6760    0.0671 C   0  0  0  0  0  0  0  0  0  0  0  0
   -5.6070   -1.5928   -0.5551 H   0  0  0  0  0  0  0  0  0  0  0  0
   -6.7623   -0.6159    0.3927 H   0  0  0  0  0  0  0  0  0  0  0  0
   -5.3292    0.5427   -0.7860 C   0  0  0  0  0  0  0  0  0  0  0  0
   -5.5115    1.4714   -0.1955 H   0  0  0  0  0  0  0  0  0  0  0  0
   -5.9855    0.6079   -1.6788 H   0  0  0  0  0  0  0  0  0  0  0  0
   -3.8623    0.4834   -1.2266 C   0  0  0  0  0  0  0  0  0  0  0  0
   -3.6035    1.3744   -1.8347 H   0  0  0  0  0  0  0  0  0  0  0  0
   -3.6854   -0.4008   -1.8740 H   0  0  0  0  0  0  0  0  0  0  0  0
    1.6904    1.7960   -0.5412 C   0  0  0  0  0  0  0  0  0  0  0  0
    1.1665    2.7732   -0.5895 H   0  0  0  0  0  0  0  0  0  0  0  0
    1.9941    1.4094   -1.9989 C   0  0  0  0  0  0  0  0  0  0  0  0
    2.5114    0.4301   -2.0226 H   0  0  0  0  0  0  0  0  0  0  0  0
    1.0394    1.2741   -2.5486 H   0  0  0  0  0  0  0  0  0  0  0  0
    2.8829    2.4672   -2.6649 C   0  0  0  0  0  0  0  0  0  0  0  0
    3.1193    2.1643   -3.7058 H   0  0  0  0  0  0  0  0  0  0  0  0
    2.3223    3.4271   -2.7397 H   0  0  0  0  0  0  0  0  0  0  0  0
    4.1694    2.6969   -1.8610 C   0  0  0  0  0  0  0  0  0  0  0  0
    4.7943    3.4790   -2.3403 H   0  0  0  0  0  0  0  0  0  0  0  0
    4.7740    1.7622   -1.8664 H   0  0  0  0  0  0  0  0  0  0  0  0
    3.8549    3.0812   -0.4093 C   0  0  0  0  0  0  0  0  0  0  0  0
    3.3319    4.0650   -0.3984 H   0  0  0  0  0  0  0  0  0  0  0  0
    4.7908    3.2207    0.1705 H   0  0  0  0  0  0  0  0  0  0  0  0
    2.9695    2.0279    0.2726 C   0  0  0  0  0  0  0  0  0  0  0  0
    3.5371    1.0814    0.3702 H   0  0  0  0  0  0  0  0  0  0  0  0
    2.7041    2.3497    1.3027 H   0  0  0  0  0  0  0  0  0  0  0  0
   -2.0056    3.2644   -0.5046 C   0  0  0  0  0  0  0  0  0  0  0  0
   -2.9657    3.3311    0.0584 H   0  0  0  0  0  0  0  0  0  0  0  0
   -2.2060    2.7377   -1.4558 H   0  0  0  0  0  0  0  0  0  0  0  0
   -1.4882    4.6789   -0.7772 C   0  0  0  0  0  0  0  0  0  0  0  0
   -0.6085    4.6268   -1.4677 H   0  0  0  0  0  0  0  0  0  0  0  0
   -2.2780    5.2852   -1.2640 H   0  0  0  0  0  0  0  0  0  0  0  0
   -0.0969    4.6534    1.0951 C   0  0  0  0  0  0  0  0  0  0  0  0
    0.1234    5.2187    2.0228 H   0  0  0  0  0  0  0  0  0  0  0  0
    0.8298    4.6427    0.4672 H   0  0  0  0  0  0  0  0  0  0  0  0
   -0.5089    3.2204    1.4354 C   0  0  0  0  0  0  0  0  0  0  0  0
    0.3371    2.6532    1.8650 H   0  0  0  0  0  0  0  0  0  0  0  0
   -1.3215    3.2498    2.2000 H   0  0  0  0  0  0  0  0  0  0  0  0
    2.6428   -1.3216    0.1742 C   0  0  0  0  0  0  0  0  0  0  0  0
    3.1006   -1.7701   -1.0829 C   0  0  0  0  0  0  0  0  0  0  0  0
    2.3902   -1.8272   -1.9224 H   0  0  0  0  0  0  0  0  0  0  0  0
    4.4386   -2.1517   -1.2535 C   0  0  0  0  0  0  0  0  0  0  0  0
    4.7849   -2.4978   -2.2388 H   0  0  0  0  0  0  0  0  0  0  0  0
    5.3261   -2.1094   -0.1662 C   0  0  0  0  0  0  0  0  0  0  0  0
    6.3748   -2.4161   -0.2984 H   0  0  0  0  0  0  0  0  0  0  0  0
    4.8683   -1.6975    1.0958 C   0  0  0  0  0  0  0  0  0  0  0  0
    5.5552   -1.6842    1.9555 H   0  0  0  0  0  0  0  0  0  0  0  0
    3.5318   -1.3093    1.2696 C   0  0  0  0  0  0  0  0  0  0  0  0
    3.1784   -0.9978    2.2629 H   0  0  0  0  0  0  0  0  0  0  0  0
    0.5392   -1.0004    2.1392 C   0  0  0  0  0  0  0  0  0  0  0  0
    0.9215   -0.0041    3.0599 C   0  0  0  0  0  0  0  0  0  0  0  0
    1.4492    0.8929    2.7019 H   0  0  0  0  0  0  0  0  0  0  0  0
    0.6279   -0.1533    4.4238 C   0  0  0  0  0  0  0  0  0  0  0  0
    0.9252    0.6301    5.1378 H   0  0  0  0  0  0  0  0  0  0  0  0
   -0.0477   -1.2989    4.8762 C   0  0  0  0  0  0  0  0  0  0  0  0
   -0.2830   -1.4123    5.9454 H   0  0  0  0  0  0  0  0  0  0  0  0
   -0.4310   -2.2939    3.9622 C   0  0  0  0  0  0  0  0  0  0  0  0
   -0.9695   -3.1876    4.3122 H   0  0  0  0  0  0  0  0  0  0  0  0
   -0.1447   -2.1441    2.5969 C   0  0  0  0  0  0  0  0  0  0  0  0
   -0.4720   -2.8977    1.8622 H   0  0  0  0  0  0  0  0  0  0  0  0
  1 64  1  0  0  0  0
  2 47  1  0  0  0  0
  3  7  1  0  0  0  0
  4  1  1  0  0  0  0
  5 50  1  0  0  0  0
  6  3  1  1  0  0  0
  6  4  1  0  0  0  0
  6  5  1  0  0  0  0
  7  8  1  0  0  0  0
  7  9  1  0  0  0  0
  9 12  1  0  0  0  0
  9 10  1  0  0  0  0
 11  9  1  0  0  0  0
 12 13  1  0  0  0  0
 12 14  1  0  0  0  0
 15 17  1  0  0  0  0
 15 12  1  0  0  0  0
 16 15  1  0  0  0  0
 18 19  1  0  0  0  0
 18 15  1  0  0  0  0
 20 18  1  0  0  0  0
 21 18  1  0  0  0  0
 21  7  1  0  0  0  0
 22 21  1  0  0  0  0
 23 21  1  0  0  0  0
 24  4  1  0  0  0  0
 24 38  1  0  0  0  0
 25 24  1  0  0  0  0
 26 24  1  0  0  0  0
 27 26  1  0  0  0  0
 28 26  1  0  0  0  0
 29 26  1  0  0  0  0
 29 32  1  0  0  0  0
 30 29  1  0  0  0  0
 31 29  1  0  0  0  0
 32 35  1  0  0  0  0
 33 32  1  0  0  0  0
 34 32  1  0  0  0  0
 35 36  1  0  0  0  0
 35 37  1  0  0  0  0
 35 38  1  0  0  0  0
 38 39  1  0  0  0  0
 38 40  1  0  0  0  0
 41 42  1  0  0  0  0
 41  5  1  0  0  0  0
 43 41  1  0  0  0  0
 44 41  1  0  0  0  0
 44  2  1  0  0  0  0
 45 44  1  0  0  0  0
 46 44  1  0  0  0  0
 47 50  1  0  0  0  0
 47 48  1  0  0  0  0
 49 47  1  0  0  0  0
 50 51  1  0  0  0  0
 50 52  1  0  0  0  0
 53  1  1  0  0  0  0
 53 62  1  0  0  0  0
 54 53  2  0  0  0  0
 55 54  1  0  0  0  0
 56 54  1  0  0  0  0
 56 58  2  0  0  0  0
 57 56  1  0  0  0  0
 58 60  1  0  0  0  0
 59 58  1  0  0  0  0
 60 62  2  0  0  0  0
 60 61  1  0  0  0  0
 62 63  1  0  0  0  0
 64 73  2  0  0  0  0
 64 65  1  0  0  0  0
 65 67  2  0  0  0  0
 66 65  1  0  0  0  0
 67 69  1  0  0  0  0
 67 68  1  0  0  0  0
 69 70  1  0  0  0  0
 71 72  1  0  0  0  0
 71 69  2  0  0  0  0
 73 71  1  0  0  0  0
 74 73  1  0  0  0  0
M  END
