1,3
 OpenBabel05122313063D

 65 65  0  0  1  0  0  0  0  0999 V2000
   -1.8315    0.2300    0.2507 P   0  0  0  0  0  0  0  0  0  0  0  0
    6.1194   -1.0560    0.1827 O   0  0  0  0  0  0  0  0  0  0  0  0
    0.5848   -0.2914   -0.1055 N   0  0  0  0  0  2  0  0  0  0  0  0
    0.4038    2.1045   -0.4196 N   0  0  0  0  0  0  0  0  0  0  0  0
   -0.0707    0.8619   -0.0947 C   0  0  1  0  0  3  0  0  0  0  0  0
    2.6655   -1.2860   -0.9555 C   0  0  0  0  0  0  0  0  0  0  0  0
    4.0462   -1.4500   -0.8589 C   0  0  0  0  0  0  0  0  0  0  0  0
    4.7796   -0.8239    0.1738 C   0  0  0  0  0  0  0  0  0  0  0  0
    4.1004   -0.0279    1.1208 C   0  0  0  0  0  0  0  0  0  0  0  0
    2.7143    0.1516    1.0093 C   0  0  0  0  0  0  0  0  0  0  0  0
    1.9884   -0.4537   -0.0347 C   0  0  0  0  0  0  0  0  0  0  0  0
   -3.0828    0.8665   -1.0245 C   0  0  0  0  0  0  0  0  0  0  0  0
   -3.1891    2.3928   -1.1260 C   0  0  0  0  0  0  0  0  0  0  0  0
   -4.4461    0.2422   -0.6706 C   0  0  0  0  0  0  0  0  0  0  0  0
   -2.5952    0.2829   -2.3659 C   0  0  0  0  0  0  0  0  0  0  0  0
   -2.2937    0.4714    2.0865 C   0  0  0  0  0  0  0  0  0  0  0  0
   -1.0071    0.1598    2.8734 C   0  0  0  0  0  0  0  0  0  0  0  0
   -3.3476   -0.6049    2.4238 C   0  0  0  0  0  0  0  0  0  0  0  0
   -2.8326    1.8623    2.4481 C   0  0  0  0  0  0  0  0  0  0  0  0
    1.5249    2.2194   -1.3967 C   0  0  0  0  0  0  0  0  0  0  0  0
    1.0313    2.6608   -2.7836 C   0  0  0  0  0  0  0  0  0  0  0  0
    2.7206    3.0389   -0.9043 C   0  0  0  0  0  0  0  0  0  0  0  0
   -0.1706    3.2669    0.2939 C   0  0  0  0  0  0  0  0  0  0  0  0
    0.5860    3.5789    1.5963 C   0  0  0  0  0  0  0  0  0  0  0  0
   -0.3542    4.5314   -0.5492 C   0  0  0  0  0  0  0  0  0  0  0  0
    6.8962   -0.4799    1.2144 C   0  0  0  0  0  0  0  0  0  0  0  0
    2.0835   -1.8188   -1.7188 H   0  0  0  0  0  0  0  0  0  0  0  0
    4.5896   -2.0908   -1.5679 H   0  0  0  0  0  0  0  0  0  0  0  0
    4.6354    0.4439    1.9555 H   0  0  0  0  0  0  0  0  0  0  0  0
    2.1817    0.7573    1.7567 H   0  0  0  0  0  0  0  0  0  0  0  0
   -3.9922    2.6460   -1.8504 H   0  0  0  0  0  0  0  0  0  0  0  0
   -3.4499    2.8752   -0.1643 H   0  0  0  0  0  0  0  0  0  0  0  0
   -2.2526    2.8389   -1.5071 H   0  0  0  0  0  0  0  0  0  0  0  0
   -5.1395    0.4142   -1.5209 H   0  0  0  0  0  0  0  0  0  0  0  0
   -4.8993    0.7098    0.2256 H   0  0  0  0  0  0  0  0  0  0  0  0
   -4.3546   -0.8528   -0.5123 H   0  0  0  0  0  0  0  0  0  0  0  0
   -3.2827    0.6164   -3.1720 H   0  0  0  0  0  0  0  0  0  0  0  0
   -1.5741    0.6310   -2.6246 H   0  0  0  0  0  0  0  0  0  0  0  0
   -2.5867   -0.8246   -2.3381 H   0  0  0  0  0  0  0  0  0  0  0  0
   -1.2409    0.1676    3.9583 H   0  0  0  0  0  0  0  0  0  0  0  0
   -0.2114    0.9088    2.6937 H   0  0  0  0  0  0  0  0  0  0  0  0
   -0.6058   -0.8402    2.6113 H   0  0  0  0  0  0  0  0  0  0  0  0
   -3.4485   -0.6599    3.5283 H   0  0  0  0  0  0  0  0  0  0  0  0
   -4.3425   -0.3593    2.0091 H   0  0  0  0  0  0  0  0  0  0  0  0
   -3.0601   -1.6033    2.0368 H   0  0  0  0  0  0  0  0  0  0  0  0
   -3.0996    1.8714    3.5261 H   0  0  0  0  0  0  0  0  0  0  0  0
   -2.0888    2.6676    2.2923 H   0  0  0  0  0  0  0  0  0  0  0  0
   -3.7510    2.1143    1.8830 H   0  0  0  0  0  0  0  0  0  0  0  0
    1.8951    1.1857   -1.5176 H   0  0  0  0  0  0  0  0  0  0  0  0
    1.8348    2.4837   -3.5265 H   0  0  0  0  0  0  0  0  0  0  0  0
    0.7666    3.7336   -2.8305 H   0  0  0  0  0  0  0  0  0  0  0  0
    0.1496    2.0673   -3.0956 H   0  0  0  0  0  0  0  0  0  0  0  0
    3.5391    2.9530   -1.6461 H   0  0  0  0  0  0  0  0  0  0  0  0
    2.4897    4.1164   -0.7947 H   0  0  0  0  0  0  0  0  0  0  0  0
    3.1042    2.6510    0.0576 H   0  0  0  0  0  0  0  0  0  0  0  0
   -1.1849    2.9244    0.5851 H   0  0  0  0  0  0  0  0  0  0  0  0
    0.0175    4.3171    2.1976 H   0  0  0  0  0  0  0  0  0  0  0  0
    1.5889    4.0029    1.4009 H   0  0  0  0  0  0  0  0  0  0  0  0
    0.7120    2.6682    2.2126 H   0  0  0  0  0  0  0  0  0  0  0  0
   -0.9146    5.2756    0.0504 H   0  0  0  0  0  0  0  0  0  0  0  0
    0.6100    4.9967   -0.8286 H   0  0  0  0  0  0  0  0  0  0  0  0
   -0.9304    4.3441   -1.4735 H   0  0  0  0  0  0  0  0  0  0  0  0
    7.9405   -0.7960    1.0350 H   0  0  0  0  0  0  0  0  0  0  0  0
    6.8484    0.6328    1.1995 H   0  0  0  0  0  0  0  0  0  0  0  0
    6.5795   -0.8357    2.2207 H   0  0  0  0  0  0  0  0  0  0  0  0
  1 16  1  0  0  0  0
  2 26  1  0  0  0  0
  3 11  1  0  0  0  0
  4  5  1  0  0  0  0
  4 23  1  0  0  0  0
  5  3  1  6  0  0  0
  5  1  1  0  0  0  0
  6  7  2  0  0  0  0
  6 11  1  0  0  0  0
  7  8  1  0  0  0  0
  8  2  1  0  0  0  0
  8  9  2  0  0  0  0
  9 29  1  0  0  0  0
 10  9  1  0  0  0  0
 10 30  1  0  0  0  0
 11 10  2  0  0  0  0
 12 14  1  0  0  0  0
 12  1  1  0  0  0  0
 13 12  1  0  0  0  0
 13 32  1  0  0  0  0
 14 36  1  0  0  0  0
 14 35  1  0  0  0  0
 15 39  1  0  0  0  0
 15 12  1  0  0  0  0
 16 18  1  0  0  0  0
 16 19  1  0  0  0  0
 16 17  1  0  0  0  0
 17 40  1  0  0  0  0
 18 43  1  0  0  0  0
 19 46  1  0  0  0  0
 20 22  1  0  0  0  0
 20  4  1  0  0  0  0
 21 20  1  0  0  0  0
 22 54  1  0  0  0  0
 22 55  1  0  0  0  0
 23 56  1  0  0  0  0
 23 24  1  0  0  0  0
 24 57  1  0  0  0  0
 24 59  1  0  0  0  0
 25 60  1  0  0  0  0
 25 23  1  0  0  0  0
 26 65  1  0  0  0  0
 27  6  1  0  0  0  0
 28  7  1  0  0  0  0
 31 13  1  0  0  0  0
 33 13  1  0  0  0  0
 34 14  1  0  0  0  0
 37 15  1  0  0  0  0
 38 15  1  0  0  0  0
 41 17  1  0  0  0  0
 42 17  1  0  0  0  0
 44 18  1  0  0  0  0
 45 18  1  0  0  0  0
 47 19  1  0  0  0  0
 48 19  1  0  0  0  0
 49 20  1  0  0  0  0
 50 21  1  0  0  0  0
 51 21  1  0  0  0  0
 52 21  1  0  0  0  0
 53 22  1  0  0  0  0
 58 24  1  0  0  0  0
 61 25  1  0  0  0  0
 62 25  1  0  0  0  0
 63 26  1  0  0  0  0
 64 26  1  0  0  0  0
M  END
