1,3
 OpenBabel05122313063D

 40 43  0  0  0  0  0  0  0  0999 V2000
    0.8696    0.1552   -0.1695 P   0  0  0  0  0  0  0  0  0  0  0  0
    0.0582    1.2581   -1.1771 O   0  0  0  0  0  0  0  0  0  0  0  0
   -2.2220   -0.4999   -0.4203 N   0  0  0  0  0  2  0  0  0  0  0  0
   -3.3275   -1.2581   -0.4319 C   0  0  0  0  0  0  0  0  0  0  0  0
   -3.1646   -2.3277   -0.2137 H   0  0  0  0  0  0  0  0  0  0  0  0
   -4.6283   -0.7306   -0.5845 C   0  0  0  0  0  0  0  0  0  0  0  0
   -5.4845   -1.4195   -0.5759 H   0  0  0  0  0  0  0  0  0  0  0  0
   -4.7883    0.6380   -0.6737 C   0  0  0  0  0  0  0  0  0  0  0  0
   -5.7872    1.0983   -0.7229 H   0  0  0  0  0  0  0  0  0  0  0  0
   -3.6415    1.4775   -0.7250 C   0  0  0  0  0  0  0  0  0  0  0  0
   -3.7788    2.8869   -0.8671 C   0  0  0  0  0  3  0  0  0  0  0  0
   -4.7915    3.3159   -0.8860 H   0  0  0  0  0  0  0  0  0  0  0  0
   -2.6574    3.6880   -0.9984 C   0  0  0  0  0  0  0  0  0  0  0  0
   -2.7546    4.7786   -1.1020 H   0  0  0  0  0  0  0  0  0  0  0  0
   -1.3776    3.0940   -1.0395 C   0  0  0  0  0  0  0  0  0  0  0  0
   -0.4750    3.6975   -1.2097 H   0  0  0  0  0  0  0  0  0  0  0  0
   -1.2028    1.7157   -0.9168 C   0  0  0  0  0  0  0  0  0  0  0  0
   -2.3341    0.8578   -0.6672 C   0  0  0  0  0  0  0  0  0  0  0  0
    1.5532    1.2615    1.1115 C   0  0  0  0  0  0  0  0  0  0  0  0
    2.2987    2.3901    0.7086 C   0  0  0  0  0  0  0  0  0  0  0  0
    2.5151    2.5542   -0.3584 H   0  0  0  0  0  0  0  0  0  0  0  0
    2.7646    3.2943    1.6725 C   0  0  0  0  0  0  0  0  0  0  0  0
    3.3504    4.1725    1.3613 H   0  0  0  0  0  0  0  0  0  0  0  0
    2.4873    3.0764    3.0330 C   0  0  0  0  0  0  0  0  0  0  0  0
    2.8571    3.7867    3.7882 H   0  0  0  0  0  0  0  0  0  0  0  0
    1.7438    1.9539    3.4311 C   0  0  0  0  0  0  0  0  0  0  0  0
    1.5311    1.7810    4.4967 H   0  0  0  0  0  0  0  0  0  0  0  0
    1.2718    1.0439    2.4737 C   0  0  0  0  0  0  0  0  0  0  0  0
    0.7098    0.1464    2.7725 H   0  0  0  0  0  0  0  0  0  0  0  0
    2.2326   -0.2276   -1.3109 C   0  0  0  0  0  0  0  0  0  0  0  0
    1.9974   -0.2545   -2.7001 C   0  0  0  0  0  0  0  0  0  0  0  0
    1.0026    0.0005   -3.0923 H   0  0  0  0  0  0  0  0  0  0  0  0
    3.0390   -0.5979   -3.5736 C   0  0  0  0  0  0  0  0  0  0  0  0
    2.8562   -0.6151   -4.6586 H   0  0  0  0  0  0  0  0  0  0  0  0
    4.3074   -0.9221   -3.0662 C   0  0  0  0  0  0  0  0  0  0  0  0
    5.1215   -1.1952   -3.7546 H   0  0  0  0  0  0  0  0  0  0  0  0
    4.5370   -0.9021   -1.6808 C   0  0  0  0  0  0  0  0  0  0  0  0
    5.5290   -1.1604   -1.2810 H   0  0  0  0  0  0  0  0  0  0  0  0
    3.5039   -0.5580   -0.7986 C   0  0  0  0  0  0  0  0  0  0  0  0
    3.6734   -0.5558    0.2874 H   0  0  0  0  0  0  0  0  0  0  0  0
  1 19  1  0  0  0  0
  2 17  1  0  0  0  0
  2  1  1  0  0  0  0
  4  3  1  0  0  0  0
  4  5  1  0  0  0  0
  6  7  1  0  0  0  0
  6  4  2  0  0  0  0
  8  6  1  0  0  0  0
  9  8  1  0  0  0  0
 10  8  2  0  0  0  0
 10 18  1  0  0  0  0
 11 10  1  0  0  0  0
 12 11  1  0  0  0  0
 13 11  1  0  0  0  0
 14 13  1  0  0  0  0
 15 13  2  0  0  0  0
 15 17  1  0  0  0  0
 16 15  1  0  0  0  0
 17 18  2  0  0  0  0
 18  3  1  0  0  0  0
 19 28  1  0  0  0  0
 20 19  2  0  0  0  0
 20 22  1  0  0  0  0
 21 20  1  0  0  0  0
 22 24  2  0  0  0  0
 23 22  1  0  0  0  0
 24 26  1  0  0  0  0
 24 25  1  0  0  0  0
 26 27  1  0  0  0  0
 28 29  1  0  0  0  0
 28 26  2  0  0  0  0
 30 39  1  0  0  0  0
 30  1  1  0  0  0  0
 31 30  2  0  0  0  0
 32 31  1  0  0  0  0
 33 35  2  0  0  0  0
 33 31  1  0  0  0  0
 34 33  1  0  0  0  0
 35 37  1  0  0  0  0
 36 35  1  0  0  0  0
 37 38  1  0  0  0  0
 37 39  2  0  0  0  0
 39 40  1  0  0  0  0
M  END
