1,2
 OpenBabel05122313063D

 40 43  0  0  0  0  0  0  0  0999 V2000
   -0.2895    0.2190   -0.1314 P   0  0  0  0  0  2  0  0  0  0  0  0
   -1.8540   -2.1425   -0.0301 N   0  0  0  0  0  2  0  0  0  0  0  0
    1.0371    1.3625   -0.1146 C   0  0  0  0  0  0  0  0  0  0  0  0
    2.3564    0.8704   -0.0625 C   0  0  0  0  0  0  0  0  0  0  0  0
    3.1504    1.6331   -0.1102 H   0  0  0  0  0  0  0  0  0  0  0  0
    2.7734   -0.4795   -0.0180 C   0  0  0  0  0  0  0  0  0  0  0  0
    1.8417   -1.5406   -0.0346 C   0  0  0  0  0  0  0  0  0  0  0  0
    2.2481   -2.5617    0.0339 H   0  0  0  0  0  0  0  0  0  0  0  0
    0.4528   -1.3682   -0.0875 C   0  0  0  0  0  0  0  0  0  0  0  0
   -0.5202   -2.4729   -0.0838 C   0  0  0  0  0  0  0  0  0  0  0  0
   -0.1336   -3.8272   -0.1456 C   0  0  0  0  0  0  0  0  0  0  0  0
    0.9335   -4.0815   -0.1913 H   0  0  0  0  0  0  0  0  0  0  0  0
   -1.0983   -4.8373   -0.1566 C   0  0  0  0  0  0  0  0  0  0  0  0
   -0.7945   -5.8935   -0.2070 H   0  0  0  0  0  0  0  0  0  0  0  0
   -2.4512   -4.4763   -0.1054 C   0  0  0  0  0  0  0  0  0  0  0  0
   -3.2527   -5.2281   -0.1129 H   0  0  0  0  0  0  0  0  0  0  0  0
   -2.7855   -3.1204   -0.0427 C   0  0  0  0  0  0  0  0  0  0  0  0
   -3.8281   -2.7594    0.0157 H   0  0  0  0  0  0  0  0  0  0  0  0
    0.7798    2.8195   -0.1720 C   0  0  0  0  0  0  0  0  0  0  0  0
   -0.2573    3.3468   -0.9728 C   0  0  0  0  0  0  0  0  0  0  0  0
   -0.9014    2.6683   -1.5496 H   0  0  0  0  0  0  0  0  0  0  0  0
   -0.4747    4.7288   -1.0345 C   0  0  0  0  0  0  0  0  0  0  0  0
   -1.2921    5.1184   -1.6589 H   0  0  0  0  0  0  0  0  0  0  0  0
    0.3354    5.6067   -0.2986 C   0  0  0  0  0  0  0  0  0  0  0  0
    0.1591    6.6920   -0.3453 H   0  0  0  0  0  0  0  0  0  0  0  0
    1.3660    5.0945    0.5071 C   0  0  0  0  0  0  0  0  0  0  0  0
    1.9940    5.7752    1.1014 H   0  0  0  0  0  0  0  0  0  0  0  0
    1.5870    3.7136    0.5706 C   0  0  0  0  0  0  0  0  0  0  0  0
    2.3743    3.3172    1.2297 H   0  0  0  0  0  0  0  0  0  0  0  0
    4.2265   -0.7877    0.0355 C   0  0  0  0  0  0  0  0  0  0  0  0
    4.7629   -1.8857   -0.6756 C   0  0  0  0  0  0  0  0  0  0  0  0
    4.1012   -2.4992   -1.3060 H   0  0  0  0  0  0  0  0  0  0  0  0
    6.1325   -2.1769   -0.6229 C   0  0  0  0  0  0  0  0  0  0  0  0
    6.5307   -3.0289   -1.1944 H   0  0  0  0  0  0  0  0  0  0  0  0
    6.9959   -1.3778    0.1430 C   0  0  0  0  0  0  0  0  0  0  0  0
    8.0714   -1.6065    0.1845 H   0  0  0  0  0  0  0  0  0  0  0  0
    6.4780   -0.2839    0.8546 C   0  0  0  0  0  0  0  0  0  0  0  0
    7.1450    0.3428    1.4656 H   0  0  0  0  0  0  0  0  0  0  0  0
    5.1089    0.0089    0.8007 C   0  0  0  0  0  0  0  0  0  0  0  0
    4.7099    0.8514    1.3856 H   0  0  0  0  0  0  0  0  0  0  0  0
  1  3  1  0  0  0  0
  1  9  1  0  0  0  0
  3  4  2  0  0  0  0
  4  6  1  0  0  0  0
  5  4  1  0  0  0  0
  6 30  1  0  0  0  0
  7  6  2  0  0  0  0
  7  8  1  0  0  0  0
  9 10  2  0  0  0  0
  9  7  1  0  0  0  0
 10  2  1  0  0  0  0
 11 10  1  0  0  0  0
 12 11  1  0  0  0  0
 13 11  2  0  0  0  0
 13 15  1  0  0  0  0
 14 13  1  0  0  0  0
 15 17  2  0  0  0  0
 16 15  1  0  0  0  0
 17  2  1  0  0  0  0
 17 18  1  0  0  0  0
 19  3  1  0  0  0  0
 19 28  1  0  0  0  0
 20 19  2  0  0  0  0
 21 20  1  0  0  0  0
 22 20  1  0  0  0  0
 22 24  2  0  0  0  0
 23 22  1  0  0  0  0
 24 26  1  0  0  0  0
 25 24  1  0  0  0  0
 26 28  2  0  0  0  0
 26 27  1  0  0  0  0
 28 29  1  0  0  0  0
 30 39  1  0  0  0  0
 31 33  1  0  0  0  0
 31 30  2  0  0  0  0
 32 31  1  0  0  0  0
 33 35  2  0  0  0  0
 34 33  1  0  0  0  0
 35 36  1  0  0  0  0
 35 37  1  0  0  0  0
 37 38  1  0  0  0  0
 39 37  2  0  0  0  0
 39 40  1  0  0  0  0
M  END
