1,2
 OpenBabel05122313063D

 53 56  0  0  0  0  0  0  0  0999 V2000
    1.3745   -0.1943    0.0112 P   0  0  0  0  0  0  0  0  0  0  0  0
   -1.6006   -0.7047   -0.5783 N   0  0  0  0  0  2  0  0  0  0  0  0
    3.0395    0.5532   -0.2170 C   0  0  0  0  0  0  0  0  0  0  0  0
    1.5064   -1.0700    1.6307 C   0  0  0  0  0  0  0  0  0  0  0  0
    1.3800   -1.5832   -1.2012 C   0  0  0  0  0  0  0  0  0  0  0  0
    0.1493   -2.2020   -1.5702 C   0  0  0  0  0  0  0  0  0  0  0  0
    4.0288    0.5453    0.7851 C   0  0  0  0  0  0  0  0  0  0  0  0
    3.8373    0.0337    1.7400 H   0  0  0  0  0  0  0  0  0  0  0  0
   -3.0030   -0.6858   -0.2650 C   0  0  0  0  0  0  0  0  0  0  0  0
    0.1882   -3.3195   -2.4414 C   0  0  0  0  0  0  0  0  0  0  0  0
   -0.7604   -3.8119   -2.7079 H   0  0  0  0  0  0  0  0  0  0  0  0
    2.5830   -2.0806   -1.7361 C   0  0  0  0  0  0  0  0  0  0  0  0
    3.5318   -1.6062   -1.4450 H   0  0  0  0  0  0  0  0  0  0  0  0
    4.5282    1.8441   -1.6562 C   0  0  0  0  0  0  0  0  0  0  0  0
    4.7187    2.3545   -2.6124 H   0  0  0  0  0  0  0  0  0  0  0  0
    1.3899   -3.7925   -2.9775 C   0  0  0  0  0  0  0  0  0  0  0  0
    1.3863   -4.6514   -3.6649 H   0  0  0  0  0  0  0  0  0  0  0  0
    1.1900   -0.3248    2.7882 C   0  0  0  0  0  0  0  0  0  0  0  0
    0.8827    0.7278    2.6818 H   0  0  0  0  0  0  0  0  0  0  0  0
   -3.3965   -0.9144    1.0747 C   0  0  0  0  0  0  0  0  0  0  0  0
    1.2455   -0.9273    4.0528 C   0  0  0  0  0  0  0  0  0  0  0  0
    0.9988   -0.3382    4.9492 H   0  0  0  0  0  0  0  0  0  0  0  0
    3.2962    1.2144   -1.4381 C   0  0  0  0  0  0  0  0  0  0  0  0
    2.5200    1.2314   -2.2192 H   0  0  0  0  0  0  0  0  0  0  0  0
   -3.9357   -0.4189   -1.2947 C   0  0  0  0  0  0  0  0  0  0  0  0
    2.5950   -3.1659   -2.6264 C   0  0  0  0  0  0  0  0  0  0  0  0
    3.5507   -3.5280   -3.0347 H   0  0  0  0  0  0  0  0  0  0  0  0
    1.9023   -3.0299    3.0252 C   0  0  0  0  0  0  0  0  0  0  0  0
    2.1741   -4.0929    3.1151 H   0  0  0  0  0  0  0  0  0  0  0  0
    5.5113    1.8365   -0.6516 C   0  0  0  0  0  0  0  0  0  0  0  0
    6.4753    2.3402   -0.8195 H   0  0  0  0  0  0  0  0  0  0  0  0
   -4.7726   -0.8827    1.3665 C   0  0  0  0  0  0  0  0  0  0  0  0
   -5.0980   -1.0601    2.4035 H   0  0  0  0  0  0  0  0  0  0  0  0
   -1.1903   -1.8201   -1.1142 C   0  0  0  0  0  3  0  0  0  0  0  0
   -1.9579   -2.6034   -1.2871 H   0  0  0  0  0  0  0  0  0  0  0  0
    1.8629   -2.4268    1.7577 C   0  0  0  0  0  0  0  0  0  0  0  0
    2.1062   -3.0176    0.8618 H   0  0  0  0  0  0  0  0  0  0  0  0
    5.2579    1.1894    0.5670 C   0  0  0  0  0  0  0  0  0  0  0  0
    6.0236    1.1818    1.3578 H   0  0  0  0  0  0  0  0  0  0  0  0
    1.5967   -2.2824    4.1734 C   0  0  0  0  0  0  0  0  0  0  0  0
    1.6271   -2.7583    5.1654 H   0  0  0  0  0  0  0  0  0  0  0  0
   -2.3614   -1.1620    2.1381 C   0  0  0  0  0  0  0  0  0  0  0  0
   -2.8270   -1.2751    3.1350 H   0  0  0  0  0  0  0  0  0  0  0  0
   -1.6364   -0.3196    2.1706 H   0  0  0  0  0  0  0  0  0  0  0  0
   -1.7575   -2.0705    1.9321 H   0  0  0  0  0  0  0  0  0  0  0  0
   -5.7190   -0.6181    0.3671 C   0  0  0  0  0  0  0  0  0  0  0  0
   -6.7900   -0.5864    0.6175 H   0  0  0  0  0  0  0  0  0  0  0  0
   -5.3000   -0.3843   -0.9492 C   0  0  0  0  0  0  0  0  0  0  0  0
   -6.0402   -0.1620   -1.7337 H   0  0  0  0  0  0  0  0  0  0  0  0
   -3.4689   -0.1519   -2.7029 C   0  0  0  0  0  0  0  0  0  0  0  0
   -2.6423    0.5894   -2.7106 H   0  0  0  0  0  0  0  0  0  0  0  0
   -4.2967    0.2338   -3.3276 H   0  0  0  0  0  0  0  0  0  0  0  0
   -3.0761   -1.0671   -3.1944 H   0  0  0  0  0  0  0  0  0  0  0  0
  1  4  1  0  0  0  0
  2  9  1  0  0  0  0
  3  1  1  0  0  0  0
  3  7  1  0  0  0  0
  4 36  2  0  0  0  0
  4 18  1  0  0  0  0
  5  1  1  0  0  0  0
  6  5  1  0  0  0  0
  6 34  1  0  0  0  0
  7  8  1  0  0  0  0
  9 20  1  0  0  0  0
 10  6  2  0  0  0  0
 11 10  1  0  0  0  0
 12 13  1  0  0  0  0
 12  5  2  0  0  0  0
 14 23  1  0  0  0  0
 14 30  2  0  0  0  0
 15 14  1  0  0  0  0
 16 26  2  0  0  0  0
 16 10  1  0  0  0  0
 17 16  1  0  0  0  0
 18 21  2  0  0  0  0
 19 18  1  0  0  0  0
 20 32  2  0  0  0  0
 20 42  1  0  0  0  0
 21 40  1  0  0  0  0
 21 22  1  0  0  0  0
 23  3  2  0  0  0  0
 24 23  1  0  0  0  0
 25 48  1  0  0  0  0
 25  9  2  0  0  0  0
 26 12  1  0  0  0  0
 27 26  1  0  0  0  0
 28 29  1  0  0  0  0
 28 40  2  0  0  0  0
 30 38  1  0  0  0  0
 31 30  1  0  0  0  0
 32 33  1  0  0  0  0
 34  2  1  0  0  0  0
 35 34  1  0  0  0  0
 36 28  1  0  0  0  0
 37 36  1  0  0  0  0
 38  7  2  0  0  0  0
 38 39  1  0  0  0  0
 40 41  1  0  0  0  0
 42 44  1  0  0  0  0
 42 43  1  0  0  0  0
 45 42  1  0  0  0  0
 46 47  1  0  0  0  0
 46 32  1  0  0  0  0
 48 46  2  0  0  0  0
 49 48  1  0  0  0  0
 50 25  1  0  0  0  0
 51 50  1  0  0  0  0
 52 50  1  0  0  0  0
 53 50  1  0  0  0  0
M  END
