1,29
 OpenBabel05122313063D

 57 60  0  0  1  0  0  0  0  0999 V2000
    1.8073    0.0771    0.8414 N   0  0  0  0  0  2  0  0  0  0  0  0
    3.2589   -0.1847    0.6729 C   0  0  1  0  0  0  0  0  0  0  0  0
    3.4633   -1.1687    1.1427 H   0  0  0  0  0  0  0  0  0  0  0  0
    3.6876   -0.2533   -0.8295 C   0  0  0  0  0  0  0  0  0  0  0  0
    5.1933   -0.5787   -0.8593 C   0  0  0  0  0  0  0  0  0  0  0  0
    5.4040   -1.5377   -0.3435 H   0  0  0  0  0  0  0  0  0  0  0  0
    5.8098    0.2114   -0.3827 H   0  0  0  0  0  0  0  0  0  0  0  0
    5.5400   -0.6747   -1.9079 H   0  0  0  0  0  0  0  0  0  0  0  0
    2.9253   -1.3870   -1.5382 C   0  0  0  0  0  0  0  0  0  0  0  0
    3.0177   -2.3449   -0.9894 H   0  0  0  0  0  0  0  0  0  0  0  0
    3.3162   -1.5194   -2.5678 H   0  0  0  0  0  0  0  0  0  0  0  0
    1.8452   -1.1535   -1.6151 H   0  0  0  0  0  0  0  0  0  0  0  0
    3.4128    1.0752   -1.5556 C   0  0  0  0  0  0  0  0  0  0  0  0
    3.7279    1.0007   -2.6161 H   0  0  0  0  0  0  0  0  0  0  0  0
    3.9606    1.9294   -1.1074 H   0  0  0  0  0  0  0  0  0  0  0  0
    2.3309    1.3163   -1.5575 H   0  0  0  0  0  0  0  0  0  0  0  0
    3.8651    0.9797    1.4757 C   0  0  0  0  0  0  0  0  0  0  0  0
    4.0965    0.7001    2.5244 H   0  0  0  0  0  0  0  0  0  0  0  0
    4.7514    1.4494    1.0128 H   0  0  0  0  0  0  0  0  0  0  0  0
    2.8040    1.9823    1.5133 O   0  0  0  0  0  0  0  0  0  0  0  0
    1.6686    1.3195    1.2182 C   0  0  1  0  0  3  0  0  0  0  0  0
    0.4288    2.0585    1.3219 C   0  0  0  0  0  0  0  0  0  0  0  0
    0.3839    3.6117    2.1101 S   0  0  0  0  0  0  0  0  0  0  0  0
   -1.2971    3.7867    1.7557 C   0  0  0  0  0  0  0  0  0  0  0  0
   -1.8308    4.6847    2.0913 H   0  0  0  0  0  0  0  0  0  0  0  0
   -1.8060    2.7065    1.0542 C   0  0  0  0  0  0  0  0  0  0  0  0
   -2.8525    2.6192    0.7327 H   0  0  0  0  0  0  0  0  0  0  0  0
   -0.8194    1.7074    0.7993 C   0  0  0  0  0  0  0  0  0  0  0  0
   -1.0686    0.1552   -0.1473 P   0  0  0  0  0  0  0  0  0  0  0  0
   -2.8892   -0.0553   -0.0662 C   0  0  0  0  0  0  0  0  0  0  0  0
   -3.6551    0.1168   -1.2365 C   0  0  0  0  0  0  0  0  0  0  0  0
   -3.1527    0.3544   -2.1857 H   0  0  0  0  0  0  0  0  0  0  0  0
   -5.0510   -0.0024   -1.2003 C   0  0  0  0  0  0  0  0  0  0  0  0
   -5.6369    0.1314   -2.1218 H   0  0  0  0  0  0  0  0  0  0  0  0
   -5.6859   -0.2867    0.0165 C   0  0  0  0  0  0  0  0  0  0  0  0
   -6.7814   -0.3826    0.0615 H   0  0  0  0  0  0  0  0  0  0  0  0
   -4.9241   -0.4476    1.1824 C   0  0  0  0  0  0  0  0  0  0  0  0
   -5.4284   -0.6694    2.1358 H   0  0  0  0  0  0  0  0  0  0  0  0
   -3.5185   -0.3445    1.1782 C   0  0  0  0  0  0  0  0  0  0  0  0
   -2.7483   -0.5632    2.4512 C   0  0  0  0  0  0  0  0  0  0  0  0
   -2.1950   -1.5251    2.3846 H   0  0  0  0  0  0  0  0  0  0  0  0
   -3.4267   -0.5997    3.3244 H   0  0  0  0  0  0  0  0  0  0  0  0
   -1.9926    0.2275    2.6330 H   0  0  0  0  0  0  0  0  0  0  0  0
   -0.6624    0.6524   -1.8780 C   0  0  0  0  0  0  0  0  0  0  0  0
   -0.3219    1.9932   -2.1574 C   0  0  0  0  0  0  0  0  0  0  0  0
   -0.3662    2.7456   -1.3574 H   0  0  0  0  0  0  0  0  0  0  0  0
    0.0773    2.3821   -3.4429 C   0  0  0  0  0  0  0  0  0  0  0  0
    0.3401    3.4319   -3.6407 H   0  0  0  0  0  0  0  0  0  0  0  0
    0.1361    1.4252   -4.4654 C   0  0  0  0  0  0  0  0  0  0  0  0
    0.4500    1.7142   -5.4799 H   0  0  0  0  0  0  0  0  0  0  0  0
   -0.2106    0.0948   -4.1941 C   0  0  0  0  0  0  0  0  0  0  0  0
   -0.1691   -0.6541   -5.0005 H   0  0  0  0  0  0  0  0  0  0  0  0
   -0.6110   -0.3292   -2.9101 C   0  0  0  0  0  0  0  0  0  0  0  0
   -0.9436   -1.7763   -2.6748 C   0  0  0  0  0  0  0  0  0  0  0  0
   -1.0526   -2.3177   -3.6336 H   0  0  0  0  0  0  0  0  0  0  0  0
   -1.8683   -1.9181   -2.0817 H   0  0  0  0  0  0  0  0  0  0  0  0
   -0.1509   -2.2811   -2.0826 H   0  0  0  0  0  0  0  0  0  0  0  0
  1 21  1  0  0  0  0
  2  1  1  0  0  0  0
  2  3  1  1  0  0  0
  2 17  1  0  0  0  0
  4  2  1  0  0  0  0
  5  4  1  0  0  0  0
  5  7  1  0  0  0  0
  5  6  1  0  0  0  0
  8  5  1  0  0  0  0
  9 10  1  0  0  0  0
  9  4  1  0  0  0  0
 11  9  1  0  0  0  0
 12  9  1  0  0  0  0
 13 15  1  0  0  0  0
 13  4  1  0  0  0  0
 14 13  1  0  0  0  0
 16 13  1  0  0  0  0
 17 20  1  0  0  0  0
 17 18  1  0  0  0  0
 19 17  1  0  0  0  0
 21 22  1  6  0  0  0
 21 20  1  0  0  0  0
 22 23  1  0  0  0  0
 24 25  1  0  0  0  0
 24 23  1  0  0  0  0
 26 24  2  0  0  0  0
 27 26  1  0  0  0  0
 28 26  1  0  0  0  0
 28 22  2  0  0  0  0
 29 30  1  0  0  0  0
 29 28  1  0  0  0  0
 30 39  1  0  0  0  0
 31 33  1  0  0  0  0
 31 30  2  0  0  0  0
 32 31  1  0  0  0  0
 33 35  2  0  0  0  0
 34 33  1  0  0  0  0
 35 36  1  0  0  0  0
 35 37  1  0  0  0  0
 37 38  1  0  0  0  0
 39 37  2  0  0  0  0
 39 40  1  0  0  0  0
 40 43  1  0  0  0  0
 40 42  1  0  0  0  0
 41 40  1  0  0  0  0
 44 29  1  0  0  0  0
 45 44  1  0  0  0  0
 45 46  1  0  0  0  0
 47 45  2  0  0  0  0
 48 47  1  0  0  0  0
 49 51  2  0  0  0  0
 49 47  1  0  0  0  0
 50 49  1  0  0  0  0
 51 53  1  0  0  0  0
 52 51  1  0  0  0  0
 53 54  1  0  0  0  0
 53 44  2  0  0  0  0
 54 57  1  0  0  0  0
 54 56  1  0  0  0  0
 55 54  1  0  0  0  0
M  END
