34,35
 OpenBabel05122313063D

 35 36  0  0  0  0  0  0  0  0999 V2000
    3.4010   -1.7276    1.0658 C   0  0  0  0  0  3  0  0  0  0  0  0
    2.6992   -2.0997    1.8290 H   0  0  0  0  0  0  0  0  0  0  0  0
    4.7666   -2.0140    1.1407 C   0  0  0  0  0  0  0  0  0  0  0  0
    5.1548   -2.6258    1.9669 H   0  0  0  0  0  0  0  0  0  0  0  0
    5.6106   -1.5031    0.1435 C   0  0  0  0  0  0  0  0  0  0  0  0
    6.6912   -1.7089    0.1623 H   0  0  0  0  0  0  0  0  0  0  0  0
    5.0545   -0.7198   -0.8752 C   0  0  0  0  0  0  0  0  0  0  0  0
    5.6864   -0.2968   -1.6694 H   0  0  0  0  0  0  0  0  0  0  0  0
    3.6706   -0.4682   -0.8894 C   0  0  0  0  0  0  0  0  0  0  0  0
    3.0257    0.4173   -1.9235 C   0  0  0  0  0  0  0  0  0  0  0  0
    2.1516   -0.1163   -2.3552 H   0  0  0  0  0  0  0  0  0  0  0  0
    3.7397    0.6017   -2.7499 H   0  0  0  0  0  0  0  0  0  0  0  0
    2.5562    1.7697   -1.3520 C   0  0  0  0  0  0  0  0  0  0  0  0
    2.0514    2.3527   -2.1469 H   0  0  0  0  0  0  0  0  0  0  0  0
    3.4181    2.3742   -1.0005 H   0  0  0  0  0  0  0  0  0  0  0  0
    2.2597    2.1971    1.5444 C   0  0  0  0  0  0  0  0  0  0  0  0
    3.1641    1.5528    1.5700 H   0  0  0  0  0  0  0  0  0  0  0  0
    2.6179    3.2327    1.3623 H   0  0  0  0  0  0  0  0  0  0  0  0
    1.4713    2.0796    2.8496 C   0  0  0  0  0  0  0  0  0  0  0  0
    0.5777    2.7347    2.8530 H   0  0  0  0  0  0  0  0  0  0  0  0
    2.1018    2.3714    3.7123 H   0  0  0  0  0  0  0  0  0  0  0  0
    1.1236    1.0393    3.0122 H   0  0  0  0  0  0  0  0  0  0  0  0
    0.0829    2.9067   -0.3424 C   0  0  0  0  0  0  0  0  0  0  0  0
   -0.8858    2.6001   -1.3227 C   0  0  0  0  0  0  0  0  0  0  0  0
   -0.9088    1.5958   -1.7738 H   0  0  0  0  0  0  0  0  0  0  0  0
   -1.8374    3.5575   -1.6944 C   0  0  0  0  0  0  0  0  0  0  0  0
   -2.5918    3.3102   -2.4558 H   0  0  0  0  0  0  0  0  0  0  0  0
   -1.8401    4.8218   -1.0815 C   0  0  0  0  0  0  0  0  0  0  0  0
   -2.5951    5.5697   -1.3660 H   0  0  0  0  0  0  0  0  0  0  0  0
   -0.8834    5.1291   -0.1025 C   0  0  0  0  0  0  0  0  0  0  0  0
   -0.8835    6.1179    0.3796 H   0  0  0  0  0  0  0  0  0  0  0  0
    0.0807    4.1774    0.2665 C   0  0  0  0  0  0  0  0  0  0  0  0
    0.8260    4.4394    1.0315 H   0  0  0  0  0  0  0  0  0  0  0  0
    2.8622   -0.9837    0.0733 N   0  0  0  0  0  2  0  0  0  0  0  0
    1.3252    1.6268    0.0547 P   0  0  1  0  0  0  0  0  0  0  0  0
  1  3  1  0  0  0  0
  1  2  1  0  0  0  0
  3  4  1  0  0  0  0
  5  6  1  0  0  0  0
  5  3  2  0  0  0  0
  7  5  1  0  0  0  0
  8  7  1  0  0  0  0
  9  7  2  0  0  0  0
  9 34  1  0  0  0  0
 10 13  1  0  0  0  0
 10  9  1  0  0  0  0
 11 10  1  0  0  0  0
 12 10  1  0  0  0  0
 13 15  1  0  0  0  0
 14 13  1  0  0  0  0
 16 17  1  0  0  0  0
 16 19  1  0  0  0  0
 18 16  1  0  0  0  0
 19 20  1  0  0  0  0
 19 22  1  0  0  0  0
 19 21  1  0  0  0  0
 23 35  1  0  0  0  0
 23 32  1  0  0  0  0
 24 23  2  0  0  0  0
 25 24  1  0  0  0  0
 26 24  1  0  0  0  0
 26 28  2  0  0  0  0
 27 26  1  0  0  0  0
 28 30  1  0  0  0  0
 29 28  1  0  0  0  0
 30 32  2  0  0  0  0
 30 31  1  0  0  0  0
 32 33  1  0  0  0  0
 34  1  1  0  0  0  0
 35 13  1  6  0  0  0
 35 16  1  0  0  0  0
M  END
