1,33
 OpenBabel05122313063D

 38 39  0  0  0  0  0  0  0  0999 V2000
    0.5500    0.0843    0.5154 P   0  0  0  0  0  0  0  0  0  0  0  0
    1.0430    1.6800   -0.2396 C   0  0  0  0  0  0  0  0  0  0  0  0
    1.4489    2.8035    0.5091 C   0  0  0  0  0  0  0  0  0  0  0  0
    1.5044    2.7574    1.6070 H   0  0  0  0  0  0  0  0  0  0  0  0
    1.7951    3.9970   -0.1458 C   0  0  0  0  0  0  0  0  0  0  0  0
    2.1077    4.8720    0.4441 H   0  0  0  0  0  0  0  0  0  0  0  0
    1.7455    4.0713   -1.5460 C   0  0  0  0  0  0  0  0  0  0  0  0
    2.0172    5.0077   -2.0566 H   0  0  0  0  0  0  0  0  0  0  0  0
    1.3460    2.9509   -2.2948 C   0  0  0  0  0  0  0  0  0  0  0  0
    1.3047    3.0064   -3.3931 H   0  0  0  0  0  0  0  0  0  0  0  0
    0.9876    1.7599   -1.6497 C   0  0  0  0  0  0  0  0  0  0  0  0
    0.6582    0.8769   -2.2241 H   0  0  0  0  0  0  0  0  0  0  0  0
    2.0264   -0.9948    0.4100 C   0  0  0  0  0  0  0  0  0  0  0  0
    3.3210   -0.4476    0.3236 C   0  0  0  0  0  0  0  0  0  0  0  0
    3.4558    0.6418    0.2415 H   0  0  0  0  0  0  0  0  0  0  0  0
    4.4389   -1.2964    0.3275 C   0  0  0  0  0  0  0  0  0  0  0  0
    5.4497   -0.8675    0.2525 H   0  0  0  0  0  0  0  0  0  0  0  0
    4.2671   -2.6863    0.4194 C   0  0  0  0  0  0  0  0  0  0  0  0
    5.1450   -3.3502    0.4170 H   0  0  0  0  0  0  0  0  0  0  0  0
    2.9748   -3.2313    0.5012 C   0  0  0  0  0  0  0  0  0  0  0  0
    2.8372   -4.3217    0.5561 H   0  0  0  0  0  0  0  0  0  0  0  0
    1.8531   -2.3914    0.4893 C   0  0  0  0  0  0  0  0  0  0  0  0
    0.8367   -2.8124    0.5112 H   0  0  0  0  0  0  0  0  0  0  0  0
    0.4311    0.3690    2.3446 C   0  0  0  0  0  0  0  0  0  0  0  0
    0.4485   -0.6547    2.7753 H   0  0  0  0  0  0  0  0  0  0  0  0
    1.3645    0.8629    2.6869 H   0  0  0  0  0  0  0  0  0  0  0  0
   -0.8108    1.1284    2.8248 C   0  0  0  0  0  0  0  0  0  0  0  0
   -0.8210    2.1586    2.4098 H   0  0  0  0  0  0  0  0  0  0  0  0
   -0.7351    1.2534    3.9253 H   0  0  0  0  0  0  0  0  0  0  0  0
   -2.1490    0.4396    2.5407 C   0  0  0  0  0  0  0  0  0  0  0  0
   -2.1106   -0.6186    2.8719 H   0  0  0  0  0  0  0  0  0  0  0  0
   -2.9439    0.9471    3.1347 H   0  0  0  0  0  0  0  0  0  0  0  0
   -2.5538    0.4394    1.1229 N   0  0  0  0  0  0  0  0  0  0  0  0
   -3.3866   -0.1702    0.9817 H   0  0  0  0  0  0  0  0  0  0  0  0
   -2.8836    1.7704    0.5769 C   0  0  0  0  0  0  0  0  0  0  0  0
   -3.3905    1.6174   -0.3938 H   0  0  0  0  0  0  0  0  0  0  0  0
   -1.9658    2.3649    0.4058 H   0  0  0  0  0  0  0  0  0  0  0  0
   -3.5575    2.3273    1.2664 H   0  0  0  0  0  0  0  0  0  0  0  0
  1 24  1  0  0  0  0
  2  3  1  0  0  0  0
  2  1  1  0  0  0  0
  3  4  1  0  0  0  0
  5  6  1  0  0  0  0
  5  3  2  0  0  0  0
  7  5  1  0  0  0  0
  8  7  1  0  0  0  0
  9 11  1  0  0  0  0
  9  7  2  0  0  0  0
 10  9  1  0  0  0  0
 11  2  2  0  0  0  0
 12 11  1  0  0  0  0
 13 22  1  0  0  0  0
 13  1  1  0  0  0  0
 14 16  1  0  0  0  0
 14 13  2  0  0  0  0
 15 14  1  0  0  0  0
 16 18  2  0  0  0  0
 17 16  1  0  0  0  0
 18 20  1  0  0  0  0
 19 18  1  0  0  0  0
 20 21  1  0  0  0  0
 22 20  2  0  0  0  0
 22 23  1  0  0  0  0
 24 26  1  0  0  0  0
 24 25  1  0  0  0  0
 24 27  1  0  0  0  0
 27 29  1  0  0  0  0
 28 27  1  0  0  0  0
 30 27  1  0  0  0  0
 30 31  1  0  0  0  0
 30 32  1  0  0  0  0
 33 30  1  0  0  0  0
 34 33  1  0  0  0  0
 35 33  1  0  0  0  0
 35 38  1  0  0  0  0
 36 35  1  0  0  0  0
 37 35  1  0  0  0  0
M  END
