1,2
 OpenBabel05122313063D

 34 36  0  0  0  0  0  0  0  0999 V2000
    0.5887    0.1032   -0.3509 P   0  0  0  0  0  0  0  0  0  0  0  0
   -2.1872    0.3927   -1.0315 N   0  0  0  0  0  2  0  0  0  0  0  0
   -1.4017    0.9430   -1.9987 N   0  0  0  0  0  0  0  0  0  0  0  0
   -2.1559    1.6920   -2.8535 C   0  0  0  0  0  3  0  0  0  0  0  0
   -3.4753    1.6248   -2.4085 C   0  0  0  0  0  0  0  0  0  0  0  0
   -3.4451    0.8004   -1.2615 C   0  0  0  0  0  0  0  0  0  0  0  0
    0.0015    0.5811   -2.0763 C   0  0  0  0  0  0  0  0  0  0  0  0
    1.3122    1.6003    0.4099 C   0  0  0  0  0  0  0  0  0  0  0  0
    1.8368    2.6787   -0.3313 C   0  0  0  0  0  0  0  0  0  0  0  0
    2.3895    3.7837    0.3340 C   0  0  0  0  0  0  0  0  0  0  0  0
    2.4244    3.8143    1.7370 C   0  0  0  0  0  0  0  0  0  0  0  0
    1.9028    2.7402    2.4764 C   0  0  0  0  0  0  0  0  0  0  0  0
    1.3423    1.6348    1.8217 C   0  0  0  0  0  0  0  0  0  0  0  0
    1.9702   -1.0428   -0.6850 C   0  0  0  0  0  0  0  0  0  0  0  0
    1.6968   -2.4261   -0.6849 C   0  0  0  0  0  0  0  0  0  0  0  0
    2.7236   -3.3340   -0.9803 C   0  0  0  0  0  0  0  0  0  0  0  0
    4.0182   -2.8688   -1.2629 C   0  0  0  0  0  0  0  0  0  0  0  0
    4.2928   -1.4916   -1.2456 C   0  0  0  0  0  0  0  0  0  0  0  0
    3.2723   -0.5750   -0.9528 C   0  0  0  0  0  0  0  0  0  0  0  0
   -1.6997    2.2015   -3.7090 H   0  0  0  0  0  0  0  0  0  0  0  0
   -4.3466    2.1163   -2.8523 H   0  0  0  0  0  0  0  0  0  0  0  0
   -4.2255    0.4634   -0.5666 H   0  0  0  0  0  0  0  0  0  0  0  0
    0.5736    1.4123   -2.5304 H   0  0  0  0  0  0  0  0  0  0  0  0
    0.1382   -0.3268   -2.7018 H   0  0  0  0  0  0  0  0  0  0  0  0
    1.8206    2.6704   -1.4320 H   0  0  0  0  0  0  0  0  0  0  0  0
    2.7934    4.6255   -0.2485 H   0  0  0  0  0  0  0  0  0  0  0  0
    2.8560    4.6834    2.2562 H   0  0  0  0  0  0  0  0  0  0  0  0
    1.9228    2.7644    3.5763 H   0  0  0  0  0  0  0  0  0  0  0  0
    0.9191    0.7884    2.3898 H   0  0  0  0  0  0  0  0  0  0  0  0
    0.6878   -2.7795   -0.4226 H   0  0  0  0  0  0  0  0  0  0  0  0
    2.5130   -4.4139   -0.9732 H   0  0  0  0  0  0  0  0  0  0  0  0
    4.8232   -3.5857   -1.4856 H   0  0  0  0  0  0  0  0  0  0  0  0
    5.3106   -1.1278   -1.4526 H   0  0  0  0  0  0  0  0  0  0  0  0
    3.4924    0.5031   -0.9179 H   0  0  0  0  0  0  0  0  0  0  0  0
  1  8  1  0  0  0  0
  3  2  1  0  0  0  0
  4  5  1  0  0  0  0
  4  3  1  0  0  0  0
  5  6  2  0  0  0  0
  6  2  1  0  0  0  0
  6 22  1  0  0  0  0
  7  3  1  0  0  0  0
  7  1  1  0  0  0  0
  8 13  1  0  0  0  0
  9 10  1  0  0  0  0
  9  8  2  0  0  0  0
 10 11  2  0  0  0  0
 11 27  1  0  0  0  0
 11 12  1  0  0  0  0
 12 28  1  0  0  0  0
 13 29  1  0  0  0  0
 13 12  2  0  0  0  0
 14 15  1  0  0  0  0
 14  1  1  0  0  0  0
 15 30  1  0  0  0  0
 16 31  1  0  0  0  0
 16 15  2  0  0  0  0
 17 18  2  0  0  0  0
 17 16  1  0  0  0  0
 18 19  1  0  0  0  0
 19 34  1  0  0  0  0
 19 14  2  0  0  0  0
 20  4  1  0  0  0  0
 21  5  1  0  0  0  0
 23  7  1  0  0  0  0
 24  7  1  0  0  0  0
 25  9  1  0  0  0  0
 26 10  1  0  0  0  0
 32 17  1  0  0  0  0
 33 18  1  0  0  0  0
M  END
