1,2
 OpenBabel05122313063D

 50 53  0  0  1  0  0  0  0  0999 V2000
    1.5277    0.5412    0.5146 P   0  0  0  0  0  0  0  0  0  0  0  0
   -1.1516    0.5347    1.8891 N   0  0  0  0  0  0  0  0  0  0  0  0
   -2.5650    2.7731    0.4000 O   0  0  0  0  0  0  0  0  0  0  0  0
   -0.3422    1.7768    2.0282 C   0  0  0  0  0  0  0  0  0  0  0  0
   -0.6708    2.3249    2.9433 H   0  0  0  0  0  0  0  0  0  0  0  0
   -0.4941    2.4477    1.1656 H   0  0  0  0  0  0  0  0  0  0  0  0
    1.0579    1.2043    2.2091 C   0  0  1  0  0  0  0  0  0  0  0  0
    1.7890    1.9434    2.5882 H   0  0  0  0  0  0  0  0  0  0  0  0
    0.8082   -0.0020    3.1635 C   0  0  0  0  0  0  0  0  0  0  0  0
    1.4019   -0.8910    2.8724 H   0  0  0  0  0  0  0  0  0  0  0  0
    1.1008    0.2574    4.1995 H   0  0  0  0  0  0  0  0  0  0  0  0
   -0.7148   -0.2662    3.0669 C   0  0  0  0  0  0  0  0  0  0  0  0
   -0.9929   -1.3264    2.9166 H   0  0  0  0  0  0  0  0  0  0  0  0
   -1.2407    0.1152    3.9732 H   0  0  0  0  0  0  0  0  0  0  0  0
   -2.6052    0.7834    1.8346 C   0  0  0  0  0  0  0  0  0  0  0  0
   -2.8995    1.4254    2.6986 H   0  0  0  0  0  0  0  0  0  0  0  0
   -3.1066   -0.2011    1.9213 H   0  0  0  0  0  0  0  0  0  0  0  0
   -3.0619    1.4230    0.5301 C   0  0  1  0  0  0  0  0  0  0  0  0
   -2.6479    0.8070   -0.3041 H   0  0  0  0  0  0  0  0  0  0  0  0
   -4.5832    1.5229    0.3897 C   0  0  0  0  0  0  0  0  0  0  0  0
   -5.0198    0.5793    0.0103 H   0  0  0  0  0  0  0  0  0  0  0  0
   -5.0498    1.7518    1.3727 H   0  0  0  0  0  0  0  0  0  0  0  0
   -4.7263    2.7114   -0.5673 C   0  0  0  0  0  0  0  0  0  0  0  0
   -5.7237    3.1916   -0.5369 H   0  0  0  0  0  0  0  0  0  0  0  0
   -4.5349    2.3838   -1.6100 H   0  0  0  0  0  0  0  0  0  0  0  0
   -3.6034    3.6339   -0.0830 C   0  0  0  0  0  0  0  0  0  0  0  0
   -3.1900    4.2827   -0.8844 H   0  0  0  0  0  0  0  0  0  0  0  0
   -3.9562    4.2981    0.7420 H   0  0  0  0  0  0  0  0  0  0  0  0
    0.8423    2.6465   -1.1716 C   0  0  0  0  0  0  0  0  0  0  0  0
   -0.1795    2.2466   -1.0737 H   0  0  0  0  0  0  0  0  0  0  0  0
    1.0753    3.7882   -1.9505 C   0  0  0  0  0  0  0  0  0  0  0  0
    0.2298    4.2877   -2.4470 H   0  0  0  0  0  0  0  0  0  0  0  0
    2.3813    4.2773   -2.1139 C   0  0  0  0  0  0  0  0  0  0  0  0
    2.5636    5.1659   -2.7371 H   0  0  0  0  0  0  0  0  0  0  0  0
    3.4567    3.6199   -1.4961 C   0  0  0  0  0  0  0  0  0  0  0  0
    4.4842    3.9883   -1.6369 H   0  0  0  0  0  0  0  0  0  0  0  0
    3.2303    2.4842   -0.7041 C   0  0  0  0  0  0  0  0  0  0  0  0
    4.0806    1.9654   -0.2380 H   0  0  0  0  0  0  0  0  0  0  0  0
    1.9190    1.9989   -0.5264 C   0  0  0  0  0  0  0  0  0  0  0  0
    4.0713    0.2273    1.6913 C   0  0  0  0  0  0  0  0  0  0  0  0
    3.8938    1.2070    2.1603 H   0  0  0  0  0  0  0  0  0  0  0  0
    5.2667   -0.4542    1.9612 C   0  0  0  0  0  0  0  0  0  0  0  0
    6.0128   -0.0020    2.6322 H   0  0  0  0  0  0  0  0  0  0  0  0
    5.5070   -1.7101    1.3805 C   0  0  0  0  0  0  0  0  0  0  0  0
    6.4446   -2.2451    1.5954 H   0  0  0  0  0  0  0  0  0  0  0  0
    4.5465   -2.2832    0.5333 C   0  0  0  0  0  0  0  0  0  0  0  0
    4.7253   -3.2703    0.0811 H   0  0  0  0  0  0  0  0  0  0  0  0
    3.3481   -1.6068    0.2585 C   0  0  0  0  0  0  0  0  0  0  0  0
    2.5927   -2.0521   -0.4082 H   0  0  0  0  0  0  0  0  0  0  0  0
    3.1054   -0.3423    0.8300 C   0  0  0  0  0  0  0  0  0  0  0  0
  1 50  1  0  0  0  0
  1  7  1  0  0  0  0
  2  4  1  0  0  0  0
  2 12  1  0  0  0  0
  3 18  1  0  0  0  0
  4  7  1  0  0  0  0
  4  5  1  0  0  0  0
  6  4  1  0  0  0  0
  7  8  1  1  0  0  0
  7  9  1  0  0  0  0
  9 11  1  0  0  0  0
 10  9  1  0  0  0  0
 12  9  1  0  0  0  0
 12 14  1  0  0  0  0
 13 12  1  0  0  0  0
 15  2  1  0  0  0  0
 15 17  1  0  0  0  0
 15 16  1  0  0  0  0
 18 19  1  6  0  0  0
 18 15  1  0  0  0  0
 20 18  1  0  0  0  0
 20 22  1  0  0  0  0
 21 20  1  0  0  0  0
 23 24  1  0  0  0  0
 23 26  1  0  0  0  0
 23 20  1  0  0  0  0
 25 23  1  0  0  0  0
 26  3  1  0  0  0  0
 26 28  1  0  0  0  0
 27 26  1  0  0  0  0
 29 30  1  0  0  0  0
 29 39  1  0  0  0  0
 31 29  2  0  0  0  0
 32 31  1  0  0  0  0
 33 31  1  0  0  0  0
 33 35  2  0  0  0  0
 34 33  1  0  0  0  0
 35 37  1  0  0  0  0
 36 35  1  0  0  0  0
 37 39  2  0  0  0  0
 37 38  1  0  0  0  0
 39  1  1  0  0  0  0
 40 42  1  0  0  0  0
 40 41  1  0  0  0  0
 42 43  1  0  0  0  0
 44 45  1  0  0  0  0
 44 42  2  0  0  0  0
 46 44  1  0  0  0  0
 47 46  1  0  0  0  0
 48 46  2  0  0  0  0
 48 50  1  0  0  0  0
 49 48  1  0  0  0  0
 50 40  2  0  0  0  0
M  END
