1,3
 OpenBabel05122313063D

 72 73  0  0  0  0  0  0  0  0999 V2000
    0.6364   -0.1659    0.0062 P   0  0  0  0  0  2  0  0  0  0  0  0
    0.1395    3.0617   -0.0057 Si  0  0  0  0  0  0  0  0  0  0  0  0
    3.3814    0.3590   -0.0116 N   0  0  0  0  0  2  0  0  0  0  0  0
    1.1873    1.4581   -0.0019 C   0  0  0  0  0  0  0  0  0  0  0  0
   -1.1894   -0.3573    0.0156 C   0  0  0  0  0  0  0  0  0  0  0  0
   -1.9067   -0.4320   -1.2329 C   0  0  0  0  0  0  0  0  0  0  0  0
   -3.3101   -0.4175   -1.1698 C   0  0  0  0  0  0  0  0  0  0  0  0
   -4.0347   -0.3655    0.0296 C   0  0  0  0  0  0  0  0  0  0  0  0
   -3.3030   -0.4078    1.2203 C   0  0  0  0  0  0  0  0  0  0  0  0
   -1.8943   -0.4225    1.2671 C   0  0  0  0  0  0  0  0  0  0  0  0
    2.6605    1.5318   -0.0096 C   0  0  0  0  0  0  0  0  0  0  0  0
    3.3695    2.7601   -0.0148 C   0  0  0  0  0  0  0  0  0  0  0  0
    4.7673    2.7774   -0.0222 C   0  0  0  0  0  0  0  0  0  0  0  0
    5.4671    1.5638   -0.0244 C   0  0  0  0  0  0  0  0  0  0  0  0
    4.7249    0.3760   -0.0188 C   0  0  0  0  0  0  0  0  0  0  0  0
   -1.2388   -0.5221    2.6799 C   0  0  0  0  0  0  0  0  0  0  0  0
   -0.2726   -1.7233    2.7505 C   0  0  0  0  0  0  0  0  0  0  0  0
   -0.4970    0.7797    3.0582 C   0  0  0  0  0  0  0  0  0  0  0  0
   -2.2932   -0.7549    3.7860 C   0  0  0  0  0  0  0  0  0  0  0  0
   -5.5690   -0.2837   -0.0050 C   0  0  0  0  0  0  0  0  0  0  0  0
   -6.1319   -1.5151   -0.7504 C   0  0  0  0  0  0  0  0  0  0  0  0
   -5.9769    1.0072   -0.7523 C   0  0  0  0  0  0  0  0  0  0  0  0
   -6.1813   -0.2451    1.4056 C   0  0  0  0  0  0  0  0  0  0  0  0
   -1.2626   -0.5460   -2.6495 C   0  0  0  0  0  0  0  0  0  0  0  0
   -2.3274   -0.7798   -3.7451 C   0  0  0  0  0  0  0  0  0  0  0  0
   -0.3055   -1.7547   -2.7171 C   0  0  0  0  0  0  0  0  0  0  0  0
   -0.5146    0.7472   -3.0441 C   0  0  0  0  0  0  0  0  0  0  0  0
    0.5394    4.0692   -1.5662 C   0  0  0  0  0  0  0  0  0  0  0  0
    0.5471    4.0845    1.5427 C   0  0  0  0  0  0  0  0  0  0  0  0
   -1.7290    2.8033    0.0004 C   0  0  0  0  0  0  0  0  0  0  0  0
   -3.8752   -0.4415   -2.1072 H   0  0  0  0  0  0  0  0  0  0  0  0
   -3.8529   -0.4239    2.1640 H   0  0  0  0  0  0  0  0  0  0  0  0
    2.8180    3.7067   -0.0128 H   0  0  0  0  0  0  0  0  0  0  0  0
    5.3032    3.7387   -0.0261 H   0  0  0  0  0  0  0  0  0  0  0  0
    6.5653    1.5250   -0.0302 H   0  0  0  0  0  0  0  0  0  0  0  0
    5.1945   -0.6251   -0.0197 H   0  0  0  0  0  0  0  0  0  0  0  0
   -0.7884   -2.6670    2.4842 H   0  0  0  0  0  0  0  0  0  0  0  0
    0.1265   -1.8237    3.7803 H   0  0  0  0  0  0  0  0  0  0  0  0
    0.6012   -1.6185    2.0781 H   0  0  0  0  0  0  0  0  0  0  0  0
    0.3592    0.9895    2.3932 H   0  0  0  0  0  0  0  0  0  0  0  0
   -0.1013    0.6961    4.0909 H   0  0  0  0  0  0  0  0  0  0  0  0
   -1.1834    1.6497    3.0267 H   0  0  0  0  0  0  0  0  0  0  0  0
   -2.9911    0.0988    3.8994 H   0  0  0  0  0  0  0  0  0  0  0  0
   -1.7676   -0.8752    4.7535 H   0  0  0  0  0  0  0  0  0  0  0  0
   -2.8862   -1.6750    3.6141 H   0  0  0  0  0  0  0  0  0  0  0  0
   -7.2396   -1.4678   -0.7916 H   0  0  0  0  0  0  0  0  0  0  0  0
   -5.8457   -2.4546   -0.2361 H   0  0  0  0  0  0  0  0  0  0  0  0
   -5.7599   -1.5735   -1.7925 H   0  0  0  0  0  0  0  0  0  0  0  0
   -5.5992    1.0155   -1.7941 H   0  0  0  0  0  0  0  0  0  0  0  0
   -5.5743    1.9047   -0.2405 H   0  0  0  0  0  0  0  0  0  0  0  0
   -7.0820    1.0980   -0.7931 H   0  0  0  0  0  0  0  0  0  0  0  0
   -7.2851   -0.1756    1.3334 H   0  0  0  0  0  0  0  0  0  0  0  0
   -5.8293    0.6324    1.9847 H   0  0  0  0  0  0  0  0  0  0  0  0
   -5.9431   -1.1599    1.9850 H   0  0  0  0  0  0  0  0  0  0  0  0
   -3.0214    0.0774   -3.8571 H   0  0  0  0  0  0  0  0  0  0  0  0
   -2.9239   -1.6956   -3.5626 H   0  0  0  0  0  0  0  0  0  0  0  0
   -1.8111   -0.9086   -4.7166 H   0  0  0  0  0  0  0  0  0  0  0  0
   -0.8259   -2.6922   -2.4379 H   0  0  0  0  0  0  0  0  0  0  0  0
    0.5743   -1.6495   -2.0526 H   0  0  0  0  0  0  0  0  0  0  0  0
    0.0844   -1.8674   -3.7491 H   0  0  0  0  0  0  0  0  0  0  0  0
   -0.1269    0.6520   -4.0788 H   0  0  0  0  0  0  0  0  0  0  0  0
    0.3480    0.9570   -2.3874 H   0  0  0  0  0  0  0  0  0  0  0  0
   -1.1947    1.6222   -3.0151 H   0  0  0  0  0  0  0  0  0  0  0  0
    1.6093    4.3303   -1.6757 H   0  0  0  0  0  0  0  0  0  0  0  0
   -0.0412    5.0151   -1.5403 H   0  0  0  0  0  0  0  0  0  0  0  0
    0.2369    3.5127   -2.4753 H   0  0  0  0  0  0  0  0  0  0  0  0
    1.6180    4.3443    1.6460 H   0  0  0  0  0  0  0  0  0  0  0  0
    0.2464    3.5384    2.4587 H   0  0  0  0  0  0  0  0  0  0  0  0
   -0.0313    5.0314    1.5087 H   0  0  0  0  0  0  0  0  0  0  0  0
   -2.1903    3.8136   -0.0033 H   0  0  0  0  0  0  0  0  0  0  0  0
   -2.0899    2.2650    0.8963 H   0  0  0  0  0  0  0  0  0  0  0  0
   -2.0953    2.2564   -0.8881 H   0  0  0  0  0  0  0  0  0  0  0  0
  1  5  1  0  0  0  0
  2  4  1  0  0  0  0
  2 30  1  0  0  0  0
  2 29  1  0  0  0  0
  3 11  1  0  0  0  0
  4  1  1  0  0  0  0
  5 10  1  0  0  0  0
  6  7  1  0  0  0  0
  6  5  2  0  0  0  0
  7  8  2  0  0  0  0
  8  9  1  0  0  0  0
  9 10  2  0  0  0  0
  9 32  1  0  0  0  0
 10 16  1  0  0  0  0
 11  4  2  0  0  0  0
 12 33  1  0  0  0  0
 12 11  1  0  0  0  0
 13 12  2  0  0  0  0
 14 13  1  0  0  0  0
 14 15  2  0  0  0  0
 15  3  1  0  0  0  0
 16 17  1  0  0  0  0
 16 18  1  0  0  0  0
 16 19  1  0  0  0  0
 17 38  1  0  0  0  0
 18 41  1  0  0  0  0
 19 43  1  0  0  0  0
 19 44  1  0  0  0  0
 20  8  1  0  0  0  0
 20 23  1  0  0  0  0
 21 47  1  0  0  0  0
 21 20  1  0  0  0  0
 22 50  1  0  0  0  0
 22 20  1  0  0  0  0
 23 53  1  0  0  0  0
 23 54  1  0  0  0  0
 24  6  1  0  0  0  0
 25 56  1  0  0  0  0
 25 24  1  0  0  0  0
 26 24  1  0  0  0  0
 26 58  1  0  0  0  0
 26 59  1  0  0  0  0
 27 63  1  0  0  0  0
 27 24  1  0  0  0  0
 27 62  1  0  0  0  0
 28 65  1  0  0  0  0
 28  2  1  0  0  0  0
 29 67  1  0  0  0  0
 29 68  1  0  0  0  0
 30 71  1  0  0  0  0
 31  7  1  0  0  0  0
 34 13  1  0  0  0  0
 35 14  1  0  0  0  0
 36 15  1  0  0  0  0
 37 17  1  0  0  0  0
 39 17  1  0  0  0  0
 40 18  1  0  0  0  0
 42 18  1  0  0  0  0
 45 19  1  0  0  0  0
 46 21  1  0  0  0  0
 48 21  1  0  0  0  0
 49 22  1  0  0  0  0
 51 22  1  0  0  0  0
 52 23  1  0  0  0  0
 55 25  1  0  0  0  0
 57 25  1  0  0  0  0
 60 26  1  0  0  0  0
 61 27  1  0  0  0  0
 64 28  1  0  0  0  0
 66 28  1  0  0  0  0
 69 29  1  0  0  0  0
 70 30  1  0  0  0  0
 72 30  1  0  0  0  0
M  END
