1,5
 OpenBabel05122313063D

 40 42  0  0  1  0  0  0  0  0999 V2000
   -1.7400    0.3029    0.4282 P   0  0  2  0  0  0  0  0  0  0  0  0
   -2.0810   -1.7801   -1.6035 O   0  0  0  0  0  0  0  0  0  0  0  0
   -1.4592   -0.4095    2.1229 C   0  0  0  0  0  0  0  0  0  0  0  0
   -2.0009   -2.5611   -2.8076 C   0  0  0  0  0  0  0  0  0  0  0  0
   -0.2404   -2.0745    0.7708 N   0  0  0  0  0  2  0  0  0  0  0  0
   -2.1781    2.0610    0.6891 C   0  0  0  0  0  0  0  0  0  0  0  0
   -2.5352    2.8043   -0.4584 C   0  0  0  0  0  0  0  0  0  0  0  0
   -2.8735    4.1577   -0.3355 C   0  0  0  0  0  0  0  0  0  0  0  0
   -2.8522    4.7823    0.9237 C   0  0  0  0  0  0  0  0  0  0  0  0
   -2.4864    4.0487    2.0621 C   0  0  0  0  0  0  0  0  0  0  0  0
   -2.1518    2.6903    1.9482 C   0  0  0  0  0  0  0  0  0  0  0  0
   -3.3461   -0.4200   -0.1135 C   0  0  0  0  0  0  0  0  0  0  0  0
   -4.5851   -0.0184    0.4154 C   0  0  0  0  0  0  0  0  0  0  0  0
   -5.7838   -0.5753   -0.0523 C   0  0  0  0  0  0  0  0  0  0  0  0
   -5.7391   -1.5358   -1.0744 C   0  0  0  0  0  0  0  0  0  0  0  0
   -4.5160   -1.9489   -1.6230 C   0  0  0  0  0  0  0  0  0  0  0  0
   -3.3144   -1.3999   -1.1348 C   0  0  0  0  0  0  0  0  0  0  0  0
   -0.9050   -1.7966    1.9438 C   0  0  1  0  0  3  0  0  0  0  0  0
   -1.0387   -2.7625    2.9519 C   0  0  0  0  0  0  0  0  0  0  0  0
   -0.4568   -4.0268    2.8016 C   0  0  0  0  0  0  0  0  0  0  0  0
    0.2462   -4.2901    1.6182 C   0  0  0  0  0  0  0  0  0  0  0  0
    0.3260   -3.3041    0.6343 C   0  0  0  0  0  0  0  0  0  0  0  0
   -2.3503   -0.4018    2.7814 H   0  0  0  0  0  0  0  0  0  0  0  0
   -0.6849    0.2431    2.5860 H   0  0  0  0  0  0  0  0  0  0  0  0
   -0.9166   -2.6736   -3.0016 H   0  0  0  0  0  0  0  0  0  0  0  0
   -2.4928   -2.0210   -3.6408 H   0  0  0  0  0  0  0  0  0  0  0  0
   -2.4705   -3.5534   -2.6489 H   0  0  0  0  0  0  0  0  0  0  0  0
   -2.5056    2.3171   -1.4461 H   0  0  0  0  0  0  0  0  0  0  0  0
   -3.1480    4.7332   -1.2327 H   0  0  0  0  0  0  0  0  0  0  0  0
   -3.1154    5.8470    1.0162 H   0  0  0  0  0  0  0  0  0  0  0  0
   -2.4575    4.5358    3.0486 H   0  0  0  0  0  0  0  0  0  0  0  0
   -1.8599    2.1326    2.8497 H   0  0  0  0  0  0  0  0  0  0  0  0
   -4.6035    0.7628    1.1919 H   0  0  0  0  0  0  0  0  0  0  0  0
   -6.7474   -0.2508    0.3667 H   0  0  0  0  0  0  0  0  0  0  0  0
   -6.6720   -1.9719   -1.4628 H   0  0  0  0  0  0  0  0  0  0  0  0
   -4.5039   -2.6953   -2.4270 H   0  0  0  0  0  0  0  0  0  0  0  0
   -1.5931   -2.5003    3.8645 H   0  0  0  0  0  0  0  0  0  0  0  0
   -0.5488   -4.7856    3.5927 H   0  0  0  0  0  0  0  0  0  0  0  0
    0.7375   -5.2577    1.4429 H   0  0  0  0  0  0  0  0  0  0  0  0
    0.8588   -3.4530   -0.3204 H   0  0  0  0  0  0  0  0  0  0  0  0
  1  6  1  0  0  0  0
  1  3  1  1  0  0  0
  2 17  1  0  0  0  0
  3 24  1  0  0  0  0
  3 23  1  0  0  0  0
  4 27  1  0  0  0  0
  4  2  1  0  0  0  0
  5 18  1  0  0  0  0
  6 11  1  0  0  0  0
  7  8  1  0  0  0  0
  7  6  2  0  0  0  0
  8  9  2  0  0  0  0
  9 30  1  0  0  0  0
  9 10  1  0  0  0  0
 10 31  1  0  0  0  0
 11 10  2  0  0  0  0
 11 32  1  0  0  0  0
 12 13  1  0  0  0  0
 12  1  1  0  0  0  0
 13 33  1  0  0  0  0
 14 34  1  0  0  0  0
 14 13  2  0  0  0  0
 15 14  1  0  0  0  0
 16 17  1  0  0  0  0
 16 15  2  0  0  0  0
 17 12  2  0  0  0  0
 18  3  1  1  0  0  0
 18 19  1  0  0  0  0
 19 37  1  0  0  0  0
 20 19  2  0  0  0  0
 20 38  1  0  0  0  0
 21 20  1  0  0  0  0
 22  5  1  0  0  0  0
 22 21  2  0  0  0  0
 25  4  1  0  0  0  0
 26  4  1  0  0  0  0
 28  7  1  0  0  0  0
 29  8  1  0  0  0  0
 35 15  1  0  0  0  0
 36 16  1  0  0  0  0
 39 21  1  0  0  0  0
 40 22  1  0  0  0  0
M  END
