1,3
 OpenBabel05122313063D

 38 39  0  0  0  0  0  0  0  0999 V2000
    0.5291    1.3468    0.0685 P   0  0  0  0  0  0  0  0  0  0  0  0
   -1.0789    1.6298    0.5814 O   0  0  0  0  0  0  0  0  0  0  0  0
   -0.9195   -1.3187    0.2076 N   0  0  0  0  0  2  0  0  0  0  0  0
   -2.1476    0.8386    0.2897 C   0  0  0  0  0  0  0  0  0  0  0  0
   -3.3675    1.5137    0.1912 C   0  0  0  0  0  0  0  0  0  0  0  0
   -3.3402    2.6089    0.2826 H   0  0  0  0  0  0  0  0  0  0  0  0
   -4.5877    0.8291    0.0155 C   0  0  0  0  0  0  0  0  0  0  0  0
   -5.5255    1.3999   -0.0533 H   0  0  0  0  0  0  0  0  0  0  0  0
   -4.5951   -0.5541   -0.0494 C   0  0  0  0  0  3  0  0  0  0  0  0
   -5.5347   -1.1158   -0.1568 H   0  0  0  0  0  0  0  0  0  0  0  0
   -3.3751   -1.2802    0.0409 C   0  0  0  0  0  0  0  0  0  0  0  0
   -3.3802   -2.7027    0.0348 C   0  0  0  0  0  0  0  0  0  0  0  0
   -4.3415   -3.2306   -0.0618 H   0  0  0  0  0  0  0  0  0  0  0  0
   -2.1884   -3.3893    0.1660 C   0  0  0  0  0  0  0  0  0  0  0  0
   -2.1493   -4.4875    0.1892 H   0  0  0  0  0  0  0  0  0  0  0  0
   -0.9823   -2.6614    0.2386 C   0  0  0  0  0  0  0  0  0  0  0  0
   -0.0005   -3.1657    0.2717 H   0  0  0  0  0  0  0  0  0  0  0  0
   -2.1029   -0.5983    0.1696 C   0  0  0  0  0  0  0  0  0  0  0  0
    1.3218    2.0995    1.5756 C   0  0  0  0  0  0  0  0  0  0  0  0
    0.7337    3.0251    1.7605 H   0  0  0  0  0  0  0  0  0  0  0  0
    2.7946    2.4591    1.3568 C   0  0  0  0  0  0  0  0  0  0  0  0
    3.1975    2.9485    2.2673 H   0  0  0  0  0  0  0  0  0  0  0  0
    2.9457    3.1576    0.5097 H   0  0  0  0  0  0  0  0  0  0  0  0
    3.4054    1.5539    1.1690 H   0  0  0  0  0  0  0  0  0  0  0  0
    1.1292    1.1391    2.7561 C   0  0  0  0  0  0  0  0  0  0  0  0
    1.4923    1.6067    3.6944 H   0  0  0  0  0  0  0  0  0  0  0  0
    1.6972    0.1994    2.5964 H   0  0  0  0  0  0  0  0  0  0  0  0
    0.0631    0.8732    2.8943 H   0  0  0  0  0  0  0  0  0  0  0  0
    0.6461    2.6054   -1.3032 C   0  0  0  0  0  0  0  0  0  0  0  0
    1.7214    2.5923   -1.5874 H   0  0  0  0  0  0  0  0  0  0  0  0
    0.2417    4.0187   -0.8754 C   0  0  0  0  0  0  0  0  0  0  0  0
    0.2826    4.7058   -1.7457 H   0  0  0  0  0  0  0  0  0  0  0  0
    0.9089    4.4331   -0.0942 H   0  0  0  0  0  0  0  0  0  0  0  0
   -0.7948    4.0310   -0.4824 H   0  0  0  0  0  0  0  0  0  0  0  0
   -0.1774    2.0887   -2.4914 C   0  0  0  0  0  0  0  0  0  0  0  0
   -0.0369    2.7454   -3.3742 H   0  0  0  0  0  0  0  0  0  0  0  0
   -1.2609    2.0751   -2.2524 H   0  0  0  0  0  0  0  0  0  0  0  0
    0.1207    1.0592   -2.7735 H   0  0  0  0  0  0  0  0  0  0  0  0
  1  2  1  0  0  0  0
  1 19  1  0  0  0  0
  3 16  1  0  0  0  0
  4  2  1  0  0  0  0
  5  6  1  0  0  0  0
  5  4  1  0  0  0  0
  7  5  2  0  0  0  0
  8  7  1  0  0  0  0
  9  7  1  0  0  0  0
  9 11  1  0  0  0  0
 10  9  1  0  0  0  0
 11 18  1  0  0  0  0
 12 11  2  0  0  0  0
 12 14  1  0  0  0  0
 13 12  1  0  0  0  0
 14 15  1  0  0  0  0
 14 16  2  0  0  0  0
 16 17  1  0  0  0  0
 18  3  1  0  0  0  0
 18  4  2  0  0  0  0
 19 20  1  0  0  0  0
 19 25  1  0  0  0  0
 21 19  1  0  0  0  0
 21 22  1  0  0  0  0
 23 21  1  0  0  0  0
 24 21  1  0  0  0  0
 25 28  1  0  0  0  0
 25 26  1  0  0  0  0
 27 25  1  0  0  0  0
 29 31  1  0  0  0  0
 29  1  1  0  0  0  0
 30 29  1  0  0  0  0
 31 34  1  0  0  0  0
 31 33  1  0  0  0  0
 32 31  1  0  0  0  0
 35 37  1  0  0  0  0
 35 29  1  0  0  0  0
 36 35  1  0  0  0  0
 38 35  1  0  0  0  0
M  END
