1,4
 OpenBabel05122313063D

 42 44  0  0  1  0  0  0  0  0999 V2000
    0.9344    0.1259    0.3344 P   0  0  0  0  0  0  0  0  0  0  0  0
   -2.7373    0.5134    2.8490 O   0  0  0  0  0  0  0  0  0  0  0  0
    0.5415    0.5133    1.9414 O   0  0  0  0  0  0  0  0  0  0  0  0
   -2.1748    0.0537    0.7168 N   0  0  0  0  0  2  0  0  0  0  0  0
   -4.4711   -0.8100    0.4365 C   0  0  0  0  0  0  0  0  0  0  0  0
   -4.1852   -1.2947   -0.5173 H   0  0  0  0  0  0  0  0  0  0  0  0
   -5.5455   -0.5369    0.4032 H   0  0  0  0  0  0  0  0  0  0  0  0
   -4.3147   -1.5231    1.2714 H   0  0  0  0  0  0  0  0  0  0  0  0
   -3.8578    1.4910   -0.4602 C   0  0  0  0  0  0  0  0  0  0  0  0
   -3.1763    2.3562   -0.3361 H   0  0  0  0  0  0  0  0  0  0  0  0
   -4.9049    1.8539   -0.4185 H   0  0  0  0  0  0  0  0  0  0  0  0
   -3.6745    1.0279   -1.4496 H   0  0  0  0  0  0  0  0  0  0  0  0
   -3.6259    0.4555    0.6373 C   0  0  0  0  0  0  0  0  0  0  0  0
   -3.8353    1.0459    2.0562 C   0  0  0  0  0  0  0  0  0  0  0  0
   -3.7498    2.1533    2.0782 H   0  0  0  0  0  0  0  0  0  0  0  0
   -4.7865    0.7358    2.5270 H   0  0  0  0  0  0  0  0  0  0  0  0
   -1.8281    0.0737    1.9653 C   0  0  1  0  0  3  0  0  0  0  0  0
   -0.4757   -0.2941    2.5200 C   0  0  0  0  0  0  0  0  0  0  0  0
   -0.4758   -0.0975    3.6085 H   0  0  0  0  0  0  0  0  0  0  0  0
   -0.2845   -1.3798    2.3556 H   0  0  0  0  0  0  0  0  0  0  0  0
    2.1374   -1.2283    0.5847 C   0  0  0  0  0  0  0  0  0  0  0  0
    1.8894   -2.5196    0.0796 C   0  0  0  0  0  0  0  0  0  0  0  0
    1.0095   -2.6908   -0.5584 H   0  0  0  0  0  0  0  0  0  0  0  0
    2.7860   -3.5599    0.3655 C   0  0  0  0  0  0  0  0  0  0  0  0
    2.5960   -4.5669   -0.0351 H   0  0  0  0  0  0  0  0  0  0  0  0
    3.9237   -3.3157    1.1512 C   0  0  0  0  0  0  0  0  0  0  0  0
    4.6276   -4.1335    1.3684 H   0  0  0  0  0  0  0  0  0  0  0  0
    4.1686   -2.0281    1.6584 C   0  0  0  0  0  0  0  0  0  0  0  0
    5.0616   -1.8362    2.2724 H   0  0  0  0  0  0  0  0  0  0  0  0
    3.2769   -0.9833    1.3806 C   0  0  0  0  0  0  0  0  0  0  0  0
    3.4634    0.0262    1.7780 H   0  0  0  0  0  0  0  0  0  0  0  0
    1.8976    1.6209   -0.0483 C   0  0  0  0  0  0  0  0  0  0  0  0
    2.9122    1.5737   -1.0272 C   0  0  0  0  0  0  0  0  0  0  0  0
    3.1311    0.6263   -1.5394 H   0  0  0  0  0  0  0  0  0  0  0  0
    3.6168    2.7410   -1.3503 C   0  0  0  0  0  0  0  0  0  0  0  0
    4.4075    2.7032   -2.1145 H   0  0  0  0  0  0  0  0  0  0  0  0
    3.3144    3.9526   -0.7075 C   0  0  0  0  0  0  0  0  0  0  0  0
    3.8700    4.8667   -0.9666 H   0  0  0  0  0  0  0  0  0  0  0  0
    2.3023    3.9984    0.2643 C   0  0  0  0  0  0  0  0  0  0  0  0
    2.0641    4.9460    0.7707 H   0  0  0  0  0  0  0  0  0  0  0  0
    1.5892    2.8370    0.5946 C   0  0  0  0  0  0  0  0  0  0  0  0
    0.8010    2.8638    1.3599 H   0  0  0  0  0  0  0  0  0  0  0  0
  1 21  1  0  0  0  0
  1  3  1  0  0  0  0
  3 18  1  0  0  0  0
  4 17  1  0  0  0  0
  5 13  1  0  0  0  0
  5  8  1  0  0  0  0
  6  5  1  0  0  0  0
  7  5  1  0  0  0  0
  9 11  1  0  0  0  0
  9 10  1  0  0  0  0
  9 13  1  0  0  0  0
 12  9  1  0  0  0  0
 13  4  1  0  0  0  0
 13 14  1  0  0  0  0
 14 15  1  0  0  0  0
 14 16  1  0  0  0  0
 14  2  1  0  0  0  0
 17 18  1  6  0  0  0
 17  2  1  0  0  0  0
 18 19  1  0  0  0  0
 20 18  1  0  0  0  0
 21 30  1  0  0  0  0
 22 24  1  0  0  0  0
 22 21  2  0  0  0  0
 23 22  1  0  0  0  0
 24 26  2  0  0  0  0
 25 24  1  0  0  0  0
 26 27  1  0  0  0  0
 26 28  1  0  0  0  0
 28 29  1  0  0  0  0
 30 28  2  0  0  0  0
 30 31  1  0  0  0  0
 32  1  1  0  0  0  0
 32 41  1  0  0  0  0
 33 32  2  0  0  0  0
 34 33  1  0  0  0  0
 35 33  1  0  0  0  0
 35 37  2  0  0  0  0
 36 35  1  0  0  0  0
 37 39  1  0  0  0  0
 38 37  1  0  0  0  0
 39 41  2  0  0  0  0
 39 40  1  0  0  0  0
 41 42  1  0  0  0  0
M  END
