1,3
 OpenBabel05122313063D

 61 61  0  0  1  0  0  0  0  0999 V2000
   -2.4283   -0.2615    0.0297 P   0  0  0  0  0  0  0  0  0  0  0  0
    2.3905   -0.0849   -0.0089 P   0  0  0  0  0  0  0  0  0  0  0  0
   -0.0889    1.5749   -0.0161 N   0  0  0  0  0  2  0  0  0  0  0  0
   -2.4675    1.4793   -0.1096 N   0  0  0  0  0  0  0  0  0  0  0  0
    2.2882    1.6573    0.0517 N   0  0  0  0  0  0  0  0  0  0  0  0
   -1.2983    2.2285   -0.0698 C   0  0  1  0  0  3  0  0  0  0  0  0
   -1.3742    3.6388   -0.0831 C   0  0  0  0  0  0  0  0  0  0  0  0
   -2.3416    4.1481   -0.1202 H   0  0  0  0  0  0  0  0  0  0  0  0
   -0.1935    4.3775   -0.0461 C   0  0  0  0  0  0  0  0  0  0  0  0
   -0.2345    5.4765   -0.0551 H   0  0  0  0  0  0  0  0  0  0  0  0
    1.0388    3.7297    0.0008 C   0  0  0  0  0  0  0  0  0  0  0  0
    1.9655    4.3100    0.0261 H   0  0  0  0  0  0  0  0  0  0  0  0
    1.0675    2.3171    0.0125 C   0  0  0  0  0  0  0  0  0  0  0  0
   -3.4715   -0.5960    1.5590 C   0  0  0  0  0  0  0  0  0  0  0  0
   -4.5124   -0.3855    1.2263 H   0  0  0  0  0  0  0  0  0  0  0  0
   -3.3900   -2.0708    1.9771 C   0  0  0  0  0  0  0  0  0  0  0  0
   -2.3563   -2.3577    2.2554 H   0  0  0  0  0  0  0  0  0  0  0  0
   -3.7416   -2.7623    1.1880 H   0  0  0  0  0  0  0  0  0  0  0  0
   -4.0311   -2.2370    2.8660 H   0  0  0  0  0  0  0  0  0  0  0  0
   -3.1294    0.3479    2.7170 C   0  0  0  0  0  0  0  0  0  0  0  0
   -3.8583    0.1895    3.5374 H   0  0  0  0  0  0  0  0  0  0  0  0
   -3.1779    1.4154    2.4315 H   0  0  0  0  0  0  0  0  0  0  0  0
   -2.1258    0.1499    3.1339 H   0  0  0  0  0  0  0  0  0  0  0  0
   -3.5126   -0.8903   -1.3776 C   0  0  0  0  0  0  0  0  0  0  0  0
   -4.5488   -0.8196   -0.9781 H   0  0  0  0  0  0  0  0  0  0  0  0
   -3.2147   -2.3675   -1.6803 C   0  0  0  0  0  0  0  0  0  0  0  0
   -3.9578   -2.7476   -2.4098 H   0  0  0  0  0  0  0  0  0  0  0  0
   -3.2697   -3.0174   -0.7863 H   0  0  0  0  0  0  0  0  0  0  0  0
   -2.2115   -2.4912   -2.1324 H   0  0  0  0  0  0  0  0  0  0  0  0
   -3.4102   -0.0318   -2.6442 C   0  0  0  0  0  0  0  0  0  0  0  0
   -2.3885   -0.0298   -3.0652 H   0  0  0  0  0  0  0  0  0  0  0  0
   -3.7183    1.0170   -2.4838 H   0  0  0  0  0  0  0  0  0  0  0  0
   -4.0798   -0.4580   -3.4186 H   0  0  0  0  0  0  0  0  0  0  0  0
    3.5182   -0.5313    1.4328 C   0  0  0  0  0  0  0  0  0  0  0  0
    4.5433   -0.3260    1.0512 H   0  0  0  0  0  0  0  0  0  0  0  0
    3.4219   -2.0274    1.7680 C   0  0  0  0  0  0  0  0  0  0  0  0
    4.1731   -2.2751    2.5445 H   0  0  0  0  0  0  0  0  0  0  0  0
    3.6161   -2.6854    0.9006 H   0  0  0  0  0  0  0  0  0  0  0  0
    2.4257   -2.2854    2.1763 H   0  0  0  0  0  0  0  0  0  0  0  0
    3.2696    0.3343    2.6735 C   0  0  0  0  0  0  0  0  0  0  0  0
    2.2602    0.1777    3.0949 H   0  0  0  0  0  0  0  0  0  0  0  0
    3.3992    1.4150    2.4831 H   0  0  0  0  0  0  0  0  0  0  0  0
    3.9971    0.0468    3.4595 H   0  0  0  0  0  0  0  0  0  0  0  0
    3.4614   -0.4193   -1.5218 C   0  0  0  0  0  0  0  0  0  0  0  0
    4.4981   -0.1990   -1.1827 H   0  0  0  0  0  0  0  0  0  0  0  0
    3.3925   -1.8968   -1.9354 C   0  0  0  0  0  0  0  0  0  0  0  0
    2.3795   -2.1711   -2.2888 H   0  0  0  0  0  0  0  0  0  0  0  0
    3.6702   -2.5920   -1.1211 H   0  0  0  0  0  0  0  0  0  0  0  0
    4.0956   -2.0744   -2.7737 H   0  0  0  0  0  0  0  0  0  0  0  0
    3.1161    0.5089   -2.6917 C   0  0  0  0  0  0  0  0  0  0  0  0
    3.7954    0.2864   -3.5394 H   0  0  0  0  0  0  0  0  0  0  0  0
    3.2359    1.5794   -2.4438 H   0  0  0  0  0  0  0  0  0  0  0  0
    2.0839    0.3542   -3.0554 H   0  0  0  0  0  0  0  0  0  0  0  0
   -3.7544    2.1736   -0.1387 C   0  0  0  0  0  0  0  0  0  0  0  0
   -3.9064    2.7984    0.7665 H   0  0  0  0  0  0  0  0  0  0  0  0
   -4.5724    1.4331   -0.1789 H   0  0  0  0  0  0  0  0  0  0  0  0
   -3.8425    2.8214   -1.0348 H   0  0  0  0  0  0  0  0  0  0  0  0
    3.5191    2.4478    0.0702 C   0  0  0  0  0  0  0  0  0  0  0  0
    3.6114    3.0833   -0.8351 H   0  0  0  0  0  0  0  0  0  0  0  0
    4.3921    1.7723    0.0981 H   0  0  0  0  0  0  0  0  0  0  0  0
    3.5681    3.1003    0.9662 H   0  0  0  0  0  0  0  0  0  0  0  0
  1 14  1  0  0  0  0
  2  5  1  0  0  0  0
  2 34  1  0  0  0  0
  3 13  1  0  0  0  0
  4  1  1  0  0  0  0
  5 58  1  0  0  0  0
  6  4  1  1  0  0  0
  6  3  1  0  0  0  0
  7  6  1  0  0  0  0
  7  9  2  0  0  0  0
  8  7  1  0  0  0  0
  9 11  1  0  0  0  0
 10  9  1  0  0  0  0
 11 13  2  0  0  0  0
 11 12  1  0  0  0  0
 13  5  1  0  0  0  0
 14 16  1  0  0  0  0
 14 20  1  0  0  0  0
 15 14  1  0  0  0  0
 16 17  1  0  0  0  0
 16 19  1  0  0  0  0
 18 16  1  0  0  0  0
 20 23  1  0  0  0  0
 20 21  1  0  0  0  0
 22 20  1  0  0  0  0
 24 25  1  0  0  0  0
 24  1  1  0  0  0  0
 26 24  1  0  0  0  0
 26 28  1  0  0  0  0
 27 26  1  0  0  0  0
 29 26  1  0  0  0  0
 30 32  1  0  0  0  0
 30 24  1  0  0  0  0
 31 30  1  0  0  0  0
 33 30  1  0  0  0  0
 34 36  1  0  0  0  0
 34 40  1  0  0  0  0
 35 34  1  0  0  0  0
 36 39  1  0  0  0  0
 36 37  1  0  0  0  0
 38 36  1  0  0  0  0
 40 41  1  0  0  0  0
 40 43  1  0  0  0  0
 42 40  1  0  0  0  0
 44 45  1  0  0  0  0
 44  2  1  0  0  0  0
 46 44  1  0  0  0  0
 46 48  1  0  0  0  0
 47 46  1  0  0  0  0
 49 46  1  0  0  0  0
 50 52  1  0  0  0  0
 50 44  1  0  0  0  0
 51 50  1  0  0  0  0
 53 50  1  0  0  0  0
 54  4  1  0  0  0  0
 54 55  1  0  0  0  0
 56 54  1  0  0  0  0
 57 54  1  0  0  0  0
 58 60  1  0  0  0  0
 58 61  1  0  0  0  0
 59 58  1  0  0  0  0
M  END
