1,2
 OpenBabel05122313063D

 34 36  0  0  1  0  0  0  0  0999 V2000
   -0.9966    0.0423    0.3566 P   0  0  0  0  0  0  0  0  0  0  0  0
    1.7828    0.2533    1.3999 N   0  0  0  0  0  2  0  0  0  0  0  0
    0.8272    0.4256    2.3718 C   0  0  1  0  0  3  0  0  0  0  0  0
    1.0771    0.6607    3.6723 N   0  0  0  0  0  0  0  0  0  0  0  0
    2.3567    0.7292    4.0499 C   0  0  0  0  0  0  0  0  0  0  0  0
    2.5442    0.9222    5.1209 H   0  0  0  0  0  0  0  0  0  0  0  0
    3.4172    0.5668    3.1434 C   0  0  0  0  0  0  0  0  0  0  0  0
    4.4687    0.6231    3.4536 H   0  0  0  0  0  0  0  0  0  0  0  0
    3.0705    0.3285    1.8135 C   0  0  0  0  0  0  0  0  0  0  0  0
    3.8319    0.1902    1.0326 H   0  0  0  0  0  0  0  0  0  0  0  0
   -0.4914    0.3640    2.0023 N   0  0  0  0  0  0  0  0  0  0  0  0
   -1.1436    0.5104    2.7791 H   0  0  0  0  0  0  0  0  0  0  0  0
   -2.0737    1.4899    0.0060 C   0  0  0  0  0  0  0  0  0  0  0  0
   -3.1742    1.3529   -0.8643 C   0  0  0  0  0  0  0  0  0  0  0  0
   -3.9259    2.4802   -1.2261 C   0  0  0  0  0  0  0  0  0  0  0  0
   -3.5873    3.7464   -0.7227 C   0  0  0  0  0  0  0  0  0  0  0  0
   -2.4894    3.8856    0.1413 C   0  0  0  0  0  0  0  0  0  0  0  0
   -1.7296    2.7633    0.5013 C   0  0  0  0  0  0  0  0  0  0  0  0
   -3.4448    0.3616   -1.2590 H   0  0  0  0  0  0  0  0  0  0  0  0
   -4.7837    2.3673   -1.9061 H   0  0  0  0  0  0  0  0  0  0  0  0
   -4.1796    4.6290   -1.0074 H   0  0  0  0  0  0  0  0  0  0  0  0
   -2.2175    4.8766    0.5348 H   0  0  0  0  0  0  0  0  0  0  0  0
   -0.8620    2.8761    1.1691 H   0  0  0  0  0  0  0  0  0  0  0  0
   -2.2199   -1.3164    0.5408 C   0  0  0  0  0  0  0  0  0  0  0  0
   -3.3052   -1.2039    1.4360 C   0  0  0  0  0  0  0  0  0  0  0  0
   -4.2158   -2.2599    1.5707 C   0  0  0  0  0  0  0  0  0  0  0  0
   -4.0600   -3.4253    0.7998 C   0  0  0  0  0  0  0  0  0  0  0  0
   -2.9941   -3.5324   -0.1058 C   0  0  0  0  0  0  0  0  0  0  0  0
   -2.0719   -2.4815   -0.2347 C   0  0  0  0  0  0  0  0  0  0  0  0
   -3.4508   -0.2813    2.0207 H   0  0  0  0  0  0  0  0  0  0  0  0
   -5.0570   -2.1717    2.2749 H   0  0  0  0  0  0  0  0  0  0  0  0
   -4.7795   -4.2518    0.9036 H   0  0  0  0  0  0  0  0  0  0  0  0
   -2.8748   -4.4395   -0.7168 H   0  0  0  0  0  0  0  0  0  0  0  0
   -1.2342   -2.5563   -0.9436 H   0  0  0  0  0  0  0  0  0  0  0  0
  1 24  1  0  0  0  0
  1 11  1  0  0  0  0
  2  9  1  0  0  0  0
  2  3  1  0  0  0  0
  3 11  1  6  0  0  0
  3  4  1  0  0  0  0
  4  5  2  0  0  0  0
  5  6  1  0  0  0  0
  7  8  1  0  0  0  0
  7  5  1  0  0  0  0
  9  7  2  0  0  0  0
 10  9  1  0  0  0  0
 11 12  1  0  0  0  0
 13  1  1  0  0  0  0
 13 18  1  0  0  0  0
 14 13  2  0  0  0  0
 15 14  1  0  0  0  0
 15 16  2  0  0  0  0
 16 17  1  0  0  0  0
 17 18  2  0  0  0  0
 17 22  1  0  0  0  0
 18 23  1  0  0  0  0
 19 14  1  0  0  0  0
 20 15  1  0  0  0  0
 21 16  1  0  0  0  0
 24 25  1  0  0  0  0
 25 26  2  0  0  0  0
 25 30  1  0  0  0  0
 26 31  1  0  0  0  0
 27 32  1  0  0  0  0
 27 26  1  0  0  0  0
 28 27  2  0  0  0  0
 29 28  1  0  0  0  0
 29 24  2  0  0  0  0
 33 28  1  0  0  0  0
 34 29  1  0  0  0  0
M  END
