1,2
 OpenBabel05122313063D

 42 41  0  0  0  0  0  0  0  0999 V2000
    1.0881    0.2698   -0.0436 P   0  0  0  0  0  0  0  0  0  0  0  0
   -1.7102    1.5885   -0.2375 N   0  0  0  0  0  0  0  0  0  0  0  0
   -2.0610    1.7084   -1.6640 C   0  0  0  0  0  0  0  0  0  0  0  0
   -2.8854    1.0097   -1.8950 H   0  0  0  0  0  0  0  0  0  0  0  0
   -1.1971    1.4276   -2.2925 H   0  0  0  0  0  0  0  0  0  0  0  0
   -2.3777    2.7501   -1.9142 H   0  0  0  0  0  0  0  0  0  0  0  0
   -2.8805    1.9323    0.5895 C   0  0  0  0  0  0  0  0  0  0  0  0
   -3.7258    1.2718    0.3293 H   0  0  0  0  0  0  0  0  0  0  0  0
   -3.1839    2.9949    0.4324 H   0  0  0  0  0  0  0  0  0  0  0  0
   -2.6336    1.7749    1.6561 H   0  0  0  0  0  0  0  0  0  0  0  0
   -0.5963    2.5070    0.1150 C   0  0  0  0  0  0  0  0  0  0  0  0
   -0.5596    2.5466    1.2193 H   0  0  0  0  0  0  0  0  0  0  0  0
   -0.8457    3.5380   -0.2387 H   0  0  0  0  0  0  0  0  0  0  0  0
    0.7640    2.0777   -0.4298 C   0  0  0  0  0  0  0  0  0  0  0  0
    1.5568    2.7412   -0.0268 H   0  0  0  0  0  0  0  0  0  0  0  0
    0.7968    2.1901   -1.5320 H   0  0  0  0  0  0  0  0  0  0  0  0
    2.1752   -0.2633   -1.5342 C   0  0  0  0  0  0  0  0  0  0  0  0
    1.1851   -0.4350   -2.7040 C   0  0  0  0  0  0  0  0  0  0  0  0
    0.7334    0.5305   -3.0121 H   0  0  0  0  0  0  0  0  0  0  0  0
    0.3582   -1.1227   -2.4354 H   0  0  0  0  0  0  0  0  0  0  0  0
    1.7245   -0.8387   -3.5875 H   0  0  0  0  0  0  0  0  0  0  0  0
    2.8181   -1.6286   -1.2365 C   0  0  0  0  0  0  0  0  0  0  0  0
    3.6056   -1.5609   -0.4609 H   0  0  0  0  0  0  0  0  0  0  0  0
    3.2989   -2.0166   -2.1600 H   0  0  0  0  0  0  0  0  0  0  0  0
    2.0653   -2.3730   -0.9103 H   0  0  0  0  0  0  0  0  0  0  0  0
    3.2592    0.7495   -1.9402 C   0  0  0  0  0  0  0  0  0  0  0  0
    3.7677    0.3873   -2.8600 H   0  0  0  0  0  0  0  0  0  0  0  0
    4.0365    0.8805   -1.1659 H   0  0  0  0  0  0  0  0  0  0  0  0
    2.8383    1.7469   -2.1770 H   0  0  0  0  0  0  0  0  0  0  0  0
    2.1213    0.3144    1.5729 C   0  0  0  0  0  0  0  0  0  0  0  0
    2.1991   -1.1188    2.1307 C   0  0  0  0  0  0  0  0  0  0  0  0
    1.1858   -1.5426    2.2705 H   0  0  0  0  0  0  0  0  0  0  0  0
    2.7092   -1.0995    3.1178 H   0  0  0  0  0  0  0  0  0  0  0  0
    2.7681   -1.8031    1.4746 H   0  0  0  0  0  0  0  0  0  0  0  0
    3.5266    0.9124    1.4296 C   0  0  0  0  0  0  0  0  0  0  0  0
    4.1961    0.2684    0.8274 H   0  0  0  0  0  0  0  0  0  0  0  0
    3.9896    1.0139    2.4352 H   0  0  0  0  0  0  0  0  0  0  0  0
    3.5120    1.9229    0.9722 H   0  0  0  0  0  0  0  0  0  0  0  0
    1.3064    1.1574    2.5733 C   0  0  0  0  0  0  0  0  0  0  0  0
    1.3112    2.2366    2.3202 H   0  0  0  0  0  0  0  0  0  0  0  0
    1.7563    1.0577    3.5841 H   0  0  0  0  0  0  0  0  0  0  0  0
    0.2561    0.8021    2.6292 H   0  0  0  0  0  0  0  0  0  0  0  0
  1 30  1  0  0  0  0
  2 11  1  0  0  0  0
  2  7  1  0  0  0  0
  3  2  1  0  0  0  0
  4  3  1  0  0  0  0
  5  3  1  0  0  0  0
  6  3  1  0  0  0  0
  7 10  1  0  0  0  0
  8  7  1  0  0  0  0
  9  7  1  0  0  0  0
 11 12  1  0  0  0  0
 13 11  1  0  0  0  0
 14  1  1  0  0  0  0
 14 15  1  0  0  0  0
 14 11  1  0  0  0  0
 16 14  1  0  0  0  0
 17 22  1  0  0  0  0
 17  1  1  0  0  0  0
 18 20  1  0  0  0  0
 18 17  1  0  0  0  0
 19 18  1  0  0  0  0
 21 18  1  0  0  0  0
 22 25  1  0  0  0  0
 22 23  1  0  0  0  0
 24 22  1  0  0  0  0
 26 17  1  0  0  0  0
 26 28  1  0  0  0  0
 27 26  1  0  0  0  0
 29 26  1  0  0  0  0
 30 31  1  0  0  0  0
 30 39  1  0  0  0  0
 31 32  1  0  0  0  0
 31 33  1  0  0  0  0
 34 31  1  0  0  0  0
 35 30  1  0  0  0  0
 35 37  1  0  0  0  0
 36 35  1  0  0  0  0
 38 35  1  0  0  0  0
 39 42  1  0  0  0  0
 39 41  1  0  0  0  0
 40 39  1  0  0  0  0
M  END
