1,4
 OpenBabel05122313063D

 21 22  0  0  1  0  0  0  0  0999 V2000
   -1.3294   -0.8289    0.0306 P   0  0  0  0  0  0  0  0  0  0  0  0
   -2.4191   -1.3165    1.2190 O   0  0  0  0  0  0  0  0  0  0  0  0
   -2.4025   -1.1309   -1.2247 O   0  0  0  0  0  0  0  0  0  0  0  0
    1.5993   -0.7769   -0.0159 N   0  0  0  0  0  2  0  0  0  0  0  0
   -0.2668   -2.2004    0.0884 N   0  0  0  0  0  0  0  0  0  0  0  0
   -0.6238   -3.1511    0.2115 H   0  0  0  0  0  0  0  0  0  0  0  0
    1.1057   -2.0492    0.0366 C   0  0  2  0  0  3  0  0  0  0  0  0
    1.9597   -3.1777    0.0448 C   0  0  0  0  0  0  0  0  0  0  0  0
    1.5220   -4.1856    0.0864 H   0  0  0  0  0  0  0  0  0  0  0  0
    3.3392   -2.9915   -0.0033 C   0  0  0  0  0  0  0  0  0  0  0  0
    4.0137   -3.8605    0.0027 H   0  0  0  0  0  0  0  0  0  0  0  0
    3.8488   -1.6820   -0.0624 C   0  0  0  0  0  0  0  0  0  0  0  0
    4.9279   -1.4819   -0.1032 H   0  0  0  0  0  0  0  0  0  0  0  0
    2.9467   -0.6202   -0.0671 C   0  0  0  0  0  0  0  0  0  0  0  0
    3.2996    0.4193   -0.1106 H   0  0  0  0  0  0  0  0  0  0  0  0
   -3.7435   -1.4285    0.6873 C   0  0  0  0  0  0  0  0  0  0  0  0
   -4.2707   -0.4509    0.7610 H   0  0  0  0  0  0  0  0  0  0  0  0
   -4.2979   -2.1814    1.2822 H   0  0  0  0  0  0  0  0  0  0  0  0
   -3.5576   -1.8480   -0.7752 C   0  0  0  0  0  0  0  0  0  0  0  0
   -3.3885   -2.9468   -0.8633 H   0  0  0  0  0  0  0  0  0  0  0  0
   -4.4160   -1.5686   -1.4170 H   0  0  0  0  0  0  0  0  0  0  0  0
  1  5  1  0  0  0  0
  1  2  1  0  0  0  0
  3 19  1  0  0  0  0
  3  1  1  0  0  0  0
  4  7  1  0  0  0  0
  5  6  1  0  0  0  0
  7  8  1  0  0  0  0
  7  5  1  1  0  0  0
  8  9  1  0  0  0  0
 10 11  1  0  0  0  0
 10  8  2  0  0  0  0
 12 10  1  0  0  0  0
 13 12  1  0  0  0  0
 14 12  2  0  0  0  0
 14  4  1  0  0  0  0
 15 14  1  0  0  0  0
 16 17  1  0  0  0  0
 16  2  1  0  0  0  0
 16 18  1  0  0  0  0
 19 16  1  0  0  0  0
 20 19  1  0  0  0  0
 21 19  1  0  0  0  0
M  END
