1,5
 OpenBabel05122313063D

 35 38  0  0  1  0  0  0  0  0999 V2000
   -0.1536    1.4140    0.1525 P   0  0  2  0  0  0  0  0  0  0  0  0
    2.5738    1.4167   -0.5744 N   0  0  1  0  0  0  0  0  0  0  0  0
    1.4304    3.5982   -0.5456 N   0  0  2  0  0  0  0  0  0  0  0  0
    2.0024    2.4876    1.5720 N   0  0  1  0  0  0  0  0  0  0  0  0
    0.2476   -1.3772   -0.0405 N   0  0  0  0  0  2  0  0  0  0  0  0
    0.3194   -2.3802    0.1786 H   0  0  0  0  0  0  0  0  0  0  0  0
    1.3596    0.6209   -0.7209 C   0  0  1  0  0  0  0  0  0  0  0  0
    1.0645    0.6249   -1.7983 H   0  0  0  0  0  0  0  0  0  0  0  0
    0.0581    3.1066   -0.6603 C   0  0  0  0  0  0  0  0  0  0  0  0
   -0.2353    3.0147   -1.7276 H   0  0  0  0  0  0  0  0  0  0  0  0
   -0.6461    3.8202   -0.1834 H   0  0  0  0  0  0  0  0  0  0  0  0
    0.7173    1.8227    1.7766 C   0  0  0  0  0  0  0  0  0  0  0  0
    0.0425    2.4614    2.3851 H   0  0  0  0  0  0  0  0  0  0  0  0
    0.8556    0.8719    2.3332 H   0  0  0  0  0  0  0  0  0  0  0  0
    2.4007    2.7308   -1.2199 C   0  0  0  0  0  0  0  0  0  0  0  0
    3.3839    3.2456   -1.2141 H   0  0  0  0  0  0  0  0  0  0  0  0
    2.0898    2.5789   -2.2742 H   0  0  0  0  0  0  0  0  0  0  0  0
    2.9435    1.6372    0.8380 C   0  0  0  0  0  0  0  0  0  0  0  0
    3.0346    0.6578    1.3491 H   0  0  0  0  0  0  0  0  0  0  0  0
    3.9401    2.1253    0.8503 H   0  0  0  0  0  0  0  0  0  0  0  0
    1.8464    3.7591    0.8551 C   0  0  0  0  0  0  0  0  0  0  0  0
    1.1064    4.3915    1.3870 H   0  0  0  0  0  0  0  0  0  0  0  0
    2.8244    4.2845    0.8643 H   0  0  0  0  0  0  0  0  0  0  0  0
    1.4136   -0.8306   -0.2908 C   0  0  2  0  0  3  0  0  0  0  0  0
    2.6783   -1.5826   -0.1791 C   0  0  0  0  0  0  0  0  0  0  0  0
    2.7954   -2.6298    0.7686 C   0  0  0  0  0  0  0  0  0  0  0  0
    1.9642   -2.8342    1.4620 H   0  0  0  0  0  0  0  0  0  0  0  0
    3.9704   -3.3839    0.8603 C   0  0  0  0  0  0  0  0  0  0  0  0
    4.0464   -4.1871    1.6085 H   0  0  0  0  0  0  0  0  0  0  0  0
    5.0529   -3.1066    0.0085 C   0  0  0  0  0  0  0  0  0  0  0  0
    5.9776   -3.6988    0.0807 H   0  0  0  0  0  0  0  0  0  0  0  0
    4.9528   -2.0657   -0.9289 C   0  0  0  0  0  0  0  0  0  0  0  0
    5.7976   -1.8459   -1.5989 H   0  0  0  0  0  0  0  0  0  0  0  0
    3.7823   -1.3020   -1.0205 C   0  0  0  0  0  0  0  0  0  0  0  0
    3.7132   -0.4784   -1.7422 H   0  0  0  0  0  0  0  0  0  0  0  0
  1  9  1  6  0  0  0
  1 12  1  0  0  0  0
  2 15  1  1  0  0  0
  2 18  1  0  0  0  0
  3 15  1  1  0  0  0
  3 21  1  0  0  0  0
  4 18  1  6  0  0  0
  4 12  1  0  0  0  0
  5  6  1  0  0  0  0
  7  8  1  6  0  0  0
  7  2  1  0  0  0  0
  7 24  1  0  0  0  0
  7  1  1  0  0  0  0
  9  3  1  0  0  0  0
  9 11  1  0  0  0  0
 10  9  1  0  0  0  0
 12 14  1  0  0  0  0
 12 13  1  0  0  0  0
 15 16  1  0  0  0  0
 17 15  1  0  0  0  0
 18 20  1  0  0  0  0
 18 19  1  0  0  0  0
 21 23  1  0  0  0  0
 21 22  1  0  0  0  0
 21  4  1  0  0  0  0
 24 25  1  0  0  0  0
 24  5  1  6  0  0  0
 25 26  1  0  0  0  0
 26 28  2  0  0  0  0
 26 27  1  0  0  0  0
 28 29  1  0  0  0  0
 30 31  1  0  0  0  0
 30 28  1  0  0  0  0
 32 30  2  0  0  0  0
 33 32  1  0  0  0  0
 34 32  1  0  0  0  0
 34 25  2  0  0  0  0
 35 34  1  0  0  0  0
M  END
