2,3
 OpenBabel05122313063D

 73 77  0  0  1  0  0  0  0  0999 V2000
   -1.6338   -0.4805    0.5170 P   0  0  0  0  0  4  0  0  0  0  0  0
    1.6807    0.1682    0.3553 P   0  0  0  0  0  0  0  0  0  0  0  0
   -1.3585    0.8092   -0.4283 N   0  0  0  0  0  2  0  0  0  0  0  0
   -0.5464   -0.6968    1.9952 C   0  0  0  0  0  0  0  0  0  0  0  0
   -1.0796   -1.2344    3.1883 C   0  0  0  0  0  0  0  0  0  0  0  0
   -2.1464   -1.4966    3.2369 H   0  0  0  0  0  0  0  0  0  0  0  0
   -0.2650   -1.4485    4.3078 C   0  0  0  0  0  0  0  0  0  0  0  0
   -0.6979   -1.8674    5.2286 H   0  0  0  0  0  0  0  0  0  0  0  0
    1.1015   -1.1390    4.2416 C   0  0  0  0  0  0  0  0  0  0  0  0
    1.7544   -1.3124    5.1102 H   0  0  0  0  0  0  0  0  0  0  0  0
    1.6426   -0.6236    3.0569 C   0  0  0  0  0  0  0  0  0  0  0  0
    2.7209   -0.4138    3.0037 H   0  0  0  0  0  0  0  0  0  0  0  0
    0.8355   -0.3882    1.9231 C   0  0  0  0  0  0  0  0  0  0  0  0
   -1.8605    2.1619   -0.1066 C   0  0  1  0  0  0  0  0  0  0  0  0
   -2.6156    2.0687    0.7093 H   0  0  0  0  0  0  0  0  0  0  0  0
   -0.7240    3.0433    0.4207 C   0  0  0  0  0  0  0  0  0  0  0  0
   -0.2265    2.5572    1.2825 H   0  0  0  0  0  0  0  0  0  0  0  0
   -1.0940    4.0303    0.7587 H   0  0  0  0  0  0  0  0  0  0  0  0
    0.0438    3.2039   -0.3647 H   0  0  0  0  0  0  0  0  0  0  0  0
   -2.6190    2.7684   -1.3139 C   0  0  0  0  0  0  0  0  0  0  0  0
   -1.8974    2.8113   -2.1583 H   0  0  0  0  0  0  0  0  0  0  0  0
   -3.1308    4.1811   -1.0060 C   0  0  0  0  0  0  0  0  0  0  0  0
   -3.7406    4.5615   -1.8502 H   0  0  0  0  0  0  0  0  0  0  0  0
   -2.3108    4.9076   -0.8421 H   0  0  0  0  0  0  0  0  0  0  0  0
   -3.7796    4.1895   -0.1018 H   0  0  0  0  0  0  0  0  0  0  0  0
   -3.7738    1.8578   -1.7409 C   0  0  0  0  0  0  0  0  0  0  0  0
   -3.3972    0.8558   -2.0183 H   0  0  0  0  0  0  0  0  0  0  0  0
   -4.2950    2.2758   -2.6255 H   0  0  0  0  0  0  0  0  0  0  0  0
   -4.5227    1.7433   -0.9262 H   0  0  0  0  0  0  0  0  0  0  0  0
   -3.3454   -0.4471    1.1534 C   0  0  0  0  0  0  0  0  0  0  0  0
   -3.7070    0.3946    2.2286 C   0  0  0  0  0  0  0  0  0  0  0  0
   -2.9344    0.9426    2.7889 H   0  0  0  0  0  0  0  0  0  0  0  0
   -5.0548    0.5308    2.5903 C   0  0  0  0  0  0  0  0  0  0  0  0
   -5.3311    1.1898    3.4270 H   0  0  0  0  0  0  0  0  0  0  0  0
   -6.0474   -0.1674    1.8838 C   0  0  0  0  0  0  0  0  0  0  0  0
   -7.1048   -0.0570    2.1682 H   0  0  0  0  0  0  0  0  0  0  0  0
   -5.6915   -1.0051    0.8150 C   0  0  0  0  0  0  0  0  0  0  0  0
   -6.4673   -1.5525    0.2593 H   0  0  0  0  0  0  0  0  0  0  0  0
   -4.3458   -1.1442    0.4466 C   0  0  0  0  0  0  0  0  0  0  0  0
   -4.0686   -1.7907   -0.3994 H   0  0  0  0  0  0  0  0  0  0  0  0
   -1.4160   -2.0100   -0.4429 C   0  0  0  0  0  0  0  0  0  0  0  0
   -1.5653   -1.9762   -1.8458 C   0  0  0  0  0  0  0  0  0  0  0  0
   -1.7633   -1.0244   -2.3681 H   0  0  0  0  0  0  0  0  0  0  0  0
   -1.3783   -3.1551   -2.5826 C   0  0  0  0  0  0  0  0  0  0  0  0
   -1.4647   -3.1182   -3.6787 H   0  0  0  0  0  0  0  0  0  0  0  0
   -1.0590   -4.3584   -1.9325 C   0  0  0  0  0  0  0  0  0  0  0  0
   -0.9039   -5.2765   -2.5195 H   0  0  0  0  0  0  0  0  0  0  0  0
   -0.9265   -4.3907   -0.5344 C   0  0  0  0  0  0  0  0  0  0  0  0
   -0.6699   -5.3304   -0.0228 H   0  0  0  0  0  0  0  0  0  0  0  0
   -1.1012   -3.2176    0.2141 C   0  0  0  0  0  0  0  0  0  0  0  0
   -0.9671   -3.2405    1.3056 H   0  0  0  0  0  0  0  0  0  0  0  0
    2.6721    1.6248    0.8839 C   0  0  0  0  0  0  0  0  0  0  0  0
    3.6516    2.1048   -0.0146 C   0  0  0  0  0  0  0  0  0  0  0  0
    3.7956    1.5869   -0.9773 H   0  0  0  0  0  0  0  0  0  0  0  0
    4.3930    3.2497    0.3062 C   0  0  0  0  0  0  0  0  0  0  0  0
    5.1542    3.6147   -0.3999 H   0  0  0  0  0  0  0  0  0  0  0  0
    4.1588    3.9361    1.5092 C   0  0  0  0  0  0  0  0  0  0  0  0
    4.7396    4.8385    1.7536 H   0  0  0  0  0  0  0  0  0  0  0  0
    3.1729    3.4735    2.3935 C   0  0  0  0  0  0  0  0  0  0  0  0
    2.9740    4.0120    3.3326 H   0  0  0  0  0  0  0  0  0  0  0  0
    2.4313    2.3224    2.0854 C   0  0  0  0  0  0  0  0  0  0  0  0
    1.6593    1.9750    2.7868 H   0  0  0  0  0  0  0  0  0  0  0  0
    2.8715   -1.2214    0.1659 C   0  0  0  0  0  0  0  0  0  0  0  0
    2.4167   -2.3751   -0.5045 C   0  0  0  0  0  0  0  0  0  0  0  0
    1.4190   -2.3799   -0.9681 H   0  0  0  0  0  0  0  0  0  0  0  0
    3.2467   -3.4986   -0.6009 C   0  0  0  0  0  0  0  0  0  0  0  0
    2.8864   -4.3943   -1.1290 H   0  0  0  0  0  0  0  0  0  0  0  0
    4.5376   -3.4738   -0.0459 C   0  0  0  0  0  0  0  0  0  0  0  0
    5.1926   -4.3541   -0.1331 H   0  0  0  0  0  0  0  0  0  0  0  0
    4.9965   -2.3196    0.6068 C   0  0  0  0  0  0  0  0  0  0  0  0
    6.0125   -2.2900    1.0291 H   0  0  0  0  0  0  0  0  0  0  0  0
    4.1653   -1.1931    0.7178 C   0  0  0  0  0  0  0  0  0  0  0  0
    4.5337   -0.2842    1.2173 H   0  0  0  0  0  0  0  0  0  0  0  0
  1 30  1  0  0  0  0
  1  4  1  0  0  0  0
  2 52  1  0  0  0  0
  2 13  1  0  0  0  0
  3 14  1  0  0  0  0
  3  1  1  0  0  0  0
  4  5  1  0  0  0  0
  5  6  1  0  0  0  0
  5  7  2  0  0  0  0
  7  8  1  0  0  0  0
  9  7  1  0  0  0  0
  9 10  1  0  0  0  0
 11  9  2  0  0  0  0
 12 11  1  0  0  0  0
 13  4  2  0  0  0  0
 13 11  1  0  0  0  0
 14 16  1  0  0  0  0
 14 15  1  1  0  0  0
 16 18  1  0  0  0  0
 16 17  1  0  0  0  0
 19 16  1  0  0  0  0
 20 22  1  0  0  0  0
 20 14  1  0  0  0  0
 21 20  1  0  0  0  0
 22 24  1  0  0  0  0
 22 25  1  0  0  0  0
 23 22  1  0  0  0  0
 26 20  1  0  0  0  0
 26 29  1  0  0  0  0
 27 26  1  0  0  0  0
 28 26  1  0  0  0  0
 30 31  1  0  0  0  0
 31 33  2  0  0  0  0
 31 32  1  0  0  0  0
 33 34  1  0  0  0  0
 35 36  1  0  0  0  0
 35 33  1  0  0  0  0
 37 35  2  0  0  0  0
 38 37  1  0  0  0  0
 39 37  1  0  0  0  0
 39 30  2  0  0  0  0
 40 39  1  0  0  0  0
 41 50  1  0  0  0  0
 41  1  1  0  0  0  0
 42 41  2  0  0  0  0
 43 42  1  0  0  0  0
 44 46  2  0  0  0  0
 44 42  1  0  0  0  0
 45 44  1  0  0  0  0
 46 48  1  0  0  0  0
 47 46  1  0  0  0  0
 48 49  1  0  0  0  0
 48 50  2  0  0  0  0
 50 51  1  0  0  0  0
 52 61  1  0  0  0  0
 53 55  1  0  0  0  0
 53 52  2  0  0  0  0
 54 53  1  0  0  0  0
 55 57  2  0  0  0  0
 56 55  1  0  0  0  0
 57 58  1  0  0  0  0
 57 59  1  0  0  0  0
 59 60  1  0  0  0  0
 61 59  2  0  0  0  0
 61 62  1  0  0  0  0
 63  2  1  0  0  0  0
 63 72  1  0  0  0  0
 64 63  2  0  0  0  0
 65 64  1  0  0  0  0
 66 64  1  0  0  0  0
 66 68  2  0  0  0  0
 67 66  1  0  0  0  0
 68 70  1  0  0  0  0
 69 68  1  0  0  0  0
 70 72  2  0  0  0  0
 70 71  1  0  0  0  0
 72 73  1  0  0  0  0
M  END
