1,3
 OpenBabel05122313063D

 31 33  0  0  0  0  0  0  0  0999 V2000
    0.3236   -1.7281   -0.3588 P   0  0  0  0  0  0  0  0  0  0  0  0
   -3.1382   -4.0959   -0.6258 S   0  0  0  0  0  0  0  0  0  0  0  0
   -2.4902   -1.6223   -0.1651 N   0  0  0  0  0  2  0  0  0  0  0  0
   -0.6366   -3.0492   -0.7630 N   0  0  0  0  0  0  0  0  0  0  0  0
   -3.8443   -1.7319    0.0866 C   0  0  0  0  0  0  0  0  0  0  0  0
   -4.3977   -0.8595    0.4522 H   0  0  0  0  0  0  0  0  0  0  0  0
   -1.9181   -2.8180   -0.5276 C   0  0  0  0  0  0  0  0  0  0  0  0
    3.0618   -1.0489   -4.0418 C   0  0  0  0  0  0  0  0  0  0  0  0
    3.6856   -0.8618   -4.9290 H   0  0  0  0  0  0  0  0  0  0  0  0
    2.7625   -0.9932   -1.6308 C   0  0  0  0  0  0  0  0  0  0  0  0
    3.1568   -0.7754   -0.6285 H   0  0  0  0  0  0  0  0  0  0  0  0
    1.3618   -2.2075    1.0692 C   0  0  0  0  0  0  0  0  0  0  0  0
    2.4662   -3.0715    0.9179 C   0  0  0  0  0  0  0  0  0  0  0  0
    2.7516   -3.4297   -0.0827 H   0  0  0  0  0  0  0  0  0  0  0  0
    3.5587   -0.7610   -2.7611 C   0  0  0  0  0  0  0  0  0  0  0  0
    4.5707   -0.3464   -2.6402 H   0  0  0  0  0  0  0  0  0  0  0  0
   -4.3843   -2.9709   -0.1195 C   0  0  0  0  0  0  0  0  0  0  0  0
   -5.4250   -3.2873    0.0064 H   0  0  0  0  0  0  0  0  0  0  0  0
    1.7699   -1.5808   -4.1891 C   0  0  0  0  0  0  0  0  0  0  0  0
    1.3823   -1.8194   -5.1913 H   0  0  0  0  0  0  0  0  0  0  0  0
    1.4633   -1.5174   -1.7747 C   0  0  0  0  0  0  0  0  0  0  0  0
    0.9840   -1.7736    2.3559 C   0  0  0  0  0  0  0  0  0  0  0  0
    0.1205   -1.0990    2.4643 H   0  0  0  0  0  0  0  0  0  0  0  0
    2.8252   -3.0287    3.3244 C   0  0  0  0  0  0  0  0  0  0  0  0
    3.4040   -3.3449    4.2058 H   0  0  0  0  0  0  0  0  0  0  0  0
    0.9721   -1.8185   -3.0607 C   0  0  0  0  0  0  0  0  0  0  0  0
   -0.0344   -2.2529   -3.1589 H   0  0  0  0  0  0  0  0  0  0  0  0
    3.1976   -3.4738    2.0447 C   0  0  0  0  0  0  0  0  0  0  0  0
    4.0619   -4.1446    1.9236 H   0  0  0  0  0  0  0  0  0  0  0  0
    1.7144   -2.1843    3.4791 C   0  0  0  0  0  0  0  0  0  0  0  0
    1.4208   -1.8307    4.4784 H   0  0  0  0  0  0  0  0  0  0  0  0
  1 12  1  0  0  0  0
  2  7  1  0  0  0  0
  2 17  1  0  0  0  0
  3  5  1  0  0  0  0
  4  7  2  0  0  0  0
  4  1  1  0  0  0  0
  5  6  1  0  0  0  0
  7  3  1  0  0  0  0
  8 15  1  0  0  0  0
  9  8  1  0  0  0  0
 10 11  1  0  0  0  0
 12 22  1  0  0  0  0
 13 12  2  0  0  0  0
 13 28  1  0  0  0  0
 14 13  1  0  0  0  0
 15 16  1  0  0  0  0
 15 10  2  0  0  0  0
 17 18  1  0  0  0  0
 17  5  2  0  0  0  0
 19  8  2  0  0  0  0
 19 26  1  0  0  0  0
 20 19  1  0  0  0  0
 21 10  1  0  0  0  0
 21  1  1  0  0  0  0
 22 23  1  0  0  0  0
 22 30  2  0  0  0  0
 24 30  1  0  0  0  0
 24 25  1  0  0  0  0
 26 21  2  0  0  0  0
 27 26  1  0  0  0  0
 28 24  2  0  0  0  0
 29 28  1  0  0  0  0
 30 31  1  0  0  0  0
M  END
