1,3
 OpenBabel05122313063D

 59 62  0  0  0  0  0  0  0  0999 V2000
    1.1898    0.6272    0.6260 P   0  0  0  0  0  0  0  0  0  0  0  0
   -1.7950    0.1640    0.4761 P   0  0  0  0  0  4  0  0  0  0  0  0
   -1.1848   -1.0067   -0.4994 N   0  0  0  0  0  2  0  0  0  0  0  0
   -2.3207   -1.6148   -1.1498 N   0  0  0  0  0  0  0  0  0  0  0  0
   -0.4278    0.6624    1.5802 C   0  0  0  0  0  0  0  0  0  0  0  0
   -2.4758   -2.9906   -0.6922 C   0  0  0  0  0  0  0  0  0  0  0  0
   -2.2418   -1.5050   -2.5992 C   0  0  0  0  0  0  0  0  0  0  0  0
    3.2469   -0.3182    2.3032 C   0  0  0  0  0  0  0  0  0  0  0  0
    4.1569   -0.2387    3.3693 C   0  0  0  0  0  0  0  0  0  0  0  0
    4.2282    0.9239    4.1511 C   0  0  0  0  0  0  0  0  0  0  0  0
    3.3914    2.0156    3.8624 C   0  0  0  0  0  0  0  0  0  0  0  0
    2.4835    1.9421    2.7971 C   0  0  0  0  0  0  0  0  0  0  0  0
    2.4002    0.7696    2.0172 C   0  0  0  0  0  0  0  0  0  0  0  0
    0.5162    3.4064    0.2208 C   0  0  0  0  0  0  0  0  0  0  0  0
    0.6564    4.6310   -0.4495 C   0  0  0  0  0  0  0  0  0  0  0  0
    1.5795    4.7590   -1.4983 C   0  0  0  0  0  0  0  0  0  0  0  0
    2.3653    3.6572   -1.8749 C   0  0  0  0  0  0  0  0  0  0  0  0
    2.2219    2.4307   -1.2120 C   0  0  0  0  0  0  0  0  0  0  0  0
    1.2938    2.2941   -0.1583 C   0  0  0  0  0  0  0  0  0  0  0  0
   -3.2417    2.5934    0.1858 C   0  0  0  0  0  0  0  0  0  0  0  0
   -3.5381    3.7946   -0.4757 C   0  0  0  0  0  0  0  0  0  0  0  0
   -2.9442    4.0806   -1.7170 C   0  0  0  0  0  0  0  0  0  0  0  0
   -2.0497    3.1680   -2.2976 C   0  0  0  0  0  0  0  0  0  0  0  0
   -1.7450    1.9685   -1.6393 C   0  0  0  0  0  0  0  0  0  0  0  0
   -2.3445    1.6763   -0.3982 C   0  0  0  0  0  0  0  0  0  0  0  0
   -3.0394   -0.8122    2.8230 C   0  0  0  0  0  0  0  0  0  0  0  0
   -4.1284   -1.3367    3.5347 C   0  0  0  0  0  0  0  0  0  0  0  0
   -5.3881   -1.4339    2.9230 C   0  0  0  0  0  0  0  0  0  0  0  0
   -5.5606   -1.0022    1.5975 C   0  0  0  0  0  0  0  0  0  0  0  0
   -4.4783   -0.4718    0.8823 C   0  0  0  0  0  0  0  0  0  0  0  0
   -3.2090   -0.3728    1.4942 C   0  0  0  0  0  0  0  0  0  0  0  0
   -0.6568    1.6172    2.0932 H   0  0  0  0  0  0  0  0  0  0  0  0
   -0.3030   -0.1316    2.3434 H   0  0  0  0  0  0  0  0  0  0  0  0
   -3.3653   -3.4404   -1.1771 H   0  0  0  0  0  0  0  0  0  0  0  0
   -1.5799   -3.6135   -0.9268 H   0  0  0  0  0  0  0  0  0  0  0  0
   -2.6295   -2.9989    0.4046 H   0  0  0  0  0  0  0  0  0  0  0  0
   -3.1396   -1.9792   -3.0435 H   0  0  0  0  0  0  0  0  0  0  0  0
   -2.2262   -0.4409   -2.9008 H   0  0  0  0  0  0  0  0  0  0  0  0
   -1.3316   -2.0008   -3.0147 H   0  0  0  0  0  0  0  0  0  0  0  0
    3.1959   -1.2216    1.6785 H   0  0  0  0  0  0  0  0  0  0  0  0
    4.8179   -1.0921    3.5831 H   0  0  0  0  0  0  0  0  0  0  0  0
    4.9446    0.9854    4.9844 H   0  0  0  0  0  0  0  0  0  0  0  0
    3.4528    2.9338    4.4663 H   0  0  0  0  0  0  0  0  0  0  0  0
    1.8477    2.8096    2.5614 H   0  0  0  0  0  0  0  0  0  0  0  0
   -0.2293    3.3263    1.0250 H   0  0  0  0  0  0  0  0  0  0  0  0
    0.0294    5.4860   -0.1547 H   0  0  0  0  0  0  0  0  0  0  0  0
    1.6846    5.7185   -2.0270 H   0  0  0  0  0  0  0  0  0  0  0  0
    3.0894    3.7486   -2.6984 H   0  0  0  0  0  0  0  0  0  0  0  0
    2.8236    1.5603   -1.5172 H   0  0  0  0  0  0  0  0  0  0  0  0
   -3.7129    2.3660    1.1546 H   0  0  0  0  0  0  0  0  0  0  0  0
   -4.2413    4.5098   -0.0223 H   0  0  0  0  0  0  0  0  0  0  0  0
   -3.1806    5.0235   -2.2332 H   0  0  0  0  0  0  0  0  0  0  0  0
   -1.5715    3.3931   -3.2623 H   0  0  0  0  0  0  0  0  0  0  0  0
   -1.0200    1.2654   -2.0723 H   0  0  0  0  0  0  0  0  0  0  0  0
   -2.0557   -0.7562    3.3115 H   0  0  0  0  0  0  0  0  0  0  0  0
   -3.9887   -1.6752    4.5722 H   0  0  0  0  0  0  0  0  0  0  0  0
   -6.2399   -1.8503    3.4818 H   0  0  0  0  0  0  0  0  0  0  0  0
   -6.5462   -1.0821    1.1147 H   0  0  0  0  0  0  0  0  0  0  0  0
   -4.6052   -0.1462   -0.1599 H   0  0  0  0  0  0  0  0  0  0  0  0
  1  5  1  0  0  0  0
  1 13  1  0  0  0  0
  2 31  1  0  0  0  0
  2  5  1  0  0  0  0
  3  2  1  0  0  0  0
  4  6  1  0  0  0  0
  4  3  1  0  0  0  0
  5 32  1  0  0  0  0
  5 33  1  0  0  0  0
  6 36  1  0  0  0  0
  7  4  1  0  0  0  0
  8  9  1  0  0  0  0
  9 41  1  0  0  0  0
  9 10  2  0  0  0  0
 10 42  1  0  0  0  0
 11 10  1  0  0  0  0
 11 43  1  0  0  0  0
 12 11  2  0  0  0  0
 13  8  2  0  0  0  0
 13 12  1  0  0  0  0
 14 45  1  0  0  0  0
 15 46  1  0  0  0  0
 15 14  2  0  0  0  0
 16 15  1  0  0  0  0
 17 16  2  0  0  0  0
 17 18  1  0  0  0  0
 18 19  2  0  0  0  0
 19 14  1  0  0  0  0
 19  1  1  0  0  0  0
 20 50  1  0  0  0  0
 21 51  1  0  0  0  0
 21 20  2  0  0  0  0
 22 21  1  0  0  0  0
 23 22  2  0  0  0  0
 23 24  1  0  0  0  0
 24 25  2  0  0  0  0
 25 20  1  0  0  0  0
 25  2  1  0  0  0  0
 26 55  1  0  0  0  0
 26 27  1  0  0  0  0
 27 56  1  0  0  0  0
 28 57  1  0  0  0  0
 28 27  2  0  0  0  0
 29 28  1  0  0  0  0
 30 31  1  0  0  0  0
 30 29  2  0  0  0  0
 31 26  2  0  0  0  0
 34  6  1  0  0  0  0
 35  6  1  0  0  0  0
 37  7  1  0  0  0  0
 38  7  1  0  0  0  0
 39  7  1  0  0  0  0
 40  8  1  0  0  0  0
 44 12  1  0  0  0  0
 47 16  1  0  0  0  0
 48 17  1  0  0  0  0
 49 18  1  0  0  0  0
 52 22  1  0  0  0  0
 53 23  1  0  0  0  0
 54 24  1  0  0  0  0
 58 29  1  0  0  0  0
 59 30  1  0  0  0  0
M  END
