1,2
 OpenBabel05122313063D

 46 49  0  0  0  0  0  0  0  0999 V2000
   -1.1198   -0.6007   -0.0265 P   0  0  0  0  0  0  0  0  0  0  0  0
    0.1119    1.6351   -1.3991 N   0  0  0  0  0  0  0  0  0  0  0  0
    0.9113    1.8176   -2.0254 H   0  0  0  0  0  0  0  0  0  0  0  0
   -1.7641    0.0588   -1.6235 C   0  0  0  0  0  0  0  0  0  0  0  0
   -2.8406   -0.4669   -2.3615 C   0  0  0  0  0  0  0  0  0  0  0  0
   -3.3870   -1.3408   -1.9746 H   0  0  0  0  0  0  0  0  0  0  0  0
   -3.1879    0.0951   -3.5994 C   0  0  0  0  0  0  0  0  0  0  0  0
   -4.0239   -0.3261   -4.1775 H   0  0  0  0  0  0  0  0  0  0  0  0
   -2.4583    1.1821   -4.1087 C   0  0  0  0  0  0  0  0  0  0  0  0
   -2.7261    1.6188   -5.0823 H   0  0  0  0  0  0  0  0  0  0  0  0
   -1.3778    1.7095   -3.3850 C   0  0  0  0  0  0  0  0  0  0  0  0
   -0.7988    2.5591   -3.7777 H   0  0  0  0  0  0  0  0  0  0  0  0
   -1.0270    1.1391   -2.1525 C   0  0  0  0  0  0  0  0  0  0  0  0
   -2.3892   -0.1916    1.2380 C   0  0  0  0  0  0  0  0  0  0  0  0
   -3.6905    0.2539    0.9302 C   0  0  0  0  0  0  0  0  0  0  0  0
   -4.0108    0.3458   -0.1186 H   0  0  0  0  0  0  0  0  0  0  0  0
   -4.5802    0.5944    1.9617 C   0  0  0  0  0  0  0  0  0  0  0  0
   -5.5938    0.9447    1.7135 H   0  0  0  0  0  0  0  0  0  0  0  0
   -4.1791    0.4889    3.3025 C   0  0  0  0  0  0  0  0  0  0  0  0
   -4.8774    0.7585    4.1094 H   0  0  0  0  0  0  0  0  0  0  0  0
   -2.8827    0.0449    3.6122 C   0  0  0  0  0  0  0  0  0  0  0  0
   -2.5609   -0.0328    4.6617 H   0  0  0  0  0  0  0  0  0  0  0  0
   -1.9861   -0.2888    2.5880 C   0  0  0  0  0  0  0  0  0  0  0  0
   -0.9643   -0.6201    2.8274 H   0  0  0  0  0  0  0  0  0  0  0  0
   -1.2348   -2.4188   -0.2310 C   0  0  0  0  0  0  0  0  0  0  0  0
   -2.3896   -3.1429    0.1242 C   0  0  0  0  0  0  0  0  0  0  0  0
   -3.2461   -2.6241    0.5819 H   0  0  0  0  0  0  0  0  0  0  0  0
   -2.4387   -4.5292   -0.0899 C   0  0  0  0  0  0  0  0  0  0  0  0
   -3.3409   -5.0936    0.1912 H   0  0  0  0  0  0  0  0  0  0  0  0
   -1.3367   -5.1944   -0.6503 C   0  0  0  0  0  0  0  0  0  0  0  0
   -1.3746   -6.2827   -0.8108 H   0  0  0  0  0  0  0  0  0  0  0  0
   -0.1804   -4.4738   -0.9919 C   0  0  0  0  0  0  0  0  0  0  0  0
    0.6929   -4.9944   -1.4129 H   0  0  0  0  0  0  0  0  0  0  0  0
   -0.1236   -3.0896   -0.7813 C   0  0  0  0  0  0  0  0  0  0  0  0
    0.7922   -2.5298   -1.0242 H   0  0  0  0  0  0  0  0  0  0  0  0
   -0.1073    2.7803   -0.5335 C   0  0  0  0  0  0  0  0  0  0  0  0
    0.9658    3.6571   -0.2804 C   0  0  0  0  0  0  0  0  0  0  0  0
    1.9393    3.4814   -0.7585 H   0  0  0  0  0  0  0  0  0  0  0  0
    0.7910    4.7249    0.6082 C   0  0  0  0  0  0  0  0  0  0  0  0
    1.6370    5.3991    0.8085 H   0  0  0  0  0  0  0  0  0  0  0  0
   -0.4448    4.9325    1.2428 C   0  0  0  0  0  0  0  0  0  0  0  0
   -0.5737    5.7699    1.9441 H   0  0  0  0  0  0  0  0  0  0  0  0
   -1.5128    4.0643    0.9730 C   0  0  0  0  0  0  0  0  0  0  0  0
   -2.4884    4.2143    1.4593 H   0  0  0  0  0  0  0  0  0  0  0  0
   -1.3533    2.9930    0.0827 C   0  0  0  0  0  0  0  0  0  0  0  0
   -2.1982    2.3240   -0.1244 H   0  0  0  0  0  0  0  0  0  0  0  0
  1 14  1  0  0  0  0
  2 36  1  0  0  0  0
  3  2  1  0  0  0  0
  4  1  1  0  0  0  0
  5  6  1  0  0  0  0
  5  4  2  0  0  0  0
  7  5  1  0  0  0  0
  8  7  1  0  0  0  0
  9  7  2  0  0  0  0
  9 11  1  0  0  0  0
 10  9  1  0  0  0  0
 11 13  2  0  0  0  0
 12 11  1  0  0  0  0
 13  4  1  0  0  0  0
 13  2  1  0  0  0  0
 14 23  1  0  0  0  0
 15 14  2  0  0  0  0
 15 17  1  0  0  0  0
 16 15  1  0  0  0  0
 17 19  2  0  0  0  0
 18 17  1  0  0  0  0
 19 21  1  0  0  0  0
 19 20  1  0  0  0  0
 21 22  1  0  0  0  0
 23 24  1  0  0  0  0
 23 21  2  0  0  0  0
 25  1  1  0  0  0  0
 25 26  1  0  0  0  0
 26 27  1  0  0  0  0
 28 26  2  0  0  0  0
 28 29  1  0  0  0  0
 30 28  1  0  0  0  0
 31 30  1  0  0  0  0
 32 34  1  0  0  0  0
 32 30  2  0  0  0  0
 33 32  1  0  0  0  0
 34 25  2  0  0  0  0
 35 34  1  0  0  0  0
 36 37  2  0  0  0  0
 36 45  1  0  0  0  0
 37 39  1  0  0  0  0
 38 37  1  0  0  0  0
 39 40  1  0  0  0  0
 39 41  2  0  0  0  0
 41 42  1  0  0  0  0
 43 41  1  0  0  0  0
 43 44  1  0  0  0  0
 45 43  2  0  0  0  0
 46 45  1  0  0  0  0
M  END
