1,4
 OpenBabel05122313063D

 38 38  0  0  0  0  0  0  0  0999 V2000
   -0.8200    0.5066   -0.7326 P   0  0  2  0  0  0  0  0  0  0  0  0
   -0.6513    2.1671   -0.7595 O   0  0  0  0  0  0  0  0  0  0  0  0
   -1.3487    0.2100   -2.2699 O   0  0  0  0  0  0  0  0  0  0  0  0
    2.2592    1.2116    0.3055 N   0  0  0  0  0  0  0  0  0  0  0  0
   -2.3204    0.2721   -0.0108 N   0  0  0  0  0  0  0  0  0  0  0  0
    0.6489    2.7093   -0.9989 C   0  0  0  0  0  0  0  0  0  0  0  0
    0.4921    3.7943   -1.1594 H   0  0  0  0  0  0  0  0  0  0  0  0
    1.0923    2.3003   -1.9339 H   0  0  0  0  0  0  0  0  0  0  0  0
    1.5790    2.5288    0.1934 C   0  0  0  0  0  0  0  0  0  0  0  0
    0.9818    2.6864    1.1131 H   0  0  0  0  0  0  0  0  0  0  0  0
    2.3659    3.3181    0.1716 H   0  0  0  0  0  0  0  0  0  0  0  0
    2.7929    1.0862    1.6866 C   0  0  0  0  0  0  0  0  0  0  0  0
    3.3137    0.1149    1.7729 H   0  0  0  0  0  0  0  0  0  0  0  0
    1.9517    1.1095    2.4045 H   0  0  0  0  0  0  0  0  0  0  0  0
    3.4863    1.9306    1.9023 H   0  0  0  0  0  0  0  0  0  0  0  0
    3.3808    1.1355   -0.6663 C   0  0  0  0  0  0  0  0  0  0  0  0
    2.9931    1.2259   -1.6977 H   0  0  0  0  0  0  0  0  0  0  0  0
    3.8656    0.1478   -0.5552 H   0  0  0  0  0  0  0  0  0  0  0  0
    4.1079    1.9566   -0.4704 H   0  0  0  0  0  0  0  0  0  0  0  0
   -2.5961   -0.5122   -2.2414 C   0  0  0  0  0  0  0  0  0  0  0  0
   -2.3736   -1.5963   -2.1566 H   0  0  0  0  0  0  0  0  0  0  0  0
   -3.1286   -0.3011   -3.1891 H   0  0  0  0  0  0  0  0  0  0  0  0
   -3.3565   -0.0102   -1.0091 C   0  0  0  0  0  0  0  0  0  0  0  0
   -4.0504   -0.7934   -0.6417 H   0  0  0  0  0  0  0  0  0  0  0  0
   -3.9535    0.9017   -1.2408 H   0  0  0  0  0  0  0  0  0  0  0  0
   -2.6070    0.1410    1.4417 C   0  0  0  0  0  0  0  0  0  0  0  0
   -2.8455   -1.3378    1.8000 C   0  0  0  0  0  0  0  0  0  0  0  0
   -3.7378   -1.7420    1.2800 H   0  0  0  0  0  0  0  0  0  0  0  0
   -3.0199   -1.4506    2.8888 H   0  0  0  0  0  0  0  0  0  0  0  0
   -1.9693   -1.9459    1.5002 H   0  0  0  0  0  0  0  0  0  0  0  0
   -3.8472    0.9946    1.7680 C   0  0  0  0  0  0  0  0  0  0  0  0
   -3.6769    2.0535    1.4874 H   0  0  0  0  0  0  0  0  0  0  0  0
   -4.0664    0.9481    2.8532 H   0  0  0  0  0  0  0  0  0  0  0  0
   -4.7474    0.6331    1.2325 H   0  0  0  0  0  0  0  0  0  0  0  0
   -1.4134    0.6762    2.2496 C   0  0  0  0  0  0  0  0  0  0  0  0
   -1.6494    0.6327    3.3306 H   0  0  0  0  0  0  0  0  0  0  0  0
   -1.1953    1.7297    1.9822 H   0  0  0  0  0  0  0  0  0  0  0  0
   -0.5039    0.0629    2.0764 H   0  0  0  0  0  0  0  0  0  0  0  0
  1  2  1  6  0  0  0
  1  5  1  0  0  0  0
  3 20  1  0  0  0  0
  3  1  1  0  0  0  0
  4 12  1  0  0  0  0
  5 26  1  0  0  0  0
  6  2  1  0  0  0  0
  6  9  1  0  0  0  0
  7  6  1  0  0  0  0
  8  6  1  0  0  0  0
  9  4  1  0  0  0  0
  9 10  1  0  0  0  0
 11  9  1  0  0  0  0
 12 13  1  0  0  0  0
 12 15  1  0  0  0  0
 12 14  1  0  0  0  0
 16 18  1  0  0  0  0
 16 19  1  0  0  0  0
 16  4  1  0  0  0  0
 17 16  1  0  0  0  0
 20 21  1  0  0  0  0
 20 23  1  0  0  0  0
 22 20  1  0  0  0  0
 23 24  1  0  0  0  0
 23  5  1  0  0  0  0
 25 23  1  0  0  0  0
 26 31  1  0  0  0  0
 26 27  1  0  0  0  0
 26 35  1  0  0  0  0
 27 29  1  0  0  0  0
 28 27  1  0  0  0  0
 30 27  1  0  0  0  0
 31 33  1  0  0  0  0
 32 31  1  0  0  0  0
 34 31  1  0  0  0  0
 35 36  1  0  0  0  0
 37 35  1  0  0  0  0
 38 35  1  0  0  0  0
M  END
