1,54
 OpenBabel05122313063D

 69 72  0  0  1  0  0  0  0  0999 V2000
   -0.3600    0.0252   -0.1213 P   0  0  0  0  0  0  0  0  0  0  0  0
   -1.7761   -1.0354   -0.5755 C   0  0  0  0  0  0  0  0  0  0  0  0
   -3.1037   -0.6331   -0.3382 C   0  0  0  0  0  0  0  0  0  0  0  0
   -3.3152    0.3686    0.0652 H   0  0  0  0  0  0  0  0  0  0  0  0
   -4.1713   -1.5154   -0.5909 C   0  0  0  0  0  0  0  0  0  0  0  0
   -3.8759   -2.8000   -1.0851 C   0  0  0  0  0  0  0  0  0  0  0  0
   -4.7064   -3.4971   -1.2855 H   0  0  0  0  0  0  0  0  0  0  0  0
   -2.5550   -3.2227   -1.3379 C   0  0  0  0  0  0  0  0  0  0  0  0
   -1.5048   -2.3238   -1.0748 C   0  0  0  0  0  0  0  0  0  0  0  0
   -0.4620   -2.6089   -1.2880 H   0  0  0  0  0  0  0  0  0  0  0  0
   -5.5873   -1.0868   -0.2995 C   0  0  0  0  0  0  0  0  0  0  0  0
   -6.3210   -1.8609   -0.5959 H   0  0  0  0  0  0  0  0  0  0  0  0
   -5.8432   -0.1487   -0.8340 H   0  0  0  0  0  0  0  0  0  0  0  0
   -5.7191   -0.8829    0.7842 H   0  0  0  0  0  0  0  0  0  0  0  0
   -2.2680   -4.5832   -1.9207 C   0  0  0  0  0  0  0  0  0  0  0  0
   -1.3326   -5.0130   -1.5110 H   0  0  0  0  0  0  0  0  0  0  0  0
   -2.1327   -4.5157   -3.0213 H   0  0  0  0  0  0  0  0  0  0  0  0
   -3.0946   -5.2952   -1.7302 H   0  0  0  0  0  0  0  0  0  0  0  0
   -0.8090    1.7610   -0.4645 C   0  0  0  0  0  0  0  0  0  0  0  0
   -1.6700    2.0695   -1.5303 C   0  0  0  0  0  0  0  0  0  0  0  0
   -2.1313    1.2578   -2.1108 H   0  0  0  0  0  0  0  0  0  0  0  0
   -1.9200    3.4118   -1.8832 C   0  0  0  0  0  0  0  0  0  0  0  0
   -1.2840    4.4291   -1.1518 C   0  0  0  0  0  0  0  0  0  0  0  0
   -1.4743    5.4808   -1.4226 H   0  0  0  0  0  0  0  0  0  0  0  0
   -0.3925    4.1454   -0.0951 C   0  0  0  0  0  0  0  0  0  0  0  0
   -0.1584    2.8008    0.2342 C   0  0  0  0  0  0  0  0  0  0  0  0
    0.5610    2.5715    1.0363 H   0  0  0  0  0  0  0  0  0  0  0  0
   -2.8306    3.7268   -3.0426 C   0  0  0  0  0  0  0  0  0  0  0  0
   -2.3895    3.3659   -3.9954 H   0  0  0  0  0  0  0  0  0  0  0  0
   -3.0103    4.8146   -3.1413 H   0  0  0  0  0  0  0  0  0  0  0  0
   -3.8126    3.2223   -2.9341 H   0  0  0  0  0  0  0  0  0  0  0  0
    0.2960    5.2630    0.6478 C   0  0  0  0  0  0  0  0  0  0  0  0
   -0.4383    5.9281    1.1486 H   0  0  0  0  0  0  0  0  0  0  0  0
    0.8856    5.8995   -0.0439 H   0  0  0  0  0  0  0  0  0  0  0  0
    0.9866    4.8756    1.4217 H   0  0  0  0  0  0  0  0  0  0  0  0
   -0.3174   -0.1091    1.7804 C   0  0  1  0  0  0  0  0  0  0  0  0
    0.2928    0.7608    2.0986 H   0  0  0  0  0  0  0  0  0  0  0  0
   -1.6885    0.0040    2.4008 C   0  0  0  0  0  0  0  0  0  0  0  0
   -2.4817   -1.1346    2.6559 C   0  0  0  0  0  0  0  0  0  0  0  0
   -2.0985   -2.1383    2.4217 H   0  0  0  0  0  0  0  0  0  0  0  0
   -3.7757   -1.0057    3.1810 C   0  0  0  0  0  0  0  0  0  0  0  0
   -4.3764   -1.9081    3.3708 H   0  0  0  0  0  0  0  0  0  0  0  0
   -4.3065    0.2650    3.4511 C   0  0  0  0  0  0  0  0  0  0  0  0
   -5.3234    0.3663    3.8594 H   0  0  0  0  0  0  0  0  0  0  0  0
   -3.5271    1.4062    3.2013 C   0  0  0  0  0  0  0  0  0  0  0  0
   -3.9298    2.4081    3.4139 H   0  0  0  0  0  0  0  0  0  0  0  0
   -2.2296    1.2761    2.6867 C   0  0  0  0  0  0  0  0  0  0  0  0
   -1.6290    2.1761    2.4878 H   0  0  0  0  0  0  0  0  0  0  0  0
    0.4450   -1.3975    2.1592 C   0  0  0  0  0  0  0  0  0  0  0  0
    0.2953   -1.6261    3.2319 H   0  0  0  0  0  0  0  0  0  0  0  0
    0.0595   -2.2666    1.5825 H   0  0  0  0  0  0  0  0  0  0  0  0
    1.9136   -1.2725    1.9174 C   0  0  2  0  0  3  0  0  0  0  0  0
    2.7308   -1.5784    2.9400 O   0  0  0  0  0  0  0  0  0  0  0  0
    2.4867   -0.8525    0.8317 N   0  0  0  0  0  2  0  0  0  0  0  0
    3.9385   -0.6980    1.0958 C   0  0  2  0  0  0  0  0  0  0  0  0
    4.4752   -1.1593    0.2405 H   0  0  0  0  0  0  0  0  0  0  0  0
    4.0897   -1.4942    2.4068 C   0  0  0  0  0  0  0  0  0  0  0  0
    4.4480   -2.5326    2.2506 H   0  0  0  0  0  0  0  0  0  0  0  0
    4.7171   -0.9975    3.1702 H   0  0  0  0  0  0  0  0  0  0  0  0
    4.3565    0.7883    1.2203 C   0  0  0  0  0  0  0  0  0  0  0  0
    3.8811    1.1827    2.1507 H   0  0  0  0  0  0  0  0  0  0  0  0
    3.8942    1.6427    0.0346 C   0  0  0  0  0  0  0  0  0  0  0  0
    4.2632    1.2208   -0.9222 H   0  0  0  0  0  0  0  0  0  0  0  0
    4.2716    2.6804    0.1389 H   0  0  0  0  0  0  0  0  0  0  0  0
    2.7893    1.6859   -0.0437 H   0  0  0  0  0  0  0  0  0  0  0  0
    5.8811    0.8707    1.3785 C   0  0  0  0  0  0  0  0  0  0  0  0
    6.2595    0.2722    2.2328 H   0  0  0  0  0  0  0  0  0  0  0  0
    6.2022    1.9186    1.5417 H   0  0  0  0  0  0  0  0  0  0  0  0
    6.3834    0.5033    0.4595 H   0  0  0  0  0  0  0  0  0  0  0  0
  1 36  1  0  0  0  0
  2  3  1  0  0  0  0
  2  1  1  0  0  0  0
  3  4  1  0  0  0  0
  5  3  2  0  0  0  0
  5 11  1  0  0  0  0
  6  5  1  0  0  0  0
  7  6  1  0  0  0  0
  8  6  2  0  0  0  0
  8  9  1  0  0  0  0
  9  2  2  0  0  0  0
 10  9  1  0  0  0  0
 11 14  1  0  0  0  0
 12 11  1  0  0  0  0
 13 11  1  0  0  0  0
 15 18  1  0  0  0  0
 15 16  1  0  0  0  0
 15  8  1  0  0  0  0
 17 15  1  0  0  0  0
 19  1  1  0  0  0  0
 19 26  1  0  0  0  0
 20 19  2  0  0  0  0
 21 20  1  0  0  0  0
 22 20  1  0  0  0  0
 22 23  2  0  0  0  0
 23 25  1  0  0  0  0
 24 23  1  0  0  0  0
 25 26  2  0  0  0  0
 25 32  1  0  0  0  0
 26 27  1  0  0  0  0
 28 31  1  0  0  0  0
 28 22  1  0  0  0  0
 29 28  1  0  0  0  0
 30 28  1  0  0  0  0
 32 33  1  0  0  0  0
 32 35  1  0  0  0  0
 34 32  1  0  0  0  0
 36 37  1  1  0  0  0
 36 49  1  0  0  0  0
 36 38  1  0  0  0  0
 38 39  2  0  0  0  0
 38 47  1  0  0  0  0
 39 41  1  0  0  0  0
 40 39  1  0  0  0  0
 41 42  1  0  0  0  0
 41 43  2  0  0  0  0
 43 44  1  0  0  0  0
 45 46  1  0  0  0  0
 45 43  1  0  0  0  0
 47 45  2  0  0  0  0
 48 47  1  0  0  0  0
 49 50  1  0  0  0  0
 51 49  1  0  0  0  0
 52 49  1  1  0  0  0
 52 53  1  0  0  0  0
 54 55  1  0  0  0  0
 54 52  1  0  0  0  0
 55 56  1  6  0  0  0
 55 60  1  0  0  0  0
 55 57  1  0  0  0  0
 57 53  1  0  0  0  0
 57 59  1  0  0  0  0
 58 57  1  0  0  0  0
 60 66  1  0  0  0  0
 60 61  1  0  0  0  0
 62 64  1  0  0  0  0
 62 60  1  0  0  0  0
 63 62  1  0  0  0  0
 65 62  1  0  0  0  0
 66 68  1  0  0  0  0
 66 67  1  0  0  0  0
 69 66  1  0  0  0  0
M  END
