1,3
 OpenBabel05122313063D

 71 77  0  0  1  0  0  0  0  0999 V2000
    2.0490   -0.0437    0.2771 P   0  0  0  0  0  0  0  0  0  0  0  0
   -2.1829   -0.3668    1.4318 O   0  0  0  0  0  0  0  0  0  0  0  0
   -0.8253   -1.2766   -0.2262 N   0  0  1  0  0  0  0  0  0  0  0  0
   -0.6785   -2.7556    0.0409 C   0  0  0  0  0  0  0  0  0  0  0  0
   -1.6576   -3.4087   -0.9233 C   0  0  0  0  0  0  0  0  0  0  0  0
   -2.8724   -2.4899   -0.7748 C   0  0  0  0  0  0  0  0  0  0  0  0
   -2.2436   -1.0909   -0.7767 C   0  0  1  0  0  0  0  0  0  0  0  0
   -2.8705   -0.0473    0.1852 C   0  0  0  0  0  0  0  0  0  0  0  0
   -0.8425   -0.4176    1.0341 C   0  0  2  0  0  0  0  0  0  0  0  0
    0.0925   -0.9051    2.1008 C   0  0  0  0  0  0  0  0  0  0  0  0
   -0.3792   -1.4462    3.3056 C   0  0  0  0  0  0  0  0  0  0  0  0
    0.5269   -1.9182    4.2684 C   0  0  0  0  0  0  0  0  0  0  0  0
    1.9066   -1.8573    4.0225 C   0  0  0  0  0  0  0  0  0  0  0  0
    2.3862   -1.3072    2.8227 C   0  0  0  0  0  0  0  0  0  0  0  0
    1.4867   -0.8140    1.8596 C   0  0  0  0  0  0  0  0  0  0  0  0
   -2.5313    1.4076   -0.1860 C   0  0  0  0  0  0  0  0  0  0  0  0
   -1.8677    1.7802   -1.3706 C   0  0  0  0  0  0  0  0  0  0  0  0
   -1.5051    3.1215   -1.5846 C   0  0  0  0  0  0  0  0  0  0  0  0
   -1.8017    4.0991   -0.6266 C   0  0  0  0  0  0  0  0  0  0  0  0
   -2.4752    3.7351    0.5524 C   0  0  0  0  0  0  0  0  0  0  0  0
   -2.8384    2.4008    0.7682 C   0  0  0  0  0  0  0  0  0  0  0  0
   -4.3643   -0.2284    0.3710 C   0  0  0  0  0  0  0  0  0  0  0  0
   -5.2274    0.1013   -0.6925 C   0  0  0  0  0  0  0  0  0  0  0  0
   -6.6100   -0.0861   -0.5664 C   0  0  0  0  0  0  0  0  0  0  0  0
   -7.1475   -0.5928    0.6289 C   0  0  0  0  0  0  0  0  0  0  0  0
   -6.2923   -0.9125    1.6934 C   0  0  0  0  0  0  0  0  0  0  0  0
   -4.9046   -0.7361    1.5653 C   0  0  0  0  0  0  0  0  0  0  0  0
    3.8378   -0.4152    0.2356 C   0  0  0  0  0  0  0  0  0  0  0  0
    4.2615   -1.6226   -0.3548 C   0  0  0  0  0  0  0  0  0  0  0  0
    5.6184   -1.9699   -0.3311 C   0  0  0  0  0  0  0  0  0  0  0  0
    6.5564   -1.1115    0.2677 C   0  0  0  0  0  0  0  0  0  0  0  0
    6.1357    0.0965    0.8449 C   0  0  0  0  0  0  0  0  0  0  0  0
    4.7764    0.4477    0.8322 C   0  0  0  0  0  0  0  0  0  0  0  0
    1.8990    1.7635    0.5943 C   0  0  0  0  0  0  0  0  0  0  0  0
    1.5504    2.2768    1.8602 C   0  0  0  0  0  0  0  0  0  0  0  0
    1.4008    3.6613    2.0364 C   0  0  0  0  0  0  0  0  0  0  0  0
    1.6081    4.5357    0.9591 C   0  0  0  0  0  0  0  0  0  0  0  0
    1.9632    4.0243   -0.3002 C   0  0  0  0  0  0  0  0  0  0  0  0
    2.1011    2.6435   -0.4917 C   0  0  0  0  0  0  0  0  0  0  0  0
   -0.5264    0.5953    0.6982 H   0  0  0  0  0  0  0  0  0  0  0  0
   -2.1604   -0.7350   -1.8178 H   0  0  0  0  0  0  0  0  0  0  0  0
    0.3785   -3.0534   -0.0870 H   0  0  0  0  0  0  0  0  0  0  0  0
   -0.9781   -2.9674    1.0888 H   0  0  0  0  0  0  0  0  0  0  0  0
   -1.2613   -3.3571   -1.9578 H   0  0  0  0  0  0  0  0  0  0  0  0
   -1.8620   -4.4644   -0.6590 H   0  0  0  0  0  0  0  0  0  0  0  0
   -3.6152   -2.5937   -1.5880 H   0  0  0  0  0  0  0  0  0  0  0  0
   -3.3910   -2.6857    0.1863 H   0  0  0  0  0  0  0  0  0  0  0  0
   -1.5927    1.0363   -2.1347 H   0  0  0  0  0  0  0  0  0  0  0  0
   -0.9688    3.3887   -2.5074 H   0  0  0  0  0  0  0  0  0  0  0  0
   -1.5046    5.1457   -0.7930 H   0  0  0  0  0  0  0  0  0  0  0  0
   -2.7151    4.4970    1.3097 H   0  0  0  0  0  0  0  0  0  0  0  0
   -3.3540    2.1100    1.6959 H   0  0  0  0  0  0  0  0  0  0  0  0
   -4.8087    0.5160   -1.6225 H   0  0  0  0  0  0  0  0  0  0  0  0
   -7.2741    0.1720   -1.4051 H   0  0  0  0  0  0  0  0  0  0  0  0
   -8.2343   -0.7338    0.7302 H   0  0  0  0  0  0  0  0  0  0  0  0
   -6.7064   -1.3046    2.6349 H   0  0  0  0  0  0  0  0  0  0  0  0
   -4.2291   -0.9877    2.3942 H   0  0  0  0  0  0  0  0  0  0  0  0
    3.5248   -2.2721   -0.8513 H   0  0  0  0  0  0  0  0  0  0  0  0
    5.9487   -2.9098   -0.7983 H   0  0  0  0  0  0  0  0  0  0  0  0
    7.6231   -1.3823    0.2751 H   0  0  0  0  0  0  0  0  0  0  0  0
    6.8699    0.7750    1.3052 H   0  0  0  0  0  0  0  0  0  0  0  0
    4.4441    1.3967    1.2796 H   0  0  0  0  0  0  0  0  0  0  0  0
    1.3894    1.5959    2.7091 H   0  0  0  0  0  0  0  0  0  0  0  0
    1.1188    4.0562    3.0242 H   0  0  0  0  0  0  0  0  0  0  0  0
    1.4869    5.6206    1.1001 H   0  0  0  0  0  0  0  0  0  0  0  0
    2.1209    4.7063   -1.1495 H   0  0  0  0  0  0  0  0  0  0  0  0
    2.3533    2.2270   -1.4813 H   0  0  0  0  0  0  0  0  0  0  0  0
   -1.4642   -1.4910    3.4763 H   0  0  0  0  0  0  0  0  0  0  0  0
    0.1520   -2.3402    5.2130 H   0  0  0  0  0  0  0  0  0  0  0  0
    2.6196   -2.2334    4.7715 H   0  0  0  0  0  0  0  0  0  0  0  0
    3.4684   -1.2517    2.6351 H   0  0  0  0  0  0  0  0  0  0  0  0
  1 34  1  0  0  0  0
  1 15  1  0  0  0  0
  3  4  1  1  0  0  0
  3  9  1  0  0  0  0
  4 43  1  0  0  0  0
  5  6  1  0  0  0  0
  5 45  1  0  0  0  0
  5  4  1  0  0  0  0
  6 47  1  0  0  0  0
  7 41  1  6  0  0  0
  7  6  1  0  0  0  0
  7  3  1  0  0  0  0
  7  8  1  0  0  0  0
  8 22  1  0  0  0  0
  8  2  1  0  0  0  0
  9 40  1  6  0  0  0
  9  2  1  0  0  0  0
  9 10  1  0  0  0  0
 10 11  1  0  0  0  0
 11 68  1  0  0  0  0
 11 12  2  0  0  0  0
 12 69  1  0  0  0  0
 13 12  1  0  0  0  0
 13 70  1  0  0  0  0
 14 13  2  0  0  0  0
 15 10  2  0  0  0  0
 15 14  1  0  0  0  0
 16  8  1  0  0  0  0
 16 21  1  0  0  0  0
 17 16  2  0  0  0  0
 18 17  1  0  0  0  0
 18 19  2  0  0  0  0
 19 20  1  0  0  0  0
 20 21  2  0  0  0  0
 20 51  1  0  0  0  0
 21 52  1  0  0  0  0
 22 27  1  0  0  0  0
 23 24  1  0  0  0  0
 23 22  2  0  0  0  0
 24 25  2  0  0  0  0
 25 55  1  0  0  0  0
 25 26  1  0  0  0  0
 26 56  1  0  0  0  0
 27 26  2  0  0  0  0
 27 57  1  0  0  0  0
 28  1  1  0  0  0  0
 28 33  1  0  0  0  0
 29 30  1  0  0  0  0
 29 28  2  0  0  0  0
 30 31  2  0  0  0  0
 31 60  1  0  0  0  0
 31 32  1  0  0  0  0
 32 61  1  0  0  0  0
 33 32  2  0  0  0  0
 33 62  1  0  0  0  0
 34 35  1  0  0  0  0
 35 36  2  0  0  0  0
 35 63  1  0  0  0  0
 36 64  1  0  0  0  0
 37 65  1  0  0  0  0
 37 36  1  0  0  0  0
 38 37  2  0  0  0  0
 39 38  1  0  0  0  0
 39 34  2  0  0  0  0
 42  4  1  0  0  0  0
 44  5  1  0  0  0  0
 46  6  1  0  0  0  0
 48 17  1  0  0  0  0
 49 18  1  0  0  0  0
 50 19  1  0  0  0  0
 53 23  1  0  0  0  0
 54 24  1  0  0  0  0
 58 29  1  0  0  0  0
 59 30  1  0  0  0  0
 66 38  1  0  0  0  0
 67 39  1  0  0  0  0
 71 14  1  0  0  0  0
M  END
