1,2
 OpenBabel05122313063D

 55 57  0  0  1  0  0  0  0  0999 V2000
   -1.2082    0.5924    0.2836 P   0  0  0  0  0  0  0  0  0  0  0  0
    1.5657   -0.4079    0.2582 N   0  0  0  0  0  2  0  0  0  0  0  0
    1.7802    0.3757    1.3523 N   0  0  0  0  0  0  0  0  0  0  0  0
    2.6306   -0.2533   -0.5580 C   0  0  1  0  0  3  0  0  0  0  0  0
    3.5389    0.6534    0.0413 C   0  0  0  0  0  0  0  0  0  0  0  0
    4.4988    0.9831   -0.3663 H   0  0  0  0  0  0  0  0  0  0  0  0
    2.9684    1.0489    1.2536 C   0  0  0  0  0  0  0  0  0  0  0  0
    0.7244    0.5057    2.3456 C   0  0  0  0  0  0  0  0  0  0  0  0
    1.1690    0.9516    3.2553 H   0  0  0  0  0  0  0  0  0  0  0  0
    0.3782   -0.5212    2.5875 H   0  0  0  0  0  0  0  0  0  0  0  0
   -0.4566    1.3462    1.8449 C   0  0  0  0  0  0  0  0  0  0  0  0
   -0.1469    2.3934    1.6547 H   0  0  0  0  0  0  0  0  0  0  0  0
   -1.2474    1.3590    2.6210 H   0  0  0  0  0  0  0  0  0  0  0  0
    2.7508   -0.9694   -1.8762 C   0  0  0  0  0  0  0  0  0  0  0  0
    1.7569   -1.4283   -2.0687 H   0  0  0  0  0  0  0  0  0  0  0  0
    3.0828    0.0160   -3.0080 C   0  0  0  0  0  0  0  0  0  0  0  0
    2.3442    0.8400   -3.0636 H   0  0  0  0  0  0  0  0  0  0  0  0
    3.0931   -0.5097   -3.9841 H   0  0  0  0  0  0  0  0  0  0  0  0
    4.0862    0.4702   -2.8670 H   0  0  0  0  0  0  0  0  0  0  0  0
    3.7803   -2.1089   -1.7889 C   0  0  0  0  0  0  0  0  0  0  0  0
    4.7876   -1.7209   -1.5283 H   0  0  0  0  0  0  0  0  0  0  0  0
    3.8563   -2.6309   -2.7646 H   0  0  0  0  0  0  0  0  0  0  0  0
    3.4638   -2.8459   -1.0265 H   0  0  0  0  0  0  0  0  0  0  0  0
    3.4905    1.9581    2.3360 C   0  0  0  0  0  0  0  0  0  0  0  0
    2.6306    2.5462    2.7290 H   0  0  0  0  0  0  0  0  0  0  0  0
    4.5138    2.9537    1.7749 C   0  0  0  0  0  0  0  0  0  0  0  0
    5.4175    2.4275    1.4050 H   0  0  0  0  0  0  0  0  0  0  0  0
    4.8412    3.6585    2.5646 H   0  0  0  0  0  0  0  0  0  0  0  0
    4.0932    3.5410    0.9353 H   0  0  0  0  0  0  0  0  0  0  0  0
    4.0865    1.1450    3.5029 C   0  0  0  0  0  0  0  0  0  0  0  0
    3.3523    0.4353    3.9338 H   0  0  0  0  0  0  0  0  0  0  0  0
    4.4311    1.8178    4.3141 H   0  0  0  0  0  0  0  0  0  0  0  0
    4.9545    0.5506    3.1528 H   0  0  0  0  0  0  0  0  0  0  0  0
   -0.8612    1.8604   -1.0126 C   0  0  0  0  0  0  0  0  0  0  0  0
   -0.4429    1.4010   -2.2765 C   0  0  0  0  0  0  0  0  0  0  0  0
   -0.3331    0.3134   -2.4252 H   0  0  0  0  0  0  0  0  0  0  0  0
   -0.1640    2.3154   -3.3045 C   0  0  0  0  0  0  0  0  0  0  0  0
    0.1626    1.9475   -4.2891 H   0  0  0  0  0  0  0  0  0  0  0  0
   -0.2965    3.6937   -3.0754 C   0  0  0  0  0  0  0  0  0  0  0  0
   -0.0733    4.4110   -3.8799 H   0  0  0  0  0  0  0  0  0  0  0  0
   -0.7160    4.1588   -1.8174 C   0  0  0  0  0  0  0  0  0  0  0  0
   -0.8253    5.2391   -1.6367 H   0  0  0  0  0  0  0  0  0  0  0  0
   -0.9996    3.2469   -0.7900 C   0  0  0  0  0  0  0  0  0  0  0  0
   -1.3437    3.6222    0.1869 H   0  0  0  0  0  0  0  0  0  0  0  0
   -3.0180    0.7314    0.5894 C   0  0  0  0  0  0  0  0  0  0  0  0
   -3.8696    1.5426   -0.1841 C   0  0  0  0  0  0  0  0  0  0  0  0
   -3.4574    2.1541   -0.9999 H   0  0  0  0  0  0  0  0  0  0  0  0
   -5.2489    1.5655    0.0795 C   0  0  0  0  0  0  0  0  0  0  0  0
   -5.9085    2.1989   -0.5330 H   0  0  0  0  0  0  0  0  0  0  0  0
   -5.7853    0.7831    1.1127 C   0  0  0  0  0  0  0  0  0  0  0  0
   -6.8669    0.8020    1.3149 H   0  0  0  0  0  0  0  0  0  0  0  0
   -4.9401   -0.0365    1.8796 C   0  0  0  0  0  0  0  0  0  0  0  0
   -5.3572   -0.6663    2.6798 H   0  0  0  0  0  0  0  0  0  0  0  0
   -3.5649   -0.0696    1.6150 C   0  0  0  0  0  0  0  0  0  0  0  0
   -2.9073   -0.7422    2.1895 H   0  0  0  0  0  0  0  0  0  0  0  0
  1 45  1  0  0  0  0
  1 11  1  0  0  0  0
  2  3  1  0  0  0  0
  3  8  1  0  0  0  0
  4 14  1  1  0  0  0
  4  5  1  0  0  0  0
  4  2  1  0  0  0  0
  5  7  2  0  0  0  0
  6  5  1  0  0  0  0
  7  3  1  0  0  0  0
  7 24  1  0  0  0  0
  8 10  1  0  0  0  0
  8  9  1  0  0  0  0
 11  8  1  0  0  0  0
 11 13  1  0  0  0  0
 12 11  1  0  0  0  0
 14 20  1  0  0  0  0
 15 14  1  0  0  0  0
 16 19  1  0  0  0  0
 16 14  1  0  0  0  0
 17 16  1  0  0  0  0
 18 16  1  0  0  0  0
 20 21  1  0  0  0  0
 20 23  1  0  0  0  0
 22 20  1  0  0  0  0
 24 25  1  0  0  0  0
 24 30  1  0  0  0  0
 26 24  1  0  0  0  0
 26 28  1  0  0  0  0
 27 26  1  0  0  0  0
 29 26  1  0  0  0  0
 30 31  1  0  0  0  0
 30 32  1  0  0  0  0
 33 30  1  0  0  0  0
 34 43  1  0  0  0  0
 34  1  1  0  0  0  0
 35 34  2  0  0  0  0
 36 35  1  0  0  0  0
 37 39  2  0  0  0  0
 37 35  1  0  0  0  0
 38 37  1  0  0  0  0
 39 41  1  0  0  0  0
 40 39  1  0  0  0  0
 41 42  1  0  0  0  0
 41 43  2  0  0  0  0
 43 44  1  0  0  0  0
 45 54  1  0  0  0  0
 46 48  1  0  0  0  0
 46 45  2  0  0  0  0
 47 46  1  0  0  0  0
 48 50  2  0  0  0  0
 49 48  1  0  0  0  0
 50 51  1  0  0  0  0
 50 52  1  0  0  0  0
 52 53  1  0  0  0  0
 54 52  2  0  0  0  0
 54 55  1  0  0  0  0
M  END
