1,3
 OpenBabel05122313063D

 55 58  0  0  0  0  0  0  0  0999 V2000
    1.4960   -0.1139   -0.1429 P   0  0  0  0  0  0  0  0  0  0  0  0
   -5.1950   -2.0994   -1.0941 S   0  0  0  0  0  0  0  0  0  0  0  0
   -1.1238   -0.9808    0.5240 N   0  0  0  0  0  2  0  0  0  0  0  0
   -2.2131   -1.5500    0.9645 N   0  0  0  0  0  2  0  0  0  0  0  0
   -2.6650   -2.3140   -0.0431 N   0  0  0  0  0  0  0  0  0  0  0  0
    3.2058   -1.8749   -1.9265 O   0  0  0  0  0  0  0  0  0  0  0  0
    0.4824    2.3161   -1.2093 O   0  0  0  0  0  0  0  0  0  0  0  0
    0.3542   -0.8033   -1.4684 C   0  0  0  0  0  0  0  0  0  0  0  0
    0.0684    0.0803   -2.0761 H   0  0  0  0  0  0  0  0  0  0  0  0
    0.8778   -1.5322   -2.1137 H   0  0  0  0  0  0  0  0  0  0  0  0
   -1.8585   -2.2294   -1.1481 C   0  0  0  0  0  0  0  0  0  0  0  0
   -2.0923   -2.7395   -2.0863 H   0  0  0  0  0  0  0  0  0  0  0  0
   -0.8407   -1.3663   -0.7763 C   0  0  0  0  0  0  0  0  0  0  0  0
   -4.0010   -2.8619    0.0785 C   0  0  0  0  0  0  0  0  0  0  0  0
   -4.2912   -2.7137    1.1358 H   0  0  0  0  0  0  0  0  0  0  0  0
   -4.0133   -3.9449   -0.1546 H   0  0  0  0  0  0  0  0  0  0  0  0
   -4.7749   -0.3632   -0.9701 C   0  0  0  0  0  0  0  0  0  0  0  0
   -4.4386    0.2724    0.2412 C   0  0  0  0  0  0  0  0  0  0  0  0
   -4.4128   -0.2717    1.1944 H   0  0  0  0  0  0  0  0  0  0  0  0
   -4.0664    1.6256    0.2374 C   0  0  0  0  0  0  0  0  0  0  0  0
   -3.7231    2.0729    1.1827 H   0  0  0  0  0  0  0  0  0  0  0  0
   -4.0936    2.3638   -0.9558 C   0  0  0  0  0  0  0  0  0  0  0  0
   -3.8206    3.4300   -0.9506 H   0  0  0  0  0  0  0  0  0  0  0  0
   -4.4642    1.7382   -2.1583 C   0  0  0  0  0  0  0  0  0  0  0  0
   -4.4826    2.3096   -3.0990 H   0  0  0  0  0  0  0  0  0  0  0  0
   -4.7810    0.3730   -2.1744 C   0  0  0  0  0  0  0  0  0  0  0  0
   -5.0243   -0.1334   -3.1210 H   0  0  0  0  0  0  0  0  0  0  0  0
    2.6241   -1.4707    0.3302 C   0  0  0  0  0  0  0  0  0  0  0  0
    3.3694   -2.2224   -0.6182 C   0  0  0  0  0  0  0  0  0  0  0  0
    4.2225   -3.2535   -0.1801 C   0  0  0  0  0  0  0  0  0  0  0  0
    4.8034   -3.8443   -0.9006 H   0  0  0  0  0  0  0  0  0  0  0  0
    4.3319   -3.5308    1.1927 C   0  0  0  0  0  0  0  0  0  0  0  0
    5.0025   -4.3396    1.5213 H   0  0  0  0  0  0  0  0  0  0  0  0
    3.6040   -2.7940    2.1366 C   0  0  0  0  0  0  0  0  0  0  0  0
    3.6968   -3.0124    3.2100 H   0  0  0  0  0  0  0  0  0  0  0  0
    2.7524   -1.7680    1.6999 C   0  0  0  0  0  0  0  0  0  0  0  0
    2.1712   -1.1689    2.4199 H   0  0  0  0  0  0  0  0  0  0  0  0
    2.5178    1.1782   -0.9097 C   0  0  0  0  0  0  0  0  0  0  0  0
    1.8396    2.3730   -1.2631 C   0  0  0  0  0  0  0  0  0  0  0  0
    2.5703    3.5102   -1.6497 C   0  0  0  0  0  0  0  0  0  0  0  0
    2.0474    4.4434   -1.8999 H   0  0  0  0  0  0  0  0  0  0  0  0
    3.9698    3.4422   -1.7128 C   0  0  0  0  0  0  0  0  0  0  0  0
    4.5380    4.3335   -2.0197 H   0  0  0  0  0  0  0  0  0  0  0  0
    4.6486    2.2590   -1.3795 C   0  0  0  0  0  0  0  0  0  0  0  0
    5.7469    2.2195   -1.4180 H   0  0  0  0  0  0  0  0  0  0  0  0
    4.0152   -2.4982   -2.9096 C   0  0  0  0  0  0  0  0  0  0  0  0
    3.7529   -2.0233   -3.8726 H   0  0  0  0  0  0  0  0  0  0  0  0
    3.8187   -3.5912   -2.9763 H   0  0  0  0  0  0  0  0  0  0  0  0
    5.0969   -2.3378   -2.7078 H   0  0  0  0  0  0  0  0  0  0  0  0
    3.9212    1.1338   -0.9656 C   0  0  0  0  0  0  0  0  0  0  0  0
    4.4484    0.2226   -0.6481 H   0  0  0  0  0  0  0  0  0  0  0  0
   -0.2376    3.4778   -0.7908 C   0  0  0  0  0  0  0  0  0  0  0  0
   -1.2749    3.1390   -0.6151 H   0  0  0  0  0  0  0  0  0  0  0  0
   -0.2338    4.2668   -1.5738 H   0  0  0  0  0  0  0  0  0  0  0  0
    0.1856    3.8572    0.1621 H   0  0  0  0  0  0  0  0  0  0  0  0
  1 28  1  0  0  0  0
  2 17  1  0  0  0  0
  2 14  1  0  0  0  0
  3  4  1  0  0  0  0
  5 14  1  0  0  0  0
  5  4  1  0  0  0  0
  6 29  1  0  0  0  0
  7 52  1  0  0  0  0
  8 13  1  0  0  0  0
  8  1  1  0  0  0  0
  9  8  1  0  0  0  0
 10  8  1  0  0  0  0
 11 13  2  0  0  0  0
 11  5  1  0  0  0  0
 12 11  1  0  0  0  0
 13  3  1  0  0  0  0
 14 15  1  0  0  0  0
 16 14  1  0  0  0  0
 17 18  1  0  0  0  0
 18 19  1  0  0  0  0
 20 18  2  0  0  0  0
 20 21  1  0  0  0  0
 22 23  1  0  0  0  0
 22 20  1  0  0  0  0
 24 22  2  0  0  0  0
 25 24  1  0  0  0  0
 26 24  1  0  0  0  0
 26 17  2  0  0  0  0
 27 26  1  0  0  0  0
 28 36  1  0  0  0  0
 29 30  1  0  0  0  0
 29 28  2  0  0  0  0
 30 32  2  0  0  0  0
 31 30  1  0  0  0  0
 32 33  1  0  0  0  0
 32 34  1  0  0  0  0
 34 35  1  0  0  0  0
 36 34  2  0  0  0  0
 36 37  1  0  0  0  0
 38  1  1  0  0  0  0
 39  7  1  0  0  0  0
 39 38  2  0  0  0  0
 40 39  1  0  0  0  0
 41 40  1  0  0  0  0
 42 40  2  0  0  0  0
 42 44  1  0  0  0  0
 43 42  1  0  0  0  0
 44 50  2  0  0  0  0
 45 44  1  0  0  0  0
 46 49  1  0  0  0  0
 46  6  1  0  0  0  0
 47 46  1  0  0  0  0
 48 46  1  0  0  0  0
 50 38  1  0  0  0  0
 50 51  1  0  0  0  0
 52 53  1  0  0  0  0
 52 55  1  0  0  0  0
 54 52  1  0  0  0  0
M  END
