1,2
 OpenBabel05122313063D

 70 72  0  0  1  0  0  0  0  0999 V2000
   -3.6542   -0.0522   -0.2648 N   0  0  0  0  0  2  0  0  0  0  0  0
   -1.0114   -0.7290   -0.2150 P   0  0  0  0  0  2  0  0  0  0  0  0
   -4.9883   -0.0871   -0.4779 C   0  0  0  0  0  3  0  0  0  0  0  0
   -5.5200   -0.9403   -0.0289 H   0  0  0  0  0  0  0  0  0  0  0  0
   -5.6776    0.8995   -1.1843 C   0  0  0  0  0  0  0  0  0  0  0  0
   -6.7658    0.8219   -1.3151 H   0  0  0  0  0  0  0  0  0  0  0  0
   -4.9441    1.9875   -1.6971 C   0  0  0  0  0  0  0  0  0  0  0  0
   -5.4488    2.7907   -2.2550 H   0  0  0  0  0  0  0  0  0  0  0  0
   -3.5646    2.0286   -1.5040 C   0  0  0  0  0  0  0  0  0  0  0  0
   -2.9596    2.8471   -1.9172 H   0  0  0  0  0  0  0  0  0  0  0  0
   -2.9104    0.9885   -0.7932 C   0  0  0  0  0  0  0  0  0  0  0  0
   -1.4674    0.8974   -0.6396 C   0  0  1  0  0  3  0  0  0  0  0  0
   -0.5830    2.0657   -0.7790 C   0  0  0  0  0  0  0  0  0  0  0  0
   -0.9425    3.3084   -0.1943 C   0  0  0  0  0  0  0  0  0  0  0  0
   -1.9012    3.3930    0.3395 H   0  0  0  0  0  0  0  0  0  0  0  0
   -0.0821    4.4130   -0.2508 C   0  0  0  0  0  0  0  0  0  0  0  0
   -0.3834    5.3606    0.2216 H   0  0  0  0  0  0  0  0  0  0  0  0
    1.1651    4.3085   -0.8880 C   0  0  0  0  0  0  0  0  0  0  0  0
    1.8438    5.1738   -0.9264 H   0  0  0  0  0  0  0  0  0  0  0  0
    1.5346    3.0883   -1.4777 C   0  0  0  0  0  0  0  0  0  0  0  0
    2.5056    2.9919   -1.9878 H   0  0  0  0  0  0  0  0  0  0  0  0
    0.6730    1.9859   -1.4298 C   0  0  0  0  0  0  0  0  0  0  0  0
    0.9724    1.0424   -1.9034 H   0  0  0  0  0  0  0  0  0  0  0  0
    0.7970   -0.7396    0.1255 C   0  0  0  0  0  0  0  0  0  0  0  0
    1.3881   -0.0064    1.2000 C   0  0  0  0  0  0  0  0  0  0  0  0
    2.7877    0.1883    1.1693 C   0  0  0  0  0  0  0  0  0  0  0  0
    3.2399    0.7692    1.9804 H   0  0  0  0  0  0  0  0  0  0  0  0
    3.6167   -0.3113    0.1653 C   0  0  0  0  0  0  0  0  0  0  0  0
    3.0176   -1.1321   -0.8067 C   0  0  0  0  0  0  0  0  0  0  0  0
    3.6629   -1.5832   -1.5685 H   0  0  0  0  0  0  0  0  0  0  0  0
    1.6399   -1.3847   -0.8547 C   0  0  0  0  0  0  0  0  0  0  0  0
    0.7168    0.5456    2.4935 C   0  0  0  0  0  0  0  0  0  0  0  0
   -0.8151    0.4917    2.5797 C   0  0  0  0  0  0  0  0  0  0  0  0
   -1.2284   -0.5145    2.3720 H   0  0  0  0  0  0  0  0  0  0  0  0
   -1.3036    1.2072    1.8945 H   0  0  0  0  0  0  0  0  0  0  0  0
   -1.1197    0.7580    3.6127 H   0  0  0  0  0  0  0  0  0  0  0  0
    1.2530   -0.3261    3.6603 C   0  0  0  0  0  0  0  0  0  0  0  0
    2.3592   -0.3194    3.7163 H   0  0  0  0  0  0  0  0  0  0  0  0
    0.9249   -1.3787    3.5412 H   0  0  0  0  0  0  0  0  0  0  0  0
    0.8578    0.0496    4.6265 H   0  0  0  0  0  0  0  0  0  0  0  0
    1.1213    2.0245    2.7164 C   0  0  0  0  0  0  0  0  0  0  0  0
    0.6051    2.4171    3.6161 H   0  0  0  0  0  0  0  0  0  0  0  0
    0.8251    2.6482    1.8503 H   0  0  0  0  0  0  0  0  0  0  0  0
    2.2079    2.1595    2.8806 H   0  0  0  0  0  0  0  0  0  0  0  0
    5.1212   -0.0062    0.0917 C   0  0  0  0  0  0  0  0  0  0  0  0
    5.5949    0.8689    1.2646 C   0  0  0  0  0  0  0  0  0  0  0  0
    5.0714    1.8459    1.2869 H   0  0  0  0  0  0  0  0  0  0  0  0
    6.6801    1.0733    1.1669 H   0  0  0  0  0  0  0  0  0  0  0  0
    5.4362    0.3699    2.2419 H   0  0  0  0  0  0  0  0  0  0  0  0
    5.3999    0.7516   -1.2274 C   0  0  0  0  0  0  0  0  0  0  0  0
    5.1095    0.1521   -2.1131 H   0  0  0  0  0  0  0  0  0  0  0  0
    6.4796    0.9913   -1.3186 H   0  0  0  0  0  0  0  0  0  0  0  0
    4.8299    1.7025   -1.2612 H   0  0  0  0  0  0  0  0  0  0  0  0
    5.9223   -1.3273    0.1108 C   0  0  0  0  0  0  0  0  0  0  0  0
    5.7310   -1.8923    1.0454 H   0  0  0  0  0  0  0  0  0  0  0  0
    7.0106   -1.1201    0.0492 H   0  0  0  0  0  0  0  0  0  0  0  0
    5.6581   -1.9846   -0.7411 H   0  0  0  0  0  0  0  0  0  0  0  0
    1.1199   -2.3370   -1.9717 C   0  0  0  0  0  0  0  0  0  0  0  0
    0.3201   -1.5596   -3.0431 C   0  0  0  0  0  0  0  0  0  0  0  0
   -0.5827   -1.0720   -2.6239 H   0  0  0  0  0  0  0  0  0  0  0  0
   -0.0167   -2.2517   -3.8425 H   0  0  0  0  0  0  0  0  0  0  0  0
    0.9466   -0.7733   -3.5117 H   0  0  0  0  0  0  0  0  0  0  0  0
    2.2778   -3.0397   -2.7136 C   0  0  0  0  0  0  0  0  0  0  0  0
    2.9098   -2.3321   -3.2866 H   0  0  0  0  0  0  0  0  0  0  0  0
    1.8511   -3.7568   -3.4427 H   0  0  0  0  0  0  0  0  0  0  0  0
    2.9288   -3.6122   -2.0229 H   0  0  0  0  0  0  0  0  0  0  0  0
    0.2531   -3.4577   -1.3563 C   0  0  0  0  0  0  0  0  0  0  0  0
    0.8221   -4.0211   -0.5900 H   0  0  0  0  0  0  0  0  0  0  0  0
   -0.0640   -4.1687   -2.1467 H   0  0  0  0  0  0  0  0  0  0  0  0
   -0.6636   -3.0648   -0.8798 H   0  0  0  0  0  0  0  0  0  0  0  0
  2 24  1  0  0  0  0
  3  1  1  0  0  0  0
  3  4  1  0  0  0  0
  5  3  1  0  0  0  0
  6  5  1  0  0  0  0
  7  9  1  0  0  0  0
  7  5  2  0  0  0  0
  8  7  1  0  0  0  0
  9 11  2  0  0  0  0
 10  9  1  0  0  0  0
 11 12  1  0  0  0  0
 11  1  1  0  0  0  0
 12  2  1  1  0  0  0
 13 12  1  0  0  0  0
 13 14  1  0  0  0  0
 14 15  1  0  0  0  0
 16 14  2  0  0  0  0
 16 17  1  0  0  0  0
 18 16  1  0  0  0  0
 19 18  1  0  0  0  0
 20 22  1  0  0  0  0
 20 18  2  0  0  0  0
 21 20  1  0  0  0  0
 22 13  2  0  0  0  0
 23 22  1  0  0  0  0
 24 25  1  0  0  0  0
 25 32  1  0  0  0  0
 26 25  2  0  0  0  0
 26 27  1  0  0  0  0
 28 26  1  0  0  0  0
 29 28  2  0  0  0  0
 30 29  1  0  0  0  0
 31 29  1  0  0  0  0
 31 24  2  0  0  0  0
 32 33  1  0  0  0  0
 32 41  1  0  0  0  0
 32 37  1  0  0  0  0
 33 36  1  0  0  0  0
 34 33  1  0  0  0  0
 35 33  1  0  0  0  0
 37 38  1  0  0  0  0
 37 40  1  0  0  0  0
 39 37  1  0  0  0  0
 41 44  1  0  0  0  0
 41 42  1  0  0  0  0
 43 41  1  0  0  0  0
 45 54  1  0  0  0  0
 45 28  1  0  0  0  0
 45 46  1  0  0  0  0
 46 47  1  0  0  0  0
 46 49  1  0  0  0  0
 48 46  1  0  0  0  0
 50 45  1  0  0  0  0
 51 50  1  0  0  0  0
 52 50  1  0  0  0  0
 53 50  1  0  0  0  0
 54 55  1  0  0  0  0
 56 54  1  0  0  0  0
 57 54  1  0  0  0  0
 58 67  1  0  0  0  0
 58 31  1  0  0  0  0
 59 60  1  0  0  0  0
 59 58  1  0  0  0  0
 61 59  1  0  0  0  0
 62 59  1  0  0  0  0
 63 66  1  0  0  0  0
 63 58  1  0  0  0  0
 64 63  1  0  0  0  0
 65 63  1  0  0  0  0
 67 70  1  0  0  0  0
 67 68  1  0  0  0  0
 69 67  1  0  0  0  0
M  END
