2,13,18
 OpenBabel05122313063D

 30 30  0  0  1  0  0  0  0  0999 V2000
    0.9711    3.6432    0.0136 Cl  0  0  0  0  0  0  0  0  0  0  0  0
    0.6781   -2.0560   -0.4949 S   0  0  0  0  0  0  0  0  0  0  0  0
    2.1371   -1.0378   -0.1857 C   0  0  0  0  0  0  0  0  0  0  0  0
    1.9321    0.3604   -0.0444 C   0  0  0  0  0  0  0  0  0  0  0  0
    3.0934    1.1526    0.1506 C   0  0  0  0  0  0  0  0  0  0  0  0
    2.9838    2.2374    0.2680 H   0  0  0  0  0  0  0  0  0  0  0  0
    4.3660    0.5717    0.2041 C   0  0  0  0  0  0  0  0  0  0  0  0
    5.2445    1.2149    0.3652 H   0  0  0  0  0  0  0  0  0  0  0  0
    4.5340   -0.8150    0.0497 C   0  0  0  0  0  0  0  0  0  0  0  0
    5.5376   -1.2644    0.0836 H   0  0  0  0  0  0  0  0  0  0  0  0
    3.4091   -1.6248   -0.1599 C   0  0  0  0  0  0  0  0  0  0  0  0
    3.5189   -2.7108   -0.3030 H   0  0  0  0  0  0  0  0  0  0  0  0
    0.5469    0.8596   -0.1118 C   0  0  0  0  0  2  0  0  0  0  0  0
    0.0539    2.1271   -0.0845 C   0  0  2  0  0  3  0  0  0  0  0  0
   -1.4191    2.3852   -0.2625 C   0  0  0  0  0  0  0  0  0  0  0  0
   -1.6262    2.6040   -1.3323 H   0  0  0  0  0  0  0  0  0  0  0  0
   -1.7573    3.2739    0.3179 H   0  0  0  0  0  0  0  0  0  0  0  0
   -2.2106    1.1776    0.1176 N   0  0  0  0  0  0  0  0  0  0  0  0
   -3.4622    1.0829   -0.6631 C   0  0  0  0  0  0  0  0  0  0  0  0
   -4.1224    1.9529   -0.4439 H   0  0  0  0  0  0  0  0  0  0  0  0
   -3.9653    0.1333   -0.4015 H   0  0  0  0  0  0  0  0  0  0  0  0
   -3.2197    1.0641   -1.7417 H   0  0  0  0  0  0  0  0  0  0  0  0
   -2.5120    1.1763    1.5686 C   0  0  0  0  0  0  0  0  0  0  0  0
   -3.1999    2.0165    1.8194 H   0  0  0  0  0  0  0  0  0  0  0  0
   -1.5707    1.2866    2.1378 H   0  0  0  0  0  0  0  0  0  0  0  0
   -2.9829    0.2095    1.8275 H   0  0  0  0  0  0  0  0  0  0  0  0
    0.5934   -3.0845    1.0199 C   0  0  0  0  0  0  0  0  0  0  0  0
    1.3489   -3.8905    0.9605 H   0  0  0  0  0  0  0  0  0  0  0  0
   -0.4360   -3.4933    1.0139 H   0  0  0  0  0  0  0  0  0  0  0  0
    0.7476   -2.4508    1.9115 H   0  0  0  0  0  0  0  0  0  0  0  0
  2  3  1  0  0  0  0
  2 27  1  0  0  0  0
  3 11  2  0  0  0  0
  3  4  1  0  0  0  0
  4  5  2  0  0  0  0
  5  7  1  0  0  0  0
  5  6  1  0  0  0  0
  7  8  1  0  0  0  0
  9 10  1  0  0  0  0
  9  7  2  0  0  0  0
 11  9  1  0  0  0  0
 12 11  1  0  0  0  0
 13 14  1  0  0  0  0
 13  4  1  0  0  0  0
 14  1  1  6  0  0  0
 15 14  1  0  0  0  0
 15 18  1  0  0  0  0
 15 17  1  0  0  0  0
 16 15  1  0  0  0  0
 18 23  1  0  0  0  0
 19 20  1  0  0  0  0
 19 21  1  0  0  0  0
 19 18  1  0  0  0  0
 22 19  1  0  0  0  0
 23 24  1  0  0  0  0
 23 26  1  0  0  0  0
 23 25  1  0  0  0  0
 27 30  1  0  0  0  0
 28 27  1  0  0  0  0
 29 27  1  0  0  0  0
M  END
