1,2,5
 OpenBabel05122313063D

 30 31  0  0  0  0  0  0  0  0999 V2000
    2.4247   -0.8076    0.5682 S   0  0  0  0  0  0  0  0  0  0  0  0
    0.8855    1.6522   -0.4503 N   0  0  0  0  0  2  0  0  0  0  0  0
    2.2815    1.8439   -0.4031 C   0  0  0  0  0  0  0  0  0  0  0  0
    3.1070    0.7810    0.0466 C   0  0  0  0  0  0  0  0  0  0  0  0
   -1.5924    0.9214   -0.3034 C   0  0  0  0  0  3  0  0  0  0  0  0
    3.1069   -1.9055   -0.7600 C   0  0  0  0  0  0  0  0  0  0  0  0
    2.7479   -1.5020   -1.7284 H   0  0  0  0  0  0  0  0  0  0  0  0
    4.2087   -1.8010   -0.6949 H   0  0  0  0  0  0  0  0  0  0  0  0
    2.8590    3.0760   -0.7784 C   0  0  0  0  0  0  0  0  0  0  0  0
    2.1889    3.8774   -1.1170 H   0  0  0  0  0  0  0  0  0  0  0  0
    4.4952    0.9769    0.1276 C   0  0  0  0  0  0  0  0  0  0  0  0
    5.1320    0.1645    0.5082 H   0  0  0  0  0  0  0  0  0  0  0  0
   -1.2268    2.2470   -0.7339 C   0  0  0  0  0  0  0  0  0  0  0  0
    4.2427    3.2458   -0.7120 C   0  0  0  0  0  0  0  0  0  0  0  0
    4.6870    4.2072   -1.0087 H   0  0  0  0  0  0  0  0  0  0  0  0
    2.6405   -3.3336   -0.5296 C   0  0  0  0  0  0  0  0  0  0  0  0
    3.0826   -3.9873   -1.3082 H   0  0  0  0  0  0  0  0  0  0  0  0
    1.5372   -3.4090   -0.6033 H   0  0  0  0  0  0  0  0  0  0  0  0
    2.9512   -3.7174    0.4626 H   0  0  0  0  0  0  0  0  0  0  0  0
    5.0647    2.1979   -0.2584 C   0  0  0  0  0  0  0  0  0  0  0  0
    6.1538    2.3357   -0.1926 H   0  0  0  0  0  0  0  0  0  0  0  0
   -5.5853    1.1048   -0.4783 Cl  0  0  0  0  0  0  0  0  0  0  0  0
   -2.2234    3.1937   -1.0786 C   0  0  0  0  0  0  0  0  0  0  0  0
   -1.9127    4.1977   -1.4002 H   0  0  0  0  0  0  0  0  0  0  0  0
    0.0989    2.5986   -0.7918 N   0  0  0  0  0  2  0  0  0  0  0  0
   -3.9080    1.5347   -0.5702 C   0  0  0  0  0  0  0  0  0  0  0  0
   -3.5652    2.8387   -0.9994 C   0  0  0  0  0  0  0  0  0  0  0  0
   -4.3606    3.5494   -1.2602 H   0  0  0  0  0  0  0  0  0  0  0  0
   -2.9379    0.5739   -0.2183 C   0  0  0  0  0  0  0  0  0  0  0  0
   -3.2414   -0.4302    0.1092 H   0  0  0  0  0  0  0  0  0  0  0  0
  2  3  1  0  0  0  0
  3  4  1  0  0  0  0
  4 11  2  0  0  0  0
  4  1  1  0  0  0  0
  5 29  1  0  0  0  0
  6  8  1  0  0  0  0
  6 16  1  0  0  0  0
  6  1  1  0  0  0  0
  7  6  1  0  0  0  0
  9 14  1  0  0  0  0
  9  3  2  0  0  0  0
 10  9  1  0  0  0  0
 11 12  1  0  0  0  0
 13  5  2  0  0  0  0
 14 20  2  0  0  0  0
 15 14  1  0  0  0  0
 16 19  1  0  0  0  0
 17 16  1  0  0  0  0
 18 16  1  0  0  0  0
 20 21  1  0  0  0  0
 20 11  1  0  0  0  0
 23 27  2  0  0  0  0
 23 13  1  0  0  0  0
 24 23  1  0  0  0  0
 25 13  1  0  0  0  0
 25  2  1  0  0  0  0
 26 22  1  0  0  0  0
 26 29  2  0  0  0  0
 27 26  1  0  0  0  0
 28 27  1  0  0  0  0
 29 30  1  0  0  0  0
M  END
