1,3,26
 OpenBabel05122313063D

 56 60  0  0  0  0  0  0  0  0999 V2000
    2.4593    0.5516   -1.4052 S   0  0  0  0  0  0  0  0  0  0  0  0
   -1.8124   -0.0065    0.3064 P   0  0  0  0  0  4  0  0  0  0  0  0
   -0.2838    0.4687   -0.1683 N   0  0  0  0  0  2  0  0  0  0  0  0
    0.0011    1.6945   -0.7648 C   0  0  0  0  0  0  0  0  0  0  0  0
    1.2628    1.8852   -1.4047 C   0  0  0  0  0  0  0  0  0  0  0  0
    1.5829    3.0883   -2.0546 C   0  0  0  0  0  0  0  0  0  0  0  0
    2.5615    3.1740   -2.5510 H   0  0  0  0  0  0  0  0  0  0  0  0
    0.6785    4.1579   -2.0624 C   0  0  0  0  0  0  0  0  0  0  0  0
    0.9324    5.0984   -2.5716 H   0  0  0  0  0  0  0  0  0  0  0  0
   -0.5571    4.0015   -1.4104 C   0  0  0  0  0  0  0  0  0  0  0  0
   -1.2820    4.8298   -1.3981 H   0  0  0  0  0  0  0  0  0  0  0  0
   -0.8911    2.8012   -0.7761 C   0  0  0  0  0  0  0  0  0  0  0  0
   -1.8608    2.7199   -0.2680 H   0  0  0  0  0  0  0  0  0  0  0  0
    3.5518    0.9877   -0.0196 C   0  0  0  0  0  0  0  0  0  0  0  0
    3.4966    2.2281    0.6343 C   0  0  0  0  0  0  0  0  0  0  0  0
    2.7510    2.9803    0.3401 H   0  0  0  0  0  0  0  0  0  0  0  0
    4.4035    2.4943    1.6734 C   0  0  0  0  0  0  0  0  0  0  0  0
    4.3613    3.4662    2.1888 H   0  0  0  0  0  0  0  0  0  0  0  0
    5.3527    1.5344    2.0545 C   0  0  0  0  0  0  0  0  0  0  0  0
    6.0600    1.7493    2.8696 H   0  0  0  0  0  0  0  0  0  0  0  0
    5.3892    0.2939    1.3956 C   0  0  0  0  0  0  0  0  0  0  0  0
    6.1187   -0.4726    1.6984 H   0  0  0  0  0  0  0  0  0  0  0  0
    4.4921    0.0106    0.3570 C   0  0  0  0  0  0  0  0  0  0  0  0
    4.4809   -0.9775   -0.1308 H   0  0  0  0  0  0  0  0  0  0  0  0
   -1.5714   -1.6939    0.8527 C   0  0  0  0  0  0  0  0  0  0  0  0
   -0.3072   -2.2715    0.5340 C   0  0  0  0  0  3  0  0  0  0  0  0
   -0.1192   -3.6160    0.9392 C   0  0  0  0  0  0  0  0  0  0  0  0
    0.8436   -4.0958    0.7075 H   0  0  0  0  0  0  0  0  0  0  0  0
   -1.1260   -4.3207    1.6114 C   0  0  0  0  0  0  0  0  0  0  0  0
   -0.9433   -5.3648    1.9120 H   0  0  0  0  0  0  0  0  0  0  0  0
   -2.3647   -3.7200    1.9129 C   0  0  0  0  0  0  0  0  0  0  0  0
   -3.1452   -4.2834    2.4455 H   0  0  0  0  0  0  0  0  0  0  0  0
   -2.5907   -2.3945    1.5315 C   0  0  0  0  0  0  0  0  0  0  0  0
   -3.5497   -1.9053    1.7655 H   0  0  0  0  0  0  0  0  0  0  0  0
   -3.0002    0.0239   -1.0738 C   0  0  0  0  0  0  0  0  0  0  0  0
   -2.8993   -1.0336   -2.0055 C   0  0  0  0  0  0  0  0  0  0  0  0
   -2.1865   -1.8536   -1.8255 H   0  0  0  0  0  0  0  0  0  0  0  0
   -3.6999   -1.0273   -3.1547 C   0  0  0  0  0  0  0  0  0  0  0  0
   -3.6186   -1.8522   -3.8781 H   0  0  0  0  0  0  0  0  0  0  0  0
   -4.6022    0.0257   -3.3814 C   0  0  0  0  0  0  0  0  0  0  0  0
   -5.2314    0.0258   -4.2843 H   0  0  0  0  0  0  0  0  0  0  0  0
   -4.7005    1.0795   -2.4594 C   0  0  0  0  0  0  0  0  0  0  0  0
   -5.4037    1.9069   -2.6379 H   0  0  0  0  0  0  0  0  0  0  0  0
   -3.8987    1.0855   -1.3086 C   0  0  0  0  0  0  0  0  0  0  0  0
   -3.9803    1.9167   -0.5928 H   0  0  0  0  0  0  0  0  0  0  0  0
   -2.4534    1.0033    1.6775 C   0  0  0  0  0  0  0  0  0  0  0  0
   -3.8224    1.0207    2.0171 C   0  0  0  0  0  0  0  0  0  0  0  0
   -4.5564    0.4807    1.4001 H   0  0  0  0  0  0  0  0  0  0  0  0
   -4.2480    1.7329    3.1484 C   0  0  0  0  0  0  0  0  0  0  0  0
   -5.3157    1.7473    3.4143 H   0  0  0  0  0  0  0  0  0  0  0  0
   -3.3151    2.4244    3.9377 C   0  0  0  0  0  0  0  0  0  0  0  0
   -3.6534    2.9840    4.8228 H   0  0  0  0  0  0  0  0  0  0  0  0
   -1.9512    2.4009    3.6019 C   0  0  0  0  0  0  0  0  0  0  0  0
   -1.2198    2.9396    4.2227 H   0  0  0  0  0  0  0  0  0  0  0  0
   -1.5149    1.6890    2.4766 C   0  0  0  0  0  0  0  0  0  0  0  0
   -0.4481    1.6561    2.2062 H   0  0  0  0  0  0  0  0  0  0  0  0
  1  5  1  0  0  0  0
  1 14  1  0  0  0  0
  2 25  1  0  0  0  0
  2 46  1  0  0  0  0
  3  2  1  0  0  0  0
  4  3  1  0  0  0  0
  5  4  2  0  0  0  0
  6  5  1  0  0  0  0
  7  6  1  0  0  0  0
  8  6  2  0  0  0  0
  8 10  1  0  0  0  0
  9  8  1  0  0  0  0
 10 11  1  0  0  0  0
 10 12  2  0  0  0  0
 12  4  1  0  0  0  0
 12 13  1  0  0  0  0
 14 23  2  0  0  0  0
 14 15  1  0  0  0  0
 15 17  2  0  0  0  0
 16 15  1  0  0  0  0
 17 19  1  0  0  0  0
 17 18  1  0  0  0  0
 19 20  1  0  0  0  0
 21 22  1  0  0  0  0
 21 19  2  0  0  0  0
 23 21  1  0  0  0  0
 24 23  1  0  0  0  0
 25 33  1  0  0  0  0
 26 25  2  0  0  0  0
 26 27  1  0  0  0  0
 27 29  2  0  0  0  0
 28 27  1  0  0  0  0
 29 30  1  0  0  0  0
 29 31  1  0  0  0  0
 31 32  1  0  0  0  0
 33 34  1  0  0  0  0
 33 31  2  0  0  0  0
 35  2  1  0  0  0  0
 36 37  1  0  0  0  0
 36 35  2  0  0  0  0
 38 36  1  0  0  0  0
 39 38  1  0  0  0  0
 40 38  2  0  0  0  0
 40 42  1  0  0  0  0
 41 40  1  0  0  0  0
 42 44  2  0  0  0  0
 43 42  1  0  0  0  0
 44 35  1  0  0  0  0
 44 45  1  0  0  0  0
 46 47  2  0  0  0  0
 46 55  1  0  0  0  0
 47 49  1  0  0  0  0
 48 47  1  0  0  0  0
 49 50  1  0  0  0  0
 49 51  2  0  0  0  0
 51 52  1  0  0  0  0
 53 51  1  0  0  0  0
 53 54  1  0  0  0  0
 55 53  2  0  0  0  0
 56 55  1  0  0  0  0
M  END
