2,5,7
 OpenBabel05122313063D

 59 62  0  0  1  0  0  0  0  0999 V2000
    1.1900   -0.7821    0.3266 P   0  0  0  0  0  4  0  0  0  0  0  0
   -3.6074    0.2433   -1.0187 S   0  0  0  0  0  1  0  0  0  0  0  0
   -3.6121    0.5544    1.6967 O   0  0  0  0  0  0  0  0  0  0  0  0
   -5.5506    0.9510    0.6508 N   0  0  0  0  0  0  0  0  0  0  0  0
    0.7334    0.3267   -0.7778 N   0  0  0  0  0  2  0  0  0  0  0  0
   -2.3500    0.0172    1.9850 C   0  0  0  0  0  0  0  0  0  0  0  0
   -1.3075   -0.1111    1.0516 C   0  0  0  0  0  3  0  0  0  0  0  0
   -0.0949   -0.6380    1.5861 C   0  0  0  0  0  0  0  0  0  0  0  0
    0.0765   -1.0086    2.9293 C   0  0  0  0  0  0  0  0  0  0  0  0
    1.0412   -1.4038    3.2841 H   0  0  0  0  0  0  0  0  0  0  0  0
   -0.9983   -0.8466    3.8170 C   0  0  0  0  0  0  0  0  0  0  0  0
   -0.8949   -1.1171    4.8779 H   0  0  0  0  0  0  0  0  0  0  0  0
   -2.2111   -0.3313    3.3409 C   0  0  0  0  0  0  0  0  0  0  0  0
   -3.0685   -0.1896    4.0157 H   0  0  0  0  0  0  0  0  0  0  0  0
   -4.2462    0.5861    0.5202 C   0  0  1  0  0  3  0  0  0  0  0  0
   -6.2248    1.0424    1.9392 C   0  0  0  0  0  0  0  0  0  0  0  0
   -7.0551    0.3055    1.9924 H   0  0  0  0  0  0  0  0  0  0  0  0
   -6.6517    2.0582    2.0764 H   0  0  0  0  0  0  0  0  0  0  0  0
   -5.5141    0.8429    2.7563 H   0  0  0  0  0  0  0  0  0  0  0  0
   -6.3781    1.1387   -0.5321 C   0  0  0  0  0  0  0  0  0  0  0  0
   -7.2522    1.7595   -0.2583 H   0  0  0  0  0  0  0  0  0  0  0  0
   -6.7372    0.1696   -0.9423 H   0  0  0  0  0  0  0  0  0  0  0  0
   -5.7958    1.6466   -1.3254 H   0  0  0  0  0  0  0  0  0  0  0  0
    1.2047   -2.4980   -0.3141 C   0  0  0  0  0  0  0  0  0  0  0  0
    0.6674   -2.7176   -1.5988 C   0  0  0  0  0  0  0  0  0  0  0  0
    0.2752   -1.8684   -2.1849 H   0  0  0  0  0  0  0  0  0  0  0  0
    0.6104   -4.0246   -2.1084 C   0  0  0  0  0  0  0  0  0  0  0  0
    0.1904   -4.1964   -3.1108 H   0  0  0  0  0  0  0  0  0  0  0  0
    1.0776   -5.1042   -1.3428 C   0  0  0  0  0  0  0  0  0  0  0  0
    1.0282   -6.1272   -1.7464 H   0  0  0  0  0  0  0  0  0  0  0  0
    1.6035   -4.8842   -0.0579 C   0  0  0  0  0  0  0  0  0  0  0  0
    1.9630   -5.7322    0.5448 H   0  0  0  0  0  0  0  0  0  0  0  0
    1.6671   -3.5828    0.4593 C   0  0  0  0  0  0  0  0  0  0  0  0
    2.0763   -3.4119    1.4676 H   0  0  0  0  0  0  0  0  0  0  0  0
    2.8421   -0.4473    1.0131 C   0  0  0  0  0  0  0  0  0  0  0  0
    3.9825   -1.1662    0.6032 C   0  0  0  0  0  0  0  0  0  0  0  0
    3.8742   -2.0489   -0.0443 H   0  0  0  0  0  0  0  0  0  0  0  0
    5.2574   -0.7431    1.0092 C   0  0  0  0  0  0  0  0  0  0  0  0
    6.1474   -1.3037    0.6856 H   0  0  0  0  0  0  0  0  0  0  0  0
    5.3968    0.3980    1.8134 C   0  0  0  0  0  0  0  0  0  0  0  0
    6.3989    0.7348    2.1197 H   0  0  0  0  0  0  0  0  0  0  0  0
    4.2614    1.1197    2.2192 C   0  0  0  0  0  0  0  0  0  0  0  0
    4.3716    2.0253    2.8335 H   0  0  0  0  0  0  0  0  0  0  0  0
    2.9865    0.7022    1.8207 C   0  0  0  0  0  0  0  0  0  0  0  0
    2.0968    1.2812    2.1097 H   0  0  0  0  0  0  0  0  0  0  0  0
    1.6669    0.8084   -1.7957 C   0  0  0  0  0  0  0  0  0  0  0  0
    1.0412    1.1590   -2.6467 H   0  0  0  0  0  0  0  0  0  0  0  0
    2.3096   -0.0017   -2.2142 H   0  0  0  0  0  0  0  0  0  0  0  0
    2.5475    1.9253   -1.2663 C   0  0  0  0  0  0  0  0  0  0  0  0
    3.9411    1.9115   -1.4542 C   0  0  0  0  0  0  0  0  0  0  0  0
    4.4015    1.0766   -2.0068 H   0  0  0  0  0  0  0  0  0  0  0  0
    4.7496    2.9305   -0.9245 C   0  0  0  0  0  0  0  0  0  0  0  0
    5.8405    2.8947   -1.0698 H   0  0  0  0  0  0  0  0  0  0  0  0
    4.1700    3.9831   -0.2006 C   0  0  0  0  0  0  0  0  0  0  0  0
    4.8015    4.7817    0.2183 H   0  0  0  0  0  0  0  0  0  0  0  0
    2.7765    4.0096   -0.0127 C   0  0  0  0  0  0  0  0  0  0  0  0
    2.3133    4.8347    0.5509 H   0  0  0  0  0  0  0  0  0  0  0  0
    1.9740    2.9877   -0.5371 C   0  0  0  0  0  0  0  0  0  0  0  0
    0.8858    2.9845   -0.3696 H   0  0  0  0  0  0  0  0  0  0  0  0
  1 35  1  0  0  0  0
  1  8  1  0  0  0  0
  3  6  1  0  0  0  0
  4 16  1  0  0  0  0
  5  1  1  0  0  0  0
  6 13  1  0  0  0  0
  7  8  1  0  0  0  0
  7  6  2  0  0  0  0
  8  9  2  0  0  0  0
  9 10  1  0  0  0  0
  9 11  1  0  0  0  0
 11 12  1  0  0  0  0
 13 11  2  0  0  0  0
 13 14  1  0  0  0  0
 15  2  1  6  0  0  0
 15  4  1  0  0  0  0
 15  3  1  0  0  0  0
 16 17  1  0  0  0  0
 16 18  1  0  0  0  0
 16 19  1  0  0  0  0
 20 21  1  0  0  0  0
 20  4  1  0  0  0  0
 22 20  1  0  0  0  0
 23 20  1  0  0  0  0
 24  1  1  0  0  0  0
 24 33  1  0  0  0  0
 25 24  2  0  0  0  0
 26 25  1  0  0  0  0
 27 25  1  0  0  0  0
 27 29  2  0  0  0  0
 28 27  1  0  0  0  0
 29 31  1  0  0  0  0
 30 29  1  0  0  0  0
 31 33  2  0  0  0  0
 31 32  1  0  0  0  0
 33 34  1  0  0  0  0
 35 44  1  0  0  0  0
 36 38  1  0  0  0  0
 36 35  2  0  0  0  0
 37 36  1  0  0  0  0
 38 40  2  0  0  0  0
 39 38  1  0  0  0  0
 40 41  1  0  0  0  0
 40 42  1  0  0  0  0
 42 43  1  0  0  0  0
 44 45  1  0  0  0  0
 44 42  2  0  0  0  0
 46 49  1  0  0  0  0
 46  5  1  0  0  0  0
 47 46  1  0  0  0  0
 48 46  1  0  0  0  0
 49 58  1  0  0  0  0
 50 49  2  0  0  0  0
 50 52  1  0  0  0  0
 51 50  1  0  0  0  0
 52 54  2  0  0  0  0
 53 52  1  0  0  0  0
 54 56  1  0  0  0  0
 54 55  1  0  0  0  0
 56 57  1  0  0  0  0
 58 59  1  0  0  0  0
 58 56  2  0  0  0  0
M  END
