1,3,12
 OpenBabel05122313063D

 32 33  0  0  0  0  0  0  0  0999 V2000
    2.2301   -1.6115   -0.3395 S   0  0  0  0  0  0  0  0  0  0  0  0
   -5.3159    0.6765    0.1133 O   0  0  0  0  0  0  0  0  0  0  0  0
    0.9140    1.0876   -0.0620 N   0  0  0  0  0  2  0  0  0  0  0  0
   -1.3179    1.8016    0.0508 C   0  0  0  0  0  0  0  0  0  0  0  0
   -2.3579    2.7661    0.1406 C   0  0  0  0  0  3  0  0  0  0  0  0
   -2.1115    3.8384    0.1951 H   0  0  0  0  0  0  0  0  0  0  0  0
   -3.6840    2.3578    0.1583 C   0  0  0  0  0  0  0  0  0  0  0  0
   -4.5135    3.0753    0.2264 H   0  0  0  0  0  0  0  0  0  0  0  0
   -3.9970    0.9719    0.0866 C   0  0  0  0  0  0  0  0  0  0  0  0
   -2.9741   -0.0025   -0.0034 C   0  0  0  0  0  0  0  0  0  0  0  0
   -3.1952   -1.0777   -0.0542 H   0  0  0  0  0  0  0  0  0  0  0  0
   -1.6375    0.3989   -0.0221 C   0  0  0  0  0  3  0  0  0  0  0  0
    0.0742    2.1098    0.0319 C   0  0  0  0  0  0  0  0  0  0  0  0
    0.4395    3.1504    0.1005 H   0  0  0  0  0  0  0  0  0  0  0  0
    2.3149    1.1777   -0.0532 C   0  0  0  0  0  0  0  0  0  0  0  0
    3.0706   -0.0256   -0.1462 C   0  0  0  0  0  0  0  0  0  0  0  0
    4.4744    0.0076   -0.1469 C   0  0  0  0  0  0  0  0  0  0  0  0
    5.0306   -0.9368   -0.2468 H   0  0  0  0  0  0  0  0  0  0  0  0
    5.1566    1.2254   -0.0297 C   0  0  0  0  0  0  0  0  0  0  0  0
    6.2562    1.2445   -0.0254 H   0  0  0  0  0  0  0  0  0  0  0  0
    4.4212    2.4197    0.0660 C   0  0  0  0  0  0  0  0  0  0  0  0
    4.9448    3.3839    0.1494 H   0  0  0  0  0  0  0  0  0  0  0  0
    3.0238    2.3991    0.0507 C   0  0  0  0  0  0  0  0  0  0  0  0
    2.4731    3.3471    0.1250 H   0  0  0  0  0  0  0  0  0  0  0  0
   -5.7113   -0.6875    0.0398 C   0  0  0  0  0  0  0  0  0  0  0  0
   -6.8160   -0.6900    0.0743 H   0  0  0  0  0  0  0  0  0  0  0  0
   -5.3140   -1.2745    0.8955 H   0  0  0  0  0  0  0  0  0  0  0  0
   -5.3704   -1.1608   -0.9060 H   0  0  0  0  0  0  0  0  0  0  0  0
    2.4740   -2.3803    1.3060 C   0  0  0  0  0  0  0  0  0  0  0  0
    1.7828   -3.2452    1.3133 H   0  0  0  0  0  0  0  0  0  0  0  0
    2.1853   -1.6710    2.1027 H   0  0  0  0  0  0  0  0  0  0  0  0
    3.5218   -2.7152    1.4249 H   0  0  0  0  0  0  0  0  0  0  0  0
  1 16  1  0  0  0  0
  1 29  1  0  0  0  0
  3 15  1  0  0  0  0
  3 13  1  0  0  0  0
  4  5  1  0  0  0  0
  5  7  1  0  0  0  0
  5  6  1  0  0  0  0
  7  8  1  0  0  0  0
  9  2  1  0  0  0  0
  9  7  2  0  0  0  0
 10  9  1  0  0  0  0
 11 10  1  0  0  0  0
 12 10  2  0  0  0  0
 12  4  1  0  0  0  0
 13  4  2  0  0  0  0
 13 14  1  0  0  0  0
 15 23  1  0  0  0  0
 16 15  2  0  0  0  0
 17 16  1  0  0  0  0
 17 19  2  0  0  0  0
 18 17  1  0  0  0  0
 19 20  1  0  0  0  0
 19 21  1  0  0  0  0
 21 22  1  0  0  0  0
 23 21  2  0  0  0  0
 23 24  1  0  0  0  0
 25 26  1  0  0  0  0
 25  2  1  0  0  0  0
 25 27  1  0  0  0  0
 28 25  1  0  0  0  0
 29 30  1  0  0  0  0
 29 32  1  0  0  0  0
 29 31  1  0  0  0  0
M  END
