1,2,6
 OpenBabel05122313063D

 28 28  0  0  0  0  0  0  0  0999 V2000
    1.7352   -2.4030   -0.0888 S   0  0  0  0  0  1  0  0  0  0  0  0
    3.0378    0.2346    0.0144 N   0  0  0  0  0  2  0  0  0  0  0  0
    3.9619   -0.7489    0.0028 N   0  0  0  0  0  0  0  0  0  0  0  0
    4.3278   -3.0137   -0.0460 N   0  0  0  0  0  0  0  0  0  0  0  0
    3.9190   -3.9443   -0.1104 H   0  0  0  0  0  0  0  0  0  0  0  0
    0.9482    1.9025    0.0337 C   0  0  0  0  0  2  0  0  0  0  0  0
   -0.1246    2.7997    0.0350 C   0  0  0  0  0  0  0  0  0  0  0  0
   -1.1605    2.4278    0.0181 H   0  0  0  0  0  0  0  0  0  0  0  0
    0.0531    4.2074    0.0466 C   0  0  0  0  0  0  0  0  0  0  0  0
    1.3615    4.7179    0.0605 C   0  0  0  0  0  0  0  0  0  0  0  0
    1.5230    5.8074    0.0672 H   0  0  0  0  0  0  0  0  0  0  0  0
    2.4636    3.8484    0.0638 C   0  0  0  0  0  0  0  0  0  0  0  0
    3.4819    4.2669    0.0731 H   0  0  0  0  0  0  0  0  0  0  0  0
    2.2768    2.4520    0.0505 C   0  0  0  0  0  0  0  0  0  0  0  0
    3.3937    1.5085    0.0450 C   0  0  0  0  0  0  0  0  0  0  0  0
    3.4517   -1.9719   -0.0386 C   0  0  0  0  0  0  0  0  0  0  0  0
   -1.1531    5.1117    0.0429 C   0  0  0  0  0  0  0  0  0  0  0  0
   -1.7691    4.9632    0.9555 H   0  0  0  0  0  0  0  0  0  0  0  0
   -1.8146    4.8924   -0.8218 H   0  0  0  0  0  0  0  0  0  0  0  0
   -0.8682    6.1808   -0.0041 H   0  0  0  0  0  0  0  0  0  0  0  0
    4.8284    1.9321    0.0669 C   0  0  0  0  0  0  0  0  0  0  0  0
    5.0407    2.5477    0.9657 H   0  0  0  0  0  0  0  0  0  0  0  0
    5.0640    2.5603   -0.8174 H   0  0  0  0  0  0  0  0  0  0  0  0
    5.4825    1.0429    0.0678 H   0  0  0  0  0  0  0  0  0  0  0  0
    5.7636   -2.8465   -0.0411 C   0  0  0  0  0  0  0  0  0  0  0  0
    6.2446   -3.8421   -0.0130 H   0  0  0  0  0  0  0  0  0  0  0  0
    6.0942   -2.2611    0.8427 H   0  0  0  0  0  0  0  0  0  0  0  0
    6.1164   -2.3008   -0.9433 H   0  0  0  0  0  0  0  0  0  0  0  0
  1 16  1  0  0  0  0
  2 15  1  0  0  0  0
  3  2  1  0  0  0  0
  4 25  1  0  0  0  0
  4 16  1  0  0  0  0
  5  4  1  0  0  0  0
  6  7  1  0  0  0  0
  6 14  1  0  0  0  0
  7  9  2  0  0  0  0
  8  7  1  0  0  0  0
  9 10  1  0  0  0  0
 10 12  2  0  0  0  0
 10 11  1  0  0  0  0
 12 13  1  0  0  0  0
 14 12  1  0  0  0  0
 15 14  2  0  0  0  0
 15 21  1  0  0  0  0
 16  3  2  0  0  0  0
 17  9  1  0  0  0  0
 17 18  1  0  0  0  0
 19 17  1  0  0  0  0
 20 17  1  0  0  0  0
 21 24  1  0  0  0  0
 21 22  1  0  0  0  0
 23 21  1  0  0  0  0
 25 26  1  0  0  0  0
 25 27  1  0  0  0  0
 28 25  1  0  0  0  0
M  END
