1,2,4
 OpenBabel05122313063D

 27 28  0  0  0  0  0  0  0  0999 V2000
   -1.6814   -1.6334   -0.3367 S   0  0  0  0  0  0  0  0  0  0  0  0
   -0.6922    1.2011   -0.0629 N   0  0  0  0  0  2  0  0  0  0  0  0
   -2.7067   -0.1571   -0.1573 C   0  0  0  0  0  0  0  0  0  0  0  0
    1.8436    0.9350    0.0036 C   0  0  0  0  0  2  0  0  0  0  0  0
   -0.1299    2.3531    0.0403 N   0  0  0  0  0  0  0  0  0  0  0  0
   -2.9190    2.2739    0.0186 C   0  0  0  0  0  0  0  0  0  0  0  0
   -2.4222    3.2513    0.0850 H   0  0  0  0  0  0  0  0  0  0  0  0
    1.2434    2.2466    0.0671 C   0  0  0  0  0  0  0  0  0  0  0  0
    2.0357    3.4175    0.1614 C   0  0  0  0  0  0  0  0  0  0  0  0
    1.5348    4.3954    0.2073 H   0  0  0  0  0  0  0  0  0  0  0  0
   -4.1058   -0.2723   -0.1640 C   0  0  0  0  0  0  0  0  0  0  0  0
   -4.5637   -1.2685   -0.2575 H   0  0  0  0  0  0  0  0  0  0  0  0
   -2.1045    1.1244   -0.0691 C   0  0  0  0  0  0  0  0  0  0  0  0
    4.0193    2.0182    0.1290 C   0  0  0  0  0  0  0  0  0  0  0  0
    5.1172    1.9310    0.1556 H   0  0  0  0  0  0  0  0  0  0  0  0
    3.4257    3.2963    0.1915 C   0  0  0  0  0  0  0  0  0  0  0  0
    4.0574    4.1939    0.2639 H   0  0  0  0  0  0  0  0  0  0  0  0
   -1.8801   -2.4317    1.2999 C   0  0  0  0  0  0  0  0  0  0  0  0
   -1.6757   -1.7046    2.1065 H   0  0  0  0  0  0  0  0  0  0  0  0
   -1.1126   -3.2296    1.3166 H   0  0  0  0  0  0  0  0  0  0  0  0
   -2.8936   -2.8648    1.3944 H   0  0  0  0  0  0  0  0  0  0  0  0
    3.2400    0.8476    0.0355 C   0  0  0  0  0  0  0  0  0  0  0  0
    3.7199   -0.1413   -0.0082 H   0  0  0  0  0  0  0  0  0  0  0  0
   -4.9083    0.8731   -0.0621 C   0  0  0  0  0  0  0  0  0  0  0  0
   -6.0039    0.7746   -0.0639 H   0  0  0  0  0  0  0  0  0  0  0  0
   -4.3100    2.1438    0.0254 C   0  0  0  0  0  0  0  0  0  0  0  0
   -4.9390    3.0438    0.0955 H   0  0  0  0  0  0  0  0  0  0  0  0
  1  3  1  0  0  0  0
  1 18  1  0  0  0  0
  2  5  1  0  0  0  0
  3 13  1  0  0  0  0
  4 22  1  0  0  0  0
  4  8  1  0  0  0  0
  5  8  2  0  0  0  0
  6 26  1  0  0  0  0
  6  7  1  0  0  0  0
  8  9  1  0  0  0  0
  9 16  2  0  0  0  0
  9 10  1  0  0  0  0
 11  3  2  0  0  0  0
 11 24  1  0  0  0  0
 12 11  1  0  0  0  0
 13  2  1  0  0  0  0
 13  6  2  0  0  0  0
 14 15  1  0  0  0  0
 14 16  1  0  0  0  0
 16 17  1  0  0  0  0
 18 20  1  0  0  0  0
 18 21  1  0  0  0  0
 18 19  1  0  0  0  0
 22 14  2  0  0  0  0
 23 22  1  0  0  0  0
 24 26  2  0  0  0  0
 25 24  1  0  0  0  0
 26 27  1  0  0  0  0
M  END
