1,2,3
 OpenBabel05122313063D

 51 53  0  0  1  0  0  0  0  0999 V2000
   -3.0462   -0.7216   -1.3124 S   0  0  0  0  0  0  0  0  0  0  0  0
   -0.1374    2.2685    0.2201 C   0  0  0  0  0  3  0  0  0  0  0  0
    0.3150   -0.1766   -0.8025 N   0  0  0  0  0  0  0  0  0  0  0  0
    0.3894   -0.6367    0.1212 H   0  0  0  0  0  0  0  0  0  0  0  0
    1.2231    1.9411    0.0009 C   0  0  0  0  0  0  0  0  0  0  0  0
    1.5053    0.7461   -0.8875 C   0  0  1  0  0  0  0  0  0  0  0  0
    1.5285    1.0949   -1.9435 H   0  0  0  0  0  0  0  0  0  0  0  0
    1.9481   -0.7715    1.4481 O   0  0  0  0  0  0  0  0  0  0  0  0
    2.2238   -1.1973    2.2803 H   0  0  0  0  0  0  0  0  0  0  0  0
    2.8166    0.0416   -0.6055 C   0  0  0  0  0  0  0  0  0  0  0  0
    3.0181   -0.6684    0.6002 C   0  0  0  0  0  0  0  0  0  0  0  0
    4.2563   -1.2612    0.9066 C   0  0  0  0  0  0  0  0  0  0  0  0
    4.3645   -1.8104    1.8530 H   0  0  0  0  0  0  0  0  0  0  0  0
    3.9061    0.1271   -1.4930 C   0  0  0  0  0  0  0  0  0  0  0  0
    3.7700    0.6809   -2.4355 H   0  0  0  0  0  0  0  0  0  0  0  0
   -0.4489    3.3926    1.0073 C   0  0  0  0  0  0  0  0  0  0  0  0
   -1.5049    3.6479    1.1779 H   0  0  0  0  0  0  0  0  0  0  0  0
    5.1482   -0.4463   -1.2116 C   0  0  0  0  0  0  0  0  0  0  0  0
    5.9949   -0.3669   -1.9068 H   0  0  0  0  0  0  0  0  0  0  0  0
    6.5630   -1.6771    0.2108 O   0  0  0  0  0  0  0  0  0  0  0  0
   -2.0871   -1.9474   -2.2715 C   0  0  0  0  0  0  0  0  0  0  0  0
   -2.7168   -2.8499   -2.4039 H   0  0  0  0  0  0  0  0  0  0  0  0
   -2.0074   -1.4729   -3.2717 H   0  0  0  0  0  0  0  0  0  0  0  0
   -3.3960   -1.6055    0.2204 C   0  0  0  0  0  0  0  0  0  0  0  0
    0.5792    4.1783    1.5561 C   0  0  0  0  0  0  0  0  0  0  0  0
    0.3212    5.0578    2.1675 H   0  0  0  0  0  0  0  0  0  0  0  0
   -0.7031   -2.3049   -1.7285 C   0  0  0  0  0  0  0  0  0  0  0  0
   -0.7804   -2.6495   -0.6743 H   0  0  0  0  0  0  0  0  0  0  0  0
   -0.3416   -3.1840   -2.3043 H   0  0  0  0  0  0  0  0  0  0  0  0
    0.3662   -1.2187   -1.8488 C   0  0  0  0  0  0  0  0  0  0  0  0
    1.3698   -1.6989   -1.8134 H   0  0  0  0  0  0  0  0  0  0  0  0
    0.2908   -0.7109   -2.8337 H   0  0  0  0  0  0  0  0  0  0  0  0
    2.2480    2.7284    0.5542 C   0  0  0  0  0  0  0  0  0  0  0  0
    3.3010    2.4571    0.3770 H   0  0  0  0  0  0  0  0  0  0  0  0
   -3.3869   -3.0095    0.3200 C   0  0  0  0  0  0  0  0  0  0  0  0
   -3.1321   -3.6405   -0.5427 H   0  0  0  0  0  0  0  0  0  0  0  0
   -3.7167   -3.6230    1.5400 C   0  0  0  0  0  0  0  0  0  0  0  0
   -3.7025   -4.7215    1.6108 H   0  0  0  0  0  0  0  0  0  0  0  0
   -3.7535   -0.8192    1.3359 C   0  0  0  0  0  0  0  0  0  0  0  0
   -3.7603    0.2802    1.2412 H   0  0  0  0  0  0  0  0  0  0  0  0
    1.9262    3.8510    1.3317 C   0  0  0  0  0  0  0  0  0  0  0  0
    2.7284    4.4679    1.7649 H   0  0  0  0  0  0  0  0  0  0  0  0
   -4.0661   -2.8477    2.6548 C   0  0  0  0  0  0  0  0  0  0  0  0
   -4.3238   -3.3335    3.6079 H   0  0  0  0  0  0  0  0  0  0  0  0
   -4.0877   -1.4474    2.5430 C   0  0  0  0  0  0  0  0  0  0  0  0
   -4.3641   -0.8269    3.4091 H   0  0  0  0  0  0  0  0  0  0  0  0
    6.8040   -2.3727    1.4187 C   0  0  0  0  0  0  0  0  0  0  0  0
    6.6607   -1.7199    2.3091 H   0  0  0  0  0  0  0  0  0  0  0  0
    7.8579   -2.7051    1.3847 H   0  0  0  0  0  0  0  0  0  0  0  0
    6.1483   -3.2668    1.5212 H   0  0  0  0  0  0  0  0  0  0  0  0
    5.3306   -1.1450    0.0005 C   0  0  0  0  0  0  0  0  0  0  0  0
  1 24  1  0  0  0  0
  2 16  1  0  0  0  0
  3  4  1  0  0  0  0
  5  2  2  0  0  0  0
  5 33  1  0  0  0  0
  6  7  1  6  0  0  0
  6  3  1  0  0  0  0
  6 10  1  0  0  0  0
  6  5  1  0  0  0  0
  8  9  1  0  0  0  0
 10 11  1  0  0  0  0
 11 12  2  0  0  0  0
 11  8  1  0  0  0  0
 12 13  1  0  0  0  0
 14 18  1  0  0  0  0
 14 10  2  0  0  0  0
 15 14  1  0  0  0  0
 16 17  1  0  0  0  0
 16 25  2  0  0  0  0
 18 51  2  0  0  0  0
 19 18  1  0  0  0  0
 20 47  1  0  0  0  0
 21 27  1  0  0  0  0
 21  1  1  0  0  0  0
 22 21  1  0  0  0  0
 23 21  1  0  0  0  0
 24 35  2  0  0  0  0
 24 39  1  0  0  0  0
 25 26  1  0  0  0  0
 27 28  1  0  0  0  0
 29 27  1  0  0  0  0
 30 31  1  0  0  0  0
 30 27  1  0  0  0  0
 30  3  1  0  0  0  0
 32 30  1  0  0  0  0
 33 41  2  0  0  0  0
 34 33  1  0  0  0  0
 35 37  1  0  0  0  0
 36 35  1  0  0  0  0
 37 38  1  0  0  0  0
 37 43  2  0  0  0  0
 39 45  2  0  0  0  0
 40 39  1  0  0  0  0
 41 25  1  0  0  0  0
 41 42  1  0  0  0  0
 43 44  1  0  0  0  0
 45 43  1  0  0  0  0
 45 46  1  0  0  0  0
 47 50  1  0  0  0  0
 47 48  1  0  0  0  0
 49 47  1  0  0  0  0
 51 20  1  0  0  0  0
 51 12  1  0  0  0  0
M  END
