1,6,10
 OpenBabel05122313063D

 29 30  0  0  0  0  0  0  0  0999 V2000
   -1.4957    1.6059    0.0927 S   0  0  0  0  0  1  0  0  0  0  0  0
   -0.0789   -4.7999   -0.0474 S   0  0  0  0  0  0  0  0  0  0  0  0
   -4.1382    1.4705    0.0577 N   0  0  0  0  0  0  0  0  0  0  0  0
   -3.9185    2.4681    0.0929 H   0  0  0  0  0  0  0  0  0  0  0  0
   -3.1236   -0.6349    0.0042 N   0  0  0  0  0  0  0  0  0  0  0  0
   -1.9353   -1.2781   -0.0004 N   0  0  0  0  0  2  0  0  0  0  0  0
   -3.0137    0.6798    0.0448 C   0  0  0  0  0  0  0  0  0  0  0  0
   -1.8946   -2.6020   -0.0354 C   0  0  0  0  0  0  0  0  0  0  0  0
   -0.5442   -3.1133   -0.0353 C   0  0  0  0  0  0  0  0  0  0  0  0
    0.5631   -2.2447   -0.0078 C   0  0  0  0  0  2  0  0  0  0  0  0
    1.7819   -2.9831    0.0027 C   0  0  0  0  0  0  0  0  0  0  0  0
    2.7850   -2.5349    0.0305 H   0  0  0  0  0  0  0  0  0  0  0  0
    1.5943   -4.3619   -0.0191 C   0  0  0  0  0  0  0  0  0  0  0  0
    2.3580   -5.1500   -0.0176 H   0  0  0  0  0  0  0  0  0  0  0  0
   -3.1391   -3.4303   -0.0680 C   0  0  0  0  0  0  0  0  0  0  0  0
   -3.7726   -3.2067    0.8149 H   0  0  0  0  0  0  0  0  0  0  0  0
   -2.9081   -4.5113   -0.0862 H   0  0  0  0  0  0  0  0  0  0  0  0
   -3.7480   -3.1728   -0.9590 H   0  0  0  0  0  0  0  0  0  0  0  0
   -5.5030    1.1598    0.0337 C   0  0  0  0  0  0  0  0  0  0  0  0
   -6.0118   -0.1586   -0.0174 C   0  0  0  0  0  0  0  0  0  0  0  0
   -5.3026   -0.9939   -0.0386 H   0  0  0  0  0  0  0  0  0  0  0  0
   -7.3982   -0.3642   -0.0394 C   0  0  0  0  0  0  0  0  0  0  0  0
   -7.7803   -1.3961   -0.0793 H   0  0  0  0  0  0  0  0  0  0  0  0
   -8.2978    0.7127   -0.0115 C   0  0  0  0  0  0  0  0  0  0  0  0
   -9.3833    0.5355   -0.0291 H   0  0  0  0  0  0  0  0  0  0  0  0
   -7.7913    2.0223    0.0397 C   0  0  0  0  0  0  0  0  0  0  0  0
   -8.4778    2.8824    0.0626 H   0  0  0  0  0  0  0  0  0  0  0  0
   -6.4115    2.2463    0.0621 C   0  0  0  0  0  0  0  0  0  0  0  0
   -6.0209    3.2762    0.1024 H   0  0  0  0  0  0  0  0  0  0  0  0
  2  9  1  0  0  0  0
  2 13  1  0  0  0  0
  3  4  1  0  0  0  0
  5  7  2  0  0  0  0
  6  5  1  0  0  0  0
  7  3  1  0  0  0  0
  7  1  1  0  0  0  0
  8  9  2  0  0  0  0
  8  6  1  0  0  0  0
  9 10  1  0  0  0  0
 10 11  1  0  0  0  0
 11 12  1  0  0  0  0
 13 14  1  0  0  0  0
 13 11  2  0  0  0  0
 15  8  1  0  0  0  0
 15 16  1  0  0  0  0
 17 15  1  0  0  0  0
 18 15  1  0  0  0  0
 19  3  1  0  0  0  0
 19 28  1  0  0  0  0
 20 19  2  0  0  0  0
 21 20  1  0  0  0  0
 22 20  1  0  0  0  0
 22 24  2  0  0  0  0
 23 22  1  0  0  0  0
 24 26  1  0  0  0  0
 25 24  1  0  0  0  0
 26 28  2  0  0  0  0
 26 27  1  0  0  0  0
 28 29  1  0  0  0  0
M  END
