1,2,7
 OpenBabel05122313063D

 25 25  0  0  0  0  0  0  0  0999 V2000
    0.4951   -3.0174   -0.0722 S   0  0  0  0  0  1  0  0  0  0  0  0
    2.8402   -1.2211    0.0152 N   0  0  0  0  0  2  0  0  0  0  0  0
    3.2223   -2.5179   -0.0007 N   0  0  0  0  0  0  0  0  0  0  0  0
    2.5538   -4.7087   -0.0170 N   0  0  0  0  0  0  0  0  0  0  0  0
    1.8303   -5.3972   -0.2098 H   0  0  0  0  0  0  0  0  0  0  0  0
    3.5338   -4.9630   -0.1378 H   0  0  0  0  0  0  0  0  0  0  0  0
    1.7284    1.2057    0.0383 C   0  0  0  0  0  2  0  0  0  0  0  0
    1.1762    2.4932    0.0466 C   0  0  0  0  0  0  0  0  0  0  0  0
    0.0834    2.6253    0.0354 H   0  0  0  0  0  0  0  0  0  0  0  0
    1.9694    3.6686    0.0554 C   0  0  0  0  0  0  0  0  0  0  0  0
    3.3683    3.5374    0.0606 C   0  0  0  0  0  0  0  0  0  0  0  0
    4.0023    4.4379    0.0652 H   0  0  0  0  0  0  0  0  0  0  0  0
    3.9607    2.2646    0.0584 C   0  0  0  0  0  0  0  0  0  0  0  0
    5.0583    2.1789    0.0622 H   0  0  0  0  0  0  0  0  0  0  0  0
    3.1645    1.1036    0.0473 C   0  0  0  0  0  0  0  0  0  0  0  0
    3.7340   -0.2433    0.0387 C   0  0  0  0  0  0  0  0  0  0  0  0
    2.2235   -3.3861   -0.0317 C   0  0  0  0  0  0  0  0  0  0  0  0
    1.2996    5.0191    0.0566 C   0  0  0  0  0  0  0  0  0  0  0  0
    0.6094    5.1230   -0.8072 H   0  0  0  0  0  0  0  0  0  0  0  0
    0.6832    5.1603    0.9700 H   0  0  0  0  0  0  0  0  0  0  0  0
    2.0348    5.8460    0.0114 H   0  0  0  0  0  0  0  0  0  0  0  0
    5.2035   -0.5176    0.0515 C   0  0  0  0  0  0  0  0  0  0  0  0
    5.3811   -1.6070    0.0531 H   0  0  0  0  0  0  0  0  0  0  0  0
    5.6927   -0.0658   -0.8366 H   0  0  0  0  0  0  0  0  0  0  0  0
    5.6775   -0.0640    0.9466 H   0  0  0  0  0  0  0  0  0  0  0  0
  1 17  1  0  0  0  0
  2 16  1  0  0  0  0
  3  2  1  0  0  0  0
  5  4  1  0  0  0  0
  6  4  1  0  0  0  0
  7  8  1  0  0  0  0
  7 15  1  0  0  0  0
  8 10  2  0  0  0  0
  9  8  1  0  0  0  0
 10 18  1  0  0  0  0
 10 11  1  0  0  0  0
 11 12  1  0  0  0  0
 13 11  2  0  0  0  0
 13 14  1  0  0  0  0
 15 13  1  0  0  0  0
 16 15  2  0  0  0  0
 16 22  1  0  0  0  0
 17  4  1  0  0  0  0
 17  3  2  0  0  0  0
 18 20  1  0  0  0  0
 19 18  1  0  0  0  0
 21 18  1  0  0  0  0
 22 23  1  0  0  0  0
 22 25  1  0  0  0  0
 24 22  1  0  0  0  0
M  END
