1,3
 OpenBabel05122313063D

 41 44  0  0  1  0  0  0  0  0999 V2000
    1.7980    0.0148    0.3840 P   0  0  2  0  0  0  0  0  0  0  0  0
    1.7790   -0.5819   -2.5625 O   0  0  0  0  0  0  0  0  0  0  0  0
    0.0281   -2.1308   -0.8397 N   0  0  0  0  0  1  0  0  0  0  0  0
    3.0647   -0.5992   -2.0623 C   0  0  0  0  0  0  0  0  0  0  0  0
    4.1798   -0.8772   -2.8742 C   0  0  0  0  0  0  0  0  0  0  0  0
    4.0562   -1.1086   -3.9392 H   0  0  0  0  0  0  0  0  0  0  0  0
    5.4659   -0.8454   -2.3173 C   0  0  0  0  0  0  0  0  0  0  0  0
    6.3304   -1.0607   -2.9627 H   0  0  0  0  0  0  0  0  0  0  0  0
    5.6607   -0.5333   -0.9623 C   0  0  0  0  0  0  0  0  0  0  0  0
    6.6739   -0.4993   -0.5376 H   0  0  0  0  0  0  0  0  0  0  0  0
    4.5491   -0.2604   -0.1572 C   0  0  0  0  0  0  0  0  0  0  0  0
    4.6840   -0.0046    0.9056 H   0  0  0  0  0  0  0  0  0  0  0  0
    3.2441   -0.3040   -0.6895 C   0  0  0  0  0  0  0  0  0  0  0  0
    2.1908    1.6160    1.1827 C   0  0  0  0  0  0  0  0  0  0  0  0
    2.1105    1.8189    2.5756 C   0  0  0  0  0  0  0  0  0  0  0  0
    1.8780    0.9831    3.2495 H   0  0  0  0  0  0  0  0  0  0  0  0
    2.3631    3.0914    3.1113 C   0  0  0  0  0  0  0  0  0  0  0  0
    2.3102    3.2405    4.2002 H   0  0  0  0  0  0  0  0  0  0  0  0
    2.6963    4.1632    2.2678 C   0  0  0  0  0  0  0  0  0  0  0  0
    2.8887    5.1597    2.6922 H   0  0  0  0  0  0  0  0  0  0  0  0
    2.8036    3.9573    0.8833 C   0  0  0  0  0  0  0  0  0  0  0  0
    3.0752    4.7883    0.2163 H   0  0  0  0  0  0  0  0  0  0  0  0
    2.5594    2.6883    0.3407 C   0  0  0  0  0  0  0  0  0  0  0  0
    2.6727    2.5311   -0.7416 H   0  0  0  0  0  0  0  0  0  0  0  0
    1.7934   -1.3095    1.6485 C   0  0  0  0  0  0  0  0  0  0  0  0
    0.8401   -1.2866    2.6385 C   0  0  0  0  0  0  0  0  0  0  0  0
    0.2290   -0.3868    2.8002 H   0  0  0  0  0  0  0  0  0  0  0  0
    0.5513   -2.4414    3.4638 C   0  0  0  0  0  0  0  0  0  0  0  0
   -0.1134   -2.3121    4.3297 H   0  0  0  0  0  0  0  0  0  0  0  0
    1.0641   -3.6675    3.1652 C   0  0  0  0  0  0  0  0  0  0  0  0
    0.8679   -4.5357    3.8122 H   0  0  0  0  0  0  0  0  0  0  0  0
    1.9448   -3.8622    1.9864 C   0  0  2  0  0  0  0  0  0  0  0  0
    2.6759   -4.6866    2.0633 H   0  0  0  0  0  0  0  0  0  0  0  0
    2.4705   -2.5872    1.2960 C   0  0  1  0  0  0  0  0  0  0  0  0
    3.5128   -2.5661    0.9327 H   0  0  0  0  0  0  0  0  0  0  0  0
    1.5330   -1.0027   -3.9209 C   0  0  0  0  0  0  0  0  0  0  0  0
    0.4353   -0.9743   -4.0394 H   0  0  0  0  0  0  0  0  0  0  0  0
    1.9083   -2.0343   -4.0707 H   0  0  0  0  0  0  0  0  0  0  0  0
    2.0188   -0.3011   -4.6275 H   0  0  0  0  0  0  0  0  0  0  0  0
    0.5994   -2.9376   -0.1402 C   0  0  0  0  0  2  0  0  0  0  0  0
    1.5194   -3.5616    0.5930 C   0  0  2  0  0  3  0  0  0  0  0  0
  1 13  1  6  0  0  0
  1 14  1  0  0  0  0
  1 25  1  0  0  0  0
  2  4  1  0  0  0  0
  3 40  1  0  0  0  0
  4 13  1  0  0  0  0
  5  7  1  0  0  0  0
  5  4  2  0  0  0  0
  6  5  1  0  0  0  0
  7  9  2  0  0  0  0
  8  7  1  0  0  0  0
  9 10  1  0  0  0  0
  9 11  1  0  0  0  0
 11 12  1  0  0  0  0
 13 11  2  0  0  0  0
 14 15  1  0  0  0  0
 15 17  2  0  0  0  0
 15 16  1  0  0  0  0
 17 18  1  0  0  0  0
 19 20  1  0  0  0  0
 19 17  1  0  0  0  0
 21 19  2  0  0  0  0
 22 21  1  0  0  0  0
 23 21  1  0  0  0  0
 23 14  2  0  0  0  0
 24 23  1  0  0  0  0
 25 26  2  0  0  0  0
 26 27  1  0  0  0  0
 26 28  1  0  0  0  0
 28 29  1  0  0  0  0
 30 28  2  0  0  0  0
 30 31  1  0  0  0  0
 32 33  1  1  0  0  0
 32 30  1  0  0  0  0
 34 35  1  6  0  0  0
 34 25  1  0  0  0  0
 34 32  1  0  0  0  0
 36  2  1  0  0  0  0
 37 36  1  0  0  0  0
 38 36  1  0  0  0  0
 39 36  1  0  0  0  0
 41 40  1  1  0  0  0
 41 34  1  0  0  0  0
 41 32  1  0  0  0  0
M  END
