1,12
 OpenBabel05122313063D

 34 36  0  0  0  0  0  0  0  0999 V2000
    0.1476    0.4556   -2.4252 N   0  0  0  0  0  1  0  0  0  0  0  0
   -0.0237    1.7931   -2.3683 C   0  0  0  0  0  0  0  0  0  0  0  0
    0.4644    2.4771   -1.1941 C   0  0  0  0  0  0  0  0  0  0  0  0
    0.5443    3.8769   -1.1711 C   0  0  0  0  0  0  0  0  0  0  0  0
    1.0381    4.3953   -0.3355 H   0  0  0  0  0  0  0  0  0  0  0  0
    0.0090    4.6257   -2.2310 C   0  0  0  0  0  0  0  0  0  0  0  0
    0.0647    5.7239   -2.2116 H   0  0  0  0  0  0  0  0  0  0  0  0
   -0.5693    3.9638   -3.3408 C   0  0  0  0  0  0  0  0  0  0  0  0
   -0.9989    4.5587   -4.1618 H   0  0  0  0  0  0  0  0  0  0  0  0
   -0.5560    2.5742   -3.4415 C   0  0  0  0  0  0  0  0  0  0  0  0
   -0.9532    2.0524   -4.3240 H   0  0  0  0  0  0  0  0  0  0  0  0
    0.9918    1.2347    0.0398 P   0  0  0  0  0  0  0  0  0  0  0  0
    2.8310    1.3569    0.0682 C   0  0  0  0  0  0  0  0  0  0  0  0
    3.5848    1.0227    1.2096 C   0  0  0  0  0  0  0  0  0  0  0  0
    3.0800    0.7728    2.1541 H   0  0  0  0  0  0  0  0  0  0  0  0
    4.9864    1.0093    1.1489 C   0  0  0  0  0  0  0  0  0  0  0  0
    5.5669    0.7423    2.0446 H   0  0  0  0  0  0  0  0  0  0  0  0
    5.6428    1.3262   -0.0492 C   0  0  0  0  0  0  0  0  0  0  0  0
    6.7420    1.3057   -0.0975 H   0  0  0  0  0  0  0  0  0  0  0  0
    4.8940    1.6593   -1.1892 C   0  0  0  0  0  0  0  0  0  0  0  0
    5.4035    1.9016   -2.1340 H   0  0  0  0  0  0  0  0  0  0  0  0
    3.4941    1.6729   -1.1360 C   0  0  0  0  0  0  0  0  0  0  0  0
    2.9113    1.9141   -2.0366 H   0  0  0  0  0  0  0  0  0  0  0  0
    0.5015    1.7313    1.7420 C   0  0  0  0  0  0  0  0  0  0  0  0
    0.5471    0.7440    2.7503 C   0  0  0  0  0  0  0  0  0  0  0  0
    0.8184   -0.2871    2.4922 H   0  0  0  0  0  0  0  0  0  0  0  0
    0.2350    1.0669    4.0786 C   0  0  0  0  0  0  0  0  0  0  0  0
    0.2712    0.2823    4.8494 H   0  0  0  0  0  0  0  0  0  0  0  0
   -0.1290    2.3790    4.4172 C   0  0  0  0  0  0  0  0  0  0  0  0
   -0.3755    2.6343    5.4590 H   0  0  0  0  0  0  0  0  0  0  0  0
   -0.1894    3.3609    3.4169 C   0  0  0  0  0  0  0  0  0  0  0  0
   -0.4945    4.3879    3.6682 H   0  0  0  0  0  0  0  0  0  0  0  0
    0.1223    3.0424    2.0872 C   0  0  0  0  0  0  0  0  0  0  0  0
    0.0365    3.8167    1.3154 H   0  0  0  0  0  0  0  0  0  0  0  0
  1  2  1  0  0  0  0
  2  3  1  0  0  0  0
  3  4  2  0  0  0  0
  3 12  1  0  0  0  0
  4  5  1  0  0  0  0
  6  7  1  0  0  0  0
  6  4  1  0  0  0  0
  8  6  2  0  0  0  0
  9  8  1  0  0  0  0
 10  8  1  0  0  0  0
 10  2  2  0  0  0  0
 11 10  1  0  0  0  0
 12 13  1  0  0  0  0
 12 24  1  0  0  0  0
 13 14  1  0  0  0  0
 14 15  1  0  0  0  0
 16 14  2  0  0  0  0
 16 17  1  0  0  0  0
 18 16  1  0  0  0  0
 19 18  1  0  0  0  0
 20 22  1  0  0  0  0
 20 18  2  0  0  0  0
 21 20  1  0  0  0  0
 22 13  2  0  0  0  0
 23 22  1  0  0  0  0
 24 33  2  0  0  0  0
 24 25  1  0  0  0  0
 25 27  2  0  0  0  0
 26 25  1  0  0  0  0
 27 29  1  0  0  0  0
 27 28  1  0  0  0  0
 29 30  1  0  0  0  0
 31 32  1  0  0  0  0
 31 29  2  0  0  0  0
 33 31  1  0  0  0  0
 34 33  1  0  0  0  0
M  END
