1,2,3,4
 OpenBabel05122313063D

 64 66  0  0  0  0  0  0  0  0999 V2000
    0.0015    0.0090   -2.9757 P   0  0  0  0  0  0  0  0  0  0  0  0
   -1.4998    1.0566   -0.7299 N   0  0  0  0  0  2  0  0  0  0  0  0
   -0.1611   -1.8209   -0.7347 N   0  0  0  0  0  2  0  0  0  0  0  0
    1.6638    0.7763   -0.7295 N   0  0  0  0  0  2  0  0  0  0  0  0
   -1.4044    0.9940   -2.1829 C   0  0  0  0  0  0  0  0  0  0  0  0
   -1.3008    2.0124   -2.6256 H   0  0  0  0  0  0  0  0  0  0  0  0
   -2.3263    0.5532   -2.6297 H   0  0  0  0  0  0  0  0  0  0  0  0
   -0.1497   -1.7031   -2.1875 C   0  0  0  0  0  0  0  0  0  0  0  0
   -1.0820   -2.1218   -2.6338 H   0  0  0  0  0  0  0  0  0  0  0  0
    0.6945   -2.2794   -2.6336 H   0  0  0  0  0  0  0  0  0  0  0  0
    1.5584    0.7322   -2.1827 C   0  0  0  0  0  0  0  0  0  0  0  0
    2.3885    0.1365   -2.6297 H   0  0  0  0  0  0  0  0  0  0  0  0
    1.6352    1.7531   -2.6251 H   0  0  0  0  0  0  0  0  0  0  0  0
   -2.5644    1.7994   -0.1745 C   0  0  0  0  0  0  0  0  0  0  0  0
   -2.7033    1.8835    1.2332 C   0  0  0  0  0  0  0  0  0  0  0  0
   -1.9700    1.3617    1.8661 H   0  0  0  0  0  0  0  0  0  0  0  0
   -3.7457    2.6106    1.8168 C   0  0  0  0  0  0  0  0  0  0  0  0
   -4.6744    3.2713    0.9797 C   0  0  0  0  0  0  0  0  0  0  0  0
   -5.4988    3.8462    1.4317 H   0  0  0  0  0  0  0  0  0  0  0  0
   -4.5645    3.2073   -0.4163 C   0  0  0  0  0  0  0  0  0  0  0  0
   -3.5058    2.4687   -0.9869 C   0  0  0  0  0  0  0  0  0  0  0  0
   -3.4332    2.4283   -2.0823 H   0  0  0  0  0  0  0  0  0  0  0  0
   -3.8830    2.6930    3.3172 C   0  0  0  0  0  0  0  0  0  0  0  0
   -4.8621    2.2918    3.6532 H   0  0  0  0  0  0  0  0  0  0  0  0
   -3.8322    3.7454    3.6673 H   0  0  0  0  0  0  0  0  0  0  0  0
   -3.0859    2.1235    3.8321 H   0  0  0  0  0  0  0  0  0  0  0  0
   -5.5542    3.9109   -1.3131 C   0  0  0  0  0  0  0  0  0  0  0  0
   -6.0742    3.1936   -1.9824 H   0  0  0  0  0  0  0  0  0  0  0  0
   -5.0500    4.6521   -1.9683 H   0  0  0  0  0  0  0  0  0  0  0  0
   -6.3258    4.4471   -0.7279 H   0  0  0  0  0  0  0  0  0  0  0  0
   -0.2779   -3.1152   -0.1826 C   0  0  0  0  0  0  0  0  0  0  0  0
   -0.2955   -3.2792    1.2247 C   0  0  0  0  0  0  0  0  0  0  0  0
   -0.2172   -2.3841    1.8598 H   0  0  0  0  0  0  0  0  0  0  0  0
   -0.4097   -4.5462    1.8057 C   0  0  0  0  0  0  0  0  0  0  0  0
   -0.5093   -5.6799    0.9662 C   0  0  0  0  0  0  0  0  0  0  0  0
   -0.5997   -6.6818    1.4161 H   0  0  0  0  0  0  0  0  0  0  0  0
   -0.4950   -5.5511   -0.4296 C   0  0  0  0  0  0  0  0  0  0  0  0
   -0.3789   -4.2643   -0.9975 C   0  0  0  0  0  0  0  0  0  0  0  0
   -0.3691   -4.1800   -2.0927 H   0  0  0  0  0  0  0  0  0  0  0  0
   -0.4273   -4.7083    3.3058 C   0  0  0  0  0  0  0  0  0  0  0  0
   -1.3655   -5.1949    3.6457 H   0  0  0  0  0  0  0  0  0  0  0  0
   -0.3418   -3.7336    3.8229 H   0  0  0  0  0  0  0  0  0  0  0  0
    0.4091   -5.3525    3.6493 H   0  0  0  0  0  0  0  0  0  0  0  0
   -0.6008   -6.7587   -1.3291 C   0  0  0  0  0  0  0  0  0  0  0  0
    0.2873   -6.8501   -1.9891 H   0  0  0  0  0  0  0  0  0  0  0  0
   -1.4877   -6.6911   -1.9938 H   0  0  0  0  0  0  0  0  0  0  0  0
   -0.6863   -7.6957   -0.7460 H   0  0  0  0  0  0  0  0  0  0  0  0
    2.8430    1.3189   -0.1738 C   0  0  0  0  0  0  0  0  0  0  0  0
    2.9946    1.3759    1.2339 C   0  0  0  0  0  0  0  0  0  0  0  0
    2.1806    0.9921    1.8670 H   0  0  0  0  0  0  0  0  0  0  0  0
    4.1493    1.9063    1.8181 C   0  0  0  0  0  0  0  0  0  0  0  0
    5.1805    2.3928    0.9815 C   0  0  0  0  0  0  0  0  0  0  0  0
    6.0937    2.8122    1.4340 H   0  0  0  0  0  0  0  0  0  0  0  0
    5.0610    2.3507   -0.4145 C   0  0  0  0  0  0  0  0  0  0  0  0
    3.8883    1.8118   -0.9856 C   0  0  0  0  0  0  0  0  0  0  0  0
    3.8098    1.7862   -2.0809 H   0  0  0  0  0  0  0  0  0  0  0  0
    4.2996    1.9606    3.3185 C   0  0  0  0  0  0  0  0  0  0  0  0
    4.4460    3.0036    3.6695 H   0  0  0  0  0  0  0  0  0  0  0  0
    5.1868    1.3835    3.6538 H   0  0  0  0  0  0  0  0  0  0  0  0
    3.4106    1.5489    3.8332 H   0  0  0  0  0  0  0  0  0  0  0  0
    6.1591    2.8697   -1.3109 C   0  0  0  0  0  0  0  0  0  0  0  0
    6.5417    2.0738   -1.9838 H   0  0  0  0  0  0  0  0  0  0  0  0
    7.0148    3.2574   -0.7253 H   0  0  0  0  0  0  0  0  0  0  0  0
    5.7944    3.6916   -1.9623 H   0  0  0  0  0  0  0  0  0  0  0  0
  1  8  1  0  0  0  0
  1  5  1  0  0  0  0
  1 11  1  0  0  0  0
  2 14  1  0  0  0  0
  3 31  1  0  0  0  0
  4 48  1  0  0  0  0
  5  2  1  0  0  0  0
  6  5  1  0  0  0  0
  7  5  1  0  0  0  0
  8  3  1  0  0  0  0
  9  8  1  0  0  0  0
 10  8  1  0  0  0  0
 11  4  1  0  0  0  0
 12 11  1  0  0  0  0
 13 11  1  0  0  0  0
 14 15  1  0  0  0  0
 15 17  2  0  0  0  0
 15 16  1  0  0  0  0
 17 23  1  0  0  0  0
 18 19  1  0  0  0  0
 18 17  1  0  0  0  0
 20 18  2  0  0  0  0
 21 20  1  0  0  0  0
 21 14  2  0  0  0  0
 22 21  1  0  0  0  0
 23 24  1  0  0  0  0
 23 25  1  0  0  0  0
 23 26  1  0  0  0  0
 27 30  1  0  0  0  0
 27 20  1  0  0  0  0
 28 27  1  0  0  0  0
 29 27  1  0  0  0  0
 31 32  1  0  0  0  0
 32 34  2  0  0  0  0
 32 33  1  0  0  0  0
 34 40  1  0  0  0  0
 35 36  1  0  0  0  0
 35 34  1  0  0  0  0
 37 35  2  0  0  0  0
 38 37  1  0  0  0  0
 38 31  2  0  0  0  0
 39 38  1  0  0  0  0
 40 41  1  0  0  0  0
 40 43  1  0  0  0  0
 40 42  1  0  0  0  0
 44 47  1  0  0  0  0
 44 37  1  0  0  0  0
 45 44  1  0  0  0  0
 46 44  1  0  0  0  0
 48 49  1  0  0  0  0
 49 51  2  0  0  0  0
 49 50  1  0  0  0  0
 51 57  1  0  0  0  0
 52 53  1  0  0  0  0
 52 51  1  0  0  0  0
 54 52  2  0  0  0  0
 55 54  1  0  0  0  0
 55 48  2  0  0  0  0
 56 55  1  0  0  0  0
 57 59  1  0  0  0  0
 57 58  1  0  0  0  0
 57 60  1  0  0  0  0
 61 63  1  0  0  0  0
 61 54  1  0  0  0  0
 62 61  1  0  0  0  0
 64 61  1  0  0  0  0
M  END
