1,2,3,5
 OpenBabel05122313063D

 55 57  0  0  0  0  0  0  0  0999 V2000
    0.5949    0.3176   -0.8602 P   0  0  0  0  0  0  0  0  0  0  0  0
   -2.8531    0.5015   -0.9764 N   0  0  0  0  0  0  0  0  0  0  0  0
   -2.5912   -1.6743    0.9009 N   0  0  0  0  0  0  0  0  0  0  0  0
   -2.4057   -2.6487    0.6227 H   0  0  0  0  0  0  0  0  0  0  0  0
   -1.3903    0.6333    1.4880 N   0  0  0  0  0  0  0  0  0  0  0  0
   -0.4542    0.8560    1.8640 H   0  0  0  0  0  0  0  0  0  0  0  0
   -3.8642   -0.5692   -0.9460 C   0  0  0  0  0  0  0  0  0  0  0  0
   -3.5597   -1.3158   -1.7055 H   0  0  0  0  0  0  0  0  0  0  0  0
   -4.8835   -0.2024   -1.2201 H   0  0  0  0  0  0  0  0  0  0  0  0
   -3.9372   -1.2603    0.4156 C   0  0  0  0  0  0  0  0  0  0  0  0
   -4.3854   -0.5892    1.1743 H   0  0  0  0  0  0  0  0  0  0  0  0
   -4.6127   -2.1376    0.3459 H   0  0  0  0  0  0  0  0  0  0  0  0
   -2.3521   -1.4742    2.3481 C   0  0  0  0  0  0  0  0  0  0  0  0
   -1.3948   -1.9699    2.6005 H   0  0  0  0  0  0  0  0  0  0  0  0
   -3.1627   -1.9087    2.9752 H   0  0  0  0  0  0  0  0  0  0  0  0
   -2.2111    0.0237    2.5897 C   0  0  0  0  0  0  0  0  0  0  0  0
   -3.1983    0.5267    2.6047 H   0  0  0  0  0  0  0  0  0  0  0  0
   -1.7345    0.2162    3.5708 H   0  0  0  0  0  0  0  0  0  0  0  0
   -1.9625    1.8828    0.9180 C   0  0  0  0  0  0  0  0  0  0  0  0
   -1.1367    2.3906    0.3865 H   0  0  0  0  0  0  0  0  0  0  0  0
   -2.2899    2.5666    1.7319 H   0  0  0  0  0  0  0  0  0  0  0  0
   -3.1291    1.6090   -0.0452 C   0  0  0  0  0  0  0  0  0  0  0  0
   -4.0488    1.3826    0.5322 H   0  0  0  0  0  0  0  0  0  0  0  0
   -3.3545    2.5510   -0.5925 H   0  0  0  0  0  0  0  0  0  0  0  0
   -2.5533    0.9079   -2.3622 C   0  0  0  0  0  0  0  0  0  0  0  0
   -3.4015    1.5094   -2.7716 H   0  0  0  0  0  0  0  0  0  0  0  0
   -2.5025   -0.0245   -2.9598 H   0  0  0  0  0  0  0  0  0  0  0  0
   -1.2535    1.6927   -2.5814 C   0  0  0  0  0  0  0  0  0  0  0  0
   -1.2107    2.5700   -1.9014 H   0  0  0  0  0  0  0  0  0  0  0  0
   -1.3282    2.1286   -3.5994 H   0  0  0  0  0  0  0  0  0  0  0  0
    0.0610    0.8900   -2.5353 C   0  0  0  0  0  0  0  0  0  0  0  0
    0.8961    1.4695   -2.9809 H   0  0  0  0  0  0  0  0  0  0  0  0
   -0.0328   -0.0460   -3.1230 H   0  0  0  0  0  0  0  0  0  0  0  0
    2.1686   -0.6052   -1.0956 C   0  0  0  0  0  0  0  0  0  0  0  0
    2.2309   -2.0085   -0.9810 C   0  0  0  0  0  0  0  0  0  0  0  0
    1.3126   -2.5802   -0.7864 H   0  0  0  0  0  0  0  0  0  0  0  0
    3.4575   -2.6706   -1.1385 C   0  0  0  0  0  0  0  0  0  0  0  0
    3.4970   -3.7664   -1.0480 H   0  0  0  0  0  0  0  0  0  0  0  0
    4.6264   -1.9429   -1.4087 C   0  0  0  0  0  0  0  0  0  0  0  0
    5.5872   -2.4655   -1.5283 H   0  0  0  0  0  0  0  0  0  0  0  0
    4.5685   -0.5444   -1.5238 C   0  0  0  0  0  0  0  0  0  0  0  0
    5.4818    0.0323   -1.7330 H   0  0  0  0  0  0  0  0  0  0  0  0
    3.3477    0.1256   -1.3639 C   0  0  0  0  0  0  0  0  0  0  0  0
    3.3198    1.2234   -1.4345 H   0  0  0  0  0  0  0  0  0  0  0  0
    1.1892    1.8275    0.0142 C   0  0  0  0  0  0  0  0  0  0  0  0
    1.2626    3.0973   -0.5972 C   0  0  0  0  0  0  0  0  0  0  0  0
    0.9731    3.2340   -1.6486 H   0  0  0  0  0  0  0  0  0  0  0  0
    1.7264    4.2068    0.1285 C   0  0  0  0  0  0  0  0  0  0  0  0
    1.7857    5.1899   -0.3621 H   0  0  0  0  0  0  0  0  0  0  0  0
    2.1190    4.0642    1.4681 C   0  0  0  0  0  0  0  0  0  0  0  0
    2.4810    4.9366    2.0321 H   0  0  0  0  0  0  0  0  0  0  0  0
    2.0595    2.8018    2.0810 C   0  0  0  0  0  0  0  0  0  0  0  0
    2.3826    2.6781    3.1257 H   0  0  0  0  0  0  0  0  0  0  0  0
    1.6007    1.6887    1.3615 C   0  0  0  0  0  0  0  0  0  0  0  0
    1.5809    0.6952    1.8426 H   0  0  0  0  0  0  0  0  0  0  0  0
  1 45  1  0  0  0  0
  2  7  1  0  0  0  0
  2 22  1  0  0  0  0
  3 13  1  0  0  0  0
  4  3  1  0  0  0  0
  5  6  1  0  0  0  0
  5 16  1  0  0  0  0
  7 10  1  0  0  0  0
  8  7  1  0  0  0  0
  9  7  1  0  0  0  0
 10  3  1  0  0  0  0
 10 11  1  0  0  0  0
 12 10  1  0  0  0  0
 13 16  1  0  0  0  0
 13 14  1  0  0  0  0
 13 15  1  0  0  0  0
 16 17  1  0  0  0  0
 16 18  1  0  0  0  0
 19  5  1  0  0  0  0
 19 21  1  0  0  0  0
 20 19  1  0  0  0  0
 22 23  1  0  0  0  0
 22 19  1  0  0  0  0
 24 22  1  0  0  0  0
 25  2  1  0  0  0  0
 26 25  1  0  0  0  0
 27 25  1  0  0  0  0
 28 31  1  0  0  0  0
 28 25  1  0  0  0  0
 28 29  1  0  0  0  0
 30 28  1  0  0  0  0
 31  1  1  0  0  0  0
 32 31  1  0  0  0  0
 33 31  1  0  0  0  0
 34 35  1  0  0  0  0
 34  1  1  0  0  0  0
 35 36  1  0  0  0  0
 37 38  1  0  0  0  0
 37 35  2  0  0  0  0
 39 37  1  0  0  0  0
 40 39  1  0  0  0  0
 41 39  2  0  0  0  0
 41 43  1  0  0  0  0
 42 41  1  0  0  0  0
 43 34  2  0  0  0  0
 44 43  1  0  0  0  0
 45 54  1  0  0  0  0
 46 45  2  0  0  0  0
 46 48  1  0  0  0  0
 47 46  1  0  0  0  0
 48 50  2  0  0  0  0
 49 48  1  0  0  0  0
 50 51  1  0  0  0  0
 50 52  1  0  0  0  0
 52 53  1  0  0  0  0
 54 55  1  0  0  0  0
 54 52  2  0  0  0  0
M  END
