1,2,3,4
 OpenBabel05122313063D

 69 73  0  0  1  0  0  0  0  0999 V2000
   -1.3040    0.0884    0.2502 P   0  0  0  0  0  0  0  0  0  0  0  0
    2.0858   -1.4403    0.6896 N   0  0  0  0  0  2  0  0  0  0  0  0
    2.0151    1.7554    0.4969 N   0  0  0  0  0  2  0  0  0  0  0  0
    1.0989   -0.0967   -2.0463 N   0  0  0  0  0  0  0  0  0  0  0  0
    1.7350   -1.3923   -2.3867 C   0  0  0  0  0  0  0  0  0  0  0  0
    1.4445   -2.5455   -1.4031 C   0  0  0  0  0  0  0  0  0  0  0  0
    2.2589   -2.5072   -0.1365 C   0  0  1  0  0  3  0  0  0  0  0  0
    3.1739   -3.5259    0.1866 C   0  0  0  0  0  0  0  0  0  0  0  0
    3.9073   -3.4549    1.3777 C   0  0  0  0  0  0  0  0  0  0  0  0
    3.7168   -2.3507    2.2219 C   0  0  0  0  0  0  0  0  0  0  0  0
    2.8014   -1.3688    1.8354 C   0  0  0  0  0  0  0  0  0  0  0  0
    1.9391    1.0453   -2.4742 C   0  0  0  0  0  0  0  0  0  0  0  0
    3.1916    1.2805   -1.6084 C   0  0  0  0  0  0  0  0  0  0  0  0
    2.9815    2.1328   -0.3795 C   0  0  2  0  0  3  0  0  0  0  0  0
    3.7659    3.2763   -0.1407 C   0  0  0  0  0  0  0  0  0  0  0  0
    3.5644    4.0302    1.0222 C   0  0  0  0  0  0  0  0  0  0  0  0
    2.5705    3.6247    1.9253 C   0  0  0  0  0  0  0  0  0  0  0  0
    1.8192    2.4870    1.6185 C   0  0  0  0  0  0  0  0  0  0  0  0
   -0.2428    0.0376   -2.6872 C   0  0  0  0  0  0  0  0  0  0  0  0
   -1.2466   -1.0390   -2.3294 C   0  0  0  0  0  0  0  0  0  0  0  0
   -1.6197   -1.9834   -3.3024 C   0  0  0  0  0  0  0  0  0  0  0  0
   -2.5310   -3.0117   -3.0127 C   0  0  0  0  0  0  0  0  0  0  0  0
   -3.0890   -3.1025   -1.7308 C   0  0  0  0  0  0  0  0  0  0  0  0
   -2.7441   -2.1592   -0.7489 C   0  0  0  0  0  0  0  0  0  0  0  0
   -1.8352   -1.1239   -1.0359 C   0  0  0  0  0  0  0  0  0  0  0  0
   -2.1053   -0.4927    1.7924 C   0  0  0  0  0  0  0  0  0  0  0  0
   -3.3650   -0.0397    2.2318 C   0  0  0  0  0  0  0  0  0  0  0  0
   -3.9131   -0.5438    3.4219 C   0  0  0  0  0  0  0  0  0  0  0  0
   -3.2142   -1.5024    4.1727 C   0  0  0  0  0  0  0  0  0  0  0  0
   -1.9559   -1.9534    3.7394 C   0  0  0  0  0  0  0  0  0  0  0  0
   -1.3973   -1.4433    2.5596 C   0  0  0  0  0  0  0  0  0  0  0  0
   -2.2111    1.6121   -0.2374 C   0  0  0  0  0  0  0  0  0  0  0  0
   -1.6291    2.8617    0.0601 C   0  0  0  0  0  0  0  0  0  0  0  0
   -2.2912    4.0495   -0.2832 C   0  0  0  0  0  0  0  0  0  0  0  0
   -3.5323    3.9975   -0.9382 C   0  0  0  0  0  0  0  0  0  0  0  0
   -4.1101    2.7558   -1.2503 C   0  0  0  0  0  0  0  0  0  0  0  0
   -3.4541    1.5650   -0.9034 C   0  0  0  0  0  0  0  0  0  0  0  0
    2.8319   -1.2435   -2.4371 H   0  0  0  0  0  0  0  0  0  0  0  0
    1.4202   -1.7012   -3.4101 H   0  0  0  0  0  0  0  0  0  0  0  0
    1.6483   -3.4990   -1.9279 H   0  0  0  0  0  0  0  0  0  0  0  0
    0.3659   -2.5503   -1.1469 H   0  0  0  0  0  0  0  0  0  0  0  0
    3.2987   -4.3762   -0.4997 H   0  0  0  0  0  0  0  0  0  0  0  0
    4.6182   -4.2512    1.6439 H   0  0  0  0  0  0  0  0  0  0  0  0
    4.2667   -2.2482    3.1681 H   0  0  0  0  0  0  0  0  0  0  0  0
    2.6234   -0.4803    2.4621 H   0  0  0  0  0  0  0  0  0  0  0  0
    1.3030    1.9531   -2.4503 H   0  0  0  0  0  0  0  0  0  0  0  0
    2.2495    0.9083   -3.5380 H   0  0  0  0  0  0  0  0  0  0  0  0
    3.9665    1.7607   -2.2365 H   0  0  0  0  0  0  0  0  0  0  0  0
    3.6193    0.3024   -1.2960 H   0  0  0  0  0  0  0  0  0  0  0  0
    4.5361    3.5663   -0.8702 H   0  0  0  0  0  0  0  0  0  0  0  0
    4.1750    4.9236    1.2206 H   0  0  0  0  0  0  0  0  0  0  0  0
    2.3743    4.1800    2.8534 H   0  0  0  0  0  0  0  0  0  0  0  0
    1.0205    2.1331    2.2904 H   0  0  0  0  0  0  0  0  0  0  0  0
   -0.1183    0.0484   -3.7965 H   0  0  0  0  0  0  0  0  0  0  0  0
   -0.6362    1.0330   -2.3951 H   0  0  0  0  0  0  0  0  0  0  0  0
   -1.1830   -1.9107   -4.3112 H   0  0  0  0  0  0  0  0  0  0  0  0
   -2.8029   -3.7401   -3.7908 H   0  0  0  0  0  0  0  0  0  0  0  0
   -3.8035   -3.9042   -1.4911 H   0  0  0  0  0  0  0  0  0  0  0  0
   -3.1888   -2.2265    0.2552 H   0  0  0  0  0  0  0  0  0  0  0  0
   -3.9167    0.7112    1.6466 H   0  0  0  0  0  0  0  0  0  0  0  0
   -4.8950   -0.1842    3.7643 H   0  0  0  0  0  0  0  0  0  0  0  0
   -3.6489   -1.8953    5.1040 H   0  0  0  0  0  0  0  0  0  0  0  0
   -1.4033   -2.6994    4.3301 H   0  0  0  0  0  0  0  0  0  0  0  0
   -0.4028   -1.7777    2.2220 H   0  0  0  0  0  0  0  0  0  0  0  0
   -0.6480    2.8978    0.5566 H   0  0  0  0  0  0  0  0  0  0  0  0
   -1.8329    5.0212   -0.0447 H   0  0  0  0  0  0  0  0  0  0  0  0
   -4.0495    4.9291   -1.2126 H   0  0  0  0  0  0  0  0  0  0  0  0
   -5.0793    2.7139   -1.7696 H   0  0  0  0  0  0  0  0  0  0  0  0
   -3.9058    0.5935   -1.1568 H   0  0  0  0  0  0  0  0  0  0  0  0
  1 26  1  0  0  0  0
  2 11  1  0  0  0  0
  3 18  1  0  0  0  0
  5  4  1  0  0  0  0
  5  6  1  0  0  0  0
  6 41  1  0  0  0  0
  7  6  1  6  0  0  0
  7  8  1  0  0  0  0
  7  2  1  0  0  0  0
  8  9  2  0  0  0  0
  9 43  1  0  0  0  0
  9 10  1  0  0  0  0
 10 44  1  0  0  0  0
 11 10  2  0  0  0  0
 11 45  1  0  0  0  0
 12 46  1  0  0  0  0
 12  4  1  0  0  0  0
 12 13  1  0  0  0  0
 13 49  1  0  0  0  0
 14 13  1  1  0  0  0
 14 15  1  0  0  0  0
 14  3  1  0  0  0  0
 15 16  2  0  0  0  0
 16 51  1  0  0  0  0
 16 17  1  0  0  0  0
 17 52  1  0  0  0  0
 18 17  2  0  0  0  0
 18 53  1  0  0  0  0
 19 55  1  0  0  0  0
 19 20  1  0  0  0  0
 19  4  1  0  0  0  0
 20 25  1  0  0  0  0
 21 22  1  0  0  0  0
 21 20  2  0  0  0  0
 22 23  2  0  0  0  0
 23 58  1  0  0  0  0
 23 24  1  0  0  0  0
 24 59  1  0  0  0  0
 25 24  2  0  0  0  0
 25  1  1  0  0  0  0
 26 27  2  0  0  0  0
 26 31  1  0  0  0  0
 27 28  1  0  0  0  0
 28 61  1  0  0  0  0
 28 29  2  0  0  0  0
 29 62  1  0  0  0  0
 30 29  1  0  0  0  0
 30 63  1  0  0  0  0
 31 30  2  0  0  0  0
 32 33  1  0  0  0  0
 32  1  1  0  0  0  0
 33 65  1  0  0  0  0
 34 66  1  0  0  0  0
 34 33  2  0  0  0  0
 35 34  1  0  0  0  0
 36 35  2  0  0  0  0
 36 37  1  0  0  0  0
 37 32  2  0  0  0  0
 38  5  1  0  0  0  0
 39  5  1  0  0  0  0
 40  6  1  0  0  0  0
 42  8  1  0  0  0  0
 47 12  1  0  0  0  0
 48 13  1  0  0  0  0
 50 15  1  0  0  0  0
 54 19  1  0  0  0  0
 56 21  1  0  0  0  0
 57 22  1  0  0  0  0
 60 27  1  0  0  0  0
 64 31  1  0  0  0  0
 67 35  1  0  0  0  0
 68 36  1  0  0  0  0
 69 37  1  0  0  0  0
M  END
