1
 OpenBabel05122313063D

 13 13  0  0  0  0  0  0  0  0999 V2000
   -0.9662   -1.3046    0.8051 N   0  0  0  0  0  2  0  0  0  0  0  0
   -1.5977   -3.0789   -0.5982 N   0  0  0  0  0  0  0  0  0  0  0  0
   -1.1229   -2.6176   -1.3739 H   0  0  0  0  0  0  0  0  0  0  0  0
   -2.0434   -3.9806   -0.7496 H   0  0  0  0  0  0  0  0  0  0  0  0
   -0.9991   -0.7433    2.0486 C   0  0  0  0  0  3  0  0  0  0  0  0
   -0.4846    0.2222    2.1427 H   0  0  0  0  0  0  0  0  0  0  0  0
   -1.6183   -1.3200    3.1480 C   0  0  0  0  0  0  0  0  0  0  0  0
   -1.5989   -0.8098    4.1200 H   0  0  0  0  0  0  0  0  0  0  0  0
   -2.2592   -2.5651    2.9712 C   0  0  0  0  0  0  0  0  0  0  0  0
   -2.7627   -3.0640    3.8125 H   0  0  0  0  0  0  0  0  0  0  0  0
   -2.2488   -3.1578    1.7188 C   0  0  0  0  0  0  0  0  0  0  0  0
   -2.7399   -4.1256    1.5435 H   0  0  0  0  0  0  0  0  0  0  0  0
   -1.5970   -2.5102    0.6290 C   0  0  0  0  0  0  0  0  0  0  0  0
  1  5  1  0  0  0  0
  2 13  1  0  0  0  0
  3  2  1  0  0  0  0
  4  2  1  0  0  0  0
  5  6  1  0  0  0  0
  5  7  1  0  0  0  0
  7  8  1  0  0  0  0
  9  7  2  0  0  0  0
  9 10  1  0  0  0  0
 11  9  1  0  0  0  0
 12 11  1  0  0  0  0
 13  1  1  0  0  0  0
 13 11  2  0  0  0  0
M  END
