3
 OpenBabel05122313063D

 15 15  0  0  1  0  0  0  0  0999 V2000
   -3.7195    0.2094   -0.0928 N   0  0  0  0  0  0  0  0  0  0  0  0
   -3.6213    1.1783   -0.4460 H   0  0  0  0  0  0  0  0  0  0  0  0
   -2.5720   -0.4456    0.2054 N   0  0  0  0  0  2  0  0  0  0  0  0
   -4.8010   -0.6105   -0.1026 C   0  0  1  0  0  3  0  0  0  0  0  0
   -4.3170   -1.8816    0.2327 C   0  0  0  0  0  0  0  0  0  0  0  0
   -4.9057   -2.7996    0.3294 H   0  0  0  0  0  0  0  0  0  0  0  0
   -2.9177   -1.7376    0.4077 C   0  0  0  0  0  0  0  0  0  0  0  0
   -6.1771   -0.1181   -0.4071 C   0  0  0  0  0  0  0  0  0  0  0  0
   -6.5974    0.4602    0.4421 H   0  0  0  0  0  0  0  0  0  0  0  0
   -6.8545   -0.9684   -0.6062 H   0  0  0  0  0  0  0  0  0  0  0  0
   -6.1831    0.5447   -1.2959 H   0  0  0  0  0  0  0  0  0  0  0  0
   -1.8988   -2.7977    0.6781 C   0  0  0  0  0  0  0  0  0  0  0  0
   -1.6532   -3.3429   -0.2578 H   0  0  0  0  0  0  0  0  0  0  0  0
   -2.2763   -3.5379    1.4095 H   0  0  0  0  0  0  0  0  0  0  0  0
   -0.9572   -2.3618    1.0575 H   0  0  0  0  0  0  0  0  0  0  0  0
  1  3  1  0  0  0  0
  2  1  1  0  0  0  0
  3  7  1  0  0  0  0
  4  8  1  1  0  0  0
  4  1  1  0  0  0  0
  4  5  1  0  0  0  0
  5  6  1  0  0  0  0
  5  7  2  0  0  0  0
  7 12  1  0  0  0  0
  8  9  1  0  0  0  0
 10  8  1  0  0  0  0
 11  8  1  0  0  0  0
 12 15  1  0  0  0  0
 12 14  1  0  0  0  0
 13 12  1  0  0  0  0
M  END
