1
 OpenBabel05122313063D

 16 15  0  0  1  0  0  0  0  0999 V2000
    1.5009   -0.7236   -0.4341 N   0  0  0  0  0  2  0  0  0  0  0  0
    1.6743   -1.0226   -1.3991 H   0  0  0  0  0  0  0  0  0  0  0  0
    3.5692   -1.7259    0.0398 N   0  0  0  0  0  0  0  0  0  0  0  0
    2.4728   -0.9829    0.4100 C   0  0  2  0  0  3  0  0  0  0  0  0
    2.3709   -0.4733    1.8190 C   0  0  0  0  0  0  0  0  0  0  0  0
    2.9324    0.4778    1.9159 H   0  0  0  0  0  0  0  0  0  0  0  0
    2.7297   -1.2110    2.5622 H   0  0  0  0  0  0  0  0  0  0  0  0
    1.3120   -0.2185    2.0094 H   0  0  0  0  0  0  0  0  0  0  0  0
    4.8141   -1.7007    0.7912 C   0  0  0  0  0  0  0  0  0  0  0  0
    5.2767   -2.7093    0.7997 H   0  0  0  0  0  0  0  0  0  0  0  0
    4.6363   -1.3960    1.8356 H   0  0  0  0  0  0  0  0  0  0  0  0
    5.5463   -0.9864    0.3491 H   0  0  0  0  0  0  0  0  0  0  0  0
    3.6654   -2.2128   -1.3245 C   0  0  0  0  0  0  0  0  0  0  0  0
    2.7413   -2.7561   -1.6134 H   0  0  0  0  0  0  0  0  0  0  0  0
    4.5085   -2.9246   -1.3979 H   0  0  0  0  0  0  0  0  0  0  0  0
    3.8376   -1.3932   -2.0614 H   0  0  0  0  0  0  0  0  0  0  0  0
  2  1  1  0  0  0  0
  3  4  1  0  0  0  0
  3  9  1  0  0  0  0
  4  1  1  1  0  0  0
  4  5  1  0  0  0  0
  5  6  1  0  0  0  0
  5  8  1  0  0  0  0
  5  7  1  0  0  0  0
  9 10  1  0  0  0  0
  9 11  1  0  0  0  0
 12  9  1  0  0  0  0
 13  3  1  0  0  0  0
 14 13  1  0  0  0  0
 15 13  1  0  0  0  0
 16 13  1  0  0  0  0
M  END
