1
 OpenBabel05122313063D

 22 21  0  0  0  0  0  0  0  0999 V2000
    0.1326    2.1121   -0.0321 N   0  0  0  0  0  0  0  0  0  0  0  0
    1.1475    2.1806    0.2552 H   0  0  0  0  0  0  0  0  0  0  0  0
   -0.6907    2.7435    1.0448 C   0  0  0  0  0  0  0  0  0  0  0  0
   -1.7406    2.4387    0.8647 H   0  0  0  0  0  0  0  0  0  0  0  0
   -0.5968    4.2748    1.0446 C   0  0  0  0  0  0  0  0  0  0  0  0
   -1.0437    4.7349    0.1419 H   0  0  0  0  0  0  0  0  0  0  0  0
    0.4575    4.6131    1.1258 H   0  0  0  0  0  0  0  0  0  0  0  0
   -1.1460    4.6748    1.9198 H   0  0  0  0  0  0  0  0  0  0  0  0
   -0.2501    2.1763    2.3964 C   0  0  0  0  0  0  0  0  0  0  0  0
   -0.3281    1.0704    2.4011 H   0  0  0  0  0  0  0  0  0  0  0  0
   -0.8943    2.5733    3.2052 H   0  0  0  0  0  0  0  0  0  0  0  0
    0.8027    2.4442    2.6191 H   0  0  0  0  0  0  0  0  0  0  0  0
   -0.0074    2.6959   -1.3983 C   0  0  0  0  0  0  0  0  0  0  0  0
    0.1613    3.7918   -1.2992 H   0  0  0  0  0  0  0  0  0  0  0  0
   -1.4001    2.4799   -1.9886 C   0  0  0  0  0  0  0  0  0  0  0  0
   -2.1974    2.8978   -1.3438 H   0  0  0  0  0  0  0  0  0  0  0  0
   -1.6060    1.3992   -2.1184 H   0  0  0  0  0  0  0  0  0  0  0  0
   -1.4679    2.9769   -2.9765 H   0  0  0  0  0  0  0  0  0  0  0  0
    1.0920    2.1603   -2.3174 C   0  0  0  0  0  0  0  0  0  0  0  0
    2.0970    2.3525   -1.8942 H   0  0  0  0  0  0  0  0  0  0  0  0
    1.0294    2.6599   -3.3041 H   0  0  0  0  0  0  0  0  0  0  0  0
    0.9858    1.0679   -2.4723 H   0  0  0  0  0  0  0  0  0  0  0  0
  1  2  1  0  0  0  0
  1  3  1  0  0  0  0
  3  9  1  0  0  0  0
  4  3  1  0  0  0  0
  5  3  1  0  0  0  0
  5  7  1  0  0  0  0
  5  8  1  0  0  0  0
  6  5  1  0  0  0  0
  9 10  1  0  0  0  0
  9 12  1  0  0  0  0
  9 11  1  0  0  0  0
 13 14  1  0  0  0  0
 13  1  1  0  0  0  0
 15 13  1  0  0  0  0
 15 16  1  0  0  0  0
 17 15  1  0  0  0  0
 18 15  1  0  0  0  0
 19 20  1  0  0  0  0
 19 13  1  0  0  0  0
 21 19  1  0  0  0  0
 22 19  1  0  0  0  0
M  END
