1
 OpenBabel05122313063D

 16 15  0  0  0  0  0  0  0  0999 V2000
    1.4526    1.5273   -0.0549 N   0  0  0  0  0  0  0  0  0  0  0  0
    1.3080    2.3645   -1.2829 C   0  0  0  0  0  0  0  0  0  0  0  0
    1.3931    2.3126    1.2191 C   0  0  0  0  0  0  0  0  0  0  0  0
    2.3879    1.0896   -0.1004 H   0  0  0  0  0  0  0  0  0  0  0  0
    1.4724    1.5508   -2.5563 C   0  0  0  0  0  0  0  0  0  0  0  0
    0.3022    2.8249   -1.2285 H   0  0  0  0  0  0  0  0  0  0  0  0
    2.0576    3.1827   -1.2483 H   0  0  0  0  0  0  0  0  0  0  0  0
    2.5184    3.3271    1.3955 C   0  0  0  0  0  0  0  0  0  0  0  0
    0.3960    2.7945    1.2405 H   0  0  0  0  0  0  0  0  0  0  0  0
    1.4108    1.5733    2.0447 H   0  0  0  0  0  0  0  0  0  0  0  0
    0.6799    0.7798   -2.6475 H   0  0  0  0  0  0  0  0  0  0  0  0
    1.4031    2.2146   -3.4396 H   0  0  0  0  0  0  0  0  0  0  0  0
    2.4625    1.0495   -2.6020 H   0  0  0  0  0  0  0  0  0  0  0  0
    2.4707    4.1569    0.6643 H   0  0  0  0  0  0  0  0  0  0  0  0
    3.5182    2.8502    1.3196 H   0  0  0  0  0  0  0  0  0  0  0  0
    2.4472    3.7776    2.4048 H   0  0  0  0  0  0  0  0  0  0  0  0
  1  3  1  0  0  0  0
  2  7  1  0  0  0  0
  2  6  1  0  0  0  0
  2  1  1  0  0  0  0
  3  9  1  0  0  0  0
  3  8  1  0  0  0  0
  3 10  1  0  0  0  0
  4  1  1  0  0  0  0
  5  2  1  0  0  0  0
  8 16  1  0  0  0  0
 11  5  1  0  0  0  0
 12  5  1  0  0  0  0
 13  5  1  0  0  0  0
 14  8  1  0  0  0  0
 15  8  1  0  0  0  0
M  END
