1
 OpenBabel05122313063D

  9  9  0  0  0  0  0  0  0  0999 V2000
    1.3582    1.1492   -0.0117 N   0  0  0  0  0  2  0  0  0  0  0  0
    2.6770    0.9405   -0.1057 N   0  0  0  0  0  0  0  0  0  0  0  0
    2.9655   -0.0621   -0.1583 H   0  0  0  0  0  0  0  0  0  0  0  0
    3.3545    2.1101   -0.0952 C   0  0  0  0  0  3  0  0  0  0  0  0
    4.4471    2.1321   -0.1633 H   0  0  0  0  0  0  0  0  0  0  0  0
    2.4064    3.1329    0.0117 C   0  0  0  0  0  0  0  0  0  0  0  0
    2.5937    4.2100    0.0492 H   0  0  0  0  0  0  0  0  0  0  0  0
    1.1593    2.4770    0.0627 C   0  0  0  0  0  0  0  0  0  0  0  0
    0.1458    2.8802    0.1528 H   0  0  0  0  0  0  0  0  0  0  0  0
  1  8  1  0  0  0  0
  2  4  1  0  0  0  0
  2  1  1  0  0  0  0
  3  2  1  0  0  0  0
  4  6  1  0  0  0  0
  5  4  1  0  0  0  0
  6  7  1  0  0  0  0
  6  8  2  0  0  0  0
  8  9  1  0  0  0  0
M  END
