3
 OpenBabel05122313063D

 16 16  0  0  0  0  0  0  0  0999 V2000
    7.0898    0.6598    0.5386 O   0  0  0  0  0  0  0  0  0  0  0  0
    5.6895    2.1181   -0.2958 O   0  0  0  0  0  0  0  0  0  0  0  0
    1.5189   -0.4540   -1.3765 N   0  0  0  0  0  0  0  0  0  0  0  0
    1.5076    0.3947   -1.9737 H   0  0  0  0  0  0  0  0  0  0  0  0
    1.0780   -1.2256   -1.9125 H   0  0  0  0  0  0  0  0  0  0  0  0
    6.0108    0.9818    0.0455 N   0  0  0  0  0  0  0  0  0  0  0  0
    2.8267   -0.7798   -0.8776 C   0  0  0  0  0  0  0  0  0  0  0  0
    3.7583    0.2473   -0.6777 C   0  0  0  0  0  0  0  0  0  0  0  0
    3.5343    1.2999   -0.8957 H   0  0  0  0  0  0  0  0  0  0  0  0
    5.0089   -0.0989   -0.1597 C   0  0  0  0  0  0  0  0  0  0  0  0
    5.3491   -1.4155    0.1734 C   0  0  0  0  0  0  0  0  0  0  0  0
    6.3474   -1.6195    0.5819 H   0  0  0  0  0  0  0  0  0  0  0  0
    4.3951   -2.4227   -0.0255 C   0  0  0  0  0  0  0  0  0  0  0  0
    4.6346   -3.4639    0.2337 H   0  0  0  0  0  0  0  0  0  0  0  0
    3.1307   -2.1115   -0.5445 C   0  0  0  0  0  0  0  0  0  0  0  0
    2.3694   -2.8937   -0.6749 H   0  0  0  0  0  0  0  0  0  0  0  0
  2  6  2  0  0  0  0
  3  7  1  0  0  0  0
  4  3  1  0  0  0  0
  5  3  1  0  0  0  0
  6  1  2  0  0  0  0
  7  8  2  0  0  0  0
  7 15  1  0  0  0  0
  8 10  1  0  0  0  0
  9  8  1  0  0  0  0
 10  6  1  0  0  0  0
 10 11  2  0  0  0  0
 11 12  1  0  0  0  0
 13 11  1  0  0  0  0
 13 14  1  0  0  0  0
 15 13  2  0  0  0  0
 16 15  1  0  0  0  0
M  END
