1
 OpenBabel05122313063D

 18 18  0  0  0  0  0  0  0  0999 V2000
   -1.8700    0.7835   -0.1032 N   0  0  0  0  0  2  0  0  0  0  0  0
   -2.9488    0.0073    0.1285 C   0  0  0  0  0  3  0  0  0  0  0  0
   -2.7670   -1.0489    0.3708 H   0  0  0  0  0  0  0  0  0  0  0  0
   -4.2590    0.5060    0.0359 C   0  0  0  0  0  0  0  0  0  0  0  0
   -4.4363    1.8615   -0.2924 C   0  0  0  0  0  0  0  0  0  0  0  0
   -5.4437    2.3041   -0.3382 H   0  0  0  0  0  0  0  0  0  0  0  0
   -3.3084    2.6601   -0.5209 C   0  0  0  0  0  0  0  0  0  0  0  0
   -3.4029    3.7274   -0.7657 H   0  0  0  0  0  0  0  0  0  0  0  0
   -2.0362    2.0917   -0.4167 C   0  0  0  0  0  0  0  0  0  0  0  0
   -1.1111    2.6724   -0.5411 H   0  0  0  0  0  0  0  0  0  0  0  0
   -5.3777   -0.4558    0.3547 C   0  0  0  0  0  0  0  0  0  0  0  0
   -5.1928   -1.4290    1.0836 O   0  0  0  0  0  0  0  0  0  0  0  0
   -6.5875   -0.1570   -0.2217 N   0  0  0  0  0  0  0  0  0  0  0  0
   -6.6226    0.5796   -0.9261 H   0  0  0  0  0  0  0  0  0  0  0  0
   -7.7550   -0.9901   -0.0266 C   0  0  0  0  0  0  0  0  0  0  0  0
   -8.6176   -0.3998    0.3473 H   0  0  0  0  0  0  0  0  0  0  0  0
   -7.4867   -1.7568    0.7245 H   0  0  0  0  0  0  0  0  0  0  0  0
   -8.0574   -1.5044   -0.9637 H   0  0  0  0  0  0  0  0  0  0  0  0
  1  2  1  0  0  0  0
  2  3  1  0  0  0  0
  4  2  1  0  0  0  0
  4 11  1  0  0  0  0
  5  4  2  0  0  0  0
  6  5  1  0  0  0  0
  7  9  2  0  0  0  0
  7  5  1  0  0  0  0
  8  7  1  0  0  0  0
  9  1  1  0  0  0  0
 10  9  1  0  0  0  0
 11 12  2  0  0  0  0
 13 15  1  0  0  0  0
 13 11  1  0  0  0  0
 14 13  1  0  0  0  0
 15 16  1  0  0  0  0
 15 17  1  0  0  0  0
 18 15  1  0  0  0  0
M  END
