2
 OpenBabel05122313063D

 36 37  0  0  1  0  0  0  0  0999 V2000
    4.4795    1.1798   -0.2453 C   0  0  1  0  0  0  0  0  0  0  0  0
    1.7005   -1.1965    0.0441 N   0  0  0  0  0  2  0  0  0  0  0  0
    4.1803   -1.0852   -0.5074 C   0  0  1  0  0  0  0  0  0  0  0  0
    4.3670   -2.1668   -0.3831 H   0  0  0  0  0  0  0  0  0  0  0  0
    3.0517    0.9073    0.2317 C   0  0  0  0  0  0  0  0  0  0  0  0
    5.0306    2.5144    0.2114 C   0  0  0  0  0  0  0  0  0  0  0  0
    4.3922    3.3394   -0.1624 H   0  0  0  0  0  0  0  0  0  0  0  0
    6.0603    2.6745   -0.1655 H   0  0  0  0  0  0  0  0  0  0  0  0
    5.0416    2.5899    1.3168 H   0  0  0  0  0  0  0  0  0  0  0  0
    6.6267   -0.2922   -0.2097 C   0  0  0  0  0  0  0  0  0  0  0  0
    6.9997   -1.3124    0.0169 H   0  0  0  0  0  0  0  0  0  0  0  0
    7.2749    0.4250    0.3331 H   0  0  0  0  0  0  0  0  0  0  0  0
    6.7674   -0.1149   -1.2924 H   0  0  0  0  0  0  0  0  0  0  0  0
    2.3020    1.6850    0.7913 O   0  0  0  0  0  0  0  0  0  0  0  0
    5.1725   -0.1468    0.2495 C   0  0  0  0  0  0  0  0  0  0  0  0
    2.8331   -0.5816   -0.0341 C   0  0  1  0  0  3  0  0  0  0  0  0
    4.4097    0.9700   -1.7933 C   0  0  0  0  0  0  0  0  0  0  0  0
    3.5568    1.5280   -2.2264 H   0  0  0  0  0  0  0  0  0  0  0  0
    5.3383    1.3547   -2.2603 H   0  0  0  0  0  0  0  0  0  0  0  0
    4.2488   -0.5652   -1.9757 C   0  0  0  0  0  0  0  0  0  0  0  0
    5.1120   -1.0221   -2.4982 H   0  0  0  0  0  0  0  0  0  0  0  0
    3.3318   -0.8211   -2.5400 H   0  0  0  0  0  0  0  0  0  0  0  0
    5.1086   -0.3384    1.7718 C   0  0  0  0  0  0  0  0  0  0  0  0
    5.5087   -1.3339    2.0534 H   0  0  0  0  0  0  0  0  0  0  0  0
    4.0763   -0.2710    2.1737 H   0  0  0  0  0  0  0  0  0  0  0  0
    5.7190    0.4260    2.2936 H   0  0  0  0  0  0  0  0  0  0  0  0
    1.6544   -2.6687   -0.1512 C   0  0  0  0  0  0  0  0  0  0  0  0
    2.4689   -2.9258   -0.8628 H   0  0  0  0  0  0  0  0  0  0  0  0
    0.3297   -3.1176   -0.7583 C   0  0  0  0  0  0  0  0  0  0  0  0
    0.1094   -2.5684   -1.6926 H   0  0  0  0  0  0  0  0  0  0  0  0
   -0.5044   -2.9363   -0.0546 H   0  0  0  0  0  0  0  0  0  0  0  0
    0.3849   -4.2022   -0.9824 H   0  0  0  0  0  0  0  0  0  0  0  0
    1.9355   -3.3384    1.2015 C   0  0  0  0  0  0  0  0  0  0  0  0
    2.9294   -3.0485    1.5988 H   0  0  0  0  0  0  0  0  0  0  0  0
    1.9103   -4.4402    1.0852 H   0  0  0  0  0  0  0  0  0  0  0  0
    1.1601   -3.0300    1.9305 H   0  0  0  0  0  0  0  0  0  0  0  0
  1  6  1  1  0  0  0
  1  5  1  0  0  0  0
  1 15  1  0  0  0  0
  3  4  1  1  0  0  0
  3 16  1  0  0  0  0
  3 15  1  0  0  0  0
  5 14  2  0  0  0  0
  6  9  1  0  0  0  0
  7  6  1  0  0  0  0
  8  6  1  0  0  0  0
 10 11  1  0  0  0  0
 10 15  1  0  0  0  0
 10 12  1  0  0  0  0
 13 10  1  0  0  0  0
 15 23  1  0  0  0  0
 16  2  1  6  0  0  0
 16  5  1  0  0  0  0
 17  1  1  0  0  0  0
 18 17  1  0  0  0  0
 19 17  1  0  0  0  0
 20 17  1  0  0  0  0
 20  3  1  0  0  0  0
 21 20  1  0  0  0  0
 22 20  1  0  0  0  0
 23 24  1  0  0  0  0
 23 25  1  0  0  0  0
 23 26  1  0  0  0  0
 27  2  1  0  0  0  0
 27 33  1  0  0  0  0
 28 27  1  0  0  0  0
 29 27  1  0  0  0  0
 29 31  1  0  0  0  0
 30 29  1  0  0  0  0
 32 29  1  0  0  0  0
 33 34  1  0  0  0  0
 33 36  1  0  0  0  0
 35 33  1  0  0  0  0
M  END
