3
 OpenBabel05122313063D

 33 32  0  0  0  0  0  0  0  0999 V2000
   -2.3093   -1.6139   -1.3760 N   0  0  0  0  0  0  0  0  0  0  0  0
   -3.9399   -1.0012    0.1865 N   0  0  0  0  0  0  0  0  0  0  0  0
   -1.8763    0.1732    0.0942 N   0  0  0  0  0  2  0  0  0  0  0  0
   -2.5359   -3.0469   -1.2827 C   0  0  0  0  0  0  0  0  0  0  0  0
   -3.2174   -3.2705   -0.4428 H   0  0  0  0  0  0  0  0  0  0  0  0
   -1.5729   -3.5709   -1.0911 H   0  0  0  0  0  0  0  0  0  0  0  0
   -2.9794   -3.4460   -2.2202 H   0  0  0  0  0  0  0  0  0  0  0  0
   -1.3133   -1.2167   -2.3572 C   0  0  0  0  0  0  0  0  0  0  0  0
   -1.2320   -0.1178   -2.4149 H   0  0  0  0  0  0  0  0  0  0  0  0
   -1.6064   -1.6214   -3.3502 H   0  0  0  0  0  0  0  0  0  0  0  0
   -0.3025   -1.6047   -2.1024 H   0  0  0  0  0  0  0  0  0  0  0  0
   -5.0772   -1.3031   -0.6608 C   0  0  0  0  0  0  0  0  0  0  0  0
   -4.7786   -1.2337   -1.7225 H   0  0  0  0  0  0  0  0  0  0  0  0
   -5.9002   -0.5762   -0.4759 H   0  0  0  0  0  0  0  0  0  0  0  0
   -5.4836   -2.3243   -0.4754 H   0  0  0  0  0  0  0  0  0  0  0  0
   -4.1894   -0.9508    1.6156 C   0  0  0  0  0  0  0  0  0  0  0  0
   -3.2297   -0.9216    2.1685 H   0  0  0  0  0  0  0  0  0  0  0  0
   -4.7395   -1.8685    1.9239 H   0  0  0  0  0  0  0  0  0  0  0  0
   -4.8148   -0.0753    1.9077 H   0  0  0  0  0  0  0  0  0  0  0  0
   -2.6774   -0.7812   -0.3430 C   0  0  0  0  0  3  0  0  0  0  0  0
   -2.4033    1.4032    0.6832 C   0  0  0  0  0  0  0  0  0  0  0  0
   -1.5497    1.9239    1.1561 H   0  0  0  0  0  0  0  0  0  0  0  0
   -3.1370    1.2061    1.4927 H   0  0  0  0  0  0  0  0  0  0  0  0
   -3.0188    2.3201   -0.3791 C   0  0  0  0  0  0  0  0  0  0  0  0
   -2.2787    2.4429   -1.1982 H   0  0  0  0  0  0  0  0  0  0  0  0
   -3.9062    1.8206   -0.8301 H   0  0  0  0  0  0  0  0  0  0  0  0
   -3.4164    3.6919    0.1690 C   0  0  0  0  0  0  0  0  0  0  0  0
   -2.5198    4.1670    0.6259 H   0  0  0  0  0  0  0  0  0  0  0  0
   -4.1446    3.5634    1.0011 H   0  0  0  0  0  0  0  0  0  0  0  0
   -4.0037    4.6200   -0.8948 C   0  0  0  0  0  0  0  0  0  0  0  0
   -3.2779    4.7947   -1.7166 H   0  0  0  0  0  0  0  0  0  0  0  0
   -4.2792    5.6085   -0.4747 H   0  0  0  0  0  0  0  0  0  0  0  0
   -4.9169    4.1840   -1.3518 H   0  0  0  0  0  0  0  0  0  0  0  0
  1  4  1  0  0  0  0
  1 20  1  0  0  0  0
  2 16  1  0  0  0  0
  3 21  1  0  0  0  0
  4  6  1  0  0  0  0
  4  5  1  0  0  0  0
  7  4  1  0  0  0  0
  8 11  1  0  0  0  0
  8  1  1  0  0  0  0
  9  8  1  0  0  0  0
 10  8  1  0  0  0  0
 12 14  1  0  0  0  0
 12 15  1  0  0  0  0
 12  2  1  0  0  0  0
 13 12  1  0  0  0  0
 16 19  1  0  0  0  0
 16 18  1  0  0  0  0
 16 17  1  0  0  0  0
 20  3  1  0  0  0  0
 20  2  1  0  0  0  0
 21 22  1  0  0  0  0
 21 23  1  0  0  0  0
 24 27  1  0  0  0  0
 24 21  1  0  0  0  0
 25 24  1  0  0  0  0
 26 24  1  0  0  0  0
 27 28  1  0  0  0  0
 27 29  1  0  0  0  0
 30 32  1  0  0  0  0
 30 27  1  0  0  0  0
 31 30  1  0  0  0  0
 33 30  1  0  0  0  0
M  END
