1
 OpenBabel05122313063D

 27 26  0  0  0  0  0  0  0  0999 V2000
    1.1580   -1.5795   -0.0138 N   0  0  0  0  0  2  0  0  0  0  0  0
    1.1419   -2.7135    1.3155 Si  0  0  0  0  0  0  0  0  0  0  0  0
    2.1381   -1.8073   -1.4452 Si  0  0  0  0  0  0  0  0  0  0  0  0
    2.8383   -3.4527    1.7519 C   0  0  0  0  0  0  0  0  0  0  0  0
    0.5666   -1.7872    2.8849 C   0  0  0  0  0  0  0  0  0  0  0  0
    0.0108   -4.2062    0.9705 C   0  0  0  0  0  0  0  0  0  0  0  0
    1.8194   -0.3671   -2.6558 C   0  0  0  0  0  0  0  0  0  0  0  0
    1.7374   -3.4252   -2.3650 C   0  0  0  0  0  0  0  0  0  0  0  0
    4.0085   -1.8065   -1.1050 C   0  0  0  0  0  0  0  0  0  0  0  0
    2.7550   -4.0571    2.6799 H   0  0  0  0  0  0  0  0  0  0  0  0
    3.2182   -4.1211    0.9523 H   0  0  0  0  0  0  0  0  0  0  0  0
    3.5955   -2.6618    1.9270 H   0  0  0  0  0  0  0  0  0  0  0  0
    0.1551   -2.4917    3.6375 H   0  0  0  0  0  0  0  0  0  0  0  0
    1.4352   -1.2767    3.3488 H   0  0  0  0  0  0  0  0  0  0  0  0
   -0.2143   -1.0145    2.7114 H   0  0  0  0  0  0  0  0  0  0  0  0
   -0.0447   -4.8849    1.8475 H   0  0  0  0  0  0  0  0  0  0  0  0
    0.4136   -4.7909    0.1175 H   0  0  0  0  0  0  0  0  0  0  0  0
   -1.0240   -3.9051    0.7143 H   0  0  0  0  0  0  0  0  0  0  0  0
    2.5688   -0.3968   -3.4737 H   0  0  0  0  0  0  0  0  0  0  0  0
    0.8149   -0.4143   -3.1232 H   0  0  0  0  0  0  0  0  0  0  0  0
    1.9360    0.6116   -2.1402 H   0  0  0  0  0  0  0  0  0  0  0  0
    2.3310   -3.5100   -3.2995 H   0  0  0  0  0  0  0  0  0  0  0  0
    1.9729   -4.3101   -1.7379 H   0  0  0  0  0  0  0  0  0  0  0  0
    0.6635   -3.4841   -2.6388 H   0  0  0  0  0  0  0  0  0  0  0  0
    4.5757   -1.7529   -2.0580 H   0  0  0  0  0  0  0  0  0  0  0  0
    4.3333   -2.7199   -0.5695 H   0  0  0  0  0  0  0  0  0  0  0  0
    4.3000   -0.9341   -0.4863 H   0  0  0  0  0  0  0  0  0  0  0  0
  1  2  1  0  0  0  0
  2  4  1  0  0  0  0
  2  5  1  0  0  0  0
  3  9  1  0  0  0  0
  3  1  1  0  0  0  0
  4 12  1  0  0  0  0
  4 10  1  0  0  0  0
  5 14  1  0  0  0  0
  5 13  1  0  0  0  0
  6  2  1  0  0  0  0
  6 16  1  0  0  0  0
  7 21  1  0  0  0  0
  7  3  1  0  0  0  0
  8 23  1  0  0  0  0
  8  3  1  0  0  0  0
  9 26  1  0  0  0  0
  9 27  1  0  0  0  0
 11  4  1  0  0  0  0
 15  5  1  0  0  0  0
 17  6  1  0  0  0  0
 18  6  1  0  0  0  0
 19  7  1  0  0  0  0
 20  7  1  0  0  0  0
 22  8  1  0  0  0  0
 24  8  1  0  0  0  0
 25  9  1  0  0  0  0
M  END
