3
 OpenBabel05122313063D

 48 51  0  0  1  0  0  0  0  0999 V2000
   -0.8570    0.0526    0.0569 P   0  0  0  0  0  0  0  0  0  0  0  0
    3.0122    1.3333    1.3999 O   0  0  0  0  0  0  0  0  0  0  0  0
    1.9342   -0.0836    0.0224 N   0  0  0  0  0  2  0  0  0  0  0  0
    3.1328    0.3830   -0.7712 C   0  0  0  0  0  0  0  0  0  0  0  0
    3.9742    1.0296    0.3549 C   0  0  0  0  0  0  0  0  0  0  0  0
    4.7275    0.3332    0.7811 H   0  0  0  0  0  0  0  0  0  0  0  0
    4.4671    1.9732    0.0583 H   0  0  0  0  0  0  0  0  0  0  0  0
    1.9313    0.5761    1.1535 C   0  0  2  0  0  3  0  0  0  0  0  0
    0.8747    0.5842    2.1791 C   0  0  0  0  0  0  0  0  0  0  0  0
    1.2235    0.8449    3.5190 C   0  0  0  0  0  0  0  0  0  0  0  0
    2.2732    1.0578    3.7657 H   0  0  0  0  0  0  0  0  0  0  0  0
    0.2448    0.8118    4.5234 C   0  0  0  0  0  0  0  0  0  0  0  0
    0.5280    1.0007    5.5691 H   0  0  0  0  0  0  0  0  0  0  0  0
   -1.0875    0.5308    4.1914 C   0  0  0  0  0  0  0  0  0  0  0  0
   -1.8562    0.4901    4.9773 H   0  0  0  0  0  0  0  0  0  0  0  0
   -1.4541    0.3112    2.8504 C   0  0  0  0  0  0  0  0  0  0  0  0
   -2.5060    0.1143    2.5977 H   0  0  0  0  0  0  0  0  0  0  0  0
   -0.4873    0.3440    1.8353 C   0  0  0  0  0  0  0  0  0  0  0  0
   -0.6543    1.7094   -0.7175 C   0  0  0  0  0  0  0  0  0  0  0  0
   -0.2227    2.8449   -0.0033 C   0  0  0  0  0  0  0  0  0  0  0  0
   -0.0055    2.7820    1.0724 H   0  0  0  0  0  0  0  0  0  0  0  0
   -0.0744    4.0750   -0.6649 C   0  0  0  0  0  0  0  0  0  0  0  0
    0.2607    4.9577   -0.1001 H   0  0  0  0  0  0  0  0  0  0  0  0
   -0.3575    4.1799   -2.0349 C   0  0  0  0  0  0  0  0  0  0  0  0
   -0.2383    5.1444   -2.5505 H   0  0  0  0  0  0  0  0  0  0  0  0
   -0.8072    3.0535   -2.7446 C   0  0  0  0  0  0  0  0  0  0  0  0
   -1.0446    3.1331   -3.8158 H   0  0  0  0  0  0  0  0  0  0  0  0
   -0.9603    1.8242   -2.0905 C   0  0  0  0  0  0  0  0  0  0  0  0
   -1.3235    0.9527   -2.6554 H   0  0  0  0  0  0  0  0  0  0  0  0
   -2.6572   -0.2244   -0.1151 C   0  0  0  0  0  0  0  0  0  0  0  0
   -3.5613    0.7771    0.3066 C   0  0  0  0  0  0  0  0  0  0  0  0
   -3.1859    1.7115    0.7513 H   0  0  0  0  0  0  0  0  0  0  0  0
   -4.9393    0.5900    0.1372 C   0  0  0  0  0  0  0  0  0  0  0  0
   -5.6404    1.3691    0.4717 H   0  0  0  0  0  0  0  0  0  0  0  0
   -5.4237   -0.5799   -0.4731 C   0  0  0  0  0  0  0  0  0  0  0  0
   -6.5062   -0.7194   -0.6108 H   0  0  0  0  0  0  0  0  0  0  0  0
   -4.5273   -1.5602   -0.9238 C   0  0  0  0  0  0  0  0  0  0  0  0
   -4.9030   -2.4653   -1.4236 H   0  0  0  0  0  0  0  0  0  0  0  0
   -3.1461   -1.3842   -0.7464 C   0  0  0  0  0  0  0  0  0  0  0  0
   -2.4413   -2.1369   -1.1244 H   0  0  0  0  0  0  0  0  0  0  0  0
    3.8757   -0.7645   -1.4486 C   0  0  0  0  0  0  0  0  0  0  0  0
    4.2012   -1.5317   -0.7206 H   0  0  0  0  0  0  0  0  0  0  0  0
    4.7801   -0.3706   -1.9534 H   0  0  0  0  0  0  0  0  0  0  0  0
    3.2462   -1.2472   -2.2193 H   0  0  0  0  0  0  0  0  0  0  0  0
    2.6757    1.4328   -1.7948 C   0  0  0  0  0  0  0  0  0  0  0  0
    1.9738    1.0008   -2.5307 H   0  0  0  0  0  0  0  0  0  0  0  0
    3.5567    1.8139   -2.3486 H   0  0  0  0  0  0  0  0  0  0  0  0
    2.1742    2.2869   -1.3004 H   0  0  0  0  0  0  0  0  0  0  0  0
  1 18  1  0  0  0  0
  3  8  1  0  0  0  0
  4  3  1  0  0  0  0
  4  5  1  0  0  0  0
  5  6  1  0  0  0  0
  5  2  1  0  0  0  0
  7  5  1  0  0  0  0
  8  2  1  0  0  0  0
  8  9  1  6  0  0  0
  9 10  1  0  0  0  0
 10 11  1  0  0  0  0
 10 12  2  0  0  0  0
 12 13  1  0  0  0  0
 14 12  1  0  0  0  0
 14 15  1  0  0  0  0
 16 14  2  0  0  0  0
 17 16  1  0  0  0  0
 18  9  2  0  0  0  0
 18 16  1  0  0  0  0
 19 20  1  0  0  0  0
 19  1  1  0  0  0  0
 20 21  1  0  0  0  0
 22 23  1  0  0  0  0
 22 20  2  0  0  0  0
 24 22  1  0  0  0  0
 25 24  1  0  0  0  0
 26 28  1  0  0  0  0
 26 24  2  0  0  0  0
 27 26  1  0  0  0  0
 28 19  2  0  0  0  0
 29 28  1  0  0  0  0
 30  1  1  0  0  0  0
 30 31  1  0  0  0  0
 31 32  1  0  0  0  0
 33 31  2  0  0  0  0
 33 34  1  0  0  0  0
 35 33  1  0  0  0  0
 36 35  1  0  0  0  0
 37 39  1  0  0  0  0
 37 35  2  0  0  0  0
 38 37  1  0  0  0  0
 39 30  2  0  0  0  0
 40 39  1  0  0  0  0
 41  4  1  0  0  0  0
 41 42  1  0  0  0  0
 43 41  1  0  0  0  0
 44 41  1  0  0  0  0
 45 48  1  0  0  0  0
 45  4  1  0  0  0  0
 46 45  1  0  0  0  0
 47 45  1  0  0  0  0
M  END
