6
 OpenBabel05122313063D

  9  9  0  0  0  0  0  0  0  0999 V2000
    4.0479   -1.6895    0.0931 C   0  0  0  0  0  3  0  0  0  0  0  0
    4.6338   -2.6116    0.1616 H   0  0  0  0  0  0  0  0  0  0  0  0
    4.4352   -0.3457    0.0072 C   0  0  0  0  0  0  0  0  0  0  0  0
    3.2350    0.3989   -0.0566 C   0  0  0  0  0  0  0  0  0  0  0  0
    3.0472    1.4763   -0.1278 H   0  0  0  0  0  0  0  0  0  0  0  0
    2.1944   -0.4507   -0.0126 N   0  0  0  0  0  2  0  0  0  0  0  0
    2.6951   -1.6929    0.0772 N   0  0  0  0  0  0  0  0  0  0  0  0
    1.9823   -2.4536    0.1197 H   0  0  0  0  0  0  0  0  0  0  0  0
    6.3887    0.3944   -0.0203 I   0  0  0  0  0  0  0  0  0  0  0  0
  1  2  1  0  0  0  0
  3  1  1  0  0  0  0
  4  6  1  0  0  0  0
  4  3  2  0  0  0  0
  5  4  1  0  0  0  0
  6  7  1  0  0  0  0
  7  1  1  0  0  0  0
  7  8  1  0  0  0  0
  9  3  1  0  0  0  0
M  END
