1
 OpenBabel05122313063D

 21 21  0  0  1  0  0  0  0  0999 V2000
    1.3524   -0.3146   -0.2648 N   0  0  0  0  0  2  0  0  0  0  0  0
    4.1880    1.0626   -0.6671 N   0  0  0  0  0  0  0  0  0  0  0  0
    2.0911   -0.8782    0.6729 C   0  0  2  0  0  3  0  0  0  0  0  0
    3.5306   -0.8599    0.7113 C   0  0  0  0  0  0  0  0  0  0  0  0
    4.4603   -0.0082    0.1192 C   0  0  0  0  0  0  0  0  0  0  0  0
    2.8699    1.4913   -1.0881 C   0  0  0  0  0  0  0  0  0  0  0  0
    1.9627    0.2906   -1.4316 C   0  0  0  0  0  0  0  0  0  0  0  0
    1.3728   -1.6044    1.7815 C   0  0  0  0  0  0  0  0  0  0  0  0
    5.9305   -0.2100    0.3984 C   0  0  0  0  0  0  0  0  0  0  0  0
    3.9708   -1.5938    1.3999 H   0  0  0  0  0  0  0  0  0  0  0  0
    4.9890    1.5539   -1.0627 H   0  0  0  0  0  0  0  0  0  0  0  0
    2.9950    2.1394   -1.9784 H   0  0  0  0  0  0  0  0  0  0  0  0
    2.3474    2.0865   -0.3080 H   0  0  0  0  0  0  0  0  0  0  0  0
    1.1497    0.6326   -2.0974 H   0  0  0  0  0  0  0  0  0  0  0  0
    2.5572   -0.4731   -1.9807 H   0  0  0  0  0  0  0  0  0  0  0  0
    0.7457   -0.8861    2.3492 H   0  0  0  0  0  0  0  0  0  0  0  0
    0.6782   -2.3554    1.3527 H   0  0  0  0  0  0  0  0  0  0  0  0
    2.0819   -2.0892    2.4767 H   0  0  0  0  0  0  0  0  0  0  0  0
    6.1132   -1.1634    0.9237 H   0  0  0  0  0  0  0  0  0  0  0  0
    6.5140   -0.2188   -0.5464 H   0  0  0  0  0  0  0  0  0  0  0  0
    6.3290    0.6145    1.0268 H   0  0  0  0  0  0  0  0  0  0  0  0
  1  3  1  0  0  0  0
  2  5  1  0  0  0  0
  3  4  1  0  0  0  0
  3  8  1  6  0  0  0
  4 10  1  0  0  0  0
  5  9  1  0  0  0  0
  5  4  2  0  0  0  0
  6  2  1  0  0  0  0
  6 13  1  0  0  0  0
  7  6  1  0  0  0  0
  7  1  1  0  0  0  0
  8 16  1  0  0  0  0
  8 18  1  0  0  0  0
  9 19  1  0  0  0  0
  9 21  1  0  0  0  0
 11  2  1  0  0  0  0
 12  6  1  0  0  0  0
 14  7  1  0  0  0  0
 15  7  1  0  0  0  0
 17  8  1  0  0  0  0
 20  9  1  0  0  0  0
M  END
