1
 OpenBabel05122313063D

 14 14  0  0  0  0  0  0  0  0999 V2000
    0.8560   -1.5364    0.9160 N   0  0  0  0  0  2  0  0  0  0  0  0
    0.9730   -2.2600   -0.2272 C   0  0  0  0  0  3  0  0  0  0  0  0
    0.4409   -1.8792   -1.1052 H   0  0  0  0  0  0  0  0  0  0  0  0
    1.7278   -3.4275   -0.3334 C   0  0  0  0  0  0  0  0  0  0  0  0
    1.7704   -3.9395   -1.3056 H   0  0  0  0  0  0  0  0  0  0  0  0
    2.4244   -3.9305    0.7800 C   0  0  0  0  0  0  0  0  0  0  0  0
    2.2812   -3.1926    1.9725 C   0  0  0  0  0  0  0  0  0  0  0  0
    2.7813   -3.5165    2.8972 H   0  0  0  0  0  0  0  0  0  0  0  0
    1.5139   -2.0292    2.0008 C   0  0  0  0  0  0  0  0  0  0  0  0
    1.4301   -1.4502    2.9274 H   0  0  0  0  0  0  0  0  0  0  0  0
    3.2917   -5.1519    0.6925 C   0  0  0  0  0  0  0  0  0  0  0  0
    2.8766   -5.8978   -0.0127 H   0  0  0  0  0  0  0  0  0  0  0  0
    3.4283   -5.6328    1.6798 H   0  0  0  0  0  0  0  0  0  0  0  0
    4.3005   -4.8761    0.3158 H   0  0  0  0  0  0  0  0  0  0  0  0
  1  9  1  0  0  0  0
  2  1  1  0  0  0  0
  3  2  1  0  0  0  0
  4  2  1  0  0  0  0
  4  6  2  0  0  0  0
  5  4  1  0  0  0  0
  6  7  1  0  0  0  0
  7  9  2  0  0  0  0
  7  8  1  0  0  0  0
  9 10  1  0  0  0  0
 11  6  1  0  0  0  0
 11 13  1  0  0  0  0
 12 11  1  0  0  0  0
 14 11  1  0  0  0  0
M  END
