1
 OpenBabel05122313063D

 16 16  0  0  0  0  0  0  0  0999 V2000
    1.1328   -0.5158   -0.0000 N   0  0  0  0  0  2  0  0  0  0  0  0
    0.5706   -1.3771   -0.0000 H   0  0  0  0  0  0  0  0  0  0  0  0
    2.4720   -0.8560   -0.0000 C   0  0  0  0  0  0  0  0  0  0  0  0
    3.5215    0.1044   -0.0000 C   0  0  0  0  0  0  0  0  0  0  0  0
    3.2751    1.1735   -0.0000 H   0  0  0  0  0  0  0  0  0  0  0  0
    4.8611   -0.2901   -0.0000 C   0  0  0  0  0  0  0  0  0  0  0  0
    5.6403    0.4900   -0.0000 H   0  0  0  0  0  0  0  0  0  0  0  0
    5.2469   -1.6485   -0.0000 C   0  0  0  0  0  0  0  0  0  0  0  0
    4.2108   -2.6034    0.0000 C   0  0  0  0  0  0  0  0  0  0  0  0
    4.4659   -3.6762    0.0000 H   0  0  0  0  0  0  0  0  0  0  0  0
    2.8647   -2.2245   -0.0000 C   0  0  0  0  0  0  0  0  0  0  0  0
    2.0794   -2.9995    0.0000 H   0  0  0  0  0  0  0  0  0  0  0  0
    6.7011   -2.0484   -0.0001 C   0  0  0  0  0  0  0  0  0  0  0  0
    7.2366   -1.6556   -0.8911 H   0  0  0  0  0  0  0  0  0  0  0  0
    6.8195   -3.1501    0.0006 H   0  0  0  0  0  0  0  0  0  0  0  0
    7.2370   -1.6544    0.8902 H   0  0  0  0  0  0  0  0  0  0  0  0
  1  3  1  0  0  0  0
  2  1  1  0  0  0  0
  3 11  1  0  0  0  0
  4  3  2  0  0  0  0
  4  6  1  0  0  0  0
  5  4  1  0  0  0  0
  6  7  1  0  0  0  0
  6  8  2  0  0  0  0
  8  9  1  0  0  0  0
  9 10  1  0  0  0  0
 11 12  1  0  0  0  0
 11  9  2  0  0  0  0
 13  8  1  0  0  0  0
 13 15  1  0  0  0  0
 13 16  1  0  0  0  0
 14 13  1  0  0  0  0
M  END
