4
 OpenBabel05122313063D

 36 38  0  0  1  0  0  0  0  0999 V2000
   -2.7952   -1.9769    1.8386 O   0  0  0  0  0  0  0  0  0  0  0  0
   -2.1761   -1.2916    2.1935 H   0  0  0  0  0  0  0  0  0  0  0  0
   -2.9332    0.0003   -0.2236 N   0  0  0  0  0  0  0  0  0  0  0  0
   -1.8445    0.8107   -0.2928 N   0  0  0  0  0  2  0  0  0  0  0  0
   -0.5289    3.4896   -1.2033 C   0  0  0  0  0  0  0  0  0  0  0  0
   -0.4915    2.7533   -2.0197 H   0  0  0  0  0  0  0  0  0  0  0  0
    0.2806    4.6333   -1.2419 C   0  0  0  0  0  0  0  0  0  0  0  0
    0.9519    4.7906   -2.0992 H   0  0  0  0  0  0  0  0  0  0  0  0
    0.2561    5.5538   -0.1822 C   0  0  0  0  0  0  0  0  0  0  0  0
    0.8957    6.4491   -0.2131 H   0  0  0  0  0  0  0  0  0  0  0  0
   -0.5843    5.3274    0.9206 C   0  0  0  0  0  0  0  0  0  0  0  0
   -0.6025    6.0424    1.7571 H   0  0  0  0  0  0  0  0  0  0  0  0
   -1.3967    4.1857    0.9644 C   0  0  0  0  0  0  0  0  0  0  0  0
   -1.3708    3.2533   -0.0949 C   0  0  0  0  0  0  0  0  0  0  0  0
   -2.2624    2.0793   -0.0615 C   0  0  1  0  0  3  0  0  0  0  0  0
   -3.6534    2.0654    0.1708 C   0  0  0  0  0  0  0  0  0  0  0  0
   -4.0594    0.7293    0.0666 C   0  0  0  0  0  0  0  0  0  0  0  0
   -5.4186    0.1736    0.1803 C   0  0  0  0  0  0  0  0  0  0  0  0
   -6.4849    0.8385   -0.4675 C   0  0  0  0  0  0  0  0  0  0  0  0
   -7.7968    0.3627   -0.3449 C   0  0  0  0  0  0  0  0  0  0  0  0
   -8.0617   -0.7815    0.4251 C   0  0  0  0  0  0  0  0  0  0  0  0
   -7.0086   -1.4417    1.0780 C   0  0  0  0  0  0  0  0  0  0  0  0
   -7.2134   -2.3297    1.6954 H   0  0  0  0  0  0  0  0  0  0  0  0
   -5.6928   -0.9706    0.9658 C   0  0  0  0  0  0  0  0  0  0  0  0
   -2.8565   -1.4176   -0.5628 C   0  0  0  0  0  0  0  0  0  0  0  0
   -2.2327   -1.5178   -1.4742 H   0  0  0  0  0  0  0  0  0  0  0  0
   -3.8916   -1.7145   -0.8149 H   0  0  0  0  0  0  0  0  0  0  0  0
   -2.2933   -2.3095    0.5680 C   0  0  0  0  0  0  0  0  0  0  0  0
   -2.0436    3.9953    1.8339 H   0  0  0  0  0  0  0  0  0  0  0  0
   -4.2927    2.9274    0.3814 H   0  0  0  0  0  0  0  0  0  0  0  0
   -6.2718    1.7253   -1.0833 H   0  0  0  0  0  0  0  0  0  0  0  0
   -8.6173    0.8853   -0.8594 H   0  0  0  0  0  0  0  0  0  0  0  0
   -9.0924   -1.1561    0.5194 H   0  0  0  0  0  0  0  0  0  0  0  0
   -4.8641   -1.4620    1.5020 H   0  0  0  0  0  0  0  0  0  0  0  0
   -2.5713   -3.3581    0.3272 H   0  0  0  0  0  0  0  0  0  0  0  0
   -1.1828   -2.2618    0.5488 H   0  0  0  0  0  0  0  0  0  0  0  0
  1  2  1  0  0  0  0
  3 17  1  0  0  0  0
  4  3  1  0  0  0  0
  4 15  1  0  0  0  0
  5 14  1  0  0  0  0
  6  5  1  0  0  0  0
  7  5  2  0  0  0  0
  7  9  1  0  0  0  0
  8  7  1  0  0  0  0
  9 11  2  0  0  0  0
 10  9  1  0  0  0  0
 11 13  1  0  0  0  0
 11 12  1  0  0  0  0
 13 29  1  0  0  0  0
 14 13  2  0  0  0  0
 15 14  1  6  0  0  0
 15 16  1  0  0  0  0
 16 30  1  0  0  0  0
 17 16  2  0  0  0  0
 17 18  1  0  0  0  0
 18 24  1  0  0  0  0
 19 20  1  0  0  0  0
 19 18  2  0  0  0  0
 20 21  2  0  0  0  0
 21 33  1  0  0  0  0
 21 22  1  0  0  0  0
 22 23  1  0  0  0  0
 24 22  2  0  0  0  0
 24 34  1  0  0  0  0
 25  3  1  0  0  0  0
 25 28  1  0  0  0  0
 26 25  1  0  0  0  0
 27 25  1  0  0  0  0
 28  1  1  0  0  0  0
 31 19  1  0  0  0  0
 32 20  1  0  0  0  0
 35 28  1  0  0  0  0
 36 28  1  0  0  0  0
M  END
