3
 OpenBabel05122313063D

 25 26  0  0  0  0  0  0  0  0999 V2000
   -5.0592    1.0601    0.1669 S   0  0  0  0  0  0  0  0  0  0  0  0
   -2.6957   -0.6578   -0.0730 S   0  0  0  0  0  0  0  0  0  0  0  0
    1.1575    1.4097   -0.0388 N   0  0  0  0  0  2  0  0  0  0  0  0
    1.6535    2.6601   -0.1870 C   0  0  0  0  0  3  0  0  0  0  0  0
    2.7454    2.7486   -0.2765 H   0  0  0  0  0  0  0  0  0  0  0  0
    0.8190    3.7858   -0.2188 C   0  0  0  0  0  0  0  0  0  0  0  0
    1.2635    4.7854   -0.3287 H   0  0  0  0  0  0  0  0  0  0  0  0
   -0.5614    3.6212   -0.1144 C   0  0  0  0  0  0  0  0  0  0  0  0
   -1.2325    4.4936   -0.1420 H   0  0  0  0  0  0  0  0  0  0  0  0
   -1.1131    2.3178    0.0181 C   0  0  0  0  0  0  0  0  0  0  0  0
   -0.1782    1.2521    0.0659 C   0  0  0  0  0  0  0  0  0  0  0  0
   -0.5074    0.2166    0.2166 H   0  0  0  0  0  0  0  0  0  0  0  0
   -2.5486    2.1472    0.0916 C   0  0  0  0  0  0  0  0  0  0  0  0
   -3.1267    3.0838    0.1456 H   0  0  0  0  0  0  0  0  0  0  0  0
   -3.2975    0.9918    0.0722 C   0  0  0  0  0  0  0  0  0  0  0  0
   -5.3643   -0.6724    0.0082 C   0  0  0  0  0  0  0  0  0  0  0  0
   -4.2666   -1.4721   -0.1034 C   0  0  0  0  0  0  0  0  0  0  0  0
   -6.8052   -1.0882    0.0180 C   0  0  0  0  0  0  0  0  0  0  0  0
   -7.3653   -0.6224   -0.8197 H   0  0  0  0  0  0  0  0  0  0  0  0
   -7.3061   -0.7821    0.9602 H   0  0  0  0  0  0  0  0  0  0  0  0
   -6.9016   -2.1853   -0.0766 H   0  0  0  0  0  0  0  0  0  0  0  0
   -4.2150   -2.9638   -0.2426 C   0  0  0  0  0  0  0  0  0  0  0  0
   -5.2320   -3.3961   -0.2735 H   0  0  0  0  0  0  0  0  0  0  0  0
   -3.6714   -3.4281    0.6069 H   0  0  0  0  0  0  0  0  0  0  0  0
   -3.6864   -3.2627   -1.1717 H   0  0  0  0  0  0  0  0  0  0  0  0
  2 15  1  0  0  0  0
  3 11  1  0  0  0  0
  4  3  1  0  0  0  0
  5  4  1  0  0  0  0
  6  4  1  0  0  0  0
  6  8  2  0  0  0  0
  7  6  1  0  0  0  0
  8 10  1  0  0  0  0
  9  8  1  0  0  0  0
 10 11  2  0  0  0  0
 10 13  1  0  0  0  0
 11 12  1  0  0  0  0
 13 14  1  0  0  0  0
 15 13  2  0  0  0  0
 15  1  1  0  0  0  0
 16 18  1  0  0  0  0
 16  1  1  0  0  0  0
 17  2  1  0  0  0  0
 17 16  2  0  0  0  0
 18 20  1  0  0  0  0
 19 18  1  0  0  0  0
 21 18  1  0  0  0  0
 22 17  1  0  0  0  0
 22 24  1  0  0  0  0
 23 22  1  0  0  0  0
 25 22  1  0  0  0  0
M  END
