1
 OpenBabel05122313063D

 21 22  0  0  0  0  0  0  0  0999 V2000
   -1.1246    0.0000    0.0004 N   0  0  0  0  0  2  0  0  0  0  0  0
   -1.8270    0.1732   -1.1456 C   0  0  0  0  0  3  0  0  0  0  0  0
   -1.2303    0.2979   -2.0629 H   0  0  0  0  0  0  0  0  0  0  0  0
   -3.2207    0.1803   -1.1867 C   0  0  0  0  0  0  0  0  0  0  0  0
   -3.7241    0.2998   -2.1561 H   0  0  0  0  0  0  0  0  0  0  0  0
   -3.9711    0.0000    0.0000 C   0  0  0  0  0  0  0  0  0  0  0  0
   -3.2210   -0.1803    1.1870 C   0  0  0  0  0  0  0  0  0  0  0  0
   -3.7245   -0.2997    2.1563 H   0  0  0  0  0  0  0  0  0  0  0  0
   -1.8272   -0.1731    1.1461 C   0  0  0  0  0  0  0  0  0  0  0  0
   -1.2308   -0.2979    2.0636 H   0  0  0  0  0  0  0  0  0  0  0  0
   -5.4485    0.0000   -0.0001 C   0  0  0  0  0  0  0  0  0  0  0  0
   -6.1715    0.7470   -0.9599 C   0  0  0  0  0  0  0  0  0  0  0  0
   -5.6333    1.3604   -1.6978 H   0  0  0  0  0  0  0  0  0  0  0  0
   -7.5713    0.7501   -0.9561 C   0  0  0  0  0  0  0  0  0  0  0  0
   -8.1177    1.3477   -1.7008 H   0  0  0  0  0  0  0  0  0  0  0  0
   -8.2758    0.0000   -0.0004 C   0  0  0  0  0  0  0  0  0  0  0  0
   -9.3759    0.0000   -0.0006 H   0  0  0  0  0  0  0  0  0  0  0  0
   -7.5716   -0.7501    0.9554 C   0  0  0  0  0  0  0  0  0  0  0  0
   -8.1181   -1.3477    1.6999 H   0  0  0  0  0  0  0  0  0  0  0  0
   -6.1717   -0.7470    0.9594 C   0  0  0  0  0  0  0  0  0  0  0  0
   -5.6337   -1.3604    1.6975 H   0  0  0  0  0  0  0  0  0  0  0  0
  1  9  1  0  0  0  0
  2  1  1  0  0  0  0
  3  2  1  0  0  0  0
  4  2  1  0  0  0  0
  4  6  2  0  0  0  0
  5  4  1  0  0  0  0
  6  7  1  0  0  0  0
  7  8  1  0  0  0  0
  9  7  2  0  0  0  0
  9 10  1  0  0  0  0
 11  6  1  0  0  0  0
 11 20  1  0  0  0  0
 12 14  1  0  0  0  0
 12 11  2  0  0  0  0
 13 12  1  0  0  0  0
 14 16  2  0  0  0  0
 15 14  1  0  0  0  0
 16 18  1  0  0  0  0
 17 16  1  0  0  0  0
 18 20  2  0  0  0  0
 18 19  1  0  0  0  0
 20 21  1  0  0  0  0
M  END
