1
 OpenBabel05122313063D

 17 17  0  0  0  0  0  0  0  0999 V2000
    2.0738   -0.4654   -0.2591 N   0  0  0  0  0  0  0  0  0  0  0  0
    3.0405   -0.9596   -1.2891 C   0  0  0  0  0  0  0  0  0  0  0  0
    4.3493   -0.1690   -1.2434 C   0  0  0  0  0  0  0  0  0  0  0  0
    4.9837   -0.2152    0.1509 C   0  0  0  0  0  0  0  0  0  0  0  0
    3.9725    0.2288    1.2138 C   0  0  0  0  0  0  0  0  0  0  0  0
    2.6667   -0.5614    1.1048 C   0  0  0  0  0  0  0  0  0  0  0  0
    1.9351    0.5411   -0.4637 H   0  0  0  0  0  0  0  0  0  0  0  0
    3.2246   -2.0334   -1.0800 H   0  0  0  0  0  0  0  0  0  0  0  0
    2.5402   -0.8743   -2.2720 H   0  0  0  0  0  0  0  0  0  0  0  0
    4.1418    0.8852   -1.5339 H   0  0  0  0  0  0  0  0  0  0  0  0
    5.0377   -0.5729   -2.0134 H   0  0  0  0  0  0  0  0  0  0  0  0
    5.8919    0.4192    0.1902 H   0  0  0  0  0  0  0  0  0  0  0  0
    5.3180   -1.2537    0.3694 H   0  0  0  0  0  0  0  0  0  0  0  0
    3.7430    1.3110    1.0966 H   0  0  0  0  0  0  0  0  0  0  0  0
    4.3824    0.1053    2.2373 H   0  0  0  0  0  0  0  0  0  0  0  0
    2.8404   -1.6379    1.3098 H   0  0  0  0  0  0  0  0  0  0  0  0
    1.9143   -0.2040    1.8332 H   0  0  0  0  0  0  0  0  0  0  0  0
  1  6  1  0  0  0  0
  2  3  1  0  0  0  0
  2  8  1  0  0  0  0
  2  1  1  0  0  0  0
  3  4  1  0  0  0  0
  4 12  1  0  0  0  0
  4 13  1  0  0  0  0
  4  5  1  0  0  0  0
  5 15  1  0  0  0  0
  6  5  1  0  0  0  0
  6 16  1  0  0  0  0
  6 17  1  0  0  0  0
  7  1  1  0  0  0  0
  9  2  1  0  0  0  0
 10  3  1  0  0  0  0
 11  3  1  0  0  0  0
 14  5  1  0  0  0  0
M  END
