2
 OpenBabel05122313063D

 18 19  0  0  1  0  0  0  0  0999 V2000
   -1.5257    0.9351    1.3868 N   0  0  0  0  0  0  0  0  0  0  0  0
   -0.0064    2.0435   -0.6122 N   0  0  0  0  0  2  0  0  0  0  0  0
   -2.3330    0.0940    2.0607 C   0  0  0  0  0  0  0  0  0  0  0  0
   -2.1370    1.7802    0.5205 C   0  0  0  0  0  0  0  0  0  0  0  0
   -1.2173    2.6002   -0.3221 C   0  0  2  0  0  3  0  0  0  0  0  0
    0.8628    2.7525   -1.3543 C   0  0  0  0  0  0  0  0  0  0  0  0
   -3.4517    1.9258    0.3374 N   0  0  0  0  0  0  0  0  0  0  0  0
   -1.8433   -0.6122    2.7519 H   0  0  0  0  0  0  0  0  0  0  0  0
   -3.7257    0.1178    1.8995 C   0  0  0  0  0  0  0  0  0  0  0  0
   -1.6084    3.8061   -0.7462 N   0  0  0  0  0  0  0  0  0  0  0  0
    0.5316    4.0266   -1.8232 C   0  0  0  0  0  0  0  0  0  0  0  0
    1.8116    2.2435   -1.5892 H   0  0  0  0  0  0  0  0  0  0  0  0
   -4.3749   -0.5917    2.4304 H   0  0  0  0  0  0  0  0  0  0  0  0
   -4.2435    1.0886    1.0313 C   0  0  0  0  0  0  0  0  0  0  0  0
   -0.7452    4.5085   -1.4911 C   0  0  0  0  0  0  0  0  0  0  0  0
    1.2329    4.6063   -2.4393 H   0  0  0  0  0  0  0  0  0  0  0  0
   -5.3310    1.1924    0.8752 H   0  0  0  0  0  0  0  0  0  0  0  0
   -1.0863    5.4996   -1.8393 H   0  0  0  0  0  0  0  0  0  0  0  0
  1  3  1  0  0  0  0
  2  5  1  0  0  0  0
  3  8  1  0  0  0  0
  4  1  2  0  0  0  0
  5  4  1  6  0  0  0
  6  2  1  0  0  0  0
  7  4  1  0  0  0  0
  7 14  2  0  0  0  0
  9  3  2  0  0  0  0
  9 13  1  0  0  0  0
 10  5  1  0  0  0  0
 11 15  1  0  0  0  0
 11  6  2  0  0  0  0
 12  6  1  0  0  0  0
 14  9  1  0  0  0  0
 15 10  2  0  0  0  0
 16 11  1  0  0  0  0
 17 14  1  0  0  0  0
 18 15  1  0  0  0  0
M  END
