1
 OpenBabel05122313063D

 40 41  0  0  0  0  0  0  0  0999 V2000
    0.9504   -1.8482   -0.0365 N   0  0  0  0  0  0  0  0  0  0  0  0
    0.7717   -2.2653   -0.9641 H   0  0  0  0  0  0  0  0  0  0  0  0
    0.3957   -2.4061    0.6359 H   0  0  0  0  0  0  0  0  0  0  0  0
    2.4140   -1.9757    0.3057 C   0  0  0  0  0  0  0  0  0  0  0  0
    3.2322   -1.4593   -0.9229 C   0  0  0  0  0  0  0  0  0  0  0  0
    2.6264   -0.6815   -1.4254 H   0  0  0  0  0  0  0  0  0  0  0  0
    3.3286   -2.2943   -1.6484 H   0  0  0  0  0  0  0  0  0  0  0  0
    4.6001   -0.9244   -0.5797 C   0  0  0  0  0  0  0  0  0  0  0  0
    4.7869    0.4547   -0.2591 C   0  0  0  0  0  0  0  0  0  0  0  0
    6.0631    0.8873    0.1734 C   0  0  0  0  0  0  0  0  0  0  0  0
    6.2111    1.9556    0.3929 H   0  0  0  0  0  0  0  0  0  0  0  0
    7.1386   -0.0015    0.2803 C   0  0  0  0  0  0  0  0  0  0  0  0
    8.1232    0.3638    0.6095 H   0  0  0  0  0  0  0  0  0  0  0  0
    6.9619   -1.3506   -0.0650 C   0  0  0  0  0  0  0  0  0  0  0  0
    7.8061   -2.0546   -0.0095 H   0  0  0  0  0  0  0  0  0  0  0  0
    5.7023   -1.7961   -0.4914 C   0  0  0  0  0  0  0  0  0  0  0  0
    5.5649   -2.8545   -0.7644 H   0  0  0  0  0  0  0  0  0  0  0  0
    3.6834    1.4149   -0.3931 C   0  0  0  0  0  0  0  0  0  0  0  0
    2.9510    1.2232   -1.1965 H   0  0  0  0  0  0  0  0  0  0  0  0
    3.4598    2.4814    0.4205 C   0  0  0  0  0  0  0  0  0  0  0  0
    4.0920    2.6177    1.3159 H   0  0  0  0  0  0  0  0  0  0  0  0
    2.3748    3.4529    0.2471 C   0  0  0  0  0  0  0  0  0  0  0  0
    1.8985    4.1855    1.3616 C   0  0  0  0  0  0  0  0  0  0  0  0
    2.3517    4.0076    2.3495 H   0  0  0  0  0  0  0  0  0  0  0  0
    0.8603    5.1184    1.2279 C   0  0  0  0  0  0  0  0  0  0  0  0
    0.5065    5.6721    2.1111 H   0  0  0  0  0  0  0  0  0  0  0  0
    0.2832    5.3564   -0.0301 C   0  0  0  0  0  0  0  0  0  0  0  0
   -0.5198    6.1004   -0.1419 H   0  0  0  0  0  0  0  0  0  0  0  0
    0.7481    4.6413   -1.1492 C   0  0  0  0  0  0  0  0  0  0  0  0
    0.3107    4.8268   -2.1425 H   0  0  0  0  0  0  0  0  0  0  0  0
    1.7770    3.7004   -1.0154 C   0  0  0  0  0  0  0  0  0  0  0  0
    2.1323    3.1537   -1.9001 H   0  0  0  0  0  0  0  0  0  0  0  0
    2.6845   -1.1814    1.5871 C   0  0  0  0  0  0  0  0  0  0  0  0
    2.0136   -1.5216    2.3992 H   0  0  0  0  0  0  0  0  0  0  0  0
    3.7358   -1.3209    1.9024 H   0  0  0  0  0  0  0  0  0  0  0  0
    2.5013   -0.1014    1.4358 H   0  0  0  0  0  0  0  0  0  0  0  0
    2.7263   -3.4610    0.5524 C   0  0  0  0  0  0  0  0  0  0  0  0
    2.4542   -4.0838   -0.3239 H   0  0  0  0  0  0  0  0  0  0  0  0
    3.8097   -3.5882    0.7453 H   0  0  0  0  0  0  0  0  0  0  0  0
    2.1764   -3.8445    1.4354 H   0  0  0  0  0  0  0  0  0  0  0  0
  1  4  1  0  0  0  0
  1  3  1  0  0  0  0
  2  1  1  0  0  0  0
  4 37  1  0  0  0  0
  4 33  1  0  0  0  0
  5  8  1  0  0  0  0
  5  4  1  0  0  0  0
  6  5  1  0  0  0  0
  7  5  1  0  0  0  0
  8 16  2  0  0  0  0
  8  9  1  0  0  0  0
  9 10  2  0  0  0  0
 10 12  1  0  0  0  0
 10 11  1  0  0  0  0
 12 13  1  0  0  0  0
 14 15  1  0  0  0  0
 14 12  2  0  0  0  0
 16 14  1  0  0  0  0
 17 16  1  0  0  0  0
 18  9  1  0  0  0  0
 18 20  2  0  0  0  0
 19 18  1  0  0  0  0
 20 21  1  0  0  0  0
 22 20  1  0  0  0  0
 22 23  1  0  0  0  0
 23 24  1  0  0  0  0
 25 23  2  0  0  0  0
 25 26  1  0  0  0  0
 27 25  1  0  0  0  0
 28 27  1  0  0  0  0
 29 31  1  0  0  0  0
 29 27  2  0  0  0  0
 30 29  1  0  0  0  0
 31 22  2  0  0  0  0
 32 31  1  0  0  0  0
 33 35  1  0  0  0  0
 33 34  1  0  0  0  0
 36 33  1  0  0  0  0
 37 39  1  0  0  0  0
 37 40  1  0  0  0  0
 38 37  1  0  0  0  0
M  END
