1
 OpenBabel05122313063D

 56 59  0  0  0  0  0  0  0  0999 V2000
    0.9928   -0.0456    0.3571 N   0  0  0  0  0  2  0  0  0  0  0  0
   -0.5733    1.4696    1.3689 N   0  0  0  0  0  0  0  0  0  0  0  0
    0.6398    2.2259   -0.3321 N   0  0  0  0  0  0  0  0  0  0  0  0
   -3.4415    0.2767    0.1660 N   0  0  0  0  0  0  0  0  0  0  0  0
   -5.5689   -0.4934   -0.7640 N   0  0  0  0  0  0  0  0  0  0  0  0
   -5.4480    0.1807    1.3826 N   0  0  0  0  0  0  0  0  0  0  0  0
    0.2142   -1.2163    0.5557 C   0  0  0  0  0  0  0  0  0  0  0  0
    0.6813   -2.2402    1.4052 C   0  0  0  0  0  0  0  0  0  0  0  0
    1.6676   -2.1132    1.8764 H   0  0  0  0  0  0  0  0  0  0  0  0
   -0.0990   -3.3736    1.6522 C   0  0  0  0  0  0  0  0  0  0  0  0
    0.2805   -4.1610    2.3210 H   0  0  0  0  0  0  0  0  0  0  0  0
   -1.3656   -3.4999    1.0556 C   0  0  0  0  0  0  0  0  0  0  0  0
   -1.9878   -4.3858    1.2525 H   0  0  0  0  0  0  0  0  0  0  0  0
   -1.8211   -2.5008    0.1862 C   0  0  0  0  0  0  0  0  0  0  0  0
   -2.7927   -2.6092   -0.3180 H   0  0  0  0  0  0  0  0  0  0  0  0
   -1.0389   -1.3637   -0.1023 C   0  0  0  0  0  0  0  0  0  0  0  0
   -1.4708   -0.3763   -1.1301 C   0  0  0  0  0  0  0  0  0  0  0  0
   -0.6621   -0.1856   -2.2706 C   0  0  0  0  0  0  0  0  0  0  0  0
    0.2631   -0.7796   -2.3549 H   0  0  0  0  0  0  0  0  0  0  0  0
   -1.0099    0.7373   -3.2662 C   0  0  0  0  0  0  0  0  0  0  0  0
   -0.3646    0.8650   -4.1482 H   0  0  0  0  0  0  0  0  0  0  0  0
   -2.1845    1.4961   -3.1233 C   0  0  0  0  0  0  0  0  0  0  0  0
   -2.4678    2.2324   -3.8919 H   0  0  0  0  0  0  0  0  0  0  0  0
   -3.0032    1.3179   -2.0023 C   0  0  0  0  0  0  0  0  0  0  0  0
   -3.9256    1.9074   -1.8841 H   0  0  0  0  0  0  0  0  0  0  0  0
   -2.6757    0.3728   -0.9925 C   0  0  0  0  0  0  0  0  0  0  0  0
    0.3927    1.1479    0.4615 C   0  0  0  0  0  3  0  0  0  0  0  0
   -1.1423    2.7782    1.0644 C   0  0  0  0  0  0  0  0  0  0  0  0
   -1.3224    3.3483    1.9972 H   0  0  0  0  0  0  0  0  0  0  0  0
   -2.1077    2.6675    0.5205 H   0  0  0  0  0  0  0  0  0  0  0  0
   -0.0441    3.4032    0.1874 C   0  0  0  0  0  0  0  0  0  0  0  0
   -0.4545    4.0100   -0.6434 H   0  0  0  0  0  0  0  0  0  0  0  0
    0.6638    4.0326    0.7769 H   0  0  0  0  0  0  0  0  0  0  0  0
   -0.9940    0.6615    2.4907 C   0  0  0  0  0  0  0  0  0  0  0  0
   -1.8416   -0.0040    2.2235 H   0  0  0  0  0  0  0  0  0  0  0  0
   -1.3003    1.3379    3.3142 H   0  0  0  0  0  0  0  0  0  0  0  0
   -0.1475    0.0452    2.8429 H   0  0  0  0  0  0  0  0  0  0  0  0
    1.5996    2.3259   -1.4015 C   0  0  0  0  0  0  0  0  0  0  0  0
    1.8895    1.3096   -1.7308 H   0  0  0  0  0  0  0  0  0  0  0  0
    2.5181    2.8545   -1.0653 H   0  0  0  0  0  0  0  0  0  0  0  0
    1.1423    2.8626   -2.2582 H   0  0  0  0  0  0  0  0  0  0  0  0
   -4.7059    0.0062    0.2160 C   0  0  0  0  0  0  0  0  0  0  0  0
   -6.8561   -0.8172   -0.1573 C   0  0  0  0  0  0  0  0  0  0  0  0
   -6.9012   -1.9008    0.1148 H   0  0  0  0  0  0  0  0  0  0  0  0
   -7.6982   -0.6042   -0.8474 H   0  0  0  0  0  0  0  0  0  0  0  0
   -6.8657    0.0650    1.0927 C   0  0  0  0  0  0  0  0  0  0  0  0
   -7.3176    1.0668    0.8801 H   0  0  0  0  0  0  0  0  0  0  0  0
   -7.4259   -0.3873    1.9369 H   0  0  0  0  0  0  0  0  0  0  0  0
   -5.1281   -1.3357   -1.8578 C   0  0  0  0  0  0  0  0  0  0  0  0
   -4.1589   -0.9867   -2.2534 H   0  0  0  0  0  0  0  0  0  0  0  0
   -5.8712   -1.2902   -2.6797 H   0  0  0  0  0  0  0  0  0  0  0  0
   -5.0244   -2.4026   -1.5453 H   0  0  0  0  0  0  0  0  0  0  0  0
   -4.9916    1.0525    2.4364 C   0  0  0  0  0  0  0  0  0  0  0  0
   -3.8880    1.0142    2.4669 H   0  0  0  0  0  0  0  0  0  0  0  0
   -5.3947    0.7157    3.4131 H   0  0  0  0  0  0  0  0  0  0  0  0
   -5.3036    2.1133    2.2749 H   0  0  0  0  0  0  0  0  0  0  0  0
  1 27  1  0  0  0  0
  1  7  1  0  0  0  0
  2 34  1  0  0  0  0
  3 31  1  0  0  0  0
  3 27  1  0  0  0  0
  4 42  2  0  0  0  0
  5 43  1  0  0  0  0
  5 42  1  0  0  0  0
  6 53  1  0  0  0  0
  7  8  1  0  0  0  0
  8 10  2  0  0  0  0
  8  9  1  0  0  0  0
 10 11  1  0  0  0  0
 12 13  1  0  0  0  0
 12 10  1  0  0  0  0
 14 12  2  0  0  0  0
 15 14  1  0  0  0  0
 16 14  1  0  0  0  0
 16  7  2  0  0  0  0
 17 26  1  0  0  0  0
 17 16  1  0  0  0  0
 18 17  2  0  0  0  0
 19 18  1  0  0  0  0
 20 22  2  0  0  0  0
 20 18  1  0  0  0  0
 21 20  1  0  0  0  0
 22 24  1  0  0  0  0
 23 22  1  0  0  0  0
 24 25  1  0  0  0  0
 24 26  2  0  0  0  0
 26  4  1  0  0  0  0
 27  2  1  0  0  0  0
 28  2  1  0  0  0  0
 28 29  1  0  0  0  0
 30 28  1  0  0  0  0
 31 33  1  0  0  0  0
 31 28  1  0  0  0  0
 32 31  1  0  0  0  0
 34 37  1  0  0  0  0
 34 36  1  0  0  0  0
 35 34  1  0  0  0  0
 38 40  1  0  0  0  0
 38  3  1  0  0  0  0
 39 38  1  0  0  0  0
 41 38  1  0  0  0  0
 42  6  1  0  0  0  0
 43 44  1  0  0  0  0
 43 46  1  0  0  0  0
 45 43  1  0  0  0  0
 46  6  1  0  0  0  0
 46 48  1  0  0  0  0
 47 46  1  0  0  0  0
 49 52  1  0  0  0  0
 49  5  1  0  0  0  0
 50 49  1  0  0  0  0
 51 49  1  0  0  0  0
 53 54  1  0  0  0  0
 53 55  1  0  0  0  0
 56 53  1  0  0  0  0
M  END
