5
 OpenBabel05122313063D

 24 24  0  0  1  0  0  0  0  0999 V2000
   -0.1208    0.7690   -2.1512 O   0  0  0  0  0  0  0  0  0  0  0  0
   -0.1470   -0.1922   -2.4116 H   0  0  0  0  0  0  0  0  0  0  0  0
    6.7091    1.1802    0.2743 O   0  0  0  0  0  0  0  0  0  0  0  0
    6.2249    2.2611   -1.6640 O   0  0  0  0  0  0  0  0  0  0  0  0
    1.8660    0.1208   -0.2857 N   0  0  0  0  0  2  0  0  0  0  0  0
    1.1650    1.2608   -2.3821 C   0  0  0  0  0  0  0  0  0  0  0  0
    1.1103    2.3730   -2.3928 H   0  0  0  0  0  0  0  0  0  0  0  0
    1.5647    0.9687   -3.3833 H   0  0  0  0  0  0  0  0  0  0  0  0
    2.2132    0.8819   -1.3429 C   0  0  1  0  0  3  0  0  0  0  0  0
    3.5276    1.3576   -1.4899 C   0  0  0  0  0  0  0  0  0  0  0  0
    3.8156    1.9758   -2.3537 H   0  0  0  0  0  0  0  0  0  0  0  0
    4.4917    1.0452   -0.5250 C   0  0  0  0  0  0  0  0  0  0  0  0
    4.1118    0.2596    0.5796 C   0  0  0  0  0  0  0  0  0  0  0  0
    4.8371   -0.0059    1.3591 H   0  0  0  0  0  0  0  0  0  0  0  0
    2.7914   -0.1786    0.6537 C   0  0  0  0  0  0  0  0  0  0  0  0
    2.4453   -0.7949    1.4942 H   0  0  0  0  0  0  0  0  0  0  0  0
    5.8865    1.5695   -0.7197 C   0  0  0  0  0  0  0  0  0  0  0  0
    8.0815    1.6295    0.1743 C   0  0  0  0  0  0  0  0  0  0  0  0
    8.4980    1.2743   -0.7919 H   0  0  0  0  0  0  0  0  0  0  0  0
    8.0863    2.7393    0.1357 H   0  0  0  0  0  0  0  0  0  0  0  0
    8.8386    1.0866    1.3669 C   0  0  0  0  0  0  0  0  0  0  0  0
    8.4052    1.4559    2.3173 H   0  0  0  0  0  0  0  0  0  0  0  0
    9.8963    1.4125    1.3203 H   0  0  0  0  0  0  0  0  0  0  0  0
    8.8190   -0.0210    1.3816 H   0  0  0  0  0  0  0  0  0  0  0  0
  2  1  1  0  0  0  0
  4 17  2  0  0  0  0
  5 15  1  0  0  0  0
  6  1  1  0  0  0  0
  7  6  1  0  0  0  0
  8  6  1  0  0  0  0
  9  6  1  1  0  0  0
  9  5  1  0  0  0  0
 10  9  1  0  0  0  0
 10 12  2  0  0  0  0
 11 10  1  0  0  0  0
 12 13  1  0  0  0  0
 13 15  2  0  0  0  0
 13 14  1  0  0  0  0
 15 16  1  0  0  0  0
 17 12  1  0  0  0  0
 17  3  1  0  0  0  0
 18  3  1  0  0  0  0
 18 21  1  0  0  0  0
 19 18  1  0  0  0  0
 20 18  1  0  0  0  0
 21 24  1  0  0  0  0
 21 22  1  0  0  0  0
 23 21  1  0  0  0  0
M  END
