2
 OpenBabel05122313063D

 18 17  0  0  0  0  0  0  0  0999 V2000
   -1.5311   -1.2427    0.8716 N   0  0  0  0  0  0  0  0  0  0  0  0
   -2.0365    0.3592   -1.3836 N   0  0  0  0  0  0  0  0  0  0  0  0
   -2.2754    1.3115   -1.6921 H   0  0  0  0  0  0  0  0  0  0  0  0
   -1.7578   -0.1844   -2.2228 H   0  0  0  0  0  0  0  0  0  0  0  0
   -2.6619   -1.5610   -0.0550 C   0  0  0  0  0  0  0  0  0  0  0  0
   -2.2617   -2.2406   -0.8321 H   0  0  0  0  0  0  0  0  0  0  0  0
   -3.4682   -2.0925    0.4955 H   0  0  0  0  0  0  0  0  0  0  0  0
   -3.1829   -0.2960   -0.7105 C   0  0  0  0  0  0  0  0  0  0  0  0
   -3.9928   -0.5407   -1.4294 H   0  0  0  0  0  0  0  0  0  0  0  0
   -3.6043    0.4106    0.0321 H   0  0  0  0  0  0  0  0  0  0  0  0
   -0.8049   -2.4990    1.1965 C   0  0  0  0  0  0  0  0  0  0  0  0
   -1.5030   -3.2371    1.6470 H   0  0  0  0  0  0  0  0  0  0  0  0
   -0.0012   -2.2771    1.9209 H   0  0  0  0  0  0  0  0  0  0  0  0
   -0.3614   -2.9081    0.2712 H   0  0  0  0  0  0  0  0  0  0  0  0
   -2.0639   -0.6725    2.1338 C   0  0  0  0  0  0  0  0  0  0  0  0
   -2.7791   -1.3828    2.6029 H   0  0  0  0  0  0  0  0  0  0  0  0
   -2.5787    0.2864    1.9447 H   0  0  0  0  0  0  0  0  0  0  0  0
   -1.2345   -0.4994    2.8408 H   0  0  0  0  0  0  0  0  0  0  0  0
  1 11  1  0  0  0  0
  1 15  1  0  0  0  0
  2  8  1  0  0  0  0
  3  2  1  0  0  0  0
  4  2  1  0  0  0  0
  5  7  1  0  0  0  0
  5  1  1  0  0  0  0
  6  5  1  0  0  0  0
  8  5  1  0  0  0  0
  8 10  1  0  0  0  0
  9  8  1  0  0  0  0
 11 12  1  0  0  0  0
 11 13  1  0  0  0  0
 14 11  1  0  0  0  0
 15 16  1  0  0  0  0
 15 18  1  0  0  0  0
 17 15  1  0  0  0  0
M  END
