2
 OpenBabel05122313063D

 11 11  0  0  0  0  0  0  0  0999 V2000
   -3.7085    1.5612   -0.0000 Cl  0  0  0  0  0  0  0  0  0  0  0  0
    0.0109    0.0633    0.0002 N   0  0  0  0  0  2  0  0  0  0  0  0
   -1.4815   -1.7484    0.0003 N   0  0  0  0  0  0  0  0  0  0  0  0
   -1.6204   -2.7653    0.0003 H   0  0  0  0  0  0  0  0  0  0  0  0
    0.7965   -2.0922    0.0002 O   0  0  0  0  0  0  0  0  0  0  0  0
   -3.7704   -1.4964    0.0002 O   0  0  0  0  0  0  0  0  0  0  0  0
   -0.1861   -1.2985    0.0002 C   0  0  0  0  0  0  0  0  0  0  0  0
   -2.6755   -0.9679    0.0002 C   0  0  0  0  0  0  0  0  0  0  0  0
   -2.3746    0.4750    0.0001 C   0  0  0  0  0  0  0  0  0  0  0  0
   -1.0750    0.9119    0.0001 C   0  0  0  0  0  0  0  0  0  0  0  0
   -0.8656    1.9933    0.0001 H   0  0  0  0  0  0  0  0  0  0  0  0
  1  9  1  0  0  0  0
  3  4  1  0  0  0  0
  6  8  2  0  0  0  0
  7  2  1  0  0  0  0
  7  5  2  0  0  0  0
  7  3  1  0  0  0  0
  8  3  1  0  0  0  0
  9 10  2  0  0  0  0
  9  8  1  0  0  0  0
 10  2  1  0  0  0  0
 11 10  1  0  0  0  0
M  END
