1
 OpenBabel05122313063D

 17 17  0  0  0  0  0  0  0  0999 V2000
    2.0796   -0.1091   -0.3206 N   0  0  0  0  0  2  0  0  0  0  0  0
    2.7674    1.0581   -0.3137 C   0  0  0  0  0  3  0  0  0  0  0  0
    2.1587    1.9704   -0.3972 H   0  0  0  0  0  0  0  0  0  0  0  0
    4.1667    1.1050   -0.2377 C   0  0  0  0  0  0  0  0  0  0  0  0
    4.8561   -0.1203   -0.1912 C   0  0  0  0  0  0  0  0  0  0  0  0
    5.9573   -0.1252   -0.1365 H   0  0  0  0  0  0  0  0  0  0  0  0
    4.1548   -1.3408   -0.2138 C   0  0  0  0  0  0  0  0  0  0  0  0
    2.7555   -1.2831   -0.2679 C   0  0  0  0  0  0  0  0  0  0  0  0
    2.1352   -2.1904   -0.2377 H   0  0  0  0  0  0  0  0  0  0  0  0
    4.8893    2.4255   -0.2041 C   0  0  0  0  0  0  0  0  0  0  0  0
    5.3546    2.5978    0.7892 H   0  0  0  0  0  0  0  0  0  0  0  0
    4.2021    3.2691   -0.4057 H   0  0  0  0  0  0  0  0  0  0  0  0
    5.7047    2.4578   -0.9548 H   0  0  0  0  0  0  0  0  0  0  0  0
    4.8678   -2.6663   -0.1750 C   0  0  0  0  0  0  0  0  0  0  0  0
    4.1567   -3.5059   -0.0589 H   0  0  0  0  0  0  0  0  0  0  0  0
    5.5919   -2.7084    0.6639 H   0  0  0  0  0  0  0  0  0  0  0  0
    5.4423   -2.8352   -1.1098 H   0  0  0  0  0  0  0  0  0  0  0  0
  1  2  1  0  0  0  0
  1  8  1  0  0  0  0
  2  4  1  0  0  0  0
  3  2  1  0  0  0  0
  4 10  1  0  0  0  0
  4  5  2  0  0  0  0
  5  6  1  0  0  0  0
  7  5  1  0  0  0  0
  7 14  1  0  0  0  0
  8  9  1  0  0  0  0
  8  7  2  0  0  0  0
 10 11  1  0  0  0  0
 12 10  1  0  0  0  0
 13 10  1  0  0  0  0
 14 15  1  0  0  0  0
 14 16  1  0  0  0  0
 17 14  1  0  0  0  0
M  END
