1
 OpenBabel05122313063D

 27 29  0  0  0  0  0  0  0  0999 V2000
    0.8844   -0.6827    1.5758 N   0  0  0  0  0  0  0  0  0  0  0  0
   -0.8764   -1.9205    0.2663 N   0  0  0  0  0  0  0  0  0  0  0  0
    1.7614    1.2818    0.2870 N   0  0  0  0  0  0  0  0  0  0  0  0
   -0.7466   -2.3294    1.5871 C   0  0  0  0  0  0  0  0  0  0  0  0
   -1.6251   -3.2958    2.1215 C   0  0  0  0  0  0  0  0  0  0  0  0
   -1.4869   -3.6121    3.1647 H   0  0  0  0  0  0  0  0  0  0  0  0
    2.2318    1.1989    1.5917 C   0  0  0  0  0  0  0  0  0  0  0  0
    1.7487    0.0513    2.3188 C   0  0  0  0  0  0  0  0  0  0  0  0
   -1.9008   -2.3936   -0.4668 C   0  0  0  0  0  0  0  0  0  0  0  0
   -2.0004   -1.9873   -1.4804 H   0  0  0  0  0  0  0  0  0  0  0  0
   -2.8150   -3.3317    0.0233 C   0  0  0  0  0  0  0  0  0  0  0  0
   -3.6330   -3.6751   -0.6240 H   0  0  0  0  0  0  0  0  0  0  0  0
    1.7337   -0.4803    3.6470 C   0  0  0  0  0  0  0  0  0  0  0  0
    2.3085   -0.1152    4.5058 H   0  0  0  0  0  0  0  0  0  0  0  0
    0.2849   -1.6413    2.3233 C   0  0  0  0  0  3  0  0  0  0  0  0
    0.8121   -1.5458    3.6496 C   0  0  0  0  0  0  0  0  0  0  0  0
    0.5388   -2.1672    4.5101 H   0  0  0  0  0  0  0  0  0  0  0  0
   -2.6598   -3.8045    1.3371 C   0  0  0  0  0  0  0  0  0  0  0  0
   -3.3536   -4.5521    1.7499 H   0  0  0  0  0  0  0  0  0  0  0  0
    3.0197    2.2378    2.1316 C   0  0  0  0  0  0  0  0  0  0  0  0
    3.4014    2.1301    3.1564 H   0  0  0  0  0  0  0  0  0  0  0  0
    1.9375    2.4296   -0.3941 C   0  0  0  0  0  0  0  0  0  0  0  0
    1.4379    2.4972   -1.3679 H   0  0  0  0  0  0  0  0  0  0  0  0
    2.6757    3.5055    0.1088 C   0  0  0  0  0  0  0  0  0  0  0  0
    2.7817    4.4152   -0.4973 H   0  0  0  0  0  0  0  0  0  0  0  0
    3.2559    3.3908    1.3834 C   0  0  0  0  0  0  0  0  0  0  0  0
    3.8605    4.2098    1.8009 H   0  0  0  0  0  0  0  0  0  0  0  0
  1  8  2  0  0  0  0
  1 15  1  0  0  0  0
  2  4  1  0  0  0  0
  3  7  1  0  0  0  0
  4  5  2  0  0  0  0
  4 15  1  0  0  0  0
  5  6  1  0  0  0  0
  7 20  2  0  0  0  0
  7  8  1  0  0  0  0
  8 13  1  0  0  0  0
  9 11  1  0  0  0  0
  9  2  2  0  0  0  0
 10  9  1  0  0  0  0
 11 18  2  0  0  0  0
 12 11  1  0  0  0  0
 13 16  2  0  0  0  0
 13 14  1  0  0  0  0
 15 16  1  0  0  0  0
 16 17  1  0  0  0  0
 18 19  1  0  0  0  0
 18  5  1  0  0  0  0
 20 21  1  0  0  0  0
 22 24  1  0  0  0  0
 22  3  2  0  0  0  0
 23 22  1  0  0  0  0
 24 26  2  0  0  0  0
 25 24  1  0  0  0  0
 26 27  1  0  0  0  0
 26 20  1  0  0  0  0
M  END
