1
 OpenBabel05122313063D

 19 19  0  0  0  0  0  0  0  0999 V2000
   -0.9562   -0.0011    0.1130 N   0  0  0  0  0  2  0  0  0  0  0  0
   -4.8221   -0.0044    1.8126 N   0  0  0  0  0  0  0  0  0  0  0  0
   -2.0670   -0.0017   -0.6549 C   0  0  0  0  0  3  0  0  0  0  0  0
   -1.9067   -0.0011   -1.7432 H   0  0  0  0  0  0  0  0  0  0  0  0
   -3.3624   -0.0028   -0.1497 C   0  0  0  0  0  0  0  0  0  0  0  0
   -4.2011   -0.0032   -0.8562 H   0  0  0  0  0  0  0  0  0  0  0  0
   -3.5696   -0.0034    1.2606 C   0  0  0  0  0  0  0  0  0  0  0  0
   -2.3900   -0.0028    2.0585 C   0  0  0  0  0  0  0  0  0  0  0  0
   -2.4346   -0.0031    3.1540 H   0  0  0  0  0  0  0  0  0  0  0  0
   -1.1380   -0.0017    1.4540 C   0  0  0  0  0  0  0  0  0  0  0  0
   -0.2293   -0.0012    2.0724 H   0  0  0  0  0  0  0  0  0  0  0  0
   -5.9937   -0.0048    0.9549 C   0  0  0  0  0  0  0  0  0  0  0  0
   -6.0294    0.8940    0.3002 H   0  0  0  0  0  0  0  0  0  0  0  0
   -6.9042   -0.0048    1.5798 H   0  0  0  0  0  0  0  0  0  0  0  0
   -6.0291   -0.9038    0.3005 H   0  0  0  0  0  0  0  0  0  0  0  0
   -4.9776   -0.0053    3.2577 C   0  0  0  0  0  0  0  0  0  0  0  0
   -4.5161   -0.9038    3.7230 H   0  0  0  0  0  0  0  0  0  0  0  0
   -6.0529   -0.0064    3.5090 H   0  0  0  0  0  0  0  0  0  0  0  0
   -4.5176    0.8933    3.7241 H   0  0  0  0  0  0  0  0  0  0  0  0
  1 10  1  0  0  0  0
  2 16  1  0  0  0  0
  3  5  1  0  0  0  0
  3  1  1  0  0  0  0
  4  3  1  0  0  0  0
  5  7  2  0  0  0  0
  6  5  1  0  0  0  0
  7  2  1  0  0  0  0
  7  8  1  0  0  0  0
  8  9  1  0  0  0  0
 10  8  2  0  0  0  0
 10 11  1  0  0  0  0
 12 14  1  0  0  0  0
 12  2  1  0  0  0  0
 13 12  1  0  0  0  0
 15 12  1  0  0  0  0
 16 18  1  0  0  0  0
 16 17  1  0  0  0  0
 16 19  1  0  0  0  0
M  END
