2
 OpenBabel05122313063D

 34 34  0  0  0  0  0  0  0  0999 V2000
   -2.2411   -1.9420   -0.8502 H   0  0  0  0  0  0  0  0  0  0  0  0
   -0.2266    1.2819   -1.4088 N   0  0  0  0  0  2  0  0  0  0  0  0
    2.1503    3.5176    0.6534 N   0  0  0  0  0  0  0  0  0  0  0  0
    2.9575    3.9543    0.1867 H   0  0  0  0  0  0  0  0  0  0  0  0
   -2.0091   -0.9823   -1.1819 O   0  0  0  0  0  0  0  0  0  0  0  0
   -6.5005    0.4126   -0.0585 O   0  0  0  0  0  0  0  0  0  0  0  0
   -2.6969    1.2390   -1.5751 C   0  0  0  0  0  0  0  0  0  0  0  0
   -2.9844   -0.0807   -1.1050 C   0  0  0  0  0  0  0  0  0  0  0  0
   -4.2637   -0.3809   -0.5986 C   0  0  0  0  0  0  0  0  0  0  0  0
   -4.4425   -1.3833   -0.1895 H   0  0  0  0  0  0  0  0  0  0  0  0
   -5.2722    0.5998   -0.5971 C   0  0  0  0  0  0  0  0  0  0  0  0
   -5.0385    1.8671   -1.1859 C   0  0  0  0  0  0  0  0  0  0  0  0
   -5.8549    2.6013   -1.1991 H   0  0  0  0  0  0  0  0  0  0  0  0
   -3.7695    2.1638   -1.6638 C   0  0  0  0  0  0  0  0  0  0  0  0
   -3.5655    3.1678   -2.0690 H   0  0  0  0  0  0  0  0  0  0  0  0
   -1.3649    1.7000   -1.8913 C   0  0  0  0  0  3  0  0  0  0  0  0
   -1.3310    2.5698   -2.5827 H   0  0  0  0  0  0  0  0  0  0  0  0
    1.0012    1.9543   -1.8709 C   0  0  0  0  0  0  0  0  0  0  0  0
    1.8595    1.4530   -1.3915 H   0  0  0  0  0  0  0  0  0  0  0  0
    1.1287    1.7817   -2.9608 H   0  0  0  0  0  0  0  0  0  0  0  0
    1.0257    3.4607   -1.5748 C   0  0  0  0  0  0  0  0  0  0  0  0
    0.1973    3.9660   -2.1135 H   0  0  0  0  0  0  0  0  0  0  0  0
    1.9573    3.8845   -2.0131 H   0  0  0  0  0  0  0  0  0  0  0  0
    0.9255    3.8434   -0.0978 C   0  0  0  0  0  0  0  0  0  0  0  0
    0.0836    3.2962    0.3806 H   0  0  0  0  0  0  0  0  0  0  0  0
    0.6954    4.9327   -0.0127 H   0  0  0  0  0  0  0  0  0  0  0  0
    2.0921    3.9530    2.0536 C   0  0  0  0  0  0  0  0  0  0  0  0
    1.2869    3.3922    2.5681 H   0  0  0  0  0  0  0  0  0  0  0  0
    3.0484    3.7178    2.5600 H   0  0  0  0  0  0  0  0  0  0  0  0
    1.8841    5.0426    2.1621 H   0  0  0  0  0  0  0  0  0  0  0  0
   -6.7044   -0.7275    0.7600 C   0  0  0  0  0  0  0  0  0  0  0  0
   -5.9505   -0.7690    1.5765 H   0  0  0  0  0  0  0  0  0  0  0  0
   -7.7154   -0.6225    1.1951 H   0  0  0  0  0  0  0  0  0  0  0  0
   -6.6657   -1.6732    0.1730 H   0  0  0  0  0  0  0  0  0  0  0  0
  3 27  1  0  0  0  0
  4  3  1  0  0  0  0
  5  8  1  0  0  0  0
  5  1  1  0  0  0  0
  6 31  1  0  0  0  0
  7  8  1  0  0  0  0
  8  9  2  0  0  0  0
  9 11  1  0  0  0  0
  9 10  1  0  0  0  0
 11  6  1  0  0  0  0
 12 11  2  0  0  0  0
 13 12  1  0  0  0  0
 14  7  2  0  0  0  0
 14 12  1  0  0  0  0
 15 14  1  0  0  0  0
 16  7  1  0  0  0  0
 16  2  1  0  0  0  0
 17 16  1  0  0  0  0
 18 21  1  0  0  0  0
 18  2  1  0  0  0  0
 18 19  1  0  0  0  0
 20 18  1  0  0  0  0
 21 24  1  0  0  0  0
 22 21  1  0  0  0  0
 23 21  1  0  0  0  0
 24 26  1  0  0  0  0
 24 25  1  0  0  0  0
 24  3  1  0  0  0  0
 27 30  1  0  0  0  0
 27 29  1  0  0  0  0
 27 28  1  0  0  0  0
 31 33  1  0  0  0  0
 31 32  1  0  0  0  0
 34 31  1  0  0  0  0
M  END
