2
 OpenBabel05122313063D

 30 30  0  0  1  0  0  0  0  0999 V2000
   -1.9527    1.1164    1.8357 S   0  0  0  0  0  0  0  0  0  0  0  0
    0.2559    0.9652    0.6337 N   0  0  0  0  0  2  0  0  0  0  0  0
   -0.2899    1.5577    1.6799 C   0  0  0  0  0  0  0  0  0  0  0  0
    0.3702    2.5144    2.6334 C   0  0  0  0  0  0  0  0  0  0  0  0
    1.6420    1.2444    0.2258 C   0  0  2  0  0  0  0  0  0  0  0  0
    1.7165    2.1250   -1.0486 C   0  0  0  0  0  0  0  0  0  0  0  0
    3.1649    2.5625   -1.2979 C   0  0  0  0  0  0  0  0  0  0  0  0
    0.7743    3.3292   -0.9611 C   0  0  0  0  0  0  0  0  0  0  0  0
    2.4217   -0.0616    0.1423 C   0  0  0  0  0  0  0  0  0  0  0  0
    2.5049   -0.8198   -1.0414 C   0  0  0  0  0  0  0  0  0  0  0  0
    3.1760   -2.0528   -1.0561 C   0  0  0  0  0  0  0  0  0  0  0  0
    3.7725   -2.5505    0.1132 C   0  0  0  0  0  0  0  0  0  0  0  0
    3.7035   -1.7997    1.2980 C   0  0  0  0  0  0  0  0  0  0  0  0
    3.0356   -0.5661    1.3063 C   0  0  0  0  0  0  0  0  0  0  0  0
    1.2808    2.0740    3.0901 H   0  0  0  0  0  0  0  0  0  0  0  0
    0.6710    3.4536    2.1253 H   0  0  0  0  0  0  0  0  0  0  0  0
   -0.3370    2.7704    3.4436 H   0  0  0  0  0  0  0  0  0  0  0  0
    2.1149    1.8376    1.0389 H   0  0  0  0  0  0  0  0  0  0  0  0
    1.3849    1.5134   -1.9114 H   0  0  0  0  0  0  0  0  0  0  0  0
    3.5376    3.1936   -0.4627 H   0  0  0  0  0  0  0  0  0  0  0  0
    3.8504    1.6976   -1.3968 H   0  0  0  0  0  0  0  0  0  0  0  0
    3.2383    3.1626   -2.2268 H   0  0  0  0  0  0  0  0  0  0  0  0
   -0.2764    3.0140   -0.8060 H   0  0  0  0  0  0  0  0  0  0  0  0
    1.0626    4.0081   -0.1300 H   0  0  0  0  0  0  0  0  0  0  0  0
    0.8165    3.9201   -1.8976 H   0  0  0  0  0  0  0  0  0  0  0  0
    2.9813    0.0196    2.2381 H   0  0  0  0  0  0  0  0  0  0  0  0
    4.1758   -2.1749    2.2187 H   0  0  0  0  0  0  0  0  0  0  0  0
    4.2968   -3.5180    0.0995 H   0  0  0  0  0  0  0  0  0  0  0  0
    3.2333   -2.6307   -1.9915 H   0  0  0  0  0  0  0  0  0  0  0  0
    2.0349   -0.4486   -1.9635 H   0  0  0  0  0  0  0  0  0  0  0  0
  2  3  1  0  0  0  0
  3  1  2  0  0  0  0
  3  4  1  0  0  0  0
  4 15  1  0  0  0  0
  4 17  1  0  0  0  0
  5  2  1  0  0  0  0
  5 18  1  1  0  0  0
  6  8  1  0  0  0  0
  6  5  1  0  0  0  0
  7  6  1  0  0  0  0
  7 20  1  0  0  0  0
  8 23  1  0  0  0  0
  8 24  1  0  0  0  0
  9  5  1  0  0  0  0
  9 14  1  0  0  0  0
 10  9  2  0  0  0  0
 11 10  1  0  0  0  0
 11 12  2  0  0  0  0
 12 13  1  0  0  0  0
 13 14  2  0  0  0  0
 13 27  1  0  0  0  0
 14 26  1  0  0  0  0
 16  4  1  0  0  0  0
 19  6  1  0  0  0  0
 21  7  1  0  0  0  0
 22  7  1  0  0  0  0
 25  8  1  0  0  0  0
 28 12  1  0  0  0  0
 29 11  1  0  0  0  0
 30 10  1  0  0  0  0
M  END
