16
 OpenBabel05122313063D

 21 23  0  0  0  0  0  0  0  0999 V2000
    1.4075    3.0938   -0.8846 N   0  0  0  0  0  0  0  0  0  0  0  0
    2.3140    3.5420   -1.0166 H   0  0  0  0  0  0  0  0  0  0  0  0
    1.1406    1.7421   -0.9288 C   0  0  0  0  0  0  0  0  0  0  0  0
   -0.1460    1.4734   -0.7207 N   0  0  0  0  0  0  0  0  0  0  0  0
   -2.1107    3.0050   -0.2676 C   0  0  0  0  0  0  0  0  0  0  0  0
   -2.8617    2.2047   -0.1998 H   0  0  0  0  0  0  0  0  0  0  0  0
   -2.4495    4.3513   -0.1131 C   0  0  0  0  0  0  0  0  0  0  0  0
   -3.4949    4.6290    0.0862 H   0  0  0  0  0  0  0  0  0  0  0  0
   -1.4752    5.3778   -0.2136 C   0  0  0  0  0  0  0  0  0  0  0  0
   -1.7873    6.4250   -0.0877 H   0  0  0  0  0  0  0  0  0  0  0  0
   -0.1287    5.0964   -0.4728 C   0  0  0  0  0  0  0  0  0  0  0  0
    0.6184    5.8991   -0.5524 H   0  0  0  0  0  0  0  0  0  0  0  0
   -0.7601    2.6948   -0.5270 C   0  0  0  0  0  0  0  0  0  0  0  0
    0.2091    3.7429   -0.6268 C   0  0  0  0  0  0  0  0  0  0  0  0
    2.1055    0.6833   -1.1755 C   0  0  0  0  0  0  0  0  0  0  0  0
    1.6284   -0.6222   -1.1056 N   0  0  0  0  0  2  0  0  0  0  0  0
    2.5494   -1.5338   -1.3639 C   0  0  0  0  0  3  0  0  0  0  0  0
    2.2994   -2.6177   -1.3916 H   0  0  0  0  0  0  0  0  0  0  0  0
    4.0979   -0.8491   -1.6875 S   0  0  0  0  0  0  0  0  0  0  0  0
    3.4549    0.7448   -1.4769 C   0  0  0  0  0  0  0  0  0  0  0  0
    4.0929    1.6267   -1.6021 H   0  0  0  0  0  0  0  0  0  0  0  0
  1 14  1  0  0  0  0
  2  1  1  0  0  0  0
  3  1  1  0  0  0  0
  3  4  2  0  0  0  0
  4 13  1  0  0  0  0
  5  6  1  0  0  0  0
  5  7  1  0  0  0  0
  7  8  1  0  0  0  0
  9  7  2  0  0  0  0
  9 10  1  0  0  0  0
 11  9  1  0  0  0  0
 12 11  1  0  0  0  0
 13  5  2  0  0  0  0
 14 13  1  0  0  0  0
 14 11  2  0  0  0  0
 15 16  1  0  0  0  0
 15  3  1  0  0  0  0
 17 16  1  0  0  0  0
 18 17  1  0  0  0  0
 19 20  1  0  0  0  0
 19 17  1  0  0  0  0
 20 15  2  0  0  0  0
 21 20  1  0  0  0  0
M  END
