14
 OpenBabel05122313063D

 24 25  0  0  0  0  0  0  0  0999 V2000
    4.0222   -0.7051   -0.1978 N   0  0  0  0  0  0  0  0  0  0  0  0
    5.3976   -1.1746   -0.3048 C   0  0  0  0  0  0  0  0  0  0  0  0
    3.0349   -1.6786   -0.4849 C   0  0  0  0  0  0  0  0  0  0  0  0
    3.3683   -2.8149   -0.8119 O   0  0  0  0  0  0  0  0  0  0  0  0
    1.6955   -1.2784   -0.3870 N   0  0  0  0  0  0  0  0  0  0  0  0
    0.6545   -2.2545   -0.7303 C   0  0  0  0  0  0  0  0  0  0  0  0
    1.4049    0.0121   -0.0112 C   0  0  0  0  0  0  0  0  0  0  0  0
    2.4144    0.9579    0.2145 C   0  0  0  0  0  0  0  0  0  0  0  0
    3.8148    0.6579    0.1420 C   0  0  0  0  0  0  0  0  0  0  0  0
    4.7582    1.4380    0.3401 O   0  0  0  0  0  0  0  0  0  0  0  0
    1.7671    2.1592    0.4822 N   0  0  0  0  0  0  0  0  0  0  0  0
    2.4043    3.4336    0.7722 C   0  0  0  0  0  0  0  0  0  0  0  0
    0.4350    1.9113    0.4148 C   0  0  0  0  0  3  0  0  0  0  0  0
    0.1792    0.6176    0.1362 N   0  0  0  0  0  2  0  0  0  0  0  0
   -0.3530    2.6641    0.5181 H   0  0  0  0  0  0  0  0  0  0  0  0
    6.0513   -0.3190   -0.0607 H   0  0  0  0  0  0  0  0  0  0  0  0
    5.5717   -2.0162    0.3939 H   0  0  0  0  0  0  0  0  0  0  0  0
    5.6009   -1.5446   -1.3290 H   0  0  0  0  0  0  0  0  0  0  0  0
    1.1608   -3.1041   -1.2180 H   0  0  0  0  0  0  0  0  0  0  0  0
    0.1115   -2.5613    0.1883 H   0  0  0  0  0  0  0  0  0  0  0  0
   -0.0903   -1.7750   -1.3963 H   0  0  0  0  0  0  0  0  0  0  0  0
    2.1027    4.1938    0.0241 H   0  0  0  0  0  0  0  0  0  0  0  0
    2.1205    3.7894    1.7830 H   0  0  0  0  0  0  0  0  0  0  0  0
    3.4977    3.2768    0.7275 H   0  0  0  0  0  0  0  0  0  0  0  0
  1  9  1  0  0  0  0
  2  1  1  0  0  0  0
  2 16  1  0  0  0  0
  2 17  1  0  0  0  0
  3  5  1  0  0  0  0
  3  1  1  0  0  0  0
  4  3  2  0  0  0  0
  5  7  1  0  0  0  0
  6  5  1  0  0  0  0
  6 20  1  0  0  0  0
  7 14  1  0  0  0  0
  7  8  2  0  0  0  0
  8 11  1  0  0  0  0
  9  8  1  0  0  0  0
  9 10  2  0  0  0  0
 11 12  1  0  0  0  0
 12 23  1  0  0  0  0
 13 11  1  0  0  0  0
 13 15  1  0  0  0  0
 14 13  1  0  0  0  0
 18  2  1  0  0  0  0
 19  6  1  0  0  0  0
 21  6  1  0  0  0  0
 22 12  1  0  0  0  0
 24 12  1  0  0  0  0
M  END
