2
 OpenBabel05122313063D

 14 14  0  0  0  0  0  0  0  0999 V2000
   -0.8249   -0.1575   -2.0202 N   0  0  0  0  0  2  0  0  0  0  0  0
   -1.3433   -1.0104   -1.0462 N   0  0  0  0  0  2  0  0  0  0  0  0
   -2.6679   -0.8212   -0.6910 C   0  0  0  0  0  0  0  0  0  0  0  0
   -3.1474   -1.2832    0.5669 C   0  0  0  0  0  0  0  0  0  0  0  0
   -2.4251   -1.7271    1.2645 H   0  0  0  0  0  0  0  0  0  0  0  0
   -4.4977   -1.1715    0.9114 C   0  0  0  0  0  0  0  0  0  0  0  0
   -4.8335   -1.5372    1.8956 H   0  0  0  0  0  0  0  0  0  0  0  0
   -5.4278   -0.5972    0.0222 C   0  0  0  0  0  0  0  0  0  0  0  0
   -6.4892   -0.5099    0.2978 H   0  0  0  0  0  0  0  0  0  0  0  0
   -4.9703   -0.1529   -1.2310 C   0  0  0  0  0  0  0  0  0  0  0  0
   -5.6828    0.2875   -1.9479 H   0  0  0  0  0  0  0  0  0  0  0  0
   -3.6211   -0.2623   -1.5917 C   0  0  0  0  0  0  0  0  0  0  0  0
   -3.2585    0.0712   -2.5743 H   0  0  0  0  0  0  0  0  0  0  0  0
   -0.2705   -0.7646   -2.6522 H   0  0  0  0  0  0  0  0  0  0  0  0
  1  2  1  0  0  0  0
  2  3  1  0  0  0  0
  3  4  1  0  0  0  0
  4  6  2  0  0  0  0
  4  5  1  0  0  0  0
  6  7  1  0  0  0  0
  8  9  1  0  0  0  0
  8  6  1  0  0  0  0
 10  8  2  0  0  0  0
 11 10  1  0  0  0  0
 12 10  1  0  0  0  0
 12  3  2  0  0  0  0
 13 12  1  0  0  0  0
 14  1  1  0  0  0  0
M  END
