1
 OpenBabel05122313063D

 23 24  0  0  1  0  0  0  0  0999 V2000
    0.6263   -0.9128    0.1765 N   0  0  0  0  0  2  0  0  0  0  0  0
    1.6973   -2.8184   -0.3151 N   0  0  0  0  0  0  0  0  0  0  0  0
   -0.0087   -2.0819   -1.8440 N   0  0  0  0  0  0  0  0  0  0  0  0
   -0.7609   -1.3792   -1.8614 H   0  0  0  0  0  0  0  0  0  0  0  0
    0.5451   -1.9960   -2.7058 H   0  0  0  0  0  0  0  0  0  0  0  0
    0.7483   -1.9051   -0.7167 C   0  0  1  0  0  3  0  0  0  0  0  0
    1.5015   -1.1891    1.2218 C   0  0  0  0  0  0  0  0  0  0  0  0
    1.7481   -0.5033    2.4195 C   0  0  0  0  0  0  0  0  0  0  0  0
    1.1999    0.4199    2.6535 H   0  0  0  0  0  0  0  0  0  0  0  0
    2.7181   -1.0353    3.2812 C   0  0  0  0  0  0  0  0  0  0  0  0
    2.9365   -0.5210    4.2289 H   0  0  0  0  0  0  0  0  0  0  0  0
    3.4254   -2.2154    2.9582 C   0  0  0  0  0  0  0  0  0  0  0  0
    4.1800   -2.6017    3.6595 H   0  0  0  0  0  0  0  0  0  0  0  0
    3.1857   -2.9093    1.7608 C   0  0  0  0  0  0  0  0  0  0  0  0
    3.7404   -3.8248    1.5098 H   0  0  0  0  0  0  0  0  0  0  0  0
    2.2100   -2.3813    0.9068 C   0  0  0  0  0  0  0  0  0  0  0  0
    1.9675   -4.0880   -0.9762 C   0  0  0  0  0  0  0  0  0  0  0  0
    1.0459   -4.3485   -1.5361 H   0  0  0  0  0  0  0  0  0  0  0  0
    2.0958   -4.8519   -0.1813 H   0  0  0  0  0  0  0  0  0  0  0  0
    3.1809   -4.0636   -1.9028 C   0  0  0  0  0  0  0  0  0  0  0  0
    3.0492   -3.3257   -2.7190 H   0  0  0  0  0  0  0  0  0  0  0  0
    3.3275   -5.0617   -2.3612 H   0  0  0  0  0  0  0  0  0  0  0  0
    4.1017   -3.7918   -1.3516 H   0  0  0  0  0  0  0  0  0  0  0  0
  1  7  1  0  0  0  0
  2 16  1  0  0  0  0
  4  3  1  0  0  0  0
  5  3  1  0  0  0  0
  6  3  1  1  0  0  0
  6  2  1  0  0  0  0
  6  1  1  0  0  0  0
  7  8  1  0  0  0  0
  8  9  1  0  0  0  0
  8 10  2  0  0  0  0
 10 11  1  0  0  0  0
 12 10  1  0  0  0  0
 12 13  1  0  0  0  0
 14 12  2  0  0  0  0
 15 14  1  0  0  0  0
 16  7  2  0  0  0  0
 16 14  1  0  0  0  0
 17  2  1  0  0  0  0
 17 19  1  0  0  0  0
 18 17  1  0  0  0  0
 20 23  1  0  0  0  0
 20 17  1  0  0  0  0
 21 20  1  0  0  0  0
 22 20  1  0  0  0  0
M  END
