4
 OpenBabel05122313063D

 20 19  0  0  0  0  0  0  0  0999 V2000
   -1.3975    2.4928    1.3036 N   0  0  0  0  0  0  0  0  0  0  0  0
   -2.0656    1.8704    1.7872 H   0  0  0  0  0  0  0  0  0  0  0  0
   -0.9643    3.0616    2.0434 H   0  0  0  0  0  0  0  0  0  0  0  0
   -0.4652   -0.6097   -2.1156 N   0  0  0  0  0  0  0  0  0  0  0  0
    0.4916   -0.7909   -2.4721 H   0  0  0  0  0  0  0  0  0  0  0  0
   -0.8493   -1.5306   -1.8559 H   0  0  0  0  0  0  0  0  0  0  0  0
   -1.8567    1.7724   -1.4368 N   0  0  0  0  0  0  0  0  0  0  0  0
   -1.2695    2.4371   -1.9619 H   0  0  0  0  0  0  0  0  0  0  0  0
   -2.1636    3.3789    0.3953 C   0  0  0  0  0  0  0  0  0  0  0  0
   -1.4527    4.0992   -0.0662 H   0  0  0  0  0  0  0  0  0  0  0  0
   -2.9257    3.9856    0.9317 H   0  0  0  0  0  0  0  0  0  0  0  0
   -2.8525    2.5580   -0.6874 C   0  0  0  0  0  0  0  0  0  0  0  0
   -3.5619    1.8431   -0.2242 H   0  0  0  0  0  0  0  0  0  0  0  0
   -3.4439    3.2308   -1.3493 H   0  0  0  0  0  0  0  0  0  0  0  0
   -2.4387    0.8267   -2.4114 C   0  0  0  0  0  0  0  0  0  0  0  0
   -3.0835    1.3398   -3.1610 H   0  0  0  0  0  0  0  0  0  0  0  0
   -3.0913    0.1236   -1.8526 H   0  0  0  0  0  0  0  0  0  0  0  0
   -1.3185    0.0617   -3.1110 C   0  0  0  0  0  0  0  0  0  0  0  0
   -1.7528   -0.6403   -3.8546 H   0  0  0  0  0  0  0  0  0  0  0  0
   -0.6897    0.7700   -3.6933 H   0  0  0  0  0  0  0  0  0  0  0  0
  1  2  1  0  0  0  0
  1  3  1  0  0  0  0
  4  6  1  0  0  0  0
  5  4  1  0  0  0  0
  7 12  1  0  0  0  0
  8  7  1  0  0  0  0
  9 11  1  0  0  0  0
  9  1  1  0  0  0  0
 10  9  1  0  0  0  0
 12 13  1  0  0  0  0
 12  9  1  0  0  0  0
 14 12  1  0  0  0  0
 15 17  1  0  0  0  0
 15  7  1  0  0  0  0
 16 15  1  0  0  0  0
 18 15  1  0  0  0  0
 18  4  1  0  0  0  0
 19 18  1  0  0  0  0
 20 18  1  0  0  0  0
M  END
