2
 OpenBabel05122313063D

 16 17  0  0  0  0  0  0  0  0999 V2000
   -0.2495   -0.8777   -0.1139 N   0  0  0  0  0  0  0  0  0  0  0  0
    0.8958   -0.8164   -0.7971 N   0  0  0  0  0  2  0  0  0  0  0  0
    0.6943   -0.4773   -2.0798 N   0  0  0  0  0  0  0  0  0  0  0  0
   -0.6042   -0.3157   -2.2524 N   0  0  0  0  0  0  0  0  0  0  0  0
   -1.1766   -0.5632   -1.0418 C   0  0  0  0  0  0  0  0  0  0  0  0
   -2.6148   -0.4766   -0.7782 C   0  0  0  0  0  0  0  0  0  0  0  0
   -3.1323   -0.7419    0.5080 C   0  0  0  0  0  0  0  0  0  0  0  0
   -2.4375   -1.0290    1.3108 H   0  0  0  0  0  0  0  0  0  0  0  0
   -4.5062   -0.6460    0.7624 C   0  0  0  0  0  0  0  0  0  0  0  0
   -4.9000   -0.8571    1.7668 H   0  0  0  0  0  0  0  0  0  0  0  0
   -5.3737   -0.2806   -0.2806 C   0  0  0  0  0  0  0  0  0  0  0  0
   -7.4591   -0.1276    0.0979 I   0  0  0  0  0  0  0  0  0  0  0  0
   -4.8817   -0.0157   -1.5697 C   0  0  0  0  0  0  0  0  0  0  0  0
   -5.5671    0.2660   -2.3816 H   0  0  0  0  0  0  0  0  0  0  0  0
   -3.5058   -0.1153   -1.8115 C   0  0  0  0  0  0  0  0  0  0  0  0
   -3.0964    0.0866   -2.8122 H   0  0  0  0  0  0  0  0  0  0  0  0
  2  1  1  0  0  0  0
  3  2  1  0  0  0  0
  4  3  2  0  0  0  0
  4  5  1  0  0  0  0
  5  6  1  0  0  0  0
  5  1  2  0  0  0  0
  6  7  1  0  0  0  0
  7  9  2  0  0  0  0
  7  8  1  0  0  0  0
  9 10  1  0  0  0  0
 11 12  1  0  0  0  0
 11  9  1  0  0  0  0
 13 11  2  0  0  0  0
 14 13  1  0  0  0  0
 15 13  1  0  0  0  0
 15  6  2  0  0  0  0
 16 15  1  0  0  0  0
M  END
