1
 OpenBabel05122313063D

 54 56  0  0  0  0  0  0  0  0999 V2000
   -0.9242   -0.4379   -1.1229 N   0  0  0  0  0  2  0  0  0  0  0  0
   -2.1264   -0.0526   -0.0710 P   0  0  0  0  0  4  0  0  0  0  0  0
   -3.7330   -0.8053   -0.6455 C   0  0  0  0  0  0  0  0  0  0  0  0
   -4.7468   -1.0602    0.4877 C   0  0  0  0  0  0  0  0  0  0  0  0
   -6.0840   -1.5651   -0.0735 C   0  0  0  0  0  0  0  0  0  0  0  0
   -5.8934   -2.8217   -0.9309 C   0  0  0  0  0  0  0  0  0  0  0  0
   -4.8789   -2.5761   -2.0536 C   0  0  0  0  0  0  0  0  0  0  0  0
   -3.5365   -2.0663   -1.5105 C   0  0  0  0  0  0  0  0  0  0  0  0
   -1.8137   -0.5645    1.6945 C   0  0  0  0  0  0  0  0  0  0  0  0
   -1.4325   -2.0592    1.7049 C   0  0  0  0  0  0  0  0  0  0  0  0
   -0.9780   -2.5393    3.0881 C   0  0  0  0  0  0  0  0  0  0  0  0
    0.1780   -1.6805    3.6102 C   0  0  0  0  0  0  0  0  0  0  0  0
   -0.2352   -0.2070    3.6774 C   0  0  0  0  0  0  0  0  0  0  0  0
   -0.7071    0.3125    2.3148 C   0  0  0  0  0  0  0  0  0  0  0  0
   -2.3198    1.7757   -0.0888 C   0  0  0  0  0  0  0  0  0  0  0  0
   -2.4807    2.3121   -1.5226 C   0  0  0  0  0  0  0  0  0  0  0  0
   -2.4564    3.8457   -1.5172 C   0  0  0  0  0  0  0  0  0  0  0  0
   -3.5192    4.4272   -0.5762 C   0  0  0  0  0  0  0  0  0  0  0  0
   -3.3853    3.8615    0.8437 C   0  0  0  0  0  0  0  0  0  0  0  0
   -3.4103    2.3247    0.8459 C   0  0  0  0  0  0  0  0  0  0  0  0
   -1.0634   -1.3711   -1.5312 H   0  0  0  0  0  0  0  0  0  0  0  0
   -4.1530   -0.0140   -1.3081 H   0  0  0  0  0  0  0  0  0  0  0  0
   -4.3356   -1.8246    1.1819 H   0  0  0  0  0  0  0  0  0  0  0  0
   -4.9064   -0.1422    1.0885 H   0  0  0  0  0  0  0  0  0  0  0  0
   -6.7893   -1.7624    0.7603 H   0  0  0  0  0  0  0  0  0  0  0  0
   -6.5459   -0.7628   -0.6918 H   0  0  0  0  0  0  0  0  0  0  0  0
   -5.5307   -3.6525   -0.2846 H   0  0  0  0  0  0  0  0  0  0  0  0
   -6.8645   -3.1551   -1.3520 H   0  0  0  0  0  0  0  0  0  0  0  0
   -4.7156   -3.5012   -2.6443 H   0  0  0  0  0  0  0  0  0  0  0  0
   -5.2910   -1.8221   -2.7613 H   0  0  0  0  0  0  0  0  0  0  0  0
   -2.8529   -1.8426   -2.3545 H   0  0  0  0  0  0  0  0  0  0  0  0
   -3.0530   -2.8640   -0.9046 H   0  0  0  0  0  0  0  0  0  0  0  0
   -2.7620   -0.4124    2.2566 H   0  0  0  0  0  0  0  0  0  0  0  0
   -0.5944   -2.2037    0.9885 H   0  0  0  0  0  0  0  0  0  0  0  0
   -2.2793   -2.6783    1.3402 H   0  0  0  0  0  0  0  0  0  0  0  0
   -1.8293   -2.4926    3.8052 H   0  0  0  0  0  0  0  0  0  0  0  0
   -0.6759   -3.6053    3.0234 H   0  0  0  0  0  0  0  0  0  0  0  0
    0.5117   -2.0366    4.6070 H   0  0  0  0  0  0  0  0  0  0  0  0
    1.0467   -1.7849    2.9231 H   0  0  0  0  0  0  0  0  0  0  0  0
    0.6081    0.4212    4.0329 H   0  0  0  0  0  0  0  0  0  0  0  0
   -1.0531   -0.0887    4.4247 H   0  0  0  0  0  0  0  0  0  0  0  0
    0.1536    0.3323    1.6041 H   0  0  0  0  0  0  0  0  0  0  0  0
   -1.0502    1.3632    2.4074 H   0  0  0  0  0  0  0  0  0  0  0  0
   -1.3229    2.1243    0.2698 H   0  0  0  0  0  0  0  0  0  0  0  0
   -1.6728    1.9050   -2.1614 H   0  0  0  0  0  0  0  0  0  0  0  0
   -3.4469    1.9586   -1.9512 H   0  0  0  0  0  0  0  0  0  0  0  0
   -2.5980    4.2290   -2.5491 H   0  0  0  0  0  0  0  0  0  0  0  0
   -1.4443    4.1751   -1.1942 H   0  0  0  0  0  0  0  0  0  0  0  0
   -4.5316    4.1807   -0.9703 H   0  0  0  0  0  0  0  0  0  0  0  0
   -3.4560    5.5352   -0.5547 H   0  0  0  0  0  0  0  0  0  0  0  0
   -4.1909    4.2540    1.4990 H   0  0  0  0  0  0  0  0  0  0  0  0
   -2.4232    4.2027    1.2864 H   0  0  0  0  0  0  0  0  0  0  0  0
   -3.2828    1.9423    1.8802 H   0  0  0  0  0  0  0  0  0  0  0  0
   -4.4097    1.9788    0.4982 H   0  0  0  0  0  0  0  0  0  0  0  0
  1  2  1  0  0  0  0
  2  9  1  0  0  0  0
  3  2  1  0  0  0  0
  3  4  1  0  0  0  0
  4 24  1  0  0  0  0
  4 23  1  0  0  0  0
  5  4  1  0  0  0  0
  5 25  1  0  0  0  0
  6 27  1  0  0  0  0
  6  5  1  0  0  0  0
  7  8  1  0  0  0  0
  7  6  1  0  0  0  0
  8 32  1  0  0  0  0
  8  3  1  0  0  0  0
  9 10  1  0  0  0  0
  9 33  1  0  0  0  0
  9 14  1  0  0  0  0
 10 11  1  0  0  0  0
 11 12  1  0  0  0  0
 11 36  1  0  0  0  0
 12 13  1  0  0  0  0
 12 38  1  0  0  0  0
 13 40  1  0  0  0  0
 13 41  1  0  0  0  0
 14 43  1  0  0  0  0
 14 13  1  0  0  0  0
 15  2  1  0  0  0  0
 15 44  1  0  0  0  0
 15 20  1  0  0  0  0
 16 17  1  0  0  0  0
 16 15  1  0  0  0  0
 17 48  1  0  0  0  0
 17 18  1  0  0  0  0
 18 50  1  0  0  0  0
 18 19  1  0  0  0  0
 19 20  1  0  0  0  0
 19 52  1  0  0  0  0
 19 51  1  0  0  0  0
 20 53  1  0  0  0  0
 21  1  1  0  0  0  0
 22  3  1  0  0  0  0
 26  5  1  0  0  0  0
 28  6  1  0  0  0  0
 29  7  1  0  0  0  0
 30  7  1  0  0  0  0
 31  8  1  0  0  0  0
 34 10  1  0  0  0  0
 35 10  1  0  0  0  0
 37 11  1  0  0  0  0
 39 12  1  0  0  0  0
 42 14  1  0  0  0  0
 45 16  1  0  0  0  0
 46 16  1  0  0  0  0
 47 17  1  0  0  0  0
 49 18  1  0  0  0  0
 54 20  1  0  0  0  0
M  END
