2
 OpenBabel05122313063D

 33 32  0  0  0  0  0  0  0  0999 V2000
   -0.7318    3.0160   -0.1521 P   0  0  0  0  0  4  0  0  0  0  0  0
   -0.1401    1.9484    0.9418 N   0  0  0  0  0  2  0  0  0  0  0  0
    0.6955    2.3144    1.4178 H   0  0  0  0  0  0  0  0  0  0  0  0
   -2.5569    2.9542   -0.1643 C   0  0  0  0  0  0  0  0  0  0  0  0
   -2.9247    3.7373   -0.8619 H   0  0  0  0  0  0  0  0  0  0  0  0
   -2.8072    1.9664   -0.6114 H   0  0  0  0  0  0  0  0  0  0  0  0
   -3.1765    3.0682    1.2332 C   0  0  0  0  0  0  0  0  0  0  0  0
   -2.9841    4.0815    1.6508 H   0  0  0  0  0  0  0  0  0  0  0  0
   -2.6501    2.3519    1.8980 H   0  0  0  0  0  0  0  0  0  0  0  0
   -4.6777    2.7779    1.2298 C   0  0  0  0  0  0  0  0  0  0  0  0
   -5.1040    2.8675    2.2488 H   0  0  0  0  0  0  0  0  0  0  0  0
   -4.8769    1.7476    0.8721 H   0  0  0  0  0  0  0  0  0  0  0  0
   -5.2308    3.4779    0.5692 H   0  0  0  0  0  0  0  0  0  0  0  0
   -0.1973    4.7115    0.3065 C   0  0  0  0  0  0  0  0  0  0  0  0
   -0.4997    4.8497    1.3668 H   0  0  0  0  0  0  0  0  0  0  0  0
    0.9143    4.6923    0.2968 H   0  0  0  0  0  0  0  0  0  0  0  0
   -0.7304    5.8467   -0.5753 C   0  0  0  0  0  0  0  0  0  0  0  0
   -0.4399    5.6638   -1.6324 H   0  0  0  0  0  0  0  0  0  0  0  0
   -1.8415    5.8409   -0.5575 H   0  0  0  0  0  0  0  0  0  0  0  0
   -0.2177    7.2187   -0.1326 C   0  0  0  0  0  0  0  0  0  0  0  0
   -0.6144    8.0253   -0.7805 H   0  0  0  0  0  0  0  0  0  0  0  0
    0.8899    7.2669   -0.1744 H   0  0  0  0  0  0  0  0  0  0  0  0
   -0.5213    7.4442    0.9105 H   0  0  0  0  0  0  0  0  0  0  0  0
   -0.2121    2.6980   -1.8839 C   0  0  0  0  0  0  0  0  0  0  0  0
   -0.6080    1.6762   -2.0791 H   0  0  0  0  0  0  0  0  0  0  0  0
   -0.7412    3.3943   -2.5708 H   0  0  0  0  0  0  0  0  0  0  0  0
    1.3102    2.7256   -2.0653 C   0  0  0  0  0  0  0  0  0  0  0  0
    1.6768    3.7742   -2.0134 H   0  0  0  0  0  0  0  0  0  0  0  0
    1.7723    2.1755   -1.2156 H   0  0  0  0  0  0  0  0  0  0  0  0
    1.7562    2.0705   -3.3725 C   0  0  0  0  0  0  0  0  0  0  0  0
    2.8582    2.1087   -3.4821 H   0  0  0  0  0  0  0  0  0  0  0  0
    1.3075    2.5650   -4.2592 H   0  0  0  0  0  0  0  0  0  0  0  0
    1.4555    1.0024   -3.3913 H   0  0  0  0  0  0  0  0  0  0  0  0
  1 14  1  0  0  0  0
  1  2  1  0  0  0  0
  2  3  1  0  0  0  0
  4  1  1  0  0  0  0
  4  7  1  0  0  0  0
  5  4  1  0  0  0  0
  6  4  1  0  0  0  0
  7  8  1  0  0  0  0
  7  9  1  0  0  0  0
 10  7  1  0  0  0  0
 10 11  1  0  0  0  0
 12 10  1  0  0  0  0
 13 10  1  0  0  0  0
 14 15  1  0  0  0  0
 16 14  1  0  0  0  0
 17 19  1  0  0  0  0
 17 20  1  0  0  0  0
 17 14  1  0  0  0  0
 18 17  1  0  0  0  0
 20 23  1  0  0  0  0
 21 20  1  0  0  0  0
 22 20  1  0  0  0  0
 24  1  1  0  0  0  0
 25 24  1  0  0  0  0
 26 24  1  0  0  0  0
 27 28  1  0  0  0  0
 27 24  1  0  0  0  0
 27 29  1  0  0  0  0
 30 27  1  0  0  0  0
 31 30  1  0  0  0  0
 32 30  1  0  0  0  0
 33 30  1  0  0  0  0
M  END
