1
 OpenBabel05122313063D

 23 25  0  0  1  0  0  0  0  0999 V2000
    0.3709   -0.1340   -0.0005 N   0  0  0  0  0  2  0  0  0  0  0  0
    1.0650   -1.2671   -0.0002 C   0  0  0  0  0  0  0  0  0  0  0  0
    0.4809   -2.2020   -0.0001 H   0  0  0  0  0  0  0  0  0  0  0  0
    1.0442    1.0952   -0.0007 C   0  0  2  0  0  3  0  0  0  0  0  0
    3.0970    2.4213   -0.0003 C   0  0  0  0  0  0  0  0  0  0  0  0
    4.1931    2.4897    0.0000 H   0  0  0  0  0  0  0  0  0  0  0  0
    2.4783    1.1437   -0.0003 C   0  0  0  0  0  0  0  0  0  0  0  0
    3.2298   -0.0998    0.0001 C   0  0  0  0  0  0  0  0  0  0  0  0
    2.4884   -1.3266    0.0000 C   0  0  0  0  0  0  0  0  0  0  0  0
    0.2917    2.2971   -0.0012 C   0  0  0  0  0  0  0  0  0  0  0  0
   -0.8083    2.2243   -0.0017 H   0  0  0  0  0  0  0  0  0  0  0  0
    4.6445   -0.1775    0.0004 C   0  0  0  0  0  0  0  0  0  0  0  0
    5.2494    0.7391    0.0005 H   0  0  0  0  0  0  0  0  0  0  0  0
    3.1602   -2.5803    0.0003 C   0  0  0  0  0  0  0  0  0  0  0  0
    2.5687   -3.5086    0.0003 H   0  0  0  0  0  0  0  0  0  0  0  0
    4.5478   -2.6224    0.0006 C   0  0  0  0  0  0  0  0  0  0  0  0
    5.0741   -3.5878    0.0009 H   0  0  0  0  0  0  0  0  0  0  0  0
    0.9335    3.5308   -0.0012 C   0  0  0  0  0  0  0  0  0  0  0  0
    0.3403    4.4569   -0.0017 H   0  0  0  0  0  0  0  0  0  0  0  0
    2.3454    3.5920   -0.0007 C   0  0  0  0  0  0  0  0  0  0  0  0
    2.8531    4.5675   -0.0007 H   0  0  0  0  0  0  0  0  0  0  0  0
    5.2870   -1.4139    0.0007 C   0  0  0  0  0  0  0  0  0  0  0  0
    6.3865   -1.4515    0.0010 H   0  0  0  0  0  0  0  0  0  0  0  0
  1  2  1  0  0  0  0
  2  3  1  0  0  0  0
  2  9  2  0  0  0  0
  4 10  1  1  0  0  0
  4  1  1  0  0  0  0
  4  7  1  0  0  0  0
  5  7  1  0  0  0  0
  5  6  1  0  0  0  0
  7  8  2  0  0  0  0
  8 12  1  0  0  0  0
  9  8  1  0  0  0  0
  9 14  1  0  0  0  0
 11 10  1  0  0  0  0
 12 13  1  0  0  0  0
 12 22  2  0  0  0  0
 14 16  2  0  0  0  0
 15 14  1  0  0  0  0
 16 22  1  0  0  0  0
 16 17  1  0  0  0  0
 18 10  2  0  0  0  0
 18 20  1  0  0  0  0
 19 18  1  0  0  0  0
 20  5  2  0  0  0  0
 21 20  1  0  0  0  0
 22 23  1  0  0  0  0
M  END
