2
 OpenBabel05122313063D

 34 35  0  0  1  0  0  0  0  0999 V2000
   -2.0716    0.4478    1.4767 O   0  0  0  0  0  1  0  0  0  0  0  0
   -0.8668   -1.6097   -0.4263 N   0  0  0  0  0  2  0  0  0  0  0  0
   -1.1157   -3.6778   -1.1055 N   0  0  0  0  0  0  0  0  0  0  0  0
   -0.8761   -4.6192   -1.4162 H   0  0  0  0  0  0  0  0  0  0  0  0
   -3.1007    0.0704    0.8284 N   0  0  0  0  0  0  0  0  0  0  0  0
   -4.5883   -1.1223   -0.3955 N   0  0  0  0  0  0  0  0  0  0  0  0
   -4.6703   -1.3603   -1.3921 H   0  0  0  0  0  0  0  0  0  0  0  0
   -0.2201   -2.6828   -0.8590 C   0  0  0  0  0  3  0  0  0  0  0  0
    0.8644   -2.7412   -1.0022 H   0  0  0  0  0  0  0  0  0  0  0  0
   -2.3947   -3.2321   -0.8134 C   0  0  0  0  0  0  0  0  0  0  0  0
   -2.2245   -1.9051   -0.3917 C   0  0  0  0  0  0  0  0  0  0  0  0
   -3.2505   -0.9603   -0.0022 C   0  0  2  0  0  3  0  0  0  0  0  0
   -4.4562    0.7016    1.1174 C   0  0  0  0  0  0  0  0  0  0  0  0
   -5.3155    0.1451   -0.0738 C   0  0  0  0  0  0  0  0  0  0  0  0
   -4.3014    2.2177    1.1706 C   0  0  0  0  0  0  0  0  0  0  0  0
   -3.8617    2.6336    0.2429 H   0  0  0  0  0  0  0  0  0  0  0  0
   -5.2865    2.6930    1.3486 H   0  0  0  0  0  0  0  0  0  0  0  0
   -3.6333    2.4753    2.0146 H   0  0  0  0  0  0  0  0  0  0  0  0
   -4.8662    0.1530    2.4924 C   0  0  0  0  0  0  0  0  0  0  0  0
   -4.0494    0.3758    3.2060 H   0  0  0  0  0  0  0  0  0  0  0  0
   -5.7974    0.6305    2.8530 H   0  0  0  0  0  0  0  0  0  0  0  0
   -5.0138   -0.9444    2.4667 H   0  0  0  0  0  0  0  0  0  0  0  0
   -5.2903    1.0683   -1.3025 C   0  0  0  0  0  0  0  0  0  0  0  0
   -5.7855    0.5581   -2.1554 H   0  0  0  0  0  0  0  0  0  0  0  0
   -5.8484    2.0060   -1.1145 H   0  0  0  0  0  0  0  0  0  0  0  0
   -4.2633    1.3511   -1.6063 H   0  0  0  0  0  0  0  0  0  0  0  0
   -6.7666   -0.1695    0.3028 C   0  0  0  0  0  0  0  0  0  0  0  0
   -6.8308   -0.9300    1.1017 H   0  0  0  0  0  0  0  0  0  0  0  0
   -7.2932    0.7472    0.6366 H   0  0  0  0  0  0  0  0  0  0  0  0
   -7.3075   -0.5604   -0.5829 H   0  0  0  0  0  0  0  0  0  0  0  0
   -3.5956   -4.1111   -0.9072 C   0  0  0  0  0  0  0  0  0  0  0  0
   -3.4602   -5.0426   -0.3179 H   0  0  0  0  0  0  0  0  0  0  0  0
   -4.4753   -3.5776   -0.5031 H   0  0  0  0  0  0  0  0  0  0  0  0
   -3.8195   -4.4090   -1.9545 H   0  0  0  0  0  0  0  0  0  0  0  0
  2 11  1  0  0  0  0
  3  8  1  0  0  0  0
  3 10  1  0  0  0  0
  4  3  1  0  0  0  0
  5 13  1  0  0  0  0
  5  1  1  0  0  0  0
  6 14  1  0  0  0  0
  6 12  1  0  0  0  0
  7  6  1  0  0  0  0
  8  2  1  0  0  0  0
  9  8  1  0  0  0  0
 10 11  2  0  0  0  0
 12 11  1  1  0  0  0
 12  5  1  0  0  0  0
 13 15  1  0  0  0  0
 13 19  1  0  0  0  0
 14 27  1  0  0  0  0
 14 13  1  0  0  0  0
 15 17  1  0  0  0  0
 15 18  1  0  0  0  0
 16 15  1  0  0  0  0
 19 21  1  0  0  0  0
 19 20  1  0  0  0  0
 22 19  1  0  0  0  0
 23 25  1  0  0  0  0
 23 14  1  0  0  0  0
 24 23  1  0  0  0  0
 26 23  1  0  0  0  0
 27 29  1  0  0  0  0
 27 28  1  0  0  0  0
 30 27  1  0  0  0  0
 31 10  1  0  0  0  0
 31 33  1  0  0  0  0
 31 32  1  0  0  0  0
 34 31  1  0  0  0  0
M  END
