1
 OpenBabel05122313063D

 33 33  0  0  1  0  0  0  0  0999 V2000
    1.3071   -1.9979    0.3796 N   0  0  0  0  0  2  0  0  0  0  0  0
    2.1104   -0.8853    0.5705 C   0  0  2  0  0  3  0  0  0  0  0  0
    2.2959   -0.2040   -0.6590 C   0  0  0  0  0  0  0  0  0  0  0  0
    2.8504    0.7273   -0.8224 H   0  0  0  0  0  0  0  0  0  0  0  0
    1.6178   -0.9778   -1.6459 C   0  0  0  0  0  0  0  0  0  0  0  0
    1.5896   -0.7878   -2.7235 H   0  0  0  0  0  0  0  0  0  0  0  0
    1.0586   -2.0946   -0.9742 C   0  0  1  0  0  3  0  0  0  0  0  0
    2.9169   -0.7260    1.8553 C   0  0  0  0  0  0  0  0  0  0  0  0
    3.9378   -1.8912    1.8589 C   0  0  0  0  0  0  0  0  0  0  0  0
    3.4128   -2.8666    1.8603 H   0  0  0  0  0  0  0  0  0  0  0  0
    4.5884   -1.8354    2.7565 H   0  0  0  0  0  0  0  0  0  0  0  0
    4.5841   -1.8519    0.9587 H   0  0  0  0  0  0  0  0  0  0  0  0
    3.6729    0.6102    1.8635 C   0  0  0  0  0  0  0  0  0  0  0  0
    4.3959    0.6736    1.0255 H   0  0  0  0  0  0  0  0  0  0  0  0
    4.2461    0.7192    2.8067 H   0  0  0  0  0  0  0  0  0  0  0  0
    2.9811    1.4687    1.7752 H   0  0  0  0  0  0  0  0  0  0  0  0
    2.0400   -0.8381    3.1108 C   0  0  0  0  0  0  0  0  0  0  0  0
    1.3696    0.0380    3.1980 H   0  0  0  0  0  0  0  0  0  0  0  0
    2.6704   -0.8790    4.0226 H   0  0  0  0  0  0  0  0  0  0  0  0
    1.4257   -1.7598    3.0738 H   0  0  0  0  0  0  0  0  0  0  0  0
    0.6227   -3.4081   -1.6214 C   0  0  0  0  0  0  0  0  0  0  0  0
    1.9349   -4.2154   -1.8068 C   0  0  0  0  0  0  0  0  0  0  0  0
    2.6545   -3.6629   -2.4437 H   0  0  0  0  0  0  0  0  0  0  0  0
    1.7255   -5.1953   -2.2847 H   0  0  0  0  0  0  0  0  0  0  0  0
    2.4191   -4.3996   -0.8271 H   0  0  0  0  0  0  0  0  0  0  0  0
   -0.0198   -3.1755   -2.9995 C   0  0  0  0  0  0  0  0  0  0  0  0
   -0.9436   -2.5711   -2.9209 H   0  0  0  0  0  0  0  0  0  0  0  0
   -0.2834   -4.1469   -3.4654 H   0  0  0  0  0  0  0  0  0  0  0  0
    0.6745   -2.6586   -3.6923 H   0  0  0  0  0  0  0  0  0  0  0  0
   -0.3166   -4.2318   -0.7273 C   0  0  0  0  0  0  0  0  0  0  0  0
    0.0877   -4.3048    0.3002 H   0  0  0  0  0  0  0  0  0  0  0  0
   -0.4284   -5.2559   -1.1372 H   0  0  0  0  0  0  0  0  0  0  0  0
   -1.3286   -3.7868   -0.6751 H   0  0  0  0  0  0  0  0  0  0  0  0
  1  2  1  0  0  0  0
  2  8  1  6  0  0  0
  3  2  1  0  0  0  0
  4  3  1  0  0  0  0
  5  7  1  0  0  0  0
  5  3  2  0  0  0  0
  6  5  1  0  0  0  0
  7 21  1  6  0  0  0
  7  1  1  0  0  0  0
  8  9  1  0  0  0  0
  8 13  1  0  0  0  0
  8 17  1  0  0  0  0
  9 10  1  0  0  0  0
  9 11  1  0  0  0  0
 12  9  1  0  0  0  0
 13 15  1  0  0  0  0
 14 13  1  0  0  0  0
 16 13  1  0  0  0  0
 17 18  1  0  0  0  0
 17 19  1  0  0  0  0
 20 17  1  0  0  0  0
 21 30  1  0  0  0  0
 22 21  1  0  0  0  0
 22 25  1  0  0  0  0
 23 22  1  0  0  0  0
 24 22  1  0  0  0  0
 26 27  1  0  0  0  0
 26 21  1  0  0  0  0
 28 26  1  0  0  0  0
 29 26  1  0  0  0  0
 30 33  1  0  0  0  0
 30 31  1  0  0  0  0
 32 30  1  0  0  0  0
M  END
