2
 OpenBabel05122313063D

 30 33  0  0  0  0  0  0  0  0999 V2000
   -2.5513    1.4620   -0.5333 S   0  0  0  0  0  0  0  0  0  0  0  0
    1.7387    1.3394   -0.0420 N   0  0  0  0  0  2  0  0  0  0  0  0
    2.5899    2.3313   -0.3853 C   0  0  0  0  0  3  0  0  0  0  0  0
    2.2480    3.6810   -0.2671 C   0  0  0  0  0  0  0  0  0  0  0  0
    0.9828    4.0122    0.2399 C   0  0  0  0  0  0  0  0  0  0  0  0
    0.1191    2.9843    0.6309 C   0  0  0  0  0  0  0  0  0  0  0  0
    0.5233    1.6415    0.4898 C   0  0  0  0  0  0  0  0  0  0  0  0
   -0.3241    0.5165    0.9457 C   0  0  0  0  0  0  0  0  0  0  0  0
   -1.6737    0.3843    0.5529 C   0  0  0  0  0  0  0  0  0  0  0  0
   -2.4644   -0.7249    0.9717 C   0  0  0  0  0  0  0  0  0  0  0  0
   -1.8867   -1.6974    1.8135 C   0  0  0  0  0  0  0  0  0  0  0  0
   -0.5542   -1.5685    2.2176 C   0  0  0  0  0  0  0  0  0  0  0  0
    0.2241   -0.4790    1.7838 C   0  0  0  0  0  0  0  0  0  0  0  0
   -3.9952    0.4564   -0.4255 C   0  0  0  0  0  0  0  0  0  0  0  0
   -3.8060   -0.6793    0.4121 C   0  0  0  0  0  0  0  0  0  0  0  0
   -4.8781   -1.5791    0.5876 C   0  0  0  0  0  0  0  0  0  0  0  0
   -6.0968   -1.3413   -0.0555 C   0  0  0  0  0  0  0  0  0  0  0  0
   -6.2646   -0.2087   -0.8808 C   0  0  0  0  0  0  0  0  0  0  0  0
   -5.2168    0.7004   -1.0738 C   0  0  0  0  0  0  0  0  0  0  0  0
    3.5720    2.0063   -0.7580 H   0  0  0  0  0  0  0  0  0  0  0  0
    2.9689    4.4530   -0.5698 H   0  0  0  0  0  0  0  0  0  0  0  0
    0.6788    5.0640    0.3493 H   0  0  0  0  0  0  0  0  0  0  0  0
   -0.8643    3.2021    1.0704 H   0  0  0  0  0  0  0  0  0  0  0  0
   -2.4867   -2.5579    2.1456 H   0  0  0  0  0  0  0  0  0  0  0  0
   -0.1019   -2.3242    2.8759 H   0  0  0  0  0  0  0  0  0  0  0  0
    1.2692   -0.3790    2.1146 H   0  0  0  0  0  0  0  0  0  0  0  0
   -4.7519   -2.4643    1.2290 H   0  0  0  0  0  0  0  0  0  0  0  0
   -6.9324   -2.0433    0.0819 H   0  0  0  0  0  0  0  0  0  0  0  0
   -7.2290   -0.0354   -1.3815 H   0  0  0  0  0  0  0  0  0  0  0  0
   -5.3470    1.5816   -1.7187 H   0  0  0  0  0  0  0  0  0  0  0  0
  1 14  1  0  0  0  0
  1  9  1  0  0  0  0
  2  7  1  0  0  0  0
  3  4  1  0  0  0  0
  3  2  1  0  0  0  0
  4  5  2  0  0  0  0
  5 22  1  0  0  0  0
  5  6  1  0  0  0  0
  6 23  1  0  0  0  0
  7  6  2  0  0  0  0
  7  8  1  0  0  0  0
  8 13  1  0  0  0  0
  9  8  2  0  0  0  0
  9 10  1  0  0  0  0
 10 11  2  0  0  0  0
 11 24  1  0  0  0  0
 11 12  1  0  0  0  0
 12 25  1  0  0  0  0
 13 26  1  0  0  0  0
 13 12  2  0  0  0  0
 14 15  1  0  0  0  0
 15 16  2  0  0  0  0
 15 10  1  0  0  0  0
 16 27  1  0  0  0  0
 17 28  1  0  0  0  0
 17 16  1  0  0  0  0
 18 17  2  0  0  0  0
 19 18  1  0  0  0  0
 19 14  2  0  0  0  0
 20  3  1  0  0  0  0
 21  4  1  0  0  0  0
 29 18  1  0  0  0  0
 30 19  1  0  0  0  0
M  END
