24
 OpenBabel05122313063D

 42 45  0  0  0  0  0  0  0  0999 V2000
   -1.5236    0.1646    2.2574 C   0  0  0  0  0  3  0  0  0  0  0  0
   -2.5679    0.2312    2.5979 H   0  0  0  0  0  0  0  0  0  0  0  0
   -0.4491    0.1564    3.1515 C   0  0  0  0  0  0  0  0  0  0  0  0
   -0.6484    0.2150    4.2309 H   0  0  0  0  0  0  0  0  0  0  0  0
    0.8583    0.0755    2.6561 C   0  0  0  0  0  0  0  0  0  0  0  0
    1.7269    0.0695    3.3310 H   0  0  0  0  0  0  0  0  0  0  0  0
    1.0529    0.0027    1.2643 C   0  0  0  0  0  0  0  0  0  0  0  0
   -0.0741    0.0063    0.4329 C   0  0  0  0  0  0  0  0  0  0  0  0
    0.0368   -0.0647   -0.6577 H   0  0  0  0  0  0  0  0  0  0  0  0
    2.4190   -0.0655    0.6794 C   0  0  0  0  0  3  0  0  0  0  0  0
    2.9350   -1.3016    0.2438 C   0  0  0  0  0  0  0  0  0  0  0  0
    2.3384   -2.6159    0.1533 C   0  0  0  0  0  0  0  0  0  0  0  0
    0.9323   -3.0376    0.4495 C   0  0  0  0  0  0  0  0  0  0  0  0
    0.8625   -4.1426    0.4537 H   0  0  0  0  0  0  0  0  0  0  0  0
    0.2296   -2.6652   -0.3275 H   0  0  0  0  0  0  0  0  0  0  0  0
    0.5682   -2.6681    1.4281 H   0  0  0  0  0  0  0  0  0  0  0  0
    3.3410   -3.4484   -0.3557 C   0  0  0  0  0  0  0  0  0  0  0  0
    3.2491   -4.5198   -0.5695 H   0  0  0  0  0  0  0  0  0  0  0  0
    4.5110   -2.6696   -0.5667 C   0  0  0  0  0  0  0  0  0  0  0  0
    5.8390   -3.1082   -1.0783 C   0  0  0  0  0  0  0  0  0  0  0  0
    6.6285   -2.8963   -0.3283 H   0  0  0  0  0  0  0  0  0  0  0  0
    6.1143   -2.5311   -1.9837 H   0  0  0  0  0  0  0  0  0  0  0  0
    5.8353   -4.1879   -1.3122 H   0  0  0  0  0  0  0  0  0  0  0  0
   -1.3314    0.0855    0.9199 N   0  0  0  0  0  2  0  0  0  0  0  0
    4.2549   -1.3869   -0.2113 N   0  0  0  0  0  0  0  0  0  0  0  0
    6.3261   -0.4603    0.6652 F   0  0  0  0  0  0  0  0  0  0  0  0
    5.7992   -0.0707   -1.5424 F   0  0  0  0  0  0  0  0  0  0  0  0
    5.2916   -0.2161   -0.2456 B   0  0  0  0  0  0  0  0  0  0  0  0
    3.1835    1.1186    0.6018 C   0  0  0  0  0  0  0  0  0  0  0  0
    2.8363    2.4963    0.8557 C   0  0  0  0  0  0  0  0  0  0  0  0
    1.5198    3.0737    1.2805 C   0  0  0  0  0  0  0  0  0  0  0  0
    1.5654    4.1794    1.2584 H   0  0  0  0  0  0  0  0  0  0  0  0
    0.6892    2.7534    0.6177 H   0  0  0  0  0  0  0  0  0  0  0  0
    1.2332    2.7703    2.3080 H   0  0  0  0  0  0  0  0  0  0  0  0
    3.9904    3.2353    0.5674 C   0  0  0  0  0  0  0  0  0  0  0  0
    4.1002    4.3241    0.6373 H   0  0  0  0  0  0  0  0  0  0  0  0
    5.0068    2.3360    0.1474 C   0  0  0  0  0  0  0  0  0  0  0  0
    6.4084    2.6376   -0.2568 C   0  0  0  0  0  0  0  0  0  0  0  0
    7.1220    2.0772    0.3812 H   0  0  0  0  0  0  0  0  0  0  0  0
    6.5936    2.2968   -1.2953 H   0  0  0  0  0  0  0  0  0  0  0  0
    6.6180    3.7195   -0.1782 H   0  0  0  0  0  0  0  0  0  0  0  0
    4.5082    1.0749    0.1621 N   0  0  0  0  0  0  0  0  0  0  0  0
  1  2  1  0  0  0  0
  1  3  1  0  0  0  0
  3  4  1  0  0  0  0
  5  3  2  0  0  0  0
  5  6  1  0  0  0  0
  7  5  1  0  0  0  0
  8 24  1  0  0  0  0
  8  7  2  0  0  0  0
  9  8  1  0  0  0  0
 10  7  1  0  0  0  0
 11 10  1  0  0  0  0
 12 11  2  0  0  0  0
 12 13  1  0  0  0  0
 13 14  1  0  0  0  0
 13 16  1  0  0  0  0
 15 13  1  0  0  0  0
 17 12  1  0  0  0  0
 18 17  1  0  0  0  0
 19 17  2  0  0  0  0
 19 25  1  0  0  0  0
 20 19  1  0  0  0  0
 20 21  1  0  0  0  0
 22 20  1  0  0  0  0
 23 20  1  0  0  0  0
 24  1  1  0  0  0  0
 25 11  1  0  0  0  0
 27 28  1  0  0  0  0
 28 25  1  0  0  0  0
 28 42  1  0  0  0  0
 28 26  1  0  0  0  0
 29 10  1  0  0  0  0
 29 30  2  0  0  0  0
 30 31  1  0  0  0  0
 31 34  1  0  0  0  0
 32 31  1  0  0  0  0
 33 31  1  0  0  0  0
 35 36  1  0  0  0  0
 35 30  1  0  0  0  0
 37 42  1  0  0  0  0
 37 35  2  0  0  0  0
 38 41  1  0  0  0  0
 38 37  1  0  0  0  0
 38 39  1  0  0  0  0
 40 38  1  0  0  0  0
 42 29  1  0  0  0  0
M  END
