1
 OpenBabel05122313063D

 12 12  0  0  0  0  0  0  0  0999 V2000
    1.8177   -1.3194   -0.0003 N   0  0  0  0  0  2  0  0  0  0  0  0
    2.5302   -1.5589    1.1710 C   0  0  0  0  0  0  0  0  0  0  0  0
    2.5299   -1.5590   -1.1717 C   0  0  0  0  0  0  0  0  0  0  0  0
    3.8532   -1.8737    1.2335 C   0  0  0  0  0  0  0  0  0  0  0  0
    1.9362   -1.5084    2.1008 H   0  0  0  0  0  0  0  0  0  0  0  0
    3.8529   -1.8738   -1.2345 C   0  0  0  0  0  0  0  0  0  0  0  0
    1.9356   -1.5086   -2.1014 H   0  0  0  0  0  0  0  0  0  0  0  0
    4.7247   -1.9761   -0.0006 C   0  0  0  0  0  0  0  0  0  0  0  0
    4.2972   -2.0788    2.2205 H   0  0  0  0  0  0  0  0  0  0  0  0
    4.2967   -2.0789   -2.2216 H   0  0  0  0  0  0  0  0  0  0  0  0
    5.3019   -2.9352   -0.0006 H   0  0  0  0  0  0  0  0  0  0  0  0
    5.5269   -1.1892   -0.0007 H   0  0  0  0  0  0  0  0  0  0  0  0
  1  2  1  0  0  0  0
  2  4  2  0  0  0  0
  2  5  1  0  0  0  0
  3  1  1  0  0  0  0
  4  9  1  0  0  0  0
  6  3  2  0  0  0  0
  6  8  1  0  0  0  0
  7  3  1  0  0  0  0
  8  4  1  0  0  0  0
 10  6  1  0  0  0  0
 11  8  1  0  0  0  0
 12  8  1  0  0  0  0
M  END
