1
 OpenBabel05122313063D

 35 35  0  0  1  0  0  0  0  0999 V2000
   -0.5067   -0.2577    1.1042 N   0  0  0  0  0  2  0  0  0  0  0  0
   -0.4464   -1.2345    1.4219 H   0  0  0  0  0  0  0  0  0  0  0  0
   -2.7404   -0.9449    0.3659 N   0  0  0  0  0  0  0  0  0  0  0  0
   -2.2289    1.2010    0.2800 N   0  0  0  0  0  0  0  0  0  0  0  0
   -1.7254   -0.0388    0.5938 C   0  0  1  0  0  3  0  0  0  0  0  0
   -3.8882   -0.2584   -0.0604 C   0  0  0  0  0  0  0  0  0  0  0  0
   -3.5667    1.0806   -0.1162 C   0  0  0  0  0  0  0  0  0  0  0  0
   -5.2044   -0.9071   -0.3288 C   0  0  0  0  0  0  0  0  0  0  0  0
   -5.6452   -1.3552    0.5862 H   0  0  0  0  0  0  0  0  0  0  0  0
   -5.1338   -1.7114   -1.0882 H   0  0  0  0  0  0  0  0  0  0  0  0
   -5.9212   -0.1575   -0.7115 H   0  0  0  0  0  0  0  0  0  0  0  0
   -4.4462    2.2240   -0.4976 C   0  0  0  0  0  0  0  0  0  0  0  0
   -5.4973    1.8846   -0.5467 H   0  0  0  0  0  0  0  0  0  0  0  0
   -4.1865    2.6437   -1.4913 H   0  0  0  0  0  0  0  0  0  0  0  0
   -4.4019    3.0545    0.2355 H   0  0  0  0  0  0  0  0  0  0  0  0
   -2.4935   -2.3984    0.2720 C   0  0  0  0  0  0  0  0  0  0  0  0
   -1.4490   -2.5294    0.6218 H   0  0  0  0  0  0  0  0  0  0  0  0
   -3.4044   -3.2186    1.1879 C   0  0  0  0  0  0  0  0  0  0  0  0
   -3.4026   -2.8156    2.2204 H   0  0  0  0  0  0  0  0  0  0  0  0
   -3.0317   -4.2612    1.2285 H   0  0  0  0  0  0  0  0  0  0  0  0
   -4.4519   -3.2582    0.8304 H   0  0  0  0  0  0  0  0  0  0  0  0
   -2.4781   -2.8575   -1.1894 C   0  0  0  0  0  0  0  0  0  0  0  0
   -3.4878   -2.8555   -1.6478 H   0  0  0  0  0  0  0  0  0  0  0  0
   -2.0781   -3.8889   -1.2416 H   0  0  0  0  0  0  0  0  0  0  0  0
   -1.8038   -2.2035   -1.7766 H   0  0  0  0  0  0  0  0  0  0  0  0
   -1.4093    2.4150    0.4087 C   0  0  0  0  0  0  0  0  0  0  0  0
   -0.3812    2.0115    0.4808 H   0  0  0  0  0  0  0  0  0  0  0  0
   -1.7281    3.1600    1.7090 C   0  0  0  0  0  0  0  0  0  0  0  0
   -2.7559    3.5771    1.7064 H   0  0  0  0  0  0  0  0  0  0  0  0
   -1.0250    4.0066    1.8446 H   0  0  0  0  0  0  0  0  0  0  0  0
   -1.6271    2.4851    2.5813 H   0  0  0  0  0  0  0  0  0  0  0  0
   -1.4614    3.2975   -0.8401 C   0  0  0  0  0  0  0  0  0  0  0  0
   -1.2689    2.6782   -1.7378 H   0  0  0  0  0  0  0  0  0  0  0  0
   -0.6669    4.0658   -0.7731 H   0  0  0  0  0  0  0  0  0  0  0  0
   -2.4221    3.8344   -0.9502 H   0  0  0  0  0  0  0  0  0  0  0  0
  1  2  1  0  0  0  0
  3  5  1  0  0  0  0
  4 26  1  0  0  0  0
  4  5  1  0  0  0  0
  5  1  1  1  0  0  0
  6  3  1  0  0  0  0
  7  6  2  0  0  0  0
  7  4  1  0  0  0  0
  8  6  1  0  0  0  0
  8  9  1  0  0  0  0
 10  8  1  0  0  0  0
 11  8  1  0  0  0  0
 12  7  1  0  0  0  0
 12 15  1  0  0  0  0
 13 12  1  0  0  0  0
 14 12  1  0  0  0  0
 16  3  1  0  0  0  0
 16 17  1  0  0  0  0
 16 18  1  0  0  0  0
 18 20  1  0  0  0  0
 18 19  1  0  0  0  0
 21 18  1  0  0  0  0
 22 16  1  0  0  0  0
 23 22  1  0  0  0  0
 24 22  1  0  0  0  0
 25 22  1  0  0  0  0
 26 27  1  0  0  0  0
 26 28  1  0  0  0  0
 28 30  1  0  0  0  0
 28 31  1  0  0  0  0
 29 28  1  0  0  0  0
 32 34  1  0  0  0  0
 32 26  1  0  0  0  0
 33 32  1  0  0  0  0
 35 32  1  0  0  0  0
M  END
