1
 OpenBabel05122313063D

 10  9  0  0  0  0  0  0  0  0999 V2000
    1.2907   -1.3426   -0.8821 N   0  0  0  0  0  0  0  0  0  0  0  0
    0.9657   -2.2694   -0.5472 H   0  0  0  0  0  0  0  0  0  0  0  0
    2.2314   -1.1967   -0.4823 H   0  0  0  0  0  0  0  0  0  0  0  0
    1.3656   -1.3111   -2.3664 C   0  0  0  0  0  0  0  0  0  0  0  0
    1.6304   -0.2718   -2.6447 H   0  0  0  0  0  0  0  0  0  0  0  0
    0.3400   -1.4933   -2.7429 H   0  0  0  0  0  0  0  0  0  0  0  0
    2.3565   -2.3240   -2.9268 C   0  0  0  0  0  0  0  0  0  0  0  0
    2.3791   -2.2679   -4.0331 H   0  0  0  0  0  0  0  0  0  0  0  0
    3.3875   -2.1296   -2.5637 H   0  0  0  0  0  0  0  0  0  0  0  0
    2.0844   -3.3637   -2.6492 H   0  0  0  0  0  0  0  0  0  0  0  0
  1  2  1  0  0  0  0
  1  3  1  0  0  0  0
  4  1  1  0  0  0  0
  5  4  1  0  0  0  0
  6  4  1  0  0  0  0
  7 10  1  0  0  0  0
  7  9  1  0  0  0  0
  7  4  1  0  0  0  0
  8  7  1  0  0  0  0
M  END
