1
 OpenBabel05122313063D

 10 10  0  0  0  0  0  0  0  0999 V2000
   -2.1135   -0.0487    0.0024 N   0  0  0  0  0  2  0  0  0  0  0  0
   -2.7971   -1.0495    0.6105 C   0  0  0  0  0  3  0  0  0  0  0  0
   -2.1845   -1.8308    1.1020 H   0  0  0  0  0  0  0  0  0  0  0  0
   -4.1265   -1.1265    0.6484 N   0  0  0  0  0  0  0  0  0  0  0  0
   -4.8202   -0.1537    0.0353 C   0  0  0  0  0  0  0  0  0  0  0  0
   -5.9213   -0.2306    0.0749 H   0  0  0  0  0  0  0  0  0  0  0  0
   -4.1942    0.9133   -0.6229 C   0  0  0  0  0  0  0  0  0  0  0  0
   -4.7652    1.7086   -1.1219 H   0  0  0  0  0  0  0  0  0  0  0  0
   -2.7974    0.9383   -0.6160 C   0  0  0  0  0  0  0  0  0  0  0  0
   -2.1925    1.7322   -1.0967 H   0  0  0  0  0  0  0  0  0  0  0  0
  1  2  1  0  0  0  0
  2  4  1  0  0  0  0
  2  3  1  0  0  0  0
  5  6  1  0  0  0  0
  5  4  2  0  0  0  0
  7  9  2  0  0  0  0
  7  5  1  0  0  0  0
  8  7  1  0  0  0  0
  9  1  1  0  0  0  0
 10  9  1  0  0  0  0
M  END
