3
 OpenBabel05122313063D

 17 17  0  0  0  0  0  0  0  0999 V2000
   -4.2748   -3.7822   -0.7319 O   0  0  0  0  0  0  0  0  0  0  0  0
   -5.6245   -2.2827    0.3114 O   0  0  0  0  0  0  0  0  0  0  0  0
   -1.3687    0.3214   -0.0795 N   0  0  0  0  0  2  0  0  0  0  0  0
   -1.1544   -0.8962   -0.6376 C   0  0  0  0  0  3  0  0  0  0  0  0
   -0.1506   -1.0750   -1.0504 H   0  0  0  0  0  0  0  0  0  0  0  0
   -2.1385   -1.8818   -0.7027 C   0  0  0  0  0  0  0  0  0  0  0  0
   -1.9403   -2.8596   -1.1640 H   0  0  0  0  0  0  0  0  0  0  0  0
   -3.4113   -1.6119   -0.1669 C   0  0  0  0  0  0  0  0  0  0  0  0
   -3.6380   -0.3445    0.4014 C   0  0  0  0  0  0  0  0  0  0  0  0
   -4.6199   -0.0891    0.8215 H   0  0  0  0  0  0  0  0  0  0  0  0
   -2.6000    0.5901    0.4234 C   0  0  0  0  0  0  0  0  0  0  0  0
   -2.7272    1.6146    0.8062 H   0  0  0  0  0  0  0  0  0  0  0  0
   -4.4544   -2.6820   -0.2384 C   0  0  0  0  0  0  0  0  0  0  0  0
   -6.6792   -3.2522    0.2787 C   0  0  0  0  0  0  0  0  0  0  0  0
   -7.5502   -2.7736    0.7596 H   0  0  0  0  0  0  0  0  0  0  0  0
   -6.3862   -4.1695    0.8280 H   0  0  0  0  0  0  0  0  0  0  0  0
   -6.9187   -3.5358   -0.7659 H   0  0  0  0  0  0  0  0  0  0  0  0
  1 13  2  0  0  0  0
  3 11  1  0  0  0  0
  4  3  1  0  0  0  0
  5  4  1  0  0  0  0
  6  4  1  0  0  0  0
  6  8  2  0  0  0  0
  7  6  1  0  0  0  0
  8  9  1  0  0  0  0
  9 11  2  0  0  0  0
  9 10  1  0  0  0  0
 11 12  1  0  0  0  0
 13  8  1  0  0  0  0
 13  2  1  0  0  0  0
 14  2  1  0  0  0  0
 14 15  1  0  0  0  0
 14 16  1  0  0  0  0
 17 14  1  0  0  0  0
M  END
