2
 OpenBabel05122313063D

 49 53  0  0  1  0  0  0  0  0999 V2000
    1.0998   -0.1884    0.4931 P   0  0  1  0  0  0  0  0  0  0  0  0
   -1.6890    0.6838    1.0202 N   0  0  0  0  0  2  0  0  0  0  0  0
    0.6379    1.3075    1.5278 C   0  0  1  0  0  0  0  0  0  0  0  0
    1.2403    1.2738    2.4617 H   0  0  0  0  0  0  0  0  0  0  0  0
    1.1273    2.4702    0.6598 C   0  0  0  0  0  0  0  0  0  0  0  0
    0.6414    3.7394    0.7102 C   0  0  0  0  0  0  0  0  0  0  0  0
   -0.1590    3.9904    1.4256 H   0  0  0  0  0  0  0  0  0  0  0  0
    1.1652    4.8322   -0.1768 C   0  0  0  0  0  0  0  0  0  0  0  0
    0.3276    5.4827   -0.5064 H   0  0  0  0  0  0  0  0  0  0  0  0
    1.8220    5.5001    0.4302 H   0  0  0  0  0  0  0  0  0  0  0  0
    1.9297    4.2820   -1.3855 C   0  0  0  0  0  0  0  0  0  0  0  0
    2.4659    5.0975   -1.9096 H   0  0  0  0  0  0  0  0  0  0  0  0
    1.2023    3.8599   -2.1119 H   0  0  0  0  0  0  0  0  0  0  0  0
    2.9237    3.1777   -0.9867 C   0  0  0  0  0  0  0  0  0  0  0  0
    3.4414    2.7732   -1.8778 H   0  0  0  0  0  0  0  0  0  0  0  0
    3.7138    3.6121   -0.3318 H   0  0  0  0  0  0  0  0  0  0  0  0
    2.2179    2.0761   -0.2397 C   0  0  0  0  0  0  0  0  0  0  0  0
    2.4429    0.7169   -0.3542 C   0  0  0  0  0  0  0  0  0  0  0  0
    3.4914    0.0077   -1.0948 C   0  0  0  0  0  0  0  0  0  0  0  0
    3.2471   -1.2843   -1.6230 C   0  0  0  0  0  0  0  0  0  0  0  0
    2.2554   -1.7414   -1.4894 H   0  0  0  0  0  0  0  0  0  0  0  0
    4.2410   -1.9820   -2.3177 C   0  0  0  0  0  0  0  0  0  0  0  0
    4.0239   -2.9803   -2.7261 H   0  0  0  0  0  0  0  0  0  0  0  0
    5.5137   -1.4129   -2.4871 C   0  0  0  0  0  0  0  0  0  0  0  0
    6.2982   -1.9621   -3.0283 H   0  0  0  0  0  0  0  0  0  0  0  0
    5.7841   -0.1462   -1.9447 C   0  0  0  0  0  0  0  0  0  0  0  0
    6.7860    0.2958   -2.0510 H   0  0  0  0  0  0  0  0  0  0  0  0
    4.7892    0.5565   -1.2533 C   0  0  0  0  0  0  0  0  0  0  0  0
    5.0320    1.5269   -0.7992 H   0  0  0  0  0  0  0  0  0  0  0  0
   -0.8275    1.3265    1.8610 C   0  0  1  0  0  3  0  0  0  0  0  0
   -1.3036    2.0066    2.9949 C   0  0  0  0  0  0  0  0  0  0  0  0
   -0.5851    2.4986    3.6660 H   0  0  0  0  0  0  0  0  0  0  0  0
   -2.6788    2.0497    3.2570 C   0  0  0  0  0  0  0  0  0  0  0  0
   -3.0613    2.5798    4.1419 H   0  0  0  0  0  0  0  0  0  0  0  0
   -3.5523    1.4017    2.3742 C   0  0  0  0  0  0  0  0  0  0  0  0
   -4.6398    1.4013    2.5316 H   0  0  0  0  0  0  0  0  0  0  0  0
   -3.0166    0.7275    1.2727 C   0  0  0  0  0  0  0  0  0  0  0  0
   -3.6675    0.1942    0.5640 H   0  0  0  0  0  0  0  0  0  0  0  0
    1.8043   -1.4712    1.5703 C   0  0  0  0  0  0  0  0  0  0  0  0
    3.0977   -1.3269    2.1157 C   0  0  0  0  0  0  0  0  0  0  0  0
    3.7085   -0.4455    1.8664 H   0  0  0  0  0  0  0  0  0  0  0  0
    3.6058   -2.3199    2.9639 C   0  0  0  0  0  0  0  0  0  0  0  0
    4.6161   -2.2127    3.3861 H   0  0  0  0  0  0  0  0  0  0  0  0
    2.8315   -3.4526    3.2685 C   0  0  0  0  0  0  0  0  0  0  0  0
    3.2371   -4.2307    3.9323 H   0  0  0  0  0  0  0  0  0  0  0  0
    1.5464   -3.5993    2.7220 C   0  0  0  0  0  0  0  0  0  0  0  0
    0.9444   -4.4896    2.9571 H   0  0  0  0  0  0  0  0  0  0  0  0
    1.0325   -2.6127    1.8679 C   0  0  0  0  0  0  0  0  0  0  0  0
    0.0305   -2.7216    1.4213 H   0  0  0  0  0  0  0  0  0  0  0  0
  1  3  1  0  0  0  0
  1 39  1  1  0  0  0
  2 37  1  0  0  0  0
  3 30  1  0  0  0  0
  3  4  1  1  0  0  0
  5  6  2  0  0  0  0
  5  3  1  0  0  0  0
  6  7  1  0  0  0  0
  8 10  1  0  0  0  0
  8  6  1  0  0  0  0
  9  8  1  0  0  0  0
 11 14  1  0  0  0  0
 11  8  1  0  0  0  0
 12 11  1  0  0  0  0
 13 11  1  0  0  0  0
 14 16  1  0  0  0  0
 14 17  1  0  0  0  0
 15 14  1  0  0  0  0
 17  5  1  0  0  0  0
 18 17  2  0  0  0  0
 18  1  1  0  0  0  0
 19 18  1  0  0  0  0
 20 21  1  0  0  0  0
 20 19  2  0  0  0  0
 22 20  1  0  0  0  0
 23 22  1  0  0  0  0
 24 22  2  0  0  0  0
 24 26  1  0  0  0  0
 25 24  1  0  0  0  0
 26 28  2  0  0  0  0
 27 26  1  0  0  0  0
 28 19  1  0  0  0  0
 28 29  1  0  0  0  0
 30  2  1  6  0  0  0
 30 31  1  0  0  0  0
 31 33  2  0  0  0  0
 31 32  1  0  0  0  0
 33 34  1  0  0  0  0
 35 36  1  0  0  0  0
 35 33  1  0  0  0  0
 37 35  2  0  0  0  0
 38 37  1  0  0  0  0
 39 48  2  0  0  0  0
 39 40  1  0  0  0  0
 40 42  2  0  0  0  0
 41 40  1  0  0  0  0
 42 44  1  0  0  0  0
 42 43  1  0  0  0  0
 44 45  1  0  0  0  0
 46 47  1  0  0  0  0
 46 44  2  0  0  0  0
 48 46  1  0  0  0  0
 49 48  1  0  0  0  0
M  END
