1
 OpenBabel05122313063D

 12 12  0  0  0  0  0  0  0  0999 V2000
    1.8636    0.2305    0.2059 N   0  0  0  0  0  2  0  0  0  0  0  0
    2.7642   -0.6092   -0.3647 N   0  0  0  0  0  0  0  0  0  0  0  0
    2.5776    1.2296    0.7764 C   0  0  0  0  0  3  0  0  0  0  0  0
    3.9518    1.0266    0.5661 C   0  0  0  0  0  0  0  0  0  0  0  0
    4.0303   -0.1590   -0.1669 C   0  0  0  0  0  0  0  0  0  0  0  0
    2.3237   -1.7935   -1.0789 C   0  0  0  0  0  0  0  0  0  0  0  0
    2.0668    2.0383    1.3119 H   0  0  0  0  0  0  0  0  0  0  0  0
    4.7824    1.6537    0.9038 H   0  0  0  0  0  0  0  0  0  0  0  0
    4.8921   -0.7117   -0.5574 H   0  0  0  0  0  0  0  0  0  0  0  0
    1.7057   -2.4299   -0.4150 H   0  0  0  0  0  0  0  0  0  0  0  0
    1.7374   -1.5114   -1.9762 H   0  0  0  0  0  0  0  0  0  0  0  0
    3.2123   -2.3670   -1.3969 H   0  0  0  0  0  0  0  0  0  0  0  0
  1  3  1  0  0  0  0
  2  5  1  0  0  0  0
  2  1  1  0  0  0  0
  3  7  1  0  0  0  0
  4  3  1  0  0  0  0
  4  8  1  0  0  0  0
  5  4  2  0  0  0  0
  6 10  1  0  0  0  0
  6  2  1  0  0  0  0
  9  5  1  0  0  0  0
 11  6  1  0  0  0  0
 12  6  1  0  0  0  0
M  END
