3
 OpenBabel05122313063D

 62 62  0  0  0  0  0  0  0  0999 V2000
    2.5224    0.3451   -0.1519 P   0  0  0  0  0  0  0  0  0  0  0  0
   -1.8060   -0.7465    0.1320 P   0  0  0  0  0  0  0  0  0  0  0  0
    0.1278    0.8006   -1.6166 N   0  0  0  0  0  0  0  0  0  0  0  0
   -0.6781    0.5909   -2.2201 H   0  0  0  0  0  0  0  0  0  0  0  0
    2.5068    1.5389   -1.6010 C   0  0  0  0  0  0  0  0  0  0  0  0
    2.4691    2.5659   -1.1855 H   0  0  0  0  0  0  0  0  0  0  0  0
    3.4305    1.4708   -2.2088 H   0  0  0  0  0  0  0  0  0  0  0  0
    1.2690    1.2475   -2.4501 C   0  0  0  0  0  0  0  0  0  0  0  0
    0.9788    2.1466   -3.0412 H   0  0  0  0  0  0  0  0  0  0  0  0
    1.4779    0.4241   -3.1634 H   0  0  0  0  0  0  0  0  0  0  0  0
   -0.2370    1.5909   -0.4412 C   0  0  0  0  0  3  0  0  0  0  0  0
    0.3941    2.4918   -0.3343 H   0  0  0  0  0  0  0  0  0  0  0  0
   -1.6873    1.9228   -0.3453 C   0  0  0  0  0  0  0  0  0  0  0  0
   -2.1622    3.2516   -0.3926 C   0  0  0  0  0  0  0  0  0  0  0  0
   -1.4384    4.0770   -0.4861 H   0  0  0  0  0  0  0  0  0  0  0  0
   -3.5356    3.5261   -0.3214 C   0  0  0  0  0  0  0  0  0  0  0  0
   -3.8873    4.5691   -0.3492 H   0  0  0  0  0  0  0  0  0  0  0  0
   -4.4637    2.4760   -0.2203 C   0  0  0  0  0  0  0  0  0  0  0  0
   -5.5413    2.6920   -0.1611 H   0  0  0  0  0  0  0  0  0  0  0  0
   -4.0081    1.1489   -0.1621 C   0  0  0  0  0  0  0  0  0  0  0  0
   -4.7350    0.3341   -0.0272 H   0  0  0  0  0  0  0  0  0  0  0  0
   -2.6299    0.8689   -0.2103 C   0  0  0  0  0  0  0  0  0  0  0  0
    3.8762   -0.8768   -0.6154 C   0  0  0  0  0  0  0  0  0  0  0  0
    4.7991   -0.2669   -0.7291 H   0  0  0  0  0  0  0  0  0  0  0  0
    3.5901   -1.5616   -1.9567 C   0  0  0  0  0  0  0  0  0  0  0  0
    4.4329   -2.2346   -2.2199 H   0  0  0  0  0  0  0  0  0  0  0  0
    3.4831   -0.8345   -2.7871 H   0  0  0  0  0  0  0  0  0  0  0  0
    2.6729   -2.1791   -1.9117 H   0  0  0  0  0  0  0  0  0  0  0  0
    4.0815   -1.8950    0.5122 C   0  0  0  0  0  0  0  0  0  0  0  0
    3.1649   -2.4959    0.6741 H   0  0  0  0  0  0  0  0  0  0  0  0
    4.3473   -1.4123    1.4740 H   0  0  0  0  0  0  0  0  0  0  0  0
    4.9023   -2.5953    0.2518 H   0  0  0  0  0  0  0  0  0  0  0  0
    3.3262    1.3347    1.2381 C   0  0  0  0  0  0  0  0  0  0  0  0
    3.3692    0.5903    2.0638 H   0  0  0  0  0  0  0  0  0  0  0  0
    2.4117    2.4741    1.7033 C   0  0  0  0  0  0  0  0  0  0  0  0
    2.8229    2.9358    2.6247 H   0  0  0  0  0  0  0  0  0  0  0  0
    1.3886    2.1147    1.9191 H   0  0  0  0  0  0  0  0  0  0  0  0
    2.3428    3.2798    0.9416 H   0  0  0  0  0  0  0  0  0  0  0  0
    4.7422    1.8363    0.9367 C   0  0  0  0  0  0  0  0  0  0  0  0
    4.7568    2.5138    0.0568 H   0  0  0  0  0  0  0  0  0  0  0  0
    5.4592    1.0142    0.7458 H   0  0  0  0  0  0  0  0  0  0  0  0
    5.1326    2.4164    1.7992 H   0  0  0  0  0  0  0  0  0  0  0  0
   -2.4685   -1.9858   -1.1367 C   0  0  0  0  0  0  0  0  0  0  0  0
   -1.9644   -2.9257   -0.8198 H   0  0  0  0  0  0  0  0  0  0  0  0
   -3.9824   -2.2120   -1.1521 C   0  0  0  0  0  0  0  0  0  0  0  0
   -4.5217   -1.3110   -1.5086 H   0  0  0  0  0  0  0  0  0  0  0  0
   -4.3887   -2.4894   -0.1599 H   0  0  0  0  0  0  0  0  0  0  0  0
   -4.2336   -3.0385   -1.8501 H   0  0  0  0  0  0  0  0  0  0  0  0
   -1.9484   -1.6387   -2.5361 C   0  0  0  0  0  0  0  0  0  0  0  0
   -2.2505   -2.4181   -3.2661 H   0  0  0  0  0  0  0  0  0  0  0  0
   -0.8431   -1.5751   -2.5490 H   0  0  0  0  0  0  0  0  0  0  0  0
   -2.3759   -0.6766   -2.8945 H   0  0  0  0  0  0  0  0  0  0  0  0
   -2.6312   -1.3064    1.7266 C   0  0  0  0  0  0  0  0  0  0  0  0
   -3.7017   -1.4545    1.4638 H   0  0  0  0  0  0  0  0  0  0  0  0
   -2.0404   -2.6448    2.1853 C   0  0  0  0  0  0  0  0  0  0  0  0
   -0.9661   -2.5386    2.4336 H   0  0  0  0  0  0  0  0  0  0  0  0
   -2.1339   -3.4375    1.4162 H   0  0  0  0  0  0  0  0  0  0  0  0
   -2.5649   -2.9987    3.0972 H   0  0  0  0  0  0  0  0  0  0  0  0
   -2.5522   -0.2312    2.8163 C   0  0  0  0  0  0  0  0  0  0  0  0
   -3.1184   -0.5690    3.7096 H   0  0  0  0  0  0  0  0  0  0  0  0
   -2.9891    0.7296    2.4812 H   0  0  0  0  0  0  0  0  0  0  0  0
   -1.5085   -0.0468    3.1319 H   0  0  0  0  0  0  0  0  0  0  0  0
  1 33  1  0  0  0  0
  2 53  1  0  0  0  0
  3 11  1  0  0  0  0
  4  3  1  0  0  0  0
  5  6  1  0  0  0  0
  5  1  1  0  0  0  0
  7  5  1  0  0  0  0
  8  3  1  0  0  0  0
  8  5  1  0  0  0  0
  9  8  1  0  0  0  0
 10  8  1  0  0  0  0
 11 13  1  0  0  0  0
 11 12  1  0  0  0  0
 13 22  1  0  0  0  0
 14 13  2  0  0  0  0
 14 16  1  0  0  0  0
 15 14  1  0  0  0  0
 16 18  2  0  0  0  0
 17 16  1  0  0  0  0
 18 20  1  0  0  0  0
 18 19  1  0  0  0  0
 20 21  1  0  0  0  0
 22 20  2  0  0  0  0
 22  2  1  0  0  0  0
 23  1  1  0  0  0  0
 23 29  1  0  0  0  0
 24 23  1  0  0  0  0
 25 28  1  0  0  0  0
 25 23  1  0  0  0  0
 26 25  1  0  0  0  0
 27 25  1  0  0  0  0
 29 30  1  0  0  0  0
 29 31  1  0  0  0  0
 32 29  1  0  0  0  0
 33 35  1  0  0  0  0
 33 34  1  0  0  0  0
 35 37  1  0  0  0  0
 35 36  1  0  0  0  0
 38 35  1  0  0  0  0
 39 33  1  0  0  0  0
 39 42  1  0  0  0  0
 40 39  1  0  0  0  0
 41 39  1  0  0  0  0
 43 44  1  0  0  0  0
 43  2  1  0  0  0  0
 45 43  1  0  0  0  0
 45 47  1  0  0  0  0
 46 45  1  0  0  0  0
 48 45  1  0  0  0  0
 49 43  1  0  0  0  0
 50 49  1  0  0  0  0
 51 49  1  0  0  0  0
 52 49  1  0  0  0  0
 53 55  1  0  0  0  0
 53 59  1  0  0  0  0
 54 53  1  0  0  0  0
 55 56  1  0  0  0  0
 55 58  1  0  0  0  0
 57 55  1  0  0  0  0
 59 62  1  0  0  0  0
 59 60  1  0  0  0  0
 61 59  1  0  0  0  0
M  END
