2
 OpenBabel05122313063D

 22 22  0  0  1  0  0  0  0  0999 V2000
    0.0364    2.1819   -1.5399 O   0  0  0  0  0  0  0  0  0  0  0  0
    2.4191   -0.2242   -0.0299 N   0  0  0  0  0  2  0  0  0  0  0  0
    2.1825    2.6888   -0.9269 N   0  0  0  0  0  0  0  0  0  0  0  0
    2.7124    3.0694   -0.1260 H   0  0  0  0  0  0  0  0  0  0  0  0
   -2.2096    4.3192    0.0780 N   0  0  0  0  0  0  0  0  0  0  0  0
    3.3056    0.4741   -0.7764 C   0  0  1  0  0  3  0  0  0  0  0  0
    4.6783    0.1850   -0.7353 C   0  0  0  0  0  0  0  0  0  0  0  0
    5.3757    0.7751   -1.3478 H   0  0  0  0  0  0  0  0  0  0  0  0
    5.1407   -0.8551    0.0836 C   0  0  0  0  0  0  0  0  0  0  0  0
    6.2126   -1.1015    0.1190 H   0  0  0  0  0  0  0  0  0  0  0  0
    4.2150   -1.5684    0.8507 C   0  0  0  0  0  0  0  0  0  0  0  0
    4.5167   -2.4040    1.4965 H   0  0  0  0  0  0  0  0  0  0  0  0
    2.8623   -1.2121    0.7713 C   0  0  0  0  0  0  0  0  0  0  0  0
    2.0958   -1.7509    1.3490 H   0  0  0  0  0  0  0  0  0  0  0  0
    2.7762    1.5823   -1.6629 C   0  0  0  0  0  0  0  0  0  0  0  0
    3.6041    1.9654   -2.2933 H   0  0  0  0  0  0  0  0  0  0  0  0
    1.9893    1.1869   -2.3378 H   0  0  0  0  0  0  0  0  0  0  0  0
    0.8432    2.9042   -0.9322 C   0  0  0  0  0  0  0  0  0  0  0  0
    0.4021    4.1566   -0.1591 C   0  0  0  0  0  0  0  0  0  0  0  0
    0.8942    4.1641    0.8380 H   0  0  0  0  0  0  0  0  0  0  0  0
    0.7700    5.0538   -0.7023 H   0  0  0  0  0  0  0  0  0  0  0  0
   -1.0457    4.2416   -0.0157 C   0  0  0  0  0  0  0  0  0  0  0  0
  1 18  2  0  0  0  0
  2 13  1  0  0  0  0
  3  4  1  0  0  0  0
  6 15  1  6  0  0  0
  6  7  1  0  0  0  0
  6  2  1  0  0  0  0
  7  9  2  0  0  0  0
  8  7  1  0  0  0  0
  9 10  1  0  0  0  0
  9 11  1  0  0  0  0
 11 12  1  0  0  0  0
 13 11  2  0  0  0  0
 13 14  1  0  0  0  0
 15  3  1  0  0  0  0
 16 15  1  0  0  0  0
 17 15  1  0  0  0  0
 18  3  1  0  0  0  0
 18 19  1  0  0  0  0
 19 22  1  0  0  0  0
 19 20  1  0  0  0  0
 21 19  1  0  0  0  0
 22  5  3  0  0  0  0
M  END
