1
 OpenBabel05122313063D

 32 34  0  0  1  0  0  0  0  0999 V2000
   -2.1839   -0.7148   -0.5992 N   0  0  0  0  0  2  0  0  0  0  0  0
    0.5281   -1.1060   -0.8733 N   0  0  0  0  0  0  0  0  0  0  0  0
    6.1252   -0.9016   -0.3260 N   0  0  0  0  0  0  0  0  0  0  0  0
    6.6052    0.2317   -0.4546 O   0  0  0  0  0  0  0  0  0  0  0  0
    6.7522   -1.9018    0.0150 O   0  0  0  0  0  0  0  0  0  0  0  0
   -1.7258   -1.9329   -0.9038 C   0  0  0  0  0  0  0  0  0  0  0  0
   -2.5901   -3.0477   -1.0936 C   0  0  0  0  0  0  0  0  0  0  0  0
   -2.1648   -4.0308   -1.3433 H   0  0  0  0  0  0  0  0  0  0  0  0
   -3.9554   -2.8688   -0.9434 C   0  0  0  0  0  0  0  0  0  0  0  0
   -4.6515   -3.7129   -1.0663 H   0  0  0  0  0  0  0  0  0  0  0  0
   -4.4698   -1.5814   -0.6314 C   0  0  0  0  0  0  0  0  0  0  0  0
   -5.8583   -1.3131   -0.4713 C   0  0  0  0  0  0  0  0  0  0  0  0
   -6.5772   -2.1392   -0.5822 H   0  0  0  0  0  0  0  0  0  0  0  0
   -6.2903   -0.0274   -0.1835 C   0  0  0  0  0  0  0  0  0  0  0  0
   -7.3644    0.1755   -0.0581 H   0  0  0  0  0  0  0  0  0  0  0  0
   -5.3559    1.0393   -0.0558 C   0  0  0  0  0  0  0  0  0  0  0  0
   -5.7195    2.0553    0.1580 H   0  0  0  0  0  0  0  0  0  0  0  0
   -3.9962    0.8183   -0.1984 C   0  0  0  0  0  0  0  0  0  0  0  0
   -3.2694    1.6422   -0.1260 H   0  0  0  0  0  0  0  0  0  0  0  0
   -3.5213   -0.4984   -0.4767 C   0  0  2  0  0  3  0  0  0  0  0  0
   -0.2669   -2.1030   -1.0392 C   0  0  0  0  0  0  0  0  0  0  0  0
    0.1055   -3.1176   -1.2999 H   0  0  0  0  0  0  0  0  0  0  0  0
    1.9188   -1.1786   -0.8566 C   0  0  0  0  0  0  0  0  0  0  0  0
    2.6400   -0.1315   -1.4832 C   0  0  0  0  0  0  0  0  0  0  0  0
    2.0835    0.6430   -2.0323 H   0  0  0  0  0  0  0  0  0  0  0  0
    4.0251   -0.0678   -1.3447 C   0  0  0  0  0  0  0  0  0  0  0  0
    4.6112    0.7448   -1.7951 H   0  0  0  0  0  0  0  0  0  0  0  0
    4.6805   -1.0461   -0.5783 C   0  0  0  0  0  0  0  0  0  0  0  0
    3.9919   -2.1134    0.0152 C   0  0  0  0  0  0  0  0  0  0  0  0
    4.5530   -2.8528    0.6026 H   0  0  0  0  0  0  0  0  0  0  0  0
    2.6023   -2.1739   -0.1174 C   0  0  0  0  0  0  0  0  0  0  0  0
    2.0247   -2.9439    0.4141 H   0  0  0  0  0  0  0  0  0  0  0  0
  1 20  1  0  0  0  0
  2 23  1  0  0  0  0
  3  5  2  0  0  0  0
  4  3  2  0  0  0  0
  6  1  1  0  0  0  0
  7  9  1  0  0  0  0
  7  6  2  0  0  0  0
  8  7  1  0  0  0  0
  9 11  2  0  0  0  0
 10  9  1  0  0  0  0
 11 12  1  0  0  0  0
 12 14  2  0  0  0  0
 13 12  1  0  0  0  0
 14 15  1  0  0  0  0
 14 16  1  0  0  0  0
 16 17  1  0  0  0  0
 18 19  1  0  0  0  0
 18 16  2  0  0  0  0
 20 11  1  6  0  0  0
 20 18  1  0  0  0  0
 21  6  1  0  0  0  0
 21  2  2  0  0  0  0
 22 21  1  0  0  0  0
 23 31  1  0  0  0  0
 24 26  1  0  0  0  0
 24 23  2  0  0  0  0
 25 24  1  0  0  0  0
 26 28  2  0  0  0  0
 27 26  1  0  0  0  0
 28  3  1  0  0  0  0
 28 29  1  0  0  0  0
 29 30  1  0  0  0  0
 31 29  2  0  0  0  0
 31 32  1  0  0  0  0
M  END
