1
 OpenBabel05122313063D

 19 19  0  0  0  0  0  0  0  0999 V2000
   -1.6436    0.8136    1.2885 N   0  0  0  0  0  0  0  0  0  0  0  0
   -2.6084    0.4602    1.4097 H   0  0  0  0  0  0  0  0  0  0  0  0
   -1.3392    1.3686    2.1024 H   0  0  0  0  0  0  0  0  0  0  0  0
   -1.5136    1.5157    0.0417 N   0  0  0  0  0  0  0  0  0  0  0  0
   -0.6726    2.7410    0.1538 C   0  0  0  0  0  0  0  0  0  0  0  0
   -0.3710    2.9656   -0.8890 H   0  0  0  0  0  0  0  0  0  0  0  0
    0.2463    2.4632    0.7034 H   0  0  0  0  0  0  0  0  0  0  0  0
   -1.4092    3.9186    0.7957 C   0  0  0  0  0  0  0  0  0  0  0  0
   -1.6114    3.6991    1.8697 H   0  0  0  0  0  0  0  0  0  0  0  0
   -0.7293    4.7947    0.7935 H   0  0  0  0  0  0  0  0  0  0  0  0
   -2.7238    4.2229    0.0707 C   0  0  0  0  0  0  0  0  0  0  0  0
   -3.2737    5.0361    0.5845 H   0  0  0  0  0  0  0  0  0  0  0  0
   -2.5013    4.5899   -0.9551 H   0  0  0  0  0  0  0  0  0  0  0  0
   -3.5777    2.9546   -0.0185 C   0  0  0  0  0  0  0  0  0  0  0  0
   -3.9265    2.6568    0.9967 H   0  0  0  0  0  0  0  0  0  0  0  0
   -4.4966    3.1259   -0.6146 H   0  0  0  0  0  0  0  0  0  0  0  0
   -2.8046    1.8036   -0.6581 C   0  0  0  0  0  0  0  0  0  0  0  0
   -3.3750    0.8557   -0.6959 H   0  0  0  0  0  0  0  0  0  0  0  0
   -2.5020    2.0311   -1.6998 H   0  0  0  0  0  0  0  0  0  0  0  0
  1  2  1  0  0  0  0
  1  3  1  0  0  0  0
  4  5  1  0  0  0  0
  4  1  1  0  0  0  0
  5  7  1  0  0  0  0
  5  8  1  0  0  0  0
  6  5  1  0  0  0  0
  8  9  1  0  0  0  0
 10  8  1  0  0  0  0
 11 12  1  0  0  0  0
 11  8  1  0  0  0  0
 13 11  1  0  0  0  0
 14 11  1  0  0  0  0
 14 15  1  0  0  0  0
 16 14  1  0  0  0  0
 17 14  1  0  0  0  0
 17  4  1  0  0  0  0
 18 17  1  0  0  0  0
 19 17  1  0  0  0  0
M  END
