1
 OpenBabel05122313063D

 17 17  0  0  0  0  0  0  0  0999 V2000
    1.6607   -0.9227   -1.3763 N   0  0  0  0  0  0  0  0  0  0  0  0
    1.8864   -1.9210   -1.5824 H   0  0  0  0  0  0  0  0  0  0  0  0
    1.2255   -0.4994   -2.2095 H   0  0  0  0  0  0  0  0  0  0  0  0
    2.8148   -0.2076   -0.9124 C   0  0  0  0  0  0  0  0  0  0  0  0
    3.7500   -0.8745   -0.0975 C   0  0  0  0  0  0  0  0  0  0  0  0
    3.5784   -1.9283    0.1657 H   0  0  0  0  0  0  0  0  0  0  0  0
    4.8685   -0.1818    0.3707 C   0  0  0  0  0  0  0  0  0  0  0  0
    5.5961   -0.7101    1.0064 H   0  0  0  0  0  0  0  0  0  0  0  0
    5.0772    1.1804    0.0603 C   0  0  0  0  0  0  0  0  0  0  0  0
    4.1275    1.8235   -0.7568 C   0  0  0  0  0  0  0  0  0  0  0  0
    4.2697    2.8816   -1.0266 H   0  0  0  0  0  0  0  0  0  0  0  0
    3.0033    1.1419   -1.2441 C   0  0  0  0  0  0  0  0  0  0  0  0
    2.2851    1.6586   -1.8941 H   0  0  0  0  0  0  0  0  0  0  0  0
    6.2863    1.9105    0.5858 C   0  0  0  0  0  0  0  0  0  0  0  0
    6.2920    2.9727    0.2742 H   0  0  0  0  0  0  0  0  0  0  0  0
    7.2263    1.4449    0.2222 H   0  0  0  0  0  0  0  0  0  0  0  0
    6.3241    1.8793    1.6946 H   0  0  0  0  0  0  0  0  0  0  0  0
  1  4  1  0  0  0  0
  2  1  1  0  0  0  0
  3  1  1  0  0  0  0
  4  5  1  0  0  0  0
  5  6  1  0  0  0  0
  5  7  2  0  0  0  0
  7  8  1  0  0  0  0
  9  7  1  0  0  0  0
  9 14  1  0  0  0  0
 10  9  2  0  0  0  0
 11 10  1  0  0  0  0
 12  4  2  0  0  0  0
 12 10  1  0  0  0  0
 13 12  1  0  0  0  0
 14 17  1  0  0  0  0
 15 14  1  0  0  0  0
 16 14  1  0  0  0  0
M  END
