1
 OpenBabel05122313063D

 15 15  0  0  0  0  0  0  0  0999 V2000
   -0.7004    2.6494    0.2264 N   0  0  0  0  0  0  0  0  0  0  0  0
   -0.9671    3.4793   -0.8685 C   0  0  0  0  0  0  0  0  0  0  0  0
   -0.7751    4.8055   -0.4879 C   0  0  0  0  0  0  0  0  0  0  0  0
   -0.9231    5.6827   -1.1301 H   0  0  0  0  0  0  0  0  0  0  0  0
   -0.3838    4.7941    0.8884 C   0  0  0  0  0  0  0  0  0  0  0  0
   -0.1747    5.6633    1.5245 H   0  0  0  0  0  0  0  0  0  0  0  0
   -0.3456    3.4612    1.3022 C   0  0  0  0  0  3  0  0  0  0  0  0
   -1.3959    2.9292   -2.1939 C   0  0  0  0  0  0  0  0  0  0  0  0
   -1.5645    3.7558   -2.9107 H   0  0  0  0  0  0  0  0  0  0  0  0
   -2.3321    2.3372   -2.1139 H   0  0  0  0  0  0  0  0  0  0  0  0
   -0.6355    2.2541   -2.6522 H   0  0  0  0  0  0  0  0  0  0  0  0
   -0.0114    2.9240    2.6555 C   0  0  0  0  0  0  0  0  0  0  0  0
    0.1210    3.7590    3.3704 H   0  0  0  0  0  0  0  0  0  0  0  0
    0.9193    2.3190    2.6512 H   0  0  0  0  0  0  0  0  0  0  0  0
   -0.8112    2.2588    3.0423 H   0  0  0  0  0  0  0  0  0  0  0  0
  1  7  1  0  0  0  0
  2  3  1  0  0  0  0
  2  1  2  0  0  0  0
  3  5  2  0  0  0  0
  4  3  1  0  0  0  0
  5  7  1  0  0  0  0
  5  6  1  0  0  0  0
  7 12  1  0  0  0  0
  8 10  1  0  0  0  0
  8  2  1  0  0  0  0
  9  8  1  0  0  0  0
 11  8  1  0  0  0  0
 12 15  1  0  0  0  0
 12 13  1  0  0  0  0
 14 12  1  0  0  0  0
M  END
