8
 OpenBabel05122313063D

 29 31  0  0  0  0  0  0  0  0999 V2000
    0.5502    3.2089    0.7916 N   0  0  0  0  0  0  0  0  0  0  0  0
   -0.6833    3.1939    0.1649 C   0  0  0  0  0  3  0  0  0  0  0  0
   -1.2903    2.1101   -0.2370 N   0  0  0  0  0  0  0  0  0  0  0  0
   -0.5842    0.9825    0.0068 C   0  0  0  0  0  0  0  0  0  0  0  0
    0.6618    0.8821    0.6538 C   0  0  0  0  0  0  0  0  0  0  0  0
    1.3126    2.0833    1.0554 C   0  0  0  0  0  0  0  0  0  0  0  0
    2.4944    2.1604    1.6439 N   0  0  0  0  0  0  0  0  0  0  0  0
    1.1124   -0.4096    0.6315 N   0  0  0  0  0  2  0  0  0  0  0  0
    0.1722   -1.0938   -0.0076 C   0  0  0  0  0  3  0  0  0  0  0  0
   -0.8837   -0.3015   -0.4009 N   0  0  0  0  0  0  0  0  0  0  0  0
   -3.3066   -0.7807   -0.2381 C   0  0  0  0  0  0  0  0  0  0  0  0
   -4.4177    0.0829   -0.3623 C   0  0  0  0  0  0  0  0  0  0  0  0
   -5.5207   -0.0122    0.5036 C   0  0  0  0  0  0  0  0  0  0  0  0
   -5.5242   -0.9818    1.5151 C   0  0  0  0  0  0  0  0  0  0  0  0
   -4.4435   -1.8624    1.6686 C   0  0  0  0  0  0  0  0  0  0  0  0
   -3.3658   -1.7425    0.7896 C   0  0  0  0  0  0  0  0  0  0  0  0
   -2.0861   -0.7183   -1.1259 C   0  0  0  0  0  0  0  0  0  0  0  0
   -4.4566    1.2884   -1.6218 Cl  0  0  0  0  0  0  0  0  0  0  0  0
   -2.3196   -2.5837    0.9151 F   0  0  0  0  0  0  0  0  0  0  0  0
    0.9506    4.1239    1.0171 H   0  0  0  0  0  0  0  0  0  0  0  0
   -1.1449    4.1834    0.0176 H   0  0  0  0  0  0  0  0  0  0  0  0
    3.1580    1.3060    1.6423 H   0  0  0  0  0  0  0  0  0  0  0  0
    2.9527    3.0684    1.7415 H   0  0  0  0  0  0  0  0  0  0  0  0
    0.2774   -2.1539   -0.2803 H   0  0  0  0  0  0  0  0  0  0  0  0
   -6.3666    0.6755    0.3726 H   0  0  0  0  0  0  0  0  0  0  0  0
   -6.3872   -1.0549    2.1932 H   0  0  0  0  0  0  0  0  0  0  0  0
   -4.4209   -2.6367    2.4475 H   0  0  0  0  0  0  0  0  0  0  0  0
   -1.8646   -1.7104   -1.5637 H   0  0  0  0  0  0  0  0  0  0  0  0
   -2.2577   -0.0015   -1.9496 H   0  0  0  0  0  0  0  0  0  0  0  0
  1 20  1  0  0  0  0
  1  6  1  0  0  0  0
  2  1  1  0  0  0  0
  3  4  2  0  0  0  0
  3  2  1  0  0  0  0
  4  5  1  0  0  0  0
  5  6  2  0  0  0  0
  6  7  1  0  0  0  0
  7 23  1  0  0  0  0
  8  5  1  0  0  0  0
  9  8  1  0  0  0  0
 10  9  1  0  0  0  0
 10  4  1  0  0  0  0
 11 16  1  0  0  0  0
 12 11  2  0  0  0  0
 12 13  1  0  0  0  0
 13 14  2  0  0  0  0
 14 15  1  0  0  0  0
 14 26  1  0  0  0  0
 15 27  1  0  0  0  0
 16 19  1  0  0  0  0
 16 15  2  0  0  0  0
 17 10  1  0  0  0  0
 17 11  1  0  0  0  0
 18 12  1  0  0  0  0
 21  2  1  0  0  0  0
 22  7  1  0  0  0  0
 24  9  1  0  0  0  0
 25 13  1  0  0  0  0
 28 17  1  0  0  0  0
 29 17  1  0  0  0  0
M  END
