1
 OpenBabel05122313063D

 28 28  0  0  0  0  0  0  0  0999 V2000
   -1.3495   -0.0359   -1.5616 N   0  0  0  0  0  0  0  0  0  0  0  0
   -0.9217   -0.8080   -2.1440 H   0  0  0  0  0  0  0  0  0  0  0  0
   -1.2777    0.8787   -2.0295 H   0  0  0  0  0  0  0  0  0  0  0  0
   -8.8263   -0.7957    0.7302 O   0  0  0  0  0  0  0  0  0  0  0  0
   -8.2465    0.8397   -1.2075 O   0  0  0  0  0  0  0  0  0  0  0  0
   -2.7491   -0.3567   -1.2300 C   0  0  0  0  0  0  0  0  0  0  0  0
   -3.3654   -0.3498   -2.1580 H   0  0  0  0  0  0  0  0  0  0  0  0
   -2.7701   -1.3965   -0.8456 H   0  0  0  0  0  0  0  0  0  0  0  0
   -3.3671    0.5938   -0.1963 C   0  0  0  0  0  0  0  0  0  0  0  0
   -3.2900    1.6376   -0.5694 H   0  0  0  0  0  0  0  0  0  0  0  0
   -2.7555    0.5499    0.7288 H   0  0  0  0  0  0  0  0  0  0  0  0
   -4.8048    0.2406    0.1024 C   0  0  0  0  0  0  0  0  0  0  0  0
   -5.8488    0.7479   -0.7064 C   0  0  0  0  0  0  0  0  0  0  0  0
   -5.5986    1.4428   -1.5206 H   0  0  0  0  0  0  0  0  0  0  0  0
   -7.1861    0.3914   -0.4830 C   0  0  0  0  0  0  0  0  0  0  0  0
   -7.5054   -0.5065    0.5820 C   0  0  0  0  0  0  0  0  0  0  0  0
   -6.4695   -1.0090    1.3823 C   0  0  0  0  0  0  0  0  0  0  0  0
   -6.6976   -1.6949    2.2090 H   0  0  0  0  0  0  0  0  0  0  0  0
   -5.1322   -0.6390    1.1424 C   0  0  0  0  0  0  0  0  0  0  0  0
   -4.3361   -1.0435    1.7865 H   0  0  0  0  0  0  0  0  0  0  0  0
   -7.9920    1.7295   -2.2736 C   0  0  0  0  0  0  0  0  0  0  0  0
   -7.3369    1.2733   -3.0507 H   0  0  0  0  0  0  0  0  0  0  0  0
   -8.9729    1.9668   -2.7258 H   0  0  0  0  0  0  0  0  0  0  0  0
   -7.5173    2.6749   -1.9241 H   0  0  0  0  0  0  0  0  0  0  0  0
   -9.1966   -1.6752    1.7710 C   0  0  0  0  0  0  0  0  0  0  0  0
   -8.9176   -1.2766    2.7732 H   0  0  0  0  0  0  0  0  0  0  0  0
  -10.2967   -1.7775    1.7193 H   0  0  0  0  0  0  0  0  0  0  0  0
   -8.7341   -2.6816    1.6513 H   0  0  0  0  0  0  0  0  0  0  0  0
  1  6  1  0  0  0  0
  2  1  1  0  0  0  0
  3  1  1  0  0  0  0
  4 25  1  0  0  0  0
  5 15  1  0  0  0  0
  6  8  1  0  0  0  0
  6  9  1  0  0  0  0
  7  6  1  0  0  0  0
  9 12  1  0  0  0  0
  9 11  1  0  0  0  0
 10  9  1  0  0  0  0
 12 19  1  0  0  0  0
 13 15  1  0  0  0  0
 13 12  2  0  0  0  0
 14 13  1  0  0  0  0
 15 16  2  0  0  0  0
 16  4  1  0  0  0  0
 16 17  1  0  0  0  0
 17 18  1  0  0  0  0
 19 17  2  0  0  0  0
 19 20  1  0  0  0  0
 21 24  1  0  0  0  0
 21  5  1  0  0  0  0
 22 21  1  0  0  0  0
 23 21  1  0  0  0  0
 25 26  1  0  0  0  0
 27 25  1  0  0  0  0
 28 25  1  0  0  0  0
M  END
