1
 OpenBabel05122313063D

 22 24  0  0  1  0  0  0  0  0999 V2000
    1.0223    0.0204    0.0081 N   0  0  1  0  0  0  0  0  0  0  0  0
    3.0449   -1.0114    0.9655 N   0  0  2  0  0  0  0  0  0  0  0  0
    3.0447    1.3634    0.4192 N   0  0  1  0  0  0  0  0  0  0  0  0
    3.0454   -0.2985   -1.3627 N   0  0  1  0  0  0  0  0  0  0  0  0
    1.5909   -1.0049    0.9631 C   0  0  0  0  0  0  0  0  0  0  0  0
    1.5897    1.3586    0.4180 C   0  0  0  0  0  0  0  0  0  0  0  0
    1.5915   -0.2944   -1.3572 C   0  0  0  0  0  0  0  0  0  0  0  0
    3.5216    0.3276    1.3507 C   0  0  0  0  0  0  0  0  0  0  0  0
    3.5219    1.0266   -0.9324 C   0  0  0  0  0  0  0  0  0  0  0  0
    3.5214   -1.3018   -0.3966 C   0  0  0  0  0  0  0  0  0  0  0  0
    1.2022   -1.9990    0.6639 H   0  0  0  0  0  0  0  0  0  0  0  0
    1.2132   -0.7693    1.9773 H   0  0  0  0  0  0  0  0  0  0  0  0
    1.2065    1.5916    1.4315 H   0  0  0  0  0  0  0  0  0  0  0  0
    1.2052    2.1196   -0.2903 H   0  0  0  0  0  0  0  0  0  0  0  0
    1.2139    0.4684   -2.0660 H   0  0  0  0  0  0  0  0  0  0  0  0
    1.2036   -1.2857   -1.6662 H   0  0  0  0  0  0  0  0  0  0  0  0
    4.6308    0.3300    1.3601 H   0  0  0  0  0  0  0  0  0  0  0  0
    3.1616    0.5626    2.3739 H   0  0  0  0  0  0  0  0  0  0  0  0
    3.1619    1.7941   -1.6488 H   0  0  0  0  0  0  0  0  0  0  0  0
    4.6311    1.0341   -0.9385 H   0  0  0  0  0  0  0  0  0  0  0  0
    3.1599   -2.3052   -0.7039 H   0  0  0  0  0  0  0  0  0  0  0  0
    4.6305   -1.3124   -0.3996 H   0  0  0  0  0  0  0  0  0  0  0  0
  1  7  1  6  0  0  0
  1  6  1  0  0  0  0
  1  5  1  0  0  0  0
  2 10  1  6  0  0  0
  2  8  1  0  0  0  0
  3  9  1  6  0  0  0
  3  8  1  0  0  0  0
  4  7  1  1  0  0  0
  4  9  1  0  0  0  0
  4 10  1  0  0  0  0
  5  2  1  0  0  0  0
  5 12  1  0  0  0  0
  6  3  1  0  0  0  0
  6 13  1  0  0  0  0
  8 17  1  0  0  0  0
  8 18  1  0  0  0  0
 11  5  1  0  0  0  0
 14  6  1  0  0  0  0
 15  7  1  0  0  0  0
 16  7  1  0  0  0  0
 19  9  1  0  0  0  0
 20  9  1  0  0  0  0
 21 10  1  0  0  0  0
 22 10  1  0  0  0  0
M  END
