8
 OpenBabel05122313063D

 17 18  0  0  0  0  0  0  0  0999 V2000
    4.2702   -2.2724    0.0010 N   0  0  0  0  0  0  0  0  0  0  0  0
    5.4299   -1.5390    0.0013 C   0  0  0  0  0  0  0  0  0  0  0  0
    5.4847   -0.2275    0.0008 N   0  0  0  0  0  0  0  0  0  0  0  0
    4.2594    0.3490    0.0000 C   0  0  0  0  0  0  0  0  0  0  0  0
    3.0195   -0.3002    0.0000 C   0  0  0  0  0  0  0  0  0  0  0  0
    2.9436   -1.7446    0.0006 C   0  0  0  0  0  0  0  0  0  0  0  0
    1.9480   -2.4605    0.0007 O   0  0  0  0  0  0  0  0  0  0  0  0
    2.0086    0.6319   -0.0002 N   0  0  0  0  0  2  0  0  0  0  0  0
    2.6095    1.8251   -0.0004 C   0  0  0  0  0  3  0  0  0  0  0  0
    3.9746    1.7051   -0.0002 N   0  0  0  0  0  0  0  0  0  0  0  0
    4.9647    2.7766   -0.0021 C   0  0  0  0  0  0  0  0  0  0  0  0
    4.3280   -3.2972    0.0013 H   0  0  0  0  0  0  0  0  0  0  0  0
    6.3659   -2.1224    0.0021 H   0  0  0  0  0  0  0  0  0  0  0  0
    2.0953    2.7936   -0.0007 H   0  0  0  0  0  0  0  0  0  0  0  0
    4.8668    3.3925   -0.9163 H   0  0  0  0  0  0  0  0  0  0  0  0
    5.9637    2.3043    0.0159 H   0  0  0  0  0  0  0  0  0  0  0  0
    4.8441    3.4158    0.8931 H   0  0  0  0  0  0  0  0  0  0  0  0
  1 12  1  0  0  0  0
  1  2  1  0  0  0  0
  2 13  1  0  0  0  0
  3  2  2  0  0  0  0
  4  3  1  0  0  0  0
  5  4  2  0  0  0  0
  5  6  1  0  0  0  0
  6  7  2  0  0  0  0
  6  1  1  0  0  0  0
  8  5  1  0  0  0  0
  9  8  1  0  0  0  0
  9 10  1  0  0  0  0
 10  4  1  0  0  0  0
 11 10  1  0  0  0  0
 11 16  1  0  0  0  0
 11 17  1  0  0  0  0
 14  9  1  0  0  0  0
 15 11  1  0  0  0  0
M  END
