15
 OpenBabel05122313063D

 38 41  0  0  1  0  0  0  0  0999 V2000
    0.5042    0.1064    2.8952 N   0  0  0  0  0  0  0  0  0  0  0  0
    1.5426    0.1221    2.7687 H   0  0  0  0  0  0  0  0  0  0  0  0
    0.0077    0.9547    3.1743 H   0  0  0  0  0  0  0  0  0  0  0  0
    0.4578   -1.8390    1.5723 N   0  0  0  0  0  0  0  0  0  0  0  0
    1.5192   -1.8149    1.6292 H   0  0  0  0  0  0  0  0  0  0  0  0
   -1.3985   -2.5826    0.2856 N   0  0  0  0  0  0  0  0  0  0  0  0
   -2.4825    0.2933    2.1754 N   0  0  0  0  0  0  0  0  0  0  0  0
   -3.3143   -1.0867    0.5772 N   0  0  0  0  0  0  0  0  0  0  0  0
   -1.5984    0.1483   -1.6915 N   0  0  0  0  0  0  0  0  0  0  0  0
   -2.5931    2.1843   -0.7371 N   0  0  0  0  0  0  0  0  0  0  0  0
   -1.0103    3.4397    0.5983 N   0  0  0  0  0  0  0  0  0  0  0  0
    1.2394    2.8476    0.8590 N   0  0  0  0  0  0  0  0  0  0  0  0
    1.3452    3.7766    1.2728 H   0  0  0  0  0  0  0  0  0  0  0  0
    2.0724    2.4459    0.3740 H   0  0  0  0  0  0  0  0  0  0  0  0
    0.4706    0.3303   -0.8336 N   0  0  0  0  0  2  0  0  0  0  0  0
   -0.1787   -0.7698    2.1593 C   0  0  2  0  0  3  0  0  0  0  0  0
   -0.1441   -2.6862    0.6770 C   0  0  0  0  0  0  0  0  0  0  0  0
    0.5251   -3.4376    0.2314 H   0  0  0  0  0  0  0  0  0  0  0  0
   -2.0522   -1.5558    0.8718 C   0  0  0  0  0  0  0  0  0  0  0  0
   -1.5591   -0.6722    1.8543 C   0  0  0  0  0  0  0  0  0  0  0  0
   -3.5139    0.0181    1.3957 C   0  0  0  0  0  0  0  0  0  0  0  0
   -4.4479    0.5933    1.3539 H   0  0  0  0  0  0  0  0  0  0  0  0
   -4.1170   -1.4968   -0.5727 C   0  0  0  0  0  0  0  0  0  0  0  0
   -5.1686   -1.6127   -0.2421 H   0  0  0  0  0  0  0  0  0  0  0  0
   -3.7439   -2.4973   -0.8708 H   0  0  0  0  0  0  0  0  0  0  0  0
   -4.0462   -0.4981   -1.7370 C   0  0  0  0  0  0  0  0  0  0  0  0
   -4.8034   -0.8083   -2.4867 H   0  0  0  0  0  0  0  0  0  0  0  0
   -4.3356    0.5141   -1.3869 H   0  0  0  0  0  0  0  0  0  0  0  0
   -2.7071   -0.3898   -2.4800 C   0  0  0  0  0  0  0  0  0  0  0  0
   -2.3783   -1.3807   -2.8521 H   0  0  0  0  0  0  0  0  0  0  0  0
   -2.8530    0.2648   -3.3648 H   0  0  0  0  0  0  0  0  0  0  0  0
   -1.5803    1.3319   -0.9527 C   0  0  0  0  0  0  0  0  0  0  0  0
   -2.2174    3.1975    0.0690 C   0  0  0  0  0  0  0  0  0  0  0  0
   -3.0056    3.9301    0.3195 H   0  0  0  0  0  0  0  0  0  0  0  0
    0.0149    2.5882    0.3484 C   0  0  0  0  0  0  0  0  0  0  0  0
   -0.2712    1.4318   -0.4359 C   0  0  0  0  0  0  0  0  0  0  0  0
   -0.3430   -0.4002   -1.5895 C   0  0  0  0  0  3  0  0  0  0  0  0
   -0.0312   -1.3433   -2.0619 H   0  0  0  0  0  0  0  0  0  0  0  0
  1  3  1  0  0  0  0
  2  1  1  0  0  0  0
  4  5  1  0  0  0  0
  4 16  1  0  0  0  0
  6 17  2  0  0  0  0
  6 19  1  0  0  0  0
  8 19  1  0  0  0  0
  8 21  1  0  0  0  0
  9 37  1  0  0  0  0
  9 32  1  0  0  0  0
 10 33  1  0  0  0  0
 12 13  1  0  0  0  0
 14 12  1  0  0  0  0
 15 36  1  0  0  0  0
 16  1  1  6  0  0  0
 17  4  1  0  0  0  0
 18 17  1  0  0  0  0
 19 20  2  0  0  0  0
 20 16  1  0  0  0  0
 20  7  1  0  0  0  0
 21  7  2  0  0  0  0
 22 21  1  0  0  0  0
 23 24  1  0  0  0  0
 23  8  1  0  0  0  0
 25 23  1  0  0  0  0
 26 28  1  0  0  0  0
 26 23  1  0  0  0  0
 27 26  1  0  0  0  0
 29 26  1  0  0  0  0
 29  9  1  0  0  0  0
 30 29  1  0  0  0  0
 31 29  1  0  0  0  0
 32 10  2  0  0  0  0
 32 36  1  0  0  0  0
 33 34  1  0  0  0  0
 33 11  2  0  0  0  0
 35 11  1  0  0  0  0
 35 12  1  0  0  0  0
 36 35  2  0  0  0  0
 37 15  1  0  0  0  0
 38 37  1  0  0  0  0
M  END
