5
 OpenBabel05122313063D

 41 42  0  0  0  0  0  0  0  0999 V2000
    0.0862   -1.2204   -0.5566 Si  0  0  0  0  0  0  0  0  0  0  0  0
    1.8155    1.2940    0.3083 Si  0  0  0  0  0  0  0  0  0  0  0  0
   -2.2848   -2.2422    0.4875 O   0  0  0  0  0  0  0  0  0  0  0  0
    3.6842   -0.7766    0.8165 O   0  0  0  0  0  0  0  0  0  0  0  0
    0.2269    0.4510    0.1069 N   0  0  0  0  0  2  0  0  0  0  0  0
   -4.3725   -3.1033    1.3726 C   0  0  0  0  0  0  0  0  0  0  0  0
   -5.4225   -3.2638    1.0672 H   0  0  0  0  0  0  0  0  0  0  0  0
   -4.3640   -2.4721    2.2855 H   0  0  0  0  0  0  0  0  0  0  0  0
   -3.9279   -4.0838    1.6418 H   0  0  0  0  0  0  0  0  0  0  0  0
   -3.6115   -2.4469    0.2782 C   0  0  0  0  0  0  0  0  0  0  0  0
   -3.9684   -1.9613   -0.9677 C   0  0  0  0  0  0  0  0  0  0  0  0
   -4.9711   -1.9879   -1.4077 H   0  0  0  0  0  0  0  0  0  0  0  0
   -2.7836   -1.4131   -1.5391 C   0  0  0  0  0  0  0  0  0  0  0  0
   -2.6873   -0.9199   -2.5121 H   0  0  0  0  0  0  0  0  0  0  0  0
   -1.7594   -1.5806   -0.6118 C   0  0  0  0  0  0  0  0  0  0  0  0
    0.8315   -2.4686    0.6305 C   0  0  0  0  0  0  0  0  0  0  0  0
    0.2192   -2.4927    1.5536 H   0  0  0  0  0  0  0  0  0  0  0  0
    1.8744   -2.2157    0.8962 H   0  0  0  0  0  0  0  0  0  0  0  0
    0.8069   -3.4792    0.1740 H   0  0  0  0  0  0  0  0  0  0  0  0
    0.7458   -1.2596   -2.3157 C   0  0  0  0  0  0  0  0  0  0  0  0
    0.2596   -0.4584   -2.9086 H   0  0  0  0  0  0  0  0  0  0  0  0
    0.5151   -2.2362   -2.7872 H   0  0  0  0  0  0  0  0  0  0  0  0
    1.8413   -1.1027   -2.3366 H   0  0  0  0  0  0  0  0  0  0  0  0
    2.0256    1.7752    2.1113 C   0  0  0  0  0  0  0  0  0  0  0  0
    1.1702    2.3784    2.4702 H   0  0  0  0  0  0  0  0  0  0  0  0
    2.9576    2.3619    2.2417 H   0  0  0  0  0  0  0  0  0  0  0  0
    2.1052    0.8595    2.7308 H   0  0  0  0  0  0  0  0  0  0  0  0
    1.9272    2.7018   -0.9359 C   0  0  0  0  0  0  0  0  0  0  0  0
    1.1672    3.4779   -0.7249 H   0  0  0  0  0  0  0  0  0  0  0  0
    1.7465    2.3200   -1.9612 H   0  0  0  0  0  0  0  0  0  0  0  0
    2.9330    3.1669   -0.9025 H   0  0  0  0  0  0  0  0  0  0  0  0
    3.2361    0.1365   -0.1253 C   0  0  0  0  0  0  0  0  0  0  0  0
    4.0631    0.0476   -1.2333 C   0  0  0  0  0  0  0  0  0  0  0  0
    3.9771    0.6526   -2.1436 H   0  0  0  0  0  0  0  0  0  0  0  0
    5.0413   -0.9616   -0.9594 C   0  0  0  0  0  0  0  0  0  0  0  0
    5.8561   -1.2971   -1.6104 H   0  0  0  0  0  0  0  0  0  0  0  0
    4.7663   -1.4372    0.3068 C   0  0  0  0  0  0  0  0  0  0  0  0
    5.3888   -2.4765    1.1691 C   0  0  0  0  0  0  0  0  0  0  0  0
    6.2780   -2.9026    0.6692 H   0  0  0  0  0  0  0  0  0  0  0  0
    4.6806   -3.3049    1.3830 H   0  0  0  0  0  0  0  0  0  0  0  0
    5.7044   -2.0547    2.1460 H   0  0  0  0  0  0  0  0  0  0  0  0
  1  5  1  0  0  0  0
  1 16  1  0  0  0  0
  2 24  1  0  0  0  0
  5  2  1  0  0  0  0
  6  9  1  0  0  0  0
  6  8  1  0  0  0  0
  7  6  1  0  0  0  0
 10  3  1  0  0  0  0
 10  6  1  0  0  0  0
 11 10  2  0  0  0  0
 12 11  1  0  0  0  0
 13 11  1  0  0  0  0
 13 15  2  0  0  0  0
 14 13  1  0  0  0  0
 15  1  1  0  0  0  0
 15  3  1  0  0  0  0
 16 18  1  0  0  0  0
 16 17  1  0  0  0  0
 19 16  1  0  0  0  0
 20  1  1  0  0  0  0
 21 20  1  0  0  0  0
 22 20  1  0  0  0  0
 23 20  1  0  0  0  0
 24 26  1  0  0  0  0
 24 25  1  0  0  0  0
 24 27  1  0  0  0  0
 28 31  1  0  0  0  0
 28 29  1  0  0  0  0
 28  2  1  0  0  0  0
 30 28  1  0  0  0  0
 32  2  1  0  0  0  0
 32  4  1  0  0  0  0
 33 35  1  0  0  0  0
 33 32  2  0  0  0  0
 34 33  1  0  0  0  0
 35 37  2  0  0  0  0
 36 35  1  0  0  0  0
 37  4  1  0  0  0  0
 37 38  1  0  0  0  0
 38 40  1  0  0  0  0
 38 41  1  0  0  0  0
 39 38  1  0  0  0  0
M  END
