1
 OpenBabel05122313063D

 19 18  0  0  0  0  0  0  0  0999 V2000
    0.3136   -0.1633    2.2218 N   0  0  0  0  0  0  0  0  0  0  0  0
    1.1213   -0.7560    2.4590 H   0  0  0  0  0  0  0  0  0  0  0  0
    0.4845    0.7433    2.6811 H   0  0  0  0  0  0  0  0  0  0  0  0
   -0.9424   -0.7639    2.7232 C   0  0  0  0  0  0  0  0  0  0  0  0
   -0.8414   -1.1161    3.7748 H   0  0  0  0  0  0  0  0  0  0  0  0
   -1.1462   -1.6617    2.1028 H   0  0  0  0  0  0  0  0  0  0  0  0
   -2.0985    0.2257    2.5996 C   0  0  0  0  0  0  0  0  0  0  0  0
   -1.9864    0.7707    1.6404 H   0  0  0  0  0  0  0  0  0  0  0  0
   -2.0200    0.9972    3.3986 H   0  0  0  0  0  0  0  0  0  0  0  0
   -3.4795   -0.4313    2.6345 C   0  0  0  0  0  0  0  0  0  0  0  0
   -3.5219   -1.2178    1.8481 H   0  0  0  0  0  0  0  0  0  0  0  0
   -3.6277   -0.9610    3.6029 H   0  0  0  0  0  0  0  0  0  0  0  0
   -4.6243    0.5597    2.4039 C   0  0  0  0  0  0  0  0  0  0  0  0
   -4.4379    1.0995    1.4492 H   0  0  0  0  0  0  0  0  0  0  0  0
   -4.6047    1.3371    3.2002 H   0  0  0  0  0  0  0  0  0  0  0  0
   -5.9979   -0.1090    2.3595 C   0  0  0  0  0  0  0  0  0  0  0  0
   -6.0508   -0.8522    1.5368 H   0  0  0  0  0  0  0  0  0  0  0  0
   -6.8075    0.6303    2.1942 H   0  0  0  0  0  0  0  0  0  0  0  0
   -6.2210   -0.6427    3.3074 H   0  0  0  0  0  0  0  0  0  0  0  0
  1  2  1  0  0  0  0
  1  3  1  0  0  0  0
  1  4  1  0  0  0  0
  4  5  1  0  0  0  0
  6  4  1  0  0  0  0
  7 10  1  0  0  0  0
  7  4  1  0  0  0  0
  7  9  1  0  0  0  0
  8  7  1  0  0  0  0
 10 12  1  0  0  0  0
 11 10  1  0  0  0  0
 13 10  1  0  0  0  0
 13 15  1  0  0  0  0
 14 13  1  0  0  0  0
 16 13  1  0  0  0  0
 16 19  1  0  0  0  0
 17 16  1  0  0  0  0
 18 16  1  0  0  0  0
M  END
