1
 OpenBabel05122313063D

 32 32  0  0  1  0  0  0  0  0999 V2000
   -0.3459   -2.0184   -0.0162 N   0  0  0  0  0  2  0  0  0  0  0  0
   -1.6149   -2.4725   -0.3946 N   0  0  0  0  0  0  0  0  0  0  0  0
    0.5673   -2.9090    0.2819 C   0  0  1  0  0  3  0  0  0  0  0  0
   -1.6817   -3.0693   -1.7270 C   0  0  0  0  0  0  0  0  0  0  0  0
   -2.6991   -1.6853    0.0504 C   0  0  0  0  0  0  0  0  0  0  0  0
    0.2303   -4.3592    0.4357 C   0  0  0  0  0  0  0  0  0  0  0  0
    2.0066   -2.4569    0.3839 C   0  0  0  0  0  0  0  0  0  0  0  0
   -1.6958   -2.2904   -2.5186 H   0  0  0  0  0  0  0  0  0  0  0  0
   -2.5848   -3.7068   -1.7897 H   0  0  0  0  0  0  0  0  0  0  0  0
   -0.7977   -3.7094   -1.8893 H   0  0  0  0  0  0  0  0  0  0  0  0
   -2.6864   -1.1750    1.3698 C   0  0  0  0  0  0  0  0  0  0  0  0
   -3.8048   -1.4080   -0.7840 C   0  0  0  0  0  0  0  0  0  0  0  0
    0.4096   -4.9256   -0.5035 H   0  0  0  0  0  0  0  0  0  0  0  0
   -0.8380   -4.4776    0.7000 H   0  0  0  0  0  0  0  0  0  0  0  0
    0.8745   -4.8158    1.2113 H   0  0  0  0  0  0  0  0  0  0  0  0
    2.7921   -3.0200   -0.8165 C   0  0  0  0  0  0  0  0  0  0  0  0
    2.6596   -2.8012    1.7282 C   0  0  0  0  0  0  0  0  0  0  0  0
    1.9962   -1.3498    0.2854 H   0  0  0  0  0  0  0  0  0  0  0  0
   -3.7520   -0.3955    1.8314 C   0  0  0  0  0  0  0  0  0  0  0  0
   -1.8242   -1.3694    2.0227 H   0  0  0  0  0  0  0  0  0  0  0  0
   -4.8726   -0.6373   -0.3009 C   0  0  0  0  0  0  0  0  0  0  0  0
   -3.8277   -1.7671   -1.8202 H   0  0  0  0  0  0  0  0  0  0  0  0
    2.8565   -4.1280   -0.7905 H   0  0  0  0  0  0  0  0  0  0  0  0
    3.8229   -2.6148   -0.8008 H   0  0  0  0  0  0  0  0  0  0  0  0
    2.3259   -2.7114   -1.7740 H   0  0  0  0  0  0  0  0  0  0  0  0
    3.6813   -2.3727    1.7549 H   0  0  0  0  0  0  0  0  0  0  0  0
    2.7523   -3.8960    1.8882 H   0  0  0  0  0  0  0  0  0  0  0  0
    2.0815   -2.3543    2.5596 H   0  0  0  0  0  0  0  0  0  0  0  0
   -4.8557   -0.1237    1.0047 C   0  0  0  0  0  0  0  0  0  0  0  0
   -3.7153    0.0009    2.8575 H   0  0  0  0  0  0  0  0  0  0  0  0
   -5.7249   -0.4283   -0.9658 H   0  0  0  0  0  0  0  0  0  0  0  0
   -5.6965    0.4811    1.3761 H   0  0  0  0  0  0  0  0  0  0  0  0
  2  1  1  0  0  0  0
  2  5  1  0  0  0  0
  3  1  1  6  0  0  0
  3  7  1  0  0  0  0
  3  6  1  0  0  0  0
  4  2  1  0  0  0  0
  5 11  1  0  0  0  0
  6 14  1  0  0  0  0
  6 15  1  0  0  0  0
  7 17  1  0  0  0  0
  8  4  1  0  0  0  0
  9  4  1  0  0  0  0
 10  4  1  0  0  0  0
 11 19  2  0  0  0  0
 11 20  1  0  0  0  0
 12 21  1  0  0  0  0
 12  5  2  0  0  0  0
 13  6  1  0  0  0  0
 16 24  1  0  0  0  0
 16 23  1  0  0  0  0
 16  7  1  0  0  0  0
 17 26  1  0  0  0  0
 17 27  1  0  0  0  0
 17 28  1  0  0  0  0
 18  7  1  0  0  0  0
 19 30  1  0  0  0  0
 21 29  2  0  0  0  0
 22 12  1  0  0  0  0
 25 16  1  0  0  0  0
 29 32  1  0  0  0  0
 29 19  1  0  0  0  0
 31 21  1  0  0  0  0
M  END
