3
 OpenBabel05122313063D

 41 45  0  0  0  0  0  0  0  0999 V2000
    2.2405    0.2191   -1.5654 O   0  0  0  0  0  0  0  0  0  0  0  0
    5.4520   -1.8434    1.1529 O   0  0  0  0  0  0  0  0  0  0  0  0
   -1.2280    1.0410    0.1131 N   0  0  0  0  0  2  0  0  0  0  0  0
    0.9035    1.6970    0.2348 N   0  0  0  0  0  0  0  0  0  0  0  0
    4.1984    0.0972   -0.3671 N   0  0  0  0  0  0  0  0  0  0  0  0
   -0.0304    0.7670    0.6110 C   0  0  0  0  0  3  0  0  0  0  0  0
    0.1634   -0.0784    1.2842 H   0  0  0  0  0  0  0  0  0  0  0  0
   -1.0992    2.2102   -0.6334 C   0  0  0  0  0  0  0  0  0  0  0  0
    0.2631    2.6188   -0.5904 C   0  0  0  0  0  0  0  0  0  0  0  0
    0.7214    3.7529   -1.2777 C   0  0  0  0  0  0  0  0  0  0  0  0
    1.7781    4.0571   -1.2633 H   0  0  0  0  0  0  0  0  0  0  0  0
   -0.2337    4.4834   -1.9962 C   0  0  0  0  0  0  0  0  0  0  0  0
    0.0827    5.3800   -2.5498 H   0  0  0  0  0  0  0  0  0  0  0  0
   -1.5976    4.1004   -2.0179 C   0  0  0  0  0  0  0  0  0  0  0  0
   -2.3169    4.7189   -2.5750 H   0  0  0  0  0  0  0  0  0  0  0  0
   -2.0524    2.9646   -1.3392 C   0  0  0  0  0  0  0  0  0  0  0  0
   -3.1112    2.6758   -1.2981 H   0  0  0  0  0  0  0  0  0  0  0  0
    2.3241    1.5657    0.4344 C   0  0  0  0  0  0  0  0  0  0  0  0
    2.5326    1.2071    1.4629 H   0  0  0  0  0  0  0  0  0  0  0  0
    2.7822    2.5692    0.3575 H   0  0  0  0  0  0  0  0  0  0  0  0
    2.9137    0.5867   -0.6121 C   0  0  0  0  0  0  0  0  0  0  0  0
    5.0101    0.4968    0.7377 C   0  0  0  0  0  0  0  0  0  0  0  0
    5.2885    1.8364    1.0586 C   0  0  0  0  0  0  0  0  0  0  0  0
    4.9272    2.6364    0.3977 H   0  0  0  0  0  0  0  0  0  0  0  0
    6.0254    2.1488    2.2106 C   0  0  0  0  0  0  0  0  0  0  0  0
    6.2182    3.2011    2.4639 H   0  0  0  0  0  0  0  0  0  0  0  0
    6.5237    1.1200    3.0264 C   0  0  0  0  0  0  0  0  0  0  0  0
    7.0978    1.3621    3.9327 H   0  0  0  0  0  0  0  0  0  0  0  0
    6.3239   -0.2217    2.6721 C   0  0  0  0  0  0  0  0  0  0  0  0
    6.7404   -1.0487    3.2643 H   0  0  0  0  0  0  0  0  0  0  0  0
    5.5838   -0.5289    1.5229 C   0  0  0  0  0  0  0  0  0  0  0  0
    4.6340   -1.1061   -1.0146 C   0  0  0  0  0  0  0  0  0  0  0  0
    4.4577   -1.3714   -2.3823 C   0  0  0  0  0  0  0  0  0  0  0  0
    3.9866   -0.6140   -3.0185 H   0  0  0  0  0  0  0  0  0  0  0  0
    4.8464   -2.6145   -2.9049 C   0  0  0  0  0  0  0  0  0  0  0  0
    4.6922   -2.8214   -3.9738 H   0  0  0  0  0  0  0  0  0  0  0  0
    5.4186   -3.5894   -2.0729 C   0  0  0  0  0  0  0  0  0  0  0  0
    5.7176   -4.5643   -2.4852 H   0  0  0  0  0  0  0  0  0  0  0  0
    5.6236   -3.3223   -0.7117 C   0  0  0  0  0  0  0  0  0  0  0  0
    6.0846   -4.0555   -0.0350 H   0  0  0  0  0  0  0  0  0  0  0  0
    5.2314   -2.0844   -0.1901 C   0  0  0  0  0  0  0  0  0  0  0  0
  1 21  2  0  0  0  0
  2 31  1  0  0  0  0
  3  6  1  0  0  0  0
  4 18  1  0  0  0  0
  4  6  1  0  0  0  0
  5 22  1  0  0  0  0
  6  7  1  0  0  0  0
  8  9  1  0  0  0  0
  8  3  1  0  0  0  0
  9  4  1  0  0  0  0
 10 11  1  0  0  0  0
 10  9  2  0  0  0  0
 12 10  1  0  0  0  0
 13 12  1  0  0  0  0
 14 12  2  0  0  0  0
 14 16  1  0  0  0  0
 15 14  1  0  0  0  0
 16 17  1  0  0  0  0
 16  8  2  0  0  0  0
 18 19  1  0  0  0  0
 20 18  1  0  0  0  0
 21  5  1  0  0  0  0
 21 18  1  0  0  0  0
 22 23  2  0  0  0  0
 22 31  1  0  0  0  0
 23 25  1  0  0  0  0
 24 23  1  0  0  0  0
 25 26  1  0  0  0  0
 25 27  2  0  0  0  0
 27 28  1  0  0  0  0
 29 27  1  0  0  0  0
 29 30  1  0  0  0  0
 31 29  2  0  0  0  0
 32  5  1  0  0  0  0
 32 41  1  0  0  0  0
 33 32  2  0  0  0  0
 34 33  1  0  0  0  0
 35 33  1  0  0  0  0
 35 37  2  0  0  0  0
 36 35  1  0  0  0  0
 37 39  1  0  0  0  0
 38 37  1  0  0  0  0
 39 41  2  0  0  0  0
 39 40  1  0  0  0  0
 41  2  1  0  0  0  0
M  END
