1
 OpenBabel05122313063D

 13 12  0  0  0  0  0  0  0  0999 V2000
   -1.3178   -1.0950   -0.0006 N   0  0  0  0  0  0  0  0  0  0  0  0
   -4.8260    0.2981    0.0001 N   0  3  0  0  0  0  0  0  0  0  0  0
   -2.4554   -0.1971    0.0002 C   0  0  0  0  0  0  0  0  0  0  0  0
   -3.8276   -0.8470   -0.0004 C   0  0  0  0  0  0  0  0  0  0  0  0
   -1.1771   -1.6770    0.8494 H   0  0  0  0  0  0  0  0  0  0  0  0
   -5.8157   -0.0046   -0.0002 H   0  0  0  0  0  0  0  0  0  0  0  0
   -4.6669    0.9033    0.8294 H   0  0  0  0  0  0  0  0  0  0  0  0
   -2.3176    0.4689    0.8906 H   0  0  0  0  0  0  0  0  0  0  0  0
   -4.0376   -1.4565    0.9019 H   0  0  0  0  0  0  0  0  0  0  0  0
   -1.1773   -1.6756   -0.8517 H   0  0  0  0  0  0  0  0  0  0  0  0
   -2.3177    0.4705   -0.8889 H   0  0  0  0  0  0  0  0  0  0  0  0
   -4.0373   -1.4554   -0.9035 H   0  0  0  0  0  0  0  0  0  0  0  0
   -4.6666    0.9042   -0.8284 H   0  0  0  0  0  0  0  0  0  0  0  0
  1  3  1  0  0  0  0
  1  5  1  0  0  0  0
  2  7  1  0  0  0  0
  3  8  1  0  0  0  0
  4  2  1  0  0  0  0
  4  3  1  0  0  0  0
  4  9  1  0  0  0  0
  6  2  1  0  0  0  0
 10  1  1  0  0  0  0
 11  3  1  0  0  0  0
 12  4  1  0  0  0  0
 13  2  1  0  0  0  0
M  CHG  1   2   1
M  END
