13
 OpenBabel05122313063D

 13 13  0  0  0  0  0  0  0  0999 V2000
   -1.4561    0.6542   -1.1444 C   0  0  0  0  0  0  0  0  0  0  0  0
   -2.6588   -1.2810    0.0013 C   0  0  0  0  0  0  0  0  0  0  0  0
   -0.8596    1.8620   -0.7192 C   0  0  0  0  0  0  0  0  0  0  0  0
   -0.8592    1.8626    0.7186 C   0  0  0  0  0  0  0  0  0  0  0  0
   -1.4552    0.6548    1.1447 C   0  0  0  0  0  0  0  0  0  0  0  0
   -1.7069    0.2932   -2.1469 H   0  0  0  0  0  0  0  0  0  0  0  0
   -2.4132   -1.8788   -0.8952 H   0  0  0  0  0  0  0  0  0  0  0  0
   -2.4099   -1.8800    0.8961 H   0  0  0  0  0  0  0  0  0  0  0  0
   -3.7427   -1.0376    0.0034 H   0  0  0  0  0  0  0  0  0  0  0  0
   -0.4615    2.6412   -1.3767 H   0  0  0  0  0  0  0  0  0  0  0  0
   -0.4609    2.6422    1.3754 H   0  0  0  0  0  0  0  0  0  0  0  0
   -1.7053    0.2943    2.1476 H   0  0  0  0  0  0  0  0  0  0  0  0
   -1.8556   -0.0679    0.0006 N   0  0  0  0  0  0  0  0  0  0  0  0
  1  3  2  0  0  0  0
  1 13  1  0  0  0  0
  2  9  1  0  0  0  0
  2  8  1  0  0  0  0
  3  4  1  0  0  0  0
  4  5  2  0  0  0  0
  4 11  1  0  0  0  0
  5 12  1  0  0  0  0
  6  1  1  0  0  0  0
  7  2  1  0  0  0  0
 10  3  1  0  0  0  0
 13  2  1  0  0  0  0
 13  5  1  0  0  0  0
M  END
