2
 OpenBabel05122313063D

 42 46  0  0  0  0  0  0  0  0999 V2000
    1.8154   -1.7760   -3.0058 O   0  0  0  0  0  0  0  0  0  0  0  0
   -2.2036   -0.3510   -0.3540 N   0  0  0  0  0  2  0  0  0  0  0  0
    2.3482   -2.5892   -0.9309 N   0  0  0  0  0  0  0  0  0  0  0  0
    2.0500   -2.6954    0.0391 H   0  0  0  0  0  0  0  0  0  0  0  0
   -1.1958   -0.5775    0.5194 C   0  0  0  0  0  3  0  0  0  0  0  0
   -1.3989   -0.3325    1.5721 H   0  0  0  0  0  0  0  0  0  0  0  0
    0.0319   -1.1026    0.1110 C   0  0  0  0  0  0  0  0  0  0  0  0
    0.8193   -1.2336    0.8681 H   0  0  0  0  0  0  0  0  0  0  0  0
    0.2418   -1.4067   -1.2468 C   0  0  0  0  0  0  0  0  0  0  0  0
   -0.8075   -1.1405   -2.1443 C   0  0  0  0  0  0  0  0  0  0  0  0
   -0.6601   -1.3346   -3.2159 H   0  0  0  0  0  0  0  0  0  0  0  0
   -2.0121   -0.6257   -1.6672 C   0  0  0  0  0  0  0  0  0  0  0  0
   -2.8551   -0.4029   -2.3374 H   0  0  0  0  0  0  0  0  0  0  0  0
    1.5354   -1.9370   -1.8142 C   0  0  0  0  0  0  0  0  0  0  0  0
    3.6806   -3.0666   -1.2836 C   0  0  0  0  0  0  0  0  0  0  0  0
    3.8009   -2.8456   -2.3626 H   0  0  0  0  0  0  0  0  0  0  0  0
    3.7240   -4.1700   -1.1653 H   0  0  0  0  0  0  0  0  0  0  0  0
    4.7597   -2.4273   -0.4350 C   0  0  0  0  0  0  0  0  0  0  0  0
    5.3915   -3.1904    0.5630 C   0  0  0  0  0  0  0  0  0  0  0  0
    5.1175   -4.2521    0.6730 H   0  0  0  0  0  0  0  0  0  0  0  0
    6.3559   -2.6376    1.4123 C   0  0  0  0  0  0  0  0  0  0  0  0
    6.8367   -3.2589    2.1834 H   0  0  0  0  0  0  0  0  0  0  0  0
    6.7203   -1.2796    1.2958 C   0  0  0  0  0  0  0  0  0  0  0  0
    7.6985   -0.6737    2.1601 C   0  0  0  0  0  0  0  0  0  0  0  0
    8.1703   -1.2999    2.9331 H   0  0  0  0  0  0  0  0  0  0  0  0
    8.0407    0.6497    2.0318 C   0  0  0  0  0  0  0  0  0  0  0  0
    8.7904    1.0997    2.7010 H   0  0  0  0  0  0  0  0  0  0  0  0
    7.4350    1.4812    1.0257 C   0  0  0  0  0  0  0  0  0  0  0  0
    7.7714    2.8451    0.8752 C   0  0  0  0  0  0  0  0  0  0  0  0
    8.5207    3.2863    1.5506 H   0  0  0  0  0  0  0  0  0  0  0  0
    7.1660    3.6298   -0.1159 C   0  0  0  0  0  0  0  0  0  0  0  0
    7.4423    4.6901   -0.2175 H   0  0  0  0  0  0  0  0  0  0  0  0
    6.2128    3.0733   -0.9783 C   0  0  0  0  0  0  0  0  0  0  0  0
    5.7404    3.6914   -1.7574 H   0  0  0  0  0  0  0  0  0  0  0  0
    5.8426    1.7137   -0.8659 C   0  0  0  0  0  0  0  0  0  0  0  0
    4.8747    1.1057   -1.7362 C   0  0  0  0  0  0  0  0  0  0  0  0
    4.4145    1.7249   -2.5220 H   0  0  0  0  0  0  0  0  0  0  0  0
    4.5218   -0.2171   -1.6119 C   0  0  0  0  0  0  0  0  0  0  0  0
    3.7828   -0.6389   -2.3088 H   0  0  0  0  0  0  0  0  0  0  0  0
    5.1103   -1.0553   -0.5972 C   0  0  0  0  0  0  0  0  0  0  0  0
    6.0938   -0.4773    0.2799 C   0  0  0  0  0  0  0  0  0  0  0  0
    6.4561    0.9016    0.1470 C   0  0  0  0  0  0  0  0  0  0  0  0
  1 14  2  0  0  0  0
  2  5  1  0  0  0  0
  3  4  1  0  0  0  0
  5  6  1  0  0  0  0
  7  5  1  0  0  0  0
  7  8  1  0  0  0  0
  9  7  2  0  0  0  0
 10 12  2  0  0  0  0
 10  9  1  0  0  0  0
 11 10  1  0  0  0  0
 12  2  1  0  0  0  0
 13 12  1  0  0  0  0
 14  9  1  0  0  0  0
 14  3  1  0  0  0  0
 15 17  1  0  0  0  0
 15  3  1  0  0  0  0
 15 18  1  0  0  0  0
 16 15  1  0  0  0  0
 18 19  1  0  0  0  0
 19 20  1  0  0  0  0
 19 21  2  0  0  0  0
 21 22  1  0  0  0  0
 23 21  1  0  0  0  0
 23 24  1  0  0  0  0
 24 25  1  0  0  0  0
 26 24  2  0  0  0  0
 26 27  1  0  0  0  0
 28 26  1  0  0  0  0
 29 28  1  0  0  0  0
 29 30  1  0  0  0  0
 31 29  2  0  0  0  0
 32 31  1  0  0  0  0
 33 35  2  0  0  0  0
 33 31  1  0  0  0  0
 34 33  1  0  0  0  0
 35 42  1  0  0  0  0
 36 38  2  0  0  0  0
 36 35  1  0  0  0  0
 37 36  1  0  0  0  0
 38 40  1  0  0  0  0
 39 38  1  0  0  0  0
 40 18  2  0  0  0  0
 40 41  1  0  0  0  0
 41 23  2  0  0  0  0
 42 41  1  0  0  0  0
 42 28  2  0  0  0  0
M  END
