20
 OpenBabel05122313063D

 20 19  0  0  0  0  0  0  0  0999 V2000
   -3.2756   -0.3438   -0.0001 Si  0  0  0  0  0  0  0  0  0  0  0  0
   -3.2674   -1.8636    0.0014 H   0  0  0  0  0  0  0  0  0  0  0  0
   -0.8216    1.7480   -0.0006 Si  0  0  0  0  0  3  0  0  0  0  0  0
   -4.2399    0.2343    1.5313 C   0  0  0  0  0  0  0  0  0  0  0  0
   -3.7602   -0.1017    2.4733 H   0  0  0  0  0  0  0  0  0  0  0  0
   -5.2814   -0.1493    1.5236 H   0  0  0  0  0  0  0  0  0  0  0  0
   -4.2832    1.3433    1.5581 H   0  0  0  0  0  0  0  0  0  0  0  0
   -4.2397    0.2316   -1.5326 C   0  0  0  0  0  0  0  0  0  0  0  0
   -4.2811    1.3405   -1.5624 H   0  0  0  0  0  0  0  0  0  0  0  0
   -5.2818   -0.1503   -1.5233 H   0  0  0  0  0  0  0  0  0  0  0  0
   -3.7611   -0.1079   -2.4739 H   0  0  0  0  0  0  0  0  0  0  0  0
   -1.2104    2.8403   -1.5234 C   0  0  0  0  0  0  0  0  0  0  0  0
   -1.0863    2.2756   -2.4687 H   0  0  0  0  0  0  0  0  0  0  0  0
   -0.5641    3.7425   -1.5705 H   0  0  0  0  0  0  0  0  0  0  0  0
   -2.2627    3.1956   -1.4785 H   0  0  0  0  0  0  0  0  0  0  0  0
   -1.2114    2.8411    1.5213 C   0  0  0  0  0  0  0  0  0  0  0  0
   -2.2636    3.1965    1.4754 H   0  0  0  0  0  0  0  0  0  0  0  0
   -0.5650    3.7434    1.5683 H   0  0  0  0  0  0  0  0  0  0  0  0
   -1.0881    2.2771    2.4671 H   0  0  0  0  0  0  0  0  0  0  0  0
   -1.6470    0.2262   -0.0005 N   0  0  0  0  0  2  0  0  0  0  0  0
  1  2  1  0  0  0  0
  1  4  1  0  0  0  0
  3 20  1  0  0  0  0
  3 16  1  0  0  0  0
  4  7  1  0  0  0  0
  4  5  1  0  0  0  0
  6  4  1  0  0  0  0
  8 10  1  0  0  0  0
  8  1  1  0  0  0  0
  9  8  1  0  0  0  0
 11  8  1  0  0  0  0
 12 15  1  0  0  0  0
 12  3  1  0  0  0  0
 13 12  1  0  0  0  0
 14 12  1  0  0  0  0
 16 18  1  0  0  0  0
 16 19  1  0  0  0  0
 17 16  1  0  0  0  0
 20  1  1  0  0  0  0
M  END
