1
 OpenBabel05122313063D

 21 23  0  0  0  0  0  0  0  0999 V2000
    1.5549    0.5917   -0.6583 N   0  0  0  0  0  2  0  0  0  0  0  0
    2.6046    0.4776    0.1788 N   0  0  0  0  0  0  0  0  0  0  0  0
    1.8195   -0.1236   -1.7573 C   0  0  0  0  0  0  0  0  0  0  0  0
    1.0889   -0.1470   -2.5742 H   0  0  0  0  0  0  0  0  0  0  0  0
    3.0994   -0.7327   -1.6302 C   0  0  0  0  0  0  0  0  0  0  0  0
    3.9077   -1.5857   -2.4434 C   0  0  0  0  0  3  0  0  0  0  0  0
    3.5488   -1.9182   -3.4282 H   0  0  0  0  0  0  0  0  0  0  0  0
    5.1402   -1.9777   -1.9663 C   0  0  0  0  0  0  0  0  0  0  0  0
    5.7817   -2.6343   -2.5735 H   0  0  0  0  0  0  0  0  0  0  0  0
    5.6403   -1.5559   -0.6802 C   0  0  0  0  0  0  0  0  0  0  0  0
    6.9159   -1.9697   -0.2086 C   0  0  0  0  0  0  0  0  0  0  0  0
    7.5265   -2.6272   -0.8468 H   0  0  0  0  0  0  0  0  0  0  0  0
    7.3933   -1.5576    1.0316 C   0  0  0  0  0  0  0  0  0  0  0  0
    8.3842   -1.8898    1.3761 H   0  0  0  0  0  0  0  0  0  0  0  0
    2.5301    1.0482    1.0476 H   0  0  0  0  0  0  0  0  0  0  0  0
    6.6113   -0.7112    1.8539 C   0  0  0  0  0  0  0  0  0  0  0  0
    6.9959   -0.3882    2.8326 H   0  0  0  0  0  0  0  0  0  0  0  0
    5.3571   -0.2857    1.4265 C   0  0  0  0  0  0  0  0  0  0  0  0
    4.7524    0.3736    2.0680 H   0  0  0  0  0  0  0  0  0  0  0  0
    4.8536   -0.6956    0.1662 C   0  0  0  0  0  0  0  0  0  0  0  0
    3.5773   -0.3088   -0.3560 C   0  0  0  0  0  0  0  0  0  0  0  0
  1  2  1  0  0  0  0
  2 15  1  0  0  0  0
  3  5  2  0  0  0  0
  3  1  1  0  0  0  0
  4  3  1  0  0  0  0
  5 21  1  0  0  0  0
  6  8  1  0  0  0  0
  6  5  1  0  0  0  0
  7  6  1  0  0  0  0
  8 10  2  0  0  0  0
  9  8  1  0  0  0  0
 10 11  1  0  0  0  0
 10 20  1  0  0  0  0
 11 13  2  0  0  0  0
 12 11  1  0  0  0  0
 13 14  1  0  0  0  0
 13 16  1  0  0  0  0
 16 17  1  0  0  0  0
 18 16  2  0  0  0  0
 18 19  1  0  0  0  0
 20 18  1  0  0  0  0
 21 20  2  0  0  0  0
 21  2  1  0  0  0  0
M  END
