1
 OpenBabel05122313063D

 39 41  0  0  1  0  0  0  0  0999 V2000
    1.7153   -1.4126   -0.1511 N   0  0  0  0  0  2  0  0  0  0  0  0
   -1.5130    0.0747    0.3219 P   0  0  0  0  0  4  0  0  0  0  0  0
   -0.1179   -3.2862   -0.3539 S   0  0  0  0  0  0  0  0  0  0  0  0
   -0.3810   -0.5191   -1.0039 C   0  0  0  0  0  0  0  0  0  0  0  0
   -1.0083   -0.8241   -1.8640 H   0  0  0  0  0  0  0  0  0  0  0  0
    0.2800    0.3449   -1.3144 H   0  0  0  0  0  0  0  0  0  0  0  0
    0.5053   -1.6250   -0.5303 C   0  0  1  0  0  3  0  0  0  0  0  0
    2.3657   -2.5742    0.4390 C   0  0  0  0  0  0  0  0  0  0  0  0
    2.3640   -2.4092    1.5405 H   0  0  0  0  0  0  0  0  0  0  0  0
    3.4314   -2.5716    0.1217 H   0  0  0  0  0  0  0  0  0  0  0  0
    1.6003   -3.8492    0.0351 C   0  0  0  0  0  0  0  0  0  0  0  0
    1.5635   -4.6065    0.8400 H   0  0  0  0  0  0  0  0  0  0  0  0
    2.0133   -4.3171   -0.8809 H   0  0  0  0  0  0  0  0  0  0  0  0
   -0.8251   -0.3568    1.9295 C   0  0  0  0  0  0  0  0  0  0  0  0
    0.2092    0.0849    1.9941 H   0  0  0  0  0  0  0  0  0  0  0  0
   -0.7667   -1.4595    2.0126 H   0  0  0  0  0  0  0  0  0  0  0  0
   -1.4602    0.0738    2.7263 H   0  0  0  0  0  0  0  0  0  0  0  0
   -1.6956    1.8663    0.1800 C   0  0  0  0  0  0  0  0  0  0  0  0
   -0.5341    2.6511    0.3592 C   0  0  0  0  0  0  0  0  0  0  0  0
    0.4440    2.1983    0.5982 H   0  0  0  0  0  0  0  0  0  0  0  0
   -0.6378    4.0439    0.2407 C   0  0  0  0  0  0  0  0  0  0  0  0
    0.2687    4.6538    0.3658 H   0  0  0  0  0  0  0  0  0  0  0  0
   -1.8730    4.6456   -0.0440 C   0  0  0  0  0  0  0  0  0  0  0  0
   -1.9413    5.7401   -0.1380 H   0  0  0  0  0  0  0  0  0  0  0  0
   -3.0254    3.8583   -0.2088 C   0  0  0  0  0  0  0  0  0  0  0  0
   -3.9947    4.3315   -0.4251 H   0  0  0  0  0  0  0  0  0  0  0  0
   -2.9434    2.4638   -0.0996 C   0  0  0  0  0  0  0  0  0  0  0  0
   -3.8453    1.8473   -0.2264 H   0  0  0  0  0  0  0  0  0  0  0  0
   -3.1228   -0.7317    0.0825 C   0  0  0  0  0  0  0  0  0  0  0  0
   -3.7368   -0.6839   -1.1888 C   0  0  0  0  0  0  0  0  0  0  0  0
   -3.2506   -0.1585   -2.0258 H   0  0  0  0  0  0  0  0  0  0  0  0
   -4.9783   -1.3012   -1.3891 C   0  0  0  0  0  0  0  0  0  0  0  0
   -5.4530   -1.2615   -2.3807 H   0  0  0  0  0  0  0  0  0  0  0  0
   -5.6112   -1.9700   -0.3281 C   0  0  0  0  0  0  0  0  0  0  0  0
   -6.5843   -2.4577   -0.4893 H   0  0  0  0  0  0  0  0  0  0  0  0
   -5.0032   -2.0192    0.9353 C   0  0  0  0  0  0  0  0  0  0  0  0
   -5.4960   -2.5451    1.7664 H   0  0  0  0  0  0  0  0  0  0  0  0
   -3.7615   -1.4011    1.1452 C   0  0  0  0  0  0  0  0  0  0  0  0
   -3.2912   -1.4479    2.1379 H   0  0  0  0  0  0  0  0  0  0  0  0
  1  8  1  0  0  0  0
  2 14  1  0  0  0  0
  3 11  1  0  0  0  0
  4  2  1  0  0  0  0
  5  4  1  0  0  0  0
  6  4  1  0  0  0  0
  7  4  1  1  0  0  0
  7  3  1  0  0  0  0
  7  1  1  0  0  0  0
  8  9  1  0  0  0  0
 10  8  1  0  0  0  0
 11  8  1  0  0  0  0
 11 12  1  0  0  0  0
 13 11  1  0  0  0  0
 14 15  1  0  0  0  0
 14 16  1  0  0  0  0
 14 17  1  0  0  0  0
 18  2  1  0  0  0  0
 18 19  1  0  0  0  0
 19 20  1  0  0  0  0
 21 19  2  0  0  0  0
 21 22  1  0  0  0  0
 23 21  1  0  0  0  0
 24 23  1  0  0  0  0
 25 27  1  0  0  0  0
 25 23  2  0  0  0  0
 26 25  1  0  0  0  0
 27 18  2  0  0  0  0
 28 27  1  0  0  0  0
 29  2  1  0  0  0  0
 29 38  1  0  0  0  0
 30 29  2  0  0  0  0
 31 30  1  0  0  0  0
 32 30  1  0  0  0  0
 32 34  2  0  0  0  0
 33 32  1  0  0  0  0
 34 36  1  0  0  0  0
 35 34  1  0  0  0  0
 36 38  2  0  0  0  0
 36 37  1  0  0  0  0
 38 39  1  0  0  0  0
M  END
