2
 OpenBabel05122313063D

 39 41  0  0  1  0  0  0  0  0999 V2000
   -1.9626    0.4896    0.8734 P   0  0  0  0  0  4  0  0  0  0  0  0
    1.7634    0.3451    1.0427 N   0  0  0  0  0  2  0  0  0  0  0  0
    0.5954    1.5242    2.5764 O   0  0  0  0  0  0  0  0  0  0  0  0
   -0.5165   -0.3991    1.5579 C   0  0  0  0  0  0  0  0  0  0  0  0
   -0.8364   -0.8314    2.5286 H   0  0  0  0  0  0  0  0  0  0  0  0
   -0.2344   -1.2289    0.8504 H   0  0  0  0  0  0  0  0  0  0  0  0
    0.6771    0.4822    1.7059 C   0  0  1  0  0  3  0  0  0  0  0  0
    2.6932    1.3975    1.4555 C   0  0  0  0  0  0  0  0  0  0  0  0
    3.0031    1.9527    0.5457 H   0  0  0  0  0  0  0  0  0  0  0  0
    3.5962    0.9009    1.8689 H   0  0  0  0  0  0  0  0  0  0  0  0
    1.8808    2.2283    2.4787 C   0  0  0  0  0  0  0  0  0  0  0  0
    2.3239    2.2546    3.4933 H   0  0  0  0  0  0  0  0  0  0  0  0
    1.6670    3.2638    2.1468 H   0  0  0  0  0  0  0  0  0  0  0  0
   -2.6658    1.5071    2.2031 C   0  0  0  0  0  0  0  0  0  0  0  0
   -3.5242    2.1058    1.8466 H   0  0  0  0  0  0  0  0  0  0  0  0
   -1.8576    2.1704    2.5666 H   0  0  0  0  0  0  0  0  0  0  0  0
   -2.9945    0.8433    3.0253 H   0  0  0  0  0  0  0  0  0  0  0  0
   -1.4341    1.5518   -0.4853 C   0  0  0  0  0  0  0  0  0  0  0  0
   -2.0396    2.8161   -0.6729 C   0  0  0  0  0  0  0  0  0  0  0  0
   -2.8206    3.1820    0.0097 H   0  0  0  0  0  0  0  0  0  0  0  0
   -1.6312    3.6197   -1.7437 C   0  0  0  0  0  0  0  0  0  0  0  0
   -2.0973    4.6053   -1.8921 H   0  0  0  0  0  0  0  0  0  0  0  0
   -0.6235    3.1718   -2.6166 C   0  0  0  0  0  0  0  0  0  0  0  0
   -0.2978    3.8138   -3.4492 H   0  0  0  0  0  0  0  0  0  0  0  0
   -0.0228    1.9194   -2.4252 C   0  0  0  0  0  0  0  0  0  0  0  0
    0.8059    1.5634   -3.0559 H   0  0  0  0  0  0  0  0  0  0  0  0
   -0.4307    1.0947   -1.3659 C   0  0  0  0  0  0  0  0  0  0  0  0
    0.0593    0.1127   -1.2422 H   0  0  0  0  0  0  0  0  0  0  0  0
   -3.1811   -0.7383    0.3388 C   0  0  0  0  0  0  0  0  0  0  0  0
   -4.5308   -0.6441    0.7390 C   0  0  0  0  0  0  0  0  0  0  0  0
   -4.8693    0.1550    1.4147 H   0  0  0  0  0  0  0  0  0  0  0  0
   -5.4576   -1.5855    0.2696 C   0  0  0  0  0  0  0  0  0  0  0  0
   -6.5100   -1.5158    0.5821 H   0  0  0  0  0  0  0  0  0  0  0  0
   -5.0416   -2.6123   -0.5930 C   0  0  0  0  0  0  0  0  0  0  0  0
   -5.7721   -3.3502   -0.9577 H   0  0  0  0  0  0  0  0  0  0  0  0
   -3.6972   -2.7012   -0.9886 C   0  0  0  0  0  0  0  0  0  0  0  0
   -3.3655   -3.5081   -1.6587 H   0  0  0  0  0  0  0  0  0  0  0  0
   -2.7579   -1.7666   -0.5319 C   0  0  0  0  0  0  0  0  0  0  0  0
   -1.6990   -1.8604   -0.8399 H   0  0  0  0  0  0  0  0  0  0  0  0
  1  4  1  0  0  0  0
  1 14  1  0  0  0  0
  2  8  1  0  0  0  0
  2  7  1  0  0  0  0
  4  5  1  0  0  0  0
  6  4  1  0  0  0  0
  7  4  1  6  0  0  0
  7  3  1  0  0  0  0
  8 10  1  0  0  0  0
  8 11  1  0  0  0  0
  9  8  1  0  0  0  0
 11  3  1  0  0  0  0
 11 12  1  0  0  0  0
 13 11  1  0  0  0  0
 14 16  1  0  0  0  0
 14 17  1  0  0  0  0
 15 14  1  0  0  0  0
 18  1  1  0  0  0  0
 19 18  1  0  0  0  0
 19 20  1  0  0  0  0
 21 19  2  0  0  0  0
 22 21  1  0  0  0  0
 23 25  2  0  0  0  0
 23 21  1  0  0  0  0
 24 23  1  0  0  0  0
 25 27  1  0  0  0  0
 26 25  1  0  0  0  0
 27 28  1  0  0  0  0
 27 18  2  0  0  0  0
 29 30  1  0  0  0  0
 29  1  1  0  0  0  0
 30 31  1  0  0  0  0
 32 33  1  0  0  0  0
 32 30  2  0  0  0  0
 34 32  1  0  0  0  0
 35 34  1  0  0  0  0
 36 34  2  0  0  0  0
 36 38  1  0  0  0  0
 37 36  1  0  0  0  0
 38 29  2  0  0  0  0
 39 38  1  0  0  0  0
M  END
