4
 OpenBabel05122313063D

 68 67  0  0  0  0  0  0  0  0999 V2000
    2.4072   -0.0277    0.2040 P   0  0  0  0  0  0  0  0  0  0  0  0
   -2.4073   -0.0276    0.2040 P   0  0  0  0  0  0  0  0  0  0  0  0
    0.0000    0.7512    1.9001 O   0  0  0  0  0  1  0  0  0  0  0  0
   -0.0000   -0.6502    1.8289 N   0  0  0  0  0  0  0  0  0  0  0  0
    2.4758   -0.4620    2.0255 C   0  0  0  0  0  0  0  0  0  0  0  0
    3.3913   -1.0357    2.2711 H   0  0  0  0  0  0  0  0  0  0  0  0
    2.5176    0.4957    2.5759 H   0  0  0  0  0  0  0  0  0  0  0  0
    1.2279   -1.2269    2.4524 C   0  0  0  0  0  0  0  0  0  0  0  0
    1.2677   -2.2937    2.1544 H   0  0  0  0  0  0  0  0  0  0  0  0
    1.1124   -1.1749    3.5588 H   0  0  0  0  0  0  0  0  0  0  0  0
   -1.2280   -1.2269    2.4524 C   0  0  0  0  0  0  0  0  0  0  0  0
   -1.1125   -1.1748    3.5588 H   0  0  0  0  0  0  0  0  0  0  0  0
   -1.2678   -2.2936    2.1545 H   0  0  0  0  0  0  0  0  0  0  0  0
   -2.4758   -0.4619    2.0255 C   0  0  0  0  0  0  0  0  0  0  0  0
   -2.5176    0.4958    2.5758 H   0  0  0  0  0  0  0  0  0  0  0  0
   -3.3914   -1.0356    2.2711 H   0  0  0  0  0  0  0  0  0  0  0  0
    3.4461   -1.3667   -0.6827 C   0  0  0  0  0  0  0  0  0  0  0  0
    2.9656   -2.7356   -0.1620 C   0  0  0  0  0  0  0  0  0  0  0  0
    3.2267   -2.8954    0.9036 H   0  0  0  0  0  0  0  0  0  0  0  0
    3.4741   -3.5325   -0.7449 H   0  0  0  0  0  0  0  0  0  0  0  0
    1.8735   -2.8626   -0.2994 H   0  0  0  0  0  0  0  0  0  0  0  0
    3.1593   -1.2847   -2.1937 C   0  0  0  0  0  0  0  0  0  0  0  0
    2.0793   -1.4113   -2.3994 H   0  0  0  0  0  0  0  0  0  0  0  0
    3.7119   -2.0986   -2.7097 H   0  0  0  0  0  0  0  0  0  0  0  0
    3.4829   -0.3237   -2.6338 H   0  0  0  0  0  0  0  0  0  0  0  0
    4.9534   -1.2351   -0.4148 C   0  0  0  0  0  0  0  0  0  0  0  0
    5.3850   -0.3233   -0.8693 H   0  0  0  0  0  0  0  0  0  0  0  0
    5.4745   -2.1057   -0.8673 H   0  0  0  0  0  0  0  0  0  0  0  0
    5.1941   -1.2359    0.6678 H   0  0  0  0  0  0  0  0  0  0  0  0
    3.2412    1.6915    0.1445 C   0  0  0  0  0  0  0  0  0  0  0  0
    2.1964    2.6904    0.6844 C   0  0  0  0  0  0  0  0  0  0  0  0
    1.3158    2.7387    0.0162 H   0  0  0  0  0  0  0  0  0  0  0  0
    2.6619    3.6983    0.7227 H   0  0  0  0  0  0  0  0  0  0  0  0
    1.8380    2.4288    1.6987 H   0  0  0  0  0  0  0  0  0  0  0  0
    3.5553    2.0479   -1.3189 C   0  0  0  0  0  0  0  0  0  0  0  0
    4.3745    1.4319   -1.7383 H   0  0  0  0  0  0  0  0  0  0  0  0
    3.8838    3.1081   -1.3652 H   0  0  0  0  0  0  0  0  0  0  0  0
    2.6536    1.9438   -1.9558 H   0  0  0  0  0  0  0  0  0  0  0  0
    4.5105    1.7807    1.0099 C   0  0  0  0  0  0  0  0  0  0  0  0
    4.3078    1.5684    2.0782 H   0  0  0  0  0  0  0  0  0  0  0  0
    4.8984    2.8204    0.9568 H   0  0  0  0  0  0  0  0  0  0  0  0
    5.3195    1.1100    0.6697 H   0  0  0  0  0  0  0  0  0  0  0  0
   -3.4461   -1.3668   -0.6827 C   0  0  0  0  0  0  0  0  0  0  0  0
   -2.9656   -2.7356   -0.1618 C   0  0  0  0  0  0  0  0  0  0  0  0
   -1.8735   -2.8626   -0.2992 H   0  0  0  0  0  0  0  0  0  0  0  0
   -3.4741   -3.5326   -0.7447 H   0  0  0  0  0  0  0  0  0  0  0  0
   -3.2267   -2.8953    0.9038 H   0  0  0  0  0  0  0  0  0  0  0  0
   -4.9534   -1.2352   -0.4148 C   0  0  0  0  0  0  0  0  0  0  0  0
   -5.1942   -1.2359    0.6678 H   0  0  0  0  0  0  0  0  0  0  0  0
   -5.4744   -2.1058   -0.8673 H   0  0  0  0  0  0  0  0  0  0  0  0
   -5.3850   -0.3234   -0.8695 H   0  0  0  0  0  0  0  0  0  0  0  0
   -3.1592   -1.2849   -2.1937 C   0  0  0  0  0  0  0  0  0  0  0  0
   -3.4829   -0.3239   -2.6339 H   0  0  0  0  0  0  0  0  0  0  0  0
   -3.7118   -2.0988   -2.7096 H   0  0  0  0  0  0  0  0  0  0  0  0
   -2.0792   -1.4115   -2.3993 H   0  0  0  0  0  0  0  0  0  0  0  0
   -3.2412    1.6916    0.1444 C   0  0  0  0  0  0  0  0  0  0  0  0
   -2.1964    2.6904    0.6845 C   0  0  0  0  0  0  0  0  0  0  0  0
   -1.8381    2.4287    1.6988 H   0  0  0  0  0  0  0  0  0  0  0  0
   -2.6618    3.6983    0.7228 H   0  0  0  0  0  0  0  0  0  0  0  0
   -1.3157    2.7386    0.0164 H   0  0  0  0  0  0  0  0  0  0  0  0
   -4.5106    1.7809    1.0097 C   0  0  0  0  0  0  0  0  0  0  0  0
   -5.3196    1.1102    0.6694 H   0  0  0  0  0  0  0  0  0  0  0  0
   -4.8983    2.8206    0.9565 H   0  0  0  0  0  0  0  0  0  0  0  0
   -4.3079    1.5685    2.0780 H   0  0  0  0  0  0  0  0  0  0  0  0
   -3.5550    2.0481   -1.3190 C   0  0  0  0  0  0  0  0  0  0  0  0
   -2.6533    1.9439   -1.9558 H   0  0  0  0  0  0  0  0  0  0  0  0
   -3.8834    3.1083   -1.3653 H   0  0  0  0  0  0  0  0  0  0  0  0
   -4.3743    1.4322   -1.7385 H   0  0  0  0  0  0  0  0  0  0  0  0
  1  5  1  0  0  0  0
  2 14  1  0  0  0  0
  4  3  1  0  0  0  0
  4  8  1  0  0  0  0
  4 11  1  0  0  0  0
  5  6  1  0  0  0  0
  5  8  1  0  0  0  0
  5  7  1  0  0  0  0
  8 10  1  0  0  0  0
  9  8  1  0  0  0  0
 11 12  1  0  0  0  0
 13 11  1  0  0  0  0
 14 16  1  0  0  0  0
 14 11  1  0  0  0  0
 14 15  1  0  0  0  0
 17 26  1  0  0  0  0
 17 18  1  0  0  0  0
 17  1  1  0  0  0  0
 18 19  1  0  0  0  0
 20 18  1  0  0  0  0
 21 18  1  0  0  0  0
 22 17  1  0  0  0  0
 23 22  1  0  0  0  0
 24 22  1  0  0  0  0
 25 22  1  0  0  0  0
 26 29  1  0  0  0  0
 27 26  1  0  0  0  0
 28 26  1  0  0  0  0
 30  1  1  0  0  0  0
 30 31  1  0  0  0  0
 30 39  1  0  0  0  0
 31 33  1  0  0  0  0
 31 34  1  0  0  0  0
 32 31  1  0  0  0  0
 35 30  1  0  0  0  0
 36 35  1  0  0  0  0
 37 35  1  0  0  0  0
 38 35  1  0  0  0  0
 39 40  1  0  0  0  0
 41 39  1  0  0  0  0
 42 39  1  0  0  0  0
 43 48  1  0  0  0  0
 43 44  1  0  0  0  0
 43  2  1  0  0  0  0
 44 47  1  0  0  0  0
 45 44  1  0  0  0  0
 46 44  1  0  0  0  0
 48 49  1  0  0  0  0
 50 48  1  0  0  0  0
 51 48  1  0  0  0  0
 52 43  1  0  0  0  0
 53 52  1  0  0  0  0
 54 52  1  0  0  0  0
 55 52  1  0  0  0  0
 56  2  1  0  0  0  0
 56 57  1  0  0  0  0
 56 61  1  0  0  0  0
 57 59  1  0  0  0  0
 57 58  1  0  0  0  0
 60 57  1  0  0  0  0
 61 64  1  0  0  0  0
 62 61  1  0  0  0  0
 63 61  1  0  0  0  0
 65 56  1  0  0  0  0
 66 65  1  0  0  0  0
 67 65  1  0  0  0  0
 68 65  1  0  0  0  0
M  END
