1
 OpenBabel05122313063D

  8  8  0  0  0  0  0  0  0  0999 V2000
    2.0231    0.1009   -0.0631 N   0  0  0  0  0  2  0  0  0  0  0  0
    2.8163   -0.7217    0.6184 C   0  0  0  0  0  3  0  0  0  0  0  0
    2.4122   -1.5323    1.2412 H   0  0  0  0  0  0  0  0  0  0  0  0
    4.4871   -0.4083    0.3734 S   0  0  0  0  0  0  0  0  0  0  0  0
    4.0931    0.8974   -0.6988 C   0  0  0  0  0  0  0  0  0  0  0  0
    4.8750    1.4938   -1.1821 H   0  0  0  0  0  0  0  0  0  0  0  0
    2.7317    1.0260   -0.8124 C   0  0  0  0  0  0  0  0  0  0  0  0
    2.1648    1.7627   -1.3965 H   0  0  0  0  0  0  0  0  0  0  0  0
  1  2  1  0  0  0  0
  2  3  1  0  0  0  0
  4  2  1  0  0  0  0
  5  4  1  0  0  0  0
  6  5  1  0  0  0  0
  7  5  2  0  0  0  0
  7  1  1  0  0  0  0
  8  7  1  0  0  0  0
M  END
