3
 OpenBabel05122313063D

 13 13  0  0  0  0  0  0  0  0999 V2000
   -6.8901    0.7192    0.6275 O   0  0  0  0  0  0  0  0  0  0  0  0
   -6.8883   -0.7725   -0.9779 O   0  0  0  0  0  0  0  0  0  0  0  0
   -2.0836    0.1186   -0.3030 N   0  0  0  0  0  2  0  0  0  0  0  0
   -6.3332   -0.0091   -0.1912 N   0  0  0  0  0  0  0  0  0  0  0  0
   -2.7621   -0.7178   -1.1286 C   0  0  0  0  0  3  0  0  0  0  0  0
   -4.1558   -0.7842   -1.1286 C   0  0  0  0  0  0  0  0  0  0  0  0
   -4.8467    0.0376   -0.2328 C   0  0  0  0  0  0  0  0  0  0  0  0
   -4.1614    0.9026    0.6246 C   0  0  0  0  0  0  0  0  0  0  0  0
   -2.7675    0.9172    0.5535 C   0  0  0  0  0  0  0  0  0  0  0  0
   -2.1492   -1.3506   -1.7856 H   0  0  0  0  0  0  0  0  0  0  0  0
   -4.7028   -1.4621   -1.7961 H   0  0  0  0  0  0  0  0  0  0  0  0
   -4.7132    1.5493    1.3185 H   0  0  0  0  0  0  0  0  0  0  0  0
   -2.1584    1.5870    1.1763 H   0  0  0  0  0  0  0  0  0  0  0  0
  2  4  2  0  0  0  0
  3  9  1  0  0  0  0
  4  1  2  0  0  0  0
  5  3  1  0  0  0  0
  6  5  1  0  0  0  0
  6  7  2  0  0  0  0
  7  4  1  0  0  0  0
  7  8  1  0  0  0  0
  8 12  1  0  0  0  0
  9  8  2  0  0  0  0
  9 13  1  0  0  0  0
 10  5  1  0  0  0  0
 11  6  1  0  0  0  0
M  END
