4
 OpenBabel05122313063D

 44 46  0  0  1  0  0  0  0  0999 V2000
    1.5883    0.0196   -0.2715 B   0  0  0  0  0  0  0  0  0  0  0  0
    0.5604    0.3653   -0.8685 H   0  0  0  0  0  0  0  0  0  0  0  0
    1.2435    0.1561    1.2403 N   0  0  0  0  0  0  0  0  0  0  0  0
   -0.0617    0.2752    1.5953 N   0  0  0  0  0  2  0  0  0  0  0  0
   -0.1301    0.4318    2.9331 C   0  0  2  0  0  3  0  0  0  0  0  0
    1.1841    0.4177    3.4530 C   0  0  0  0  0  0  0  0  0  0  0  0
    1.4889    0.5248    4.4992 H   0  0  0  0  0  0  0  0  0  0  0  0
    2.0325    0.2405    2.3513 C   0  0  0  0  0  0  0  0  0  0  0  0
   -1.4523    0.5786    3.6145 C   0  0  0  0  0  0  0  0  0  0  0  0
   -1.4773    1.4657    4.2803 H   0  0  0  0  0  0  0  0  0  0  0  0
   -1.6963   -0.3050    4.2426 H   0  0  0  0  0  0  0  0  0  0  0  0
   -2.2436    0.6773    2.8393 H   0  0  0  0  0  0  0  0  0  0  0  0
    3.5198    0.1355    2.2971 C   0  0  0  0  0  0  0  0  0  0  0  0
    3.9361    0.1325    3.3218 H   0  0  0  0  0  0  0  0  0  0  0  0
    3.9686    0.9806    1.7367 H   0  0  0  0  0  0  0  0  0  0  0  0
    3.8088   -0.8049    1.7861 H   0  0  0  0  0  0  0  0  0  0  0  0
    2.7510    0.9793   -0.6275 N   0  0  0  0  0  0  0  0  0  0  0  0
    2.4991    2.3008   -0.4127 N   0  0  0  0  0  0  0  0  0  0  0  0
    3.6218    2.9678   -0.7265 C   0  0  0  0  0  0  0  0  0  0  0  0
    4.6224    2.0596   -1.1587 C   0  0  0  0  0  0  0  0  0  0  0  0
    5.6443    2.2812   -1.4871 H   0  0  0  0  0  0  0  0  0  0  0  0
    4.0334    0.7920   -1.0850 C   0  0  0  0  0  0  0  0  0  0  0  0
    4.6504   -0.5300   -1.4169 C   0  0  0  0  0  0  0  0  0  0  0  0
    4.6075   -1.2375   -0.5650 H   0  0  0  0  0  0  0  0  0  0  0  0
    5.7102   -0.3802   -1.6967 H   0  0  0  0  0  0  0  0  0  0  0  0
    4.1418   -1.0346   -2.2638 H   0  0  0  0  0  0  0  0  0  0  0  0
    3.6833    4.4606   -0.6107 C   0  0  0  0  0  0  0  0  0  0  0  0
    3.8518    4.9438   -1.5963 H   0  0  0  0  0  0  0  0  0  0  0  0
    4.5094    4.7874    0.0549 H   0  0  0  0  0  0  0  0  0  0  0  0
    2.7326    4.8473   -0.1955 H   0  0  0  0  0  0  0  0  0  0  0  0
    1.8876   -1.4413   -0.6503 N   0  0  0  0  0  0  0  0  0  0  0  0
    2.4757   -2.3129    0.2123 N   0  0  0  0  0  0  0  0  0  0  0  0
    2.6380   -3.4651   -0.4627 C   0  0  0  0  0  0  0  0  0  0  0  0
    2.1495   -3.3315   -1.7914 C   0  0  0  0  0  0  0  0  0  0  0  0
    2.1329   -4.0862   -2.5860 H   0  0  0  0  0  0  0  0  0  0  0  0
    1.6707   -2.0188   -1.8738 C   0  0  0  0  0  0  0  0  0  0  0  0
    1.0087   -1.2964   -3.0025 C   0  0  0  0  0  0  0  0  0  0  0  0
    0.9344   -1.9544   -3.8887 H   0  0  0  0  0  0  0  0  0  0  0  0
    1.5658   -0.3818   -3.2926 H   0  0  0  0  0  0  0  0  0  0  0  0
   -0.0122   -0.9653   -2.7123 H   0  0  0  0  0  0  0  0  0  0  0  0
    3.2457   -4.6617    0.2026 C   0  0  0  0  0  0  0  0  0  0  0  0
    4.1413   -5.0244   -0.3435 H   0  0  0  0  0  0  0  0  0  0  0  0
    2.5319   -5.5109    0.2550 H   0  0  0  0  0  0  0  0  0  0  0  0
    3.5493   -4.4023    1.2348 H   0  0  0  0  0  0  0  0  0  0  0  0
  1  3  1  0  0  0  0
  2  1  1  0  0  0  0
  3  4  1  0  0  0  0
  3  8  1  0  0  0  0
  4  5  1  0  0  0  0
  5  6  1  0  0  0  0
  5  9  1  1  0  0  0
  6  7  1  0  0  0  0
  8  6  2  0  0  0  0
  9 11  1  0  0  0  0
  9 10  1  0  0  0  0
 12  9  1  0  0  0  0
 13  8  1  0  0  0  0
 13 14  1  0  0  0  0
 15 13  1  0  0  0  0
 16 13  1  0  0  0  0
 17 18  1  0  0  0  0
 17  1  1  0  0  0  0
 19 27  1  0  0  0  0
 19 18  2  0  0  0  0
 20 22  2  0  0  0  0
 20 19  1  0  0  0  0
 21 20  1  0  0  0  0
 22 17  1  0  0  0  0
 23 22  1  0  0  0  0
 23 24  1  0  0  0  0
 25 23  1  0  0  0  0
 26 23  1  0  0  0  0
 27 30  1  0  0  0  0
 27 29  1  0  0  0  0
 28 27  1  0  0  0  0
 31  1  1  0  0  0  0
 31 32  1  0  0  0  0
 33 41  1  0  0  0  0
 33 32  2  0  0  0  0
 34 33  1  0  0  0  0
 35 34  1  0  0  0  0
 36 34  2  0  0  0  0
 36 31  1  0  0  0  0
 37 40  1  0  0  0  0
 37 36  1  0  0  0  0
 38 37  1  0  0  0  0
 39 37  1  0  0  0  0
 41 43  1  0  0  0  0
 41 44  1  0  0  0  0
 42 41  1  0  0  0  0
M  END
