1
 OpenBabel05122313063D

 10  9  0  0  0  0  0  0  0  0999 V2000
   -1.0776   -1.1095   -1.2480 N   0  0  0  0  0  2  0  0  0  0  0  0
   -2.1044   -2.5784    0.2241 N   0  0  0  0  0  4  0  0  0  0  0  0
   -1.9540   -2.0647   -1.0071 C   0  0  0  0  0  0  0  0  0  0  0  0
   -2.8367   -2.6124   -2.1008 C   0  0  0  0  0  0  0  0  0  0  0  0
   -2.6618   -2.0990   -3.0635 H   0  0  0  0  0  0  0  0  0  0  0  0
   -3.9046   -2.4898   -1.8285 H   0  0  0  0  0  0  0  0  0  0  0  0
   -2.6521   -3.6967   -2.2425 H   0  0  0  0  0  0  0  0  0  0  0  0
   -1.0886   -0.8067   -2.2271 H   0  0  0  0  0  0  0  0  0  0  0  0
   -2.7296   -3.3685    0.3677 H   0  0  0  0  0  0  0  0  0  0  0  0
   -1.4314   -2.3090    0.9687 H   0  0  0  0  0  0  0  0  0  0  0  0
  1  3  1  0  0  0  0
  2  9  1  0  0  0  0
  2 10  1  0  0  0  0
  3  2  2  0  0  0  0
  4  6  1  0  0  0  0
  4  3  1  0  0  0  0
  5  4  1  0  0  0  0
  7  4  1  0  0  0  0
  8  1  1  0  0  0  0
M  END
