2
 OpenBabel05122313063D

 33 33  0  0  0  0  0  0  0  0999 V2000
    2.5414   -0.3848   -1.7560 O   0  0  0  0  0  0  0  0  0  0  0  0
    1.2223    1.6110   -0.0806 N   0  0  0  0  0  2  0  0  0  0  0  0
    5.3596   -1.4410   -2.0604 C   0  0  0  0  0  0  0  0  0  0  0  0
    4.5534   -1.2260   -2.7865 H   0  0  0  0  0  0  0  0  0  0  0  0
    5.8683   -2.3777   -2.3653 H   0  0  0  0  0  0  0  0  0  0  0  0
    6.1018   -0.6184   -2.0984 H   0  0  0  0  0  0  0  0  0  0  0  0
    0.6523    2.8185    0.1302 C   0  0  0  0  0  3  0  0  0  0  0  0
   -0.4223    2.8029    0.3591 H   0  0  0  0  0  0  0  0  0  0  0  0
    3.0863    0.1609   -0.7908 C   0  0  0  0  0  0  0  0  0  0  0  0
    4.1927   -0.3260   -0.1550 N   0  0  0  0  0  0  0  0  0  0  0  0
    1.3800    4.0082    0.0413 C   0  0  0  0  0  0  0  0  0  0  0  0
    0.8740    4.9668    0.2210 H   0  0  0  0  0  0  0  0  0  0  0  0
    3.3202    2.6877   -0.5058 C   0  0  0  0  0  0  0  0  0  0  0  0
    4.3795    2.5927   -0.7817 H   0  0  0  0  0  0  0  0  0  0  0  0
    4.7843   -1.5946   -0.6472 C   0  0  0  0  0  0  0  0  0  0  0  0
    5.6351   -1.7893    0.0362 H   0  0  0  0  0  0  0  0  0  0  0  0
    2.5423    1.5229   -0.3776 C   0  0  0  0  0  0  0  0  0  0  0  0
    4.7501    0.2583    1.0836 C   0  0  0  0  0  0  0  0  0  0  0  0
    4.0672    1.0862    1.3566 H   0  0  0  0  0  0  0  0  0  0  0  0
    6.1529    0.8325    0.8437 C   0  0  0  0  0  0  0  0  0  0  0  0
    6.8753    0.0322    0.5811 H   0  0  0  0  0  0  0  0  0  0  0  0
    6.5291    1.3291    1.7604 H   0  0  0  0  0  0  0  0  0  0  0  0
    6.1606    1.5742    0.0202 H   0  0  0  0  0  0  0  0  0  0  0  0
    2.7389    3.9427   -0.2944 C   0  0  0  0  0  0  0  0  0  0  0  0
    3.3400    4.8590   -0.3938 H   0  0  0  0  0  0  0  0  0  0  0  0
    4.7321   -0.7244    2.2612 C   0  0  0  0  0  0  0  0  0  0  0  0
    3.7067   -1.1077    2.4209 H   0  0  0  0  0  0  0  0  0  0  0  0
    5.0584   -0.2000    3.1814 H   0  0  0  0  0  0  0  0  0  0  0  0
    5.4235   -1.5774    2.1051 H   0  0  0  0  0  0  0  0  0  0  0  0
    3.8115   -2.7760   -0.5195 C   0  0  0  0  0  0  0  0  0  0  0  0
    3.0006   -2.6855   -1.2663 H   0  0  0  0  0  0  0  0  0  0  0  0
    3.3480   -2.7960    0.4855 H   0  0  0  0  0  0  0  0  0  0  0  0
    4.3526   -3.7287   -0.6897 H   0  0  0  0  0  0  0  0  0  0  0  0
  1  9  2  0  0  0  0
  2  7  1  0  0  0  0
  3 15  1  0  0  0  0
  4  3  1  0  0  0  0
  5  3  1  0  0  0  0
  6  3  1  0  0  0  0
  7  8  1  0  0  0  0
  9 17  1  0  0  0  0
  9 10  1  0  0  0  0
 10 18  1  0  0  0  0
 11  7  1  0  0  0  0
 11 12  1  0  0  0  0
 13 17  2  0  0  0  0
 13 24  1  0  0  0  0
 14 13  1  0  0  0  0
 15 30  1  0  0  0  0
 15 10  1  0  0  0  0
 15 16  1  0  0  0  0
 17  2  1  0  0  0  0
 18 19  1  0  0  0  0
 18 26  1  0  0  0  0
 20 18  1  0  0  0  0
 20 22  1  0  0  0  0
 21 20  1  0  0  0  0
 23 20  1  0  0  0  0
 24 11  2  0  0  0  0
 25 24  1  0  0  0  0
 26 27  1  0  0  0  0
 26 28  1  0  0  0  0
 29 26  1  0  0  0  0
 30 32  1  0  0  0  0
 31 30  1  0  0  0  0
 33 30  1  0  0  0  0
M  END
