1
 OpenBabel05122313063D

 52 53  0  0  0  0  0  0  0  0999 V2000
    0.3098    0.1801   -0.1103 N   0  0  0  0  0  2  0  0  0  0  0  0
    4.0082    0.0824   -1.7490 N   0  0  0  0  0  0  0  0  0  0  0  0
    0.9416    1.2080    0.6851 C   0  0  0  0  0  0  0  0  0  0  0  0
    0.9364    2.5577    0.2067 C   0  0  0  0  0  0  0  0  0  0  0  0
    1.6391    3.5409    0.9223 C   0  0  0  0  0  0  0  0  0  0  0  0
    1.6446    4.5766    0.5491 H   0  0  0  0  0  0  0  0  0  0  0  0
    2.3225    3.2306    2.1041 C   0  0  0  0  0  0  0  0  0  0  0  0
    2.8687    4.0140    2.6513 H   0  0  0  0  0  0  0  0  0  0  0  0
    2.2899    1.9219    2.5907 C   0  0  0  0  0  0  0  0  0  0  0  0
    2.8101    1.6799    3.5300 H   0  0  0  0  0  0  0  0  0  0  0  0
    1.6111    0.8934    1.9061 C   0  0  0  0  0  0  0  0  0  0  0  0
    0.1888    2.9675   -1.0547 C   0  0  0  0  0  0  0  0  0  0  0  0
   -0.4094    2.0861   -1.3641 H   0  0  0  0  0  0  0  0  0  0  0  0
    1.1477    3.3168   -2.2073 C   0  0  0  0  0  0  0  0  0  0  0  0
    1.7653    4.2037   -1.9539 H   0  0  0  0  0  0  0  0  0  0  0  0
    0.5822    3.5567   -3.1319 H   0  0  0  0  0  0  0  0  0  0  0  0
    1.8411    2.4831   -2.4363 H   0  0  0  0  0  0  0  0  0  0  0  0
   -0.7910    4.1210   -0.7831 C   0  0  0  0  0  0  0  0  0  0  0  0
   -1.4926    3.8632    0.0343 H   0  0  0  0  0  0  0  0  0  0  0  0
   -1.3821    4.3554   -1.6924 H   0  0  0  0  0  0  0  0  0  0  0  0
   -0.2570    5.0494   -0.4942 H   0  0  0  0  0  0  0  0  0  0  0  0
    1.6181   -0.4998    2.5176 C   0  0  0  0  0  0  0  0  0  0  0  0
    1.0591   -1.1632    1.8329 H   0  0  0  0  0  0  0  0  0  0  0  0
    3.0407   -1.0654    2.6542 C   0  0  0  0  0  0  0  0  0  0  0  0
    3.5664   -1.0845    1.6798 H   0  0  0  0  0  0  0  0  0  0  0  0
    3.0041   -2.1058    3.0362 H   0  0  0  0  0  0  0  0  0  0  0  0
    3.6521   -0.4695    3.3639 H   0  0  0  0  0  0  0  0  0  0  0  0
    0.8837   -0.5052    3.8702 C   0  0  0  0  0  0  0  0  0  0  0  0
    1.4220    0.1038    4.6263 H   0  0  0  0  0  0  0  0  0  0  0  0
    0.8021   -1.5396    4.2609 H   0  0  0  0  0  0  0  0  0  0  0  0
   -0.1426   -0.0986    3.7750 H   0  0  0  0  0  0  0  0  0  0  0  0
    1.1444   -0.3158   -1.2138 C   0  0  0  0  0  0  0  0  0  0  0  0
    1.6347    0.5214   -1.7497 H   0  0  0  0  0  0  0  0  0  0  0  0
    0.4748   -0.8079   -1.9439 H   0  0  0  0  0  0  0  0  0  0  0  0
    2.2053   -1.3378   -0.8384 C   0  0  0  0  0  0  0  0  0  0  0  0
    3.5768   -1.1470   -1.1652 C   0  0  0  0  0  0  0  0  0  0  0  0
    4.4873   -2.2019   -0.9250 C   0  0  0  0  0  0  0  0  0  0  0  0
    5.5483   -2.0653   -1.1783 H   0  0  0  0  0  0  0  0  0  0  0  0
    4.0668   -3.4087   -0.3505 C   0  0  0  0  0  0  0  0  0  0  0  0
    4.7987   -4.2105   -0.1675 H   0  0  0  0  0  0  0  0  0  0  0  0
    2.7202   -3.5843    0.0007 C   0  0  0  0  0  0  0  0  0  0  0  0
    2.3790   -4.5233    0.4615 H   0  0  0  0  0  0  0  0  0  0  0  0
    1.8059   -2.5534   -0.2533 C   0  0  0  0  0  0  0  0  0  0  0  0
    0.7452   -2.6913    0.0094 H   0  0  0  0  0  0  0  0  0  0  0  0
    4.1919    1.1760   -0.7989 C   0  0  0  0  0  0  0  0  0  0  0  0
    3.3393    1.2371   -0.0999 H   0  0  0  0  0  0  0  0  0  0  0  0
    4.2619    2.1421   -1.3406 H   0  0  0  0  0  0  0  0  0  0  0  0
    5.1233    1.0530   -0.1888 H   0  0  0  0  0  0  0  0  0  0  0  0
    5.1009   -0.0025   -2.6997 C   0  0  0  0  0  0  0  0  0  0  0  0
    6.1072   -0.1542   -2.2289 H   0  0  0  0  0  0  0  0  0  0  0  0
    5.1552    0.9453   -3.2752 H   0  0  0  0  0  0  0  0  0  0  0  0
    4.9249   -0.8312   -3.4129 H   0  0  0  0  0  0  0  0  0  0  0  0
  1  3  1  0  0  0  0
  2 36  1  0  0  0  0
  2 45  1  0  0  0  0
  3 11  1  0  0  0  0
  4  3  2  0  0  0  0
  4  5  1  0  0  0  0
  5  7  2  0  0  0  0
  6  5  1  0  0  0  0
  7  9  1  0  0  0  0
  7  8  1  0  0  0  0
  9 10  1  0  0  0  0
 11 22  1  0  0  0  0
 11  9  2  0  0  0  0
 12 18  1  0  0  0  0
 12  4  1  0  0  0  0
 13 12  1  0  0  0  0
 14 15  1  0  0  0  0
 14 12  1  0  0  0  0
 16 14  1  0  0  0  0
 17 14  1  0  0  0  0
 18 21  1  0  0  0  0
 18 19  1  0  0  0  0
 20 18  1  0  0  0  0
 22 24  1  0  0  0  0
 22 28  1  0  0  0  0
 23 22  1  0  0  0  0
 24 26  1  0  0  0  0
 24 27  1  0  0  0  0
 25 24  1  0  0  0  0
 28 30  1  0  0  0  0
 28 29  1  0  0  0  0
 31 28  1  0  0  0  0
 32 35  1  0  0  0  0
 32  1  1  0  0  0  0
 33 32  1  0  0  0  0
 34 32  1  0  0  0  0
 35 43  1  0  0  0  0
 36 37  1  0  0  0  0
 36 35  2  0  0  0  0
 37 39  2  0  0  0  0
 38 37  1  0  0  0  0
 39 40  1  0  0  0  0
 39 41  1  0  0  0  0
 41 42  1  0  0  0  0
 43 41  2  0  0  0  0
 43 44  1  0  0  0  0
 45 48  1  0  0  0  0
 45 46  1  0  0  0  0
 47 45  1  0  0  0  0
 49 50  1  0  0  0  0
 49  2  1  0  0  0  0
 51 49  1  0  0  0  0
 52 49  1  0  0  0  0
M  END
