1
 OpenBabel05122313063D

 36 38  0  0  1  0  0  0  0  0999 V2000
   -1.9390   -0.0596   -0.4347 N   0  0  0  0  0  2  0  0  0  0  0  0
   -2.7256    0.9159   -0.2583 N   0  0  0  0  0  2  0  0  0  0  0  0
   -3.9954    0.5227   -0.3984 N   0  0  0  0  0  0  0  0  0  0  0  0
   -4.0998   -0.9624   -0.4000 C   0  0  2  0  0  0  0  0  0  0  0  0
   -4.4861   -1.4627    1.0079 C   0  0  0  0  0  0  0  0  0  0  0  0
   -5.2239   -2.8074    1.0632 C   0  0  0  0  0  0  0  0  0  0  0  0
   -4.4647   -4.0858    0.6754 C   0  0  0  0  0  0  0  0  0  0  0  0
   -4.0065   -4.1735   -0.7965 C   0  0  0  0  0  0  0  0  0  0  0  0
   -2.5238   -3.8487   -1.0423 C   0  0  0  0  0  0  0  0  0  0  0  0
   -1.9874   -2.5647   -0.4048 C   0  0  0  0  0  0  0  0  0  0  0  0
   -2.6661   -1.2864   -0.8776 C   0  0  2  0  0  0  0  0  0  0  0  0
   -5.0533    1.4341   -0.2376 C   0  0  0  0  0  0  0  0  0  0  0  0
   -4.7915    2.7958    0.0351 C   0  0  0  0  0  0  0  0  0  0  0  0
   -5.8579    3.6891    0.1775 C   0  0  0  0  0  0  0  0  0  0  0  0
   -7.1887    3.2528    0.0546 C   0  0  0  0  0  0  0  0  0  0  0  0
   -7.4427    1.9011   -0.2184 C   0  0  0  0  0  0  0  0  0  0  0  0
   -6.3875    0.9902   -0.3680 C   0  0  0  0  0  0  0  0  0  0  0  0
   -4.8470   -1.2718   -1.1554 H   0  0  0  0  0  0  0  0  0  0  0  0
   -3.7508    3.1308    0.1308 H   0  0  0  0  0  0  0  0  0  0  0  0
   -5.6430    4.7473    0.3904 H   0  0  0  0  0  0  0  0  0  0  0  0
   -8.0204    3.9630    0.1696 H   0  0  0  0  0  0  0  0  0  0  0  0
   -8.4779    1.5422   -0.3208 H   0  0  0  0  0  0  0  0  0  0  0  0
   -6.6069   -0.0636   -0.5878 H   0  0  0  0  0  0  0  0  0  0  0  0
   -5.1590   -0.6986    1.4478 H   0  0  0  0  0  0  0  0  0  0  0  0
   -3.5783   -1.4602    1.6490 H   0  0  0  0  0  0  0  0  0  0  0  0
   -6.1346   -2.7328    0.4239 H   0  0  0  0  0  0  0  0  0  0  0  0
   -5.6022   -2.9309    2.1000 H   0  0  0  0  0  0  0  0  0  0  0  0
   -5.1385   -4.9398    0.8956 H   0  0  0  0  0  0  0  0  0  0  0  0
   -3.5916   -4.2212    1.3509 H   0  0  0  0  0  0  0  0  0  0  0  0
   -4.6532   -3.5194   -1.4230 H   0  0  0  0  0  0  0  0  0  0  0  0
   -4.1910   -5.1980   -1.1812 H   0  0  0  0  0  0  0  0  0  0  0  0
   -2.3350   -3.8229   -2.1379 H   0  0  0  0  0  0  0  0  0  0  0  0
   -1.9102   -4.6885   -0.6513 H   0  0  0  0  0  0  0  0  0  0  0  0
   -0.9112   -2.4583   -0.6586 H   0  0  0  0  0  0  0  0  0  0  0  0
   -2.0130   -2.6093    0.7019 H   0  0  0  0  0  0  0  0  0  0  0  0
   -2.6231   -1.2430   -1.9920 H   0  0  0  0  0  0  0  0  0  0  0  0
  1  2  1  0  0  0  0
  3  2  1  0  0  0  0
  3 12  1  0  0  0  0
  4 18  1  6  0  0  0
  4  3  1  0  0  0  0
  4  5  1  0  0  0  0
  5  6  1  0  0  0  0
  5 24  1  0  0  0  0
  5 25  1  0  0  0  0
  6 27  1  0  0  0  0
  7 28  1  0  0  0  0
  7  6  1  0  0  0  0
  7 29  1  0  0  0  0
  8  7  1  0  0  0  0
  9  8  1  0  0  0  0
  9 33  1  0  0  0  0
  9 10  1  0  0  0  0
 10 35  1  0  0  0  0
 11 36  1  6  0  0  0
 11  1  1  0  0  0  0
 11 10  1  0  0  0  0
 11  4  1  0  0  0  0
 12 13  1  0  0  0  0
 13 19  1  0  0  0  0
 13 14  2  0  0  0  0
 14 20  1  0  0  0  0
 15 21  1  0  0  0  0
 15 14  1  0  0  0  0
 16 15  2  0  0  0  0
 17 12  2  0  0  0  0
 17 16  1  0  0  0  0
 22 16  1  0  0  0  0
 23 17  1  0  0  0  0
 26  6  1  0  0  0  0
 30  8  1  0  0  0  0
 31  8  1  0  0  0  0
 32  9  1  0  0  0  0
 34 10  1  0  0  0  0
M  END
