3
 OpenBabel05122313063D

 37 36  0  0  0  0  0  0  0  0999 V2000
    2.1975   -1.1292    0.7051 Si  0  0  0  0  0  0  0  0  0  0  0  0
    2.0533    0.1834   -0.4120 O   0  0  0  0  0  0  0  0  0  0  0  0
    0.4664   -1.1338    1.0458 N   0  0  0  0  0  2  0  0  0  0  0  0
   -0.2018   -2.0405    2.0283 C   0  0  0  0  0  0  0  0  0  0  0  0
   -1.2026   -1.2248    2.8678 C   0  0  0  0  0  0  0  0  0  0  0  0
   -0.6730   -0.4753    3.4904 H   0  0  0  0  0  0  0  0  0  0  0  0
   -1.7786   -1.8860    3.5466 H   0  0  0  0  0  0  0  0  0  0  0  0
   -1.9104   -0.6931    2.2076 H   0  0  0  0  0  0  0  0  0  0  0  0
    0.8034   -2.6860    3.0032 C   0  0  0  0  0  0  0  0  0  0  0  0
    1.5760   -3.2798    2.4731 H   0  0  0  0  0  0  0  0  0  0  0  0
    0.2725   -3.3811    3.6835 H   0  0  0  0  0  0  0  0  0  0  0  0
    1.3058   -1.9257    3.6327 H   0  0  0  0  0  0  0  0  0  0  0  0
   -0.9311   -3.1677    1.2700 C   0  0  0  0  0  0  0  0  0  0  0  0
   -0.2146   -3.7501    0.6572 H   0  0  0  0  0  0  0  0  0  0  0  0
   -1.6845   -2.7394    0.5832 H   0  0  0  0  0  0  0  0  0  0  0  0
   -1.4377   -3.8588    1.9747 H   0  0  0  0  0  0  0  0  0  0  0  0
    3.0440    0.8459   -1.2705 C   0  0  0  0  0  0  0  0  0  0  0  0
    2.7649    2.3490   -1.1655 C   0  0  0  0  0  0  0  0  0  0  0  0
    1.7397    2.5742   -1.5141 H   0  0  0  0  0  0  0  0  0  0  0  0
    3.4838    2.9163   -1.7898 H   0  0  0  0  0  0  0  0  0  0  0  0
    2.8726    2.6863   -0.1147 H   0  0  0  0  0  0  0  0  0  0  0  0
    2.8540    0.3301   -2.6998 C   0  0  0  0  0  0  0  0  0  0  0  0
    1.8337    0.5562   -3.0609 H   0  0  0  0  0  0  0  0  0  0  0  0
    3.0007   -0.7667   -2.7412 H   0  0  0  0  0  0  0  0  0  0  0  0
    3.5861    0.8115   -3.3789 H   0  0  0  0  0  0  0  0  0  0  0  0
    4.4688    0.5543   -0.7841 C   0  0  0  0  0  0  0  0  0  0  0  0
    4.6420    0.9520    0.2343 H   0  0  0  0  0  0  0  0  0  0  0  0
    5.1911    1.0471   -1.4638 H   0  0  0  0  0  0  0  0  0  0  0  0
    4.6961   -0.5301   -0.7944 H   0  0  0  0  0  0  0  0  0  0  0  0
    2.8246   -2.6916   -0.1305 C   0  0  0  0  0  0  0  0  0  0  0  0
    3.8717   -2.5891   -0.4795 H   0  0  0  0  0  0  0  0  0  0  0  0
    2.1750   -2.9165   -0.9995 H   0  0  0  0  0  0  0  0  0  0  0  0
    2.7883   -3.5521    0.5682 H   0  0  0  0  0  0  0  0  0  0  0  0
    3.3414   -0.6432    2.1321 C   0  0  0  0  0  0  0  0  0  0  0  0
    4.3961   -0.6342    1.7948 H   0  0  0  0  0  0  0  0  0  0  0  0
    3.2680   -1.3721    2.9615 H   0  0  0  0  0  0  0  0  0  0  0  0
    3.1038    0.3623    2.5334 H   0  0  0  0  0  0  0  0  0  0  0  0
  1  3  1  0  0  0  0
  1 34  1  0  0  0  0
  2  1  1  0  0  0  0
  3  4  1  0  0  0  0
  4  5  1  0  0  0  0
  4  9  1  0  0  0  0
  5  6  1  0  0  0  0
  5  7  1  0  0  0  0
  8  5  1  0  0  0  0
  9 12  1  0  0  0  0
  9 11  1  0  0  0  0
 10  9  1  0  0  0  0
 13 16  1  0  0  0  0
 13  4  1  0  0  0  0
 14 13  1  0  0  0  0
 15 13  1  0  0  0  0
 17 18  1  0  0  0  0
 17 26  1  0  0  0  0
 17  2  1  0  0  0  0
 18 21  1  0  0  0  0
 19 18  1  0  0  0  0
 20 18  1  0  0  0  0
 22 17  1  0  0  0  0
 23 22  1  0  0  0  0
 24 22  1  0  0  0  0
 25 22  1  0  0  0  0
 26 27  1  0  0  0  0
 28 26  1  0  0  0  0
 29 26  1  0  0  0  0
 30 33  1  0  0  0  0
 30  1  1  0  0  0  0
 31 30  1  0  0  0  0
 32 30  1  0  0  0  0
 34 37  1  0  0  0  0
 34 36  1  0  0  0  0
 35 34  1  0  0  0  0
M  END
