1
 OpenBabel05122313063D

 15 16  0  0  0  0  0  0  0  0999 V2000
    2.0060    0.0001   -0.0006 N   0  0  0  0  0  2  0  0  0  0  0  0
    7.0455   -1.1282    0.0012 N   0  0  0  0  0  0  0  0  0  0  0  0
    8.2816   -0.6917    0.0008 N   0  0  0  0  0  0  0  0  0  0  0  0
    8.2816    0.6910   -0.0008 N   0  0  0  0  0  0  0  0  0  0  0  0
    7.0457    1.1277   -0.0015 N   0  0  0  0  0  2  0  0  0  0  0  0
    2.7169   -1.1686    0.0030 C   0  0  0  0  0  3  0  0  0  0  0  0
    2.1171   -2.0946    0.0159 H   0  0  0  0  0  0  0  0  0  0  0  0
    4.0989   -1.2152    0.0024 C   0  0  0  0  0  0  0  0  0  0  0  0
    4.6439   -2.1698    0.0060 H   0  0  0  0  0  0  0  0  0  0  0  0
    4.8497   -0.0001   -0.0004 C   0  0  0  0  0  0  0  0  0  0  0  0
    4.0991    1.2151   -0.0034 C   0  0  0  0  0  0  0  0  0  0  0  0
    4.6443    2.1696   -0.0070 H   0  0  0  0  0  0  0  0  0  0  0  0
    2.7171    1.1688   -0.0041 C   0  0  0  0  0  0  0  0  0  0  0  0
    2.1174    2.0948   -0.0172 H   0  0  0  0  0  0  0  0  0  0  0  0
    6.2709   -0.0002   -0.0003 C   0  0  0  0  0  0  0  0  0  0  0  0
  1  6  1  0  0  0  0
  3  2  1  0  0  0  0
  4  3  2  0  0  0  0
  5  4  1  0  0  0  0
  5 15  1  0  0  0  0
  6  7  1  0  0  0  0
  8  6  1  0  0  0  0
  8  9  1  0  0  0  0
 10 15  1  0  0  0  0
 10  8  2  0  0  0  0
 11 10  1  0  0  0  0
 12 11  1  0  0  0  0
 13 11  2  0  0  0  0
 13  1  1  0  0  0  0
 14 13  1  0  0  0  0
 15  2  2  0  0  0  0
M  END
