1
 OpenBabel05122313063D

 66 75  0  0  1  0  0  0  0  0999 V2000
    2.6797    1.0161    0.1733 N   0  0  0  0  0  2  0  0  0  0  0  0
    1.2127    2.4478    1.0788 N   0  0  0  0  0  0  0  0  0  0  0  0
   -2.3745    2.1458    1.0980 C   0  0  0  0  0  0  0  0  0  0  0  0
    2.2859    3.2195    0.6433 C   0  0  0  0  0  0  0  0  0  0  0  0
    1.4923    1.1322    0.7687 C   0  0  1  0  0  3  0  0  0  0  0  0
    4.6854    4.1200   -0.4171 C   0  0  0  0  0  0  0  0  0  0  0  0
    5.6287    4.5055   -0.8315 H   0  0  0  0  0  0  0  0  0  0  0  0
    2.5402    4.6003    0.6874 C   0  0  0  0  0  0  0  0  0  0  0  0
    1.8251    5.3142    1.1217 H   0  0  0  0  0  0  0  0  0  0  0  0
   -4.5797    1.2599    0.3471 C   0  0  0  0  0  0  0  0  0  0  0  0
   -3.3232    2.8197   -1.1100 C   0  0  0  0  0  0  0  0  0  0  0  0
    3.7581    5.0313    0.1460 C   0  0  0  0  0  0  0  0  0  0  0  0
    3.9982    6.1050    0.1585 H   0  0  0  0  0  0  0  0  0  0  0  0
    3.2115    2.2989    0.0764 C   0  0  0  0  0  0  0  0  0  0  0  0
   -1.5202    0.1562   -2.1136 C   0  0  0  0  0  0  0  0  0  0  0  0
   -1.5315    0.6633   -3.0901 H   0  0  0  0  0  0  0  0  0  0  0  0
   -2.5589   -1.4428   -0.5426 C   0  0  0  0  0  0  0  0  0  0  0  0
   -2.5862   -0.7568   -1.8044 C   0  0  0  0  0  0  0  0  0  0  0  0
   -4.7027    0.5107    1.5650 C   0  0  0  0  0  0  0  0  0  0  0  0
   -0.4785   -0.2388    0.0662 C   0  0  0  0  0  0  0  0  0  0  0  0
   -1.2140    2.9177    0.8079 C   0  0  0  0  0  0  0  0  0  0  0  0
   -4.3779    2.7174   -2.0822 C   0  0  0  0  0  0  0  0  0  0  0  0
   -4.2815    3.2907   -3.0173 H   0  0  0  0  0  0  0  0  0  0  0  0
    0.5219    0.0463    1.0360 C   0  0  0  0  0  0  0  0  0  0  0  0
   -0.5070    0.4021   -1.2206 C   0  0  0  0  0  0  0  0  0  0  0  0
    0.3048    1.0938   -1.4843 H   0  0  0  0  0  0  0  0  0  0  0  0
   -1.4997   -1.1940    0.3862 C   0  0  0  0  0  0  0  0  0  0  0  0
   -3.4292    2.0809    0.1172 C   0  0  0  0  0  0  0  0  0  0  0  0
   -0.4192   -1.6179    2.5491 C   0  0  0  0  0  0  0  0  0  0  0  0
   -0.3752   -2.1653    3.5029 H   0  0  0  0  0  0  0  0  0  0  0  0
   -2.5267   -2.8161    1.9463 C   0  0  0  0  0  0  0  0  0  0  0  0
   -2.4998   -3.3404    2.9142 H   0  0  0  0  0  0  0  0  0  0  0  0
   -1.1426    3.6455   -0.3951 C   0  0  0  0  0  0  0  0  0  0  0  0
   -0.2394    4.2392   -0.6080 H   0  0  0  0  0  0  0  0  0  0  0  0
    0.5547   -0.6558    2.2548 C   0  0  0  0  0  0  0  0  0  0  0  0
    1.3751   -0.4628    2.9600 H   0  0  0  0  0  0  0  0  0  0  0  0
   -6.7331    0.3410   -0.4000 C   0  0  0  0  0  0  0  0  0  0  0  0
   -7.5208    0.2708   -1.1659 H   0  0  0  0  0  0  0  0  0  0  0  0
   -0.0063    2.9381    1.7268 C   0  0  0  0  0  0  0  0  0  0  0  0
   -0.1721    2.3342    2.6358 H   0  0  0  0  0  0  0  0  0  0  0  0
    0.2109    3.9702    2.0660 H   0  0  0  0  0  0  0  0  0  0  0  0
   -5.8396   -0.3027    1.7672 C   0  0  0  0  0  0  0  0  0  0  0  0
   -5.9227   -0.8768    2.7027 H   0  0  0  0  0  0  0  0  0  0  0  0
    4.4325    2.7450   -0.4621 C   0  0  0  0  0  0  0  0  0  0  0  0
    5.1333    2.0191   -0.9044 H   0  0  0  0  0  0  0  0  0  0  0  0
   -3.6044   -2.3705   -0.2117 C   0  0  0  0  0  0  0  0  0  0  0  0
   -2.1757    3.6114   -1.3331 C   0  0  0  0  0  0  0  0  0  0  0  0
   -2.0930    4.1869   -2.2677 H   0  0  0  0  0  0  0  0  0  0  0  0
   -3.5520   -3.0431    1.0597 C   0  0  0  0  0  0  0  0  0  0  0  0
   -4.3590   -3.7491    1.3101 H   0  0  0  0  0  0  0  0  0  0  0  0
   -2.5423    1.3919    2.3141 C   0  0  0  0  0  0  0  0  0  0  0  0
   -1.7594    1.4180    3.0832 H   0  0  0  0  0  0  0  0  0  0  0  0
   -1.4705   -1.8852    1.6457 C   0  0  0  0  0  0  0  0  0  0  0  0
   -3.6507    0.6130    2.5358 C   0  0  0  0  0  0  0  0  0  0  0  0
   -3.7403    0.0364    3.4689 H   0  0  0  0  0  0  0  0  0  0  0  0
   -5.4757    1.9224   -1.8620 C   0  0  0  0  0  0  0  0  0  0  0  0
   -6.2721    1.8477   -2.6186 H   0  0  0  0  0  0  0  0  0  0  0  0
   -6.8425   -0.3852    0.7933 C   0  0  0  0  0  0  0  0  0  0  0  0
   -7.7213   -1.0249    0.9651 H   0  0  0  0  0  0  0  0  0  0  0  0
   -4.6652   -1.9160   -2.3687 C   0  0  0  0  0  0  0  0  0  0  0  0
   -5.4885   -2.0954   -3.0762 H   0  0  0  0  0  0  0  0  0  0  0  0
   -4.6475   -2.5876   -1.1391 C   0  0  0  0  0  0  0  0  0  0  0  0
   -5.4545   -3.2895   -0.8789 H   0  0  0  0  0  0  0  0  0  0  0  0
   -3.6481   -1.0112   -2.7005 C   0  0  0  0  0  0  0  0  0  0  0  0
   -3.6690   -0.4805   -3.6644 H   0  0  0  0  0  0  0  0  0  0  0  0
   -5.6157    1.1694   -0.6454 C   0  0  0  0  0  0  0  0  0  0  0  0
  1  5  1  0  0  0  0
  2 39  1  0  0  0  0
  3 51  1  0  0  0  0
  4  8  1  0  0  0  0
  4  2  1  0  0  0  0
  5 24  1  6  0  0  0
  5  2  1  0  0  0  0
  6 12  1  0  0  0  0
  7  6  1  0  0  0  0
  8  9  1  0  0  0  0
 10 19  1  0  0  0  0
 11 28  1  0  0  0  0
 12 13  1  0  0  0  0
 12  8  2  0  0  0  0
 14  1  1  0  0  0  0
 14  4  2  0  0  0  0
 15 18  2  0  0  0  0
 15 25  1  0  0  0  0
 16 15  1  0  0  0  0
 17 46  1  0  0  0  0
 17 27  2  0  0  0  0
 18 17  1  0  0  0  0
 19 42  2  0  0  0  0
 19 54  1  0  0  0  0
 20 27  1  0  0  0  0
 20 24  1  0  0  0  0
 21  3  1  0  0  0  0
 21 39  1  0  0  0  0
 22 56  2  0  0  0  0
 22 11  1  0  0  0  0
 23 22  1  0  0  0  0
 24 35  2  0  0  0  0
 25 20  2  0  0  0  0
 26 25  1  0  0  0  0
 27 53  1  0  0  0  0
 28 10  1  0  0  0  0
 28  3  2  0  0  0  0
 29 30  1  0  0  0  0
 31 32  1  0  0  0  0
 33 21  2  0  0  0  0
 34 33  1  0  0  0  0
 35 29  1  0  0  0  0
 35 36  1  0  0  0  0
 37 58  2  0  0  0  0
 38 37  1  0  0  0  0
 39 41  1  0  0  0  0
 39 40  1  0  0  0  0
 42 43  1  0  0  0  0
 44  6  2  0  0  0  0
 44 14  1  0  0  0  0
 45 44  1  0  0  0  0
 46 49  1  0  0  0  0
 47 11  2  0  0  0  0
 47 33  1  0  0  0  0
 48 47  1  0  0  0  0
 49 50  1  0  0  0  0
 49 31  2  0  0  0  0
 51 54  2  0  0  0  0
 51 52  1  0  0  0  0
 53 31  1  0  0  0  0
 53 29  2  0  0  0  0
 54 55  1  0  0  0  0
 56 66  1  0  0  0  0
 57 56  1  0  0  0  0
 58 59  1  0  0  0  0
 58 42  1  0  0  0  0
 60 62  1  0  0  0  0
 61 60  1  0  0  0  0
 62 63  1  0  0  0  0
 62 46  2  0  0  0  0
 64 60  2  0  0  0  0
 64 18  1  0  0  0  0
 65 64  1  0  0  0  0
 66 37  1  0  0  0  0
 66 10  2  0  0  0  0
M  END
