2
 OpenBabel05122313063D

 50 55  0  0  1  0  0  0  0  0999 V2000
    0.0163    2.0086    0.6042 N   0  0  0  0  0  0  0  0  0  0  0  0
   -1.8408    0.8285    0.1725 N   0  0  0  0  0  2  0  0  0  0  0  0
   -0.9132    2.9191    0.1103 C   0  0  0  0  0  0  0  0  0  0  0  0
    2.4800    2.0583    0.1569 C   0  0  0  0  0  0  0  0  0  0  0  0
   -2.0846    2.1571   -0.1595 C   0  0  0  0  0  0  0  0  0  0  0  0
    2.4195    2.6338   -1.1100 C   0  0  0  0  0  0  0  0  0  0  0  0
    1.5555    3.2625   -1.3767 H   0  0  0  0  0  0  0  0  0  0  0  0
   -0.5859    0.7649    0.6160 C   0  0  1  0  0  3  0  0  0  0  0  0
   -0.8571    4.3039   -0.1179 C   0  0  0  0  0  0  0  0  0  0  0  0
    0.0463    4.8955    0.0910 H   0  0  0  0  0  0  0  0  0  0  0  0
    1.3444    2.3174    1.1318 C   0  0  0  0  0  0  0  0  0  0  0  0
    1.3275    3.3852    1.4303 H   0  0  0  0  0  0  0  0  0  0  0  0
    1.4688    1.7337    2.0601 H   0  0  0  0  0  0  0  0  0  0  0  0
   -3.2393    2.7685   -0.6815 C   0  0  0  0  0  0  0  0  0  0  0  0
   -4.1264    2.1538   -0.9004 H   0  0  0  0  0  0  0  0  0  0  0  0
   -2.0153    4.9019   -0.6326 C   0  0  0  0  0  0  0  0  0  0  0  0
   -2.0156    5.9848   -0.8277 H   0  0  0  0  0  0  0  0  0  0  0  0
   -3.1819    4.1475   -0.9113 C   0  0  0  0  0  0  0  0  0  0  0  0
   -4.0646    4.6614   -1.3200 H   0  0  0  0  0  0  0  0  0  0  0  0
    3.4337    2.4117   -2.0732 C   0  0  0  0  0  0  0  0  0  0  0  0
    3.3526    2.8799   -3.0655 H   0  0  0  0  0  0  0  0  0  0  0  0
    4.5192    1.6087   -1.7624 C   0  0  0  0  0  0  0  0  0  0  0  0
    5.3137    1.4272   -2.5028 H   0  0  0  0  0  0  0  0  0  0  0  0
    0.1425   -0.4473    1.0513 C   0  0  0  0  0  0  0  0  0  0  0  0
    3.7379    0.5803    1.7758 C   0  0  0  0  0  0  0  0  0  0  0  0
    2.9652    0.7040    2.5469 H   0  0  0  0  0  0  0  0  0  0  0  0
    1.1210   -1.0275    0.1734 C   0  0  0  0  0  0  0  0  0  0  0  0
    4.6312    1.0027   -0.4786 C   0  0  0  0  0  0  0  0  0  0  0  0
    3.5977    1.2256    0.5097 C   0  0  0  0  0  0  0  0  0  0  0  0
    1.9338   -2.1105    0.6669 C   0  0  0  0  0  0  0  0  0  0  0  0
    5.7399    0.1669   -0.1545 C   0  0  0  0  0  0  0  0  0  0  0  0
    6.5167    0.0087   -0.9188 H   0  0  0  0  0  0  0  0  0  0  0  0
    4.8281   -0.2286    2.0579 C   0  0  0  0  0  0  0  0  0  0  0  0
    4.9004   -0.7184    3.0406 H   0  0  0  0  0  0  0  0  0  0  0  0
    5.8419   -0.4378    1.0877 C   0  0  0  0  0  0  0  0  0  0  0  0
    6.7029   -1.0814    1.3229 H   0  0  0  0  0  0  0  0  0  0  0  0
   -0.0954   -0.9935    2.3103 C   0  0  0  0  0  0  0  0  0  0  0  0
   -0.9162   -0.5921    2.9259 H   0  0  0  0  0  0  0  0  0  0  0  0
    1.3095   -0.5845   -1.1688 C   0  0  0  0  0  0  0  0  0  0  0  0
    0.6655    0.2140   -1.5643 H   0  0  0  0  0  0  0  0  0  0  0  0
    1.6875   -2.6199    1.9755 C   0  0  0  0  0  0  0  0  0  0  0  0
    2.3085   -3.4522    2.3423 H   0  0  0  0  0  0  0  0  0  0  0  0
    0.6777   -2.0931    2.7658 C   0  0  0  0  0  0  0  0  0  0  0  0
    0.4707   -2.5168    3.7597 H   0  0  0  0  0  0  0  0  0  0  0  0
    2.9533   -2.6458   -0.1749 C   0  0  0  0  0  0  0  0  0  0  0  0
    3.5919   -3.4515    0.2192 H   0  0  0  0  0  0  0  0  0  0  0  0
    3.1366   -2.1692   -1.4639 C   0  0  0  0  0  0  0  0  0  0  0  0
    3.9323   -2.5867   -2.0989 H   0  0  0  0  0  0  0  0  0  0  0  0
    2.2932   -1.1437   -1.9715 C   0  0  0  0  0  0  0  0  0  0  0  0
    2.4330   -0.7784   -2.9998 H   0  0  0  0  0  0  0  0  0  0  0  0
  1  8  1  0  0  0  0
  1 11  1  0  0  0  0
  2  8  1  0  0  0  0
  3  1  1  0  0  0  0
  4 29  1  0  0  0  0
  4 11  1  0  0  0  0
  5  3  2  0  0  0  0
  5  2  1  0  0  0  0
  6  4  2  0  0  0  0
  7  6  1  0  0  0  0
  8 24  1  6  0  0  0
  9 10  1  0  0  0  0
  9  3  1  0  0  0  0
 11 12  1  0  0  0  0
 11 13  1  0  0  0  0
 14  5  1  0  0  0  0
 15 14  1  0  0  0  0
 16  9  2  0  0  0  0
 17 16  1  0  0  0  0
 18 14  2  0  0  0  0
 18 16  1  0  0  0  0
 19 18  1  0  0  0  0
 20 22  2  0  0  0  0
 20  6  1  0  0  0  0
 21 20  1  0  0  0  0
 22 28  1  0  0  0  0
 23 22  1  0  0  0  0
 24 37  1  0  0  0  0
 25 33  1  0  0  0  0
 25 26  1  0  0  0  0
 27 30  1  0  0  0  0
 27 24  2  0  0  0  0
 28 31  2  0  0  0  0
 28 29  1  0  0  0  0
 29 25  2  0  0  0  0
 30 41  2  0  0  0  0
 31 35  1  0  0  0  0
 32 31  1  0  0  0  0
 33 34  1  0  0  0  0
 35 36  1  0  0  0  0
 35 33  2  0  0  0  0
 37 43  2  0  0  0  0
 37 38  1  0  0  0  0
 39 27  1  0  0  0  0
 40 39  1  0  0  0  0
 41 42  1  0  0  0  0
 41 43  1  0  0  0  0
 43 44  1  0  0  0  0
 45 46  1  0  0  0  0
 45 30  1  0  0  0  0
 47 45  2  0  0  0  0
 48 47  1  0  0  0  0
 49 47  1  0  0  0  0
 49 39  2  0  0  0  0
 50 49  1  0  0  0  0
M  END
