1
 OpenBabel05122313063D

 19 19  0  0  1  0  0  0  0  0999 V2000
   -0.5971    0.2037   -0.0389 N   0  0  0  0  0  2  0  0  0  0  0  0
   -1.3156   -0.9447    0.0436 N   0  0  0  0  0  0  0  0  0  0  0  0
   -0.8567    2.5252   -0.4483 N   0  0  0  0  0  0  0  0  0  0  0  0
    0.1957    2.5690   -0.4980 H   0  0  0  0  0  0  0  0  0  0  0  0
   -4.1452   -2.1122    1.6173 N   0  0  0  0  0  0  0  0  0  0  0  0
   -5.1499   -1.9543    1.7631 H   0  0  0  0  0  0  0  0  0  0  0  0
   -3.8145   -2.9893    2.0368 H   0  0  0  0  0  0  0  0  0  0  0  0
   -3.0714    0.9251   -0.4220 S   0  0  0  0  0  0  0  0  0  0  0  0
   -3.7913   -2.0724   -0.0350 S   0  0  0  0  0  0  0  0  0  0  0  0
   -2.8829    3.5402   -0.6681 O   0  0  0  0  0  0  0  0  0  0  0  0
   -3.0902   -3.3140   -0.3965 O   0  0  0  0  0  0  0  0  0  0  0  0
   -4.9861   -1.5532   -0.7242 O   0  0  0  0  0  0  0  0  0  0  0  0
   -2.5872   -0.7406   -0.1317 C   0  0  0  0  0  0  0  0  0  0  0  0
   -1.3597    1.2832   -0.2881 C   0  0  1  0  0  3  0  0  0  0  0  0
   -1.6586    3.6472   -0.6226 C   0  0  0  0  0  0  0  0  0  0  0  0
   -0.8900    4.9384   -0.7192 C   0  0  0  0  0  0  0  0  0  0  0  0
   -0.0945    4.8630   -1.4880 H   0  0  0  0  0  0  0  0  0  0  0  0
   -0.3848    5.1361    0.2490 H   0  0  0  0  0  0  0  0  0  0  0  0
   -1.5813    5.7640   -0.9586 H   0  0  0  0  0  0  0  0  0  0  0  0
  1  2  1  0  0  0  0
  4  3  1  0  0  0  0
  5  6  1  0  0  0  0
  5  7  1  0  0  0  0
  8 14  1  0  0  0  0
  8 13  1  0  0  0  0
  9  5  1  0  0  0  0
 10 15  2  0  0  0  0
 11  9  2  0  0  0  0
 12  9  2  0  0  0  0
 13  9  1  0  0  0  0
 13  2  2  0  0  0  0
 14  3  1  6  0  0  0
 14  1  1  0  0  0  0
 15  3  1  0  0  0  0
 16 15  1  0  0  0  0
 16 18  1  0  0  0  0
 17 16  1  0  0  0  0
 19 16  1  0  0  0  0
M  END
