20
 OpenBabel05122313063D

 31 33  0  0  0  0  0  0  0  0999 V2000
   -1.1444   -0.4531   -0.8924 C   0  0  0  0  0  0  0  0  0  0  0  0
   -0.5642   -0.2203   -1.7984 H   0  0  0  0  0  0  0  0  0  0  0  0
   -0.5914   -1.4279    0.0221 C   0  0  0  0  0  0  0  0  0  0  0  0
   -1.4678   -2.2246    0.8555 C   0  0  0  0  0  0  0  0  0  0  0  0
   -1.0230   -2.9708    1.5312 H   0  0  0  0  0  0  0  0  0  0  0  0
   -2.8215   -2.0334    0.8042 C   0  0  0  0  0  0  0  0  0  0  0  0
   -3.4890   -2.6424    1.4333 H   0  0  0  0  0  0  0  0  0  0  0  0
   -3.4226   -1.0336   -0.0541 C   0  0  0  0  0  0  0  0  0  0  0  0
   -4.8244   -0.8300   -0.0853 C   0  0  0  0  0  0  0  0  0  0  0  0
   -5.4629   -1.4296    0.5821 H   0  0  0  0  0  0  0  0  0  0  0  0
   -5.3928    0.1095   -0.9457 C   0  0  0  0  0  0  0  0  0  0  0  0
   -6.4829    0.2588   -0.9557 H   0  0  0  0  0  0  0  0  0  0  0  0
   -4.5691    0.8656   -1.8069 C   0  0  0  0  0  0  0  0  0  0  0  0
   -5.0179    1.6037   -2.4886 H   0  0  0  0  0  0  0  0  0  0  0  0
   -3.1852    0.6809   -1.7943 C   0  0  0  0  0  0  0  0  0  0  0  0
   -2.5385    1.2752   -2.4585 H   0  0  0  0  0  0  0  0  0  0  0  0
   -2.5867   -0.2530   -0.9182 C   0  0  0  0  0  0  0  0  0  0  0  0
    0.8457   -1.4500    0.1169 C   0  0  0  0  0  3  0  0  0  0  0  0
    1.3697   -2.1534    0.7940 H   0  0  0  0  0  0  0  0  0  0  0  0
    1.4911   -0.5445   -0.6536 N   0  0  0  0  0  2  0  0  0  0  0  0
    2.8857   -0.4750   -0.6750 C   0  0  0  0  0  0  0  0  0  0  0  0
    3.5356    0.7805   -0.7409 C   0  0  0  0  0  0  0  0  0  0  0  0
    2.9249    1.6945   -0.7187 H   0  0  0  0  0  0  0  0  0  0  0  0
    4.9302    0.8544   -0.8223 C   0  0  0  0  0  0  0  0  0  0  0  0
    5.4156    1.8415   -0.8643 H   0  0  0  0  0  0  0  0  0  0  0  0
    5.7105   -0.3144   -0.8449 C   0  0  0  0  0  0  0  0  0  0  0  0
    6.8067   -0.2512   -0.9092 H   0  0  0  0  0  0  0  0  0  0  0  0
    5.0729   -1.5638   -0.7896 C   0  0  0  0  0  0  0  0  0  0  0  0
    5.6690   -2.4890   -0.8172 H   0  0  0  0  0  0  0  0  0  0  0  0
    3.6771   -1.6507   -0.7054 C   0  0  0  0  0  0  0  0  0  0  0  0
    3.1860   -2.6355   -0.6965 H   0  0  0  0  0  0  0  0  0  0  0  0
  1  3  1  0  0  0  0
  2  1  1  0  0  0  0
  3 18  1  0  0  0  0
  3  4  2  0  0  0  0
  4  5  1  0  0  0  0
  6  4  1  0  0  0  0
  6  7  1  0  0  0  0
  8  6  2  0  0  0  0
  9  8  1  0  0  0  0
  9 10  1  0  0  0  0
 11  9  2  0  0  0  0
 12 11  1  0  0  0  0
 13 15  2  0  0  0  0
 13 11  1  0  0  0  0
 14 13  1  0  0  0  0
 15 17  1  0  0  0  0
 16 15  1  0  0  0  0
 17  1  2  0  0  0  0
 17  8  1  0  0  0  0
 18 19  1  0  0  0  0
 20 18  1  0  0  0  0
 21 20  1  0  0  0  0
 22 23  1  0  0  0  0
 22 21  2  0  0  0  0
 24 22  1  0  0  0  0
 25 24  1  0  0  0  0
 26 24  2  0  0  0  0
 26 28  1  0  0  0  0
 27 26  1  0  0  0  0
 28 30  2  0  0  0  0
 29 28  1  0  0  0  0
 30 31  1  0  0  0  0
 30 21  1  0  0  0  0
M  END
