2
 OpenBabel05122313063D

 15 15  0  0  0  0  0  0  0  0999 V2000
   -7.1119   -1.2605    0.5919 O   0  0  0  0  0  0  0  0  0  0  0  0
   -2.1274   -0.6353   -0.1319 N   0  0  0  0  0  2  0  0  0  0  0  0
   -2.9553   -0.4848    0.9195 C   0  0  0  0  0  3  0  0  0  0  0  0
   -2.4972   -0.0580    1.8265 H   0  0  0  0  0  0  0  0  0  0  0  0
   -4.3054   -0.8521    0.8722 C   0  0  0  0  0  0  0  0  0  0  0  0
   -4.9582   -0.7167    1.7466 H   0  0  0  0  0  0  0  0  0  0  0  0
   -4.8282   -1.4029   -0.3108 C   0  0  0  0  0  0  0  0  0  0  0  0
   -3.9529   -1.5574   -1.4020 C   0  0  0  0  0  0  0  0  0  0  0  0
   -4.3074   -1.9751   -2.3572 H   0  0  0  0  0  0  0  0  0  0  0  0
   -2.6175   -1.1625   -1.2717 C   0  0  0  0  0  0  0  0  0  0  0  0
   -1.8980   -1.2504   -2.1017 H   0  0  0  0  0  0  0  0  0  0  0  0
   -6.2800   -1.8332   -0.3916 C   0  0  0  0  0  0  0  0  0  0  0  0
   -6.6539   -1.6580   -1.4306 H   0  0  0  0  0  0  0  0  0  0  0  0
   -6.3282   -2.9336   -0.2338 H   0  0  0  0  0  0  0  0  0  0  0  0
   -7.1163   -0.2964    0.4423 H   0  0  0  0  0  0  0  0  0  0  0  0
  2  3  1  0  0  0  0
  3  4  1  0  0  0  0
  5  3  1  0  0  0  0
  5  6  1  0  0  0  0
  7  5  2  0  0  0  0
  8 10  2  0  0  0  0
  8  7  1  0  0  0  0
  9  8  1  0  0  0  0
 10  2  1  0  0  0  0
 11 10  1  0  0  0  0
 12  7  1  0  0  0  0
 12 14  1  0  0  0  0
 12  1  1  0  0  0  0
 13 12  1  0  0  0  0
 15  1  1  0  0  0  0
M  END
