14
 OpenBabel05122313063D

 34 35  0  0  1  0  0  0  0  0999 V2000
   -6.6795    3.5039    0.4156 Br  0  0  0  0  0  0  0  0  0  0  0  0
   -0.0213    4.2151   -0.7686 O   0  0  0  0  0  0  0  0  0  0  0  0
    6.1408    4.7208    0.3384 O   0  0  0  0  0  0  0  0  0  0  0  0
    3.3472    4.9642   -0.0403 N   0  0  0  0  0  0  0  0  0  0  0  0
   -2.0529    3.0977   -0.3237 C   0  0  0  0  0  0  0  0  0  0  0  0
    4.2368    6.1101   -0.2499 C   0  0  0  0  0  0  0  0  0  0  0  0
    3.7078    7.0500   -0.0024 H   0  0  0  0  0  0  0  0  0  0  0  0
    4.5359    6.1636   -1.3249 H   0  0  0  0  0  0  0  0  0  0  0  0
    1.4020    4.0975   -0.9138 N   0  0  0  0  0  2  0  0  0  0  0  0
   -4.8076    3.3422    0.1189 C   0  0  0  0  0  0  0  0  0  0  0  0
    4.0032    3.6681   -0.2349 C   0  0  0  0  0  0  0  0  0  0  0  0
    4.2471    3.5067   -1.3108 H   0  0  0  0  0  0  0  0  0  0  0  0
    3.3188    2.8579    0.0877 H   0  0  0  0  0  0  0  0  0  0  0  0
    0.1436    1.9409   -0.4602 N   0  0  0  0  0  2  0  0  0  0  0  0
    1.3593    6.2094    0.1974 N   0  0  0  0  0  4  0  0  0  0  0  0
    0.3405    6.1646    0.1209 H   0  0  0  0  0  0  0  0  0  0  0  0
    1.6985    6.5835    1.0856 H   0  0  0  0  0  0  0  0  0  0  0  0
   -0.5995    2.9983   -0.5284 C   0  0  2  0  0  3  0  0  0  0  0  0
    1.9920    5.0752   -0.2569 C   0  0  0  0  0  0  0  0  0  0  0  0
   -4.1661    4.2462   -0.7440 C   0  0  0  0  0  0  0  0  0  0  0  0
   -4.7432    5.0341   -1.2475 H   0  0  0  0  0  0  0  0  0  0  0  0
   -2.7159    2.2017    0.5415 C   0  0  0  0  0  0  0  0  0  0  0  0
   -2.1413    1.4043    1.0358 H   0  0  0  0  0  0  0  0  0  0  0  0
   -2.7882    4.1239   -0.9556 C   0  0  0  0  0  0  0  0  0  0  0  0
   -2.2752    4.8207   -1.6335 H   0  0  0  0  0  0  0  0  0  0  0  0
    5.4901    5.9467    0.6083 C   0  0  0  0  0  0  0  0  0  0  0  0
    6.2130    6.7575    0.3874 H   0  0  0  0  0  0  0  0  0  0  0  0
    5.2046    6.0113    1.6892 H   0  0  0  0  0  0  0  0  0  0  0  0
    5.2763    3.6255    0.6093 C   0  0  0  0  0  0  0  0  0  0  0  0
    4.9951    3.6144    1.6914 H   0  0  0  0  0  0  0  0  0  0  0  0
    5.8443    2.7005    0.3895 H   0  0  0  0  0  0  0  0  0  0  0  0
   -4.0899    2.3239    0.7676 C   0  0  0  0  0  0  0  0  0  0  0  0
   -4.6055    1.6269    1.4425 H   0  0  0  0  0  0  0  0  0  0  0  0
    1.1341    2.2332   -0.5846 H   0  0  0  0  0  0  0  0  0  0  0  0
  3 26  1  0  0  0  0
  3 29  1  0  0  0  0
  5 22  1  0  0  0  0
  6  4  1  0  0  0  0
  6  7  1  0  0  0  0
  6 26  1  0  0  0  0
  8  6  1  0  0  0  0
  9  2  1  0  0  0  0
  9 19  1  0  0  0  0
 10  1  1  0  0  0  0
 10 32  1  0  0  0  0
 11  4  1  0  0  0  0
 11 13  1  0  0  0  0
 11 29  1  0  0  0  0
 12 11  1  0  0  0  0
 15 17  1  0  0  0  0
 16 15  1  0  0  0  0
 18  2  1  1  0  0  0
 18 14  1  0  0  0  0
 18  5  1  0  0  0  0
 19  4  1  0  0  0  0
 19 15  2  0  0  0  0
 20 10  2  0  0  0  0
 21 20  1  0  0  0  0
 22 32  2  0  0  0  0
 22 23  1  0  0  0  0
 24 20  1  0  0  0  0
 24  5  2  0  0  0  0
 25 24  1  0  0  0  0
 26 28  1  0  0  0  0
 27 26  1  0  0  0  0
 29 30  1  0  0  0  0
 31 29  1  0  0  0  0
 32 33  1  0  0  0  0
 34 14  1  0  0  0  0
M  END
