3
 OpenBabel05122313063D

 20 22  0  0  1  0  0  0  0  0999 V2000
    1.1640   -2.2973    0.5206 O   0  0  0  0  0  0  0  0  0  0  0  0
    1.1638    2.2964    0.5248 O   0  0  0  0  0  0  0  0  0  0  0  0
    0.7886   -0.0005    0.5977 N   0  0  0  0  0  2  0  0  0  0  0  0
    1.5679   -1.1559    0.7088 C   0  0  0  0  0  0  0  0  0  0  0  0
    3.0011   -0.7714    1.0663 C   0  0  2  0  0  0  0  0  0  0  0  0
    3.2601   -1.2265    2.0431 H   0  0  0  0  0  0  0  0  0  0  0  0
    3.0010    0.7696    1.0677 C   0  0  2  0  0  0  0  0  0  0  0  0
    3.2601    1.2230    2.0454 H   0  0  0  0  0  0  0  0  0  0  0  0
    1.5678    1.1547    0.7109 C   0  0  0  0  0  0  0  0  0  0  0  0
    4.0966    1.1332   -0.0033 C   0  0  2  0  0  0  0  0  0  0  0  0
    4.4507    2.1773    0.0581 H   0  0  0  0  0  0  0  0  0  0  0  0
    3.5613    0.6781   -1.3531 C   0  0  0  0  0  0  0  0  0  0  0  0
    3.1584    1.3507   -2.1238 H   0  0  0  0  0  0  0  0  0  0  0  0
    3.5613   -0.6754   -1.3543 C   0  0  0  0  0  0  0  0  0  0  0  0
    3.1585   -1.3467   -2.1262 H   0  0  0  0  0  0  0  0  0  0  0  0
    4.0966   -1.1330   -0.0054 C   0  0  1  0  0  0  0  0  0  0  0  0
    4.4509   -2.1772    0.0541 H   0  0  0  0  0  0  0  0  0  0  0  0
    5.1131   -0.0001    0.2857 C   0  0  0  0  0  0  0  0  0  0  0  0
    5.4888   -0.0011    1.3298 H   0  0  0  0  0  0  0  0  0  0  0  0
    5.9670    0.0006   -0.4205 H   0  0  0  0  0  0  0  0  0  0  0  0
  1  4  2  0  0  0  0
  2  9  2  0  0  0  0
  3  4  1  0  0  0  0
  3  9  1  0  0  0  0
  4  5  1  0  0  0  0
  5  7  1  0  0  0  0
  5  6  1  1  0  0  0
  7  8  1  1  0  0  0
  9  7  1  0  0  0  0
 10 11  1  1  0  0  0
 10 18  1  0  0  0  0
 10  7  1  0  0  0  0
 12 10  1  0  0  0  0
 13 12  1  0  0  0  0
 14 12  2  0  0  0  0
 14 16  1  0  0  0  0
 15 14  1  0  0  0  0
 16 17  1  1  0  0  0
 16 18  1  0  0  0  0
 16  5  1  0  0  0  0
 18 19  1  0  0  0  0
 20 18  1  0  0  0  0
M  END
