37
 OpenBabel05122313063D

 40 43  0  0  1  0  0  0  0  0999 V2000
   -1.7666    1.3338   -1.8215 C   0  0  0  0  0  0  0  0  0  0  0  0
   -1.0441    2.1512   -1.9035 H   0  0  0  0  0  0  0  0  0  0  0  0
   -3.1256    1.3236   -2.1120 C   0  0  0  0  0  0  0  0  0  0  0  0
   -3.7931    2.1117   -2.4720 H   0  0  0  0  0  0  0  0  0  0  0  0
   -2.5140   -0.6706   -1.3459 C   0  0  2  0  0  3  0  0  0  0  0  0
   -4.9773   -0.3516   -1.6871 C   0  0  0  0  0  0  0  0  0  0  0  0
   -4.9587   -1.4568   -1.6002 H   0  0  0  0  0  0  0  0  0  0  0  0
   -5.5170   -0.0869   -2.6178 H   0  0  0  0  0  0  0  0  0  0  0  0
   -5.6397    0.2769   -0.4733 C   0  0  0  0  0  0  0  0  0  0  0  0
   -4.9422    0.3798    0.7485 C   0  0  0  0  0  0  0  0  0  0  0  0
   -3.8988    0.0319    0.8428 H   0  0  0  0  0  0  0  0  0  0  0  0
   -5.5684    0.9487    1.8672 C   0  0  0  0  0  0  0  0  0  0  0  0
   -5.0094    1.0245    2.8124 H   0  0  0  0  0  0  0  0  0  0  0  0
   -6.8907    1.4158    1.7831 C   0  0  0  0  0  0  0  0  0  0  0  0
   -7.3771    1.8631    2.6633 H   0  0  0  0  0  0  0  0  0  0  0  0
   -7.5876    1.3133    0.5695 C   0  0  0  0  0  0  0  0  0  0  0  0
   -8.6220    1.6817    0.4921 H   0  0  0  0  0  0  0  0  0  0  0  0
   -6.9621    0.7501   -0.5541 C   0  0  0  0  0  0  0  0  0  0  0  0
   -7.5089    0.6806   -1.5084 H   0  0  0  0  0  0  0  0  0  0  0  0
   -1.6059   -3.8631   -0.2516 C   0  0  0  0  0  0  0  0  0  0  0  0
   -2.7464   -4.4377    0.3288 C   0  0  0  0  0  0  0  0  0  0  0  0
   -3.6683   -3.8402    0.3636 H   0  0  0  0  0  0  0  0  0  0  0  0
   -2.6895   -5.7352    0.8757 C   0  0  0  0  0  0  0  0  0  0  0  0
   -3.5891   -6.1723    1.3353 H   0  0  0  0  0  0  0  0  0  0  0  0
   -1.5007   -6.4609    0.8492 C   0  0  0  0  0  0  0  0  0  0  0  0
   -1.4589   -7.4727    1.2821 H   0  0  0  0  0  0  0  0  0  0  0  0
   -0.3149   -5.9121    0.2806 C   0  0  0  0  0  0  0  0  0  0  0  0
    0.9159   -6.6337    0.2554 C   0  0  0  0  0  0  0  0  0  0  0  0
    0.9426   -7.6480    0.6833 H   0  0  0  0  0  0  0  0  0  0  0  0
    2.0567   -6.0687   -0.2948 C   0  0  0  0  0  0  0  0  0  0  0  0
    3.0007   -6.6348   -0.3074 H   0  0  0  0  0  0  0  0  0  0  0  0
    2.0113   -4.7586   -0.8433 C   0  0  0  0  0  0  0  0  0  0  0  0
    2.9208   -4.3114   -1.2731 H   0  0  0  0  0  0  0  0  0  0  0  0
    0.8289   -4.0285   -0.8432 C   0  0  0  0  0  0  0  0  0  0  0  0
    0.7938   -3.0108   -1.2612 H   0  0  0  0  0  0  0  0  0  0  0  0
   -0.3551   -4.5854   -0.2815 C   0  0  0  0  0  0  0  0  0  0  0  0
   -1.4110    0.1082   -1.3319 N   0  0  0  0  0  2  0  0  0  0  0  0
   -3.5828    0.0628   -1.8058 N   0  0  0  0  0  0  0  0  0  0  0  0
   -2.6693   -1.9776   -0.9666 N   0  0  0  0  0  2  0  0  0  0  0  0
   -1.5588   -2.5745   -0.7667 N   0  0  0  0  0  2  0  0  0  0  0  0
  1 37  1  0  0  0  0
  2  1  1  0  0  0  0
  3  1  2  0  0  0  0
  3 38  1  0  0  0  0
  4  3  1  0  0  0  0
  5 37  1  0  0  0  0
  5 39  1  1  0  0  0
  6  7  1  0  0  0  0
  6  9  1  0  0  0  0
  8  6  1  0  0  0  0
  9 10  1  0  0  0  0
 10 11  1  0  0  0  0
 10 12  2  0  0  0  0
 12 13  1  0  0  0  0
 14 12  1  0  0  0  0
 14 15  1  0  0  0  0
 16 14  2  0  0  0  0
 17 16  1  0  0  0  0
 18  9  2  0  0  0  0
 18 16  1  0  0  0  0
 19 18  1  0  0  0  0
 20 21  1  0  0  0  0
 21 22  1  0  0  0  0
 21 23  2  0  0  0  0
 23 24  1  0  0  0  0
 25 23  1  0  0  0  0
 25 26  1  0  0  0  0
 27 25  2  0  0  0  0
 28 27  1  0  0  0  0
 28 29  1  0  0  0  0
 30 28  2  0  0  0  0
 31 30  1  0  0  0  0
 32 34  2  0  0  0  0
 32 30  1  0  0  0  0
 33 32  1  0  0  0  0
 34 36  1  0  0  0  0
 35 34  1  0  0  0  0
 36 20  2  0  0  0  0
 36 27  1  0  0  0  0
 38  6  1  0  0  0  0
 38  5  1  0  0  0  0
 39 40  1  0  0  0  0
 40 20  1  0  0  0  0
M  END
