2
 OpenBabel05122313063D

 39 42  0  0  1  0  0  0  0  0999 V2000
    2.9193    0.5421   -0.1262 N   0  0  0  0  0  0  0  0  0  0  0  0
    1.9590   -0.4258   -0.2276 N   0  0  0  0  0  2  0  0  0  0  0  0
    2.5671   -1.6292   -0.1495 C   0  0  0  0  0  3  0  0  0  0  0  0
    3.9461   -1.4316    0.0449 C   0  0  0  0  0  0  0  0  0  0  0  0
    5.3257   -2.0370   -0.0421 C   0  0  1  0  0  0  0  0  0  0  0  0
    5.7953   -1.7397   -1.5033 C   0  0  0  0  0  0  0  0  0  0  0  0
    5.9580   -0.1918   -1.5207 C   0  0  0  0  0  0  0  0  0  0  0  0
    5.6077    0.2640   -0.0551 C   0  0  2  0  0  0  0  0  0  0  0  0
    4.1310   -0.0473    0.0546 C   0  0  0  0  0  0  0  0  0  0  0  0
    6.1140    1.6447    0.3214 C   0  0  0  0  0  0  0  0  0  0  0  0
    6.1531   -0.9795    0.7818 C   0  0  0  0  0  0  0  0  0  0  0  0
    7.6727   -1.1662    0.6841 C   0  0  0  0  0  0  0  0  0  0  0  0
    5.7767   -0.9312    2.2692 C   0  0  0  0  0  0  0  0  0  0  0  0
    2.5685    1.9219   -0.2149 C   0  0  0  0  0  0  0  0  0  0  0  0
    2.9424    2.7986    0.8144 C   0  0  0  0  0  0  0  0  0  0  0  0
    2.5943    4.1532    0.7190 C   0  0  0  0  0  0  0  0  0  0  0  0
    1.8572    4.6163   -0.3827 C   0  0  0  0  0  0  0  0  0  0  0  0
    1.4696    3.7228   -1.3953 C   0  0  0  0  0  0  0  0  0  0  0  0
    1.8256    2.3687   -1.3225 C   0  0  0  0  0  0  0  0  0  0  0  0
    1.9523   -2.5335   -0.2144 H   0  0  0  0  0  0  0  0  0  0  0  0
    5.4397   -3.0900    0.2778 H   0  0  0  0  0  0  0  0  0  0  0  0
    5.0517   -2.0995   -2.2393 H   0  0  0  0  0  0  0  0  0  0  0  0
    6.7528   -2.2523   -1.7231 H   0  0  0  0  0  0  0  0  0  0  0  0
    6.9960    0.1115   -1.7658 H   0  0  0  0  0  0  0  0  0  0  0  0
    5.2931    0.3073   -2.2521 H   0  0  0  0  0  0  0  0  0  0  0  0
    5.8769    1.8947    1.3743 H   0  0  0  0  0  0  0  0  0  0  0  0
    5.6608    2.4281   -0.3180 H   0  0  0  0  0  0  0  0  0  0  0  0
    7.2138    1.7002    0.1946 H   0  0  0  0  0  0  0  0  0  0  0  0
    8.0617   -1.1674   -0.3508 H   0  0  0  0  0  0  0  0  0  0  0  0
    7.9648   -2.1285    1.1521 H   0  0  0  0  0  0  0  0  0  0  0  0
    8.1987   -0.3623    1.2379 H   0  0  0  0  0  0  0  0  0  0  0  0
    4.6898   -0.8014    2.4308 H   0  0  0  0  0  0  0  0  0  0  0  0
    6.3034   -0.0987    2.7793 H   0  0  0  0  0  0  0  0  0  0  0  0
    6.0857   -1.8699    2.7728 H   0  0  0  0  0  0  0  0  0  0  0  0
    3.4678    2.4049    1.6948 H   0  0  0  0  0  0  0  0  0  0  0  0
    2.8796    4.8456    1.5250 H   0  0  0  0  0  0  0  0  0  0  0  0
    1.5758    5.6782   -0.4477 H   0  0  0  0  0  0  0  0  0  0  0  0
    0.8846    4.0798   -2.2561 H   0  0  0  0  0  0  0  0  0  0  0  0
    1.5138    1.6517   -2.0975 H   0  0  0  0  0  0  0  0  0  0  0  0
  1  9  1  0  0  0  0
  2  3  1  0  0  0  0
  2  1  1  0  0  0  0
  3  4  1  0  0  0  0
  4  9  2  0  0  0  0
  5  4  1  0  0  0  0
  5 21  1  1  0  0  0
  5 11  1  0  0  0  0
  6  5  1  0  0  0  0
  7  6  1  0  0  0  0
  7  8  1  0  0  0  0
  8  9  1  0  0  0  0
  8 10  1  1  0  0  0
  8 11  1  0  0  0  0
 10 26  1  0  0  0  0
 11 13  1  0  0  0  0
 12 11  1  0  0  0  0
 12 30  1  0  0  0  0
 12 31  1  0  0  0  0
 13 32  1  0  0  0  0
 13 34  1  0  0  0  0
 13 33  1  0  0  0  0
 14  1  1  0  0  0  0
 14 15  1  0  0  0  0
 15 35  1  0  0  0  0
 16 15  2  0  0  0  0
 16 36  1  0  0  0  0
 17 16  1  0  0  0  0
 18 19  1  0  0  0  0
 18 17  2  0  0  0  0
 19 14  2  0  0  0  0
 20  3  1  0  0  0  0
 22  6  1  0  0  0  0
 23  6  1  0  0  0  0
 24  7  1  0  0  0  0
 25  7  1  0  0  0  0
 27 10  1  0  0  0  0
 28 10  1  0  0  0  0
 29 12  1  0  0  0  0
 37 17  1  0  0  0  0
 38 18  1  0  0  0  0
 39 19  1  0  0  0  0
M  END
