1
 OpenBabel05122313063D

 17 18  0  0  1  0  0  0  0  0999 V2000
   -1.6461    0.6404   -0.1268 N   0  0  0  0  0  2  0  0  0  0  0  0
   -2.1717   -0.2654    0.6906 C   0  0  0  0  0  0  0  0  0  0  0  0
   -1.7123   -0.3256    1.6953 H   0  0  0  0  0  0  0  0  0  0  0  0
   -3.2683   -1.0883    0.3147 C   0  0  0  0  0  0  0  0  0  0  0  0
   -3.8285   -2.0580    1.1951 C   0  0  0  0  0  0  0  0  0  0  0  0
   -3.4004   -2.1725    2.2028 H   0  0  0  0  0  0  0  0  0  0  0  0
   -4.8966   -2.8381    0.7801 C   0  0  0  0  0  0  0  0  0  0  0  0
   -5.3307   -3.5870    1.4591 H   0  0  0  0  0  0  0  0  0  0  0  0
   -5.4399   -2.6747   -0.5248 C   0  0  0  0  0  0  0  0  0  0  0  0
   -6.2885   -3.3016   -0.8382 H   0  0  0  0  0  0  0  0  0  0  0  0
   -4.9156   -1.7361   -1.4018 C   0  0  0  0  0  0  0  0  0  0  0  0
   -5.3402   -1.6099   -2.4094 H   0  0  0  0  0  0  0  0  0  0  0  0
   -3.8181   -0.9186   -1.0062 C   0  0  1  0  0  3  0  0  0  0  0  0
   -3.2304    0.0738   -1.8430 C   0  0  0  0  0  0  0  0  0  0  0  0
   -3.6275    0.2472   -2.8543 H   0  0  0  0  0  0  0  0  0  0  0  0
   -2.1666    0.8245   -1.3771 C   0  0  0  0  0  0  0  0  0  0  0  0
   -1.6857    1.6285   -1.9598 H   0  0  0  0  0  0  0  0  0  0  0  0
  1  2  1  0  0  0  0
  2  3  1  0  0  0  0
  4  2  2  0  0  0  0
  4  5  1  0  0  0  0
  5  6  1  0  0  0  0
  7  5  2  0  0  0  0
  7  8  1  0  0  0  0
  9  7  1  0  0  0  0
 10  9  1  0  0  0  0
 11 13  1  0  0  0  0
 11  9  2  0  0  0  0
 12 11  1  0  0  0  0
 13 14  1  1  0  0  0
 13  4  1  0  0  0  0
 14 16  2  0  0  0  0
 15 14  1  0  0  0  0
 16  1  1  0  0  0  0
 17 16  1  0  0  0  0
M  END
