1
 OpenBabel05122313063D

 12 13  0  0  0  0  0  0  0  0999 V2000
   -1.8564    0.5747   -0.1627 N   0  0  0  0  0  0  0  0  0  0  0  0
   -2.0203    1.9307   -0.2557 N   0  0  0  0  0  0  0  0  0  0  0  0
   -3.0984    0.0347   -0.1195 C   0  0  0  0  0  3  0  0  0  0  0  0
   -3.2850    2.2721   -0.2951 N   0  0  0  0  0  0  0  0  0  0  0  0
   -3.4360   -1.2918    0.0141 N   0  0  0  0  0  0  0  0  0  0  0  0
   -4.0050    1.1180   -0.2197 C   0  0  0  0  0  0  0  0  0  0  0  0
   -4.7305   -1.5084    0.0177 C   0  0  0  0  0  0  0  0  0  0  0  0
   -5.4403    0.8908   -0.2239 C   0  0  0  0  0  0  0  0  0  0  0  0
   -5.6752   -0.5337   -0.1043 N   0  0  0  0  0  0  0  0  0  0  0  0
   -5.1039   -2.5404    0.1322 H   0  0  0  0  0  0  0  0  0  0  0  0
   -6.3822    1.6588   -0.3053 O   0  0  0  0  0  0  0  0  0  0  0  0
   -6.6671   -0.7919   -0.0950 H   0  0  0  0  0  0  0  0  0  0  0  0
  1  3  1  0  0  0  0
  2  1  2  0  0  0  0
  3  5  1  0  0  0  0
  4  2  1  0  0  0  0
  4  6  2  0  0  0  0
  5  7  2  0  0  0  0
  6  3  1  0  0  0  0
  7 10  1  0  0  0  0
  8  6  1  0  0  0  0
  8  9  1  0  0  0  0
  9 12  1  0  0  0  0
  9  7  1  0  0  0  0
 11  8  2  0  0  0  0
M  END
