1
 OpenBabel05122313063D

 13 13  0  0  1  0  0  0  0  0999 V2000
    1.3691    0.0893    0.0098 N   0  0  0  0  0  2  0  0  0  0  0  0
    3.8096    0.9675   -0.0027 S   0  0  0  0  0  0  0  0  0  0  0  0
    2.0729    1.2195    0.0038 C   0  0  2  0  0  3  0  0  0  0  0  0
    2.2053   -1.0215    0.0111 C   0  0  0  0  0  0  0  0  0  0  0  0
    1.7545   -2.0220    0.0150 H   0  0  0  0  0  0  0  0  0  0  0  0
    3.5521   -0.7795    0.0018 C   0  0  0  0  0  0  0  0  0  0  0  0
    1.5262    2.4599    0.0449 N   0  0  0  0  0  0  0  0  0  0  0  0
    0.5161    2.5115   -0.1177 H   0  0  0  0  0  0  0  0  0  0  0  0
    2.0916    3.2733   -0.1899 H   0  0  0  0  0  0  0  0  0  0  0  0
    4.6942   -1.7409   -0.0056 C   0  0  0  0  0  0  0  0  0  0  0  0
    4.3033   -2.7766   -0.0015 H   0  0  0  0  0  0  0  0  0  0  0  0
    5.3467   -1.6210    0.8845 H   0  0  0  0  0  0  0  0  0  0  0  0
    5.3332   -1.6229   -0.9056 H   0  0  0  0  0  0  0  0  0  0  0  0
  1  4  1  0  0  0  0
  2  6  1  0  0  0  0
  2  3  1  0  0  0  0
  3  1  1  0  0  0  0
  3  7  1  1  0  0  0
  4  5  1  0  0  0  0
  6  4  2  0  0  0  0
  8  7  1  0  0  0  0
  9  7  1  0  0  0  0
 10 11  1  0  0  0  0
 10  6  1  0  0  0  0
 10 12  1  0  0  0  0
 13 10  1  0  0  0  0
M  END
