1
 OpenBabel05122313063D

 25 26  0  0  0  0  0  0  0  0999 V2000
    0.3358   -1.9845   -0.1797 N   0  0  0  0  0  2  0  0  0  0  0  0
   -0.5973   -2.8966   -0.1652 C   0  0  0  0  0  3  0  0  0  0  0  0
   -2.0098   -2.6690   -0.1400 C   0  0  0  0  0  0  0  0  0  0  0  0
   -2.7464   -1.0810   -0.1269 S   0  0  0  0  0  0  0  0  0  0  0  0
   -4.3463   -1.7687   -0.1189 C   0  0  0  0  0  0  0  0  0  0  0  0
   -5.5450   -0.8751   -0.0832 C   0  0  0  0  0  0  0  0  0  0  0  0
   -5.6666   -0.4047    0.9158 H   0  0  0  0  0  0  0  0  0  0  0  0
   -6.4634   -1.4520   -0.3043 H   0  0  0  0  0  0  0  0  0  0  0  0
   -5.4615   -0.0469   -0.8155 H   0  0  0  0  0  0  0  0  0  0  0  0
   -4.3049   -3.1622   -0.1268 C   0  0  0  0  0  0  0  0  0  0  0  0
   -2.9866   -3.6731   -0.1391 C   0  0  0  0  0  0  0  0  0  0  0  0
   -2.7326   -4.7425   -0.1494 H   0  0  0  0  0  0  0  0  0  0  0  0
   -5.2109   -3.7845   -0.1252 H   0  0  0  0  0  0  0  0  0  0  0  0
   -0.2795   -3.9580   -0.1910 H   0  0  0  0  0  0  0  0  0  0  0  0
    1.7091   -2.3569   -0.1580 C   0  0  0  0  0  0  0  0  0  0  0  0
    2.5437   -1.9780   -1.2290 C   0  0  0  0  0  0  0  0  0  0  0  0
    3.9006   -2.3230   -1.1945 C   0  0  0  0  0  0  0  0  0  0  0  0
    4.4332   -3.0198   -0.0949 C   0  0  0  0  0  0  0  0  0  0  0  0
    3.5985   -3.3760    0.9763 C   0  0  0  0  0  0  0  0  0  0  0  0
    2.2347   -3.0476    0.9508 C   0  0  0  0  0  0  0  0  0  0  0  0
    1.5745   -3.2769    1.7994 H   0  0  0  0  0  0  0  0  0  0  0  0
    4.0122   -3.9062    1.8475 H   0  0  0  0  0  0  0  0  0  0  0  0
    5.5022   -3.2807   -0.0712 H   0  0  0  0  0  0  0  0  0  0  0  0
    4.5507   -2.0419   -2.0373 H   0  0  0  0  0  0  0  0  0  0  0  0
    2.1025   -1.4053   -2.0594 H   0  0  0  0  0  0  0  0  0  0  0  0
  1  2  1  0  0  0  0
  1 15  1  0  0  0  0
  2  3  1  0  0  0  0
  3 11  2  0  0  0  0
  3  4  1  0  0  0  0
  4  5  1  0  0  0  0
  5  6  1  0  0  0  0
  6  7  1  0  0  0  0
  8  6  1  0  0  0  0
  9  6  1  0  0  0  0
 10 13  1  0  0  0  0
 10  5  2  0  0  0  0
 11 10  1  0  0  0  0
 12 11  1  0  0  0  0
 14  2  1  0  0  0  0
 15 20  1  0  0  0  0
 16 17  1  0  0  0  0
 16 15  2  0  0  0  0
 17 18  2  0  0  0  0
 18 23  1  0  0  0  0
 18 19  1  0  0  0  0
 19 22  1  0  0  0  0
 20 19  2  0  0  0  0
 20 21  1  0  0  0  0
 24 17  1  0  0  0  0
 25 16  1  0  0  0  0
M  END
