1
 OpenBabel05122313063D

 17 18  0  0  1  0  0  0  0  0999 V2000
   -0.6710   -0.8745   -0.1254 N   0  0  0  0  0  2  0  0  0  0  0  0
   -1.8592   -0.2669   -0.0814 C   0  0  1  0  0  3  0  0  0  0  0  0
   -2.2766   -2.4686   -0.0819 N   0  0  0  0  0  0  0  0  0  0  0  0
   -2.1490    1.0525   -0.0780 N   0  0  0  0  0  0  0  0  0  0  0  0
   -1.3241    1.6871   -0.2616 H   0  0  0  0  0  0  0  0  0  0  0  0
   -0.9774   -2.2154   -0.1293 C   0  0  0  0  0  0  0  0  0  0  0  0
   -0.1868   -2.9732   -0.1477 H   0  0  0  0  0  0  0  0  0  0  0  0
   -4.4690    0.5181    0.0350 C   0  0  0  0  0  0  0  0  0  0  0  0
   -5.5151    0.8441    0.0895 H   0  0  0  0  0  0  0  0  0  0  0  0
   -3.6697    2.9402   -0.0197 C   0  0  0  0  0  0  0  0  0  0  0  0
   -4.7459    3.1874   -0.0039 H   0  0  0  0  0  0  0  0  0  0  0  0
   -3.2054    3.4011   -0.9163 H   0  0  0  0  0  0  0  0  0  0  0  0
   -3.1793    3.3944    0.8663 H   0  0  0  0  0  0  0  0  0  0  0  0
   -3.4551    1.4567   -0.0231 C   0  0  0  0  0  0  0  0  0  0  0  0
   -2.8375   -1.2231   -0.0492 N   0  0  0  0  0  0  0  0  0  0  0  0
   -5.0915   -1.8085    0.0454 O   0  0  0  0  0  0  0  0  0  0  0  0
   -4.2531   -0.9232    0.0157 C   0  0  0  0  0  0  0  0  0  0  0  0
  2  1  1  6  0  0  0
  2  4  1  0  0  0  0
  2 15  1  0  0  0  0
  3 15  1  0  0  0  0
  4 14  1  0  0  0  0
  5  4  1  0  0  0  0
  6  1  1  0  0  0  0
  6  3  2  0  0  0  0
  7  6  1  0  0  0  0
  8  9  1  0  0  0  0
 10 11  1  0  0  0  0
 10 13  1  0  0  0  0
 12 10  1  0  0  0  0
 14 10  1  0  0  0  0
 14  8  2  0  0  0  0
 15 17  1  0  0  0  0
 17  8  1  0  0  0  0
 17 16  2  0  0  0  0
M  END
