2
 OpenBabel05122313063D

 27 27  0  0  0  0  0  0  0  0999 V2000
   -2.3534   -0.1773    1.1313 N   0  0  0  0  0  0  0  0  0  0  0  0
   -1.6647    0.4450   -0.9353 N   0  0  0  0  0  2  0  0  0  0  0  0
   -2.6939    0.4305   -0.0595 C   0  0  0  0  0  0  0  0  0  0  0  0
   -4.0159    0.9681   -0.2181 C   0  0  0  0  0  0  0  0  0  0  0  0
   -4.2970    1.5064   -1.1320 H   0  0  0  0  0  0  0  0  0  0  0  0
   -4.9658    0.8180    0.7957 C   0  0  0  0  0  0  0  0  0  0  0  0
   -4.5942    0.1442    1.9855 C   0  0  0  0  0  0  0  0  0  0  0  0
   -5.3093   -0.0000    2.8087 H   0  0  0  0  0  0  0  0  0  0  0  0
   -3.2760   -0.3130    2.0900 C   0  0  0  0  0  0  0  0  0  0  0  0
   -2.9340   -0.8162    3.0140 H   0  0  0  0  0  0  0  0  0  0  0  0
   -6.3621    1.3635    0.6338 C   0  0  0  0  0  0  0  0  0  0  0  0
   -6.6203    2.0547    1.4632 H   0  0  0  0  0  0  0  0  0  0  0  0
   -7.1122    0.5450    0.6587 H   0  0  0  0  0  0  0  0  0  0  0  0
   -6.4845    1.9095   -0.3218 H   0  0  0  0  0  0  0  0  0  0  0  0
   -1.6330    1.0928   -2.2509 C   0  0  0  0  0  0  0  0  0  0  0  0
   -1.7630    2.6286   -2.1237 C   0  0  0  0  0  0  0  0  0  0  0  0
   -2.7043    2.9207   -1.6189 H   0  0  0  0  0  0  0  0  0  0  0  0
   -1.7452    3.1129   -3.1220 H   0  0  0  0  0  0  0  0  0  0  0  0
   -0.9217    3.0333   -1.5271 H   0  0  0  0  0  0  0  0  0  0  0  0
   -0.2696    0.7702   -2.8925 C   0  0  0  0  0  0  0  0  0  0  0  0
    0.5628    1.1443   -2.2680 H   0  0  0  0  0  0  0  0  0  0  0  0
   -0.1968    1.2392   -3.8949 H   0  0  0  0  0  0  0  0  0  0  0  0
   -0.1372   -0.3238   -3.0056 H   0  0  0  0  0  0  0  0  0  0  0  0
   -2.7234    0.5273   -3.1926 C   0  0  0  0  0  0  0  0  0  0  0  0
   -3.7493    0.7058   -2.8227 H   0  0  0  0  0  0  0  0  0  0  0  0
   -2.5956   -0.5673   -3.3108 H   0  0  0  0  0  0  0  0  0  0  0  0
   -2.6403    0.9906   -4.1969 H   0  0  0  0  0  0  0  0  0  0  0  0
  1  9  1  0  0  0  0
  2  3  1  0  0  0  0
  3  1  2  0  0  0  0
  4  3  1  0  0  0  0
  4  6  2  0  0  0  0
  5  4  1  0  0  0  0
  6  7  1  0  0  0  0
  7  9  2  0  0  0  0
  7  8  1  0  0  0  0
  9 10  1  0  0  0  0
 11 13  1  0  0  0  0
 11  6  1  0  0  0  0
 11 12  1  0  0  0  0
 14 11  1  0  0  0  0
 15 16  1  0  0  0  0
 15  2  1  0  0  0  0
 16 17  1  0  0  0  0
 16 19  1  0  0  0  0
 18 16  1  0  0  0  0
 20 21  1  0  0  0  0
 20 15  1  0  0  0  0
 22 20  1  0  0  0  0
 23 20  1  0  0  0  0
 24 25  1  0  0  0  0
 24 15  1  0  0  0  0
 26 24  1  0  0  0  0
 27 24  1  0  0  0  0
M  END
