1
 OpenBabel05122313063D

 21 22  0  0  0  0  0  0  0  0999 V2000
   -0.8531   -1.2079   -0.1583 N   0  0  0  0  0  2  0  0  0  0  0  0
   -1.6449   -1.6485    0.8500 C   0  0  0  0  0  3  0  0  0  0  0  0
   -1.1437   -2.2484    1.6216 H   0  0  0  0  0  0  0  0  0  0  0  0
   -3.0043   -1.3475    0.9042 C   0  0  0  0  0  0  0  0  0  0  0  0
   -3.5798   -1.6879    1.7761 H   0  0  0  0  0  0  0  0  0  0  0  0
   -3.6105   -0.5790   -0.1170 C   0  0  0  0  0  0  0  0  0  0  0  0
   -2.7757   -0.1997   -1.1938 C   0  0  0  0  0  0  0  0  0  0  0  0
   -3.1746    0.3474   -2.0582 H   0  0  0  0  0  0  0  0  0  0  0  0
   -1.4236   -0.5256   -1.1806 C   0  0  0  0  0  0  0  0  0  0  0  0
   -0.7521   -0.2337   -1.9984 H   0  0  0  0  0  0  0  0  0  0  0  0
   -5.0246   -0.1804   -0.0599 C   0  0  0  0  0  0  0  0  0  0  0  0
   -5.9939   -0.9179    0.6619 C   0  0  0  0  0  0  0  0  0  0  0  0
   -5.7213   -1.8483    1.1806 H   0  0  0  0  0  0  0  0  0  0  0  0
   -7.3197   -0.5217    0.7099 C   0  0  0  0  0  0  0  0  0  0  0  0
   -8.1181   -1.0592    1.2369 H   0  0  0  0  0  0  0  0  0  0  0  0
   -6.8261    1.3655   -0.6468 C   0  0  0  0  0  0  0  0  0  0  0  0
   -7.2489    2.2609   -1.1196 H   0  0  0  0  0  0  0  0  0  0  0  0
   -5.4976    0.9820   -0.7164 C   0  0  0  0  0  0  0  0  0  0  0  0
   -4.8053    1.6312   -1.2718 H   0  0  0  0  0  0  0  0  0  0  0  0
   -7.7635    0.6246    0.0622 N   0  3  0  0  0  0  0  0  0  0  0  0
   -8.9700    0.9801    0.1171 O   0  5  0  0  0  0  0  0  0  0  0  0
  1  2  1  0  0  0  0
  2  4  1  0  0  0  0
  2  3  1  0  0  0  0
  4  5  1  0  0  0  0
  6 11  1  0  0  0  0
  6  4  2  0  0  0  0
  7  9  2  0  0  0  0
  7  6  1  0  0  0  0
  8  7  1  0  0  0  0
  9  1  1  0  0  0  0
 10  9  1  0  0  0  0
 11 12  1  0  0  0  0
 12 14  2  0  0  0  0
 12 13  1  0  0  0  0
 14 15  1  0  0  0  0
 16 20  2  0  0  0  0
 17 16  1  0  0  0  0
 18 16  1  0  0  0  0
 18 11  2  0  0  0  0
 19 18  1  0  0  0  0
 20 21  1  0  0  0  0
 20 14  1  0  0  0  0
M  CHG  2  20   1  21  -1
M  END
