2
 OpenBabel05122313063D

 39 41  0  0  1  0  0  0  0  0999 V2000
   -3.4805    2.0482   -1.7690 O   0  0  0  0  0  0  0  0  0  0  0  0
   -1.8344   -0.8139   -0.2182 N   0  0  0  0  0  2  0  0  0  0  0  0
   -2.9798   -0.1357    0.0299 N   0  0  0  0  0  0  0  0  0  0  0  0
   -6.0018    0.5696   -0.4143 C   0  0  0  0  0  0  0  0  0  0  0  0
   -5.3615    1.1891   -1.0615 H   0  0  0  0  0  0  0  0  0  0  0  0
   -7.3523    0.8959   -0.2252 C   0  0  0  0  0  0  0  0  0  0  0  0
   -7.7662    1.7888   -0.7182 H   0  0  0  0  0  0  0  0  0  0  0  0
   -8.1783    0.0873    0.5715 C   0  0  0  0  0  0  0  0  0  0  0  0
   -9.2380    0.3485    0.7134 H   0  0  0  0  0  0  0  0  0  0  0  0
   -7.6469   -1.0592    1.1841 C   0  0  0  0  0  0  0  0  0  0  0  0
   -8.2868   -1.6975    1.8121 H   0  0  0  0  0  0  0  0  0  0  0  0
   -6.2973   -1.3893    1.0072 C   0  0  0  0  0  0  0  0  0  0  0  0
   -5.8742   -2.2761    1.5025 H   0  0  0  0  0  0  0  0  0  0  0  0
   -5.4576   -0.5772    0.2105 C   0  0  0  0  0  0  0  0  0  0  0  0
   -4.0573   -0.9854    0.0152 C   0  0  1  0  0  3  0  0  0  0  0  0
   -3.5484   -2.2671   -0.2322 C   0  0  0  0  0  0  0  0  0  0  0  0
   -4.1295   -3.1841   -0.3653 H   0  0  0  0  0  0  0  0  0  0  0  0
   -2.1521   -2.1193   -0.3813 C   0  0  0  0  0  0  0  0  0  0  0  0
   -1.1482   -3.1644   -0.6526 C   0  0  0  0  0  0  0  0  0  0  0  0
   -1.1730   -4.3596    0.0980 C   0  0  0  0  0  0  0  0  0  0  0  0
   -1.9209   -4.4777    0.8966 H   0  0  0  0  0  0  0  0  0  0  0  0
   -0.2363   -5.3730   -0.1491 C   0  0  0  0  0  0  0  0  0  0  0  0
   -0.2590   -6.2955    0.4507 H   0  0  0  0  0  0  0  0  0  0  0  0
    0.7307   -5.2091   -1.1541 C   0  0  0  0  0  0  0  0  0  0  0  0
    1.4640   -6.0063   -1.3502 H   0  0  0  0  0  0  0  0  0  0  0  0
    0.7538   -4.0257   -1.9108 C   0  0  0  0  0  0  0  0  0  0  0  0
    1.5014   -3.8953   -2.7086 H   0  0  0  0  0  0  0  0  0  0  0  0
   -0.1770   -3.0059   -1.6655 C   0  0  0  0  0  0  0  0  0  0  0  0
   -0.1624   -2.0780   -2.2581 H   0  0  0  0  0  0  0  0  0  0  0  0
   -2.9368    1.2689    0.4292 C   0  0  0  0  0  0  0  0  0  0  0  0
   -2.1967    1.3592    1.2501 H   0  0  0  0  0  0  0  0  0  0  0  0
   -3.9379    1.5084    0.8322 H   0  0  0  0  0  0  0  0  0  0  0  0
   -2.5618    2.2092   -0.7079 C   0  0  0  0  0  0  0  0  0  0  0  0
   -2.5622    3.2541   -0.3102 H   0  0  0  0  0  0  0  0  0  0  0  0
   -1.5241    1.9876   -1.0483 H   0  0  0  0  0  0  0  0  0  0  0  0
   -3.0241    2.6175   -2.9805 C   0  0  0  0  0  0  0  0  0  0  0  0
   -3.7908    2.4122   -3.7525 H   0  0  0  0  0  0  0  0  0  0  0  0
   -2.0548    2.1680   -3.2956 H   0  0  0  0  0  0  0  0  0  0  0  0
   -2.8910    3.7234   -2.8959 H   0  0  0  0  0  0  0  0  0  0  0  0
  1 33  1  0  0  0  0
  2  3  1  0  0  0  0
  3 30  1  0  0  0  0
  4  6  2  0  0  0  0
  4 14  1  0  0  0  0
  5  4  1  0  0  0  0
  6  8  1  0  0  0  0
  7  6  1  0  0  0  0
  8  9  1  0  0  0  0
  8 10  2  0  0  0  0
 10 11  1  0  0  0  0
 12 10  1  0  0  0  0
 12 13  1  0  0  0  0
 14 12  2  0  0  0  0
 15  3  1  0  0  0  0
 15 14  1  6  0  0  0
 16 15  1  0  0  0  0
 17 16  1  0  0  0  0
 18 16  2  0  0  0  0
 18  2  1  0  0  0  0
 19 18  1  0  0  0  0
 19 20  1  0  0  0  0
 20 21  1  0  0  0  0
 22 20  2  0  0  0  0
 22 23  1  0  0  0  0
 24 22  1  0  0  0  0
 25 24  1  0  0  0  0
 26 28  1  0  0  0  0
 26 24  2  0  0  0  0
 27 26  1  0  0  0  0
 28 19  2  0  0  0  0
 29 28  1  0  0  0  0
 30 32  1  0  0  0  0
 30 31  1  0  0  0  0
 33 34  1  0  0  0  0
 33 30  1  0  0  0  0
 35 33  1  0  0  0  0
 36 39  1  0  0  0  0
 36  1  1  0  0  0  0
 37 36  1  0  0  0  0
 38 36  1  0  0  0  0
M  END
