1
 OpenBabel05122313063D

 18 18  0  0  1  0  0  0  0  0999 V2000
    2.0342    0.1038    0.0706 N   0  0  0  0  0  2  0  0  0  0  0  0
    6.8522   -0.8046    0.8410 O   0  0  0  0  0  0  0  0  0  0  0  0
    7.8133   -0.8672    0.6995 H   0  0  0  0  0  0  0  0  0  0  0  0
    6.3575    0.1878   -0.0420 C   0  0  2  0  0  0  0  0  0  0  0  0
    6.6855    1.2077    0.2849 H   0  0  0  0  0  0  0  0  0  0  0  0
    4.8433    0.1671    0.0217 C   0  0  0  0  0  0  0  0  0  0  0  0
    4.1509   -0.9064    0.6046 C   0  0  0  0  0  0  0  0  0  0  0  0
    4.7093   -1.7357    1.0574 H   0  0  0  0  0  0  0  0  0  0  0  0
    2.7535   -0.9104    0.6043 C   0  0  0  0  0  3  0  0  0  0  0  0
    2.1671   -1.7489    1.0055 H   0  0  0  0  0  0  0  0  0  0  0  0
    2.6862    1.1550   -0.4817 C   0  0  0  0  0  0  0  0  0  0  0  0
    2.0476    1.9688   -0.8528 H   0  0  0  0  0  0  0  0  0  0  0  0
    4.0793    1.2130   -0.5273 C   0  0  0  0  0  0  0  0  0  0  0  0
    4.5600    2.0908   -0.9852 H   0  0  0  0  0  0  0  0  0  0  0  0
    6.8493   -0.0408   -1.4789 C   0  0  0  0  0  0  0  0  0  0  0  0
    7.9582    0.0041   -1.5196 H   0  0  0  0  0  0  0  0  0  0  0  0
    6.4576    0.7288   -2.1731 H   0  0  0  0  0  0  0  0  0  0  0  0
    6.5205   -1.0367   -1.8366 H   0  0  0  0  0  0  0  0  0  0  0  0
  1  9  1  0  0  0  0
  3  2  1  0  0  0  0
  4  6  1  0  0  0  0
  4  5  1  1  0  0  0
  4  2  1  0  0  0  0
  6  7  2  0  0  0  0
  7  8  1  0  0  0  0
  9  7  1  0  0  0  0
  9 10  1  0  0  0  0
 11  1  1  0  0  0  0
 12 11  1  0  0  0  0
 13 11  2  0  0  0  0
 13  6  1  0  0  0  0
 14 13  1  0  0  0  0
 15  4  1  0  0  0  0
 16 15  1  0  0  0  0
 17 15  1  0  0  0  0
 18 15  1  0  0  0  0
M  END
