3
 OpenBabel05122313063D

 20 20  0  0  0  0  0  0  0  0999 V2000
    5.1232    2.8535    0.8484 O   0  0  0  0  0  0  0  0  0  0  0  0
    5.3315    2.5915   -1.4047 O   0  0  0  0  0  0  0  0  0  0  0  0
    1.5375   -0.4796   -0.1011 N   0  0  0  0  0  2  0  0  0  0  0  0
    1.9553    0.1609    1.0138 C   0  0  0  0  0  3  0  0  0  0  0  0
    1.4263   -0.0827    1.9467 H   0  0  0  0  0  0  0  0  0  0  0  0
    3.0047    1.0811    0.9975 C   0  0  0  0  0  0  0  0  0  0  0  0
    3.3223    1.5814    1.9216 H   0  0  0  0  0  0  0  0  0  0  0  0
    3.6489    1.3537   -0.2228 C   0  0  0  0  0  0  0  0  0  0  0  0
    3.2073    0.6853   -1.3771 C   0  0  0  0  0  0  0  0  0  0  0  0
    3.7002    0.8812   -2.3397 H   0  0  0  0  0  0  0  0  0  0  0  0
    2.1538   -0.2256   -1.2793 C   0  0  0  0  0  0  0  0  0  0  0  0
    1.7478   -0.7855   -2.1377 H   0  0  0  0  0  0  0  0  0  0  0  0
    4.7864    2.3250   -0.3482 C   0  0  0  0  0  0  0  0  0  0  0  0
    6.2087    3.8138    0.8461 C   0  0  0  0  0  0  0  0  0  0  0  0
    6.6268    3.7584    1.8696 H   0  0  0  0  0  0  0  0  0  0  0  0
    6.9737    3.4771    0.1178 H   0  0  0  0  0  0  0  0  0  0  0  0
    5.7139    5.2110    0.5128 C   0  0  0  0  0  0  0  0  0  0  0  0
    5.3275    5.2538   -0.5239 H   0  0  0  0  0  0  0  0  0  0  0  0
    6.5499    5.9342    0.5963 H   0  0  0  0  0  0  0  0  0  0  0  0
    4.9126    5.5278    1.2095 H   0  0  0  0  0  0  0  0  0  0  0  0
  2 13  2  0  0  0  0
  3  4  1  0  0  0  0
  4  5  1  0  0  0  0
  6  4  1  0  0  0  0
  6  7  1  0  0  0  0
  8  6  2  0  0  0  0
  9 11  2  0  0  0  0
  9  8  1  0  0  0  0
 10  9  1  0  0  0  0
 11  3  1  0  0  0  0
 12 11  1  0  0  0  0
 13  8  1  0  0  0  0
 13  1  1  0  0  0  0
 14  1  1  0  0  0  0
 14 15  1  0  0  0  0
 16 14  1  0  0  0  0
 17 19  1  0  0  0  0
 17 14  1  0  0  0  0
 17 20  1  0  0  0  0
 18 17  1  0  0  0  0
M  END
