1
 OpenBabel05122313063D

 33 33  0  0  1  0  0  0  0  0999 V2000
    1.2524   -0.0081    0.2615 N   0  0  0  0  0  2  0  0  0  0  0  0
   -3.8310    0.1527    0.0488 N   0  0  0  0  0  0  0  0  0  0  0  0
   -3.5097    0.1011   -0.9236 H   0  0  0  0  0  0  0  0  0  0  0  0
   -3.3329   -0.2356    2.2526 O   0  0  0  0  0  0  0  0  0  0  0  0
   -5.2123   -0.7945   -2.0513 O   0  0  0  0  0  0  0  0  0  0  0  0
   -6.9148   -1.4173   -0.6907 O   0  0  0  0  0  0  0  0  0  0  0  0
    0.7682   -0.5319    1.4128 C   0  0  0  0  0  3  0  0  0  0  0  0
    1.5119   -0.9731    2.0922 H   0  0  0  0  0  0  0  0  0  0  0  0
   -0.5995   -0.5370    1.6837 C   0  0  0  0  0  0  0  0  0  0  0  0
   -0.9905   -0.9384    2.6292 H   0  0  0  0  0  0  0  0  0  0  0  0
   -1.4998   -0.0201    0.7363 C   0  0  0  0  0  0  0  0  0  0  0  0
   -0.9726    0.5221   -0.4497 C   0  0  0  0  0  0  0  0  0  0  0  0
   -1.6119    0.9788   -1.2186 H   0  0  0  0  0  0  0  0  0  0  0  0
    0.4091    0.5205   -0.6534 C   0  0  0  0  0  0  0  0  0  0  0  0
    0.8794    0.9771   -1.5367 H   0  0  0  0  0  0  0  0  0  0  0  0
   -2.9717   -0.0493    1.0901 C   0  0  0  0  0  0  0  0  0  0  0  0
   -5.2720    0.0674    0.2100 C   0  0  1  0  0  0  0  0  0  0  0  0
   -5.4769   -0.4585    1.1657 H   0  0  0  0  0  0  0  0  0  0  0  0
   -5.9553    1.4726    0.2618 C   0  0  0  0  0  0  0  0  0  0  0  0
   -5.8220    1.9256   -0.7474 H   0  0  0  0  0  0  0  0  0  0  0  0
   -7.4552    1.3625    0.5578 C   0  0  0  0  0  0  0  0  0  0  0  0
   -7.6258    0.8868    1.5462 H   0  0  0  0  0  0  0  0  0  0  0  0
   -7.9985    0.7647   -0.1979 H   0  0  0  0  0  0  0  0  0  0  0  0
   -7.9121    2.3715    0.5884 H   0  0  0  0  0  0  0  0  0  0  0  0
   -5.2587    2.3701    1.2911 C   0  0  0  0  0  0  0  0  0  0  0  0
   -5.7538    3.3608    1.3297 H   0  0  0  0  0  0  0  0  0  0  0  0
   -4.1937    2.5364    1.0391 H   0  0  0  0  0  0  0  0  0  0  0  0
   -5.2999    1.9208    2.3038 H   0  0  0  0  0  0  0  0  0  0  0  0
   -5.7787   -0.7590   -0.9706 C   0  0  0  0  0  0  0  0  0  0  0  0
   -7.4778   -2.1758   -1.7761 C   0  0  0  0  0  0  0  0  0  0  0  0
   -7.7335   -1.5112   -2.6251 H   0  0  0  0  0  0  0  0  0  0  0  0
   -8.3853   -2.6559   -1.3713 H   0  0  0  0  0  0  0  0  0  0  0  0
   -6.7570   -2.9385   -2.1309 H   0  0  0  0  0  0  0  0  0  0  0  0
  1  7  1  0  0  0  0
  2 17  1  0  0  0  0
  2 16  1  0  0  0  0
  3  2  1  0  0  0  0
  5 29  2  0  0  0  0
  7  9  1  0  0  0  0
  7  8  1  0  0  0  0
  9 10  1  0  0  0  0
 11 16  1  0  0  0  0
 11  9  2  0  0  0  0
 12 11  1  0  0  0  0
 13 12  1  0  0  0  0
 14 12  2  0  0  0  0
 14  1  1  0  0  0  0
 15 14  1  0  0  0  0
 16  4  2  0  0  0  0
 17 19  1  0  0  0  0
 17 18  1  1  0  0  0
 19 21  1  0  0  0  0
 19 25  1  0  0  0  0
 20 19  1  0  0  0  0
 21 24  1  0  0  0  0
 21 22  1  0  0  0  0
 23 21  1  0  0  0  0
 25 26  1  0  0  0  0
 25 28  1  0  0  0  0
 27 25  1  0  0  0  0
 29  6  1  0  0  0  0
 29 17  1  0  0  0  0
 30 32  1  0  0  0  0
 30  6  1  0  0  0  0
 31 30  1  0  0  0  0
 33 30  1  0  0  0  0
M  END
