1
 OpenBabel05122313063D

 19 19  0  0  0  0  0  0  0  0999 V2000
   -1.4941   -1.5381    0.0512 N   0  0  0  0  0  2  0  0  0  0  0  0
   -2.8181   -1.1433    0.1990 C   0  0  0  0  0  0  0  0  0  0  0  0
   -3.2338   -0.4634    1.3876 C   0  0  0  0  0  0  0  0  0  0  0  0
   -4.5884   -0.1322    1.5331 C   0  0  0  0  0  0  0  0  0  0  0  0
   -5.5306   -0.4598    0.5465 C   0  0  0  0  0  0  0  0  0  0  0  0
   -5.1224   -1.1317   -0.6149 C   0  0  0  0  0  0  0  0  0  0  0  0
   -3.7767   -1.4718   -0.8176 C   0  0  0  0  0  0  0  0  0  0  0  0
   -2.2350   -0.0952    2.4433 C   0  0  0  0  0  0  0  0  0  0  0  0
   -3.3459   -2.1884   -2.0726 C   0  0  0  0  0  0  0  0  0  0  0  0
   -1.4145   -2.0558   -0.8372 H   0  0  0  0  0  0  0  0  0  0  0  0
   -1.6213    0.7737    2.1175 H   0  0  0  0  0  0  0  0  0  0  0  0
   -1.5312   -0.9283    2.6463 H   0  0  0  0  0  0  0  0  0  0  0  0
   -2.7346    0.1884    3.3883 H   0  0  0  0  0  0  0  0  0  0  0  0
   -2.9819   -3.2185   -1.8644 H   0  0  0  0  0  0  0  0  0  0  0  0
   -2.5281   -1.6535   -2.6052 H   0  0  0  0  0  0  0  0  0  0  0  0
   -4.1884   -2.2841   -2.7822 H   0  0  0  0  0  0  0  0  0  0  0  0
   -4.9125    0.3885    2.4472 H   0  0  0  0  0  0  0  0  0  0  0  0
   -6.5887   -0.1935    0.6852 H   0  0  0  0  0  0  0  0  0  0  0  0
   -5.8622   -1.3932   -1.3870 H   0  0  0  0  0  0  0  0  0  0  0  0
  1  2  1  0  0  0  0
  2  3  1  0  0  0  0
  3  4  2  0  0  0  0
  3  8  1  0  0  0  0
  4 17  1  0  0  0  0
  5 18  1  0  0  0  0
  5  4  1  0  0  0  0
  6  5  2  0  0  0  0
  7  6  1  0  0  0  0
  7  2  2  0  0  0  0
  8 12  1  0  0  0  0
  8 13  1  0  0  0  0
  9 14  1  0  0  0  0
  9  7  1  0  0  0  0
 10  1  1  0  0  0  0
 11  8  1  0  0  0  0
 15  9  1  0  0  0  0
 16  9  1  0  0  0  0
 19  6  1  0  0  0  0
M  END
