2
 OpenBabel05122313063D

 16 17  0  0  0  0  0  0  0  0999 V2000
   -3.5401   -2.4422    0.0119 N   0  0  0  0  0  2  0  0  0  0  0  0
   -1.8284   -0.9470   -0.0478 N   0  0  0  0  0  0  0  0  0  0  0  0
   -3.1373    1.0826   -0.0379 N   0  0  0  0  0  0  0  0  0  0  0  0
   -4.0217   -1.1656   -0.0186 N   0  0  0  0  0  0  0  0  0  0  0  0
   -6.3108   -1.6123    0.0123 O   0  0  0  0  0  0  0  0  0  0  0  0
   -2.2297   -2.2593    0.0000 C   0  0  0  0  0  0  0  0  0  0  0  0
   -1.5166   -3.0914    0.0526 H   0  0  0  0  0  0  0  0  0  0  0  0
   -2.9932   -0.2562   -0.0484 C   0  0  0  0  0  0  0  0  0  0  0  0
   -4.4403    1.5309   -0.0186 C   0  0  0  0  0  0  0  0  0  0  0  0
   -5.5282    0.6714   -0.0075 C   0  0  0  0  0  0  0  0  0  0  0  0
   -6.5509    1.0707    0.0075 H   0  0  0  0  0  0  0  0  0  0  0  0
   -5.4224   -0.7792   -0.0041 C   0  0  0  0  0  0  0  0  0  0  0  0
   -4.6047    3.0255   -0.0061 C   0  0  0  0  0  0  0  0  0  0  0  0
   -4.1051    3.4798   -0.8871 H   0  0  0  0  0  0  0  0  0  0  0  0
   -5.6694    3.3205   -0.0120 H   0  0  0  0  0  0  0  0  0  0  0  0
   -4.1235    3.4609    0.8948 H   0  0  0  0  0  0  0  0  0  0  0  0
  2  6  2  0  0  0  0
  3  9  1  0  0  0  0
  4 12  1  0  0  0  0
  4  1  1  0  0  0  0
  6  1  1  0  0  0  0
  6  7  1  0  0  0  0
  8  2  1  0  0  0  0
  8  3  2  0  0  0  0
  8  4  1  0  0  0  0
  9 10  2  0  0  0  0
  9 13  1  0  0  0  0
 10 12  1  0  0  0  0
 10 11  1  0  0  0  0
 12  5  2  0  0  0  0
 13 16  1  0  0  0  0
 14 13  1  0  0  0  0
 15 13  1  0  0  0  0
M  END
