2
 OpenBabel05122313063D

 28 29  0  0  1  0  0  0  0  0999 V2000
   -0.8292    0.8649   -1.4263 Se  0  0  0  0  0  0  0  0  0  0  0  0
    1.0513   -1.1832   -0.0949 N   0  0  0  0  0  2  0  0  0  0  0  0
    1.7494   -0.3692   -0.9380 C   0  0  1  0  0  3  0  0  0  0  0  0
    3.1381   -0.2188   -0.8152 C   0  0  0  0  0  0  0  0  0  0  0  0
    3.6637    0.4595   -1.5040 H   0  0  0  0  0  0  0  0  0  0  0  0
    3.8582   -0.9304    0.1618 C   0  0  0  0  0  0  0  0  0  0  0  0
    3.1131   -1.7924    0.9897 C   0  0  0  0  0  0  0  0  0  0  0  0
    3.6064   -2.3908    1.7702 H   0  0  0  0  0  0  0  0  0  0  0  0
    1.7296   -1.8873    0.8421 C   0  0  0  0  0  0  0  0  0  0  0  0
    1.0939   -2.5368    1.4698 H   0  0  0  0  0  0  0  0  0  0  0  0
    0.9879    0.3272   -2.0243 C   0  0  0  0  0  0  0  0  0  0  0  0
    0.7530   -0.3780   -2.8498 H   0  0  0  0  0  0  0  0  0  0  0  0
    1.5397    1.1844   -2.4526 H   0  0  0  0  0  0  0  0  0  0  0  0
   -0.3506    2.1735   -0.0611 C   0  0  0  0  0  0  0  0  0  0  0  0
   -1.1856    2.2515    1.0680 C   0  0  0  0  0  0  0  0  0  0  0  0
   -2.0355    1.5561    1.1722 H   0  0  0  0  0  0  0  0  0  0  0  0
   -0.9047    3.2097    2.0533 C   0  0  0  0  0  0  0  0  0  0  0  0
   -1.5514    3.2723    2.9414 H   0  0  0  0  0  0  0  0  0  0  0  0
    0.1966    4.0709    1.9176 C   0  0  0  0  0  0  0  0  0  0  0  0
    0.4158    4.8135    2.6994 H   0  0  0  0  0  0  0  0  0  0  0  0
    1.0186    3.9834    0.7838 C   0  0  0  0  0  0  0  0  0  0  0  0
    1.8810    4.6579    0.6707 H   0  0  0  0  0  0  0  0  0  0  0  0
    0.7442    3.0382   -0.2184 C   0  0  0  0  0  0  0  0  0  0  0  0
    1.3865    2.9894   -1.1100 H   0  0  0  0  0  0  0  0  0  0  0  0
    5.3435   -0.7707    0.3262 C   0  0  0  0  0  0  0  0  0  0  0  0
    5.7921   -0.1924   -0.5036 H   0  0  0  0  0  0  0  0  0  0  0  0
    5.8475   -1.7567    0.3796 H   0  0  0  0  0  0  0  0  0  0  0  0
    5.5755   -0.2414    1.2745 H   0  0  0  0  0  0  0  0  0  0  0  0
  1 14  1  0  0  0  0
  2  9  1  0  0  0  0
  3 11  1  6  0  0  0
  3  4  1  0  0  0  0
  3  2  1  0  0  0  0
  4  6  2  0  0  0  0
  5  4  1  0  0  0  0
  6 25  1  0  0  0  0
  6  7  1  0  0  0  0
  7  8  1  0  0  0  0
  9  7  2  0  0  0  0
  9 10  1  0  0  0  0
 11  1  1  0  0  0  0
 12 11  1  0  0  0  0
 13 11  1  0  0  0  0
 14 15  1  0  0  0  0
 15 16  1  0  0  0  0
 15 17  2  0  0  0  0
 17 18  1  0  0  0  0
 19 17  1  0  0  0  0
 19 20  1  0  0  0  0
 21 19  2  0  0  0  0
 22 21  1  0  0  0  0
 23 14  2  0  0  0  0
 23 21  1  0  0  0  0
 24 23  1  0  0  0  0
 25 27  1  0  0  0  0
 25 28  1  0  0  0  0
 26 25  1  0  0  0  0
M  END
