4
 OpenBabel05122313063D

 37 38  0  0  1  0  0  0  0  0999 V2000
    0.6118    1.7820    0.9588 N   0  0  0  0  0  0  0  0  0  0  0  0
    1.5770    2.1321    2.9184 N   0  0  0  0  0  0  0  0  0  0  0  0
    1.6887    2.2795    3.9230 H   0  0  0  0  0  0  0  0  0  0  0  0
    1.5696   -0.3291   -1.2228 N   0  0  0  0  0  2  0  0  0  0  0  0
    3.2804   -1.3367   -2.1426 N   0  0  0  0  0  0  0  0  0  0  0  0
    3.8266   -2.0392   -2.6431 H   0  0  0  0  0  0  0  0  0  0  0  0
   -1.0016    0.4648    3.8869 C   0  0  0  0  0  0  0  0  0  0  0  0
   -0.2500    0.5144    4.7019 H   0  0  0  0  0  0  0  0  0  0  0  0
   -0.8309   -0.4727    3.3218 H   0  0  0  0  0  0  0  0  0  0  0  0
   -1.9984    0.3980    4.3654 H   0  0  0  0  0  0  0  0  0  0  0  0
   -0.9238    1.6855    2.9576 C   0  0  0  0  0  0  0  0  0  0  0  0
   -1.1723    2.6073    3.5285 H   0  0  0  0  0  0  0  0  0  0  0  0
   -1.6818    1.5957    2.1563 H   0  0  0  0  0  0  0  0  0  0  0  0
    0.3947    1.8617    2.2699 C   0  0  0  0  0  0  0  0  0  0  0  0
    4.0128    2.5155    2.3419 C   0  0  0  0  0  0  0  0  0  0  0  0
    4.1219    3.4763    2.8878 H   0  0  0  0  0  0  0  0  0  0  0  0
    4.6359    2.5820    1.4308 H   0  0  0  0  0  0  0  0  0  0  0  0
    4.4472    1.7187    2.9830 H   0  0  0  0  0  0  0  0  0  0  0  0
    2.5949    2.2337    1.9768 C   0  0  0  0  0  0  0  0  0  0  0  0
    1.9620    2.0141    0.7566 C   0  0  0  0  0  0  0  0  0  0  0  0
    2.5402    1.9392   -0.6279 C   0  0  0  0  0  0  0  0  0  0  0  0
    3.5370    2.4177   -0.6554 H   0  0  0  0  0  0  0  0  0  0  0  0
    1.8784    2.5125   -1.3118 H   0  0  0  0  0  0  0  0  0  0  0  0
    2.6554    0.5407   -1.1688 C   0  0  0  0  0  0  0  0  0  0  0  0
    3.7504   -0.0923   -1.7402 C   0  0  0  0  0  0  0  0  0  0  0  0
    5.1549    0.3502   -1.9699 C   0  0  0  0  0  0  0  0  0  0  0  0
    5.3887    0.4434   -3.0515 H   0  0  0  0  0  0  0  0  0  0  0  0
    5.8898   -0.3547   -1.5278 H   0  0  0  0  0  0  0  0  0  0  0  0
    5.3265    1.3411   -1.5110 H   0  0  0  0  0  0  0  0  0  0  0  0
    1.9563   -1.4563   -1.8344 C   0  0  2  0  0  3  0  0  0  0  0  0
    1.1093   -2.6380   -2.1765 C   0  0  0  0  0  0  0  0  0  0  0  0
    1.1797   -2.8136   -3.2716 H   0  0  0  0  0  0  0  0  0  0  0  0
    0.0646   -2.3274   -1.9923 H   0  0  0  0  0  0  0  0  0  0  0  0
    1.4573   -3.9224   -1.4116 C   0  0  0  0  0  0  0  0  0  0  0  0
    2.5051   -4.2418   -1.5874 H   0  0  0  0  0  0  0  0  0  0  0  0
    0.8019   -4.7545   -1.7349 H   0  0  0  0  0  0  0  0  0  0  0  0
    1.3245   -3.7902   -0.3196 H   0  0  0  0  0  0  0  0  0  0  0  0
  1 14  2  0  0  0  0
  2  3  1  0  0  0  0
  4 24  1  0  0  0  0
  5 30  1  0  0  0  0
  5 25  1  0  0  0  0
  6  5  1  0  0  0  0
  7 10  1  0  0  0  0
  7  8  1  0  0  0  0
  9  7  1  0  0  0  0
 11 12  1  0  0  0  0
 11  7  1  0  0  0  0
 13 11  1  0  0  0  0
 14  2  1  0  0  0  0
 14 11  1  0  0  0  0
 15 16  1  0  0  0  0
 15 18  1  0  0  0  0
 17 15  1  0  0  0  0
 19 15  1  0  0  0  0
 19  2  1  0  0  0  0
 20  1  1  0  0  0  0
 20 19  2  0  0  0  0
 21 20  1  0  0  0  0
 22 21  1  0  0  0  0
 23 21  1  0  0  0  0
 24 21  1  0  0  0  0
 25 24  2  0  0  0  0
 26 25  1  0  0  0  0
 26 28  1  0  0  0  0
 26 29  1  0  0  0  0
 27 26  1  0  0  0  0
 30 31  1  6  0  0  0
 30  4  1  0  0  0  0
 31 33  1  0  0  0  0
 31 34  1  0  0  0  0
 32 31  1  0  0  0  0
 34 37  1  0  0  0  0
 35 34  1  0  0  0  0
 36 34  1  0  0  0  0
M  END
