1
 OpenBabel05122313063D

  9  8  0  0  0  0  0  0  0  0999 V2000
    2.0038   -0.0067    1.3716 N   0  0  0  0  0  2  0  0  0  0  0  0
    1.2450   -0.3871    1.9731 H   0  0  0  0  0  0  0  0  0  0  0  0
    2.2693    1.5128    1.9064 S   0  0  0  0  0  0  0  0  0  0  0  0
    2.9655    2.2968    0.8219 O   0  0  0  0  0  0  0  0  0  0  0  0
    1.0730    2.1622    2.5263 O   0  0  0  0  0  0  0  0  0  0  0  0
    3.4639    1.3496    3.2512 C   0  0  0  0  0  0  0  0  0  0  0  0
    3.6602    2.3706    3.6275 H   0  0  0  0  0  0  0  0  0  0  0  0
    4.3852    0.8831    2.8610 H   0  0  0  0  0  0  0  0  0  0  0  0
    3.0031    0.7269    4.0396 H   0  0  0  0  0  0  0  0  0  0  0  0
  1  3  1  0  0  0  0
  1  2  1  0  0  0  0
  3  5  2  0  0  0  0
  3  6  1  0  0  0  0
  4  3  2  0  0  0  0
  6  7  1  0  0  0  0
  6  9  1  0  0  0  0
  8  6  1  0  0  0  0
M  END
