2
 OpenBabel05122313063D

 15 15  0  0  0  0  0  0  0  0999 V2000
   -4.7223    1.8676    0.1404 O   0  0  0  0  0  0  0  0  0  0  0  0
   -1.2717   -0.6611   -0.4033 N   0  0  0  0  0  2  0  0  0  0  0  0
   -2.0691    1.5375   -0.3338 N   0  0  0  0  0  0  0  0  0  0  0  0
   -1.2044    1.8238   -0.8485 H   0  0  0  0  0  0  0  0  0  0  0  0
   -2.9091    2.1346   -0.2860 H   0  0  0  0  0  0  0  0  0  0  0  0
   -1.5129   -1.9862   -0.3648 C   0  0  0  0  0  3  0  0  0  0  0  0
   -0.6283   -2.6118   -0.5711 H   0  0  0  0  0  0  0  0  0  0  0  0
   -2.7766   -2.5387   -0.1119 C   0  0  0  0  0  0  0  0  0  0  0  0
   -2.8999   -3.6294   -0.0874 H   0  0  0  0  0  0  0  0  0  0  0  0
   -3.8438   -1.6630    0.0970 C   0  0  0  0  0  0  0  0  0  0  0  0
   -4.8589   -2.0389    0.3064 H   0  0  0  0  0  0  0  0  0  0  0  0
   -3.6403   -0.2751    0.0238 C   0  0  0  0  0  0  0  0  0  0  0  0
   -4.7710    0.6368    0.1972 C   0  0  0  0  0  0  0  0  0  0  0  0
   -5.7529    0.1178    0.3984 H   0  0  0  0  0  0  0  0  0  0  0  0
   -2.3126    0.2228   -0.2523 C   0  0  0  0  0  0  0  0  0  0  0  0
  1 13  2  0  0  0  0
  2  6  1  0  0  0  0
  2 15  1  0  0  0  0
  3  5  1  0  0  0  0
  3 15  1  0  0  0  0
  4  3  1  0  0  0  0
  6  8  1  0  0  0  0
  7  6  1  0  0  0  0
  8  9  1  0  0  0  0
  8 10  2  0  0  0  0
 10 11  1  0  0  0  0
 12 10  1  0  0  0  0
 12 13  1  0  0  0  0
 13 14  1  0  0  0  0
 15 12  2  0  0  0  0
M  END
