2
 OpenBabel05122313063D

 33 34  0  0  1  0  0  0  0  0999 V2000
    2.3296   -3.4701   -0.0751 O   0  0  0  0  0  0  0  0  0  0  0  0
    1.2112   -1.6159    0.5083 N   0  0  0  0  0  2  0  0  0  0  0  0
    3.2067   -2.7716    0.8726 N   0  0  0  0  0  0  0  0  0  0  0  0
    0.0916   -3.4230   -0.6306 N   0  0  0  0  0  0  0  0  0  0  0  0
    2.5914   -1.4204    0.9759 C   0  0  1  0  0  0  0  0  0  0  0  0
    2.5642   -1.1183    2.0445 H   0  0  0  0  0  0  0  0  0  0  0  0
    1.1411   -2.7926   -0.0690 C   0  0  2  0  0  3  0  0  0  0  0  0
    3.3220   -0.3550    0.1813 C   0  0  0  0  0  0  0  0  0  0  0  0
    3.8742    0.7510    0.8454 C   0  0  0  0  0  0  0  0  0  0  0  0
    3.7724    0.8295    1.9395 H   0  0  0  0  0  0  0  0  0  0  0  0
    4.5247    1.7660    0.1268 C   0  0  0  0  0  0  0  0  0  0  0  0
    4.9462    2.6303    0.6645 H   0  0  0  0  0  0  0  0  0  0  0  0
    4.6365    1.7013   -1.2747 C   0  0  0  0  0  0  0  0  0  0  0  0
    4.0847    0.5791   -1.9321 C   0  0  0  0  0  0  0  0  0  0  0  0
    4.1538    0.5085   -3.0293 H   0  0  0  0  0  0  0  0  0  0  0  0
    3.4352   -0.4327   -1.2197 C   0  0  0  0  0  0  0  0  0  0  0  0
    2.9872   -1.2786   -1.7600 H   0  0  0  0  0  0  0  0  0  0  0  0
    5.2974    2.8044   -2.0627 C   0  0  0  0  0  0  0  0  0  0  0  0
    4.5522    3.3666   -2.6657 H   0  0  0  0  0  0  0  0  0  0  0  0
    6.0460    2.4029   -2.7763 H   0  0  0  0  0  0  0  0  0  0  0  0
    5.8094    3.5305   -1.4017 H   0  0  0  0  0  0  0  0  0  0  0  0
    3.1130   -3.5166    2.1250 C   0  0  0  0  0  0  0  0  0  0  0  0
    3.8085   -3.0360    2.8408 H   0  0  0  0  0  0  0  0  0  0  0  0
    3.4568   -4.5541    1.9543 H   0  0  0  0  0  0  0  0  0  0  0  0
    2.0880   -3.5235    2.5669 H   0  0  0  0  0  0  0  0  0  0  0  0
   -1.2551   -2.8638   -0.6313 C   0  0  0  0  0  0  0  0  0  0  0  0
   -1.3554   -2.1049    0.1687 H   0  0  0  0  0  0  0  0  0  0  0  0
   -1.9771   -3.6862   -0.4522 H   0  0  0  0  0  0  0  0  0  0  0  0
   -1.4846   -2.3557   -1.5907 H   0  0  0  0  0  0  0  0  0  0  0  0
    0.2911   -4.6232   -1.4283 C   0  0  0  0  0  0  0  0  0  0  0  0
    0.1165   -4.4079   -2.5058 H   0  0  0  0  0  0  0  0  0  0  0  0
   -0.4274   -5.4085   -1.1124 H   0  0  0  0  0  0  0  0  0  0  0  0
    1.3179   -5.0059   -1.3035 H   0  0  0  0  0  0  0  0  0  0  0  0
  1  7  1  0  0  0  0
  1  3  1  0  0  0  0
  2  5  1  0  0  0  0
  3  5  1  0  0  0  0
  3 22  1  0  0  0  0
  5  6  1  1  0  0  0
  7  4  1  1  0  0  0
  7  2  1  0  0  0  0
  8  9  1  0  0  0  0
  8  5  1  0  0  0  0
  9 10  1  0  0  0  0
 11 12  1  0  0  0  0
 11  9  2  0  0  0  0
 13 11  1  0  0  0  0
 14 13  2  0  0  0  0
 14 16  1  0  0  0  0
 15 14  1  0  0  0  0
 16  8  2  0  0  0  0
 17 16  1  0  0  0  0
 18 21  1  0  0  0  0
 18 13  1  0  0  0  0
 19 18  1  0  0  0  0
 20 18  1  0  0  0  0
 22 25  1  0  0  0  0
 22 23  1  0  0  0  0
 24 22  1  0  0  0  0
 26  4  1  0  0  0  0
 26 28  1  0  0  0  0
 26 27  1  0  0  0  0
 29 26  1  0  0  0  0
 30 33  1  0  0  0  0
 30 32  1  0  0  0  0
 30  4  1  0  0  0  0
 31 30  1  0  0  0  0
M  END
