1
 OpenBabel05122313063D

 34 34  0  0  0  0  0  0  0  0999 V2000
    0.8146   -0.0001   -0.8330 N   0  0  0  0  0  2  0  0  0  0  0  0
    0.8766   -0.0021   -2.3003 C   0  0  0  0  0  0  0  0  0  0  0  0
    1.3751    0.9051   -2.7037 H   0  0  0  0  0  0  0  0  0  0  0  0
   -0.1469   -0.0020   -2.7556 H   0  0  0  0  0  0  0  0  0  0  0  0
    1.3740   -0.9109   -2.7015 H   0  0  0  0  0  0  0  0  0  0  0  0
    2.0903    0.0005   -0.2016 C   0  0  0  0  0  0  0  0  0  0  0  0
    2.7330   -1.2362    0.1013 C   0  0  0  0  0  0  0  0  0  0  0  0
    4.0020   -1.2075    0.7099 C   0  0  0  0  0  0  0  0  0  0  0  0
    4.5048   -2.1570    0.9488 H   0  0  0  0  0  0  0  0  0  0  0  0
    4.6361    0.0018    1.0147 C   0  0  0  0  0  0  0  0  0  0  0  0
    5.6289    0.0023    1.4899 H   0  0  0  0  0  0  0  0  0  0  0  0
    4.0004    1.2105    0.7105 C   0  0  0  0  0  0  0  0  0  0  0  0
    4.5021    2.1604    0.9499 H   0  0  0  0  0  0  0  0  0  0  0  0
    2.7315    1.2379    0.1017 C   0  0  0  0  0  0  0  0  0  0  0  0
    2.0932   -2.5772   -0.2389 C   0  0  0  0  0  0  0  0  0  0  0  0
    1.0182   -2.3842   -0.4376 H   0  0  0  0  0  0  0  0  0  0  0  0
    2.7049   -3.1786   -1.5192 C   0  0  0  0  0  0  0  0  0  0  0  0
    2.6323   -2.4852   -2.3796 H   0  0  0  0  0  0  0  0  0  0  0  0
    2.1888   -4.1205   -1.7971 H   0  0  0  0  0  0  0  0  0  0  0  0
    3.7807   -3.4080   -1.3694 H   0  0  0  0  0  0  0  0  0  0  0  0
    2.1945   -3.5927    0.9113 C   0  0  0  0  0  0  0  0  0  0  0  0
    3.2345   -3.9541    1.0496 H   0  0  0  0  0  0  0  0  0  0  0  0
    1.5654   -4.4812    0.7016 H   0  0  0  0  0  0  0  0  0  0  0  0
    1.8670   -3.1598    1.8776 H   0  0  0  0  0  0  0  0  0  0  0  0
    2.0902    2.5782   -0.2385 C   0  0  0  0  0  0  0  0  0  0  0  0
    1.0150    2.3842   -0.4351 H   0  0  0  0  0  0  0  0  0  0  0  0
    2.6989    3.1784   -1.5208 C   0  0  0  0  0  0  0  0  0  0  0  0
    3.7749    3.4083   -1.3735 H   0  0  0  0  0  0  0  0  0  0  0  0
    2.1818    4.1197   -1.7986 H   0  0  0  0  0  0  0  0  0  0  0  0
    2.6246    2.4841   -2.3803 H   0  0  0  0  0  0  0  0  0  0  0  0
    2.1932    3.5951    0.9101 C   0  0  0  0  0  0  0  0  0  0  0  0
    1.8685    3.1631    1.8778 H   0  0  0  0  0  0  0  0  0  0  0  0
    1.5625    4.4827    0.7009 H   0  0  0  0  0  0  0  0  0  0  0  0
    3.2330    3.9579    1.0454 H   0  0  0  0  0  0  0  0  0  0  0  0
  1  6  1  0  0  0  0
  2  1  1  0  0  0  0
  3  2  1  0  0  0  0
  4  2  1  0  0  0  0
  5  2  1  0  0  0  0
  6  7  2  0  0  0  0
  6 14  1  0  0  0  0
  7  8  1  0  0  0  0
  8  9  1  0  0  0  0
  8 10  2  0  0  0  0
 10 11  1  0  0  0  0
 12 13  1  0  0  0  0
 12 10  1  0  0  0  0
 14 12  2  0  0  0  0
 15  7  1  0  0  0  0
 15 21  1  0  0  0  0
 16 15  1  0  0  0  0
 17 20  1  0  0  0  0
 17 15  1  0  0  0  0
 18 17  1  0  0  0  0
 19 17  1  0  0  0  0
 21 22  1  0  0  0  0
 21 24  1  0  0  0  0
 23 21  1  0  0  0  0
 25 14  1  0  0  0  0
 25 31  1  0  0  0  0
 26 25  1  0  0  0  0
 27 28  1  0  0  0  0
 27 25  1  0  0  0  0
 29 27  1  0  0  0  0
 30 27  1  0  0  0  0
 31 34  1  0  0  0  0
 31 32  1  0  0  0  0
 33 31  1  0  0  0  0
M  END
