1
 OpenBabel05122313063D

 22 22  0  0  0  0  0  0  0  0999 V2000
    0.5643   -1.0778   -0.6549 N   0  0  0  0  0  2  0  0  0  0  0  0
   -0.3524   -1.5215   -1.7112 C   0  0  0  0  0  0  0  0  0  0  0  0
    0.1841   -1.7568   -2.6565 H   0  0  0  0  0  0  0  0  0  0  0  0
   -1.0805   -0.7178   -1.9656 H   0  0  0  0  0  0  0  0  0  0  0  0
   -0.9569   -2.4033   -1.4042 H   0  0  0  0  0  0  0  0  0  0  0  0
    1.6390   -1.9770   -0.4204 C   0  0  0  0  0  0  0  0  0  0  0  0
    1.5419   -2.9274    0.6318 C   0  0  0  0  0  0  0  0  0  0  0  0
    2.6339   -3.7818    0.8763 C   0  0  0  0  0  0  0  0  0  0  0  0
    2.5642   -4.5141    1.6963 H   0  0  0  0  0  0  0  0  0  0  0  0
    3.7891   -3.7237    0.0846 C   0  0  0  0  0  0  0  0  0  0  0  0
    4.6351   -4.3966    0.2911 H   0  0  0  0  0  0  0  0  0  0  0  0
    3.8544   -2.8170   -0.9803 C   0  0  0  0  0  0  0  0  0  0  0  0
    4.7548   -2.7772   -1.6139 H   0  0  0  0  0  0  0  0  0  0  0  0
    2.7882   -1.9401   -1.2580 C   0  0  0  0  0  0  0  0  0  0  0  0
    0.2851   -3.0338    1.4563 C   0  0  0  0  0  0  0  0  0  0  0  0
    0.3080   -3.9361    2.0972 H   0  0  0  0  0  0  0  0  0  0  0  0
   -0.6246   -3.0790    0.8248 H   0  0  0  0  0  0  0  0  0  0  0  0
    0.1531   -2.1561    2.1173 H   0  0  0  0  0  0  0  0  0  0  0  0
    2.8773   -0.9852   -2.4210 C   0  0  0  0  0  0  0  0  0  0  0  0
    3.9306   -0.7367   -2.6564 H   0  0  0  0  0  0  0  0  0  0  0  0
    2.3193   -0.0466   -2.2342 H   0  0  0  0  0  0  0  0  0  0  0  0
    2.4393   -1.4283   -3.3415 H   0  0  0  0  0  0  0  0  0  0  0  0
  1  6  1  0  0  0  0
  2  5  1  0  0  0  0
  2  1  1  0  0  0  0
  3  2  1  0  0  0  0
  4  2  1  0  0  0  0
  6  7  1  0  0  0  0
  7  8  2  0  0  0  0
  7 15  1  0  0  0  0
  8  9  1  0  0  0  0
 10 11  1  0  0  0  0
 10  8  1  0  0  0  0
 12 10  2  0  0  0  0
 13 12  1  0  0  0  0
 14 12  1  0  0  0  0
 14  6  2  0  0  0  0
 15 16  1  0  0  0  0
 15 18  1  0  0  0  0
 17 15  1  0  0  0  0
 19 21  1  0  0  0  0
 19 14  1  0  0  0  0
 20 19  1  0  0  0  0
 22 19  1  0  0  0  0
M  END
