1
 OpenBabel05122313063D

 16 16  0  0  0  0  0  0  0  0999 V2000
    0.7696   -0.6199   -0.3333 N   0  0  0  0  0  2  0  0  0  0  0  0
    1.5165    1.5684   -0.2916 N   0  0  0  0  0  0  0  0  0  0  0  0
    0.5193    1.8119   -0.5035 H   0  0  0  0  0  0  0  0  0  0  0  0
    0.9919   -1.9420   -0.3117 C   0  0  0  0  0  3  0  0  0  0  0  0
    0.0721   -2.5510   -0.4019 H   0  0  0  0  0  0  0  0  0  0  0  0
    2.2677   -2.5014   -0.1671 C   0  0  0  0  0  0  0  0  0  0  0  0
    2.4007   -3.5923   -0.1517 H   0  0  0  0  0  0  0  0  0  0  0  0
    3.3534   -1.6178   -0.0198 C   0  0  0  0  0  0  0  0  0  0  0  0
    4.3757   -2.0078    0.1145 H   0  0  0  0  0  0  0  0  0  0  0  0
    3.1426   -0.2400   -0.0417 C   0  0  0  0  0  0  0  0  0  0  0  0
    3.9818    0.4602    0.0686 H   0  0  0  0  0  0  0  0  0  0  0  0
    1.8137    0.2515   -0.2180 C   0  0  0  0  0  0  0  0  0  0  0  0
    2.4672    2.6225   -0.0973 C   0  0  0  0  0  0  0  0  0  0  0  0
    2.9386    2.5907    0.9132 H   0  0  0  0  0  0  0  0  0  0  0  0
    1.9404    3.5909   -0.1921 H   0  0  0  0  0  0  0  0  0  0  0  0
    3.2929    2.6106   -0.8496 H   0  0  0  0  0  0  0  0  0  0  0  0
  1  4  1  0  0  0  0
  1 12  1  0  0  0  0
  2 12  1  0  0  0  0
  2 13  1  0  0  0  0
  3  2  1  0  0  0  0
  4  6  1  0  0  0  0
  5  4  1  0  0  0  0
  6  7  1  0  0  0  0
  6  8  2  0  0  0  0
  8  9  1  0  0  0  0
 10  8  1  0  0  0  0
 10 11  1  0  0  0  0
 12 10  2  0  0  0  0
 13 14  1  0  0  0  0
 15 13  1  0  0  0  0
 16 13  1  0  0  0  0
M  END
