1
 OpenBabel05122313063D

 27 27  0  0  0  0  0  0  0  0999 V2000
    2.0728   -1.0385   -0.7923 N   0  0  0  0  0  2  0  0  0  0  0  0
    2.0056   -2.2780   -1.3124 C   0  0  0  0  0  3  0  0  0  0  0  0
    3.2638   -0.5477   -0.3980 C   0  0  0  0  0  0  0  0  0  0  0  0
    3.1472   -3.0766   -1.4724 C   0  0  0  0  0  0  0  0  0  0  0  0
    1.0043   -2.6065   -1.6339 H   0  0  0  0  0  0  0  0  0  0  0  0
    4.4601   -1.2800   -0.5065 C   0  0  0  0  0  0  0  0  0  0  0  0
    3.2495    0.4891   -0.0269 H   0  0  0  0  0  0  0  0  0  0  0  0
    4.3874   -2.5663   -1.0771 C   0  0  0  0  0  0  0  0  0  0  0  0
    3.0582   -4.0789   -1.9158 H   0  0  0  0  0  0  0  0  0  0  0  0
    5.8384   -0.7305   -0.2159 C   0  0  0  0  0  0  0  0  0  0  0  0
    5.3200   -3.1327   -1.2182 H   0  0  0  0  0  0  0  0  0  0  0  0
    6.7574   -1.0185   -0.9919 O   0  0  0  0  0  0  0  0  0  0  0  0
    6.0380    0.0728    0.8829 N   0  0  0  0  0  0  0  0  0  0  0  0
    7.3969    0.5960    1.0637 C   0  0  0  0  0  0  0  0  0  0  0  0
    5.1158    0.2369    2.0078 C   0  0  0  0  0  0  0  0  0  0  0  0
    8.3367   -0.3968    1.7499 C   0  0  0  0  0  0  0  0  0  0  0  0
    7.3205    1.5374    1.6446 H   0  0  0  0  0  0  0  0  0  0  0  0
    7.7901    0.8482    0.0603 H   0  0  0  0  0  0  0  0  0  0  0  0
    4.5854    1.6616    2.1807 C   0  0  0  0  0  0  0  0  0  0  0  0
    5.6467   -0.0837    2.9330 H   0  0  0  0  0  0  0  0  0  0  0  0
    4.2826   -0.4802    1.8825 H   0  0  0  0  0  0  0  0  0  0  0  0
    9.3383    0.0555    1.8953 H   0  0  0  0  0  0  0  0  0  0  0  0
    7.9578   -0.7019    2.7471 H   0  0  0  0  0  0  0  0  0  0  0  0
    8.4541   -1.3015    1.1226 H   0  0  0  0  0  0  0  0  0  0  0  0
    4.0635    2.0310    1.2750 H   0  0  0  0  0  0  0  0  0  0  0  0
    3.8740    1.7019    3.0309 H   0  0  0  0  0  0  0  0  0  0  0  0
    5.4035    2.3736    2.4110 H   0  0  0  0  0  0  0  0  0  0  0  0
  1  3  1  0  0  0  0
  2  1  1  0  0  0  0
  3  7  1  0  0  0  0
  4  2  1  0  0  0  0
  4  8  2  0  0  0  0
  5  2  1  0  0  0  0
  6  3  2  0  0  0  0
  6 10  1  0  0  0  0
  8  6  1  0  0  0  0
  9  4  1  0  0  0  0
 10 13  1  0  0  0  0
 11  8  1  0  0  0  0
 12 10  2  0  0  0  0
 13 14  1  0  0  0  0
 13 15  1  0  0  0  0
 14 17  1  0  0  0  0
 14 16  1  0  0  0  0
 15 19  1  0  0  0  0
 15 20  1  0  0  0  0
 16 22  1  0  0  0  0
 16 23  1  0  0  0  0
 18 14  1  0  0  0  0
 19 27  1  0  0  0  0
 19 26  1  0  0  0  0
 21 15  1  0  0  0  0
 24 16  1  0  0  0  0
 25 19  1  0  0  0  0
M  END
