1
 OpenBabel05122313063D

 16 16  0  0  0  0  0  0  0  0999 V2000
   -1.9639   -0.5289   -0.0946 N   0  0  0  0  0  2  0  0  0  0  0  0
   -6.5996    0.8650    0.0188 N   0  0  0  0  0  0  0  0  0  0  0  0
   -2.9201    0.3543    0.2703 C   0  0  0  0  0  3  0  0  0  0  0  0
   -2.5573    1.3493    0.5686 H   0  0  0  0  0  0  0  0  0  0  0  0
   -4.2875    0.0453    0.2216 C   0  0  0  0  0  0  0  0  0  0  0  0
   -4.6609   -1.2233   -0.2552 C   0  0  0  0  0  0  0  0  0  0  0  0
   -5.7327   -1.4630   -0.3240 H   0  0  0  0  0  0  0  0  0  0  0  0
   -3.6643   -2.1294   -0.6375 C   0  0  0  0  0  0  0  0  0  0  0  0
   -3.9166   -3.1315   -1.0130 H   0  0  0  0  0  0  0  0  0  0  0  0
   -2.3203   -1.7577   -0.5364 C   0  0  0  0  0  0  0  0  0  0  0  0
   -1.4912   -2.4369   -0.7785 H   0  0  0  0  0  0  0  0  0  0  0  0
   -5.3171    1.0574    0.6847 C   0  0  0  0  0  0  0  0  0  0  0  0
   -5.4761    0.9064    1.7764 H   0  0  0  0  0  0  0  0  0  0  0  0
   -4.8707    2.0790    0.5883 H   0  0  0  0  0  0  0  0  0  0  0  0
   -7.3217    1.4422    0.4642 H   0  0  0  0  0  0  0  0  0  0  0  0
   -6.5397    1.1784   -0.9588 H   0  0  0  0  0  0  0  0  0  0  0  0
  1  3  1  0  0  0  0
  2 15  1  0  0  0  0
  2 12  1  0  0  0  0
  3  4  1  0  0  0  0
  5  3  1  0  0  0  0
  5 12  1  0  0  0  0
  6  5  2  0  0  0  0
  7  6  1  0  0  0  0
  8 10  2  0  0  0  0
  8  6  1  0  0  0  0
  9  8  1  0  0  0  0
 10  1  1  0  0  0  0
 11 10  1  0  0  0  0
 12 13  1  0  0  0  0
 14 12  1  0  0  0  0
 16  2  1  0  0  0  0
M  END
