2
 OpenBabel05122313063D

 23 24  0  0  1  0  0  0  0  0999 V2000
    4.1316   -1.0685    1.2114 O   0  0  0  0  0  0  0  0  0  0  0  0
    1.0133   -1.7265   -0.3344 N   0  0  0  0  0  2  0  0  0  0  0  0
    2.3272   -1.9118   -0.0475 C   0  0  2  0  0  3  0  0  0  0  0  0
    2.9025   -3.1919   -0.1319 C   0  0  0  0  0  0  0  0  0  0  0  0
    3.9610   -3.2910    0.1449 H   0  0  0  0  0  0  0  0  0  0  0  0
    2.1272   -4.2800   -0.5424 C   0  0  0  0  0  0  0  0  0  0  0  0
    2.5688   -5.2850   -0.6170 H   0  0  0  0  0  0  0  0  0  0  0  0
    0.7777   -4.0631   -0.8546 C   0  0  0  0  0  0  0  0  0  0  0  0
    0.1200   -4.8802   -1.1824 H   0  0  0  0  0  0  0  0  0  0  0  0
    0.2542   -2.7731   -0.7350 C   0  0  0  0  0  0  0  0  0  0  0  0
   -0.7968   -2.5449   -0.9622 H   0  0  0  0  0  0  0  0  0  0  0  0
    3.2330   -0.7814    0.4270 C   0  0  0  0  0  0  0  0  0  0  0  0
    3.0880    0.5947   -0.1332 C   0  0  0  0  0  0  0  0  0  0  0  0
    2.5260    0.8441   -1.4036 C   0  0  0  0  0  0  0  0  0  0  0  0
    2.1457    0.0200   -2.0230 H   0  0  0  0  0  0  0  0  0  0  0  0
    2.4507    2.1574   -1.8928 C   0  0  0  0  0  0  0  0  0  0  0  0
    1.9981    2.3397   -2.8782 H   0  0  0  0  0  0  0  0  0  0  0  0
    2.9250    3.2248   -1.1158 C   0  0  0  0  0  0  0  0  0  0  0  0
    2.8521    4.2555   -1.4958 H   0  0  0  0  0  0  0  0  0  0  0  0
    3.4971    2.9793    0.1476 C   0  0  0  0  0  0  0  0  0  0  0  0
    3.8740    3.8168    0.7545 H   0  0  0  0  0  0  0  0  0  0  0  0
    3.5885    1.6701    0.6318 C   0  0  0  0  0  0  0  0  0  0  0  0
    4.0270    1.4479    1.6150 H   0  0  0  0  0  0  0  0  0  0  0  0
  2  3  1  0  0  0  0
  3 12  1  1  0  0  0
  4  3  1  0  0  0  0
  4  5  1  0  0  0  0
  6  4  2  0  0  0  0
  7  6  1  0  0  0  0
  8 10  2  0  0  0  0
  8  6  1  0  0  0  0
  9  8  1  0  0  0  0
 10  2  1  0  0  0  0
 11 10  1  0  0  0  0
 12  1  2  0  0  0  0
 13 12  1  0  0  0  0
 13 22  1  0  0  0  0
 14 13  2  0  0  0  0
 15 14  1  0  0  0  0
 16 14  1  0  0  0  0
 16 18  2  0  0  0  0
 17 16  1  0  0  0  0
 18 20  1  0  0  0  0
 19 18  1  0  0  0  0
 20 22  2  0  0  0  0
 20 21  1  0  0  0  0
 22 23  1  0  0  0  0
M  END
