1
 OpenBabel05122313063D

 24 26  0  0  0  0  0  0  0  0999 V2000
   -0.1771    0.8291   -1.4662 N   0  0  0  0  0  2  0  0  0  0  0  0
    0.7593   -1.0207   -2.2385 N   0  0  0  0  0  0  0  0  0  0  0  0
    2.5124   -2.4112   -1.3613 N   0  0  0  0  0  0  0  0  0  0  0  0
    2.0486   -3.5257   -0.7009 N   0  0  0  0  0  0  0  0  0  0  0  0
    2.6616   -3.6321    0.4318 N   0  0  0  0  0  0  0  0  0  0  0  0
    0.9415    0.3029   -1.9458 C   0  0  0  0  0  3  0  0  0  0  0  0
    1.8893    0.8505   -2.0362 H   0  0  0  0  0  0  0  0  0  0  0  0
   -1.1239   -0.1780   -1.4491 C   0  0  0  0  0  0  0  0  0  0  0  0
   -2.1459    0.0167   -1.1055 H   0  0  0  0  0  0  0  0  0  0  0  0
   -0.5524   -1.3486   -1.9091 C   0  0  0  0  0  0  0  0  0  0  0  0
   -0.9393   -2.3691   -2.0049 H   0  0  0  0  0  0  0  0  0  0  0  0
    1.8290   -1.9562   -2.5488 C   0  0  0  0  0  0  0  0  0  0  0  0
    1.4051   -2.8454   -3.0498 H   0  0  0  0  0  0  0  0  0  0  0  0
    2.5553   -1.4628   -3.2226 H   0  0  0  0  0  0  0  0  0  0  0  0
    3.4436   -1.7516   -0.5900 C   0  0  0  0  0  0  0  0  0  0  0  0
    4.1735   -0.5560   -0.7282 C   0  0  0  0  0  0  0  0  0  0  0  0
    4.0919    0.0980   -1.6070 H   0  0  0  0  0  0  0  0  0  0  0  0
    4.9973   -0.2066    0.3459 C   0  0  0  0  0  0  0  0  0  0  0  0
    5.5609    0.7363    0.2951 H   0  0  0  0  0  0  0  0  0  0  0  0
    5.1075   -1.0188    1.5065 C   0  0  0  0  0  0  0  0  0  0  0  0
    5.7694   -0.6918    2.3217 H   0  0  0  0  0  0  0  0  0  0  0  0
    4.3890   -2.2089    1.6356 C   0  0  0  0  0  0  0  0  0  0  0  0
    4.4607   -2.8428    2.5304 H   0  0  0  0  0  0  0  0  0  0  0  0
    3.5397   -2.5686    0.5697 C   0  0  0  0  0  0  0  0  0  0  0  0
  1  8  1  0  0  0  0
  2  6  1  0  0  0  0
  2 10  1  0  0  0  0
  3  4  1  0  0  0  0
  3 15  1  0  0  0  0
  4  5  2  0  0  0  0
  5 24  1  0  0  0  0
  6  1  1  0  0  0  0
  7  6  1  0  0  0  0
  8  9  1  0  0  0  0
 10  8  2  0  0  0  0
 11 10  1  0  0  0  0
 12  2  1  0  0  0  0
 12  3  1  0  0  0  0
 13 12  1  0  0  0  0
 14 12  1  0  0  0  0
 15 24  1  0  0  0  0
 16 15  2  0  0  0  0
 16 18  1  0  0  0  0
 17 16  1  0  0  0  0
 18 20  2  0  0  0  0
 19 18  1  0  0  0  0
 20 22  1  0  0  0  0
 20 21  1  0  0  0  0
 22 23  1  0  0  0  0
 24 22  2  0  0  0  0
M  END
