1
 OpenBabel05122313063D

 47 50  0  0  1  0  0  0  0  0999 V2000
    1.5947    1.0238   -0.9205 N   0  0  0  0  0  2  0  0  0  0  0  0
    1.3783   -1.3218   -0.7429 N   0  0  0  0  0  0  0  0  0  0  0  0
    3.2282   -0.2399    0.2309 N   0  0  2  0  0  0  0  0  0  0  0  0
   -0.3583   -0.3760    1.2307 N   0  0  0  0  0  0  0  0  0  0  0  0
   -1.0330   -1.7058   -0.5603 N   0  0  0  0  0  0  0  0  0  0  0  0
   -2.6925   -0.7371    0.8263 N   0  0  0  0  0  0  0  0  0  0  0  0
    2.0443   -0.1424   -0.4710 C   0  0  1  0  0  3  0  0  0  0  0  0
    1.7098   -2.5213    0.0136 C   0  0  0  0  0  0  0  0  0  0  0  0
    1.1869   -3.3740   -0.4603 H   0  0  0  0  0  0  0  0  0  0  0  0
    1.3139   -2.4249    1.0519 H   0  0  0  0  0  0  0  0  0  0  0  0
    3.2186   -2.7085   -0.0080 C   0  0  0  0  0  0  0  0  0  0  0  0
    3.5599   -2.8153   -1.0588 H   0  0  0  0  0  0  0  0  0  0  0  0
    3.5209   -3.6231    0.5397 H   0  0  0  0  0  0  0  0  0  0  0  0
    3.8529   -1.4920    0.6458 C   0  0  0  0  0  0  0  0  0  0  0  0
    3.7675   -1.5765    1.7555 H   0  0  0  0  0  0  0  0  0  0  0  0
    4.9425   -1.4354    0.4206 H   0  0  0  0  0  0  0  0  0  0  0  0
    3.8696    0.9338    0.8320 C   0  0  0  0  0  0  0  0  0  0  0  0
    4.8957    1.0260    0.4056 H   0  0  0  0  0  0  0  0  0  0  0  0
    3.9992    0.7381    1.9213 H   0  0  0  0  0  0  0  0  0  0  0  0
    3.0838    2.2163    0.5998 C   0  0  0  0  0  0  0  0  0  0  0  0
    3.7432    3.0936    0.7561 H   0  0  0  0  0  0  0  0  0  0  0  0
    2.2361    2.2936    1.3122 H   0  0  0  0  0  0  0  0  0  0  0  0
    2.5124    2.1553   -0.8134 C   0  0  0  0  0  0  0  0  0  0  0  0
    1.9625    3.0794   -1.0714 H   0  0  0  0  0  0  0  0  0  0  0  0
    3.3447    2.0577   -1.5526 H   0  0  0  0  0  0  0  0  0  0  0  0
    0.1003   -1.3384   -1.4154 C   0  0  0  0  0  0  0  0  0  0  0  0
   -0.0372   -0.3442   -1.9047 H   0  0  0  0  0  0  0  0  0  0  0  0
    0.1341   -2.1102   -2.2152 H   0  0  0  0  0  0  0  0  0  0  0  0
   -1.3458   -0.8739    0.5362 C   0  0  0  0  0  0  0  0  0  0  0  0
   -0.6929    0.5240    2.3169 C   0  0  0  0  0  0  0  0  0  0  0  0
   -0.8403    1.5609    1.9242 H   0  0  0  0  0  0  0  0  0  0  0  0
    0.1672    0.5717    3.0199 H   0  0  0  0  0  0  0  0  0  0  0  0
   -1.9640    0.0791    3.0427 C   0  0  0  0  0  0  0  0  0  0  0  0
   -1.7932   -0.9169    3.5054 H   0  0  0  0  0  0  0  0  0  0  0  0
   -2.2465    0.7800    3.8549 H   0  0  0  0  0  0  0  0  0  0  0  0
   -3.0916    0.0033    2.0218 C   0  0  0  0  0  0  0  0  0  0  0  0
   -3.9926   -0.4910    2.4510 H   0  0  0  0  0  0  0  0  0  0  0  0
   -3.3889    1.0312    1.7098 H   0  0  0  0  0  0  0  0  0  0  0  0
   -3.7618   -0.8278   -0.1690 C   0  0  0  0  0  0  0  0  0  0  0  0
   -4.2188    0.1804   -0.2844 H   0  0  0  0  0  0  0  0  0  0  0  0
   -4.5467   -1.5162    0.2247 H   0  0  0  0  0  0  0  0  0  0  0  0
   -3.2472   -1.3188   -1.5150 C   0  0  0  0  0  0  0  0  0  0  0  0
   -2.8148   -0.4624   -2.0737 H   0  0  0  0  0  0  0  0  0  0  0  0
   -4.0802   -1.7413   -2.1124 H   0  0  0  0  0  0  0  0  0  0  0  0
   -2.1526   -2.3472   -1.2424 C   0  0  0  0  0  0  0  0  0  0  0  0
   -2.5540   -3.1749   -0.6137 H   0  0  0  0  0  0  0  0  0  0  0  0
   -1.7710   -2.8057   -2.1760 H   0  0  0  0  0  0  0  0  0  0  0  0
  1 23  1  0  0  0  0
  2  7  1  0  0  0  0
  2  8  1  0  0  0  0
  3 14  1  1  0  0  0
  3 17  1  0  0  0  0
  4 30  1  0  0  0  0
  5 29  1  0  0  0  0
  6 36  1  0  0  0  0
  7  1  1  6  0  0  0
  7  3  1  0  0  0  0
  8 10  1  0  0  0  0
  9  8  1  0  0  0  0
 11  8  1  0  0  0  0
 11 13  1  0  0  0  0
 11 14  1  0  0  0  0
 12 11  1  0  0  0  0
 14 15  1  0  0  0  0
 16 14  1  0  0  0  0
 17 19  1  0  0  0  0
 18 17  1  0  0  0  0
 20 21  1  0  0  0  0
 20 17  1  0  0  0  0
 20 22  1  0  0  0  0
 23 20  1  0  0  0  0
 24 23  1  0  0  0  0
 25 23  1  0  0  0  0
 26  2  1  0  0  0  0
 26  5  1  0  0  0  0
 27 26  1  0  0  0  0
 28 26  1  0  0  0  0
 29  6  1  0  0  0  0
 29  4  2  0  0  0  0
 30 32  1  0  0  0  0
 30 33  1  0  0  0  0
 31 30  1  0  0  0  0
 33 34  1  0  0  0  0
 33 35  1  0  0  0  0
 36 37  1  0  0  0  0
 36 33  1  0  0  0  0
 38 36  1  0  0  0  0
 39 41  1  0  0  0  0
 39  6  1  0  0  0  0
 40 39  1  0  0  0  0
 42 45  1  0  0  0  0
 42 39  1  0  0  0  0
 43 42  1  0  0  0  0
 44 42  1  0  0  0  0
 45 46  1  0  0  0  0
 45  5  1  0  0  0  0
 47 45  1  0  0  0  0
M  END
