1
 OpenBabel05122313063D

 26 27  0  0  0  0  0  0  0  0999 V2000
    0.8907   -0.1390    0.1844 N   0  0  0  0  0  2  0  0  0  0  0  0
    3.0022   -1.1727    0.2993 N   0  0  0  0  0  0  0  0  0  0  0  0
    2.2602   -0.1088    0.2541 C   0  0  0  0  0  0  0  0  0  0  0  0
    0.3286   -1.4470    0.0854 C   0  0  0  0  0  0  0  0  0  0  0  0
   -0.2527   -2.0727    1.2053 C   0  0  0  0  0  0  0  0  0  0  0  0
   -0.8896   -3.3176    1.0801 C   0  0  0  0  0  0  0  0  0  0  0  0
   -0.9400   -3.9651   -0.1633 C   0  0  0  0  0  0  0  0  0  0  0  0
   -0.3211   -3.3696   -1.2765 C   0  0  0  0  0  0  0  0  0  0  0  0
    0.3162   -2.1291   -1.1504 C   0  0  0  0  0  0  0  0  0  0  0  0
    4.3863   -1.0567    0.2338 C   0  0  0  0  0  0  0  0  0  0  0  0
    5.1818   -1.9596    0.9850 C   0  0  0  0  0  0  0  0  0  0  0  0
    6.5787   -1.8961    0.9418 C   0  0  0  0  0  0  0  0  0  0  0  0
    7.2266   -0.9422    0.1363 C   0  0  0  0  0  0  0  0  0  0  0  0
    6.4529   -0.0552   -0.6301 C   0  0  0  0  0  0  0  0  0  0  0  0
    5.0531   -0.1089   -0.5891 C   0  0  0  0  0  0  0  0  0  0  0  0
    2.6936    0.9155    0.2962 H   0  0  0  0  0  0  0  0  0  0  0  0
   -0.1974   -1.5662    2.1796 H   0  0  0  0  0  0  0  0  0  0  0  0
   -1.3479   -3.7854    1.9653 H   0  0  0  0  0  0  0  0  0  0  0  0
   -1.4443   -4.9383   -0.2627 H   0  0  0  0  0  0  0  0  0  0  0  0
   -0.3305   -3.8809   -2.2517 H   0  0  0  0  0  0  0  0  0  0  0  0
    0.8140   -1.6604   -2.0116 H   0  0  0  0  0  0  0  0  0  0  0  0
    4.6616   -2.7041    1.6058 H   0  0  0  0  0  0  0  0  0  0  0  0
    7.1733   -2.6034    1.5415 H   0  0  0  0  0  0  0  0  0  0  0  0
    8.3256   -0.8999    0.0968 H   0  0  0  0  0  0  0  0  0  0  0  0
    6.9466    0.6853   -1.2794 H   0  0  0  0  0  0  0  0  0  0  0  0
    4.4569    0.5696   -1.2190 H   0  0  0  0  0  0  0  0  0  0  0  0
  1  3  1  0  0  0  0
  3 16  1  0  0  0  0
  3  2  2  0  0  0  0
  4  1  1  0  0  0  0
  4  5  1  0  0  0  0
  5 17  1  0  0  0  0
  6  5  2  0  0  0  0
  6 18  1  0  0  0  0
  7  6  1  0  0  0  0
  8  9  1  0  0  0  0
  8  7  2  0  0  0  0
  9  4  2  0  0  0  0
 10  2  1  0  0  0  0
 10 11  1  0  0  0  0
 11 22  1  0  0  0  0
 12 11  2  0  0  0  0
 12 23  1  0  0  0  0
 13 12  1  0  0  0  0
 14 15  1  0  0  0  0
 14 13  2  0  0  0  0
 15 10  2  0  0  0  0
 19  7  1  0  0  0  0
 20  8  1  0  0  0  0
 21  9  1  0  0  0  0
 24 13  1  0  0  0  0
 25 14  1  0  0  0  0
 26 15  1  0  0  0  0
M  END
