2
 OpenBabel05122313063D

 30 31  0  0  0  0  0  0  0  0999 V2000
    6.9893    1.7848   -0.1843 O   0  0  0  0  0  0  0  0  0  0  0  0
    1.7562    1.0322   -0.1416 N   0  0  0  0  0  2  0  0  0  0  0  0
    2.9211    0.3667   -0.0364 C   0  0  0  0  0  3  0  0  0  0  0  0
    2.8365   -0.7264    0.0710 H   0  0  0  0  0  0  0  0  0  0  0  0
    5.3070    0.2048   -0.0080 N   0  0  0  0  0  0  0  0  0  0  0  0
    4.1734    1.0105   -0.1260 C   0  0  0  0  0  0  0  0  0  0  0  0
    5.1066   -0.7895    0.1130 H   0  0  0  0  0  0  0  0  0  0  0  0
    7.5203   -0.4556    0.0746 N   0  0  0  0  0  0  0  0  0  0  0  0
    4.1922    2.4071   -0.3370 C   0  0  0  0  0  0  0  0  0  0  0  0
    5.1528    2.9297   -0.4107 H   0  0  0  0  0  0  0  0  0  0  0  0
    7.1185   -1.3895    0.1677 H   0  0  0  0  0  0  0  0  0  0  0  0
    2.9659    3.0714   -0.4458 C   0  0  0  0  0  0  0  0  0  0  0  0
    2.9396    4.1579   -0.6115 H   0  0  0  0  0  0  0  0  0  0  0  0
    1.7605    2.3715   -0.3422 C   0  0  0  0  0  0  0  0  0  0  0  0
    0.7761    2.8563   -0.3779 H   0  0  0  0  0  0  0  0  0  0  0  0
    6.6468    0.6143   -0.0513 C   0  0  0  0  0  0  0  0  0  0  0  0
    8.9291   -0.4328    0.0815 C   0  0  0  0  0  0  0  0  0  0  0  0
    9.5995   -1.6669    0.2185 C   0  0  0  0  0  0  0  0  0  0  0  0
    9.0166   -2.5979    0.3149 H   0  0  0  0  0  0  0  0  0  0  0  0
   10.9977   -1.7218    0.2356 C   0  0  0  0  0  0  0  0  0  0  0  0
   11.4939   -2.6990    0.3452 H   0  0  0  0  0  0  0  0  0  0  0  0
   11.7781   -0.5557    0.1170 C   0  0  0  0  0  0  0  0  0  0  0  0
   11.0920    0.6688   -0.0172 C   0  0  0  0  0  0  0  0  0  0  0  0
   11.6708    1.6019   -0.1096 H   0  0  0  0  0  0  0  0  0  0  0  0
    9.6946    0.7483   -0.0371 C   0  0  0  0  0  0  0  0  0  0  0  0
    9.1816    1.7106   -0.1422 H   0  0  0  0  0  0  0  0  0  0  0  0
   13.2851   -0.6080    0.1187 C   0  0  0  0  0  0  0  0  0  0  0  0
   13.6585   -1.6170    0.3808 H   0  0  0  0  0  0  0  0  0  0  0  0
   13.7163    0.1136    0.8429 H   0  0  0  0  0  0  0  0  0  0  0  0
   13.6997   -0.3471   -0.8784 H   0  0  0  0  0  0  0  0  0  0  0  0
  1 16  2  0  0  0  0
  2  3  1  0  0  0  0
  3  4  1  0  0  0  0
  5  7  1  0  0  0  0
  6  3  1  0  0  0  0
  6  5  1  0  0  0  0
  8 17  1  0  0  0  0
  8 11  1  0  0  0  0
  9  6  2  0  0  0  0
 10  9  1  0  0  0  0
 12 14  2  0  0  0  0
 12  9  1  0  0  0  0
 13 12  1  0  0  0  0
 14  2  1  0  0  0  0
 15 14  1  0  0  0  0
 16  5  1  0  0  0  0
 16  8  1  0  0  0  0
 17 18  1  0  0  0  0
 18 20  2  0  0  0  0
 18 19  1  0  0  0  0
 20 21  1  0  0  0  0
 22 27  1  0  0  0  0
 22 20  1  0  0  0  0
 23 22  2  0  0  0  0
 24 23  1  0  0  0  0
 25 23  1  0  0  0  0
 25 17  2  0  0  0  0
 26 25  1  0  0  0  0
 27 28  1  0  0  0  0
 27 29  1  0  0  0  0
 30 27  1  0  0  0  0
M  END
