19
 OpenBabel05122313063D

 31 34  0  0  1  0  0  0  0  0999 V2000
    1.1259   -2.3367    0.0003 S   0  0  0  0  0  0  0  0  0  0  0  0
   -2.6981    0.6370   -0.0013 S   0  0  0  0  0  0  0  0  0  0  0  0
    2.3950    1.4929    0.0001 B   0  0  0  0  0  0  0  0  0  0  0  0
    3.5102    1.9701    0.0001 H   0  0  0  0  0  0  0  0  0  0  0  0
    1.7197    1.9288    1.0510 H   0  0  0  0  0  0  0  0  0  0  0  0
    1.7196    1.9292   -1.0505 H   0  0  0  0  0  0  0  0  0  0  0  0
    2.3358   -0.0144   -0.0001 N   0  0  0  0  0  0  0  0  0  0  0  0
    3.3760   -0.9475   -0.0002 C   0  0  0  0  0  0  0  0  0  0  0  0
    4.7556   -0.6818   -0.0004 C   0  0  0  0  0  0  0  0  0  0  0  0
    5.1195    0.3542   -0.0005 H   0  0  0  0  0  0  0  0  0  0  0  0
    5.6401   -1.7679   -0.0005 C   0  0  0  0  0  0  0  0  0  0  0  0
    6.7235   -1.5778   -0.0006 H   0  0  0  0  0  0  0  0  0  0  0  0
    5.1658   -3.0955   -0.0004 C   0  0  0  0  0  0  0  0  0  0  0  0
    5.8807   -3.9314   -0.0004 H   0  0  0  0  0  0  0  0  0  0  0  0
    3.7895   -3.3638   -0.0002 C   0  0  0  0  0  0  0  0  0  0  0  0
    3.4147   -4.3978   -0.0001 H   0  0  0  0  0  0  0  0  0  0  0  0
    2.9002   -2.2797   -0.0001 C   0  0  0  0  0  0  0  0  0  0  0  0
    1.0936   -0.5741    0.0000 C   0  0  2  0  0  3  0  0  0  0  0  0
    0.0268    0.2376   -0.0000 N   0  0  0  0  0  2  0  0  0  0  0  0
   -1.2229   -0.3523    0.0000 C   0  0  0  0  0  0  0  0  0  0  0  0
   -1.4148   -1.6488    0.0008 N   0  0  0  0  0  0  0  0  0  0  0  0
   -2.7558   -1.9708    0.0005 C   0  0  0  0  0  0  0  0  0  0  0  0
   -3.2992   -3.2720    0.0011 C   0  0  0  0  0  0  0  0  0  0  0  0
   -2.6210   -4.1371    0.0020 H   0  0  0  0  0  0  0  0  0  0  0  0
   -4.6890   -3.4264    0.0007 C   0  0  0  0  0  0  0  0  0  0  0  0
   -5.1222   -4.4378    0.0012 H   0  0  0  0  0  0  0  0  0  0  0  0
   -5.5466   -2.3042   -0.0004 C   0  0  0  0  0  0  0  0  0  0  0  0
   -6.6367   -2.4519   -0.0007 H   0  0  0  0  0  0  0  0  0  0  0  0
   -5.0307   -1.0010   -0.0011 C   0  0  0  0  0  0  0  0  0  0  0  0
   -5.7002   -0.1288   -0.0019 H   0  0  0  0  0  0  0  0  0  0  0  0
   -3.6366   -0.8439   -0.0006 C   0  0  0  0  0  0  0  0  0  0  0  0
  2 31  1  0  0  0  0
  2 20  1  0  0  0  0
  3  4  1  0  0  0  0
  3  5  1  0  0  0  0
  6  3  1  0  0  0  0
  7 18  1  0  0  0  0
  7  3  1  0  0  0  0
  8  7  1  0  0  0  0
  8 17  1  0  0  0  0
  9  8  2  0  0  0  0
 10  9  1  0  0  0  0
 11  9  1  0  0  0  0
 11 13  2  0  0  0  0
 12 11  1  0  0  0  0
 13 15  1  0  0  0  0
 14 13  1  0  0  0  0
 15 17  2  0  0  0  0
 15 16  1  0  0  0  0
 17  1  1  0  0  0  0
 18 19  1  1  0  0  0
 18  1  1  0  0  0  0
 19 20  1  0  0  0  0
 20 21  2  0  0  0  0
 22 21  1  0  0  0  0
 22 23  1  0  0  0  0
 23 24  1  0  0  0  0
 25 23  2  0  0  0  0
 25 26  1  0  0  0  0
 27 25  1  0  0  0  0
 28 27  1  0  0  0  0
 29 31  1  0  0  0  0
 29 27  2  0  0  0  0
 30 29  1  0  0  0  0
 31 22  2  0  0  0  0
M  END
