2
 OpenBabel05122313063D

 23 24  0  0  0  0  0  0  0  0999 V2000
    9.4664    0.1583    0.3756 O   0  0  0  0  0  0  0  0  0  0  0  0
    1.8382   -0.8076   -0.2886 N   0  0  0  0  0  2  0  0  0  0  0  0
    4.0400   -1.0140   -0.3271 N   0  0  0  0  0  0  0  0  0  0  0  0
    2.9904   -0.2263    0.0503 C   0  0  0  0  0  3  0  0  0  0  0  0
    3.0841    0.7466    0.5421 H   0  0  0  0  0  0  0  0  0  0  0  0
    2.1434   -2.0124   -0.8968 C   0  0  0  0  0  0  0  0  0  0  0  0
    1.3522   -2.6854   -1.2406 H   0  0  0  0  0  0  0  0  0  0  0  0
    3.5146   -2.1534   -0.9284 C   0  0  0  0  0  0  0  0  0  0  0  0
    4.1571   -2.9307   -1.3506 H   0  0  0  0  0  0  0  0  0  0  0  0
    5.4172   -0.6943   -0.1565 C   0  0  0  0  0  0  0  0  0  0  0  0
    6.3422   -1.6989    0.1911 C   0  0  0  0  0  0  0  0  0  0  0  0
    5.9963   -2.7299    0.3541 H   0  0  0  0  0  0  0  0  0  0  0  0
    7.6902   -1.3808    0.3528 C   0  0  0  0  0  0  0  0  0  0  0  0
    8.4270   -2.1492    0.6266 H   0  0  0  0  0  0  0  0  0  0  0  0
    8.1383   -0.0506    0.1879 C   0  0  0  0  0  0  0  0  0  0  0  0
    9.9697    1.4747    0.2337 C   0  0  0  0  0  0  0  0  0  0  0  0
   11.0552    1.4174    0.4350 H   0  0  0  0  0  0  0  0  0  0  0  0
    9.5032    2.1765    0.9608 H   0  0  0  0  0  0  0  0  0  0  0  0
    9.8132    1.8692   -0.7952 H   0  0  0  0  0  0  0  0  0  0  0  0
    7.2086    0.9546   -0.1528 C   0  0  0  0  0  0  0  0  0  0  0  0
    7.5264    1.9953   -0.2974 H   0  0  0  0  0  0  0  0  0  0  0  0
    5.8573    0.6270   -0.3332 C   0  0  0  0  0  0  0  0  0  0  0  0
    5.1408    1.4065   -0.6317 H   0  0  0  0  0  0  0  0  0  0  0  0
  2  4  1  0  0  0  0
  3 10  1  0  0  0  0
  3  4  1  0  0  0  0
  4  5  1  0  0  0  0
  6  2  1  0  0  0  0
  7  6  1  0  0  0  0
  8  6  2  0  0  0  0
  8  3  1  0  0  0  0
  9  8  1  0  0  0  0
 10 11  1  0  0  0  0
 11 13  2  0  0  0  0
 11 12  1  0  0  0  0
 13 14  1  0  0  0  0
 15 13  1  0  0  0  0
 15  1  1  0  0  0  0
 16  1  1  0  0  0  0
 16 17  1  0  0  0  0
 16 18  1  0  0  0  0
 19 16  1  0  0  0  0
 20 15  2  0  0  0  0
 21 20  1  0  0  0  0
 22 10  2  0  0  0  0
 22 20  1  0  0  0  0
 23 22  1  0  0  0  0
M  END
