9
 OpenBabel05122313063D

 34 35  0  0  0  0  0  0  0  0999 V2000
    1.2358    0.1874   -1.4335 Se  0  0  0  0  0  0  0  0  0  0  0  0
    0.1721   -1.4482   -1.8124 C   0  0  0  0  0  0  0  0  0  0  0  0
   -0.4838   -1.1565   -2.6565 H   0  0  0  0  0  0  0  0  0  0  0  0
    0.8391   -2.2576   -2.1667 H   0  0  0  0  0  0  0  0  0  0  0  0
   -0.5941   -1.8671   -0.5755 C   0  0  0  0  0  0  0  0  0  0  0  0
    0.1277   -2.1249    0.2259 H   0  0  0  0  0  0  0  0  0  0  0  0
   -1.1744   -2.7899   -0.7964 H   0  0  0  0  0  0  0  0  0  0  0  0
    2.4639   -0.5799   -0.1209 C   0  0  0  0  0  0  0  0  0  0  0  0
   -1.4951   -0.8077   -0.0286 N   0  0  0  0  0  0  0  0  0  0  0  0
   -2.7349   -0.6170   -0.8531 C   0  0  0  0  0  0  0  0  0  0  0  0
   -2.4263   -0.3740   -1.8889 H   0  0  0  0  0  0  0  0  0  0  0  0
   -3.2166    0.2922   -0.4383 H   0  0  0  0  0  0  0  0  0  0  0  0
    3.9937   -2.3214    0.5905 C   0  0  0  0  0  0  0  0  0  0  0  0
    4.4830   -3.2907    0.4105 H   0  0  0  0  0  0  0  0  0  0  0  0
    3.0952   -1.8121   -0.3614 C   0  0  0  0  0  0  0  0  0  0  0  0
    2.9017   -2.3797   -1.2844 H   0  0  0  0  0  0  0  0  0  0  0  0
    2.7445    0.1649    1.0383 C   0  0  0  0  0  0  0  0  0  0  0  0
    2.2533    1.1400    1.1937 H   0  0  0  0  0  0  0  0  0  0  0  0
   -3.6975   -1.8083   -0.8071 C   0  0  0  0  0  0  0  0  0  0  0  0
   -4.5987   -1.5411   -1.3966 H   0  0  0  0  0  0  0  0  0  0  0  0
   -3.2569   -2.6961   -1.3132 H   0  0  0  0  0  0  0  0  0  0  0  0
   -2.8062   -2.3696    1.4803 C   0  0  0  0  0  0  0  0  0  0  0  0
   -3.0636   -2.5159    2.5496 H   0  0  0  0  0  0  0  0  0  0  0  0
   -2.2834   -3.2989    1.1622 H   0  0  0  0  0  0  0  0  0  0  0  0
   -4.0704   -2.1590    0.6383 C   0  0  0  0  0  0  0  0  0  0  0  0
   -4.7218   -3.0565    0.6701 H   0  0  0  0  0  0  0  0  0  0  0  0
   -4.6581   -1.3211    1.0731 H   0  0  0  0  0  0  0  0  0  0  0  0
    3.6554   -0.3510    1.9732 C   0  0  0  0  0  0  0  0  0  0  0  0
    3.8764    0.2274    2.8830 H   0  0  0  0  0  0  0  0  0  0  0  0
   -1.8811   -1.1535    1.3814 C   0  0  0  0  0  0  0  0  0  0  0  0
   -0.9414   -1.2929    1.9516 H   0  0  0  0  0  0  0  0  0  0  0  0
   -2.3778   -0.2469    1.7833 H   0  0  0  0  0  0  0  0  0  0  0  0
    4.2730   -1.5937    1.7578 C   0  0  0  0  0  0  0  0  0  0  0  0
    4.9791   -1.9953    2.5000 H   0  0  0  0  0  0  0  0  0  0  0  0
  1  8  1  0  0  0  0
  2  1  1  0  0  0  0
  2  5  1  0  0  0  0
  3  2  1  0  0  0  0
  4  2  1  0  0  0  0
  5  9  1  0  0  0  0
  5  6  1  0  0  0  0
  7  5  1  0  0  0  0
  8 17  1  0  0  0  0
  9 30  1  0  0  0  0
 10 19  1  0  0  0  0
 10 12  1  0  0  0  0
 10  9  1  0  0  0  0
 11 10  1  0  0  0  0
 13 33  2  0  0  0  0
 14 13  1  0  0  0  0
 15  8  2  0  0  0  0
 15 13  1  0  0  0  0
 16 15  1  0  0  0  0
 17 18  1  0  0  0  0
 17 28  2  0  0  0  0
 19 25  1  0  0  0  0
 20 19  1  0  0  0  0
 21 19  1  0  0  0  0
 22 23  1  0  0  0  0
 24 22  1  0  0  0  0
 25 26  1  0  0  0  0
 25 27  1  0  0  0  0
 25 22  1  0  0  0  0
 28 29  1  0  0  0  0
 30 22  1  0  0  0  0
 30 32  1  0  0  0  0
 30 31  1  0  0  0  0
 33 28  1  0  0  0  0
 33 34  1  0  0  0  0
M  END
