4
 OpenBabel05122313063D

 25 26  0  0  0  0  0  0  0  0999 V2000
    3.9157   -2.2845    1.5529 N   0  3  0  0  0  0  0  0  0  0  0  0
    3.7837   -3.4343    2.0883 O   0  5  0  0  0  0  0  0  0  0  0  0
    4.1502    1.3873   -0.1478 N   0  0  0  0  0  0  0  0  0  0  0  0
    2.0507    0.6914    0.2382 N   0  0  0  0  0  2  0  0  0  0  0  0
    1.6183   -2.2208    1.6134 N   0  0  0  0  0  0  0  0  0  0  0  0
    1.8479   -3.1079    2.1001 H   0  0  0  0  0  0  0  0  0  0  0  0
    0.7251   -1.7477    1.7316 H   0  0  0  0  0  0  0  0  0  0  0  0
    5.3649   -0.5563    0.6984 N   0  0  0  0  0  0  0  0  0  0  0  0
    5.2846    2.1875   -0.6186 C   0  0  0  0  0  0  0  0  0  0  0  0
    6.0690    2.1171    0.1617 H   0  0  0  0  0  0  0  0  0  0  0  0
    4.9504    3.2432   -0.6676 H   0  0  0  0  0  0  0  0  0  0  0  0
    2.9257   -0.2996    0.6774 C   0  0  0  0  0  0  0  0  0  0  0  0
    5.8287    1.7069   -1.9676 C   0  0  0  0  0  0  0  0  0  0  0  0
    5.0122    1.7450   -2.7209 H   0  0  0  0  0  0  0  0  0  0  0  0
    6.1238    0.6416   -1.8663 H   0  0  0  0  0  0  0  0  0  0  0  0
    5.1608   -1.7439    1.2504 C   0  0  0  0  0  0  0  0  0  0  0  0
    5.9927   -2.4099    1.5230 H   0  0  0  0  0  0  0  0  0  0  0  0
    4.2521    0.1235    0.4313 C   0  0  0  0  0  0  0  0  0  0  0  0
    2.8288    1.6754   -0.2479 C   0  0  0  0  0  3  0  0  0  0  0  0
    2.4597    2.6144   -0.6769 H   0  0  0  0  0  0  0  0  0  0  0  0
    2.7380   -1.5566    1.2780 C   0  0  0  0  0  0  0  0  0  0  0  0
    7.0205    2.5457   -2.4271 C   0  0  0  0  0  0  0  0  0  0  0  0
    7.4032    2.1846   -3.4009 H   0  0  0  0  0  0  0  0  0  0  0  0
    7.8568    2.4931   -1.7006 H   0  0  0  0  0  0  0  0  0  0  0  0
    6.7476    3.6140   -2.5508 H   0  0  0  0  0  0  0  0  0  0  0  0
  1  2  1  0  0  0  0
  3 18  1  0  0  0  0
  4 12  1  0  0  0  0
  5  7  1  0  0  0  0
  5  6  1  0  0  0  0
  8 16  1  0  0  0  0
  9  3  1  0  0  0  0
  9 10  1  0  0  0  0
 11  9  1  0  0  0  0
 12 21  2  0  0  0  0
 13 15  1  0  0  0  0
 13  9  1  0  0  0  0
 14 13  1  0  0  0  0
 16 17  1  0  0  0  0
 16  1  2  0  0  0  0
 18 12  1  0  0  0  0
 18  8  2  0  0  0  0
 19  3  1  0  0  0  0
 19  4  1  0  0  0  0
 20 19  1  0  0  0  0
 21  1  1  0  0  0  0
 21  5  1  0  0  0  0
 22 13  1  0  0  0  0
 22 24  1  0  0  0  0
 23 22  1  0  0  0  0
 25 22  1  0  0  0  0
M  CHG  2   1   1   2  -1
M  END
