1
 OpenBabel05122313063D

  7  7  0  0  0  0  0  0  0  0999 V2000
    3.4755   -0.1276    0.0036 N   0  0  0  0  0  0  0  0  0  0  0  0
    4.1300    1.0472   -0.2036 N   0  0  0  0  0  0  0  0  0  0  0  0
    5.4233    0.8178   -0.1602 N   0  0  0  0  0  0  0  0  0  0  0  0
    5.6252   -0.5125    0.0766 C   0  0  0  0  0  0  0  0  0  0  0  0
    4.3848   -1.1312    0.1840 C   0  0  0  0  0  3  0  0  0  0  0  0
    6.6319   -0.9399    0.1543 H   0  0  0  0  0  0  0  0  0  0  0  0
    4.0846   -2.1681    0.3679 H   0  0  0  0  0  0  0  0  0  0  0  0
  1  5  1  0  0  0  0
  2  3  1  0  0  0  0
  2  1  2  0  0  0  0
  3  4  2  0  0  0  0
  4  6  1  0  0  0  0
  4  5  1  0  0  0  0
  5  7  1  0  0  0  0
M  END
