1
 OpenBabel05122313063D

 30 32  0  0  0  0  0  0  0  0999 V2000
    1.2425    1.1904    0.1219 N   0  0  0  0  0  2  0  0  0  0  0  0
    2.3038    2.0699    0.3222 C   0  0  0  0  0  0  0  0  0  0  0  0
    3.6647    1.7206    0.4420 C   0  0  0  0  0  0  0  0  0  0  0  0
    4.5993    2.7382    0.6508 C   0  0  0  0  0  0  0  0  0  0  0  0
    4.2022    4.0911    0.7428 C   0  0  0  0  0  0  0  0  0  0  0  0
    2.8542    4.4542    0.6317 C   0  0  0  0  0  0  0  0  0  0  0  0
    1.9124    3.4334    0.4228 C   0  0  0  0  0  0  0  0  0  0  0  0
    0.1771    3.5743    0.2647 S   0  0  0  0  0  0  0  0  0  0  0  0
    0.0591    1.8186    0.0692 C   0  0  0  0  0  0  0  0  0  0  0  0
   -1.1990    1.1566   -0.1165 C   0  0  0  0  0  0  0  0  0  0  0  0
   -2.4166    1.7818   -0.1193 C   0  0  0  0  0  3  0  0  0  0  0  0
   -3.6929    1.0993   -0.2322 C   0  0  0  0  0  0  0  0  0  0  0  0
   -3.8118   -0.3045   -0.0467 C   0  0  0  0  0  0  0  0  0  0  0  0
   -5.0552   -0.9260   -0.1538 C   0  0  0  0  0  0  0  0  0  0  0  0
   -6.2350   -0.2179   -0.4344 C   0  0  0  0  0  0  0  0  0  0  0  0
   -6.1459    1.1658   -0.6057 C   0  0  0  0  0  0  0  0  0  0  0  0
   -4.9017    1.8072   -0.5041 C   0  0  0  0  0  0  0  0  0  0  0  0
   -4.8673    3.5409   -0.7376 Cl  0  0  0  0  0  0  0  0  0  0  0  0
   -5.1485   -2.3934    0.0526 N   0  0  0  0  0  0  0  0  0  0  0  0
   -4.1143   -3.0032    0.3071 O   0  0  0  0  0  0  0  0  0  0  0  0
   -6.2686   -2.9048   -0.0470 O   0  0  0  0  0  0  0  0  0  0  0  0
    3.9455    0.6620    0.3536 H   0  0  0  0  0  0  0  0  0  0  0  0
    5.6643    2.4779    0.7428 H   0  0  0  0  0  0  0  0  0  0  0  0
    4.9594    4.8731    0.9075 H   0  0  0  0  0  0  0  0  0  0  0  0
    2.5392    5.5050    0.7087 H   0  0  0  0  0  0  0  0  0  0  0  0
   -1.0996    0.0702   -0.2674 H   0  0  0  0  0  0  0  0  0  0  0  0
   -2.4661    2.8780   -0.0150 H   0  0  0  0  0  0  0  0  0  0  0  0
   -2.9336   -0.9120    0.2211 H   0  0  0  0  0  0  0  0  0  0  0  0
   -7.1856   -0.7607   -0.5045 H   0  0  0  0  0  0  0  0  0  0  0  0
   -7.0402    1.7660   -0.8238 H   0  0  0  0  0  0  0  0  0  0  0  0
  1  2  1  0  0  0  0
  2  7  2  0  0  0  0
  2  3  1  0  0  0  0
  3  4  2  0  0  0  0
  4 23  1  0  0  0  0
  4  5  1  0  0  0  0
  5 24  1  0  0  0  0
  6 25  1  0  0  0  0
  6  5  2  0  0  0  0
  7  6  1  0  0  0  0
  8  7  1  0  0  0  0
  9  1  1  0  0  0  0
  9  8  1  0  0  0  0
 10  9  2  0  0  0  0
 11 10  1  0  0  0  0
 11 27  1  0  0  0  0
 12 11  1  0  0  0  0
 12 13  1  0  0  0  0
 13 28  1  0  0  0  0
 14 13  2  0  0  0  0
 14 19  1  0  0  0  0
 15 14  1  0  0  0  0
 16 17  1  0  0  0  0
 16 15  2  0  0  0  0
 17 12  2  0  0  0  0
 18 17  1  0  0  0  0
 19 20  2  0  0  0  0
 21 19  2  0  0  0  0
 22  3  1  0  0  0  0
 26 10  1  0  0  0  0
 29 15  1  0  0  0  0
 30 16  1  0  0  0  0
M  END
