3
 OpenBabel05122313063D

 10 10  0  0  0  0  0  0  0  0999 V2000
   -2.0634   -1.1216    2.3124 S   0  0  0  0  0  0  0  0  0  0  0  0
   -1.2048   -4.0094    1.8855 S   0  0  0  0  0  0  0  0  0  0  0  0
   -0.3541   -2.0103    0.4211 N   0  0  0  0  0  2  0  0  0  0  0  0
   -1.1557   -2.2688    1.4367 C   0  0  0  0  0  0  0  0  0  0  0  0
    0.4424   -3.1438   -0.0260 C   0  0  0  0  0  0  0  0  0  0  0  0
   -0.3157   -4.4320    0.3316 C   0  0  0  0  0  0  0  0  0  0  0  0
    1.4330   -3.1186    0.4876 H   0  0  0  0  0  0  0  0  0  0  0  0
    0.6485   -3.0652   -1.1120 H   0  0  0  0  0  0  0  0  0  0  0  0
    0.3570   -5.2961    0.4952 H   0  0  0  0  0  0  0  0  0  0  0  0
   -1.0634   -4.7015   -0.4437 H   0  0  0  0  0  0  0  0  0  0  0  0
  3  4  1  0  0  0  0
  4  2  1  0  0  0  0
  4  1  2  0  0  0  0
  5  6  1  0  0  0  0
  5  3  1  0  0  0  0
  5  7  1  0  0  0  0
  6  9  1  0  0  0  0
  6  2  1  0  0  0  0
  8  5  1  0  0  0  0
 10  6  1  0  0  0  0
M  END
