3
 OpenBabel05122313063D

 15 15  0  0  0  0  0  0  0  0999 V2000
    7.1590   -3.8431    0.1735 O   0  0  0  0  0  0  0  0  0  0  0  0
    7.5602   -4.0369    1.0428 H   0  0  0  0  0  0  0  0  0  0  0  0
    1.7157   -0.5880   -0.1619 N   0  0  0  0  0  2  0  0  0  0  0  0
    6.0266   -3.1462    0.5039 N   0  0  0  0  0  0  0  0  0  0  0  0
    2.4075   -0.9366    0.9483 C   0  0  0  0  0  3  0  0  0  0  0  0
    1.9667   -0.5918    1.8996 H   0  0  0  0  0  0  0  0  0  0  0  0
    3.5974   -1.6573    0.8778 C   0  0  0  0  0  0  0  0  0  0  0  0
    4.1452   -1.9293    1.7903 H   0  0  0  0  0  0  0  0  0  0  0  0
    4.1055   -2.0340   -0.3886 C   0  0  0  0  0  0  0  0  0  0  0  0
    3.3723   -1.6485   -1.5329 C   0  0  0  0  0  0  0  0  0  0  0  0
    3.7288   -1.9063   -2.5412 H   0  0  0  0  0  0  0  0  0  0  0  0
    2.1863   -0.9262   -1.3804 C   0  0  0  0  0  0  0  0  0  0  0  0
    1.5777   -0.5758   -2.2321 H   0  0  0  0  0  0  0  0  0  0  0  0
    5.3486   -2.7899   -0.5396 C   0  0  0  0  0  0  0  0  0  0  0  0
    5.6998   -3.0504   -1.5585 H   0  0  0  0  0  0  0  0  0  0  0  0
  1  4  1  0  0  0  0
  1  2  1  0  0  0  0
  3  5  1  0  0  0  0
  5  6  1  0  0  0  0
  7  5  1  0  0  0  0
  7  8  1  0  0  0  0
  9  7  2  0  0  0  0
 10 12  2  0  0  0  0
 10  9  1  0  0  0  0
 11 10  1  0  0  0  0
 12  3  1  0  0  0  0
 13 12  1  0  0  0  0
 14  9  1  0  0  0  0
 14  4  2  0  0  0  0
 15 14  1  0  0  0  0
M  END
