3
 OpenBabel05122313063D

 31 31  0  0  0  0  0  0  0  0999 V2000
    1.7316    0.1635    0.2765 O   0  5  0  0  0  0  0  0  0  0  0  0
    3.7092   -1.5930    0.3582 O   0  0  0  0  0  0  0  0  0  0  0  0
   -0.5024    1.3514    1.6140 N   0  0  0  0  0  2  0  0  0  0  0  0
   -3.2939    0.7101    1.1341 N   0  3  0  0  0  0  0  0  0  0  0  0
   -2.5725    0.0639    0.5620 H   0  0  0  0  0  0  0  0  0  0  0  0
   -4.1473    0.6303    0.5593 H   0  0  0  0  0  0  0  0  0  0  0  0
    1.1292   -0.2307    2.5828 C   0  0  0  0  0  0  0  0  0  0  0  0
    1.9229   -0.4720    1.4165 C   0  0  0  0  0  0  0  0  0  0  0  0
    2.9856   -1.4321    1.5137 C   0  0  0  0  0  0  0  0  0  0  0  0
    3.2250   -2.1200    2.7061 C   0  0  0  0  0  0  0  0  0  0  0  0
    4.0332   -2.8613    2.7664 H   0  0  0  0  0  0  0  0  0  0  0  0
    2.4364   -1.8670    3.8516 C   0  0  0  0  0  0  0  0  0  0  0  0
    2.6450   -2.4100    4.7839 H   0  0  0  0  0  0  0  0  0  0  0  0
    1.4151   -0.9301    3.7913 C   0  0  0  0  0  0  0  0  0  0  0  0
    0.8044   -0.7162    4.6820 H   0  0  0  0  0  0  0  0  0  0  0  0
    4.7100   -2.6016    0.3405 C   0  0  0  0  0  0  0  0  0  0  0  0
    5.5192   -2.3955    1.0753 H   0  0  0  0  0  0  0  0  0  0  0  0
    5.1417   -2.6025   -0.6779 H   0  0  0  0  0  0  0  0  0  0  0  0
    4.2803   -3.6052    0.5505 H   0  0  0  0  0  0  0  0  0  0  0  0
    0.0563    0.7383    2.6178 C   0  0  0  0  0  3  0  0  0  0  0  0
   -0.3151    0.9704    3.6441 H   0  0  0  0  0  0  0  0  0  0  0  0
   -1.5348    2.3338    1.9075 C   0  0  0  0  0  0  0  0  0  0  0  0
   -1.1748    3.3550    1.6472 H   0  0  0  0  0  0  0  0  0  0  0  0
   -1.7778    2.3458    2.9953 H   0  0  0  0  0  0  0  0  0  0  0  0
   -2.7919    2.1184    1.0661 C   0  0  0  0  0  0  0  0  0  0  0  0
   -3.5873    2.8144    1.3990 H   0  0  0  0  0  0  0  0  0  0  0  0
   -2.5805    2.3284   -0.0006 H   0  0  0  0  0  0  0  0  0  0  0  0
   -3.5723    0.1864    2.4908 C   0  0  0  0  0  0  0  0  0  0  0  0
   -2.6278    0.1131    3.0564 H   0  0  0  0  0  0  0  0  0  0  0  0
   -3.9983   -0.8260    2.3964 H   0  0  0  0  0  0  0  0  0  0  0  0
   -4.2753    0.8519    3.0276 H   0  0  0  0  0  0  0  0  0  0  0  0
  1  8  1  0  0  0  0
  2  9  1  0  0  0  0
  3 22  1  0  0  0  0
  3 20  1  0  0  0  0
  4 28  1  0  0  0  0
  5  4  1  0  0  0  0
  6  4  1  0  0  0  0
  7 20  1  0  0  0  0
  7 14  1  0  0  0  0
  8  9  1  0  0  0  0
  8  7  2  0  0  0  0
  9 10  2  0  0  0  0
 10 11  1  0  0  0  0
 10 12  1  0  0  0  0
 12 13  1  0  0  0  0
 14 12  2  0  0  0  0
 14 15  1  0  0  0  0
 16  2  1  0  0  0  0
 16 19  1  0  0  0  0
 16 17  1  0  0  0  0
 18 16  1  0  0  0  0
 20 21  1  0  0  0  0
 22 24  1  0  0  0  0
 23 22  1  0  0  0  0
 25  4  1  0  0  0  0
 25 26  1  0  0  0  0
 25 22  1  0  0  0  0
 27 25  1  0  0  0  0
 28 31  1  0  0  0  0
 28 29  1  0  0  0  0
 30 28  1  0  0  0  0
M  CHG  2   1  -1   4   1
M  END
