2
 OpenBabel05122313063D

 29 31  0  0  1  0  0  0  0  0999 V2000
   -2.6217   -2.4723   -0.6821 Se  0  0  0  0  0  0  0  0  0  0  0  0
   -1.8836    0.9124   -1.0771 N   0  0  0  0  0  2  0  0  0  0  0  0
   -4.0989    1.0311   -0.9477 N   0  0  0  0  0  0  0  0  0  0  0  0
   -5.0749    0.7421   -1.0258 H   0  0  0  0  0  0  0  0  0  0  0  0
   -3.6298    2.1722   -0.3122 C   0  0  0  0  0  0  0  0  0  0  0  0
   -4.2750    3.2406    0.3279 C   0  0  0  0  0  0  0  0  0  0  0  0
   -5.3703    3.3005    0.3972 H   0  0  0  0  0  0  0  0  0  0  0  0
   -3.4507    4.2277    0.8809 C   0  0  0  0  0  0  0  0  0  0  0  0
   -3.9115    5.0840    1.3945 H   0  0  0  0  0  0  0  0  0  0  0  0
   -2.0379    4.1524    0.7948 C   0  0  0  0  0  0  0  0  0  0  0  0
   -1.4331    4.9540    1.2432 H   0  0  0  0  0  0  0  0  0  0  0  0
   -1.3971    3.0878    0.1525 C   0  0  0  0  0  0  0  0  0  0  0  0
   -0.3012    3.0210    0.0786 H   0  0  0  0  0  0  0  0  0  0  0  0
   -2.2124    2.0876   -0.4049 C   0  0  0  0  0  0  0  0  0  0  0  0
   -3.0329    0.2991   -1.3893 C   0  0  2  0  0  3  0  0  0  0  0  0
   -3.1591   -1.0438   -1.9967 C   0  0  0  0  0  0  0  0  0  0  0  0
   -2.4683   -1.1660   -2.8531 H   0  0  0  0  0  0  0  0  0  0  0  0
   -4.1932   -1.2423   -2.3333 H   0  0  0  0  0  0  0  0  0  0  0  0
   -3.4958   -1.6466    0.8311 C   0  0  0  0  0  0  0  0  0  0  0  0
   -4.8796   -1.8267    1.0228 C   0  0  0  0  0  0  0  0  0  0  0  0
   -5.4416   -2.5036    0.3614 H   0  0  0  0  0  0  0  0  0  0  0  0
   -5.5304   -1.1418    2.0616 C   0  0  0  0  0  0  0  0  0  0  0  0
   -6.6109   -1.2839    2.2154 H   0  0  0  0  0  0  0  0  0  0  0  0
   -4.8038   -0.2879    2.9084 C   0  0  0  0  0  0  0  0  0  0  0  0
   -5.3177    0.2478    3.7204 H   0  0  0  0  0  0  0  0  0  0  0  0
   -3.4208   -0.1273    2.7277 C   0  0  0  0  0  0  0  0  0  0  0  0
   -2.8492    0.5358    3.3941 H   0  0  0  0  0  0  0  0  0  0  0  0
   -2.7624   -0.8080    1.6915 C   0  0  0  0  0  0  0  0  0  0  0  0
   -1.6805   -0.6789    1.5380 H   0  0  0  0  0  0  0  0  0  0  0  0
  1 19  1  0  0  0  0
  2 14  1  0  0  0  0
  3  5  1  0  0  0  0
  4  3  1  0  0  0  0
  5  6  1  0  0  0  0
  6  7  1  0  0  0  0
  6  8  2  0  0  0  0
  8  9  1  0  0  0  0
 10  8  1  0  0  0  0
 10 11  1  0  0  0  0
 12 10  2  0  0  0  0
 13 12  1  0  0  0  0
 14  5  2  0  0  0  0
 14 12  1  0  0  0  0
 15 16  1  1  0  0  0
 15  2  1  0  0  0  0
 15  3  1  0  0  0  0
 16  1  1  0  0  0  0
 17 16  1  0  0  0  0
 18 16  1  0  0  0  0
 19 20  2  0  0  0  0
 19 28  1  0  0  0  0
 20 22  1  0  0  0  0
 21 20  1  0  0  0  0
 22 23  1  0  0  0  0
 22 24  2  0  0  0  0
 24 25  1  0  0  0  0
 26 24  1  0  0  0  0
 26 27  1  0  0  0  0
 28 26  2  0  0  0  0
 29 28  1  0  0  0  0
M  END
