2
 OpenBabel05122313063D

 19 20  0  0  0  0  0  0  0  0999 V2000
    1.6205   -3.4342   -0.6285 S   0  0  0  0  0  0  0  0  0  0  0  0
    1.7879   -0.6914   -0.0114 N   0  0  0  0  0  2  0  0  0  0  0  0
    3.6994   -1.7527   -0.2238 N   0  0  0  0  0  0  0  0  0  0  0  0
    2.8007    0.1983    0.2077 N   0  0  0  0  0  0  0  0  0  0  0  0
    7.7185    1.6285    0.4940 N   0  0  0  0  0  0  0  0  0  0  0  0
    4.6116   -2.7743   -0.4699 N   0  0  0  0  0  0  0  0  0  0  0  0
    4.5831   -3.4077    0.3473 H   0  0  0  0  0  0  0  0  0  0  0  0
    4.1770   -3.3401   -1.2234 H   0  0  0  0  0  0  0  0  0  0  0  0
    2.3123   -1.9240   -0.2769 C   0  0  0  0  0  0  0  0  0  0  0  0
    3.9624   -0.4280    0.0698 C   0  0  0  0  0  0  0  0  0  0  0  0
    5.2601    0.2339    0.2091 C   0  0  0  0  0  0  0  0  0  0  0  0
    6.4993   -0.4271    0.0599 C   0  0  0  0  0  0  0  0  0  0  0  0
    6.5263   -1.4976   -0.1816 H   0  0  0  0  0  0  0  0  0  0  0  0
    7.6794    0.3170    0.2115 C   0  0  0  0  0  0  0  0  0  0  0  0
    8.6558   -0.1875    0.0952 H   0  0  0  0  0  0  0  0  0  0  0  0
    5.2947    1.6184    0.5003 C   0  0  0  0  0  0  0  0  0  0  0  0
    4.3571    2.1798    0.6169 H   0  0  0  0  0  0  0  0  0  0  0  0
    6.5344    2.2527    0.6313 C   0  0  0  0  0  0  0  0  0  0  0  0
    6.5739    3.3329    0.8603 H   0  0  0  0  0  0  0  0  0  0  0  0
  1  9  2  0  0  0  0
  2  4  1  0  0  0  0
  3 10  1  0  0  0  0
  5 18  1  0  0  0  0
  6  3  1  0  0  0  0
  6  7  1  0  0  0  0
  8  6  1  0  0  0  0
  9  3  1  0  0  0  0
  9  2  1  0  0  0  0
 10  4  2  0  0  0  0
 10 11  1  0  0  0  0
 11 16  1  0  0  0  0
 12 11  2  0  0  0  0
 12 14  1  0  0  0  0
 13 12  1  0  0  0  0
 14  5  2  0  0  0  0
 15 14  1  0  0  0  0
 16 17  1  0  0  0  0
 16 18  2  0  0  0  0
 18 19  1  0  0  0  0
M  END
