1
 OpenBabel05122313063D

 16 16  0  0  0  0  0  0  0  0999 V2000
   -1.5294   -0.0857   -1.1986 N   0  0  0  0  0  0  0  0  0  0  0  0
   -2.8305    0.0835   -0.5953 C   0  0  0  0  0  0  0  0  0  0  0  0
   -3.4355    1.3491   -0.5663 C   0  0  0  0  0  0  0  0  0  0  0  0
   -4.7067    1.5237   -0.0071 C   0  0  0  0  0  0  0  0  0  0  0  0
   -5.3755    0.4105    0.5304 C   0  0  0  0  0  0  0  0  0  0  0  0
   -4.7745   -0.8511    0.5162 C   0  0  0  0  0  0  0  0  0  0  0  0
   -3.4849   -1.0517   -0.0360 C   0  0  0  0  0  0  0  0  0  0  0  0
   -2.9100   -2.3038   -0.1037 N   0  0  0  0  0  0  0  0  0  0  0  0
   -1.8784   -2.3704   -0.0431 H   0  0  0  0  0  0  0  0  0  0  0  0
   -3.3927   -3.0383    0.4147 H   0  0  0  0  0  0  0  0  0  0  0  0
   -5.2999   -1.7192    0.9448 H   0  0  0  0  0  0  0  0  0  0  0  0
   -6.3765    0.5267    0.9728 H   0  0  0  0  0  0  0  0  0  0  0  0
   -5.1689    2.5208    0.0087 H   0  0  0  0  0  0  0  0  0  0  0  0
   -2.8815    2.2049   -0.9783 H   0  0  0  0  0  0  0  0  0  0  0  0
   -1.3652    0.6625   -1.8873 H   0  0  0  0  0  0  0  0  0  0  0  0
   -1.4637   -0.9999   -1.6803 H   0  0  0  0  0  0  0  0  0  0  0  0
  1  2  1  0  0  0  0
  2  3  2  0  0  0  0
  2  7  1  0  0  0  0
  3  4  1  0  0  0  0
  4 13  1  0  0  0  0
  4  5  2  0  0  0  0
  5 12  1  0  0  0  0
  6  5  1  0  0  0  0
  6 11  1  0  0  0  0
  7  6  2  0  0  0  0
  8  9  1  0  0  0  0
  8  7  1  0  0  0  0
  8 10  1  0  0  0  0
 14  3  1  0  0  0  0
 15  1  1  0  0  0  0
 16  1  1  0  0  0  0
M  END
