3
 OpenBabel05122313063D

 33 35  0  0  1  0  0  0  0  0999 V2000
    0.3489   -0.0158   -2.0930 Se  0  0  0  0  0  0  0  0  0  0  0  0
    0.3487   -0.0156    2.0932 Se  0  0  0  0  0  0  0  0  0  0  0  0
   -1.7240    0.8851   -0.0001 N   0  0  0  0  0  2  0  0  0  0  0  0
    1.4020    1.5832   -1.5218 C   0  0  0  0  0  0  0  0  0  0  0  0
    1.7155    2.0849   -2.4567 H   0  0  0  0  0  0  0  0  0  0  0  0
    0.7087    2.2468   -0.9741 H   0  0  0  0  0  0  0  0  0  0  0  0
    2.5793    1.1251   -0.7113 C   0  0  0  0  0  0  0  0  0  0  0  0
    3.7240    0.6608   -1.3939 C   0  0  0  0  0  0  0  0  0  0  0  0
    3.7313    0.6743   -2.4953 H   0  0  0  0  0  0  0  0  0  0  0  0
    4.8467    0.1915   -0.7013 C   0  0  0  0  0  0  0  0  0  0  0  0
    5.7259   -0.1648   -1.2577 H   0  0  0  0  0  0  0  0  0  0  0  0
    4.8464    0.1914    0.7019 C   0  0  0  0  0  0  0  0  0  0  0  0
    5.7255   -0.1650    1.2584 H   0  0  0  0  0  0  0  0  0  0  0  0
    3.7236    0.6606    1.3942 C   0  0  0  0  0  0  0  0  0  0  0  0
    3.7305    0.6740    2.4955 H   0  0  0  0  0  0  0  0  0  0  0  0
    2.5791    1.1250    0.7113 C   0  0  0  0  0  0  0  0  0  0  0  0
    1.4016    1.5833    1.5215 C   0  0  0  0  0  0  0  0  0  0  0  0
    0.7083    2.2466    0.9734 H   0  0  0  0  0  0  0  0  0  0  0  0
    1.7150    2.0854    2.4562 H   0  0  0  0  0  0  0  0  0  0  0  0
   -1.4034    0.8750    2.4253 C   0  0  0  0  0  0  0  0  0  0  0  0
   -2.0512    0.0467    2.7729 H   0  0  0  0  0  0  0  0  0  0  0  0
   -1.2949    1.6004    3.2527 H   0  0  0  0  0  0  0  0  0  0  0  0
   -1.9203    1.5327    1.1756 C   0  0  1  0  0  3  0  0  0  0  0  0
   -2.4849    2.8198    1.2067 C   0  0  0  0  0  0  0  0  0  0  0  0
   -2.6455    3.3234    2.1705 H   0  0  0  0  0  0  0  0  0  0  0  0
   -2.8079    3.4531   -0.0002 C   0  0  0  0  0  0  0  0  0  0  0  0
   -3.2567    4.4574   -0.0002 H   0  0  0  0  0  0  0  0  0  0  0  0
   -2.4847    2.8198   -1.2070 C   0  0  0  0  0  0  0  0  0  0  0  0
   -2.6451    3.3234   -2.1709 H   0  0  0  0  0  0  0  0  0  0  0  0
   -1.9201    1.5327   -1.1758 C   0  0  0  0  0  0  0  0  0  0  0  0
   -1.4031    0.8749   -2.4254 C   0  0  0  0  0  0  0  0  0  0  0  0
   -1.2944    1.6002   -3.2529 H   0  0  0  0  0  0  0  0  0  0  0  0
   -2.0509    0.0466   -2.7731 H   0  0  0  0  0  0  0  0  0  0  0  0
  1  4  1  0  0  0  0
  2 20  1  0  0  0  0
  4  6  1  0  0  0  0
  4  7  1  0  0  0  0
  5  4  1  0  0  0  0
  7 16  1  0  0  0  0
  8  7  2  0  0  0  0
  8 10  1  0  0  0  0
  9  8  1  0  0  0  0
 10 12  2  0  0  0  0
 11 10  1  0  0  0  0
 12 13  1  0  0  0  0
 12 14  1  0  0  0  0
 14 15  1  0  0  0  0
 16 14  2  0  0  0  0
 16 17  1  0  0  0  0
 17  2  1  0  0  0  0
 17 19  1  0  0  0  0
 18 17  1  0  0  0  0
 20 21  1  0  0  0  0
 20 22  1  0  0  0  0
 23  3  1  6  0  0  0
 23 24  1  0  0  0  0
 23 20  1  0  0  0  0
 24 25  1  0  0  0  0
 26 24  2  0  0  0  0
 27 26  1  0  0  0  0
 28 30  2  0  0  0  0
 28 26  1  0  0  0  0
 29 28  1  0  0  0  0
 30  3  1  0  0  0  0
 31  1  1  0  0  0  0
 31 30  1  0  0  0  0
 32 31  1  0  0  0  0
 33 31  1  0  0  0  0
M  END
