3
 OpenBabel05122313063D

  9  9  0  0  1  0  0  0  0  0999 V2000
   -4.5468    0.6955    0.0021 S   0  0  0  0  0  0  0  0  0  0  0  0
   -3.0304   -1.3774    0.0691 N   0  0  0  0  0  0  0  0  0  0  0  0
   -2.1841   -0.3373   -0.1234 N   0  0  0  0  0  2  0  0  0  0  0  0
   -2.1916    2.0120   -0.5085 N   0  0  0  0  0  0  0  0  0  0  0  0
   -1.1764    2.1057   -0.8616 H   0  0  0  0  0  0  0  0  0  0  0  0
   -2.7519    2.8624   -0.5028 H   0  0  0  0  0  0  0  0  0  0  0  0
   -4.2823   -1.0281    0.1722 C   0  0  0  0  0  0  0  0  0  0  0  0
   -5.1030   -1.7352    0.3494 H   0  0  0  0  0  0  0  0  0  0  0  0
   -2.7866    0.8574   -0.2311 C   0  0  1  0  0  3  0  0  0  0  0  0
  1  7  1  0  0  0  0
  2  7  2  0  0  0  0
  3  2  1  0  0  0  0
  4  6  1  0  0  0  0
  5  4  1  0  0  0  0
  7  8  1  0  0  0  0
  9  4  1  6  0  0  0
  9  3  1  0  0  0  0
  9  1  1  0  0  0  0
M  END
