2
 OpenBabel05122313063D

 32 32  0  0  1  0  0  0  0  0999 V2000
   -1.7337    0.6658   -1.1571 O   0  0  0  0  0  0  0  0  0  0  0  0
   -0.2178    2.3294   -1.1134 N   0  0  0  0  0  2  0  0  0  0  0  0
   -0.0597    3.3333   -1.2490 H   0  0  0  0  0  0  0  0  0  0  0  0
   -2.4908    2.8641   -0.8680 N   0  0  0  0  0  0  0  0  0  0  0  0
   -2.8927    0.2147   -0.4219 N   0  0  0  0  0  2  0  0  0  0  0  0
   -1.7272   -1.8462   -0.5872 N   0  0  0  0  0  4  0  0  0  0  0  0
   -0.8701   -1.4125   -0.9703 H   0  0  0  0  0  0  0  0  0  0  0  0
   -1.8117   -2.8627   -0.6135 H   0  0  0  0  0  0  0  0  0  0  0  0
   -1.4837    1.9723   -1.0272 C   0  0  1  0  0  3  0  0  0  0  0  0
   -2.2387    4.1422   -0.2160 C   0  0  0  0  0  0  0  0  0  0  0  0
   -1.2788    4.1084    0.3346 H   0  0  0  0  0  0  0  0  0  0  0  0
   -3.0542    4.3420    0.5100 H   0  0  0  0  0  0  0  0  0  0  0  0
   -2.2132    4.9829   -0.9449 H   0  0  0  0  0  0  0  0  0  0  0  0
   -3.8466    2.6410   -1.3573 C   0  0  0  0  0  0  0  0  0  0  0  0
   -3.8712    1.7773   -2.0411 H   0  0  0  0  0  0  0  0  0  0  0  0
   -4.1801    3.5483   -1.9048 H   0  0  0  0  0  0  0  0  0  0  0  0
   -4.5460    2.4307   -0.5221 H   0  0  0  0  0  0  0  0  0  0  0  0
   -2.7829   -1.0747   -0.2449 C   0  0  0  0  0  0  0  0  0  0  0  0
   -3.9450   -1.7388    0.4723 C   0  0  0  0  0  0  0  0  0  0  0  0
   -3.5445   -2.1703    1.4162 H   0  0  0  0  0  0  0  0  0  0  0  0
   -4.2854   -2.5996   -0.1428 H   0  0  0  0  0  0  0  0  0  0  0  0
   -5.1006   -0.8111    0.7677 C   0  0  0  0  0  0  0  0  0  0  0  0
   -6.3004   -0.8917    0.0391 C   0  0  0  0  0  0  0  0  0  0  0  0
   -6.4078   -1.6606   -0.7428 H   0  0  0  0  0  0  0  0  0  0  0  0
   -7.3560   -0.0003    0.2916 C   0  0  0  0  0  0  0  0  0  0  0  0
   -8.2889   -0.0783   -0.2875 H   0  0  0  0  0  0  0  0  0  0  0  0
   -7.2205    0.9859    1.2798 C   0  0  0  0  0  0  0  0  0  0  0  0
   -8.0464    1.6851    1.4811 H   0  0  0  0  0  0  0  0  0  0  0  0
   -6.0253    1.0733    2.0149 C   0  0  0  0  0  0  0  0  0  0  0  0
   -5.9112    1.8441    2.7926 H   0  0  0  0  0  0  0  0  0  0  0  0
   -4.9751    0.1814    1.7611 C   0  0  0  0  0  0  0  0  0  0  0  0
   -4.0295    0.2689    2.3179 H   0  0  0  0  0  0  0  0  0  0  0  0
  1  5  1  0  0  0  0
  2  9  1  0  0  0  0
  3  2  1  0  0  0  0
  4 10  1  0  0  0  0
  5 18  1  0  0  0  0
  6 18  2  0  0  0  0
  7  6  1  0  0  0  0
  8  6  1  0  0  0  0
  9  1  1  6  0  0  0
  9  4  1  0  0  0  0
 10 11  1  0  0  0  0
 10 12  1  0  0  0  0
 13 10  1  0  0  0  0
 14  4  1  0  0  0  0
 14 17  1  0  0  0  0
 15 14  1  0  0  0  0
 16 14  1  0  0  0  0
 18 19  1  0  0  0  0
 19 22  1  0  0  0  0
 19 20  1  0  0  0  0
 21 19  1  0  0  0  0
 22 31  1  0  0  0  0
 23 25  1  0  0  0  0
 23 22  2  0  0  0  0
 24 23  1  0  0  0  0
 25 27  2  0  0  0  0
 26 25  1  0  0  0  0
 27 28  1  0  0  0  0
 27 29  1  0  0  0  0
 29 30  1  0  0  0  0
 31 29  2  0  0  0  0
 31 32  1  0  0  0  0
M  END
