1
 OpenBabel05122313063D

 36 40  0  0  1  0  0  0  0  0999 V2000
    0.3348    2.4275   -0.4874 N   0  0  0  0  0  0  0  0  0  0  0  0
   -1.5816   -1.4182    0.9701 B   0  0  2  0  0  0  0  0  0  0  0  0
   -0.9157   -1.8980    1.8750 H   0  0  0  0  0  0  0  0  0  0  0  0
   -1.3861   -1.6688   -0.7745 B   0  0  2  0  0  0  0  0  0  0  0  0
   -0.7340   -2.5202   -1.3138 H   0  0  0  0  0  0  0  0  0  0  0  0
   -1.7584   -0.1020   -1.4724 B   0  0  1  0  0  0  0  0  0  0  0  0
   -1.2794    0.3881   -2.4811 H   0  0  0  0  0  0  0  0  0  0  0  0
   -3.7347    0.3928    0.5378 B   0  0  0  0  0  0  0  0  0  0  0  0
   -4.4207    1.2458    1.0469 H   0  0  0  0  0  0  0  0  0  0  0  0
   -3.3034   -1.1329    1.3114 B   0  0  0  0  0  0  0  0  0  0  0  0
   -3.7682   -1.3585    2.4042 H   0  0  0  0  0  0  0  0  0  0  0  0
   -2.8378   -2.2814    0.0416 B   0  0  0  0  0  0  0  0  0  0  0  0
   -3.0339   -3.4701    0.1701 H   0  0  0  0  0  0  0  0  0  0  0  0
   -2.9672   -1.4241   -1.5326 B   0  0  2  0  0  0  0  0  0  0  0  0
   -3.2551   -1.9833   -2.5683 H   0  0  0  0  0  0  0  0  0  0  0  0
   -3.4935    0.2281   -1.2091 B   0  0  1  0  0  0  0  0  0  0  0  0
   -4.1029    0.9764   -1.9393 H   0  0  0  0  0  0  0  0  0  0  0  0
   -4.1715   -1.1207   -0.2485 B   0  0  2  0  0  0  0  0  0  0  0  0
   -5.3377   -1.4310   -0.3331 H   0  0  0  0  0  0  0  0  0  0  0  0
   -2.2563    0.9013   -0.2245 C   0  0  1  0  0  0  0  0  0  0  0  0
   -2.1606    0.1353    1.1491 C   0  0  2  0  0  0  0  0  0  0  0  0
   -1.9954    0.7365    2.0513 H   0  0  0  0  0  0  0  0  0  0  0  0
   -2.1700    2.4290   -0.2658 C   0  0  0  0  0  0  0  0  0  0  0  0
   -2.3892    2.7501   -1.3023 H   0  0  0  0  0  0  0  0  0  0  0  0
   -2.9709    2.8726    0.3580 H   0  0  0  0  0  0  0  0  0  0  0  0
   -0.8497    3.0038    0.2090 C   0  0  0  0  0  0  0  0  0  0  0  0
   -0.8422    4.1114    0.0715 H   0  0  0  0  0  0  0  0  0  0  0  0
   -0.7060    2.8072    1.2898 H   0  0  0  0  0  0  0  0  0  0  0  0
    1.5322    3.0633    0.1024 C   0  0  0  0  0  0  0  0  0  0  0  0
    1.4704    4.1702   -0.0043 H   0  0  0  0  0  0  0  0  0  0  0  0
    2.4397    2.7109   -0.4125 H   0  0  0  0  0  0  0  0  0  0  0  0
    1.5980    2.7952    1.1713 H   0  0  0  0  0  0  0  0  0  0  0  0
    0.2882    2.7445   -1.9318 C   0  0  0  0  0  0  0  0  0  0  0  0
    0.2204    3.8459   -2.0842 H   0  0  0  0  0  0  0  0  0  0  0  0
   -0.5758    2.2518   -2.4083 H   0  0  0  0  0  0  0  0  0  0  0  0
    1.2072    2.3760   -2.4177 H   0  0  0  0  0  0  0  0  0  0  0  0
  1 29  1  0  0  0  0
  1 26  1  0  0  0  0
  2 21  1  0  0  0  0
  2 10  1  0  0  0  0
  2  3  1  1  0  0  0
  4  5  1  6  0  0  0
  4  2  1  0  0  0  0
  6  7  1  6  0  0  0
  6 16  1  0  0  0  0
  6  4  1  0  0  0  0
  6 20  1  0  0  0  0
  8  9  1  0  0  0  0
  8 21  1  0  0  0  0
 10 11  1  0  0  0  0
 12 13  1  0  0  0  0
 12 10  1  0  0  0  0
 14 15  1  6  0  0  0
 14 16  1  0  0  0  0
 14  4  1  0  0  0  0
 14 18  1  0  0  0  0
 16 17  1  6  0  0  0
 16 20  1  0  0  0  0
 18 19  1  6  0  0  0
 18 12  1  0  0  0  0
 18  8  1  0  0  0  0
 20 23  1  6  0  0  0
 20 21  1  0  0  0  0
 21 22  1  1  0  0  0
 23 26  1  0  0  0  0
 23 25  1  0  0  0  0
 24 23  1  0  0  0  0
 26 28  1  0  0  0  0
 27 26  1  0  0  0  0
 29 32  1  0  0  0  0
 30 29  1  0  0  0  0
 31 29  1  0  0  0  0
 33  1  1  0  0  0  0
 34 33  1  0  0  0  0
 35 33  1  0  0  0  0
 36 33  1  0  0  0  0
M  END
