3
 OpenBabel05122313063D

 36 38  0  0  0  0  0  0  0  0999 V2000
   -0.7242   -0.1741   -2.2522 Cl  0  0  0  0  0  0  0  0  0  0  0  0
   -2.0019    0.0002   -0.6141 B   0  0  0  0  0  0  0  0  0  0  0  0
   -0.8681   -0.2037    0.4328 N   0  0  0  0  0  2  0  0  0  0  0  0
   -1.1384   -0.0567    1.8067 C   0  0  0  0  0  0  0  0  0  0  0  0
   -0.3036    0.7448    2.6245 C   0  0  0  0  0  0  0  0  0  0  0  0
    0.5400    1.2741    2.1645 H   0  0  0  0  0  0  0  0  0  0  0  0
   -0.5824    0.8929    3.9865 C   0  0  0  0  0  0  0  0  0  0  0  0
    0.0665    1.5329    4.6033 H   0  0  0  0  0  0  0  0  0  0  0  0
   -1.6794    0.2323    4.5649 C   0  0  0  0  0  0  0  0  0  0  0  0
   -1.8902    0.3442    5.6390 H   0  0  0  0  0  0  0  0  0  0  0  0
   -2.5071   -0.5689    3.7609 C   0  0  0  0  0  0  0  0  0  0  0  0
   -3.3665   -1.0945    4.2041 H   0  0  0  0  0  0  0  0  0  0  0  0
   -2.2558   -0.7061    2.3908 C   0  0  0  0  0  0  0  0  0  0  0  0
   -2.9007   -1.3314    1.7605 H   0  0  0  0  0  0  0  0  0  0  0  0
   -2.5839    1.5075   -0.6674 C   0  0  0  0  0  0  0  0  0  0  0  0
   -2.9099    2.0993   -1.9116 C   0  0  0  0  0  0  0  0  0  0  0  0
   -2.7083    1.5420   -2.8391 H   0  0  0  0  0  0  0  0  0  0  0  0
   -3.4655    3.3848   -1.9951 C   0  0  0  0  0  0  0  0  0  0  0  0
   -3.7035    3.8136   -2.9812 H   0  0  0  0  0  0  0  0  0  0  0  0
   -3.7158    4.1228   -0.8268 C   0  0  0  0  0  0  0  0  0  0  0  0
   -4.1461    5.1343   -0.8884 H   0  0  0  0  0  0  0  0  0  0  0  0
   -3.4150    3.5535    0.4191 C   0  0  0  0  0  0  0  0  0  0  0  0
   -3.6108    4.1160    1.3454 H   0  0  0  0  0  0  0  0  0  0  0  0
   -2.8602    2.2648    0.4944 C   0  0  0  0  0  0  0  0  0  0  0  0
   -2.6421    1.8495    1.4882 H   0  0  0  0  0  0  0  0  0  0  0  0
   -3.1007   -1.1629   -0.7082 C   0  0  0  0  0  0  0  0  0  0  0  0
   -4.4805   -0.8574   -0.7082 C   0  0  0  0  0  0  0  0  0  0  0  0
   -4.7985    0.1960   -0.6691 H   0  0  0  0  0  0  0  0  0  0  0  0
   -5.4535   -1.8695   -0.7501 C   0  0  0  0  0  0  0  0  0  0  0  0
   -6.5224   -1.6039   -0.7507 H   0  0  0  0  0  0  0  0  0  0  0  0
   -5.0633   -3.2166   -0.7913 C   0  0  0  0  0  0  0  0  0  0  0  0
   -5.8231   -4.0132   -0.8237 H   0  0  0  0  0  0  0  0  0  0  0  0
   -3.6958   -3.5425   -0.7948 C   0  0  0  0  0  0  0  0  0  0  0  0
   -3.3812   -4.5973   -0.8334 H   0  0  0  0  0  0  0  0  0  0  0  0
   -2.7280   -2.5294   -0.7533 C   0  0  0  0  0  0  0  0  0  0  0  0
   -1.6603   -2.7975   -0.7674 H   0  0  0  0  0  0  0  0  0  0  0  0
  1  2  1  0  0  0  0
  2  3  1  0  0  0  0
  3  4  1  0  0  0  0
  4 13  2  0  0  0  0
  4  5  1  0  0  0  0
  5  7  2  0  0  0  0
  6  5  1  0  0  0  0
  7  9  1  0  0  0  0
  7  8  1  0  0  0  0
  9 10  1  0  0  0  0
 11 12  1  0  0  0  0
 11  9  2  0  0  0  0
 13 11  1  0  0  0  0
 14 13  1  0  0  0  0
 15  2  1  0  0  0  0
 15 24  1  0  0  0  0
 16 15  2  0  0  0  0
 17 16  1  0  0  0  0
 18 16  1  0  0  0  0
 18 20  2  0  0  0  0
 19 18  1  0  0  0  0
 20 22  1  0  0  0  0
 21 20  1  0  0  0  0
 22 24  2  0  0  0  0
 22 23  1  0  0  0  0
 24 25  1  0  0  0  0
 26 27  1  0  0  0  0
 26  2  1  0  0  0  0
 27 28  1  0  0  0  0
 29 27  2  0  0  0  0
 30 29  1  0  0  0  0
 31 29  1  0  0  0  0
 32 31  1  0  0  0  0
 33 31  2  0  0  0  0
 33 35  1  0  0  0  0
 34 33  1  0  0  0  0
 35 26  2  0  0  0  0
 36 35  1  0  0  0  0
M  END
