4
 OpenBabel05122313063D

 49 52  0  0  0  0  0  0  0  0999 V2000
   -1.0256   -1.8787    0.1556 Cl  0  0  0  0  0  0  0  0  0  0  0  0
   -1.1789    1.3481   -0.7346 B   0  0  0  0  0  0  0  0  0  0  0  0
   -2.7906   -0.4058    0.2307 B   0  0  0  0  0  0  0  0  0  0  0  0
    0.0354    1.1078    0.1319 N   0  0  0  0  0  2  0  0  0  0  0  0
    0.4308    2.0882    1.0392 C   0  0  0  0  0  0  0  0  0  0  0  0
   -0.5229    3.0551    1.4675 C   0  0  0  0  0  0  0  0  0  0  0  0
   -1.5471    3.0012    1.0758 H   0  0  0  0  0  0  0  0  0  0  0  0
   -0.1785    4.0417    2.3918 C   0  0  0  0  0  0  0  0  0  0  0  0
   -0.9374    4.7680    2.7182 H   0  0  0  0  0  0  0  0  0  0  0  0
    1.1287    4.1022    2.9059 C   0  0  0  0  0  0  0  0  0  0  0  0
    1.4007    4.8805    3.6347 H   0  0  0  0  0  0  0  0  0  0  0  0
    2.0871    3.1642    2.4829 C   0  0  0  0  0  0  0  0  0  0  0  0
    3.1144    3.2111    2.8742 H   0  0  0  0  0  0  0  0  0  0  0  0
    1.7507    2.1657    1.5663 C   0  0  0  0  0  0  0  0  0  0  0  0
    2.5083    1.4494    1.2348 H   0  0  0  0  0  0  0  0  0  0  0  0
   -1.1165    2.5135   -1.7941 C   0  0  0  0  0  0  0  0  0  0  0  0
   -2.1626    2.6002   -2.7431 C   0  0  0  0  0  0  0  0  0  0  0  0
   -2.9704    1.8536   -2.7031 H   0  0  0  0  0  0  0  0  0  0  0  0
   -2.1752    3.6063   -3.7176 C   0  0  0  0  0  0  0  0  0  0  0  0
   -2.9989    3.6567   -4.4464 H   0  0  0  0  0  0  0  0  0  0  0  0
   -1.1332    4.5481   -3.7690 C   0  0  0  0  0  0  0  0  0  0  0  0
   -1.1391    5.3371   -4.5370 H   0  0  0  0  0  0  0  0  0  0  0  0
   -0.0834    4.4792   -2.8388 C   0  0  0  0  0  0  0  0  0  0  0  0
    0.7335    5.2165   -2.8739 H   0  0  0  0  0  0  0  0  0  0  0  0
   -0.0780    3.4714   -1.8632 C   0  0  0  0  0  0  0  0  0  0  0  0
    0.7498    3.4374   -1.1386 H   0  0  0  0  0  0  0  0  0  0  0  0
   -2.8953   -0.0319    1.7816 C   0  0  0  0  0  0  0  0  0  0  0  0
   -2.7588   -0.5416    4.1841 C   0  0  0  0  0  0  0  0  0  0  0  0
   -2.5261   -1.2588    4.9872 H   0  0  0  0  0  0  0  0  0  0  0  0
   -3.5020    1.6534    3.4721 C   0  0  0  0  0  0  0  0  0  0  0  0
   -3.8598    2.6673    3.7115 H   0  0  0  0  0  0  0  0  0  0  0  0
   -3.3546    1.2590    2.1329 C   0  0  0  0  0  0  0  0  0  0  0  0
   -3.6156    1.9697    1.3314 H   0  0  0  0  0  0  0  0  0  0  0  0
   -3.1942    0.7546    4.5054 C   0  0  0  0  0  0  0  0  0  0  0  0
   -3.3019    1.0600    5.5578 H   0  0  0  0  0  0  0  0  0  0  0  0
   -2.6205   -0.9275    2.8410 C   0  0  0  0  0  0  0  0  0  0  0  0
   -2.2685   -1.9426    2.6009 H   0  0  0  0  0  0  0  0  0  0  0  0
   -3.8766   -1.3496   -0.4458 C   0  0  0  0  0  0  0  0  0  0  0  0
   -3.8608   -1.5568   -1.8458 C   0  0  0  0  0  0  0  0  0  0  0  0
   -3.0691   -1.0775   -2.4443 H   0  0  0  0  0  0  0  0  0  0  0  0
   -4.8131   -2.3736   -2.4695 C   0  0  0  0  0  0  0  0  0  0  0  0
   -4.7815   -2.5235   -3.5603 H   0  0  0  0  0  0  0  0  0  0  0  0
   -5.8081   -3.0062   -1.7026 C   0  0  0  0  0  0  0  0  0  0  0  0
   -6.5579   -3.6485   -2.1909 H   0  0  0  0  0  0  0  0  0  0  0  0
   -5.8404   -2.8161   -0.3126 C   0  0  0  0  0  0  0  0  0  0  0  0
   -6.6185   -3.3072    0.2928 H   0  0  0  0  0  0  0  0  0  0  0  0
   -4.8827   -1.9950    0.3053 C   0  0  0  0  0  0  0  0  0  0  0  0
   -4.9205   -1.8449    1.3963 H   0  0  0  0  0  0  0  0  0  0  0  0
   -2.3108    0.6295   -0.6196 O   0  0  0  0  0  0  0  0  0  0  0  0
  1  3  1  0  0  0  0
  2 49  1  0  0  0  0
  2  4  1  0  0  0  0
  3 27  1  0  0  0  0
  4  5  1  0  0  0  0
  5  6  2  0  0  0  0
  5 14  1  0  0  0  0
  6  8  1  0  0  0  0
  7  6  1  0  0  0  0
  8  9  1  0  0  0  0
  8 10  2  0  0  0  0
 10 11  1  0  0  0  0
 12 13  1  0  0  0  0
 12 10  1  0  0  0  0
 14 12  2  0  0  0  0
 15 14  1  0  0  0  0
 16  2  1  0  0  0  0
 17 18  1  0  0  0  0
 17 16  2  0  0  0  0
 19 17  1  0  0  0  0
 20 19  1  0  0  0  0
 21 19  2  0  0  0  0
 21 23  1  0  0  0  0
 22 21  1  0  0  0  0
 23 25  2  0  0  0  0
 24 23  1  0  0  0  0
 25 16  1  0  0  0  0
 25 26  1  0  0  0  0
 27 32  2  0  0  0  0
 27 36  1  0  0  0  0
 28 34  1  0  0  0  0
 28 29  1  0  0  0  0
 30 31  1  0  0  0  0
 30 34  2  0  0  0  0
 32 30  1  0  0  0  0
 33 32  1  0  0  0  0
 34 35  1  0  0  0  0
 36 28  2  0  0  0  0
 37 36  1  0  0  0  0
 38  3  1  0  0  0  0
 38 47  1  0  0  0  0
 39 38  2  0  0  0  0
 40 39  1  0  0  0  0
 41 39  1  0  0  0  0
 41 43  2  0  0  0  0
 42 41  1  0  0  0  0
 43 45  1  0  0  0  0
 44 43  1  0  0  0  0
 45 46  1  0  0  0  0
 45 47  2  0  0  0  0
 47 48  1  0  0  0  0
 49  3  1  0  0  0  0
M  END
