2
 OpenBabel05122313063D

 12 12  0  0  1  0  0  0  0  0999 V2000
    1.7481    0.8331    2.1790 Cl  0  0  0  0  0  0  0  0  0  0  0  0
    1.8851   -0.2513   -0.2239 N   0  0  0  0  0  2  0  0  0  0  0  0
    5.9573   -0.3026   -0.5345 N   0  0  0  0  0  0  0  0  0  0  0  0
    6.3334   -0.7252   -1.3831 H   0  0  0  0  0  0  0  0  0  0  0  0
    6.5887    0.0881    0.1600 H   0  0  0  0  0  0  0  0  0  0  0  0
    3.8806   -0.8273   -1.3806 N   0  0  0  0  0  0  0  0  0  0  0  0
    2.6047    0.2564    0.8010 C   0  0  2  0  0  3  0  0  0  0  0  0
    3.9941    0.2671    0.7793 C   0  0  0  0  0  0  0  0  0  0  0  0
    4.5629    0.6682    1.6280 H   0  0  0  0  0  0  0  0  0  0  0  0
    4.6159   -0.2803   -0.3772 C   0  0  0  0  0  0  0  0  0  0  0  0
    2.5650   -0.7984   -1.2590 C   0  0  0  0  0  0  0  0  0  0  0  0
    1.9249   -1.2731   -2.0225 H   0  0  0  0  0  0  0  0  0  0  0  0
  2  7  1  0  0  0  0
  3 10  1  0  0  0  0
  3  5  1  0  0  0  0
  4  3  1  0  0  0  0
  6 11  2  0  0  0  0
  6 10  1  0  0  0  0
  7  1  1  1  0  0  0
  8  7  1  0  0  0  0
  8  9  1  0  0  0  0
 10  8  2  0  0  0  0
 11  2  1  0  0  0  0
 12 11  1  0  0  0  0
M  END
