2
 OpenBabel05122313063D

 20 21  0  0  0  0  0  0  0  0999 V2000
    0.3485   -7.1774   -0.1109 O   0  5  0  0  0  0  0  0  0  0  0  0
    3.2180    0.8827    0.2884 N   0  0  0  0  0  2  0  0  0  0  0  0
   -1.3858   -5.8821    0.6451 O   0  0  0  0  0  0  0  0  0  0  0  0
    2.8634   -1.3129    0.1790 N   0  0  0  0  0  0  0  0  0  0  0  0
    2.8194   -3.7633    0.4377 C   0  0  0  0  0  0  0  0  0  0  0  0
    3.8976   -3.7770    0.6582 H   0  0  0  0  0  0  0  0  0  0  0  0
    2.3388   -0.1145    0.5374 C   0  0  0  0  0  3  0  0  0  0  0  0
    1.3075    0.0031    0.8851 H   0  0  0  0  0  0  0  0  0  0  0  0
    2.1518   -2.5545    0.1888 C   0  0  0  0  0  0  0  0  0  0  0  0
    0.8288   -2.4526   -0.0464 N   0  0  0  0  0  0  0  0  0  0  0  0
    0.6687   -4.8602    0.1987 C   0  0  0  0  0  0  0  0  0  0  0  0
   -0.2191   -6.1187    0.2398 C   0  0  0  0  0  0  0  0  0  0  0  0
    4.1540   -1.0874   -0.2938 C   0  0  0  0  0  0  0  0  0  0  0  0
    4.7821   -1.9045   -0.6592 H   0  0  0  0  0  0  0  0  0  0  0  0
    4.3581    0.2729   -0.2283 C   0  0  0  0  0  0  0  0  0  0  0  0
    5.2365    0.8552   -0.5289 H   0  0  0  0  0  0  0  0  0  0  0  0
    2.0590   -4.9381    0.3936 C   0  0  0  0  0  0  0  0  0  0  0  0
    2.5013   -5.9413    0.4998 H   0  0  0  0  0  0  0  0  0  0  0  0
    0.1036   -3.5860    0.0019 C   0  0  0  0  0  0  0  0  0  0  0  0
   -0.9899   -3.5115   -0.1225 H   0  0  0  0  0  0  0  0  0  0  0  0
  1 12  1  0  0  0  0
  2  7  1  0  0  0  0
  4  9  1  0  0  0  0
  4  7  1  0  0  0  0
  5  6  1  0  0  0  0
  7  8  1  0  0  0  0
  9  5  2  0  0  0  0
 10 19  2  0  0  0  0
 10  9  1  0  0  0  0
 11 12  1  0  0  0  0
 11 17  2  0  0  0  0
 12  3  2  0  0  0  0
 13 15  2  0  0  0  0
 13  4  1  0  0  0  0
 14 13  1  0  0  0  0
 15  2  1  0  0  0  0
 16 15  1  0  0  0  0
 17  5  1  0  0  0  0
 17 18  1  0  0  0  0
 19 11  1  0  0  0  0
 20 19  1  0  0  0  0
M  CHG  1   1  -1
M  END
