6
 OpenBabel05122313063D

 34 37  0  0  0  0  0  0  0  0999 V2000
   -2.4211    3.5375    0.0788 O   0  0  0  0  0  0  0  0  0  0  0  0
   -3.7493    1.7573   -0.0133 O   0  0  0  0  0  0  0  0  0  0  0  0
   -6.2715    0.9420    0.0370 O   0  0  0  0  0  0  0  0  0  0  0  0
    0.2048    3.3020   -0.0234 N   0  0  0  0  0  0  0  0  0  0  0  0
   -0.6145    3.9336    0.0031 H   0  0  0  0  0  0  0  0  0  0  0  0
    1.1798    1.3028   -0.0461 N   0  0  0  0  0  2  0  0  0  0  0  0
   -7.6313    0.5465    0.0717 C   0  0  0  0  0  0  0  0  0  0  0  0
   -7.9375    0.0394   -0.8706 H   0  0  0  0  0  0  0  0  0  0  0  0
   -7.8418   -0.1311    0.9291 H   0  0  0  0  0  0  0  0  0  0  0  0
   -8.2208    1.4737    0.1908 H   0  0  0  0  0  0  0  0  0  0  0  0
   -5.3307   -0.0193   -0.1022 C   0  0  0  0  0  0  0  0  0  0  0  0
   -5.5726   -1.3994   -0.2213 C   0  0  0  0  0  0  0  0  0  0  0  0
   -6.6051   -1.7729   -0.2042 H   0  0  0  0  0  0  0  0  0  0  0  0
   -4.5082   -2.3203   -0.3591 C   0  0  0  0  0  0  0  0  0  0  0  0
   -4.7407   -3.3920   -0.4422 H   0  0  0  0  0  0  0  0  0  0  0  0
   -3.1864   -1.8894   -0.3866 C   0  0  0  0  0  0  0  0  0  0  0  0
   -2.3397   -2.5874   -0.4767 H   0  0  0  0  0  0  0  0  0  0  0  0
   -2.9164   -0.4989   -0.2719 C   0  0  0  0  0  0  0  0  0  0  0  0
   -3.9802    0.4198   -0.1277 C   0  0  0  0  0  0  0  0  0  0  0  0
   -2.4864    2.3160   -0.0066 C   0  0  0  0  0  0  0  0  0  0  0  0
   -1.3503    1.3843   -0.1165 C   0  0  0  0  0  0  0  0  0  0  0  0
   -1.5937    0.0350   -0.2770 C   0  0  0  0  0  3  0  0  0  0  0  0
   -0.7436   -0.6615   -0.4015 H   0  0  0  0  0  0  0  0  0  0  0  0
   -0.0056    1.9500   -0.0622 C   0  0  0  0  0  0  0  0  0  0  0  0
    1.5609    3.5472    0.0135 C   0  0  0  0  0  0  0  0  0  0  0  0
    2.3154    4.7310    0.0610 C   0  0  0  0  0  0  0  0  0  0  0  0
    1.8341    5.7190    0.0780 H   0  0  0  0  0  0  0  0  0  0  0  0
    3.7072    4.5895    0.0836 C   0  0  0  0  0  0  0  0  0  0  0  0
    4.3371    5.4907    0.1198 H   0  0  0  0  0  0  0  0  0  0  0  0
    4.3269    3.3137    0.0585 C   0  0  0  0  0  0  0  0  0  0  0  0
    5.4252    3.2539    0.0728 H   0  0  0  0  0  0  0  0  0  0  0  0
    3.5786    2.1342    0.0128 C   0  0  0  0  0  0  0  0  0  0  0  0
    4.0424    1.1390   -0.0166 H   0  0  0  0  0  0  0  0  0  0  0  0
    2.1784    2.2627   -0.0074 C   0  0  0  0  0  0  0  0  0  0  0  0
  2 20  1  0  0  0  0
  3  7  1  0  0  0  0
  4  5  1  0  0  0  0
  4 25  1  0  0  0  0
  6 34  1  0  0  0  0
  7 10  1  0  0  0  0
  7  9  1  0  0  0  0
  8  7  1  0  0  0  0
 11  3  1  0  0  0  0
 12 13  1  0  0  0  0
 12 11  2  0  0  0  0
 14 12  1  0  0  0  0
 15 14  1  0  0  0  0
 16 14  2  0  0  0  0
 16 18  1  0  0  0  0
 17 16  1  0  0  0  0
 18 19  2  0  0  0  0
 19 11  1  0  0  0  0
 19  2  1  0  0  0  0
 20  1  2  0  0  0  0
 21 24  2  0  0  0  0
 21 20  1  0  0  0  0
 22 18  1  0  0  0  0
 22 21  1  0  0  0  0
 23 22  1  0  0  0  0
 24  6  1  0  0  0  0
 24  4  1  0  0  0  0
 25 26  1  0  0  0  0
 26 27  1  0  0  0  0
 26 28  2  0  0  0  0
 28 29  1  0  0  0  0
 30 31  1  0  0  0  0
 30 28  1  0  0  0  0
 32 30  2  0  0  0  0
 33 32  1  0  0  0  0
 34 32  1  0  0  0  0
 34 25  2  0  0  0  0
M  END
