3
 OpenBabel05122313063D

 15 16  0  0  0  0  0  0  0  0999 V2000
    6.0199   -1.6725    0.2723 O   0  0  0  0  0  0  0  0  0  0  0  0
    4.3521    2.6455   -0.0311 O   0  0  0  0  0  0  0  0  0  0  0  0
    1.0056   -0.3785   -0.2677 N   0  0  0  0  0  2  0  0  0  0  0  0
    5.4972    0.6083    0.1348 N   0  0  0  0  0  0  0  0  0  0  0  0
    6.4446    0.9833    0.2181 H   0  0  0  0  0  0  0  0  0  0  0  0
    1.8512    0.6852   -0.2421 C   0  0  0  0  0  3  0  0  0  0  0  0
    1.3967    1.6781   -0.3785 H   0  0  0  0  0  0  0  0  0  0  0  0
    3.2162    0.4641   -0.0922 C   0  0  0  0  0  0  0  0  0  0  0  0
    3.7205   -0.8431    0.0049 C   0  0  0  0  0  0  0  0  0  0  0  0
    2.8551   -1.9324   -0.0593 C   0  0  0  0  0  0  0  0  0  0  0  0
    3.2144   -2.9699   -0.0092 H   0  0  0  0  0  0  0  0  0  0  0  0
    1.4867   -1.6467   -0.1987 C   0  0  0  0  0  0  0  0  0  0  0  0
    0.7226   -2.4327   -0.3033 H   0  0  0  0  0  0  0  0  0  0  0  0
    5.2148   -0.7687    0.1556 C   0  0  0  0  0  0  0  0  0  0  0  0
    4.3596    1.4308   -0.0039 C   0  0  0  0  0  0  0  0  0  0  0  0
  2 15  2  0  0  0  0
  3  6  1  0  0  0  0
  3 12  1  0  0  0  0
  4 14  1  0  0  0  0
  4  5  1  0  0  0  0
  6  8  1  0  0  0  0
  7  6  1  0  0  0  0
  8 15  1  0  0  0  0
  8  9  2  0  0  0  0
  9 14  1  0  0  0  0
 10 11  1  0  0  0  0
 10  9  1  0  0  0  0
 12 10  2  0  0  0  0
 13 12  1  0  0  0  0
 14  1  2  0  0  0  0
 15  4  1  0  0  0  0
M  END
