3
 OpenBabel05122313063D

 10 10  0  0  0  0  0  0  0  0999 V2000
    3.2893    2.1423   -0.2500 O   0  0  0  0  0  0  0  0  0  0  0  0
    3.8847   -2.4179    0.2416 O   0  0  0  0  0  0  0  0  0  0  0  0
    3.2038   -0.1942    0.0086 N   0  0  0  0  0  2  0  0  0  0  0  0
    3.8441    1.0530   -0.1354 C   0  0  0  0  0  0  0  0  0  0  0  0
    5.2055    0.8177   -0.1224 N   0  0  0  0  0  0  0  0  0  0  0  0
    5.5190   -0.5812    0.0197 C   0  0  0  0  0  0  0  0  0  0  0  0
    6.0681   -1.0131   -0.8471 H   0  0  0  0  0  0  0  0  0  0  0  0
    6.0964   -0.8254    0.9395 H   0  0  0  0  0  0  0  0  0  0  0  0
    4.1129   -1.2239    0.1087 C   0  0  0  0  0  0  0  0  0  0  0  0
    5.8735    1.5788   -0.2262 H   0  0  0  0  0  0  0  0  0  0  0  0
  1  4  2  0  0  0  0
  3  9  1  0  0  0  0
  4  5  1  0  0  0  0
  4  3  1  0  0  0  0
  5  6  1  0  0  0  0
  6  9  1  0  0  0  0
  6  8  1  0  0  0  0
  7  6  1  0  0  0  0
  9  2  2  0  0  0  0
 10  5  1  0  0  0  0
M  END
