9
 OpenBabel05122313063D

 13 13  0  0  1  0  0  0  0  0999 V2000
   -2.8120   -0.4867    0.4636 C   0  0  2  0  0  3  0  0  0  0  0  0
   -1.7939   -1.2601   -1.4117 C   0  0  0  0  0  0  0  0  0  0  0  0
   -2.9561   -1.9847   -1.4936 C   0  0  0  0  0  0  0  0  0  0  0  0
   -3.2540   -2.7077   -2.2599 H   0  0  0  0  0  0  0  0  0  0  0  0
   -0.6444   -1.3229   -2.3673 C   0  0  0  0  0  0  0  0  0  0  0  0
   -0.8816   -1.9745   -3.2280 H   0  0  0  0  0  0  0  0  0  0  0  0
    0.2594   -1.7247   -1.8624 H   0  0  0  0  0  0  0  0  0  0  0  0
   -0.3821   -0.3096   -2.7394 H   0  0  0  0  0  0  0  0  0  0  0  0
   -1.7270   -0.4122   -0.3073 N   0  0  0  0  0  2  0  0  0  0  0  0
   -2.9880    0.1933    1.6120 N   0  0  0  0  0  0  0  0  0  0  0  0
   -2.2743    0.8973    1.9045 H   0  0  0  0  0  0  0  0  0  0  0  0
   -3.8893    0.1737    2.0828 H   0  0  0  0  0  0  0  0  0  0  0  0
   -4.0159   -1.6213   -0.1489 S   0  0  0  0  0  0  0  0  0  0  0  0
  1 10  1  1  0  0  0
  2  9  1  0  0  0  0
  3  2  2  0  0  0  0
  3 13  1  0  0  0  0
  4  3  1  0  0  0  0
  5  7  1  0  0  0  0
  5  2  1  0  0  0  0
  6  5  1  0  0  0  0
  8  5  1  0  0  0  0
  9  1  1  0  0  0  0
 10 11  1  0  0  0  0
 10 12  1  0  0  0  0
 13  1  1  0  0  0  0
M  END
