1
 OpenBabel05122313063D

 22 23  0  0  0  0  0  0  0  0999 V2000
    2.0658   -0.4513   -0.1707 N   0  0  0  0  0  2  0  0  0  0  0  0
    2.7818   -0.7415   -1.3175 C   0  0  0  0  0  0  0  0  0  0  0  0
    2.1005   -1.3212   -2.3322 N   0  0  0  0  0  0  0  0  0  0  0  0
    2.6085   -1.5927   -3.1725 H   0  0  0  0  0  0  0  0  0  0  0  0
    1.1299   -1.6075   -2.1677 H   0  0  0  0  0  0  0  0  0  0  0  0
    4.0932   -0.4945   -1.5135 N   0  0  0  0  0  0  0  0  0  0  0  0
    4.6768    0.0685   -0.4603 C   0  0  0  0  0  0  0  0  0  0  0  0
    4.0816    0.3560    0.7732 C   0  0  0  0  0  0  0  0  0  0  0  0
    2.6991    0.0042    0.9983 C   0  0  0  0  0  0  0  0  0  0  0  0
    2.1199    0.0724    2.0988 O   0  0  0  0  0  0  0  0  0  0  0  0
    5.0631    0.8866    1.5997 N   0  0  0  0  0  0  0  0  0  0  0  0
    4.8480    1.3727    2.9642 C   0  0  0  0  0  0  0  0  0  0  0  0
    5.7746    1.2479    3.5525 H   0  0  0  0  0  0  0  0  0  0  0  0
    4.0185    0.7903    3.4034 H   0  0  0  0  0  0  0  0  0  0  0  0
    4.5553    2.4406    2.9422 H   0  0  0  0  0  0  0  0  0  0  0  0
    6.2119    0.9399    0.9027 C   0  0  0  0  0  3  0  0  0  0  0  0
    7.1618    1.3290    1.2844 H   0  0  0  0  0  0  0  0  0  0  0  0
    6.0172    0.4479   -0.3491 N   0  0  0  0  0  0  0  0  0  0  0  0
    7.0087    0.3173   -1.4116 C   0  0  0  0  0  0  0  0  0  0  0  0
    7.8684   -0.2881   -1.0674 H   0  0  0  0  0  0  0  0  0  0  0  0
    7.3588    1.3138   -1.7427 H   0  0  0  0  0  0  0  0  0  0  0  0
    6.5107   -0.1946   -2.2550 H   0  0  0  0  0  0  0  0  0  0  0  0
  1  9  1  0  0  0  0
  2  1  1  0  0  0  0
  3  5  1  0  0  0  0
  3  2  1  0  0  0  0
  4  3  1  0  0  0  0
  6  2  2  0  0  0  0
  6  7  1  0  0  0  0
  7 18  1  0  0  0  0
  7  8  2  0  0  0  0
  8  9  1  0  0  0  0
  8 11  1  0  0  0  0
  9 10  2  0  0  0  0
 11 12  1  0  0  0  0
 12 14  1  0  0  0  0
 12 13  1  0  0  0  0
 15 12  1  0  0  0  0
 16 17  1  0  0  0  0
 16 11  1  0  0  0  0
 18 16  1  0  0  0  0
 19 20  1  0  0  0  0
 19 18  1  0  0  0  0
 21 19  1  0  0  0  0
 22 19  1  0  0  0  0
M  END
