4
 OpenBabel05122313063D

 18 20  0  0  1  0  0  0  0  0999 V2000
    8.8606    0.3472   -0.8216 O   0  0  0  0  0  0  0  0  0  0  0  0
    4.1400    0.7869    0.0787 N   0  0  0  0  0  0  0  0  0  0  0  0
    4.0097    2.0750    0.5025 N   0  0  0  0  0  0  0  0  0  0  0  0
    1.9918    1.0245    0.4981 N   0  0  0  0  0  2  0  0  0  0  0  0
    2.7478   -1.1463   -0.2790 N   0  0  0  0  0  0  0  0  0  0  0  0
    3.8324   -1.8504   -0.6663 N   0  0  0  0  0  0  0  0  0  0  0  0
    2.7071    2.1691    0.7439 C   0  0  0  0  0  0  0  0  0  0  0  0
    2.2436    3.0916    1.1135 H   0  0  0  0  0  0  0  0  0  0  0  0
    2.9306    0.1487    0.0732 C   0  0  2  0  0  3  0  0  0  0  0  0
    5.0334   -1.2727   -0.6892 C   0  0  0  0  0  0  0  0  0  0  0  0
    5.3074    0.1198   -0.3134 C   0  0  0  0  0  0  0  0  0  0  0  0
    6.5540    0.6814   -0.3446 C   0  0  0  0  0  3  0  0  0  0  0  0
    6.7122    1.7279   -0.0522 H   0  0  0  0  0  0  0  0  0  0  0  0
    7.7122   -0.1149   -0.7739 C   0  0  0  0  0  0  0  0  0  0  0  0
    7.4232   -1.5218   -1.1519 C   0  0  0  0  0  0  0  0  0  0  0  0
    8.2939   -2.1142   -1.4718 H   0  0  0  0  0  0  0  0  0  0  0  0
    6.1701   -2.0608   -1.1112 C   0  0  0  0  0  0  0  0  0  0  0  0
    5.9646   -3.1046   -1.3923 H   0  0  0  0  0  0  0  0  0  0  0  0
  1 14  2  0  0  0  0
  2  3  1  0  0  0  0
  3  7  2  0  0  0  0
  4  7  1  0  0  0  0
  6  5  2  0  0  0  0
  7  8  1  0  0  0  0
  9  5  1  1  0  0  0
  9  2  1  0  0  0  0
  9  4  1  0  0  0  0
 10  6  1  0  0  0  0
 10 11  2  0  0  0  0
 11  2  1  0  0  0  0
 12 11  1  0  0  0  0
 12 13  1  0  0  0  0
 14 12  1  0  0  0  0
 15 17  2  0  0  0  0
 15 14  1  0  0  0  0
 16 15  1  0  0  0  0
 17 10  1  0  0  0  0
 18 17  1  0  0  0  0
M  END
