1
 OpenBabel05122313063D

 24 24  0  0  0  0  0  0  0  0999 V2000
   -1.6017   -1.2981   -0.7642 N   0  0  0  0  0  0  0  0  0  0  0  0
   -2.8982   -0.6113   -0.7423 C   0  0  0  0  0  0  0  0  0  0  0  0
   -3.9922   -1.5392   -0.9833 N   0  0  0  0  0  0  0  0  0  0  0  0
   -3.9966   -2.5907    0.0204 C   0  0  0  0  0  0  0  0  0  0  0  0
   -2.7196   -3.2845    0.0352 N   0  0  0  0  0  0  0  0  0  0  0  0
   -1.6290   -2.3513    0.2575 C   0  0  0  0  0  0  0  0  0  0  0  0
   -1.2901   -1.8233   -2.1058 C   0  0  0  0  0  0  0  0  0  0  0  0
   -5.2729   -0.8749   -1.1078 C   0  0  0  0  0  0  0  0  0  0  0  0
   -2.6950   -4.4031    0.9548 C   0  0  0  0  0  0  0  0  0  0  0  0
   -2.9072    0.1796   -1.5194 H   0  0  0  0  0  0  0  0  0  0  0  0
   -2.9896   -0.1080    0.2575 H   0  0  0  0  0  0  0  0  0  0  0  0
   -4.2337   -2.1621    1.0499 H   0  0  0  0  0  0  0  0  0  0  0  0
   -4.8010   -3.3182   -0.2205 H   0  0  0  0  0  0  0  0  0  0  0  0
   -1.7092   -1.8376    1.2552 H   0  0  0  0  0  0  0  0  0  0  0  0
   -0.6678   -2.9009    0.2456 H   0  0  0  0  0  0  0  0  0  0  0  0
   -2.0614   -2.5389   -2.4542 H   0  0  0  0  0  0  0  0  0  0  0  0
   -1.2296   -0.9763   -2.8171 H   0  0  0  0  0  0  0  0  0  0  0  0
   -0.3052   -2.3261   -2.0781 H   0  0  0  0  0  0  0  0  0  0  0  0
   -6.0602   -1.6141   -1.3598 H   0  0  0  0  0  0  0  0  0  0  0  0
   -5.5945   -0.3382   -0.1752 H   0  0  0  0  0  0  0  0  0  0  0  0
   -5.2307   -0.1292   -1.9274 H   0  0  0  0  0  0  0  0  0  0  0  0
   -3.4957   -5.1253    0.6952 H   0  0  0  0  0  0  0  0  0  0  0  0
   -1.7221   -4.9295    0.8788 H   0  0  0  0  0  0  0  0  0  0  0  0
   -2.8363   -4.1059    2.0281 H   0  0  0  0  0  0  0  0  0  0  0  0
  1  2  1  0  0  0  0
  1  6  1  0  0  0  0
  2 11  1  0  0  0  0
  3  2  1  0  0  0  0
  3  4  1  0  0  0  0
  4  5  1  0  0  0  0
  4 12  1  0  0  0  0
  5  6  1  0  0  0  0
  5  9  1  0  0  0  0
  6 14  1  0  0  0  0
  7 18  1  0  0  0  0
  7  1  1  0  0  0  0
  8  3  1  0  0  0  0
  8 20  1  0  0  0  0
  9 24  1  0  0  0  0
 10  2  1  0  0  0  0
 13  4  1  0  0  0  0
 15  6  1  0  0  0  0
 16  7  1  0  0  0  0
 17  7  1  0  0  0  0
 19  8  1  0  0  0  0
 21  8  1  0  0  0  0
 22  9  1  0  0  0  0
 23  9  1  0  0  0  0
M  END
