3
 OpenBabel05122313063D

 40 40  0  0  0  0  0  0  0  0999 V2000
    1.0269    0.5851    0.1330 O   0  0  0  0  0  0  0  0  0  0  0  0
    2.6289   -1.0487    0.6516 O   0  0  0  0  0  0  0  0  0  0  0  0
   -0.7686   -1.6158   -0.4411 N   0  0  0  0  0  2  0  0  0  0  0  0
   -1.4645   -2.5277   -1.1552 C   0  0  0  0  0  3  0  0  0  0  0  0
   -2.5239   -2.2988   -1.3365 H   0  0  0  0  0  0  0  0  0  0  0  0
   -0.8588   -3.6860   -1.6455 C   0  0  0  0  0  0  0  0  0  0  0  0
   -1.4579   -4.4082   -2.2168 H   0  0  0  0  0  0  0  0  0  0  0  0
    0.5060   -3.8876   -1.3972 C   0  0  0  0  0  0  0  0  0  0  0  0
    1.0161   -4.7868   -1.7742 H   0  0  0  0  0  0  0  0  0  0  0  0
    1.2149   -2.9269   -0.6672 C   0  0  0  0  0  0  0  0  0  0  0  0
    2.2848   -3.0222   -0.4440 H   0  0  0  0  0  0  0  0  0  0  0  0
    0.5516   -1.7857   -0.1935 C   0  0  0  0  0  0  0  0  0  0  0  0
    1.2727   -0.7100    0.6208 C   0  0  0  0  0  0  0  0  0  0  0  0
    0.8213   -0.7017    1.6431 H   0  0  0  0  0  0  0  0  0  0  0  0
    1.4474    0.8455   -1.2212 C   0  0  0  0  0  0  0  0  0  0  0  0
    0.8119    0.2657   -1.9282 H   0  0  0  0  0  0  0  0  0  0  0  0
    2.5056    0.5239   -1.3428 H   0  0  0  0  0  0  0  0  0  0  0  0
    1.2877    2.3332   -1.4813 C   0  0  0  0  0  0  0  0  0  0  0  0
    1.5560    2.5180   -2.5448 H   0  0  0  0  0  0  0  0  0  0  0  0
    0.2104    2.5892   -1.3878 H   0  0  0  0  0  0  0  0  0  0  0  0
    2.1296    3.2222   -0.5614 C   0  0  0  0  0  0  0  0  0  0  0  0
    3.2032    2.9415   -0.6616 H   0  0  0  0  0  0  0  0  0  0  0  0
    1.8524    3.0026    0.4913 H   0  0  0  0  0  0  0  0  0  0  0  0
    1.9515    4.7135   -0.8444 C   0  0  0  0  0  0  0  0  0  0  0  0
    2.2454    4.9676   -1.8847 H   0  0  0  0  0  0  0  0  0  0  0  0
    2.5630    5.3374   -0.1618 H   0  0  0  0  0  0  0  0  0  0  0  0
    0.8920    5.0185   -0.7181 H   0  0  0  0  0  0  0  0  0  0  0  0
    3.3768   -0.3134    1.6305 C   0  0  0  0  0  0  0  0  0  0  0  0
    3.0695   -0.6439    2.6505 H   0  0  0  0  0  0  0  0  0  0  0  0
    3.1357    0.7691    1.5400 H   0  0  0  0  0  0  0  0  0  0  0  0
    4.8590   -0.5516    1.3980 C   0  0  0  0  0  0  0  0  0  0  0  0
    5.4142   -0.0575    2.2252 H   0  0  0  0  0  0  0  0  0  0  0  0
    5.0707   -1.6400    1.4916 H   0  0  0  0  0  0  0  0  0  0  0  0
    5.3652   -0.0360    0.0467 C   0  0  0  0  0  0  0  0  0  0  0  0
    5.1259    1.0478   -0.0388 H   0  0  0  0  0  0  0  0  0  0  0  0
    4.7911   -0.5358   -0.7623 H   0  0  0  0  0  0  0  0  0  0  0  0
    6.8628   -0.2576   -0.1620 C   0  0  0  0  0  0  0  0  0  0  0  0
    7.4615    0.2595    0.6168 H   0  0  0  0  0  0  0  0  0  0  0  0
    7.1995    0.1213   -1.1478 H   0  0  0  0  0  0  0  0  0  0  0  0
    7.1217   -1.3361   -0.1126 H   0  0  0  0  0  0  0  0  0  0  0  0
  1 13  1  0  0  0  0
  2 28  1  0  0  0  0
  3 12  1  0  0  0  0
  4  3  1  0  0  0  0
  5  4  1  0  0  0  0
  6  8  2  0  0  0  0
  6  4  1  0  0  0  0
  7  6  1  0  0  0  0
  8 10  1  0  0  0  0
  9  8  1  0  0  0  0
 10 11  1  0  0  0  0
 10 12  2  0  0  0  0
 12 13  1  0  0  0  0
 13  2  1  0  0  0  0
 13 14  1  0  0  0  0
 15  1  1  0  0  0  0
 16 15  1  0  0  0  0
 17 15  1  0  0  0  0
 18 20  1  0  0  0  0
 18 15  1  0  0  0  0
 18 21  1  0  0  0  0
 19 18  1  0  0  0  0
 21 23  1  0  0  0  0
 22 21  1  0  0  0  0
 24 27  1  0  0  0  0
 24 21  1  0  0  0  0
 24 26  1  0  0  0  0
 25 24  1  0  0  0  0
 28 29  1  0  0  0  0
 30 28  1  0  0  0  0
 31 33  1  0  0  0  0
 31 28  1  0  0  0  0
 31 32  1  0  0  0  0
 34 31  1  0  0  0  0
 35 34  1  0  0  0  0
 36 34  1  0  0  0  0
 37 40  1  0  0  0  0
 37 34  1  0  0  0  0
 37 38  1  0  0  0  0
 39 37  1  0  0  0  0
M  END
