5
 OpenBabel05122313063D

 18 18  0  0  0  0  0  0  0  0999 V2000
    6.9597    1.3027   -0.1760 S   0  0  0  0  0  0  0  0  0  0  0  0
    5.5549    0.6799    0.2083 C   0  0  0  0  0  0  0  0  0  0  0  0
    4.5004    0.2193    0.5838 N   0  0  0  0  0  0  0  0  0  0  0  0
   -0.9164   -2.1454   -0.3244 S   0  0  0  0  0  0  0  0  0  0  0  0
   -1.8345   -0.9397   -0.9851 N   0  0  0  0  0  2  0  0  0  0  0  0
   -1.5953   -0.9160   -1.9850 H   0  0  0  0  0  0  0  0  0  0  0  0
   -0.7852   -3.1882   -1.3711 O   0  0  0  0  0  0  0  0  0  0  0  0
   -1.4551   -2.4726    1.0219 O   0  0  0  0  0  0  0  0  0  0  0  0
    0.7499   -1.5032   -0.0368 C   0  0  0  0  0  0  0  0  0  0  0  0
    1.1837   -1.2297    1.2688 C   0  0  0  0  0  0  0  0  0  0  0  0
    0.5251   -1.4853    2.1111 H   0  0  0  0  0  0  0  0  0  0  0  0
    2.4423   -0.6569    1.4760 C   0  0  0  0  0  0  0  0  0  0  0  0
    2.8044   -0.4314    2.4889 H   0  0  0  0  0  0  0  0  0  0  0  0
    3.2722   -0.3600    0.3716 C   0  0  0  0  0  0  0  0  0  0  0  0
    2.8364   -0.6685   -0.9427 C   0  0  0  0  0  0  0  0  0  0  0  0
    3.4997   -0.4532   -1.7928 H   0  0  0  0  0  0  0  0  0  0  0  0
    1.5810   -1.2429   -1.1410 C   0  0  0  0  0  0  0  0  0  0  0  0
    1.2386   -1.5028   -2.1539 H   0  0  0  0  0  0  0  0  0  0  0  0
  1  2  2  0  0  0  0
  2  3  2  0  0  0  0
  4  9  1  0  0  0  0
  4  8  2  0  0  0  0
  5  4  1  0  0  0  0
  6  5  1  0  0  0  0
  7  4  2  0  0  0  0
  9 10  1  0  0  0  0
 10 12  2  0  0  0  0
 10 11  1  0  0  0  0
 12 13  1  0  0  0  0
 14  3  1  0  0  0  0
 14 12  1  0  0  0  0
 15 14  2  0  0  0  0
 16 15  1  0  0  0  0
 17 15  1  0  0  0  0
 17  9  2  0  0  0  0
 18 17  1  0  0  0  0
M  END
