4
 OpenBabel05122313063D

 31 32  0  0  1  0  0  0  0  0999 V2000
    0.3970   -4.5007    0.4799 S   0  0  0  0  0  0  0  0  0  0  0  0
   -1.8849   -2.6597    1.2694 S   0  0  1  0  0  0  0  0  0  0  0  0
   -2.2875   -4.0608    1.6909 O   0  0  0  0  0  0  0  0  0  0  0  0
    0.5139   -1.9506   -0.0262 N   0  0  0  0  0  2  0  0  0  0  0  0
    1.7127   -2.4598   -0.5133 C   0  0  0  0  0  0  0  0  0  0  0  0
    2.7347   -1.7347   -1.1540 C   0  0  0  0  0  0  0  0  0  0  0  0
    2.6017   -0.6589   -1.3329 H   0  0  0  0  0  0  0  0  0  0  0  0
    3.8771   -2.4273   -1.5596 C   0  0  0  0  0  0  0  0  0  0  0  0
    4.6890   -1.8820   -2.0630 H   0  0  0  0  0  0  0  0  0  0  0  0
    4.0048   -3.8188   -1.3399 C   0  0  0  0  0  0  0  0  0  0  0  0
    4.9172   -4.3378   -1.6687 H   0  0  0  0  0  0  0  0  0  0  0  0
    2.9879   -4.5531   -0.7188 C   0  0  0  0  0  0  0  0  0  0  0  0
    3.0879   -5.6361   -0.5584 H   0  0  0  0  0  0  0  0  0  0  0  0
    1.8349   -3.8629   -0.3088 C   0  0  0  0  0  0  0  0  0  0  0  0
   -0.2548   -2.8867    0.4832 C   0  0  1  0  0  3  0  0  0  0  0  0
   -2.7676   -2.2754   -0.3232 C   0  0  0  0  0  0  0  0  0  0  0  0
   -2.1985   -1.4563   -0.8139 H   0  0  0  0  0  0  0  0  0  0  0  0
   -2.6739   -3.1992   -0.9306 H   0  0  0  0  0  0  0  0  0  0  0  0
   -4.2150   -1.9169   -0.0130 C   0  0  0  0  0  0  0  0  0  0  0  0
   -4.2452   -1.1005    0.7450 H   0  0  0  0  0  0  0  0  0  0  0  0
   -4.7085   -2.7954    0.4543 H   0  0  0  0  0  0  0  0  0  0  0  0
   -5.0107   -1.4611   -1.2535 C   0  0  0  0  0  0  0  0  0  0  0  0
   -4.8936   -2.2505   -2.0315 H   0  0  0  0  0  0  0  0  0  0  0  0
   -6.5012   -1.3540   -0.9090 C   0  0  0  0  0  0  0  0  0  0  0  0
   -7.0974   -1.0569   -1.7954 H   0  0  0  0  0  0  0  0  0  0  0  0
   -6.6683   -0.5864   -0.1231 H   0  0  0  0  0  0  0  0  0  0  0  0
   -6.9060   -2.3151   -0.5313 H   0  0  0  0  0  0  0  0  0  0  0  0
   -4.4797   -0.1396   -1.8263 C   0  0  0  0  0  0  0  0  0  0  0  0
   -3.4109   -0.1900   -2.1177 H   0  0  0  0  0  0  0  0  0  0  0  0
   -4.5822    0.6781   -1.0806 H   0  0  0  0  0  0  0  0  0  0  0  0
   -5.0554    0.1574   -2.7263 H   0  0  0  0  0  0  0  0  0  0  0  0
  1 15  1  0  0  0  0
  2  3  2  6  0  0  0
  4 15  1  0  0  0  0
  5 14  1  0  0  0  0
  5  4  1  0  0  0  0
  6  5  2  0  0  0  0
  7  6  1  0  0  0  0
  8 10  2  0  0  0  0
  8  6  1  0  0  0  0
  9  8  1  0  0  0  0
 10 12  1  0  0  0  0
 11 10  1  0  0  0  0
 12 13  1  0  0  0  0
 12 14  2  0  0  0  0
 14  1  1  0  0  0  0
 15  2  1  1  0  0  0
 16 19  1  0  0  0  0
 16  2  1  0  0  0  0
 17 16  1  0  0  0  0
 18 16  1  0  0  0  0
 19 21  1  0  0  0  0
 19 20  1  0  0  0  0
 22 24  1  0  0  0  0
 22 19  1  0  0  0  0
 23 22  1  0  0  0  0
 24 27  1  0  0  0  0
 24 26  1  0  0  0  0
 25 24  1  0  0  0  0
 28 22  1  0  0  0  0
 28 30  1  0  0  0  0
 29 28  1  0  0  0  0
 31 28  1  0  0  0  0
M  END
