1
 OpenBabel05122313063D

 35 42  0  0  1  0  0  0  0  0999 V2000
    1.4152   -1.1051    1.3586 N   0  0  0  0  0  2  0  0  0  0  0  0
    1.3142    1.9046   -0.8484 C   0  0  1  0  0  0  0  0  0  0  0  0
    2.8125    1.4257   -0.2281 C   0  0  1  0  0  0  0  0  0  0  0  0
    3.0678   -0.0763   -0.1488 C   0  0  0  0  0  0  0  0  0  0  0  0
    2.4754   -0.5526   -0.9541 H   0  0  0  0  0  0  0  0  0  0  0  0
    4.1415   -0.2386   -0.3541 H   0  0  0  0  0  0  0  0  0  0  0  0
    2.6964   -0.6886    1.1689 C   0  0  1  0  0  3  0  0  0  0  0  0
    3.6475   -0.7802    2.1997 C   0  0  0  0  0  0  0  0  0  0  0  0
    4.6708   -0.4309    2.0050 H   0  0  0  0  0  0  0  0  0  0  0  0
    3.2844   -1.2905    3.4503 C   0  0  0  0  0  0  0  0  0  0  0  0
    4.0224   -1.3634    4.2627 H   0  0  0  0  0  0  0  0  0  0  0  0
    1.9573   -1.6932    3.6410 C   0  0  0  0  0  0  0  0  0  0  0  0
    1.6039   -2.0896    4.6031 H   0  0  0  0  0  0  0  0  0  0  0  0
    1.0594   -1.5818    2.5757 C   0  0  0  0  0  0  0  0  0  0  0  0
    0.0060   -1.8693    2.6996 H   0  0  0  0  0  0  0  0  0  0  0  0
    1.6328    2.1537    0.8174 B   0  0  2  0  0  0  0  0  0  0  0  0
    1.0526    1.4589    1.6034 H   0  0  0  0  0  0  0  0  0  0  0  0
    0.8523    3.4102   -0.1527 B   0  0  1  0  0  0  0  0  0  0  0  0
   -0.3190    3.5985    0.0072 H   0  0  0  0  0  0  0  0  0  0  0  0
    1.5308    3.3196   -1.7957 B   0  0  2  0  0  0  0  0  0  0  0  0
    0.8205    3.4498   -2.7607 H   0  0  0  0  0  0  0  0  0  0  0  0
    2.7598    2.0392   -1.8243 B   0  0  1  0  0  0  0  0  0  0  0  0
    2.8867    1.2453   -2.7203 H   0  0  0  0  0  0  0  0  0  0  0  0
    3.3707    2.5370    0.9257 B   0  0  2  0  0  0  0  0  0  0  0  0
    3.9870    2.1024    1.8686 H   0  0  0  0  0  0  0  0  0  0  0  0
    2.1616    3.8419    0.9716 B   0  0  1  0  0  0  0  0  0  0  0  0
    1.9343    4.4424    1.9950 H   0  0  0  0  0  0  0  0  0  0  0  0
    2.0939    4.5749   -0.6572 B   0  0  2  0  0  0  0  0  0  0  0  0
    1.8044    5.7354   -0.8310 H   0  0  0  0  0  0  0  0  0  0  0  0
    3.2705    3.7245   -1.6997 B   0  0  0  0  0  0  0  0  0  0  0  0
    3.8416    4.2425   -2.6304 H   0  0  0  0  0  0  0  0  0  0  0  0
    4.0666    2.4864   -0.7093 B   0  0  1  0  0  0  0  0  0  0  0  0
    5.1506    1.9835   -0.8886 H   0  0  0  0  0  0  0  0  0  0  0  0
    3.6597    4.0497    0.0208 B   0  0  2  0  0  0  0  0  0  0  0  0
    4.5339    4.8144    0.3561 H   0  0  0  0  0  0  0  0  0  0  0  0
  1 14  1  0  0  0  0
  2  3  1  0  0  0  0
  2 18  1  0  0  0  0
  2 16  1  0  0  0  0
  3  4  1  0  0  0  0
  3 24  1  0  0  0  0
  4  7  1  0  0  0  0
  5  4  1  0  0  0  0
  6  4  1  0  0  0  0
  7  1  1  0  0  0  0
  7  8  1  0  0  0  0
  8 10  2  0  0  0  0
  9  8  1  0  0  0  0
 10 12  1  0  0  0  0
 10 11  1  0  0  0  0
 12 13  1  0  0  0  0
 14 15  1  0  0  0  0
 14 12  2  0  0  0  0
 16 26  1  0  0  0  0
 16 17  1  0  0  0  0
 18 19  1  0  0  0  0
 18 16  1  0  0  0  0
 20  2  1  0  0  0  0
 20 28  1  0  0  0  0
 21 20  1  0  0  0  0
 22 20  1  0  0  0  0
 22 30  1  0  0  0  0
 22  3  1  0  0  0  0
 23 22  1  0  0  0  0
 24 26  1  0  0  0  0
 24 25  1  0  0  0  0
 26 27  1  0  0  0  0
 28 18  1  0  0  0  0
 28 34  1  0  0  0  0
 29 28  1  0  0  0  0
 30 32  1  0  0  0  0
 31 30  1  0  0  0  0
 32 34  1  0  0  0  0
 32 24  1  0  0  0  0
 33 32  1  0  0  0  0
 34 35  1  0  0  0  0
 34 26  1  0  0  0  0
M  END
