3
 OpenBabel05122313063D

 51 54  0  0  1  0  0  0  0  0999 V2000
    0.9997   -0.1479    0.0334 As  0  0  0  0  0  0  0  0  0  0  0  0
   -2.6755    2.0968   -1.5569 O   0  0  0  0  0  0  0  0  0  0  0  0
   -1.8741    0.1150   -0.8481 N   0  0  0  0  0  2  0  0  0  0  0  0
    0.9419    1.3537   -1.2329 C   0  0  0  0  0  0  0  0  0  0  0  0
    2.1387    1.9568   -1.6551 C   0  0  0  0  0  0  0  0  0  0  0  0
    3.0988    1.5685   -1.2829 H   0  0  0  0  0  0  0  0  0  0  0  0
    2.1263    3.0464   -2.5413 C   0  0  0  0  0  0  0  0  0  0  0  0
    3.0762    3.5008   -2.8615 H   0  0  0  0  0  0  0  0  0  0  0  0
    0.9051    3.5510   -3.0085 C   0  0  0  0  0  0  0  0  0  0  0  0
    0.8840    4.4067   -3.6997 H   0  0  0  0  0  0  0  0  0  0  0  0
   -0.2954    2.9599   -2.5968 C   0  0  0  0  0  0  0  0  0  0  0  0
   -1.2593    3.3444   -2.9565 H   0  0  0  0  0  0  0  0  0  0  0  0
   -0.2980    1.8520   -1.7193 C   0  0  0  0  0  0  0  0  0  0  0  0
   -1.6089    1.2853   -1.3433 C   0  0  1  0  0  3  0  0  0  0  0  0
   -3.8592    1.2946   -1.2891 C   0  0  0  0  0  0  0  0  0  0  0  0
   -4.3210    1.0370   -2.2651 H   0  0  0  0  0  0  0  0  0  0  0  0
   -4.5655    1.9152   -0.7049 H   0  0  0  0  0  0  0  0  0  0  0  0
   -3.3168    0.0645   -0.5377 C   0  0  2  0  0  0  0  0  0  0  0  0
   -3.7034   -0.8944   -0.9402 H   0  0  0  0  0  0  0  0  0  0  0  0
   -3.5397    0.0511    0.9941 C   0  0  0  0  0  0  0  0  0  0  0  0
   -2.9094   -0.7915    1.3546 H   0  0  0  0  0  0  0  0  0  0  0  0
   -3.0744    1.3347    1.6880 C   0  0  0  0  0  0  0  0  0  0  0  0
   -3.1627    1.2345    2.7884 H   0  0  0  0  0  0  0  0  0  0  0  0
   -3.6842    2.2144    1.3907 H   0  0  0  0  0  0  0  0  0  0  0  0
   -2.0118    1.5601    1.4701 H   0  0  0  0  0  0  0  0  0  0  0  0
   -5.0006   -0.2873    1.3065 C   0  0  0  0  0  0  0  0  0  0  0  0
   -5.2815   -1.2637    0.8634 H   0  0  0  0  0  0  0  0  0  0  0  0
   -5.6960    0.4855    0.9127 H   0  0  0  0  0  0  0  0  0  0  0  0
   -5.1664   -0.3477    2.4009 H   0  0  0  0  0  0  0  0  0  0  0  0
    2.9005   -0.5824    0.0653 C   0  0  0  0  0  0  0  0  0  0  0  0
    3.3856   -1.4517   -0.9314 C   0  0  0  0  0  0  0  0  0  0  0  0
    2.6941   -1.8643   -1.6828 H   0  0  0  0  0  0  0  0  0  0  0  0
    4.7450   -1.7966   -0.9558 C   0  0  0  0  0  0  0  0  0  0  0  0
    5.1226   -2.4759   -1.7351 H   0  0  0  0  0  0  0  0  0  0  0  0
    5.6182   -1.2861    0.0191 C   0  0  0  0  0  0  0  0  0  0  0  0
    6.6833   -1.5631    0.0025 H   0  0  0  0  0  0  0  0  0  0  0  0
    5.1315   -0.4304    1.0201 C   0  0  0  0  0  0  0  0  0  0  0  0
    5.8133   -0.0358    1.7889 H   0  0  0  0  0  0  0  0  0  0  0  0
    3.7725   -0.0769    1.0470 C   0  0  0  0  0  0  0  0  0  0  0  0
    3.3905    0.5911    1.8342 H   0  0  0  0  0  0  0  0  0  0  0  0
    0.7160    0.7786    1.7328 C   0  0  0  0  0  0  0  0  0  0  0  0
    0.9814    2.1502    1.9026 C   0  0  0  0  0  0  0  0  0  0  0  0
    1.3859    2.7436    1.0679 H   0  0  0  0  0  0  0  0  0  0  0  0
    0.7133    2.7648    3.1367 C   0  0  0  0  0  0  0  0  0  0  0  0
    0.9137    3.8393    3.2669 H   0  0  0  0  0  0  0  0  0  0  0  0
    0.1854    2.0131    4.1988 C   0  0  0  0  0  0  0  0  0  0  0  0
   -0.0280    2.4990    5.1630 H   0  0  0  0  0  0  0  0  0  0  0  0
   -0.0792    0.6441    4.0283 C   0  0  0  0  0  0  0  0  0  0  0  0
   -0.5015    0.0552    4.8567 H   0  0  0  0  0  0  0  0  0  0  0  0
    0.1786    0.0265    2.7955 C   0  0  0  0  0  0  0  0  0  0  0  0
   -0.0599   -1.0385    2.6416 H   0  0  0  0  0  0  0  0  0  0  0  0
  1 30  1  0  0  0  0
  1 41  1  0  0  0  0
  2 14  1  0  0  0  0
  2 15  1  0  0  0  0
  3 18  1  0  0  0  0
  4  1  1  0  0  0  0
  5  6  1  0  0  0  0
  5  4  1  0  0  0  0
  7  5  2  0  0  0  0
  8  7  1  0  0  0  0
  9 11  2  0  0  0  0
  9  7  1  0  0  0  0
 10  9  1  0  0  0  0
 11 13  1  0  0  0  0
 12 11  1  0  0  0  0
 13  4  2  0  0  0  0
 14 13  1  6  0  0  0
 14  3  1  0  0  0  0
 15 17  1  0  0  0  0
 15 18  1  0  0  0  0
 16 15  1  0  0  0  0
 18 19  1  6  0  0  0
 18 20  1  0  0  0  0
 20 26  1  0  0  0  0
 20 21  1  0  0  0  0
 20 22  1  0  0  0  0
 22 23  1  0  0  0  0
 24 22  1  0  0  0  0
 25 22  1  0  0  0  0
 26 29  1  0  0  0  0
 27 26  1  0  0  0  0
 28 26  1  0  0  0  0
 30 39  1  0  0  0  0
 31 30  2  0  0  0  0
 32 31  1  0  0  0  0
 33 31  1  0  0  0  0
 33 35  2  0  0  0  0
 34 33  1  0  0  0  0
 35 37  1  0  0  0  0
 36 35  1  0  0  0  0
 37 39  2  0  0  0  0
 37 38  1  0  0  0  0
 39 40  1  0  0  0  0
 41 42  2  0  0  0  0
 41 50  1  0  0  0  0
 42 44  1  0  0  0  0
 43 42  1  0  0  0  0
 44 45  1  0  0  0  0
 44 46  2  0  0  0  0
 46 47  1  0  0  0  0
 48 46  1  0  0  0  0
 48 49  1  0  0  0  0
 50 48  2  0  0  0  0
 51 50  1  0  0  0  0
M  END
