7
 OpenBabel05122313063D

 19 19  0  0  0  0  0  0  0  0999 V2000
   -2.5816    3.1628    0.0288 F   0  0  0  0  0  0  0  0  0  0  0  0
   -3.8286    1.6178    0.9312 F   0  0  0  0  0  0  0  0  0  0  0  0
   -3.9883    2.0446   -1.2043 F   0  0  0  0  0  0  0  0  0  0  0  0
   -3.1319   -2.6554   -0.4725 O   0  0  0  0  0  0  0  0  0  0  0  0
   -4.4017   -0.7695   -0.5791 O   0  0  0  0  0  0  0  0  0  0  0  0
   -0.8291   -0.9233   -0.7975 N   0  0  0  0  0  0  0  0  0  0  0  0
   -0.0678    0.1621   -0.7553 N   0  0  0  0  0  0  0  0  0  0  0  0
   -0.7463    1.2954   -0.5457 N   0  0  0  0  0  0  0  0  0  0  0  0
   -2.0363    0.9208   -0.4496 C   0  0  0  0  0  0  0  0  0  0  0  0
   -2.0967   -0.4871   -0.6104 C   0  0  0  0  0  3  0  0  0  0  0  0
   -3.1102    1.9366   -0.1799 C   0  0  0  0  0  0  0  0  0  0  0  0
   -3.2242   -1.4430   -0.5512 C   0  0  0  0  0  0  0  0  0  0  0  0
   -5.6005   -1.5502   -0.4495 C   0  0  0  0  0  0  0  0  0  0  0  0
   -5.5012   -2.2266    0.4265 H   0  0  0  0  0  0  0  0  0  0  0  0
   -5.7067   -2.2033   -1.3430 H   0  0  0  0  0  0  0  0  0  0  0  0
   -6.7547   -0.5782   -0.3061 C   0  0  0  0  0  0  0  0  0  0  0  0
   -6.6107    0.0664    0.5834 H   0  0  0  0  0  0  0  0  0  0  0  0
   -7.7117   -1.1259   -0.1979 H   0  0  0  0  0  0  0  0  0  0  0  0
   -6.8243    0.0817   -1.1933 H   0  0  0  0  0  0  0  0  0  0  0  0
  3 11  1  0  0  0  0
  5 12  1  0  0  0  0
  5 13  1  0  0  0  0
  6  7  2  0  0  0  0
  6 10  1  0  0  0  0
  7  8  1  0  0  0  0
  8  9  2  0  0  0  0
  9 11  1  0  0  0  0
 10 12  1  0  0  0  0
 10  9  1  0  0  0  0
 11  1  1  0  0  0  0
 11  2  1  0  0  0  0
 12  4  2  0  0  0  0
 13 16  1  0  0  0  0
 13 14  1  0  0  0  0
 15 13  1  0  0  0  0
 16 18  1  0  0  0  0
 16 17  1  0  0  0  0
 19 16  1  0  0  0  0
M  END
