1
 OpenBabel05122313063D

 33 35  0  0  1  0  0  0  0  0999 V2000
   -0.6107    0.2320   -0.2029 N   0  0  0  0  0  2  0  0  0  0  0  0
   -0.3529    1.5989   -0.1167 C   0  0  0  0  0  0  0  0  0  0  0  0
   -1.2147    2.7513   -0.0264 C   0  0  0  0  0  0  0  0  0  0  0  0
   -2.4479    2.8308   -0.0472 O   0  0  0  0  0  0  0  0  0  0  0  0
   -0.4441    3.9402    0.0707 N   0  0  0  0  0  0  0  0  0  0  0  0
    0.9348    4.0332    0.0056 C   0  0  0  0  0  0  0  0  0  0  0  0
    1.4950    5.2598    0.0892 N   0  0  0  0  0  0  0  0  0  0  0  0
    1.7127    2.9669   -0.1453 N   0  0  0  0  0  0  0  0  0  0  0  0
    1.0399    1.8078   -0.1956 C   0  0  0  0  0  0  0  0  0  0  0  0
    0.5785   -0.3617   -0.3485 C   0  0  0  0  0  3  0  0  0  0  0  0
    1.6009    0.5521   -0.3471 N   0  0  0  0  0  0  0  0  0  0  0  0
    3.0283    0.2568   -0.4123 C   0  0  1  0  0  0  0  0  0  0  0  0
    3.6314   -0.2262    0.9401 C   0  0  2  0  0  0  0  0  0  0  0  0
    3.9949    0.7900    1.8122 O   0  0  0  0  0  0  0  0  0  0  0  0
    4.8255   -1.0657    0.4252 C   0  0  2  0  0  0  0  0  0  0  0  0
    5.9444   -0.2019    0.2536 O   0  0  0  0  0  0  0  0  0  0  0  0
    4.2730   -1.6787   -0.8623 C   0  0  1  0  0  0  0  0  0  0  0  0
    3.6723   -3.0808   -0.6597 C   0  0  0  0  0  0  0  0  0  0  0  0
    4.6123   -4.0054   -0.1752 O   0  0  0  0  0  0  0  0  0  0  0  0
    3.2313   -0.7845   -1.3377 O   0  0  0  0  0  0  0  0  0  0  0  0
   -1.0199    4.7855    0.1470 H   0  0  0  0  0  0  0  0  0  0  0  0
    2.5128    5.3167    0.0700 H   0  0  0  0  0  0  0  0  0  0  0  0
    0.9568    6.1098    0.2414 H   0  0  0  0  0  0  0  0  0  0  0  0
    0.7471   -1.4309   -0.5074 H   0  0  0  0  0  0  0  0  0  0  0  0
    3.5100    1.2165   -0.7136 H   0  0  0  0  0  0  0  0  0  0  0  0
    2.8801   -0.8826    1.4353 H   0  0  0  0  0  0  0  0  0  0  0  0
    5.1382   -1.8524    1.1392 H   0  0  0  0  0  0  0  0  0  0  0  0
    5.0701   -1.7307   -1.6389 H   0  0  0  0  0  0  0  0  0  0  0  0
    3.1827   -3.3930   -1.6120 H   0  0  0  0  0  0  0  0  0  0  0  0
    2.8691   -3.0108    0.1074 H   0  0  0  0  0  0  0  0  0  0  0  0
    4.9349    0.9820    1.5862 H   0  0  0  0  0  0  0  0  0  0  0  0
    5.8948    0.2202   -0.6254 H   0  0  0  0  0  0  0  0  0  0  0  0
    5.2022   -4.2660   -0.9066 H   0  0  0  0  0  0  0  0  0  0  0  0
  1  2  1  0  0  0  0
  2  3  1  0  0  0  0
  3  5  1  0  0  0  0
  4  3  2  0  0  0  0
  5 21  1  0  0  0  0
  6  5  1  0  0  0  0
  6  7  1  0  0  0  0
  7 23  1  0  0  0  0
  8  6  2  0  0  0  0
  9  8  1  0  0  0  0
  9  2  2  0  0  0  0
 10 11  1  0  0  0  0
 10  1  1  0  0  0  0
 11  9  1  0  0  0  0
 12 25  1  6  0  0  0
 12 11  1  0  0  0  0
 12 13  1  0  0  0  0
 13 26  1  1  0  0  0
 13 14  1  0  0  0  0
 15 13  1  0  0  0  0
 15 27  1  1  0  0  0
 16 15  1  0  0  0  0
 17 28  1  6  0  0  0
 17 18  1  0  0  0  0
 17 15  1  0  0  0  0
 18 19  1  0  0  0  0
 18 30  1  0  0  0  0
 20 17  1  0  0  0  0
 20 12  1  0  0  0  0
 22  7  1  0  0  0  0
 24 10  1  0  0  0  0
 29 18  1  0  0  0  0
 31 14  1  0  0  0  0
 32 16  1  0  0  0  0
 33 19  1  0  0  0  0
M  END
