2
 OpenBabel05122313063D

 23 23  0  0  1  0  0  0  0  0999 V2000
   -2.9319    2.0162   -0.4641 O   0  0  0  0  0  0  0  0  0  0  0  0
   -1.1562   -0.0494   -0.9179 N   0  0  0  0  0  0  0  0  0  0  0  0
   -1.4409    0.9498   -0.9803 H   0  0  0  0  0  0  0  0  0  0  0  0
   -1.0662   -0.4386   -1.8837 H   0  0  0  0  0  0  0  0  0  0  0  0
   -2.1195   -0.7392   -0.1481 N   0  0  0  0  0  0  0  0  0  0  0  0
   -2.1125   -2.1803   -0.3718 C   0  0  0  0  0  0  0  0  0  0  0  0
   -1.1659   -2.6213   -0.0028 H   0  0  0  0  0  0  0  0  0  0  0  0
   -2.1735   -2.4101   -1.4669 H   0  0  0  0  0  0  0  0  0  0  0  0
   -3.3708   -2.6406    0.3746 C   0  0  0  0  0  0  0  0  0  0  0  0
   -3.1214   -2.9069    1.4203 H   0  0  0  0  0  0  0  0  0  0  0  0
   -3.8164   -3.5376   -0.0953 H   0  0  0  0  0  0  0  0  0  0  0  0
   -4.3221   -1.4101    0.3383 C   0  0  0  0  0  0  0  0  0  0  0  0
   -4.6174   -1.1104    1.3642 H   0  0  0  0  0  0  0  0  0  0  0  0
   -5.2546   -1.6081   -0.2234 H   0  0  0  0  0  0  0  0  0  0  0  0
   -3.5093   -0.2870   -0.3368 C   0  0  1  0  0  0  0  0  0  0  0  0
   -3.7481   -0.2377   -1.4312 H   0  0  0  0  0  0  0  0  0  0  0  0
   -3.7269    1.0983    0.2588 C   0  0  0  0  0  0  0  0  0  0  0  0
   -4.8100    1.3738    0.2113 H   0  0  0  0  0  0  0  0  0  0  0  0
   -3.4287    1.0767    1.3366 H   0  0  0  0  0  0  0  0  0  0  0  0
   -2.7481    3.2761    0.1475 C   0  0  0  0  0  0  0  0  0  0  0  0
   -1.9910    3.8134   -0.4542 H   0  0  0  0  0  0  0  0  0  0  0  0
   -2.3612    3.1723    1.1890 H   0  0  0  0  0  0  0  0  0  0  0  0
   -3.6969    3.8618    0.1792 H   0  0  0  0  0  0  0  0  0  0  0  0
  1 20  1  0  0  0  0
  1 17  1  0  0  0  0
  2  5  1  0  0  0  0
  3  2  1  0  0  0  0
  4  2  1  0  0  0  0
  6  5  1  0  0  0  0
  6  7  1  0  0  0  0
  6  9  1  0  0  0  0
  8  6  1  0  0  0  0
  9 10  1  0  0  0  0
 11  9  1  0  0  0  0
 12  9  1  0  0  0  0
 12 13  1  0  0  0  0
 14 12  1  0  0  0  0
 15 16  1  6  0  0  0
 15  5  1  0  0  0  0
 15 17  1  0  0  0  0
 15 12  1  0  0  0  0
 17 19  1  0  0  0  0
 18 17  1  0  0  0  0
 20 23  1  0  0  0  0
 20 22  1  0  0  0  0
 21 20  1  0  0  0  0
M  END
