4
 OpenBabel05122313063D

 36 38  0  0  0  0  0  0  0  0999 V2000
   -1.5790   -2.7174    1.2712 S   0  0  0  0  0  0  0  0  0  0  0  0
   -1.6512   -4.1806    1.2206 O   0  0  0  0  0  0  0  0  0  0  0  0
   -1.1362   -1.9796    2.4641 O   0  0  0  0  0  0  0  0  0  0  0  0
    1.5327   -1.3851   -0.7714 N   0  0  0  0  0  2  0  0  0  0  0  0
   -0.2999   -2.2946    0.0595 N   0  0  0  0  0  0  0  0  0  0  0  0
   -5.9787    1.6665   -0.8552 N   0  0  0  0  0  0  0  0  0  0  0  0
    0.7448   -1.4581    0.3047 C   0  0  0  0  0  3  0  0  0  0  0  0
    0.8832   -0.9669    1.2712 H   0  0  0  0  0  0  0  0  0  0  0  0
   -4.4389   -0.1610   -0.2535 C   0  0  0  0  0  0  0  0  0  0  0  0
   -3.2295   -0.5909    0.4207 C   0  0  0  0  0  0  0  0  0  0  0  0
    0.9679   -2.2131   -1.7336 C   0  0  0  0  0  0  0  0  0  0  0  0
    1.4176   -2.3453   -2.7227 H   0  0  0  0  0  0  0  0  0  0  0  0
   -4.7553    1.2556   -0.3294 C   0  0  0  0  0  0  0  0  0  0  0  0
   -3.0212   -2.0123    0.4992 C   0  0  0  0  0  0  0  0  0  0  0  0
   -0.1773   -2.7899   -1.2255 C   0  0  0  0  0  0  0  0  0  0  0  0
   -0.8942   -3.4980   -1.6523 H   0  0  0  0  0  0  0  0  0  0  0  0
   -2.3251    0.3879    0.9174 C   0  0  0  0  0  0  0  0  0  0  0  0
   -1.4379    0.0850    1.4833 H   0  0  0  0  0  0  0  0  0  0  0  0
   -3.8863   -2.9451   -0.0707 C   0  0  0  0  0  0  0  0  0  0  0  0
   -3.6705   -4.0179    0.0312 H   0  0  0  0  0  0  0  0  0  0  0  0
   -5.2595   -1.1292   -0.8940 C   0  0  0  0  0  0  0  0  0  0  0  0
   -6.1019   -0.7786   -1.5050 H   0  0  0  0  0  0  0  0  0  0  0  0
   -3.7852    2.1759    0.0979 C   0  0  0  0  0  0  0  0  0  0  0  0
   -3.9834    3.2532    0.0266 H   0  0  0  0  0  0  0  0  0  0  0  0
   -2.5967    1.7352    0.7144 C   0  0  0  0  0  0  0  0  0  0  0  0
   -1.8900    2.4846    1.1006 H   0  0  0  0  0  0  0  0  0  0  0  0
   -5.0054   -2.4922   -0.7986 C   0  0  0  0  0  0  0  0  0  0  0  0
   -5.6591   -3.2190   -1.3014 H   0  0  0  0  0  0  0  0  0  0  0  0
   -6.0957    3.0209   -1.3647 C   0  0  0  0  0  0  0  0  0  0  0  0
   -6.2054    3.7872   -0.5587 H   0  0  0  0  0  0  0  0  0  0  0  0
   -6.9958    3.0859   -2.0078 H   0  0  0  0  0  0  0  0  0  0  0  0
   -5.2142    3.2788   -1.9823 H   0  0  0  0  0  0  0  0  0  0  0  0
   -7.2261    1.1723   -0.2694 C   0  0  0  0  0  0  0  0  0  0  0  0
   -7.0608    0.2327    0.2852 H   0  0  0  0  0  0  0  0  0  0  0  0
   -7.9908    0.9919   -1.0539 H   0  0  0  0  0  0  0  0  0  0  0  0
   -7.6416    1.9175    0.4489 H   0  0  0  0  0  0  0  0  0  0  0  0
  1  3  2  0  0  0  0
  2  1  2  0  0  0  0
  4  7  1  0  0  0  0
  5  7  1  0  0  0  0
  5  1  1  0  0  0  0
  6 13  1  0  0  0  0
  6 33  1  0  0  0  0
  7  8  1  0  0  0  0
  9 10  1  0  0  0  0
 10 14  1  0  0  0  0
 10 17  2  0  0  0  0
 11 15  2  0  0  0  0
 11  4  1  0  0  0  0
 12 11  1  0  0  0  0
 13  9  2  0  0  0  0
 13 23  1  0  0  0  0
 14  1  1  0  0  0  0
 15  5  1  0  0  0  0
 16 15  1  0  0  0  0
 17 18  1  0  0  0  0
 19 20  1  0  0  0  0
 19 14  2  0  0  0  0
 21 27  2  0  0  0  0
 21  9  1  0  0  0  0
 22 21  1  0  0  0  0
 23 25  2  0  0  0  0
 24 23  1  0  0  0  0
 25 17  1  0  0  0  0
 25 26  1  0  0  0  0
 27 19  1  0  0  0  0
 28 27  1  0  0  0  0
 29  6  1  0  0  0  0
 29 30  1  0  0  0  0
 31 29  1  0  0  0  0
 32 29  1  0  0  0  0
 33 34  1  0  0  0  0
 33 36  1  0  0  0  0
 35 33  1  0  0  0  0
M  END
