1
 OpenBabel05122313063D

 26 27  0  0  1  0  0  0  0  0999 V2000
    0.1796    0.8100   -0.0987 N   0  0  0  0  0  0  0  0  0  0  0  0
    0.0606    1.1097    0.8900 H   0  0  0  0  0  0  0  0  0  0  0  0
    0.2544    1.6705   -0.6596 H   0  0  0  0  0  0  0  0  0  0  0  0
   -0.9769   -0.0003   -0.5466 C   0  0  2  0  0  0  0  0  0  0  0  0
   -0.9059   -0.9214    0.0657 H   0  0  0  0  0  0  0  0  0  0  0  0
   -0.8119   -0.3910   -2.0171 C   0  0  0  0  0  0  0  0  0  0  0  0
    0.1021   -1.0019   -2.1458 H   0  0  0  0  0  0  0  0  0  0  0  0
   -0.7528    0.5090   -2.6659 H   0  0  0  0  0  0  0  0  0  0  0  0
   -1.6811   -0.9859   -2.3558 H   0  0  0  0  0  0  0  0  0  0  0  0
   -2.3133    0.6800   -0.2881 C   0  0  0  0  0  0  0  0  0  0  0  0
   -2.4397    2.0659   -0.2845 C   0  0  0  0  0  0  0  0  0  0  0  0
   -1.5519    2.7029   -0.4217 H   0  0  0  0  0  0  0  0  0  0  0  0
   -3.6949    2.7030   -0.1027 C   0  0  0  0  0  0  0  0  0  0  0  0
   -3.7496    3.8019   -0.1020 H   0  0  0  0  0  0  0  0  0  0  0  0
   -4.8391    1.9445    0.0695 C   0  0  0  0  0  0  0  0  0  0  0  0
   -5.8190    2.4274    0.2066 H   0  0  0  0  0  0  0  0  0  0  0  0
   -4.7684    0.5206    0.0776 C   0  0  0  0  0  0  0  0  0  0  0  0
   -3.4896   -0.1301   -0.0965 C   0  0  0  0  0  0  0  0  0  0  0  0
   -3.4519   -1.5578   -0.0639 C   0  0  0  0  0  0  0  0  0  0  0  0
   -2.4920   -2.0831   -0.1683 H   0  0  0  0  0  0  0  0  0  0  0  0
   -4.6086   -2.3029    0.1165 C   0  0  0  0  0  0  0  0  0  0  0  0
   -4.5497   -3.4014    0.1442 H   0  0  0  0  0  0  0  0  0  0  0  0
   -5.8637   -1.6601    0.2756 C   0  0  0  0  0  0  0  0  0  0  0  0
   -6.7741   -2.2617    0.4183 H   0  0  0  0  0  0  0  0  0  0  0  0
   -5.9369   -0.2762    0.2599 C   0  0  0  0  0  0  0  0  0  0  0  0
   -6.9040    0.2340    0.3913 H   0  0  0  0  0  0  0  0  0  0  0  0
  1  2  1  0  0  0  0
  3  1  1  0  0  0  0
  4 10  1  0  0  0  0
  4  1  1  0  0  0  0
  4  5  1  1  0  0  0
  6  4  1  0  0  0  0
  7  6  1  0  0  0  0
  8  6  1  0  0  0  0
  9  6  1  0  0  0  0
 10 11  2  0  0  0  0
 10 18  1  0  0  0  0
 11 13  1  0  0  0  0
 12 11  1  0  0  0  0
 13 14  1  0  0  0  0
 13 15  2  0  0  0  0
 15 17  1  0  0  0  0
 15 16  1  0  0  0  0
 17 25  1  0  0  0  0
 18 19  1  0  0  0  0
 18 17  2  0  0  0  0
 19 21  2  0  0  0  0
 20 19  1  0  0  0  0
 21 22  1  0  0  0  0
 21 23  1  0  0  0  0
 23 24  1  0  0  0  0
 25 23  2  0  0  0  0
 25 26  1  0  0  0  0
M  END
