1
 OpenBabel05122313063D

 22 24  0  0  1  0  0  0  0  0999 V2000
   -0.8334    0.6799   -0.0470 N   0  0  0  0  0  2  0  0  0  0  0  0
   -2.1637    0.8072    0.1083 C   0  0  1  0  0  3  0  0  0  0  0  0
   -3.5426   -0.2353    0.2393 S   0  0  0  0  0  0  0  0  0  0  0  0
   -4.5575    1.1853    0.4571 C   0  0  0  0  0  0  0  0  0  0  0  0
   -5.6388    1.0620    0.5905 H   0  0  0  0  0  0  0  0  0  0  0  0
   -3.8691    2.3613    0.3948 C   0  0  0  0  0  0  0  0  0  0  0  0
   -4.2602    3.3819    0.4725 H   0  0  0  0  0  0  0  0  0  0  0  0
   -2.5062    2.1376    0.1997 N   0  0  0  0  0  0  0  0  0  0  0  0
   -1.3485    2.8904    0.0791 C   0  0  0  0  0  0  0  0  0  0  0  0
   -1.3484    3.9836    0.0692 H   0  0  0  0  0  0  0  0  0  0  0  0
   -0.3117    1.9811   -0.0853 C   0  0  0  0  0  0  0  0  0  0  0  0
    1.1198    2.2583   -0.2840 C   0  0  0  0  0  0  0  0  0  0  0  0
    1.8538    1.5740   -1.2835 C   0  0  0  0  0  0  0  0  0  0  0  0
    1.3349    0.8609   -1.9421 H   0  0  0  0  0  0  0  0  0  0  0  0
    3.2281    1.8111   -1.4371 C   0  0  0  0  0  0  0  0  0  0  0  0
    3.7873    1.2823   -2.2237 H   0  0  0  0  0  0  0  0  0  0  0  0
    3.8835    2.7439   -0.6128 C   0  0  0  0  0  0  0  0  0  0  0  0
    4.9595    2.9336   -0.7415 H   0  0  0  0  0  0  0  0  0  0  0  0
    3.1565    3.4453    0.3625 C   0  0  0  0  0  0  0  0  0  0  0  0
    3.6622    4.1826    1.0035 H   0  0  0  0  0  0  0  0  0  0  0  0
    1.7846    3.2022    0.5303 C   0  0  0  0  0  0  0  0  0  0  0  0
    1.2212    3.7341    1.3122 H   0  0  0  0  0  0  0  0  0  0  0  0
  2  1  1  1  0  0  0
  2  8  1  0  0  0  0
  2  3  1  0  0  0  0
  3  4  1  0  0  0  0
  4  5  1  0  0  0  0
  6  4  2  0  0  0  0
  6  7  1  0  0  0  0
  8  6  1  0  0  0  0
  9  8  1  0  0  0  0
 10  9  1  0  0  0  0
 11  1  1  0  0  0  0
 11  9  2  0  0  0  0
 12 11  1  0  0  0  0
 12 21  1  0  0  0  0
 13 12  2  0  0  0  0
 14 13  1  0  0  0  0
 15 13  1  0  0  0  0
 15 17  2  0  0  0  0
 16 15  1  0  0  0  0
 17 19  1  0  0  0  0
 18 17  1  0  0  0  0
 19 21  2  0  0  0  0
 19 20  1  0  0  0  0
 21 22  1  0  0  0  0
M  END
