1
 OpenBabel05122313063D

 21 22  0  0  0  0  0  0  0  0999 V2000
    1.5195   -1.3026   -0.6413 N   0  0  0  0  0  2  0  0  0  0  0  0
    1.5076    2.9986    4.0952 F   0  0  0  0  0  0  0  0  0  0  0  0
    1.7652   -2.2322   -1.5981 C   0  0  0  0  0  3  0  0  0  0  0  0
    0.8779   -2.7453   -1.9934 H   0  0  0  0  0  0  0  0  0  0  0  0
    3.0516   -2.5061   -2.0626 C   0  0  0  0  0  0  0  0  0  0  0  0
    3.1934   -3.2614   -2.8477 H   0  0  0  0  0  0  0  0  0  0  0  0
    4.1319   -1.8017   -1.5104 C   0  0  0  0  0  0  0  0  0  0  0  0
    5.1607   -1.9879   -1.8530 H   0  0  0  0  0  0  0  0  0  0  0  0
    3.8802   -0.8757   -0.4946 C   0  0  0  0  0  0  0  0  0  0  0  0
    4.7006   -0.3378   -0.0002 H   0  0  0  0  0  0  0  0  0  0  0  0
    2.5616   -0.6415   -0.0536 C   0  0  0  0  0  0  0  0  0  0  0  0
    2.2824    0.3099    1.0448 C   0  0  0  0  0  0  0  0  0  0  0  0
    1.4575   -0.0651    2.1322 C   0  0  0  0  0  0  0  0  0  0  0  0
    1.0284   -1.0789    2.1733 H   0  0  0  0  0  0  0  0  0  0  0  0
    1.2043    0.8406    3.1686 C   0  0  0  0  0  0  0  0  0  0  0  0
    0.5746    0.5653    4.0264 H   0  0  0  0  0  0  0  0  0  0  0  0
    1.7637    2.1235    3.1072 C   0  0  0  0  0  0  0  0  0  0  0  0
    2.5885    2.5181    2.0464 C   0  0  0  0  0  0  0  0  0  0  0  0
    3.0015    3.5363    2.0308 H   0  0  0  0  0  0  0  0  0  0  0  0
    2.8516    1.6002    1.0220 C   0  0  0  0  0  0  0  0  0  0  0  0
    3.4767    1.9064    0.1697 H   0  0  0  0  0  0  0  0  0  0  0  0
  1 11  1  0  0  0  0
  3  1  1  0  0  0  0
  4  3  1  0  0  0  0
  5  3  1  0  0  0  0
  5  7  2  0  0  0  0
  6  5  1  0  0  0  0
  7  9  1  0  0  0  0
  8  7  1  0  0  0  0
  9 11  2  0  0  0  0
  9 10  1  0  0  0  0
 11 12  1  0  0  0  0
 12 13  1  0  0  0  0
 13 14  1  0  0  0  0
 13 15  2  0  0  0  0
 15 16  1  0  0  0  0
 17 15  1  0  0  0  0
 17  2  1  0  0  0  0
 18 17  2  0  0  0  0
 19 18  1  0  0  0  0
 20 12  2  0  0  0  0
 20 18  1  0  0  0  0
 21 20  1  0  0  0  0
M  END
