16
 OpenBabel05122313063D

 20 21  0  0  0  0  0  0  0  0999 V2000
    3.1268   -0.1485   -0.1018 C   0  0  0  0  0  3  0  0  0  0  0  0
    3.2279   -1.2205   -0.2940 H   0  0  0  0  0  0  0  0  0  0  0  0
    3.5881    1.9465    0.3025 C   0  0  0  0  0  0  0  0  0  0  0  0
    4.1526    2.8723    0.4501 H   0  0  0  0  0  0  0  0  0  0  0  0
    5.5664    0.4192    0.0194 C   0  0  0  0  0  0  0  0  0  0  0  0
    6.0195   -0.6422   -0.7957 C   0  0  0  0  0  0  0  0  0  0  0  0
    5.3118   -1.1997   -1.4301 H   0  0  0  0  0  0  0  0  0  0  0  0
    7.3794   -0.9553   -0.8031 C   0  0  0  0  0  0  0  0  0  0  0  0
    7.7798   -1.8026   -1.3815 H   0  0  0  0  0  0  0  0  0  0  0  0
    8.3011   -0.1978   -0.0510 C   0  0  0  0  0  0  0  0  0  0  0  0
    7.8322    0.8768    0.7327 C   0  0  0  0  0  0  0  0  0  0  0  0
    8.5855    1.4642    1.2806 H   0  0  0  0  0  0  0  0  0  0  0  0
    6.4706    1.1768    0.7967 C   0  0  0  0  0  0  0  0  0  0  0  0
    6.1034    1.9763    1.4599 H   0  0  0  0  0  0  0  0  0  0  0  0
    9.7970   -0.5428   -0.0802 C   0  0  0  0  0  0  0  0  0  0  0  0
    1.9772    0.5273    0.0253 N   0  0  0  0  0  2  0  0  0  0  0  0
    2.2663    1.8331    0.2833 N   0  0  0  0  0  0  0  0  0  0  0  0
    4.1771    0.7198    0.0687 N   0  0  0  0  0  0  0  0  0  0  0  0
   10.0512   -1.7570   -0.2839 O   0  5  0  0  0  0  0  0  0  0  0  0
   10.5696    0.4295    0.1060 O   0  0  0  0  0  0  0  0  0  0  0  0
  1 16  1  0  0  0  0
  1 18  1  0  0  0  0
  2  1  1  0  0  0  0
  3  4  1  0  0  0  0
  5 18  1  0  0  0  0
  5 13  1  0  0  0  0
  6  5  2  0  0  0  0
  7  6  1  0  0  0  0
  8  6  1  0  0  0  0
  8 10  2  0  0  0  0
  9  8  1  0  0  0  0
 10 11  1  0  0  0  0
 11 13  2  0  0  0  0
 11 12  1  0  0  0  0
 13 14  1  0  0  0  0
 15 10  1  0  0  0  0
 15 20  2  0  0  0  0
 16 17  1  0  0  0  0
 17  3  2  0  0  0  0
 18  3  1  0  0  0  0
 19 15  1  0  0  0  0
M  CHG  1  19  -1
M  END
