2
 OpenBabel05122313063D

 25 26  0  0  0  0  0  0  0  0999 V2000
   -0.7640    1.8678    0.5168 N   0  0  0  0  0  1  0  0  0  0  0  0
   -1.3894    0.8273    0.1967 N   0  0  0  0  0  2  0  0  0  0  0  0
   -2.6716    0.4423    0.0161 C   0  0  0  0  0  3  0  0  0  0  0  0
   -3.7599    1.3939    0.2772 C   0  0  0  0  0  0  0  0  0  0  0  0
   -5.0633    1.1960   -0.2592 C   0  0  0  0  0  0  0  0  0  0  0  0
   -5.2590    0.3203   -0.8939 H   0  0  0  0  0  0  0  0  0  0  0  0
   -6.0967    2.1085   -0.0206 C   0  0  0  0  0  0  0  0  0  0  0  0
   -7.0898    1.9235   -0.4599 H   0  0  0  0  0  0  0  0  0  0  0  0
   -5.8747    3.2576    0.7578 C   0  0  0  0  0  0  0  0  0  0  0  0
   -6.6891    3.9742    0.9443 H   0  0  0  0  0  0  0  0  0  0  0  0
   -4.5899    3.4808    1.2790 C   0  0  0  0  0  0  0  0  0  0  0  0
   -4.3902    4.3812    1.8816 H   0  0  0  0  0  0  0  0  0  0  0  0
   -3.5487    2.5755    1.0401 C   0  0  0  0  0  0  0  0  0  0  0  0
   -2.5435    2.7791    1.4355 H   0  0  0  0  0  0  0  0  0  0  0  0
   -2.8829   -0.9233   -0.4917 C   0  0  0  0  0  0  0  0  0  0  0  0
   -1.9879   -1.4994   -1.4323 C   0  0  0  0  0  0  0  0  0  0  0  0
   -1.1451   -0.8909   -1.7879 H   0  0  0  0  0  0  0  0  0  0  0  0
   -2.1658   -2.8020   -1.9126 C   0  0  0  0  0  0  0  0  0  0  0  0
   -1.4480   -3.2148   -2.6398 H   0  0  0  0  0  0  0  0  0  0  0  0
   -3.2604   -3.5763   -1.4881 C   0  0  0  0  0  0  0  0  0  0  0  0
   -3.4083   -4.5966   -1.8730 H   0  0  0  0  0  0  0  0  0  0  0  0
   -4.1643   -3.0224   -0.5644 C   0  0  0  0  0  0  0  0  0  0  0  0
   -5.0208   -3.6173   -0.2097 H   0  0  0  0  0  0  0  0  0  0  0  0
   -3.9758   -1.7256   -0.0677 C   0  0  0  0  0  0  0  0  0  0  0  0
   -4.6756   -1.3246    0.6799 H   0  0  0  0  0  0  0  0  0  0  0  0
  2  1  1  0  0  0  0
  3  2  1  0  0  0  0
  3  4  1  0  0  0  0
  4 13  1  0  0  0  0
  5  7  1  0  0  0  0
  5  4  2  0  0  0  0
  6  5  1  0  0  0  0
  7  9  2  0  0  0  0
  8  7  1  0  0  0  0
  9 10  1  0  0  0  0
  9 11  1  0  0  0  0
 11 12  1  0  0  0  0
 13 11  2  0  0  0  0
 13 14  1  0  0  0  0
 15 24  1  0  0  0  0
 15  3  1  0  0  0  0
 16 15  2  0  0  0  0
 17 16  1  0  0  0  0
 18 20  2  0  0  0  0
 18 16  1  0  0  0  0
 19 18  1  0  0  0  0
 20 22  1  0  0  0  0
 21 20  1  0  0  0  0
 22 23  1  0  0  0  0
 22 24  2  0  0  0  0
 24 25  1  0  0  0  0
M  END
