1
 OpenBabel05122313063D

 20 20  0  0  0  0  0  0  0  0999 V2000
   -1.8017   -0.3571   -1.6474 N   0  0  0  0  0  0  0  0  0  0  0  0
   -3.1820   -0.3736   -1.1371 C   0  0  0  0  0  0  0  0  0  0  0  0
   -5.4918   -1.4318   -1.2887 C   0  0  0  0  0  0  0  0  0  0  0  0
   -4.1374   -1.2723   -1.9407 C   0  0  0  0  0  0  0  0  0  0  0  0
   -5.6022   -2.0642   -0.0313 C   0  0  0  0  0  0  0  0  0  0  0  0
   -4.6970   -2.4523    0.4642 H   0  0  0  0  0  0  0  0  0  0  0  0
   -6.6621   -0.9414   -1.8990 C   0  0  0  0  0  0  0  0  0  0  0  0
   -6.5896   -0.4445   -2.8797 H   0  0  0  0  0  0  0  0  0  0  0  0
   -8.0106   -1.7065   -0.0249 C   0  0  0  0  0  0  0  0  0  0  0  0
   -8.9898   -1.8155    0.4656 H   0  0  0  0  0  0  0  0  0  0  0  0
   -6.8496   -2.2001    0.5947 C   0  0  0  0  0  0  0  0  0  0  0  0
   -6.9161   -2.6977    1.5743 H   0  0  0  0  0  0  0  0  0  0  0  0
   -7.9131   -1.0776   -1.2761 C   0  0  0  0  0  0  0  0  0  0  0  0
   -8.8168   -0.6904   -1.7714 H   0  0  0  0  0  0  0  0  0  0  0  0
   -3.6592   -2.2746   -2.0272 H   0  0  0  0  0  0  0  0  0  0  0  0
   -3.1442   -0.7369   -0.0878 H   0  0  0  0  0  0  0  0  0  0  0  0
   -1.6718    0.2916   -2.4359 H   0  0  0  0  0  0  0  0  0  0  0  0
   -1.5450   -1.2921   -1.9923 H   0  0  0  0  0  0  0  0  0  0  0  0
   -4.2523   -0.8831   -2.9746 H   0  0  0  0  0  0  0  0  0  0  0  0
   -3.5680    0.6665   -1.1054 H   0  0  0  0  0  0  0  0  0  0  0  0
  1  2  1  0  0  0  0
  2 20  1  0  0  0  0
  2 16  1  0  0  0  0
  3  5  1  0  0  0  0
  4  3  1  0  0  0  0
  4  2  1  0  0  0  0
  5  6  1  0  0  0  0
  5 11  2  0  0  0  0
  7  3  2  0  0  0  0
  7 13  1  0  0  0  0
  8  7  1  0  0  0  0
  9 10  1  0  0  0  0
  9 11  1  0  0  0  0
 11 12  1  0  0  0  0
 13  9  2  0  0  0  0
 14 13  1  0  0  0  0
 15  4  1  0  0  0  0
 17  1  1  0  0  0  0
 18  1  1  0  0  0  0
 19  4  1  0  0  0  0
M  END
