5
 OpenBabel05122313063D

 31 31  0  0  1  0  0  0  0  0999 V2000
    1.9190   -0.3783    0.2705 P   0  0  0  0  0  0  0  0  0  0  0  0
    1.5980   -0.3387    1.7467 O   0  0  0  0  0  0  0  0  0  0  0  0
    3.4588   -0.1112   -0.1785 O   0  0  0  0  0  0  0  0  0  0  0  0
    1.6427   -1.7929   -0.4864 O   0  0  0  0  0  0  0  0  0  0  0  0
   -0.1028    1.3678    0.3016 N   0  0  0  0  0  0  0  0  0  0  0  0
   -0.3037    2.8235    0.0658 C   0  0  0  0  0  0  0  0  0  0  0  0
    1.1184    3.3585   -0.1179 C   0  0  0  0  0  0  0  0  0  0  0  0
    1.8040    2.2582   -0.9512 C   0  0  0  0  0  0  0  0  0  0  0  0
    1.0119    0.9585   -0.6208 C   0  0  1  0  0  0  0  0  0  0  0  0
    4.4825   -1.0290    0.2805 C   0  0  0  0  0  0  0  0  0  0  0  0
    5.8339   -0.3814    0.0637 C   0  0  0  0  0  0  0  0  0  0  0  0
    0.4767   -2.6032   -0.1773 C   0  0  0  0  0  0  0  0  0  0  0  0
   -0.2298   -2.9820   -1.4626 C   0  0  0  0  0  0  0  0  0  0  0  0
    0.2849    1.2257    1.2548 H   0  0  0  0  0  0  0  0  0  0  0  0
   -0.8689    3.2634    0.9097 H   0  0  0  0  0  0  0  0  0  0  0  0
   -0.9051    2.9293   -0.8595 H   0  0  0  0  0  0  0  0  0  0  0  0
    1.6120    3.4677    0.8709 H   0  0  0  0  0  0  0  0  0  0  0  0
    1.1398    4.3484   -0.6133 H   0  0  0  0  0  0  0  0  0  0  0  0
    2.8823    2.1597   -0.7302 H   0  0  0  0  0  0  0  0  0  0  0  0
    1.7027    2.4659   -2.0343 H   0  0  0  0  0  0  0  0  0  0  0  0
    0.5589    0.5311   -1.5365 H   0  0  0  0  0  0  0  0  0  0  0  0
    4.3844   -1.9765   -0.2910 H   0  0  0  0  0  0  0  0  0  0  0  0
    4.3091   -1.2555    1.3548 H   0  0  0  0  0  0  0  0  0  0  0  0
    6.6406   -1.0704    0.3839 H   0  0  0  0  0  0  0  0  0  0  0  0
    5.9874   -0.1400   -1.0069 H   0  0  0  0  0  0  0  0  0  0  0  0
    5.9221    0.5550    0.6494 H   0  0  0  0  0  0  0  0  0  0  0  0
   -0.2058   -2.0375    0.4959 H   0  0  0  0  0  0  0  0  0  0  0  0
    0.8390   -3.4949    0.3761 H   0  0  0  0  0  0  0  0  0  0  0  0
   -1.0687   -3.6712   -1.2358 H   0  0  0  0  0  0  0  0  0  0  0  0
   -0.6507   -2.0846   -1.9595 H   0  0  0  0  0  0  0  0  0  0  0  0
    0.4615   -3.4946   -2.1605 H   0  0  0  0  0  0  0  0  0  0  0  0
  1  2  2  0  0  0  0
  3  1  1  0  0  0  0
  3 10  1  0  0  0  0
  4 12  1  0  0  0  0
  4  1  1  0  0  0  0
  5 14  1  0  0  0  0
  6  5  1  0  0  0  0
  6 15  1  0  0  0  0
  7  6  1  0  0  0  0
  7 17  1  0  0  0  0
  8 19  1  0  0  0  0
  8  9  1  0  0  0  0
  8  7  1  0  0  0  0
  9 21  1  6  0  0  0
  9  1  1  0  0  0  0
  9  5  1  0  0  0  0
 10 23  1  0  0  0  0
 11 10  1  0  0  0  0
 11 24  1  0  0  0  0
 11 26  1  0  0  0  0
 12 28  1  0  0  0  0
 12 27  1  0  0  0  0
 13 29  1  0  0  0  0
 13 12  1  0  0  0  0
 16  6  1  0  0  0  0
 18  7  1  0  0  0  0
 20  8  1  0  0  0  0
 22 10  1  0  0  0  0
 25 11  1  0  0  0  0
 30 13  1  0  0  0  0
 31 13  1  0  0  0  0
M  END
