19
 OpenBabel05122313063D

 49 51  0  0  1  0  0  0  0  0999 V2000
    0.7001    3.2130   -1.3676 S   0  0  0  0  0  0  0  0  0  0  0  0
   -0.7799    2.5950   -0.7887 C   0  0  2  0  0  3  0  0  0  0  0  0
   -0.8167    2.6149    0.5625 N   0  0  0  0  0  0  0  0  0  0  0  0
    0.3625    3.0686    1.1769 C   0  0  0  0  0  0  0  0  0  0  0  0
    1.3086    3.4411    0.2428 C   0  0  0  0  0  0  0  0  0  0  0  0
   -1.7654    2.0854   -1.8472 C   0  0  1  0  0  0  0  0  0  0  0  0
   -1.0250    1.9087   -3.0302 O   0  0  0  0  0  0  0  0  0  0  0  0
   -2.6073    0.8693   -1.4563 C   0  0  0  0  0  0  0  0  0  0  0  0
   -2.0511   -0.4235   -1.4767 C   0  0  0  0  0  0  0  0  0  0  0  0
   -2.8263   -1.5400   -1.1338 C   0  0  0  0  0  0  0  0  0  0  0  0
   -4.1707   -1.3732   -0.7637 C   0  0  0  0  0  0  0  0  0  0  0  0
   -4.7423   -0.0895   -0.7626 C   0  0  0  0  0  0  0  0  0  0  0  0
   -3.9659    1.0263   -1.1183 C   0  0  0  0  0  0  0  0  0  0  0  0
    0.5086    3.0506    2.6616 C   0  0  0  0  0  0  0  0  0  0  0  0
    2.7774    3.6240    0.4628 C   0  0  0  0  0  0  0  0  0  0  0  0
    3.4658    2.2385    0.4790 C   0  0  0  0  0  0  0  0  0  0  0  0
    2.8818    1.4616    1.4928 O   0  0  0  0  0  0  0  0  0  0  0  0
   -1.8578    1.9504    1.3587 C   0  0  0  0  0  0  0  0  0  0  0  0
   -0.0192   -1.3576    1.2507 N   0  0  0  0  0  2  0  0  0  0  0  0
   -0.9220   -2.1507    1.8807 C   0  0  1  0  0  3  0  0  0  0  0  0
   -2.0912   -1.7093    2.3623 N   0  0  0  0  0  0  0  0  0  0  0  0
   -2.4106   -0.4099    2.2081 C   0  0  0  0  0  0  0  0  0  0  0  0
   -1.5041    0.5031    1.5983 C   0  0  0  0  0  0  0  0  0  0  0  0
   -0.3100   -0.0519    1.1441 C   0  0  0  0  0  0  0  0  0  0  0  0
   -0.5838   -3.5992    2.0235 C   0  0  0  0  0  0  0  0  0  0  0  0
   -3.6274   -0.0179    2.6927 N   0  0  0  0  0  0  0  0  0  0  0  0
   -2.4723    2.9238   -2.0489 H   0  0  0  0  0  0  0  0  0  0  0  0
   -0.3535    1.1872   -2.8638 H   0  0  0  0  0  0  0  0  0  0  0  0
   -0.9946   -0.5664   -1.7540 H   0  0  0  0  0  0  0  0  0  0  0  0
   -2.3502   -2.5332   -1.1585 H   0  0  0  0  0  0  0  0  0  0  0  0
   -4.7799   -2.2479   -0.4896 H   0  0  0  0  0  0  0  0  0  0  0  0
   -5.8053    0.0428   -0.5076 H   0  0  0  0  0  0  0  0  0  0  0  0
   -4.4267    2.0284   -1.1493 H   0  0  0  0  0  0  0  0  0  0  0  0
    0.3445    2.0329    3.0674 H   0  0  0  0  0  0  0  0  0  0  0  0
   -0.1969    3.7510    3.1562 H   0  0  0  0  0  0  0  0  0  0  0  0
    1.5398    3.3311    2.9322 H   0  0  0  0  0  0  0  0  0  0  0  0
    2.9528    4.1401    1.4288 H   0  0  0  0  0  0  0  0  0  0  0  0
    3.2277    4.2532   -0.3312 H   0  0  0  0  0  0  0  0  0  0  0  0
    3.3451    1.7658   -0.5245 H   0  0  0  0  0  0  0  0  0  0  0  0
    4.5590    2.4071    0.6431 H   0  0  0  0  0  0  0  0  0  0  0  0
    3.1438    0.5117    1.3380 H   0  0  0  0  0  0  0  0  0  0  0  0
   -2.8143    2.0297    0.8055 H   0  0  0  0  0  0  0  0  0  0  0  0
   -1.9738    2.5162    2.3057 H   0  0  0  0  0  0  0  0  0  0  0  0
    0.4538    0.5571    0.6331 H   0  0  0  0  0  0  0  0  0  0  0  0
    0.3756   -3.7130    2.5682 H   0  0  0  0  0  0  0  0  0  0  0  0
   -0.4249   -4.0320    1.0096 H   0  0  0  0  0  0  0  0  0  0  0  0
   -1.3881   -4.1342    2.5565 H   0  0  0  0  0  0  0  0  0  0  0  0
   -4.2514   -0.7852    2.9506 H   0  0  0  0  0  0  0  0  0  0  0  0
   -4.0746    0.8165    2.3164 H   0  0  0  0  0  0  0  0  0  0  0  0
  1  2  1  0  0  0  0
  1  5  1  0  0  0  0
  2  6  1  1  0  0  0
  2  3  1  0  0  0  0
  3  4  1  0  0  0  0
  3 18  1  0  0  0  0
  4 14  1  0  0  0  0
  5 15  1  0  0  0  0
  5  4  2  0  0  0  0
  6 27  1  6  0  0  0
  6  8  1  0  0  0  0
  7 28  1  0  0  0  0
  7  6  1  0  0  0  0
  8 13  1  0  0  0  0
  9  8  2  0  0  0  0
  9 10  1  0  0  0  0
 10 11  2  0  0  0  0
 11 12  1  0  0  0  0
 11 31  1  0  0  0  0
 12 32  1  0  0  0  0
 13 12  2  0  0  0  0
 14 36  1  0  0  0  0
 14 34  1  0  0  0  0
 14 35  1  0  0  0  0
 15 16  1  0  0  0  0
 15 37  1  0  0  0  0
 16 40  1  0  0  0  0
 16 17  1  0  0  0  0
 18 23  1  0  0  0  0
 18 43  1  0  0  0  0
 19 20  1  0  0  0  0
 20 25  1  6  0  0  0
 20 21  1  0  0  0  0
 22 21  2  0  0  0  0
 22 26  1  0  0  0  0
 23 22  1  0  0  0  0
 24 19  1  0  0  0  0
 24 23  2  0  0  0  0
 25 47  1  0  0  0  0
 25 45  1  0  0  0  0
 26 48  1  0  0  0  0
 29  9  1  0  0  0  0
 30 10  1  0  0  0  0
 33 13  1  0  0  0  0
 38 15  1  0  0  0  0
 39 16  1  0  0  0  0
 41 17  1  0  0  0  0
 42 18  1  0  0  0  0
 44 24  1  0  0  0  0
 46 25  1  0  0  0  0
 49 26  1  0  0  0  0
M  END
