1
 OpenBabel05122313063D

 14 15  0  0  0  0  0  0  0  0999 V2000
   -2.2421    0.1683   -0.9168 N   0  0  0  0  0  0  0  0  0  0  0  0
   -3.0587    1.1839    1.1148 N   0  0  0  0  0  0  0  0  0  0  0  0
   -2.8598   -0.5370   -1.9268 C   0  0  0  0  0  0  0  0  0  0  0  0
   -2.2527   -0.9397   -2.7467 H   0  0  0  0  0  0  0  0  0  0  0  0
   -4.2367   -0.6764   -1.7252 C   0  0  0  0  0  0  0  0  0  0  0  0
   -4.9459   -1.1919   -2.3837 H   0  0  0  0  0  0  0  0  0  0  0  0
   -4.5112   -0.0247   -0.4856 C   0  0  0  0  0  0  0  0  0  0  0  0
   -5.6296    0.2155    0.3328 C   0  0  0  0  0  0  0  0  0  0  0  0
   -6.6320   -0.1433    0.0460 H   0  0  0  0  0  0  0  0  0  0  0  0
   -5.4380    0.9212    1.5313 C   0  0  0  0  0  0  0  0  0  0  0  0
   -6.2820    1.1254    2.2075 H   0  0  0  0  0  0  0  0  0  0  0  0
   -4.1499    1.3888    1.8723 C   0  0  0  0  0  0  0  0  0  0  0  0
   -3.9960    1.9655    2.8015 H   0  0  0  0  0  0  0  0  0  0  0  0
   -3.2269    0.4857   -0.0258 C   0  0  0  0  0  3  0  0  0  0  0  0
  1 14  1  0  0  0  0
  2 12  2  0  0  0  0
  3  5  1  0  0  0  0
  3  1  2  0  0  0  0
  4  3  1  0  0  0  0
  5  7  2  0  0  0  0
  6  5  1  0  0  0  0
  7 14  1  0  0  0  0
  7  8  1  0  0  0  0
  8 10  2  0  0  0  0
  9  8  1  0  0  0  0
 10 12  1  0  0  0  0
 10 11  1  0  0  0  0
 12 13  1  0  0  0  0
 14  2  1  0  0  0  0
M  END
