2
 OpenBabel05122313063D

 36 39  0  0  1  0  0  0  0  0999 V2000
    0.0628   -0.0869   -1.8232 N   0  0  0  0  0  2  0  0  0  0  0  0
   -1.5815   -1.6485   -1.3963 N   0  0  0  0  0  2  0  0  0  0  0  0
   -2.2502   -2.7906   -1.6483 C   0  0  0  0  0  3  0  0  0  0  0  0
   -3.0686   -3.0459   -0.9540 H   0  0  0  0  0  0  0  0  0  0  0  0
   -0.1917   -2.0359   -3.3232 C   0  0  0  0  0  0  0  0  0  0  0  0
    0.6189   -1.6911   -3.9798 H   0  0  0  0  0  0  0  0  0  0  0  0
    1.8882    1.4048   -1.6804 N   0  0  0  0  0  0  0  0  0  0  0  0
   -0.8971   -3.2090   -3.5929 C   0  0  0  0  0  0  0  0  0  0  0  0
   -0.6420   -3.8091   -4.4800 H   0  0  0  0  0  0  0  0  0  0  0  0
   -0.5307   -1.2753   -2.1728 C   0  0  0  0  0  0  0  0  0  0  0  0
   -1.9313   -3.6162   -2.7304 C   0  0  0  0  0  0  0  0  0  0  0  0
   -2.5028   -4.5375   -2.9057 H   0  0  0  0  0  0  0  0  0  0  0  0
    2.4933   -0.8176   -1.7763 C   0  0  0  0  0  0  0  0  0  0  0  0
    1.3466    0.1310   -1.7885 C   0  0  1  0  0  3  0  0  0  0  0  0
    2.5333   -2.2236   -1.7321 C   0  0  0  0  0  0  0  0  0  0  0  0
    1.6158   -2.8233   -1.7021 H   0  0  0  0  0  0  0  0  0  0  0  0
    1.2238    2.6457   -1.5455 C   0  0  0  0  0  0  0  0  0  0  0  0
    3.3563    1.3894   -1.6696 C   0  0  0  0  0  0  0  0  0  0  0  0
    3.7450    1.8797   -0.7547 H   0  0  0  0  0  0  0  0  0  0  0  0
    3.7494    1.9780   -2.5261 H   0  0  0  0  0  0  0  0  0  0  0  0
    3.6859   -0.0671   -1.7356 C   0  0  0  0  0  0  0  0  0  0  0  0
   -0.7029    4.0889   -1.4858 C   0  0  0  0  0  0  0  0  0  0  0  0
   -1.7914    4.2456   -1.5781 H   0  0  0  0  0  0  0  0  0  0  0  0
    4.9352   -0.6968   -1.7075 C   0  0  0  0  0  0  0  0  0  0  0  0
    5.8631   -0.1061   -1.6752 H   0  0  0  0  0  0  0  0  0  0  0  0
   -0.1733    2.8074   -1.6844 C   0  0  0  0  0  0  0  0  0  0  0  0
   -0.8203    1.9611   -1.9370 H   0  0  0  0  0  0  0  0  0  0  0  0
    3.7850   -2.8545   -1.6992 C   0  0  0  0  0  0  0  0  0  0  0  0
    3.8327   -3.9518   -1.6507 H   0  0  0  0  0  0  0  0  0  0  0  0
    4.9757   -2.1011   -1.7025 C   0  0  0  0  0  0  0  0  0  0  0  0
    5.9464   -2.6190   -1.6805 H   0  0  0  0  0  0  0  0  0  0  0  0
    0.1570    5.1540   -1.1746 C   0  0  0  0  0  0  0  0  0  0  0  0
   -0.2285    6.1709   -1.0122 H   0  0  0  0  0  0  0  0  0  0  0  0
    2.0565    3.6673   -1.2719 N   0  0  0  0  0  0  0  0  0  0  0  0
    1.5310    4.8869   -1.0940 C   0  0  0  0  0  0  0  0  0  0  0  0
    2.2504    5.6964   -0.8746 H   0  0  0  0  0  0  0  0  0  0  0  0
  3  2  1  0  0  0  0
  3  4  1  0  0  0  0
  5 10  2  0  0  0  0
  6  5  1  0  0  0  0
  7 18  1  0  0  0  0
  7 17  1  0  0  0  0
  8  5  1  0  0  0  0
  8 11  2  0  0  0  0
  9  8  1  0  0  0  0
 10  1  1  0  0  0  0
 10  2  1  0  0  0  0
 11  3  1  0  0  0  0
 12 11  1  0  0  0  0
 13 21  2  0  0  0  0
 13 15  1  0  0  0  0
 14  1  1  1  0  0  0
 14 13  1  0  0  0  0
 14  7  1  0  0  0  0
 15 16  1  0  0  0  0
 15 28  2  0  0  0  0
 17 34  1  0  0  0  0
 18 19  1  0  0  0  0
 20 18  1  0  0  0  0
 21 24  1  0  0  0  0
 21 18  1  0  0  0  0
 22 32  2  0  0  0  0
 23 22  1  0  0  0  0
 24 30  2  0  0  0  0
 24 25  1  0  0  0  0
 26 17  2  0  0  0  0
 26 22  1  0  0  0  0
 27 26  1  0  0  0  0
 28 29  1  0  0  0  0
 30 28  1  0  0  0  0
 30 31  1  0  0  0  0
 32 35  1  0  0  0  0
 32 33  1  0  0  0  0
 34 35  2  0  0  0  0
 35 36  1  0  0  0  0
M  END
