1
 OpenBabel05122313063D

 12 12  0  0  0  0  0  0  0  0999 V2000
   -0.0393   -1.4571   -1.8813 N   0  0  0  0  0  2  0  0  0  0  0  0
   -1.2284   -1.9132   -2.3159 N   0  0  0  0  0  0  0  0  0  0  0  0
   -2.0601   -1.6432   -1.6981 H   0  0  0  0  0  0  0  0  0  0  0  0
    0.8775   -1.8136   -2.7995 C   0  0  0  0  0  3  0  0  0  0  0  0
    1.9290   -1.5380   -2.6562 H   0  0  0  0  0  0  0  0  0  0  0  0
    0.2487   -2.5123   -3.8488 C   0  0  0  0  0  0  0  0  0  0  0  0
    0.7105   -2.9318   -4.7483 H   0  0  0  0  0  0  0  0  0  0  0  0
   -1.1143   -2.5550   -3.5044 C   0  0  0  0  0  0  0  0  0  0  0  0
   -2.2894   -3.1664   -4.1954 C   0  0  0  0  0  0  0  0  0  0  0  0
   -3.2005   -2.5515   -4.0570 H   0  0  0  0  0  0  0  0  0  0  0  0
   -2.5088   -4.1814   -3.8020 H   0  0  0  0  0  0  0  0  0  0  0  0
   -2.0956   -3.2624   -5.2799 H   0  0  0  0  0  0  0  0  0  0  0  0
  2  1  1  0  0  0  0
  2  3  1  0  0  0  0
  4  5  1  0  0  0  0
  4  1  1  0  0  0  0
  6  8  2  0  0  0  0
  6  4  1  0  0  0  0
  7  6  1  0  0  0  0
  8  2  1  0  0  0  0
  9 10  1  0  0  0  0
  9 11  1  0  0  0  0
  9  8  1  0  0  0  0
 12  9  1  0  0  0  0
M  END
