1
 OpenBabel05122313063D

 19 20  0  0  1  0  0  0  0  0999 V2000
   -2.8761    0.7282   -0.2579 N   0  0  0  0  0  2  0  0  0  0  0  0
   -3.5624    1.8115   -0.6788 C   0  0  0  0  0  0  0  0  0  0  0  0
   -2.8922    2.9407   -0.9838 N   0  0  0  0  0  0  0  0  0  0  0  0
   -1.8585    3.0361   -0.8340 H   0  0  0  0  0  0  0  0  0  0  0  0
   -3.4188    3.7604   -1.2754 H   0  0  0  0  0  0  0  0  0  0  0  0
   -4.9997    1.7708   -0.8158 C   0  0  0  0  0  0  0  0  0  0  0  0
   -5.5259    2.6704   -1.1673 H   0  0  0  0  0  0  0  0  0  0  0  0
   -5.6816    0.6208   -0.5087 C   0  0  0  0  0  0  0  0  0  0  0  0
   -6.7771    0.5760   -0.6122 H   0  0  0  0  0  0  0  0  0  0  0  0
   -4.9767   -0.5323   -0.0419 C   0  0  0  0  0  0  0  0  0  0  0  0
   -5.6240   -1.7480    0.3031 C   0  0  0  0  0  0  0  0  0  0  0  0
   -6.7189   -1.8082    0.2003 H   0  0  0  0  0  0  0  0  0  0  0  0
   -4.8948   -2.8381    0.7642 C   0  0  0  0  0  0  0  0  0  0  0  0
   -5.4040   -3.7758    1.0308 H   0  0  0  0  0  0  0  0  0  0  0  0
   -3.4883   -2.7300    0.8970 C   0  0  0  0  0  0  0  0  0  0  0  0
   -2.9065   -3.5849    1.2739 H   0  0  0  0  0  0  0  0  0  0  0  0
   -2.8290   -1.5520    0.5634 C   0  0  0  0  0  0  0  0  0  0  0  0
   -1.7367   -1.4572    0.6800 H   0  0  0  0  0  0  0  0  0  0  0  0
   -3.5481   -0.4247    0.0781 C   0  0  2  0  0  3  0  0  0  0  0  0
  2  1  1  0  0  0  0
  3  4  1  0  0  0  0
  3  2  1  0  0  0  0
  5  3  1  0  0  0  0
  6  2  2  0  0  0  0
  6  8  1  0  0  0  0
  7  6  1  0  0  0  0
  8 10  2  0  0  0  0
  9  8  1  0  0  0  0
 10 19  1  0  0  0  0
 10 11  1  0  0  0  0
 11 13  2  0  0  0  0
 12 11  1  0  0  0  0
 13 15  1  0  0  0  0
 13 14  1  0  0  0  0
 15 16  1  0  0  0  0
 17 18  1  0  0  0  0
 17 15  2  0  0  0  0
 19  1  1  1  0  0  0
 19 17  1  0  0  0  0
M  END
