1
 OpenBabel05122313063D

 18 18  0  0  0  0  0  0  0  0999 V2000
   -0.6042    1.2035    1.4889 N   0  0  0  0  0  2  0  0  0  0  0  0
   -0.9848    0.8857    2.3955 H   0  0  0  0  0  0  0  0  0  0  0  0
   -0.7905    2.8861   -0.2570 C   0  0  0  0  0  0  0  0  0  0  0  0
    0.0360    2.2998   -0.7080 H   0  0  0  0  0  0  0  0  0  0  0  0
   -0.4175    3.9222   -0.0850 H   0  0  0  0  0  0  0  0  0  0  0  0
   -1.1711    2.2962    1.0716 C   0  0  0  0  0  3  0  0  0  0  0  0
   -3.1979    3.6577   -0.5055 C   0  0  0  0  0  0  0  0  0  0  0  0
   -4.0882    3.6415   -1.1682 H   0  0  0  0  0  0  0  0  0  0  0  0
   -2.9434    4.7311   -0.3507 H   0  0  0  0  0  0  0  0  0  0  0  0
   -2.3106    2.9764    1.7810 C   0  0  0  0  0  0  0  0  0  0  0  0
   -2.0130    4.0195    2.0343 H   0  0  0  0  0  0  0  0  0  0  0  0
   -2.5473    2.4542    2.7311 H   0  0  0  0  0  0  0  0  0  0  0  0
   -2.0208    2.9477   -1.1861 C   0  0  0  0  0  0  0  0  0  0  0  0
   -1.7464    3.4570   -2.1328 H   0  0  0  0  0  0  0  0  0  0  0  0
   -2.3101    1.9110   -1.4593 H   0  0  0  0  0  0  0  0  0  0  0  0
   -3.5417    3.0176    0.8457 C   0  0  0  0  0  0  0  0  0  0  0  0
   -3.8951    1.9765    0.6830 H   0  0  0  0  0  0  0  0  0  0  0  0
   -4.3692    3.5652    1.3429 H   0  0  0  0  0  0  0  0  0  0  0  0
  1  2  1  0  0  0  0
  3  5  1  0  0  0  0
  3  6  1  0  0  0  0
  4  3  1  0  0  0  0
  6  1  1  0  0  0  0
  6 10  1  0  0  0  0
  7  9  1  0  0  0  0
  7 16  1  0  0  0  0
  8  7  1  0  0  0  0
 10 11  1  0  0  0  0
 10 12  1  0  0  0  0
 13  7  1  0  0  0  0
 13  3  1  0  0  0  0
 14 13  1  0  0  0  0
 15 13  1  0  0  0  0
 16 18  1  0  0  0  0
 16 10  1  0  0  0  0
 17 16  1  0  0  0  0
M  END
