1
 OpenBabel05122313063D

 13 13  0  0  0  0  0  0  0  0999 V2000
   -0.8853   -1.8154   -0.2455 N   0  0  0  0  0  2  0  0  0  0  0  0
   -2.1896   -2.0207   -0.4138 C   0  0  0  0  0  3  0  0  0  0  0  0
   -2.4418   -3.3608   -0.5478 N   0  0  0  0  0  0  0  0  0  0  0  0
   -1.2219   -4.0264   -0.4573 C   0  0  0  0  0  0  0  0  0  0  0  0
   -0.2642   -3.0565   -0.2712 C   0  0  0  0  0  0  0  0  0  0  0  0
    0.8239   -3.1299   -0.1725 H   0  0  0  0  0  0  0  0  0  0  0  0
   -1.1403   -5.1133   -0.5324 H   0  0  0  0  0  0  0  0  0  0  0  0
   -3.7287   -3.9015   -0.7381 C   0  0  0  0  0  0  0  0  0  0  0  0
   -4.0174   -5.2064   -0.8769 C   0  0  0  0  0  0  0  0  0  0  0  0
   -5.0618   -5.5135   -1.0194 H   0  0  0  0  0  0  0  0  0  0  0  0
   -3.2520   -5.9954   -0.8550 H   0  0  0  0  0  0  0  0  0  0  0  0
   -4.5107   -3.1275   -0.7633 H   0  0  0  0  0  0  0  0  0  0  0  0
   -2.9484   -1.2286   -0.4101 H   0  0  0  0  0  0  0  0  0  0  0  0
  2 13  1  0  0  0  0
  2  1  1  0  0  0  0
  3  4  1  0  0  0  0
  3  2  1  0  0  0  0
  4  5  2  0  0  0  0
  5  1  1  0  0  0  0
  5  6  1  0  0  0  0
  7  4  1  0  0  0  0
  8  3  1  0  0  0  0
  9 11  1  0  0  0  0
  9  8  2  0  0  0  0
 10  9  1  0  0  0  0
 12  8  1  0  0  0  0
M  END
