2
 OpenBabel05122313063D

 51 51  0  0  0  0  0  0  0  0999 V2000
    1.1040   -0.3061    0.6886 N   0  0  0  0  0  0  0  0  0  0  0  0
   -1.1276   -0.3404    0.6409 N   0  0  0  0  0  2  0  0  0  0  0  0
    3.3693   -1.1756   -0.0131 N   0  0  0  0  0  0  0  0  0  0  0  0
    2.8806    1.3327    0.0101 N   0  0  0  0  0  0  0  0  0  0  0  0
    2.5263   -0.0413    0.2132 B   0  0  0  0  0  0  0  0  0  0  0  0
   -0.0178   -0.0693   -0.0483 C   0  0  0  0  0  3  0  0  0  0  0  0
    0.0077    0.3147   -1.0730 H   0  0  0  0  0  0  0  0  0  0  0  0
   -0.7107   -0.7647    1.8900 C   0  0  0  0  0  0  0  0  0  0  0  0
   -1.4273   -1.0469    2.6682 H   0  0  0  0  0  0  0  0  0  0  0  0
    0.6714   -0.7535    1.9271 C   0  0  0  0  0  0  0  0  0  0  0  0
    1.3752   -1.0313    2.7170 H   0  0  0  0  0  0  0  0  0  0  0  0
    2.8864   -2.5075   -0.4624 C   0  0  0  0  0  0  0  0  0  0  0  0
    3.8060   -3.0919   -0.6696 H   0  0  0  0  0  0  0  0  0  0  0  0
    2.1022   -3.3164    0.5824 C   0  0  0  0  0  0  0  0  0  0  0  0
    2.6122   -3.3041    1.5652 H   0  0  0  0  0  0  0  0  0  0  0  0
    2.0241   -4.3722    0.2525 H   0  0  0  0  0  0  0  0  0  0  0  0
    1.0725   -2.9371    0.7232 H   0  0  0  0  0  0  0  0  0  0  0  0
    2.1273   -2.4105   -1.7919 C   0  0  0  0  0  0  0  0  0  0  0  0
    1.1647   -1.8740   -1.6719 H   0  0  0  0  0  0  0  0  0  0  0  0
    1.8905   -3.4205   -2.1827 H   0  0  0  0  0  0  0  0  0  0  0  0
    2.7294   -1.8767   -2.5536 H   0  0  0  0  0  0  0  0  0  0  0  0
    4.8303   -1.0742    0.1907 C   0  0  0  0  0  0  0  0  0  0  0  0
    5.0102   -0.0215    0.4799 H   0  0  0  0  0  0  0  0  0  0  0  0
    5.2892   -1.9419    1.3741 C   0  0  0  0  0  0  0  0  0  0  0  0
    4.7224   -1.6885    2.2919 H   0  0  0  0  0  0  0  0  0  0  0  0
    6.3674   -1.7812    1.5766 H   0  0  0  0  0  0  0  0  0  0  0  0
    5.1500   -3.0237    1.1714 H   0  0  0  0  0  0  0  0  0  0  0  0
    5.6694   -1.3681   -1.0628 C   0  0  0  0  0  0  0  0  0  0  0  0
    5.6170   -2.4356   -1.3591 H   0  0  0  0  0  0  0  0  0  0  0  0
    6.7362   -1.1381   -0.8689 H   0  0  0  0  0  0  0  0  0  0  0  0
    5.3425   -0.7621   -1.9306 H   0  0  0  0  0  0  0  0  0  0  0  0
    3.8014    1.7185   -1.0804 C   0  0  0  0  0  0  0  0  0  0  0  0
    4.1044    0.7662   -1.5557 H   0  0  0  0  0  0  0  0  0  0  0  0
    3.0701    2.5368   -2.1573 C   0  0  0  0  0  0  0  0  0  0  0  0
    2.1840    1.9893   -2.5351 H   0  0  0  0  0  0  0  0  0  0  0  0
    3.7434    2.7402   -3.0144 H   0  0  0  0  0  0  0  0  0  0  0  0
    2.7263    3.5171   -1.7682 H   0  0  0  0  0  0  0  0  0  0  0  0
    5.0771    2.4379   -0.6144 C   0  0  0  0  0  0  0  0  0  0  0  0
    4.8617    3.4476   -0.2090 H   0  0  0  0  0  0  0  0  0  0  0  0
    5.7709    2.5736   -1.4680 H   0  0  0  0  0  0  0  0  0  0  0  0
    5.6106    1.8670    0.1710 H   0  0  0  0  0  0  0  0  0  0  0  0
    2.3743    2.4593    0.8376 C   0  0  0  0  0  0  0  0  0  0  0  0
    2.9422    3.3469    0.4919 H   0  0  0  0  0  0  0  0  0  0  0  0
    2.7359    2.2589    2.3148 C   0  0  0  0  0  0  0  0  0  0  0  0
    2.1914    1.3931    2.7430 H   0  0  0  0  0  0  0  0  0  0  0  0
    2.4594    3.1503    2.9135 H   0  0  0  0  0  0  0  0  0  0  0  0
    3.8227    2.0806    2.4369 H   0  0  0  0  0  0  0  0  0  0  0  0
    0.8897    2.8213    0.6641 C   0  0  0  0  0  0  0  0  0  0  0  0
    0.5954    2.8561   -0.4020 H   0  0  0  0  0  0  0  0  0  0  0  0
    0.7052    3.8264    1.0948 H   0  0  0  0  0  0  0  0  0  0  0  0
    0.2141    2.1181    1.1877 H   0  0  0  0  0  0  0  0  0  0  0  0
  1 10  1  0  0  0  0
  2  8  1  0  0  0  0
  3 22  1  0  0  0  0
  3  5  1  0  0  0  0
  4  5  1  0  0  0  0
  4 42  1  0  0  0  0
  5  1  1  0  0  0  0
  6  2  1  0  0  0  0
  6  1  1  0  0  0  0
  7  6  1  0  0  0  0
  8 10  2  0  0  0  0
  8  9  1  0  0  0  0
 10 11  1  0  0  0  0
 12  3  1  0  0  0  0
 12 14  1  0  0  0  0
 13 12  1  0  0  0  0
 14 17  1  0  0  0  0
 14 15  1  0  0  0  0
 16 14  1  0  0  0  0
 18 19  1  0  0  0  0
 18 12  1  0  0  0  0
 20 18  1  0  0  0  0
 21 18  1  0  0  0  0
 22 23  1  0  0  0  0
 22 24  1  0  0  0  0
 24 26  1  0  0  0  0
 24 25  1  0  0  0  0
 27 24  1  0  0  0  0
 28 30  1  0  0  0  0
 28 22  1  0  0  0  0
 29 28  1  0  0  0  0
 31 28  1  0  0  0  0
 32 38  1  0  0  0  0
 32  4  1  0  0  0  0
 33 32  1  0  0  0  0
 34 37  1  0  0  0  0
 34 32  1  0  0  0  0
 35 34  1  0  0  0  0
 36 34  1  0  0  0  0
 38 39  1  0  0  0  0
 38 41  1  0  0  0  0
 40 38  1  0  0  0  0
 42 44  1  0  0  0  0
 43 42  1  0  0  0  0
 44 47  1  0  0  0  0
 44 45  1  0  0  0  0
 44 46  1  0  0  0  0
 48 42  1  0  0  0  0
 48 50  1  0  0  0  0
 48 51  1  0  0  0  0
 49 48  1  0  0  0  0
M  END
