1
 OpenBabel05122313063D

 39 40  0  0  1  0  0  0  0  0999 V2000
   -0.0904    1.0470    1.0681 N   0  0  0  0  0  2  0  0  0  0  0  0
    1.2017    0.7590    0.7065 C   0  0  1  0  0  3  0  0  0  0  0  0
    1.6355   -0.5629    0.8870 C   0  0  0  0  0  3  0  0  0  0  0  0
    1.0744   -1.1118    1.6631 H   0  0  0  0  0  0  0  0  0  0  0  0
    2.7770   -1.3005    0.3439 C   0  0  0  0  0  0  0  0  0  0  0  0
    3.6129   -0.8679   -0.7212 C   0  0  0  0  0  0  0  0  0  0  0  0
    3.4390    0.1061   -1.1962 H   0  0  0  0  0  0  0  0  0  0  0  0
    4.6684   -1.6636   -1.1843 C   0  0  0  0  0  0  0  0  0  0  0  0
    5.2927   -1.2955   -2.0133 H   0  0  0  0  0  0  0  0  0  0  0  0
    4.9334   -2.9181   -0.6111 C   0  0  0  0  0  0  0  0  0  0  0  0
    5.7629   -3.5387   -0.9820 H   0  0  0  0  0  0  0  0  0  0  0  0
    4.1190   -3.3685    0.4411 C   0  0  0  0  0  0  0  0  0  0  0  0
    4.3070   -4.3491    0.9053 H   0  0  0  0  0  0  0  0  0  0  0  0
    3.0646   -2.5747    0.9055 C   0  0  0  0  0  0  0  0  0  0  0  0
    2.4356   -2.9405    1.7326 H   0  0  0  0  0  0  0  0  0  0  0  0
   -0.4207    2.2628    1.8531 C   0  0  0  0  0  0  0  0  0  0  0  0
   -1.8582    2.0952    2.3817 C   0  0  0  0  0  0  0  0  0  0  0  0
   -1.9261    1.2113    3.0440 H   0  0  0  0  0  0  0  0  0  0  0  0
   -2.5805    1.9472    1.5578 H   0  0  0  0  0  0  0  0  0  0  0  0
   -2.1653    2.9875    2.9630 H   0  0  0  0  0  0  0  0  0  0  0  0
   -0.3267    3.5951    1.0726 C   0  0  0  0  0  0  0  0  0  0  0  0
   -0.9135    3.5549    0.1351 H   0  0  0  0  0  0  0  0  0  0  0  0
    0.7157    3.8477    0.8068 H   0  0  0  0  0  0  0  0  0  0  0  0
   -0.7266    4.4255    1.6908 H   0  0  0  0  0  0  0  0  0  0  0  0
    0.5218    2.3380    3.0744 C   0  0  0  0  0  0  0  0  0  0  0  0
    0.4883    1.3878    3.6443 H   0  0  0  0  0  0  0  0  0  0  0  0
    0.2257    3.1645    3.7524 H   0  0  0  0  0  0  0  0  0  0  0  0
    1.5695    2.5140    2.7617 H   0  0  0  0  0  0  0  0  0  0  0  0
    2.0936    1.7805    0.0646 C   0  0  0  0  0  0  0  0  0  0  0  0
    1.7214    2.3973   -1.1474 C   0  0  0  0  0  0  0  0  0  0  0  0
    0.7572    2.1290   -1.6038 H   0  0  0  0  0  0  0  0  0  0  0  0
    2.5680    3.3283   -1.7656 C   0  0  0  0  0  0  0  0  0  0  0  0
    2.2707    3.7928   -2.7183 H   0  0  0  0  0  0  0  0  0  0  0  0
    3.7936    3.6684   -1.1691 C   0  0  0  0  0  0  0  0  0  0  0  0
    4.4568    4.4034   -1.6503 H   0  0  0  0  0  0  0  0  0  0  0  0
    4.1712    3.0642    0.0417 C   0  0  0  0  0  0  0  0  0  0  0  0
    5.1314    3.3257    0.5119 H   0  0  0  0  0  0  0  0  0  0  0  0
    3.3320    2.1185    0.6476 C   0  0  0  0  0  0  0  0  0  0  0  0
    3.6346    1.6188    1.5804 H   0  0  0  0  0  0  0  0  0  0  0  0
  1 16  1  0  0  0  0
  2  3  1  6  0  0  0
  2  1  1  0  0  0  0
  3  4  1  0  0  0  0
  5  3  1  0  0  0  0
  5 14  1  0  0  0  0
  6  5  2  0  0  0  0
  7  6  1  0  0  0  0
  8  6  1  0  0  0  0
  8 10  2  0  0  0  0
  9  8  1  0  0  0  0
 10 12  1  0  0  0  0
 11 10  1  0  0  0  0
 12 13  1  0  0  0  0
 12 14  2  0  0  0  0
 14 15  1  0  0  0  0
 16 17  1  0  0  0  0
 16 25  1  0  0  0  0
 17 20  1  0  0  0  0
 17 18  1  0  0  0  0
 19 17  1  0  0  0  0
 21 24  1  0  0  0  0
 21 16  1  0  0  0  0
 22 21  1  0  0  0  0
 23 21  1  0  0  0  0
 25 26  1  0  0  0  0
 25 27  1  0  0  0  0
 28 25  1  0  0  0  0
 29 38  1  0  0  0  0
 29  2  1  0  0  0  0
 30 29  2  0  0  0  0
 31 30  1  0  0  0  0
 32 34  2  0  0  0  0
 32 30  1  0  0  0  0
 33 32  1  0  0  0  0
 34 36  1  0  0  0  0
 35 34  1  0  0  0  0
 36 37  1  0  0  0  0
 36 38  2  0  0  0  0
 38 39  1  0  0  0  0
M  END
