1
 OpenBabel05122313063D

 32 37  0  0  1  0  0  0  0  0999 V2000
   -1.4731   -1.3850   -1.8883 N   0  0  0  0  0  0  0  0  0  0  0  0
   -0.6476   -1.8531    0.3987 C   0  0  1  0  0  0  0  0  0  0  0  0
    0.3271   -0.6528    0.8793 C   0  0  2  0  0  0  0  0  0  0  0  0
   -0.5956   -2.2924   -1.0570 C   0  0  0  0  0  0  0  0  0  0  0  0
    0.4357   -2.2514   -1.4543 H   0  0  0  0  0  0  0  0  0  0  0  0
   -0.9416   -3.3418   -1.1504 H   0  0  0  0  0  0  0  0  0  0  0  0
   -0.8054   -0.9833   -3.1440 C   0  0  0  0  0  0  0  0  0  0  0  0
   -1.4873   -0.3438   -3.7370 H   0  0  0  0  0  0  0  0  0  0  0  0
   -0.5496   -1.8776   -3.7560 H   0  0  0  0  0  0  0  0  0  0  0  0
    0.1145   -0.4163   -2.9059 H   0  0  0  0  0  0  0  0  0  0  0  0
   -2.7541   -2.0455   -2.2329 C   0  0  0  0  0  0  0  0  0  0  0  0
   -3.4239   -1.3175   -2.7278 H   0  0  0  0  0  0  0  0  0  0  0  0
   -3.2462   -2.4154   -1.3183 H   0  0  0  0  0  0  0  0  0  0  0  0
   -2.5729   -2.9054   -2.9169 H   0  0  0  0  0  0  0  0  0  0  0  0
   -0.0354   -2.3494    3.0383 B   0  0  1  0  0  0  0  0  0  0  0  0
    0.4660   -3.0765    3.8652 H   0  0  0  0  0  0  0  0  0  0  0  0
   -0.9226   -2.9946    1.6451 B   0  0  1  0  0  0  0  0  0  0  0  0
   -1.0432   -4.1551    1.3233 H   0  0  0  0  0  0  0  0  0  0  0  0
    0.6774   -2.2542    1.4110 B   0  0  0  0  0  0  0  0  0  0  0  0
    1.6161   -2.8491    0.9468 H   0  0  0  0  0  0  0  0  0  0  0  0
    0.7805   -0.8625    2.5128 B   0  0  2  0  0  0  0  0  0  0  0  0
    1.8807   -0.5226    2.8794 H   0  0  0  0  0  0  0  0  0  0  0  0
   -0.7448   -0.7405    3.4164 B   0  0  2  0  0  0  0  0  0  0  0  0
   -0.7428   -0.2920    4.5422 H   0  0  0  0  0  0  0  0  0  0  0  0
   -1.8033   -2.0711    2.8899 B   0  0  0  0  0  0  0  0  0  0  0  0
   -2.5996   -2.6303    3.6113 H   0  0  0  0  0  0  0  0  0  0  0  0
   -0.4705    0.3000    2.0037 B   0  0  2  0  0  0  0  0  0  0  0  0
   -0.1623    1.4600    2.1251 H   0  0  0  0  0  0  0  0  0  0  0  0
   -2.0715   -0.4073    2.2576 B   0  0  1  0  0  0  0  0  0  0  0  0
   -3.0476    0.2183    2.6285 H   0  0  0  0  0  0  0  0  0  0  0  0
   -2.1226   -1.7934    1.1795 B   0  0  1  0  0  0  0  0  0  0  0  0
   -3.0839   -2.2465    0.5957 H   0  0  0  0  0  0  0  0  0  0  0  0
  1  4  1  0  0  0  0
  2  4  1  6  0  0  0
  2  3  1  0  0  0  0
  2 31  1  0  0  0  0
  2 17  1  0  0  0  0
  3 19  1  6  0  0  0
  3 27  1  0  0  0  0
  3 21  1  0  0  0  0
  5  4  1  0  0  0  0
  6  4  1  0  0  0  0
  7 10  1  0  0  0  0
  7  1  1  0  0  0  0
  8  7  1  0  0  0  0
  9  7  1  0  0  0  0
 11  1  1  0  0  0  0
 11 13  1  0  0  0  0
 12 11  1  0  0  0  0
 14 11  1  0  0  0  0
 15 16  1  1  0  0  0
 17 18  1  6  0  0  0
 17 15  1  0  0  0  0
 19 15  1  0  0  0  0
 20 19  1  0  0  0  0
 21 22  1  1  0  0  0
 21 15  1  0  0  0  0
 21 23  1  0  0  0  0
 23 24  1  1  0  0  0
 25 23  1  0  0  0  0
 25 26  1  0  0  0  0
 27 28  1  1  0  0  0
 27 29  1  0  0  0  0
 27 23  1  0  0  0  0
 29 30  1  1  0  0  0
 29 25  1  0  0  0  0
 31 32  1  6  0  0  0
 31 17  1  0  0  0  0
 31 29  1  0  0  0  0
M  END
