1
 OpenBabel05122313063D

 22 24  0  0  0  0  0  0  0  0999 V2000
   -1.8055    1.1527   -0.4067 N   0  0  0  0  0  0  0  0  0  0  0  0
   -1.6100    2.4796   -0.8065 C   0  0  0  0  0  0  0  0  0  0  0  0
   -0.4851    2.8680   -1.1629 O   0  0  0  0  0  0  0  0  0  0  0  0
   -2.7984    3.3322   -0.7663 C   0  0  0  0  0  0  0  0  0  0  0  0
   -2.6569    4.3738   -1.0868 H   0  0  0  0  0  0  0  0  0  0  0  0
   -4.0131    2.8515   -0.3543 C   0  0  0  0  0  0  0  0  0  0  0  0
   -4.8970    3.5096   -0.3332 H   0  0  0  0  0  0  0  0  0  0  0  0
   -4.1648    1.4845    0.0581 C   0  0  0  0  0  0  0  0  0  0  0  0
   -5.4129    0.9381    0.4899 C   0  0  0  0  0  0  0  0  0  0  0  0
   -6.2887    1.6053    0.5088 H   0  0  0  0  0  0  0  0  0  0  0  0
   -5.5380   -0.3839    0.8658 C   0  0  0  0  0  0  0  0  0  0  0  0
   -6.5080   -0.7929    1.1857 H   0  0  0  0  0  0  0  0  0  0  0  0
   -4.3960   -1.2442    0.8356 C   0  0  0  0  0  0  0  0  0  0  0  0
   -4.4425   -2.6220    1.1846 C   0  0  0  0  0  0  0  0  0  0  0  0
   -5.4009   -3.0597    1.5056 H   0  0  0  0  0  0  0  0  0  0  0  0
   -3.2948   -3.4000    1.1044 C   0  0  0  0  0  0  0  0  0  0  0  0
   -3.3132   -4.4713    1.3523 H   0  0  0  0  0  0  0  0  0  0  0  0
   -2.0825   -2.7913    0.6921 C   0  0  0  0  0  0  0  0  0  0  0  0
   -2.0097   -1.5006    0.3887 N   0  0  0  0  0  0  0  0  0  0  0  0
   -3.1198   -0.7267    0.4265 C   0  0  0  0  0  3  0  0  0  0  0  0
   -3.0031    0.6617    0.0165 C   0  0  0  0  0  0  0  0  0  0  0  0
   -1.1500   -3.3683    0.5761 H   0  0  0  0  0  0  0  0  0  0  0  0
  1 21  2  0  0  0  0
  2  4  1  0  0  0  0
  2  1  1  0  0  0  0
  3  2  2  0  0  0  0
  4  6  2  0  0  0  0
  5  4  1  0  0  0  0
  6  7  1  0  0  0  0
  6  8  1  0  0  0  0
  8  9  2  0  0  0  0
  9 10  1  0  0  0  0
  9 11  1  0  0  0  0
 11 12  1  0  0  0  0
 13 11  2  0  0  0  0
 13 14  1  0  0  0  0
 14 15  1  0  0  0  0
 16 14  2  0  0  0  0
 16 17  1  0  0  0  0
 18 16  1  0  0  0  0
 19 20  1  0  0  0  0
 19 18  2  0  0  0  0
 20 13  1  0  0  0  0
 21  8  1  0  0  0  0
 21 20  1  0  0  0  0
 22 18  1  0  0  0  0
M  END
