1
 OpenBabel05122313063D

 17 17  0  0  0  0  0  0  0  0999 V2000
    0.3291   -1.7741   -0.2412 N   0  0  0  0  0  2  0  0  0  0  0  0
    0.2166   -2.4638   -1.4258 C   0  0  0  0  0  0  0  0  0  0  0  0
    0.7775   -3.6698   -1.3907 N   0  0  0  0  0  0  0  0  0  0  0  0
    1.2568   -3.7545   -0.1242 N   0  0  0  0  0  0  0  0  0  0  0  0
    0.9931   -2.6171    0.5652 C   0  0  0  0  0  3  0  0  0  0  0  0
    1.2250   -2.4225    1.6186 H   0  0  0  0  0  0  0  0  0  0  0  0
    2.1088   -4.8651    0.2724 C   0  0  0  0  0  0  0  0  0  0  0  0
    3.5028   -4.7772   -0.3620 C   0  0  0  0  0  0  0  0  0  0  0  0
    4.2745   -3.5131    0.0187 C   0  0  0  0  0  0  0  0  0  0  0  0
    5.2789   -3.5034   -0.4495 H   0  0  0  0  0  0  0  0  0  0  0  0
    3.7429   -2.5970   -0.3126 H   0  0  0  0  0  0  0  0  0  0  0  0
    4.4152   -3.4337    1.1172 H   0  0  0  0  0  0  0  0  0  0  0  0
    4.0683   -5.6839   -0.0580 H   0  0  0  0  0  0  0  0  0  0  0  0
    3.3797   -4.8352   -1.4639 H   0  0  0  0  0  0  0  0  0  0  0  0
    2.1716   -4.8438    1.3795 H   0  0  0  0  0  0  0  0  0  0  0  0
    1.5998   -5.8035   -0.0248 H   0  0  0  0  0  0  0  0  0  0  0  0
   -0.2591   -2.0277   -2.3110 H   0  0  0  0  0  0  0  0  0  0  0  0
  1  5  1  0  0  0  0
  2  3  2  0  0  0  0
  2  1  1  0  0  0  0
  3  4  1  0  0  0  0
  4  7  1  0  0  0  0
  4  5  1  0  0  0  0
  5  6  1  0  0  0  0
  7 15  1  0  0  0  0
  8 13  1  0  0  0  0
  8  9  1  0  0  0  0
  8  7  1  0  0  0  0
  9 12  1  0  0  0  0
 10  9  1  0  0  0  0
 11  9  1  0  0  0  0
 14  8  1  0  0  0  0
 16  7  1  0  0  0  0
 17  2  1  0  0  0  0
M  END
