2
 OpenBabel05122313063D

 24 25  0  0  1  0  0  0  0  0999 V2000
    0.5607    3.3283   -0.2053 S   0  0  0  0  0  0  0  0  0  0  0  0
    2.3506    1.4815   -0.4018 N   0  0  0  0  0  2  0  0  0  0  0  0
   -1.6057    0.9975   -2.1614 C   0  0  0  0  0  0  0  0  0  0  0  0
    2.6964    2.8760    1.4726 N   0  0  0  0  0  0  0  0  0  0  0  0
    3.4882    2.2465    1.7735 H   0  0  0  0  0  0  0  0  0  0  0  0
    2.3505    3.6075    2.0885 H   0  0  0  0  0  0  0  0  0  0  0  0
    2.0077    2.5103    0.3875 C   0  0  1  0  0  3  0  0  0  0  0  0
    0.5416    2.1372   -1.5261 C   0  0  0  0  0  0  0  0  0  0  0  0
    1.5256    1.2885   -1.4583 N   0  0  0  0  0  0  0  0  0  0  0  0
   -3.4648   -0.9474   -1.4234 C   0  0  0  0  0  0  0  0  0  0  0  0
   -2.9820    1.2994   -2.1432 C   0  0  0  0  0  0  0  0  0  0  0  0
   -3.3249    2.3157   -2.3888 H   0  0  0  0  0  0  0  0  0  0  0  0
   -3.9232    0.3262   -1.7814 C   0  0  0  0  0  0  0  0  0  0  0  0
   -4.9979    0.5452   -1.7261 H   0  0  0  0  0  0  0  0  0  0  0  0
   -3.9830   -3.0413   -0.5647 O   0  0  0  0  0  0  0  0  0  0  0  0
   -1.1805   -0.3048   -1.8237 C   0  0  0  0  0  0  0  0  0  0  0  0
   -0.1044   -0.5354   -1.8281 H   0  0  0  0  0  0  0  0  0  0  0  0
   -0.5723    2.0536   -2.5291 C   0  0  0  0  0  0  0  0  0  0  0  0
   -0.1101    1.7910   -3.5042 H   0  0  0  0  0  0  0  0  0  0  0  0
   -1.0584    3.0398   -2.6527 H   0  0  0  0  0  0  0  0  0  0  0  0
   -4.4330   -1.9551   -0.9380 N   0  0  0  0  0  0  0  0  0  0  0  0
   -2.1050   -1.2809   -1.4488 C   0  0  0  0  0  0  0  0  0  0  0  0
   -1.7947   -2.2903   -1.1511 H   0  0  0  0  0  0  0  0  0  0  0  0
   -5.6215   -1.6374   -0.9109 O   0  0  0  0  0  0  0  0  0  0  0  0
  1  7  1  0  0  0  0
  2  7  1  0  0  0  0
  3 11  2  0  0  0  0
  3 16  1  0  0  0  0
  4  5  1  0  0  0  0
  4  6  1  0  0  0  0
  7  4  1  6  0  0  0
  8  9  2  0  0  0  0
  8  1  1  0  0  0  0
  9  2  1  0  0  0  0
 10 21  1  0  0  0  0
 11 13  1  0  0  0  0
 12 11  1  0  0  0  0
 13 14  1  0  0  0  0
 13 10  2  0  0  0  0
 16 22  2  0  0  0  0
 17 16  1  0  0  0  0
 18  3  1  0  0  0  0
 18  8  1  0  0  0  0
 19 18  1  0  0  0  0
 20 18  1  0  0  0  0
 21 24  2  0  0  0  0
 21 15  2  0  0  0  0
 22 10  1  0  0  0  0
 22 23  1  0  0  0  0
M  END
