1
 OpenBabel05122313063D

 28 29  0  0  0  0  0  0  0  0999 V2000
    0.7970   -1.8791   -0.0941 N   0  0  0  0  0  2  0  0  0  0  0  0
    2.1467   -2.1030    0.0246 N   0  0  0  0  0  0  0  0  0  0  0  0
    0.0641   -2.9620   -0.0355 C   0  0  0  0  0  3  0  0  0  0  0  0
    2.9207   -1.1222   -0.3288 C   0  0  0  0  0  0  0  0  0  0  0  0
   -1.3767   -3.0079   -0.2410 C   0  0  0  0  0  0  0  0  0  0  0  0
    0.6052   -3.9001    0.1892 H   0  0  0  0  0  0  0  0  0  0  0  0
    4.3727   -1.2188   -0.2222 C   0  0  0  0  0  0  0  0  0  0  0  0
    2.4891   -0.1902   -0.7519 H   0  0  0  0  0  0  0  0  0  0  0  0
   -2.0503   -2.1028   -1.1004 C   0  0  0  0  0  0  0  0  0  0  0  0
   -2.1175   -4.0212    0.4123 C   0  0  0  0  0  0  0  0  0  0  0  0
    5.0116   -2.3366    0.3662 C   0  0  0  0  0  0  0  0  0  0  0  0
    5.1594   -0.1521   -0.7159 C   0  0  0  0  0  0  0  0  0  0  0  0
   -3.4375   -2.1916   -1.2586 C   0  0  0  0  0  0  0  0  0  0  0  0
   -1.4705   -1.3545   -1.6643 H   0  0  0  0  0  0  0  0  0  0  0  0
   -3.5079   -4.0911    0.2630 C   0  0  0  0  0  0  0  0  0  0  0  0
   -1.5945   -4.7387    1.0632 H   0  0  0  0  0  0  0  0  0  0  0  0
    6.4052   -2.3786    0.4600 C   0  0  0  0  0  0  0  0  0  0  0  0
    4.3864   -3.1583    0.7448 H   0  0  0  0  0  0  0  0  0  0  0  0
    6.5561   -0.2004   -0.6217 C   0  0  0  0  0  0  0  0  0  0  0  0
    4.6591    0.7158   -1.1719 H   0  0  0  0  0  0  0  0  0  0  0  0
   -4.1711   -3.1729   -0.5684 C   0  0  0  0  0  0  0  0  0  0  0  0
   -3.9526   -1.4876   -1.9290 H   0  0  0  0  0  0  0  0  0  0  0  0
   -4.0774   -4.8683    0.7942 H   0  0  0  0  0  0  0  0  0  0  0  0
    7.1810   -1.3117   -0.0325 C   0  0  0  0  0  0  0  0  0  0  0  0
    6.8980   -3.2481    0.9209 H   0  0  0  0  0  0  0  0  0  0  0  0
    7.1618    0.6323   -1.0100 H   0  0  0  0  0  0  0  0  0  0  0  0
   -5.2637   -3.2286   -0.6903 H   0  0  0  0  0  0  0  0  0  0  0  0
    8.2784   -1.3495    0.0440 H   0  0  0  0  0  0  0  0  0  0  0  0
  1  3  1  0  0  0  0
  1  2  1  0  0  0  0
  3  6  1  0  0  0  0
  4  7  1  0  0  0  0
  4  2  2  0  0  0  0
  5  3  1  0  0  0  0
  5 10  1  0  0  0  0
  7 11  1  0  0  0  0
  8  4  1  0  0  0  0
  9  5  2  0  0  0  0
 10 16  1  0  0  0  0
 11 17  2  0  0  0  0
 11 18  1  0  0  0  0
 12 19  1  0  0  0  0
 12  7  2  0  0  0  0
 13  9  1  0  0  0  0
 13 21  2  0  0  0  0
 14  9  1  0  0  0  0
 15 10  2  0  0  0  0
 15 23  1  0  0  0  0
 17 25  1  0  0  0  0
 19 24  2  0  0  0  0
 20 12  1  0  0  0  0
 21 15  1  0  0  0  0
 22 13  1  0  0  0  0
 24 28  1  0  0  0  0
 24 17  1  0  0  0  0
 26 19  1  0  0  0  0
 27 21  1  0  0  0  0
M  END
