2
 OpenBabel05122313063D

 35 37  0  0  0  0  0  0  0  0999 V2000
    0.9685    0.5307   -0.4466 P   0  0  0  0  0  0  0  0  0  0  0  0
    0.2384   -0.7334    0.3940 N   0  0  0  0  0  2  0  0  0  0  0  0
    0.7974   -1.7469    1.1805 C   0  0  0  0  0  0  0  0  0  0  0  0
   -0.0518   -2.6327    1.8885 C   0  0  0  0  0  0  0  0  0  0  0  0
   -1.1375   -2.5222    1.7778 H   0  0  0  0  0  0  0  0  0  0  0  0
    0.4882   -3.6457    2.6900 C   0  0  0  0  0  0  0  0  0  0  0  0
   -0.1918   -4.3218    3.2309 H   0  0  0  0  0  0  0  0  0  0  0  0
    1.8788   -3.8081    2.8034 C   0  0  0  0  0  0  0  0  0  0  0  0
    2.2978   -4.6062    3.4339 H   0  0  0  0  0  0  0  0  0  0  0  0
    2.7277   -2.9408    2.0965 C   0  0  0  0  0  0  0  0  0  0  0  0
    3.8201   -3.0586    2.1658 H   0  0  0  0  0  0  0  0  0  0  0  0
    2.2001   -1.9207    1.2954 C   0  0  0  0  0  0  0  0  0  0  0  0
    2.8756   -1.2540    0.7405 H   0  0  0  0  0  0  0  0  0  0  0  0
    1.8889    1.6731    0.6479 C   0  0  0  0  0  0  0  0  0  0  0  0
    2.1160    1.4002    2.0124 C   0  0  0  0  0  0  0  0  0  0  0  0
    1.7932    0.4417    2.4421 H   0  0  0  0  0  0  0  0  0  0  0  0
    2.7573    2.3521    2.8203 C   0  0  0  0  0  0  0  0  0  0  0  0
    2.9323    2.1302    3.8840 H   0  0  0  0  0  0  0  0  0  0  0  0
    3.1790    3.5764    2.2776 C   0  0  0  0  0  0  0  0  0  0  0  0
    3.6824    4.3186    2.9154 H   0  0  0  0  0  0  0  0  0  0  0  0
    2.9519    3.8543    0.9196 C   0  0  0  0  0  0  0  0  0  0  0  0
    3.2716    4.8161    0.4907 H   0  0  0  0  0  0  0  0  0  0  0  0
    2.3012    2.9127    0.1097 C   0  0  0  0  0  0  0  0  0  0  0  0
    2.0989    3.1472   -0.9477 H   0  0  0  0  0  0  0  0  0  0  0  0
    2.1995   -0.1754   -1.6125 C   0  0  0  0  0  0  0  0  0  0  0  0
    3.4869    0.3644   -1.8032 C   0  0  0  0  0  0  0  0  0  0  0  0
    3.8151    1.2382   -1.2212 H   0  0  0  0  0  0  0  0  0  0  0  0
    4.3654   -0.2271   -2.7245 C   0  0  0  0  0  0  0  0  0  0  0  0
    5.3714    0.1970   -2.8652 H   0  0  0  0  0  0  0  0  0  0  0  0
    3.9674   -1.3570   -3.4551 C   0  0  0  0  0  0  0  0  0  0  0  0
    4.6587   -1.8197   -4.1756 H   0  0  0  0  0  0  0  0  0  0  0  0
    2.6855   -1.8982   -3.2614 C   0  0  0  0  0  0  0  0  0  0  0  0
    2.3686   -2.7874   -3.8269 H   0  0  0  0  0  0  0  0  0  0  0  0
    1.7991   -1.3114   -2.3493 C   0  0  0  0  0  0  0  0  0  0  0  0
    0.7957   -1.7382   -2.1997 H   0  0  0  0  0  0  0  0  0  0  0  0
  1  2  1  0  0  0  0
  1 14  1  0  0  0  0
  2  3  1  0  0  0  0
  3 12  2  0  0  0  0
  3  4  1  0  0  0  0
  4  6  2  0  0  0  0
  5  4  1  0  0  0  0
  6  8  1  0  0  0  0
  6  7  1  0  0  0  0
  8  9  1  0  0  0  0
 10 11  1  0  0  0  0
 10  8  2  0  0  0  0
 12 10  1  0  0  0  0
 13 12  1  0  0  0  0
 14 15  1  0  0  0  0
 15 16  1  0  0  0  0
 15 17  2  0  0  0  0
 17 18  1  0  0  0  0
 19 17  1  0  0  0  0
 19 20  1  0  0  0  0
 21 19  2  0  0  0  0
 22 21  1  0  0  0  0
 23 14  2  0  0  0  0
 23 21  1  0  0  0  0
 24 23  1  0  0  0  0
 25  1  1  0  0  0  0
 26 25  1  0  0  0  0
 26 27  1  0  0  0  0
 28 26  2  0  0  0  0
 29 28  1  0  0  0  0
 30 32  2  0  0  0  0
 30 28  1  0  0  0  0
 31 30  1  0  0  0  0
 32 34  1  0  0  0  0
 33 32  1  0  0  0  0
 34 35  1  0  0  0  0
 34 25  2  0  0  0  0
M  END
