1
 OpenBabel05122313063D

 28 29  0  0  1  0  0  0  0  0999 V2000
    2.0297   -0.2808   -0.0422 N   0  0  0  0  0  2  0  0  0  0  0  0
    2.7141    0.8439   -0.3698 C   0  0  0  0  0  3  0  0  0  0  0  0
    2.1027    1.7431   -0.5281 H   0  0  0  0  0  0  0  0  0  0  0  0
    4.1049    0.8589   -0.4563 C   0  0  0  0  0  0  0  0  0  0  0  0
    4.6433    1.7764   -0.7301 H   0  0  0  0  0  0  0  0  0  0  0  0
    4.8255   -0.3189   -0.1801 C   0  0  0  0  0  0  0  0  0  0  0  0
    4.1044   -1.4766    0.1654 C   0  0  0  0  0  0  0  0  0  0  0  0
    4.6283   -2.4156    0.3875 H   0  0  0  0  0  0  0  0  0  0  0  0
    2.7099   -1.4222    0.2164 C   0  0  0  0  0  0  0  0  0  0  0  0
    2.0929   -2.3050    0.4347 H   0  0  0  0  0  0  0  0  0  0  0  0
    7.0245    0.6956   -0.5580 N   0  0  0  0  0  0  0  0  0  0  0  0
    6.2960   -0.3201   -0.2547 C   0  0  0  0  0  0  0  0  0  0  0  0
    6.9114   -1.5088    0.0131 O   0  0  0  0  0  0  0  0  0  0  0  0
    8.3311   -1.2286   -0.0244 C   0  0  0  0  0  0  0  0  0  0  0  0
    8.8174   -1.9721   -0.6849 H   0  0  0  0  0  0  0  0  0  0  0  0
    8.7325   -1.3468    1.0059 H   0  0  0  0  0  0  0  0  0  0  0  0
    8.4196    0.2415   -0.5326 C   0  0  2  0  0  0  0  0  0  0  0  0
    8.8056    0.2776   -1.5795 H   0  0  0  0  0  0  0  0  0  0  0  0
    9.3243    1.1548    0.3201 C   0  0  0  0  0  0  0  0  0  0  0  0
    8.9329    1.0997    1.3624 H   0  0  0  0  0  0  0  0  0  0  0  0
    9.2385    2.6088   -0.1513 C   0  0  0  0  0  0  0  0  0  0  0  0
    9.6332    2.7108   -1.1848 H   0  0  0  0  0  0  0  0  0  0  0  0
    9.8369    3.2737    0.5035 H   0  0  0  0  0  0  0  0  0  0  0  0
    8.1898    2.9609   -0.1549 H   0  0  0  0  0  0  0  0  0  0  0  0
   10.7701    0.6444    0.3123 C   0  0  0  0  0  0  0  0  0  0  0  0
   10.8579   -0.3926    0.6970 H   0  0  0  0  0  0  0  0  0  0  0  0
   11.4181    1.2855    0.9427 H   0  0  0  0  0  0  0  0  0  0  0  0
   11.1870    0.6591   -0.7174 H   0  0  0  0  0  0  0  0  0  0  0  0
  1  9  1  0  0  0  0
  2  1  1  0  0  0  0
  3  2  1  0  0  0  0
  4  2  1  0  0  0  0
  4  6  2  0  0  0  0
  5  4  1  0  0  0  0
  6  7  1  0  0  0  0
  7  9  2  0  0  0  0
  7  8  1  0  0  0  0
  9 10  1  0  0  0  0
 11 17  1  0  0  0  0
 11 12  2  0  0  0  0
 12  6  1  0  0  0  0
 12 13  1  0  0  0  0
 14 13  1  0  0  0  0
 14 16  1  0  0  0  0
 15 14  1  0  0  0  0
 17 18  1  6  0  0  0
 17 14  1  0  0  0  0
 17 19  1  0  0  0  0
 19 20  1  0  0  0  0
 21 19  1  0  0  0  0
 21 23  1  0  0  0  0
 22 21  1  0  0  0  0
 24 21  1  0  0  0  0
 25 19  1  0  0  0  0
 25 26  1  0  0  0  0
 25 27  1  0  0  0  0
 28 25  1  0  0  0  0
M  END
