3
 OpenBabel05122313063D

 33 33  0  0  0  0  0  0  0  0999 V2000
    0.7775   -2.3823   -0.0933 O   0  0  0  0  0  0  0  0  0  0  0  0
    0.7746   -3.0972   -0.7606 H   0  0  0  0  0  0  0  0  0  0  0  0
   -0.0395   -0.2083    1.5190 N   0  0  0  0  0  2  0  0  0  0  0  0
   -1.6281    3.6274    0.2287 N   0  0  0  0  0  0  0  0  0  0  0  0
    2.0599   -1.9297    0.1072 C   0  0  0  0  0  0  0  0  0  0  0  0
    3.1361   -2.4834   -0.5972 C   0  0  0  0  0  0  0  0  0  0  0  0
    2.9459   -3.2724   -1.3423 H   0  0  0  0  0  0  0  0  0  0  0  0
    4.4402   -2.0261   -0.3653 C   0  0  0  0  0  0  0  0  0  0  0  0
    5.2737   -2.4631   -0.9347 H   0  0  0  0  0  0  0  0  0  0  0  0
    4.6793   -1.0173    0.5814 C   0  0  0  0  0  0  0  0  0  0  0  0
    5.7003   -0.6528    0.7609 H   0  0  0  0  0  0  0  0  0  0  0  0
    3.6046   -0.4752    1.2884 C   0  0  0  0  0  0  0  0  0  0  0  0
    3.7775    0.3226    2.0265 H   0  0  0  0  0  0  0  0  0  0  0  0
    2.2732   -0.9008    1.0652 C   0  0  0  0  0  0  0  0  0  0  0  0
    1.2167   -0.2429    1.8280 C   0  0  0  0  0  3  0  0  0  0  0  0
    1.5569    0.2992    2.7378 H   0  0  0  0  0  0  0  0  0  0  0  0
   -0.9925    0.4907    2.3763 C   0  0  0  0  0  0  0  0  0  0  0  0
   -0.4652    0.9596    3.2388 H   0  0  0  0  0  0  0  0  0  0  0  0
   -1.6931   -0.2723    2.7789 H   0  0  0  0  0  0  0  0  0  0  0  0
   -1.7895    1.5287    1.5804 C   0  0  0  0  0  0  0  0  0  0  0  0
   -2.3393    0.9959    0.7729 H   0  0  0  0  0  0  0  0  0  0  0  0
   -2.5706    1.9706    2.2330 H   0  0  0  0  0  0  0  0  0  0  0  0
   -0.9028    2.6344    1.0056 C   0  0  0  0  0  0  0  0  0  0  0  0
   -0.4063    3.1606    1.8511 H   0  0  0  0  0  0  0  0  0  0  0  0
   -0.0733    2.1708    0.4070 H   0  0  0  0  0  0  0  0  0  0  0  0
   -2.2228    3.0821   -0.9839 C   0  0  0  0  0  0  0  0  0  0  0  0
   -2.7609    3.8862   -1.5246 H   0  0  0  0  0  0  0  0  0  0  0  0
   -2.9675    2.2967   -0.7462 H   0  0  0  0  0  0  0  0  0  0  0  0
   -1.4694    2.6373   -1.6860 H   0  0  0  0  0  0  0  0  0  0  0  0
   -0.7800    4.7710   -0.0691 C   0  0  0  0  0  0  0  0  0  0  0  0
   -1.3627    5.5428   -0.6117 H   0  0  0  0  0  0  0  0  0  0  0  0
    0.1128    4.5064   -0.6961 H   0  0  0  0  0  0  0  0  0  0  0  0
   -0.4087    5.2249    0.8731 H   0  0  0  0  0  0  0  0  0  0  0  0
  1  5  1  0  0  0  0
  2  1  1  0  0  0  0
  3 15  1  0  0  0  0
  3 17  1  0  0  0  0
  4 23  1  0  0  0  0
  5 14  1  0  0  0  0
  6  8  1  0  0  0  0
  6  5  2  0  0  0  0
  7  6  1  0  0  0  0
  8 10  2  0  0  0  0
  9  8  1  0  0  0  0
 10 11  1  0  0  0  0
 10 12  1  0  0  0  0
 12 13  1  0  0  0  0
 14 12  2  0  0  0  0
 14 15  1  0  0  0  0
 15 16  1  0  0  0  0
 17 19  1  0  0  0  0
 17 18  1  0  0  0  0
 20 22  1  0  0  0  0
 20 17  1  0  0  0  0
 21 20  1  0  0  0  0
 23 20  1  0  0  0  0
 23 24  1  0  0  0  0
 25 23  1  0  0  0  0
 26 28  1  0  0  0  0
 26  4  1  0  0  0  0
 27 26  1  0  0  0  0
 29 26  1  0  0  0  0
 30  4  1  0  0  0  0
 30 33  1  0  0  0  0
 31 30  1  0  0  0  0
 32 30  1  0  0  0  0
M  END
