2
 OpenBabel05122313063D

 39 42  0  0  0  0  0  0  0  0999 V2000
   -1.1053    0.1744   -0.0493 P   0  0  0  0  0  0  0  0  0  0  0  0
    1.4322    1.5905   -0.0532 N   0  0  0  0  0  2  0  0  0  0  0  0
    2.6803    2.0630   -0.0079 C   0  0  0  0  0  0  0  0  0  0  0  0
    3.4791    1.3214    0.1178 H   0  0  0  0  0  0  0  0  0  0  0  0
    2.9959    3.4342   -0.1428 C   0  0  0  0  0  0  0  0  0  0  0  0
    4.0473    3.7479   -0.0880 H   0  0  0  0  0  0  0  0  0  0  0  0
    1.9760    4.3438   -0.3679 C   0  0  0  0  0  0  0  0  0  0  0  0
    2.1873    5.4161   -0.4971 H   0  0  0  0  0  0  0  0  0  0  0  0
    0.6351    3.8780   -0.4524 C   0  0  0  0  0  0  0  0  0  0  0  0
   -0.4693    4.7376   -0.7205 C   0  0  0  0  0  3  0  0  0  0  0  0
   -0.2796    5.8126   -0.8586 H   0  0  0  0  0  0  0  0  0  0  0  0
   -1.7553    4.2279   -0.8195 C   0  0  0  0  0  0  0  0  0  0  0  0
   -2.5997    4.8964   -1.0414 H   0  0  0  0  0  0  0  0  0  0  0  0
   -1.9918    2.8415   -0.6341 C   0  0  0  0  0  0  0  0  0  0  0  0
   -3.0168    2.4510   -0.7173 H   0  0  0  0  0  0  0  0  0  0  0  0
   -0.9396    1.9747   -0.3600 C   0  0  0  0  0  0  0  0  0  0  0  0
    0.3918    2.4720   -0.2781 C   0  0  0  0  0  0  0  0  0  0  0  0
   -1.8217    0.0949    1.6391 C   0  0  0  0  0  0  0  0  0  0  0  0
   -1.3879    1.0275    2.6062 C   0  0  0  0  0  0  0  0  0  0  0  0
   -0.7005    1.8384    2.3215 H   0  0  0  0  0  0  0  0  0  0  0  0
   -1.8327    0.9292    3.9316 C   0  0  0  0  0  0  0  0  0  0  0  0
   -1.4967    1.6668    4.6757 H   0  0  0  0  0  0  0  0  0  0  0  0
   -2.7068   -0.1039    4.3088 C   0  0  0  0  0  0  0  0  0  0  0  0
   -3.0560   -0.1790    5.3493 H   0  0  0  0  0  0  0  0  0  0  0  0
   -3.1413   -1.0347    3.3520 C   0  0  0  0  0  0  0  0  0  0  0  0
   -3.8339   -1.8400    3.6393 H   0  0  0  0  0  0  0  0  0  0  0  0
   -2.7031   -0.9393    2.0216 C   0  0  0  0  0  0  0  0  0  0  0  0
   -3.0624   -1.6648    1.2775 H   0  0  0  0  0  0  0  0  0  0  0  0
   -2.3856   -0.4931   -1.1657 C   0  0  0  0  0  0  0  0  0  0  0  0
   -3.7552   -0.2281   -0.9332 C   0  0  0  0  0  0  0  0  0  0  0  0
   -4.0712    0.3561   -0.0558 H   0  0  0  0  0  0  0  0  0  0  0  0
   -4.7223   -0.7292   -1.8157 C   0  0  0  0  0  0  0  0  0  0  0  0
   -5.7868   -0.5198   -1.6331 H   0  0  0  0  0  0  0  0  0  0  0  0
   -4.3337   -1.4996   -2.9243 C   0  0  0  0  0  0  0  0  0  0  0  0
   -5.0963   -1.8942   -3.6123 H   0  0  0  0  0  0  0  0  0  0  0  0
   -2.9748   -1.7637   -3.1549 C   0  0  0  0  0  0  0  0  0  0  0  0
   -2.6685   -2.3596   -4.0276 H   0  0  0  0  0  0  0  0  0  0  0  0
   -1.9976   -1.2625   -2.2820 C   0  0  0  0  0  0  0  0  0  0  0  0
   -0.9279   -1.4257   -2.4816 H   0  0  0  0  0  0  0  0  0  0  0  0
  1 18  1  0  0  0  0
  2  3  1  0  0  0  0
  3  4  1  0  0  0  0
  5  6  1  0  0  0  0
  5  3  2  0  0  0  0
  7  5  1  0  0  0  0
  8  7  1  0  0  0  0
  9  7  2  0  0  0  0
  9 17  1  0  0  0  0
 10  9  1  0  0  0  0
 11 10  1  0  0  0  0
 12 10  1  0  0  0  0
 12 14  2  0  0  0  0
 13 12  1  0  0  0  0
 14 16  1  0  0  0  0
 15 14  1  0  0  0  0
 16 17  2  0  0  0  0
 16  1  1  0  0  0  0
 17  2  1  0  0  0  0
 18 27  2  0  0  0  0
 18 19  1  0  0  0  0
 19 21  2  0  0  0  0
 20 19  1  0  0  0  0
 21 23  1  0  0  0  0
 21 22  1  0  0  0  0
 23 24  1  0  0  0  0
 25 26  1  0  0  0  0
 25 23  2  0  0  0  0
 27 25  1  0  0  0  0
 28 27  1  0  0  0  0
 29 30  1  0  0  0  0
 29  1  1  0  0  0  0
 30 31  1  0  0  0  0
 32 33  1  0  0  0  0
 32 30  2  0  0  0  0
 34 32  1  0  0  0  0
 35 34  1  0  0  0  0
 36 34  2  0  0  0  0
 36 38  1  0  0  0  0
 37 36  1  0  0  0  0
 38 29  2  0  0  0  0
 39 38  1  0  0  0  0
M  END
