2
 OpenBabel05122313063D

 35 38  0  0  1  0  0  0  0  0999 V2000
    0.8615   -3.2345   -0.3968 O   0  0  0  0  0  0  0  0  0  0  0  0
    1.0588   -0.9936   -0.6003 N   0  0  0  0  0  2  0  0  0  0  0  0
   -1.6844   -0.7109   -0.1404 N   0  0  0  0  0  0  0  0  0  0  0  0
   -1.1615   -1.9344   -0.1033 C   0  0  0  0  0  0  0  0  0  0  0  0
   -1.9183   -3.1092    0.1780 C   0  0  0  0  0  0  0  0  0  0  0  0
   -1.4233   -4.0894    0.1900 H   0  0  0  0  0  0  0  0  0  0  0  0
   -3.2712   -2.9654    0.4360 C   0  0  0  0  0  0  0  0  0  0  0  0
   -3.8953   -3.8427    0.6675 H   0  0  0  0  0  0  0  0  0  0  0  0
   -3.8692   -1.6745    0.4004 C   0  0  0  0  0  0  0  0  0  0  0  0
   -3.0144   -0.5481    0.0885 C   0  0  0  0  0  0  0  0  0  0  0  0
   -3.5726    0.7641    0.0114 C   0  0  0  0  0  0  0  0  0  0  0  0
   -2.9079    1.5999   -0.2669 H   0  0  0  0  0  0  0  0  0  0  0  0
   -4.9250    0.9451    0.2567 C   0  0  0  0  0  0  0  0  0  0  0  0
   -5.3564    1.9555    0.1952 H   0  0  0  0  0  0  0  0  0  0  0  0
   -5.7656   -0.1567    0.5815 C   0  0  0  0  0  0  0  0  0  0  0  0
   -6.8353    0.0161    0.7744 H   0  0  0  0  0  0  0  0  0  0  0  0
   -5.2512   -1.4436    0.6489 C   0  0  0  0  0  0  0  0  0  0  0  0
   -5.9009   -2.2990    0.8908 H   0  0  0  0  0  0  0  0  0  0  0  0
    0.2875   -2.0138   -0.3736 C   0  0  1  0  0  3  0  0  0  0  0  0
    2.4150   -1.4978   -0.8834 C   0  0  2  0  0  0  0  0  0  0  0  0
    2.6045   -1.3622   -1.9712 H   0  0  0  0  0  0  0  0  0  0  0  0
    2.2910   -3.0090   -0.5301 C   0  0  0  0  0  0  0  0  0  0  0  0
    2.6806   -3.6887   -1.3104 H   0  0  0  0  0  0  0  0  0  0  0  0
    2.7686   -3.2492    0.4427 H   0  0  0  0  0  0  0  0  0  0  0  0
    3.5027   -0.7744   -0.1179 C   0  0  0  0  0  0  0  0  0  0  0  0
    4.7410   -0.5102   -0.7304 C   0  0  0  0  0  0  0  0  0  0  0  0
    4.8993   -0.7963   -1.7826 H   0  0  0  0  0  0  0  0  0  0  0  0
    5.7673    0.1259   -0.0153 C   0  0  0  0  0  0  0  0  0  0  0  0
    6.7302    0.3318   -0.5066 H   0  0  0  0  0  0  0  0  0  0  0  0
    5.5592    0.5114    1.3177 C   0  0  0  0  0  0  0  0  0  0  0  0
    6.3588    1.0210    1.8760 H   0  0  0  0  0  0  0  0  0  0  0  0
    4.3231    0.2566    1.9335 C   0  0  0  0  0  0  0  0  0  0  0  0
    4.1492    0.5700    2.9737 H   0  0  0  0  0  0  0  0  0  0  0  0
    3.3010   -0.3867    1.2215 C   0  0  0  0  0  0  0  0  0  0  0  0
    2.3281   -0.5708    1.7030 H   0  0  0  0  0  0  0  0  0  0  0  0
  1 19  1  0  0  0  0
  2 19  1  0  0  0  0
  3  4  2  0  0  0  0
  3 10  1  0  0  0  0
  4  5  1  0  0  0  0
  5  6  1  0  0  0  0
  5  7  2  0  0  0  0
  7  8  1  0  0  0  0
  9  7  1  0  0  0  0
  9 17  1  0  0  0  0
 10  9  2  0  0  0  0
 11 10  1  0  0  0  0
 11 13  2  0  0  0  0
 12 11  1  0  0  0  0
 13 15  1  0  0  0  0
 14 13  1  0  0  0  0
 15 17  2  0  0  0  0
 15 16  1  0  0  0  0
 17 18  1  0  0  0  0
 19  4  1  6  0  0  0
 20 21  1  6  0  0  0
 20  2  1  0  0  0  0
 20 22  1  0  0  0  0
 20 25  1  0  0  0  0
 22  1  1  0  0  0  0
 22 24  1  0  0  0  0
 23 22  1  0  0  0  0
 25 34  1  0  0  0  0
 26 25  2  0  0  0  0
 26 28  1  0  0  0  0
 27 26  1  0  0  0  0
 28 30  2  0  0  0  0
 29 28  1  0  0  0  0
 30 31  1  0  0  0  0
 30 32  1  0  0  0  0
 32 33  1  0  0  0  0
 34 35  1  0  0  0  0
 34 32  2  0  0  0  0
M  END
