1
 OpenBabel05122313063D

 54 57  0  0  1  0  0  0  0  0999 V2000
   -1.2059    0.0574    0.0137 N   0  0  0  0  0  2  0  0  0  0  0  0
    1.3419    0.5082   -0.3250 N   0  0  0  0  0  2  0  0  0  0  0  0
   -3.3038   -1.3156    0.1201 C   0  0  0  0  0  0  0  0  0  0  0  0
   -3.6232   -1.1290   -1.2462 C   0  0  0  0  0  0  0  0  0  0  0  0
   -4.7553   -1.7259   -1.8169 C   0  0  0  0  0  0  0  0  0  0  0  0
   -5.6108   -2.5243   -1.0393 C   0  0  0  0  0  0  0  0  0  0  0  0
   -5.3177   -2.7081    0.3242 C   0  0  0  0  0  0  0  0  0  0  0  0
   -4.1860   -2.1117    0.8931 C   0  0  0  0  0  0  0  0  0  0  0  0
   -2.0959   -0.7367    0.7413 C   0  0  0  0  0  3  0  0  0  0  0  0
   -0.9014    1.4238    0.3207 C   0  0  1  0  0  0  0  0  0  0  0  0
    0.4365    1.7106   -0.4007 C   0  0  1  0  0  0  0  0  0  0  0  0
    2.5046    0.7428   -0.8549 C   0  0  0  0  0  3  0  0  0  0  0  0
   -1.9537    2.4384   -0.1177 C   0  0  0  0  0  0  0  0  0  0  0  0
   -2.5025    2.3839   -1.4131 C   0  0  0  0  0  0  0  0  0  0  0  0
   -3.4447    3.3329   -1.8322 C   0  0  0  0  0  0  0  0  0  0  0  0
   -3.8539    4.3536   -0.9569 C   0  0  0  0  0  0  0  0  0  0  0  0
   -3.3142    4.4157    0.3366 C   0  0  0  0  0  0  0  0  0  0  0  0
   -2.3701    3.4625    0.7506 C   0  0  0  0  0  0  0  0  0  0  0  0
    3.6787   -0.1183   -0.9959 C   0  0  0  0  0  0  0  0  0  0  0  0
    3.8485   -1.3646   -0.3540 C   0  0  0  0  0  0  0  0  0  0  0  0
    5.0179   -2.1079   -0.5406 C   0  0  0  0  0  0  0  0  0  0  0  0
    6.0400   -1.6249   -1.3763 C   0  0  0  0  0  0  0  0  0  0  0  0
    5.8913   -0.3831   -2.0155 C   0  0  0  0  0  0  0  0  0  0  0  0
    4.7262    0.3665   -1.8188 C   0  0  0  0  0  0  0  0  0  0  0  0
    1.0709    2.9933    0.0949 C   0  0  0  0  0  0  0  0  0  0  0  0
    0.9319    4.1848   -0.6414 C   0  0  0  0  0  0  0  0  0  0  0  0
    1.4438    5.3953   -0.1485 C   0  0  0  0  0  0  0  0  0  0  0  0
    2.1054    5.4282    1.0881 C   0  0  0  0  0  0  0  0  0  0  0  0
    2.2485    4.2446    1.8316 C   0  0  0  0  0  0  0  0  0  0  0  0
    1.7317    3.0379    1.3406 C   0  0  0  0  0  0  0  0  0  0  0  0
   -2.9595   -0.4932   -1.8489 H   0  0  0  0  0  0  0  0  0  0  0  0
   -4.9782   -1.5597   -2.8830 H   0  0  0  0  0  0  0  0  0  0  0  0
   -6.4998   -2.9931   -1.4876 H   0  0  0  0  0  0  0  0  0  0  0  0
   -5.9834   -3.3224    0.9513 H   0  0  0  0  0  0  0  0  0  0  0  0
   -3.9658   -2.2642    1.9627 H   0  0  0  0  0  0  0  0  0  0  0  0
   -2.2729   -0.4471    1.8010 H   0  0  0  0  0  0  0  0  0  0  0  0
   -0.7475    1.5890    1.4194 H   0  0  0  0  0  0  0  0  0  0  0  0
    0.1795    1.8277   -1.4752 H   0  0  0  0  0  0  0  0  0  0  0  0
    2.6756    1.7559   -1.2804 H   0  0  0  0  0  0  0  0  0  0  0  0
   -2.1902    1.5725   -2.0886 H   0  0  0  0  0  0  0  0  0  0  0  0
   -3.8704    3.2728   -2.8458 H   0  0  0  0  0  0  0  0  0  0  0  0
   -4.5985    5.0961   -1.2825 H   0  0  0  0  0  0  0  0  0  0  0  0
   -3.6320    5.2094    1.0301 H   0  0  0  0  0  0  0  0  0  0  0  0
   -1.9416    3.5128    1.7645 H   0  0  0  0  0  0  0  0  0  0  0  0
    3.0489   -1.7407    0.2926 H   0  0  0  0  0  0  0  0  0  0  0  0
    5.1358   -3.0756   -0.0294 H   0  0  0  0  0  0  0  0  0  0  0  0
    6.9568   -2.2155   -1.5248 H   0  0  0  0  0  0  0  0  0  0  0  0
    6.6902    0.0038   -2.6654 H   0  0  0  0  0  0  0  0  0  0  0  0
    4.6127    1.3459   -2.3099 H   0  0  0  0  0  0  0  0  0  0  0  0
    0.3987    4.1622   -1.6045 H   0  0  0  0  0  0  0  0  0  0  0  0
    1.3223    6.3185   -0.7352 H   0  0  0  0  0  0  0  0  0  0  0  0
    2.5091    6.3761    1.4750 H   0  0  0  0  0  0  0  0  0  0  0  0
    2.7630    4.2629    2.8045 H   0  0  0  0  0  0  0  0  0  0  0  0
    1.8441    2.1145    1.9292 H   0  0  0  0  0  0  0  0  0  0  0  0
  1 10  1  0  0  0  0
  1  9  1  0  0  0  0
  3  9  1  0  0  0  0
  3  8  1  0  0  0  0
  4  3  2  0  0  0  0
  5  4  1  0  0  0  0
  5  6  2  0  0  0  0
  6  7  1  0  0  0  0
  7  8  2  0  0  0  0
  7 34  1  0  0  0  0
  8 35  1  0  0  0  0
  9 36  1  0  0  0  0
 10 37  1  1  0  0  0
 11 38  1  6  0  0  0
 11  2  1  0  0  0  0
 11 25  1  0  0  0  0
 11 10  1  0  0  0  0
 12  2  1  0  0  0  0
 13 10  1  0  0  0  0
 13 18  1  0  0  0  0
 14 13  2  0  0  0  0
 15 14  1  0  0  0  0
 15 16  2  0  0  0  0
 16 17  1  0  0  0  0
 17 18  2  0  0  0  0
 17 43  1  0  0  0  0
 18 44  1  0  0  0  0
 19 12  1  0  0  0  0
 19 20  1  0  0  0  0
 20 45  1  0  0  0  0
 21 20  2  0  0  0  0
 21 46  1  0  0  0  0
 22 21  1  0  0  0  0
 23 24  1  0  0  0  0
 23 22  2  0  0  0  0
 24 19  2  0  0  0  0
 25 30  1  0  0  0  0
 26 27  1  0  0  0  0
 26 25  2  0  0  0  0
 27 28  2  0  0  0  0
 28 52  1  0  0  0  0
 28 29  1  0  0  0  0
 29 53  1  0  0  0  0
 30 29  2  0  0  0  0
 30 54  1  0  0  0  0
 31  4  1  0  0  0  0
 32  5  1  0  0  0  0
 33  6  1  0  0  0  0
 39 12  1  0  0  0  0
 40 14  1  0  0  0  0
 41 15  1  0  0  0  0
 42 16  1  0  0  0  0
 47 22  1  0  0  0  0
 48 23  1  0  0  0  0
 49 24  1  0  0  0  0
 50 26  1  0  0  0  0
 51 27  1  0  0  0  0
M  END
