1
 OpenBabel05122313063D

 21 22  0  0  0  0  0  0  0  0999 V2000
    1.7254    1.1278   -0.6047 N   0  0  0  0  0  2  0  0  0  0  0  0
    1.1060    2.2465   -1.0940 C   0  0  0  0  0  0  0  0  0  0  0  0
    0.0031    2.2130   -1.2078 H   0  0  0  0  0  0  0  0  0  0  0  0
    1.7431    3.4266   -1.4442 C   0  0  0  0  0  0  0  0  0  0  0  0
    1.1415    4.2677   -1.8172 H   0  0  0  0  0  0  0  0  0  0  0  0
    3.1551    3.5250   -1.3092 C   0  0  0  0  0  0  0  0  0  0  0  0
    3.6412    4.4779   -1.5848 H   0  0  0  0  0  0  0  0  0  0  0  0
    3.8932    2.4401   -0.8624 C   0  0  0  0  0  0  0  0  0  0  0  0
    4.9896    2.5463   -0.8003 H   0  0  0  0  0  0  0  0  0  0  0  0
    4.0396   -0.1502   -0.1438 C   0  0  0  0  0  0  0  0  0  0  0  0
    5.1324   -0.0345    0.7518 C   0  0  0  0  0  0  0  0  0  0  0  0
    5.3541    0.9480    1.1995 H   0  0  0  0  0  0  0  0  0  0  0  0
    5.9277   -1.1377    1.0971 C   0  0  0  0  0  0  0  0  0  0  0  0
    6.7588   -1.0153    1.8092 H   0  0  0  0  0  0  0  0  0  0  0  0
    5.6694   -2.3967    0.5304 C   0  0  0  0  0  0  0  0  0  0  0  0
    6.2951   -3.2635    0.7931 H   0  0  0  0  0  0  0  0  0  0  0  0
    4.6138   -2.5358   -0.3847 C   0  0  0  0  0  0  0  0  0  0  0  0
    4.4169   -3.5134   -0.8531 H   0  0  0  0  0  0  0  0  0  0  0  0
    3.8134   -1.4284   -0.7073 C   0  0  0  0  0  0  0  0  0  0  0  0
    2.9967   -1.5587   -1.4317 H   0  0  0  0  0  0  0  0  0  0  0  0
    3.1856    1.1300   -0.5193 B   0  0  0  0  0  0  0  0  0  0  0  0
  1 21  1  0  0  0  0
  2  1  1  0  0  0  0
  3  2  1  0  0  0  0
  4  6  1  0  0  0  0
  4  2  2  0  0  0  0
  5  4  1  0  0  0  0
  6  8  2  0  0  0  0
  7  6  1  0  0  0  0
  8  9  1  0  0  0  0
  8 21  1  0  0  0  0
 10 11  1  0  0  0  0
 11 13  2  0  0  0  0
 11 12  1  0  0  0  0
 13 14  1  0  0  0  0
 15 16  1  0  0  0  0
 15 13  1  0  0  0  0
 17 15  2  0  0  0  0
 18 17  1  0  0  0  0
 19 17  1  0  0  0  0
 19 10  2  0  0  0  0
 20 19  1  0  0  0  0
 21 10  1  0  0  0  0
M  END
