2
 OpenBabel05122313063D

 11 11  0  0  0  0  0  0  0  0999 V2000
    1.7713    4.2086    1.4992 F   0  0  0  0  0  0  0  0  0  0  0  0
   -0.1286    1.5884   -0.0824 N   0  0  0  0  0  2  0  0  0  0  0  0
   -0.9513    2.3175   -0.8701 C   0  0  0  0  0  3  0  0  0  0  0  0
   -1.6844    1.7464   -1.4584 H   0  0  0  0  0  0  0  0  0  0  0  0
    0.8676    3.6231    0.7030 C   0  0  0  0  0  0  0  0  0  0  0  0
    0.0345    4.3964   -0.1125 C   0  0  0  0  0  0  0  0  0  0  0  0
    0.1180    5.4928   -0.1044 H   0  0  0  0  0  0  0  0  0  0  0  0
    0.7690    2.2270    0.6958 C   0  0  0  0  0  0  0  0  0  0  0  0
    1.4246    1.6176    1.3357 H   0  0  0  0  0  0  0  0  0  0  0  0
   -0.8917    3.7164   -0.9142 C   0  0  0  0  0  0  0  0  0  0  0  0
   -1.5770    4.2686   -1.5727 H   0  0  0  0  0  0  0  0  0  0  0  0
  2  8  1  0  0  0  0
  3  2  1  0  0  0  0
  4  3  1  0  0  0  0
  5  1  1  0  0  0  0
  6  7  1  0  0  0  0
  6  5  1  0  0  0  0
  8  5  2  0  0  0  0
  8  9  1  0  0  0  0
 10  3  1  0  0  0  0
 10  6  2  0  0  0  0
 11 10  1  0  0  0  0
M  END
