1
 OpenBabel05122313063D

 11 11  0  0  1  0  0  0  0  0999 V2000
    1.9525   -1.2919   -0.7285 N   0  0  0  0  0  0  0  0  0  0  0  0
    2.5992   -0.7898   -1.7938 C   0  0  2  0  0  0  0  0  0  0  0  0
    1.9303    0.0384   -2.5733 F   0  0  0  0  0  0  0  0  0  0  0  0
    3.9256   -1.1251   -2.0961 C   0  0  0  0  0  0  0  0  0  0  0  0
    4.5365   -0.6093   -3.1470 F   0  0  0  0  0  0  0  0  0  0  0  0
    4.5860   -2.0386   -1.2494 C   0  0  0  0  0  0  0  0  0  0  0  0
    5.8297   -2.3873   -1.4925 F   0  0  0  0  0  0  0  0  0  0  0  0
    3.8966   -2.5857   -0.1484 C   0  0  0  0  0  0  0  0  0  0  0  0
    4.4807   -3.4565    0.6543 F   0  0  0  0  0  0  0  0  0  0  0  0
    2.5718   -2.1815    0.0650 C   0  0  0  0  0  0  0  0  0  0  0  0
    1.8799   -2.6859    1.0683 F   0  0  0  0  0  0  0  0  0  0  0  0
  1 10  1  0  0  0  0
  2  3  1  6  0  0  0
  2  1  1  0  0  0  0
  4  2  1  0  0  0  0
  4  6  2  0  0  0  0
  5  4  1  0  0  0  0
  6  8  1  0  0  0  0
  7  6  1  0  0  0  0
  8 10  2  0  0  0  0
  8  9  1  0  0  0  0
 10 11  1  0  0  0  0
M  END
