1
 OpenBabel05122313063D

 27 27  0  0  0  0  0  0  0  0999 V2000
   -0.0272    2.1494    0.4742 N   0  0  0  0  0  2  0  0  0  0  0  0
   -1.1623    1.5392    0.9357 C   0  0  0  0  0  3  0  0  0  0  0  0
   -2.3723    1.4849    0.0822 C   0  0  0  0  0  0  0  0  0  0  0  0
   -2.3638    1.9854   -1.2425 C   0  0  0  0  0  0  0  0  0  0  0  0
   -3.5056    1.8984   -2.0490 C   0  0  0  0  0  0  0  0  0  0  0  0
   -4.6883    1.3200   -1.5539 C   0  0  0  0  0  0  0  0  0  0  0  0
   -4.7175    0.8438   -0.2316 C   0  0  0  0  0  0  0  0  0  0  0  0
   -3.5753    0.9283    0.5757 C   0  0  0  0  0  0  0  0  0  0  0  0
    0.8107    2.9176    1.4156 C   0  0  0  0  0  0  0  0  0  0  0  0
    0.0574    4.2237    1.7414 C   0  0  0  0  0  0  0  0  0  0  0  0
    1.1310    2.1624    2.7242 C   0  0  0  0  0  0  0  0  0  0  0  0
    2.1212    3.2527    0.6920 C   0  0  0  0  0  0  0  0  0  0  0  0
   -1.3796    1.4711    2.0264 H   0  0  0  0  0  0  0  0  0  0  0  0
   -1.4360    2.4527   -1.6047 H   0  0  0  0  0  0  0  0  0  0  0  0
   -3.4774    2.2929   -3.0771 H   0  0  0  0  0  0  0  0  0  0  0  0
   -5.5842    1.2521   -2.1894 H   0  0  0  0  0  0  0  0  0  0  0  0
   -5.6430    0.4062    0.1749 H   0  0  0  0  0  0  0  0  0  0  0  0
   -3.6053    0.5614    1.6152 H   0  0  0  0  0  0  0  0  0  0  0  0
   -0.1994    4.7558    0.8039 H   0  0  0  0  0  0  0  0  0  0  0  0
   -0.8882    4.0069    2.2783 H   0  0  0  0  0  0  0  0  0  0  0  0
    0.6721    4.8948    2.3759 H   0  0  0  0  0  0  0  0  0  0  0  0
    0.2135    1.9135    3.2945 H   0  0  0  0  0  0  0  0  0  0  0  0
    1.6513    1.2106    2.4892 H   0  0  0  0  0  0  0  0  0  0  0  0
    1.7819    2.7666    3.3893 H   0  0  0  0  0  0  0  0  0  0  0  0
    2.6344    2.3157    0.4046 H   0  0  0  0  0  0  0  0  0  0  0  0
    1.9118    3.8215   -0.2352 H   0  0  0  0  0  0  0  0  0  0  0  0
    2.8000    3.8493    1.3341 H   0  0  0  0  0  0  0  0  0  0  0  0
  1  2  1  0  0  0  0
  1  9  1  0  0  0  0
  2 13  1  0  0  0  0
  3  8  1  0  0  0  0
  3  2  1  0  0  0  0
  4  3  2  0  0  0  0
  5  6  2  0  0  0  0
  5  4  1  0  0  0  0
  6  7  1  0  0  0  0
  7 17  1  0  0  0  0
  7  8  2  0  0  0  0
  8 18  1  0  0  0  0
  9 10  1  0  0  0  0
  9 11  1  0  0  0  0
 10 20  1  0  0  0  0
 10 21  1  0  0  0  0
 11 22  1  0  0  0  0
 11 24  1  0  0  0  0
 12 27  1  0  0  0  0
 12  9  1  0  0  0  0
 14  4  1  0  0  0  0
 15  5  1  0  0  0  0
 16  6  1  0  0  0  0
 19 10  1  0  0  0  0
 23 11  1  0  0  0  0
 25 12  1  0  0  0  0
 26 12  1  0  0  0  0
M  END
