3
 OpenBabel05122313063D

 28 30  0  0  0  0  0  0  0  0999 V2000
    5.8755   -3.4187    0.1686 Cl  0  0  0  0  0  0  0  0  0  0  0  0
    5.0940    4.1268    0.3324 Cl  0  0  0  0  0  0  0  0  0  0  0  0
    1.8617   -1.4056   -0.4097 N   0  0  0  0  0  2  0  0  0  0  0  0
    1.6130    1.3393   -0.4503 N   0  0  0  0  0  2  0  0  0  0  0  0
    0.0868    3.1505   -0.9554 C   0  0  0  0  0  0  0  0  0  0  0  0
   -0.3334    2.4784   -1.7295 H   0  0  0  0  0  0  0  0  0  0  0  0
    0.1130    4.1920   -1.3266 H   0  0  0  0  0  0  0  0  0  0  0  0
   -0.6079    3.1104   -0.0906 H   0  0  0  0  0  0  0  0  0  0  0  0
    1.9707   -2.7408   -0.5175 C   0  0  0  0  0  0  0  0  0  0  0  0
    3.2250   -3.3789   -0.3570 C   0  0  0  0  0  0  0  0  0  0  0  0
    3.2997   -4.4704   -0.4461 H   0  0  0  0  0  0  0  0  0  0  0  0
    4.3494   -2.6206   -0.0659 C   0  0  0  0  0  0  0  0  0  0  0  0
    4.2565   -1.2023    0.0294 C   0  0  0  0  0  0  0  0  0  0  0  0
    5.3800   -0.3541    0.3020 C   0  0  0  0  0  0  0  0  0  0  0  0
    6.3554   -0.8285    0.4756 H   0  0  0  0  0  0  0  0  0  0  0  0
    5.2476    1.0123    0.3346 C   0  0  0  0  0  0  0  0  0  0  0  0
    6.1141    1.6572    0.5361 H   0  0  0  0  0  0  0  0  0  0  0  0
    3.9799    1.6276    0.0803 C   0  0  0  0  0  0  0  0  0  0  0  0
    3.7718    3.0371    0.0222 C   0  0  0  0  0  0  0  0  0  0  0  0
    2.5245    3.5548   -0.3047 C   0  0  0  0  0  0  0  0  0  0  0  0
    2.3796    4.6414   -0.3776 H   0  0  0  0  0  0  0  0  0  0  0  0
    1.4493    2.6582   -0.5538 C   0  0  0  0  0  0  0  0  0  0  0  0
    2.8216    0.8195   -0.1677 C   0  0  0  0  0  0  0  0  0  0  0  0
    2.9585   -0.6347   -0.1759 C   0  0  0  0  0  0  0  0  0  0  0  0
    0.7329   -3.5370   -0.7951 C   0  0  0  0  0  0  0  0  0  0  0  0
    0.0380   -3.4504    0.0663 H   0  0  0  0  0  0  0  0  0  0  0  0
    0.9668   -4.6032   -0.9721 H   0  0  0  0  0  0  0  0  0  0  0  0
    0.2058   -3.1061   -1.6717 H   0  0  0  0  0  0  0  0  0  0  0  0
  3 24  1  0  0  0  0
  4 23  1  0  0  0  0
  5 22  1  0  0  0  0
  5  8  1  0  0  0  0
  6  5  1  0  0  0  0
  7  5  1  0  0  0  0
  9  3  1  0  0  0  0
  9 10  2  0  0  0  0
 10 12  1  0  0  0  0
 11 10  1  0  0  0  0
 12 13  2  0  0  0  0
 12  1  1  0  0  0  0
 13 14  1  0  0  0  0
 14 16  2  0  0  0  0
 14 15  1  0  0  0  0
 16 17  1  0  0  0  0
 18 16  1  0  0  0  0
 19 18  2  0  0  0  0
 19  2  1  0  0  0  0
 20 19  1  0  0  0  0
 21 20  1  0  0  0  0
 22  4  1  0  0  0  0
 22 20  2  0  0  0  0
 23 18  1  0  0  0  0
 24 23  2  0  0  0  0
 24 13  1  0  0  0  0
 25  9  1  0  0  0  0
 25 26  1  0  0  0  0
 27 25  1  0  0  0  0
 28 25  1  0  0  0  0
M  END
