3
 OpenBabel05122313063D

 15 16  0  0  0  0  0  0  0  0999 V2000
    6.8375    0.5194    0.2123 Br  0  0  0  0  0  0  0  0  0  0  0  0
    2.7336   -0.0291   -0.0789 C   0  0  0  0  0  0  0  0  0  0  0  0
    0.5574   -0.4627   -0.3358 N   0  0  0  0  0  2  0  0  0  0  0  0
    1.4673    0.3960    0.1977 N   0  0  0  0  0  0  0  0  0  0  0  0
    1.0840    1.3481    0.4913 H   0  0  0  0  0  0  0  0  0  0  0  0
    3.9849    0.5375    0.2445 C   0  0  0  0  0  0  0  0  0  0  0  0
    4.0729    1.4804    0.7998 H   0  0  0  0  0  0  0  0  0  0  0  0
    5.1076   -0.1715   -0.1818 C   0  0  0  0  0  0  0  0  0  0  0  0
    5.0211   -1.3973   -0.9015 C   0  0  0  0  0  0  0  0  0  0  0  0
    5.9477   -1.9035   -1.2046 H   0  0  0  0  0  0  0  0  0  0  0  0
    3.7797   -1.9425   -1.2165 C   0  0  0  0  0  3  0  0  0  0  0  0
    3.7117   -2.8873   -1.7752 H   0  0  0  0  0  0  0  0  0  0  0  0
    2.6114   -1.2563   -0.8081 C   0  0  0  0  0  0  0  0  0  0  0  0
    1.2092   -1.4647   -0.9395 C   0  0  0  0  0  0  0  0  0  0  0  0
    0.6384   -2.2728   -1.4077 H   0  0  0  0  0  0  0  0  0  0  0  0
  2  4  1  0  0  0  0
  2  6  2  0  0  0  0
  3  4  1  0  0  0  0
  4  5  1  0  0  0  0
  6  7  1  0  0  0  0
  8  1  1  0  0  0  0
  8  6  1  0  0  0  0
  9  8  2  0  0  0  0
 10  9  1  0  0  0  0
 11  9  1  0  0  0  0
 11 13  1  0  0  0  0
 12 11  1  0  0  0  0
 13  2  1  0  0  0  0
 14 13  2  0  0  0  0
 14  3  1  0  0  0  0
 15 14  1  0  0  0  0
M  END
