4
 OpenBabel05122313063D

 23 24  0  0  0  0  0  0  0  0999 V2000
    3.4064   -1.3197    0.7209 O   0  0  0  0  0  0  0  0  0  0  0  0
    3.2834    0.6235   -1.1808 N   0  0  0  0  0  0  0  0  0  0  0  0
    2.6048    0.4958   -2.3552 N   0  0  0  0  0  0  0  0  0  0  0  0
    1.4214    1.7018   -0.8683 N   0  0  0  0  0  2  0  0  0  0  0  0
    5.4849   -3.1640    1.1421 C   0  0  0  0  0  0  0  0  0  0  0  0
    4.5609   -3.2295    1.7353 H   0  0  0  0  0  0  0  0  0  0  0  0
    6.5413   -4.0610    1.3249 C   0  0  0  0  0  0  0  0  0  0  0  0
    6.4608   -4.8600    2.0771 H   0  0  0  0  0  0  0  0  0  0  0  0
    7.7071   -3.9406    0.5477 C   0  0  0  0  0  0  0  0  0  0  0  0
    8.5396   -4.6460    0.6913 H   0  0  0  0  0  0  0  0  0  0  0  0
    7.8118   -2.9215   -0.4127 C   0  0  0  0  0  0  0  0  0  0  0  0
    8.7238   -2.8279   -1.0209 H   0  0  0  0  0  0  0  0  0  0  0  0
    6.7530   -2.0226   -0.6000 C   0  0  0  0  0  0  0  0  0  0  0  0
    6.8530   -1.2336   -1.3595 H   0  0  0  0  0  0  0  0  0  0  0  0
    5.5791   -2.1362    0.1774 C   0  0  0  0  0  0  0  0  0  0  0  0
    4.4152   -1.2108    0.0394 C   0  0  0  0  0  0  0  0  0  0  0  0
    4.5377   -0.0616   -0.9848 C   0  0  0  0  0  0  0  0  0  0  0  0
    5.3166    0.6491   -0.6346 H   0  0  0  0  0  0  0  0  0  0  0  0
    4.8491   -0.4379   -1.9771 H   0  0  0  0  0  0  0  0  0  0  0  0
    1.4853    1.1718   -2.1263 C   0  0  0  0  0  0  0  0  0  0  0  0
    0.6899    1.3223   -2.8665 H   0  0  0  0  0  0  0  0  0  0  0  0
    2.5627    1.3374   -0.2864 C   0  0  0  0  0  3  0  0  0  0  0  0
    2.8587    1.6108    0.7344 H   0  0  0  0  0  0  0  0  0  0  0  0
  2 17  1  0  0  0  0
  2 22  1  0  0  0  0
  3 20  2  0  0  0  0
  3  2  1  0  0  0  0
  4 22  1  0  0  0  0
  5  7  1  0  0  0  0
  5  6  1  0  0  0  0
  7  8  1  0  0  0  0
  9 10  1  0  0  0  0
  9  7  2  0  0  0  0
 11  9  1  0  0  0  0
 12 11  1  0  0  0  0
 13 11  2  0  0  0  0
 13 15  1  0  0  0  0
 14 13  1  0  0  0  0
 15  5  2  0  0  0  0
 16 15  1  0  0  0  0
 16  1  2  0  0  0  0
 17 18  1  0  0  0  0
 17 16  1  0  0  0  0
 19 17  1  0  0  0  0
 20  4  1  0  0  0  0
 21 20  1  0  0  0  0
 22 23  1  0  0  0  0
M  END
