5
 OpenBabel05122313063D

 60 62  0  0  1  0  0  0  0  0999 V2000
    0.2203   -1.4675    1.1844 P   0  0  0  0  0  4  0  0  0  0  0  0
   -1.3183   -1.3909    0.8803 O   0  0  0  0  0  0  0  0  0  0  0  0
    0.3783   -1.0813    2.7564 O   0  0  0  0  0  0  0  0  0  0  0  0
    0.7096   -2.9996    1.3040 O   0  0  0  0  0  0  0  0  0  0  0  0
    1.0929   -0.5834    0.1447 N   0  0  0  0  0  2  0  0  0  0  0  0
    2.3604   -0.9357   -0.3918 C   0  0  0  0  0  0  0  0  0  0  0  0
    3.4867   -1.2403    0.4228 C   0  0  0  0  0  0  0  0  0  0  0  0
    4.7037   -1.5774   -0.2036 C   0  0  0  0  0  0  0  0  0  0  0  0
    5.5719   -1.8188    0.4299 H   0  0  0  0  0  0  0  0  0  0  0  0
    4.8312   -1.5923   -1.5969 C   0  0  0  0  0  0  0  0  0  0  0  0
    5.7932   -1.8520   -2.0637 H   0  0  0  0  0  0  0  0  0  0  0  0
    3.7265   -1.2568   -2.3915 C   0  0  0  0  0  0  0  0  0  0  0  0
    3.8172   -1.2525   -3.4892 H   0  0  0  0  0  0  0  0  0  0  0  0
    2.4879   -0.9281   -1.8140 C   0  0  0  0  0  0  0  0  0  0  0  0
    1.3158   -0.5669   -2.6831 C   0  0  0  0  0  0  0  0  0  0  0  0
    0.4821   -1.2916   -2.5752 H   0  0  0  0  0  0  0  0  0  0  0  0
    1.6031   -0.5211   -3.7506 H   0  0  0  0  0  0  0  0  0  0  0  0
    0.8768    0.4140   -2.3839 H   0  0  0  0  0  0  0  0  0  0  0  0
    3.4104   -1.2080    1.9264 C   0  0  0  0  0  0  0  0  0  0  0  0
    2.8808   -0.3051    2.2895 H   0  0  0  0  0  0  0  0  0  0  0  0
    4.4243   -1.2226    2.3699 H   0  0  0  0  0  0  0  0  0  0  0  0
    2.8507   -2.0756    2.3321 H   0  0  0  0  0  0  0  0  0  0  0  0
   -0.1659    0.1786    3.2156 C   0  0  0  0  0  0  0  0  0  0  0  0
   -0.3066    0.8653    2.3431 H   0  0  0  0  0  0  0  0  0  0  0  0
    0.6149    0.6298    3.8629 H   0  0  0  0  0  0  0  0  0  0  0  0
   -1.4649   -0.0381    3.9675 C   0  0  0  0  0  0  0  0  0  0  0  0
   -2.2309   -0.4758    3.2986 H   0  0  0  0  0  0  0  0  0  0  0  0
   -1.8471    0.9298    4.3515 H   0  0  0  0  0  0  0  0  0  0  0  0
   -1.3146   -0.7199    4.8280 H   0  0  0  0  0  0  0  0  0  0  0  0
    0.2350   -4.0369    0.4103 C   0  0  0  0  0  0  0  0  0  0  0  0
   -0.8487   -3.8808    0.2234 H   0  0  0  0  0  0  0  0  0  0  0  0
    0.3497   -4.9716    0.9939 H   0  0  0  0  0  0  0  0  0  0  0  0
    1.0202   -4.0964   -0.8857 C   0  0  0  0  0  0  0  0  0  0  0  0
    0.8507   -3.1951   -1.5049 H   0  0  0  0  0  0  0  0  0  0  0  0
    0.6991   -4.9803   -1.4732 H   0  0  0  0  0  0  0  0  0  0  0  0
    2.1076   -4.1770   -0.6908 H   0  0  0  0  0  0  0  0  0  0  0  0
   -3.4294    0.0307    0.3914 C   0  0  1  0  0  0  0  0  0  0  0  0
   -3.2833    0.6136    1.3295 H   0  0  0  0  0  0  0  0  0  0  0  0
   -4.0382    0.9850   -0.6623 C   0  0  0  0  0  0  0  0  0  0  0  0
   -5.0487    1.3270   -0.3415 H   0  0  0  0  0  0  0  0  0  0  0  0
   -3.4124    1.9044   -0.6898 H   0  0  0  0  0  0  0  0  0  0  0  0
   -4.1336    0.4269   -2.0986 C   0  0  0  0  0  0  0  0  0  0  0  0
   -4.3277    1.2681   -2.7992 H   0  0  0  0  0  0  0  0  0  0  0  0
   -5.0255   -0.2248   -2.1847 H   0  0  0  0  0  0  0  0  0  0  0  0
   -2.8893   -0.3498   -2.5746 C   0  0  0  0  0  0  0  0  0  0  0  0
   -3.1308   -0.8659   -3.5316 H   0  0  0  0  0  0  0  0  0  0  0  0
   -2.0832    0.3793   -2.8192 H   0  0  0  0  0  0  0  0  0  0  0  0
   -2.3176   -1.3427   -1.5416 C   0  0  2  0  0  0  0  0  0  0  0  0
   -1.3815   -1.7707   -1.9654 H   0  0  0  0  0  0  0  0  0  0  0  0
   -3.2471   -2.5360   -1.2011 C   0  0  0  0  0  0  0  0  0  0  0  0
   -3.5237   -3.0896   -2.1276 H   0  0  0  0  0  0  0  0  0  0  0  0
   -2.6583   -3.2552   -0.5888 H   0  0  0  0  0  0  0  0  0  0  0  0
   -4.5295   -2.1811   -0.4208 C   0  0  0  0  0  0  0  0  0  0  0  0
   -4.9793   -3.1166   -0.0225 H   0  0  0  0  0  0  0  0  0  0  0  0
   -5.2888   -1.7745   -1.1180 H   0  0  0  0  0  0  0  0  0  0  0  0
   -4.3158   -1.1902    0.7405 C   0  0  0  0  0  0  0  0  0  0  0  0
   -5.3082   -0.8566    1.1209 H   0  0  0  0  0  0  0  0  0  0  0  0
   -3.8302   -1.7292    1.5839 H   0  0  0  0  0  0  0  0  0  0  0  0
   -2.0378   -0.5519   -0.1691 B   0  0  2  0  0  0  0  0  0  0  0  0
   -1.3162    0.5201   -0.5123 H   0  0  0  0  0  0  0  0  0  0  0  0
  1  4  1  0  0  0  0
  1  3  1  0  0  0  0
  2  1  1  0  0  0  0
  3 23  1  0  0  0  0
  5  1  1  0  0  0  0
  6  5  1  0  0  0  0
  6  7  1  0  0  0  0
  7 19  1  0  0  0  0
  8  7  2  0  0  0  0
  8  9  1  0  0  0  0
 10  8  1  0  0  0  0
 11 10  1  0  0  0  0
 12 14  1  0  0  0  0
 12 10  2  0  0  0  0
 13 12  1  0  0  0  0
 14  6  2  0  0  0  0
 15 16  1  0  0  0  0
 15 18  1  0  0  0  0
 15 14  1  0  0  0  0
 17 15  1  0  0  0  0
 19 20  1  0  0  0  0
 19 22  1  0  0  0  0
 19 21  1  0  0  0  0
 23 25  1  0  0  0  0
 23 26  1  0  0  0  0
 24 23  1  0  0  0  0
 26 28  1  0  0  0  0
 26 29  1  0  0  0  0
 27 26  1  0  0  0  0
 30 32  1  0  0  0  0
 30  4  1  0  0  0  0
 31 30  1  0  0  0  0
 33 36  1  0  0  0  0
 33 30  1  0  0  0  0
 34 33  1  0  0  0  0
 35 33  1  0  0  0  0
 37 56  1  0  0  0  0
 37 38  1  1  0  0  0
 39 40  1  0  0  0  0
 39 37  1  0  0  0  0
 41 39  1  0  0  0  0
 42 39  1  0  0  0  0
 43 42  1  0  0  0  0
 44 42  1  0  0  0  0
 45 42  1  0  0  0  0
 45 48  1  0  0  0  0
 46 45  1  0  0  0  0
 47 45  1  0  0  0  0
 48 49  1  6  0  0  0
 48 50  1  0  0  0  0
 48 59  1  0  0  0  0
 50 52  1  0  0  0  0
 50 53  1  0  0  0  0
 51 50  1  0  0  0  0
 53 54  1  0  0  0  0
 53 56  1  0  0  0  0
 55 53  1  0  0  0  0
 56 57  1  0  0  0  0
 56 58  1  0  0  0  0
 59 60  1  6  0  0  0
 59 37  1  0  0  0  0
 59  2  1  0  0  0  0
M  END
