2
 OpenBabel05122313063D

 54 54  0  0  1  0  0  0  0  0999 V2000
    1.2688   -0.2219    0.0515 P   0  0  0  0  0  0  0  0  0  0  0  0
   -1.8350    0.9599   -0.1543 N   0  0  0  0  0  2  0  0  0  0  0  0
   -1.1962    2.0831   -0.2723 C   0  0  0  0  0  0  0  0  0  0  0  0
   -1.7911    3.0118   -0.2148 H   0  0  0  0  0  0  0  0  0  0  0  0
   -3.8222    2.4730    0.4383 C   0  0  0  0  0  0  0  0  0  0  0  0
   -3.3112    2.9074    1.3209 H   0  0  0  0  0  0  0  0  0  0  0  0
   -4.8999    2.4088    0.6815 H   0  0  0  0  0  0  0  0  0  0  0  0
   -3.7335    3.1744   -0.4149 H   0  0  0  0  0  0  0  0  0  0  0  0
    0.2208    2.3656   -0.4431 C   0  0  0  0  0  0  0  0  0  0  0  0
    1.6956   -0.2916    1.9265 C   0  0  0  0  0  0  0  0  0  0  0  0
    0.6093    3.8044   -0.7483 C   0  0  0  0  0  0  0  0  0  0  0  0
   -0.0241    4.5426   -0.2153 H   0  0  0  0  0  0  0  0  0  0  0  0
    0.4628    3.9950   -1.8367 H   0  0  0  0  0  0  0  0  0  0  0  0
    1.3321    1.5715   -0.3231 C   0  0  1  0  0  3  0  0  0  0  0  0
    4.0558   -0.5385   -0.7014 C   0  0  0  0  0  0  0  0  0  0  0  0
    4.7557   -0.9479   -1.4593 H   0  0  0  0  0  0  0  0  0  0  0  0
    4.3638   -0.9545    0.2772 H   0  0  0  0  0  0  0  0  0  0  0  0
    4.2044    0.5529   -0.6824 H   0  0  0  0  0  0  0  0  0  0  0  0
    2.5992   -2.5126   -1.0709 C   0  0  0  0  0  0  0  0  0  0  0  0
    3.4675   -2.8743   -1.6590 H   0  0  0  0  0  0  0  0  0  0  0  0
    1.6953   -2.9145   -1.5551 H   0  0  0  0  0  0  0  0  0  0  0  0
    2.6887   -2.9449   -0.0581 H   0  0  0  0  0  0  0  0  0  0  0  0
   -3.3239    1.0529    0.1110 C   0  0  0  0  0  0  0  0  0  0  0  0
   -4.0443    0.5789   -1.1636 C   0  0  0  0  0  0  0  0  0  0  0  0
   -3.6578   -0.3908   -1.5189 H   0  0  0  0  0  0  0  0  0  0  0  0
   -3.9050    1.3174   -1.9779 H   0  0  0  0  0  0  0  0  0  0  0  0
   -5.1304    0.4758   -0.9731 H   0  0  0  0  0  0  0  0  0  0  0  0
    2.0911    3.8644   -0.3538 C   0  0  0  0  0  0  0  0  0  0  0  0
    2.6781    4.5975   -0.9385 H   0  0  0  0  0  0  0  0  0  0  0  0
    2.1774    4.1472    0.7162 H   0  0  0  0  0  0  0  0  0  0  0  0
   -3.6205    0.1737    1.3399 C   0  0  0  0  0  0  0  0  0  0  0  0
   -3.1406    0.6005    2.2431 H   0  0  0  0  0  0  0  0  0  0  0  0
   -3.2490   -0.8576    1.2140 H   0  0  0  0  0  0  0  0  0  0  0  0
   -4.7123    0.1318    1.5192 H   0  0  0  0  0  0  0  0  0  0  0  0
    2.5831    2.4175   -0.5382 C   0  0  0  0  0  0  0  0  0  0  0  0
    2.9613    2.2528   -1.5730 H   0  0  0  0  0  0  0  0  0  0  0  0
    3.4164    2.1589    0.1389 H   0  0  0  0  0  0  0  0  0  0  0  0
    2.6299   -0.9738   -1.0849 C   0  0  0  0  0  0  0  0  0  0  0  0
    2.2626   -0.5036   -2.5070 C   0  0  0  0  0  0  0  0  0  0  0  0
    2.9339   -1.0014   -3.2369 H   0  0  0  0  0  0  0  0  0  0  0  0
    2.3724    0.5882   -2.6458 H   0  0  0  0  0  0  0  0  0  0  0  0
    1.2197   -0.7812   -2.7662 H   0  0  0  0  0  0  0  0  0  0  0  0
    2.0778   -1.7284    2.3124 C   0  0  0  0  0  0  0  0  0  0  0  0
    2.1697   -1.7887    3.4167 H   0  0  0  0  0  0  0  0  0  0  0  0
    3.0514   -2.0367    1.8856 H   0  0  0  0  0  0  0  0  0  0  0  0
    1.3061   -2.4613    2.0062 H   0  0  0  0  0  0  0  0  0  0  0  0
    2.8114    0.6831    2.3348 C   0  0  0  0  0  0  0  0  0  0  0  0
    3.0012    0.5623    3.4217 H   0  0  0  0  0  0  0  0  0  0  0  0
    2.5171    1.7378    2.1724 H   0  0  0  0  0  0  0  0  0  0  0  0
    3.7673    0.4927    1.8135 H   0  0  0  0  0  0  0  0  0  0  0  0
    0.3957    0.1118    2.6495 C   0  0  0  0  0  0  0  0  0  0  0  0
    0.5790    0.1204    3.7441 H   0  0  0  0  0  0  0  0  0  0  0  0
   -0.4284   -0.6007    2.4409 H   0  0  0  0  0  0  0  0  0  0  0  0
    0.0581    1.1265    2.3575 H   0  0  0  0  0  0  0  0  0  0  0  0
  1 10  1  0  0  0  0
  2 23  1  0  0  0  0
  3  4  1  0  0  0  0
  3  2  1  0  0  0  0
  5  7  1  0  0  0  0
  5  6  1  0  0  0  0
  8  5  1  0  0  0  0
  9 14  1  0  0  0  0
  9  3  2  0  0  0  0
 10 43  1  0  0  0  0
 10 47  1  0  0  0  0
 10 51  1  0  0  0  0
 11  9  1  0  0  0  0
 11 28  1  0  0  0  0
 11 12  1  0  0  0  0
 13 11  1  0  0  0  0
 14  1  1  1  0  0  0
 15 18  1  0  0  0  0
 15 17  1  0  0  0  0
 16 15  1  0  0  0  0
 19 22  1  0  0  0  0
 20 19  1  0  0  0  0
 21 19  1  0  0  0  0
 23  5  1  0  0  0  0
 23 31  1  0  0  0  0
 24 27  1  0  0  0  0
 24 23  1  0  0  0  0
 25 24  1  0  0  0  0
 26 24  1  0  0  0  0
 28 30  1  0  0  0  0
 29 28  1  0  0  0  0
 31 34  1  0  0  0  0
 31 32  1  0  0  0  0
 33 31  1  0  0  0  0
 35 28  1  0  0  0  0
 35 14  1  0  0  0  0
 35 37  1  0  0  0  0
 36 35  1  0  0  0  0
 38 19  1  0  0  0  0
 38 15  1  0  0  0  0
 38  1  1  0  0  0  0
 39 38  1  0  0  0  0
 40 39  1  0  0  0  0
 41 39  1  0  0  0  0
 42 39  1  0  0  0  0
 43 44  1  0  0  0  0
 45 43  1  0  0  0  0
 46 43  1  0  0  0  0
 47 48  1  0  0  0  0
 49 47  1  0  0  0  0
 50 47  1  0  0  0  0
 51 52  1  0  0  0  0
 53 51  1  0  0  0  0
 54 51  1  0  0  0  0
M  END
