1
 OpenBabel05122313063D

 30 31  0  0  1  0  0  0  0  0999 V2000
    1.7111    0.1804   -1.2373 N   0  0  0  0  0  0  0  0  0  0  0  0
    1.7294   -0.7639   -1.6606 H   0  0  0  0  0  0  0  0  0  0  0  0
    1.5285    0.8602   -1.9910 H   0  0  0  0  0  0  0  0  0  0  0  0
    4.7318   -1.0507    0.5325 C   0  0  2  0  0  0  0  0  0  0  0  0
    4.9273   -1.6940    1.4164 H   0  0  0  0  0  0  0  0  0  0  0  0
    3.2863   -0.5241    0.5726 C   0  0  2  0  0  0  0  0  0  0  0  0
    2.6352   -1.4069    0.3826 H   0  0  0  0  0  0  0  0  0  0  0  0
    3.0185    0.4867   -0.5900 C   0  0  1  0  0  0  0  0  0  0  0  0
    2.8701    1.4912   -0.1470 H   0  0  0  0  0  0  0  0  0  0  0  0
    4.1478    0.5746   -1.6663 C   0  0  0  0  0  0  0  0  0  0  0  0
    3.7684    0.1707   -2.6308 H   0  0  0  0  0  0  0  0  0  0  0  0
    4.3909    1.6411   -1.8551 H   0  0  0  0  0  0  0  0  0  0  0  0
    5.4085   -0.2091   -1.2899 C   0  0  1  0  0  0  0  0  0  0  0  0
    6.1981   -0.0834   -2.0612 H   0  0  0  0  0  0  0  0  0  0  0  0
    5.8174    0.0429    0.2030 C   0  0  0  0  0  0  0  0  0  0  0  0
    2.8727    0.0360    1.9382 C   0  0  0  0  0  0  0  0  0  0  0  0
    2.9470   -0.7495    2.7171 H   0  0  0  0  0  0  0  0  0  0  0  0
    1.8209    0.3916    1.9083 H   0  0  0  0  0  0  0  0  0  0  0  0
    3.5064    0.8885    2.2509 H   0  0  0  0  0  0  0  0  0  0  0  0
    4.9918   -1.6434   -0.8780 C   0  0  0  0  0  0  0  0  0  0  0  0
    5.8254   -2.3683   -0.9092 H   0  0  0  0  0  0  0  0  0  0  0  0
    4.1199   -2.0905   -1.4010 H   0  0  0  0  0  0  0  0  0  0  0  0
    5.7061    1.4629    0.7610 C   0  0  0  0  0  0  0  0  0  0  0  0
    6.4698    2.1154    0.2872 H   0  0  0  0  0  0  0  0  0  0  0  0
    5.9015    1.4732    1.8532 H   0  0  0  0  0  0  0  0  0  0  0  0
    4.7216    1.9375    0.5984 H   0  0  0  0  0  0  0  0  0  0  0  0
    7.2320   -0.4748    0.5019 C   0  0  0  0  0  0  0  0  0  0  0  0
    7.9946    0.1918    0.0476 H   0  0  0  0  0  0  0  0  0  0  0  0
    7.4103   -1.4976    0.1181 H   0  0  0  0  0  0  0  0  0  0  0  0
    7.4127   -0.4930    1.5968 H   0  0  0  0  0  0  0  0  0  0  0  0
  1  8  1  0  0  0  0
  2  1  1  0  0  0  0
  3  1  1  0  0  0  0
  4  6  1  0  0  0  0
  4  5  1  1  0  0  0
  6  7  1  6  0  0  0
  6 16  1  0  0  0  0
  8  9  1  1  0  0  0
  8  6  1  0  0  0  0
 10 13  1  0  0  0  0
 10  8  1  0  0  0  0
 11 10  1  0  0  0  0
 12 10  1  0  0  0  0
 13 14  1  6  0  0  0
 13 20  1  0  0  0  0
 13 15  1  0  0  0  0
 15 27  1  0  0  0  0
 15  4  1  0  0  0  0
 15 23  1  0  0  0  0
 16 19  1  0  0  0  0
 16 17  1  0  0  0  0
 18 16  1  0  0  0  0
 20  4  1  0  0  0  0
 21 20  1  0  0  0  0
 22 20  1  0  0  0  0
 23 25  1  0  0  0  0
 24 23  1  0  0  0  0
 26 23  1  0  0  0  0
 27 30  1  0  0  0  0
 28 27  1  0  0  0  0
 29 27  1  0  0  0  0
M  END
