2
 OpenBabel05122313063D

 30 33  0  0  1  0  0  0  0  0999 V2000
    3.7291    0.7208   -1.5238 S   0  0  0  0  0  0  0  0  0  0  0  0
    1.3527   -0.7920   -0.9119 N   0  0  0  0  0  2  0  0  0  0  0  0
    3.2004   -1.0516    0.2576 N   0  0  0  0  0  0  0  0  0  0  0  0
    4.4967   -0.7737    0.5443 N   0  0  0  0  0  0  0  0  0  0  0  0
    1.1144   -1.7221    0.0614 N   0  0  0  0  0  0  0  0  0  0  0  0
    2.2236   -1.8949    0.7797 C   0  0  0  0  0  0  0  0  0  0  0  0
    4.9274    0.1352   -0.3024 C   0  0  0  0  0  0  0  0  0  0  0  0
    2.3661   -2.8107    1.9099 C   0  0  0  0  0  0  0  0  0  0  0  0
    1.2510   -3.6015    2.2746 C   0  0  0  0  0  0  0  0  0  0  0  0
    0.3223   -3.5015    1.6949 H   0  0  0  0  0  0  0  0  0  0  0  0
    2.6104   -0.3820   -0.7917 C   0  0  2  0  0  3  0  0  0  0  0  0
    6.2944    0.6635   -0.2718 C   0  0  0  0  0  0  0  0  0  0  0  0
    1.3432   -4.4890    3.3507 C   0  0  0  0  0  0  0  0  0  0  0  0
    0.4714   -5.1011    3.6271 H   0  0  0  0  0  0  0  0  0  0  0  0
    2.5422   -4.6023    4.0764 C   0  0  0  0  0  0  0  0  0  0  0  0
    2.6115   -5.3025    4.9225 H   0  0  0  0  0  0  0  0  0  0  0  0
    6.7143    1.6427   -1.1994 C   0  0  0  0  0  0  0  0  0  0  0  0
    6.0130    2.0213   -1.9596 H   0  0  0  0  0  0  0  0  0  0  0  0
    8.0229    2.1390   -1.1611 C   0  0  0  0  0  0  0  0  0  0  0  0
    8.3374    2.9012   -1.8892 H   0  0  0  0  0  0  0  0  0  0  0  0
    3.6504   -3.8200    3.7169 C   0  0  0  0  0  0  0  0  0  0  0  0
    4.5914   -3.9051    4.2811 H   0  0  0  0  0  0  0  0  0  0  0  0
    8.9278    1.6651   -0.1980 C   0  0  0  0  0  0  0  0  0  0  0  0
    9.9561    2.0555   -0.1690 H   0  0  0  0  0  0  0  0  0  0  0  0
    3.5701   -2.9263    2.6400 C   0  0  0  0  0  0  0  0  0  0  0  0
    4.4371   -2.3138    2.3575 H   0  0  0  0  0  0  0  0  0  0  0  0
    8.5175    0.6906    0.7284 C   0  0  0  0  0  0  0  0  0  0  0  0
    9.2244    0.3167    1.4842 H   0  0  0  0  0  0  0  0  0  0  0  0
    7.2119    0.1909    0.6954 C   0  0  0  0  0  0  0  0  0  0  0  0
    6.8812   -0.5714    1.4146 H   0  0  0  0  0  0  0  0  0  0  0  0
  1  7  1  0  0  0  0
  2 11  1  0  0  0  0
  2  5  1  0  0  0  0
  3  4  1  0  0  0  0
  3  6  1  0  0  0  0
  5  6  2  0  0  0  0
  6  8  1  0  0  0  0
  7 12  1  0  0  0  0
  7  4  2  0  0  0  0
  8  9  2  0  0  0  0
  8 25  1  0  0  0  0
  9 13  1  0  0  0  0
 10  9  1  0  0  0  0
 11  1  1  1  0  0  0
 11  3  1  0  0  0  0
 12 29  1  0  0  0  0
 13 14  1  0  0  0  0
 13 15  2  0  0  0  0
 15 16  1  0  0  0  0
 17 19  1  0  0  0  0
 17 12  2  0  0  0  0
 18 17  1  0  0  0  0
 19 23  2  0  0  0  0
 20 19  1  0  0  0  0
 21 15  1  0  0  0  0
 21 22  1  0  0  0  0
 23 24  1  0  0  0  0
 23 27  1  0  0  0  0
 25 21  2  0  0  0  0
 26 25  1  0  0  0  0
 27 28  1  0  0  0  0
 29 27  2  0  0  0  0
 29 30  1  0  0  0  0
M  END
