1
 OpenBabel05122313063D

 32 35  0  0  1  0  0  0  0  0999 V2000
    1.3809   -1.6479   -0.7210 N   0  0  0  0  0  2  0  0  0  0  0  0
    2.7352   -1.6370   -0.4187 C   0  0  0  0  0  0  0  0  0  0  0  0
    3.5184   -2.5687    0.2868 C   0  0  0  0  0  0  0  0  0  0  0  0
    3.0449   -3.4665    0.7144 H   0  0  0  0  0  0  0  0  0  0  0  0
    4.8766   -2.2713    0.4428 C   0  0  0  0  0  0  0  0  0  0  0  0
    5.5201   -2.9748    0.9921 H   0  0  0  0  0  0  0  0  0  0  0  0
    5.4481   -1.0907   -0.0922 C   0  0  0  0  0  0  0  0  0  0  0  0
    6.5236   -0.9025    0.0442 H   0  0  0  0  0  0  0  0  0  0  0  0
    4.6771   -0.1535   -0.7931 C   0  0  0  0  0  0  0  0  0  0  0  0
    5.1297    0.7605   -1.2035 H   0  0  0  0  0  0  0  0  0  0  0  0
    3.3110   -0.4444   -0.9358 C   0  0  0  0  0  0  0  0  0  0  0  0
    2.2688    0.2425   -1.5485 N   0  0  0  0  0  0  0  0  0  0  0  0
    2.4142    1.5096   -2.2628 C   0  0  0  0  0  0  0  0  0  0  0  0
    1.5714    1.5942   -2.9752 H   0  0  0  0  0  0  0  0  0  0  0  0
    3.3456    1.4373   -2.8633 H   0  0  0  0  0  0  0  0  0  0  0  0
    2.4263    2.7396   -1.3931 C   0  0  0  0  0  0  0  0  0  0  0  0
    1.1208   -0.5190   -1.3960 C   0  0  1  0  0  3  0  0  0  0  0  0
   -0.1907   -0.1662   -1.9211 C   0  0  0  0  0  0  0  0  0  0  0  0
    3.6975    3.0428   -0.2319 S   0  0  0  0  0  0  0  0  0  0  0  0
    1.5084    3.7770   -1.3857 C   0  0  0  0  0  0  0  0  0  0  0  0
    0.6228    3.7879   -2.0349 H   0  0  0  0  0  0  0  0  0  0  0  0
    1.8235    4.8039   -0.4448 C   0  0  0  0  0  0  0  0  0  0  0  0
    1.2188    5.7081   -0.2944 H   0  0  0  0  0  0  0  0  0  0  0  0
   -0.9566    1.3852   -1.6038 S   0  0  0  0  0  0  0  0  0  0  0  0
   -1.0650   -1.0238   -2.5793 C   0  0  0  0  0  0  0  0  0  0  0  0
   -0.8169   -2.0765   -2.7936 H   0  0  0  0  0  0  0  0  0  0  0  0
   -2.4135    0.8754   -2.3833 C   0  0  0  0  0  0  0  0  0  0  0  0
   -3.2614    1.5684   -2.4326 H   0  0  0  0  0  0  0  0  0  0  0  0
   -2.3275   -0.4230   -2.8467 C   0  0  0  0  0  0  0  0  0  0  0  0
   -3.1549   -0.9412   -3.3491 H   0  0  0  0  0  0  0  0  0  0  0  0
    2.9818    4.5407    0.2590 C   0  0  0  0  0  0  0  0  0  0  0  0
    3.4617    5.1449    1.0387 H   0  0  0  0  0  0  0  0  0  0  0  0
  1  2  1  0  0  0  0
  2  3  1  0  0  0  0
  3  5  2  0  0  0  0
  3  4  1  0  0  0  0
  5  6  1  0  0  0  0
  7  8  1  0  0  0  0
  7  5  1  0  0  0  0
  9  7  2  0  0  0  0
 10  9  1  0  0  0  0
 11  9  1  0  0  0  0
 11  2  2  0  0  0  0
 12 17  1  0  0  0  0
 12 11  1  0  0  0  0
 13 12  1  0  0  0  0
 13 16  1  0  0  0  0
 14 13  1  0  0  0  0
 15 13  1  0  0  0  0
 16 20  2  0  0  0  0
 16 19  1  0  0  0  0
 17 18  1  6  0  0  0
 17  1  1  0  0  0  0
 18 24  1  0  0  0  0
 19 31  1  0  0  0  0
 20 22  1  0  0  0  0
 21 20  1  0  0  0  0
 22 23  1  0  0  0  0
 22 31  2  0  0  0  0
 25 18  2  0  0  0  0
 26 25  1  0  0  0  0
 27 24  1  0  0  0  0
 28 27  1  0  0  0  0
 29 25  1  0  0  0  0
 29 27  2  0  0  0  0
 30 29  1  0  0  0  0
 31 32  1  0  0  0  0
M  END
