1
 OpenBabel05122313063D

 23 23  0  0  0  0  0  0  0  0999 V2000
   -0.4600   -1.0397   -1.2455 N   0  0  0  0  0  2  0  0  0  0  0  0
    0.8391   -1.1899   -1.2239 C   0  0  0  0  0  3  0  0  0  0  0  0
    1.3627   -1.1352   -0.2557 H   0  0  0  0  0  0  0  0  0  0  0  0
    1.6539   -1.3853   -2.2798 N   0  0  0  0  0  0  0  0  0  0  0  0
    1.2449   -1.5275   -3.2049 H   0  0  0  0  0  0  0  0  0  0  0  0
   -1.1148   -1.1149   -2.5452 C   0  0  0  0  0  0  0  0  0  0  0  0
   -0.6552   -0.4119   -3.2771 H   0  0  0  0  0  0  0  0  0  0  0  0
   -2.1813   -0.8460   -2.4592 H   0  0  0  0  0  0  0  0  0  0  0  0
   -1.0659   -2.1424   -2.9716 H   0  0  0  0  0  0  0  0  0  0  0  0
    3.0990   -1.6175   -2.1350 C   0  0  0  0  0  0  0  0  0  0  0  0
    3.5475   -1.4652   -3.1370 H   0  0  0  0  0  0  0  0  0  0  0  0
    3.2935   -2.6756   -1.8544 H   0  0  0  0  0  0  0  0  0  0  0  0
    3.7541   -0.6913   -1.1308 C   0  0  0  0  0  0  0  0  0  0  0  0
    3.8033    0.6983   -1.3693 C   0  0  0  0  0  0  0  0  0  0  0  0
    3.3489    1.1101   -2.2844 H   0  0  0  0  0  0  0  0  0  0  0  0
    4.4440    1.5523   -0.4620 C   0  0  0  0  0  0  0  0  0  0  0  0
    4.4980    2.6315   -0.6714 H   0  0  0  0  0  0  0  0  0  0  0  0
    5.0405    1.0294    0.6990 C   0  0  0  0  0  0  0  0  0  0  0  0
    5.5617    1.6981    1.4008 H   0  0  0  0  0  0  0  0  0  0  0  0
    4.3388   -1.2043    0.0424 C   0  0  0  0  0  0  0  0  0  0  0  0
    4.3078   -2.2883    0.2364 H   0  0  0  0  0  0  0  0  0  0  0  0
    4.9821   -0.3489    0.9529 C   0  0  0  0  0  0  0  0  0  0  0  0
    5.4517   -0.7662    1.8563 H   0  0  0  0  0  0  0  0  0  0  0  0
  1  2  1  0  0  0  0
  2  3  1  0  0  0  0
  4 10  1  0  0  0  0
  4  2  1  0  0  0  0
  5  4  1  0  0  0  0
  6  8  1  0  0  0  0
  6  1  1  0  0  0  0
  7  6  1  0  0  0  0
  9  6  1  0  0  0  0
 10 12  1  0  0  0  0
 10 13  1  0  0  0  0
 11 10  1  0  0  0  0
 13 20  1  0  0  0  0
 14 13  2  0  0  0  0
 14 16  1  0  0  0  0
 15 14  1  0  0  0  0
 16 18  2  0  0  0  0
 17 16  1  0  0  0  0
 18 22  1  0  0  0  0
 18 19  1  0  0  0  0
 20 21  1  0  0  0  0
 20 22  2  0  0  0  0
 22 23  1  0  0  0  0
M  END
