1
 OpenBabel05122313063D

 30 29  0  0  1  0  0  0  0  0999 V2000
   -1.9615    0.4273   -0.1962 N   0  0  0  0  0  2  0  0  0  0  0  0
   -2.4636   -0.3619   -0.6242 H   0  0  0  0  0  0  0  0  0  0  0  0
   -4.1160    1.3412    0.0625 N   0  0  0  0  0  2  0  0  0  0  0  0
   -5.8948    0.1395   -0.8353 N   0  0  0  0  0  0  0  0  0  0  0  0
   -4.5744   -0.8901    0.8059 N   0  0  0  0  0  0  0  0  0  0  0  0
   -2.7626    1.3704    0.2529 C   0  0  2  0  0  3  0  0  0  0  0  0
   -2.1950    2.5807    0.9544 C   0  0  0  0  0  0  0  0  0  0  0  0
   -1.3692    2.9773    0.3284 H   0  0  0  0  0  0  0  0  0  0  0  0
   -3.0015    3.3368    1.0079 H   0  0  0  0  0  0  0  0  0  0  0  0
   -1.6416    2.2672    2.3520 C   0  0  0  0  0  0  0  0  0  0  0  0
   -0.8480    1.4938    2.2867 H   0  0  0  0  0  0  0  0  0  0  0  0
   -1.1978    3.1778    2.8013 H   0  0  0  0  0  0  0  0  0  0  0  0
   -2.4299    1.9008    3.0409 H   0  0  0  0  0  0  0  0  0  0  0  0
   -4.8098    0.2169    0.0084 C   0  0  0  0  0  3  0  0  0  0  0  0
   -6.0226    1.0885   -1.9262 C   0  0  0  0  0  0  0  0  0  0  0  0
   -5.0376    1.5398   -2.1373 H   0  0  0  0  0  0  0  0  0  0  0  0
   -6.4023    0.5731   -2.8339 H   0  0  0  0  0  0  0  0  0  0  0  0
   -6.7287    1.9108   -1.6707 H   0  0  0  0  0  0  0  0  0  0  0  0
   -7.0947   -0.6053   -0.4956 C   0  0  0  0  0  0  0  0  0  0  0  0
   -6.9928   -1.0399    0.5147 H   0  0  0  0  0  0  0  0  0  0  0  0
   -7.9738    0.0766   -0.4964 H   0  0  0  0  0  0  0  0  0  0  0  0
   -7.3015   -1.4261   -1.2172 H   0  0  0  0  0  0  0  0  0  0  0  0
   -4.6169   -2.2465    0.2702 C   0  0  0  0  0  0  0  0  0  0  0  0
   -4.9663   -2.2325   -0.7779 H   0  0  0  0  0  0  0  0  0  0  0  0
   -3.5903   -2.6773    0.2913 H   0  0  0  0  0  0  0  0  0  0  0  0
   -5.2906   -2.9049    0.8620 H   0  0  0  0  0  0  0  0  0  0  0  0
   -3.8745   -0.7582    2.0763 C   0  0  0  0  0  0  0  0  0  0  0  0
   -3.9752    0.2770    2.4482 H   0  0  0  0  0  0  0  0  0  0  0  0
   -4.3416   -1.4462    2.8129 H   0  0  0  0  0  0  0  0  0  0  0  0
   -2.7962   -1.0174    1.9857 H   0  0  0  0  0  0  0  0  0  0  0  0
  2  1  1  0  0  0  0
  3  6  1  0  0  0  0
  4 19  1  0  0  0  0
  4 14  1  0  0  0  0
  5 27  1  0  0  0  0
  6  1  1  6  0  0  0
  6  7  1  0  0  0  0
  7  9  1  0  0  0  0
  7 10  1  0  0  0  0
  8  7  1  0  0  0  0
 10 12  1  0  0  0  0
 10 13  1  0  0  0  0
 11 10  1  0  0  0  0
 14  3  1  0  0  0  0
 14  5  1  0  0  0  0
 15 18  1  0  0  0  0
 15  4  1  0  0  0  0
 16 15  1  0  0  0  0
 17 15  1  0  0  0  0
 19 20  1  0  0  0  0
 21 19  1  0  0  0  0
 22 19  1  0  0  0  0
 23 25  1  0  0  0  0
 23  5  1  0  0  0  0
 23 26  1  0  0  0  0
 24 23  1  0  0  0  0
 27 28  1  0  0  0  0
 27 29  1  0  0  0  0
 30 27  1  0  0  0  0
M  END
