2
 OpenBabel05122313063D

  8  8  0  0  0  0  0  0  0  0999 V2000
   -0.2295    2.9292    0.9159 N   0  0  0  0  0  0  0  0  0  0  0  0
   -0.0041    1.9177    0.0886 N   0  0  0  0  0  0  0  0  0  0  0  0
    0.1351    2.2938   -1.1957 N   0  0  0  0  0  0  0  0  0  0  0  0
   -0.6516    6.4357    1.0465 N   0  0  0  0  0  0  0  0  0  0  0  0
   -0.2452    4.0423    0.1242 C   0  0  0  0  0  3  0  0  0  0  0  0
   -0.0126    3.6292   -1.2058 C   0  0  0  0  0  0  0  0  0  0  0  0
    0.0480    4.2183   -2.1267 H   0  0  0  0  0  0  0  0  0  0  0  0
   -0.4682    5.3474    0.6416 C   0  0  0  0  0  0  0  0  0  0  0  0
  2  1  2  0  0  0  0
  3  2  1  0  0  0  0
  5  8  1  0  0  0  0
  5  1  1  0  0  0  0
  6  3  2  0  0  0  0
  6  5  1  0  0  0  0
  7  6  1  0  0  0  0
  8  4  3  0  0  0  0
M  END
