1
 OpenBabel05122313063D

 17 18  0  0  1  0  0  0  0  0999 V2000
    1.4754   -0.0503   -0.5850 N   0  0  0  0  0  2  0  0  0  0  0  0
    2.7548   -0.1767   -0.0464 C   0  0  0  0  0  0  0  0  0  0  0  0
    3.2935    0.5851    1.0101 C   0  0  0  0  0  0  0  0  0  0  0  0
    2.6712    1.3644    1.4811 H   0  0  0  0  0  0  0  0  0  0  0  0
    4.6027    0.3175    1.4199 C   0  0  0  0  0  0  0  0  0  0  0  0
    5.0373    0.9050    2.2422 H   0  0  0  0  0  0  0  0  0  0  0  0
    5.3780   -0.6866    0.7977 C   0  0  0  0  0  0  0  0  0  0  0  0
    6.4064   -0.8729    1.1416 H   0  0  0  0  0  0  0  0  0  0  0  0
    4.8607   -1.4487   -0.2566 C   0  0  0  0  0  0  0  0  0  0  0  0
    5.4653   -2.2258   -0.7457 H   0  0  0  0  0  0  0  0  0  0  0  0
    3.5454   -1.1842   -0.6710 C   0  0  0  0  0  0  0  0  0  0  0  0
    2.6179   -1.9357   -1.9501 S   0  0  0  0  0  0  0  0  0  0  0  0
    1.2577   -0.8886   -1.5809 C   0  0  2  0  0  3  0  0  0  0  0  0
   -0.0080   -0.9814   -2.3595 C   0  0  0  0  0  0  0  0  0  0  0  0
   -0.8034   -1.4674   -1.7570 H   0  0  0  0  0  0  0  0  0  0  0  0
    0.1302   -1.5609   -3.2903 H   0  0  0  0  0  0  0  0  0  0  0  0
   -0.3514    0.0511   -2.5963 H   0  0  0  0  0  0  0  0  0  0  0  0
  1  2  1  0  0  0  0
  2  3  1  0  0  0  0
  3  5  2  0  0  0  0
  3  4  1  0  0  0  0
  5  6  1  0  0  0  0
  7  8  1  0  0  0  0
  7  5  1  0  0  0  0
  9  7  2  0  0  0  0
 10  9  1  0  0  0  0
 11  9  1  0  0  0  0
 11  2  2  0  0  0  0
 12 13  1  0  0  0  0
 12 11  1  0  0  0  0
 13 14  1  6  0  0  0
 13  1  1  0  0  0  0
 14 15  1  0  0  0  0
 16 14  1  0  0  0  0
 17 14  1  0  0  0  0
M  END
