1
 OpenBabel05122313063D

 25 25  0  0  0  0  0  0  0  0999 V2000
   -2.0003   -0.4690   -0.0321 N   0  0  0  0  0  2  0  0  0  0  0  0
   -2.8214    0.5899   -0.4420 C   0  0  0  0  0  0  0  0  0  0  0  0
   -4.1799    0.6816   -0.0315 C   0  0  0  0  0  0  0  0  0  0  0  0
   -4.5916   -0.0746    0.6512 H   0  0  0  0  0  0  0  0  0  0  0  0
   -5.0004    1.7348   -0.4561 C   0  0  0  0  0  0  0  0  0  0  0  0
   -6.0466    1.7662   -0.1136 H   0  0  0  0  0  0  0  0  0  0  0  0
   -4.5032    2.7505   -1.2876 C   0  0  0  0  0  0  0  0  0  0  0  0
   -5.1493    3.5797   -1.6104 H   0  0  0  0  0  0  0  0  0  0  0  0
   -3.1613    2.6853   -1.6962 C   0  0  0  0  0  0  0  0  0  0  0  0
   -2.7447    3.4640   -2.3538 H   0  0  0  0  0  0  0  0  0  0  0  0
   -2.3418    1.6251   -1.2911 C   0  0  0  0  0  0  0  0  0  0  0  0
   -1.3029    1.5766   -1.6610 H   0  0  0  0  0  0  0  0  0  0  0  0
   -2.5737   -2.0577    0.5379 Si  0  0  0  0  0  0  0  0  0  0  0  0
   -3.8627   -2.7430   -0.6598 C   0  0  0  0  0  0  0  0  0  0  0  0
   -4.2152   -3.7381   -0.3182 H   0  0  0  0  0  0  0  0  0  0  0  0
   -3.4214   -2.8599   -1.6704 H   0  0  0  0  0  0  0  0  0  0  0  0
   -4.7452   -2.0806   -0.7525 H   0  0  0  0  0  0  0  0  0  0  0  0
   -3.2549   -1.9945    2.3042 C   0  0  0  0  0  0  0  0  0  0  0  0
   -2.4976   -1.5707    2.9955 H   0  0  0  0  0  0  0  0  0  0  0  0
   -3.5049   -3.0167    2.6581 H   0  0  0  0  0  0  0  0  0  0  0  0
   -4.1699   -1.3757    2.3912 H   0  0  0  0  0  0  0  0  0  0  0  0
   -1.0677   -3.2050    0.5435 C   0  0  0  0  0  0  0  0  0  0  0  0
   -1.3840   -4.2212    0.8583 H   0  0  0  0  0  0  0  0  0  0  0  0
   -0.2784   -2.8814    1.2543 H   0  0  0  0  0  0  0  0  0  0  0  0
   -0.6170   -3.2965   -0.4663 H   0  0  0  0  0  0  0  0  0  0  0  0
  1 13  1  0  0  0  0
  2  1  1  0  0  0  0
  2  3  1  0  0  0  0
  3  4  1  0  0  0  0
  5  6  1  0  0  0  0
  5  3  2  0  0  0  0
  7  5  1  0  0  0  0
  8  7  1  0  0  0  0
  9 11  1  0  0  0  0
  9  7  2  0  0  0  0
 10  9  1  0  0  0  0
 11  2  2  0  0  0  0
 12 11  1  0  0  0  0
 13 22  1  0  0  0  0
 13 18  1  0  0  0  0
 14 15  1  0  0  0  0
 14 13  1  0  0  0  0
 16 14  1  0  0  0  0
 17 14  1  0  0  0  0
 18 21  1  0  0  0  0
 18 20  1  0  0  0  0
 18 19  1  0  0  0  0
 22 23  1  0  0  0  0
 22 24  1  0  0  0  0
 25 22  1  0  0  0  0
M  END
