4
 OpenBabel05122313063D

 23 24  0  0  1  0  0  0  0  0999 V2000
    9.2756    0.9245   -0.0273 O   0  0  0  0  0  0  0  0  0  0  0  0
    2.9022   -0.2436   -0.0149 N   0  0  0  0  0  0  0  0  0  0  0  0
    2.8083    0.7871    0.0850 H   0  0  0  0  0  0  0  0  0  0  0  0
    1.7407   -0.9218   -0.0589 N   0  0  0  0  0  2  0  0  0  0  0  0
    3.9811   -1.0705   -0.0713 C   0  0  1  0  0  3  0  0  0  0  0  0
    3.4553   -2.3757   -0.1552 C   0  0  0  0  0  0  0  0  0  0  0  0
    4.0202   -3.3085   -0.2391 H   0  0  0  0  0  0  0  0  0  0  0  0
    2.0564   -2.2308   -0.1460 C   0  0  0  0  0  0  0  0  0  0  0  0
    1.2528   -2.9722   -0.2025 H   0  0  0  0  0  0  0  0  0  0  0  0
    5.3560   -0.5708   -0.0561 C   0  0  0  0  0  0  0  0  0  0  0  0
    6.4341   -1.4427    0.2006 C   0  0  0  0  0  0  0  0  0  0  0  0
    6.2354   -2.5046    0.4080 H   0  0  0  0  0  0  0  0  0  0  0  0
    7.7582   -0.9867    0.2173 C   0  0  0  0  0  0  0  0  0  0  0  0
    8.5673   -1.6989    0.4255 H   0  0  0  0  0  0  0  0  0  0  0  0
    8.0332    0.3765   -0.0226 C   0  0  0  0  0  0  0  0  0  0  0  0
    6.9624    1.2617   -0.2811 C   0  0  0  0  0  0  0  0  0  0  0  0
    7.1944    2.3188   -0.4738 H   0  0  0  0  0  0  0  0  0  0  0  0
    5.6505    0.7943   -0.3000 C   0  0  0  0  0  0  0  0  0  0  0  0
    4.8409    1.5044   -0.5283 H   0  0  0  0  0  0  0  0  0  0  0  0
   10.3868    0.0825    0.2198 C   0  0  0  0  0  0  0  0  0  0  0  0
   10.3363   -0.3847    1.2288 H   0  0  0  0  0  0  0  0  0  0  0  0
   11.2844    0.7257    0.1664 H   0  0  0  0  0  0  0  0  0  0  0  0
   10.4734   -0.7235   -0.5430 H   0  0  0  0  0  0  0  0  0  0  0  0
  1 15  1  0  0  0  0
  1 20  1  0  0  0  0
  2  3  1  0  0  0  0
  4  2  1  0  0  0  0
  5 10  1  6  0  0  0
  5  2  1  0  0  0  0
  6  8  2  0  0  0  0
  6  5  1  0  0  0  0
  7  6  1  0  0  0  0
  8  4  1  0  0  0  0
  9  8  1  0  0  0  0
 10 11  1  0  0  0  0
 11 13  2  0  0  0  0
 11 12  1  0  0  0  0
 13 14  1  0  0  0  0
 15 13  1  0  0  0  0
 16 15  2  0  0  0  0
 17 16  1  0  0  0  0
 18 16  1  0  0  0  0
 18 10  2  0  0  0  0
 19 18  1  0  0  0  0
 20 21  1  0  0  0  0
 22 20  1  0  0  0  0
 23 20  1  0  0  0  0
M  END
