1
 OpenBabel05122313063D

  9  8  0  0  0  0  0  0  0  0999 V2000
   -0.8540    1.9348   -1.1097 N   0  0  0  0  0  2  0  0  0  0  0  0
   -0.0928    2.2354   -1.7406 H   0  0  0  0  0  0  0  0  0  0  0  0
   -1.7122    2.8895   -0.8588 C   0  0  0  0  0  0  0  0  0  0  0  0
   -2.5483    2.6450   -0.1794 H   0  0  0  0  0  0  0  0  0  0  0  0
   -1.6193    4.2303   -1.3942 C   0  0  0  0  0  0  0  0  0  0  0  0
   -0.7654    4.4462   -2.0618 H   0  0  0  0  0  0  0  0  0  0  0  0
   -2.5174    5.2022   -1.1018 C   0  0  0  0  0  3  0  0  0  0  0  0
   -3.3743    5.0057   -0.4371 H   0  0  0  0  0  0  0  0  0  0  0  0
   -2.4235    6.2162   -1.5172 H   0  0  0  0  0  0  0  0  0  0  0  0
  1  3  1  0  0  0  0
  2  1  1  0  0  0  0
  3  4  1  0  0  0  0
  5  7  1  0  0  0  0
  5  3  2  0  0  0  0
  6  5  1  0  0  0  0
  7  8  1  0  0  0  0
  9  7  1  0  0  0  0
M  END
