2
 OpenBabel05122313063D

 24 26  0  0  1  0  0  0  0  0999 V2000
   -0.8012    1.7159    1.3343 N   0  0  0  0  0  0  0  0  0  0  0  0
   -0.8965   -0.7243   -0.0741 N   0  0  0  0  0  2  0  0  0  0  0  0
   -3.1100   -0.7468   -0.0307 N   0  0  0  0  0  0  0  0  0  0  0  0
   -0.5710    2.9972    1.6452 C   0  0  0  0  0  0  0  0  0  0  0  0
    0.3399    3.1924    2.2383 H   0  0  0  0  0  0  0  0  0  0  0  0
   -1.4151    4.0555    1.2663 C   0  0  0  0  0  0  0  0  0  0  0  0
   -1.1770    5.0896    1.5558 H   0  0  0  0  0  0  0  0  0  0  0  0
   -2.5652    3.7528    0.5214 C   0  0  0  0  0  0  0  0  0  0  0  0
   -3.2519    4.5485    0.1954 H   0  0  0  0  0  0  0  0  0  0  0  0
   -2.8139    2.4178    0.1725 C   0  0  0  0  0  0  0  0  0  0  0  0
   -3.6742    2.1607   -0.4623 H   0  0  0  0  0  0  0  0  0  0  0  0
   -1.8997    1.4276    0.5931 C   0  0  0  0  0  0  0  0  0  0  0  0
   -1.9881    0.0235    0.1867 C   0  0  2  0  0  3  0  0  0  0  0  0
   -4.4533   -0.4779    0.1659 C   0  0  0  0  0  0  0  0  0  0  0  0
   -4.7004    0.5153    0.5597 H   0  0  0  0  0  0  0  0  0  0  0  0
   -5.3860   -1.4496   -0.1085 C   0  0  0  0  0  0  0  0  0  0  0  0
   -6.4475   -1.2181    0.0547 H   0  0  0  0  0  0  0  0  0  0  0  0
   -4.9863   -2.7390   -0.5837 C   0  0  0  0  0  0  0  0  0  0  0  0
   -5.7481   -3.4994   -0.8053 H   0  0  0  0  0  0  0  0  0  0  0  0
   -3.6427   -3.0251   -0.7425 C   0  0  0  0  0  0  0  0  0  0  0  0
   -3.2962   -4.0112   -1.0820 H   0  0  0  0  0  0  0  0  0  0  0  0
   -2.6710   -2.0343   -0.4521 C   0  0  0  0  0  0  0  0  0  0  0  0
   -1.2719   -1.9673   -0.4622 C   0  0  0  0  0  0  0  0  0  0  0  0
   -0.5235   -2.7060   -0.7663 H   0  0  0  0  0  0  0  0  0  0  0  0
  1  4  1  0  0  0  0
  2 13  1  0  0  0  0
  3 14  1  0  0  0  0
  3 13  1  0  0  0  0
  4  5  1  0  0  0  0
  6  7  1  0  0  0  0
  6  4  2  0  0  0  0
  8  6  1  0  0  0  0
  9  8  1  0  0  0  0
 10  8  2  0  0  0  0
 10 12  1  0  0  0  0
 11 10  1  0  0  0  0
 12  1  2  0  0  0  0
 13 12  1  6  0  0  0
 14 15  1  0  0  0  0
 16 17  1  0  0  0  0
 16 14  2  0  0  0  0
 18 16  1  0  0  0  0
 19 18  1  0  0  0  0
 20 18  2  0  0  0  0
 20 22  1  0  0  0  0
 21 20  1  0  0  0  0
 22  3  1  0  0  0  0
 23 22  2  0  0  0  0
 23  2  1  0  0  0  0
 24 23  1  0  0  0  0
M  END
