1
 OpenBabel05122313063D

 12 12  0  0  0  0  0  0  0  0999 V2000
    0.1053   -1.7360   -0.4044 N   0  0  0  0  0  2  0  0  0  0  0  0
   -0.0694   -3.9728    0.4837 N   0  0  0  0  0  0  0  0  0  0  0  0
   -1.7756   -2.4534    0.7952 N   0  0  0  0  0  0  0  0  0  0  0  0
    1.2800   -2.0784   -0.9716 C   0  0  0  0  0  3  0  0  0  0  0  0
    1.8027   -1.2745   -1.5154 H   0  0  0  0  0  0  0  0  0  0  0  0
    1.8284   -3.3530   -0.8642 C   0  0  0  0  0  0  0  0  0  0  0  0
    2.7861   -3.6126   -1.3326 H   0  0  0  0  0  0  0  0  0  0  0  0
    1.0968   -4.2669   -0.0769 C   0  0  0  0  0  0  0  0  0  0  0  0
    1.4849   -5.2859    0.1064 H   0  0  0  0  0  0  0  0  0  0  0  0
   -0.5685   -2.7220    0.2818 C   0  0  0  0  0  0  0  0  0  0  0  0
   -2.2750   -1.5719    0.5699 H   0  0  0  0  0  0  0  0  0  0  0  0
   -2.2346   -3.2096    1.3003 H   0  0  0  0  0  0  0  0  0  0  0  0
  1 10  1  0  0  0  0
  3 12  1  0  0  0  0
  4  6  1  0  0  0  0
  4  1  1  0  0  0  0
  5  4  1  0  0  0  0
  6  8  2  0  0  0  0
  7  6  1  0  0  0  0
  8  9  1  0  0  0  0
  8  2  1  0  0  0  0
 10  2  2  0  0  0  0
 10  3  1  0  0  0  0
 11  3  1  0  0  0  0
M  END
