2
 OpenBabel05122313063D

 45 47  0  0  1  0  0  0  0  0999 V2000
   -2.0230    0.3416    0.0939 P   0  0  0  0  0  4  0  0  0  0  0  0
    0.7917   -1.6747   -1.5722 N   0  0  0  0  0  2  0  0  0  0  0  0
    0.9925   -2.5482   -2.0678 H   0  0  0  0  0  0  0  0  0  0  0  0
   -0.8083   -0.2947   -0.7181 N   0  0  0  0  0  2  0  0  0  0  0  0
   -0.4837   -1.4179   -1.3618 C   0  0  2  0  0  3  0  0  0  0  0  0
   -1.5167   -2.4542   -1.7681 C   0  0  0  0  0  0  0  0  0  0  0  0
   -2.4467   -1.9445   -2.0923 H   0  0  0  0  0  0  0  0  0  0  0  0
   -1.1371   -3.0273   -2.6394 H   0  0  0  0  0  0  0  0  0  0  0  0
   -1.7980   -3.4043   -0.5932 C   0  0  0  0  0  0  0  0  0  0  0  0
   -0.8581   -3.8751   -0.2413 H   0  0  0  0  0  0  0  0  0  0  0  0
   -2.5154   -4.1976   -0.8822 H   0  0  0  0  0  0  0  0  0  0  0  0
   -2.2263   -2.8560    0.2695 H   0  0  0  0  0  0  0  0  0  0  0  0
   -1.8380    2.1430   -0.0923 C   0  0  0  0  0  0  0  0  0  0  0  0
   -0.6508    2.6315   -0.6730 C   0  0  0  0  0  0  0  0  0  0  0  0
    0.1244    1.9323   -1.0347 H   0  0  0  0  0  0  0  0  0  0  0  0
   -0.4738    4.0178   -0.8006 C   0  0  0  0  0  0  0  0  0  0  0  0
    0.4524    4.3942   -1.2607 H   0  0  0  0  0  0  0  0  0  0  0  0
   -1.4631    4.9070   -0.3522 C   0  0  0  0  0  0  0  0  0  0  0  0
   -1.3168    5.9933   -0.4553 H   0  0  0  0  0  0  0  0  0  0  0  0
   -2.6469    4.4133    0.2232 C   0  0  0  0  0  0  0  0  0  0  0  0
   -3.4272    5.1090    0.5673 H   0  0  0  0  0  0  0  0  0  0  0  0
   -2.8386    3.0307    0.3531 C   0  0  0  0  0  0  0  0  0  0  0  0
   -3.7751    2.6462    0.7866 H   0  0  0  0  0  0  0  0  0  0  0  0
   -3.7389   -0.0533   -0.4249 C   0  0  0  0  0  0  0  0  0  0  0  0
   -4.2280    0.5412   -1.6087 C   0  0  0  0  0  0  0  0  0  0  0  0
   -3.6270    1.3064   -2.1244 H   0  0  0  0  0  0  0  0  0  0  0  0
   -5.4735    0.1579   -2.1243 C   0  0  0  0  0  0  0  0  0  0  0  0
   -5.8514    0.6262   -3.0457 H   0  0  0  0  0  0  0  0  0  0  0  0
   -6.2372   -0.8210   -1.4660 C   0  0  0  0  0  0  0  0  0  0  0  0
   -7.2152   -1.1207   -1.8724 H   0  0  0  0  0  0  0  0  0  0  0  0
   -5.7536   -1.4164   -0.2902 C   0  0  0  0  0  0  0  0  0  0  0  0
   -6.3509   -2.1823    0.2272 H   0  0  0  0  0  0  0  0  0  0  0  0
   -4.5070   -1.0374    0.2304 C   0  0  0  0  0  0  0  0  0  0  0  0
   -4.1298   -1.5061    1.1518 H   0  0  0  0  0  0  0  0  0  0  0  0
   -1.8844   -0.0979    1.8614 C   0  0  0  0  0  0  0  0  0  0  0  0
   -2.8388    0.3147    2.8150 C   0  0  0  0  0  0  0  0  0  0  0  0
   -3.7234    0.8939    2.5084 H   0  0  0  0  0  0  0  0  0  0  0  0
   -2.6626   -0.0234    4.1642 C   0  0  0  0  0  0  0  0  0  0  0  0
   -3.4075    0.2956    4.9090 H   0  0  0  0  0  0  0  0  0  0  0  0
   -1.5385   -0.7682    4.5637 C   0  0  0  0  0  0  0  0  0  0  0  0
   -1.4060   -1.0318    5.6243 H   0  0  0  0  0  0  0  0  0  0  0  0
   -0.5888   -1.1723    3.6133 C   0  0  0  0  0  0  0  0  0  0  0  0
    0.2992   -1.7534    3.9045 H   0  0  0  0  0  0  0  0  0  0  0  0
   -0.7539   -0.8368    2.2608 C   0  0  0  0  0  0  0  0  0  0  0  0
    0.0095   -1.1545    1.5310 H   0  0  0  0  0  0  0  0  0  0  0  0
  1 35  1  0  0  0  0
  3  2  1  0  0  0  0
  4  1  1  0  0  0  0
  5  2  1  1  0  0  0
  5  4  1  0  0  0  0
  6  5  1  0  0  0  0
  6  9  1  0  0  0  0
  7  6  1  0  0  0  0
  8  6  1  0  0  0  0
  9 10  1  0  0  0  0
  9 12  1  0  0  0  0
 11  9  1  0  0  0  0
 13  1  1  0  0  0  0
 13 22  1  0  0  0  0
 14 13  2  0  0  0  0
 15 14  1  0  0  0  0
 16 14  1  0  0  0  0
 16 18  2  0  0  0  0
 17 16  1  0  0  0  0
 18 20  1  0  0  0  0
 19 18  1  0  0  0  0
 20 22  2  0  0  0  0
 20 21  1  0  0  0  0
 22 23  1  0  0  0  0
 24  1  1  0  0  0  0
 24 33  1  0  0  0  0
 25 24  2  0  0  0  0
 26 25  1  0  0  0  0
 27 25  1  0  0  0  0
 27 29  2  0  0  0  0
 28 27  1  0  0  0  0
 29 31  1  0  0  0  0
 30 29  1  0  0  0  0
 31 32  1  0  0  0  0
 31 33  2  0  0  0  0
 33 34  1  0  0  0  0
 35 44  2  0  0  0  0
 35 36  1  0  0  0  0
 36 38  2  0  0  0  0
 37 36  1  0  0  0  0
 38 40  1  0  0  0  0
 38 39  1  0  0  0  0
 40 41  1  0  0  0  0
 42 43  1  0  0  0  0
 42 40  2  0  0  0  0
 44 42  1  0  0  0  0
 45 44  1  0  0  0  0
M  END
