1
 OpenBabel05122313063D

 21 20  0  0  0  0  0  0  0  0999 V2000
   -1.0274   -0.8034   -0.7327 N   0  0  0  0  0  2  0  0  0  0  0  0
   -1.1602   -1.0787   -1.7100 H   0  0  0  0  0  0  0  0  0  0  0  0
   -2.1814   -0.4896    1.2855 N   0  0  0  0  0  0  0  0  0  0  0  0
   -3.2680   -0.0994   -0.7572 N   0  0  0  0  0  0  0  0  0  0  0  0
   -2.1311   -0.4757   -0.0838 C   0  0  0  0  0  3  0  0  0  0  0  0
   -1.3297   -1.3780    2.0639 C   0  0  0  0  0  0  0  0  0  0  0  0
   -0.9387   -2.1906    1.4246 H   0  0  0  0  0  0  0  0  0  0  0  0
   -1.9217   -1.8083    2.9000 H   0  0  0  0  0  0  0  0  0  0  0  0
   -0.4504   -0.8441    2.4883 H   0  0  0  0  0  0  0  0  0  0  0  0
   -2.8498    0.5755    2.0148 C   0  0  0  0  0  0  0  0  0  0  0  0
   -3.1862    1.3564    1.3103 H   0  0  0  0  0  0  0  0  0  0  0  0
   -2.1338    1.0480    2.7228 H   0  0  0  0  0  0  0  0  0  0  0  0
   -3.7158    0.2057    2.6075 H   0  0  0  0  0  0  0  0  0  0  0  0
   -3.1651    0.5477   -2.0544 C   0  0  0  0  0  0  0  0  0  0  0  0
   -2.2069    1.0986   -2.1013 H   0  0  0  0  0  0  0  0  0  0  0  0
   -3.9891    1.2836   -2.1586 H   0  0  0  0  0  0  0  0  0  0  0  0
   -3.2422   -0.1681   -2.9054 H   0  0  0  0  0  0  0  0  0  0  0  0
   -4.5953   -0.4770   -0.3045 C   0  0  0  0  0  0  0  0  0  0  0  0
   -4.5146   -1.1245    0.5869 H   0  0  0  0  0  0  0  0  0  0  0  0
   -5.1267   -1.0455   -1.0993 H   0  0  0  0  0  0  0  0  0  0  0  0
   -5.2151    0.4099   -0.0453 H   0  0  0  0  0  0  0  0  0  0  0  0
  1  5  1  0  0  0  0
  2  1  1  0  0  0  0
  3 10  1  0  0  0  0
  3  6  1  0  0  0  0
  4 18  1  0  0  0  0
  4  5  1  0  0  0  0
  5  3  1  0  0  0  0
  6  9  1  0  0  0  0
  6  8  1  0  0  0  0
  7  6  1  0  0  0  0
 10 13  1  0  0  0  0
 10 12  1  0  0  0  0
 11 10  1  0  0  0  0
 14  4  1  0  0  0  0
 15 14  1  0  0  0  0
 16 14  1  0  0  0  0
 17 14  1  0  0  0  0
 18 21  1  0  0  0  0
 18 19  1  0  0  0  0
 20 18  1  0  0  0  0
M  END
