1
 OpenBabel05122313063D

 18 19  0  0  1  0  0  0  0  0999 V2000
    1.0389   -1.0655    0.1129 N   0  0  0  0  0  0  0  0  0  0  0  0
    1.3976   -0.9988    1.0745 H   0  0  0  0  0  0  0  0  0  0  0  0
    2.1469   -0.8984   -0.8798 C   0  0  2  0  0  0  0  0  0  0  0  0
    1.7635   -0.4398   -1.8074 H   0  0  0  0  0  0  0  0  0  0  0  0
    1.5740   -2.2450   -0.5823 C   0  0  0  0  0  0  0  0  0  0  0  0
    0.8714   -2.6656   -1.3179 H   0  0  0  0  0  0  0  0  0  0  0  0
    2.1418   -2.9598    0.0331 H   0  0  0  0  0  0  0  0  0  0  0  0
    3.4534   -0.3928   -0.3785 C   0  0  0  0  0  0  0  0  0  0  0  0
    4.0095    0.7594   -0.9728 C   0  0  0  0  0  0  0  0  0  0  0  0
    3.4863    1.2285   -1.8208 H   0  0  0  0  0  0  0  0  0  0  0  0
    5.2111    1.3035   -0.4965 C   0  0  0  0  0  0  0  0  0  0  0  0
    5.6320    2.2013   -0.9742 H   0  0  0  0  0  0  0  0  0  0  0  0
    5.8744    0.7060    0.5866 C   0  0  0  0  0  0  0  0  0  0  0  0
    6.8168    1.1320    0.9624 H   0  0  0  0  0  0  0  0  0  0  0  0
    5.3313   -0.4426    1.1854 C   0  0  0  0  0  0  0  0  0  0  0  0
    5.8496   -0.9218    2.0297 H   0  0  0  0  0  0  0  0  0  0  0  0
    4.1332   -0.9894    0.7052 C   0  0  0  0  0  0  0  0  0  0  0  0
    3.7315   -1.8997    1.1792 H   0  0  0  0  0  0  0  0  0  0  0  0
  1  2  1  0  0  0  0
  3  4  1  6  0  0  0
  3  5  1  0  0  0  0
  3  8  1  0  0  0  0
  3  1  1  0  0  0  0
  5  7  1  0  0  0  0
  5  1  1  0  0  0  0
  6  5  1  0  0  0  0
  8 17  1  0  0  0  0
  9 11  1  0  0  0  0
  9  8  2  0  0  0  0
 10  9  1  0  0  0  0
 11 13  2  0  0  0  0
 12 11  1  0  0  0  0
 13 14  1  0  0  0  0
 13 15  1  0  0  0  0
 15 16  1  0  0  0  0
 17 18  1  0  0  0  0
 17 15  2  0  0  0  0
M  END
