2
 OpenBabel05122313063D

 28 28  0  0  0  0  0  0  0  0999 V2000
    0.9497    1.5549    2.0130 F   0  0  0  0  0  0  0  0  0  0  0  0
    1.0534    0.9830   -0.7416 N   0  0  0  0  0  2  0  0  0  0  0  0
    2.0574    0.5410    0.1529 C   0  0  0  0  0  0  0  0  0  0  0  0
    1.9783    0.8083    1.5390 C   0  0  0  0  0  0  0  0  0  0  0  0
    2.9318    0.3365    2.4404 C   0  0  0  0  0  0  0  0  0  0  0  0
    2.8206    0.5797    3.5070 H   0  0  0  0  0  0  0  0  0  0  0  0
    4.0023   -0.4363    1.9663 C   0  0  0  0  0  0  0  0  0  0  0  0
    4.7504   -0.8177    2.6781 H   0  0  0  0  0  0  0  0  0  0  0  0
    4.1295   -0.7299    0.5939 C   0  0  0  0  0  0  0  0  0  0  0  0
    3.1544   -0.2274   -0.2875 C   0  0  0  0  0  0  0  0  0  0  0  0
    3.2036   -0.4633   -1.3610 H   0  0  0  0  0  0  0  0  0  0  0  0
    0.9666    2.4248   -1.1628 C   0  0  0  0  0  0  0  0  0  0  0  0
    1.2201    2.5034   -2.6818 C   0  0  0  0  0  0  0  0  0  0  0  0
    2.2191    2.0916   -2.9295 H   0  0  0  0  0  0  0  0  0  0  0  0
    1.1830    3.5580   -3.0223 H   0  0  0  0  0  0  0  0  0  0  0  0
    0.4558    1.9300   -3.2394 H   0  0  0  0  0  0  0  0  0  0  0  0
    2.0417    3.2616   -0.4449 C   0  0  0  0  0  0  0  0  0  0  0  0
    3.0612    2.8781   -0.6447 H   0  0  0  0  0  0  0  0  0  0  0  0
    1.8807    3.2914    0.6487 H   0  0  0  0  0  0  0  0  0  0  0  0
    1.9878    4.3015   -0.8223 H   0  0  0  0  0  0  0  0  0  0  0  0
   -0.4278    2.9760   -0.8174 C   0  0  0  0  0  0  0  0  0  0  0  0
   -0.6001    2.9297    0.2751 H   0  0  0  0  0  0  0  0  0  0  0  0
   -1.2172    2.3863   -1.3208 H   0  0  0  0  0  0  0  0  0  0  0  0
   -0.5153    4.0315   -1.1454 H   0  0  0  0  0  0  0  0  0  0  0  0
    5.2599   -1.5818    0.0724 C   0  0  0  0  0  0  0  0  0  0  0  0
    5.7488   -1.1147   -0.8064 H   0  0  0  0  0  0  0  0  0  0  0  0
    4.8887   -2.5752   -0.2576 H   0  0  0  0  0  0  0  0  0  0  0  0
    6.0338   -1.7524    0.8454 H   0  0  0  0  0  0  0  0  0  0  0  0
  2  3  1  0  0  0  0
  3  4  1  0  0  0  0
  4  1  1  0  0  0  0
  4  5  2  0  0  0  0
  5  6  1  0  0  0  0
  7  5  1  0  0  0  0
  7  8  1  0  0  0  0
  9  7  2  0  0  0  0
 10  3  2  0  0  0  0
 10  9  1  0  0  0  0
 11 10  1  0  0  0  0
 12 21  1  0  0  0  0
 12  2  1  0  0  0  0
 12 17  1  0  0  0  0
 13 12  1  0  0  0  0
 14 13  1  0  0  0  0
 15 13  1  0  0  0  0
 16 13  1  0  0  0  0
 17 19  1  0  0  0  0
 18 17  1  0  0  0  0
 20 17  1  0  0  0  0
 21 22  1  0  0  0  0
 23 21  1  0  0  0  0
 24 21  1  0  0  0  0
 25  9  1  0  0  0  0
 25 28  1  0  0  0  0
 26 25  1  0  0  0  0
 27 25  1  0  0  0  0
M  END
