1
 OpenBabel05122313063D

 26 28  0  0  1  0  0  0  0  0999 V2000
   -1.7402   -1.0479   -0.0228 N   0  0  0  0  0  2  0  0  0  0  0  0
   -2.1276    2.8655    0.3338 O   0  0  0  0  0  0  0  0  0  0  0  0
   -1.8910    3.7938    0.1550 H   0  0  0  0  0  0  0  0  0  0  0  0
   -2.8101   -1.5708   -0.6840 C   0  0  0  0  0  0  0  0  0  0  0  0
   -2.6896   -2.4552   -1.3220 H   0  0  0  0  0  0  0  0  0  0  0  0
   -3.4749    0.2496    0.4361 N   0  0  0  0  0  0  0  0  0  0  0  0
   -3.9349   -0.7831   -0.4235 C   0  0  0  0  0  0  0  0  0  0  0  0
   -5.3064   -0.8132   -0.7871 C   0  0  0  0  0  0  0  0  0  0  0  0
   -5.6511   -1.6091   -1.4620 H   0  0  0  0  0  0  0  0  0  0  0  0
   -6.1691    0.1371   -0.2769 C   0  0  0  0  0  0  0  0  0  0  0  0
   -7.2351    0.1233   -0.5445 H   0  0  0  0  0  0  0  0  0  0  0  0
   -5.6751    1.1355    0.6244 C   0  0  0  0  0  0  0  0  0  0  0  0
   -6.3571    1.8776    1.0619 H   0  0  0  0  0  0  0  0  0  0  0  0
   -4.3479    1.1798    0.9722 C   0  0  0  0  0  0  0  0  0  0  0  0
   -3.9156    1.9106    1.6638 H   0  0  0  0  0  0  0  0  0  0  0  0
   -2.1225    0.0612    0.6403 C   0  0  2  0  0  3  0  0  0  0  0  0
   -1.2223    0.9324    1.4008 C   0  0  0  0  0  0  0  0  0  0  0  0
   -0.2469    0.3645    2.2513 C   0  0  0  0  0  0  0  0  0  0  0  0
   -0.2292   -0.7312    2.3906 H   0  0  0  0  0  0  0  0  0  0  0  0
    0.7034    1.1672    2.8945 C   0  0  0  0  0  0  0  0  0  0  0  0
    1.4577    0.6989    3.5429 H   0  0  0  0  0  0  0  0  0  0  0  0
    0.6863    2.5579    2.7091 C   0  0  0  0  0  0  0  0  0  0  0  0
    1.4250    3.1965    3.2168 H   0  0  0  0  0  0  0  0  0  0  0  0
   -0.2749    3.1426    1.8724 C   0  0  0  0  0  0  0  0  0  0  0  0
   -0.2995    4.2352    1.7203 H   0  0  0  0  0  0  0  0  0  0  0  0
   -1.2149    2.3399    1.2023 C   0  0  0  0  0  0  0  0  0  0  0  0
  1 16  1  0  0  0  0
  2 26  1  0  0  0  0
  3  2  1  0  0  0  0
  4  7  2  0  0  0  0
  4  1  1  0  0  0  0
  5  4  1  0  0  0  0
  6 16  1  0  0  0  0
  6 14  1  0  0  0  0
  7  6  1  0  0  0  0
  8  7  1  0  0  0  0
  8 10  2  0  0  0  0
  9  8  1  0  0  0  0
 10 12  1  0  0  0  0
 11 10  1  0  0  0  0
 12 14  2  0  0  0  0
 12 13  1  0  0  0  0
 14 15  1  0  0  0  0
 16 17  1  6  0  0  0
 17 18  1  0  0  0  0
 18 19  1  0  0  0  0
 18 20  2  0  0  0  0
 20 21  1  0  0  0  0
 22 20  1  0  0  0  0
 22 23  1  0  0  0  0
 24 22  2  0  0  0  0
 25 24  1  0  0  0  0
 26 17  2  0  0  0  0
 26 24  1  0  0  0  0
M  END
