1
 OpenBabel05122313063D

 48 50  0  0  1  0  0  0  0  0999 V2000
   -1.1914    0.9256    0.3798 N   0  0  0  0  0  2  0  0  0  0  0  0
    0.1127    1.0349    0.3777 C   0  0  1  0  0  3  0  0  0  0  0  0
    1.0045   -0.2429   -0.4720 S   0  0  0  0  0  0  0  0  0  0  0  0
    2.6984    0.1241   -0.1906 C   0  0  0  0  0  0  0  0  0  0  0  0
    3.5301    1.0343   -1.0581 C   0  0  0  0  0  0  0  0  0  0  0  0
    3.4607    0.7454   -2.1308 H   0  0  0  0  0  0  0  0  0  0  0  0
    3.2087    2.0988   -1.0047 H   0  0  0  0  0  0  0  0  0  0  0  0
    4.9172    0.8319   -0.5004 C   0  0  0  0  0  0  0  0  0  0  0  0
    4.9005   -0.0809    0.5307 C   0  0  0  0  0  0  0  0  0  0  0  0
    6.0867   -0.5616    1.3128 C   0  0  0  0  0  0  0  0  0  0  0  0
    5.9854   -0.2600    2.3811 H   0  0  0  0  0  0  0  0  0  0  0  0
    6.9851   -0.0374    0.9294 H   0  0  0  0  0  0  0  0  0  0  0  0
    6.3109   -2.0853    1.2532 C   0  0  0  0  0  0  0  0  0  0  0  0
    7.3276   -2.3012    1.6455 H   0  0  0  0  0  0  0  0  0  0  0  0
    6.3151   -2.4087    0.1890 H   0  0  0  0  0  0  0  0  0  0  0  0
    5.3034   -2.9293    2.0460 C   0  0  0  0  0  0  0  0  0  0  0  0
    5.3238   -2.6049    3.1119 H   0  0  0  0  0  0  0  0  0  0  0  0
    5.6575   -3.9825    2.0478 H   0  0  0  0  0  0  0  0  0  0  0  0
    3.8494   -2.9163    1.5542 C   0  0  0  0  0  0  0  0  0  0  0  0
    3.2809   -3.6785    2.1271 H   0  0  0  0  0  0  0  0  0  0  0  0
    3.8057   -3.2399    0.4911 H   0  0  0  0  0  0  0  0  0  0  0  0
    3.1037   -1.5740    1.6988 C   0  0  0  0  0  0  0  0  0  0  0  0
    2.0123   -1.7425    1.5964 H   0  0  0  0  0  0  0  0  0  0  0  0
    3.2712   -1.1819    2.7285 H   0  0  0  0  0  0  0  0  0  0  0  0
    3.5190   -0.5319    0.7068 C   0  0  0  0  0  0  0  0  0  0  0  0
    0.8710    2.1654    1.0103 C   0  0  0  0  0  0  0  0  0  0  0  0
    1.0340    2.9786    0.2718 H   0  0  0  0  0  0  0  0  0  0  0  0
    1.8640    1.8175    1.3531 H   0  0  0  0  0  0  0  0  0  0  0  0
    0.3025    2.5937    1.8563 H   0  0  0  0  0  0  0  0  0  0  0  0
   -1.9482    1.9908    0.9758 C   0  0  0  0  0  0  0  0  0  0  0  0
   -2.3587    1.9031    2.3192 C   0  0  0  0  0  0  0  0  0  0  0  0
   -2.0801    1.0182    2.9091 H   0  0  0  0  0  0  0  0  0  0  0  0
   -3.1249    2.9341    2.8816 C   0  0  0  0  0  0  0  0  0  0  0  0
   -3.4478    2.8574    3.9307 H   0  0  0  0  0  0  0  0  0  0  0  0
   -3.4855    4.0520    2.1121 C   0  0  0  0  0  0  0  0  0  0  0  0
   -4.0940    4.8545    2.5547 H   0  0  0  0  0  0  0  0  0  0  0  0
   -3.0703    4.1376    0.7737 C   0  0  0  0  0  0  0  0  0  0  0  0
   -3.3525    5.0076    0.1618 H   0  0  0  0  0  0  0  0  0  0  0  0
   -2.3006    3.1133    0.2039 C   0  0  0  0  0  0  0  0  0  0  0  0
   -1.9836    3.1611   -0.8482 H   0  0  0  0  0  0  0  0  0  0  0  0
    6.0300    1.4643   -0.9230 O   0  0  0  0  0  0  0  0  0  0  0  0
    5.9309    2.3397   -2.0507 C   0  0  0  0  0  0  0  0  0  0  0  0
    5.2091    3.1590   -1.8274 H   0  0  0  0  0  0  0  0  0  0  0  0
    5.5321    1.7787   -2.9270 H   0  0  0  0  0  0  0  0  0  0  0  0
    7.3108    2.8949   -2.3402 C   0  0  0  0  0  0  0  0  0  0  0  0
    7.2720    3.5812   -3.2087 H   0  0  0  0  0  0  0  0  0  0  0  0
    8.0218    2.0776   -2.5715 H   0  0  0  0  0  0  0  0  0  0  0  0
    7.6990    3.4561   -1.4676 H   0  0  0  0  0  0  0  0  0  0  0  0
  1 30  1  0  0  0  0
  2  3  1  6  0  0  0
  2  1  1  0  0  0  0
  2 26  1  0  0  0  0
  3  4  1  0  0  0  0
  4 25  2  0  0  0  0
  5  7  1  0  0  0  0
  5  8  1  0  0  0  0
  5  4  1  0  0  0  0
  6  5  1  0  0  0  0
  8  9  2  0  0  0  0
  9 25  1  0  0  0  0
  9 10  1  0  0  0  0
 10 11  1  0  0  0  0
 12 10  1  0  0  0  0
 13 10  1  0  0  0  0
 13 14  1  0  0  0  0
 13 16  1  0  0  0  0
 15 13  1  0  0  0  0
 16 18  1  0  0  0  0
 16 17  1  0  0  0  0
 19 22  1  0  0  0  0
 19 16  1  0  0  0  0
 19 20  1  0  0  0  0
 21 19  1  0  0  0  0
 22 24  1  0  0  0  0
 23 22  1  0  0  0  0
 25 22  1  0  0  0  0
 26 28  1  0  0  0  0
 26 29  1  0  0  0  0
 27 26  1  0  0  0  0
 30 31  1  0  0  0  0
 31 33  2  0  0  0  0
 31 32  1  0  0  0  0
 33 34  1  0  0  0  0
 35 36  1  0  0  0  0
 35 33  1  0  0  0  0
 37 35  2  0  0  0  0
 38 37  1  0  0  0  0
 39 37  1  0  0  0  0
 39 30  2  0  0  0  0
 40 39  1  0  0  0  0
 41  8  1  0  0  0  0
 42 43  1  0  0  0  0
 42 41  1  0  0  0  0
 44 42  1  0  0  0  0
 45 42  1  0  0  0  0
 45 48  1  0  0  0  0
 46 45  1  0  0  0  0
 47 45  1  0  0  0  0
M  END
