4
 OpenBabel05122313063D

 24 24  0  0  0  0  0  0  0  0999 V2000
    5.7415    4.6837   -0.8825 O   0  0  0  0  0  0  0  0  0  0  0  0
    7.1238    3.2445    0.4547 O   0  0  0  0  0  0  0  0  0  0  0  0
    6.6936    4.0531   -0.1393 H   0  0  0  0  0  0  0  0  0  0  0  0
    1.7706   -0.3373   -0.0622 N   0  0  0  0  0  2  0  0  0  0  0  0
    3.5229    4.2085   -1.5882 C   0  0  0  0  0  0  0  0  0  0  0  0
    3.5590    3.8495   -2.6381 H   0  0  0  0  0  0  0  0  0  0  0  0
    3.4494    5.3113   -1.6187 H   0  0  0  0  0  0  0  0  0  0  0  0
    2.6229    3.7715   -1.1175 H   0  0  0  0  0  0  0  0  0  0  0  0
    4.7981    3.8349   -0.8720 C   0  0  0  0  0  0  0  0  0  0  0  0
    4.9448    2.5737   -0.1710 C   0  0  0  0  0  0  0  0  0  0  0  0
    6.1781    2.3476    0.4892 C   0  0  0  0  0  0  0  0  0  0  0  0
    6.5255    1.0929    1.2355 C   0  0  0  0  0  0  0  0  0  0  0  0
    7.5938    0.8619    1.0598 H   0  0  0  0  0  0  0  0  0  0  0  0
    5.8978    0.2324    0.9457 H   0  0  0  0  0  0  0  0  0  0  0  0
    6.4087    1.2572    2.3275 H   0  0  0  0  0  0  0  0  0  0  0  0
    3.8541    1.5733   -0.1353 C   0  0  0  0  0  0  0  0  0  0  0  0
    3.2851    1.0471   -1.3181 C   0  0  0  0  0  0  0  0  0  0  0  0
    3.6643    1.3523   -2.3037 H   0  0  0  0  0  0  0  0  0  0  0  0
    2.2548    0.1059   -1.2391 C   0  0  0  0  0  3  0  0  0  0  0  0
    1.8024   -0.3390   -2.1436 H   0  0  0  0  0  0  0  0  0  0  0  0
    2.3012    0.1430    1.0793 C   0  0  0  0  0  0  0  0  0  0  0  0
    1.8786   -0.2636    2.0155 H   0  0  0  0  0  0  0  0  0  0  0  0
    3.3272    1.0923    1.0860 C   0  0  0  0  0  0  0  0  0  0  0  0
    3.7100    1.4707    2.0447 H   0  0  0  0  0  0  0  0  0  0  0  0
  1  9  2  0  0  0  0
  2 11  1  0  0  0  0
  3  2  1  0  0  0  0
  4 21  1  0  0  0  0
  5  8  1  0  0  0  0
  5  9  1  0  0  0  0
  6  5  1  0  0  0  0
  7  5  1  0  0  0  0
  9 10  1  0  0  0  0
 10 16  1  0  0  0  0
 10 11  2  0  0  0  0
 11 12  1  0  0  0  0
 12 15  1  0  0  0  0
 13 12  1  0  0  0  0
 14 12  1  0  0  0  0
 16 23  1  0  0  0  0
 17 19  1  0  0  0  0
 17 16  2  0  0  0  0
 18 17  1  0  0  0  0
 19  4  1  0  0  0  0
 20 19  1  0  0  0  0
 21 23  2  0  0  0  0
 21 22  1  0  0  0  0
 23 24  1  0  0  0  0
M  END
