2
 OpenBabel05122313063D

 40 41  0  0  1  0  0  0  0  0999 V2000
    1.6736    1.2624    1.8906 O   0  0  0  0  0  0  0  0  0  0  0  0
   -0.0593    0.2803    0.7384 N   0  0  0  0  0  2  0  0  0  0  0  0
    0.7632   -0.1481    0.2666 H   0  0  0  0  0  0  0  0  0  0  0  0
    2.4720    0.4557    0.9947 N   0  0  0  0  0  0  0  0  0  0  0  0
    0.3273    1.1156    1.6297 C   0  0  2  0  0  3  0  0  0  0  0  0
   -0.5136    2.0523    2.4268 C   0  0  0  0  0  0  0  0  0  0  0  0
    0.0199    2.2677    3.3751 H   0  0  0  0  0  0  0  0  0  0  0  0
   -1.4684    1.5260    2.6393 H   0  0  0  0  0  0  0  0  0  0  0  0
   -0.7934    3.3409    1.6322 C   0  0  0  0  0  0  0  0  0  0  0  0
    0.1464    3.8456    1.3286 H   0  0  0  0  0  0  0  0  0  0  0  0
   -1.3886    4.0427    2.2501 H   0  0  0  0  0  0  0  0  0  0  0  0
   -1.3694    3.0915    0.7180 H   0  0  0  0  0  0  0  0  0  0  0  0
    3.3964    1.3471    0.3049 C   0  0  0  0  0  0  0  0  0  0  0  0
    3.9848    0.6845   -0.3660 H   0  0  0  0  0  0  0  0  0  0  0  0
    4.1153    1.8270    1.0157 H   0  0  0  0  0  0  0  0  0  0  0  0
    2.6505    2.4021   -0.4846 C   0  0  0  0  0  0  0  0  0  0  0  0
    1.6451    2.0302   -1.3998 C   0  0  0  0  0  0  0  0  0  0  0  0
    1.4047    0.9692   -1.5804 H   0  0  0  0  0  0  0  0  0  0  0  0
    0.8851    3.0095   -2.0543 C   0  0  0  0  0  0  0  0  0  0  0  0
    0.0588    2.6874   -2.7045 H   0  0  0  0  0  0  0  0  0  0  0  0
    1.1450    4.3711   -1.8305 C   0  0  0  0  0  0  0  0  0  0  0  0
    0.5403    5.1390   -2.3377 H   0  0  0  0  0  0  0  0  0  0  0  0
    2.1619    4.7507   -0.9397 C   0  0  0  0  0  0  0  0  0  0  0  0
    2.3650    5.8169   -0.7521 H   0  0  0  0  0  0  0  0  0  0  0  0
    2.9019    3.7689   -0.2618 C   0  0  0  0  0  0  0  0  0  0  0  0
    3.6734    4.0648    0.4678 H   0  0  0  0  0  0  0  0  0  0  0  0
    3.0679   -0.6543    1.7445 C   0  0  0  0  0  0  0  0  0  0  0  0
    2.2624   -1.0521    2.3934 H   0  0  0  0  0  0  0  0  0  0  0  0
    3.9106   -0.3172    2.3976 H   0  0  0  0  0  0  0  0  0  0  0  0
    3.5177   -1.7257    0.7735 C   0  0  0  0  0  0  0  0  0  0  0  0
    4.8827   -1.9410    0.5054 C   0  0  0  0  0  0  0  0  0  0  0  0
    5.6403   -1.3496    1.0458 H   0  0  0  0  0  0  0  0  0  0  0  0
    5.2812   -2.8962   -0.4440 C   0  0  0  0  0  0  0  0  0  0  0  0
    6.3519   -3.0575   -0.6450 H   0  0  0  0  0  0  0  0  0  0  0  0
    4.3118   -3.6345   -1.1416 C   0  0  0  0  0  0  0  0  0  0  0  0
    4.6210   -4.3755   -1.8954 H   0  0  0  0  0  0  0  0  0  0  0  0
    2.9482   -3.4236   -0.8773 C   0  0  0  0  0  0  0  0  0  0  0  0
    2.1741   -3.9848   -1.4219 H   0  0  0  0  0  0  0  0  0  0  0  0
    2.5486   -2.4807    0.0794 C   0  0  0  0  0  0  0  0  0  0  0  0
    1.4714   -2.3474    0.2818 H   0  0  0  0  0  0  0  0  0  0  0  0
  3  2  1  0  0  0  0
  4 27  1  0  0  0  0
  4  1  1  0  0  0  0
  5  2  1  6  0  0  0
  5  1  1  0  0  0  0
  5  6  1  0  0  0  0
  6  8  1  0  0  0  0
  6  7  1  0  0  0  0
  9 11  1  0  0  0  0
  9  6  1  0  0  0  0
 10  9  1  0  0  0  0
 12  9  1  0  0  0  0
 13  4  1  0  0  0  0
 13 15  1  0  0  0  0
 14 13  1  0  0  0  0
 16 25  1  0  0  0  0
 16 13  1  0  0  0  0
 17 16  2  0  0  0  0
 18 17  1  0  0  0  0
 19 21  2  0  0  0  0
 19 17  1  0  0  0  0
 20 19  1  0  0  0  0
 21 23  1  0  0  0  0
 22 21  1  0  0  0  0
 23 24  1  0  0  0  0
 23 25  2  0  0  0  0
 25 26  1  0  0  0  0
 27 28  1  0  0  0  0
 27 29  1  0  0  0  0
 30 27  1  0  0  0  0
 31 30  1  0  0  0  0
 31 32  1  0  0  0  0
 33 31  2  0  0  0  0
 34 33  1  0  0  0  0
 35 37  2  0  0  0  0
 35 33  1  0  0  0  0
 36 35  1  0  0  0  0
 37 39  1  0  0  0  0
 38 37  1  0  0  0  0
 39 40  1  0  0  0  0
 39 30  2  0  0  0  0
M  END
