1
 OpenBabel05122313063D

 22 22  0  0  1  0  0  0  0  0999 V2000
   -1.8789   -0.4924   -0.5455 N   0  0  0  0  0  2  0  0  0  0  0  0
   -4.0587   -0.6333   -0.7019 N   0  0  0  0  0  0  0  0  0  0  0  0
   -1.3826    2.4465   -0.5773 N   0  0  0  0  0  0  0  0  0  0  0  0
   -5.3798   -0.2924   -0.7214 O   0  0  0  0  0  0  0  0  0  0  0  0
   -4.2612    1.5687    1.1993 O   0  0  0  0  0  0  0  0  0  0  0  0
   -0.4856    3.4668   -0.5452 O   0  0  0  0  0  0  0  0  0  0  0  0
   -3.0246    0.1484   -0.2397 C   0  0  1  0  0  3  0  0  0  0  0  0
   -2.1846   -1.6553   -1.2085 C   0  0  0  0  0  0  0  0  0  0  0  0
   -1.3956   -2.3276   -1.5593 H   0  0  0  0  0  0  0  0  0  0  0  0
   -3.5605   -1.7530   -1.3252 C   0  0  0  0  0  0  0  0  0  0  0  0
   -4.2198   -2.4840   -1.8012 H   0  0  0  0  0  0  0  0  0  0  0  0
   -3.2461    1.4229    0.5152 C   0  0  0  0  0  0  0  0  0  0  0  0
   -2.2472    2.4976    0.3880 C   0  0  0  0  0  0  0  0  0  0  0  0
   -2.2807    3.3109    1.1364 H   0  0  0  0  0  0  0  0  0  0  0  0
   -6.0630   -0.7433    0.4685 C   0  0  0  0  0  0  0  0  0  0  0  0
   -5.6426   -0.2357    1.3583 H   0  0  0  0  0  0  0  0  0  0  0  0
   -7.1124   -0.4331    0.3134 H   0  0  0  0  0  0  0  0  0  0  0  0
   -6.0068   -1.8491    0.5591 H   0  0  0  0  0  0  0  0  0  0  0  0
    0.3931    3.3885   -1.6786 C   0  0  0  0  0  0  0  0  0  0  0  0
   -0.1378    3.7033   -2.6013 H   0  0  0  0  0  0  0  0  0  0  0  0
    1.2165    4.0938   -1.4612 H   0  0  0  0  0  0  0  0  0  0  0  0
    0.7747    2.3539   -1.8047 H   0  0  0  0  0  0  0  0  0  0  0  0
  1  7  1  0  0  0  0
  2  7  1  0  0  0  0
  3  6  1  0  0  0  0
  3 13  2  0  0  0  0
  4  2  1  0  0  0  0
  4 15  1  0  0  0  0
  7 12  1  1  0  0  0
  8  1  1  0  0  0  0
  9  8  1  0  0  0  0
 10  8  2  0  0  0  0
 10  2  1  0  0  0  0
 11 10  1  0  0  0  0
 12  5  2  0  0  0  0
 13 12  1  0  0  0  0
 13 14  1  0  0  0  0
 15 18  1  0  0  0  0
 15 16  1  0  0  0  0
 17 15  1  0  0  0  0
 19 21  1  0  0  0  0
 19  6  1  0  0  0  0
 20 19  1  0  0  0  0
 22 19  1  0  0  0  0
M  END
