3
 OpenBabel05122313063D

 11 11  0  0  0  0  0  0  0  0999 V2000
   -5.0142   -2.8616    0.0037 Br  0  0  0  0  0  0  0  0  0  0  0  0
   -5.0046    2.8634   -0.0011 Br  0  0  0  0  0  0  0  0  0  0  0  0
   -2.0457   -0.0041    0.0041 N   0  0  0  0  0  2  0  0  0  0  0  0
   -2.7190   -1.1767    0.0043 C   0  0  0  0  0  3  0  0  0  0  0  0
   -2.1289   -2.1037    0.0044 H   0  0  0  0  0  0  0  0  0  0  0  0
   -4.1235   -1.2047    0.0033 C   0  0  0  0  0  0  0  0  0  0  0  0
   -4.8441    0.0006    0.0019 C   0  0  0  0  0  0  0  0  0  0  0  0
   -5.9433    0.0025    0.0012 H   0  0  0  0  0  0  0  0  0  0  0  0
   -4.1194    1.2035    0.0012 C   0  0  0  0  0  0  0  0  0  0  0  0
   -2.7151    1.1708    0.0024 C   0  0  0  0  0  0  0  0  0  0  0  0
   -2.1217    2.0958    0.0011 H   0  0  0  0  0  0  0  0  0  0  0  0
  2  9  1  0  0  0  0
  3  4  1  0  0  0  0
  4  5  1  0  0  0  0
  6  1  1  0  0  0  0
  6  4  1  0  0  0  0
  7  6  2  0  0  0  0
  8  7  1  0  0  0  0
  9  7  1  0  0  0  0
  9 10  2  0  0  0  0
 10  3  1  0  0  0  0
 11 10  1  0  0  0  0
M  END
