13
 OpenBabel05122313063D

 26 27  0  0  0  0  0  0  0  0999 V2000
    0.0927   -2.6338    0.2999 C   0  0  0  0  0  3  0  0  0  0  0  0
    1.1877   -3.4765    0.0910 C   0  0  0  0  0  0  0  0  0  0  0  0
    2.3978   -2.8975   -0.2962 C   0  0  0  0  0  0  0  0  0  0  0  0
    2.5339   -1.4969   -0.4120 C   0  0  0  0  0  0  0  0  0  0  0  0
    1.4033   -0.7042   -0.0835 C   0  0  0  0  0  0  0  0  0  0  0  0
    1.4020    0.7919   -0.1028 C   0  0  0  0  0  0  0  0  0  0  0  0
    2.3903    1.5895    0.5317 C   0  0  0  0  0  0  0  0  0  0  0  0
    2.2782    2.9863    0.3475 C   0  0  0  0  0  0  0  0  0  0  0  0
    1.2224    3.5334   -0.3841 C   0  0  0  0  0  0  0  0  0  0  0  0
    0.2376    2.6615   -0.8745 C   0  0  0  0  0  0  0  0  0  0  0  0
    3.8208   -0.9307   -0.9482 C   0  0  0  0  0  0  0  0  0  0  0  0
    3.4675    1.0508    1.4346 C   0  0  0  0  0  0  0  0  0  0  0  0
    0.2067   -1.2943    0.2007 N   0  0  0  0  0  2  0  0  0  0  0  0
    0.3312    1.3341   -0.7297 N   0  0  0  0  0  0  0  0  0  0  0  0
    3.2598   -3.5383   -0.5391 H   0  0  0  0  0  0  0  0  0  0  0  0
    1.0744   -4.5648    0.1926 H   0  0  0  0  0  0  0  0  0  0  0  0
   -0.9024   -3.0344    0.5474 H   0  0  0  0  0  0  0  0  0  0  0  0
    3.0270    3.6470    0.8121 H   0  0  0  0  0  0  0  0  0  0  0  0
    1.1358    4.6184   -0.5390 H   0  0  0  0  0  0  0  0  0  0  0  0
   -0.6576    3.0425   -1.3940 H   0  0  0  0  0  0  0  0  0  0  0  0
    3.7213    0.1211   -1.2695 H   0  0  0  0  0  0  0  0  0  0  0  0
    4.1512   -1.5270   -1.8218 H   0  0  0  0  0  0  0  0  0  0  0  0
    4.6353   -0.9880   -0.1982 H   0  0  0  0  0  0  0  0  0  0  0  0
    3.3037   -0.0054    1.7140 H   0  0  0  0  0  0  0  0  0  0  0  0
    3.5031    1.6466    2.3685 H   0  0  0  0  0  0  0  0  0  0  0  0
    4.4706    1.1340    0.9693 H   0  0  0  0  0  0  0  0  0  0  0  0
  1 17  1  0  0  0  0
  2 16  1  0  0  0  0
  2  1  1  0  0  0  0
  3  2  2  0  0  0  0
  4  3  1  0  0  0  0
  4  5  2  0  0  0  0
  5 13  1  0  0  0  0
  6  5  1  0  0  0  0
  6  7  1  0  0  0  0
  7 12  1  0  0  0  0
  8  7  2  0  0  0  0
  8 18  1  0  0  0  0
  9  8  1  0  0  0  0
 10 14  1  0  0  0  0
 10  9  2  0  0  0  0
 11  4  1  0  0  0  0
 11 23  1  0  0  0  0
 12 24  1  0  0  0  0
 12 25  1  0  0  0  0
 13  1  1  0  0  0  0
 14  6  2  0  0  0  0
 15  3  1  0  0  0  0
 19  9  1  0  0  0  0
 20 10  1  0  0  0  0
 21 11  1  0  0  0  0
 22 11  1  0  0  0  0
 26 12  1  0  0  0  0
M  END
