1
 OpenBabel05122313063D

 22 22  0  0  0  0  0  0  0  0999 V2000
   -1.3271    1.6187   -0.0002 N   0  0  0  0  0  2  0  0  0  0  0  0
   -2.2590    2.7386   -0.0003 C   0  0  0  0  0  0  0  0  0  0  0  0
   -0.0522    1.9097   -0.0002 C   0  0  0  0  0  0  0  0  0  0  0  0
    1.0227    0.9578   -0.0002 C   0  0  0  0  0  0  0  0  0  0  0  0
    2.3307    1.3551   -0.0001 C   0  0  0  0  0  3  0  0  0  0  0  0
    3.5058    0.4936   -0.0001 C   0  0  0  0  0  0  0  0  0  0  0  0
    4.7930    1.0865    0.0007 C   0  0  0  0  0  0  0  0  0  0  0  0
    5.9502    0.2991    0.0008 C   0  0  0  0  0  0  0  0  0  0  0  0
    5.8449   -1.1009   -0.0000 C   0  0  0  0  0  0  0  0  0  0  0  0
    4.5747   -1.7067   -0.0009 C   0  0  0  0  0  0  0  0  0  0  0  0
    3.4186   -0.9225   -0.0010 C   0  0  0  0  0  0  0  0  0  0  0  0
   -1.7302    3.7156   -0.0007 H   0  0  0  0  0  0  0  0  0  0  0  0
   -2.9147    2.6777   -0.8915 H   0  0  0  0  0  0  0  0  0  0  0  0
   -2.9145    2.6781    0.8911 H   0  0  0  0  0  0  0  0  0  0  0  0
    0.2287    2.9838   -0.0003 H   0  0  0  0  0  0  0  0  0  0  0  0
    0.7372   -0.1049   -0.0003 H   0  0  0  0  0  0  0  0  0  0  0  0
    2.5415    2.4402    0.0001 H   0  0  0  0  0  0  0  0  0  0  0  0
    4.8749    2.1849    0.0013 H   0  0  0  0  0  0  0  0  0  0  0  0
    6.9405    0.7788    0.0015 H   0  0  0  0  0  0  0  0  0  0  0  0
    6.7524   -1.7233    0.0000 H   0  0  0  0  0  0  0  0  0  0  0  0
    4.4888   -2.8037   -0.0016 H   0  0  0  0  0  0  0  0  0  0  0  0
    2.4329   -1.4104   -0.0017 H   0  0  0  0  0  0  0  0  0  0  0  0
  2  1  1  0  0  0  0
  2 14  1  0  0  0  0
  3  4  2  0  0  0  0
  3  1  1  0  0  0  0
  4  5  1  0  0  0  0
  5 17  1  0  0  0  0
  6  5  1  0  0  0  0
  6  7  1  0  0  0  0
  7  8  2  0  0  0  0
  7 18  1  0  0  0  0
  8 19  1  0  0  0  0
  9 20  1  0  0  0  0
  9  8  1  0  0  0  0
 10  9  2  0  0  0  0
 11 10  1  0  0  0  0
 11  6  2  0  0  0  0
 12  2  1  0  0  0  0
 13  2  1  0  0  0  0
 15  3  1  0  0  0  0
 16  4  1  0  0  0  0
 21 10  1  0  0  0  0
 22 11  1  0  0  0  0
M  END
