2
 OpenBabel05122313063D

 30 30  0  0  1  0  0  0  0  0999 V2000
   -0.1361    2.4463   -0.5805 S   0  0  0  0  0  0  0  0  0  0  0  0
   -1.5579   -0.1407   -0.7990 N   0  0  0  0  0  2  0  0  0  0  0  0
   -2.2515    0.8990   -0.2047 N   0  0  0  0  0  0  0  0  0  0  0  0
   -3.1710    0.6457    0.1859 H   0  0  0  0  0  0  0  0  0  0  0  0
   -2.4631    3.0400    0.6456 N   0  0  0  0  0  0  0  0  0  0  0  0
   -3.4316    2.7977    0.8676 H   0  0  0  0  0  0  0  0  0  0  0  0
   -2.2121   -1.2880   -0.8283 C   0  0  1  0  0  3  0  0  0  0  0  0
   -3.5745   -1.4355   -0.2381 C   0  0  0  0  0  0  0  0  0  0  0  0
   -4.6848   -1.7022   -1.0696 C   0  0  0  0  0  0  0  0  0  0  0  0
   -4.5482   -1.7736   -2.1594 H   0  0  0  0  0  0  0  0  0  0  0  0
   -5.9613   -1.8654   -0.5126 C   0  0  0  0  0  0  0  0  0  0  0  0
   -6.8203   -2.0678   -1.1695 H   0  0  0  0  0  0  0  0  0  0  0  0
   -6.1434   -1.7748    0.8770 C   0  0  0  0  0  0  0  0  0  0  0  0
   -7.1455   -1.9099    1.3106 H   0  0  0  0  0  0  0  0  0  0  0  0
   -5.0433   -1.5208    1.7115 C   0  0  0  0  0  0  0  0  0  0  0  0
   -5.1762   -1.4677    2.8026 H   0  0  0  0  0  0  0  0  0  0  0  0
   -3.7634   -1.3515    1.1621 C   0  0  0  0  0  0  0  0  0  0  0  0
   -2.8992   -1.1794    1.8212 H   0  0  0  0  0  0  0  0  0  0  0  0
   -1.6084   -2.4933   -1.4629 C   0  0  0  0  0  0  0  0  0  0  0  0
   -0.5741   -2.2840   -1.7835 H   0  0  0  0  0  0  0  0  0  0  0  0
   -2.2089   -2.8183   -2.3396 H   0  0  0  0  0  0  0  0  0  0  0  0
   -1.6221   -3.3402   -0.7456 H   0  0  0  0  0  0  0  0  0  0  0  0
   -1.7138    2.1313   -0.0195 C   0  0  0  0  0  0  0  0  0  0  0  0
   -2.0642    4.4367    0.8280 C   0  0  0  0  0  0  0  0  0  0  0  0
   -0.9713    4.4403    1.0204 H   0  0  0  0  0  0  0  0  0  0  0  0
   -2.5558    4.7948    1.7549 H   0  0  0  0  0  0  0  0  0  0  0  0
   -2.4067    5.3334   -0.3605 C   0  0  0  0  0  0  0  0  0  0  0  0
   -1.8922    4.9846   -1.2775 H   0  0  0  0  0  0  0  0  0  0  0  0
   -2.0783    6.3719   -0.1583 H   0  0  0  0  0  0  0  0  0  0  0  0
   -3.4982    5.3542   -0.5533 H   0  0  0  0  0  0  0  0  0  0  0  0
  1 23  2  0  0  0  0
  2  3  1  0  0  0  0
  3 23  1  0  0  0  0
  3  4  1  0  0  0  0
  5 24  1  0  0  0  0
  5  6  1  0  0  0  0
  7  2  1  6  0  0  0
  7  8  1  0  0  0  0
  8 17  1  0  0  0  0
  9 11  1  0  0  0  0
  9  8  2  0  0  0  0
 10  9  1  0  0  0  0
 11 13  2  0  0  0  0
 12 11  1  0  0  0  0
 13 14  1  0  0  0  0
 13 15  1  0  0  0  0
 15 16  1  0  0  0  0
 17 15  2  0  0  0  0
 17 18  1  0  0  0  0
 19  7  1  0  0  0  0
 19 22  1  0  0  0  0
 20 19  1  0  0  0  0
 21 19  1  0  0  0  0
 23  5  1  0  0  0  0
 24 25  1  0  0  0  0
 24 26  1  0  0  0  0
 27 29  1  0  0  0  0
 27 24  1  0  0  0  0
 28 27  1  0  0  0  0
 30 27  1  0  0  0  0
M  END
