6
 OpenBabel05122313063D

 37 36  0  0  1  0  0  0  0  0999 V2000
   -1.6635    1.2219   -0.4822 S   0  0  1  0  0  0  0  0  0  0  0  0
    2.7827    0.2768   -0.8595 S   0  0  1  0  0  0  0  0  0  0  0  0
   -2.9523    1.0260   -1.2454 O   0  0  0  0  0  0  0  0  0  0  0  0
    3.0486   -1.2052   -1.0501 O   0  0  0  0  0  0  0  0  0  0  0  0
   -0.5969    2.1783   -1.4057 N   0  0  0  0  0  2  0  0  0  0  0  0
    1.0537    0.5529   -0.8616 N   0  0  0  0  0  2  0  0  0  0  0  0
    0.6423    1.7188   -1.4582 C   0  0  1  0  0  3  0  0  0  0  0  0
    1.5955    2.5973   -2.2456 C   0  0  0  0  0  0  0  0  0  0  0  0
   -2.1017    2.4834    0.8783 C   0  0  0  0  0  0  0  0  0  0  0  0
   -0.8333    2.7714    1.6705 C   0  0  0  0  0  0  0  0  0  0  0  0
   -3.1781    1.8016    1.7234 C   0  0  0  0  0  0  0  0  0  0  0  0
   -2.6541    3.7107    0.1555 C   0  0  0  0  0  0  0  0  0  0  0  0
    3.1880    0.6333    0.9871 C   0  0  0  0  0  0  0  0  0  0  0  0
    2.3336   -0.2274    1.9085 C   0  0  0  0  0  0  0  0  0  0  0  0
    2.9554    2.1272    1.1970 C   0  0  0  0  0  0  0  0  0  0  0  0
    4.6705    0.2644    1.0906 C   0  0  0  0  0  0  0  0  0  0  0  0
    2.3041    3.1236   -1.5761 H   0  0  0  0  0  0  0  0  0  0  0  0
    1.0003    3.3493   -2.7920 H   0  0  0  0  0  0  0  0  0  0  0  0
    2.1976    1.9994   -2.9568 H   0  0  0  0  0  0  0  0  0  0  0  0
   -0.3902    1.8398    2.0807 H   0  0  0  0  0  0  0  0  0  0  0  0
   -0.0775    3.2760    1.0378 H   0  0  0  0  0  0  0  0  0  0  0  0
   -1.0677    3.4406    2.5242 H   0  0  0  0  0  0  0  0  0  0  0  0
   -4.0195    1.4648    1.0873 H   0  0  0  0  0  0  0  0  0  0  0  0
   -2.7763    0.9295    2.2770 H   0  0  0  0  0  0  0  0  0  0  0  0
   -3.5707    2.5218    2.4705 H   0  0  0  0  0  0  0  0  0  0  0  0
   -3.0114    4.4478    0.9048 H   0  0  0  0  0  0  0  0  0  0  0  0
   -1.8791    4.1828   -0.4769 H   0  0  0  0  0  0  0  0  0  0  0  0
   -3.5044    3.4223   -0.4928 H   0  0  0  0  0  0  0  0  0  0  0  0
    2.5731   -1.3011    1.7922 H   0  0  0  0  0  0  0  0  0  0  0  0
    2.5264    0.0542    2.9655 H   0  0  0  0  0  0  0  0  0  0  0  0
    1.2445   -0.0970    1.7073 H   0  0  0  0  0  0  0  0  0  0  0  0
    1.8878    2.3929    1.0794 H   0  0  0  0  0  0  0  0  0  0  0  0
    3.2616    2.4128    2.2252 H   0  0  0  0  0  0  0  0  0  0  0  0
    3.5556    2.7373    0.4911 H   0  0  0  0  0  0  0  0  0  0  0  0
    5.2947    0.8905    0.4195 H   0  0  0  0  0  0  0  0  0  0  0  0
    5.0254    0.4231    2.1304 H   0  0  0  0  0  0  0  0  0  0  0  0
    4.8266   -0.7981    0.8207 H   0  0  0  0  0  0  0  0  0  0  0  0
  1  3  2  6  0  0  0
  1  9  1  0  0  0  0
  2  4  2  1  0  0  0
  2 13  1  0  0  0  0
  5  1  1  0  0  0  0
  6  2  1  0  0  0  0
  7  5  1  6  0  0  0
  7  6  1  0  0  0  0
  8 17  1  0  0  0  0
  8  7  1  0  0  0  0
  9 10  1  0  0  0  0
  9 11  1  0  0  0  0
 10 20  1  0  0  0  0
 10 22  1  0  0  0  0
 11 24  1  0  0  0  0
 11 25  1  0  0  0  0
 12  9  1  0  0  0  0
 12 26  1  0  0  0  0
 13 16  1  0  0  0  0
 13 15  1  0  0  0  0
 13 14  1  0  0  0  0
 14 30  1  0  0  0  0
 15 33  1  0  0  0  0
 16 36  1  0  0  0  0
 18  8  1  0  0  0  0
 19  8  1  0  0  0  0
 21 10  1  0  0  0  0
 23 11  1  0  0  0  0
 27 12  1  0  0  0  0
 28 12  1  0  0  0  0
 29 14  1  0  0  0  0
 31 14  1  0  0  0  0
 32 15  1  0  0  0  0
 34 15  1  0  0  0  0
 35 16  1  0  0  0  0
 37 16  1  0  0  0  0
M  END
