1
 OpenBabel05122313063D

 64 69  0  0  1  0  0  0  0  0999 V2000
   -1.9345    1.1458   -0.7696 N   0  0  0  0  0  2  0  0  0  0  0  0
   -2.1085    2.4751   -1.0101 C   0  0  0  0  0  3  0  0  0  0  0  0
   -3.1385    2.8440   -0.9059 H   0  0  0  0  0  0  0  0  0  0  0  0
   -1.0753    3.3391   -1.3594 C   0  0  0  0  0  0  0  0  0  0  0  0
   -1.2905    4.4031   -1.5282 H   0  0  0  0  0  0  0  0  0  0  0  0
    0.2210    2.8112   -1.4970 C   0  0  0  0  0  0  0  0  0  0  0  0
    1.0664    3.4519   -1.7905 H   0  0  0  0  0  0  0  0  0  0  0  0
    0.4228    1.4522   -1.2663 C   0  0  0  0  0  0  0  0  0  0  0  0
    1.4156    0.9976   -1.3776 H   0  0  0  0  0  0  0  0  0  0  0  0
   -0.6745    0.6463   -0.8900 C   0  0  0  0  0  0  0  0  0  0  0  0
    1.2345   -1.2710   -0.2882 C   0  0  0  0  0  0  0  0  0  0  0  0
    1.9014   -1.0235    1.0944 C   0  0  1  0  0  0  0  0  0  0  0  0
    1.0477   -1.2590    2.3300 C   0  0  0  0  0  0  0  0  0  0  0  0
    0.1235   -0.6468    2.2851 H   0  0  0  0  0  0  0  0  0  0  0  0
    1.6196   -0.9182    3.2198 H   0  0  0  0  0  0  0  0  0  0  0  0
    0.6948   -2.7485    2.4684 C   0  0  0  0  0  0  0  0  0  0  0  0
    0.0026   -3.0331    1.6455 H   0  0  0  0  0  0  0  0  0  0  0  0
    0.1275   -2.9126    3.4068 H   0  0  0  0  0  0  0  0  0  0  0  0
    1.9385   -3.6492    2.4241 C   0  0  0  0  0  0  0  0  0  0  0  0
    1.6428   -4.7124    2.5399 H   0  0  0  0  0  0  0  0  0  0  0  0
    2.5936   -3.4122    3.2930 H   0  0  0  0  0  0  0  0  0  0  0  0
    2.7370   -3.4669    1.1213 C   0  0  0  0  0  0  0  0  0  0  0  0
    3.6468   -4.1028    1.1236 H   0  0  0  0  0  0  0  0  0  0  0  0
    2.1220   -3.7999    0.2596 H   0  0  0  0  0  0  0  0  0  0  0  0
    3.1199   -2.0005    0.9555 C   0  0  1  0  0  0  0  0  0  0  0  0
    3.8874   -1.7202    1.7089 H   0  0  0  0  0  0  0  0  0  0  0  0
    2.6303    0.2930    0.8703 C   0  0  0  0  0  0  0  0  0  0  0  0
    2.6078    1.6039    1.2274 C   0  0  0  0  0  0  0  0  0  0  0  0
    1.8416    2.3876    2.2431 C   0  0  0  0  0  0  0  0  0  0  0  0
    1.1774    1.7321    2.8403 H   0  0  0  0  0  0  0  0  0  0  0  0
    1.1794    3.1219    1.7252 H   0  0  0  0  0  0  0  0  0  0  0  0
    2.8236    3.1631    3.1513 C   0  0  0  0  0  0  0  0  0  0  0  0
    3.3544    2.4359    3.8043 H   0  0  0  0  0  0  0  0  0  0  0  0
    2.2630    3.8456    3.8235 H   0  0  0  0  0  0  0  0  0  0  0  0
    3.8614    3.9514    2.3372 C   0  0  0  0  0  0  0  0  0  0  0  0
    4.5562    4.4809    3.0220 H   0  0  0  0  0  0  0  0  0  0  0  0
    3.3434    4.7421    1.7481 H   0  0  0  0  0  0  0  0  0  0  0  0
    4.6593    3.0505    1.3812 C   0  0  0  0  0  0  0  0  0  0  0  0
    5.4011    3.6343    0.7984 H   0  0  0  0  0  0  0  0  0  0  0  0
    5.2273    2.2943    1.9660 H   0  0  0  0  0  0  0  0  0  0  0  0
    3.6995    2.3056    0.4329 C   0  0  1  0  0  0  0  0  0  0  0  0
    3.2353    3.0621   -0.2471 H   0  0  0  0  0  0  0  0  0  0  0  0
    4.3044    1.2059   -0.4300 C   0  0  0  0  0  0  0  0  0  0  0  0
    3.6747    0.0239   -0.1402 C   0  0  0  0  0  0  0  0  0  0  0  0
    3.5435   -1.4792   -0.4672 C   0  0  2  0  0  0  0  0  0  0  0  0
    2.2019   -1.5490   -1.1972 C   0  0  0  0  0  0  0  0  0  0  0  0
    2.0957   -1.6794   -2.2828 H   0  0  0  0  0  0  0  0  0  0  0  0
    5.3041    1.5461   -1.2686 O   0  0  0  0  0  0  0  0  0  0  0  0
    5.5097    0.7266   -2.4343 C   0  0  0  0  0  0  0  0  0  0  0  0
    5.2743   -0.3336   -2.2082 H   0  0  0  0  0  0  0  0  0  0  0  0
    4.7925    1.0623   -3.2193 H   0  0  0  0  0  0  0  0  0  0  0  0
    6.9432    0.8934   -2.8959 C   0  0  0  0  0  0  0  0  0  0  0  0
    7.1764    1.9589   -3.0919 H   0  0  0  0  0  0  0  0  0  0  0  0
    7.1120    0.3236   -3.8313 H   0  0  0  0  0  0  0  0  0  0  0  0
    7.6512    0.5208   -2.1288 H   0  0  0  0  0  0  0  0  0  0  0  0
    4.5740   -2.1427   -1.1463 O   0  0  0  0  0  0  0  0  0  0  0  0
    5.8066   -2.2097   -0.4268 C   0  0  0  0  0  0  0  0  0  0  0  0
    5.6768   -2.8260    0.4929 H   0  0  0  0  0  0  0  0  0  0  0  0
    6.1097   -1.1888   -0.0915 H   0  0  0  0  0  0  0  0  0  0  0  0
    6.8566   -2.8241   -1.3330 C   0  0  0  0  0  0  0  0  0  0  0  0
    7.8146   -2.9417   -0.7892 H   0  0  0  0  0  0  0  0  0  0  0  0
    7.0392   -2.1889   -2.2228 H   0  0  0  0  0  0  0  0  0  0  0  0
    6.5294   -3.8225   -1.6851 H   0  0  0  0  0  0  0  0  0  0  0  0
   -0.5004   -1.0994   -0.5876 S   0  0  0  0  0  0  0  0  0  0  0  0
  2  3  1  0  0  0  0
  2  1  1  0  0  0  0
  4  2  1  0  0  0  0
  5  4  1  0  0  0  0
  6  4  2  0  0  0  0
  6  8  1  0  0  0  0
  7  6  1  0  0  0  0
  8 10  2  0  0  0  0
  9  8  1  0  0  0  0
 10  1  1  0  0  0  0
 10 64  1  0  0  0  0
 12 11  1  6  0  0  0
 12 13  1  0  0  0  0
 13 16  1  0  0  0  0
 13 15  1  0  0  0  0
 14 13  1  0  0  0  0
 16 18  1  0  0  0  0
 17 16  1  0  0  0  0
 19 16  1  0  0  0  0
 19 20  1  0  0  0  0
 19 21  1  0  0  0  0
 22 23  1  0  0  0  0
 22 19  1  0  0  0  0
 24 22  1  0  0  0  0
 25 12  1  0  0  0  0
 25 22  1  0  0  0  0
 25 26  1  1  0  0  0
 27 12  1  0  0  0  0
 27 28  2  0  0  0  0
 28 29  1  0  0  0  0
 29 30  1  0  0  0  0
 29 32  1  0  0  0  0
 31 29  1  0  0  0  0
 32 33  1  0  0  0  0
 32 34  1  0  0  0  0
 35 36  1  0  0  0  0
 35 32  1  0  0  0  0
 37 35  1  0  0  0  0
 38 40  1  0  0  0  0
 38 35  1  0  0  0  0
 39 38  1  0  0  0  0
 41 42  1  6  0  0  0
 41 28  1  0  0  0  0
 41 38  1  0  0  0  0
 43 44  2  0  0  0  0
 43 41  1  0  0  0  0
 44 27  1  0  0  0  0
 45 56  1  6  0  0  0
 45 44  1  0  0  0  0
 45 25  1  0  0  0  0
 46 45  1  0  0  0  0
 46 11  2  0  0  0  0
 47 46  1  0  0  0  0
 48 43  1  0  0  0  0
 49 50  1  0  0  0  0
 49 48  1  0  0  0  0
 51 49  1  0  0  0  0
 52 49  1  0  0  0  0
 52 55  1  0  0  0  0
 53 52  1  0  0  0  0
 54 52  1  0  0  0  0
 56 57  1  0  0  0  0
 57 59  1  0  0  0  0
 57 58  1  0  0  0  0
 60 61  1  0  0  0  0
 60 57  1  0  0  0  0
 62 60  1  0  0  0  0
 63 60  1  0  0  0  0
 64 11  1  0  0  0  0
M  END
