1
 OpenBabel05122313063D

 28 29  0  0  0  0  0  0  0  0999 V2000
   -1.0683   -1.8979    0.0732 N   0  0  0  0  0  2  0  0  0  0  0  0
   -2.4122   -1.8740    0.3136 N   0  0  0  0  0  0  0  0  0  0  0  0
   -2.8557   -0.8483    0.9858 C   0  0  0  0  0  0  0  0  0  0  0  0
   -4.2477   -0.6024    1.2008 C   0  0  0  0  0  0  0  0  0  0  0  0
   -5.4907   -1.6321    0.5204 S   0  0  0  0  0  0  0  0  0  0  0  0
   -6.7573   -0.6272    1.1701 C   0  0  0  0  0  0  0  0  0  0  0  0
   -6.2296    0.4535    1.8764 C   0  0  0  0  0  0  0  0  0  0  0  0
   -4.8142    0.4718    1.8966 C   0  0  0  0  0  0  0  0  0  0  0  0
   -4.2068    1.2396    2.3964 H   0  0  0  0  0  0  0  0  0  0  0  0
   -6.8658    1.2026    2.3675 H   0  0  0  0  0  0  0  0  0  0  0  0
   -8.1951   -0.9749    0.9584 C   0  0  0  0  0  0  0  0  0  0  0  0
   -8.4609   -1.9280    1.4618 H   0  0  0  0  0  0  0  0  0  0  0  0
   -8.8439   -0.1797    1.3713 H   0  0  0  0  0  0  0  0  0  0  0  0
   -8.4376   -1.0971   -0.1172 H   0  0  0  0  0  0  0  0  0  0  0  0
   -2.1497   -0.0962    1.4102 H   0  0  0  0  0  0  0  0  0  0  0  0
   -0.6027   -3.0620   -0.3381 C   0  0  0  0  0  3  0  0  0  0  0  0
    0.7480   -3.3455   -0.6933 C   0  0  0  0  0  0  0  0  0  0  0  0
    2.0381   -2.1538   -0.7122 S   0  0  0  0  0  0  0  0  0  0  0  0
    3.2215   -3.3380   -1.2185 C   0  0  0  0  0  0  0  0  0  0  0  0
    2.6311   -4.5896   -1.3607 C   0  0  0  0  0  0  0  0  0  0  0  0
    1.2452   -4.5991   -1.0724 C   0  0  0  0  0  0  0  0  0  0  0  0
    0.6073   -5.4923   -1.1274 H   0  0  0  0  0  0  0  0  0  0  0  0
    3.2017   -5.4761   -1.6700 H   0  0  0  0  0  0  0  0  0  0  0  0
    4.6385   -2.9318   -1.4541 C   0  0  0  0  0  0  0  0  0  0  0  0
    4.7320   -2.3018   -2.3640 H   0  0  0  0  0  0  0  0  0  0  0  0
    5.0467   -2.3413   -0.6079 H   0  0  0  0  0  0  0  0  0  0  0  0
    5.2716   -3.8280   -1.5948 H   0  0  0  0  0  0  0  0  0  0  0  0
   -1.3306   -3.8917   -0.4039 H   0  0  0  0  0  0  0  0  0  0  0  0
  1  2  1  0  0  0  0
  2  3  2  0  0  0  0
  3  4  1  0  0  0  0
  3 15  1  0  0  0  0
  4  8  2  0  0  0  0
  5  6  1  0  0  0  0
  5  4  1  0  0  0  0
  6  7  2  0  0  0  0
  7  8  1  0  0  0  0
  7 10  1  0  0  0  0
  8  9  1  0  0  0  0
 11  6  1  0  0  0  0
 11 13  1  0  0  0  0
 11 12  1  0  0  0  0
 14 11  1  0  0  0  0
 16  1  1  0  0  0  0
 17 16  1  0  0  0  0
 18 17  1  0  0  0  0
 19 18  1  0  0  0  0
 20 19  2  0  0  0  0
 20 21  1  0  0  0  0
 21 17  2  0  0  0  0
 22 21  1  0  0  0  0
 23 20  1  0  0  0  0
 24 19  1  0  0  0  0
 24 26  1  0  0  0  0
 25 24  1  0  0  0  0
 27 24  1  0  0  0  0
 28 16  1  0  0  0  0
M  END
