3
 OpenBabel05122313063D

 33 35  0  0  1  0  0  0  0  0999 V2000
    1.6028   -0.0427   -0.9457 O   0  0  0  0  0  0  0  0  0  0  0  0
    1.5927   -1.0084   -0.8156 H   0  0  0  0  0  0  0  0  0  0  0  0
    1.2040    2.3928   -0.3222 N   0  0  0  0  0  2  0  0  0  0  0  0
    2.5239    2.0807   -0.4593 N   0  0  2  0  0  0  0  0  0  0  0  0
    2.9005    0.5529   -0.3894 B   0  0  1  0  0  0  0  0  0  0  0  0
    3.2417    3.2266   -0.5162 C   0  0  0  0  0  3  0  0  0  0  0  0
    4.3300    3.1977   -0.6208 H   0  0  0  0  0  0  0  0  0  0  0  0
    2.3646    4.3170   -0.4189 C   0  0  0  0  0  0  0  0  0  0  0  0
    2.6216    5.3805   -0.4359 H   0  0  0  0  0  0  0  0  0  0  0  0
    1.0902    3.7388   -0.2985 C   0  0  0  0  0  0  0  0  0  0  0  0
    0.1009    4.1989   -0.2002 H   0  0  0  0  0  0  0  0  0  0  0  0
    3.1732    0.0644    1.1433 C   0  0  1  0  0  0  0  0  0  0  0  0
    2.3440    0.4103    1.8054 H   0  0  0  0  0  0  0  0  0  0  0  0
    3.1687   -1.4812    1.1535 C   0  0  0  0  0  0  0  0  0  0  0  0
    3.4049   -1.8762    2.1685 H   0  0  0  0  0  0  0  0  0  0  0  0
    2.1244   -1.8239    0.9602 H   0  0  0  0  0  0  0  0  0  0  0  0
    4.1087   -2.1507    0.1249 C   0  0  0  0  0  0  0  0  0  0  0  0
    3.8218   -3.2196    0.0147 H   0  0  0  0  0  0  0  0  0  0  0  0
    5.1382   -2.1712    0.5337 H   0  0  0  0  0  0  0  0  0  0  0  0
    4.1329   -1.4879   -1.2713 C   0  0  0  0  0  0  0  0  0  0  0  0
    4.9941   -1.9010   -1.8445 H   0  0  0  0  0  0  0  0  0  0  0  0
    3.2310   -1.8088   -1.8415 H   0  0  0  0  0  0  0  0  0  0  0  0
    4.1787    0.0612   -1.2666 C   0  0  2  0  0  0  0  0  0  0  0  0
    4.0829    0.3973   -2.3239 H   0  0  0  0  0  0  0  0  0  0  0  0
    5.5096    0.6170   -0.7111 C   0  0  0  0  0  0  0  0  0  0  0  0
    6.3721    0.1607   -1.2499 H   0  0  0  0  0  0  0  0  0  0  0  0
    5.5702    1.6998   -0.9562 H   0  0  0  0  0  0  0  0  0  0  0  0
    5.7224    0.4389    0.8075 C   0  0  0  0  0  0  0  0  0  0  0  0
    6.0897   -0.5868    1.0112 H   0  0  0  0  0  0  0  0  0  0  0  0
    6.5464    1.1068    1.1408 H   0  0  0  0  0  0  0  0  0  0  0  0
    4.4717    0.7103    1.6670 C   0  0  0  0  0  0  0  0  0  0  0  0
    4.6802    0.3905    2.7138 H   0  0  0  0  0  0  0  0  0  0  0  0
    4.3049    1.8094    1.7220 H   0  0  0  0  0  0  0  0  0  0  0  0
  1  2  1  0  0  0  0
  3 10  1  0  0  0  0
  4  6  1  1  0  0  0
  4  5  1  0  0  0  0
  4  3  1  0  0  0  0
  5  1  1  6  0  0  0
  5 12  1  0  0  0  0
  6  8  1  0  0  0  0
  7  6  1  0  0  0  0
  8 10  2  0  0  0  0
  9  8  1  0  0  0  0
 10 11  1  0  0  0  0
 12 14  1  0  0  0  0
 12 31  1  0  0  0  0
 12 13  1  1  0  0  0
 14 15  1  0  0  0  0
 16 14  1  0  0  0  0
 17 19  1  0  0  0  0
 17 14  1  0  0  0  0
 18 17  1  0  0  0  0
 20 23  1  0  0  0  0
 20 17  1  0  0  0  0
 21 20  1  0  0  0  0
 22 20  1  0  0  0  0
 23 24  1  6  0  0  0
 23 25  1  0  0  0  0
 23  5  1  0  0  0  0
 25 28  1  0  0  0  0
 26 25  1  0  0  0  0
 27 25  1  0  0  0  0
 28 29  1  0  0  0  0
 28 30  1  0  0  0  0
 28 31  1  0  0  0  0
 31 33  1  0  0  0  0
 31 32  1  0  0  0  0
M  END
