17
 OpenBabel05122313063D

 36 40  0  0  1  0  0  0  0  0999 V2000
    2.0809    0.0216    0.6215 P   0  0  0  0  0  0  0  0  0  0  0  0
   -1.3164   -5.1357    2.8914 Cl  0  0  0  0  0  0  0  0  0  0  0  0
   -0.1718    2.8936    3.7697 Cl  0  0  0  0  0  0  0  0  0  0  0  0
   -0.8228    5.6679    2.3700 Cl  0  0  0  0  0  0  0  0  0  0  0  0
    0.1373    6.1919   -0.5904 Cl  0  0  0  0  0  0  0  0  0  0  0  0
    1.6713    3.9165   -2.1754 Cl  0  0  0  0  0  0  0  0  0  0  0  0
    6.3864    1.0584    2.3993 Cl  0  0  0  0  0  0  0  0  0  0  0  0
    8.6195   -0.5307    0.7776 Cl  0  0  0  0  0  0  0  0  0  0  0  0
    7.7676   -2.4207   -1.6003 Cl  0  0  0  0  0  0  0  0  0  0  0  0
    4.7241   -2.7236   -2.3685 Cl  0  0  0  0  0  0  0  0  0  0  0  0
    0.5241   -0.5169   -0.0715 O   0  0  0  0  0  0  0  0  0  0  0  0
    2.0334   -1.3604    1.7289 O   0  0  0  0  0  0  0  0  0  0  0  0
    2.0158    1.3752   -0.4767 O   0  0  0  0  0  0  0  0  0  0  0  0
    1.2533    0.9627    1.8528 O   0  5  0  0  0  0  0  0  0  0  0  0
    2.9060   -0.9181   -0.6002 O   0  0  0  0  0  0  0  0  0  0  0  0
    3.5897    0.4993    1.3187 O   0  0  0  0  0  0  0  0  0  0  0  0
   -1.1628   -2.0760    0.3281 N   0  0  0  0  0  2  0  0  0  0  0  0
    0.0465   -1.5724    0.5794 C   0  0  2  0  0  3  0  0  0  0  0  0
   -1.5537   -3.1816    1.0296 C   0  0  0  0  0  0  0  0  0  0  0  0
   -0.7358   -3.7520    2.0034 C   0  0  0  0  0  0  0  0  0  0  0  0
    0.5313   -3.2004    2.3139 C   0  0  0  0  0  0  0  0  0  0  0  0
    0.9164   -2.0786    1.5861 C   0  0  0  0  0  0  0  0  0  0  0  0
    0.9683    2.2005    1.4075 C   0  0  0  0  0  0  0  0  0  0  0  0
    0.3065    3.1969    2.1327 C   0  0  0  0  0  0  0  0  0  0  0  0
    0.0399    4.4411    1.5048 C   0  0  0  0  0  0  0  0  0  0  0  0
    0.4679    4.6723    0.1801 C   0  0  0  0  0  0  0  0  0  0  0  0
    1.1555    3.6621   -0.5411 C   0  0  0  0  0  0  0  0  0  0  0  0
    1.3971    2.4324    0.0811 C   0  0  0  0  0  0  0  0  0  0  0  0
    4.6279   -0.1029    0.7037 C   0  0  0  0  0  0  0  0  0  0  0  0
    5.9698    0.0314    1.0731 C   0  0  0  0  0  0  0  0  0  0  0  0
    6.9513   -0.6874    0.3435 C   0  0  0  0  0  0  0  0  0  0  0  0
    6.5683   -1.5300   -0.7235 C   0  0  0  0  0  0  0  0  0  0  0  0
    5.2007   -1.6562   -1.0844 C   0  0  0  0  0  0  0  0  0  0  0  0
    4.2400   -0.9246   -0.3764 C   0  0  0  0  0  0  0  0  0  0  0  0
   -2.5508   -3.5893    0.8144 H   0  0  0  0  0  0  0  0  0  0  0  0
    1.1690   -3.6239    3.1004 H   0  0  0  0  0  0  0  0  0  0  0  0
  1 16  1  0  0  0  0
  1 12  1  0  0  0  0
  5 26  1  0  0  0  0
  6 27  1  0  0  0  0
  9 32  1  0  0  0  0
 10 33  1  0  0  0  0
 11  1  1  0  0  0  0
 13 28  1  0  0  0  0
 13  1  1  0  0  0  0
 15 34  1  0  0  0  0
 15  1  1  0  0  0  0
 17 18  1  0  0  0  0
 17 19  1  0  0  0  0
 18 11  1  1  0  0  0
 18 22  1  0  0  0  0
 19 20  2  0  0  0  0
 20 21  1  0  0  0  0
 20  2  1  0  0  0  0
 21 36  1  0  0  0  0
 22 12  1  0  0  0  0
 22 21  2  0  0  0  0
 23 14  1  0  0  0  0
 23 24  1  0  0  0  0
 24  3  1  0  0  0  0
 25 24  2  0  0  0  0
 25  4  1  0  0  0  0
 26 25  1  0  0  0  0
 27 28  1  0  0  0  0
 27 26  2  0  0  0  0
 28 23  2  0  0  0  0
 29 30  1  0  0  0  0
 29 16  1  0  0  0  0
 30  7  1  0  0  0  0
 31  8  1  0  0  0  0
 31 30  2  0  0  0  0
 32 31  1  0  0  0  0
 33 32  2  0  0  0  0
 33 34  1  0  0  0  0
 34 29  2  0  0  0  0
 35 19  1  0  0  0  0
M  CHG  1  14  -1
M  END
