28
 OpenBabel05122313063D

 32 36  0  0  0  0  0  0  0  0999 V2000
   -2.0961   -1.7032    2.7225 C   0  0  0  0  0  0  0  0  0  0  0  0
   -1.2600   -2.2987    3.1260 H   0  0  0  0  0  0  0  0  0  0  0  0
   -3.3061   -1.5353    3.4334 C   0  0  0  0  0  0  0  0  0  0  0  0
   -3.4286   -1.9999    4.4221 H   0  0  0  0  0  0  0  0  0  0  0  0
   -4.3240   -0.7826    2.8597 C   0  0  0  0  0  0  0  0  0  0  0  0
   -5.2754   -0.6356    3.3943 H   0  0  0  0  0  0  0  0  0  0  0  0
   -4.1308   -0.2139    1.5762 C   0  0  0  0  0  0  0  0  0  0  0  0
   -5.0889    0.5746    0.8662 C   0  0  0  0  0  0  0  0  0  0  0  0
   -4.8563    1.1125   -0.4147 C   0  0  0  0  0  0  0  0  0  0  0  0
   -3.6120    0.8706   -1.0930 C   0  0  0  0  0  0  0  0  0  0  0  0
   -3.3287    1.3521   -2.3918 C   0  0  0  0  0  0  0  0  0  0  0  0
   -4.0912    1.9521   -2.9097 H   0  0  0  0  0  0  0  0  0  0  0  0
   -2.1046    1.0417   -2.9737 C   0  0  0  0  0  0  0  0  0  0  0  0
   -1.8475    1.3876   -3.9850 H   0  0  0  0  0  0  0  0  0  0  0  0
   -1.1869    0.2524   -2.2456 C   0  0  0  0  0  0  0  0  0  0  0  0
   -0.2162   -0.0362   -2.6775 H   0  0  0  0  0  0  0  0  0  0  0  0
   -2.6192    0.0870   -0.4228 C   0  0  0  0  0  0  0  0  0  0  0  0
   -2.8705   -0.4447    0.9232 C   0  0  0  0  0  0  0  0  0  0  0  0
   -6.8439    1.7356    0.1260 C   0  0  0  0  0  0  0  0  0  0  0  0
   -8.1582    2.3366    0.1053 C   0  0  0  0  0  0  0  0  0  0  0  0
   -9.1731    2.3144    1.0602 C   0  0  0  0  0  0  0  0  0  0  0  0
   -9.0933    1.7950    2.0258 H   0  0  0  0  0  0  0  0  0  0  0  0
  -10.3293    3.0369    0.6516 C   0  0  0  0  0  0  0  0  0  0  0  0
  -11.2384    3.1397    1.2591 H   0  0  0  0  0  0  0  0  0  0  0  0
  -10.1821    3.5990   -0.6049 C   0  0  0  0  0  0  0  0  0  0  0  0
  -10.9069    4.2026   -1.1649 H   0  0  0  0  0  0  0  0  0  0  0  0
   -1.8944   -1.1642    1.5183 N   0  0  0  0  0  2  0  0  0  0  0  0
   -1.4361   -0.1981   -1.0168 N   0  0  0  0  0  2  0  0  0  0  0  0
   -5.9431    1.8238   -0.8539 N   0  0  0  0  0  0  0  0  0  0  0  0
   -6.3659    0.9854    1.1915 N   0  0  0  0  0  0  0  0  0  0  0  0
   -6.8740    0.7706    2.0482 H   0  0  0  0  0  0  0  0  0  0  0  0
   -8.6381    3.2537   -1.3005 S   0  0  0  0  0  0  0  0  0  0  0  0
  1  2  1  0  0  0  0
  1  3  2  0  0  0  0
  3  4  1  0  0  0  0
  5  6  1  0  0  0  0
  5  3  1  0  0  0  0
  7  5  2  0  0  0  0
  8 30  1  0  0  0  0
  8  7  1  0  0  0  0
  9  8  2  0  0  0  0
 10 17  1  0  0  0  0
 10  9  1  0  0  0  0
 11 10  2  0  0  0  0
 12 11  1  0  0  0  0
 13 11  1  0  0  0  0
 13 15  2  0  0  0  0
 14 13  1  0  0  0  0
 15 28  1  0  0  0  0
 16 15  1  0  0  0  0
 17 18  2  0  0  0  0
 18 27  1  0  0  0  0
 18  7  1  0  0  0  0
 19 30  1  0  0  0  0
 20 19  1  0  0  0  0
 20 21  2  0  0  0  0
 21 22  1  0  0  0  0
 23 21  1  0  0  0  0
 23 24  1  0  0  0  0
 25 23  2  0  0  0  0
 26 25  1  0  0  0  0
 27  1  1  0  0  0  0
 28 17  1  0  0  0  0
 29  9  1  0  0  0  0
 29 19  2  0  0  0  0
 30 31  1  0  0  0  0
 32 25  1  0  0  0  0
 32 20  1  0  0  0  0
M  END
