4
 OpenBabel05122313063D

 17 18  0  0  0  0  0  0  0  0999 V2000
    3.0114   -1.4452    0.2597 N   0  0  0  0  0  0  0  0  0  0  0  0
    2.1677   -2.0299    0.1014 H   0  0  0  0  0  0  0  0  0  0  0  0
    7.3564    0.1715    0.1551 O   0  0  0  0  0  0  0  0  0  0  0  0
    1.9153    0.6705   -0.2699 N   0  0  0  0  0  2  0  0  0  0  0  0
    3.4609    2.5051   -0.6550 C   0  0  0  0  0  0  0  0  0  0  0  0
    3.5681    3.5673   -0.9151 H   0  0  0  0  0  0  0  0  0  0  0  0
    2.1640    1.9680   -0.5871 C   0  0  0  0  0  3  0  0  0  0  0  0
    1.2759    2.5907   -0.7486 H   0  0  0  0  0  0  0  0  0  0  0  0
    4.5842    1.7141   -0.3808 C   0  0  0  0  0  0  0  0  0  0  0  0
    5.6112    2.1032   -0.4082 H   0  0  0  0  0  0  0  0  0  0  0  0
    4.3086   -1.8579    0.4125 C   0  0  0  0  0  0  0  0  0  0  0  0
    4.5405   -2.9071    0.6309 H   0  0  0  0  0  0  0  0  0  0  0  0
    5.1799   -0.7786    0.2393 C   0  0  0  0  0  0  0  0  0  0  0  0
    6.6358   -0.8033    0.3341 C   0  0  0  0  0  0  0  0  0  0  0  0
    7.0728   -1.8159    0.5898 H   0  0  0  0  0  0  0  0  0  0  0  0
    4.3498    0.3654   -0.0699 C   0  0  0  0  0  0  0  0  0  0  0  0
    3.0021   -0.1035   -0.0445 C   0  0  0  0  0  0  0  0  0  0  0  0
  1 11  1  0  0  0  0
  2  1  1  0  0  0  0
  3 14  2  0  0  0  0
  4 17  1  0  0  0  0
  5  7  1  0  0  0  0
  5  9  2  0  0  0  0
  6  5  1  0  0  0  0
  7  4  1  0  0  0  0
  8  7  1  0  0  0  0
  9 16  1  0  0  0  0
 10  9  1  0  0  0  0
 11 12  1  0  0  0  0
 13 14  1  0  0  0  0
 13 11  2  0  0  0  0
 14 15  1  0  0  0  0
 16 17  2  0  0  0  0
 16 13  1  0  0  0  0
 17  1  1  0  0  0  0
M  END
