1
 OpenBabel05122313063D

 20 21  0  0  0  0  0  0  0  0999 V2000
   -0.2401    0.9746   -0.0184 N   0  0  0  0  0  2  0  0  0  0  0  0
   -1.8765    2.4347   -0.5660 N   0  0  0  0  0  0  0  0  0  0  0  0
   -2.2962    1.5865    0.4044 N   0  0  0  0  0  0  0  0  0  0  0  0
   -3.9560   -0.7793    0.6557 N   0  0  0  0  0  0  0  0  0  0  0  0
   -0.6304    2.0406   -0.7927 C   0  0  0  0  0  0  0  0  0  0  0  0
    0.0273    2.5208   -1.5261 H   0  0  0  0  0  0  0  0  0  0  0  0
   -1.3206    0.7069    0.7277 C   0  0  0  0  0  3  0  0  0  0  0  0
   -1.4379   -0.1001    1.4567 H   0  0  0  0  0  0  0  0  0  0  0  0
   -3.6729    1.6158    0.8815 C   0  0  0  0  0  0  0  0  0  0  0  0
   -4.0990    2.5761    0.5421 H   0  0  0  0  0  0  0  0  0  0  0  0
   -3.6591    1.6049    1.9906 H   0  0  0  0  0  0  0  0  0  0  0  0
   -4.4748    0.4284    0.3739 C   0  0  0  0  0  0  0  0  0  0  0  0
   -4.6144   -1.8684    0.2360 C   0  0  0  0  0  0  0  0  0  0  0  0
   -4.1553   -2.8429    0.4780 H   0  0  0  0  0  0  0  0  0  0  0  0
   -5.8262   -1.8076   -0.4734 C   0  0  0  0  0  0  0  0  0  0  0  0
   -6.3294   -2.7315   -0.7938 H   0  0  0  0  0  0  0  0  0  0  0  0
   -6.3661   -0.5472   -0.7611 C   0  0  0  0  0  0  0  0  0  0  0  0
   -7.3095   -0.4533   -1.3199 H   0  0  0  0  0  0  0  0  0  0  0  0
   -5.6768    0.5979   -0.3338 C   0  0  0  0  0  0  0  0  0  0  0  0
   -6.0611    1.6057   -0.5511 H   0  0  0  0  0  0  0  0  0  0  0  0
  1  7  1  0  0  0  0
  2  3  1  0  0  0  0
  3  7  1  0  0  0  0
  3  9  1  0  0  0  0
  5  2  2  0  0  0  0
  5  1  1  0  0  0  0
  6  5  1  0  0  0  0
  7  8  1  0  0  0  0
  9 11  1  0  0  0  0
 10  9  1  0  0  0  0
 12  4  1  0  0  0  0
 12  9  1  0  0  0  0
 13 14  1  0  0  0  0
 13  4  2  0  0  0  0
 15 13  1  0  0  0  0
 16 15  1  0  0  0  0
 17 15  2  0  0  0  0
 17 19  1  0  0  0  0
 18 17  1  0  0  0  0
 19 12  2  0  0  0  0
 20 19  1  0  0  0  0
M  END
