17
 OpenBabel05122313063D

 28 29  0  0  1  0  0  0  0  0999 V2000
   -0.5956   -0.0637    1.4860 S   0  0  0  0  0  0  0  0  0  0  0  0
   -1.7383   -2.3024    0.7248 O   0  0  0  0  0  0  0  0  0  0  0  0
   -3.6112   -2.5608   -0.5077 O   0  0  0  0  0  0  0  0  0  0  0  0
   -3.3491   -3.4989   -0.3870 H   0  0  0  0  0  0  0  0  0  0  0  0
    1.6878    4.1584   -0.3197 C   0  0  0  0  0  0  0  0  0  0  0  0
    1.8162    5.2494   -0.3748 H   0  0  0  0  0  0  0  0  0  0  0  0
    0.9305    2.1769    0.8530 C   0  0  1  0  0  3  0  0  0  0  0  0
   -4.3947    1.4943   -0.6503 C   0  0  0  0  0  0  0  0  0  0  0  0
   -5.3061    1.8527   -1.1497 H   0  0  0  0  0  0  0  0  0  0  0  0
   -3.4850    2.4040   -0.0951 C   0  0  0  0  0  0  0  0  0  0  0  0
   -3.6753    3.4859   -0.1539 H   0  0  0  0  0  0  0  0  0  0  0  0
   -2.9686   -0.3556    0.0662 C   0  0  0  0  0  0  0  0  0  0  0  0
    2.1074    3.3322   -1.3708 C   0  0  0  0  0  0  0  0  0  0  0  0
    2.5634    3.7452   -2.2811 H   0  0  0  0  0  0  0  0  0  0  0  0
   -4.1313    0.1234   -0.5688 C   0  0  0  0  0  0  0  0  0  0  0  0
   -4.8255   -0.6077   -1.0044 H   0  0  0  0  0  0  0  0  0  0  0  0
    1.3732    1.3835   -0.1613 N   0  0  0  0  0  2  0  0  0  0  0  0
    1.0808    3.5707    0.7977 C   0  0  0  0  0  0  0  0  0  0  0  0
    0.7166    4.1863    1.6328 H   0  0  0  0  0  0  0  0  0  0  0  0
   -2.0545    0.5730    0.6321 C   0  0  0  0  0  0  0  0  0  0  0  0
   -2.3194    1.9480    0.5390 C   0  0  0  0  0  0  0  0  0  0  0  0
   -1.6261    2.6905    0.9496 H   0  0  0  0  0  0  0  0  0  0  0  0
    1.9237    1.9518   -1.2603 C   0  0  0  0  0  0  0  0  0  0  0  0
    2.1927    1.2640   -2.0733 H   0  0  0  0  0  0  0  0  0  0  0  0
    0.2756    1.4796    2.0083 C   0  0  0  0  0  0  0  0  0  0  0  0
   -0.3951    2.1404    2.5899 H   0  0  0  0  0  0  0  0  0  0  0  0
    1.0376    1.0831    2.7126 H   0  0  0  0  0  0  0  0  0  0  0  0
   -2.6986   -1.8139    0.1333 C   0  0  0  0  0  0  0  0  0  0  0  0
  1 25  1  0  0  0  0
  3  4  1  0  0  0  0
  3 28  1  0  0  0  0
  5 18  2  0  0  0  0
  6  5  1  0  0  0  0
  7 25  1  6  0  0  0
  8 15  2  0  0  0  0
  8 10  1  0  0  0  0
  9  8  1  0  0  0  0
 10 21  2  0  0  0  0
 11 10  1  0  0  0  0
 12 28  1  0  0  0  0
 12 20  2  0  0  0  0
 13 23  2  0  0  0  0
 13  5  1  0  0  0  0
 14 13  1  0  0  0  0
 15 12  1  0  0  0  0
 16 15  1  0  0  0  0
 17  7  1  0  0  0  0
 18  7  1  0  0  0  0
 18 19  1  0  0  0  0
 20  1  1  0  0  0  0
 21 20  1  0  0  0  0
 21 22  1  0  0  0  0
 23 17  1  0  0  0  0
 24 23  1  0  0  0  0
 25 26  1  0  0  0  0
 25 27  1  0  0  0  0
 28  2  2  0  0  0  0
M  END
