1
 OpenBabel05122313063D

 34 36  0  0  1  0  0  0  0  0999 V2000
    1.6840    1.0452   -0.3715 N   0  0  0  0  0  2  0  0  0  0  0  0
    3.1886   -0.7342   -0.1133 N   0  0  0  0  0  0  0  0  0  0  0  0
    2.4142   -1.3537   -0.4165 H   0  0  0  0  0  0  0  0  0  0  0  0
    1.6881    2.4789   -0.6437 C   0  0  0  0  0  0  0  0  0  0  0  0
    1.1233    3.0002    0.1621 H   0  0  0  0  0  0  0  0  0  0  0  0
    1.1627    2.6958   -1.6008 H   0  0  0  0  0  0  0  0  0  0  0  0
    3.1433    2.8464   -0.6944 C   0  0  0  0  0  0  0  0  0  0  0  0
    3.9012    1.6728   -0.4714 C   0  0  0  0  0  0  0  0  0  0  0  0
    5.3068    1.6992   -0.5076 C   0  0  0  0  0  0  0  0  0  0  0  0
    5.8984    0.7876   -0.3476 H   0  0  0  0  0  0  0  0  0  0  0  0
    5.9361    2.9293   -0.7518 C   0  0  0  0  0  0  0  0  0  0  0  0
    7.0349    2.9780   -0.7812 H   0  0  0  0  0  0  0  0  0  0  0  0
    5.1823    4.1006   -0.9619 C   0  0  0  0  0  0  0  0  0  0  0  0
    5.7014    5.0529   -1.1492 H   0  0  0  0  0  0  0  0  0  0  0  0
    3.7772    4.0681   -0.9418 C   0  0  0  0  0  0  0  0  0  0  0  0
    3.1924    4.9835   -1.1191 H   0  0  0  0  0  0  0  0  0  0  0  0
    2.9240    0.5843   -0.2847 C   0  0  1  0  0  3  0  0  0  0  0  0
    4.4219   -1.3018    0.2925 C   0  0  0  0  0  0  0  0  0  0  0  0
    4.9809   -0.9530    1.5498 C   0  0  0  0  0  0  0  0  0  0  0  0
    6.2112   -1.5383    1.9062 C   0  0  0  0  0  0  0  0  0  0  0  0
    6.6612   -1.2773    2.8768 H   0  0  0  0  0  0  0  0  0  0  0  0
    6.8490   -2.4586    1.0637 C   0  0  0  0  0  0  0  0  0  0  0  0
    7.8065   -2.9091    1.3660 H   0  0  0  0  0  0  0  0  0  0  0  0
    6.2598   -2.8171   -0.1572 C   0  0  0  0  0  0  0  0  0  0  0  0
    6.7551   -3.5463   -0.8171 H   0  0  0  0  0  0  0  0  0  0  0  0
    5.0414   -2.2464   -0.5657 C   0  0  0  0  0  0  0  0  0  0  0  0
    4.4021   -2.6002   -1.8823 C   0  0  0  0  0  0  0  0  0  0  0  0
    4.1786   -1.6914   -2.4784 H   0  0  0  0  0  0  0  0  0  0  0  0
    3.4261   -3.1139   -1.7472 H   0  0  0  0  0  0  0  0  0  0  0  0
    5.0556   -3.2640   -2.4793 H   0  0  0  0  0  0  0  0  0  0  0  0
    4.2786   -0.0012    2.4832 C   0  0  0  0  0  0  0  0  0  0  0  0
    3.1809   -0.1558    2.4745 H   0  0  0  0  0  0  0  0  0  0  0  0
    4.4484    1.0590    2.1986 H   0  0  0  0  0  0  0  0  0  0  0  0
    4.6451   -0.1264    3.5198 H   0  0  0  0  0  0  0  0  0  0  0  0
  1 17  1  0  0  0  0
  2 18  1  0  0  0  0
  3  2  1  0  0  0  0
  4  1  1  0  0  0  0
  4  5  1  0  0  0  0
  6  4  1  0  0  0  0
  7  4  1  0  0  0  0
  7  8  1  0  0  0  0
  8 17  1  0  0  0  0
  9  8  2  0  0  0  0
  9 10  1  0  0  0  0
 11  9  1  0  0  0  0
 12 11  1  0  0  0  0
 13 15  1  0  0  0  0
 13 11  2  0  0  0  0
 14 13  1  0  0  0  0
 15  7  2  0  0  0  0
 16 15  1  0  0  0  0
 17  2  1  6  0  0  0
 18 19  1  0  0  0  0
 19 20  2  0  0  0  0
 19 31  1  0  0  0  0
 20 21  1  0  0  0  0
 22 23  1  0  0  0  0
 22 20  1  0  0  0  0
 24 22  2  0  0  0  0
 25 24  1  0  0  0  0
 26 24  1  0  0  0  0
 26 18  2  0  0  0  0
 27 29  1  0  0  0  0
 27 26  1  0  0  0  0
 28 27  1  0  0  0  0
 30 27  1  0  0  0  0
 31 34  1  0  0  0  0
 32 31  1  0  0  0  0
 33 31  1  0  0  0  0
M  END
