1
 OpenBabel05122313063D

 33 34  0  0  0  0  0  0  0  0999 V2000
    0.1971    0.1943   -1.0281 N   0  0  0  0  0  2  0  0  0  0  0  0
    2.4491   -0.2631   -1.6662 N   0  0  0  0  0  0  0  0  0  0  0  0
    1.1295   -0.7487   -1.3428 C   0  0  0  0  0  0  0  0  0  0  0  0
    0.8969   -1.9664   -1.3670 O   0  0  0  0  0  0  0  0  0  0  0  0
    0.5781    1.5272   -0.7390 C   0  0  0  0  0  0  0  0  0  0  0  0
    1.5607    1.8217    0.2371 C   0  0  0  0  0  0  0  0  0  0  0  0
    2.0770    0.9929    0.7440 H   0  0  0  0  0  0  0  0  0  0  0  0
    1.8655    3.1450    0.5714 C   0  0  0  0  0  0  0  0  0  0  0  0
    2.6297    3.3396    1.3417 H   0  0  0  0  0  0  0  0  0  0  0  0
    1.2084    4.2340   -0.0429 C   0  0  0  0  0  0  0  0  0  0  0  0
    0.2391    3.9366   -1.0194 C   0  0  0  0  0  0  0  0  0  0  0  0
   -0.2869    4.7612   -1.5273 H   0  0  0  0  0  0  0  0  0  0  0  0
   -0.0703    2.6128   -1.3656 C   0  0  0  0  0  0  0  0  0  0  0  0
   -0.8276    2.4091   -2.1354 H   0  0  0  0  0  0  0  0  0  0  0  0
    1.5508    5.6551    0.3288 C   0  0  0  0  0  0  0  0  0  0  0  0
    2.5789    5.9229    0.0041 H   0  0  0  0  0  0  0  0  0  0  0  0
    1.5153    5.8103    1.4276 H   0  0  0  0  0  0  0  0  0  0  0  0
    0.8556    6.3788   -0.1395 H   0  0  0  0  0  0  0  0  0  0  0  0
    3.5674   -0.7493   -0.9912 C   0  0  0  0  0  0  0  0  0  0  0  0
    3.4402   -1.6265    0.1219 C   0  0  0  0  0  0  0  0  0  0  0  0
    2.4486   -1.9971    0.4068 H   0  0  0  0  0  0  0  0  0  0  0  0
    4.5685   -2.0490    0.8300 C   0  0  0  0  0  0  0  0  0  0  0  0
    4.4327   -2.7321    1.6839 H   0  0  0  0  0  0  0  0  0  0  0  0
    5.8591   -1.6250    0.4680 C   0  0  0  0  0  0  0  0  0  0  0  0
    6.7422   -1.9647    1.0287 H   0  0  0  0  0  0  0  0  0  0  0  0
    5.9936   -0.7617   -0.6284 C   0  0  0  0  0  0  0  0  0  0  0  0
    6.9919   -0.4130   -0.9360 H   0  0  0  0  0  0  0  0  0  0  0  0
    4.8734   -0.3251   -1.3501 C   0  0  0  0  0  0  0  0  0  0  0  0
    5.0203    0.3573   -2.1970 H   0  0  0  0  0  0  0  0  0  0  0  0
    2.6021    0.7118   -2.7308 C   0  0  0  0  0  0  0  0  0  0  0  0
    3.0504    1.6639   -2.3705 H   0  0  0  0  0  0  0  0  0  0  0  0
    1.6086    0.9407   -3.1536 H   0  0  0  0  0  0  0  0  0  0  0  0
    3.2371    0.3074   -3.5495 H   0  0  0  0  0  0  0  0  0  0  0  0
  1  5  1  0  0  0  0
  2  3  1  0  0  0  0
  2 19  1  0  0  0  0
  3  1  1  0  0  0  0
  4  3  2  0  0  0  0
  5  6  1  0  0  0  0
  6  8  2  0  0  0  0
  6  7  1  0  0  0  0
  8  9  1  0  0  0  0
 10 15  1  0  0  0  0
 10  8  1  0  0  0  0
 11 10  2  0  0  0  0
 12 11  1  0  0  0  0
 13 11  1  0  0  0  0
 13  5  2  0  0  0  0
 14 13  1  0  0  0  0
 15 17  1  0  0  0  0
 16 15  1  0  0  0  0
 18 15  1  0  0  0  0
 19 20  1  0  0  0  0
 20 21  1  0  0  0  0
 20 22  2  0  0  0  0
 22 23  1  0  0  0  0
 24 22  1  0  0  0  0
 24 25  1  0  0  0  0
 26 24  2  0  0  0  0
 27 26  1  0  0  0  0
 28 19  2  0  0  0  0
 28 26  1  0  0  0  0
 29 28  1  0  0  0  0
 30 31  1  0  0  0  0
 30  2  1  0  0  0  0
 32 30  1  0  0  0  0
 33 30  1  0  0  0  0
M  END
