3
 OpenBabel05122313063D

 33 35  0  0  1  0  0  0  0  0999 V2000
    1.2588   -0.0315    0.1756 P   0  0  0  0  0  0  0  0  0  0  0  0
    2.5237   -1.2421   -0.3089 C   0  0  0  0  0  0  0  0  0  0  0  0
   -0.4624   -0.0815    1.9889 N   0  0  0  0  0  2  0  0  0  0  0  0
    1.9877    1.6152   -0.1305 C   0  0  0  0  0  0  0  0  0  0  0  0
    0.9017   -0.1056    1.9825 C   0  0  1  0  0  3  0  0  0  0  0  0
    1.6517   -0.2020    3.1521 C   0  0  0  0  0  0  0  0  0  0  0  0
    2.7497   -0.2312    3.1099 H   0  0  0  0  0  0  0  0  0  0  0  0
   -1.1360   -0.1461    3.1499 C   0  0  0  0  0  0  0  0  0  0  0  0
   -2.2341   -0.1441    3.0899 H   0  0  0  0  0  0  0  0  0  0  0  0
   -0.4480   -0.2349    4.3697 C   0  0  0  0  0  0  0  0  0  0  0  0
   -1.0172   -0.2938    5.3081 H   0  0  0  0  0  0  0  0  0  0  0  0
    2.1560   -2.3685   -1.0719 C   0  0  0  0  0  0  0  0  0  0  0  0
    1.1001   -2.5272   -1.3348 H   0  0  0  0  0  0  0  0  0  0  0  0
    1.6388    2.7117    0.6866 C   0  0  0  0  0  0  0  0  0  0  0  0
    0.9912    2.5660    1.5647 H   0  0  0  0  0  0  0  0  0  0  0  0
    0.9544   -0.2664    4.3730 C   0  0  0  0  0  0  0  0  0  0  0  0
    1.5049   -0.3464    5.3221 H   0  0  0  0  0  0  0  0  0  0  0  0
    2.8141    1.8141   -1.2566 C   0  0  0  0  0  0  0  0  0  0  0  0
    3.0942    0.9633   -1.8958 H   0  0  0  0  0  0  0  0  0  0  0  0
    2.9418    4.1895   -0.7413 C   0  0  0  0  0  0  0  0  0  0  0  0
    3.3188    5.1956   -0.9771 H   0  0  0  0  0  0  0  0  0  0  0  0
    2.1207    3.9924    0.3822 C   0  0  0  0  0  0  0  0  0  0  0  0
    1.8574    4.8424    1.0293 H   0  0  0  0  0  0  0  0  0  0  0  0
    4.4740   -3.1096   -1.0559 C   0  0  0  0  0  0  0  0  0  0  0  0
    5.2399   -3.8432   -1.3493 H   0  0  0  0  0  0  0  0  0  0  0  0
    3.2867    3.1007   -1.5575 C   0  0  0  0  0  0  0  0  0  0  0  0
    3.9331    3.2510   -2.4349 H   0  0  0  0  0  0  0  0  0  0  0  0
    3.8689   -1.0469    0.0793 C   0  0  0  0  0  0  0  0  0  0  0  0
    4.1614   -0.1552    0.6553 H   0  0  0  0  0  0  0  0  0  0  0  0
    4.8384   -1.9873   -0.2918 C   0  0  0  0  0  0  0  0  0  0  0  0
    5.8858   -1.8408    0.0112 H   0  0  0  0  0  0  0  0  0  0  0  0
    3.1390   -3.2969   -1.4460 C   0  0  0  0  0  0  0  0  0  0  0  0
    2.8559   -4.1777   -2.0410 H   0  0  0  0  0  0  0  0  0  0  0  0
  2 28  1  0  0  0  0
  2  1  1  0  0  0  0
  3  8  1  0  0  0  0
  4  1  1  0  0  0  0
  4 14  1  0  0  0  0
  5  1  1  6  0  0  0
  5  3  1  0  0  0  0
  5  6  1  0  0  0  0
  6 16  2  0  0  0  0
  7  6  1  0  0  0  0
  8 10  2  0  0  0  0
  9  8  1  0  0  0  0
 10 16  1  0  0  0  0
 10 11  1  0  0  0  0
 12  2  2  0  0  0  0
 13 12  1  0  0  0  0
 14 15  1  0  0  0  0
 16 17  1  0  0  0  0
 18  4  2  0  0  0  0
 19 18  1  0  0  0  0
 20 22  1  0  0  0  0
 21 20  1  0  0  0  0
 22 14  2  0  0  0  0
 22 23  1  0  0  0  0
 24 30  1  0  0  0  0
 25 24  1  0  0  0  0
 26 18  1  0  0  0  0
 26 20  2  0  0  0  0
 27 26  1  0  0  0  0
 28 29  1  0  0  0  0
 30 31  1  0  0  0  0
 30 28  2  0  0  0  0
 32 12  1  0  0  0  0
 32 24  2  0  0  0  0
 33 32  1  0  0  0  0
M  END
