4
 OpenBabel05122313063D

 19 20  0  0  1  0  0  0  0  0999 V2000
   -2.1234    3.1035    0.9487 S   0  0  0  0  0  0  0  0  0  0  0  0
   -3.1833   -2.9770   -1.3712 O   0  0  0  0  0  0  0  0  0  0  0  0
   -5.2667   -2.3198   -1.2931 O   0  0  0  0  0  0  0  0  0  0  0  0
   -0.5913    1.0890    0.3685 N   0  0  0  0  0  2  0  0  0  0  0  0
   -4.0527   -2.1407   -1.1319 N   0  0  0  0  0  0  0  0  0  0  0  0
   -0.5452    2.3246    0.8397 C   0  0  1  0  0  3  0  0  0  0  0  0
   -1.8905    0.6670    0.0879 C   0  0  0  0  0  0  0  0  0  0  0  0
   -2.2605   -0.6009   -0.3941 C   0  0  0  0  0  0  0  0  0  0  0  0
   -1.5013   -1.3740   -0.5751 H   0  0  0  0  0  0  0  0  0  0  0  0
   -3.6222   -0.8233   -0.6168 C   0  0  0  0  0  0  0  0  0  0  0  0
   -4.6165    0.1504   -0.3740 C   0  0  0  0  0  0  0  0  0  0  0  0
   -5.6627   -0.1132   -0.5741 H   0  0  0  0  0  0  0  0  0  0  0  0
   -4.2486    1.4055    0.1086 C   0  0  0  0  0  0  0  0  0  0  0  0
   -5.0063    2.1777    0.3043 H   0  0  0  0  0  0  0  0  0  0  0  0
   -2.8824    1.6554    0.3396 C   0  0  0  0  0  0  0  0  0  0  0  0
    0.6964    3.0292    1.2452 C   0  0  0  0  0  0  0  0  0  0  0  0
    1.3447    3.1377    0.3451 H   0  0  0  0  0  0  0  0  0  0  0  0
    1.2597    2.3879    1.9544 H   0  0  0  0  0  0  0  0  0  0  0  0
    0.4780    4.0151    1.6982 H   0  0  0  0  0  0  0  0  0  0  0  0
  2  5  2  0  0  0  0
  3  5  2  0  0  0  0
  4  6  1  0  0  0  0
  5 10  1  0  0  0  0
  6  1  1  0  0  0  0
  6 16  1  6  0  0  0
  7 15  1  0  0  0  0
  7  4  1  0  0  0  0
  8  7  2  0  0  0  0
  9  8  1  0  0  0  0
 10  8  1  0  0  0  0
 10 11  2  0  0  0  0
 11 13  1  0  0  0  0
 12 11  1  0  0  0  0
 13 14  1  0  0  0  0
 13 15  2  0  0  0  0
 15  1  1  0  0  0  0
 16 19  1  0  0  0  0
 16 18  1  0  0  0  0
 17 16  1  0  0  0  0
M  END
