26
 OpenBabel05122313063D

 26 25  0  0  0  0  0  0  0  0999 V2000
    4.1119   -0.7606   -0.2218 Si  0  0  0  0  0  0  0  0  0  0  0  0
    1.2067    1.5886    0.8861 C   0  0  0  0  0  3  0  0  0  0  0  0
    1.1809    1.7758    2.4051 C   0  0  0  0  0  0  0  0  0  0  0  0
    2.2093    1.7474    2.8368 H   0  0  0  0  0  0  0  0  0  0  0  0
    0.5870    0.9898    2.9149 H   0  0  0  0  0  0  0  0  0  0  0  0
    0.7581    2.7617    2.6847 H   0  0  0  0  0  0  0  0  0  0  0  0
    1.9501    2.7201    0.1772 C   0  0  0  0  0  0  0  0  0  0  0  0
    2.9847    2.8413    0.5746 H   0  0  0  0  0  0  0  0  0  0  0  0
    1.4469    3.7005    0.3257 H   0  0  0  0  0  0  0  0  0  0  0  0
    2.0367    2.5416   -0.9137 H   0  0  0  0  0  0  0  0  0  0  0  0
    2.5907   -0.5972    0.9434 C   0  0  0  0  0  0  0  0  0  0  0  0
    2.1965   -1.6276    1.0871 H   0  0  0  0  0  0  0  0  0  0  0  0
    2.9454   -0.2542    1.9425 H   0  0  0  0  0  0  0  0  0  0  0  0
    3.5321   -1.2192   -1.9597 C   0  0  0  0  0  0  0  0  0  0  0  0
    4.3956   -1.4370   -2.6209 H   0  0  0  0  0  0  0  0  0  0  0  0
    2.9548   -0.3883   -2.4120 H   0  0  0  0  0  0  0  0  0  0  0  0
    2.8775   -2.1139   -1.9369 H   0  0  0  0  0  0  0  0  0  0  0  0
    5.1800   -2.1398    0.5131 C   0  0  0  0  0  0  0  0  0  0  0  0
    6.0918   -2.3032   -0.0976 H   0  0  0  0  0  0  0  0  0  0  0  0
    4.6220   -3.0978    0.5529 H   0  0  0  0  0  0  0  0  0  0  0  0
    5.5053   -1.8930    1.5448 H   0  0  0  0  0  0  0  0  0  0  0  0
    5.1112    0.8468   -0.2813 C   0  0  0  0  0  0  0  0  0  0  0  0
    6.0481    0.6965   -0.8571 H   0  0  0  0  0  0  0  0  0  0  0  0
    5.3920    1.1872    0.7367 H   0  0  0  0  0  0  0  0  0  0  0  0
    4.5432    1.6630   -0.7701 H   0  0  0  0  0  0  0  0  0  0  0  0
    1.5252    0.2474    0.4689 N   0  0  0  0  0  2  0  0  0  0  0  0
  1 18  1  0  0  0  0
  1 11  1  0  0  0  0
  2  3  1  0  0  0  0
  3  6  1  0  0  0  0
  3  4  1  0  0  0  0
  3  5  1  0  0  0  0
  7  9  1  0  0  0  0
  7  8  1  0  0  0  0
  7  2  1  0  0  0  0
 10  7  1  0  0  0  0
 11 12  1  0  0  0  0
 11 13  1  0  0  0  0
 14 17  1  0  0  0  0
 14  1  1  0  0  0  0
 15 14  1  0  0  0  0
 16 14  1  0  0  0  0
 18 20  1  0  0  0  0
 18 21  1  0  0  0  0
 19 18  1  0  0  0  0
 22  1  1  0  0  0  0
 22 24  1  0  0  0  0
 23 22  1  0  0  0  0
 25 22  1  0  0  0  0
 26  2  1  0  0  0  0
 26 11  1  0  0  0  0
M  END
