1
 OpenBabel05122313063D

 33 32  0  0  1  0  0  0  0  0999 V2000
    2.1494   -0.4831   -0.6931 N   0  0  0  0  0  2  0  0  0  0  0  0
    1.7320    0.6910    1.2817 N   0  0  0  0  0  0  0  0  0  0  0  0
    0.7248    0.4597    1.0971 H   0  0  0  0  0  0  0  0  0  0  0  0
    3.9577    0.3727    0.6127 N   0  0  0  0  0  0  0  0  0  0  0  0
    2.5994    0.1801    0.3683 C   0  0  1  0  0  3  0  0  0  0  0  0
    3.0088   -1.4668   -1.3802 C   0  0  0  0  0  0  0  0  0  0  0  0
    4.0302   -1.4255   -0.9479 H   0  0  0  0  0  0  0  0  0  0  0  0
    2.4736   -2.8840   -1.1291 C   0  0  0  0  0  0  0  0  0  0  0  0
    1.4503   -2.9970   -1.5422 H   0  0  0  0  0  0  0  0  0  0  0  0
    2.4318   -3.1068   -0.0448 H   0  0  0  0  0  0  0  0  0  0  0  0
    3.1234   -3.6384   -1.6172 H   0  0  0  0  0  0  0  0  0  0  0  0
    3.0945   -1.1606   -2.8795 C   0  0  0  0  0  0  0  0  0  0  0  0
    3.7426   -1.8974   -3.3948 H   0  0  0  0  0  0  0  0  0  0  0  0
    3.5054   -0.1482   -3.0657 H   0  0  0  0  0  0  0  0  0  0  0  0
    2.0870   -1.2069   -3.3407 H   0  0  0  0  0  0  0  0  0  0  0  0
    1.9448    1.9816    1.9585 C   0  0  0  0  0  0  0  0  0  0  0  0
    2.9421    1.9635    2.4433 H   0  0  0  0  0  0  0  0  0  0  0  0
    1.9262    3.1485    0.9609 C   0  0  0  0  0  0  0  0  0  0  0  0
    0.9457    3.2159    0.4506 H   0  0  0  0  0  0  0  0  0  0  0  0
    2.7105    3.0196    0.1878 H   0  0  0  0  0  0  0  0  0  0  0  0
    2.1137    4.1112    1.4782 H   0  0  0  0  0  0  0  0  0  0  0  0
    0.8982    2.1344    3.0635 C   0  0  0  0  0  0  0  0  0  0  0  0
    1.0499    3.0850    3.6108 H   0  0  0  0  0  0  0  0  0  0  0  0
    0.9615    1.2984    3.7874 H   0  0  0  0  0  0  0  0  0  0  0  0
   -0.1275    2.1432    2.6433 H   0  0  0  0  0  0  0  0  0  0  0  0
    4.5298    0.1942    1.9317 C   0  0  0  0  0  0  0  0  0  0  0  0
    3.7621   -0.2004    2.6222 H   0  0  0  0  0  0  0  0  0  0  0  0
    4.9380    1.1418    2.3544 H   0  0  0  0  0  0  0  0  0  0  0  0
    5.3676   -0.5387    1.8886 H   0  0  0  0  0  0  0  0  0  0  0  0
    4.8699    0.7996   -0.4285 C   0  0  0  0  0  0  0  0  0  0  0  0
    5.3984    1.7277   -0.1116 H   0  0  0  0  0  0  0  0  0  0  0  0
    4.3081    1.0258   -1.3524 H   0  0  0  0  0  0  0  0  0  0  0  0
    5.6452    0.0355   -0.6671 H   0  0  0  0  0  0  0  0  0  0  0  0
  2 16  1  0  0  0  0
  3  2  1  0  0  0  0
  4 26  1  0  0  0  0
  5  1  1  1  0  0  0
  5  4  1  0  0  0  0
  5  2  1  0  0  0  0
  6  8  1  0  0  0  0
  6  7  1  0  0  0  0
  6  1  1  0  0  0  0
  8 10  1  0  0  0  0
  9  8  1  0  0  0  0
 11  8  1  0  0  0  0
 12  6  1  0  0  0  0
 13 12  1  0  0  0  0
 14 12  1  0  0  0  0
 15 12  1  0  0  0  0
 16 17  1  0  0  0  0
 16 22  1  0  0  0  0
 18 21  1  0  0  0  0
 18 16  1  0  0  0  0
 19 18  1  0  0  0  0
 20 18  1  0  0  0  0
 22 23  1  0  0  0  0
 22 24  1  0  0  0  0
 25 22  1  0  0  0  0
 26 28  1  0  0  0  0
 26 27  1  0  0  0  0
 29 26  1  0  0  0  0
 30 31  1  0  0  0  0
 30  4  1  0  0  0  0
 32 30  1  0  0  0  0
 33 30  1  0  0  0  0
M  END
