39
 OpenBabel05122313063D

 39 41  0  0  1  0  0  0  0  0999 V2000
    2.2900   -0.2444    1.3299 Se  0  0  0  0  0  0  0  0  0  0  0  0
   -2.2504    1.1502    0.2240 Se  0  0  0  0  0  0  0  0  0  0  0  0
   -0.1399    2.3839   -1.2897 C   0  0  2  0  0  3  0  0  0  0  0  0
   -3.4867   -0.1332   -0.5601 C   0  0  0  0  0  0  0  0  0  0  0  0
   -4.6902    0.3639   -1.0926 C   0  0  0  0  0  0  0  0  0  0  0  0
   -4.9071    1.4433   -1.0744 H   0  0  0  0  0  0  0  0  0  0  0  0
    3.1046   -1.1421   -0.1884 C   0  0  0  0  0  0  0  0  0  0  0  0
   -1.5050    1.8154   -1.5180 C   0  0  0  0  0  0  0  0  0  0  0  0
   -1.4647    0.9064   -2.1498 H   0  0  0  0  0  0  0  0  0  0  0  0
   -2.1898    2.5519   -1.9771 H   0  0  0  0  0  0  0  0  0  0  0  0
    1.9210    2.2486   -0.1448 C   0  0  0  0  0  0  0  0  0  0  0  0
   -3.2199   -1.5122   -0.5438 C   0  0  0  0  0  0  0  0  0  0  0  0
   -2.2828   -1.8841   -0.1086 H   0  0  0  0  0  0  0  0  0  0  0  0
    3.4359   -0.4977   -1.3932 C   0  0  0  0  0  0  0  0  0  0  0  0
    3.2662    0.5799   -1.5257 H   0  0  0  0  0  0  0  0  0  0  0  0
    2.4184    3.3428   -0.8707 C   0  0  0  0  0  0  0  0  0  0  0  0
    3.4399    3.6976   -0.6737 H   0  0  0  0  0  0  0  0  0  0  0  0
    2.7479    1.6376    0.9461 C   0  0  0  0  0  0  0  0  0  0  0  0
    2.4721    2.1092    1.9138 H   0  0  0  0  0  0  0  0  0  0  0  0
    3.8352    1.7431    0.7724 H   0  0  0  0  0  0  0  0  0  0  0  0
    0.3019    3.5076   -2.0039 C   0  0  0  0  0  0  0  0  0  0  0  0
   -0.3771    3.9917   -2.7194 H   0  0  0  0  0  0  0  0  0  0  0  0
    1.6019    3.9860   -1.8067 C   0  0  0  0  0  0  0  0  0  0  0  0
    1.9707    4.8567   -2.3679 H   0  0  0  0  0  0  0  0  0  0  0  0
    3.3114   -2.5258   -0.0403 C   0  0  0  0  0  0  0  0  0  0  0  0
    3.0623   -3.0274    0.9081 H   0  0  0  0  0  0  0  0  0  0  0  0
    3.9887   -1.2448   -2.4458 C   0  0  0  0  0  0  0  0  0  0  0  0
    4.2630   -0.7377   -3.3832 H   0  0  0  0  0  0  0  0  0  0  0  0
    4.1964   -2.6272   -2.3057 C   0  0  0  0  0  0  0  0  0  0  0  0
    4.6382   -3.2050   -3.1312 H   0  0  0  0  0  0  0  0  0  0  0  0
   -5.6210   -0.5311   -1.6424 C   0  0  0  0  0  0  0  0  0  0  0  0
   -6.5613   -0.1467   -2.0650 H   0  0  0  0  0  0  0  0  0  0  0  0
   -4.1649   -2.3986   -1.0856 C   0  0  0  0  0  0  0  0  0  0  0  0
   -3.9657   -3.4810   -1.0726 H   0  0  0  0  0  0  0  0  0  0  0  0
   -5.3595   -1.9107   -1.6389 C   0  0  0  0  0  0  0  0  0  0  0  0
   -6.0958   -2.6099   -2.0622 H   0  0  0  0  0  0  0  0  0  0  0  0
    3.8529   -3.2663   -1.1029 C   0  0  0  0  0  0  0  0  0  0  0  0
    4.0237   -4.3465   -0.9810 H   0  0  0  0  0  0  0  0  0  0  0  0
    0.6624    1.7637   -0.3693 N   0  0  0  0  0  2  0  0  0  0  0  0
  3  8  1  6  0  0  0
  3 39  1  0  0  0  0
  4 12  1  0  0  0  0
  4  2  1  0  0  0  0
  5  6  1  0  0  0  0
  5  4  2  0  0  0  0
  7 25  1  0  0  0  0
  7  1  1  0  0  0  0
  8  2  1  0  0  0  0
  9  8  1  0  0  0  0
 10  8  1  0  0  0  0
 11 18  1  0  0  0  0
 12 13  1  0  0  0  0
 14  7  2  0  0  0  0
 15 14  1  0  0  0  0
 16 17  1  0  0  0  0
 16 11  2  0  0  0  0
 18  1  1  0  0  0  0
 18 19  1  0  0  0  0
 20 18  1  0  0  0  0
 21 23  2  0  0  0  0
 21  3  1  0  0  0  0
 22 21  1  0  0  0  0
 23 16  1  0  0  0  0
 24 23  1  0  0  0  0
 25 26  1  0  0  0  0
 27 29  2  0  0  0  0
 27 14  1  0  0  0  0
 28 27  1  0  0  0  0
 29 37  1  0  0  0  0
 30 29  1  0  0  0  0
 31 35  2  0  0  0  0
 31  5  1  0  0  0  0
 32 31  1  0  0  0  0
 33 34  1  0  0  0  0
 33 12  2  0  0  0  0
 35 33  1  0  0  0  0
 36 35  1  0  0  0  0
 37 38  1  0  0  0  0
 37 25  2  0  0  0  0
 39 11  1  0  0  0  0
M  END
