4
 OpenBabel05122313063D

 16 16  0  0  0  0  0  0  0  0999 V2000
    4.6001    3.6842   -1.3402 O   0  0  0  0  0  0  0  0  0  0  0  0
    6.3016    4.0855    0.5397 O   0  0  0  0  0  0  0  0  0  0  0  0
    6.0117    4.4493   -0.3487 H   0  0  0  0  0  0  0  0  0  0  0  0
    1.5009   -0.1108   -0.1247 N   0  0  0  0  0  2  0  0  0  0  0  0
    5.4399    3.0189    0.6319 N   0  0  0  0  0  0  0  0  0  0  0  0
    5.3239    2.6748    1.5867 H   0  0  0  0  0  0  0  0  0  0  0  0
    1.3977    0.9102   -1.0060 C   0  0  0  0  0  3  0  0  0  0  0  0
    0.5184    0.8865   -1.6664 H   0  0  0  0  0  0  0  0  0  0  0  0
    2.3804    1.8947   -1.0947 C   0  0  0  0  0  0  0  0  0  0  0  0
    2.2953    2.7192   -1.8159 H   0  0  0  0  0  0  0  0  0  0  0  0
    3.5077    1.8222   -0.2549 C   0  0  0  0  0  0  0  0  0  0  0  0
    3.6129    0.7284    0.6256 C   0  0  0  0  0  0  0  0  0  0  0  0
    4.4969    0.5742    1.2607 H   0  0  0  0  0  0  0  0  0  0  0  0
    2.5889   -0.2193    0.6722 C   0  0  0  0  0  0  0  0  0  0  0  0
    2.6117   -1.0920    1.3395 H   0  0  0  0  0  0  0  0  0  0  0  0
    4.5294    2.9013   -0.3772 C   0  0  0  0  0  0  0  0  0  0  0  0
  1 16  2  0  0  0  0
  2  5  1  0  0  0  0
  3  2  1  0  0  0  0
  4 14  1  0  0  0  0
  5  6  1  0  0  0  0
  7  4  1  0  0  0  0
  8  7  1  0  0  0  0
  9  7  1  0  0  0  0
  9 11  2  0  0  0  0
 10  9  1  0  0  0  0
 11 12  1  0  0  0  0
 12 14  2  0  0  0  0
 12 13  1  0  0  0  0
 14 15  1  0  0  0  0
 16 11  1  0  0  0  0
 16  5  1  0  0  0  0
M  END
