3
 OpenBabel05122313063D

 20 20  0  0  1  0  0  0  0  0999 V2000
   -3.5107   -0.0054   -1.3188 O   0  0  0  0  0  0  0  0  0  0  0  0
   -3.7786   -1.1694    0.6163 O   0  0  0  0  0  0  0  0  0  0  0  0
   -1.0989    0.9967   -0.3312 N   0  0  0  0  0  0  0  0  0  0  0  0
   -1.4070    0.7047   -1.2793 H   0  0  0  0  0  0  0  0  0  0  0  0
   -2.1779    0.5775    0.6165 C   0  0  1  0  0  0  0  0  0  0  0  0
   -1.7667   -0.0521    1.4254 H   0  0  0  0  0  0  0  0  0  0  0  0
   -2.8015    1.8992    1.1438 C   0  0  0  0  0  0  0  0  0  0  0  0
   -3.8871    1.8021    1.3389 H   0  0  0  0  0  0  0  0  0  0  0  0
   -2.3158    2.1764    2.1024 H   0  0  0  0  0  0  0  0  0  0  0  0
   -2.4493    2.9192    0.0514 C   0  0  0  0  0  0  0  0  0  0  0  0
   -3.1306    2.8010   -0.8159 H   0  0  0  0  0  0  0  0  0  0  0  0
   -2.5038    3.9698    0.3979 H   0  0  0  0  0  0  0  0  0  0  0  0
   -1.0344    2.4835   -0.3316 C   0  0  0  0  0  0  0  0  0  0  0  0
   -0.3017    2.8136    0.4321 H   0  0  0  0  0  0  0  0  0  0  0  0
   -0.6679    2.8149   -1.3203 H   0  0  0  0  0  0  0  0  0  0  0  0
   -3.2043   -0.2370   -0.1628 C   0  0  0  0  0  0  0  0  0  0  0  0
   -4.7097   -2.0313   -0.0538 C   0  0  0  0  0  0  0  0  0  0  0  0
   -5.4957   -1.4445   -0.5691 H   0  0  0  0  0  0  0  0  0  0  0  0
   -5.1496   -2.6753    0.7280 H   0  0  0  0  0  0  0  0  0  0  0  0
   -4.1724   -2.6450   -0.8046 H   0  0  0  0  0  0  0  0  0  0  0  0
  1 16  2  0  0  0  0
  3  5  1  0  0  0  0
  4  3  1  0  0  0  0
  5  7  1  0  0  0  0
  5  6  1  1  0  0  0
  7  8  1  0  0  0  0
  7  9  1  0  0  0  0
 10 12  1  0  0  0  0
 10  7  1  0  0  0  0
 11 10  1  0  0  0  0
 13  3  1  0  0  0  0
 13 10  1  0  0  0  0
 13 14  1  0  0  0  0
 15 13  1  0  0  0  0
 16  2  1  0  0  0  0
 16  5  1  0  0  0  0
 17  2  1  0  0  0  0
 17 19  1  0  0  0  0
 18 17  1  0  0  0  0
 20 17  1  0  0  0  0
M  END
