1
 OpenBabel05122313063D

 27 26  0  0  0  0  0  0  0  0999 V2000
   -1.8484    0.0010    0.0009 N   0  0  0  0  0  2  0  0  0  0  0  0
   -2.5256   -0.9693    0.8797 C   0  0  0  0  0  0  0  0  0  0  0  0
   -3.0029   -2.2289    0.1090 C   0  0  0  0  0  0  0  0  0  0  0  0
   -3.3818   -3.0091    0.8023 H   0  0  0  0  0  0  0  0  0  0  0  0
   -2.1563   -2.6544   -0.4672 H   0  0  0  0  0  0  0  0  0  0  0  0
   -3.8133   -1.9963   -0.6053 H   0  0  0  0  0  0  0  0  0  0  0  0
   -1.4816   -1.4405    1.9148 C   0  0  0  0  0  0  0  0  0  0  0  0
   -1.8997   -2.2124    2.5917 H   0  0  0  0  0  0  0  0  0  0  0  0
   -1.1317   -0.5887    2.5337 H   0  0  0  0  0  0  0  0  0  0  0  0
   -0.5968   -1.8976    1.4148 H   0  0  0  0  0  0  0  0  0  0  0  0
   -3.7099   -0.3838    1.6824 C   0  0  0  0  0  0  0  0  0  0  0  0
   -4.1168   -1.1488    2.3751 H   0  0  0  0  0  0  0  0  0  0  0  0
   -4.5421   -0.0611    1.0284 H   0  0  0  0  0  0  0  0  0  0  0  0
   -3.3832    0.4872    2.2840 H   0  0  0  0  0  0  0  0  0  0  0  0
   -2.5262    0.9692   -0.8797 C   0  0  0  0  0  0  0  0  0  0  0  0
   -3.0103    2.2268   -0.1101 C   0  0  0  0  0  0  0  0  0  0  0  0
   -3.8227    1.9913    0.6010 H   0  0  0  0  0  0  0  0  0  0  0  0
   -3.3892    3.0061   -0.8045 H   0  0  0  0  0  0  0  0  0  0  0  0
   -2.1672    2.6547    0.4695 H   0  0  0  0  0  0  0  0  0  0  0  0
   -1.4804    1.4447   -1.9110 C   0  0  0  0  0  0  0  0  0  0  0  0
   -1.8989    2.2158   -2.5886 H   0  0  0  0  0  0  0  0  0  0  0  0
   -1.1257    0.5947   -2.5297 H   0  0  0  0  0  0  0  0  0  0  0  0
   -0.5988    1.9043   -1.4076 H   0  0  0  0  0  0  0  0  0  0  0  0
   -3.7056    0.3798   -1.6867 C   0  0  0  0  0  0  0  0  0  0  0  0
   -4.1131    1.1435   -2.3805 H   0  0  0  0  0  0  0  0  0  0  0  0
   -4.5389    0.0538   -1.0356 H   0  0  0  0  0  0  0  0  0  0  0  0
   -3.3738   -0.4899   -2.2874 H   0  0  0  0  0  0  0  0  0  0  0  0
  1  2  1  0  0  0  0
  2 11  1  0  0  0  0
  2  7  1  0  0  0  0
  3  4  1  0  0  0  0
  3  2  1  0  0  0  0
  5  3  1  0  0  0  0
  6  3  1  0  0  0  0
  7  9  1  0  0  0  0
  7  8  1  0  0  0  0
 10  7  1  0  0  0  0
 11 14  1  0  0  0  0
 11 12  1  0  0  0  0
 13 11  1  0  0  0  0
 15 16  1  0  0  0  0
 15  1  1  0  0  0  0
 16 19  1  0  0  0  0
 16 17  1  0  0  0  0
 18 16  1  0  0  0  0
 20 23  1  0  0  0  0
 20 15  1  0  0  0  0
 21 20  1  0  0  0  0
 22 20  1  0  0  0  0
 24 26  1  0  0  0  0
 24 15  1  0  0  0  0
 25 24  1  0  0  0  0
 27 24  1  0  0  0  0
M  END
