1
 OpenBabel05122313063D

 19 19  0  0  0  0  0  0  0  0999 V2000
    2.0357   -0.3732    0.0000 N   0  0  0  0  0  0  0  0  0  0  0  0
    2.0585   -1.4129    0.0001 H   0  0  0  0  0  0  0  0  0  0  0  0
    2.7285    0.1176    1.2215 C   0  0  0  0  0  0  0  0  0  0  0  0
    2.5859    1.2155    1.2486 H   0  0  0  0  0  0  0  0  0  0  0  0
    2.2197   -0.3211    2.1008 H   0  0  0  0  0  0  0  0  0  0  0  0
    4.2110   -0.2460    1.1984 C   0  0  0  0  0  0  0  0  0  0  0  0
    4.8572    0.2657   -0.0000 N   0  0  0  0  0  0  0  0  0  0  0  0
    4.2110   -0.2461   -1.1984 C   0  0  0  0  0  0  0  0  0  0  0  0
    4.7007    0.1920   -2.0932 H   0  0  0  0  0  0  0  0  0  0  0  0
    4.3231   -1.3651   -1.2870 H   0  0  0  0  0  0  0  0  0  0  0  0
    2.7284    0.1175   -1.2216 C   0  0  0  0  0  0  0  0  0  0  0  0
    2.2196   -0.3213   -2.1007 H   0  0  0  0  0  0  0  0  0  0  0  0
    2.5858    1.2154   -1.2487 H   0  0  0  0  0  0  0  0  0  0  0  0
    6.2904    0.0532   -0.0001 C   0  0  0  0  0  0  0  0  0  0  0  0
    6.7435    0.5226   -0.8969 H   0  0  0  0  0  0  0  0  0  0  0  0
    6.7435    0.5226    0.8967 H   0  0  0  0  0  0  0  0  0  0  0  0
    6.5796   -1.0326   -0.0001 H   0  0  0  0  0  0  0  0  0  0  0  0
    4.3231   -1.3650    1.2871 H   0  0  0  0  0  0  0  0  0  0  0  0
    4.7008    0.1921    2.0931 H   0  0  0  0  0  0  0  0  0  0  0  0
  1  2  1  0  0  0  0
  1  3  1  0  0  0  0
  3  4  1  0  0  0  0
  3  5  1  0  0  0  0
  6  3  1  0  0  0  0
  6 18  1  0  0  0  0
  6 19  1  0  0  0  0
  7  6  1  0  0  0  0
  8  7  1  0  0  0  0
  9  8  1  0  0  0  0
 10  8  1  0  0  0  0
 11  8  1  0  0  0  0
 11  1  1  0  0  0  0
 12 11  1  0  0  0  0
 13 11  1  0  0  0  0
 14  7  1  0  0  0  0
 14 16  1  0  0  0  0
 15 14  1  0  0  0  0
 17 14  1  0  0  0  0
M  END
