3
 OpenBabel05122313063D

 22 21  0  0  1  0  0  0  0  0999 V2000
   -4.8969    1.4881   -0.5490 O   0  0  0  0  0  0  0  0  0  0  0  0
   -6.7047    0.3925    0.2876 O   0  0  0  0  0  0  0  0  0  0  0  0
   -1.1792   -1.6083   -0.3894 N   0  0  0  0  0  2  0  0  0  0  0  0
   -3.3323   -0.7493   -0.2777 N   0  0  0  0  0  0  0  0  0  0  0  0
   -2.4740   -1.7853   -0.2802 C   0  0  2  0  0  3  0  0  0  0  0  0
   -3.0370   -3.1869   -0.1404 C   0  0  0  0  0  0  0  0  0  0  0  0
   -2.0133   -4.3159   -0.2283 C   0  0  0  0  0  0  0  0  0  0  0  0
   -4.6972   -0.8276    0.1684 C   0  0  0  0  0  0  0  0  0  0  0  0
   -5.4109    0.4916   -0.0884 C   0  0  0  0  0  0  0  0  0  0  0  0
   -7.4816    1.5880    0.1220 C   0  0  0  0  0  0  0  0  0  0  0  0
   -0.6159   -2.4629   -0.4244 H   0  0  0  0  0  0  0  0  0  0  0  0
   -2.9347    0.2039   -0.4075 H   0  0  0  0  0  0  0  0  0  0  0  0
   -3.8342   -3.3203   -0.9032 H   0  0  0  0  0  0  0  0  0  0  0  0
   -3.5553   -3.2250    0.8431 H   0  0  0  0  0  0  0  0  0  0  0  0
   -4.7784   -1.0407    1.2611 H   0  0  0  0  0  0  0  0  0  0  0  0
   -5.2712   -1.6275   -0.3466 H   0  0  0  0  0  0  0  0  0  0  0  0
   -2.5073   -5.2944   -0.0768 H   0  0  0  0  0  0  0  0  0  0  0  0
   -1.2285   -4.2139    0.5487 H   0  0  0  0  0  0  0  0  0  0  0  0
   -1.5175   -4.3431   -1.2198 H   0  0  0  0  0  0  0  0  0  0  0  0
   -7.5052    1.8969   -0.9422 H   0  0  0  0  0  0  0  0  0  0  0  0
   -7.0529    2.4194    0.7165 H   0  0  0  0  0  0  0  0  0  0  0  0
   -8.4982    1.3431    0.4763 H   0  0  0  0  0  0  0  0  0  0  0  0
  1  9  2  0  0  0  0
  4  8  1  0  0  0  0
  5  3  1  1  0  0  0
  5  4  1  0  0  0  0
  5  6  1  0  0  0  0
  6 14  1  0  0  0  0
  7  6  1  0  0  0  0
  7 17  1  0  0  0  0
  7 18  1  0  0  0  0
  8 15  1  0  0  0  0
  9  8  1  0  0  0  0
  9  2  1  0  0  0  0
 10  2  1  0  0  0  0
 10 22  1  0  0  0  0
 10 21  1  0  0  0  0
 11  3  1  0  0  0  0
 12  4  1  0  0  0  0
 13  6  1  0  0  0  0
 16  8  1  0  0  0  0
 19  7  1  0  0  0  0
 20 10  1  0  0  0  0
M  END
