3
 OpenBabel05122313063D

 16 16  0  0  0  0  0  0  0  0999 V2000
   -2.2960   -1.7586   -0.4166 O   0  0  0  0  0  0  0  0  0  0  0  0
   -1.4402   -2.2566   -0.2301 H   0  0  0  0  0  0  0  0  0  0  0  0
   -1.9770   -0.4745   -0.0923 N   0  0  0  0  0  2  0  0  0  0  0  0
   -2.9661    0.3624    0.0933 C   0  0  0  0  0  3  0  0  0  0  0  0
   -2.6117    1.3830    0.3026 H   0  0  0  0  0  0  0  0  0  0  0  0
   -4.4048    0.1471    0.0462 C   0  0  0  0  0  0  0  0  0  0  0  0
   -5.2045    1.2894    0.3195 C   0  0  0  0  0  0  0  0  0  0  0  0
   -4.7093    2.2485    0.5366 H   0  0  0  0  0  0  0  0  0  0  0  0
   -6.5996    1.2106    0.3157 C   0  0  0  0  0  0  0  0  0  0  0  0
   -7.1996    2.1078    0.5297 H   0  0  0  0  0  0  0  0  0  0  0  0
   -7.2309   -0.0134    0.0382 C   0  0  0  0  0  0  0  0  0  0  0  0
   -8.3295   -0.0798    0.0336 H   0  0  0  0  0  0  0  0  0  0  0  0
   -6.4545   -1.1514   -0.2362 C   0  0  0  0  0  0  0  0  0  0  0  0
   -6.9463   -2.1109   -0.4565 H   0  0  0  0  0  0  0  0  0  0  0  0
   -5.0564   -1.0824   -0.2372 C   0  0  0  0  0  0  0  0  0  0  0  0
   -4.4575   -1.9723   -0.4562 H   0  0  0  0  0  0  0  0  0  0  0  0
  1  2  1  0  0  0  0
  1  3  1  0  0  0  0
  3  4  1  0  0  0  0
  4  5  1  0  0  0  0
  6  4  1  0  0  0  0
  6  7  1  0  0  0  0
  7  8  1  0  0  0  0
  9  7  2  0  0  0  0
  9 10  1  0  0  0  0
 11  9  1  0  0  0  0
 12 11  1  0  0  0  0
 13 11  2  0  0  0  0
 14 13  1  0  0  0  0
 15 13  1  0  0  0  0
 15  6  2  0  0  0  0
 16 15  1  0  0  0  0
M  END
