2
 OpenBabel05122313063D

 23 23  0  0  0  0  0  0  0  0999 V2000
    5.2052    1.0028    0.8779 O   0  0  0  0  0  0  0  0  0  0  0  0
    0.2404   -0.6256   -1.8190 N   0  0  0  0  0  0  0  0  0  0  0  0
    2.6662    0.3456   -0.3129 N   0  0  0  0  0  0  0  0  0  0  0  0
    1.6427   -0.9307   -2.1821 C   0  0  0  0  0  0  0  0  0  0  0  0
    2.5960    0.1899   -1.7588 C   0  0  0  0  0  0  0  0  0  0  0  0
    3.4789   -0.6524    0.3915 C   0  0  0  0  0  0  0  0  0  0  0  0
    4.9697   -0.3027    0.3648 C   0  0  0  0  0  0  0  0  0  0  0  0
    4.4866    1.9820    0.1409 C   0  0  0  0  0  0  0  0  0  0  0  0
    2.9843    1.6893    0.1680 C   0  0  0  0  0  0  0  0  0  0  0  0
   -0.1316    0.1382   -2.4038 H   0  0  0  0  0  0  0  0  0  0  0  0
   -0.3546   -1.4550   -1.9598 H   0  0  0  0  0  0  0  0  0  0  0  0
    1.9163   -1.8889   -1.6960 H   0  0  0  0  0  0  0  0  0  0  0  0
    1.7302   -1.0858   -3.2800 H   0  0  0  0  0  0  0  0  0  0  0  0
    2.2304    1.1485   -2.1837 H   0  0  0  0  0  0  0  0  0  0  0  0
    3.5841   -0.0106   -2.2443 H   0  0  0  0  0  0  0  0  0  0  0  0
    3.2980   -1.6644   -0.0240 H   0  0  0  0  0  0  0  0  0  0  0  0
    3.1363   -0.6879    1.4493 H   0  0  0  0  0  0  0  0  0  0  0  0
    5.3669   -0.3815   -0.6799 H   0  0  0  0  0  0  0  0  0  0  0  0
    5.5503   -1.0058    0.9959 H   0  0  0  0  0  0  0  0  0  0  0  0
    4.8506    2.0175   -0.9183 H   0  0  0  0  0  0  0  0  0  0  0  0
    4.7099    2.9637    0.6069 H   0  0  0  0  0  0  0  0  0  0  0  0
    2.6448    1.7626    1.2282 H   0  0  0  0  0  0  0  0  0  0  0  0
    2.4047    2.4349   -0.4133 H   0  0  0  0  0  0  0  0  0  0  0  0
  3  9  1  0  0  0  0
  3  6  1  0  0  0  0
  4  2  1  0  0  0  0
  4  5  1  0  0  0  0
  4 12  1  0  0  0  0
  5  3  1  0  0  0  0
  6 17  1  0  0  0  0
  7  6  1  0  0  0  0
  7  1  1  0  0  0  0
  7 19  1  0  0  0  0
  8  9  1  0  0  0  0
  8 21  1  0  0  0  0
  8  1  1  0  0  0  0
  9 22  1  0  0  0  0
 10  2  1  0  0  0  0
 11  2  1  0  0  0  0
 13  4  1  0  0  0  0
 14  5  1  0  0  0  0
 15  5  1  0  0  0  0
 16  6  1  0  0  0  0
 18  7  1  0  0  0  0
 20  8  1  0  0  0  0
 23  9  1  0  0  0  0
M  END
