5
 OpenBabel05122313063D

 17 17  0  0  0  0  0  0  0  0999 V2000
    4.1509    2.2582   -0.0652 F   0  0  0  0  0  0  0  0  0  0  0  0
    5.3033    0.8244    1.1088 F   0  0  0  0  0  0  0  0  0  0  0  0
    5.3353    0.7233   -1.0667 F   0  0  0  0  0  0  0  0  0  0  0  0
   -0.1058   -2.1229    0.1056 O   0  0  0  0  0  0  0  0  0  0  0  0
    0.9680   -0.2033    0.0423 N   0  0  0  0  0  2  0  0  0  0  0  0
    1.0600   -1.5724    0.0923 C   0  0  0  0  0  0  0  0  0  0  0  0
    2.3412   -2.1839    0.1152 C   0  0  0  0  0  0  0  0  0  0  0  0
    3.4895   -1.3911    0.0920 C   0  0  0  0  0  0  0  0  0  0  0  0
    3.3362    0.0331    0.0275 C   0  0  0  0  0  0  0  0  0  0  0  0
    2.0502    0.5798   -0.0121 C   0  0  0  0  0  0  0  0  0  0  0  0
    4.8527   -2.0307    0.1214 C   0  0  0  0  0  0  0  0  0  0  0  0
    4.5221    0.9553   -0.0010 C   0  0  0  0  0  0  0  0  0  0  0  0
    2.4064   -3.2805    0.1434 H   0  0  0  0  0  0  0  0  0  0  0  0
    1.8877    1.6649   -0.0825 H   0  0  0  0  0  0  0  0  0  0  0  0
    5.4400   -1.6693    0.9887 H   0  0  0  0  0  0  0  0  0  0  0  0
    4.7754   -3.1320    0.1764 H   0  0  0  0  0  0  0  0  0  0  0  0
    5.4332   -1.7589   -0.7825 H   0  0  0  0  0  0  0  0  0  0  0  0
  1 12  1  0  0  0  0
  3 12  1  0  0  0  0
  5  6  1  0  0  0  0
  6  4  2  0  0  0  0
  6  7  1  0  0  0  0
  7 13  1  0  0  0  0
  8  7  2  0  0  0  0
  8 11  1  0  0  0  0
  9  8  1  0  0  0  0
 10  9  2  0  0  0  0
 10  5  1  0  0  0  0
 11 16  1  0  0  0  0
 11 15  1  0  0  0  0
 12  9  1  0  0  0  0
 12  2  1  0  0  0  0
 14 10  1  0  0  0  0
 17 11  1  0  0  0  0
M  END
