3
 OpenBabel05122313063D

 33 36  0  0  1  0  0  0  0  0999 V2000
   -3.2132    0.9861   -1.0012 N   0  0  0  0  0  0  0  0  0  0  0  0
   -2.6727    2.2011   -0.8856 C   0  0  0  0  0  0  0  0  0  0  0  0
   -1.3308    2.2649   -1.0951 N   0  0  0  0  0  2  0  0  0  0  0  0
   -0.9697    0.9954   -1.3559 C   0  0  1  0  0  3  0  0  0  0  0  0
    0.2391    0.4903   -1.5839 N   0  0  0  0  0  0  0  0  0  0  0  0
    0.3347   -0.8384   -1.7503 C   0  0  0  0  0  0  0  0  0  0  0  0
   -0.8203   -1.6733   -1.7012 C   0  0  0  0  0  0  0  0  0  0  0  0
   -2.0936   -1.1566   -1.4638 C   0  0  0  0  0  0  0  0  0  0  0  0
   -2.1399    0.2088   -1.2875 N   0  0  0  0  0  0  0  0  0  0  0  0
    1.6965   -1.3974   -1.9429 C   0  0  0  0  0  0  0  0  0  0  0  0
    2.7966   -0.5131   -2.0171 C   0  0  0  0  0  0  0  0  0  0  0  0
    4.1004   -1.0040   -2.1454 C   0  0  0  0  0  0  0  0  0  0  0  0
    4.3313   -2.3863   -2.2231 C   0  0  0  0  0  0  0  0  0  0  0  0
    3.2453   -3.2752   -2.1724 C   0  0  0  0  0  0  0  0  0  0  0  0
    1.9406   -2.7875   -2.0294 C   0  0  0  0  0  0  0  0  0  0  0  0
   -3.3048   -1.9937   -1.3817 C   0  0  0  0  0  0  0  0  0  0  0  0
   -3.3603   -3.1941   -2.1314 C   0  0  0  0  0  0  0  0  0  0  0  0
   -4.4654   -4.0458   -2.0334 C   0  0  0  0  0  0  0  0  0  0  0  0
   -5.5329   -3.7182   -1.1806 C   0  0  0  0  0  0  0  0  0  0  0  0
   -5.4887   -2.5290   -0.4375 C   0  0  0  0  0  0  0  0  0  0  0  0
   -4.3914   -1.6648   -0.5389 C   0  0  0  0  0  0  0  0  0  0  0  0
   -3.2489    3.0849   -0.5827 H   0  0  0  0  0  0  0  0  0  0  0  0
   -0.7261   -2.7585   -1.8092 H   0  0  0  0  0  0  0  0  0  0  0  0
    2.6046    0.5665   -1.9622 H   0  0  0  0  0  0  0  0  0  0  0  0
    4.9431   -0.2979   -2.1791 H   0  0  0  0  0  0  0  0  0  0  0  0
    5.3570   -2.7728   -2.3176 H   0  0  0  0  0  0  0  0  0  0  0  0
    3.4174   -4.3603   -2.2338 H   0  0  0  0  0  0  0  0  0  0  0  0
    1.1109   -3.5070   -1.9782 H   0  0  0  0  0  0  0  0  0  0  0  0
   -2.5421   -3.4456   -2.8221 H   0  0  0  0  0  0  0  0  0  0  0  0
   -4.4992   -4.9666   -2.6347 H   0  0  0  0  0  0  0  0  0  0  0  0
   -6.4030   -4.3877   -1.1036 H   0  0  0  0  0  0  0  0  0  0  0  0
   -6.3200   -2.2651    0.2332 H   0  0  0  0  0  0  0  0  0  0  0  0
   -4.3646   -0.7333    0.0376 H   0  0  0  0  0  0  0  0  0  0  0  0
  1  2  2  0  0  0  0
  2 22  1  0  0  0  0
  3  2  1  0  0  0  0
  4  5  1  1  0  0  0
  4  9  1  0  0  0  0
  4  3  1  0  0  0  0
  6  7  1  0  0  0  0
  6  5  2  0  0  0  0
  7  8  2  0  0  0  0
  8 16  1  0  0  0  0
  8  9  1  0  0  0  0
  9  1  1  0  0  0  0
 10  6  1  0  0  0  0
 11 24  1  0  0  0  0
 11 10  1  0  0  0  0
 12 11  2  0  0  0  0
 13 14  2  0  0  0  0
 13 12  1  0  0  0  0
 14 15  1  0  0  0  0
 15 28  1  0  0  0  0
 15 10  2  0  0  0  0
 16 21  1  0  0  0  0
 17 18  1  0  0  0  0
 17 16  2  0  0  0  0
 18 19  2  0  0  0  0
 19 31  1  0  0  0  0
 19 20  1  0  0  0  0
 20 32  1  0  0  0  0
 21 20  2  0  0  0  0
 21 33  1  0  0  0  0
 23  7  1  0  0  0  0
 25 12  1  0  0  0  0
 26 13  1  0  0  0  0
 27 14  1  0  0  0  0
 29 17  1  0  0  0  0
 30 18  1  0  0  0  0
M  END
