2
 OpenBabel05122313063D

 28 28  0  0  0  0  0  0  0  0999 V2000
    4.3588    0.1517    0.2793 P   0  0  0  0  0  0  0  0  0  0  0  0
   -0.2457    0.0868    0.0517 N   0  0  0  0  0  2  0  0  0  0  0  0
    1.7889    0.1132    1.3324 C   0  0  0  0  0  0  0  0  0  0  0  0
    2.2896    0.0970    2.3116 H   0  0  0  0  0  0  0  0  0  0  0  0
    2.5482    0.1735    0.1521 C   0  0  0  0  0  0  0  0  0  0  0  0
    0.4790    0.1457   -1.0921 C   0  0  0  0  0  3  0  0  0  0  0  0
   -0.0936    0.1419   -2.0308 H   0  0  0  0  0  0  0  0  0  0  0  0
    1.8738    0.1898   -1.0818 C   0  0  0  0  0  0  0  0  0  0  0  0
    2.4243    0.2331   -2.0319 H   0  0  0  0  0  0  0  0  0  0  0  0
    0.3953    0.0700    1.2439 C   0  0  0  0  0  0  0  0  0  0  0  0
   -0.2410    0.0049    2.1383 H   0  0  0  0  0  0  0  0  0  0  0  0
    4.8651    0.1404    1.6940 O   0  0  0  0  0  0  0  0  0  0  0  0
    4.7292    1.3878   -0.7081 O   0  0  0  0  0  0  0  0  0  0  0  0
    4.8561   -1.1180   -0.6365 O   0  0  0  0  0  0  0  0  0  0  0  0
    5.1537   -2.3803    0.0058 C   0  0  0  0  0  0  0  0  0  0  0  0
    5.6108   -2.1792    0.9976 H   0  0  0  0  0  0  0  0  0  0  0  0
    5.9159   -2.8619   -0.6396 H   0  0  0  0  0  0  0  0  0  0  0  0
    6.1195    1.6750   -1.0095 C   0  0  0  0  0  0  0  0  0  0  0  0
    6.0885    2.2648   -1.9472 H   0  0  0  0  0  0  0  0  0  0  0  0
    6.6451    0.7207   -1.2292 H   0  0  0  0  0  0  0  0  0  0  0  0
    3.9130   -3.2477    0.1356 C   0  0  0  0  0  0  0  0  0  0  0  0
    4.1834   -4.2430    0.5423 H   0  0  0  0  0  0  0  0  0  0  0  0
    3.4260   -3.3940   -0.8491 H   0  0  0  0  0  0  0  0  0  0  0  0
    3.1739   -2.7909    0.8247 H   0  0  0  0  0  0  0  0  0  0  0  0
    6.7957    2.4424    0.1136 C   0  0  0  0  0  0  0  0  0  0  0  0
    7.8384    2.6902   -0.1709 H   0  0  0  0  0  0  0  0  0  0  0  0
    6.8128    1.8412    1.0435 H   0  0  0  0  0  0  0  0  0  0  0  0
    6.2577    3.3884    0.3216 H   0  0  0  0  0  0  0  0  0  0  0  0
  1 12  2  0  0  0  0
  2 10  1  0  0  0  0
  3  4  1  0  0  0  0
  5  1  1  0  0  0  0
  5  3  1  0  0  0  0
  6  8  1  0  0  0  0
  6  2  1  0  0  0  0
  7  6  1  0  0  0  0
  8  5  2  0  0  0  0
  9  8  1  0  0  0  0
 10  3  2  0  0  0  0
 10 11  1  0  0  0  0
 13  1  1  0  0  0  0
 14 15  1  0  0  0  0
 14  1  1  0  0  0  0
 15 21  1  0  0  0  0
 15 16  1  0  0  0  0
 17 15  1  0  0  0  0
 18 13  1  0  0  0  0
 18 25  1  0  0  0  0
 19 18  1  0  0  0  0
 20 18  1  0  0  0  0
 21 22  1  0  0  0  0
 21 24  1  0  0  0  0
 23 21  1  0  0  0  0
 25 28  1  0  0  0  0
 25 27  1  0  0  0  0
 26 25  1  0  0  0  0
M  END
