10
 OpenBabel05122313063D

 36 38  0  0  1  0  0  0  0  0999 V2000
   -2.4587   -1.2359   -0.1530 S   0  0  0  0  0  0  0  0  0  0  0  0
   -1.8639   -1.0891   -1.4920 O   0  0  0  0  0  0  0  0  0  0  0  0
   -2.4164   -2.5175    0.5802 O   0  0  0  0  0  0  0  0  0  0  0  0
   -0.9947    3.3996   -0.1427 O   0  0  0  0  0  0  0  0  0  0  0  0
   -3.4292    2.9280   -0.6202 O   0  0  0  0  0  0  0  0  0  0  0  0
   -2.5237    3.4032   -0.4859 H   0  0  0  0  0  0  0  0  0  0  0  0
   -1.7671   -0.0218    0.8381 N   0  0  0  0  0  0  0  0  0  0  0  0
    0.3653    1.5964    0.4110 N   0  0  0  0  0  0  0  0  0  0  0  0
    0.3161    0.5788    0.6173 H   0  0  0  0  0  0  0  0  0  0  0  0
    2.6251    1.1807    0.0879 N   0  0  0  0  0  2  0  0  0  0  0  0
   -1.9909    1.2884    0.3235 C   0  0  0  0  0  0  0  0  0  0  0  0
   -3.2275    1.6952   -0.1744 C   0  0  0  0  0  0  0  0  0  0  0  0
   -5.6822    1.2306   -0.4186 C   0  0  0  0  0  0  0  0  0  0  0  0
   -5.8479    2.3151   -0.4859 H   0  0  0  0  0  0  0  0  0  0  0  0
   -6.7515    0.3273   -0.4728 C   0  0  0  0  0  0  0  0  0  0  0  0
   -7.7779    0.7061   -0.5876 H   0  0  0  0  0  0  0  0  0  0  0  0
   -6.5236   -1.0566   -0.3719 C   0  0  0  0  0  0  0  0  0  0  0  0
   -7.3697   -1.7593   -0.4009 H   0  0  0  0  0  0  0  0  0  0  0  0
   -5.2156   -1.5480   -0.2399 C   0  0  0  0  0  0  0  0  0  0  0  0
   -5.0074   -2.6252   -0.1629 H   0  0  0  0  0  0  0  0  0  0  0  0
   -4.1526   -0.6406   -0.2042 C   0  0  0  0  0  0  0  0  0  0  0  0
   -4.3613    0.7606   -0.2679 C   0  0  0  0  0  0  0  0  0  0  0  0
   -1.8964   -0.2053    2.2920 C   0  0  0  0  0  0  0  0  0  0  0  0
   -1.6869   -1.2612    2.5363 H   0  0  0  0  0  0  0  0  0  0  0  0
   -2.9052    0.0857    2.6602 H   0  0  0  0  0  0  0  0  0  0  0  0
   -1.1230    0.4131    2.7860 H   0  0  0  0  0  0  0  0  0  0  0  0
   -0.8535    2.1965    0.1926 C   0  0  0  0  0  0  0  0  0  0  0  0
    1.6345    2.1070    0.2278 C   0  0  1  0  0  3  0  0  0  0  0  0
    1.9197    3.4890    0.1727 C   0  0  0  0  0  0  0  0  0  0  0  0
    1.0869    4.1972    0.2522 H   0  0  0  0  0  0  0  0  0  0  0  0
    3.2431    3.8942    0.0014 C   0  0  0  0  0  0  0  0  0  0  0  0
    3.4823    4.9673   -0.0398 H   0  0  0  0  0  0  0  0  0  0  0  0
    4.2601    2.9319   -0.1193 C   0  0  0  0  0  0  0  0  0  0  0  0
    5.3123    3.2142   -0.2578 H   0  0  0  0  0  0  0  0  0  0  0  0
    3.9046    1.5847   -0.0830 C   0  0  0  0  0  0  0  0  0  0  0  0
    4.6428    0.7821   -0.2171 H   0  0  0  0  0  0  0  0  0  0  0  0
  1  3  2  0  0  0  0
  1  7  1  0  0  0  0
  2  1  2  0  0  0  0
  4 27  2  0  0  0  0
  5  6  1  0  0  0  0
  5 12  1  0  0  0  0
  7 23  1  0  0  0  0
  8  9  1  0  0  0  0
 10 28  1  0  0  0  0
 11  7  1  0  0  0  0
 12 11  2  0  0  0  0
 13 22  1  0  0  0  0
 14 13  1  0  0  0  0
 15 13  2  0  0  0  0
 15 17  1  0  0  0  0
 16 15  1  0  0  0  0
 17 19  2  0  0  0  0
 18 17  1  0  0  0  0
 19 21  1  0  0  0  0
 19 20  1  0  0  0  0
 21  1  1  0  0  0  0
 22 21  2  0  0  0  0
 22 12  1  0  0  0  0
 23 24  1  0  0  0  0
 23 25  1  0  0  0  0
 23 26  1  0  0  0  0
 27 11  1  0  0  0  0
 27  8  1  0  0  0  0
 28  8  1  6  0  0  0
 29 28  1  0  0  0  0
 29 30  1  0  0  0  0
 31 29  2  0  0  0  0
 32 31  1  0  0  0  0
 33 35  2  0  0  0  0
 33 31  1  0  0  0  0
 34 33  1  0  0  0  0
 35 10  1  0  0  0  0
 36 35  1  0  0  0  0
M  END
