4
 OpenBabel05122313063D

 31 32  0  0  1  0  0  0  0  0999 V2000
    1.7833    1.1347    0.3236 N   0  0  0  0  0  0  0  0  0  0  0  0
    3.5221   -0.4088    0.3005 N   0  0  0  0  0  0  0  0  0  0  0  0
    2.8028    0.2678   -1.7178 N   0  0  0  0  0  0  0  0  0  0  0  0
   -0.3797    1.8806    0.4639 N   0  0  0  0  0  2  0  0  0  0  0  0
    2.6311    0.4190   -0.3431 C   0  0  0  0  0  0  0  0  0  0  0  0
    3.7963   -0.3186    1.7155 C   0  0  0  0  0  0  0  0  0  0  0  0
    4.6683    0.3428    1.9294 H   0  0  0  0  0  0  0  0  0  0  0  0
    4.0149   -1.3297    2.1149 H   0  0  0  0  0  0  0  0  0  0  0  0
    2.8973    0.0789    2.2333 H   0  0  0  0  0  0  0  0  0  0  0  0
    4.4310   -1.0250   -0.6455 C   0  0  0  0  0  0  0  0  0  0  0  0
    4.6466   -2.0784   -0.3714 H   0  0  0  0  0  0  0  0  0  0  0  0
    5.4032   -0.4749   -0.6936 H   0  0  0  0  0  0  0  0  0  0  0  0
    3.6439   -0.9065   -1.9570 C   0  0  0  0  0  0  0  0  0  0  0  0
    4.2928   -0.7630   -2.8442 H   0  0  0  0  0  0  0  0  0  0  0  0
    3.0115   -1.8115   -2.1210 H   0  0  0  0  0  0  0  0  0  0  0  0
    1.7477    0.5679   -2.6709 C   0  0  0  0  0  0  0  0  0  0  0  0
    0.8424   -0.0619   -2.5177 H   0  0  0  0  0  0  0  0  0  0  0  0
    2.1439    0.4078   -3.6922 H   0  0  0  0  0  0  0  0  0  0  0  0
    1.4417    1.6280   -2.5939 H   0  0  0  0  0  0  0  0  0  0  0  0
    0.8837    2.0883   -0.0099 C   0  0  1  0  0  3  0  0  0  0  0  0
    1.2136    3.3145   -0.6787 C   0  0  0  0  0  0  0  0  0  0  0  0
    0.1763    4.2292   -0.8931 C   0  0  0  0  0  0  0  0  0  0  0  0
    0.4019    5.1779   -1.4072 H   0  0  0  0  0  0  0  0  0  0  0  0
   -1.1319    3.9658   -0.4435 C   0  0  0  0  0  0  0  0  0  0  0  0
   -1.9473    4.6855   -0.6000 H   0  0  0  0  0  0  0  0  0  0  0  0
   -1.3585    2.7798    0.2559 C   0  0  0  0  0  0  0  0  0  0  0  0
   -2.3361    2.4993    0.6850 H   0  0  0  0  0  0  0  0  0  0  0  0
    2.6431    3.6074   -1.0400 C   0  0  0  0  0  0  0  0  0  0  0  0
    3.0724    2.8589   -1.7385 H   0  0  0  0  0  0  0  0  0  0  0  0
    3.2801    3.5709   -0.1303 H   0  0  0  0  0  0  0  0  0  0  0  0
    2.7446    4.6101   -1.4973 H   0  0  0  0  0  0  0  0  0  0  0  0
  2  6  1  0  0  0  0
  3  5  1  0  0  0  0
  5  2  1  0  0  0  0
  5  1  2  0  0  0  0
  6  7  1  0  0  0  0
  6  8  1  0  0  0  0
  6  9  1  0  0  0  0
 10 11  1  0  0  0  0
 10  2  1  0  0  0  0
 12 10  1  0  0  0  0
 13  3  1  0  0  0  0
 13 10  1  0  0  0  0
 14 13  1  0  0  0  0
 15 13  1  0  0  0  0
 16 19  1  0  0  0  0
 16 17  1  0  0  0  0
 16  3  1  0  0  0  0
 18 16  1  0  0  0  0
 20  1  1  1  0  0  0
 20  4  1  0  0  0  0
 21 20  1  0  0  0  0
 22 21  2  0  0  0  0
 22 24  1  0  0  0  0
 23 22  1  0  0  0  0
 24 26  2  0  0  0  0
 25 24  1  0  0  0  0
 26  4  1  0  0  0  0
 26 27  1  0  0  0  0
 28 21  1  0  0  0  0
 28 30  1  0  0  0  0
 29 28  1  0  0  0  0
 31 28  1  0  0  0  0
M  END
