4
 OpenBabel05122313063D

 33 33  0  0  1  0  0  0  0  0999 V2000
    2.1907    0.5513    0.2109 N   0  0  0  0  0  2  0  0  0  0  0  0
    2.5800   -0.3200   -1.9895 N   0  0  0  0  0  0  0  0  0  0  0  0
    3.7178   -1.1403   -0.0994 N   0  0  0  0  0  0  0  0  0  0  0  0
    0.4152    1.8963    0.7023 N   0  0  0  0  0  2  0  0  0  0  0  0
    2.8048   -0.2468   -0.6219 C   0  0  0  0  0  3  0  0  0  0  0  0
    1.3464    0.1619   -2.5796 C   0  0  0  0  0  0  0  0  0  0  0  0
    0.5429    0.2293   -1.8226 H   0  0  0  0  0  0  0  0  0  0  0  0
    1.0125   -0.5513   -3.3646 H   0  0  0  0  0  0  0  0  0  0  0  0
    1.4665    1.1620   -3.0580 H   0  0  0  0  0  0  0  0  0  0  0  0
    3.6289   -0.6926   -2.9225 C   0  0  0  0  0  0  0  0  0  0  0  0
    4.5911   -0.7889   -2.3881 H   0  0  0  0  0  0  0  0  0  0  0  0
    3.7405    0.0949   -3.7014 H   0  0  0  0  0  0  0  0  0  0  0  0
    3.4147   -1.6517   -3.4465 H   0  0  0  0  0  0  0  0  0  0  0  0
    4.1800   -0.8777    1.2635 C   0  0  0  0  0  0  0  0  0  0  0  0
    4.5439    0.1641    1.3420 H   0  0  0  0  0  0  0  0  0  0  0  0
    5.0174   -1.5659    1.4900 H   0  0  0  0  0  0  0  0  0  0  0  0
    3.3625   -0.9914    2.0118 H   0  0  0  0  0  0  0  0  0  0  0  0
    3.7155   -2.5390   -0.5086 C   0  0  0  0  0  0  0  0  0  0  0  0
    3.3778   -3.1810    0.3338 H   0  0  0  0  0  0  0  0  0  0  0  0
    4.7235   -2.8838   -0.8271 H   0  0  0  0  0  0  0  0  0  0  0  0
    3.0045   -2.6949   -1.3394 H   0  0  0  0  0  0  0  0  0  0  0  0
    1.5848    1.7500    0.0158 C   0  0  1  0  0  3  0  0  0  0  0  0
    3.4815    2.7458   -1.3757 C   0  0  0  0  0  0  0  0  0  0  0  0
    3.4617    2.1203   -2.2919 H   0  0  0  0  0  0  0  0  0  0  0  0
    4.2130    2.2710   -0.6889 H   0  0  0  0  0  0  0  0  0  0  0  0
    3.8656    3.7445   -1.6588 H   0  0  0  0  0  0  0  0  0  0  0  0
    2.1310    2.8522   -0.7228 C   0  0  0  0  0  0  0  0  0  0  0  0
    1.3842    4.0362   -0.7552 C   0  0  0  0  0  0  0  0  0  0  0  0
    1.7834    4.9003   -1.3116 H   0  0  0  0  0  0  0  0  0  0  0  0
    0.1534    4.1427   -0.0813 C   0  0  0  0  0  0  0  0  0  0  0  0
   -0.4332    5.0716   -0.1011 H   0  0  0  0  0  0  0  0  0  0  0  0
   -0.2863    3.0407    0.6546 C   0  0  0  0  0  0  0  0  0  0  0  0
   -1.2239    3.0263    1.2382 H   0  0  0  0  0  0  0  0  0  0  0  0
  2  5  1  0  0  0  0
  3 14  1  0  0  0  0
  5  3  1  0  0  0  0
  5  1  1  0  0  0  0
  6  2  1  0  0  0  0
  6  7  1  0  0  0  0
  8  6  1  0  0  0  0
  9  6  1  0  0  0  0
 10 11  1  0  0  0  0
 10  2  1  0  0  0  0
 12 10  1  0  0  0  0
 13 10  1  0  0  0  0
 14 15  1  0  0  0  0
 14 16  1  0  0  0  0
 14 17  1  0  0  0  0
 18  3  1  0  0  0  0
 18 19  1  0  0  0  0
 20 18  1  0  0  0  0
 21 18  1  0  0  0  0
 22  1  1  1  0  0  0
 22  4  1  0  0  0  0
 23 27  1  0  0  0  0
 23 25  1  0  0  0  0
 24 23  1  0  0  0  0
 26 23  1  0  0  0  0
 27 22  1  0  0  0  0
 28 27  2  0  0  0  0
 28 30  1  0  0  0  0
 29 28  1  0  0  0  0
 30 32  2  0  0  0  0
 31 30  1  0  0  0  0
 32  4  1  0  0  0  0
 32 33  1  0  0  0  0
M  END
