3
 OpenBabel05122313063D

 25 27  0  0  0  0  0  0  0  0999 V2000
    1.5775    4.6221   -0.5132 C   0  0  0  0  0  0  0  0  0  0  0  0
    1.8306    5.6848   -0.6450 H   0  0  0  0  0  0  0  0  0  0  0  0
    0.5748    0.5766   -0.0164 N   0  0  0  0  0  2  0  0  0  0  0  0
    3.2662    1.3887   -0.1366 N   0  0  0  0  0  0  0  0  0  0  0  0
    2.2638    2.3004   -0.2342 C   0  0  0  0  0  0  0  0  0  0  0  0
    2.9317    0.1112    0.0091 C   0  0  0  0  0  0  0  0  0  0  0  0
    1.5664   -0.3051    0.0652 C   0  0  0  0  0  0  0  0  0  0  0  0
    1.3207   -1.3698    0.1729 H   0  0  0  0  0  0  0  0  0  0  0  0
    0.8743    1.9140   -0.1740 C   0  0  0  0  0  0  0  0  0  0  0  0
    2.5861    3.6784   -0.4044 C   0  0  0  0  0  3  0  0  0  0  0  0
    3.6513    3.9464   -0.4461 H   0  0  0  0  0  0  0  0  0  0  0  0
    5.9294   -2.8607    0.3269 C   0  0  0  0  0  0  0  0  0  0  0  0
    6.6617   -3.6768    0.4149 H   0  0  0  0  0  0  0  0  0  0  0  0
    6.3377   -1.5280    0.1637 C   0  0  0  0  0  0  0  0  0  0  0  0
    7.4067   -1.2694    0.1200 H   0  0  0  0  0  0  0  0  0  0  0  0
    3.6088   -2.1908    0.2765 N   0  0  0  0  0  0  0  0  0  0  0  0
    5.3623   -0.5309    0.0570 C   0  0  0  0  0  0  0  0  0  0  0  0
    5.6115    0.5314   -0.0722 H   0  0  0  0  0  0  0  0  0  0  0  0
    0.2125    4.2282   -0.4568 C   0  0  0  0  0  0  0  0  0  0  0  0
   -0.5765    4.9898   -0.5431 H   0  0  0  0  0  0  0  0  0  0  0  0
   -0.1415    2.8969   -0.2886 C   0  0  0  0  0  0  0  0  0  0  0  0
   -1.1898    2.5734   -0.2253 H   0  0  0  0  0  0  0  0  0  0  0  0
    4.5513   -3.1350    0.3767 C   0  0  0  0  0  0  0  0  0  0  0  0
    4.1937   -4.1721    0.5046 H   0  0  0  0  0  0  0  0  0  0  0  0
    4.0053   -0.9114    0.1187 C   0  0  0  0  0  0  0  0  0  0  0  0
  1 19  2  0  0  0  0
  1 10  1  0  0  0  0
  2  1  1  0  0  0  0
  3  7  1  0  0  0  0
  4  6  1  0  0  0  0
  5  9  1  0  0  0  0
  5  4  2  0  0  0  0
  6  7  2  0  0  0  0
  6 25  1  0  0  0  0
  7  8  1  0  0  0  0
  9  3  1  0  0  0  0
 10  5  1  0  0  0  0
 11 10  1  0  0  0  0
 12 23  1  0  0  0  0
 12 13  1  0  0  0  0
 14 12  2  0  0  0  0
 15 14  1  0  0  0  0
 16 23  2  0  0  0  0
 17 25  2  0  0  0  0
 17 14  1  0  0  0  0
 18 17  1  0  0  0  0
 19 21  1  0  0  0  0
 20 19  1  0  0  0  0
 21 22  1  0  0  0  0
 21  9  2  0  0  0  0
 23 24  1  0  0  0  0
 25 16  1  0  0  0  0
M  END
