3
 OpenBabel05122313063D

 28 29  0  0  0  0  0  0  0  0999 V2000
    6.8050   -0.2898    1.2842 Cl  0  0  0  0  0  0  0  0  0  0  0  0
   -5.5110   -1.7479    1.6890 Cl  0  0  0  0  0  0  0  0  0  0  0  0
    0.4088   -1.1516   -1.2532 N   0  0  0  0  0  2  0  0  0  0  0  0
   -2.9196   -0.7712   -1.2311 C   0  0  0  0  0  0  0  0  0  0  0  0
   -2.7821    0.0497   -1.9513 H   0  0  0  0  0  0  0  0  0  0  0  0
   -4.0148   -0.7461   -0.3596 C   0  0  0  0  0  0  0  0  0  0  0  0
   -4.7371    0.0803   -0.3917 H   0  0  0  0  0  0  0  0  0  0  0  0
   -4.1587   -1.7748    0.5847 C   0  0  0  0  0  0  0  0  0  0  0  0
   -3.2284   -2.8242    0.6608 C   0  0  0  0  0  0  0  0  0  0  0  0
   -3.3596   -3.6164    1.4107 H   0  0  0  0  0  0  0  0  0  0  0  0
   -2.1342   -2.8290   -0.2130 C   0  0  0  0  0  0  0  0  0  0  0  0
   -1.3859   -3.6331   -0.1332 H   0  0  0  0  0  0  0  0  0  0  0  0
   -1.9665   -1.8071   -1.1638 C   0  0  0  0  0  0  0  0  0  0  0  0
   -0.7130   -1.7464   -2.0091 C   0  0  0  0  0  0  0  0  0  0  0  0
   -0.8741   -1.0845   -2.8858 H   0  0  0  0  0  0  0  0  0  0  0  0
   -0.4133   -2.7540   -2.3688 H   0  0  0  0  0  0  0  0  0  0  0  0
    1.5375   -1.7871   -1.1847 C   0  0  0  0  0  3  0  0  0  0  0  0
    1.5699   -2.7862   -1.6660 H   0  0  0  0  0  0  0  0  0  0  0  0
    2.7874   -1.3608   -0.5674 C   0  0  0  0  0  0  0  0  0  0  0  0
    3.8145   -2.3290   -0.4527 C   0  0  0  0  0  0  0  0  0  0  0  0
    3.6358   -3.3540   -0.8139 H   0  0  0  0  0  0  0  0  0  0  0  0
    5.0486   -2.0132    0.1205 C   0  0  0  0  0  0  0  0  0  0  0  0
    5.8403   -2.7685    0.2180 H   0  0  0  0  0  0  0  0  0  0  0  0
    5.2727   -0.7014    0.5734 C   0  0  0  0  0  0  0  0  0  0  0  0
    4.2761    0.2856    0.4510 C   0  0  0  0  0  0  0  0  0  0  0  0
    4.4783    1.3074    0.8008 H   0  0  0  0  0  0  0  0  0  0  0  0
    3.0444   -0.0449   -0.1130 C   0  0  0  0  0  0  0  0  0  0  0  0
    2.2528    0.7196   -0.2091 H   0  0  0  0  0  0  0  0  0  0  0  0
  3 17  1  0  0  0  0
  4 13  2  0  0  0  0
  4  6  1  0  0  0  0
  5  4  1  0  0  0  0
  6  8  2  0  0  0  0
  7  6  1  0  0  0  0
  8  9  1  0  0  0  0
  8  2  1  0  0  0  0
  9 10  1  0  0  0  0
 11 12  1  0  0  0  0
 11  9  2  0  0  0  0
 13 11  1  0  0  0  0
 14  3  1  0  0  0  0
 14 13  1  0  0  0  0
 15 14  1  0  0  0  0
 16 14  1  0  0  0  0
 17 19  1  0  0  0  0
 18 17  1  0  0  0  0
 19 20  2  0  0  0  0
 19 27  1  0  0  0  0
 20 22  1  0  0  0  0
 21 20  1  0  0  0  0
 22 23  1  0  0  0  0
 22 24  2  0  0  0  0
 24  1  1  0  0  0  0
 25 24  1  0  0  0  0
 25 26  1  0  0  0  0
 27 25  2  0  0  0  0
 28 27  1  0  0  0  0
M  END
