3
 OpenBabel05122313063D

 48 50  0  0  1  0  0  0  0  0999 V2000
    0.5288    2.5149   -1.3296 Si  0  0  0  0  0  0  0  0  0  0  0  0
   -2.2919   -0.5466   -0.6424 B   0  0  0  0  0  0  0  0  0  0  0  0
    0.4384    1.0105   -0.2328 N   0  0  0  0  0  2  0  0  0  0  0  0
   -1.8210    0.5725    0.4903 N   0  0  0  0  0  0  0  0  0  0  0  0
   -0.6095    1.1803    0.6819 C   0  0  2  0  0  3  0  0  0  0  0  0
   -0.4468    2.0729    1.7681 C   0  0  0  0  0  0  0  0  0  0  0  0
    0.5255    2.5646    1.8767 H   0  0  0  0  0  0  0  0  0  0  0  0
   -1.4985    2.3331    2.6510 C   0  0  0  0  0  0  0  0  0  0  0  0
   -1.3572    3.0301    3.4910 H   0  0  0  0  0  0  0  0  0  0  0  0
   -2.7302    1.7112    2.4399 C   0  0  0  0  0  0  0  0  0  0  0  0
   -3.5903    1.8979    3.0960 H   0  0  0  0  0  0  0  0  0  0  0  0
   -2.8726    0.8463    1.3431 C   0  0  0  0  0  0  0  0  0  0  0  0
   -4.0858    0.1542    0.9317 C   0  0  0  0  0  0  0  0  0  0  0  0
   -5.3444    0.2077    1.5660 C   0  0  0  0  0  0  0  0  0  0  0  0
   -5.5036    0.8141    2.4717 H   0  0  0  0  0  0  0  0  0  0  0  0
   -6.4001   -0.5290    1.0204 C   0  0  0  0  0  0  0  0  0  0  0  0
   -7.3936   -0.5033    1.4928 H   0  0  0  0  0  0  0  0  0  0  0  0
   -6.1881   -1.3066   -0.1375 C   0  0  0  0  0  0  0  0  0  0  0  0
   -7.0253   -1.8844   -0.5599 H   0  0  0  0  0  0  0  0  0  0  0  0
   -4.9288   -1.3527   -0.7564 C   0  0  0  0  0  0  0  0  0  0  0  0
   -4.7963   -1.9717   -1.6563 H   0  0  0  0  0  0  0  0  0  0  0  0
   -3.8456   -0.6152   -0.2366 C   0  0  0  0  0  0  0  0  0  0  0  0
   -1.5593   -1.9468   -0.1774 C   0  0  0  0  0  0  0  0  0  0  0  0
   -0.4695   -1.7461   -0.1096 H   0  0  0  0  0  0  0  0  0  0  0  0
   -1.9001   -2.2103    0.8504 H   0  0  0  0  0  0  0  0  0  0  0  0
   -1.7729   -3.1448   -1.1006 C   0  0  0  0  0  0  0  0  0  0  0  0
   -2.8506   -3.3643   -1.2496 H   0  0  0  0  0  0  0  0  0  0  0  0
   -1.3085   -4.0715   -0.6996 H   0  0  0  0  0  0  0  0  0  0  0  0
   -1.3249   -2.9669   -2.0985 H   0  0  0  0  0  0  0  0  0  0  0  0
   -1.9378   -0.0677   -2.1668 C   0  0  0  0  0  0  0  0  0  0  0  0
   -2.0231    1.0362   -2.2334 H   0  0  0  0  0  0  0  0  0  0  0  0
   -0.8743   -0.3046   -2.3755 H   0  0  0  0  0  0  0  0  0  0  0  0
   -2.8170   -0.6543   -3.2797 C   0  0  0  0  0  0  0  0  0  0  0  0
   -2.8125   -1.7630   -3.2842 H   0  0  0  0  0  0  0  0  0  0  0  0
   -2.4766   -0.3299   -4.2867 H   0  0  0  0  0  0  0  0  0  0  0  0
   -3.8745   -0.3351   -3.1773 H   0  0  0  0  0  0  0  0  0  0  0  0
    0.8768    2.0574   -3.1185 C   0  0  0  0  0  0  0  0  0  0  0  0
    0.8856    2.9945   -3.7137 H   0  0  0  0  0  0  0  0  0  0  0  0
    0.0766    1.4012   -3.5103 H   0  0  0  0  0  0  0  0  0  0  0  0
    1.8500    1.5507   -3.2478 H   0  0  0  0  0  0  0  0  0  0  0  0
   -1.1290    3.4280   -1.2356 C   0  0  0  0  0  0  0  0  0  0  0  0
   -1.9973    2.8072   -1.5252 H   0  0  0  0  0  0  0  0  0  0  0  0
   -1.0692    4.2815   -1.9434 H   0  0  0  0  0  0  0  0  0  0  0  0
   -1.3168    3.8402   -0.2249 H   0  0  0  0  0  0  0  0  0  0  0  0
    1.7874    3.7378   -0.6189 C   0  0  0  0  0  0  0  0  0  0  0  0
    1.4514    4.1145    0.3687 H   0  0  0  0  0  0  0  0  0  0  0  0
    1.8553    4.6129   -1.2991 H   0  0  0  0  0  0  0  0  0  0  0  0
    2.7982    3.3024   -0.5168 H   0  0  0  0  0  0  0  0  0  0  0  0
  1 41  1  0  0  0  0
  1 45  1  0  0  0  0
  1  3  1  0  0  0  0
  2 22  1  0  0  0  0
  2 23  1  0  0  0  0
  2  4  1  0  0  0  0
  4  5  1  0  0  0  0
  4 12  1  0  0  0  0
  5  3  1  6  0  0  0
  5  6  1  0  0  0  0
  6  7  1  0  0  0  0
  6  8  2  0  0  0  0
  8  9  1  0  0  0  0
 10  8  1  0  0  0  0
 10 11  1  0  0  0  0
 12 10  2  0  0  0  0
 13 12  1  0  0  0  0
 13 14  1  0  0  0  0
 14 15  1  0  0  0  0
 16 17  1  0  0  0  0
 16 14  2  0  0  0  0
 18 16  1  0  0  0  0
 19 18  1  0  0  0  0
 20 22  1  0  0  0  0
 20 18  2  0  0  0  0
 21 20  1  0  0  0  0
 22 13  2  0  0  0  0
 23 24  1  0  0  0  0
 23 25  1  0  0  0  0
 26 28  1  0  0  0  0
 26 23  1  0  0  0  0
 27 26  1  0  0  0  0
 29 26  1  0  0  0  0
 30  2  1  0  0  0  0
 31 30  1  0  0  0  0
 32 30  1  0  0  0  0
 33 36  1  0  0  0  0
 33 30  1  0  0  0  0
 34 33  1  0  0  0  0
 35 33  1  0  0  0  0
 37  1  1  0  0  0  0
 38 37  1  0  0  0  0
 39 37  1  0  0  0  0
 40 37  1  0  0  0  0
 41 44  1  0  0  0  0
 42 41  1  0  0  0  0
 43 41  1  0  0  0  0
 45 48  1  0  0  0  0
 45 46  1  0  0  0  0
 47 45  1  0  0  0  0
M  END
