1
 OpenBabel05122313063D

 38 41  0  0  0  0  0  0  0  0999 V2000
    2.0650   -1.9871    0.2993 N   0  0  0  0  0  0  0  0  0  0  0  0
    4.2519   -2.2343    0.1164 N   0  0  0  0  0  0  0  0  0  0  0  0
    3.4179    0.1062   -0.0610 C   0  0  0  0  0  0  0  0  0  0  0  0
   -2.3928    1.5208   -0.0384 C   0  0  0  0  0  0  0  0  0  0  0  0
    3.6656   -3.4352    0.2826 N   0  0  0  0  0  0  0  0  0  0  0  0
    0.0808    2.7834    0.2886 N   0  0  0  0  0  0  0  0  0  0  0  0
    2.3616   -3.3014    0.3854 N   0  0  0  0  0  2  0  0  0  0  0  0
   -3.6127    0.7022   -0.1491 C   0  0  0  0  0  0  0  0  0  0  0  0
    2.5362    2.3855    0.0586 C   0  0  0  0  0  0  0  0  0  0  0  0
    3.6342    2.8551   -0.6854 C   0  0  0  0  0  0  0  0  0  0  0  0
    3.7031    3.9193   -0.9613 H   0  0  0  0  0  0  0  0  0  0  0  0
   -5.8741   -0.9700   -0.3519 N   0  0  0  0  0  0  0  0  0  0  0  0
    3.2552   -1.3368    0.1387 C   0  0  0  0  0  0  0  0  0  0  0  0
    4.5403    0.5961   -0.7696 C   0  0  0  0  0  0  0  0  0  0  0  0
    5.3056   -0.1246   -1.0927 H   0  0  0  0  0  0  0  0  0  0  0  0
    4.6476    1.9591   -1.0682 C   0  0  0  0  0  0  0  0  0  0  0  0
    5.5171    2.3287   -1.6321 H   0  0  0  0  0  0  0  0  0  0  0  0
    2.4484    1.0230    0.3932 C   0  0  0  0  0  0  0  0  0  0  0  0
    1.6088    0.6622    1.0103 H   0  0  0  0  0  0  0  0  0  0  0  0
   -2.0676    2.1998    1.1551 C   0  0  0  0  0  0  0  0  0  0  0  0
   -2.7633    2.2077    2.0041 H   0  0  0  0  0  0  0  0  0  0  0  0
   -3.9753   -0.1544    0.9104 C   0  0  0  0  0  0  0  0  0  0  0  0
   -3.3350   -0.2381    1.8019 H   0  0  0  0  0  0  0  0  0  0  0  0
   -1.4451    1.5571   -1.0828 C   0  0  0  0  0  0  0  0  0  0  0  0
   -1.6186    1.0050   -2.0151 H   0  0  0  0  0  0  0  0  0  0  0  0
    1.4496    3.3399    0.5010 C   0  0  0  0  0  0  0  0  0  0  0  0
    1.5197    3.5691    1.5828 H   0  0  0  0  0  0  0  0  0  0  0  0
    1.5197    4.2990   -0.0515 H   0  0  0  0  0  0  0  0  0  0  0  0
   -5.1053   -0.9694    0.7483 C   0  0  0  0  0  0  0  0  0  0  0  0
   -5.3973   -1.6672    1.5528 H   0  0  0  0  0  0  0  0  0  0  0  0
   -0.8315    2.8130    1.2946 C   0  0  0  0  0  3  0  0  0  0  0  0
   -0.5146    3.3004    2.2258 H   0  0  0  0  0  0  0  0  0  0  0  0
   -5.5180   -0.1573   -1.3589 C   0  0  0  0  0  0  0  0  0  0  0  0
   -6.1601   -0.1763   -2.2574 H   0  0  0  0  0  0  0  0  0  0  0  0
   -0.2164    2.1727   -0.8904 C   0  0  0  0  0  0  0  0  0  0  0  0
    0.5889    2.1165   -1.6334 H   0  0  0  0  0  0  0  0  0  0  0  0
   -4.3984    0.6857   -1.3179 C   0  0  0  0  0  0  0  0  0  0  0  0
   -4.1552    1.3328   -2.1744 H   0  0  0  0  0  0  0  0  0  0  0  0
  1  7  1  0  0  0  0
  2 13  1  0  0  0  0
  2  5  2  0  0  0  0
  3 13  1  0  0  0  0
  3 18  1  0  0  0  0
  4 20  2  0  0  0  0
  5  7  1  0  0  0  0
  6 26  1  0  0  0  0
  6 31  1  0  0  0  0
  8  4  1  0  0  0  0
  8 22  1  0  0  0  0
  9 18  2  0  0  0  0
  9 26  1  0  0  0  0
 10  9  1  0  0  0  0
 11 10  1  0  0  0  0
 12 29  1  0  0  0  0
 13  1  2  0  0  0  0
 14  3  2  0  0  0  0
 15 14  1  0  0  0  0
 16 14  1  0  0  0  0
 16 10  2  0  0  0  0
 17 16  1  0  0  0  0
 18 19  1  0  0  0  0
 20 31  1  0  0  0  0
 20 21  1  0  0  0  0
 22 23  1  0  0  0  0
 24 35  2  0  0  0  0
 24  4  1  0  0  0  0
 25 24  1  0  0  0  0
 26 27  1  0  0  0  0
 28 26  1  0  0  0  0
 29 22  2  0  0  0  0
 29 30  1  0  0  0  0
 31 32  1  0  0  0  0
 33 37  1  0  0  0  0
 33 12  2  0  0  0  0
 34 33  1  0  0  0  0
 35  6  1  0  0  0  0
 36 35  1  0  0  0  0
 37  8  2  0  0  0  0
 38 37  1  0  0  0  0
M  END
