5
 OpenBabel05122313063D

 43 45  0  0  1  0  0  0  0  0999 V2000
    0.6660   -2.2036    1.3580 O   0  0  0  0  0  0  0  0  0  0  0  0
    1.8368    1.6628   -1.6593 O   0  0  0  0  0  0  0  0  0  0  0  0
   -1.9107   -1.5240    0.8571 N   0  0  0  0  0  0  0  0  0  0  0  0
    2.7842   -0.5340    0.0777 N   0  0  0  0  0  0  0  0  0  0  0  0
    0.3286    1.2176    0.7582 N   0  0  0  0  0  2  0  0  0  0  0  0
   -3.1762   -1.0631    0.8907 C   0  0  0  0  0  0  0  0  0  0  0  0
   -3.3089   -0.0035    0.6111 H   0  0  0  0  0  0  0  0  0  0  0  0
   -4.2572   -1.8676    1.2796 C   0  0  0  0  0  0  0  0  0  0  0  0
   -5.2755   -1.4529    1.2853 H   0  0  0  0  0  0  0  0  0  0  0  0
   -4.0025   -3.1933    1.6597 C   0  0  0  0  0  0  0  0  0  0  0  0
   -4.8233   -3.8549    1.9769 H   0  0  0  0  0  0  0  0  0  0  0  0
   -2.6825   -3.6622    1.6452 C   0  0  0  0  0  0  0  0  0  0  0  0
   -2.4422   -4.6902    1.9567 H   0  0  0  0  0  0  0  0  0  0  0  0
   -1.6561   -2.7940    1.2268 C   0  0  0  0  0  0  0  0  0  0  0  0
   -0.2276   -3.2833    1.1318 C   0  0  0  0  0  0  0  0  0  0  0  0
   -0.0639   -4.0977    1.8785 H   0  0  0  0  0  0  0  0  0  0  0  0
   -0.0437   -3.7140    0.1146 H   0  0  0  0  0  0  0  0  0  0  0  0
    2.0402   -2.5509    1.2036 C   0  0  0  0  0  0  0  0  0  0  0  0
    2.2001   -3.0861    0.2406 H   0  0  0  0  0  0  0  0  0  0  0  0
    2.3719   -3.2118    2.0402 H   0  0  0  0  0  0  0  0  0  0  0  0
    2.8119   -1.2509    1.2149 C   0  0  0  0  0  0  0  0  0  0  0  0
    3.4305   -0.7699    2.3846 C   0  0  0  0  0  0  0  0  0  0  0  0
    3.4303   -1.3811    3.2990 H   0  0  0  0  0  0  0  0  0  0  0  0
    4.0226    0.4993    2.3615 C   0  0  0  0  0  0  0  0  0  0  0  0
    4.5087    0.9072    3.2607 H   0  0  0  0  0  0  0  0  0  0  0  0
    3.9638    1.2517    1.1804 C   0  0  0  0  0  0  0  0  0  0  0  0
    4.3932    2.2636    1.1307 H   0  0  0  0  0  0  0  0  0  0  0  0
    3.3285    0.6961    0.0550 C   0  0  0  0  0  0  0  0  0  0  0  0
    3.1844    1.4654   -1.2495 C   0  0  0  0  0  0  0  0  0  0  0  0
    3.7156    2.4422   -1.1744 H   0  0  0  0  0  0  0  0  0  0  0  0
    3.6549    0.8769   -2.0642 H   0  0  0  0  0  0  0  0  0  0  0  0
    1.1466    2.7223   -1.0147 C   0  0  0  0  0  0  0  0  0  0  0  0
    0.2019    2.8694   -1.5789 H   0  0  0  0  0  0  0  0  0  0  0  0
    1.7345    3.6670   -1.0635 H   0  0  0  0  0  0  0  0  0  0  0  0
    0.7657    2.4530    0.4291 C   0  0  1  0  0  3  0  0  0  0  0  0
    0.8176    3.4666    1.3977 C   0  0  0  0  0  0  0  0  0  0  0  0
    1.1528    4.4713    1.1037 H   0  0  0  0  0  0  0  0  0  0  0  0
    0.4287    3.1872    2.7117 C   0  0  0  0  0  0  0  0  0  0  0  0
    0.4516    3.9769    3.4777 H   0  0  0  0  0  0  0  0  0  0  0  0
    0.0159    1.8884    3.0371 C   0  0  0  0  0  0  0  0  0  0  0  0
   -0.2903    1.6192    4.0574 H   0  0  0  0  0  0  0  0  0  0  0  0
   -0.0288    0.9279    2.0245 C   0  0  0  0  0  0  0  0  0  0  0  0
   -0.3571   -0.1075    2.1974 H   0  0  0  0  0  0  0  0  0  0  0  0
  2 29  1  0  0  0  0
  2 32  1  0  0  0  0
  3  6  2  0  0  0  0
  3 14  1  0  0  0  0
  4 21  1  0  0  0  0
  5 42  1  0  0  0  0
  6  8  1  0  0  0  0
  7  6  1  0  0  0  0
  8  9  1  0  0  0  0
  8 10  2  0  0  0  0
 10 11  1  0  0  0  0
 12 10  1  0  0  0  0
 12 13  1  0  0  0  0
 14 12  2  0  0  0  0
 15 14  1  0  0  0  0
 15  1  1  0  0  0  0
 15 16  1  0  0  0  0
 17 15  1  0  0  0  0
 18 21  1  0  0  0  0
 18  1  1  0  0  0  0
 18 20  1  0  0  0  0
 19 18  1  0  0  0  0
 21 22  2  0  0  0  0
 22 23  1  0  0  0  0
 24 22  1  0  0  0  0
 24 25  1  0  0  0  0
 26 24  2  0  0  0  0
 27 26  1  0  0  0  0
 28  4  2  0  0  0  0
 28 26  1  0  0  0  0
 29 30  1  0  0  0  0
 29 28  1  0  0  0  0
 31 29  1  0  0  0  0
 33 32  1  0  0  0  0
 34 32  1  0  0  0  0
 35 32  1  6  0  0  0
 35  5  1  0  0  0  0
 35 36  1  0  0  0  0
 36 38  2  0  0  0  0
 37 36  1  0  0  0  0
 38 40  1  0  0  0  0
 38 39  1  0  0  0  0
 40 41  1  0  0  0  0
 42 43  1  0  0  0  0
 42 40  2  0  0  0  0
M  END
