1
 OpenBabel05122313063D

 29 30  0  0  1  0  0  0  0  0999 V2000
   -1.7404   -1.0822   -1.1998 N   0  0  0  0  0  2  0  0  0  0  0  0
   -6.1114    1.8582   -0.6456 N   0  0  0  0  0  4  0  0  0  0  0  0
   -3.8712   -1.2858   -1.7411 N   0  0  0  0  0  0  0  0  0  0  0  0
   -5.8294   -0.0807    0.7214 N   0  0  0  0  0  0  0  0  0  0  0  0
   -5.8412    2.0985    1.7350 N   0  0  0  0  0  2  0  0  0  0  0  0
   -5.5601    0.1896    3.0085 N   0  0  0  0  0  0  0  0  0  0  0  0
   -5.7145   -0.8126    3.1036 H   0  0  0  0  0  0  0  0  0  0  0  0
   -5.6424    0.7857    3.8311 H   0  0  0  0  0  0  0  0  0  0  0  0
   -6.0991    3.9386    0.3603 N   0  0  0  0  0  0  0  0  0  0  0  0
   -6.0863    4.5269    1.1909 H   0  0  0  0  0  0  0  0  0  0  0  0
   -6.2911    4.3318   -0.5587 H   0  0  0  0  0  0  0  0  0  0  0  0
   -6.0154    2.5966    0.4949 C   0  0  0  0  0  0  0  0  0  0  0  0
   -6.0173    0.5401   -0.4555 C   0  0  0  0  0  0  0  0  0  0  0  0
   -3.2236   -2.1534    0.5454 C   0  0  0  0  0  0  0  0  0  0  0  0
   -3.4579   -3.2328    0.4335 H   0  0  0  0  0  0  0  0  0  0  0  0
   -4.0890   -1.6548    1.0297 H   0  0  0  0  0  0  0  0  0  0  0  0
   -2.3347   -2.0616    1.1973 H   0  0  0  0  0  0  0  0  0  0  0  0
   -2.9406   -1.5154   -0.7682 C   0  0  1  0  0  3  0  0  0  0  0  0
   -5.7574    0.7595    1.7901 C   0  0  0  0  0  0  0  0  0  0  0  0
   -5.3050   -1.5896   -1.6763 C   0  0  0  0  0  0  0  0  0  0  0  0
   -5.4863   -2.1583   -0.7470 H   0  0  0  0  0  0  0  0  0  0  0  0
   -5.5566   -2.2421   -2.5363 H   0  0  0  0  0  0  0  0  0  0  0  0
   -6.1737   -0.3333   -1.6842 C   0  0  0  0  0  0  0  0  0  0  0  0
   -5.9950    0.2930   -2.5794 H   0  0  0  0  0  0  0  0  0  0  0  0
   -7.2351   -0.6597   -1.7395 H   0  0  0  0  0  0  0  0  0  0  0  0
   -3.2396   -0.6875   -2.8197 C   0  0  0  0  0  0  0  0  0  0  0  0
   -3.7819   -0.4046   -3.7266 H   0  0  0  0  0  0  0  0  0  0  0  0
   -1.9135   -0.5663   -2.4738 C   0  0  0  0  0  0  0  0  0  0  0  0
   -1.0838   -0.1481   -3.0519 H   0  0  0  0  0  0  0  0  0  0  0  0
  1 18  1  0  0  0  0
  2 13  2  0  0  0  0
  2 12  2  0  0  0  0
  3 20  1  0  0  0  0
  3 18  1  0  0  0  0
  4 19  2  0  0  0  0
  5 19  1  0  0  0  0
  6  7  1  0  0  0  0
  6  8  1  0  0  0  0
  9 12  1  0  0  0  0
  9 10  1  0  0  0  0
 11  9  1  0  0  0  0
 12  5  1  0  0  0  0
 13  4  1  0  0  0  0
 14 16  1  0  0  0  0
 14 17  1  0  0  0  0
 15 14  1  0  0  0  0
 18 14  1  6  0  0  0
 19  6  1  0  0  0  0
 20 21  1  0  0  0  0
 22 20  1  0  0  0  0
 23 20  1  0  0  0  0
 23 13  1  0  0  0  0
 24 23  1  0  0  0  0
 25 23  1  0  0  0  0
 26 28  2  0  0  0  0
 26  3  1  0  0  0  0
 27 26  1  0  0  0  0
 28  1  1  0  0  0  0
 29 28  1  0  0  0  0
M  END
