4
 OpenBabel05122313063D

 26 27  0  0  1  0  0  0  0  0999 V2000
   -0.3936    3.3992    0.0541 S   0  0  0  0  0  0  0  0  0  0  0  0
    6.5089    1.3764   -0.7745 S   0  0  0  0  0  0  0  0  0  0  0  0
   -0.3079    0.9399   -0.7383 N   0  0  0  0  0  0  0  0  0  0  0  0
   -1.6145    1.1856   -0.4829 N   0  0  0  0  0  2  0  0  0  0  0  0
   -3.0736    2.8827    0.3072 N   0  0  0  0  0  0  0  0  0  0  0  0
   -3.6905    2.1082    0.6268 H   0  0  0  0  0  0  0  0  0  0  0  0
   -1.8544    2.4317   -0.0474 C   0  0  1  0  0  3  0  0  0  0  0  0
    0.4874    1.9531   -0.5145 C   0  0  0  0  0  0  0  0  0  0  0  0
    7.2102    2.9233   -0.1385 C   0  0  0  0  0  0  0  0  0  0  0  0
    6.9436    3.7856   -0.7812 H   0  0  0  0  0  0  0  0  0  0  0  0
    8.3076    2.7849   -0.1646 H   0  0  0  0  0  0  0  0  0  0  0  0
    6.8994    3.1185    0.9070 H   0  0  0  0  0  0  0  0  0  0  0  0
    1.9401    1.9061   -0.6426 C   0  0  0  0  0  0  0  0  0  0  0  0
    2.5537    0.7444   -1.1756 C   0  0  0  0  0  0  0  0  0  0  0  0
    1.9180   -0.0736   -1.5397 H   0  0  0  0  0  0  0  0  0  0  0  0
    4.7653    1.6701   -0.7258 C   0  0  0  0  0  0  0  0  0  0  0  0
    2.7673    2.9530   -0.1869 C   0  0  0  0  0  0  0  0  0  0  0  0
    2.3178    3.8683    0.2309 H   0  0  0  0  0  0  0  0  0  0  0  0
    4.1624    2.8438   -0.2265 C   0  0  0  0  0  0  0  0  0  0  0  0
    4.7711    3.6765    0.1497 H   0  0  0  0  0  0  0  0  0  0  0  0
    3.9394    0.6280   -1.2150 C   0  0  0  0  0  0  0  0  0  0  0  0
    4.3980   -0.2901   -1.6112 H   0  0  0  0  0  0  0  0  0  0  0  0
   -3.2688    4.1912    0.8917 C   0  0  0  0  0  0  0  0  0  0  0  0
   -2.7467    4.3086    1.8705 H   0  0  0  0  0  0  0  0  0  0  0  0
   -4.3502    4.3581    1.0487 H   0  0  0  0  0  0  0  0  0  0  0  0
   -2.8988    4.9814    0.2059 H   0  0  0  0  0  0  0  0  0  0  0  0
  2 16  1  0  0  0  0
  2  9  1  0  0  0  0
  3  8  2  0  0  0  0
  3  4  1  0  0  0  0
  4  7  1  0  0  0  0
  5  6  1  0  0  0  0
  5 23  1  0  0  0  0
  7  1  1  0  0  0  0
  7  5  1  1  0  0  0
  8  1  1  0  0  0  0
  9 12  1  0  0  0  0
 10  9  1  0  0  0  0
 11  9  1  0  0  0  0
 13  8  1  0  0  0  0
 13 17  1  0  0  0  0
 14 13  2  0  0  0  0
 15 14  1  0  0  0  0
 16 19  1  0  0  0  0
 17 18  1  0  0  0  0
 19 17  2  0  0  0  0
 19 20  1  0  0  0  0
 21 14  1  0  0  0  0
 21 16  2  0  0  0  0
 22 21  1  0  0  0  0
 23 25  1  0  0  0  0
 23 24  1  0  0  0  0
 26 23  1  0  0  0  0
M  END
