1
 OpenBabel05122313063D

 38 42  0  0  1  0  0  0  0  0999 V2000
    0.7729   -1.2418    2.4543 N   0  0  0  0  0  0  0  0  0  0  0  0
    2.6141   -0.4066    0.4800 C   0  0  2  0  0  0  0  0  0  0  0  0
    1.4383    1.5707   -1.0480 C   0  0  2  0  0  0  0  0  0  0  0  0
    0.9353    2.5223   -0.8377 H   0  0  0  0  0  0  0  0  0  0  0  0
    3.1622   -0.7537    1.8561 C   0  0  0  0  0  0  0  0  0  0  0  0
    3.9920   -0.0741    2.1367 H   0  0  0  0  0  0  0  0  0  0  0  0
    3.5692   -1.7848    1.8742 H   0  0  0  0  0  0  0  0  0  0  0  0
    2.0472   -0.5799    2.8812 C   0  0  0  0  0  0  0  0  0  0  0  0
    2.3400   -0.9770    3.8808 H   0  0  0  0  0  0  0  0  0  0  0  0
    1.8203    0.4992    3.0039 H   0  0  0  0  0  0  0  0  0  0  0  0
    0.9619   -2.7113    2.3389 C   0  0  0  0  0  0  0  0  0  0  0  0
    1.3951   -3.1157    3.2806 H   0  0  0  0  0  0  0  0  0  0  0  0
    1.6382   -2.9490    1.4966 H   0  0  0  0  0  0  0  0  0  0  0  0
   -0.0151   -3.1920    2.1545 H   0  0  0  0  0  0  0  0  0  0  0  0
   -0.2651   -0.9760    3.4783 C   0  0  0  0  0  0  0  0  0  0  0  0
    0.0267   -1.4349    4.4490 H   0  0  0  0  0  0  0  0  0  0  0  0
   -1.2314   -1.4066    3.1568 H   0  0  0  0  0  0  0  0  0  0  0  0
   -0.3891    0.1124    3.6199 H   0  0  0  0  0  0  0  0  0  0  0  0
    2.4204    1.1000    0.1860 B   0  0  0  0  0  0  0  0  0  0  0  0
    2.6708    1.9053    1.0616 H   0  0  0  0  0  0  0  0  0  0  0  0
    0.6378    0.3878   -1.9043 B   0  0  2  0  0  0  0  0  0  0  0  0
   -0.5851    0.5599   -1.9049 H   0  0  0  0  0  0  0  0  0  0  0  0
    1.1980   -1.2656   -1.8380 B   0  0  1  0  0  0  0  0  0  0  0  0
    0.4664   -2.2179   -2.0363 H   0  0  0  0  0  0  0  0  0  0  0  0
    2.4344   -1.5387   -0.5621 B   0  0  0  0  0  2  0  0  0  0  0  0
    2.7322   -2.6619   -0.1948 H   0  0  0  0  0  0  0  0  0  0  0  0
    3.6476   -0.0778   -0.8909 B   0  0  0  0  0  0  0  0  0  0  0  0
    4.8145   -0.1915   -0.5876 H   0  0  0  0  0  0  0  0  0  0  0  0
    3.0670    1.6472   -1.4181 B   0  0  2  0  0  0  0  0  0  0  0  0
    3.6933    2.6735   -1.3041 H   0  0  0  0  0  0  0  0  0  0  0  0
    1.8445    1.4540   -2.6686 B   0  0  1  0  0  0  0  0  0  0  0  0
    1.5876    2.3800   -3.4007 H   0  0  0  0  0  0  0  0  0  0  0  0
    1.7398   -0.2523   -3.1646 B   0  0  1  0  0  0  0  0  0  0  0  0
    1.4621   -0.4872   -4.3185 H   0  0  0  0  0  0  0  0  0  0  0  0
    2.8907   -1.2298   -2.2536 B   0  0  1  0  0  0  0  0  0  0  0  0
    3.5017   -2.1573   -2.7356 H   0  0  0  0  0  0  0  0  0  0  0  0
    3.3279    0.4279   -2.6318 B   0  0  2  0  0  0  0  0  0  0  0  0
    4.2914    0.5990   -3.3432 H   0  0  0  0  0  0  0  0  0  0  0  0
  1  8  1  0  0  0  0
  1 15  1  0  0  0  0
  2 25  1  6  0  0  0
  2  5  1  0  0  0  0
  3  4  1  1  0  0  0
  3 19  1  0  0  0  0
  5  7  1  0  0  0  0
  5  6  1  0  0  0  0
  5  8  1  0  0  0  0
  8 10  1  0  0  0  0
  8  9  1  0  0  0  0
 11  1  1  0  0  0  0
 11 12  1  0  0  0  0
 13 11  1  0  0  0  0
 14 11  1  0  0  0  0
 15 18  1  0  0  0  0
 15 16  1  0  0  0  0
 17 15  1  0  0  0  0
 19  2  1  0  0  0  0
 19 20  1  0  0  0  0
 21 22  1  6  0  0  0
 21 23  1  0  0  0  0
 21  3  1  0  0  0  0
 23 24  1  6  0  0  0
 25 26  1  0  0  0  0
 27 28  1  0  0  0  0
 27  2  1  0  0  0  0
 29 30  1  1  0  0  0
 29  3  1  0  0  0  0
 31 32  1  6  0  0  0
 31 21  1  0  0  0  0
 31 29  1  0  0  0  0
 33 34  1  6  0  0  0
 33 31  1  0  0  0  0
 33 35  1  0  0  0  0
 33 23  1  0  0  0  0
 35 36  1  6  0  0  0
 35 23  1  0  0  0  0
 37 38  1  6  0  0  0
 37 35  1  0  0  0  0
 37 29  1  0  0  0  0
 37 27  1  0  0  0  0
M  END
