2
 OpenBabel05122313063D

  6  5  0  0  0  0  0  0  0  0999 V2000
    1.6638    0.1288    2.8376 O   0  0  0  0  0  1  0  0  0  0  0  0
    0.6069    0.0184    2.1674 N   0  0  0  0  0  2  0  0  0  0  0  0
   -0.6012   -0.1589    3.0159 C   0  0  0  0  0  0  0  0  0  0  0  0
   -0.7923   -1.2460    3.1324 H   0  0  0  0  0  0  0  0  0  0  0  0
   -0.4011    0.2848    4.0093 H   0  0  0  0  0  0  0  0  0  0  0  0
   -1.4742    0.3132    2.5291 H   0  0  0  0  0  0  0  0  0  0  0  0
  2  1  1  0  0  0  0
  2  3  1  0  0  0  0
  3  4  1  0  0  0  0
  3  5  1  0  0  0  0
  6  3  1  0  0  0  0
M  END
