1
 OpenBabel05122313063D

 21 22  0  0  0  0  0  0  0  0999 V2000
    0.9095    0.1077   -0.7009 N   0  0  0  0  0  2  0  0  0  0  0  0
    4.5249    0.0473   -0.6565 C   0  0  0  0  0  0  0  0  0  0  0  0
    5.3216    0.1996   -1.4000 H   0  0  0  0  0  0  0  0  0  0  0  0
    1.1758    0.3809   -1.9759 C   0  0  0  0  0  3  0  0  0  0  0  0
    0.3981    0.5592   -2.7274 H   0  0  0  0  0  0  0  0  0  0  0  0
    2.5189    0.4058   -2.2057 N   0  0  0  0  0  0  0  0  0  0  0  0
    2.9568    0.6103   -3.1026 H   0  0  0  0  0  0  0  0  0  0  0  0
    2.1354   -0.0511   -0.0532 C   0  0  0  0  0  0  0  0  0  0  0  0
    2.4522   -0.3535    1.2809 C   0  0  0  0  0  0  0  0  0  0  0  0
    1.6362   -0.5004    2.0017 H   0  0  0  0  0  0  0  0  0  0  0  0
    3.1700    0.1409   -1.0054 C   0  0  0  0  0  0  0  0  0  0  0  0
    3.8017   -0.4577    1.6454 C   0  0  0  0  0  0  0  0  0  0  0  0
    4.8436   -0.2551    0.6776 C   0  0  0  0  0  0  0  0  0  0  0  0
    4.1620   -0.7824    3.0730 C   0  0  0  0  0  0  0  0  0  0  0  0
    4.7787    0.0188    3.5331 H   0  0  0  0  0  0  0  0  0  0  0  0
    4.7603   -1.7157    3.1440 H   0  0  0  0  0  0  0  0  0  0  0  0
    3.2554   -0.9109    3.6932 H   0  0  0  0  0  0  0  0  0  0  0  0
    6.2868   -0.3679    1.0956 C   0  0  0  0  0  0  0  0  0  0  0  0
    6.9729   -0.1857    0.2466 H   0  0  0  0  0  0  0  0  0  0  0  0
    6.5148   -1.3738    1.5073 H   0  0  0  0  0  0  0  0  0  0  0  0
    6.5373    0.3585    1.8974 H   0  0  0  0  0  0  0  0  0  0  0  0
  1  8  1  0  0  0  0
  2 13  1  0  0  0  0
  3  2  1  0  0  0  0
  4  1  1  0  0  0  0
  5  4  1  0  0  0  0
  6  4  1  0  0  0  0
  6 11  1  0  0  0  0
  7  6  1  0  0  0  0
  8  9  2  0  0  0  0
  9 12  1  0  0  0  0
  9 10  1  0  0  0  0
 11  2  2  0  0  0  0
 11  8  1  0  0  0  0
 12 14  1  0  0  0  0
 13 18  1  0  0  0  0
 13 12  2  0  0  0  0
 14 16  1  0  0  0  0
 14 15  1  0  0  0  0
 14 17  1  0  0  0  0
 18 20  1  0  0  0  0
 18 21  1  0  0  0  0
 19 18  1  0  0  0  0
M  END
