5
 OpenBabel05122313063D

 11 11  0  0  1  0  0  0  0  0999 V2000
    3.0598    0.4799    2.8651 Cl  0  0  0  0  0  0  0  0  0  0  0  0
    5.9913    0.9341    1.1085 Cl  0  0  0  0  0  0  0  0  0  0  0  0
    5.2714    0.8348   -2.2321 Cl  0  0  0  0  0  0  0  0  0  0  0  0
    1.9253    0.3200   -2.6317 Cl  0  0  0  0  0  0  0  0  0  0  0  0
    0.8626    0.1449    0.4699 N   0  0  0  0  0  0  0  0  0  0  0  0
    0.1864    0.0402    1.5113 N   0  0  0  0  0  0  0  0  0  0  0  0
    2.1638    0.3512    0.1966 C   0  0  0  0  0  0  0  0  0  0  0  0
    3.2376    0.5154    1.1543 C   0  0  2  0  0  0  0  0  0  0  0  0
    4.4200    0.6990    0.4455 C   0  0  0  0  0  0  0  0  0  0  0  0
    4.1160    0.6560   -0.9684 C   0  0  0  0  0  0  0  0  0  0  0  0
    2.7501    0.4450   -1.1200 C   0  0  0  0  0  0  0  0  0  0  0  0
  3 10  1  0  0  0  0
  4 11  1  0  0  0  0
  5  6  1  0  0  0  0
  7  5  1  0  0  0  0
  7  8  1  0  0  0  0
  8  1  1  6  0  0  0
  9  2  1  0  0  0  0
  9  8  1  0  0  0  0
 10  9  2  0  0  0  0
 11 10  1  0  0  0  0
 11  7  2  0  0  0  0
M  END
