1
 OpenBabel05122313063D

 12 11  0  0  1  0  0  0  0  0999 V2000
   -1.4033   -2.2304   -0.1857 N   0  0  0  0  0  2  0  0  0  0  0  0
   -1.2264   -3.2045   -0.4704 H   0  0  0  0  0  0  0  0  0  0  0  0
   -2.6566   -1.8901   -0.1627 C   0  0  2  0  0  3  0  0  0  0  0  0
   -3.7485   -2.7726   -0.6824 C   0  0  0  0  0  0  0  0  0  0  0  0
   -3.3400   -3.7361   -1.0343 H   0  0  0  0  0  0  0  0  0  0  0  0
   -4.2679   -2.2806   -1.5301 H   0  0  0  0  0  0  0  0  0  0  0  0
   -4.5055   -2.9737    0.1022 H   0  0  0  0  0  0  0  0  0  0  0  0
   -4.2555   -0.1379    0.2815 C   0  0  0  0  0  0  0  0  0  0  0  0
   -4.5464    0.0625   -0.7691 H   0  0  0  0  0  0  0  0  0  0  0  0
   -4.1959    0.8172    0.8328 H   0  0  0  0  0  0  0  0  0  0  0  0
   -4.9995   -0.7971    0.7711 H   0  0  0  0  0  0  0  0  0  0  0  0
   -2.9378   -0.6936    0.3498 O   0  0  0  0  0  0  0  0  0  0  0  0
  2  1  1  0  0  0  0
  3  1  1  6  0  0  0
  3 12  1  0  0  0  0
  4  3  1  0  0  0  0
  4  7  1  0  0  0  0
  5  4  1  0  0  0  0
  6  4  1  0  0  0  0
  8 12  1  0  0  0  0
  8 11  1  0  0  0  0
  8 10  1  0  0  0  0
  9  8  1  0  0  0  0
M  END
