3
 OpenBabel05122313063D

 45 48  0  0  0  0  0  0  0  0999 V2000
    0.5375    0.1014    0.4282 P   0  0  1  0  0  0  0  0  0  0  0  0
    0.5487    0.3483    2.1154 O   0  0  0  0  0  0  0  0  0  0  0  0
   -0.8976   -2.2170   -0.3773 N   0  0  0  0  0  2  0  0  0  0  0  0
    1.7037    1.3229   -0.1610 C   0  0  0  0  0  0  0  0  0  0  0  0
    3.0405    0.9488   -0.2059 C   0  0  0  0  0  0  0  0  0  0  0  0
    3.7567    1.7654   -0.4043 H   0  0  0  0  0  0  0  0  0  0  0  0
    3.5954   -0.3671   -0.0635 C   0  0  0  0  0  0  0  0  0  0  0  0
    2.7578   -1.4921    0.0097 C   0  0  0  0  0  0  0  0  0  0  0  0
    3.2407   -2.4784   -0.0954 H   0  0  0  0  0  0  0  0  0  0  0  0
    1.3478   -1.4362    0.0766 C   0  0  0  0  0  0  0  0  0  0  0  0
    0.4492   -2.5146   -0.2384 C   0  0  0  0  0  0  0  0  0  0  0  0
    0.8737   -3.8534   -0.4738 C   0  0  0  0  0  0  0  0  0  0  0  0
    1.9367   -4.0957   -0.3429 H   0  0  0  0  0  0  0  0  0  0  0  0
   -0.0266   -4.8313   -0.8727 C   0  0  0  0  0  0  0  0  0  0  0  0
    0.3183   -5.8614   -1.0490 H   0  0  0  0  0  0  0  0  0  0  0  0
   -1.3787   -4.4818   -1.0718 C   0  0  0  0  0  0  0  0  0  0  0  0
   -2.1240   -5.2054   -1.4277 H   0  0  0  0  0  0  0  0  0  0  0  0
   -1.7547   -3.1659   -0.8205 C   0  0  0  0  0  0  0  0  0  0  0  0
   -2.7844   -2.8280   -0.9927 H   0  0  0  0  0  0  0  0  0  0  0  0
    1.2693    2.7247   -0.3542 C   0  0  0  0  0  0  0  0  0  0  0  0
    0.1990    3.0388   -1.2253 C   0  0  0  0  0  0  0  0  0  0  0  0
   -0.2951    2.2237   -1.7789 H   0  0  0  0  0  0  0  0  0  0  0  0
   -0.1973    4.3712   -1.4113 C   0  0  0  0  0  0  0  0  0  0  0  0
   -1.0158    4.5991   -2.1123 H   0  0  0  0  0  0  0  0  0  0  0  0
    0.4517    5.4145   -0.7294 C   0  0  0  0  0  0  0  0  0  0  0  0
    0.1346    6.4581   -0.8774 H   0  0  0  0  0  0  0  0  0  0  0  0
    1.5146    5.1137    0.1377 C   0  0  0  0  0  0  0  0  0  0  0  0
    2.0298    5.9211    0.6808 H   0  0  0  0  0  0  0  0  0  0  0  0
    1.9192    3.7840    0.3227 C   0  0  0  0  0  0  0  0  0  0  0  0
    2.7411    3.5511    1.0176 H   0  0  0  0  0  0  0  0  0  0  0  0
    5.0665   -0.5472   -0.0944 C   0  0  0  0  0  0  0  0  0  0  0  0
    5.6837   -1.5791    0.6552 C   0  0  0  0  0  0  0  0  0  0  0  0
    5.0594   -2.2218    1.2950 H   0  0  0  0  0  0  0  0  0  0  0  0
    7.0713   -1.7727    0.6261 C   0  0  0  0  0  0  0  0  0  0  0  0
    7.5201   -2.5804    1.2250 H   0  0  0  0  0  0  0  0  0  0  0  0
    7.8893   -0.9310   -0.1443 C   0  0  0  0  0  0  0  0  0  0  0  0
    8.9799   -1.0776   -0.1632 H   0  0  0  0  0  0  0  0  0  0  0  0
    7.2974    0.1030   -0.8882 C   0  0  0  0  0  0  0  0  0  0  0  0
    7.9238    0.7656   -1.5054 H   0  0  0  0  0  0  0  0  0  0  0  0
    5.9092    0.2901   -0.8661 C   0  0  0  0  0  0  0  0  0  0  0  0
    5.4644    1.0832   -1.4858 H   0  0  0  0  0  0  0  0  0  0  0  0
    1.7801    0.3270    2.8317 C   0  0  0  0  0  0  0  0  0  0  0  0
    2.2868   -0.6580    2.7370 H   0  0  0  0  0  0  0  0  0  0  0  0
    1.5405    0.5112    3.8980 H   0  0  0  0  0  0  0  0  0  0  0  0
    2.4795    1.1145    2.4763 H   0  0  0  0  0  0  0  0  0  0  0  0
  1  2  1  1  0  0  0
  2 42  1  0  0  0  0
  3 11  1  0  0  0  0
  4  1  1  0  0  0  0
  5  4  2  0  0  0  0
  5  7  1  0  0  0  0
  6  5  1  0  0  0  0
  7  8  2  0  0  0  0
  8 10  1  0  0  0  0
  9  8  1  0  0  0  0
 10  1  1  0  0  0  0
 11 10  2  0  0  0  0
 12 13  1  0  0  0  0
 12 11  1  0  0  0  0
 14 12  2  0  0  0  0
 15 14  1  0  0  0  0
 16 14  1  0  0  0  0
 16 18  2  0  0  0  0
 17 16  1  0  0  0  0
 18  3  1  0  0  0  0
 19 18  1  0  0  0  0
 20  4  1  0  0  0  0
 20 29  1  0  0  0  0
 21 20  2  0  0  0  0
 22 21  1  0  0  0  0
 23 21  1  0  0  0  0
 23 25  2  0  0  0  0
 24 23  1  0  0  0  0
 25 27  1  0  0  0  0
 26 25  1  0  0  0  0
 27 29  2  0  0  0  0
 27 28  1  0  0  0  0
 29 30  1  0  0  0  0
 31  7  1  0  0  0  0
 31 32  1  0  0  0  0
 32 33  1  0  0  0  0
 34 32  2  0  0  0  0
 34 35  1  0  0  0  0
 36 34  1  0  0  0  0
 37 36  1  0  0  0  0
 38 40  1  0  0  0  0
 38 36  2  0  0  0  0
 39 38  1  0  0  0  0
 40 31  2  0  0  0  0
 41 40  1  0  0  0  0
 42 44  1  0  0  0  0
 43 42  1  0  0  0  0
 45 42  1  0  0  0  0
M  END
