2
 OpenBabel05122313063D

 35 37  0  0  1  0  0  0  0  0999 V2000
    3.0743   -2.6594   -1.1772 O   0  0  0  0  0  0  0  0  0  0  0  0
    1.2140   -1.4581   -0.8551 N   0  0  0  0  0  2  0  0  0  0  0  0
    2.5127   -1.4630   -0.9060 C   0  0  2  0  0  3  0  0  0  0  0  0
    1.9914   -3.6190   -1.3471 C   0  0  0  0  0  0  0  0  0  0  0  0
    2.1217   -4.4138   -0.5849 H   0  0  0  0  0  0  0  0  0  0  0  0
    2.0968   -4.0641   -2.3547 H   0  0  0  0  0  0  0  0  0  0  0  0
    0.6894   -2.7990   -1.1647 C   0  0  1  0  0  0  0  0  0  0  0  0
    0.1274   -2.7071   -2.1191 H   0  0  0  0  0  0  0  0  0  0  0  0
   -0.2900   -3.3111   -0.0860 C   0  0  0  0  0  0  0  0  0  0  0  0
   -1.0962   -2.5441   -0.0492 H   0  0  0  0  0  0  0  0  0  0  0  0
    0.3374   -3.3915    1.3079 C   0  0  0  0  0  0  0  0  0  0  0  0
    1.1659   -4.1309    1.3528 H   0  0  0  0  0  0  0  0  0  0  0  0
   -0.4212   -3.7183    2.0477 H   0  0  0  0  0  0  0  0  0  0  0  0
    0.7221   -2.4026    1.6317 H   0  0  0  0  0  0  0  0  0  0  0  0
   -0.9154   -4.6381   -0.5284 C   0  0  0  0  0  0  0  0  0  0  0  0
   -0.1597   -5.4519   -0.5793 H   0  0  0  0  0  0  0  0  0  0  0  0
   -1.3927   -4.5536   -1.5263 H   0  0  0  0  0  0  0  0  0  0  0  0
   -1.6934   -4.9614    0.1917 H   0  0  0  0  0  0  0  0  0  0  0  0
    3.3701   -0.2766   -0.7518 C   0  0  0  0  0  0  0  0  0  0  0  0
    2.9578    0.8917   -1.3972 C   0  0  0  0  0  0  0  0  0  0  0  0
    2.0436    0.8697   -2.0103 H   0  0  0  0  0  0  0  0  0  0  0  0
    3.7003    2.0892   -1.2722 C   0  0  0  0  0  0  0  0  0  0  0  0
    3.3572    2.9953   -1.7937 H   0  0  0  0  0  0  0  0  0  0  0  0
    4.8488    2.1150   -0.4966 C   0  0  0  0  0  0  0  0  0  0  0  0
    5.4305    3.0438   -0.3887 H   0  0  0  0  0  0  0  0  0  0  0  0
    5.3052    0.9453    0.1777 C   0  0  0  0  0  0  0  0  0  0  0  0
    6.4789    0.9697    0.9872 C   0  0  0  0  0  0  0  0  0  0  0  0
    7.0382    1.9145    1.0717 H   0  0  0  0  0  0  0  0  0  0  0  0
    6.9046   -0.1639    1.6604 C   0  0  0  0  0  0  0  0  0  0  0  0
    7.8104   -0.1307    2.2842 H   0  0  0  0  0  0  0  0  0  0  0  0
    6.1647   -1.3706    1.5507 C   0  0  0  0  0  0  0  0  0  0  0  0
    6.5003   -2.2667    2.0944 H   0  0  0  0  0  0  0  0  0  0  0  0
    5.0213   -1.4319    0.7678 C   0  0  0  0  0  0  0  0  0  0  0  0
    4.4618   -2.3726    0.6877 H   0  0  0  0  0  0  0  0  0  0  0  0
    4.5607   -0.2866    0.0538 C   0  0  0  0  0  0  0  0  0  0  0  0
  1  3  1  0  0  0  0
  3  2  1  0  0  0  0
  3 19  1  6  0  0  0
  4  1  1  0  0  0  0
  4  7  1  0  0  0  0
  4  5  1  0  0  0  0
  6  4  1  0  0  0  0
  7  8  1  6  0  0  0
  7  2  1  0  0  0  0
  7  9  1  0  0  0  0
  9 10  1  0  0  0  0
  9 11  1  0  0  0  0
 11 12  1  0  0  0  0
 11 14  1  0  0  0  0
 11 13  1  0  0  0  0
 15  9  1  0  0  0  0
 15 18  1  0  0  0  0
 16 15  1  0  0  0  0
 17 15  1  0  0  0  0
 19 35  1  0  0  0  0
 20 22  1  0  0  0  0
 20 19  2  0  0  0  0
 21 20  1  0  0  0  0
 22 24  2  0  0  0  0
 23 22  1  0  0  0  0
 24 25  1  0  0  0  0
 24 26  1  0  0  0  0
 26 27  1  0  0  0  0
 27 28  1  0  0  0  0
 27 29  2  0  0  0  0
 29 30  1  0  0  0  0
 31 29  1  0  0  0  0
 31 32  1  0  0  0  0
 33 31  2  0  0  0  0
 34 33  1  0  0  0  0
 35 26  2  0  0  0  0
 35 33  1  0  0  0  0
M  END
