3
 OpenBabel05122313063D

 13 14  0  0  0  0  0  0  0  0999 V2000
   -2.6179    0.7326   -1.6711 N   0  0  0  0  0  0  0  0  0  0  0  0
   -1.3133    0.5703   -1.4173 C   0  0  0  0  0  3  0  0  0  0  0  0
   -0.7706    0.0645   -0.2836 N   0  0  0  0  0  2  0  0  0  0  0  0
   -1.6871   -0.3230    0.6295 C   0  0  0  0  0  0  0  0  0  0  0  0
   -3.1032   -0.1931    0.4642 C   0  0  0  0  0  0  0  0  0  0  0  0
   -3.5134    0.3734   -0.7576 C   0  0  0  0  0  0  0  0  0  0  0  0
   -5.1962    0.6071   -1.0987 Cl  0  0  0  0  0  0  0  0  0  0  0  0
   -3.7633   -0.6826    1.5667 N   0  0  0  0  0  0  0  0  0  0  0  0
   -2.7900   -1.0985    2.3601 C   0  0  0  0  0  0  0  0  0  0  0  0
   -1.5199   -0.9069    1.8554 N   0  0  0  0  0  0  0  0  0  0  0  0
   -0.6051    0.8716   -2.2036 H   0  0  0  0  0  0  0  0  0  0  0  0
   -2.9398   -1.5630    3.3445 H   0  0  0  0  0  0  0  0  0  0  0  0
   -0.5845   -1.2185    2.2535 H   0  0  0  0  0  0  0  0  0  0  0  0
  1  2  1  0  0  0  0
  1  6  2  0  0  0  0
  2  3  1  0  0  0  0
  3  4  1  0  0  0  0
  4 10  1  0  0  0  0
  5  4  2  0  0  0  0
  5  8  1  0  0  0  0
  6  5  1  0  0  0  0
  7  6  1  0  0  0  0
  8  9  2  0  0  0  0
  9 12  1  0  0  0  0
 10 13  1  0  0  0  0
 10  9  1  0  0  0  0
 11  2  1  0  0  0  0
M  END
