1
 OpenBabel05122313063D

 23 25  0  0  1  0  0  0  0  0999 V2000
    1.7328   -1.2756   -0.2656 N   0  0  0  0  0  2  0  0  0  0  0  0
    3.9055   -0.8386    0.0051 N   0  0  0  0  0  0  0  0  0  0  0  0
    4.7903   -0.3536   -0.1749 H   0  0  0  0  0  0  0  0  0  0  0  0
    3.1883    1.4127   -1.8961 N   0  0  0  0  0  0  0  0  0  0  0  0
    4.4007    1.7601   -1.4004 N   0  0  0  0  0  0  0  0  0  0  0  0
    4.3605    3.0464   -1.2016 N   0  0  0  0  0  0  0  0  0  0  0  0
    3.1489    3.5566   -1.5486 N   0  0  0  0  0  0  0  0  0  0  0  0
    2.4217    2.5289   -1.9708 C   0  0  0  0  0  0  0  0  0  0  0  0
    1.3709    2.4992   -2.2872 H   0  0  0  0  0  0  0  0  0  0  0  0
    2.8472    0.0118   -2.1167 C   0  0  0  0  0  0  0  0  0  0  0  0
    3.5987   -0.4307   -2.8013 H   0  0  0  0  0  0  0  0  0  0  0  0
    1.8438   -0.0255   -2.5800 H   0  0  0  0  0  0  0  0  0  0  0  0
    2.8106   -0.7206   -0.8101 C   0  0  2  0  0  3  0  0  0  0  0  0
    3.5133   -1.5069    1.1568 C   0  0  0  0  0  0  0  0  0  0  0  0
    4.1932   -1.8875    2.3244 C   0  0  0  0  0  0  0  0  0  0  0  0
    5.2583   -1.6625    2.4769 H   0  0  0  0  0  0  0  0  0  0  0  0
    3.4421   -2.5709    3.2886 C   0  0  0  0  0  0  0  0  0  0  0  0
    3.9333   -2.8881    4.2206 H   0  0  0  0  0  0  0  0  0  0  0  0
    2.0696   -2.8705    3.0957 C   0  0  0  0  0  0  0  0  0  0  0  0
    1.5292   -3.4185    3.8818 H   0  0  0  0  0  0  0  0  0  0  0  0
    1.3905   -2.4921    1.9335 C   0  0  0  0  0  0  0  0  0  0  0  0
    0.3317   -2.7275    1.7488 H   0  0  0  0  0  0  0  0  0  0  0  0
    2.1314   -1.7950    0.9613 C   0  0  0  0  0  0  0  0  0  0  0  0
  1 23  1  0  0  0  0
  2 14  1  0  0  0  0
  3  2  1  0  0  0  0
  4  5  1  0  0  0  0
  5  6  2  0  0  0  0
  7  6  1  0  0  0  0
  8  4  1  0  0  0  0
  8  7  2  0  0  0  0
  9  8  1  0  0  0  0
 10  4  1  0  0  0  0
 11 10  1  0  0  0  0
 12 10  1  0  0  0  0
 13 10  1  1  0  0  0
 13  1  1  0  0  0  0
 13  2  1  0  0  0  0
 14 15  1  0  0  0  0
 15 16  1  0  0  0  0
 15 17  2  0  0  0  0
 17 18  1  0  0  0  0
 19 17  1  0  0  0  0
 19 20  1  0  0  0  0
 21 19  2  0  0  0  0
 22 21  1  0  0  0  0
 23 14  2  0  0  0  0
 23 21  1  0  0  0  0
M  END
