1
 OpenBabel05122313063D

 21 22  0  0  1  0  0  0  0  0999 V2000
    1.9908   -0.2583   -0.6017 N   0  0  0  0  0  2  0  0  0  0  0  0
    2.8824    1.7497    0.2403 N   0  0  0  0  0  0  0  0  0  0  0  0
    2.9940    0.4355   -0.1288 C   0  0  2  0  0  3  0  0  0  0  0  0
    1.7924    2.4018    0.9199 C   0  0  0  0  0  0  0  0  0  0  0  0
    3.1607    2.3212    1.5462 C   0  0  0  0  0  0  0  0  0  0  0  0
    4.3464   -0.1703   -0.0179 C   0  0  0  0  0  0  0  0  0  0  0  0
    5.5058    0.6088   -0.2163 C   0  0  0  0  0  0  0  0  0  0  0  0
    6.7732    0.0216   -0.1097 C   0  0  0  0  0  0  0  0  0  0  0  0
    6.8960   -1.3425    0.2029 C   0  0  0  0  0  0  0  0  0  0  0  0
    5.7452   -2.1200    0.4124 C   0  0  0  0  0  0  0  0  0  0  0  0
    4.4746   -1.5393    0.3055 C   0  0  0  0  0  0  0  0  0  0  0  0
    2.2763   -1.1879   -0.9328 H   0  0  0  0  0  0  0  0  0  0  0  0
    1.4316    3.3302    0.4489 H   0  0  0  0  0  0  0  0  0  0  0  0
    0.9907    1.7462    1.3060 H   0  0  0  0  0  0  0  0  0  0  0  0
    3.3028    1.6197    2.3874 H   0  0  0  0  0  0  0  0  0  0  0  0
    3.8199    3.2059    1.5558 H   0  0  0  0  0  0  0  0  0  0  0  0
    5.3977    1.6721   -0.4756 H   0  0  0  0  0  0  0  0  0  0  0  0
    7.6736    0.6314   -0.2786 H   0  0  0  0  0  0  0  0  0  0  0  0
    7.8931   -1.8007    0.2873 H   0  0  0  0  0  0  0  0  0  0  0  0
    5.8372   -3.1852    0.6724 H   0  0  0  0  0  0  0  0  0  0  0  0
    3.5697   -2.1367    0.5030 H   0  0  0  0  0  0  0  0  0  0  0  0
  2  4  1  0  0  0  0
  2  5  1  0  0  0  0
  3  1  1  6  0  0  0
  3  6  1  0  0  0  0
  3  2  1  0  0  0  0
  4 14  1  0  0  0  0
  4  5  1  0  0  0  0
  5 16  1  0  0  0  0
  5 15  1  0  0  0  0
  6 11  1  0  0  0  0
  7  8  1  0  0  0  0
  7  6  2  0  0  0  0
  8  9  2  0  0  0  0
  9 19  1  0  0  0  0
  9 10  1  0  0  0  0
 10 20  1  0  0  0  0
 11 10  2  0  0  0  0
 11 21  1  0  0  0  0
 12  1  1  0  0  0  0
 13  4  1  0  0  0  0
 17  7  1  0  0  0  0
 18  8  1  0  0  0  0
M  END
