3
 OpenBabel05122313063D

 13 13  0  0  0  0  0  0  0  0999 V2000
   -2.8558    2.8003    1.9015 Cl  0  0  0  0  0  0  0  0  0  0  0  0
   -0.7411    0.5754    0.8866 S   0  0  0  0  0  1  0  0  0  0  0  0
    0.6846    1.3820   -1.5019 N   0  0  0  0  0  2  0  0  0  0  0  0
    1.0597    1.3906   -2.4526 H   0  0  0  0  0  0  0  0  0  0  0  0
   -0.3807    2.1786   -1.2809 C   0  0  0  0  0  0  0  0  0  0  0  0
   -1.1196    2.0163   -0.0614 C   0  0  0  0  0  0  0  0  0  0  0  0
   -2.0956    2.9554    0.3368 C   0  0  0  0  0  0  0  0  0  0  0  0
   -2.4469    4.0136   -0.5027 C   0  0  0  0  0  0  0  0  0  0  0  0
   -3.2069    4.7383   -0.1849 H   0  0  0  0  0  0  0  0  0  0  0  0
   -1.8084    4.1081   -1.7619 C   0  0  0  0  0  0  0  0  0  0  0  0
   -2.1045    4.9199   -2.4441 H   0  0  0  0  0  0  0  0  0  0  0  0
   -0.8084    3.2258   -2.1568 C   0  0  0  0  0  0  0  0  0  0  0  0
   -0.3135    3.3403   -3.1331 H   0  0  0  0  0  0  0  0  0  0  0  0
  3  5  1  0  0  0  0
  4  3  1  0  0  0  0
  5  6  1  0  0  0  0
  6  7  2  0  0  0  0
  6  2  1  0  0  0  0
  7  1  1  0  0  0  0
  8  9  1  0  0  0  0
  8  7  1  0  0  0  0
 10  8  2  0  0  0  0
 11 10  1  0  0  0  0
 12 10  1  0  0  0  0
 12  5  2  0  0  0  0
 13 12  1  0  0  0  0
M  END
