1
 OpenBabel05122313063D

 39 40  0  0  0  0  0  0  0  0999 V2000
    0.2488    1.9642   -0.4217 N   0  0  0  0  0  2  0  0  0  0  0  0
    1.6264    2.3238   -0.4198 C   0  0  0  0  0  0  0  0  0  0  0  0
    2.1252    3.2451    0.5176 C   0  0  0  0  0  0  0  0  0  0  0  0
    3.4946    3.5495    0.5599 C   0  0  0  0  0  0  0  0  0  0  0  0
    4.3795    2.9258   -0.3438 C   0  0  0  0  0  0  0  0  0  0  0  0
    5.7235    3.1332   -0.3769 O   0  0  0  0  0  0  0  0  0  0  0  0
    6.3031    4.0358    0.5607 C   0  0  0  0  0  0  0  0  0  0  0  0
    7.7989    4.0723    0.3111 C   0  0  0  0  0  0  0  0  0  0  0  0
    8.0160    4.4159   -0.7195 H   0  0  0  0  0  0  0  0  0  0  0  0
    8.2902    4.7648    1.0227 H   0  0  0  0  0  0  0  0  0  0  0  0
    8.2415    3.0649    0.4398 H   0  0  0  0  0  0  0  0  0  0  0  0
    5.8535    5.0494    0.4405 H   0  0  0  0  0  0  0  0  0  0  0  0
    6.0803    3.6985    1.6001 H   0  0  0  0  0  0  0  0  0  0  0  0
    3.8724    1.9991   -1.2849 C   0  0  0  0  0  0  0  0  0  0  0  0
    2.5145    1.6909   -1.3189 C   0  0  0  0  0  0  0  0  0  0  0  0
    2.1082    0.9527   -2.0279 H   0  0  0  0  0  0  0  0  0  0  0  0
    4.5789    1.5225   -1.9798 H   0  0  0  0  0  0  0  0  0  0  0  0
    3.8606    4.2528    1.3191 H   0  0  0  0  0  0  0  0  0  0  0  0
    1.4407    3.6816    1.2590 H   0  0  0  0  0  0  0  0  0  0  0  0
   -0.6676    2.8891   -0.4678 C   0  0  0  0  0  3  0  0  0  0  0  0
   -2.1083    2.7293   -0.3841 C   0  0  0  0  0  0  0  0  0  0  0  0
   -2.8884    3.9038   -0.2637 C   0  0  0  0  0  0  0  0  0  0  0  0
   -4.2802    3.8546   -0.1404 C   0  0  0  0  0  0  0  0  0  0  0  0
   -4.9326    2.6008   -0.1496 C   0  0  0  0  0  0  0  0  0  0  0  0
   -6.2703    2.4319   -0.0330 O   0  0  0  0  0  0  0  0  0  0  0  0
   -7.1082    3.5781    0.1221 C   0  0  0  0  0  0  0  0  0  0  0  0
   -8.5409    3.0955    0.2391 C   0  0  0  0  0  0  0  0  0  0  0  0
   -8.6588    2.4266    1.1142 H   0  0  0  0  0  0  0  0  0  0  0  0
   -9.2260    3.9572    0.3614 H   0  0  0  0  0  0  0  0  0  0  0  0
   -8.8411    2.5350   -0.6680 H   0  0  0  0  0  0  0  0  0  0  0  0
   -6.8016    4.1477    1.0297 H   0  0  0  0  0  0  0  0  0  0  0  0
   -6.9839    4.2562   -0.7537 H   0  0  0  0  0  0  0  0  0  0  0  0
   -4.1679    1.4176   -0.2960 C   0  0  0  0  0  0  0  0  0  0  0  0
   -2.7865    1.4812   -0.4120 C   0  0  0  0  0  0  0  0  0  0  0  0
   -2.2062    0.5530   -0.5435 H   0  0  0  0  0  0  0  0  0  0  0  0
   -4.6915    0.4508   -0.3116 H   0  0  0  0  0  0  0  0  0  0  0  0
   -4.8467    4.7889   -0.0374 H   0  0  0  0  0  0  0  0  0  0  0  0
   -2.3854    4.8839   -0.2531 H   0  0  0  0  0  0  0  0  0  0  0  0
   -0.3077    3.9325   -0.5772 H   0  0  0  0  0  0  0  0  0  0  0  0
  1  2  1  0  0  0  0
  2  3  1  0  0  0  0
  3  4  2  0  0  0  0
  3 19  1  0  0  0  0
  4 18  1  0  0  0  0
  5  4  1  0  0  0  0
  6  5  1  0  0  0  0
  6  7  1  0  0  0  0
  7 13  1  0  0  0  0
  8 11  1  0  0  0  0
  8  7  1  0  0  0  0
  8 10  1  0  0  0  0
  9  8  1  0  0  0  0
 12  7  1  0  0  0  0
 14  5  2  0  0  0  0
 15 14  1  0  0  0  0
 15  2  2  0  0  0  0
 16 15  1  0  0  0  0
 17 14  1  0  0  0  0
 20  1  1  0  0  0  0
 20 21  1  0  0  0  0
 21 22  1  0  0  0  0
 22 38  1  0  0  0  0
 22 23  2  0  0  0  0
 23 37  1  0  0  0  0
 24 23  1  0  0  0  0
 24 25  1  0  0  0  0
 25 26  1  0  0  0  0
 26 27  1  0  0  0  0
 26 31  1  0  0  0  0
 27 29  1  0  0  0  0
 27 28  1  0  0  0  0
 30 27  1  0  0  0  0
 32 26  1  0  0  0  0
 33 24  2  0  0  0  0
 34 21  2  0  0  0  0
 34 33  1  0  0  0  0
 35 34  1  0  0  0  0
 36 33  1  0  0  0  0
 39 20  1  0  0  0  0
M  END
