1
 OpenBabel05122313063D

 27 29  0  0  1  0  0  0  0  0999 V2000
    2.0505    0.4269   -0.2666 N   0  0  0  0  0  2  0  0  0  0  0  0
    2.6047    1.7031   -0.2144 C   0  0  0  0  0  0  0  0  0  0  0  0
    1.9992    2.9692   -0.3023 C   0  0  0  0  0  0  0  0  0  0  0  0
    0.9111    3.0663   -0.4357 H   0  0  0  0  0  0  0  0  0  0  0  0
    2.8356    4.0879   -0.2167 C   0  0  0  0  0  0  0  0  0  0  0  0
    2.3988    5.0950   -0.2858 H   0  0  0  0  0  0  0  0  0  0  0  0
    4.2361    3.9561   -0.0489 C   0  0  0  0  0  0  0  0  0  0  0  0
    4.8567    4.8620    0.0100 H   0  0  0  0  0  0  0  0  0  0  0  0
    4.8521    2.7015    0.0432 C   0  0  0  0  0  0  0  0  0  0  0  0
    5.9391    2.6046    0.1745 H   0  0  0  0  0  0  0  0  0  0  0  0
    4.0113    1.5815   -0.0391 C   0  0  0  0  0  0  0  0  0  0  0  0
    4.2498    0.2148    0.0120 N   0  0  0  0  0  0  0  0  0  0  0  0
    5.1625   -0.2393    0.0645 H   0  0  0  0  0  0  0  0  0  0  0  0
    3.0590   -0.4554   -0.1255 C   0  0  1  0  0  3  0  0  0  0  0  0
    2.9432   -1.9120   -0.0625 C   0  0  0  0  0  0  0  0  0  0  0  0
    3.7631   -2.6293    0.8427 C   0  0  0  0  0  0  0  0  0  0  0  0
    4.4630   -2.0706    1.4833 H   0  0  0  0  0  0  0  0  0  0  0  0
    3.6652   -4.0148    0.9787 C   0  0  0  0  0  0  0  0  0  0  0  0
    4.3028   -4.5483    1.6971 H   0  0  0  0  0  0  0  0  0  0  0  0
    2.7252   -4.7109    0.1968 C   0  0  0  0  0  0  0  0  0  0  0  0
    2.6285   -5.8026    0.2928 H   0  0  0  0  0  0  0  0  0  0  0  0
    1.9140   -4.0299   -0.7133 C   0  0  0  0  0  0  0  0  0  0  0  0
    1.1963   -4.5873   -1.3355 H   0  0  0  0  0  0  0  0  0  0  0  0
    2.0099   -2.6277   -0.8788 C   0  0  0  0  0  0  0  0  0  0  0  0
    1.1854   -1.9810   -1.7874 N   0  0  0  0  0  0  0  0  0  0  0  0
    1.5135   -1.0889   -2.1631 H   0  0  0  0  0  0  0  0  0  0  0  0
    0.7367   -2.5760   -2.4862 H   0  0  0  0  0  0  0  0  0  0  0  0
  1  2  1  0  0  0  0
  1 14  1  0  0  0  0
  2 11  1  0  0  0  0
  3  5  1  0  0  0  0
  3  2  2  0  0  0  0
  4  3  1  0  0  0  0
  5  7  2  0  0  0  0
  6  5  1  0  0  0  0
  7  8  1  0  0  0  0
  7  9  1  0  0  0  0
  9 10  1  0  0  0  0
 11 12  1  0  0  0  0
 11  9  2  0  0  0  0
 12 13  1  0  0  0  0
 14 15  1  1  0  0  0
 14 12  1  0  0  0  0
 15 16  1  0  0  0  0
 16 18  2  0  0  0  0
 16 17  1  0  0  0  0
 18 19  1  0  0  0  0
 20 21  1  0  0  0  0
 20 18  1  0  0  0  0
 22 20  2  0  0  0  0
 23 22  1  0  0  0  0
 24 22  1  0  0  0  0
 24 15  2  0  0  0  0
 25 24  1  0  0  0  0
 26 25  1  0  0  0  0
 27 25  1  0  0  0  0
M  END
