1
 OpenBabel05122313063D

 17 17  0  0  1  0  0  0  0  0999 V2000
   -1.5651   -1.2873   -0.0330 N   0  0  0  0  0  2  0  0  0  0  0  0
   -1.2212   -2.2485    0.0871 H   0  0  0  0  0  0  0  0  0  0  0  0
   -3.4857   -0.0268   -0.3911 N   0  0  0  0  0  0  0  0  0  0  0  0
   -2.8640    0.8055   -0.4421 H   0  0  0  0  0  0  0  0  0  0  0  0
   -2.8698   -1.2098   -0.1773 C   0  0  1  0  0  3  0  0  0  0  0  0
   -4.8992    0.1685   -0.4666 C   0  0  0  0  0  0  0  0  0  0  0  0
   -5.3927   -0.2530   -1.3626 H   0  0  0  0  0  0  0  0  0  0  0  0
   -3.7234   -2.4497   -0.1217 C   0  0  0  0  0  0  0  0  0  0  0  0
   -3.1076   -3.3450    0.0784 H   0  0  0  0  0  0  0  0  0  0  0  0
   -4.4922   -2.3569    0.6712 H   0  0  0  0  0  0  0  0  0  0  0  0
   -4.2631   -2.5959   -1.0794 H   0  0  0  0  0  0  0  0  0  0  0  0
   -5.4300    1.4819    0.0451 C   0  0  0  0  0  0  0  0  0  0  0  0
   -4.6889    2.1723    0.4780 H   0  0  0  0  0  0  0  0  0  0  0  0
   -6.2375    1.9691   -0.5215 H   0  0  0  0  0  0  0  0  0  0  0  0
   -5.7298    0.2130    0.8058 C   0  0  0  0  0  0  0  0  0  0  0  0
   -6.7505   -0.1986    0.7716 H   0  0  0  0  0  0  0  0  0  0  0  0
   -5.1938    0.0525    1.7540 H   0  0  0  0  0  0  0  0  0  0  0  0
  1  2  1  0  0  0  0
  3  5  1  0  0  0  0
  4  3  1  0  0  0  0
  5  8  1  0  0  0  0
  5  1  1  6  0  0  0
  6  3  1  0  0  0  0
  6 12  1  0  0  0  0
  6 15  1  0  0  0  0
  7  6  1  0  0  0  0
  8  9  1  0  0  0  0
  8 10  1  0  0  0  0
 11  8  1  0  0  0  0
 12 13  1  0  0  0  0
 12 15  1  0  0  0  0
 14 12  1  0  0  0  0
 15 17  1  0  0  0  0
 16 15  1  0  0  0  0
M  END
