7
 OpenBabel05122313063D

 15 15  0  0  0  0  0  0  0  0999 V2000
   -5.6589   -0.2549    0.0172 N   0  0  0  0  0  0  0  0  0  0  0  0
   -7.0642    0.1061    0.1180 C   0  0  0  0  0  0  0  0  0  0  0  0
   -4.6663    0.7767    0.2134 C   0  0  0  0  0  0  0  0  0  0  0  0
   -5.0287    1.9283    0.4545 O   0  0  0  0  0  0  0  0  0  0  0  0
   -3.3628    0.3892    0.1135 N   0  0  0  0  0  0  0  0  0  0  0  0
   -2.9671   -0.8741   -0.1676 C   0  0  0  0  0  0  0  0  0  0  0  0
   -1.6580   -1.1497   -0.2554 N   0  0  0  0  0  2  0  0  0  0  0  0
   -3.9673   -1.9049   -0.3690 C   0  0  0  0  0  0  0  0  0  0  0  0
   -5.2814   -1.5380   -0.2637 C   0  0  0  0  0  0  0  0  0  0  0  0
   -1.4928   -2.1345   -0.4848 H   0  0  0  0  0  0  0  0  0  0  0  0
   -7.5669   -0.4635    0.9272 H   0  0  0  0  0  0  0  0  0  0  0  0
   -7.5961   -0.0799   -0.8383 H   0  0  0  0  0  0  0  0  0  0  0  0
   -7.0972    1.1858    0.3522 H   0  0  0  0  0  0  0  0  0  0  0  0
   -3.6904   -2.9429   -0.5949 H   0  0  0  0  0  0  0  0  0  0  0  0
   -6.1008   -2.2609   -0.4004 H   0  0  0  0  0  0  0  0  0  0  0  0
  1  2  1  0  0  0  0
  1  3  1  0  0  0  0
  2 13  1  0  0  0  0
  2 11  1  0  0  0  0
  3  4  2  0  0  0  0
  5  3  1  0  0  0  0
  6  5  2  0  0  0  0
  7  6  1  0  0  0  0
  8  9  2  0  0  0  0
  8  6  1  0  0  0  0
  9  1  1  0  0  0  0
 10  7  1  0  0  0  0
 12  2  1  0  0  0  0
 14  8  1  0  0  0  0
 15  9  1  0  0  0  0
M  END
