1
 OpenBabel05122313063D

 27 28  0  0  1  0  0  0  0  0999 V2000
    2.0369    0.2168    0.3073 N   0  0  0  0  0  2  0  0  0  0  0  0
   -1.9913    2.0578    1.2707 N   0  0  0  0  0  0  0  0  0  0  0  0
   -1.3161    1.7821    1.9837 H   0  0  0  0  0  0  0  0  0  0  0  0
    0.1433    1.3258   -1.2591 N   0  0  0  0  0  0  0  0  0  0  0  0
   -0.4897    1.2544   -2.0692 H   0  0  0  0  0  0  0  0  0  0  0  0
   -1.6616    2.5035    0.0042 C   0  0  0  0  0  0  0  0  0  0  0  0
   -2.8602    2.7650   -0.6650 C   0  0  0  0  0  0  0  0  0  0  0  0
   -2.9503    3.1511   -1.6874 H   0  0  0  0  0  0  0  0  0  0  0  0
   -3.9281    2.4617    0.2292 C   0  0  0  0  0  0  0  0  0  0  0  0
   -5.0004    2.5709    0.0349 H   0  0  0  0  0  0  0  0  0  0  0  0
   -3.3567    2.0295    1.4232 C   0  0  0  0  0  0  0  0  0  0  0  0
   -3.8179    1.7334    2.3715 H   0  0  0  0  0  0  0  0  0  0  0  0
   -0.2611    2.5550   -0.4842 C   0  0  0  0  0  0  0  0  0  0  0  0
    0.4536    2.6577    0.3577 H   0  0  0  0  0  0  0  0  0  0  0  0
   -0.1178    3.4397   -1.1432 H   0  0  0  0  0  0  0  0  0  0  0  0
    1.5457    1.4230   -1.7393 C   0  0  0  0  0  0  0  0  0  0  0  0
    1.7629    2.4178   -2.1871 H   0  0  0  0  0  0  0  0  0  0  0  0
    1.6904    0.6571   -2.5301 H   0  0  0  0  0  0  0  0  0  0  0  0
    2.4857    1.1370   -0.5936 C   0  0  2  0  0  3  0  0  0  0  0  0
    3.7405    1.7428   -0.4544 C   0  0  0  0  0  0  0  0  0  0  0  0
    4.0739    2.4838   -1.1951 H   0  0  0  0  0  0  0  0  0  0  0  0
    4.5539    1.3930    0.6335 C   0  0  0  0  0  0  0  0  0  0  0  0
    5.5436    1.8561    0.7596 H   0  0  0  0  0  0  0  0  0  0  0  0
    4.0807    0.4534    1.5602 C   0  0  0  0  0  0  0  0  0  0  0  0
    4.6797    0.1556    2.4321 H   0  0  0  0  0  0  0  0  0  0  0  0
    2.8168   -0.1110    1.3615 C   0  0  0  0  0  0  0  0  0  0  0  0
    2.4072   -0.8548    2.0615 H   0  0  0  0  0  0  0  0  0  0  0  0
  1 26  1  0  0  0  0
  2 11  1  0  0  0  0
  2  3  1  0  0  0  0
  4 13  1  0  0  0  0
  5  4  1  0  0  0  0
  6  2  1  0  0  0  0
  7  6  2  0  0  0  0
  7  9  1  0  0  0  0
  8  7  1  0  0  0  0
  9 11  2  0  0  0  0
 10  9  1  0  0  0  0
 11 12  1  0  0  0  0
 13  6  1  0  0  0  0
 13 14  1  0  0  0  0
 15 13  1  0  0  0  0
 16  4  1  0  0  0  0
 17 16  1  0  0  0  0
 18 16  1  0  0  0  0
 19 16  1  6  0  0  0
 19 20  1  0  0  0  0
 19  1  1  0  0  0  0
 20 22  2  0  0  0  0
 21 20  1  0  0  0  0
 22 23  1  0  0  0  0
 22 24  1  0  0  0  0
 24 25  1  0  0  0  0
 26 24  2  0  0  0  0
 26 27  1  0  0  0  0
M  END
