1
 OpenBabel05122313063D

 35 39  0  0  1  0  0  0  0  0999 V2000
   -0.3694   -0.3494   -0.8508 N   0  0  0  0  0  2  0  0  0  0  0  0
   -1.1531   -1.1496   -0.0254 C   0  0  0  0  0  0  0  0  0  0  0  0
   -2.4900   -0.7599    0.3241 C   0  0  0  0  0  0  0  0  0  0  0  0
   -3.0749    0.4162   -0.3027 C   0  0  0  0  0  0  0  0  0  0  0  0
   -2.1543    1.2855   -0.9625 C   0  0  0  0  0  0  0  0  0  0  0  0
   -0.8377    0.8236   -1.2446 C   0  0  0  0  0  0  0  0  0  0  0  0
   -0.1451    1.4597   -1.8154 H   0  0  0  0  0  0  0  0  0  0  0  0
   -2.5158    2.6267   -1.2926 C   0  0  0  0  0  0  0  0  0  0  0  0
   -1.7725    3.2739   -1.7810 H   0  0  0  0  0  0  0  0  0  0  0  0
   -3.7507    3.1050   -0.9219 C   0  0  0  0  0  0  0  0  0  0  0  0
   -4.0158    4.1620   -1.0759 H   0  0  0  0  0  0  0  0  0  0  0  0
   -4.7461    2.2223   -0.3938 C   0  0  0  0  0  0  0  0  0  0  0  0
   -4.4601    0.8274   -0.2204 C   0  0  0  0  0  0  0  0  0  0  0  0
   -5.5911   -0.0774   -0.0480 C   0  0  1  0  0  3  0  0  0  0  0  0
   -6.8810    0.4674    0.2875 C   0  0  0  0  0  0  0  0  0  0  0  0
   -7.0604    1.8889    0.3243 C   0  0  0  0  0  0  0  0  0  0  0  0
   -8.0485    2.2897    0.5984 H   0  0  0  0  0  0  0  0  0  0  0  0
   -6.0480    2.7295   -0.0707 C   0  0  0  0  0  0  0  0  0  0  0  0
   -6.2174    3.8144   -0.1476 H   0  0  0  0  0  0  0  0  0  0  0  0
   -7.9843   -0.4080    0.4910 C   0  0  0  0  0  0  0  0  0  0  0  0
   -8.9545    0.0284    0.7747 H   0  0  0  0  0  0  0  0  0  0  0  0
   -7.8576   -1.7761    0.2916 C   0  0  0  0  0  0  0  0  0  0  0  0
   -8.7214   -2.4415    0.4384 H   0  0  0  0  0  0  0  0  0  0  0  0
   -6.6208   -2.3036   -0.1515 C   0  0  0  0  0  0  0  0  0  0  0  0
   -6.5308   -3.3760   -0.3806 H   0  0  0  0  0  0  0  0  0  0  0  0
   -5.5176   -1.4740   -0.3164 C   0  0  0  0  0  0  0  0  0  0  0  0
   -4.5774   -1.9027   -0.6858 H   0  0  0  0  0  0  0  0  0  0  0  0
   -3.1151   -1.4752    1.3853 C   0  0  0  0  0  0  0  0  0  0  0  0
   -4.0901   -1.1332    1.7536 H   0  0  0  0  0  0  0  0  0  0  0  0
   -2.5068   -2.5732    1.9808 C   0  0  0  0  0  0  0  0  0  0  0  0
   -3.0133   -3.0918    2.8085 H   0  0  0  0  0  0  0  0  0  0  0  0
   -1.2426   -3.0220    1.5294 C   0  0  0  0  0  0  0  0  0  0  0  0
   -0.7750   -3.9109    1.9778 H   0  0  0  0  0  0  0  0  0  0  0  0
   -0.5709   -2.3118    0.5444 C   0  0  0  0  0  0  0  0  0  0  0  0
    0.4396   -2.5908    0.2059 H   0  0  0  0  0  0  0  0  0  0  0  0
  1  2  1  0  0  0  0
  2  3  2  0  0  0  0
  2 34  1  0  0  0  0
  3 28  1  0  0  0  0
  4 13  2  0  0  0  0
  4  3  1  0  0  0  0
  5  4  1  0  0  0  0
  6  5  2  0  0  0  0
  6  1  1  0  0  0  0
  7  6  1  0  0  0  0
  8  5  1  0  0  0  0
  8 10  2  0  0  0  0
  9  8  1  0  0  0  0
 10 12  1  0  0  0  0
 11 10  1  0  0  0  0
 12 13  1  0  0  0  0
 12 18  2  0  0  0  0
 13 14  1  0  0  0  0
 14 26  1  6  0  0  0
 14 15  1  0  0  0  0
 15 16  2  0  0  0  0
 15 20  1  0  0  0  0
 16 17  1  0  0  0  0
 18 16  1  0  0  0  0
 19 18  1  0  0  0  0
 20 21  1  0  0  0  0
 22 23  1  0  0  0  0
 22 20  2  0  0  0  0
 24 22  1  0  0  0  0
 25 24  1  0  0  0  0
 26 24  2  0  0  0  0
 27 26  1  0  0  0  0
 28 29  1  0  0  0  0
 28 30  2  0  0  0  0
 30 31  1  0  0  0  0
 32 33  1  0  0  0  0
 32 30  1  0  0  0  0
 34 32  2  0  0  0  0
 35 34  1  0  0  0  0
M  END
