5
 OpenBabel05122313063D

 29 30  0  0  0  0  0  0  0  0999 V2000
    6.6257    2.5927   -0.5520 Cl  0  0  0  0  0  0  0  0  0  0  0  0
   -6.6185    2.3523    0.7757 Cl  0  0  0  0  0  0  0  0  0  0  0  0
    0.8786    0.8326    1.3772 S   0  0  0  0  0  0  0  0  0  0  0  0
   -0.6110    1.6873   -1.0657 S   0  0  0  0  0  0  0  0  0  0  0  0
    0.0277    0.4778   -0.0534 N   0  0  0  0  0  2  0  0  0  0  0  0
    1.0314   -0.4820    2.0502 O   0  0  0  0  0  0  0  0  0  0  0  0
    0.2630    1.9736    2.0886 O   0  0  0  0  0  0  0  0  0  0  0  0
   -0.6466    1.1014   -2.4231 O   0  0  0  0  0  0  0  0  0  0  0  0
    0.0890    2.9610   -0.7987 O   0  0  0  0  0  0  0  0  0  0  0  0
    2.5114    1.3458    0.8342 C   0  0  0  0  0  0  0  0  0  0  0  0
    3.5060    0.3696    0.6721 C   0  0  0  0  0  0  0  0  0  0  0  0
    3.2767   -0.6808    0.9005 H   0  0  0  0  0  0  0  0  0  0  0  0
    4.7813    0.7537    0.2415 C   0  0  0  0  0  0  0  0  0  0  0  0
    5.5816    0.0125    0.1090 H   0  0  0  0  0  0  0  0  0  0  0  0
    5.0391    2.1120   -0.0154 C   0  0  0  0  0  0  0  0  0  0  0  0
    4.0419    3.0879    0.1570 C   0  0  0  0  0  0  0  0  0  0  0  0
    4.2700    4.1429   -0.0482 H   0  0  0  0  0  0  0  0  0  0  0  0
    2.7665    2.7030    0.5875 C   0  0  0  0  0  0  0  0  0  0  0  0
    1.9625    3.4394    0.7154 H   0  0  0  0  0  0  0  0  0  0  0  0
   -2.3186    1.8602   -0.5194 C   0  0  0  0  0  0  0  0  0  0  0  0
   -2.5925    2.3707    0.7600 C   0  0  0  0  0  0  0  0  0  0  0  0
   -1.7642    2.6168    1.4418 H   0  0  0  0  0  0  0  0  0  0  0  0
   -3.9253    2.5193    1.1595 C   0  0  0  0  0  0  0  0  0  0  0  0
   -4.1724    2.9093    2.1567 H   0  0  0  0  0  0  0  0  0  0  0  0
   -4.9593    2.1643    0.2733 C   0  0  0  0  0  0  0  0  0  0  0  0
   -4.6795    1.6587   -1.0072 C   0  0  0  0  0  0  0  0  0  0  0  0
   -5.5049    1.3913   -1.6817 H   0  0  0  0  0  0  0  0  0  0  0  0
   -3.3446    1.5057   -1.4061 C   0  0  0  0  0  0  0  0  0  0  0  0
   -3.0847    1.1165   -2.4010 H   0  0  0  0  0  0  0  0  0  0  0  0
  1 15  1  0  0  0  0
  3  6  2  0  0  0  0
  3  7  2  0  0  0  0
  4  9  2  0  0  0  0
  4 20  1  0  0  0  0
  4  5  1  0  0  0  0
  5  3  1  0  0  0  0
  8  4  2  0  0  0  0
 10  3  1  0  0  0  0
 11 10  1  0  0  0  0
 11 12  1  0  0  0  0
 13 11  2  0  0  0  0
 14 13  1  0  0  0  0
 15 16  2  0  0  0  0
 15 13  1  0  0  0  0
 16 18  1  0  0  0  0
 17 16  1  0  0  0  0
 18 19  1  0  0  0  0
 18 10  2  0  0  0  0
 20 21  1  0  0  0  0
 21 23  2  0  0  0  0
 21 22  1  0  0  0  0
 23 24  1  0  0  0  0
 25  2  1  0  0  0  0
 25 23  1  0  0  0  0
 26 25  2  0  0  0  0
 27 26  1  0  0  0  0
 28 26  1  0  0  0  0
 28 20  2  0  0  0  0
 29 28  1  0  0  0  0
M  END
