3
 OpenBabel05122313063D

 34 35  0  0  0  0  0  0  0  0999 V2000
    6.2717    0.7562   -0.5376 O   0  0  0  0  0  0  0  0  0  0  0  0
    7.2819   -1.0560    0.4682 O   0  0  0  0  0  0  0  0  0  0  0  0
    1.2792   -0.8091   -1.4055 N   0  0  0  0  0  0  0  0  0  0  0  0
    6.1292   -0.5351   -0.0795 B   0  0  0  0  0  0  0  0  0  0  0  0
    2.4436   -1.4361   -0.8310 C   0  0  0  0  0  0  0  0  0  0  0  0
    3.6511   -0.7281   -0.7502 C   0  0  0  0  0  0  0  0  0  0  0  0
    4.7897   -1.3272   -0.1718 C   0  0  0  0  0  0  0  0  0  0  0  0
    4.6850   -2.6454    0.3254 C   0  0  0  0  0  0  0  0  0  0  0  0
    3.4706   -3.3441    0.2519 C   0  0  0  0  0  0  0  0  0  0  0  0
    2.3412   -2.7431   -0.3203 C   0  0  0  0  0  0  0  0  0  0  0  0
    7.6912    1.0770   -0.4801 C   0  0  0  0  0  0  0  0  0  0  0  0
    8.2265    0.0463    0.5966 C   0  0  0  0  0  0  0  0  0  0  0  0
    8.1061    0.5654    2.0341 C   0  0  0  0  0  0  0  0  0  0  0  0
    9.6344   -0.4797    0.3364 C   0  0  0  0  0  0  0  0  0  0  0  0
    7.8476    2.5449   -0.0961 C   0  0  0  0  0  0  0  0  0  0  0  0
    8.2578    0.8273   -1.8828 C   0  0  0  0  0  0  0  0  0  0  0  0
    0.6777   -1.4906   -1.8940 H   0  0  0  0  0  0  0  0  0  0  0  0
    1.5368   -0.0424   -2.0421 H   0  0  0  0  0  0  0  0  0  0  0  0
    3.7040    0.3089   -1.1162 H   0  0  0  0  0  0  0  0  0  0  0  0
    5.5691   -3.1181    0.7796 H   0  0  0  0  0  0  0  0  0  0  0  0
    3.3936   -4.3670    0.6508 H   0  0  0  0  0  0  0  0  0  0  0  0
    1.3679   -3.2570   -0.3490 H   0  0  0  0  0  0  0  0  0  0  0  0
    7.0933    0.9680    2.2315 H   0  0  0  0  0  0  0  0  0  0  0  0
    8.8488    1.3585    2.2477 H   0  0  0  0  0  0  0  0  0  0  0  0
    8.2814   -0.2752    2.7333 H   0  0  0  0  0  0  0  0  0  0  0  0
    9.7011   -1.0048   -0.6339 H   0  0  0  0  0  0  0  0  0  0  0  0
    9.9183   -1.1964    1.1317 H   0  0  0  0  0  0  0  0  0  0  0  0
   10.3702    0.3493    0.3433 H   0  0  0  0  0  0  0  0  0  0  0  0
    7.3020    2.7826    0.8351 H   0  0  0  0  0  0  0  0  0  0  0  0
    7.4400    3.1868   -0.9013 H   0  0  0  0  0  0  0  0  0  0  0  0
    8.9169    2.8030    0.0412 H   0  0  0  0  0  0  0  0  0  0  0  0
    8.1683   -0.2394   -2.1675 H   0  0  0  0  0  0  0  0  0  0  0  0
    9.3226    1.1234   -1.9544 H   0  0  0  0  0  0  0  0  0  0  0  0
    7.6792    1.4256   -2.6130 H   0  0  0  0  0  0  0  0  0  0  0  0
  1 11  1  0  0  0  0
  1  4  1  0  0  0  0
  2 12  1  0  0  0  0
  3  5  1  0  0  0  0
  4  2  1  0  0  0  0
  5  6  2  0  0  0  0
  5 10  1  0  0  0  0
  6  7  1  0  0  0  0
  7  4  1  0  0  0  0
  7  8  2  0  0  0  0
  8 20  1  0  0  0  0
  9  8  1  0  0  0  0
  9 21  1  0  0  0  0
 10  9  2  0  0  0  0
 11 15  1  0  0  0  0
 11 12  1  0  0  0  0
 12 13  1  0  0  0  0
 13 23  1  0  0  0  0
 13 24  1  0  0  0  0
 13 25  1  0  0  0  0
 14 28  1  0  0  0  0
 14 12  1  0  0  0  0
 14 27  1  0  0  0  0
 15 31  1  0  0  0  0
 15 29  1  0  0  0  0
 16 11  1  0  0  0  0
 17  3  1  0  0  0  0
 18  3  1  0  0  0  0
 19  6  1  0  0  0  0
 22 10  1  0  0  0  0
 26 14  1  0  0  0  0
 30 15  1  0  0  0  0
 32 16  1  0  0  0  0
 33 16  1  0  0  0  0
 34 16  1  0  0  0  0
M  END
