1
 OpenBabel05122313063D

 26 27  0  0  0  0  0  0  0  0999 V2000
   -0.2359   -2.2327    0.5021 N   0  0  0  0  0  2  0  0  0  0  0  0
    1.4800   -0.9679   -1.0730 N   0  0  0  0  0  0  0  0  0  0  0  0
    4.1226    1.3273   -1.5635 N   0  0  0  0  0  0  0  0  0  0  0  0
   -1.2479   -2.8025    1.1988 C   0  0  0  0  0  3  0  0  0  0  0  0
   -1.7281   -2.1775    1.9614 H   0  0  0  0  0  0  0  0  0  0  0  0
   -1.6788   -4.1109    0.9692 C   0  0  0  0  0  0  0  0  0  0  0  0
   -2.5083   -4.5124    1.5674 H   0  0  0  0  0  0  0  0  0  0  0  0
   -1.0491   -4.8839   -0.0205 C   0  0  0  0  0  0  0  0  0  0  0  0
   -1.3612   -5.9207   -0.2105 H   0  0  0  0  0  0  0  0  0  0  0  0
   -0.0345   -4.2927   -0.7739 C   0  0  0  0  0  0  0  0  0  0  0  0
    0.4654   -4.8353   -1.5890 H   0  0  0  0  0  0  0  0  0  0  0  0
    0.3384   -2.9609   -0.5123 C   0  0  0  0  0  0  0  0  0  0  0  0
    1.2551   -2.2250   -1.3480 C   0  0  0  0  0  0  0  0  0  0  0  0
    1.6864   -2.7113   -2.2431 H   0  0  0  0  0  0  0  0  0  0  0  0
    2.3109   -0.2232   -2.0184 C   0  0  0  0  0  0  0  0  0  0  0  0
    1.8359    0.7537   -2.2219 H   0  0  0  0  0  0  0  0  0  0  0  0
    2.3648   -0.7760   -2.9833 H   0  0  0  0  0  0  0  0  0  0  0  0
    3.7230    0.0440   -1.5233 C   0  0  0  0  0  0  0  0  0  0  0  0
    4.5563   -1.0018   -1.0844 C   0  0  0  0  0  0  0  0  0  0  0  0
    4.1907   -2.0396   -1.0607 H   0  0  0  0  0  0  0  0  0  0  0  0
    5.8609   -0.6941   -0.6745 C   0  0  0  0  0  0  0  0  0  0  0  0
    6.5391   -1.4873   -0.3257 H   0  0  0  0  0  0  0  0  0  0  0  0
    6.2829    0.6426   -0.7176 C   0  0  0  0  0  0  0  0  0  0  0  0
    7.2964    0.9320   -0.4040 H   0  0  0  0  0  0  0  0  0  0  0  0
    5.3751    1.6132   -1.1720 C   0  0  0  0  0  0  0  0  0  0  0  0
    5.6704    2.6758   -1.2182 H   0  0  0  0  0  0  0  0  0  0  0  0
  1  4  1  0  0  0  0
  3 18  2  0  0  0  0
  3 25  1  0  0  0  0
  4  5  1  0  0  0  0
  6  4  1  0  0  0  0
  6  7  1  0  0  0  0
  8  6  2  0  0  0  0
  9  8  1  0  0  0  0
 10 12  2  0  0  0  0
 10  8  1  0  0  0  0
 11 10  1  0  0  0  0
 12  1  1  0  0  0  0
 13  2  2  0  0  0  0
 13 12  1  0  0  0  0
 14 13  1  0  0  0  0
 15 18  1  0  0  0  0
 15  2  1  0  0  0  0
 16 15  1  0  0  0  0
 17 15  1  0  0  0  0
 18 19  1  0  0  0  0
 19 20  1  0  0  0  0
 19 21  2  0  0  0  0
 21 22  1  0  0  0  0
 23 21  1  0  0  0  0
 23 24  1  0  0  0  0
 25 23  2  0  0  0  0
 26 25  1  0  0  0  0
M  END
