2
 OpenBabel05122313063D

 35 37  0  0  1  0  0  0  0  0999 V2000
   -2.8349   -0.4517   -2.6527 O   0  0  0  0  0  0  0  0  0  0  0  0
   -1.6995    0.3617   -0.9207 N   0  0  0  0  0  2  0  0  0  0  0  0
   -3.5845   -0.8866   -1.4546 N   0  0  0  0  0  0  0  0  0  0  0  0
   -3.0225   -0.0118   -0.3938 C   0  0  2  0  0  0  0  0  0  0  0  0
   -1.7126    0.1394   -2.2028 C   0  0  1  0  0  3  0  0  0  0  0  0
   -0.6389    0.4480   -3.1796 C   0  0  0  0  0  0  0  0  0  0  0  0
   -3.2339   -2.3125   -1.2613 C   0  0  0  0  0  0  0  0  0  0  0  0
   -4.0971   -2.8746   -0.1548 C   0  0  0  0  0  0  0  0  0  0  0  0
   -3.5348   -3.2325    1.0852 C   0  0  0  0  0  0  0  0  0  0  0  0
   -2.4520   -3.1041    1.2425 H   0  0  0  0  0  0  0  0  0  0  0  0
   -4.3512   -3.7210    2.1185 C   0  0  0  0  0  0  0  0  0  0  0  0
   -3.9009   -3.9980    3.0837 H   0  0  0  0  0  0  0  0  0  0  0  0
   -5.7350   -3.8456    1.9252 C   0  0  0  0  0  0  0  0  0  0  0  0
   -6.3746   -4.2258    2.7364 H   0  0  0  0  0  0  0  0  0  0  0  0
   -6.3044   -3.4780    0.6936 C   0  0  0  0  0  0  0  0  0  0  0  0
   -7.3903   -3.5703    0.5387 H   0  0  0  0  0  0  0  0  0  0  0  0
   -5.4902   -2.9939   -0.3392 C   0  0  0  0  0  0  0  0  0  0  0  0
   -5.9330   -2.6924   -1.3011 H   0  0  0  0  0  0  0  0  0  0  0  0
   -3.9195    1.1821   -0.1074 C   0  0  0  0  0  0  0  0  0  0  0  0
   -3.4756    2.5103   -0.2245 C   0  0  0  0  0  0  0  0  0  0  0  0
   -2.4416    2.7259   -0.5367 H   0  0  0  0  0  0  0  0  0  0  0  0
   -4.3538    3.5672    0.0699 C   0  0  0  0  0  0  0  0  0  0  0  0
   -3.9987    4.6049   -0.0244 H   0  0  0  0  0  0  0  0  0  0  0  0
   -5.6692    3.3068    0.4798 C   0  0  0  0  0  0  0  0  0  0  0  0
   -6.3533    4.1385    0.7084 H   0  0  0  0  0  0  0  0  0  0  0  0
   -6.1115    1.9777    0.5979 C   0  0  0  0  0  0  0  0  0  0  0  0
   -7.1428    1.7647    0.9186 H   0  0  0  0  0  0  0  0  0  0  0  0
   -5.2405    0.9203    0.3068 C   0  0  0  0  0  0  0  0  0  0  0  0
   -5.5839   -0.1229    0.3906 H   0  0  0  0  0  0  0  0  0  0  0  0
   -2.8872   -0.6155    0.5269 H   0  0  0  0  0  0  0  0  0  0  0  0
   -2.1536   -2.4480   -1.0221 H   0  0  0  0  0  0  0  0  0  0  0  0
   -3.4557   -2.8123   -2.2251 H   0  0  0  0  0  0  0  0  0  0  0  0
    0.1836   -0.2892   -3.0657 H   0  0  0  0  0  0  0  0  0  0  0  0
   -1.0330    0.4008   -4.2106 H   0  0  0  0  0  0  0  0  0  0  0  0
   -0.2172    1.4459   -2.9493 H   0  0  0  0  0  0  0  0  0  0  0  0
  1  5  1  0  0  0  0
  1  3  1  0  0  0  0
  2  4  1  0  0  0  0
  3  7  1  0  0  0  0
  3  4  1  0  0  0  0
  4 19  1  0  0  0  0
  4 30  1  1  0  0  0
  5  6  1  1  0  0  0
  5  2  1  0  0  0  0
  6 33  1  0  0  0  0
  6 35  1  0  0  0  0
  7 31  1  0  0  0  0
  7  8  1  0  0  0  0
  8  9  1  0  0  0  0
  9 10  1  0  0  0  0
  9 11  2  0  0  0  0
 11 12  1  0  0  0  0
 13 11  1  0  0  0  0
 13 14  1  0  0  0  0
 15 13  2  0  0  0  0
 16 15  1  0  0  0  0
 17  8  2  0  0  0  0
 17 15  1  0  0  0  0
 18 17  1  0  0  0  0
 19 28  1  0  0  0  0
 20 19  2  0  0  0  0
 20 22  1  0  0  0  0
 21 20  1  0  0  0  0
 22 24  2  0  0  0  0
 23 22  1  0  0  0  0
 24 26  1  0  0  0  0
 24 25  1  0  0  0  0
 26 27  1  0  0  0  0
 28 29  1  0  0  0  0
 28 26  2  0  0  0  0
 32  7  1  0  0  0  0
 34  6  1  0  0  0  0
M  END
