1
 OpenBabel05122313063D

 34 35  0  0  1  0  0  0  0  0999 V2000
   -0.6821   -0.8549   -1.5500 N   0  0  0  0  0  2  0  0  0  0  0  0
   -1.7266    1.0695   -0.8068 N   0  0  0  0  0  0  0  0  0  0  0  0
   -1.3282    0.2443   -1.8096 C   0  0  1  0  0  3  0  0  0  0  0  0
   -1.5104    0.7312   -3.2318 C   0  0  0  0  0  0  0  0  0  0  0  0
   -2.5952    0.9243   -3.3775 H   0  0  0  0  0  0  0  0  0  0  0  0
   -1.2284   -0.0880   -3.9235 H   0  0  0  0  0  0  0  0  0  0  0  0
   -0.6948    1.9959   -3.5301 C   0  0  0  0  0  0  0  0  0  0  0  0
   -0.9833    2.8247   -2.8541 H   0  0  0  0  0  0  0  0  0  0  0  0
   -0.8646    2.3264   -4.5735 H   0  0  0  0  0  0  0  0  0  0  0  0
    0.3879    1.8063   -3.3956 H   0  0  0  0  0  0  0  0  0  0  0  0
   -2.8974    1.2405   -0.2877 C   0  0  0  0  0  0  0  0  0  0  0  0
   -2.9906    2.2473    0.8064 C   0  0  0  0  0  0  0  0  0  0  0  0
   -2.2117    3.4223    0.7552 C   0  0  0  0  0  0  0  0  0  0  0  0
   -1.5799    3.5977   -0.1285 H   0  0  0  0  0  0  0  0  0  0  0  0
   -2.2496    4.3420    1.8103 C   0  0  0  0  0  0  0  0  0  0  0  0
   -1.6534    5.2656    1.7558 H   0  0  0  0  0  0  0  0  0  0  0  0
   -3.0457    4.0834    2.9399 C   0  0  0  0  0  0  0  0  0  0  0  0
   -3.0694    4.8020    3.7732 H   0  0  0  0  0  0  0  0  0  0  0  0
   -3.8077    2.9056    3.0059 C   0  0  0  0  0  0  0  0  0  0  0  0
   -4.4180    2.6925    3.8962 H   0  0  0  0  0  0  0  0  0  0  0  0
   -3.7908    1.9939    1.9405 C   0  0  0  0  0  0  0  0  0  0  0  0
   -4.3692    1.0602    1.9937 H   0  0  0  0  0  0  0  0  0  0  0  0
   -4.1350    0.5492   -0.7433 C   0  0  0  0  0  0  0  0  0  0  0  0
   -5.3484    1.2776   -0.7619 C   0  0  0  0  0  0  0  0  0  0  0  0
   -5.3647    2.3132   -0.3917 H   0  0  0  0  0  0  0  0  0  0  0  0
   -6.5190    0.6999   -1.2707 C   0  0  0  0  0  0  0  0  0  0  0  0
   -7.4518    1.2833   -1.2905 H   0  0  0  0  0  0  0  0  0  0  0  0
   -6.4995   -0.6196   -1.7493 C   0  0  0  0  0  0  0  0  0  0  0  0
   -7.4211   -1.0790   -2.1378 H   0  0  0  0  0  0  0  0  0  0  0  0
   -5.3034   -1.3555   -1.7209 C   0  0  0  0  0  0  0  0  0  0  0  0
   -5.2859   -2.3980   -2.0719 H   0  0  0  0  0  0  0  0  0  0  0  0
   -4.1259   -0.7809   -1.2268 C   0  0  0  0  0  0  0  0  0  0  0  0
   -3.2143   -1.3876   -1.1621 H   0  0  0  0  0  0  0  0  0  0  0  0
   -0.3238   -1.3822   -2.3562 H   0  0  0  0  0  0  0  0  0  0  0  0
  2 11  2  0  0  0  0
  3  1  1  1  0  0  0
  3  2  1  0  0  0  0
  4  3  1  0  0  0  0
  5  4  1  0  0  0  0
  6  4  1  0  0  0  0
  7 10  1  0  0  0  0
  7  4  1  0  0  0  0
  7  8  1  0  0  0  0
  9  7  1  0  0  0  0
 11 12  1  0  0  0  0
 12 21  1  0  0  0  0
 13 12  2  0  0  0  0
 13 15  1  0  0  0  0
 14 13  1  0  0  0  0
 15 17  2  0  0  0  0
 16 15  1  0  0  0  0
 17 19  1  0  0  0  0
 17 18  1  0  0  0  0
 19 20  1  0  0  0  0
 21 22  1  0  0  0  0
 21 19  2  0  0  0  0
 23 11  1  0  0  0  0
 24 23  1  0  0  0  0
 24 25  1  0  0  0  0
 26 24  2  0  0  0  0
 27 26  1  0  0  0  0
 28 30  2  0  0  0  0
 28 26  1  0  0  0  0
 29 28  1  0  0  0  0
 30 32  1  0  0  0  0
 31 30  1  0  0  0  0
 32 33  1  0  0  0  0
 32 23  2  0  0  0  0
 34  1  1  0  0  0  0
M  END
