25
 OpenBabel05122313063D

 27 28  0  0  1  0  0  0  0  0999 V2000
    4.9517   -2.6447   -1.3414 C   0  0  0  0  0  0  0  0  0  0  0  0
    4.6277   -3.6994   -1.3932 H   0  0  0  0  0  0  0  0  0  0  0  0
    5.7175   -2.5377   -0.5467 H   0  0  0  0  0  0  0  0  0  0  0  0
    5.4299   -2.3714   -2.3037 H   0  0  0  0  0  0  0  0  0  0  0  0
    3.7596   -1.8049   -1.0514 C   0  0  0  0  0  0  0  0  0  0  0  0
    2.5108   -0.0543   -0.5403 C   0  0  2  0  0  3  0  0  0  0  0  0
    2.0652    1.3209   -0.2030 C   0  0  0  0  0  0  0  0  0  0  0  0
    1.0301    1.4696   -0.5684 H   0  0  0  0  0  0  0  0  0  0  0  0
    2.7330    2.0693   -0.6707 H   0  0  0  0  0  0  0  0  0  0  0  0
    2.0944    1.4769    0.8972 H   0  0  0  0  0  0  0  0  0  0  0  0
    4.9726    0.3777   -0.6490 C   0  0  0  0  0  0  0  0  0  0  0  0
    5.3088    0.8686    0.6254 C   0  0  0  0  0  0  0  0  0  0  0  0
    4.6699    0.6221    1.4917 H   0  0  0  0  0  0  0  0  0  0  0  0
    6.4527    1.6609    0.7696 C   0  0  0  0  0  0  0  0  0  0  0  0
    6.7131    2.0458    1.7681 H   0  0  0  0  0  0  0  0  0  0  0  0
    7.2801    1.9693   -0.3326 C   0  0  0  0  0  0  0  0  0  0  0  0
    6.9199    1.4605   -1.5967 C   0  0  0  0  0  0  0  0  0  0  0  0
    7.5471    1.6920   -2.4716 H   0  0  0  0  0  0  0  0  0  0  0  0
    5.7721    0.6730   -1.7635 C   0  0  0  0  0  0  0  0  0  0  0  0
    5.4888    0.2951   -2.7569 H   0  0  0  0  0  0  0  0  0  0  0  0
    8.5116    2.8191   -0.1515 C   0  0  0  0  0  0  0  0  0  0  0  0
    8.2540    3.8132    0.2691 H   0  0  0  0  0  0  0  0  0  0  0  0
    9.0438    2.9811   -1.1082 H   0  0  0  0  0  0  0  0  0  0  0  0
    9.2222    2.3469    0.5584 H   0  0  0  0  0  0  0  0  0  0  0  0
    1.7448   -1.1396   -0.6528 N   0  0  0  0  0  2  0  0  0  0  0  0
    2.5141   -2.2289   -0.9671 N   0  0  0  0  0  0  0  0  0  0  0  0
    3.8050   -0.4383   -0.7911 N   0  0  0  0  0  0  0  0  0  0  0  0
  1  5  1  0  0  0  0
  1  3  1  0  0  0  0
  2  1  1  0  0  0  0
  4  1  1  0  0  0  0
  5 26  2  0  0  0  0
  5 27  1  0  0  0  0
  6  7  1  1  0  0  0
  7 10  1  0  0  0  0
  8  7  1  0  0  0  0
  9  7  1  0  0  0  0
 11 12  1  0  0  0  0
 12 14  2  0  0  0  0
 12 13  1  0  0  0  0
 14 15  1  0  0  0  0
 16 21  1  0  0  0  0
 16 14  1  0  0  0  0
 17 16  2  0  0  0  0
 18 17  1  0  0  0  0
 19 17  1  0  0  0  0
 19 11  2  0  0  0  0
 20 19  1  0  0  0  0
 21 22  1  0  0  0  0
 21 24  1  0  0  0  0
 23 21  1  0  0  0  0
 25  6  1  0  0  0  0
 26 25  1  0  0  0  0
 27 11  1  0  0  0  0
 27  6  1  0  0  0  0
M  END
