11
 OpenBabel05122313063D

 21 22  0  0  1  0  0  0  0  0999 V2000
    3.0613    2.9128   -0.7268 N   0  0  0  0  0  0  0  0  0  0  0  0
    4.3213    2.4540   -0.6663 C   0  0  0  0  0  0  0  0  0  0  0  0
    5.1135    3.2035   -0.8371 H   0  0  0  0  0  0  0  0  0  0  0  0
    4.7355    1.1964   -0.4236 N   0  0  0  0  0  2  0  0  0  0  0  0
    3.7053    0.3708   -0.2329 C   0  0  0  0  0  0  0  0  0  0  0  0
    2.3341    0.7038   -0.2641 C   0  0  0  0  0  0  0  0  0  0  0  0
    2.0206    2.0736   -0.5337 C   0  0  1  0  0  3  0  0  0  0  0  0
    0.7701    2.5824   -0.5918 N   0  0  0  0  0  0  0  0  0  0  0  0
    0.6838    3.5766   -0.8097 H   0  0  0  0  0  0  0  0  0  0  0  0
   -0.0768    2.0087   -0.4981 H   0  0  0  0  0  0  0  0  0  0  0  0
    1.5969   -0.4537   -0.0170 N   0  0  0  0  0  2  0  0  0  0  0  0
    2.4871   -1.4432    0.1578 C   0  0  0  0  0  3  0  0  0  0  0  0
    2.2320   -2.4849    0.3849 H   0  0  0  0  0  0  0  0  0  0  0  0
    3.7673   -0.9948    0.0289 N   0  0  0  0  0  0  0  0  0  0  0  0
    5.0096   -1.7596    0.1979 C   0  0  0  0  0  0  0  0  0  0  0  0
    4.7630   -2.8263    0.0290 H   0  0  0  0  0  0  0  0  0  0  0  0
    5.6889   -1.4346   -0.6149 H   0  0  0  0  0  0  0  0  0  0  0  0
    5.6541   -1.5301    1.5613 C   0  0  0  0  0  0  0  0  0  0  0  0
    6.5874   -2.1214    1.6345 H   0  0  0  0  0  0  0  0  0  0  0  0
    4.9837   -1.8428    2.3865 H   0  0  0  0  0  0  0  0  0  0  0  0
    5.9149   -0.4620    1.6922 H   0  0  0  0  0  0  0  0  0  0  0  0
  1  2  2  0  0  0  0
  1  7  1  0  0  0  0
  2  4  1  0  0  0  0
  3  2  1  0  0  0  0
  4  5  1  0  0  0  0
  5 14  1  0  0  0  0
  6  5  2  0  0  0  0
  6 11  1  0  0  0  0
  7  8  1  1  0  0  0
  7  6  1  0  0  0  0
  8 10  1  0  0  0  0
  9  8  1  0  0  0  0
 11 12  1  0  0  0  0
 12 13  1  0  0  0  0
 14 12  1  0  0  0  0
 14 15  1  0  0  0  0
 15 18  1  0  0  0  0
 16 15  1  0  0  0  0
 17 15  1  0  0  0  0
 18 19  1  0  0  0  0
 18 21  1  0  0  0  0
 18 20  1  0  0  0  0
M  END
