2
 OpenBabel05122313063D

 19 19  0  0  0  0  0  0  0  0999 V2000
    6.7232    0.1542    0.0518 S   0  0  0  0  0  0  0  0  0  0  0  0
    1.0558    0.5984   -1.6185 N   0  0  0  0  0  0  0  0  0  0  0  0
    0.7529   -0.0348   -2.3736 H   0  0  0  0  0  0  0  0  0  0  0  0
    0.6982    1.5388   -1.8443 H   0  0  0  0  0  0  0  0  0  0  0  0
    7.6499   -0.7006   -1.0711 N   0  0  0  0  0  0  0  0  0  0  0  0
    8.3047   -0.0734   -1.5580 H   0  0  0  0  0  0  0  0  0  0  0  0
    8.1472   -1.4555   -0.5792 H   0  0  0  0  0  0  0  0  0  0  0  0
    6.4214   -0.8163    1.1353 O   0  0  0  0  0  0  0  0  0  0  0  0
    7.2939    1.4828    0.3360 O   0  0  0  0  0  0  0  0  0  0  0  0
    2.4870    0.5929   -1.4851 C   0  0  0  0  0  0  0  0  0  0  0  0
    3.1335    1.7047   -0.9225 C   0  0  0  0  0  0  0  0  0  0  0  0
    2.5658    2.6166   -0.6837 H   0  0  0  0  0  0  0  0  0  0  0  0
    4.4865    1.6088   -0.5775 C   0  0  0  0  0  0  0  0  0  0  0  0
    5.0139    2.4424   -0.0914 H   0  0  0  0  0  0  0  0  0  0  0  0
    5.1629    0.4017   -0.8063 C   0  0  0  0  0  0  0  0  0  0  0  0
    4.5448   -0.6814   -1.4501 C   0  0  0  0  0  0  0  0  0  0  0  0
    5.1118   -1.6024   -1.6462 H   0  0  0  0  0  0  0  0  0  0  0  0
    3.1942   -0.5828   -1.7932 C   0  0  0  0  0  0  0  0  0  0  0  0
    2.6704   -1.4464   -2.2312 H   0  0  0  0  0  0  0  0  0  0  0  0
  1  9  2  0  0  0  0
  1  8  2  0  0  0  0
  2 10  1  0  0  0  0
  3  2  1  0  0  0  0
  4  2  1  0  0  0  0
  5  7  1  0  0  0  0
  5  1  1  0  0  0  0
  6  5  1  0  0  0  0
 10 11  1  0  0  0  0
 11 12  1  0  0  0  0
 11 13  2  0  0  0  0
 13 14  1  0  0  0  0
 15 13  1  0  0  0  0
 15  1  1  0  0  0  0
 16 15  2  0  0  0  0
 17 16  1  0  0  0  0
 18 10  2  0  0  0  0
 18 16  1  0  0  0  0
 19 18  1  0  0  0  0
M  END
