3
 OpenBabel05122313063D

 20 20  0  0  0  0  0  0  0  0999 V2000
   -5.5327   -2.3209    0.3988 O   0  0  0  0  0  0  0  0  0  0  0  0
   -6.5153   -0.3004   -0.0030 O   0  0  0  0  0  0  0  0  0  0  0  0
   -1.9466    0.0320   -0.1340 N   0  0  0  0  0  2  0  0  0  0  0  0
   -2.6553    1.1785   -0.3887 N   0  0  0  0  0  0  0  0  0  0  0  0
   -2.1574    2.0745   -0.4807 H   0  0  0  0  0  0  0  0  0  0  0  0
   -4.9009    1.9665   -0.5521 N   0  0  0  0  0  0  0  0  0  0  0  0
   -4.6054    2.9365   -0.4351 H   0  0  0  0  0  0  0  0  0  0  0  0
   -5.8673    1.7179   -0.3322 H   0  0  0  0  0  0  0  0  0  0  0  0
   -2.8623   -0.9283    0.0592 C   0  0  0  0  0  3  0  0  0  0  0  0
   -2.5529   -1.9634    0.2407 H   0  0  0  0  0  0  0  0  0  0  0  0
   -4.1783   -0.4011   -0.0477 C   0  0  0  0  0  0  0  0  0  0  0  0
   -3.9948    0.9797   -0.3298 C   0  0  0  0  0  0  0  0  0  0  0  0
   -5.4256   -1.1344    0.1404 C   0  0  0  0  0  0  0  0  0  0  0  0
   -7.8029   -0.9275    0.1617 C   0  0  0  0  0  0  0  0  0  0  0  0
   -7.8584   -1.3779    1.1756 H   0  0  0  0  0  0  0  0  0  0  0  0
   -7.8892   -1.7659   -0.5614 H   0  0  0  0  0  0  0  0  0  0  0  0
   -8.8692    0.1268   -0.0552 C   0  0  0  0  0  0  0  0  0  0  0  0
   -8.7780    0.9480    0.6842 H   0  0  0  0  0  0  0  0  0  0  0  0
   -9.8760   -0.3218    0.0567 H   0  0  0  0  0  0  0  0  0  0  0  0
   -8.7992    0.5620   -1.0724 H   0  0  0  0  0  0  0  0  0  0  0  0
  2 13  1  0  0  0  0
  2 14  1  0  0  0  0
  3  9  1  0  0  0  0
  4 12  1  0  0  0  0
  4  3  1  0  0  0  0
  5  4  1  0  0  0  0
  6  7  1  0  0  0  0
  6  8  1  0  0  0  0
  6 12  1  0  0  0  0
  9 10  1  0  0  0  0
 11  9  1  0  0  0  0
 11 13  1  0  0  0  0
 12 11  2  0  0  0  0
 13  1  2  0  0  0  0
 14 15  1  0  0  0  0
 16 14  1  0  0  0  0
 17 19  1  0  0  0  0
 17 14  1  0  0  0  0
 17 18  1  0  0  0  0
 20 17  1  0  0  0  0
M  END
