1
 OpenBabel05122313063D

 22 22  0  0  1  0  0  0  0  0999 V2000
    0.8883   -1.6144   -0.3917 N   0  0  0  0  0  2  0  0  0  0  0  0
   -0.8408   -2.9852   -0.4662 N   0  0  0  0  0  0  0  0  0  0  0  0
    0.0053   -2.2787    0.3573 C   0  0  2  0  0  3  0  0  0  0  0  0
   -3.0176   -3.0122    0.5174 O   0  0  0  0  0  0  0  0  0  0  0  0
    0.6192   -1.8935   -1.7179 C   0  0  0  0  0  0  0  0  0  0  0  0
    1.2605   -1.4720   -2.5024 H   0  0  0  0  0  0  0  0  0  0  0  0
   -0.0785   -2.2729    1.8424 C   0  0  0  0  0  0  0  0  0  0  0  0
    0.8097   -1.7429    2.2443 H   0  0  0  0  0  0  0  0  0  0  0  0
   -0.0860   -3.3057    2.2480 H   0  0  0  0  0  0  0  0  0  0  0  0
   -1.0088   -1.7790    2.1902 H   0  0  0  0  0  0  0  0  0  0  0  0
   -1.9834   -3.7775   -0.0201 C   0  0  0  0  0  0  0  0  0  0  0  0
   -2.3148   -4.3793   -0.8990 H   0  0  0  0  0  0  0  0  0  0  0  0
   -1.6528   -4.4626    0.7850 H   0  0  0  0  0  0  0  0  0  0  0  0
   -0.4639   -2.7414   -1.7834 C   0  0  0  0  0  0  0  0  0  0  0  0
   -0.9851   -3.2071   -2.6258 H   0  0  0  0  0  0  0  0  0  0  0  0
   -4.8743   -1.5334    0.2704 C   0  0  0  0  0  0  0  0  0  0  0  0
   -5.5708   -2.3022    0.6588 H   0  0  0  0  0  0  0  0  0  0  0  0
   -5.4269   -0.8794   -0.4321 H   0  0  0  0  0  0  0  0  0  0  0  0
   -4.5325   -0.9163    1.1252 H   0  0  0  0  0  0  0  0  0  0  0  0
   -3.6929   -2.1804   -0.4256 C   0  0  0  0  0  0  0  0  0  0  0  0
   -4.0295   -2.7970   -1.2956 H   0  0  0  0  0  0  0  0  0  0  0  0
   -2.9961   -1.4069   -0.8279 H   0  0  0  0  0  0  0  0  0  0  0  0
  1  3  1  0  0  0  0
  2 11  1  0  0  0  0
  2  3  1  0  0  0  0
  3  7  1  6  0  0  0
  5  1  1  0  0  0  0
  6  5  1  0  0  0  0
  7 10  1  0  0  0  0
  7  8  1  0  0  0  0
  7  9  1  0  0  0  0
 11  4  1  0  0  0  0
 11 13  1  0  0  0  0
 12 11  1  0  0  0  0
 14  5  2  0  0  0  0
 14  2  1  0  0  0  0
 15 14  1  0  0  0  0
 16 17  1  0  0  0  0
 16 19  1  0  0  0  0
 18 16  1  0  0  0  0
 20 16  1  0  0  0  0
 20  4  1  0  0  0  0
 21 20  1  0  0  0  0
 22 20  1  0  0  0  0
M  END
