1
 OpenBabel05122313063D

 40 39  0  0  0  0  0  0  0  0999 V2000
    1.8117   -0.5314   -0.8050 N   0  0  0  0  0  0  0  0  0  0  0  0
    1.8376   -0.1847   -1.7757 H   0  0  0  0  0  0  0  0  0  0  0  0
    1.7707   -1.5648   -0.8404 H   0  0  0  0  0  0  0  0  0  0  0  0
    3.0038   -0.0645   -0.0627 C   0  0  0  0  0  0  0  0  0  0  0  0
    2.9210    1.0384    0.0152 H   0  0  0  0  0  0  0  0  0  0  0  0
    2.9280   -0.4687    0.9671 H   0  0  0  0  0  0  0  0  0  0  0  0
    4.3206   -0.4811   -0.7171 C   0  0  0  0  0  0  0  0  0  0  0  0
    4.3544   -1.5900   -0.8135 H   0  0  0  0  0  0  0  0  0  0  0  0
    4.3580   -0.0798   -1.7555 H   0  0  0  0  0  0  0  0  0  0  0  0
    5.5474    0.0041    0.0603 C   0  0  0  0  0  0  0  0  0  0  0  0
    5.5002    1.1112    0.1648 H   0  0  0  0  0  0  0  0  0  0  0  0
    5.5062   -0.3965    1.0981 H   0  0  0  0  0  0  0  0  0  0  0  0
    6.8787   -0.3906   -0.5839 C   0  0  0  0  0  0  0  0  0  0  0  0
    6.9187    0.0110   -1.6217 H   0  0  0  0  0  0  0  0  0  0  0  0
    6.9221   -1.4982   -0.6910 H   0  0  0  0  0  0  0  0  0  0  0  0
    8.1061    0.0918    0.1934 C   0  0  0  0  0  0  0  0  0  0  0  0
    8.0607    1.1991    0.3018 H   0  0  0  0  0  0  0  0  0  0  0  0
    8.0653   -0.3101    1.2312 H   0  0  0  0  0  0  0  0  0  0  0  0
    9.4391   -0.2999   -0.4491 C   0  0  0  0  0  0  0  0  0  0  0  0
    9.4795    0.1023   -1.4869 H   0  0  0  0  0  0  0  0  0  0  0  0
    9.4837   -1.4074   -0.5583 H   0  0  0  0  0  0  0  0  0  0  0  0
   10.6670    0.1815    0.3281 C   0  0  0  0  0  0  0  0  0  0  0  0
   10.6219    1.2889    0.4377 H   0  0  0  0  0  0  0  0  0  0  0  0
   10.6264   -0.2210    1.3657 H   0  0  0  0  0  0  0  0  0  0  0  0
   12.0004   -0.2093   -0.3143 C   0  0  0  0  0  0  0  0  0  0  0  0
   12.0408    0.1935   -1.3519 H   0  0  0  0  0  0  0  0  0  0  0  0
   12.0451   -1.3167   -0.4242 H   0  0  0  0  0  0  0  0  0  0  0  0
   14.5622   -0.1183   -0.1789 C   0  0  0  0  0  0  0  0  0  0  0  0
   14.6031    0.2848   -1.2166 H   0  0  0  0  0  0  0  0  0  0  0  0
   14.6076   -1.2259   -0.2896 H   0  0  0  0  0  0  0  0  0  0  0  0
   15.7913    0.3624    0.5985 C   0  0  0  0  0  0  0  0  0  0  0  0
   15.7420    1.4689    0.7085 H   0  0  0  0  0  0  0  0  0  0  0  0
   15.7468   -0.0413    1.6347 H   0  0  0  0  0  0  0  0  0  0  0  0
   17.1180   -0.0319   -0.0515 C   0  0  0  0  0  0  0  0  0  0  0  0
   17.2059    0.3885   -1.0753 H   0  0  0  0  0  0  0  0  0  0  0  0
   17.9877    0.3296    0.5336 H   0  0  0  0  0  0  0  0  0  0  0  0
   17.2108   -1.1346   -0.1413 H   0  0  0  0  0  0  0  0  0  0  0  0
   13.2284    0.2717    0.4630 C   0  0  0  0  0  0  0  0  0  0  0  0
   13.1831    1.3791    0.5733 H   0  0  0  0  0  0  0  0  0  0  0  0
   13.1877   -0.1313    1.5006 H   0  0  0  0  0  0  0  0  0  0  0  0
  1  4  1  0  0  0  0
  2  1  1  0  0  0  0
  3  1  1  0  0  0  0
  4  5  1  0  0  0  0
  4  6  1  0  0  0  0
  7  4  1  0  0  0  0
  7 10  1  0  0  0  0
  8  7  1  0  0  0  0
  9  7  1  0  0  0  0
 10 11  1  0  0  0  0
 10 12  1  0  0  0  0
 13 10  1  0  0  0  0
 13 16  1  0  0  0  0
 14 13  1  0  0  0  0
 15 13  1  0  0  0  0
 16 17  1  0  0  0  0
 16 18  1  0  0  0  0
 19 16  1  0  0  0  0
 19 22  1  0  0  0  0
 20 19  1  0  0  0  0
 21 19  1  0  0  0  0
 22 23  1  0  0  0  0
 22 24  1  0  0  0  0
 25 22  1  0  0  0  0
 25 38  1  0  0  0  0
 26 25  1  0  0  0  0
 27 25  1  0  0  0  0
 28 38  1  0  0  0  0
 28 31  1  0  0  0  0
 29 28  1  0  0  0  0
 30 28  1  0  0  0  0
 31 32  1  0  0  0  0
 31 33  1  0  0  0  0
 34 36  1  0  0  0  0
 34 31  1  0  0  0  0
 35 34  1  0  0  0  0
 37 34  1  0  0  0  0
 38 39  1  0  0  0  0
 38 40  1  0  0  0  0
M  END
