23
 OpenBabel05122313063D

 27 29  0  0  0  0  0  0  0  0999 V2000
   -2.3513   -1.6702   -0.8403 S   0  0  0  0  0  0  0  0  0  0  0  0
   -3.4433   -2.6575    1.5541 C   0  0  0  0  0  3  0  0  0  0  0  0
   -4.2415   -3.1446    0.9844 H   0  0  0  0  0  0  0  0  0  0  0  0
   -3.1266   -2.6465    2.9072 C   0  0  0  0  0  0  0  0  0  0  0  0
   -3.6687   -3.1453    3.7170 H   0  0  0  0  0  0  0  0  0  0  0  0
   -1.9491   -1.8634    3.0013 C   0  0  0  0  0  0  0  0  0  0  0  0
   -1.3577   -1.6023    3.8872 H   0  0  0  0  0  0  0  0  0  0  0  0
   -1.8238    2.5866    0.4071 C   0  0  0  0  0  0  0  0  0  0  0  0
   -0.9402    2.7604    1.0454 H   0  0  0  0  0  0  0  0  0  0  0  0
   -2.6358    3.6813    0.0168 C   0  0  0  0  0  0  0  0  0  0  0  0
   -2.3815    4.6981    0.3475 H   0  0  0  0  0  0  0  0  0  0  0  0
   -3.7430    3.4314   -0.7745 C   0  0  0  0  0  0  0  0  0  0  0  0
   -4.4106    4.2449   -1.0975 H   0  0  0  0  0  0  0  0  0  0  0  0
   -4.0259    2.0974   -1.1814 C   0  0  0  0  0  0  0  0  0  0  0  0
   -5.1522    1.7793   -1.9940 C   0  0  0  0  0  0  0  0  0  0  0  0
   -5.8200    2.5949   -2.3112 H   0  0  0  0  0  0  0  0  0  0  0  0
   -5.4046    0.4729   -2.3796 C   0  0  0  0  0  0  0  0  0  0  0  0
   -6.2740    0.2307   -3.0073 H   0  0  0  0  0  0  0  0  0  0  0  0
   -4.5309   -0.5642   -1.9724 C   0  0  0  0  0  0  0  0  0  0  0  0
   -4.7088   -1.6029   -2.2852 H   0  0  0  0  0  0  0  0  0  0  0  0
   -3.4244   -0.2766   -1.1794 C   0  0  0  0  0  0  0  0  0  0  0  0
   -3.1234    1.0572   -0.7423 C   0  0  0  0  0  0  0  0  0  0  0  0
   -1.5690   -1.4199    1.7918 N   0  0  0  0  0  2  0  0  0  0  0  0
   -2.4858   -1.9045    0.9286 N   0  0  0  0  0  0  0  0  0  0  0  0
   -2.0504    1.3247    0.0532 N   0  0  0  0  0  0  0  0  0  0  0  0
   -0.9394   -1.3395   -1.0742 O   0  0  0  0  0  0  0  0  0  0  0  0
   -2.9847   -2.8839   -1.3720 O   0  0  0  0  0  0  0  0  0  0  0  0
  1 24  1  0  0  0  0
  2  4  1  0  0  0  0
  3  2  1  0  0  0  0
  4  6  2  0  0  0  0
  4  5  1  0  0  0  0
  6  7  1  0  0  0  0
  8  9  1  0  0  0  0
 10 11  1  0  0  0  0
 10  8  2  0  0  0  0
 12 10  1  0  0  0  0
 13 12  1  0  0  0  0
 14 12  2  0  0  0  0
 14 22  1  0  0  0  0
 15 14  1  0  0  0  0
 16 15  1  0  0  0  0
 17 15  2  0  0  0  0
 17 19  1  0  0  0  0
 18 17  1  0  0  0  0
 19 21  2  0  0  0  0
 20 19  1  0  0  0  0
 21  1  1  0  0  0  0
 21 22  1  0  0  0  0
 22 25  2  0  0  0  0
 23  6  1  0  0  0  0
 24  2  1  0  0  0  0
 24 23  1  0  0  0  0
 25  8  1  0  0  0  0
 26  1  2  0  0  0  0
 27  1  2  0  0  0  0
M  END
