5
 OpenBabel05122313063D

 22 22  0  0  1  0  0  0  0  0999 V2000
    0.9169    4.3355   -1.8181 O   0  0  0  0  0  0  0  0  0  0  0  0
    3.0809    4.5696   -1.5966 O   0  0  0  0  0  0  0  0  0  0  0  0
    3.4190   -1.4864    0.2808 O   0  0  0  0  0  0  0  0  0  0  0  0
    4.7717   -0.6336   -1.3592 O   0  0  0  0  0  0  0  0  0  0  0  0
    1.4451    0.5917   -0.1988 N   0  0  0  0  0  2  0  0  0  0  0  0
    3.1717    2.0080   -0.2855 N   0  0  0  0  0  0  0  0  0  0  0  0
    2.0382    3.9226   -1.4759 N   0  0  0  0  0  0  0  0  0  0  0  0
    3.7414   -2.6932   -1.5845 N   0  0  0  0  0  0  0  0  0  0  0  0
    4.0451   -2.7703   -2.5542 H   0  0  0  0  0  0  0  0  0  0  0  0
    2.8793   -3.1902   -1.3099 H   0  0  0  0  0  0  0  0  0  0  0  0
    2.7300    0.7972    0.1502 C   0  0  2  0  0  3  0  0  0  0  0  0
    2.0806    2.6064   -0.9174 C   0  0  0  0  0  0  0  0  0  0  0  0
    1.0250    1.6995   -0.8587 C   0  0  0  0  0  0  0  0  0  0  0  0
    0.0064    1.8252   -1.2343 H   0  0  0  0  0  0  0  0  0  0  0  0
    4.5659    2.4522   -0.2076 C   0  0  0  0  0  0  0  0  0  0  0  0
    4.8249    2.7231    0.8339 H   0  0  0  0  0  0  0  0  0  0  0  0
    4.6866    3.3342   -0.8545 H   0  0  0  0  0  0  0  0  0  0  0  0
    5.1971    1.6147   -0.5637 H   0  0  0  0  0  0  0  0  0  0  0  0
    3.5262   -0.2159    0.9162 C   0  0  0  0  0  0  0  0  0  0  0  0
    4.5815    0.0979    1.0249 H   0  0  0  0  0  0  0  0  0  0  0  0
    3.0587   -0.3534    1.9151 H   0  0  0  0  0  0  0  0  0  0  0  0
    4.0446   -1.5344   -0.9572 C   0  0  0  0  0  0  0  0  0  0  0  0
  1  7  2  0  0  0  0
  2  7  2  0  0  0  0
  3 19  1  0  0  0  0
  4 22  2  0  0  0  0
  5 11  1  0  0  0  0
  6 15  1  0  0  0  0
  6 11  1  0  0  0  0
  7 12  1  0  0  0  0
  8 10  1  0  0  0  0
  8 22  1  0  0  0  0
  9  8  1  0  0  0  0
 11 19  1  6  0  0  0
 12 13  2  0  0  0  0
 12  6  1  0  0  0  0
 13  5  1  0  0  0  0
 14 13  1  0  0  0  0
 15 16  1  0  0  0  0
 17 15  1  0  0  0  0
 18 15  1  0  0  0  0
 19 20  1  0  0  0  0
 19 21  1  0  0  0  0
 22  3  1  0  0  0  0
M  END
