1
 OpenBabel05122313063D

 22 22  0  0  0  0  0  0  0  0999 V2000
   -0.0123   -1.3092   -2.0250 N   0  0  0  0  0  0  0  0  0  0  0  0
   -1.0394   -0.3065   -2.2318 C   0  0  0  0  0  3  0  0  0  0  0  0
   -0.9608    0.3128   -3.1421 H   0  0  0  0  0  0  0  0  0  0  0  0
   -2.2994   -0.4061   -1.5803 C   0  0  0  0  0  0  0  0  0  0  0  0
   -2.5584   -1.2765   -0.4552 C   0  0  0  0  0  0  0  0  0  0  0  0
   -1.8428   -2.0750   -0.1890 H   0  0  0  0  0  0  0  0  0  0  0  0
   -3.8122   -1.2636    0.2010 C   0  0  0  0  0  0  0  0  0  0  0  0
   -3.9904   -1.9809    1.0184 H   0  0  0  0  0  0  0  0  0  0  0  0
   -4.8310   -0.3953   -0.1841 C   0  0  0  0  0  0  0  0  0  0  0  0
   -5.8058   -0.4046    0.3239 H   0  0  0  0  0  0  0  0  0  0  0  0
   -4.5907    0.4782   -1.2798 C   0  0  0  0  0  0  0  0  0  0  0  0
   -5.3882    1.1603   -1.6155 H   0  0  0  0  0  0  0  0  0  0  0  0
   -3.3796    0.4754   -1.9524 C   0  0  0  0  0  0  0  0  0  0  0  0
   -3.2285    1.1449   -2.8138 H   0  0  0  0  0  0  0  0  0  0  0  0
    1.2448   -0.9662   -2.6993 C   0  0  0  0  0  0  0  0  0  0  0  0
    1.1204   -0.9809   -3.8101 H   0  0  0  0  0  0  0  0  0  0  0  0
    2.0285   -1.6908   -2.4128 H   0  0  0  0  0  0  0  0  0  0  0  0
    1.5862    0.0394   -2.3959 H   0  0  0  0  0  0  0  0  0  0  0  0
   -0.3777   -2.6980   -2.3489 C   0  0  0  0  0  0  0  0  0  0  0  0
   -0.4582   -2.8390   -3.4522 H   0  0  0  0  0  0  0  0  0  0  0  0
   -1.3515   -2.9615   -1.8984 H   0  0  0  0  0  0  0  0  0  0  0  0
    0.3988   -3.3815   -1.9514 H   0  0  0  0  0  0  0  0  0  0  0  0
  2  1  1  0  0  0  0
  2  4  1  0  0  0  0
  3  2  1  0  0  0  0
  4  5  1  0  0  0  0
  5  6  1  0  0  0  0
  5  7  2  0  0  0  0
  7  8  1  0  0  0  0
  9  7  1  0  0  0  0
  9 10  1  0  0  0  0
 11  9  2  0  0  0  0
 12 11  1  0  0  0  0
 13  4  2  0  0  0  0
 13 11  1  0  0  0  0
 14 13  1  0  0  0  0
 15 17  1  0  0  0  0
 15 18  1  0  0  0  0
 15  1  1  0  0  0  0
 16 15  1  0  0  0  0
 19  1  1  0  0  0  0
 19 22  1  0  0  0  0
 19 21  1  0  0  0  0
 20 19  1  0  0  0  0
M  END
