1
 OpenBabel05122313063D

 22 23  0  0  0  0  0  0  0  0999 V2000
    1.3874    0.5273    0.5710 N   0  0  0  0  0  2  0  0  0  0  0  0
    2.2678   -0.4298    0.8754 C   0  0  0  0  0  3  0  0  0  0  0  0
    2.0369   -1.4909    1.0193 H   0  0  0  0  0  0  0  0  0  0  0  0
    3.5178    0.0973    0.9921 N   0  0  0  0  0  0  0  0  0  0  0  0
    2.0952    1.7119    0.4859 C   0  0  0  0  0  0  0  0  0  0  0  0
    1.6017    2.6586    0.2452 H   0  0  0  0  0  0  0  0  0  0  0  0
    3.4274    1.4559    0.7441 C   0  0  0  0  0  0  0  0  0  0  0  0
    4.3084    2.1043    0.7589 H   0  0  0  0  0  0  0  0  0  0  0  0
    4.7433   -0.6421    1.2949 C   0  0  0  0  0  0  0  0  0  0  0  0
    4.4462   -1.6999    1.4471 H   0  0  0  0  0  0  0  0  0  0  0  0
    5.1541   -0.2791    2.2591 H   0  0  0  0  0  0  0  0  0  0  0  0
    5.7859   -0.5250    0.2016 C   0  0  0  0  0  0  0  0  0  0  0  0
    7.1115   -0.1786    0.5191 C   0  0  0  0  0  0  0  0  0  0  0  0
    7.3853    0.0261    1.5666 H   0  0  0  0  0  0  0  0  0  0  0  0
    8.0856   -0.0931   -0.4884 C   0  0  0  0  0  0  0  0  0  0  0  0
    9.1195    0.1785   -0.2277 H   0  0  0  0  0  0  0  0  0  0  0  0
    7.7380   -0.3457   -1.8235 C   0  0  0  0  0  0  0  0  0  0  0  0
    8.4990   -0.2748   -2.6150 H   0  0  0  0  0  0  0  0  0  0  0  0
    6.4137   -0.6854   -2.1485 C   0  0  0  0  0  0  0  0  0  0  0  0
    6.1353   -0.8817   -3.1948 H   0  0  0  0  0  0  0  0  0  0  0  0
    5.4432   -0.7760   -1.1420 C   0  0  0  0  0  0  0  0  0  0  0  0
    4.4053   -1.0373   -1.4032 H   0  0  0  0  0  0  0  0  0  0  0  0
  1  2  1  0  0  0  0
  2  4  1  0  0  0  0
  2  3  1  0  0  0  0
  4  9  1  0  0  0  0
  5  1  1  0  0  0  0
  5  7  2  0  0  0  0
  6  5  1  0  0  0  0
  7  8  1  0  0  0  0
  7  4  1  0  0  0  0
  9 10  1  0  0  0  0
  9 11  1  0  0  0  0
 12 13  1  0  0  0  0
 12  9  1  0  0  0  0
 13 14  1  0  0  0  0
 15 16  1  0  0  0  0
 15 13  2  0  0  0  0
 17 15  1  0  0  0  0
 18 17  1  0  0  0  0
 19 17  2  0  0  0  0
 19 21  1  0  0  0  0
 20 19  1  0  0  0  0
 21 12  2  0  0  0  0
 22 21  1  0  0  0  0
M  END
