1
 OpenBabel05122313063D

 22 24  0  0  0  0  0  0  0  0999 V2000
    1.6149   -0.6828   -0.3205 N   0  0  0  0  0  2  0  0  0  0  0  0
    2.3155   -1.1380    0.6597 N   0  0  0  0  0  0  0  0  0  0  0  0
    3.5322   -0.5712    0.9633 C   0  0  0  0  0  0  0  0  0  0  0  0
    4.2383   -1.1480    2.0536 C   0  0  0  0  0  0  0  0  0  0  0  0
    3.7692   -2.0024    2.5622 H   0  0  0  0  0  0  0  0  0  0  0  0
    5.4660   -0.6238    2.4323 C   0  0  0  0  0  0  0  0  0  0  0  0
    6.0213   -1.0629    3.2742 H   0  0  0  0  0  0  0  0  0  0  0  0
    6.0077    0.4845    1.7316 C   0  0  0  0  0  0  0  0  0  0  0  0
    6.9821    0.8945    2.0376 H   0  0  0  0  0  0  0  0  0  0  0  0
    5.3278    1.0618    0.6622 C   0  0  0  0  0  0  0  0  0  0  0  0
    5.7713    1.9179    0.1342 H   0  0  0  0  0  0  0  0  0  0  0  0
    4.0730    0.5456    0.2504 C   0  0  0  0  0  0  0  0  0  0  0  0
    3.2771    1.0508   -0.8430 C   0  0  0  0  0  0  0  0  0  0  0  0
    3.6335    2.1571   -1.6569 C   0  0  0  0  0  3  0  0  0  0  0  0
    4.5744    2.6929   -1.4685 H   0  0  0  0  0  0  0  0  0  0  0  0
    2.8014    2.5640   -2.6953 C   0  0  0  0  0  0  0  0  0  0  0  0
    3.0912    3.4229   -3.3196 H   0  0  0  0  0  0  0  0  0  0  0  0
    1.5903    1.8776   -2.9622 C   0  0  0  0  0  0  0  0  0  0  0  0
    0.9473    2.2016   -3.7939 H   0  0  0  0  0  0  0  0  0  0  0  0
    1.2088    0.7960   -2.1804 C   0  0  0  0  0  0  0  0  0  0  0  0
    0.2779    0.2360   -2.3768 H   0  0  0  0  0  0  0  0  0  0  0  0
    2.0420    0.3799   -1.1104 C   0  0  0  0  0  0  0  0  0  0  0  0
  1  2  1  0  0  0  0
  2  3  2  0  0  0  0
  3  4  1  0  0  0  0
  4  6  2  0  0  0  0
  4  5  1  0  0  0  0
  6  7  1  0  0  0  0
  8  9  1  0  0  0  0
  8  6  1  0  0  0  0
 10  8  2  0  0  0  0
 11 10  1  0  0  0  0
 12 10  1  0  0  0  0
 12  3  1  0  0  0  0
 13 12  2  0  0  0  0
 14 15  1  0  0  0  0
 14 13  1  0  0  0  0
 16 14  1  0  0  0  0
 17 16  1  0  0  0  0
 18 16  2  0  0  0  0
 18 20  1  0  0  0  0
 19 18  1  0  0  0  0
 20 22  2  0  0  0  0
 21 20  1  0  0  0  0
 22 13  1  0  0  0  0
 22  1  1  0  0  0  0
M  END
