4
 OpenBabel05122313063D

 27 28  0  0  0  0  0  0  0  0999 V2000
   -6.6332   -0.6379   -0.5758 O   0  0  0  0  0  0  0  0  0  0  0  0
   -6.1677    1.4760    0.2455 N   0  0  0  0  0  0  0  0  0  0  0  0
   -4.4601   -0.0681   -0.0103 N   0  0  0  0  0  0  0  0  0  0  0  0
   -1.6738   -2.4080   -0.3591 N   0  0  0  0  0  2  0  0  0  0  0  0
   -5.8432    0.1954   -0.1500 C   0  0  0  0  0  0  0  0  0  0  0  0
   -7.4393    2.0947    0.2435 C   0  0  0  0  0  0  0  0  0  0  0  0
   -8.6167    1.4525   -0.1945 C   0  0  0  0  0  0  0  0  0  0  0  0
   -9.8314    2.1524   -0.1585 C   0  0  0  0  0  0  0  0  0  0  0  0
   -9.8979    3.4754    0.3035 C   0  0  0  0  0  0  0  0  0  0  0  0
   -8.7234    4.1095    0.7383 C   0  0  0  0  0  0  0  0  0  0  0  0
   -7.5026    3.4263    0.7093 C   0  0  0  0  0  0  0  0  0  0  0  0
   -3.8069   -1.2563   -0.3066 C   0  0  0  0  0  0  0  0  0  0  0  0
   -4.4438   -2.4250   -0.7927 C   0  0  0  0  0  0  0  0  0  0  0  0
   -3.6618   -3.5547   -1.0468 C   0  0  0  0  0  0  0  0  0  0  0  0
   -2.2816   -3.5261   -0.8227 C   0  0  0  0  0  3  0  0  0  0  0  0
   -2.4066   -1.3074   -0.1098 C   0  0  0  0  0  0  0  0  0  0  0  0
   -6.5838    3.9305    1.0525 H   0  0  0  0  0  0  0  0  0  0  0  0
   -8.7543    5.1465    1.1046 H   0  0  0  0  0  0  0  0  0  0  0  0
  -10.8584    4.0103    0.3256 H   0  0  0  0  0  0  0  0  0  0  0  0
  -10.7453    1.6444   -0.5017 H   0  0  0  0  0  0  0  0  0  0  0  0
   -8.5677    0.4193   -0.5548 H   0  0  0  0  0  0  0  0  0  0  0  0
   -5.4183    2.0750    0.5953 H   0  0  0  0  0  0  0  0  0  0  0  0
   -3.8580    0.6804    0.3373 H   0  0  0  0  0  0  0  0  0  0  0  0
   -1.8481   -0.4301    0.2571 H   0  0  0  0  0  0  0  0  0  0  0  0
   -1.6451   -4.4011   -1.0147 H   0  0  0  0  0  0  0  0  0  0  0  0
   -4.1298   -4.4745   -1.4253 H   0  0  0  0  0  0  0  0  0  0  0  0
   -5.5276   -2.4142   -0.9585 H   0  0  0  0  0  0  0  0  0  0  0  0
  1  5  2  0  0  0  0
  2 22  1  0  0  0  0
  3 23  1  0  0  0  0
  4 16  1  0  0  0  0
  5  3  1  0  0  0  0
  5  2  1  0  0  0  0
  6  2  1  0  0  0  0
  6 11  1  0  0  0  0
  7  8  1  0  0  0  0
  7  6  2  0  0  0  0
  8  9  2  0  0  0  0
  9 19  1  0  0  0  0
  9 10  1  0  0  0  0
 10 18  1  0  0  0  0
 11 10  2  0  0  0  0
 11 17  1  0  0  0  0
 12 16  2  0  0  0  0
 12  3  1  0  0  0  0
 13 12  1  0  0  0  0
 14 15  1  0  0  0  0
 14 13  2  0  0  0  0
 15  4  1  0  0  0  0
 16 24  1  0  0  0  0
 20  8  1  0  0  0  0
 21  7  1  0  0  0  0
 25 15  1  0  0  0  0
 26 14  1  0  0  0  0
 27 13  1  0  0  0  0
M  END
