3
 OpenBabel05122313063D

 22 23  0  0  0  0  0  0  0  0999 V2000
   -6.8231   -0.8782   -0.3341 S   0  0  0  0  0  0  0  0  0  0  0  0
    3.9634   -3.7701    0.0278 S   0  0  0  0  0  0  0  0  0  0  0  0
   -0.7311   -2.0109   -0.0226 N   0  0  0  0  0  2  0  0  0  0  0  0
   -2.0676   -2.2840    0.1226 N   0  0  0  0  0  0  0  0  0  0  0  0
    2.3174   -4.0191    0.4417 C   0  0  0  0  0  0  0  0  0  0  0  0
    2.0271   -4.8597    1.0849 H   0  0  0  0  0  0  0  0  0  0  0  0
    1.4823   -3.0374   -0.1044 C   0  0  0  0  0  0  0  0  0  0  0  0
    2.2289   -2.0909   -0.9001 C   0  0  0  0  0  0  0  0  0  0  0  0
    1.7753   -1.2842   -1.4937 H   0  0  0  0  0  0  0  0  0  0  0  0
    3.5774   -2.3639   -0.9181 C   0  0  0  0  0  0  0  0  0  0  0  0
    4.3698   -1.8357   -1.4628 H   0  0  0  0  0  0  0  0  0  0  0  0
    0.0547   -3.0543    0.1162 C   0  0  0  0  0  3  0  0  0  0  0  0
   -0.4332   -4.0034    0.4069 H   0  0  0  0  0  0  0  0  0  0  0  0
   -5.1808   -0.4558   -0.5912 C   0  0  0  0  0  0  0  0  0  0  0  0
   -4.9150    0.4973   -1.0657 H   0  0  0  0  0  0  0  0  0  0  0  0
   -4.3109   -1.4562   -0.1426 C   0  0  0  0  0  0  0  0  0  0  0  0
   -5.0206   -2.5785    0.4174 C   0  0  0  0  0  0  0  0  0  0  0  0
   -4.5177   -3.4660    0.8217 H   0  0  0  0  0  0  0  0  0  0  0  0
   -6.3827   -2.4028    0.3832 C   0  0  0  0  0  0  0  0  0  0  0  0
   -7.1687   -3.0821    0.7360 H   0  0  0  0  0  0  0  0  0  0  0  0
   -2.8771   -1.3358   -0.2486 C   0  0  0  0  0  0  0  0  0  0  0  0
   -2.4715   -0.3872   -0.6755 H   0  0  0  0  0  0  0  0  0  0  0  0
  1 19  1  0  0  0  0
  2  5  1  0  0  0  0
  3 12  1  0  0  0  0
  3  4  1  0  0  0  0
  5  6  1  0  0  0  0
  7 12  1  0  0  0  0
  7  5  2  0  0  0  0
  8  7  1  0  0  0  0
  9  8  1  0  0  0  0
 10  8  2  0  0  0  0
 10  2  1  0  0  0  0
 11 10  1  0  0  0  0
 12 13  1  0  0  0  0
 14  1  1  0  0  0  0
 14 16  2  0  0  0  0
 15 14  1  0  0  0  0
 16 17  1  0  0  0  0
 17 18  1  0  0  0  0
 19 17  2  0  0  0  0
 19 20  1  0  0  0  0
 21 16  1  0  0  0  0
 21  4  2  0  0  0  0
 22 21  1  0  0  0  0
M  END
