2
 OpenBabel05122313063D

 20 19  0  0  0  0  0  0  0  0999 V2000
   -1.5129    0.1854   -1.3830 S   0  0  0  0  0  0  0  0  0  0  0  0
   -0.3983   -1.4836    0.7758 N   0  0  0  0  0  2  0  0  0  0  0  0
   -1.7794   -1.3977    0.7413 N   0  0  0  0  0  0  0  0  0  0  0  0
   -2.2947   -2.0735    1.3146 H   0  0  0  0  0  0  0  0  0  0  0  0
   -3.7505   -0.8656   -0.3706 N   0  0  0  0  0  0  0  0  0  0  0  0
   -4.2385   -1.5013    0.2633 H   0  0  0  0  0  0  0  0  0  0  0  0
    1.5789   -2.7266    1.4786 C   0  0  0  0  0  0  0  0  0  0  0  0
    2.1036   -2.1330    0.7131 H   0  0  0  0  0  0  0  0  0  0  0  0
    1.7743   -3.8003    1.2799 H   0  0  0  0  0  0  0  0  0  0  0  0
    1.9840   -2.5159    2.4923 H   0  0  0  0  0  0  0  0  0  0  0  0
    0.1058   -2.4960    1.4408 C   0  0  0  0  0  3  0  0  0  0  0  0
   -0.7788   -3.4824    2.1580 C   0  0  0  0  0  0  0  0  0  0  0  0
   -1.4619   -2.9916    2.8861 H   0  0  0  0  0  0  0  0  0  0  0  0
   -0.1705   -4.2075    2.7266 H   0  0  0  0  0  0  0  0  0  0  0  0
   -1.3949   -4.0656    1.4379 H   0  0  0  0  0  0  0  0  0  0  0  0
   -2.4125   -0.7487   -0.2830 C   0  0  0  0  0  0  0  0  0  0  0  0
   -4.5351   -0.1980   -1.4001 C   0  0  0  0  0  0  0  0  0  0  0  0
   -5.6066   -0.3773   -1.2029 H   0  0  0  0  0  0  0  0  0  0  0  0
   -4.2816   -0.5819   -2.4103 H   0  0  0  0  0  0  0  0  0  0  0  0
   -4.3417    0.8940   -1.3844 H   0  0  0  0  0  0  0  0  0  0  0  0
  1 16  2  0  0  0  0
  2 11  1  0  0  0  0
  3  2  1  0  0  0  0
  3  4  1  0  0  0  0
  5 16  1  0  0  0  0
  5  6  1  0  0  0  0
  7 10  1  0  0  0  0
  8  7  1  0  0  0  0
  9  7  1  0  0  0  0
 11  7  1  0  0  0  0
 11 12  1  0  0  0  0
 12 14  1  0  0  0  0
 12 13  1  0  0  0  0
 15 12  1  0  0  0  0
 16  3  1  0  0  0  0
 17 20  1  0  0  0  0
 17 18  1  0  0  0  0
 17  5  1  0  0  0  0
 19 17  1  0  0  0  0
M  END
