2
 OpenBabel05122313063D

 15 16  0  0  1  0  0  0  0  0999 V2000
    1.2948    0.7643   -2.0406 N   0  0  0  0  0  0  0  0  0  0  0  0
   -0.5107    0.1809   -0.5745 N   0  0  0  0  0  2  0  0  0  0  0  0
    3.5257    0.3809   -1.5731 N   0  0  0  0  0  0  0  0  0  0  0  0
    2.4782   -0.8019    1.1496 N   0  0  0  0  0  0  0  0  0  0  0  0
    0.2548   -0.8636    1.5122 N   0  0  0  0  0  0  0  0  0  0  0  0
    0.4272   -0.2762    0.2825 C   0  0  1  0  0  3  0  0  0  0  0  0
    1.8197   -0.2416    0.0690 C   0  0  0  0  0  0  0  0  0  0  0  0
    2.2499    0.2984   -1.1854 C   0  0  0  0  0  0  0  0  0  0  0  0
    1.5230   -1.1684    1.9820 C   0  0  0  0  0  0  0  0  0  0  0  0
    0.0146    0.7034   -1.7140 C   0  0  0  0  0  0  0  0  0  0  0  0
   -0.7150    1.1114   -2.4337 H   0  0  0  0  0  0  0  0  0  0  0  0
    3.6936    0.7416   -2.5132 H   0  0  0  0  0  0  0  0  0  0  0  0
    4.2861   -0.0879   -1.0382 H   0  0  0  0  0  0  0  0  0  0  0  0
    1.6710   -1.6599    2.9519 H   0  0  0  0  0  0  0  0  0  0  0  0
   -0.6430   -1.1039    1.9387 H   0  0  0  0  0  0  0  0  0  0  0  0
  1 10  2  0  0  0  0
  1  8  1  0  0  0  0
  3  8  1  0  0  0  0
  3 13  1  0  0  0  0
  4  9  2  0  0  0  0
  5 15  1  0  0  0  0
  5  9  1  0  0  0  0
  6  2  1  6  0  0  0
  6  5  1  0  0  0  0
  7  6  1  0  0  0  0
  7  4  1  0  0  0  0
  8  7  2  0  0  0  0
  9 14  1  0  0  0  0
 10  2  1  0  0  0  0
 11 10  1  0  0  0  0
 12  3  1  0  0  0  0
M  END
