2
 OpenBabel05122313063D

 15 16  0  0  0  0  0  0  0  0999 V2000
    1.2974    0.3064    2.3792 N   0  0  0  0  0  0  0  0  0  0  0  0
   -0.4393    0.0240    0.7374 N   0  0  0  0  0  2  0  0  0  0  0  0
    3.5636    0.2804    1.8853 N   0  0  0  0  0  0  0  0  0  0  0  0
    2.6589   -0.0116   -1.0826 N   0  0  0  0  0  0  0  0  0  0  0  0
    0.4611   -0.1682   -1.5492 N   0  0  0  0  0  0  0  0  0  0  0  0
    0.0320    0.2092    1.9988 C   0  0  0  0  0  3  0  0  0  0  0  0
    0.5462   -0.0204   -0.1874 C   0  0  0  0  0  0  0  0  0  0  0  0
    1.9277    0.0781    0.0864 C   0  0  0  0  0  0  0  0  0  0  0  0
    2.2974    0.2189    1.4589 C   0  0  0  0  0  0  0  0  0  0  0  0
    1.7547   -0.1512   -2.0356 C   0  0  0  0  0  0  0  0  0  0  0  0
   -0.7370    0.2792    2.7866 H   0  0  0  0  0  0  0  0  0  0  0  0
    4.3684    0.0510    1.2774 H   0  0  0  0  0  0  0  0  0  0  0  0
    3.7097    0.3154    2.8952 H   0  0  0  0  0  0  0  0  0  0  0  0
    1.9655   -0.2449   -3.1085 H   0  0  0  0  0  0  0  0  0  0  0  0
   -0.4036   -0.2673   -2.0848 H   0  0  0  0  0  0  0  0  0  0  0  0
  2  6  1  0  0  0  0
  3 13  1  0  0  0  0
  4  8  1  0  0  0  0
  5  7  1  0  0  0  0
  6  1  1  0  0  0  0
  6 11  1  0  0  0  0
  7  8  2  0  0  0  0
  7  2  1  0  0  0  0
  8  9  1  0  0  0  0
  9  3  1  0  0  0  0
  9  1  2  0  0  0  0
 10  5  1  0  0  0  0
 10  4  2  0  0  0  0
 12  3  1  0  0  0  0
 14 10  1  0  0  0  0
 15  5  1  0  0  0  0
M  END
