7
 OpenBabel05122313063D

 36 38  0  0  1  0  0  0  0  0999 V2000
    8.8714    0.0188   -0.8703 Cl  0  0  0  0  0  0  0  0  0  0  0  0
    4.9063   -1.9866    2.2325 Cl  0  0  0  0  0  0  0  0  0  0  0  0
   -0.2534    3.0687    2.3423 Cl  0  0  0  0  0  0  0  0  0  0  0  0
   -0.9132    4.2641   -0.3340 S   0  0  0  0  0  0  0  0  0  0  0  0
    2.1593    0.4848   -0.2522 O   0  0  0  0  0  0  0  0  0  0  0  0
    0.9917   -2.0540    0.1001 N   0  0  0  0  0  0  0  0  0  0  0  0
   -1.1826   -1.6689    0.0976 N   0  0  0  0  0  2  0  0  0  0  0  0
    2.3881   -1.8758   -0.2420 C   0  0  0  0  0  0  0  0  0  0  0  0
    2.4928   -1.8730   -1.3446 H   0  0  0  0  0  0  0  0  0  0  0  0
    2.9779   -2.7209    0.1607 H   0  0  0  0  0  0  0  0  0  0  0  0
    7.1733   -0.1433   -0.5257 C   0  0  0  0  0  0  0  0  0  0  0  0
    2.9336   -0.5492    0.3243 C   0  0  1  0  0  0  0  0  0  0  0  0
    2.7797   -0.5700    1.4294 H   0  0  0  0  0  0  0  0  0  0  0  0
   -0.0559   -1.5274   -0.5958 C   0  0  0  0  0  3  0  0  0  0  0  0
    0.0287   -1.0791   -1.5892 H   0  0  0  0  0  0  0  0  0  0  0  0
    4.4200   -0.4011    0.0474 C   0  0  0  0  0  0  0  0  0  0  0  0
    4.8674    0.3434   -1.0597 C   0  0  0  0  0  0  0  0  0  0  0  0
    4.1095    0.8289   -1.6925 H   0  0  0  0  0  0  0  0  0  0  0  0
    0.4944   -2.5406    1.3026 C   0  0  0  0  0  0  0  0  0  0  0  0
    1.1439   -3.0208    2.0410 H   0  0  0  0  0  0  0  0  0  0  0  0
    0.0816    3.2339    0.6575 C   0  0  0  0  0  0  0  0  0  0  0  0
    5.3970   -1.0230    0.8520 C   0  0  0  0  0  0  0  0  0  0  0  0
    1.0326    2.9699   -1.4470 C   0  0  0  0  0  0  0  0  0  0  0  0
    1.7291    2.5769   -2.1997 H   0  0  0  0  0  0  0  0  0  0  0  0
    0.0095    3.8467   -1.7417 C   0  0  0  0  0  0  0  0  0  0  0  0
   -0.2609    4.2788   -2.7126 H   0  0  0  0  0  0  0  0  0  0  0  0
   -0.8663   -2.3071    1.2818 C   0  0  0  0  0  0  0  0  0  0  0  0
   -1.6621   -2.5964    1.9768 H   0  0  0  0  0  0  0  0  0  0  0  0
    6.7678   -0.9021    0.5835 C   0  0  0  0  0  0  0  0  0  0  0  0
    7.5073   -1.3930    1.2292 H   0  0  0  0  0  0  0  0  0  0  0  0
    2.1005    1.6726    0.5350 C   0  0  0  0  0  0  0  0  0  0  0  0
    3.1058    2.1594    0.5708 H   0  0  0  0  0  0  0  0  0  0  0  0
    1.8147    1.4295    1.5836 H   0  0  0  0  0  0  0  0  0  0  0  0
    1.0906    2.6058   -0.0601 C   0  0  0  0  0  0  0  0  0  0  0  0
    6.2283    0.4831   -1.3552 C   0  0  0  0  0  0  0  0  0  0  0  0
    6.5643    1.0708   -2.2203 H   0  0  0  0  0  0  0  0  0  0  0  0
  1 11  1  0  0  0  0
  4 21  1  0  0  0  0
  5 12  1  0  0  0  0
  5 31  1  0  0  0  0
  6 19  1  0  0  0  0
  7 27  1  0  0  0  0
  8  6  1  0  0  0  0
  8 10  1  0  0  0  0
  8 12  1  0  0  0  0
  9  8  1  0  0  0  0
 11 29  1  0  0  0  0
 12 13  1  1  0  0  0
 14  7  1  0  0  0  0
 14  6  1  0  0  0  0
 15 14  1  0  0  0  0
 16 12  1  0  0  0  0
 16 22  1  0  0  0  0
 17 16  2  0  0  0  0
 18 17  1  0  0  0  0
 19 20  1  0  0  0  0
 21  3  1  0  0  0  0
 22  2  1  0  0  0  0
 23 34  1  0  0  0  0
 24 23  1  0  0  0  0
 25 23  2  0  0  0  0
 25  4  1  0  0  0  0
 26 25  1  0  0  0  0
 27 19  2  0  0  0  0
 27 28  1  0  0  0  0
 29 22  2  0  0  0  0
 29 30  1  0  0  0  0
 31 32  1  0  0  0  0
 31 33  1  0  0  0  0
 34 31  1  0  0  0  0
 34 21  2  0  0  0  0
 35 17  1  0  0  0  0
 35 11  2  0  0  0  0
 36 35  1  0  0  0  0
M  END
