1
 OpenBabel05122313063D

 27 27  0  0  0  0  0  0  0  0999 V2000
   -1.7158   -0.0001   -1.0197 N   0  0  0  0  0  2  0  0  0  0  0  0
   -0.3731    0.0001   -1.5884 C   0  0  0  0  0  3  0  0  0  0  0  0
    0.0005   -1.2446   -2.3874 C   0  0  0  0  0  0  0  0  0  0  0  0
   -0.2701   -2.1876   -1.8854 H   0  0  0  0  0  0  0  0  0  0  0  0
    1.0920   -1.2628   -2.5842 H   0  0  0  0  0  0  0  0  0  0  0  0
   -0.5081   -1.2375   -3.3798 H   0  0  0  0  0  0  0  0  0  0  0  0
    0.0001    1.2448   -2.3875 C   0  0  0  0  0  0  0  0  0  0  0  0
   -0.5085    1.2376   -3.3799 H   0  0  0  0  0  0  0  0  0  0  0  0
    1.0916    1.2634   -2.5842 H   0  0  0  0  0  0  0  0  0  0  0  0
   -0.2708    2.1878   -1.8855 H   0  0  0  0  0  0  0  0  0  0  0  0
   -2.9472   -0.0002   -1.7153 C   0  0  0  0  0  0  0  0  0  0  0  0
   -3.5727    1.2354   -2.0502 C   0  0  0  0  0  0  0  0  0  0  0  0
   -4.7971    1.2082   -2.7448 C   0  0  0  0  0  0  0  0  0  0  0  0
   -5.2829    2.1642   -2.9982 H   0  0  0  0  0  0  0  0  0  0  0  0
   -5.4068   -0.0004   -3.1003 C   0  0  0  0  0  0  0  0  0  0  0  0
   -6.3659   -0.0004   -3.6401 H   0  0  0  0  0  0  0  0  0  0  0  0
   -4.7969   -1.2089   -2.7450 C   0  0  0  0  0  0  0  0  0  0  0  0
   -5.2824   -2.1649   -2.9986 H   0  0  0  0  0  0  0  0  0  0  0  0
   -3.5724   -1.2359   -2.0504 C   0  0  0  0  0  0  0  0  0  0  0  0
   -2.9772    2.5649   -1.6601 C   0  0  0  0  0  0  0  0  0  0  0  0
   -2.4061    3.0151   -2.4981 H   0  0  0  0  0  0  0  0  0  0  0  0
   -2.2743    2.4755   -0.8132 H   0  0  0  0  0  0  0  0  0  0  0  0
   -3.7735    3.2868   -1.3890 H   0  0  0  0  0  0  0  0  0  0  0  0
   -2.9767   -2.5653   -1.6605 C   0  0  0  0  0  0  0  0  0  0  0  0
   -2.4054   -3.0153   -2.4986 H   0  0  0  0  0  0  0  0  0  0  0  0
   -3.7727   -3.2875   -1.3895 H   0  0  0  0  0  0  0  0  0  0  0  0
   -2.2737   -2.4759   -0.8137 H   0  0  0  0  0  0  0  0  0  0  0  0
  2  1  1  0  0  0  0
  3  4  1  0  0  0  0
  3  2  1  0  0  0  0
  5  3  1  0  0  0  0
  6  3  1  0  0  0  0
  7 10  1  0  0  0  0
  7  2  1  0  0  0  0
  8  7  1  0  0  0  0
  9  7  1  0  0  0  0
 11  1  1  0  0  0  0
 12 11  1  0  0  0  0
 12 20  1  0  0  0  0
 13 12  2  0  0  0  0
 14 13  1  0  0  0  0
 15 17  2  0  0  0  0
 15 13  1  0  0  0  0
 16 15  1  0  0  0  0
 17 19  1  0  0  0  0
 18 17  1  0  0  0  0
 19 11  2  0  0  0  0
 19 24  1  0  0  0  0
 20 23  1  0  0  0  0
 20 22  1  0  0  0  0
 21 20  1  0  0  0  0
 24 26  1  0  0  0  0
 24 27  1  0  0  0  0
 25 24  1  0  0  0  0
M  END
