2
 OpenBabel05122313063D

 14 14  0  0  0  0  0  0  0  0999 V2000
   -4.0449    0.0002   -1.1146 N   0  0  0  0  0  0  0  0  0  0  0  0
   -1.3316    0.0001   -0.5037 N   0  0  0  0  0  2  0  0  0  0  0  0
   -2.0102   -1.1612   -0.6670 C   0  0  0  0  0  0  0  0  0  0  0  0
   -1.4157   -2.0886   -0.5699 H   0  0  0  0  0  0  0  0  0  0  0  0
   -3.3635   -1.1803   -0.9626 C   0  0  0  0  0  0  0  0  0  0  0  0
   -3.9302   -2.1097   -1.1077 H   0  0  0  0  0  0  0  0  0  0  0  0
   -3.3635    1.1806   -0.9621 C   0  0  0  0  0  0  0  0  0  0  0  0
   -3.9303    2.1101   -1.1067 H   0  0  0  0  0  0  0  0  0  0  0  0
   -2.0103    1.1615   -0.6665 C   0  0  0  0  0  0  0  0  0  0  0  0
   -1.4158    2.0888   -0.5689 H   0  0  0  0  0  0  0  0  0  0  0  0
   -5.4812    0.0003   -1.3993 C   0  0  0  0  0  0  0  0  0  0  0  0
   -5.7426   -0.9004   -1.9839 H   0  0  0  0  0  0  0  0  0  0  0  0
   -5.7425    0.9009   -1.9840 H   0  0  0  0  0  0  0  0  0  0  0  0
   -6.0582    0.0003   -0.4521 H   0  0  0  0  0  0  0  0  0  0  0  0
  1  5  1  0  0  0  0
  1  7  1  0  0  0  0
  3  4  1  0  0  0  0
  3  2  1  0  0  0  0
  5  3  2  0  0  0  0
  6  5  1  0  0  0  0
  7  9  2  0  0  0  0
  8  7  1  0  0  0  0
  9 10  1  0  0  0  0
  9  2  1  0  0  0  0
 11  1  1  0  0  0  0
 11 14  1  0  0  0  0
 12 11  1  0  0  0  0
 13 11  1  0  0  0  0
M  END
