1
 OpenBabel05122313063D

 29 30  0  0  1  0  0  0  0  0999 V2000
    2.9087   -1.8281   -0.2644 N   0  0  0  0  0  2  0  0  0  0  0  0
    5.0555   -1.4763    0.1109 N   0  0  0  0  0  0  0  0  0  0  0  0
    6.3131    2.0876   -1.1939 N   0  0  0  0  0  4  0  0  0  0  0  0
    5.6863    4.0335   -2.2708 N   0  0  0  0  0  0  0  0  0  0  0  0
    6.2579    3.7276   -3.0556 H   0  0  0  0  0  0  0  0  0  0  0  0
    5.2409    4.9488   -2.2710 H   0  0  0  0  0  0  0  0  0  0  0  0
    4.9379    3.7366   -0.1042 N   0  0  0  0  0  0  0  0  0  0  0  0
    4.2220    3.3197    2.0544 N   0  0  0  0  0  0  0  0  0  0  0  0
    3.8707    4.2764    2.0689 H   0  0  0  0  0  0  0  0  0  0  0  0
    4.3864    2.8385    2.9368 H   0  0  0  0  0  0  0  0  0  0  0  0
    5.5536    1.7149    1.0404 N   0  0  0  0  0  2  0  0  0  0  0  0
    3.6204   -2.2970   -1.3567 C   0  0  0  0  0  0  0  0  0  0  0  0
    3.1294   -2.7545   -2.2211 H   0  0  0  0  0  0  0  0  0  0  0  0
    4.9603   -2.0807   -1.1324 C   0  0  0  0  0  0  0  0  0  0  0  0
    5.8424   -2.3009   -1.7407 H   0  0  0  0  0  0  0  0  0  0  0  0
    3.7963   -1.3319    0.6192 C   0  0  2  0  0  3  0  0  0  0  0  0
    3.4771   -0.7307    1.9417 C   0  0  0  0  0  0  0  0  0  0  0  0
    3.9798    0.2541    2.0406 H   0  0  0  0  0  0  0  0  0  0  0  0
    3.8109   -1.3806    2.7776 H   0  0  0  0  0  0  0  0  0  0  0  0
    2.3828   -0.5951    2.0294 H   0  0  0  0  0  0  0  0  0  0  0  0
    6.3112   -1.0493    0.7382 C   0  0  0  0  0  0  0  0  0  0  0  0
    6.9735   -1.9345    0.8190 H   0  0  0  0  0  0  0  0  0  0  0  0
    6.0747   -0.7009    1.7592 H   0  0  0  0  0  0  0  0  0  0  0  0
    7.0035    0.0701   -0.0370 C   0  0  0  0  0  0  0  0  0  0  0  0
    7.9822    0.2628    0.4542 H   0  0  0  0  0  0  0  0  0  0  0  0
    7.2318   -0.2229   -1.0799 H   0  0  0  0  0  0  0  0  0  0  0  0
    6.2307    1.3733   -0.0692 C   0  0  0  0  0  0  0  0  0  0  0  0
    5.6410    3.2717   -1.1559 C   0  0  0  0  0  0  0  0  0  0  0  0
    4.9303    2.9226    0.9635 C   0  0  0  0  0  0  0  0  0  0  0  0
  1 16  1  0  0  0  0
  2 16  1  0  0  0  0
  2 21  1  0  0  0  0
  3 28  2  0  0  0  0
  3 27  2  0  0  0  0
  4 28  1  0  0  0  0
  5  4  1  0  0  0  0
  6  4  1  0  0  0  0
  7 29  2  0  0  0  0
  8  9  1  0  0  0  0
  8 10  1  0  0  0  0
 12 14  2  0  0  0  0
 12  1  1  0  0  0  0
 13 12  1  0  0  0  0
 14  2  1  0  0  0  0
 15 14  1  0  0  0  0
 16 17  1  1  0  0  0
 17 20  1  0  0  0  0
 17 18  1  0  0  0  0
 17 19  1  0  0  0  0
 21 22  1  0  0  0  0
 21 23  1  0  0  0  0
 24 25  1  0  0  0  0
 24 21  1  0  0  0  0
 26 24  1  0  0  0  0
 27 24  1  0  0  0  0
 27 11  1  0  0  0  0
 28  7  1  0  0  0  0
 29 11  1  0  0  0  0
 29  8  1  0  0  0  0
M  END
