1
 OpenBabel05122313063D

 23 24  0  0  0  0  0  0  0  0999 V2000
   -1.3191   -1.9157   -0.1386 N   0  0  0  0  0  2  0  0  0  0  0  0
   -2.6023   -2.2938   -0.2875 C   0  0  0  0  0  3  0  0  0  0  0  0
   -3.3332   -1.4715   -0.3228 H   0  0  0  0  0  0  0  0  0  0  0  0
   -2.9870   -3.6350   -0.3923 C   0  0  0  0  0  0  0  0  0  0  0  0
   -4.0488   -3.8902   -0.5139 H   0  0  0  0  0  0  0  0  0  0  0  0
   -1.9944   -4.6264   -0.3435 C   0  0  0  0  0  0  0  0  0  0  0  0
   -2.2593   -5.6905   -0.4328 H   0  0  0  0  0  0  0  0  0  0  0  0
   -0.6620   -4.2449   -0.1692 C   0  0  0  0  0  0  0  0  0  0  0  0
    0.1480   -4.9840   -0.1094 H   0  0  0  0  0  0  0  0  0  0  0  0
   -0.3469   -2.8730   -0.0564 C   0  0  0  0  0  0  0  0  0  0  0  0
    0.9744   -2.4092    0.1922 C   0  0  0  0  0  0  0  0  0  0  0  0
    2.0792   -1.9558    0.4927 C   0  0  0  0  0  0  0  0  0  0  0  0
    3.2680   -1.2697    0.8646 C   0  0  0  0  0  0  0  0  0  0  0  0
    3.1483   -0.0530    1.5889 C   0  0  0  0  0  0  0  0  0  0  0  0
    2.1439    0.3060    1.8598 H   0  0  0  0  0  0  0  0  0  0  0  0
    4.2945    0.6641    1.9469 C   0  0  0  0  0  0  0  0  0  0  0  0
    4.1920    1.6056    2.5072 H   0  0  0  0  0  0  0  0  0  0  0  0
    5.5686    0.1869    1.5930 C   0  0  0  0  0  0  0  0  0  0  0  0
    6.4676    0.7554    1.8753 H   0  0  0  0  0  0  0  0  0  0  0  0
    5.6948   -1.0176    0.8801 C   0  0  0  0  0  0  0  0  0  0  0  0
    6.6922   -1.3921    0.6044 H   0  0  0  0  0  0  0  0  0  0  0  0
    4.5566   -1.7470    0.5170 C   0  0  0  0  0  0  0  0  0  0  0  0
    4.6479   -2.6891   -0.0428 H   0  0  0  0  0  0  0  0  0  0  0  0
  1 10  1  0  0  0  0
  2  1  1  0  0  0  0
  3  2  1  0  0  0  0
  4  6  2  0  0  0  0
  4  2  1  0  0  0  0
  5  4  1  0  0  0  0
  6  8  1  0  0  0  0
  7  6  1  0  0  0  0
  8  9  1  0  0  0  0
  8 10  2  0  0  0  0
 10 11  1  0  0  0  0
 11 12  3  0  0  0  0
 12 13  1  0  0  0  0
 13 14  1  0  0  0  0
 14 15  1  0  0  0  0
 14 16  2  0  0  0  0
 16 17  1  0  0  0  0
 18 19  1  0  0  0  0
 18 16  1  0  0  0  0
 20 18  2  0  0  0  0
 21 20  1  0  0  0  0
 22 13  2  0  0  0  0
 22 20  1  0  0  0  0
 23 22  1  0  0  0  0
M  END
