3
 OpenBabel05122313063D

 20 21  0  0  1  0  0  0  0  0999 V2000
   -1.6589    3.7503   -0.3607 S   0  0  0  0  0  0  0  0  0  0  0  0
   -3.2482   -2.3356    1.1456 S   0  0  0  0  0  0  0  0  0  0  0  0
   -0.6146    1.4176   -0.4659 N   0  0  0  0  0  2  0  0  0  0  0  0
   -1.8852   -1.1713   -0.6987 N   0  0  0  0  0  0  0  0  0  0  0  0
    1.0618    3.1841   -0.9936 C   0  0  0  0  0  0  0  0  0  0  0  0
    1.7920    2.3624   -0.8494 H   0  0  0  0  0  0  0  0  0  0  0  0
    1.3616    4.0591   -0.3844 H   0  0  0  0  0  0  0  0  0  0  0  0
    1.0884    3.4874   -2.0612 H   0  0  0  0  0  0  0  0  0  0  0  0
   -0.2948    2.6939   -0.6190 C   0  0  1  0  0  3  0  0  0  0  0  0
   -2.6771    2.3859   -0.0429 C   0  0  0  0  0  0  0  0  0  0  0  0
   -3.7427    2.5045    0.1813 H   0  0  0  0  0  0  0  0  0  0  0  0
   -1.9542    1.2166   -0.1397 C   0  0  0  0  0  0  0  0  0  0  0  0
   -2.3995   -0.1635    0.0987 C   0  0  0  0  0  0  0  0  0  0  0  0
   -3.1909   -0.6073    1.1408 C   0  0  0  0  0  0  0  0  0  0  0  0
   -3.6582   -0.0145    1.9347 H   0  0  0  0  0  0  0  0  0  0  0  0
   -2.2171   -2.3735   -0.2727 C   0  0  0  0  0  0  0  0  0  0  0  0
   -1.6783   -3.6358   -0.8586 C   0  0  0  0  0  0  0  0  0  0  0  0
   -0.5704   -3.6184   -0.7608 H   0  0  0  0  0  0  0  0  0  0  0  0
   -1.9277   -3.7082   -1.9369 H   0  0  0  0  0  0  0  0  0  0  0  0
   -2.0689   -4.5330   -0.3452 H   0  0  0  0  0  0  0  0  0  0  0  0
  1 10  1  0  0  0  0
  3 12  1  0  0  0  0
  4 16  2  0  0  0  0
  4 13  1  0  0  0  0
  5  6  1  0  0  0  0
  5  7  1  0  0  0  0
  8  5  1  0  0  0  0
  9  5  1  6  0  0  0
  9  3  1  0  0  0  0
  9  1  1  0  0  0  0
 10 11  1  0  0  0  0
 12 10  2  0  0  0  0
 12 13  1  0  0  0  0
 13 14  2  0  0  0  0
 14  2  1  0  0  0  0
 14 15  1  0  0  0  0
 16  2  1  0  0  0  0
 17 18  1  0  0  0  0
 17 20  1  0  0  0  0
 17 16  1  0  0  0  0
 19 17  1  0  0  0  0
M  END
