6
 OpenBabel05122313063D

 34 36  0  0  0  0  0  0  0  0999 V2000
   -4.4630    3.8355    0.7777 Cl  0  0  0  0  0  0  0  0  0  0  0  0
    0.6500    3.1890   -0.0326 S   0  0  0  0  0  0  0  0  0  0  0  0
    5.8666    3.8005   -0.4965 O   0  0  0  0  0  0  0  0  0  0  0  0
   -8.5240    0.6024    0.3467 O   0  0  0  0  0  0  0  0  0  0  0  0
   -7.7851   -1.3965   -0.1554 O   0  0  0  0  0  0  0  0  0  0  0  0
    1.3051    0.6586   -0.0205 N   0  0  0  0  0  2  0  0  0  0  0  0
   -7.6132   -0.1993    0.1001 N   0  0  0  0  0  0  0  0  0  0  0  0
    2.4987    1.3612   -0.1366 C   0  0  0  0  0  0  0  0  0  0  0  0
    3.7947    0.8082   -0.2489 C   0  0  0  0  0  0  0  0  0  0  0  0
    4.8837    1.6636   -0.3674 C   0  0  0  0  0  0  0  0  0  0  0  0
    4.7168    3.0746   -0.3767 C   0  0  0  0  0  0  0  0  0  0  0  0
    3.4363    3.6467   -0.2729 C   0  0  0  0  0  0  0  0  0  0  0  0
    2.3423    2.7717   -0.1562 C   0  0  0  0  0  0  0  0  0  0  0  0
    0.2365    1.4685    0.0457 C   0  0  0  0  0  0  0  0  0  0  0  0
   -1.1130    1.0089    0.1456 C   0  0  0  0  0  0  0  0  0  0  0  0
   -2.2303    1.8054    0.1451 C   0  0  0  0  0  3  0  0  0  0  0  0
   -3.5837    1.2959    0.1421 C   0  0  0  0  0  0  0  0  0  0  0  0
   -4.7070    2.1387    0.4075 C   0  0  0  0  0  0  0  0  0  0  0  0
   -6.0166    1.6604    0.3988 C   0  0  0  0  0  0  0  0  0  0  0  0
   -6.2362    0.3045    0.1115 C   0  0  0  0  0  0  0  0  0  0  0  0
   -5.1689   -0.5660   -0.1749 C   0  0  0  0  0  0  0  0  0  0  0  0
   -3.8697   -0.0689   -0.1617 C   0  0  0  0  0  0  0  0  0  0  0  0
    5.7673    5.2079   -0.5120 C   0  0  0  0  0  0  0  0  0  0  0  0
    3.9058   -0.2845   -0.2258 H   0  0  0  0  0  0  0  0  0  0  0  0
    5.9058    1.2688   -0.4538 H   0  0  0  0  0  0  0  0  0  0  0  0
    3.2787    4.7322   -0.2855 H   0  0  0  0  0  0  0  0  0  0  0  0
   -1.1870   -0.0862    0.2299 H   0  0  0  0  0  0  0  0  0  0  0  0
   -2.1220    2.9024    0.1277 H   0  0  0  0  0  0  0  0  0  0  0  0
   -6.8718    2.3122    0.6135 H   0  0  0  0  0  0  0  0  0  0  0  0
   -5.3849   -1.6145   -0.4168 H   0  0  0  0  0  0  0  0  0  0  0  0
   -3.0352   -0.7327   -0.4377 H   0  0  0  0  0  0  0  0  0  0  0  0
    6.7983    5.5967   -0.6113 H   0  0  0  0  0  0  0  0  0  0  0  0
    5.1596    5.5744   -1.3710 H   0  0  0  0  0  0  0  0  0  0  0  0
    5.3210    5.6051    0.4284 H   0  0  0  0  0  0  0  0  0  0  0  0
  2 14  1  0  0  0  0
  3 11  1  0  0  0  0
  5  7  2  0  0  0  0
  6 14  1  0  0  0  0
  7 20  1  0  0  0  0
  7  4  2  0  0  0  0
  8  6  1  0  0  0  0
  9 24  1  0  0  0  0
  9  8  2  0  0  0  0
 10  9  1  0  0  0  0
 11 10  2  0  0  0  0
 11 12  1  0  0  0  0
 12 13  2  0  0  0  0
 13  8  1  0  0  0  0
 13  2  1  0  0  0  0
 14 15  2  0  0  0  0
 15 27  1  0  0  0  0
 16 15  1  0  0  0  0
 17 16  1  0  0  0  0
 17 18  1  0  0  0  0
 18  1  1  0  0  0  0
 19 18  2  0  0  0  0
 19 29  1  0  0  0  0
 20 19  1  0  0  0  0
 21 22  1  0  0  0  0
 21 20  2  0  0  0  0
 22 17  2  0  0  0  0
 23  3  1  0  0  0  0
 23 34  1  0  0  0  0
 25 10  1  0  0  0  0
 26 12  1  0  0  0  0
 28 16  1  0  0  0  0
 30 21  1  0  0  0  0
 31 22  1  0  0  0  0
 32 23  1  0  0  0  0
 33 23  1  0  0  0  0
M  END
