5
 OpenBabel05122313063D

 10 10  0  0  0  0  0  0  0  0999 V2000
    0.6779   -2.4733    0.2964 S   0  0  0  0  0  0  0  0  0  0  0  0
    1.4643    2.8258    0.2354 S   0  0  0  0  0  0  0  0  0  0  0  0
    5.6051   -0.3940   -0.2612 S   0  0  0  0  0  0  0  0  0  0  0  0
    1.7970   -1.1477    0.0538 C   0  0  0  0  0  0  0  0  0  0  0  0
    1.2189    0.1286   -0.0399 N   0  0  0  0  0  2  0  0  0  0  0  0
    2.0218    1.2185    0.0770 C   0  0  0  0  0  0  0  0  0  0  0  0
    3.3676    0.9748    0.1011 N   0  0  0  0  0  0  0  0  0  0  0  0
    4.0076    1.7725    0.1499 H   0  0  0  0  0  0  0  0  0  0  0  0
    3.9525   -0.3031   -0.0521 C   0  0  0  0  0  0  0  0  0  0  0  0
    3.1021   -1.3652    0.0084 N   0  0  0  0  0  2  0  0  0  0  0  0
  3  9  2  0  0  0  0
  4  1  2  0  0  0  0
  5  4  1  0  0  0  0
  5  6  1  0  0  0  0
  6  7  1  0  0  0  0
  6  2  2  0  0  0  0
  7  8  1  0  0  0  0
  9 10  1  0  0  0  0
  9  7  1  0  0  0  0
 10  4  1  0  0  0  0
M  END
