1
 OpenBabel05122313063D

 22 22  0  0  0  0  0  0  0  0999 V2000
   -1.5562   -1.3387   -0.8497 N   0  0  0  0  0  0  0  0  0  0  0  0
   -0.6451   -1.5767    1.6386 N   0  0  0  0  0  0  0  0  0  0  0  0
   -2.7444   -2.6934    0.9272 C   0  0  0  0  0  0  0  0  0  0  0  0
    0.0562   -2.4614    0.7208 C   0  0  0  0  0  0  0  0  0  0  0  0
   -1.9573   -2.0470    2.0669 C   0  0  0  0  0  0  0  0  0  0  0  0
   -0.4856   -2.3504   -0.7404 C   0  0  0  0  0  0  0  0  0  0  0  0
   -2.8673   -1.8431   -0.3360 C   0  0  0  0  0  0  0  0  0  0  0  0
    0.1505   -1.0627    2.7337 C   0  0  0  0  0  0  0  0  0  0  0  0
   -1.6988   -1.0571   -1.8344 H   0  0  0  0  0  0  0  0  0  0  0  0
   -2.2994   -3.6814    0.6838 H   0  0  0  0  0  0  0  0  0  0  0  0
   -3.7701   -2.9162    1.2852 H   0  0  0  0  0  0  0  0  0  0  0  0
    0.0352   -3.5305    1.0545 H   0  0  0  0  0  0  0  0  0  0  0  0
    1.1172   -2.1520    0.7152 H   0  0  0  0  0  0  0  0  0  0  0  0
   -2.5155   -1.1752    2.4736 H   0  0  0  0  0  0  0  0  0  0  0  0
   -1.8748   -2.7938    2.9034 H   0  0  0  0  0  0  0  0  0  0  0  0
    0.3335   -2.0370   -1.4102 H   0  0  0  0  0  0  0  0  0  0  0  0
   -0.8643   -3.3308   -1.1038 H   0  0  0  0  0  0  0  0  0  0  0  0
   -3.5096   -0.9647   -0.1418 H   0  0  0  0  0  0  0  0  0  0  0  0
   -3.3494   -2.4520   -1.1325 H   0  0  0  0  0  0  0  0  0  0  0  0
    0.4318   -1.8430    3.4894 H   0  0  0  0  0  0  0  0  0  0  0  0
    1.0796   -0.6001    2.3466 H   0  0  0  0  0  0  0  0  0  0  0  0
   -0.4212   -0.2732    3.2642 H   0  0  0  0  0  0  0  0  0  0  0  0
  1  6  1  0  0  0  0
  1  7  1  0  0  0  0
  2  5  1  0  0  0  0
  2  8  1  0  0  0  0
  3 11  1  0  0  0  0
  3  5  1  0  0  0  0
  4 12  1  0  0  0  0
  4  2  1  0  0  0  0
  5 14  1  0  0  0  0
  5 15  1  0  0  0  0
  6  4  1  0  0  0  0
  7 18  1  0  0  0  0
  7  3  1  0  0  0  0
  8 22  1  0  0  0  0
  8 20  1  0  0  0  0
  9  1  1  0  0  0  0
 10  3  1  0  0  0  0
 13  4  1  0  0  0  0
 16  6  1  0  0  0  0
 17  6  1  0  0  0  0
 19  7  1  0  0  0  0
 21  8  1  0  0  0  0
M  END
