3
 OpenBabel05122313063D

 17 17  0  0  0  0  0  0  0  0999 V2000
   -0.9458   -1.1090   -2.3031 O   0  0  0  0  0  1  0  0  0  0  0  0
   -6.8514    0.1502   -0.8515 O   0  0  0  0  0  0  0  0  0  0  0  0
   -1.2971   -0.4639   -1.3017 N   0  0  0  0  0  2  0  0  0  0  0  0
   -2.7181   -0.2531   -1.1664 C   0  0  0  0  0  0  0  0  0  0  0  0
   -3.5999   -1.0909   -1.8881 C   0  0  0  0  0  0  0  0  0  0  0  0
   -3.1651   -1.8611   -2.5394 H   0  0  0  0  0  0  0  0  0  0  0  0
   -4.9735   -0.9354   -1.7556 C   0  0  0  0  0  0  0  0  0  0  0  0
   -5.6809   -1.5865   -2.2893 H   0  0  0  0  0  0  0  0  0  0  0  0
   -3.2319    0.7604   -0.3376 C   0  0  0  0  0  0  0  0  0  0  0  0
   -2.5378    1.4321    0.1803 H   0  0  0  0  0  0  0  0  0  0  0  0
   -4.6173    0.9313   -0.2165 C   0  0  0  0  0  0  0  0  0  0  0  0
   -4.9994    1.7398    0.4206 H   0  0  0  0  0  0  0  0  0  0  0  0
   -5.4983    0.0780   -0.9153 C   0  0  0  0  0  0  0  0  0  0  0  0
   -7.4394    1.1407   -0.0270 C   0  0  0  0  0  0  0  0  0  0  0  0
   -8.5338    1.0144   -0.1191 H   0  0  0  0  0  0  0  0  0  0  0  0
   -7.1639    2.1678   -0.3547 H   0  0  0  0  0  0  0  0  0  0  0  0
   -7.1478    1.0164    1.0398 H   0  0  0  0  0  0  0  0  0  0  0  0
  1  3  1  0  0  0  0
  2 14  1  0  0  0  0
  3  4  1  0  0  0  0
  4  9  1  0  0  0  0
  5  7  1  0  0  0  0
  5  4  2  0  0  0  0
  6  5  1  0  0  0  0
  7 13  2  0  0  0  0
  8  7  1  0  0  0  0
  9 11  2  0  0  0  0
  9 10  1  0  0  0  0
 11 12  1  0  0  0  0
 13  2  1  0  0  0  0
 13 11  1  0  0  0  0
 14 17  1  0  0  0  0
 15 14  1  0  0  0  0
 16 14  1  0  0  0  0
M  END
