1
 OpenBabel05122313063D

 29 30  0  0  0  0  0  0  0  0999 V2000
    0.3671    2.9829   -0.4832 N   0  0  0  0  0  0  0  0  0  0  0  0
    1.5508    3.8154   -0.1235 C   0  0  0  0  0  0  0  0  0  0  0  0
    1.2629    4.8911   -0.1889 H   0  0  0  0  0  0  0  0  0  0  0  0
    1.8656    3.6013    0.9147 H   0  0  0  0  0  0  0  0  0  0  0  0
    2.5871    3.4654   -1.1885 C   0  0  0  0  0  0  0  0  0  0  0  0
    3.1729    2.5787   -0.8720 H   0  0  0  0  0  0  0  0  0  0  0  0
    3.3077    4.2904   -1.3422 H   0  0  0  0  0  0  0  0  0  0  0  0
    1.7452    3.1498   -2.4537 C   0  0  0  0  0  0  0  0  0  0  0  0
    1.8822    3.9078   -3.2479 H   0  0  0  0  0  0  0  0  0  0  0  0
    2.0367    2.1766   -2.8898 H   0  0  0  0  0  0  0  0  0  0  0  0
    0.2831    3.1449   -1.9694 C   0  0  0  0  0  0  0  0  0  0  0  0
   -0.3506    2.3508   -2.4092 H   0  0  0  0  0  0  0  0  0  0  0  0
   -0.2031    4.1241   -2.1861 H   0  0  0  0  0  0  0  0  0  0  0  0
   -0.8600    3.4621    0.2106 C   0  0  0  0  0  0  0  0  0  0  0  0
   -0.5757    3.7021    1.2554 H   0  0  0  0  0  0  0  0  0  0  0  0
   -1.2101    4.4146   -0.2563 H   0  0  0  0  0  0  0  0  0  0  0  0
   -1.9217    2.4636    0.2256 C   0  0  0  0  0  0  0  0  0  0  0  0
   -2.8685    1.6836    0.3210 C   0  0  0  0  0  0  0  0  0  0  0  0
   -3.9274    0.7329    0.4197 C   0  0  0  0  0  0  0  0  0  0  0  0
   -4.1565    0.0433    1.6376 C   0  0  0  0  0  0  0  0  0  0  0  0
   -3.5347    0.2773    2.5145 H   0  0  0  0  0  0  0  0  0  0  0  0
   -5.1627   -0.9254    1.7194 C   0  0  0  0  0  0  0  0  0  0  0  0
   -5.3340   -1.4557    2.6680 H   0  0  0  0  0  0  0  0  0  0  0  0
   -5.9552   -1.2178    0.5963 C   0  0  0  0  0  0  0  0  0  0  0  0
   -6.7465   -1.9791    0.6650 H   0  0  0  0  0  0  0  0  0  0  0  0
   -5.7444   -0.5304   -0.6111 C   0  0  0  0  0  0  0  0  0  0  0  0
   -6.3728   -0.7505   -1.4870 H   0  0  0  0  0  0  0  0  0  0  0  0
   -4.7405    0.4403   -0.7041 C   0  0  0  0  0  0  0  0  0  0  0  0
   -4.5715    0.9826   -1.6453 H   0  0  0  0  0  0  0  0  0  0  0  0
  1  2  1  0  0  0  0
  1 14  1  0  0  0  0
  2  4  1  0  0  0  0
  3  2  1  0  0  0  0
  5  6  1  0  0  0  0
  5  2  1  0  0  0  0
  7  5  1  0  0  0  0
  8 11  1  0  0  0  0
  8  5  1  0  0  0  0
  9  8  1  0  0  0  0
 10  8  1  0  0  0  0
 11  1  1  0  0  0  0
 12 11  1  0  0  0  0
 13 11  1  0  0  0  0
 14 17  1  0  0  0  0
 14 15  1  0  0  0  0
 16 14  1  0  0  0  0
 17 18  3  0  0  0  0
 18 19  1  0  0  0  0
 19 20  1  0  0  0  0
 20 22  2  0  0  0  0
 20 21  1  0  0  0  0
 22 23  1  0  0  0  0
 24 25  1  0  0  0  0
 24 22  1  0  0  0  0
 26 24  2  0  0  0  0
 27 26  1  0  0  0  0
 28 26  1  0  0  0  0
 28 19  2  0  0  0  0
 29 28  1  0  0  0  0
M  END
