1
 OpenBabel05122313063D

 28 27  0  0  0  0  0  0  0  0999 V2000
   -2.3770   -2.1741    0.1665 N   0  0  0  0  0  0  0  0  0  0  0  0
   -2.2281   -2.5339   -0.7914 H   0  0  0  0  0  0  0  0  0  0  0  0
   -3.8276   -2.2229    0.4647 C   0  0  0  0  0  0  0  0  0  0  0  0
   -3.9912   -1.6671    1.4128 H   0  0  0  0  0  0  0  0  0  0  0  0
   -4.1023   -3.2869    0.6564 H   0  0  0  0  0  0  0  0  0  0  0  0
   -4.7372   -1.6789   -0.6480 C   0  0  0  0  0  0  0  0  0  0  0  0
   -4.3778   -2.1115   -1.6113 H   0  0  0  0  0  0  0  0  0  0  0  0
   -4.7101   -0.1520   -0.7739 C   0  0  0  0  0  0  0  0  0  0  0  0
   -5.0374    0.3246    0.1741 H   0  0  0  0  0  0  0  0  0  0  0  0
   -5.3838    0.1878   -1.5867 H   0  0  0  0  0  0  0  0  0  0  0  0
   -3.6874    0.2175   -1.0033 H   0  0  0  0  0  0  0  0  0  0  0  0
   -6.1699   -2.1775   -0.4112 C   0  0  0  0  0  0  0  0  0  0  0  0
   -6.5613   -1.8034    0.5588 H   0  0  0  0  0  0  0  0  0  0  0  0
   -6.2266   -3.2853   -0.3924 H   0  0  0  0  0  0  0  0  0  0  0  0
   -6.8524   -1.8152   -1.2058 H   0  0  0  0  0  0  0  0  0  0  0  0
   -1.6045   -3.0041    1.1192 C   0  0  0  0  0  0  0  0  0  0  0  0
   -2.1060   -3.9960    1.2354 H   0  0  0  0  0  0  0  0  0  0  0  0
   -1.6505   -2.4884    2.1004 H   0  0  0  0  0  0  0  0  0  0  0  0
   -0.1468   -3.2262    0.7009 C   0  0  0  0  0  0  0  0  0  0  0  0
    0.2794   -2.2162    0.4972 H   0  0  0  0  0  0  0  0  0  0  0  0
   -0.0322   -4.0617   -0.5797 C   0  0  0  0  0  0  0  0  0  0  0  0
   -0.5437   -5.0411   -0.4618 H   0  0  0  0  0  0  0  0  0  0  0  0
    1.0290   -4.2686   -0.8240 H   0  0  0  0  0  0  0  0  0  0  0  0
   -0.4609   -3.5336   -1.4560 H   0  0  0  0  0  0  0  0  0  0  0  0
    0.6325   -3.8537    1.8618 C   0  0  0  0  0  0  0  0  0  0  0  0
    0.2183   -4.8482    2.1331 H   0  0  0  0  0  0  0  0  0  0  0  0
    0.5968   -3.2132    2.7664 H   0  0  0  0  0  0  0  0  0  0  0  0
    1.6977   -4.0031    1.5909 H   0  0  0  0  0  0  0  0  0  0  0  0
  1  3  1  0  0  0  0
  1 16  1  0  0  0  0
  2  1  1  0  0  0  0
  3  5  1  0  0  0  0
  3  4  1  0  0  0  0
  6 12  1  0  0  0  0
  6  3  1  0  0  0  0
  7  6  1  0  0  0  0
  8  6  1  0  0  0  0
  8  9  1  0  0  0  0
 10  8  1  0  0  0  0
 11  8  1  0  0  0  0
 12 14  1  0  0  0  0
 12 13  1  0  0  0  0
 15 12  1  0  0  0  0
 16 17  1  0  0  0  0
 16 18  1  0  0  0  0
 19 16  1  0  0  0  0
 19 25  1  0  0  0  0
 20 19  1  0  0  0  0
 21 22  1  0  0  0  0
 21 19  1  0  0  0  0
 23 21  1  0  0  0  0
 24 21  1  0  0  0  0
 25 26  1  0  0  0  0
 25 27  1  0  0  0  0
 28 25  1  0  0  0  0
M  END
