1
 OpenBabel05122313063D

 20 21  0  0  0  0  0  0  0  0999 V2000
    1.2123   -0.2057    0.5198 N   0  0  0  0  0  2  0  0  0  0  0  0
    1.7647   -0.0510    1.7884 C   0  0  0  0  0  0  0  0  0  0  0  0
    1.0108    0.1996    3.0483 C   0  0  0  0  0  0  0  0  0  0  0  0
    2.2692   -0.4207   -0.2774 C   0  0  0  0  0  3  0  0  0  0  0  0
    3.3911   -0.4029    0.4790 N   0  0  0  0  0  0  0  0  0  0  0  0
    3.0881   -0.1706    1.7796 N   0  0  0  0  0  0  0  0  0  0  0  0
    5.6767    0.0399    0.7420 N   0  0  0  0  0  0  0  0  0  0  0  0
    4.7446   -0.5973    0.0399 C   0  0  0  0  0  0  0  0  0  0  0  0
    4.9952   -1.4182   -1.0744 C   0  0  0  0  0  0  0  0  0  0  0  0
    6.3300   -1.5489   -1.4804 C   0  0  0  0  0  0  0  0  0  0  0  0
    6.9513   -0.1126    0.3536 C   0  0  0  0  0  0  0  0  0  0  0  0
    7.3317   -0.8860   -0.7560 C   0  0  0  0  0  0  0  0  0  0  0  0
    0.1695   -0.5097    3.1672 H   0  0  0  0  0  0  0  0  0  0  0  0
    0.5906    1.2244    3.0769 H   0  0  0  0  0  0  0  0  0  0  0  0
    1.7039    0.0869    3.9008 H   0  0  0  0  0  0  0  0  0  0  0  0
    2.2039   -0.6094   -1.3556 H   0  0  0  0  0  0  0  0  0  0  0  0
    4.1867   -1.9543   -1.5919 H   0  0  0  0  0  0  0  0  0  0  0  0
    6.5832   -2.1786   -2.3461 H   0  0  0  0  0  0  0  0  0  0  0  0
    7.7100    0.4161    0.9559 H   0  0  0  0  0  0  0  0  0  0  0  0
    8.3907   -0.9713   -1.0389 H   0  0  0  0  0  0  0  0  0  0  0  0
  1  2  1  0  0  0  0
  2  3  1  0  0  0  0
  3 14  1  0  0  0  0
  3 13  1  0  0  0  0
  3 15  1  0  0  0  0
  4  5  1  0  0  0  0
  4  1  1  0  0  0  0
  5  6  1  0  0  0  0
  6  2  2  0  0  0  0
  8  5  1  0  0  0  0
  8  7  2  0  0  0  0
  9  8  1  0  0  0  0
 10  9  2  0  0  0  0
 10 12  1  0  0  0  0
 11  7  1  0  0  0  0
 11 19  1  0  0  0  0
 12 11  2  0  0  0  0
 16  4  1  0  0  0  0
 17  9  1  0  0  0  0
 18 10  1  0  0  0  0
 20 12  1  0  0  0  0
M  END
