6
 OpenBabel05122313063D

 43 43  0  0  0  0  0  0  0  0999 V2000
   -1.9476   -1.4225   -1.2756 O   0  0  0  0  0  0  0  0  0  0  0  0
   -2.5208    0.7316    0.3809 O   0  0  0  0  0  0  0  0  0  0  0  0
   -0.2012    2.3464    0.7986 O   0  0  0  0  0  0  0  0  0  0  0  0
    2.4951    1.0432    0.7824 O   0  0  0  0  0  0  0  0  0  0  0  0
    3.3705   -1.7137    0.0121 O   0  0  0  0  0  0  0  0  0  0  0  0
    0.8263   -2.0305   -0.8794 N   0  0  0  0  0  0  0  0  0  0  0  0
   -0.0503   -2.7320   -1.8266 C   0  0  0  0  0  0  0  0  0  0  0  0
   -1.4990   -2.7667   -1.3571 C   0  0  0  0  0  0  0  0  0  0  0  0
   -3.2443   -1.2471   -0.7144 C   0  0  0  0  0  0  0  0  0  0  0  0
   -3.4771    0.2404   -0.5514 C   0  0  0  0  0  0  0  0  0  0  0  0
   -2.5744    2.1386    0.5909 C   0  0  0  0  0  0  0  0  0  0  0  0
   -1.4295    2.5293    1.4997 C   0  0  0  0  0  0  0  0  0  0  0  0
    0.9372    2.6815    1.5883 C   0  0  0  0  0  0  0  0  0  0  0  0
    2.2030    2.4307    0.7990 C   0  0  0  0  0  0  0  0  0  0  0  0
    3.6557    0.7400    0.0155 C   0  0  0  0  0  0  0  0  0  0  0  0
    4.2041   -0.6300    0.3860 C   0  0  0  0  0  0  0  0  0  0  0  0
    2.3930   -2.0846    0.9833 C   0  0  0  0  0  0  0  0  0  0  0  0
    1.3008   -2.8459    0.2520 C   0  0  0  0  0  0  0  0  0  0  0  0
    1.6697   -1.6898   -1.3660 H   0  0  0  0  0  0  0  0  0  0  0  0
   -0.0074   -2.1938   -2.7955 H   0  0  0  0  0  0  0  0  0  0  0  0
    0.2981   -3.7766   -2.0030 H   0  0  0  0  0  0  0  0  0  0  0  0
   -1.5920   -3.2622   -0.3646 H   0  0  0  0  0  0  0  0  0  0  0  0
   -2.1138   -3.3364   -2.0930 H   0  0  0  0  0  0  0  0  0  0  0  0
   -4.0214   -1.6723   -1.3920 H   0  0  0  0  0  0  0  0  0  0  0  0
   -3.2982   -1.7523    0.2759 H   0  0  0  0  0  0  0  0  0  0  0  0
   -4.5113    0.4130   -0.1714 H   0  0  0  0  0  0  0  0  0  0  0  0
   -3.3599    0.7624   -1.5284 H   0  0  0  0  0  0  0  0  0  0  0  0
   -2.4923    2.6731   -0.3830 H   0  0  0  0  0  0  0  0  0  0  0  0
   -3.5391    2.4153    1.0771 H   0  0  0  0  0  0  0  0  0  0  0  0
   -1.4418    1.9013    2.4199 H   0  0  0  0  0  0  0  0  0  0  0  0
   -1.5434    3.6008    1.7885 H   0  0  0  0  0  0  0  0  0  0  0  0
    0.8875    3.7616    1.8634 H   0  0  0  0  0  0  0  0  0  0  0  0
    0.9470    2.0726    2.5207 H   0  0  0  0  0  0  0  0  0  0  0  0
    3.0411    2.9899    1.2833 H   0  0  0  0  0  0  0  0  0  0  0  0
    2.0832    2.8236   -0.2380 H   0  0  0  0  0  0  0  0  0  0  0  0
    3.4147    0.7932   -1.0712 H   0  0  0  0  0  0  0  0  0  0  0  0
    4.4574    1.4910    0.2253 H   0  0  0  0  0  0  0  0  0  0  0  0
    4.4267   -0.6613    1.4782 H   0  0  0  0  0  0  0  0  0  0  0  0
    5.1651   -0.7637   -0.1558 H   0  0  0  0  0  0  0  0  0  0  0  0
    2.8425   -2.7362    1.7702 H   0  0  0  0  0  0  0  0  0  0  0  0
    1.9565   -1.1931    1.4816 H   0  0  0  0  0  0  0  0  0  0  0  0
    0.4602   -3.0385    0.9484 H   0  0  0  0  0  0  0  0  0  0  0  0
    1.6943   -3.8211   -0.1223 H   0  0  0  0  0  0  0  0  0  0  0  0
  1  9  1  0  0  0  0
  2 11  1  0  0  0  0
  3 12  1  0  0  0  0
  3 13  1  0  0  0  0
  4 14  1  0  0  0  0
  5 16  1  0  0  0  0
  5 17  1  0  0  0  0
  6 18  1  0  0  0  0
  7  8  1  0  0  0  0
  7  6  1  0  0  0  0
  8  1  1  0  0  0  0
  8 22  1  0  0  0  0
  9 10  1  0  0  0  0
  9 25  1  0  0  0  0
 10 26  1  0  0  0  0
 10  2  1  0  0  0  0
 11 29  1  0  0  0  0
 11 12  1  0  0  0  0
 12 31  1  0  0  0  0
 12 30  1  0  0  0  0
 13 32  1  0  0  0  0
 13 33  1  0  0  0  0
 14 34  1  0  0  0  0
 14 13  1  0  0  0  0
 15 37  1  0  0  0  0
 15 16  1  0  0  0  0
 15  4  1  0  0  0  0
 16 38  1  0  0  0  0
 17 41  1  0  0  0  0
 17 40  1  0  0  0  0
 18 42  1  0  0  0  0
 18 17  1  0  0  0  0
 19  6  1  0  0  0  0
 20  7  1  0  0  0  0
 21  7  1  0  0  0  0
 23  8  1  0  0  0  0
 24  9  1  0  0  0  0
 27 10  1  0  0  0  0
 28 11  1  0  0  0  0
 35 14  1  0  0  0  0
 36 15  1  0  0  0  0
 39 16  1  0  0  0  0
 43 18  1  0  0  0  0
M  END
