1
 OpenBabel05122313063D

 39 42  0  0  1  0  0  0  0  0999 V2000
   -0.3538    0.3919   -0.0098 N   0  0  0  0  0  2  0  0  0  0  0  0
   -3.1546    0.8216   -0.1035 N   0  0  0  0  0  0  0  0  0  0  0  0
   -2.8258    3.2076   -0.0077 C   0  0  1  0  0  3  0  0  0  0  0  0
   -0.8554    1.6875    0.0167 C   0  0  0  0  0  0  0  0  0  0  0  0
   -1.1968   -0.6236   -0.0471 C   0  0  0  0  0  0  0  0  0  0  0  0
   -2.2859    1.8803   -0.0310 C   0  0  0  0  0  0  0  0  0  0  0  0
   -1.9387    4.2805    0.0603 C   0  0  0  0  0  0  0  0  0  0  0  0
   -2.3398    5.3054    0.0777 H   0  0  0  0  0  0  0  0  0  0  0  0
    0.0075    2.8067    0.0883 C   0  0  0  0  0  0  0  0  0  0  0  0
    1.0951    2.6527    0.1338 H   0  0  0  0  0  0  0  0  0  0  0  0
   -2.5853   -4.0867    0.5900 C   0  0  0  0  0  0  0  0  0  0  0  0
   -3.5824   -4.3057    1.0230 H   0  0  0  0  0  0  0  0  0  0  0  0
   -1.8397   -4.6506    1.1852 H   0  0  0  0  0  0  0  0  0  0  0  0
   -2.5700   -4.4934   -0.4381 H   0  0  0  0  0  0  0  0  0  0  0  0
   -1.0038   -2.1269   -0.1209 C   0  0  2  0  0  0  0  0  0  0  0  0
   -4.3156    3.3945   -0.0573 C   0  0  0  0  0  0  0  0  0  0  0  0
   -4.8075    2.8906    0.7990 H   0  0  0  0  0  0  0  0  0  0  0  0
   -4.7437    2.9293   -0.9679 H   0  0  0  0  0  0  0  0  0  0  0  0
   -4.5838    4.4674   -0.0426 H   0  0  0  0  0  0  0  0  0  0  0  0
   -0.5373    4.0834    0.1083 C   0  0  0  0  0  0  0  0  0  0  0  0
    0.1320    4.9544    0.1640 H   0  0  0  0  0  0  0  0  0  0  0  0
   -3.2766   -1.7198   -0.2114 C   0  0  2  0  0  0  0  0  0  0  0  0
   -4.3488   -1.7299    0.0554 H   0  0  0  0  0  0  0  0  0  0  0  0
   -2.6191   -0.3724   -0.0986 C   0  0  0  0  0  0  0  0  0  0  0  0
   -2.3090   -2.5820    0.6672 C   0  0  0  0  0  0  0  0  0  0  0  0
    0.3131   -2.7386    0.3229 C   0  0  0  0  0  0  0  0  0  0  0  0
    1.1268   -2.5108   -0.3941 H   0  0  0  0  0  0  0  0  0  0  0  0
    0.2138   -3.8417    0.3552 H   0  0  0  0  0  0  0  0  0  0  0  0
    0.6246   -2.3827    1.3244 H   0  0  0  0  0  0  0  0  0  0  0  0
   -2.9412   -2.1949   -1.6601 C   0  0  0  0  0  0  0  0  0  0  0  0
   -3.5058   -3.1166   -1.8995 H   0  0  0  0  0  0  0  0  0  0  0  0
   -3.2295   -1.4324   -2.4089 H   0  0  0  0  0  0  0  0  0  0  0  0
   -1.4089   -2.4465   -1.6074 C   0  0  0  0  0  0  0  0  0  0  0  0
   -0.8213   -1.8214   -2.3072 H   0  0  0  0  0  0  0  0  0  0  0  0
   -1.1511   -3.5025   -1.8208 H   0  0  0  0  0  0  0  0  0  0  0  0
   -2.2863   -2.1634    2.1444 C   0  0  0  0  0  0  0  0  0  0  0  0
   -2.0426   -1.0918    2.2907 H   0  0  0  0  0  0  0  0  0  0  0  0
   -1.5264   -2.7469    2.7014 H   0  0  0  0  0  0  0  0  0  0  0  0
   -3.2703   -2.3546    2.6182 H   0  0  0  0  0  0  0  0  0  0  0  0
  1  4  1  0  0  0  0
  2 24  1  0  0  0  0
  2  6  2  0  0  0  0
  3 16  1  6  0  0  0
  3  7  1  0  0  0  0
  4  9  2  0  0  0  0
  5  1  1  0  0  0  0
  6  3  1  0  0  0  0
  6  4  1  0  0  0  0
  7  8  1  0  0  0  0
  7 20  2  0  0  0  0
  9 20  1  0  0  0  0
  9 10  1  0  0  0  0
 11 25  1  0  0  0  0
 11 12  1  0  0  0  0
 11 13  1  0  0  0  0
 14 11  1  0  0  0  0
 15  5  1  0  0  0  0
 15 26  1  1  0  0  0
 15 25  1  0  0  0  0
 16 19  1  0  0  0  0
 16 17  1  0  0  0  0
 18 16  1  0  0  0  0
 20 21  1  0  0  0  0
 22 24  1  0  0  0  0
 22 23  1  1  0  0  0
 22 25  1  0  0  0  0
 24  5  2  0  0  0  0
 25 36  1  0  0  0  0
 26 28  1  0  0  0  0
 26 29  1  0  0  0  0
 27 26  1  0  0  0  0
 30 33  1  0  0  0  0
 30 22  1  0  0  0  0
 31 30  1  0  0  0  0
 32 30  1  0  0  0  0
 33 15  1  0  0  0  0
 34 33  1  0  0  0  0
 35 33  1  0  0  0  0
 36 37  1  0  0  0  0
 36 39  1  0  0  0  0
 36 38  1  0  0  0  0
M  END
