2
 OpenBabel05122313063D

 14 14  0  0  1  0  0  0  0  0999 V2000
    2.7825   -0.7828    0.3965 O   0  0  0  0  0  0  0  0  0  0  0  0
    1.9776    0.2322   -0.0778 N   0  0  0  0  0  2  0  0  0  0  0  0
    4.0746   -0.4125    0.2279 C   0  0  2  0  0  3  0  0  0  0  0  0
    4.1161    0.8359   -0.3532 C   0  0  0  0  0  0  0  0  0  0  0  0
    2.7523    1.2131   -0.5320 C   0  0  0  0  0  0  0  0  0  0  0  0
    5.1072   -1.3800    0.6788 C   0  0  0  0  0  0  0  0  0  0  0  0
    2.1666    2.4551   -1.1133 C   0  0  0  0  0  0  0  0  0  0  0  0
    5.0021    1.4179   -0.6230 H   0  0  0  0  0  0  0  0  0  0  0  0
    6.1165   -0.9742    0.4864 H   0  0  0  0  0  0  0  0  0  0  0  0
    5.0024   -2.3457    0.1433 H   0  0  0  0  0  0  0  0  0  0  0  0
    5.0083   -1.5889    1.7636 H   0  0  0  0  0  0  0  0  0  0  0  0
    2.9554    3.2014   -1.3172 H   0  0  0  0  0  0  0  0  0  0  0  0
    1.4184    2.8678   -0.4051 H   0  0  0  0  0  0  0  0  0  0  0  0
    1.6348    2.2242   -2.0586 H   0  0  0  0  0  0  0  0  0  0  0  0
  2  1  1  0  0  0  0
  3  1  1  0  0  0  0
  3  6  1  6  0  0  0
  4  3  1  0  0  0  0
  5  4  2  0  0  0  0
  5  2  1  0  0  0  0
  6 11  1  0  0  0  0
  7  5  1  0  0  0  0
  7 13  1  0  0  0  0
  8  4  1  0  0  0  0
  9  6  1  0  0  0  0
 10  6  1  0  0  0  0
 12  7  1  0  0  0  0
 14  7  1  0  0  0  0
M  END
