1
 OpenBabel05122313063D

 39 40  0  0  0  0  0  0  0  0999 V2000
   -2.0045    2.5035   -0.2642 N   0  0  0  0  0  0  0  0  0  0  0  0
   -1.2776    2.6444   -0.9929 H   0  0  0  0  0  0  0  0  0  0  0  0
   -2.8680    2.9636   -0.5858 H   0  0  0  0  0  0  0  0  0  0  0  0
    3.4692   -1.9828   -1.7412 Cl  0  0  0  0  0  0  0  0  0  0  0  0
    2.3412   -0.1677    0.4799 N   0  0  0  0  0  0  0  0  0  0  0  0
    1.7057    0.4656    0.9967 H   0  0  0  0  0  0  0  0  0  0  0  0
    1.3339    2.2818    1.3809 O   0  0  0  0  0  0  0  0  0  0  0  0
    0.5418    3.8565   -0.0468 N   0  0  0  0  0  0  0  0  0  0  0  0
    0.6653    4.3417   -0.9353 H   0  0  0  0  0  0  0  0  0  0  0  0
    0.4514   -0.8710    2.6776 Cl  0  0  0  0  0  0  0  0  0  0  0  0
   -1.5344    3.0540    1.0320 C   0  0  0  0  0  0  0  0  0  0  0  0
   -1.0036    2.2512    1.5740 H   0  0  0  0  0  0  0  0  0  0  0  0
   -2.4109    3.3433    1.6407 H   0  0  0  0  0  0  0  0  0  0  0  0
   -0.5635    4.2261    0.8317 C   0  0  0  0  0  0  0  0  0  0  0  0
   -0.1756    4.5277    1.8277 H   0  0  0  0  0  0  0  0  0  0  0  0
   -1.0709    5.1056    0.3861 H   0  0  0  0  0  0  0  0  0  0  0  0
    1.4026    2.8390    0.2791 C   0  0  0  0  0  0  0  0  0  0  0  0
    2.3377    2.3750   -0.8295 C   0  0  0  0  0  0  0  0  0  0  0  0
    1.7274    1.6270   -1.3927 H   0  0  0  0  0  0  0  0  0  0  0  0
    2.5572    3.2077   -1.5285 H   0  0  0  0  0  0  0  0  0  0  0  0
    3.6163    1.7236   -0.3649 C   0  0  0  0  0  0  0  0  0  0  0  0
    4.8584    2.3501   -0.5652 C   0  0  0  0  0  0  0  0  0  0  0  0
    4.8780    3.3515   -1.0244 H   0  0  0  0  0  0  0  0  0  0  0  0
    6.0629    1.7194   -0.2211 C   0  0  0  0  0  0  0  0  0  0  0  0
    7.0226    2.2272   -0.3970 H   0  0  0  0  0  0  0  0  0  0  0  0
    6.0291    0.4344    0.3424 C   0  0  0  0  0  0  0  0  0  0  0  0
    6.9646   -0.0745    0.6200 H   0  0  0  0  0  0  0  0  0  0  0  0
    4.8038   -0.2016    0.5697 C   0  0  0  0  0  0  0  0  0  0  0  0
    4.7723   -1.1986    1.0331 H   0  0  0  0  0  0  0  0  0  0  0  0
    3.5919    0.4304    0.2225 C   0  0  0  0  0  0  0  0  0  0  0  0
    2.0845   -1.5170    0.5837 C   0  0  0  0  0  0  0  0  0  0  0  0
    2.5798   -2.4939   -0.3326 C   0  0  0  0  0  0  0  0  0  0  0  0
    2.3149   -3.8622   -0.1784 C   0  0  0  0  0  0  0  0  0  0  0  0
    2.7357   -4.5620   -0.9135 H   0  0  0  0  0  0  0  0  0  0  0  0
    1.5011   -4.3126    0.8699 C   0  0  0  0  0  0  0  0  0  0  0  0
    1.2970   -5.3859    0.9909 H   0  0  0  0  0  0  0  0  0  0  0  0
    0.9320   -3.3816    1.7510 C   0  0  0  0  0  0  0  0  0  0  0  0
    0.2757   -3.7006    2.5725 H   0  0  0  0  0  0  0  0  0  0  0  0
    1.2143   -2.0189    1.5977 C   0  0  0  0  0  0  0  0  0  0  0  0
  1 11  1  0  0  0  0
  2  1  1  0  0  0  0
  3  1  1  0  0  0  0
  4 32  1  0  0  0  0
  5 31  1  0  0  0  0
  5  6  1  0  0  0  0
  8 17  1  0  0  0  0
  8 14  1  0  0  0  0
  9  8  1  0  0  0  0
 11 12  1  0  0  0  0
 11 13  1  0  0  0  0
 14 11  1  0  0  0  0
 14 15  1  0  0  0  0
 16 14  1  0  0  0  0
 17  7  2  0  0  0  0
 18 21  1  0  0  0  0
 18 17  1  0  0  0  0
 19 18  1  0  0  0  0
 20 18  1  0  0  0  0
 21 30  1  0  0  0  0
 22 21  2  0  0  0  0
 22 24  1  0  0  0  0
 23 22  1  0  0  0  0
 24 26  2  0  0  0  0
 25 24  1  0  0  0  0
 26 28  1  0  0  0  0
 26 27  1  0  0  0  0
 28 29  1  0  0  0  0
 30  5  1  0  0  0  0
 30 28  2  0  0  0  0
 31 39  1  0  0  0  0
 32 33  1  0  0  0  0
 32 31  2  0  0  0  0
 33 35  2  0  0  0  0
 34 33  1  0  0  0  0
 35 36  1  0  0  0  0
 35 37  1  0  0  0  0
 37 38  1  0  0  0  0
 39 37  2  0  0  0  0
 39 10  1  0  0  0  0
M  END
