2
 OpenBabel05122313063D

 26 26  0  0  0  0  0  0  0  0999 V2000
    6.1324   -1.7729   -0.0296 I   0  0  0  0  0  0  0  0  0  0  0  0
    1.7856    0.5011   -0.9214 N   0  0  0  0  0  0  0  0  0  0  0  0
    2.0339   -0.4219   -1.3212 H   0  0  0  0  0  0  0  0  0  0  0  0
    1.5743    1.1373   -1.7050 H   0  0  0  0  0  0  0  0  0  0  0  0
    2.9630    1.0286   -0.1454 C   0  0  0  0  0  0  0  0  0  0  0  0
    3.1124    0.2059    1.1379 C   0  0  0  0  0  0  0  0  0  0  0  0
    2.2455    0.3913    1.8027 H   0  0  0  0  0  0  0  0  0  0  0  0
    4.0380    0.5006    1.6697 H   0  0  0  0  0  0  0  0  0  0  0  0
    3.1502   -0.8792    0.9255 H   0  0  0  0  0  0  0  0  0  0  0  0
    2.7061    2.4985    0.1925 C   0  0  0  0  0  0  0  0  0  0  0  0
    2.6333    3.1220   -0.7234 H   0  0  0  0  0  0  0  0  0  0  0  0
    3.5292    2.8951    0.8163 H   0  0  0  0  0  0  0  0  0  0  0  0
    1.7507    2.6013    0.7420 H   0  0  0  0  0  0  0  0  0  0  0  0
    4.1974    0.8565   -1.0921 C   0  0  0  0  0  0  0  0  0  0  0  0
    4.2400   -0.2061   -1.4097 H   0  0  0  0  0  0  0  0  0  0  0  0
    4.0066    1.4624   -2.0039 H   0  0  0  0  0  0  0  0  0  0  0  0
    5.5371    1.2529   -0.5209 C   0  0  0  0  0  0  0  0  0  0  0  0
    6.4736    0.3347    0.0105 C   0  0  0  0  0  0  0  0  0  0  0  0
    7.6980    0.7584    0.5566 C   0  0  0  0  0  0  0  0  0  0  0  0
    8.4031    0.0180    0.9598 H   0  0  0  0  0  0  0  0  0  0  0  0
    8.0194    2.1223    0.5768 C   0  0  0  0  0  0  0  0  0  0  0  0
    8.9790    2.4477    1.0060 H   0  0  0  0  0  0  0  0  0  0  0  0
    7.1243    3.0558    0.0346 C   0  0  0  0  0  0  0  0  0  0  0  0
    7.3738    4.1272    0.0258 H   0  0  0  0  0  0  0  0  0  0  0  0
    5.9103    2.6175   -0.5066 C   0  0  0  0  0  0  0  0  0  0  0  0
    5.2180    3.3508   -0.9468 H   0  0  0  0  0  0  0  0  0  0  0  0
  1 18  1  0  0  0  0
  2  5  1  0  0  0  0
  3  2  1  0  0  0  0
  4  2  1  0  0  0  0
  5 10  1  0  0  0  0
  5  6  1  0  0  0  0
  6  8  1  0  0  0  0
  6  7  1  0  0  0  0
  9  6  1  0  0  0  0
 10 13  1  0  0  0  0
 10 12  1  0  0  0  0
 11 10  1  0  0  0  0
 14 17  1  0  0  0  0
 14  5  1  0  0  0  0
 15 14  1  0  0  0  0
 16 14  1  0  0  0  0
 17 25  2  0  0  0  0
 17 18  1  0  0  0  0
 18 19  2  0  0  0  0
 19 21  1  0  0  0  0
 19 20  1  0  0  0  0
 21 22  1  0  0  0  0
 23 21  2  0  0  0  0
 24 23  1  0  0  0  0
 25 23  1  0  0  0  0
 26 25  1  0  0  0  0
M  END
