1
 OpenBabel05122313063D

 29 30  0  0  0  0  0  0  0  0999 V2000
    1.6192    2.1735   -0.3145 N   0  0  0  0  0  2  0  0  0  0  0  0
    5.7796   -0.7305   -0.0344 N   0  0  0  0  0  0  0  0  0  0  0  0
    5.9122   -0.1930    0.8337 H   0  0  0  0  0  0  0  0  0  0  0  0
    6.8396   -1.5604   -0.2829 N   0  0  0  0  0  0  0  0  0  0  0  0
    6.8371   -1.9369   -1.2381 H   0  0  0  0  0  0  0  0  0  0  0  0
    4.9748   -1.1255   -2.1143 O   0  0  0  0  0  0  0  0  0  0  0  0
    7.7912   -0.8251    1.6288 O   0  0  0  0  0  0  0  0  0  0  0  0
    4.8654   -0.5376   -1.0307 C   0  0  0  0  0  0  0  0  0  0  0  0
    3.7487    0.4136   -0.7215 C   0  0  0  0  0  0  0  0  0  0  0  0
    3.4378    0.8824    0.5705 C   0  0  0  0  0  0  0  0  0  0  0  0
    3.9975    0.5598    1.4607 H   0  0  0  0  0  0  0  0  0  0  0  0
    2.3651    1.7653    0.7301 C   0  0  0  0  0  3  0  0  0  0  0  0
    2.0751    2.1916    1.7069 H   0  0  0  0  0  0  0  0  0  0  0  0
    1.9064    1.7373   -1.5571 C   0  0  0  0  0  0  0  0  0  0  0  0
    1.2645    2.1486   -2.3561 H   0  0  0  0  0  0  0  0  0  0  0  0
    2.9584    0.8510   -1.8010 C   0  0  0  0  0  0  0  0  0  0  0  0
    3.1867    0.4878   -2.8129 H   0  0  0  0  0  0  0  0  0  0  0  0
    7.8747   -1.5430    0.6238 C   0  0  0  0  0  0  0  0  0  0  0  0
    9.0434   -2.4162    0.3107 C   0  0  0  0  0  0  0  0  0  0  0  0
    9.0147   -3.4333   -0.6669 C   0  0  0  0  0  0  0  0  0  0  0  0
    8.0926   -3.6503   -1.2280 H   0  0  0  0  0  0  0  0  0  0  0  0
   10.1561   -4.2094   -0.9083 C   0  0  0  0  0  0  0  0  0  0  0  0
   10.1253   -5.0047   -1.6680 H   0  0  0  0  0  0  0  0  0  0  0  0
   11.3319   -3.9795   -0.1751 C   0  0  0  0  0  0  0  0  0  0  0  0
   12.2270   -4.5904   -0.3670 H   0  0  0  0  0  0  0  0  0  0  0  0
   11.3615   -2.9761    0.8078 C   0  0  0  0  0  0  0  0  0  0  0  0
   12.2801   -2.7990    1.3872 H   0  0  0  0  0  0  0  0  0  0  0  0
   10.2221   -2.2007    1.0532 C   0  0  0  0  0  0  0  0  0  0  0  0
   10.2131   -1.4127    1.8202 H   0  0  0  0  0  0  0  0  0  0  0  0
  1 12  1  0  0  0  0
  2  3  1  0  0  0  0
  4  2  1  0  0  0  0
  4 18  1  0  0  0  0
  5  4  1  0  0  0  0
  6  8  2  0  0  0  0
  8  9  1  0  0  0  0
  8  2  1  0  0  0  0
  9 10  2  0  0  0  0
 10 12  1  0  0  0  0
 10 11  1  0  0  0  0
 12 13  1  0  0  0  0
 14  1  1  0  0  0  0
 15 14  1  0  0  0  0
 16 14  2  0  0  0  0
 16  9  1  0  0  0  0
 17 16  1  0  0  0  0
 18  7  2  0  0  0  0
 19 18  1  0  0  0  0
 19 28  1  0  0  0  0
 20 19  2  0  0  0  0
 21 20  1  0  0  0  0
 22 20  1  0  0  0  0
 22 24  2  0  0  0  0
 23 22  1  0  0  0  0
 24 26  1  0  0  0  0
 25 24  1  0  0  0  0
 26 28  2  0  0  0  0
 26 27  1  0  0  0  0
 28 29  1  0  0  0  0
M  END
