4
 OpenBabel05122313063D

 19 20  0  0  1  0  0  0  0  0999 V2000
    0.5383   -2.7191    0.9162 O   0  5  0  0  0  0  0  0  0  0  0  0
    1.1106   -2.9347   -1.2679 O   0  0  0  0  0  0  0  0  0  0  0  0
    4.0576   -3.2513    0.1641 O   0  0  0  0  0  0  0  0  0  0  0  0
    2.1337   -0.2212   -0.0276 N   0  0  0  0  0  2  0  0  0  0  0  0
    4.7678   -1.0668    0.0312 N   0  0  0  0  0  0  0  0  0  0  0  0
    5.7360   -1.4034    0.0602 H   0  0  0  0  0  0  0  0  0  0  0  0
    2.4093   -1.5099    0.0205 C   0  0  2  0  0  3  0  0  0  0  0  0
    3.7913   -2.0594    0.0756 C   0  0  0  0  0  0  0  0  0  0  0  0
    4.5209    0.2920   -0.0271 C   0  0  0  0  0  0  0  0  0  0  0  0
    5.5634    1.2403   -0.0549 C   0  0  0  0  0  0  0  0  0  0  0  0
    6.6085    0.8952   -0.0405 H   0  0  0  0  0  0  0  0  0  0  0  0
    5.2570    2.6022   -0.0971 C   0  0  0  0  0  0  0  0  0  0  0  0
    6.0743    3.3384   -0.1183 H   0  0  0  0  0  0  0  0  0  0  0  0
    3.9150    3.0362   -0.1099 C   0  0  0  0  0  0  0  0  0  0  0  0
    3.6825    4.1104   -0.1389 H   0  0  0  0  0  0  0  0  0  0  0  0
    2.8723    2.1089   -0.0872 C   0  0  0  0  0  0  0  0  0  0  0  0
    1.8200    2.4406   -0.0925 H   0  0  0  0  0  0  0  0  0  0  0  0
    3.1605    0.7250   -0.0495 C   0  0  0  0  0  0  0  0  0  0  0  0
    1.2665   -2.5099   -0.0950 C   0  0  0  0  0  0  0  0  0  0  0  0
  2 19  2  0  0  0  0
  4  7  1  0  0  0  0
  5  6  1  0  0  0  0
  5  8  1  0  0  0  0
  7 19  1  6  0  0  0
  7  8  1  0  0  0  0
  8  3  2  0  0  0  0
  9  5  1  0  0  0  0
 10 11  1  0  0  0  0
 10  9  2  0  0  0  0
 12 10  1  0  0  0  0
 13 12  1  0  0  0  0
 14 12  2  0  0  0  0
 14 16  1  0  0  0  0
 15 14  1  0  0  0  0
 16 18  2  0  0  0  0
 17 16  1  0  0  0  0
 18  4  1  0  0  0  0
 18  9  1  0  0  0  0
 19  1  1  0  0  0  0
M  CHG  1   1  -1
M  END
