2
 OpenBabel05122313063D

 15 15  0  0  0  0  0  0  0  0999 V2000
    0.7237    0.4598    0.8415 S   0  0  0  0  0  1  0  0  0  0  0  0
   -0.6497    1.4331   -1.5090 N   0  0  0  0  0  2  0  0  0  0  0  0
   -1.0574    1.4980   -2.4439 H   0  0  0  0  0  0  0  0  0  0  0  0
    1.2952    1.8202   -0.1525 C   0  0  0  0  0  0  0  0  0  0  0  0
    2.6504    1.8586    2.3099 O   0  0  0  0  0  0  0  0  0  0  0  0
    0.5276    2.0639   -1.3417 C   0  0  0  0  0  0  0  0  0  0  0  0
    1.0590    3.0078   -2.2811 C   0  0  0  0  0  0  0  0  0  0  0  0
    0.5172    3.1696   -3.2258 H   0  0  0  0  0  0  0  0  0  0  0  0
    3.2176    2.4264    1.3722 N   0  0  0  0  0  0  0  0  0  0  0  0
    2.4571    2.5815    0.1088 C   0  0  0  0  0  0  0  0  0  0  0  0
    2.2226    3.7150   -2.0077 C   0  0  0  0  0  0  0  0  0  0  0  0
    2.5985    4.4422   -2.7431 H   0  0  0  0  0  0  0  0  0  0  0  0
    2.9305    3.5268   -0.8011 C   0  0  0  0  0  0  0  0  0  0  0  0
    3.8399    4.0873   -0.5544 H   0  0  0  0  0  0  0  0  0  0  0  0
    4.3567    2.8853    1.4160 O   0  0  0  0  0  0  0  0  0  0  0  0
  2  6  1  0  0  0  0
  3  2  1  0  0  0  0
  4 10  1  0  0  0  0
  4  1  1  0  0  0  0
  6  4  2  0  0  0  0
  7 11  2  0  0  0  0
  7  6  1  0  0  0  0
  8  7  1  0  0  0  0
  9 15  2  0  0  0  0
  9  5  2  0  0  0  0
 10  9  1  0  0  0  0
 11 13  1  0  0  0  0
 12 11  1  0  0  0  0
 13 14  1  0  0  0  0
 13 10  2  0  0  0  0
M  END
