1
 OpenBabel05122313063D

 28 29  0  0  0  0  0  0  0  0999 V2000
   -1.1133   -1.7038   -0.2208 N   0  0  0  0  0  2  0  0  0  0  0  0
   -0.6412   -2.8749   -0.1836 N   0  0  0  0  0  2  0  0  0  0  0  0
    0.7448   -3.0518   -0.2949 C   0  0  0  0  0  0  0  0  0  0  0  0
    1.5285   -2.3531   -1.2452 C   0  0  0  0  0  0  0  0  0  0  0  0
    2.9003   -2.6205   -1.3281 C   0  0  0  0  0  0  0  0  0  0  0  0
    3.5002   -3.5557   -0.4670 C   0  0  0  0  0  0  0  0  0  0  0  0
    2.7143   -4.2588    0.4634 C   0  0  0  0  0  0  0  0  0  0  0  0
    1.3355   -4.0311    0.5331 C   0  0  0  0  0  0  0  0  0  0  0  0
    0.6989   -4.5722    1.2473 H   0  0  0  0  0  0  0  0  0  0  0  0
    3.1787   -4.9982    1.1329 H   0  0  0  0  0  0  0  0  0  0  0  0
    4.5813   -3.7529   -0.5340 H   0  0  0  0  0  0  0  0  0  0  0  0
    3.5067   -2.0847   -2.0738 H   0  0  0  0  0  0  0  0  0  0  0  0
    1.0521   -1.6298   -1.9250 H   0  0  0  0  0  0  0  0  0  0  0  0
   -2.5263   -1.5799   -0.1704 C   0  0  0  0  0  0  0  0  0  0  0  0
   -3.3482   -2.6654    0.2215 C   0  0  0  0  0  0  0  0  0  0  0  0
   -4.7246   -2.5014    0.2901 C   0  0  0  0  0  0  0  0  0  0  0  0
   -5.3170   -1.2561   -0.0440 C   0  0  0  0  0  0  0  0  0  0  0  0
   -6.6649   -1.1982    0.0604 O   0  0  0  0  0  0  0  0  0  0  0  0
   -7.3185    0.0227   -0.2467 C   0  0  0  0  0  0  0  0  0  0  0  0
   -8.3978   -0.1531   -0.0862 H   0  0  0  0  0  0  0  0  0  0  0  0
   -6.9805    0.8477    0.4187 H   0  0  0  0  0  0  0  0  0  0  0  0
   -7.1513    0.3233   -1.3044 H   0  0  0  0  0  0  0  0  0  0  0  0
   -4.4989   -0.1797   -0.4499 C   0  0  0  0  0  0  0  0  0  0  0  0
   -3.1120   -0.3437   -0.5049 C   0  0  0  0  0  0  0  0  0  0  0  0
   -2.4672    0.4789   -0.8469 H   0  0  0  0  0  0  0  0  0  0  0  0
   -4.9259    0.7937   -0.7233 H   0  0  0  0  0  0  0  0  0  0  0  0
   -5.3838   -3.3202    0.6122 H   0  0  0  0  0  0  0  0  0  0  0  0
   -2.8723   -3.6198    0.4829 H   0  0  0  0  0  0  0  0  0  0  0  0
  1  2  1  0  0  0  0
  1 14  1  0  0  0  0
  3  2  1  0  0  0  0
  3  8  1  0  0  0  0
  4  3  2  0  0  0  0
  5  4  1  0  0  0  0
  5  6  2  0  0  0  0
  6  7  1  0  0  0  0
  7  8  2  0  0  0  0
  7 10  1  0  0  0  0
  8  9  1  0  0  0  0
 11  6  1  0  0  0  0
 12  5  1  0  0  0  0
 13  4  1  0  0  0  0
 14 15  1  0  0  0  0
 15 16  2  0  0  0  0
 15 28  1  0  0  0  0
 16 27  1  0  0  0  0
 17 18  1  0  0  0  0
 17 16  1  0  0  0  0
 19 20  1  0  0  0  0
 19 18  1  0  0  0  0
 19 21  1  0  0  0  0
 22 19  1  0  0  0  0
 23 17  2  0  0  0  0
 24 23  1  0  0  0  0
 24 14  2  0  0  0  0
 25 24  1  0  0  0  0
 26 23  1  0  0  0  0
M  END
