3
 OpenBabel05122313063D

 18 18  0  0  0  0  0  0  0  0999 V2000
    1.6377   -1.7304   -1.6967 O   0  0  0  0  0  0  0  0  0  0  0  0
    1.0928   -1.9547    0.5520 N   0  0  0  0  0  0  0  0  0  0  0  0
   -0.0079   -1.0836    0.3776 N   0  0  0  0  0  2  0  0  0  0  0  0
   -2.3106    0.5767    0.2706 N   0  0  0  0  0  0  0  0  0  0  0  0
    2.0133   -1.7563   -0.5205 C   0  0  0  0  0  0  0  0  0  0  0  0
    3.3128   -1.6784   -0.1100 N   0  0  0  0  0  0  0  0  0  0  0  0
   -1.1961   -1.6193    0.3057 C   0  0  0  0  0  3  0  0  0  0  0  0
   -2.3452   -0.7609    0.2147 C   0  0  0  0  0  0  0  0  0  0  0  0
   -3.6428   -1.2076    0.0616 N   0  0  0  0  0  0  0  0  0  0  0  0
   -3.6011    0.9917    0.1527 C   0  0  0  0  0  0  0  0  0  0  0  0
   -4.4573   -0.1040    0.0179 C   0  0  0  0  0  0  0  0  0  0  0  0
    1.5143   -1.6423    1.4500 H   0  0  0  0  0  0  0  0  0  0  0  0
   -1.2907   -2.7185    0.3267 H   0  0  0  0  0  0  0  0  0  0  0  0
   -3.8698    2.0552    0.1680 H   0  0  0  0  0  0  0  0  0  0  0  0
   -5.5428   -0.1827   -0.1026 H   0  0  0  0  0  0  0  0  0  0  0  0
    3.4769   -1.1686    0.7665 H   0  0  0  0  0  0  0  0  0  0  0  0
    3.9811   -1.4838   -0.8580 H   0  0  0  0  0  0  0  0  0  0  0  0
   -3.9455   -2.1798   -0.0157 H   0  0  0  0  0  0  0  0  0  0  0  0
  1  5  2  0  0  0  0
  2 12  1  0  0  0  0
  3  2  1  0  0  0  0
  5  6  1  0  0  0  0
  5  2  1  0  0  0  0
  6 16  1  0  0  0  0
  7 13  1  0  0  0  0
  7  3  1  0  0  0  0
  8  4  2  0  0  0  0
  8  7  1  0  0  0  0
  9  8  1  0  0  0  0
 10 14  1  0  0  0  0
 10  4  1  0  0  0  0
 11  9  1  0  0  0  0
 11 10  2  0  0  0  0
 15 11  1  0  0  0  0
 17  6  1  0  0  0  0
 18  9  1  0  0  0  0
M  END
