1
 OpenBabel05122313063D

 24 25  0  0  1  0  0  0  0  0999 V2000
   -1.6395   -1.0605   -1.4821 N   0  0  0  0  0  2  0  0  0  0  0  0
   -2.6852    0.6598   -2.4202 N   0  0  0  0  0  0  0  0  0  0  0  0
   -2.8293    1.6059   -2.7772 H   0  0  0  0  0  0  0  0  0  0  0  0
   -0.3855    1.0087   -1.8658 N   0  0  0  0  0  2  0  0  0  0  0  0
    0.6260    0.4234   -1.3587 N   0  0  0  0  0  2  0  0  0  0  0  0
    1.7923    1.1821   -1.2176 C   0  0  0  0  0  0  0  0  0  0  0  0
    2.9962    0.4509   -1.0946 C   0  0  0  0  0  0  0  0  0  0  0  0
    2.9459   -0.6503   -1.1696 H   0  0  0  0  0  0  0  0  0  0  0  0
    4.1983    1.1374   -0.8998 C   0  0  0  0  0  0  0  0  0  0  0  0
    5.1365    0.5666   -0.8142 H   0  0  0  0  0  0  0  0  0  0  0  0
    4.2331    2.5453   -0.7980 C   0  0  0  0  0  0  0  0  0  0  0  0
    3.0137    3.2574   -0.9102 C   0  0  0  0  0  0  0  0  0  0  0  0
    3.0230    4.3555   -0.8176 H   0  0  0  0  0  0  0  0  0  0  0  0
    1.8059    2.5946   -1.1288 C   0  0  0  0  0  0  0  0  0  0  0  0
    0.8529    3.1372   -1.2074 H   0  0  0  0  0  0  0  0  0  0  0  0
    5.5349    3.2775   -0.6023 C   0  0  0  0  0  0  0  0  0  0  0  0
    5.4046    4.1956    0.0047 H   0  0  0  0  0  0  0  0  0  0  0  0
    5.9571    3.5961   -1.5803 H   0  0  0  0  0  0  0  0  0  0  0  0
    6.2968    2.6384   -0.1144 H   0  0  0  0  0  0  0  0  0  0  0  0
   -1.4998    0.1994   -1.9065 C   0  0  1  0  0  3  0  0  0  0  0  0
   -3.6111   -0.3474   -2.3059 C   0  0  0  0  0  0  0  0  0  0  0  0
   -4.6481   -0.2323   -2.6357 H   0  0  0  0  0  0  0  0  0  0  0  0
   -2.9341   -1.4151   -1.7121 C   0  0  0  0  0  0  0  0  0  0  0  0
   -3.3122   -2.3938   -1.3927 H   0  0  0  0  0  0  0  0  0  0  0  0
  2 21  1  0  0  0  0
  2 20  1  0  0  0  0
  3  2  1  0  0  0  0
  4  5  1  0  0  0  0
  5  6  1  0  0  0  0
  6 14  2  0  0  0  0
  6  7  1  0  0  0  0
  7  9  2  0  0  0  0
  8  7  1  0  0  0  0
  9 10  1  0  0  0  0
  9 11  1  0  0  0  0
 11 16  1  0  0  0  0
 12 13  1  0  0  0  0
 12 11  2  0  0  0  0
 14 12  1  0  0  0  0
 15 14  1  0  0  0  0
 16 19  1  0  0  0  0
 16 17  1  0  0  0  0
 18 16  1  0  0  0  0
 20  4  1  1  0  0  0
 20  1  1  0  0  0  0
 21 23  2  0  0  0  0
 22 21  1  0  0  0  0
 23  1  1  0  0  0  0
 23 24  1  0  0  0  0
M  END
