3
 OpenBabel05122313063D

 29 30  0  0  0  0  0  0  0  0999 V2000
   -7.5912   -4.5133    0.3620 Br  0  0  0  0  0  0  0  0  0  0  0  0
   -3.2229    0.2665    0.6698 S   0  0  0  0  0  0  0  0  0  0  0  0
   -2.0631   -0.1981   -0.4786 N   0  0  0  0  0  2  0  0  0  0  0  0
   -2.5574    0.1370    1.9835 O   0  0  0  0  0  0  0  0  0  0  0  0
   -3.9120    1.5281    0.3041 O   0  0  0  0  0  0  0  0  0  0  0  0
   -4.4458   -1.0536    0.5692 C   0  0  0  0  0  0  0  0  0  0  0  0
   -5.5646   -0.9110   -0.2633 C   0  0  0  0  0  0  0  0  0  0  0  0
   -5.6719   -0.0006   -0.8681 H   0  0  0  0  0  0  0  0  0  0  0  0
   -6.5059   -1.9476   -0.3268 C   0  0  0  0  0  0  0  0  0  0  0  0
   -7.3889   -1.8613   -0.9755 H   0  0  0  0  0  0  0  0  0  0  0  0
   -6.3074   -3.1029    0.4464 C   0  0  0  0  0  0  0  0  0  0  0  0
   -5.1875   -3.2448    1.2823 C   0  0  0  0  0  0  0  0  0  0  0  0
   -5.0535   -4.1573    1.8800 H   0  0  0  0  0  0  0  0  0  0  0  0
   -4.2490   -2.2059    1.3445 C   0  0  0  0  0  0  0  0  0  0  0  0
   -3.3649   -2.2745    1.9951 H   0  0  0  0  0  0  0  0  0  0  0  0
    0.8283    5.7402   -2.8375 Br  0  0  0  0  0  0  0  0  0  0  0  0
   -2.3102    0.1100   -2.1285 S   0  0  0  0  0  0  0  0  0  0  0  0
   -1.5499   -0.9083   -2.8821 O   0  0  0  0  0  0  0  0  0  0  0  0
   -3.7533    0.3106   -2.3959 O   0  0  0  0  0  0  0  0  0  0  0  0
   -1.4671    1.6898   -2.3785 C   0  0  0  0  0  0  0  0  0  0  0  0
   -2.0568    2.8677   -1.8931 C   0  0  0  0  0  0  0  0  0  0  0  0
   -3.0179    2.8155   -1.3597 H   0  0  0  0  0  0  0  0  0  0  0  0
   -1.3749    4.0818   -2.0437 C   0  0  0  0  0  0  0  0  0  0  0  0
   -1.8054    5.0160   -1.6567 H   0  0  0  0  0  0  0  0  0  0  0  0
   -0.1225    4.0890   -2.6812 C   0  0  0  0  0  0  0  0  0  0  0  0
    0.4654    2.9122   -3.1680 C   0  0  0  0  0  0  0  0  0  0  0  0
    1.4589    2.9320   -3.6365 H   0  0  0  0  0  0  0  0  0  0  0  0
   -0.2172    1.6973   -3.0101 C   0  0  0  0  0  0  0  0  0  0  0  0
    0.2264    0.7505   -3.3478 H   0  0  0  0  0  0  0  0  0  0  0  0
  1 11  1  0  0  0  0
  2  4  2  0  0  0  0
  3  2  1  0  0  0  0
  5  2  2  0  0  0  0
  6  2  1  0  0  0  0
  6 14  1  0  0  0  0
  7  6  2  0  0  0  0
  8  7  1  0  0  0  0
  9  7  1  0  0  0  0
  9 11  2  0  0  0  0
 10  9  1  0  0  0  0
 11 12  1  0  0  0  0
 12 14  2  0  0  0  0
 12 13  1  0  0  0  0
 14 15  1  0  0  0  0
 16 25  1  0  0  0  0
 17  3  1  0  0  0  0
 18 17  2  0  0  0  0
 19 17  2  0  0  0  0
 20 17  1  0  0  0  0
 20 21  1  0  0  0  0
 21 22  1  0  0  0  0
 23 21  2  0  0  0  0
 23 24  1  0  0  0  0
 25 23  1  0  0  0  0
 26 28  1  0  0  0  0
 26 25  2  0  0  0  0
 27 26  1  0  0  0  0
 28 20  2  0  0  0  0
 29 28  1  0  0  0  0
M  END
