1
 OpenBabel05122313063D

 63 64  0  0  0  0  0  0  0  0999 V2000
   -4.5544    0.1434   -0.1315 N   0  0  0  0  0  2  0  0  0  0  0  0
   -4.0138    2.2250   -0.7603 N   0  0  0  0  0  0  0  0  0  0  0  0
   -4.0792    0.9067   -1.1151 C   0  0  0  0  0  3  0  0  0  0  0  0
   -3.7740    0.5398   -2.1016 H   0  0  0  0  0  0  0  0  0  0  0  0
   -4.8137    0.9971    0.9404 C   0  0  0  0  0  0  0  0  0  0  0  0
   -5.3266    0.7309    2.2212 C   0  0  0  0  0  0  0  0  0  0  0  0
   -5.5916   -0.2970    2.5079 H   0  0  0  0  0  0  0  0  0  0  0  0
   -5.4780    1.8173    3.0886 C   0  0  0  0  0  0  0  0  0  0  0  0
   -5.8752    1.6480    4.1002 H   0  0  0  0  0  0  0  0  0  0  0  0
   -5.1324    3.1347    2.6960 C   0  0  0  0  0  0  0  0  0  0  0  0
   -5.2688    3.9603    3.4101 H   0  0  0  0  0  0  0  0  0  0  0  0
   -4.6217    3.4133    1.4225 C   0  0  0  0  0  0  0  0  0  0  0  0
   -4.3560    4.4372    1.1241 H   0  0  0  0  0  0  0  0  0  0  0  0
   -4.4684    2.3209    0.5523 C   0  0  0  0  0  0  0  0  0  0  0  0
   -3.4473    3.3063   -1.5606 C   0  0  0  0  0  0  0  0  0  0  0  0
   -4.1272    4.1793   -1.4820 H   0  0  0  0  0  0  0  0  0  0  0  0
   -3.4669    2.9741   -2.6183 H   0  0  0  0  0  0  0  0  0  0  0  0
   -2.0217    3.6834   -1.1401 C   0  0  0  0  0  0  0  0  0  0  0  0
   -2.0340    4.0501   -0.0908 H   0  0  0  0  0  0  0  0  0  0  0  0
   -1.7097    4.5496   -1.7629 H   0  0  0  0  0  0  0  0  0  0  0  0
   -1.0076    2.5462   -1.2787 C   0  0  0  0  0  0  0  0  0  0  0  0
   -1.3306    1.6804   -0.6588 H   0  0  0  0  0  0  0  0  0  0  0  0
   -1.0032    2.1805   -2.3310 H   0  0  0  0  0  0  0  0  0  0  0  0
    0.4135    2.9450   -0.8721 C   0  0  0  0  0  0  0  0  0  0  0  0
    0.4026    3.3145    0.1781 H   0  0  0  0  0  0  0  0  0  0  0  0
    0.7465    3.8096   -1.4898 H   0  0  0  0  0  0  0  0  0  0  0  0
    1.4298    1.8073   -0.9986 C   0  0  0  0  0  0  0  0  0  0  0  0
    1.0915    0.9428   -0.3840 H   0  0  0  0  0  0  0  0  0  0  0  0
    1.4409    1.4387   -2.0493 H   0  0  0  0  0  0  0  0  0  0  0  0
    2.8502    2.1993   -0.5841 C   0  0  0  0  0  0  0  0  0  0  0  0
    3.1876    3.0652   -1.1981 H   0  0  0  0  0  0  0  0  0  0  0  0
    2.8379    2.5672    0.4670 H   0  0  0  0  0  0  0  0  0  0  0  0
    3.8673    1.0622   -0.7102 C   0  0  0  0  0  0  0  0  0  0  0  0
    3.5282    0.1962   -0.0979 H   0  0  0  0  0  0  0  0  0  0  0  0
    3.8802    0.6950   -1.7615 H   0  0  0  0  0  0  0  0  0  0  0  0
    5.2875    1.4522   -0.2927 C   0  0  0  0  0  0  0  0  0  0  0  0
    5.6262    2.3191   -0.9047 H   0  0  0  0  0  0  0  0  0  0  0  0
    5.2740    1.8188    0.7589 H   0  0  0  0  0  0  0  0  0  0  0  0
    6.3053    0.3157   -0.4188 C   0  0  0  0  0  0  0  0  0  0  0  0
    6.3193   -0.0506   -1.4704 H   0  0  0  0  0  0  0  0  0  0  0  0
    5.9659   -0.5512    0.1923 H   0  0  0  0  0  0  0  0  0  0  0  0
    7.7252    0.7050    0.0003 C   0  0  0  0  0  0  0  0  0  0  0  0
    8.0644    1.5724   -0.6106 H   0  0  0  0  0  0  0  0  0  0  0  0
    7.7108    1.0709    1.0521 H   0  0  0  0  0  0  0  0  0  0  0  0
    8.7434   -0.4311   -0.1258 C   0  0  0  0  0  0  0  0  0  0  0  0
    8.7582   -0.7968   -1.1777 H   0  0  0  0  0  0  0  0  0  0  0  0
    8.4039   -1.2986    0.4846 H   0  0  0  0  0  0  0  0  0  0  0  0
   10.1631   -0.0419    0.2943 C   0  0  0  0  0  0  0  0  0  0  0  0
   10.5024    0.8259   -0.3159 H   0  0  0  0  0  0  0  0  0  0  0  0
   10.1480    0.3235    1.3463 H   0  0  0  0  0  0  0  0  0  0  0  0
   11.1817   -1.1778    0.1682 C   0  0  0  0  0  0  0  0  0  0  0  0
   10.8418   -2.0455    0.7781 H   0  0  0  0  0  0  0  0  0  0  0  0
   11.1967   -1.5429   -0.8839 H   0  0  0  0  0  0  0  0  0  0  0  0
   12.6012   -0.7891    0.5888 C   0  0  0  0  0  0  0  0  0  0  0  0
   12.5863   -0.4240    1.6412 H   0  0  0  0  0  0  0  0  0  0  0  0
   12.9412    0.0791   -0.0209 H   0  0  0  0  0  0  0  0  0  0  0  0
   13.6210   -1.9250    0.4628 C   0  0  0  0  0  0  0  0  0  0  0  0
   13.2777   -2.7910    1.0718 H   0  0  0  0  0  0  0  0  0  0  0  0
   13.6327   -2.2880   -0.5893 H   0  0  0  0  0  0  0  0  0  0  0  0
   15.0353   -1.5262    0.8857 C   0  0  0  0  0  0  0  0  0  0  0  0
   15.7495   -2.3680    0.7831 H   0  0  0  0  0  0  0  0  0  0  0  0
   15.0606   -1.1936    1.9447 H   0  0  0  0  0  0  0  0  0  0  0  0
   15.4184   -0.6859    0.2694 H   0  0  0  0  0  0  0  0  0  0  0  0
  1  5  1  0  0  0  0
  2 14  1  0  0  0  0
  3  2  1  0  0  0  0
  3  1  1  0  0  0  0
  4  3  1  0  0  0  0
  5  6  1  0  0  0  0
  6  7  1  0  0  0  0
  6  8  2  0  0  0  0
  8  9  1  0  0  0  0
 10  8  1  0  0  0  0
 10 11  1  0  0  0  0
 12 10  2  0  0  0  0
 13 12  1  0  0  0  0
 14  5  2  0  0  0  0
 14 12  1  0  0  0  0
 15 16  1  0  0  0  0
 15 18  1  0  0  0  0
 15  2  1  0  0  0  0
 17 15  1  0  0  0  0
 18 19  1  0  0  0  0
 20 18  1  0  0  0  0
 21 18  1  0  0  0  0
 21 24  1  0  0  0  0
 21 22  1  0  0  0  0
 23 21  1  0  0  0  0
 24 25  1  0  0  0  0
 26 24  1  0  0  0  0
 27 24  1  0  0  0  0
 27 30  1  0  0  0  0
 27 28  1  0  0  0  0
 29 27  1  0  0  0  0
 30 32  1  0  0  0  0
 31 30  1  0  0  0  0
 33 30  1  0  0  0  0
 33 36  1  0  0  0  0
 33 34  1  0  0  0  0
 35 33  1  0  0  0  0
 36 38  1  0  0  0  0
 37 36  1  0  0  0  0
 39 36  1  0  0  0  0
 39 42  1  0  0  0  0
 39 41  1  0  0  0  0
 40 39  1  0  0  0  0
 42 44  1  0  0  0  0
 43 42  1  0  0  0  0
 45 42  1  0  0  0  0
 45 48  1  0  0  0  0
 45 47  1  0  0  0  0
 46 45  1  0  0  0  0
 48 50  1  0  0  0  0
 49 48  1  0  0  0  0
 51 48  1  0  0  0  0
 51 54  1  0  0  0  0
 51 52  1  0  0  0  0
 53 51  1  0  0  0  0
 54 55  1  0  0  0  0
 56 54  1  0  0  0  0
 57 54  1  0  0  0  0
 57 60  1  0  0  0  0
 57 58  1  0  0  0  0
 59 57  1  0  0  0  0
 60 62  1  0  0  0  0
 61 60  1  0  0  0  0
 63 60  1  0  0  0  0
M  END
