3
 OpenBabel05122313063D

 47 50  0  0  1  0  0  0  0  0999 V2000
    0.1608    0.7861   -0.2656 P   0  0  1  0  0  0  0  0  0  0  0  0
   -2.6791   -0.0545    0.9580 P   0  0  1  0  0  0  0  0  0  0  0  0
    0.9687    0.3256    1.0996 N   0  0  0  0  0  2  0  0  0  0  0  0
   -1.6854    0.4705   -0.5560 C   0  0  1  0  0  0  0  0  0  0  0  0
   -3.6265    1.5756    0.9210 C   0  0  0  0  0  0  0  0  0  0  0  0
   -4.6185    1.4520    1.3984 H   0  0  0  0  0  0  0  0  0  0  0  0
   -3.0448    2.3038    1.5251 H   0  0  0  0  0  0  0  0  0  0  0  0
   -3.6976    1.9977   -0.5463 C   0  0  0  0  0  0  0  0  0  0  0  0
   -4.0287    3.0510   -0.6632 H   0  0  0  0  0  0  0  0  0  0  0  0
   -4.4414    1.3676   -1.0756 H   0  0  0  0  0  0  0  0  0  0  0  0
   -2.3001    1.7716   -1.1701 C   0  0  1  0  0  0  0  0  0  0  0  0
   -1.3273    2.9268   -0.9556 C   0  0  0  0  0  0  0  0  0  0  0  0
   -1.6300    4.2780   -1.2013 C   0  0  0  0  0  0  0  0  0  0  0  0
   -2.6315    4.5642   -1.5591 H   0  0  0  0  0  0  0  0  0  0  0  0
   -0.6576    5.2679   -0.9900 C   0  0  0  0  0  0  0  0  0  0  0  0
   -0.9037    6.3235   -1.1802 H   0  0  0  0  0  0  0  0  0  0  0  0
    0.6264    4.9190   -0.5329 C   0  0  0  0  0  0  0  0  0  0  0  0
    1.3819    5.7006   -0.3621 H   0  0  0  0  0  0  0  0  0  0  0  0
    0.9423    3.5750   -0.2919 C   0  0  0  0  0  0  0  0  0  0  0  0
    1.9384    3.2935    0.0816 H   0  0  0  0  0  0  0  0  0  0  0  0
   -0.0359    2.5857   -0.5030 C   0  0  0  0  0  0  0  0  0  0  0  0
   -3.9690   -1.1643    0.2091 C   0  0  0  0  0  0  0  0  0  0  0  0
   -4.8161   -1.8134    1.1362 C   0  0  0  0  0  0  0  0  0  0  0  0
   -4.6647   -1.6433    2.2150 H   0  0  0  0  0  0  0  0  0  0  0  0
   -5.8339   -2.6752    0.7040 C   0  0  0  0  0  0  0  0  0  0  0  0
   -6.4845   -3.1671    1.4432 H   0  0  0  0  0  0  0  0  0  0  0  0
   -6.0093   -2.9247   -0.6668 C   0  0  0  0  0  0  0  0  0  0  0  0
   -6.7991   -3.6105   -1.0086 H   0  0  0  0  0  0  0  0  0  0  0  0
   -5.1644   -2.3019   -1.5976 C   0  0  0  0  0  0  0  0  0  0  0  0
   -5.2915   -2.4954   -2.6739 H   0  0  0  0  0  0  0  0  0  0  0  0
   -4.1557   -1.4265   -1.1642 C   0  0  0  0  0  0  0  0  0  0  0  0
   -3.5121   -0.9465   -1.9170 H   0  0  0  0  0  0  0  0  0  0  0  0
    2.2267    1.3215    2.9534 C   0  0  0  0  0  0  0  0  0  0  0  0
    3.0419    0.5940    2.7800 H   0  0  0  0  0  0  0  0  0  0  0  0
    2.2109    1.5893    4.0298 H   0  0  0  0  0  0  0  0  0  0  0  0
    2.4393    2.2440    2.3745 H   0  0  0  0  0  0  0  0  0  0  0  0
    0.8705    0.7254    2.5275 C   0  0  0  0  0  0  0  0  0  0  0  0
    0.5413   -0.5269    3.3616 C   0  0  0  0  0  0  0  0  0  0  0  0
   -0.4392   -0.9394    3.0488 H   0  0  0  0  0  0  0  0  0  0  0  0
    0.4867   -0.2743    4.4407 H   0  0  0  0  0  0  0  0  0  0  0  0
    1.3221   -1.2970    3.2160 H   0  0  0  0  0  0  0  0  0  0  0  0
   -0.2237    1.7813    2.7541 C   0  0  0  0  0  0  0  0  0  0  0  0
   -0.0349    2.7082    2.1792 H   0  0  0  0  0  0  0  0  0  0  0  0
   -0.2699    2.0482    3.8289 H   0  0  0  0  0  0  0  0  0  0  0  0
   -1.2171    1.3774    2.4738 H   0  0  0  0  0  0  0  0  0  0  0  0
   -2.4126    1.6348   -2.2684 H   0  0  0  0  0  0  0  0  0  0  0  0
   -1.7164   -0.3697   -1.2737 H   0  0  0  0  0  0  0  0  0  0  0  0
  1  3  1  1  0  0  0
  2 22  1  6  0  0  0
  3 37  1  0  0  0  0
  4 47  1  6  0  0  0
  4  1  1  0  0  0  0
  4  2  1  0  0  0  0
  5  2  1  0  0  0  0
  5  6  1  0  0  0  0
  5  7  1  0  0  0  0
  8  5  1  0  0  0  0
  9  8  1  0  0  0  0
 10  8  1  0  0  0  0
 11 46  1  6  0  0  0
 11 12  1  0  0  0  0
 11  4  1  0  0  0  0
 11  8  1  0  0  0  0
 12 21  1  0  0  0  0
 13 15  1  0  0  0  0
 13 12  2  0  0  0  0
 14 13  1  0  0  0  0
 15 17  2  0  0  0  0
 16 15  1  0  0  0  0
 17 18  1  0  0  0  0
 17 19  1  0  0  0  0
 19 20  1  0  0  0  0
 21 19  2  0  0  0  0
 21  1  1  0  0  0  0
 22 23  1  0  0  0  0
 23 24  1  0  0  0  0
 25 23  2  0  0  0  0
 25 26  1  0  0  0  0
 27 25  1  0  0  0  0
 28 27  1  0  0  0  0
 29 31  1  0  0  0  0
 29 27  2  0  0  0  0
 30 29  1  0  0  0  0
 31 22  2  0  0  0  0
 32 31  1  0  0  0  0
 33 35  1  0  0  0  0
 34 33  1  0  0  0  0
 36 33  1  0  0  0  0
 37 42  1  0  0  0  0
 37 33  1  0  0  0  0
 37 38  1  0  0  0  0
 38 40  1  0  0  0  0
 39 38  1  0  0  0  0
 41 38  1  0  0  0  0
 42 44  1  0  0  0  0
 43 42  1  0  0  0  0
 45 42  1  0  0  0  0
M  END
