8
 OpenBabel05122313063D

 58 61  0  0  1  0  0  0  0  0999 V2000
    0.5278    0.0098    2.4127 N   0  3  2  0  0  0  0  0  0  0  0  0
   -0.9497   -0.3308    2.3522 C   0  0  0  0  0  0  0  0  0  0  0  0
   -1.5022    0.5062    1.8578 H   0  0  0  0  0  0  0  0  0  0  0  0
   -1.3063   -0.4069    3.3973 H   0  0  0  0  0  0  0  0  0  0  0  0
   -1.2131   -1.6073    1.5724 C   0  0  0  0  0  0  0  0  0  0  0  0
   -0.5781   -2.4470    1.9528 H   0  0  0  0  0  0  0  0  0  0  0  0
   -2.2737   -1.9055    1.7339 H   0  0  0  0  0  0  0  0  0  0  0  0
   -1.0448   -1.3804    0.1364 N   0  0  0  0  0  0  0  0  0  0  0  0
   -0.2485   -0.7534   -0.0575 H   0  0  0  0  0  0  0  0  0  0  0  0
   -0.8423   -2.5921   -0.6718 C   0  0  0  0  0  0  0  0  0  0  0  0
   -1.0412   -2.3011   -1.7240 H   0  0  0  0  0  0  0  0  0  0  0  0
   -1.6304   -3.3256   -0.4124 H   0  0  0  0  0  0  0  0  0  0  0  0
    0.5666   -3.1731   -0.5197 C   0  0  0  0  0  0  0  0  0  0  0  0
    0.6663   -3.6882    0.4605 H   0  0  0  0  0  0  0  0  0  0  0  0
    0.7170   -3.9669   -1.2983 H   0  0  0  0  0  0  0  0  0  0  0  0
    1.6006   -2.1407   -0.5777 N   0  0  1  0  0  0  0  0  0  0  0  0
    2.8902   -2.6047   -0.0879 C   0  0  0  0  0  0  0  0  0  0  0  0
    3.6912   -1.9964   -0.5578 H   0  0  0  0  0  0  0  0  0  0  0  0
    3.1018   -3.6655   -0.3759 H   0  0  0  0  0  0  0  0  0  0  0  0
    3.0172   -2.4614    1.4305 C   0  0  0  0  0  0  0  0  0  0  0  0
    2.1628   -2.9795    1.9176 H   0  0  0  0  0  0  0  0  0  0  0  0
    3.9384   -2.9896    1.7834 H   0  0  0  0  0  0  0  0  0  0  0  0
    2.9890   -1.0569    1.8234 N   0  0  0  0  0  0  0  0  0  0  0  0
    1.0197   -0.3017    1.5236 H   0  0  0  0  0  0  0  0  0  0  0  0
    3.7913   -0.5456    1.4447 H   0  0  0  0  0  0  0  0  0  0  0  0
    2.7547   -0.7714    3.2246 C   0  0  0  0  0  0  0  0  0  0  0  0
    3.2008    0.2127    3.4721 H   0  0  0  0  0  0  0  0  0  0  0  0
    3.2162   -1.5050    3.9307 H   0  0  0  0  0  0  0  0  0  0  0  0
    1.2405   -0.7469    3.4913 C   0  0  0  0  0  0  0  0  0  0  0  0
    0.8264   -1.7735    3.4717 H   0  0  0  0  0  0  0  0  0  0  0  0
    0.9874   -0.2955    4.4706 H   0  0  0  0  0  0  0  0  0  0  0  0
    0.8004    1.4978    2.4999 C   0  0  0  0  0  0  0  0  0  0  0  0
    1.9039    1.5978    2.4667 H   0  0  0  0  0  0  0  0  0  0  0  0
    0.4500    1.8329    3.4954 H   0  0  0  0  0  0  0  0  0  0  0  0
    0.1522    2.3105    1.4143 C   0  0  0  0  0  0  0  0  0  0  0  0
   -0.6374    3.4327    1.7266 C   0  0  0  0  0  0  0  0  0  0  0  0
   -0.8095    3.6930    2.7826 H   0  0  0  0  0  0  0  0  0  0  0  0
   -1.2152    4.2018    0.7104 C   0  0  0  0  0  0  0  0  0  0  0  0
   -1.8412    5.0675    0.9695 H   0  0  0  0  0  0  0  0  0  0  0  0
   -1.0463    3.8301   -0.6319 C   0  0  0  0  0  0  0  0  0  0  0  0
   -1.5519    4.3950   -1.4284 H   0  0  0  0  0  0  0  0  0  0  0  0
   -0.2795    2.7081   -0.9693 C   0  0  0  0  0  0  0  0  0  0  0  0
   -0.2030    2.3443   -2.0033 H   0  0  0  0  0  0  0  0  0  0  0  0
    0.3313    1.9809    0.0569 C   0  0  0  0  0  0  0  0  0  0  0  0
    1.0610    0.8254   -0.2240 O   0  0  0  0  0  0  0  0  0  0  0  0
    2.1967    0.9161   -1.0144 C   0  0  0  0  0  0  0  0  0  0  0  0
    2.9985    2.0689   -0.9871 C   0  0  0  0  0  0  0  0  0  0  0  0
    2.6896    2.9265   -0.3717 H   0  0  0  0  0  0  0  0  0  0  0  0
    4.1663    2.1222   -1.7620 C   0  0  0  0  0  0  0  0  0  0  0  0
    4.7893    3.0291   -1.7424 H   0  0  0  0  0  0  0  0  0  0  0  0
    4.5295    1.0276   -2.5598 C   0  0  0  0  0  0  0  0  0  0  0  0
    5.4398    1.0649   -3.1759 H   0  0  0  0  0  0  0  0  0  0  0  0
    3.7161   -0.1161   -2.5731 C   0  0  0  0  0  0  0  0  0  0  0  0
    3.9876   -0.9756   -3.2064 H   0  0  0  0  0  0  0  0  0  0  0  0
    2.5359   -0.2020   -1.8103 C   0  0  0  0  0  0  0  0  0  0  0  0
    1.6550   -1.4276   -1.8601 C   0  0  0  0  0  0  0  0  0  0  0  0
    0.6270   -1.0943   -2.1331 H   0  0  0  0  0  0  0  0  0  0  0  0
    2.0055   -2.0911   -2.6918 H   0  0  0  0  0  0  0  0  0  0  0  0
  1 24  1  6  0  0  0
  1 32  1  0  0  0  0
  1 29  1  0  0  0  0
  2  1  1  0  0  0  0
  2  4  1  0  0  0  0
  3  2  1  0  0  0  0
  5  7  1  0  0  0  0
  5  6  1  0  0  0  0
  5  2  1  0  0  0  0
  8  5  1  0  0  0  0
  9  8  1  0  0  0  0
 10 13  1  0  0  0  0
 10 12  1  0  0  0  0
 10  8  1  0  0  0  0
 11 10  1  0  0  0  0
 13 14  1  0  0  0  0
 15 13  1  0  0  0  0
 16 56  1  6  0  0  0
 16 13  1  0  0  0  0
 16 17  1  0  0  0  0
 17 20  1  0  0  0  0
 18 17  1  0  0  0  0
 19 17  1  0  0  0  0
 20 22  1  0  0  0  0
 20 23  1  0  0  0  0
 20 21  1  0  0  0  0
 23 26  1  0  0  0  0
 25 23  1  0  0  0  0
 26 27  1  0  0  0  0
 26 29  1  0  0  0  0
 26 28  1  0  0  0  0
 29 31  1  0  0  0  0
 30 29  1  0  0  0  0
 32 34  1  0  0  0  0
 33 32  1  0  0  0  0
 35 36  1  0  0  0  0
 35 32  1  0  0  0  0
 36 37  1  0  0  0  0
 38 39  1  0  0  0  0
 38 36  2  0  0  0  0
 40 38  1  0  0  0  0
 41 40  1  0  0  0  0
 42 40  2  0  0  0  0
 42 44  1  0  0  0  0
 43 42  1  0  0  0  0
 44 35  2  0  0  0  0
 45 44  1  0  0  0  0
 46 47  1  0  0  0  0
 46 45  1  0  0  0  0
 47 48  1  0  0  0  0
 49 50  1  0  0  0  0
 49 47  2  0  0  0  0
 51 49  1  0  0  0  0
 52 51  1  0  0  0  0
 53 51  2  0  0  0  0
 53 55  1  0  0  0  0
 54 53  1  0  0  0  0
 55 46  2  0  0  0  0
 56 55  1  0  0  0  0
 57 56  1  0  0  0  0
 58 56  1  0  0  0  0
M  CHG  1   1   1
M  END
