5
 OpenBabel05122313063D

 14 14  0  0  0  0  0  0  0  0999 V2000
    5.1145    1.4390    0.0384 O   0  0  0  0  0  0  0  0  0  0  0  0
    2.8412    1.5689    0.0035 O   0  0  0  0  0  0  0  0  0  0  0  0
    4.4488   -2.6595   -0.0289 N   0  0  0  0  0  0  0  0  0  0  0  0
    3.1140   -2.6152   -0.0407 N   0  0  0  0  0  2  0  0  0  0  0  0
    2.8036   -1.3412   -0.0269 N   0  0  0  0  0  2  0  0  0  0  0  0
    5.0191   -1.4275   -0.0071 C   0  0  0  0  0  0  0  0  0  0  0  0
    6.0986   -1.2496    0.0055 H   0  0  0  0  0  0  0  0  0  0  0  0
    3.9336   -0.5590   -0.0058 C   0  0  0  0  0  0  0  0  0  0  0  0
    3.8769    0.9279    0.0119 C   0  0  0  0  0  0  0  0  0  0  0  0
    5.2023    2.8796    0.0587 C   0  0  0  0  0  0  0  0  0  0  0  0
    4.7327    3.3045   -0.8497 H   0  0  0  0  0  0  0  0  0  0  0  0
    6.2795    3.1144    0.0878 H   0  0  0  0  0  0  0  0  0  0  0  0
    4.6880    3.2822    0.9529 H   0  0  0  0  0  0  0  0  0  0  0  0
    4.9087   -3.5766   -0.0369 H   0  0  0  0  0  0  0  0  0  0  0  0
  1 10  1  0  0  0  0
  2  9  2  0  0  0  0
  3  6  1  0  0  0  0
  4  3  1  0  0  0  0
  4  5  1  0  0  0  0
  5  8  1  0  0  0  0
  6  8  2  0  0  0  0
  6  7  1  0  0  0  0
  8  9  1  0  0  0  0
  9  1  1  0  0  0  0
 10 12  1  0  0  0  0
 10 13  1  0  0  0  0
 11 10  1  0  0  0  0
 14  3  1  0  0  0  0
M  END
