1
 OpenBabel05122313063D

 23 23  0  0  0  0  0  0  0  0999 V2000
   -1.6696   -0.4658    0.5331 N   0  0  0  0  0  2  0  0  0  0  0  0
   -3.4331   -2.0265   -0.1278 C   0  0  0  0  0  0  0  0  0  0  0  0
   -3.0214   -0.7058    0.1768 C   0  0  0  0  0  0  0  0  0  0  0  0
   -3.4259    1.7821    0.4392 C   0  0  0  0  0  0  0  0  0  0  0  0
   -2.4139    2.0000    0.0395 H   0  0  0  0  0  0  0  0  0  0  0  0
   -3.3416    1.8893    1.5424 H   0  0  0  0  0  0  0  0  0  0  0  0
   -4.1269    2.5597    0.0814 H   0  0  0  0  0  0  0  0  0  0  0  0
   -1.0546   -0.4687    1.6785 C   0  0  0  0  0  2  0  0  0  0  0  0
   -3.8969    0.4021    0.0617 C   0  0  0  0  0  0  0  0  0  0  0  0
   -4.7547   -2.2173   -0.5720 C   0  0  0  0  0  0  0  0  0  0  0  0
   -5.0910   -3.2369   -0.8173 H   0  0  0  0  0  0  0  0  0  0  0  0
   -2.4789   -3.1802    0.0397 C   0  0  0  0  0  0  0  0  0  0  0  0
   -2.8872   -4.1072   -0.4050 H   0  0  0  0  0  0  0  0  0  0  0  0
   -2.2723   -3.3844    1.1119 H   0  0  0  0  0  0  0  0  0  0  0  0
   -1.4931   -2.9708   -0.4242 H   0  0  0  0  0  0  0  0  0  0  0  0
   -1.7416   -0.7672    2.9691 C   0  0  0  0  0  0  0  0  0  0  0  0
   -1.2186   -1.6003    3.4831 H   0  0  0  0  0  0  0  0  0  0  0  0
   -2.8201   -1.0162    2.8632 H   0  0  0  0  0  0  0  0  0  0  0  0
   -1.6327    0.1065    3.6451 H   0  0  0  0  0  0  0  0  0  0  0  0
   -5.6362   -1.1355   -0.7059 C   0  0  0  0  0  0  0  0  0  0  0  0
   -6.6638   -1.3042   -1.0612 H   0  0  0  0  0  0  0  0  0  0  0  0
   -5.2085    0.1608   -0.3872 C   0  0  0  0  0  0  0  0  0  0  0  0
   -5.9015    1.0110   -0.4863 H   0  0  0  0  0  0  0  0  0  0  0  0
  1  8  1  0  0  0  0
  2 12  1  0  0  0  0
  2  3  1  0  0  0  0
  3  1  1  0  0  0  0
  4  6  1  0  0  0  0
  5  4  1  0  0  0  0
  7  4  1  0  0  0  0
  8 16  1  0  0  0  0
  9  3  2  0  0  0  0
  9  4  1  0  0  0  0
 10  2  2  0  0  0  0
 11 10  1  0  0  0  0
 12 14  1  0  0  0  0
 13 12  1  0  0  0  0
 15 12  1  0  0  0  0
 16 17  1  0  0  0  0
 16 19  1  0  0  0  0
 18 16  1  0  0  0  0
 20 10  1  0  0  0  0
 20 22  2  0  0  0  0
 21 20  1  0  0  0  0
 22  9  1  0  0  0  0
 23 22  1  0  0  0  0
M  END
