3
 OpenBabel05122313063D

 41 44  0  0  0  0  0  0  0  0999 V2000
    4.9013    1.8080    0.4938 Cl  0  0  0  0  0  0  0  0  0  0  0  0
   -1.1111   -0.9262   -0.1306 P   0  0  0  0  0  0  0  0  0  0  0  0
    1.3763    0.4458   -0.3103 N   0  0  0  0  0  2  0  0  0  0  0  0
    2.4213    1.2091    0.0699 N   0  0  0  0  0  2  0  0  0  0  0  0
    1.5399   -0.7829   -0.8406 C   0  0  0  0  0  0  0  0  0  0  0  0
    2.8537   -1.3310   -1.0182 C   0  0  0  0  0  0  0  0  0  0  0  0
    3.9730   -0.5392   -0.5912 C   0  0  0  0  0  0  0  0  0  0  0  0
    3.6440    0.7483   -0.0471 C   0  0  0  0  0  0  0  0  0  0  0  0
    3.1014   -2.6076   -1.5952 C   0  0  0  0  0  0  0  0  0  0  0  0
    4.4036   -3.0748   -1.7264 C   0  0  0  0  0  0  0  0  0  0  0  0
    5.5012   -2.2902   -1.2918 C   0  0  0  0  0  0  0  0  0  0  0  0
    5.2921   -1.0350   -0.7317 C   0  0  0  0  0  0  0  0  0  0  0  0
    0.2905   -1.5230   -1.2247 C   0  0  0  0  0  0  0  0  0  0  0  0
   -2.6511   -1.4547   -0.9550 C   0  0  0  0  0  0  0  0  0  0  0  0
   -2.8620   -1.0786   -2.3009 C   0  0  0  0  0  0  0  0  0  0  0  0
   -4.0736   -1.3828   -2.9348 C   0  0  0  0  0  0  0  0  0  0  0  0
   -5.0919   -2.0444   -2.2272 C   0  0  0  0  0  0  0  0  0  0  0  0
   -4.8961   -2.3977   -0.8836 C   0  0  0  0  0  0  0  0  0  0  0  0
   -3.6814   -2.1048   -0.2441 C   0  0  0  0  0  0  0  0  0  0  0  0
   -0.9307   -1.9324    1.3846 C   0  0  0  0  0  0  0  0  0  0  0  0
   -1.0171   -3.3417    1.3506 C   0  0  0  0  0  0  0  0  0  0  0  0
   -0.8288   -4.0808    2.5263 C   0  0  0  0  0  0  0  0  0  0  0  0
   -0.5522   -3.4219    3.7372 C   0  0  0  0  0  0  0  0  0  0  0  0
   -0.4631   -2.0221    3.7743 C   0  0  0  0  0  0  0  0  0  0  0  0
   -0.6521   -1.2757    2.6009 C   0  0  0  0  0  0  0  0  0  0  0  0
    2.2629   -3.2252   -1.9440 H   0  0  0  0  0  0  0  0  0  0  0  0
    4.5851   -4.0633   -2.1736 H   0  0  0  0  0  0  0  0  0  0  0  0
    6.5251   -2.6765   -1.4022 H   0  0  0  0  0  0  0  0  0  0  0  0
    6.1334   -0.4133   -0.3958 H   0  0  0  0  0  0  0  0  0  0  0  0
    0.0131   -1.2834   -2.2734 H   0  0  0  0  0  0  0  0  0  0  0  0
    0.4137   -2.6205   -1.1545 H   0  0  0  0  0  0  0  0  0  0  0  0
   -2.0822   -0.5318   -2.8554 H   0  0  0  0  0  0  0  0  0  0  0  0
   -4.2276   -1.0959   -3.9856 H   0  0  0  0  0  0  0  0  0  0  0  0
   -6.0442   -2.2792   -2.7255 H   0  0  0  0  0  0  0  0  0  0  0  0
   -5.6947   -2.9077   -0.3247 H   0  0  0  0  0  0  0  0  0  0  0  0
   -3.5361   -2.3851    0.8095 H   0  0  0  0  0  0  0  0  0  0  0  0
   -1.2438   -3.8641    0.4076 H   0  0  0  0  0  0  0  0  0  0  0  0
   -0.9002   -5.1784    2.4996 H   0  0  0  0  0  0  0  0  0  0  0  0
   -0.4065   -4.0066    4.6578 H   0  0  0  0  0  0  0  0  0  0  0  0
   -0.2461   -1.5069    4.7218 H   0  0  0  0  0  0  0  0  0  0  0  0
   -0.5785   -0.1759    2.6128 H   0  0  0  0  0  0  0  0  0  0  0  0
  2 20  1  0  0  0  0
  3  4  1  0  0  0  0
  5  3  1  0  0  0  0
  6  5  2  0  0  0  0
  6  7  1  0  0  0  0
  7  8  2  0  0  0  0
  8  4  1  0  0  0  0
  8  1  1  0  0  0  0
  9  6  1  0  0  0  0
 10  9  2  0  0  0  0
 10 11  1  0  0  0  0
 11 12  2  0  0  0  0
 12  7  1  0  0  0  0
 12 29  1  0  0  0  0
 13 31  1  0  0  0  0
 13  5  1  0  0  0  0
 13  2  1  0  0  0  0
 14 19  1  0  0  0  0
 14  2  1  0  0  0  0
 15 14  2  0  0  0  0
 16 15  1  0  0  0  0
 16 17  2  0  0  0  0
 17 18  1  0  0  0  0
 18 35  1  0  0  0  0
 18 19  2  0  0  0  0
 19 36  1  0  0  0  0
 20 25  1  0  0  0  0
 21 20  2  0  0  0  0
 21 22  1  0  0  0  0
 22 23  2  0  0  0  0
 23 24  1  0  0  0  0
 23 39  1  0  0  0  0
 24 40  1  0  0  0  0
 25 41  1  0  0  0  0
 25 24  2  0  0  0  0
 26  9  1  0  0  0  0
 27 10  1  0  0  0  0
 28 11  1  0  0  0  0
 30 13  1  0  0  0  0
 32 15  1  0  0  0  0
 33 16  1  0  0  0  0
 34 17  1  0  0  0  0
 37 21  1  0  0  0  0
 38 22  1  0  0  0  0
M  END
