6
 OpenBabel05122313063D

 38 40  0  0  1  0  0  0  0  0999 V2000
    0.1978   -1.5794   -2.6276 N   0  0  0  0  0  0  0  0  0  0  0  0
   -0.6787   -2.1181   -2.5835 H   0  0  0  0  0  0  0  0  0  0  0  0
    0.9494   -1.5149   -1.5231 N   0  0  0  0  0  0  0  0  0  0  0  0
    2.2618    1.9518   -0.8399 N   0  0  0  0  0  0  0  0  0  0  0  0
    3.2170    1.0240   -0.5638 N   0  0  0  0  0  0  0  0  0  0  0  0
    1.8306   -0.7890    1.3229 N   0  0  0  0  0  2  0  0  0  0  0  0
    2.7966   -1.1409    0.4319 N   0  0  0  0  0  0  0  0  0  0  0  0
    0.6891   -0.8316   -3.6566 C   0  0  0  0  0  0  0  0  0  0  0  0
    0.1863   -0.7775   -4.6283 H   0  0  0  0  0  0  0  0  0  0  0  0
    1.8560   -0.2342   -3.1827 C   0  0  0  0  0  0  0  0  0  0  0  0
    2.5257    0.4402   -3.7254 H   0  0  0  0  0  0  0  0  0  0  0  0
    1.9587   -0.6899   -1.8406 C   0  0  0  0  0  0  0  0  0  0  0  0
    3.0231   -0.4010   -0.8114 C   0  0  1  0  0  0  0  0  0  0  0  0
    3.9931   -0.7841   -1.1878 H   0  0  0  0  0  0  0  0  0  0  0  0
    1.9535    4.3887   -0.4974 C   0  0  0  0  0  0  0  0  0  0  0  0
    2.3581    5.0116   -1.3225 H   0  0  0  0  0  0  0  0  0  0  0  0
    2.0173    4.9941    0.4274 H   0  0  0  0  0  0  0  0  0  0  0  0
    0.8851    4.1918   -0.7062 H   0  0  0  0  0  0  0  0  0  0  0  0
    2.7244    3.1140   -0.3487 C   0  0  0  0  0  0  0  0  0  0  0  0
    3.9928    2.9215    0.2616 C   0  0  0  0  0  0  0  0  0  0  0  0
    4.6233    3.6747    0.7458 H   0  0  0  0  0  0  0  0  0  0  0  0
    4.2866    1.5700    0.1138 C   0  0  0  0  0  0  0  0  0  0  0  0
    5.4651    0.7764    0.5689 C   0  0  0  0  0  0  0  0  0  0  0  0
    5.1878    0.0268    1.3388 H   0  0  0  0  0  0  0  0  0  0  0  0
    6.2199    1.4514    1.0111 H   0  0  0  0  0  0  0  0  0  0  0  0
    5.9540    0.2366   -0.2692 H   0  0  0  0  0  0  0  0  0  0  0  0
    0.9662   -1.6233    3.4921 C   0  0  0  0  0  0  0  0  0  0  0  0
    0.5373   -0.6081    3.5986 H   0  0  0  0  0  0  0  0  0  0  0  0
    1.4764   -1.8992    4.4349 H   0  0  0  0  0  0  0  0  0  0  0  0
    0.1208   -2.3284    3.3495 H   0  0  0  0  0  0  0  0  0  0  0  0
    1.9077   -1.6789    2.3342 C   0  0  1  0  0  3  0  0  0  0  0  0
    2.9361   -2.6174    2.0710 C   0  0  0  0  0  0  0  0  0  0  0  0
    3.2442   -3.4602    2.6980 H   0  0  0  0  0  0  0  0  0  0  0  0
    3.4861   -2.2568    0.8422 C   0  0  0  0  0  0  0  0  0  0  0  0
    4.5756   -2.8946    0.0459 C   0  0  0  0  0  0  0  0  0  0  0  0
    4.2161   -3.2270   -0.9498 H   0  0  0  0  0  0  0  0  0  0  0  0
    4.9519   -3.7849    0.5814 H   0  0  0  0  0  0  0  0  0  0  0  0
    5.4390   -2.2156   -0.1137 H   0  0  0  0  0  0  0  0  0  0  0  0
  1  2  1  0  0  0  0
  1  3  1  0  0  0  0
  4  5  1  0  0  0  0
  4 19  2  0  0  0  0
  5 22  1  0  0  0  0
  6 31  1  0  0  0  0
  7 34  1  0  0  0  0
  7  6  1  0  0  0  0
  8 10  2  0  0  0  0
  8  1  1  0  0  0  0
  9  8  1  0  0  0  0
 10 12  1  0  0  0  0
 11 10  1  0  0  0  0
 12  3  2  0  0  0  0
 12 13  1  0  0  0  0
 13 14  1  6  0  0  0
 13  5  1  0  0  0  0
 13  7  1  0  0  0  0
 15 19  1  0  0  0  0
 15 17  1  0  0  0  0
 16 15  1  0  0  0  0
 18 15  1  0  0  0  0
 19 20  1  0  0  0  0
 20 21  1  0  0  0  0
 22 20  2  0  0  0  0
 22 23  1  0  0  0  0
 23 25  1  0  0  0  0
 23 24  1  0  0  0  0
 26 23  1  0  0  0  0
 27 28  1  0  0  0  0
 27 29  1  0  0  0  0
 30 27  1  0  0  0  0
 31 27  1  6  0  0  0
 32 31  1  0  0  0  0
 32 33  1  0  0  0  0
 34 32  2  0  0  0  0
 35 37  1  0  0  0  0
 35 34  1  0  0  0  0
 36 35  1  0  0  0  0
 38 35  1  0  0  0  0
M  END
