3
 OpenBabel05122313063D

 30 31  0  0  1  0  0  0  0  0999 V2000
    5.0350   -3.1154    0.5432 Cl  0  0  0  0  0  0  0  0  0  0  0  0
    2.5669   -3.6867   -1.4175 Cl  0  0  0  0  0  0  0  0  0  0  0  0
    1.0106    1.1116   -0.6348 N   0  0  0  0  0  2  0  0  0  0  0  0
    1.1938    2.3843   -0.8302 C   0  0  1  0  0  3  0  0  0  0  0  0
   -0.0013    3.2782   -0.9728 C   0  0  0  0  0  0  0  0  0  0  0  0
    2.5865    2.9463   -0.8736 C   0  0  0  0  0  0  0  0  0  0  0  0
    3.2221    3.0411    0.5366 C   0  0  0  0  0  0  0  0  0  0  0  0
    3.3575    1.6798    1.0924 N   0  0  0  0  0  0  0  0  0  0  0  0
    2.3429    3.8765    1.4842 C   0  0  0  0  0  0  0  0  0  0  0  0
    4.6241    3.6672    0.4111 C   0  0  0  0  0  0  0  0  0  0  0  0
    3.1728    0.4761    0.4331 C   0  0  0  0  0  0  0  0  0  0  0  0
    4.0762   -0.5853    0.6953 C   0  0  0  0  0  0  0  0  0  0  0  0
    3.8996   -1.8595    0.1487 C   0  0  0  0  0  0  0  0  0  0  0  0
    2.8240   -2.1091   -0.7337 C   0  0  0  0  0  0  0  0  0  0  0  0
    1.9202   -1.0809   -1.0061 C   0  0  0  0  0  0  0  0  0  0  0  0
    2.0657    0.1982   -0.4288 C   0  0  0  0  0  0  0  0  0  0  0  0
    0.2832    4.3093   -1.2511 H   0  0  0  0  0  0  0  0  0  0  0  0
   -0.5602    3.2962   -0.0120 H   0  0  0  0  0  0  0  0  0  0  0  0
   -0.6885    2.8565   -1.7366 H   0  0  0  0  0  0  0  0  0  0  0  0
    3.2280    2.2950   -1.5060 H   0  0  0  0  0  0  0  0  0  0  0  0
    2.5781    3.9579   -1.3204 H   0  0  0  0  0  0  0  0  0  0  0  0
    4.0820    1.6287    1.8111 H   0  0  0  0  0  0  0  0  0  0  0  0
    2.1754    4.8979    1.0855 H   0  0  0  0  0  0  0  0  0  0  0  0
    2.8373    3.9748    2.4721 H   0  0  0  0  0  0  0  0  0  0  0  0
    1.3680    3.3767    1.6499 H   0  0  0  0  0  0  0  0  0  0  0  0
    4.5658    4.7085    0.0357 H   0  0  0  0  0  0  0  0  0  0  0  0
    5.2607    3.0799   -0.2809 H   0  0  0  0  0  0  0  0  0  0  0  0
    5.1235    3.7005    1.4018 H   0  0  0  0  0  0  0  0  0  0  0  0
    4.9392   -0.4092    1.3535 H   0  0  0  0  0  0  0  0  0  0  0  0
    1.0556   -1.2616   -1.6556 H   0  0  0  0  0  0  0  0  0  0  0  0
  2 14  1  0  0  0  0
  3 16  1  0  0  0  0
  4  5  1  1  0  0  0
  4  3  1  0  0  0  0
  5 18  1  0  0  0  0
  6  4  1  0  0  0  0
  6  7  1  0  0  0  0
  7  8  1  0  0  0  0
  7  9  1  0  0  0  0
  8 22  1  0  0  0  0
  9 25  1  0  0  0  0
  9 24  1  0  0  0  0
 10  7  1  0  0  0  0
 10 28  1  0  0  0  0
 11 12  1  0  0  0  0
 11  8  1  0  0  0  0
 12 29  1  0  0  0  0
 13  1  1  0  0  0  0
 13 12  2  0  0  0  0
 14 13  1  0  0  0  0
 15 14  2  0  0  0  0
 15 16  1  0  0  0  0
 16 11  2  0  0  0  0
 17  5  1  0  0  0  0
 19  5  1  0  0  0  0
 20  6  1  0  0  0  0
 21  6  1  0  0  0  0
 23  9  1  0  0  0  0
 26 10  1  0  0  0  0
 27 10  1  0  0  0  0
 30 15  1  0  0  0  0
M  END
