2
 OpenBabel05122313063D

 31 32  0  0  1  0  0  0  0  0999 V2000
   -2.0951    0.7516   -1.3456 S   0  0  0  0  0  1  0  0  0  0  0  0
   -0.0652   -1.1098    0.0413 N   0  0  0  0  0  2  0  0  0  0  0  0
   -2.9996   -0.5062   -0.5394 C   0  0  0  0  0  0  0  0  0  0  0  0
   -2.4592   -1.6331    0.1684 C   0  0  0  0  0  0  0  0  0  0  0  0
   -3.3611   -2.5213    0.8197 C   0  0  0  0  0  0  0  0  0  0  0  0
   -4.7413   -2.3453    0.7802 C   0  0  0  0  0  0  0  0  0  0  0  0
   -5.2707   -1.2780    0.0255 C   0  0  0  0  0  0  0  0  0  0  0  0
   -4.4164   -0.3905   -0.6226 C   0  0  0  0  0  0  0  0  0  0  0  0
   -1.0373   -1.9925    0.1518 C   0  0  1  0  0  3  0  0  0  0  0  0
   -0.7085   -3.4722    0.2224 C   0  0  0  0  0  0  0  0  0  0  0  0
    1.2814   -1.5818   -0.0367 C   0  0  0  0  0  0  0  0  0  0  0  0
    1.9778   -1.9818    1.1176 C   0  0  0  0  0  0  0  0  0  0  0  0
    3.3241   -2.3686    1.0283 C   0  0  0  0  0  0  0  0  0  0  0  0
    4.0053   -2.3789   -0.2034 C   0  0  0  0  0  0  0  0  0  0  0  0
    3.2851   -1.9898   -1.3553 C   0  0  0  0  0  0  0  0  0  0  0  0
    1.9467   -1.5917   -1.2801 C   0  0  0  0  0  0  0  0  0  0  0  0
    5.4563   -2.7774   -0.2997 C   0  0  0  0  0  0  0  0  0  0  0  0
   -2.9536   -3.3657    1.3940 H   0  0  0  0  0  0  0  0  0  0  0  0
   -5.4043   -3.0357    1.3216 H   0  0  0  0  0  0  0  0  0  0  0  0
   -6.3600   -1.1323   -0.0427 H   0  0  0  0  0  0  0  0  0  0  0  0
   -4.8251    0.4566   -1.1934 H   0  0  0  0  0  0  0  0  0  0  0  0
   -1.5176   -4.0788   -0.2208 H   0  0  0  0  0  0  0  0  0  0  0  0
   -0.5759   -3.8004    1.2751 H   0  0  0  0  0  0  0  0  0  0  0  0
    0.2399   -3.6925   -0.2997 H   0  0  0  0  0  0  0  0  0  0  0  0
    1.4607   -1.9819    2.0885 H   0  0  0  0  0  0  0  0  0  0  0  0
    3.8584   -2.6697    1.9432 H   0  0  0  0  0  0  0  0  0  0  0  0
    3.7898   -1.9924   -2.3346 H   0  0  0  0  0  0  0  0  0  0  0  0
    1.3974   -1.2670   -2.1756 H   0  0  0  0  0  0  0  0  0  0  0  0
    5.8391   -3.1637    0.6646 H   0  0  0  0  0  0  0  0  0  0  0  0
    6.0919   -1.9146   -0.5915 H   0  0  0  0  0  0  0  0  0  0  0  0
    5.6113   -3.5626   -1.0682 H   0  0  0  0  0  0  0  0  0  0  0  0
  1  3  1  0  0  0  0
  3  4  1  0  0  0  0
  4  5  2  0  0  0  0
  5 18  1  0  0  0  0
  6  5  1  0  0  0  0
  6 19  1  0  0  0  0
  7  6  2  0  0  0  0
  8  3  2  0  0  0  0
  8  7  1  0  0  0  0
  9  2  1  6  0  0  0
  9  4  1  0  0  0  0
  9 10  1  0  0  0  0
 10 23  1  0  0  0  0
 11  2  1  0  0  0  0
 11 12  1  0  0  0  0
 12 25  1  0  0  0  0
 13 12  2  0  0  0  0
 13 26  1  0  0  0  0
 14 13  1  0  0  0  0
 15 16  1  0  0  0  0
 15 14  2  0  0  0  0
 16 11  2  0  0  0  0
 17 14  1  0  0  0  0
 17 29  1  0  0  0  0
 20  7  1  0  0  0  0
 21  8  1  0  0  0  0
 22 10  1  0  0  0  0
 24 10  1  0  0  0  0
 27 15  1  0  0  0  0
 28 16  1  0  0  0  0
 30 17  1  0  0  0  0
 31 17  1  0  0  0  0
M  END
