12
 OpenBabel05122313063D

 27 29  0  0  0  0  0  0  0  0999 V2000
   -5.3572    0.1048   -0.1189 Cl  0  0  0  0  0  0  0  0  0  0  0  0
   -3.5640    2.6129   -0.2163 C   0  0  0  0  0  3  0  0  0  0  0  0
   -4.6612    2.6413   -0.2609 H   0  0  0  0  0  0  0  0  0  0  0  0
   -2.9226    1.3469   -0.1076 C   0  0  0  0  0  0  0  0  0  0  0  0
   -1.4881    1.2917   -0.0454 C   0  0  0  0  0  0  0  0  0  0  0  0
   -1.5281   -3.5669    0.6528 C   0  0  0  0  0  0  0  0  0  0  0  0
   -0.9114   -4.4801    0.5346 H   0  0  0  0  0  0  0  0  0  0  0  0
   -1.7842   -3.4953    1.7326 H   0  0  0  0  0  0  0  0  0  0  0  0
   -0.7110   -2.3463    0.2296 C   0  0  0  0  0  0  0  0  0  0  0  0
    0.1379   -2.1482    0.9192 H   0  0  0  0  0  0  0  0  0  0  0  0
   -0.2390   -2.5107   -0.7663 H   0  0  0  0  0  0  0  0  0  0  0  0
   -0.8382    0.0839    0.0660 N   0  0  0  0  0  2  0  0  0  0  0  0
   -2.9428   -1.1155    0.0370 C   0  0  0  0  0  0  0  0  0  0  0  0
   -0.7462    2.5038   -0.0945 C   0  0  0  0  0  0  0  0  0  0  0  0
    0.3508    2.4336   -0.0352 H   0  0  0  0  0  0  0  0  0  0  0  0
   -1.5138   -1.0746    0.1164 C   0  0  0  0  0  0  0  0  0  0  0  0
   -1.3994    3.7211   -0.2046 C   0  0  0  0  0  0  0  0  0  0  0  0
   -0.8116    4.6502   -0.2389 H   0  0  0  0  0  0  0  0  0  0  0  0
   -3.6905   -2.4302    0.0843 C   0  0  0  0  0  0  0  0  0  0  0  0
   -4.5342   -2.3848   -0.6341 H   0  0  0  0  0  0  0  0  0  0  0  0
   -4.1697   -2.5146    1.0865 H   0  0  0  0  0  0  0  0  0  0  0  0
   -3.6156    0.1016   -0.0597 C   0  0  0  0  0  0  0  0  0  0  0  0
   -2.8160    3.7786   -0.2655 C   0  0  0  0  0  0  0  0  0  0  0  0
   -3.3225    4.7515   -0.3494 H   0  0  0  0  0  0  0  0  0  0  0  0
   -2.8104   -3.6544   -0.1732 C   0  0  0  0  0  0  0  0  0  0  0  0
   -3.3808   -4.5753    0.0625 H   0  0  0  0  0  0  0  0  0  0  0  0
   -2.5498   -3.7090   -1.2529 H   0  0  0  0  0  0  0  0  0  0  0  0
  1 22  1  0  0  0  0
  2  4  1  0  0  0  0
  3  2  1  0  0  0  0
  4 22  2  0  0  0  0
  4  5  1  0  0  0  0
  5 12  1  0  0  0  0
  6  8  1  0  0  0  0
  7  6  1  0  0  0  0
  9  6  1  0  0  0  0
  9 10  1  0  0  0  0
 11  9  1  0  0  0  0
 12 16  1  0  0  0  0
 13 19  1  0  0  0  0
 13 16  2  0  0  0  0
 14  5  2  0  0  0  0
 14 15  1  0  0  0  0
 16  9  1  0  0  0  0
 17 14  1  0  0  0  0
 18 17  1  0  0  0  0
 19 21  1  0  0  0  0
 20 19  1  0  0  0  0
 22 13  1  0  0  0  0
 23  2  1  0  0  0  0
 23 17  2  0  0  0  0
 24 23  1  0  0  0  0
 25 26  1  0  0  0  0
 25 19  1  0  0  0  0
 25  6  1  0  0  0  0
 27 25  1  0  0  0  0
M  END
