1
 OpenBabel05122313063D

 36 38  0  0  0  0  0  0  0  0999 V2000
    0.0929    0.7001    0.3980 N   0  0  0  0  0  2  0  0  0  0  0  0
    1.0308    0.0919   -0.3292 C   0  0  0  0  0  3  0  0  0  0  0  0
    2.3552    0.2993   -0.6558 C   0  0  0  0  0  0  0  0  0  0  0  0
   -0.1778    2.0400    0.7022 C   0  0  0  0  0  0  0  0  0  0  0  0
    0.2357    3.0752   -0.1714 C   0  0  0  0  0  0  0  0  0  0  0  0
   -0.0539    4.4116    0.1301 C   0  0  0  0  0  0  0  0  0  0  0  0
   -0.7573    4.7424    1.3000 C   0  0  0  0  0  0  0  0  0  0  0  0
   -1.1679    3.7182    2.1691 C   0  0  0  0  0  0  0  0  0  0  0  0
   -0.8843    2.3773    1.8785 C   0  0  0  0  0  0  0  0  0  0  0  0
    3.0245    1.5732   -0.2488 C   0  0  0  0  0  0  0  0  0  0  0  0
    2.9580    2.0821    1.0663 C   0  0  0  0  0  0  0  0  0  0  0  0
    3.5431    3.3129    1.3982 C   0  0  0  0  0  0  0  0  0  0  0  0
    4.2122    4.0664    0.4227 C   0  0  0  0  0  0  0  0  0  0  0  0
    4.2980    3.5707   -0.8899 C   0  0  0  0  0  0  0  0  0  0  0  0
    3.7143    2.3405   -1.2193 C   0  0  0  0  0  0  0  0  0  0  0  0
    3.1840   -0.6985   -1.3673 C   0  0  0  0  0  0  0  0  0  0  0  0
    4.5877   -0.7367   -1.1408 C   0  0  0  0  0  0  0  0  0  0  0  0
    5.4063   -1.6908   -1.7562 C   0  0  0  0  0  0  0  0  0  0  0  0
    4.8613   -2.6486   -2.6281 C   0  0  0  0  0  0  0  0  0  0  0  0
    3.4795   -2.6274   -2.8730 C   0  0  0  0  0  0  0  0  0  0  0  0
    2.6612   -1.6700   -2.2584 C   0  0  0  0  0  0  0  0  0  0  0  0
    0.8058    2.8221   -1.0761 H   0  0  0  0  0  0  0  0  0  0  0  0
    0.2865    5.2036   -0.5545 H   0  0  0  0  0  0  0  0  0  0  0  0
   -0.9793    5.7939    1.5357 H   0  0  0  0  0  0  0  0  0  0  0  0
   -1.7174    3.9651    3.0904 H   0  0  0  0  0  0  0  0  0  0  0  0
   -1.2141    1.5725    2.5465 H   0  0  0  0  0  0  0  0  0  0  0  0
    2.4356    1.5041    1.8384 H   0  0  0  0  0  0  0  0  0  0  0  0
    3.4683    3.6868    2.4308 H   0  0  0  0  0  0  0  0  0  0  0  0
    4.6668    5.0347    0.6817 H   0  0  0  0  0  0  0  0  0  0  0  0
    4.8206    4.1515   -1.6660 H   0  0  0  0  0  0  0  0  0  0  0  0
    3.7809    1.9594   -2.2502 H   0  0  0  0  0  0  0  0  0  0  0  0
    5.0343   -0.0047   -0.4522 H   0  0  0  0  0  0  0  0  0  0  0  0
    6.4873   -1.6901   -1.5460 H   0  0  0  0  0  0  0  0  0  0  0  0
    5.5056   -3.3967   -3.1136 H   0  0  0  0  0  0  0  0  0  0  0  0
    3.0314   -3.3588   -3.5647 H   0  0  0  0  0  0  0  0  0  0  0  0
    1.5899   -1.6636   -2.4799 H   0  0  0  0  0  0  0  0  0  0  0  0
  1  4  1  0  0  0  0
  2  1  1  0  0  0  0
  3  2  2  0  0  0  0
  3 10  1  0  0  0  0
  4  9  1  0  0  0  0
  5  6  1  0  0  0  0
  5  4  2  0  0  0  0
  6  7  2  0  0  0  0
  7 24  1  0  0  0  0
  7  8  1  0  0  0  0
  8 25  1  0  0  0  0
  9  8  2  0  0  0  0
  9 26  1  0  0  0  0
 10 11  1  0  0  0  0
 11 12  2  0  0  0  0
 11 27  1  0  0  0  0
 12 28  1  0  0  0  0
 13 29  1  0  0  0  0
 13 12  1  0  0  0  0
 14 13  2  0  0  0  0
 15 14  1  0  0  0  0
 15 10  2  0  0  0  0
 16 17  1  0  0  0  0
 16  3  1  0  0  0  0
 17 32  1  0  0  0  0
 18 33  1  0  0  0  0
 18 17  2  0  0  0  0
 19 18  1  0  0  0  0
 20 19  2  0  0  0  0
 20 21  1  0  0  0  0
 21 16  2  0  0  0  0
 22  5  1  0  0  0  0
 23  6  1  0  0  0  0
 30 14  1  0  0  0  0
 31 15  1  0  0  0  0
 34 19  1  0  0  0  0
 35 20  1  0  0  0  0
 36 21  1  0  0  0  0
M  END
