1
 OpenBabel05122313063D

 30 33  0  0  1  0  0  0  0  0999 V2000
   -1.1531   -2.2598   -0.0773 N   0  0  0  0  0  2  0  0  0  0  0  0
   -0.3427   -1.7875   -1.0296 C   0  0  0  0  0  0  0  0  0  0  0  0
    0.9485   -2.4195   -1.2646 C   0  0  0  0  0  0  0  0  0  0  0  0
    1.3617   -3.4178   -0.4850 N   0  0  0  0  0  0  0  0  0  0  0  0
    0.5335   -3.9110    0.4693 C   0  0  0  0  0  0  0  0  0  0  0  0
    0.9414   -5.0170    1.2665 C   0  0  0  0  0  0  0  0  0  0  0  0
    1.9461   -5.4296    1.0965 H   0  0  0  0  0  0  0  0  0  0  0  0
    0.0692   -5.5452    2.2074 C   0  0  0  0  0  0  0  0  0  0  0  0
    0.3785   -6.4066    2.8185 H   0  0  0  0  0  0  0  0  0  0  0  0
   -1.2231   -4.9817    2.3952 C   0  0  0  0  0  0  0  0  0  0  0  0
   -1.8981   -5.4117    3.1502 H   0  0  0  0  0  0  0  0  0  0  0  0
   -1.6490   -3.8935    1.6435 C   0  0  0  0  0  0  0  0  0  0  0  0
   -2.6446   -3.4410    1.7920 H   0  0  0  0  0  0  0  0  0  0  0  0
   -0.7762   -3.3439    0.6654 C   0  0  1  0  0  3  0  0  0  0  0  0
   -2.5370   -0.6008   -2.2304 S   0  0  0  0  0  0  0  0  0  0  0  0
   -0.8367   -0.6313   -1.7884 C   0  0  0  0  0  0  0  0  0  0  0  0
   -0.2023    0.5403   -2.1906 C   0  0  0  0  0  0  0  0  0  0  0  0
    0.8599    0.7390   -2.0031 H   0  0  0  0  0  0  0  0  0  0  0  0
   -1.0610    1.4531   -2.8616 C   0  0  0  0  0  0  0  0  0  0  0  0
   -0.7554    2.4338   -3.2473 H   0  0  0  0  0  0  0  0  0  0  0  0
   -2.3517    0.9548   -2.9764 C   0  0  0  0  0  0  0  0  0  0  0  0
   -3.7961    1.7623   -3.8509 Br  0  0  0  0  0  0  0  0  0  0  0  0
    3.5664   -2.4868   -2.0496 S   0  0  0  0  0  0  0  0  0  0  0  0
    1.8900   -2.0327   -2.3187 C   0  0  0  0  0  0  0  0  0  0  0  0
    1.7294   -1.4469   -3.5723 C   0  0  0  0  0  0  0  0  0  0  0  0
    0.7562   -1.1284   -3.9640 H   0  0  0  0  0  0  0  0  0  0  0  0
    2.9420   -1.3337   -4.3063 C   0  0  0  0  0  0  0  0  0  0  0  0
    3.0261   -0.9067   -5.3138 H   0  0  0  0  0  0  0  0  0  0  0  0
    4.0213   -1.8362   -3.5954 C   0  0  0  0  0  0  0  0  0  0  0  0
    5.8112   -1.8790   -4.1509 Br  0  0  0  0  0  0  0  0  0  0  0  0
  2  1  1  0  0  0  0
  3  2  2  0  0  0  0
  3  4  1  0  0  0  0
  4  5  2  0  0  0  0
  5 14  1  0  0  0  0
  5  6  1  0  0  0  0
  6  8  2  0  0  0  0
  7  6  1  0  0  0  0
  8 10  1  0  0  0  0
  8  9  1  0  0  0  0
 10 11  1  0  0  0  0
 12 13  1  0  0  0  0
 12 10  2  0  0  0  0
 14  1  1  1  0  0  0
 14 12  1  0  0  0  0
 15 16  1  0  0  0  0
 16  2  1  0  0  0  0
 17 18  1  0  0  0  0
 17 16  2  0  0  0  0
 19 17  1  0  0  0  0
 20 19  1  0  0  0  0
 21 19  2  0  0  0  0
 21 15  1  0  0  0  0
 22 21  1  0  0  0  0
 24 23  1  0  0  0  0
 24  3  1  0  0  0  0
 25 24  2  0  0  0  0
 26 25  1  0  0  0  0
 27 29  2  0  0  0  0
 27 25  1  0  0  0  0
 28 27  1  0  0  0  0
 29 23  1  0  0  0  0
 30 29  1  0  0  0  0
M  END
