7
 OpenBabel05122313063D

 20 19  0  0  1  0  0  0  0  0999 V2000
    0.1154    1.0848   -1.9502 C   0  0  0  0  0  3  0  0  0  0  0  0
    1.1257    1.1063   -0.9455 C   0  0  2  0  0  3  0  0  0  0  0  0
    1.8193    2.3179   -0.4033 C   0  0  0  0  0  0  0  0  0  0  0  0
    2.6901   -0.5639    0.2404 C   0  0  0  0  0  0  0  0  0  0  0  0
    2.5122   -1.9804    0.7789 C   0  0  0  0  0  0  0  0  0  0  0  0
    3.9960   -0.3903   -0.5373 C   0  0  0  0  0  0  0  0  0  0  0  0
    1.5277   -0.2254   -0.6367 N   0  0  0  0  0  0  0  0  0  0  0  0
    0.1524    0.3095   -2.7349 H   0  0  0  0  0  0  0  0  0  0  0  0
   -0.3275    2.0411   -2.2640 H   0  0  0  0  0  0  0  0  0  0  0  0
    1.1424    3.1903   -0.4623 H   0  0  0  0  0  0  0  0  0  0  0  0
    2.7116    2.5518   -1.0226 H   0  0  0  0  0  0  0  0  0  0  0  0
    2.1442    2.2035    0.6471 H   0  0  0  0  0  0  0  0  0  0  0  0
    2.6555    0.1519    1.0851 H   0  0  0  0  0  0  0  0  0  0  0  0
    3.3635   -2.2435    1.4350 H   0  0  0  0  0  0  0  0  0  0  0  0
    2.4887   -2.7234   -0.0458 H   0  0  0  0  0  0  0  0  0  0  0  0
    1.5811   -2.0739    1.3697 H   0  0  0  0  0  0  0  0  0  0  0  0
    4.1203    0.6388   -0.9249 H   0  0  0  0  0  0  0  0  0  0  0  0
    4.0493   -1.0966   -1.3920 H   0  0  0  0  0  0  0  0  0  0  0  0
    4.8570   -0.6068    0.1242 H   0  0  0  0  0  0  0  0  0  0  0  0
    1.5352   -0.8285   -1.4751 H   0  0  0  0  0  0  0  0  0  0  0  0
  2  1  1  6  0  0  0
  2  7  1  0  0  0  0
  2  3  1  0  0  0  0
  3 12  1  0  0  0  0
  4  5  1  0  0  0  0
  4 13  1  0  0  0  0
  5 16  1  0  0  0  0
  5 14  1  0  0  0  0
  6 19  1  0  0  0  0
  6  4  1  0  0  0  0
  7  4  1  0  0  0  0
  8  1  1  0  0  0  0
  9  1  1  0  0  0  0
 10  3  1  0  0  0  0
 11  3  1  0  0  0  0
 15  5  1  0  0  0  0
 17  6  1  0  0  0  0
 18  6  1  0  0  0  0
 20  7  1  0  0  0  0
M  END
