2
 OpenBabel05122313063D

  6  5  0  0  0  0  0  0  0  0999 V2000
    4.4340   -1.0820    0.0007 O   0  0  0  0  0  0  0  0  0  0  0  0
    2.3203   -0.3385    0.3519 N   0  0  0  0  0  2  0  0  0  0  0  0
    3.1746   -0.9857   -0.3742 C   0  0  0  0  0  3  0  0  0  0  0  0
    2.6501    0.0104    1.2656 H   0  0  0  0  0  0  0  0  0  0  0  0
    2.8315   -1.4407   -1.3224 H   0  0  0  0  0  0  0  0  0  0  0  0
    4.9535   -1.5993   -0.6478 H   0  0  0  0  0  0  0  0  0  0  0  0
  2  4  1  0  0  0  0
  3  1  1  0  0  0  0
  3  2  1  0  0  0  0
  5  3  1  0  0  0  0
  6  1  1  0  0  0  0
M  END
