1
 OpenBabel05122313063D

 22 23  0  0  0  0  0  0  0  0999 V2000
    0.2953    0.4236   -0.6297 N   0  0  0  0  0  2  0  0  0  0  0  0
    1.4347   -0.2392   -0.4265 C   0  0  0  0  0  3  0  0  0  0  0  0
    2.4642    0.6329   -0.2169 N   0  0  0  0  0  0  0  0  0  0  0  0
    1.9558    1.9307   -0.2982 C   0  0  0  0  0  0  0  0  0  0  0  0
    2.7911    3.1582   -0.1757 C   0  0  0  0  0  0  0  0  0  0  0  0
    2.2108    4.0381   -0.5090 H   0  0  0  0  0  0  0  0  0  0  0  0
    3.7042    3.0880   -0.8006 H   0  0  0  0  0  0  0  0  0  0  0  0
    3.1209    3.3456    0.8666 H   0  0  0  0  0  0  0  0  0  0  0  0
    0.6042    1.7699   -0.5561 C   0  0  0  0  0  0  0  0  0  0  0  0
    3.8312    0.2495   -0.0133 C   0  0  0  0  0  0  0  0  0  0  0  0
    4.4729   -0.5374   -0.9854 C   0  0  0  0  0  0  0  0  0  0  0  0
    3.9332   -0.8257   -1.8996 H   0  0  0  0  0  0  0  0  0  0  0  0
    5.8049   -0.9269   -0.7833 C   0  0  0  0  0  0  0  0  0  0  0  0
    6.3120   -1.5413   -1.5417 H   0  0  0  0  0  0  0  0  0  0  0  0
    6.4914   -0.5218    0.3722 C   0  0  0  0  0  0  0  0  0  0  0  0
    7.5386   -0.8223    0.5230 H   0  0  0  0  0  0  0  0  0  0  0  0
    5.8429    0.2681    1.3354 C   0  0  0  0  0  0  0  0  0  0  0  0
    6.3777    0.5811    2.2442 H   0  0  0  0  0  0  0  0  0  0  0  0
    4.5073    0.6522    1.1512 C   0  0  0  0  0  0  0  0  0  0  0  0
    3.9845    1.2483    1.9127 H   0  0  0  0  0  0  0  0  0  0  0  0
   -0.1463    2.5514   -0.7114 H   0  0  0  0  0  0  0  0  0  0  0  0
    1.5669   -1.3261   -0.4167 H   0  0  0  0  0  0  0  0  0  0  0  0
  1  9  1  0  0  0  0
  1  2  1  0  0  0  0
  2 22  1  0  0  0  0
  2  3  1  0  0  0  0
  3 10  1  0  0  0  0
  4  3  1  0  0  0  0
  4  5  1  0  0  0  0
  5  8  1  0  0  0  0
  6  5  1  0  0  0  0
  7  5  1  0  0  0  0
  9  4  2  0  0  0  0
 10 19  1  0  0  0  0
 11 13  1  0  0  0  0
 11 10  2  0  0  0  0
 12 11  1  0  0  0  0
 13 15  2  0  0  0  0
 14 13  1  0  0  0  0
 15 16  1  0  0  0  0
 15 17  1  0  0  0  0
 17 18  1  0  0  0  0
 19 17  2  0  0  0  0
 19 20  1  0  0  0  0
 21  9  1  0  0  0  0
M  END
