46
 OpenBabel05122313063D

 46 48  0  0  0  0  0  0  0  0999 V2000
    5.6348   -2.6912   -0.5612 C   0  0  0  0  0  0  0  0  0  0  0  0
    6.3869   -2.0859   -1.1116 H   0  0  0  0  0  0  0  0  0  0  0  0
    5.9393   -3.7541   -0.6442 H   0  0  0  0  0  0  0  0  0  0  0  0
    5.7098   -2.4176    0.5118 H   0  0  0  0  0  0  0  0  0  0  0  0
    4.2252   -2.4710   -1.1131 C   0  0  0  0  0  0  0  0  0  0  0  0
    4.1739   -2.8488   -2.1569 H   0  0  0  0  0  0  0  0  0  0  0  0
    3.4882   -3.0721   -0.5384 H   0  0  0  0  0  0  0  0  0  0  0  0
    3.7537   -1.0122   -1.1154 C   0  0  0  0  0  0  0  0  0  0  0  0
    2.7464   -0.9598   -1.5794 H   0  0  0  0  0  0  0  0  0  0  0  0
    4.4293   -0.3907   -1.7464 H   0  0  0  0  0  0  0  0  0  0  0  0
    3.6648   -0.3894    0.2958 C   0  0  0  0  0  0  0  0  0  0  0  0
    3.0361   -1.0491    0.9302 H   0  0  0  0  0  0  0  0  0  0  0  0
    4.6702   -0.3194    0.7580 H   0  0  0  0  0  0  0  0  0  0  0  0
    3.0304    0.9717    0.2523 C   0  0  0  0  0  0  0  0  0  0  0  0
    3.7964    2.1734    0.2710 C   0  0  0  0  0  0  0  0  0  0  0  0
    4.8900    2.1190    0.3766 H   0  0  0  0  0  0  0  0  0  0  0  0
    3.1508    3.3949    0.1525 C   0  0  0  0  0  0  0  0  0  0  0  0
    3.7197    4.3377    0.1605 H   0  0  0  0  0  0  0  0  0  0  0  0
    1.7377    3.4419    0.0149 C   0  0  0  0  0  0  0  0  0  0  0  0
    1.0117    4.6695   -0.1299 C   0  0  0  0  0  0  0  0  0  0  0  0
    1.5695    5.6185   -0.1301 H   0  0  0  0  0  0  0  0  0  0  0  0
   -0.3531    4.6577   -0.2725 C   0  0  0  0  0  3  0  0  0  0  0  0
   -0.9171    5.5948   -0.3916 H   0  0  0  0  0  0  0  0  0  0  0  0
   -1.0874    3.4231   -0.2683 C   0  0  0  0  0  0  0  0  0  0  0  0
   -2.4948    3.3927   -0.4160 C   0  0  0  0  0  0  0  0  0  0  0  0
   -3.0423    4.3394   -0.5410 H   0  0  0  0  0  0  0  0  0  0  0  0
   -3.1700    2.1841   -0.4020 C   0  0  0  0  0  0  0  0  0  0  0  0
   -4.2600    2.1479   -0.5173 H   0  0  0  0  0  0  0  0  0  0  0  0
   -2.4569    0.9728   -0.2271 C   0  0  0  0  0  0  0  0  0  0  0  0
   -3.1476   -0.3636   -0.1822 C   0  0  0  0  0  0  0  0  0  0  0  0
   -2.6653   -1.0059   -0.9541 H   0  0  0  0  0  0  0  0  0  0  0  0
   -2.8831   -0.8335    0.7928 H   0  0  0  0  0  0  0  0  0  0  0  0
   -4.6642   -0.3694   -0.3687 C   0  0  0  0  0  0  0  0  0  0  0  0
   -4.9303    0.0946   -1.3446 H   0  0  0  0  0  0  0  0  0  0  0  0
   -5.1488    0.2536    0.4159 H   0  0  0  0  0  0  0  0  0  0  0  0
   -5.2437   -1.7871   -0.3120 C   0  0  0  0  0  0  0  0  0  0  0  0
   -4.7521   -2.4097   -1.0913 H   0  0  0  0  0  0  0  0  0  0  0  0
   -4.9656   -2.2524    0.6590 H   0  0  0  0  0  0  0  0  0  0  0  0
   -6.7605   -1.8265   -0.4933 C   0  0  0  0  0  0  0  0  0  0  0  0
   -7.2778   -1.2412    0.2956 H   0  0  0  0  0  0  0  0  0  0  0  0
   -7.1491   -2.8632   -0.4478 H   0  0  0  0  0  0  0  0  0  0  0  0
   -7.0622   -1.3996   -1.4728 H   0  0  0  0  0  0  0  0  0  0  0  0
   -0.4048    2.1741   -0.1110 C   0  0  0  0  0  0  0  0  0  0  0  0
    1.0482    2.1854    0.0193 C   0  0  0  0  0  0  0  0  0  0  0  0
    1.7030    1.0164    0.1309 N   0  0  0  0  0  0  0  0  0  0  0  0
   -1.1139    1.0045   -0.0882 N   0  0  0  0  0  2  0  0  0  0  0  0
  1  4  1  0  0  0  0
  2  1  1  0  0  0  0
  3  1  1  0  0  0  0
  5  1  1  0  0  0  0
  5  7  1  0  0  0  0
  6  5  1  0  0  0  0
  8  5  1  0  0  0  0
  8 11  1  0  0  0  0
  9  8  1  0  0  0  0
 10  8  1  0  0  0  0
 11 13  1  0  0  0  0
 11 12  1  0  0  0  0
 14 15  1  0  0  0  0
 14 11  1  0  0  0  0
 15 16  1  0  0  0  0
 17 18  1  0  0  0  0
 17 15  2  0  0  0  0
 19 44  1  0  0  0  0
 19 17  1  0  0  0  0
 20 19  2  0  0  0  0
 21 20  1  0  0  0  0
 22 24  1  0  0  0  0
 22 20  1  0  0  0  0
 23 22  1  0  0  0  0
 24 43  1  0  0  0  0
 25 27  1  0  0  0  0
 25 24  2  0  0  0  0
 26 25  1  0  0  0  0
 27 29  2  0  0  0  0
 28 27  1  0  0  0  0
 29 30  1  0  0  0  0
 29 46  1  0  0  0  0
 30 32  1  0  0  0  0
 31 30  1  0  0  0  0
 33 36  1  0  0  0  0
 33 30  1  0  0  0  0
 33 35  1  0  0  0  0
 34 33  1  0  0  0  0
 36 38  1  0  0  0  0
 37 36  1  0  0  0  0
 39 41  1  0  0  0  0
 39 36  1  0  0  0  0
 39 40  1  0  0  0  0
 42 39  1  0  0  0  0
 43 46  1  0  0  0  0
 43 44  2  0  0  0  0
 44 45  1  0  0  0  0
 45 14  2  0  0  0  0
M  END
