1
 OpenBabel05122313063D

 13 13  0  0  0  0  0  0  0  0999 V2000
    1.3731   -0.8527    0.2795 N   0  0  0  0  0  2  0  0  0  0  0  0
    1.5978   -1.7008    1.3134 C   0  0  0  0  0  3  0  0  0  0  0  0
    3.6294   -0.0071    0.5157 C   0  0  0  0  0  0  0  0  0  0  0  0
    2.3729   -0.0539   -0.1248 C   0  0  0  0  0  0  0  0  0  0  0  0
    2.8268   -1.7641    1.9802 C   0  0  0  0  0  0  0  0  0  0  0  0
    3.8565   -0.8974    1.5935 C   0  0  0  0  0  0  0  0  0  0  0  0
    0.7667   -2.3664    1.5880 H   0  0  0  0  0  0  0  0  0  0  0  0
    2.1953    0.5935   -0.9971 H   0  0  0  0  0  0  0  0  0  0  0  0
    4.8379   -0.9425    2.0946 H   0  0  0  0  0  0  0  0  0  0  0  0
    2.9663   -2.4920    2.7925 H   0  0  0  0  0  0  0  0  0  0  0  0
    5.4785    1.3879    0.8086 O   0  0  0  0  0  0  0  0  0  0  0  0
    4.6564    0.8795   -0.0613 C   0  0  0  0  0  2  0  0  0  0  0  0
    5.2752    1.1626    1.7682 H   0  0  0  0  0  0  0  0  0  0  0  0
  1  2  1  0  0  0  0
  2  7  1  0  0  0  0
  2  5  1  0  0  0  0
  3  6  1  0  0  0  0
  4  1  1  0  0  0  0
  4  3  2  0  0  0  0
  5 10  1  0  0  0  0
  6  5  2  0  0  0  0
  6  9  1  0  0  0  0
  8  4  1  0  0  0  0
 11 13  1  0  0  0  0
 12  3  1  0  0  0  0
 12 11  1  0  0  0  0
M  END
