58
 OpenBabel05122313063D

 59 61  0  0  1  0  0  0  0  0999 V2000
    2.3462   -1.9717   -0.2927 C   0  0  0  0  0  0  0  0  0  0  0  0
    1.7290   -0.8693    0.3509 C   0  0  0  0  0  0  0  0  0  0  0  0
    2.2441   -0.2961    1.5418 C   0  0  0  0  0  0  0  0  0  0  0  0
    3.4333   -0.8413    2.0584 C   0  0  0  0  0  0  0  0  0  0  0  0
    3.8557   -0.4203    2.9829 H   0  0  0  0  0  0  0  0  0  0  0  0
    4.0810   -1.9096    1.4275 C   0  0  0  0  0  0  0  0  0  0  0  0
    5.0114   -2.3167    1.8514 H   0  0  0  0  0  0  0  0  0  0  0  0
    3.5360   -2.4693    0.2657 C   0  0  0  0  0  0  0  0  0  0  0  0
    4.0405   -3.3195   -0.2182 H   0  0  0  0  0  0  0  0  0  0  0  0
    1.7556   -2.6219   -1.5400 C   0  0  0  0  0  0  0  0  0  0  0  0
    0.8412   -2.0556   -1.8145 H   0  0  0  0  0  0  0  0  0  0  0  0
    1.3188   -4.0681   -1.2469 C   0  0  0  0  0  0  0  0  0  0  0  0
    0.8149   -4.5058   -2.1330 H   0  0  0  0  0  0  0  0  0  0  0  0
    0.6188   -4.0962   -0.3888 H   0  0  0  0  0  0  0  0  0  0  0  0
    2.1925   -4.7082   -1.0040 H   0  0  0  0  0  0  0  0  0  0  0  0
    2.7170   -2.5620   -2.7394 C   0  0  0  0  0  0  0  0  0  0  0  0
    3.0012   -1.5214   -2.9990 H   0  0  0  0  0  0  0  0  0  0  0  0
    2.2446   -3.0130   -3.6357 H   0  0  0  0  0  0  0  0  0  0  0  0
    3.6533   -3.1232   -2.5395 H   0  0  0  0  0  0  0  0  0  0  0  0
    1.5222    0.8136    2.2950 C   0  0  0  0  0  0  0  0  0  0  0  0
    0.7784    1.2667    1.6121 H   0  0  0  0  0  0  0  0  0  0  0  0
    2.4632    1.9445    2.7349 C   0  0  0  0  0  0  0  0  0  0  0  0
    3.1857    1.6051    3.5055 H   0  0  0  0  0  0  0  0  0  0  0  0
    1.8789    2.7753    3.1803 H   0  0  0  0  0  0  0  0  0  0  0  0
    3.0393    2.3497    1.8792 H   0  0  0  0  0  0  0  0  0  0  0  0
    0.7343    0.2259    3.4808 C   0  0  0  0  0  0  0  0  0  0  0  0
    0.0611   -0.5896    3.1473 H   0  0  0  0  0  0  0  0  0  0  0  0
    0.1309    1.0158    3.9751 H   0  0  0  0  0  0  0  0  0  0  0  0
    1.4247   -0.2008    4.2380 H   0  0  0  0  0  0  0  0  0  0  0  0
    2.8235    1.2524   -1.5138 C   0  0  0  0  0  0  0  0  0  0  0  0
    2.9121    0.2054   -1.8296 H   0  0  0  0  0  0  0  0  0  0  0  0
    3.9128    2.1190   -1.6627 C   0  0  0  0  0  0  0  0  0  0  0  0
    4.8501    1.7402   -2.0969 H   0  0  0  0  0  0  0  0  0  0  0  0
    3.8123    3.4592   -1.2561 C   0  0  0  0  0  0  0  0  0  0  0  0
    4.6730    4.1362   -1.3652 H   0  0  0  0  0  0  0  0  0  0  0  0
    2.6091    3.9305   -0.7088 C   0  0  0  0  0  0  0  0  0  0  0  0
    2.5226    4.9770   -0.3801 H   0  0  0  0  0  0  0  0  0  0  0  0
    1.5105    3.0715   -0.5690 C   0  0  0  0  0  0  0  0  0  0  0  0
    0.5783    3.4446   -0.1239 H   0  0  0  0  0  0  0  0  0  0  0  0
    1.6077    1.7172   -0.9650 C   0  0  0  0  0  0  0  0  0  0  0  0
    0.4416    0.8107   -0.8105 C   0  0  1  0  0  3  0  0  0  0  0  0
   -2.0435    3.4787   -0.7973 C   0  0  0  0  0  0  0  0  0  0  0  0
   -1.8778    3.8216   -1.8276 H   0  0  0  0  0  0  0  0  0  0  0  0
   -2.6860    4.3365    0.1103 C   0  0  0  0  0  0  0  0  0  0  0  0
   -3.0179    5.3309   -0.2254 H   0  0  0  0  0  0  0  0  0  0  0  0
   -2.9047    3.9316    1.4350 C   0  0  0  0  0  0  0  0  0  0  0  0
   -3.4048    4.6066    2.1460 H   0  0  0  0  0  0  0  0  0  0  0  0
   -2.4823    2.6565    1.8450 C   0  0  0  0  0  0  0  0  0  0  0  0
   -2.6482    2.3213    2.8802 H   0  0  0  0  0  0  0  0  0  0  0  0
   -1.8439    1.8003    0.9385 C   0  0  0  0  0  0  0  0  0  0  0  0
   -1.5318    0.7949    1.2699 H   0  0  0  0  0  0  0  0  0  0  0  0
   -1.6120    2.1993   -0.3962 C   0  0  0  0  0  0  0  0  0  0  0  0
   -0.9333    1.2120   -1.3747 C   0  0  1  0  0  0  0  0  0  0  0  0
   -0.7608    1.7756   -2.7934 C   0  0  0  0  0  0  0  0  0  0  0  0
   -0.1685    2.7092   -2.8152 H   0  0  0  0  0  0  0  0  0  0  0  0
   -1.7602    1.9634   -3.2299 H   0  0  0  0  0  0  0  0  0  0  0  0
   -0.2502    1.0183   -3.4178 H   0  0  0  0  0  0  0  0  0  0  0  0
    0.5131   -0.3558   -0.2141 N   0  0  0  0  0  2  0  0  0  0  0  0
   -1.7153    0.0277   -1.5003 O   0  0  0  0  0  1  0  0  0  0  0  0
  1  8  2  0  0  0  0
  1  2  1  0  0  0  0
  2  3  2  0  0  0  0
  3  4  1  0  0  0  0
  3 20  1  0  0  0  0
  4  5  1  0  0  0  0
  6  7  1  0  0  0  0
  6  4  2  0  0  0  0
  8  6  1  0  0  0  0
  9  8  1  0  0  0  0
 10 12  1  0  0  0  0
 10  1  1  0  0  0  0
 11 10  1  0  0  0  0
 12 15  1  0  0  0  0
 12 14  1  0  0  0  0
 13 12  1  0  0  0  0
 16 19  1  0  0  0  0
 16 10  1  0  0  0  0
 17 16  1  0  0  0  0
 18 16  1  0  0  0  0
 20 22  1  0  0  0  0
 20 26  1  0  0  0  0
 21 20  1  0  0  0  0
 22 24  1  0  0  0  0
 22 23  1  0  0  0  0
 25 22  1  0  0  0  0
 26 28  1  0  0  0  0
 26 29  1  0  0  0  0
 27 26  1  0  0  0  0
 30 40  1  0  0  0  0
 31 30  1  0  0  0  0
 32 30  2  0  0  0  0
 32 34  1  0  0  0  0
 33 32  1  0  0  0  0
 34 36  2  0  0  0  0
 35 34  1  0  0  0  0
 36 38  1  0  0  0  0
 36 37  1  0  0  0  0
 38 39  1  0  0  0  0
 40 41  1  0  0  0  0
 40 38  2  0  0  0  0
 41 58  1  6  0  0  0
 42 52  2  0  0  0  0
 42 44  1  0  0  0  0
 43 42  1  0  0  0  0
 44 46  2  0  0  0  0
 45 44  1  0  0  0  0
 46 48  1  0  0  0  0
 46 47  1  0  0  0  0
 48 49  1  0  0  0  0
 50 51  1  0  0  0  0
 50 48  2  0  0  0  0
 52 50  1  0  0  0  0
 53 59  1  6  0  0  0
 53 41  1  0  0  0  0
 53 52  1  0  0  0  0
 54 53  1  0  0  0  0
 55 54  1  0  0  0  0
 56 54  1  0  0  0  0
 57 54  1  0  0  0  0
 58  2  1  0  0  0  0
M  END
