2
 OpenBabel05122313063D

 22 24  0  0  0  0  0  0  0  0999 V2000
    4.8722   -0.9041    0.0912 S   0  0  0  0  0  0  0  0  0  0  0  0
    1.9440    0.1897   -0.1761 N   0  0  0  0  0  2  0  0  0  0  0  0
    2.9131    1.0978    0.2320 C   0  0  0  0  0  0  0  0  0  0  0  0
    4.2967    0.7677    0.3276 C   0  0  0  0  0  0  0  0  0  0  0  0
    5.2362    1.7382    0.7115 C   0  0  0  0  0  0  0  0  0  0  0  0
    4.8276    3.0429    1.0351 C   0  0  0  0  0  0  0  0  0  0  0  0
    3.4670    3.3806    0.9520 C   0  0  0  0  0  0  0  0  0  0  0  0
    2.5284    2.4249    0.5439 C   0  0  0  0  0  0  0  0  0  0  0  0
    2.2793   -0.9646   -0.8604 C   0  0  0  0  0  0  0  0  0  0  0  0
    3.5481   -1.5950   -0.8731 C   0  0  0  0  0  0  0  0  0  0  0  0
    3.7146   -2.8277   -1.5293 C   0  0  0  0  0  0  0  0  0  0  0  0
    2.6145   -3.4732   -2.1287 C   0  0  0  0  0  0  0  0  0  0  0  0
    1.3410   -2.8819   -2.0911 C   0  0  0  0  0  0  0  0  0  0  0  0
    1.1821   -1.6273   -1.4776 C   0  0  0  0  0  0  0  0  0  0  0  0
    6.2999    1.4593    0.7698 H   0  0  0  0  0  0  0  0  0  0  0  0
    5.5739    3.7891    1.3449 H   0  0  0  0  0  0  0  0  0  0  0  0
    3.1337    4.4014    1.1943 H   0  0  0  0  0  0  0  0  0  0  0  0
    1.4604    2.6752    0.4503 H   0  0  0  0  0  0  0  0  0  0  0  0
    4.7098   -3.2981   -1.5483 H   0  0  0  0  0  0  0  0  0  0  0  0
    2.7603   -4.4428   -2.6273 H   0  0  0  0  0  0  0  0  0  0  0  0
    0.4746   -3.3846   -2.5470 H   0  0  0  0  0  0  0  0  0  0  0  0
    0.1725   -1.1323   -1.5728 H   0  0  0  0  0  0  0  0  0  0  0  0
  1  4  1  0  0  0  0
  2  3  1  0  0  0  0
  3  4  2  0  0  0  0
  3  8  1  0  0  0  0
  4  5  1  0  0  0  0
  5 15  1  0  0  0  0
  5  6  2  0  0  0  0
  6 16  1  0  0  0  0
  7  6  1  0  0  0  0
  7 17  1  0  0  0  0
  8  7  2  0  0  0  0
  9  2  1  0  0  0  0
 10  9  1  0  0  0  0
 10  1  1  0  0  0  0
 11 10  2  0  0  0  0
 12 13  2  0  0  0  0
 12 11  1  0  0  0  0
 13 14  1  0  0  0  0
 14  9  2  0  0  0  0
 18  8  1  0  0  0  0
 19 11  1  0  0  0  0
 20 12  1  0  0  0  0
 21 13  1  0  0  0  0
 22 14  1  0  0  0  0
M  END
