1
 OpenBabel05122313063D

 11 11  0  0  1  0  0  0  0  0999 V2000
    3.5448    0.8342    0.5349 N   0  0  0  0  0  0  0  0  0  0  0  0
    3.7469    1.4443    1.3379 H   0  0  0  0  0  0  0  0  0  0  0  0
    4.5054    1.0470   -0.5837 C   0  0  0  0  0  0  0  0  0  0  0  0
    4.0703    0.9310   -1.5882 H   0  0  0  0  0  0  0  0  0  0  0  0
    5.2080    1.8869   -0.4697 H   0  0  0  0  0  0  0  0  0  0  0  0
    4.6406   -0.1531    0.2843 C   0  0  2  0  0  0  0  0  0  0  0  0
    5.4393   -0.1112    1.0451 H   0  0  0  0  0  0  0  0  0  0  0  0
    4.2583   -1.5350   -0.1721 C   0  0  0  0  0  0  0  0  0  0  0  0
    5.1384   -2.0385   -0.6192 H   0  0  0  0  0  0  0  0  0  0  0  0
    3.4551   -1.5014   -0.9355 H   0  0  0  0  0  0  0  0  0  0  0  0
    3.9103   -2.1503    0.6815 H   0  0  0  0  0  0  0  0  0  0  0  0
  1  2  1  0  0  0  0
  3  5  1  0  0  0  0
  3  6  1  0  0  0  0
  3  1  1  0  0  0  0
  4  3  1  0  0  0  0
  6  1  1  0  0  0  0
  6  7  1  1  0  0  0
  8  6  1  0  0  0  0
  8 11  1  0  0  0  0
  9  8  1  0  0  0  0
 10  8  1  0  0  0  0
M  END
