1
 OpenBabel05122313063D

 34 35  0  0  1  0  0  0  0  0999 V2000
   -0.5282    0.1743    1.0432 N   0  0  0  0  0  2  0  0  0  0  0  0
    0.5285    0.4679    0.1889 C   0  0  1  0  0  3  0  0  0  0  0  0
    0.2077    1.8688   -0.3334 C   0  0  0  0  0  0  0  0  0  0  0  0
   -0.9569    2.2937    0.1855 N   0  0  0  0  0  0  0  0  0  0  0  0
   -1.3888    1.2732    0.9580 C   0  0  2  0  0  3  0  0  0  0  0  0
    0.9587    2.6619   -1.1039 N   0  0  0  0  0  0  0  0  0  0  0  0
    0.5751    4.0596   -1.3102 C   0  0  0  0  0  0  0  0  0  0  0  0
    2.1854    2.2443   -1.7725 C   0  0  0  0  0  0  0  0  0  0  0  0
   -2.5518    1.2948    1.6185 N   0  0  0  0  0  0  0  0  0  0  0  0
   -2.9719    0.1648    2.4328 C   0  0  0  0  0  0  0  0  0  0  0  0
   -3.5063    2.3797    1.4201 C   0  0  0  0  0  0  0  0  0  0  0  0
    1.9221    0.1039    0.6176 C   0  0  0  0  0  0  0  0  0  0  0  0
    2.8765   -0.4949   -0.2300 C   0  0  0  0  0  0  0  0  0  0  0  0
    4.1616   -0.7959    0.2406 C   0  0  0  0  0  0  0  0  0  0  0  0
    4.5121   -0.5074    1.5703 C   0  0  0  0  0  0  0  0  0  0  0  0
    2.2810    0.3826    1.9539 C   0  0  0  0  0  0  0  0  0  0  0  0
    3.5671    0.0796    2.4254 C   0  0  0  0  0  0  0  0  0  0  0  0
   -0.2733    4.3096   -0.6528 H   0  0  0  0  0  0  0  0  0  0  0  0
    1.4418    4.7126   -1.0824 H   0  0  0  0  0  0  0  0  0  0  0  0
    0.2821    4.2181   -2.3686 H   0  0  0  0  0  0  0  0  0  0  0  0
    2.1698    1.1680   -1.9938 H   0  0  0  0  0  0  0  0  0  0  0  0
    2.2629    2.7903   -2.7319 H   0  0  0  0  0  0  0  0  0  0  0  0
    3.0781    2.4786   -1.1562 H   0  0  0  0  0  0  0  0  0  0  0  0
   -2.0836   -0.4037    2.7584 H   0  0  0  0  0  0  0  0  0  0  0  0
   -3.5201    0.5394    3.3185 H   0  0  0  0  0  0  0  0  0  0  0  0
   -3.6496   -0.5060    1.8603 H   0  0  0  0  0  0  0  0  0  0  0  0
   -3.0335    3.1716    0.8154 H   0  0  0  0  0  0  0  0  0  0  0  0
   -4.4047    1.9995    0.8898 H   0  0  0  0  0  0  0  0  0  0  0  0
   -3.8184    2.7882    2.4020 H   0  0  0  0  0  0  0  0  0  0  0  0
    2.6065   -0.7542   -1.2646 H   0  0  0  0  0  0  0  0  0  0  0  0
    4.8921   -1.2691   -0.4324 H   0  0  0  0  0  0  0  0  0  0  0  0
    5.5201   -0.7468    1.9399 H   0  0  0  0  0  0  0  0  0  0  0  0
    1.5362    0.8333    2.6264 H   0  0  0  0  0  0  0  0  0  0  0  0
    3.8309    0.3036    3.4698 H   0  0  0  0  0  0  0  0  0  0  0  0
  2 12  1  1  0  0  0
  2  1  1  0  0  0  0
  3  4  2  0  0  0  0
  3  2  1  0  0  0  0
  4  5  1  0  0  0  0
  5  1  1  0  0  0  0
  5  9  1  1  0  0  0
  6  3  1  0  0  0  0
  7  6  1  0  0  0  0
  7 19  1  0  0  0  0
  7 18  1  0  0  0  0
  8 23  1  0  0  0  0
  8  6  1  0  0  0  0
  9 10  1  0  0  0  0
 10 24  1  0  0  0  0
 10 25  1  0  0  0  0
 11  9  1  0  0  0  0
 11 29  1  0  0  0  0
 12 16  1  0  0  0  0
 13 14  1  0  0  0  0
 13 12  2  0  0  0  0
 14 15  2  0  0  0  0
 15 32  1  0  0  0  0
 15 17  1  0  0  0  0
 16 17  2  0  0  0  0
 16 33  1  0  0  0  0
 17 34  1  0  0  0  0
 20  7  1  0  0  0  0
 21  8  1  0  0  0  0
 22  8  1  0  0  0  0
 26 10  1  0  0  0  0
 27 11  1  0  0  0  0
 28 11  1  0  0  0  0
 30 13  1  0  0  0  0
 31 14  1  0  0  0  0
M  END
