4
 OpenBabel05122313063D

 15 15  0  0  0  0  0  0  0  0999 V2000
   -5.6968    1.7806    0.4712 S   0  0  0  0  0  0  0  0  0  0  0  0
   -6.7175   -0.9741   -0.3009 S   0  0  0  0  0  0  0  0  0  0  0  0
   -4.1670   -0.3899    0.0317 N   0  0  0  0  0  0  0  0  0  0  0  0
   -1.9598   -0.5220   -0.0123 N   0  0  0  0  0  2  0  0  0  0  0  0
   -8.2028    0.0297   -0.0793 C   0  0  0  0  0  0  0  0  0  0  0  0
   -9.0499   -0.6474   -0.3004 H   0  0  0  0  0  0  0  0  0  0  0  0
   -8.2608    0.4056    0.9600 H   0  0  0  0  0  0  0  0  0  0  0  0
   -8.1911    0.8867   -0.7792 H   0  0  0  0  0  0  0  0  0  0  0  0
   -5.4556    0.1980    0.0926 C   0  0  0  0  0  0  0  0  0  0  0  0
   -3.8399   -1.7470   -0.1041 C   0  0  0  0  0  0  0  0  0  0  0  0
   -4.6011   -2.5304   -0.1476 H   0  0  0  0  0  0  0  0  0  0  0  0
   -2.9833    0.3150    0.0830 C   0  0  0  0  0  3  0  0  0  0  0  0
   -2.9154    1.4061    0.1498 H   0  0  0  0  0  0  0  0  0  0  0  0
   -2.4713   -1.8135   -0.1245 C   0  0  0  0  0  0  0  0  0  0  0  0
   -1.7924   -2.6714   -0.1772 H   0  0  0  0  0  0  0  0  0  0  0  0
  2  5  1  0  0  0  0
  2  9  1  0  0  0  0
  3 12  1  0  0  0  0
  3  9  1  0  0  0  0
  4 12  1  0  0  0  0
  5  7  1  0  0  0  0
  6  5  1  0  0  0  0
  8  5  1  0  0  0  0
  9  1  2  0  0  0  0
 10  3  1  0  0  0  0
 11 10  1  0  0  0  0
 12 13  1  0  0  0  0
 14 10  2  0  0  0  0
 14  4  1  0  0  0  0
 15 14  1  0  0  0  0
M  END
