2
 OpenBabel05122313063D

 20 19  0  0  1  0  0  0  0  0999 V2000
   -0.6625   -0.1399   -1.8387 O   0  0  0  0  0  1  0  0  0  0  0  0
   -1.4432    0.1189   -0.7893 N   0  0  0  0  0  2  0  0  0  0  0  0
   -2.5826    0.7399   -0.8349 C   0  0  1  0  0  3  0  0  0  0  0  0
   -3.0447    1.2825   -2.1568 C   0  0  0  0  0  0  0  0  0  0  0  0
   -3.4921    0.8195    0.3959 C   0  0  0  0  0  0  0  0  0  0  0  0
   -2.7350    0.7258    1.7319 C   0  0  0  0  0  0  0  0  0  0  0  0
   -4.2888    2.1414    0.3794 C   0  0  0  0  0  0  0  0  0  0  0  0
   -4.4745   -0.3755    0.2859 C   0  0  0  0  0  0  0  0  0  0  0  0
   -2.4178    0.9022   -2.9826 H   0  0  0  0  0  0  0  0  0  0  0  0
   -4.1013    1.0098   -2.3477 H   0  0  0  0  0  0  0  0  0  0  0  0
   -2.9973    2.3916   -2.1562 H   0  0  0  0  0  0  0  0  0  0  0  0
   -2.0369   -0.1293    1.7581 H   0  0  0  0  0  0  0  0  0  0  0  0
   -2.1510    1.6433    1.9367 H   0  0  0  0  0  0  0  0  0  0  0  0
   -3.4622    0.6087    2.5590 H   0  0  0  0  0  0  0  0  0  0  0  0
   -3.6131    3.0204    0.3859 H   0  0  0  0  0  0  0  0  0  0  0  0
   -4.9583    2.2239   -0.4981 H   0  0  0  0  0  0  0  0  0  0  0  0
   -4.9247    2.1996    1.2846 H   0  0  0  0  0  0  0  0  0  0  0  0
   -5.0342   -0.3658   -0.6703 H   0  0  0  0  0  0  0  0  0  0  0  0
   -3.9350   -1.3416    0.3557 H   0  0  0  0  0  0  0  0  0  0  0  0
   -5.2159   -0.3335    1.1090 H   0  0  0  0  0  0  0  0  0  0  0  0
  1  2  1  0  0  0  0
  3  2  1  6  0  0  0
  3  5  1  0  0  0  0
  4 11  1  0  0  0  0
  4  3  1  0  0  0  0
  5  6  1  0  0  0  0
  6 12  1  0  0  0  0
  6 13  1  0  0  0  0
  6 14  1  0  0  0  0
  7 15  1  0  0  0  0
  7  5  1  0  0  0  0
  7 17  1  0  0  0  0
  8 19  1  0  0  0  0
  8  5  1  0  0  0  0
  8 20  1  0  0  0  0
  9  4  1  0  0  0  0
 10  4  1  0  0  0  0
 16  7  1  0  0  0  0
 18  8  1  0  0  0  0
M  END
