1
 OpenBabel05122313063D

 30 30  0  0  0  0  0  0  0  0999 V2000
   -1.9738    1.8040    0.7820 N   0  0  0  0  0  2  0  0  0  0  0  0
   -1.7744    2.5089    1.9257 C   0  0  0  0  0  3  0  0  0  0  0  0
   -1.8988    1.9473    2.8649 H   0  0  0  0  0  0  0  0  0  0  0  0
   -1.4172    3.8579    1.9359 C   0  0  0  0  0  0  0  0  0  0  0  0
   -1.2720    4.3774    2.8938 H   0  0  0  0  0  0  0  0  0  0  0  0
   -1.2305    4.5135    0.7083 C   0  0  0  0  0  0  0  0  0  0  0  0
   -0.9208    5.5683    0.6726 H   0  0  0  0  0  0  0  0  0  0  0  0
   -1.4526    3.7940   -0.4727 C   0  0  0  0  0  0  0  0  0  0  0  0
   -1.3265    4.2684   -1.4570 H   0  0  0  0  0  0  0  0  0  0  0  0
   -1.8461    2.4487   -0.4084 C   0  0  0  0  0  0  0  0  0  0  0  0
   -2.2774    1.7069   -1.6585 C   0  0  0  0  0  0  0  0  0  0  0  0
   -3.3874    1.6682   -1.6451 H   0  0  0  0  0  0  0  0  0  0  0  0
   -1.9655    2.3055   -2.5393 H   0  0  0  0  0  0  0  0  0  0  0  0
   -1.8334    0.3352   -1.8183 N   0  0  0  0  0  0  0  0  0  0  0  0
   -2.5530   -0.4029   -1.7132 H   0  0  0  0  0  0  0  0  0  0  0  0
   -0.5213    0.0203   -2.0069 C   0  0  0  0  0  0  0  0  0  0  0  0
    0.3654    0.8777   -1.8401 O   0  0  0  0  0  0  0  0  0  0  0  0
   -0.1941   -1.3945   -2.5426 C   0  0  0  0  0  0  0  0  0  0  0  0
    0.8542   -2.0632   -1.6358 C   0  0  0  0  0  0  0  0  0  0  0  0
    1.2609   -2.9664   -2.1335 H   0  0  0  0  0  0  0  0  0  0  0  0
    0.4124   -2.3792   -0.6731 H   0  0  0  0  0  0  0  0  0  0  0  0
    1.6942   -1.3767   -1.4218 H   0  0  0  0  0  0  0  0  0  0  0  0
   -1.4281   -2.3014   -2.6704 C   0  0  0  0  0  0  0  0  0  0  0  0
   -1.1134   -3.3090   -3.0089 H   0  0  0  0  0  0  0  0  0  0  0  0
   -2.1475   -1.9122   -3.4195 H   0  0  0  0  0  0  0  0  0  0  0  0
   -1.9707   -2.4163   -1.7091 H   0  0  0  0  0  0  0  0  0  0  0  0
    0.4249   -1.1535   -3.9398 C   0  0  0  0  0  0  0  0  0  0  0  0
    1.3362   -0.5291   -3.8645 H   0  0  0  0  0  0  0  0  0  0  0  0
   -0.2918   -0.6422   -4.6147 H   0  0  0  0  0  0  0  0  0  0  0  0
    0.6960   -2.1249   -4.4010 H   0  0  0  0  0  0  0  0  0  0  0  0
  1  2  1  0  0  0  0
  2  4  1  0  0  0  0
  2  3  1  0  0  0  0
  4  5  1  0  0  0  0
  6  4  2  0  0  0  0
  7  6  1  0  0  0  0
  8 10  2  0  0  0  0
  8  6  1  0  0  0  0
  9  8  1  0  0  0  0
 10  1  1  0  0  0  0
 11 12  1  0  0  0  0
 11 10  1  0  0  0  0
 13 11  1  0  0  0  0
 14 15  1  0  0  0  0
 14 11  1  0  0  0  0
 16 17  2  0  0  0  0
 16 14  1  0  0  0  0
 18 16  1  0  0  0  0
 18 19  1  0  0  0  0
 19 22  1  0  0  0  0
 19 21  1  0  0  0  0
 20 19  1  0  0  0  0
 23 18  1  0  0  0  0
 23 26  1  0  0  0  0
 24 23  1  0  0  0  0
 25 23  1  0  0  0  0
 27 28  1  0  0  0  0
 27 18  1  0  0  0  0
 29 27  1  0  0  0  0
 30 27  1  0  0  0  0
M  END
