1
 OpenBabel05122313063D

 22 22  0  0  1  0  0  0  0  0999 V2000
   -1.7994   -1.1219    0.2703 N   0  0  0  0  0  2  0  0  0  0  0  0
   -2.7489   -0.2734   -0.1507 C   0  0  2  0  0  3  0  0  0  0  0  0
   -4.0997   -0.6099   -0.2553 C   0  0  0  0  0  0  0  0  0  0  0  0
   -4.4799   -1.8984    0.1418 C   0  0  0  0  0  0  0  0  0  0  0  0
   -3.4975   -2.7829    0.6167 C   0  0  0  0  0  0  0  0  0  0  0  0
   -2.1636   -2.3596    0.6645 C   0  0  0  0  0  0  0  0  0  0  0  0
   -2.2362    1.4176   -0.6763 S   0  0  1  0  0  0  0  0  0  0  0  0
   -3.4769    2.0617   -1.2784 O   0  0  0  0  0  0  0  0  0  0  0  0
   -2.1467    2.0600    1.0776 C   0  0  0  0  0  0  0  0  0  0  0  0
   -1.5439    3.4610    1.0739 C   0  0  0  0  0  0  0  0  0  0  0  0
   -0.0365    3.4625    0.8127 C   0  0  0  0  0  0  0  0  0  0  0  0
   -4.7916    0.1536   -0.6452 H   0  0  0  0  0  0  0  0  0  0  0  0
   -5.5329   -2.2135    0.0828 H   0  0  0  0  0  0  0  0  0  0  0  0
   -3.7539   -3.8019    0.9388 H   0  0  0  0  0  0  0  0  0  0  0  0
   -1.3531   -3.0161    1.0136 H   0  0  0  0  0  0  0  0  0  0  0  0
   -1.5454    1.3445    1.6789 H   0  0  0  0  0  0  0  0  0  0  0  0
   -3.2097    2.0480    1.3941 H   0  0  0  0  0  0  0  0  0  0  0  0
   -1.7599    3.9202    2.0628 H   0  0  0  0  0  0  0  0  0  0  0  0
   -2.0830    4.0834    0.3260 H   0  0  0  0  0  0  0  0  0  0  0  0
    0.3792    4.4895    0.8355 H   0  0  0  0  0  0  0  0  0  0  0  0
    0.1967    3.0253   -0.1796 H   0  0  0  0  0  0  0  0  0  0  0  0
    0.4893    2.8454    1.5694 H   0  0  0  0  0  0  0  0  0  0  0  0
  1  6  1  0  0  0  0
  2  7  1  6  0  0  0
  2  1  1  0  0  0  0
  3  2  1  0  0  0  0
  3  4  2  0  0  0  0
  4  5  1  0  0  0  0
  5  6  2  0  0  0  0
  5 14  1  0  0  0  0
  6 15  1  0  0  0  0
  7  8  2  6  0  0  0
  7  9  1  0  0  0  0
  9 17  1  0  0  0  0
  9 16  1  0  0  0  0
 10  9  1  0  0  0  0
 10 18  1  0  0  0  0
 11 20  1  0  0  0  0
 11 10  1  0  0  0  0
 11 22  1  0  0  0  0
 12  3  1  0  0  0  0
 13  4  1  0  0  0  0
 19 10  1  0  0  0  0
 21 11  1  0  0  0  0
M  END
