1
 OpenBabel05122313063D

 37 39  0  0  0  0  0  0  0  0999 V2000
   -1.5378    0.5429   -1.5919 N   0  0  0  0  0  2  0  0  0  0  0  0
    0.1817    0.7092   -3.0031 N   0  0  0  0  0  0  0  0  0  0  0  0
   -0.0340   -1.2536   -1.4654 N   0  0  0  0  0  0  0  0  0  0  0  0
    1.0387   -1.7881   -1.9033 N   0  0  0  0  0  2  0  0  0  0  0  0
   -1.6646    1.7127   -2.2755 C   0  0  0  0  0  0  0  0  0  0  0  0
   -2.5004    2.3947   -2.0755 H   0  0  0  0  0  0  0  0  0  0  0  0
   -0.5945    1.8356   -3.1555 C   0  0  0  0  0  0  0  0  0  0  0  0
   -0.3249    2.6233   -3.8668 H   0  0  0  0  0  0  0  0  0  0  0  0
   -0.4200   -0.0684   -2.0265 C   0  0  0  0  0  0  0  0  0  0  0  0
    1.3724   -2.9955   -1.2702 C   0  0  0  0  0  0  0  0  0  0  0  0
    0.5001   -3.6968   -0.3986 C   0  0  0  0  0  0  0  0  0  0  0  0
   -0.5159   -3.3041   -0.2359 H   0  0  0  0  0  0  0  0  0  0  0  0
    0.9369   -4.8755    0.2024 C   0  0  0  0  0  0  0  0  0  0  0  0
    0.2542   -5.4241    0.8713 H   0  0  0  0  0  0  0  0  0  0  0  0
    2.2344   -5.3944   -0.0367 C   0  0  0  0  0  0  0  0  0  0  0  0
    3.0815   -4.6940   -0.9214 C   0  0  0  0  0  0  0  0  0  0  0  0
    4.0897   -5.0870   -1.1261 H   0  0  0  0  0  0  0  0  0  0  0  0
    2.6574   -3.5126   -1.5400 C   0  0  0  0  0  0  0  0  0  0  0  0
    3.3105   -2.9502   -2.2240 H   0  0  0  0  0  0  0  0  0  0  0  0
    2.6769   -6.6719    0.6253 C   0  0  0  0  0  0  0  0  0  0  0  0
    3.7299   -6.9165    0.3880 H   0  0  0  0  0  0  0  0  0  0  0  0
    2.0470   -7.5271    0.3013 H   0  0  0  0  0  0  0  0  0  0  0  0
    2.5784   -6.6073    1.7290 H   0  0  0  0  0  0  0  0  0  0  0  0
    1.4522    0.4659   -3.6774 C   0  0  0  0  0  0  0  0  0  0  0  0
    1.4665    1.1112   -4.5796 H   0  0  0  0  0  0  0  0  0  0  0  0
    1.4651   -0.5909   -4.0061 H   0  0  0  0  0  0  0  0  0  0  0  0
    2.6761    0.7279   -2.8180 C   0  0  0  0  0  0  0  0  0  0  0  0
    3.9475    0.5372   -3.3939 C   0  0  0  0  0  0  0  0  0  0  0  0
    4.0282    0.2266   -4.4484 H   0  0  0  0  0  0  0  0  0  0  0  0
    5.1095    0.7363   -2.6357 C   0  0  0  0  0  0  0  0  0  0  0  0
    6.0965    0.5880   -3.0999 H   0  0  0  0  0  0  0  0  0  0  0  0
    5.0126    1.1172   -1.2872 C   0  0  0  0  0  0  0  0  0  0  0  0
    5.9213    1.2595   -0.6837 H   0  0  0  0  0  0  0  0  0  0  0  0
    3.7498    1.3044   -0.7083 C   0  0  0  0  0  0  0  0  0  0  0  0
    3.6595    1.5777    0.3528 H   0  0  0  0  0  0  0  0  0  0  0  0
    2.5873    1.1193   -1.4716 C   0  0  0  0  0  0  0  0  0  0  0  0
    1.6068    1.2720   -0.9982 H   0  0  0  0  0  0  0  0  0  0  0  0
  2  9  1  0  0  0  0
  4  3  1  0  0  0  0
  4 10  1  0  0  0  0
  5  6  1  0  0  0  0
  5  1  1  0  0  0  0
  7  2  1  0  0  0  0
  7  5  2  0  0  0  0
  8  7  1  0  0  0  0
  9  1  1  0  0  0  0
  9  3  2  0  0  0  0
 10 11  1  0  0  0  0
 11 12  1  0  0  0  0
 11 13  2  0  0  0  0
 13 14  1  0  0  0  0
 15 13  1  0  0  0  0
 15 20  1  0  0  0  0
 16 15  2  0  0  0  0
 17 16  1  0  0  0  0
 18 10  2  0  0  0  0
 18 16  1  0  0  0  0
 19 18  1  0  0  0  0
 20 23  1  0  0  0  0
 21 20  1  0  0  0  0
 22 20  1  0  0  0  0
 24  2  1  0  0  0  0
 24 27  1  0  0  0  0
 25 24  1  0  0  0  0
 26 24  1  0  0  0  0
 27 36  1  0  0  0  0
 28 27  2  0  0  0  0
 28 30  1  0  0  0  0
 29 28  1  0  0  0  0
 30 32  2  0  0  0  0
 31 30  1  0  0  0  0
 32 34  1  0  0  0  0
 32 33  1  0  0  0  0
 34 35  1  0  0  0  0
 36 37  1  0  0  0  0
 36 34  2  0  0  0  0
M  END
