3
 OpenBabel05122313063D

 54 55  0  0  0  0  0  0  0  0999 V2000
    1.4082    1.6662    1.4286 P   0  0  0  0  0  0  0  0  0  0  0  0
   -0.0560   -1.0324    1.0379 S   0  0  0  0  0  0  0  0  0  0  0  0
   -1.1049    1.1627    0.2000 N   0  0  0  0  0  2  0  0  0  0  0  0
   -0.0297    0.6754    0.7907 C   0  0  0  0  0  0  0  0  0  0  0  0
   -1.3023    2.5536    0.0436 C   0  0  0  0  0  0  0  0  0  0  0  0
   -1.3807    3.1389   -1.2389 C   0  0  0  0  0  0  0  0  0  0  0  0
   -1.5913    4.5189   -1.3750 C   0  0  0  0  0  0  0  0  0  0  0  0
   -1.7307    5.3345   -0.2408 C   0  0  0  0  0  0  0  0  0  0  0  0
   -1.6531    4.7590    1.0377 C   0  0  0  0  0  0  0  0  0  0  0  0
   -1.4425    3.3810    1.1817 C   0  0  0  0  0  0  0  0  0  0  0  0
    2.7975    0.6793    0.6930 C   0  0  0  0  0  0  0  0  0  0  0  0
    3.5782   -0.1088    1.5800 C   0  0  0  0  0  0  0  0  0  0  0  0
    4.6646   -0.8403    1.0611 C   0  0  0  0  0  0  0  0  0  0  0  0
    4.9936   -0.8250   -0.2997 C   0  0  0  0  0  0  0  0  0  0  0  0
    4.1924   -0.0537   -1.1627 C   0  0  0  0  0  0  0  0  0  0  0  0
    3.0954    0.6924   -0.7042 C   0  0  0  0  0  0  0  0  0  0  0  0
    6.1619   -1.6397   -0.8340 C   0  0  0  0  0  0  0  0  0  0  0  0
    7.2214   -0.7485   -1.5031 C   0  0  0  0  0  0  0  0  0  0  0  0
    5.6809   -2.7504   -1.7838 C   0  0  0  0  0  0  0  0  0  0  0  0
    2.2824    1.5068   -1.7085 C   0  0  0  0  0  0  0  0  0  0  0  0
    2.8446    2.9345   -1.8393 C   0  0  0  0  0  0  0  0  0  0  0  0
    2.1627    0.8476   -3.0904 C   0  0  0  0  0  0  0  0  0  0  0  0
    3.2818   -0.2158    3.0727 C   0  0  0  0  0  0  0  0  0  0  0  0
    2.9700   -1.6629    3.4872 C   0  0  0  0  0  0  0  0  0  0  0  0
    4.4149    0.3933    3.9139 C   0  0  0  0  0  0  0  0  0  0  0  0
    1.3259    2.7348    0.4775 H   0  0  0  0  0  0  0  0  0  0  0  0
   -1.2501    2.5109   -2.1298 H   0  0  0  0  0  0  0  0  0  0  0  0
   -1.6396    4.9615   -2.3817 H   0  0  0  0  0  0  0  0  0  0  0  0
   -1.8975    6.4161   -0.3529 H   0  0  0  0  0  0  0  0  0  0  0  0
   -1.7595    5.3880    1.9345 H   0  0  0  0  0  0  0  0  0  0  0  0
   -1.3849    2.9253    2.1816 H   0  0  0  0  0  0  0  0  0  0  0  0
    5.2715   -1.4554    1.7451 H   0  0  0  0  0  0  0  0  0  0  0  0
    4.4283   -0.0436   -2.2372 H   0  0  0  0  0  0  0  0  0  0  0  0
    6.6386   -2.1299    0.0429 H   0  0  0  0  0  0  0  0  0  0  0  0
    7.5858    0.0355   -0.8096 H   0  0  0  0  0  0  0  0  0  0  0  0
    8.0927   -1.3510   -1.8329 H   0  0  0  0  0  0  0  0  0  0  0  0
    6.8108   -0.2393   -2.3997 H   0  0  0  0  0  0  0  0  0  0  0  0
    4.9379   -3.4079   -1.2901 H   0  0  0  0  0  0  0  0  0  0  0  0
    5.2009   -2.3232   -2.6888 H   0  0  0  0  0  0  0  0  0  0  0  0
    6.5309   -3.3787   -2.1207 H   0  0  0  0  0  0  0  0  0  0  0  0
    1.2532    1.5886   -1.3022 H   0  0  0  0  0  0  0  0  0  0  0  0
    2.9066    3.4435   -0.8568 H   0  0  0  0  0  0  0  0  0  0  0  0
    3.8693    2.9093   -2.2646 H   0  0  0  0  0  0  0  0  0  0  0  0
    2.2076    3.5529   -2.5049 H   0  0  0  0  0  0  0  0  0  0  0  0
    1.4347    1.4033   -3.7160 H   0  0  0  0  0  0  0  0  0  0  0  0
    3.1254    0.8523   -3.6414 H   0  0  0  0  0  0  0  0  0  0  0  0
    1.8200   -0.2032   -3.0155 H   0  0  0  0  0  0  0  0  0  0  0  0
    2.3664    0.3823    3.2705 H   0  0  0  0  0  0  0  0  0  0  0  0
    2.1303   -2.0704    2.8905 H   0  0  0  0  0  0  0  0  0  0  0  0
    3.8478   -2.3277    3.3477 H   0  0  0  0  0  0  0  0  0  0  0  0
    2.6872   -1.7057    4.5591 H   0  0  0  0  0  0  0  0  0  0  0  0
    4.5912    1.4537    3.6431 H   0  0  0  0  0  0  0  0  0  0  0  0
    4.1680    0.3497    4.9946 H   0  0  0  0  0  0  0  0  0  0  0  0
    5.3690   -0.1546    3.7661 H   0  0  0  0  0  0  0  0  0  0  0  0
  3  4  1  0  0  0  0
  4  2  2  0  0  0  0
  4  1  1  0  0  0  0
  5  3  1  0  0  0  0
  5 10  1  0  0  0  0
  6  5  2  0  0  0  0
  7  6  1  0  0  0  0
  7  8  2  0  0  0  0
  8  9  1  0  0  0  0
  9 10  2  0  0  0  0
  9 30  1  0  0  0  0
 10 31  1  0  0  0  0
 11  1  1  0  0  0  0
 11 12  1  0  0  0  0
 12 23  1  0  0  0  0
 13 12  2  0  0  0  0
 13 32  1  0  0  0  0
 14 13  1  0  0  0  0
 15 16  1  0  0  0  0
 15 14  2  0  0  0  0
 16 11  2  0  0  0  0
 17 14  1  0  0  0  0
 17 34  1  0  0  0  0
 18 17  1  0  0  0  0
 18 35  1  0  0  0  0
 19 38  1  0  0  0  0
 19 17  1  0  0  0  0
 20 41  1  0  0  0  0
 20 16  1  0  0  0  0
 21 20  1  0  0  0  0
 21 42  1  0  0  0  0
 22 47  1  0  0  0  0
 22 20  1  0  0  0  0
 23 48  1  0  0  0  0
 23 24  1  0  0  0  0
 23 25  1  0  0  0  0
 24 51  1  0  0  0  0
 25 53  1  0  0  0  0
 26  1  1  0  0  0  0
 27  6  1  0  0  0  0
 28  7  1  0  0  0  0
 29  8  1  0  0  0  0
 33 15  1  0  0  0  0
 36 18  1  0  0  0  0
 37 18  1  0  0  0  0
 39 19  1  0  0  0  0
 40 19  1  0  0  0  0
 43 21  1  0  0  0  0
 44 21  1  0  0  0  0
 45 22  1  0  0  0  0
 46 22  1  0  0  0  0
 49 24  1  0  0  0  0
 50 24  1  0  0  0  0
 52 25  1  0  0  0  0
 54 25  1  0  0  0  0
M  END
