4
 OpenBabel05122313063D

 18 17  0  0  1  0  0  0  0  0999 V2000
   -0.6177   -1.6003   -2.7125 N   0  0  0  0  0  0  0  0  0  0  0  0
    0.2963   -1.2649   -3.0236 H   0  0  0  0  0  0  0  0  0  0  0  0
   -0.9856   -2.3687   -3.2885 H   0  0  0  0  0  0  0  0  0  0  0  0
   -0.6204   -1.8263   -1.3675 N   0  0  0  0  0  2  0  0  0  0  0  0
   -0.5183   -2.0982    1.2120 N   0  0  0  0  0  0  0  0  0  0  0  0
   -0.4281   -2.0232    2.5620 N   0  0  0  0  0  0  0  0  0  0  0  0
   -1.0875   -2.6071    3.0946 H   0  0  0  0  0  0  0  0  0  0  0  0
    0.5405   -2.1193    2.8777 H   0  0  0  0  0  0  0  0  0  0  0  0
   -1.6537   -2.4411   -0.8132 C   0  0  1  0  0  3  0  0  0  0  0  0
   -1.6243   -2.5422    0.6425 C   0  0  0  0  0  0  0  0  0  0  0  0
   -2.7672   -2.9583   -1.6706 C   0  0  0  0  0  0  0  0  0  0  0  0
   -3.1085   -2.1701   -2.3740 H   0  0  0  0  0  0  0  0  0  0  0  0
   -3.6382   -3.2840   -1.0789 H   0  0  0  0  0  0  0  0  0  0  0  0
   -2.4403   -3.8291   -2.2822 H   0  0  0  0  0  0  0  0  0  0  0  0
   -2.7774   -3.0430    1.4596 C   0  0  0  0  0  0  0  0  0  0  0  0
   -3.2709   -2.1999    1.9905 H   0  0  0  0  0  0  0  0  0  0  0  0
   -2.4440   -3.7796    2.2231 H   0  0  0  0  0  0  0  0  0  0  0  0
   -3.5438   -3.5455    0.8469 H   0  0  0  0  0  0  0  0  0  0  0  0
  1  4  1  0  0  0  0
  2  1  1  0  0  0  0
  3  1  1  0  0  0  0
  5  6  1  0  0  0  0
  6  8  1  0  0  0  0
  6  7  1  0  0  0  0
  9  4  1  1  0  0  0
  9 10  1  0  0  0  0
 10  5  2  0  0  0  0
 10 15  1  0  0  0  0
 11 13  1  0  0  0  0
 11  9  1  0  0  0  0
 12 11  1  0  0  0  0
 14 11  1  0  0  0  0
 15 16  1  0  0  0  0
 15 17  1  0  0  0  0
 18 15  1  0  0  0  0
M  END
