2
 OpenBabel05122313063D

 42 45  0  0  1  0  0  0  0  0999 V2000
    1.2051   -2.3671    0.1103 S   0  0  0  0  0  0  0  0  0  0  0  0
    0.0153    0.0534   -0.2512 N   0  0  0  0  0  2  0  0  0  0  0  0
    2.3834   -0.0565   -0.1351 N   0  0  0  0  0  0  0  0  0  0  0  0
    1.1312   -0.6209   -0.1148 C   0  0  2  0  0  3  0  0  0  0  0  0
    2.9696   -2.2990    0.1408 C   0  0  0  0  0  0  0  0  0  0  0  0
    3.8657   -3.3626    0.2952 C   0  0  0  0  0  0  0  0  0  0  0  0
    3.4997   -4.3949    0.3914 H   0  0  0  0  0  0  0  0  0  0  0  0
    5.2412   -3.0781    0.3241 C   0  0  0  0  0  0  0  0  0  0  0  0
    5.9603   -3.9015    0.4420 H   0  0  0  0  0  0  0  0  0  0  0  0
    5.7030   -1.7550    0.2082 C   0  0  0  0  0  0  0  0  0  0  0  0
    6.7827   -1.5489    0.2402 H   0  0  0  0  0  0  0  0  0  0  0  0
    4.8067   -0.6843    0.0571 C   0  0  0  0  0  0  0  0  0  0  0  0
    5.1743    0.3482   -0.0204 H   0  0  0  0  0  0  0  0  0  0  0  0
    3.4333   -0.9671    0.0177 C   0  0  0  0  0  0  0  0  0  0  0  0
    2.5564    1.3764   -0.3673 C   0  0  0  0  0  0  0  0  0  0  0  0
    3.4890    1.5063   -0.9468 H   0  0  0  0  0  0  0  0  0  0  0  0
    2.6754    1.9053    0.6048 H   0  0  0  0  0  0  0  0  0  0  0  0
    1.3558    1.9196   -1.1449 C   0  0  1  0  0  0  0  0  0  0  0  0
    1.3232    1.3826   -2.1203 H   0  0  0  0  0  0  0  0  0  0  0  0
    0.0458    1.5134   -0.4100 C   0  0  2  0  0  0  0  0  0  0  0  0
   -0.7953    1.7463   -1.0921 H   0  0  0  0  0  0  0  0  0  0  0  0
    1.4580    3.4325   -1.4493 C   0  0  0  0  0  0  0  0  0  0  0  0
    1.2921    3.9796   -0.4948 H   0  0  0  0  0  0  0  0  0  0  0  0
    0.3778    3.8625   -2.4525 C   0  0  0  0  0  0  0  0  0  0  0  0
    0.5302    3.3615   -3.4313 H   0  0  0  0  0  0  0  0  0  0  0  0
    0.4170    4.9565   -2.6241 H   0  0  0  0  0  0  0  0  0  0  0  0
   -0.6483    3.6156   -2.1186 H   0  0  0  0  0  0  0  0  0  0  0  0
    2.8440    3.8281   -1.9815 C   0  0  0  0  0  0  0  0  0  0  0  0
    2.8507    4.8970   -2.2736 H   0  0  0  0  0  0  0  0  0  0  0  0
    3.1126    3.2382   -2.8839 H   0  0  0  0  0  0  0  0  0  0  0  0
    3.6485    3.6956   -1.2308 H   0  0  0  0  0  0  0  0  0  0  0  0
   -0.1883    2.2169    0.9202 C   0  0  0  0  0  0  0  0  0  0  0  0
   -0.9010    3.4329    0.9476 C   0  0  0  0  0  0  0  0  0  0  0  0
   -1.3255    3.8348    0.0151 H   0  0  0  0  0  0  0  0  0  0  0  0
   -1.0905    4.1270    2.1511 C   0  0  0  0  0  0  0  0  0  0  0  0
   -1.6537    5.0724    2.1527 H   0  0  0  0  0  0  0  0  0  0  0  0
   -0.5794    3.6077    3.3506 C   0  0  0  0  0  0  0  0  0  0  0  0
   -0.7345    4.1464    4.2976 H   0  0  0  0  0  0  0  0  0  0  0  0
    0.1073    2.3845    3.3386 C   0  0  0  0  0  0  0  0  0  0  0  0
    0.4831    1.9524    4.2783 H   0  0  0  0  0  0  0  0  0  0  0  0
    0.2981    1.6915    2.1338 C   0  0  0  0  0  0  0  0  0  0  0  0
    0.7863    0.7068    2.1540 H   0  0  0  0  0  0  0  0  0  0  0  0
  1  5  1  0  0  0  0
  3  4  1  0  0  0  0
  3 14  1  0  0  0  0
  4  2  1  6  0  0  0
  4  1  1  0  0  0  0
  5  6  1  0  0  0  0
  6  8  2  0  0  0  0
  6  7  1  0  0  0  0
  8  9  1  0  0  0  0
 10 11  1  0  0  0  0
 10  8  1  0  0  0  0
 12 10  2  0  0  0  0
 13 12  1  0  0  0  0
 14 12  1  0  0  0  0
 14  5  2  0  0  0  0
 15  3  1  0  0  0  0
 15 17  1  0  0  0  0
 16 15  1  0  0  0  0
 18 19  1  6  0  0  0
 18 20  1  0  0  0  0
 18 15  1  0  0  0  0
 20 21  1  6  0  0  0
 20  2  1  0  0  0  0
 20 32  1  0  0  0  0
 22 18  1  0  0  0  0
 22 23  1  0  0  0  0
 24 27  1  0  0  0  0
 24 22  1  0  0  0  0
 25 24  1  0  0  0  0
 26 24  1  0  0  0  0
 28 22  1  0  0  0  0
 28 31  1  0  0  0  0
 29 28  1  0  0  0  0
 30 28  1  0  0  0  0
 32 33  2  0  0  0  0
 32 41  1  0  0  0  0
 33 35  1  0  0  0  0
 34 33  1  0  0  0  0
 35 36  1  0  0  0  0
 35 37  2  0  0  0  0
 37 38  1  0  0  0  0
 39 37  1  0  0  0  0
 39 40  1  0  0  0  0
 41 42  1  0  0  0  0
 41 39  2  0  0  0  0
M  END
