3
 OpenBabel05122313063D

 22 23  0  0  1  0  0  0  0  0999 V2000
    0.5696   -2.2000   -1.4503 S   0  0  0  0  0  0  0  0  0  0  0  0
   -0.6505    0.0785   -1.4689 N   0  0  0  0  0  0  0  0  0  0  0  0
   -1.6154   -0.8411   -1.2368 N   0  0  0  0  0  2  0  0  0  0  0  0
   -1.9577   -3.1681   -0.9783 N   0  0  0  0  0  0  0  0  0  0  0  0
   -2.8692   -2.9533   -0.4927 H   0  0  0  0  0  0  0  0  0  0  0  0
   -1.5181   -4.0583   -0.7479 H   0  0  0  0  0  0  0  0  0  0  0  0
    5.5726   -0.1572   -1.6182 C   0  0  0  0  0  0  0  0  0  0  0  0
    6.4042    0.5663   -1.7186 H   0  0  0  0  0  0  0  0  0  0  0  0
    5.6854   -0.9209   -2.4150 H   0  0  0  0  0  0  0  0  0  0  0  0
    5.6911   -0.6819   -0.6470 H   0  0  0  0  0  0  0  0  0  0  0  0
    4.2298    0.5228   -1.6935 C   0  0  0  0  0  0  0  0  0  0  0  0
    4.1154    1.9239   -1.7775 C   0  0  0  0  0  0  0  0  0  0  0  0
    5.0289    2.5385   -1.8037 H   0  0  0  0  0  0  0  0  0  0  0  0
    2.8539    2.5424   -1.8294 C   0  0  0  0  0  0  0  0  0  0  0  0
    2.7855    3.6387   -1.8991 H   0  0  0  0  0  0  0  0  0  0  0  0
    1.6857    1.7780   -1.7924 C   0  0  0  0  0  0  0  0  0  0  0  0
    0.6913    2.2436   -1.8227 H   0  0  0  0  0  0  0  0  0  0  0  0
    1.7768    0.3690   -1.7014 C   0  0  0  0  0  0  0  0  0  0  0  0
    3.0471   -0.2387   -1.6584 C   0  0  0  0  0  0  0  0  0  0  0  0
    3.1227   -1.3349   -1.5706 H   0  0  0  0  0  0  0  0  0  0  0  0
    0.5515   -0.4206   -1.5833 C   0  0  0  0  0  0  0  0  0  0  0  0
   -1.1656   -2.1043   -1.1860 C   0  0  1  0  0  3  0  0  0  0  0  0
  1 22  1  0  0  0  0
  2  3  1  0  0  0  0
  3 22  1  0  0  0  0
  4  6  1  0  0  0  0
  4  5  1  0  0  0  0
  7 10  1  0  0  0  0
  8  7  1  0  0  0  0
  9  7  1  0  0  0  0
 11 19  1  0  0  0  0
 11  7  1  0  0  0  0
 12 11  2  0  0  0  0
 13 12  1  0  0  0  0
 14 16  2  0  0  0  0
 14 12  1  0  0  0  0
 15 14  1  0  0  0  0
 16 18  1  0  0  0  0
 17 16  1  0  0  0  0
 18 19  2  0  0  0  0
 18 21  1  0  0  0  0
 19 20  1  0  0  0  0
 21  2  2  0  0  0  0
 21  1  1  0  0  0  0
 22  4  1  6  0  0  0
M  END
