3
 OpenBabel05122313063D

 16 15  0  0  1  0  0  0  0  0999 V2000
   -3.1048   -0.5025    1.1785 O   0  0  0  0  0  0  0  0  0  0  0  0
   -3.3686   -2.2336   -0.2706 O   0  0  0  0  0  0  0  0  0  0  0  0
   -0.4324   -0.9402    1.3276 N   0  0  0  0  0  0  0  0  0  0  0  0
    0.2627   -1.2980    1.9967 H   0  0  0  0  0  0  0  0  0  0  0  0
   -1.0642   -0.3057    1.8507 H   0  0  0  0  0  0  0  0  0  0  0  0
   -1.2714   -2.0457    0.8146 C   0  0  1  0  0  0  0  0  0  0  0  0
   -0.8914   -2.3760   -0.1706 H   0  0  0  0  0  0  0  0  0  0  0  0
   -1.3226   -3.2437    1.7708 C   0  0  0  0  0  0  0  0  0  0  0  0
   -1.9601   -4.0437    1.3477 H   0  0  0  0  0  0  0  0  0  0  0  0
   -1.7366   -2.9499    2.7570 H   0  0  0  0  0  0  0  0  0  0  0  0
   -0.3056   -3.6596    1.9210 H   0  0  0  0  0  0  0  0  0  0  0  0
   -2.6734   -1.4814    0.5908 C   0  0  0  0  0  0  0  0  0  0  0  0
   -4.6626   -1.7270   -0.6322 C   0  0  0  0  0  0  0  0  0  0  0  0
   -5.1380   -2.5115   -1.2462 H   0  0  0  0  0  0  0  0  0  0  0  0
   -4.5366   -0.7977   -1.2229 H   0  0  0  0  0  0  0  0  0  0  0  0
   -5.2697   -1.5085    0.2682 H   0  0  0  0  0  0  0  0  0  0  0  0
  2 12  1  0  0  0  0
  3  5  1  0  0  0  0
  3  4  1  0  0  0  0
  6  7  1  6  0  0  0
  6  3  1  0  0  0  0
  6  8  1  0  0  0  0
  8 11  1  0  0  0  0
  8 10  1  0  0  0  0
  9  8  1  0  0  0  0
 12  6  1  0  0  0  0
 12  1  2  0  0  0  0
 13  2  1  0  0  0  0
 13 16  1  0  0  0  0
 14 13  1  0  0  0  0
 15 13  1  0  0  0  0
M  END
