2
 OpenBabel05122313063D

 41 44  0  0  1  0  0  0  0  0999 V2000
   -1.2021    0.3035    0.0365 P   0  0  1  0  0  0  0  0  0  0  0  0
    1.5960    1.5490   -0.5491 N   0  0  0  0  0  2  0  0  0  0  0  0
   -1.4483    1.9778   -0.7523 C   0  0  2  0  0  0  0  0  0  0  0  0
   -1.2376    2.0370   -1.8341 H   0  0  0  0  0  0  0  0  0  0  0  0
   -0.4482    2.8109    0.1369 C   0  0  1  0  0  0  0  0  0  0  0  0
   -0.7608    3.8693    0.0593 H   0  0  0  0  0  0  0  0  0  0  0  0
   -0.6642    2.3195    1.6072 C   0  0  0  0  0  0  0  0  0  0  0  0
    0.2606    1.8609    2.0082 H   0  0  0  0  0  0  0  0  0  0  0  0
   -0.9463    3.1587    2.2715 H   0  0  0  0  0  0  0  0  0  0  0  0
   -1.8087    1.2729    1.5370 C   0  0  1  0  0  0  0  0  0  0  0  0
   -1.9621    0.7217    2.4825 H   0  0  0  0  0  0  0  0  0  0  0  0
   -3.0594    1.9447    0.9816 C   0  0  0  0  0  0  0  0  0  0  0  0
   -2.8567    2.3346   -0.3110 C   0  0  0  0  0  0  0  0  0  0  0  0
   -4.2626    2.1531    1.8426 C   0  0  0  0  0  0  0  0  0  0  0  0
   -5.0746    2.6786    1.3062 H   0  0  0  0  0  0  0  0  0  0  0  0
   -4.0119    2.7483    2.7473 H   0  0  0  0  0  0  0  0  0  0  0  0
   -4.6703    1.1856    2.2073 H   0  0  0  0  0  0  0  0  0  0  0  0
   -3.7878    3.0442   -1.2377 C   0  0  0  0  0  0  0  0  0  0  0  0
   -4.7647    3.2633   -0.7678 H   0  0  0  0  0  0  0  0  0  0  0  0
   -3.9739    2.4310   -2.1457 H   0  0  0  0  0  0  0  0  0  0  0  0
   -3.3547    4.0044   -1.5920 H   0  0  0  0  0  0  0  0  0  0  0  0
   -2.5486   -0.8296   -0.4607 C   0  0  0  0  0  0  0  0  0  0  0  0
   -3.5374   -1.2239    0.4672 C   0  0  0  0  0  0  0  0  0  0  0  0
   -3.5299   -0.8298    1.4932 H   0  0  0  0  0  0  0  0  0  0  0  0
   -4.5432   -2.1239    0.0882 C   0  0  0  0  0  0  0  0  0  0  0  0
   -5.3094   -2.4240    0.8186 H   0  0  0  0  0  0  0  0  0  0  0  0
   -4.5761   -2.6334   -1.2199 C   0  0  0  0  0  0  0  0  0  0  0  0
   -5.3680   -3.3372   -1.5168 H   0  0  0  0  0  0  0  0  0  0  0  0
   -3.5977   -2.2408   -2.1469 C   0  0  0  0  0  0  0  0  0  0  0  0
   -3.6206   -2.6350   -3.1740 H   0  0  0  0  0  0  0  0  0  0  0  0
   -2.5828   -1.3471   -1.7737 C   0  0  0  0  0  0  0  0  0  0  0  0
   -1.8002   -1.0621   -2.4917 H   0  0  0  0  0  0  0  0  0  0  0  0
    0.9705    2.7479   -0.3687 C   0  0  2  0  0  3  0  0  0  0  0  0
    1.6133    3.9503   -0.7242 C   0  0  0  0  0  0  0  0  0  0  0  0
    1.0812    4.8970   -0.5534 H   0  0  0  0  0  0  0  0  0  0  0  0
    2.8878    3.9435   -1.2959 C   0  0  0  0  0  0  0  0  0  0  0  0
    3.3894    4.8844   -1.5658 H   0  0  0  0  0  0  0  0  0  0  0  0
    3.4866    2.7026   -1.5459 C   0  0  0  0  0  0  0  0  0  0  0  0
    4.4661    2.6168   -2.0365 H   0  0  0  0  0  0  0  0  0  0  0  0
    2.8037    1.5456   -1.1727 C   0  0  0  0  0  0  0  0  0  0  0  0
    3.2180    0.5565   -1.3972 H   0  0  0  0  0  0  0  0  0  0  0  0
  1 22  1  6  0  0  0
  1 10  1  0  0  0  0
  2 33  1  0  0  0  0
  3  4  1  6  0  0  0
  3 13  1  0  0  0  0
  3  1  1  0  0  0  0
  3  5  1  0  0  0  0
  5  6  1  6  0  0  0
  5  7  1  0  0  0  0
  7  8  1  0  0  0  0
  7  9  1  0  0  0  0
 10  7  1  0  0  0  0
 10 11  1  1  0  0  0
 12 10  1  0  0  0  0
 12 14  1  0  0  0  0
 13 12  2  0  0  0  0
 14 17  1  0  0  0  0
 14 16  1  0  0  0  0
 15 14  1  0  0  0  0
 18 19  1  0  0  0  0
 18 13  1  0  0  0  0
 20 18  1  0  0  0  0
 21 18  1  0  0  0  0
 22 23  1  0  0  0  0
 23 24  1  0  0  0  0
 25 23  2  0  0  0  0
 25 26  1  0  0  0  0
 27 25  1  0  0  0  0
 28 27  1  0  0  0  0
 29 31  1  0  0  0  0
 29 27  2  0  0  0  0
 30 29  1  0  0  0  0
 31 22  2  0  0  0  0
 32 31  1  0  0  0  0
 33 34  1  6  0  0  0
 33  5  1  0  0  0  0
 34 35  1  0  0  0  0
 36 34  2  0  0  0  0
 37 36  1  0  0  0  0
 38 36  1  0  0  0  0
 38 40  2  0  0  0  0
 39 38  1  0  0  0  0
 40  2  1  0  0  0  0
 41 40  1  0  0  0  0
M  END
