4
 OpenBabel05122313063D

 21 21  0  0  0  0  0  0  0  0999 V2000
   -4.0420    0.5931   -1.0595 N   0  0  0  0  0  0  0  0  0  0  0  0
   -3.9971   -0.3040   -0.0623 N   0  0  0  0  0  0  0  0  0  0  0  0
   -2.8083   -0.5137    0.4469 N   0  0  0  0  0  2  0  0  0  0  0  0
   -1.9970    0.2731   -0.2456 N   0  0  0  0  0  2  0  0  0  0  0  0
   -2.2437    1.8252   -2.0769 N   0  0  0  0  0  0  0  0  0  0  0  0
   -2.9291    2.4143   -2.5498 H   0  0  0  0  0  0  0  0  0  0  0  0
   -1.3810    2.2977   -1.7595 H   0  0  0  0  0  0  0  0  0  0  0  0
   -2.7569    0.9591   -1.1703 C   0  0  0  0  0  0  0  0  0  0  0  0
   -5.2167   -1.0236    0.4009 C   0  0  0  0  0  0  0  0  0  0  0  0
   -4.8170   -1.9632    1.5419 C   0  0  0  0  0  0  0  0  0  0  0  0
   -4.4051   -1.4026    2.4021 H   0  0  0  0  0  0  0  0  0  0  0  0
   -4.0510   -2.6915    1.2160 H   0  0  0  0  0  0  0  0  0  0  0  0
   -5.7185   -2.5131    1.8747 H   0  0  0  0  0  0  0  0  0  0  0  0
   -6.2246    0.0357    0.8736 C   0  0  0  0  0  0  0  0  0  0  0  0
   -7.1598   -0.4610    1.1974 H   0  0  0  0  0  0  0  0  0  0  0  0
   -6.4614    0.7429    0.0561 H   0  0  0  0  0  0  0  0  0  0  0  0
   -5.8185    0.6086    1.7307 H   0  0  0  0  0  0  0  0  0  0  0  0
   -5.7610   -1.8111   -0.8022 C   0  0  0  0  0  0  0  0  0  0  0  0
   -6.6877   -2.3417   -0.5090 H   0  0  0  0  0  0  0  0  0  0  0  0
   -5.0211   -2.5610   -1.1451 H   0  0  0  0  0  0  0  0  0  0  0  0
   -5.9906   -1.1302   -1.6437 H   0  0  0  0  0  0  0  0  0  0  0  0
  1  2  1  0  0  0  0
  2  9  1  0  0  0  0
  2  3  1  0  0  0  0
  4  3  1  0  0  0  0
  5  7  1  0  0  0  0
  5  8  1  0  0  0  0
  6  5  1  0  0  0  0
  8  1  2  0  0  0  0
  8  4  1  0  0  0  0
  9 14  1  0  0  0  0
  9 10  1  0  0  0  0
 10 13  1  0  0  0  0
 10 11  1  0  0  0  0
 12 10  1  0  0  0  0
 14 15  1  0  0  0  0
 14 17  1  0  0  0  0
 16 14  1  0  0  0  0
 18 19  1  0  0  0  0
 18  9  1  0  0  0  0
 20 18  1  0  0  0  0
 21 18  1  0  0  0  0
M  END
