4
 OpenBabel05122313063D

 20 20  0  0  1  0  0  0  0  0999 V2000
    3.9258    2.0926   -0.0068 N   0  0  0  0  0  0  0  0  0  0  0  0
    3.6480    3.0405    0.2613 H   0  0  0  0  0  0  0  0  0  0  0  0
    4.0766    2.0141   -1.0171 H   0  0  0  0  0  0  0  0  0  0  0  0
    2.1760   -0.8708   -0.4214 N   0  0  0  0  0  2  0  0  0  0  0  0
    3.2901   -0.1609   -0.1167 N   0  0  0  0  0  0  0  0  0  0  0  0
    2.2587    1.1730    1.4740 N   0  0  0  0  0  0  0  0  0  0  0  0
    2.0778    2.1505    1.7461 H   0  0  0  0  0  0  0  0  0  0  0  0
    2.5966   -2.0704   -0.8406 C   0  0  1  0  0  3  0  0  0  0  0  0
    4.0180   -2.1252   -0.8022 C   0  0  0  0  0  0  0  0  0  0  0  0
    4.6588   -2.9734   -1.0665 H   0  0  0  0  0  0  0  0  0  0  0  0
    4.4438   -0.8870   -0.3265 C   0  0  0  0  0  0  0  0  0  0  0  0
    5.8139   -0.3872   -0.0044 C   0  0  0  0  0  0  0  0  0  0  0  0
    6.5413   -1.2120   -0.1168 H   0  0  0  0  0  0  0  0  0  0  0  0
    5.8738   -0.0094    1.0364 H   0  0  0  0  0  0  0  0  0  0  0  0
    6.1309    0.4441   -0.6657 H   0  0  0  0  0  0  0  0  0  0  0  0
    3.1192    1.1108    0.5246 C   0  0  0  0  0  0  0  0  0  0  0  0
    1.6246   -3.1335   -1.2427 C   0  0  0  0  0  0  0  0  0  0  0  0
    0.7735   -3.1387   -0.5289 H   0  0  0  0  0  0  0  0  0  0  0  0
    2.1074   -4.1285   -1.2284 H   0  0  0  0  0  0  0  0  0  0  0  0
    1.2417   -2.9654   -2.2722 H   0  0  0  0  0  0  0  0  0  0  0  0
  1  2  1  0  0  0  0
  1 16  1  0  0  0  0
  3  1  1  0  0  0  0
  4  5  1  0  0  0  0
  5 16  1  0  0  0  0
  6  7  1  0  0  0  0
  8 17  1  1  0  0  0
  8  9  1  0  0  0  0
  8  4  1  0  0  0  0
  9 11  2  0  0  0  0
 10  9  1  0  0  0  0
 11  5  1  0  0  0  0
 11 12  1  0  0  0  0
 12 14  1  0  0  0  0
 13 12  1  0  0  0  0
 15 12  1  0  0  0  0
 16  6  2  0  0  0  0
 17 19  1  0  0  0  0
 17 18  1  0  0  0  0
 20 17  1  0  0  0  0
M  END
