1
 OpenBabel05122313063D

 13 14  0  0  0  0  0  0  0  0999 V2000
    2.8347   -0.7305    0.0395 N   0  0  0  0  0  0  0  0  0  0  0  0
    3.2786   -2.0262    0.0641 N   0  0  0  0  0  2  0  0  0  0  0  0
    4.5836   -2.0630    0.0574 N   0  0  0  0  0  0  0  0  0  0  0  0
    3.9199    0.1084    0.0147 C   0  0  0  0  0  0  0  0  0  0  0  0
    5.0466   -0.7636    0.0268 C   0  0  0  0  0  0  0  0  0  0  0  0
    6.3583   -0.2424    0.0076 C   0  0  0  0  0  0  0  0  0  0  0  0
    7.2257   -0.9184    0.0172 H   0  0  0  0  0  0  0  0  0  0  0  0
    6.5025    1.1458   -0.0239 C   0  0  0  0  0  0  0  0  0  0  0  0
    7.5100    1.5889   -0.0398 H   0  0  0  0  0  0  0  0  0  0  0  0
    5.3709    2.0091   -0.0361 C   0  0  0  0  0  0  0  0  0  0  0  0
    5.5321    3.0980   -0.0610 H   0  0  0  0  0  0  0  0  0  0  0  0
    4.0661    1.5107   -0.0170 C   0  0  0  0  0  0  0  0  0  0  0  0
    3.1922    2.1800   -0.0262 H   0  0  0  0  0  0  0  0  0  0  0  0
  1  2  1  0  0  0  0
  3  2  1  0  0  0  0
  4  5  1  0  0  0  0
  4  1  2  0  0  0  0
  5  3  2  0  0  0  0
  6  7  1  0  0  0  0
  6  5  1  0  0  0  0
  8  6  2  0  0  0  0
  9  8  1  0  0  0  0
 10  8  1  0  0  0  0
 10 12  2  0  0  0  0
 11 10  1  0  0  0  0
 12  4  1  0  0  0  0
 13 12  1  0  0  0  0
M  END
