1
 OpenBabel05122313063D

 28 29  0  0  0  0  0  0  0  0999 V2000
   -0.7027    1.0162   -0.0508 N   0  0  0  0  0  2  0  0  0  0  0  0
    0.3233    0.6184   -0.9217 C   0  0  0  0  0  3  0  0  0  0  0  0
    0.1064    0.6539   -2.0130 H   0  0  0  0  0  0  0  0  0  0  0  0
    1.7186    0.9244   -0.5612 C   0  0  0  0  0  0  0  0  0  0  0  0
    2.0818    1.2762    0.7651 C   0  0  0  0  0  0  0  0  0  0  0  0
    1.2903    1.3458    1.5272 H   0  0  0  0  0  0  0  0  0  0  0  0
    3.4167    1.5060    1.1109 C   0  0  0  0  0  0  0  0  0  0  0  0
    3.6627    1.7744    2.1515 H   0  0  0  0  0  0  0  0  0  0  0  0
    4.4579    1.4026    0.1612 C   0  0  0  0  0  0  0  0  0  0  0  0
    4.0967    1.0712   -1.1600 C   0  0  0  0  0  0  0  0  0  0  0  0
    4.8823    0.9988   -1.9299 H   0  0  0  0  0  0  0  0  0  0  0  0
    2.7602    0.8448   -1.5173 C   0  0  0  0  0  0  0  0  0  0  0  0
    2.5095    0.6124   -2.5656 H   0  0  0  0  0  0  0  0  0  0  0  0
    5.8912    1.6676    0.5480 C   0  0  0  0  0  0  0  0  0  0  0  0
    6.0583    2.7430    0.7732 H   0  0  0  0  0  0  0  0  0  0  0  0
    6.5919    1.3861   -0.2624 H   0  0  0  0  0  0  0  0  0  0  0  0
    6.1802    1.1040    1.4593 H   0  0  0  0  0  0  0  0  0  0  0  0
   -1.4382    2.1861   -0.0634 C   0  0  0  0  0  0  0  0  0  0  0  0
   -2.4827    2.3613    0.8823 C   0  0  0  0  0  0  0  0  0  0  0  0
   -2.6465    1.5719    1.6315 H   0  0  0  0  0  0  0  0  0  0  0  0
   -3.2560    3.5261    0.8732 C   0  0  0  0  0  0  0  0  0  0  0  0
   -4.0607    3.6478    1.6150 H   0  0  0  0  0  0  0  0  0  0  0  0
   -3.0052    4.5448   -0.0646 C   0  0  0  0  0  0  0  0  0  0  0  0
   -3.6137    5.4613   -0.0658 H   0  0  0  0  0  0  0  0  0  0  0  0
   -1.9599    4.3856   -0.9899 C   0  0  0  0  0  0  0  0  0  0  0  0
   -1.7459    5.1829   -1.7188 H   0  0  0  0  0  0  0  0  0  0  0  0
   -1.1779    3.2233   -0.9943 C   0  0  0  0  0  0  0  0  0  0  0  0
   -0.3489    3.1033   -1.7070 H   0  0  0  0  0  0  0  0  0  0  0  0
  2  4  1  0  0  0  0
  2  1  1  0  0  0  0
  3  2  1  0  0  0  0
  4  5  1  0  0  0  0
  5  7  2  0  0  0  0
  5  6  1  0  0  0  0
  7  8  1  0  0  0  0
  9 14  1  0  0  0  0
  9  7  1  0  0  0  0
 10  9  2  0  0  0  0
 11 10  1  0  0  0  0
 12 10  1  0  0  0  0
 12  4  2  0  0  0  0
 13 12  1  0  0  0  0
 14 15  1  0  0  0  0
 14 17  1  0  0  0  0
 16 14  1  0  0  0  0
 18  1  1  0  0  0  0
 18 19  1  0  0  0  0
 19 20  1  0  0  0  0
 21 19  2  0  0  0  0
 21 22  1  0  0  0  0
 23 21  1  0  0  0  0
 24 23  1  0  0  0  0
 25 23  2  0  0  0  0
 26 25  1  0  0  0  0
 27 25  1  0  0  0  0
 27 18  2  0  0  0  0
 28 27  1  0  0  0  0
M  END
