1
 OpenBabel05122313063D

 33 34  0  0  0  0  0  0  0  0999 V2000
    0.9470    0.7014    0.1716 N   0  0  0  0  0  2  0  0  0  0  0  0
   -5.6024    0.1850    0.0685 N   0  0  0  0  0  0  0  0  0  0  0  0
    1.5195    1.9525    0.2044 C   0  0  0  0  0  0  0  0  0  0  0  0
    2.5485    2.2335    1.1463 C   0  0  0  0  0  0  0  0  0  0  0  0
    2.8392    1.4425    1.8559 H   0  0  0  0  0  0  0  0  0  0  0  0
    3.1614    3.4897    1.1857 C   0  0  0  0  0  0  0  0  0  0  0  0
    3.9565    3.6808    1.9236 H   0  0  0  0  0  0  0  0  0  0  0  0
    2.7626    4.5102    0.3030 C   0  0  0  0  0  0  0  0  0  0  0  0
    3.2421    5.4994    0.3405 H   0  0  0  0  0  0  0  0  0  0  0  0
    1.7315    4.2509   -0.6161 C   0  0  0  0  0  0  0  0  0  0  0  0
    1.3986    5.0445   -1.3038 H   0  0  0  0  0  0  0  0  0  0  0  0
    1.1115    2.9962   -0.6708 C   0  0  0  0  0  0  0  0  0  0  0  0
    0.2927    2.8053   -1.3798 H   0  0  0  0  0  0  0  0  0  0  0  0
    0.0791    0.1994   -0.8102 C   0  0  0  0  0  3  0  0  0  0  0  0
    0.3437    0.4264   -1.8668 H   0  0  0  0  0  0  0  0  0  0  0  0
   -1.3815    0.2189   -0.5829 C   0  0  0  0  0  0  0  0  0  0  0  0
   -1.9537    0.7553    0.5917 C   0  0  0  0  0  0  0  0  0  0  0  0
   -1.2837    1.2038    1.3415 H   0  0  0  0  0  0  0  0  0  0  0  0
   -3.3344    0.7542    0.8113 C   0  0  0  0  0  0  0  0  0  0  0  0
   -3.7193    1.1978    1.7389 H   0  0  0  0  0  0  0  0  0  0  0  0
   -4.2310    0.2071   -0.1481 C   0  0  0  0  0  0  0  0  0  0  0  0
   -3.6593   -0.3088   -1.3461 C   0  0  0  0  0  0  0  0  0  0  0  0
   -4.3032   -0.7218   -2.1336 H   0  0  0  0  0  0  0  0  0  0  0  0
   -2.2767   -0.2976   -1.5468 C   0  0  0  0  0  0  0  0  0  0  0  0
   -1.8714   -0.7111   -2.4851 H   0  0  0  0  0  0  0  0  0  0  0  0
   -6.1510    0.7951    1.2588 C   0  0  0  0  0  0  0  0  0  0  0  0
   -5.7411    0.3353    2.1862 H   0  0  0  0  0  0  0  0  0  0  0  0
   -7.2472    0.6529    1.2727 H   0  0  0  0  0  0  0  0  0  0  0  0
   -5.9474    1.8911    1.3167 H   0  0  0  0  0  0  0  0  0  0  0  0
   -6.4873   -0.2917   -0.9703 C   0  0  0  0  0  0  0  0  0  0  0  0
   -6.4280    0.3185   -1.9032 H   0  0  0  0  0  0  0  0  0  0  0  0
   -7.5312   -0.2561   -0.6085 H   0  0  0  0  0  0  0  0  0  0  0  0
   -6.2665   -1.3460   -1.2526 H   0  0  0  0  0  0  0  0  0  0  0  0
  1  3  1  0  0  0  0
  2 26  1  0  0  0  0
  3  4  1  0  0  0  0
  4  6  2  0  0  0  0
  4  5  1  0  0  0  0
  6  7  1  0  0  0  0
  8  9  1  0  0  0  0
  8  6  1  0  0  0  0
 10  8  2  0  0  0  0
 11 10  1  0  0  0  0
 12 10  1  0  0  0  0
 12  3  2  0  0  0  0
 13 12  1  0  0  0  0
 14 16  1  0  0  0  0
 14  1  1  0  0  0  0
 15 14  1  0  0  0  0
 16 17  1  0  0  0  0
 17 19  2  0  0  0  0
 17 18  1  0  0  0  0
 19 20  1  0  0  0  0
 21  2  1  0  0  0  0
 21 19  1  0  0  0  0
 22 21  2  0  0  0  0
 23 22  1  0  0  0  0
 24 22  1  0  0  0  0
 24 16  2  0  0  0  0
 25 24  1  0  0  0  0
 26 28  1  0  0  0  0
 26 29  1  0  0  0  0
 26 27  1  0  0  0  0
 30 32  1  0  0  0  0
 30  2  1  0  0  0  0
 31 30  1  0  0  0  0
 33 30  1  0  0  0  0
M  END
