2
 OpenBabel05122313063D

 16 17  0  0  0  0  0  0  0  0999 V2000
   -0.9855    2.6731   -0.0006 O   0  0  0  0  0  0  0  0  0  0  0  0
   -1.9863    0.6157   -0.0002 N   0  0  0  0  0  0  0  0  0  0  0  0
   -4.4910    1.8556   -0.0002 N   0  0  0  0  0  0  0  0  0  0  0  0
   -2.0315    2.0015   -0.0005 C   0  0  0  0  0  0  0  0  0  0  0  0
   -3.3978    2.5636   -0.0005 C   0  0  0  0  0  0  0  0  0  0  0  0
   -3.4648    3.6667   -0.0009 H   0  0  0  0  0  0  0  0  0  0  0  0
   -4.3923    0.4794    0.0002 C   0  0  0  0  0  3  0  0  0  0  0  0
   -5.5685   -0.3092    0.0006 C   0  0  0  0  0  0  0  0  0  0  0  0
   -6.5297    0.2248    0.0007 H   0  0  0  0  0  0  0  0  0  0  0  0
   -5.4929   -1.7001    0.0009 C   0  0  0  0  0  0  0  0  0  0  0  0
   -6.4113   -2.3049    0.0013 H   0  0  0  0  0  0  0  0  0  0  0  0
   -4.2296   -2.3352    0.0008 C   0  0  0  0  0  0  0  0  0  0  0  0
   -4.1691   -3.4339    0.0009 H   0  0  0  0  0  0  0  0  0  0  0  0
   -3.0505   -1.5895    0.0004 C   0  0  0  0  0  0  0  0  0  0  0  0
   -2.0682   -2.0915    0.0002 H   0  0  0  0  0  0  0  0  0  0  0  0
   -3.1142   -0.1769    0.0001 C   0  0  0  0  0  0  0  0  0  0  0  0
  1  4  2  0  0  0  0
  2 16  2  0  0  0  0
  3  7  1  0  0  0  0
  4  2  1  0  0  0  0
  5  4  1  0  0  0  0
  5  3  2  0  0  0  0
  6  5  1  0  0  0  0
  7  8  1  0  0  0  0
  8  9  1  0  0  0  0
  8 10  2  0  0  0  0
 10 11  1  0  0  0  0
 12 10  1  0  0  0  0
 12 13  1  0  0  0  0
 14 12  2  0  0  0  0
 15 14  1  0  0  0  0
 16  7  1  0  0  0  0
 16 14  1  0  0  0  0
M  END
