1
 OpenBabel05122313063D

 16 15  0  0  1  0  0  0  0  0999 V2000
   -2.4298    1.2352    0.8379 N   0  0  0  0  0  0  0  0  0  0  0  0
   -2.1640    0.9140    1.7849 H   0  0  0  0  0  0  0  0  0  0  0  0
   -2.1858    2.2362    0.7931 H   0  0  0  0  0  0  0  0  0  0  0  0
   -3.8927    1.0754    0.6224 C   0  0  2  0  0  0  0  0  0  0  0  0
   -4.0544   -0.0015    0.3975 H   0  0  0  0  0  0  0  0  0  0  0  0
   -4.3142    1.8962   -0.5926 C   0  0  0  0  0  0  0  0  0  0  0  0
   -4.1931    2.9832   -0.3929 H   0  0  0  0  0  0  0  0  0  0  0  0
   -5.3814    1.7176   -0.8272 H   0  0  0  0  0  0  0  0  0  0  0  0
   -3.7055    1.6388   -1.4817 H   0  0  0  0  0  0  0  0  0  0  0  0
   -4.6850    1.4091    1.8973 C   0  0  0  0  0  0  0  0  0  0  0  0
   -5.7623    1.4571    1.6309 H   0  0  0  0  0  0  0  0  0  0  0  0
   -4.4107    2.4363    2.2291 H   0  0  0  0  0  0  0  0  0  0  0  0
   -4.4810    0.3995    3.0293 C   0  0  0  0  0  0  0  0  0  0  0  0
   -4.9964    0.7167    3.9569 H   0  0  0  0  0  0  0  0  0  0  0  0
   -3.4102    0.2487    3.2829 H   0  0  0  0  0  0  0  0  0  0  0  0
   -4.8820   -0.5961    2.7462 H   0  0  0  0  0  0  0  0  0  0  0  0
  1  2  1  0  0  0  0
  3  1  1  0  0  0  0
  4  5  1  6  0  0  0
  4  1  1  0  0  0  0
  4 10  1  0  0  0  0
  6  7  1  0  0  0  0
  6  4  1  0  0  0  0
  8  6  1  0  0  0  0
  9  6  1  0  0  0  0
 10 12  1  0  0  0  0
 10 13  1  0  0  0  0
 11 10  1  0  0  0  0
 13 15  1  0  0  0  0
 13 14  1  0  0  0  0
 16 13  1  0  0  0  0
M  END
