3
 OpenBabel05122313063D

 34 35  0  0  0  0  0  0  0  0999 V2000
    1.1510    1.6191    1.5280 N   0  0  0  0  0  0  0  0  0  0  0  0
    1.7116    2.4738    1.3432 H   0  0  0  0  0  0  0  0  0  0  0  0
    1.6347    0.3876    1.3235 N   0  0  0  0  0  2  0  0  0  0  0  0
    1.4024    4.2561    1.2697 O   0  0  0  0  0  0  0  0  0  0  0  0
    1.6735    4.8585    0.5364 H   0  0  0  0  0  0  0  0  0  0  0  0
   -0.9667    0.8154    1.8817 O   0  0  0  0  0  0  0  0  0  0  0  0
    2.3120   -2.5293    0.6763 Br  0  0  0  0  0  0  0  0  0  0  0  0
   -0.7193    3.1938    1.7433 C   0  0  0  0  0  0  0  0  0  0  0  0
    0.0485    4.3575    1.4716 C   0  0  0  0  0  0  0  0  0  0  0  0
   -0.5792    5.6152    1.4108 C   0  0  0  0  0  0  0  0  0  0  0  0
    0.0359    6.5011    1.1949 H   0  0  0  0  0  0  0  0  0  0  0  0
   -1.9575    5.7319    1.6115 C   0  0  0  0  0  0  0  0  0  0  0  0
   -2.4316    6.7232    1.5502 H   0  0  0  0  0  0  0  0  0  0  0  0
   -2.7295    4.5910    1.8925 C   0  0  0  0  0  0  0  0  0  0  0  0
   -3.8140    4.6785    2.0517 H   0  0  0  0  0  0  0  0  0  0  0  0
   -2.1086    3.3437    1.9575 C   0  0  0  0  0  0  0  0  0  0  0  0
   -2.6788    2.4243    2.1543 H   0  0  0  0  0  0  0  0  0  0  0  0
   -0.2178    1.7848    1.7412 C   0  0  0  0  0  0  0  0  0  0  0  0
    2.8988    0.2457    1.0602 C   0  0  0  0  0  0  0  0  0  0  0  0
    3.5854    1.1181    1.0361 H   0  0  0  0  0  0  0  0  0  0  0  0
    3.5047   -1.0293    0.7374 C   0  0  0  0  0  0  0  0  0  0  0  0
    4.8455   -1.1203    0.4692 C   0  0  0  0  0  3  0  0  0  0  0  0
    5.3397   -0.1342    0.5396 H   0  0  0  0  0  0  0  0  0  0  0  0
    5.7618   -2.1876    0.0959 C   0  0  0  0  0  0  0  0  0  0  0  0
    7.0839   -1.7967   -0.2543 C   0  0  0  0  0  0  0  0  0  0  0  0
    7.3466   -0.7275   -0.2252 H   0  0  0  0  0  0  0  0  0  0  0  0
    8.0458   -2.7343   -0.6395 C   0  0  0  0  0  0  0  0  0  0  0  0
    9.0586   -2.3994   -0.9095 H   0  0  0  0  0  0  0  0  0  0  0  0
    7.7182   -4.0996   -0.6795 C   0  0  0  0  0  0  0  0  0  0  0  0
    8.4721   -4.8426   -0.9804 H   0  0  0  0  0  0  0  0  0  0  0  0
    6.4219   -4.5094   -0.3262 C   0  0  0  0  0  0  0  0  0  0  0  0
    6.1588   -5.5778   -0.3462 H   0  0  0  0  0  0  0  0  0  0  0  0
    5.4551   -3.5737    0.0577 C   0  0  0  0  0  0  0  0  0  0  0  0
    4.4541   -3.9212    0.3392 H   0  0  0  0  0  0  0  0  0  0  0  0
  1 18  1  0  0  0  0
  2  1  1  0  0  0  0
  3  1  1  0  0  0  0
  4  9  1  0  0  0  0
  5  4  1  0  0  0  0
  7 21  1  0  0  0  0
  8 16  1  0  0  0  0
  9  8  2  0  0  0  0
 10  9  1  0  0  0  0
 10 12  2  0  0  0  0
 11 10  1  0  0  0  0
 12 14  1  0  0  0  0
 13 12  1  0  0  0  0
 14 16  2  0  0  0  0
 14 15  1  0  0  0  0
 16 17  1  0  0  0  0
 18  8  1  0  0  0  0
 18  6  2  0  0  0  0
 19  3  1  0  0  0  0
 20 19  1  0  0  0  0
 21 19  2  0  0  0  0
 22 23  1  0  0  0  0
 22 21  1  0  0  0  0
 24 22  1  0  0  0  0
 25 26  1  0  0  0  0
 25 24  2  0  0  0  0
 27 25  1  0  0  0  0
 28 27  1  0  0  0  0
 29 27  2  0  0  0  0
 29 31  1  0  0  0  0
 30 29  1  0  0  0  0
 31 33  2  0  0  0  0
 32 31  1  0  0  0  0
 33 24  1  0  0  0  0
 33 34  1  0  0  0  0
M  END
