3
 OpenBabel05122313063D

  3  2  0  0  0  0  0  0  0  0999 V2000
   -2.7634   -1.3875   -1.2179 Cl  0  0  0  0  0  0  0  0  0  0  0  0
   -1.9436   -2.5417    1.2704 Cl  0  0  0  0  0  0  0  0  0  0  0  0
   -1.3066   -1.8806   -0.2660 N   0  0  0  0  0  0  0  0  0  0  0  0
  1  3  1  0  0  0  0
  3  2  1  0  0  0  0
M  END
