1
 OpenBabel05122313063D

 30 31  0  0  1  0  0  0  0  0999 V2000
    0.4060   -0.0133   -1.2721 N   0  0  0  0  0  0  0  0  0  0  0  0
    0.6080   -1.0214   -1.3499 H   0  0  0  0  0  0  0  0  0  0  0  0
    0.1583    0.2940   -2.2235 H   0  0  0  0  0  0  0  0  0  0  0  0
    1.6170    0.6894   -0.7882 C   0  0  0  0  0  0  0  0  0  0  0  0
    1.5879    0.6810    0.3152 H   0  0  0  0  0  0  0  0  0  0  0  0
    1.5460    1.7496   -1.1036 H   0  0  0  0  0  0  0  0  0  0  0  0
    2.9284    0.0592   -1.2684 C   0  0  1  0  0  0  0  0  0  0  0  0
    2.9175    0.0731   -2.3831 H   0  0  0  0  0  0  0  0  0  0  0  0
    4.1503    0.8962   -0.8510 C   0  0  2  0  0  0  0  0  0  0  0  0
    4.0011    1.9649   -1.1187 H   0  0  0  0  0  0  0  0  0  0  0  0
    5.4185    0.1774   -1.3830 C   0  0  0  0  0  0  0  0  0  0  0  0
    5.3084   -0.4016   -2.3239 H   0  0  0  0  0  0  0  0  0  0  0  0
    6.2932    0.8456   -1.4808 H   0  0  0  0  0  0  0  0  0  0  0  0
    5.3975   -0.6228   -0.0555 C   0  0  2  0  0  0  0  0  0  0  0  0
    6.3670   -0.9353    0.3873 H   0  0  0  0  0  0  0  0  0  0  0  0
    4.4572   -1.8220   -0.2229 C   0  0  0  0  0  0  0  0  0  0  0  0
    4.3286   -2.3418    0.7492 H   0  0  0  0  0  0  0  0  0  0  0  0
    4.9494   -2.5518   -0.8994 H   0  0  0  0  0  0  0  0  0  0  0  0
    3.0591   -1.4235   -0.7853 C   0  0  0  0  0  0  0  0  0  0  0  0
    2.7843   -2.1122   -1.6102 H   0  0  0  0  0  0  0  0  0  0  0  0
    2.3032   -1.5975    0.0091 H   0  0  0  0  0  0  0  0  0  0  0  0
    4.6711    0.6008    0.6077 C   0  0  0  0  0  0  0  0  0  0  0  0
    3.7042    0.3488    1.7668 C   0  0  0  0  0  0  0  0  0  0  0  0
    3.1389    1.2698    2.0210 H   0  0  0  0  0  0  0  0  0  0  0  0
    4.2773    0.0630    2.6739 H   0  0  0  0  0  0  0  0  0  0  0  0
    2.9594   -0.4474    1.5901 H   0  0  0  0  0  0  0  0  0  0  0  0
    5.6668    1.6830    1.0529 C   0  0  0  0  0  0  0  0  0  0  0  0
    6.4144    1.9359    0.2767 H   0  0  0  0  0  0  0  0  0  0  0  0
    6.2200    1.3510    1.9559 H   0  0  0  0  0  0  0  0  0  0  0  0
    5.1281    2.6170    1.3166 H   0  0  0  0  0  0  0  0  0  0  0  0
  1  4  1  0  0  0  0
  2  1  1  0  0  0  0
  3  1  1  0  0  0  0
  4  5  1  0  0  0  0
  6  4  1  0  0  0  0
  7  8  1  6  0  0  0
  7  9  1  0  0  0  0
  7  4  1  0  0  0  0
  7 19  1  0  0  0  0
  9 10  1  6  0  0  0
  9 22  1  0  0  0  0
 11  9  1  0  0  0  0
 11 14  1  0  0  0  0
 12 11  1  0  0  0  0
 13 11  1  0  0  0  0
 14 15  1  1  0  0  0
 14 22  1  0  0  0  0
 16 14  1  0  0  0  0
 16 17  1  0  0  0  0
 18 16  1  0  0  0  0
 19 16  1  0  0  0  0
 19 21  1  0  0  0  0
 20 19  1  0  0  0  0
 22 27  1  0  0  0  0
 22 23  1  0  0  0  0
 23 24  1  0  0  0  0
 23 25  1  0  0  0  0
 26 23  1  0  0  0  0
 27 30  1  0  0  0  0
 27 29  1  0  0  0  0
 28 27  1  0  0  0  0
M  END
