4
 OpenBabel05122313063D

 19 19  0  0  1  0  0  0  0  0999 V2000
   -6.7279    0.2679    0.5266 O   0  0  0  0  0  0  0  0  0  0  0  0
   -5.9602   -0.8702   -1.3920 O   0  0  0  0  0  0  0  0  0  0  0  0
   -5.2161   -1.4166   -1.0101 H   0  0  0  0  0  0  0  0  0  0  0  0
   -1.8746    0.8432    0.0632 N   0  0  0  0  0  2  0  0  0  0  0  0
   -2.7351    0.8169    1.1066 C   0  0  0  0  0  3  0  0  0  0  0  0
   -2.2871    0.7175    2.1056 H   0  0  0  0  0  0  0  0  0  0  0  0
   -4.1166    0.8115    0.9148 C   0  0  0  0  0  0  0  0  0  0  0  0
   -4.8037    0.7076    1.7641 H   0  0  0  0  0  0  0  0  0  0  0  0
   -4.6200    0.8028   -0.3948 C   0  0  0  0  0  0  0  0  0  0  0  0
   -3.7196    0.9917   -1.4577 C   0  0  0  0  0  0  0  0  0  0  0  0
   -4.0732    1.0198   -2.4982 H   0  0  0  0  0  0  0  0  0  0  0  0
   -2.3527    1.0081   -1.1934 C   0  0  0  0  0  0  0  0  0  0  0  0
   -1.6020    1.0833   -1.9931 H   0  0  0  0  0  0  0  0  0  0  0  0
   -6.0347    0.3407   -0.6977 C   0  0  2  0  0  0  0  0  0  0  0  0
   -6.5570    1.0567   -1.3829 H   0  0  0  0  0  0  0  0  0  0  0  0
   -8.0802   -0.1277    0.3813 C   0  0  0  0  0  0  0  0  0  0  0  0
   -8.6624    0.6185   -0.2114 H   0  0  0  0  0  0  0  0  0  0  0  0
   -8.5141   -0.1944    1.3966 H   0  0  0  0  0  0  0  0  0  0  0  0
   -8.1624   -1.1142   -0.1231 H   0  0  0  0  0  0  0  0  0  0  0  0
  2  3  1  0  0  0  0
  2 14  1  0  0  0  0
  4  5  1  0  0  0  0
  5  6  1  0  0  0  0
  7  5  1  0  0  0  0
  7  8  1  0  0  0  0
  9  7  2  0  0  0  0
 10 12  2  0  0  0  0
 10  9  1  0  0  0  0
 11 10  1  0  0  0  0
 12  4  1  0  0  0  0
 13 12  1  0  0  0  0
 14 15  1  6  0  0  0
 14  9  1  0  0  0  0
 14  1  1  0  0  0  0
 16  1  1  0  0  0  0
 16 18  1  0  0  0  0
 17 16  1  0  0  0  0
 19 16  1  0  0  0  0
M  END
