2
 OpenBabel05122313063D

 27 27  0  0  1  0  0  0  0  0999 V2000
   -2.1038    1.8584   -0.0669 O   0  0  0  0  0  0  0  0  0  0  0  0
   -0.2295    0.5064   -0.0673 N   0  0  0  0  0  2  0  0  0  0  0  0
   -0.9449   -0.2407   -0.0361 H   0  0  0  0  0  0  0  0  0  0  0  0
   -2.8263    0.6314   -0.1413 N   0  0  0  0  0  2  0  0  0  0  0  0
   -4.6437    2.1240    0.1413 N   0  0  0  0  0  4  0  0  0  0  0  0
   -4.0018    2.9168    0.1293 H   0  0  0  0  0  0  0  0  0  0  0  0
   -5.6088    2.2936   -0.1352 H   0  0  0  0  0  0  0  0  0  0  0  0
   -0.7576    1.6849   -0.0465 C   0  0  2  0  0  3  0  0  0  0  0  0
   -0.0092    2.9763    0.0564 C   0  0  0  0  0  0  0  0  0  0  0  0
   -0.7092    3.7989   -0.1899 H   0  0  0  0  0  0  0  0  0  0  0  0
    0.7921    2.9382   -0.7130 H   0  0  0  0  0  0  0  0  0  0  0  0
    0.6228    3.1725    1.4432 C   0  0  0  0  0  0  0  0  0  0  0  0
   -0.1400    3.1753    2.2477 H   0  0  0  0  0  0  0  0  0  0  0  0
    1.1691    4.1353    1.4775 H   0  0  0  0  0  0  0  0  0  0  0  0
    1.3449    2.3567    1.6497 H   0  0  0  0  0  0  0  0  0  0  0  0
   -4.1096    0.8871   -0.0746 C   0  0  0  0  0  0  0  0  0  0  0  0
   -5.0270   -0.2733   -0.1994 C   0  0  0  0  0  0  0  0  0  0  0  0
   -6.3037   -0.2481    0.4015 C   0  0  0  0  0  0  0  0  0  0  0  0
   -6.6133    0.6226    0.9993 H   0  0  0  0  0  0  0  0  0  0  0  0
   -7.1649   -1.3474    0.2776 C   0  0  0  0  0  0  0  0  0  0  0  0
   -8.1556   -1.3205    0.7557 H   0  0  0  0  0  0  0  0  0  0  0  0
   -6.7581   -2.4831   -0.4394 C   0  0  0  0  0  0  0  0  0  0  0  0
   -7.4343   -3.3460   -0.5351 H   0  0  0  0  0  0  0  0  0  0  0  0
   -5.4839   -2.5170   -1.0312 C   0  0  0  0  0  0  0  0  0  0  0  0
   -5.1604   -3.4058   -1.5933 H   0  0  0  0  0  0  0  0  0  0  0  0
   -4.6222   -1.4202   -0.9154 C   0  0  0  0  0  0  0  0  0  0  0  0
   -3.6269   -1.4302   -1.3815 H   0  0  0  0  0  0  0  0  0  0  0  0
  1  8  1  0  0  0  0
  2  3  1  0  0  0  0
  4 16  1  0  0  0  0
  4  1  1  0  0  0  0
  6  5  1  0  0  0  0
  7  5  1  0  0  0  0
  8  2  1  1  0  0  0
  8  9  1  0  0  0  0
  9 12  1  0  0  0  0
 10  9  1  0  0  0  0
 11  9  1  0  0  0  0
 12 14  1  0  0  0  0
 12 15  1  0  0  0  0
 12 13  1  0  0  0  0
 16  5  2  0  0  0  0
 17 16  1  0  0  0  0
 17 18  1  0  0  0  0
 18 19  1  0  0  0  0
 20 18  2  0  0  0  0
 20 21  1  0  0  0  0
 22 20  1  0  0  0  0
 23 22  1  0  0  0  0
 24 26  1  0  0  0  0
 24 22  2  0  0  0  0
 25 24  1  0  0  0  0
 26 17  2  0  0  0  0
 27 26  1  0  0  0  0
M  END
