2
 OpenBabel05122313063D

 30 32  0  0  1  0  0  0  0  0999 V2000
    3.8161    0.0127   -1.6478 O   0  0  0  0  0  0  0  0  0  0  0  0
    1.7973   -0.6024   -0.9002 N   0  0  0  0  0  2  0  0  0  0  0  0
    2.5809    0.3789   -1.2619 C   0  0  1  0  0  3  0  0  0  0  0  0
    3.9665   -1.4324   -1.3728 C   0  0  2  0  0  0  0  0  0  0  0  0
    4.3595   -1.8731   -2.3086 H   0  0  0  0  0  0  0  0  0  0  0  0
    2.5126   -1.8726   -1.0763 C   0  0  0  0  0  0  0  0  0  0  0  0
    2.0476   -2.4392   -1.9096 H   0  0  0  0  0  0  0  0  0  0  0  0
    2.4303   -2.4776   -0.1533 H   0  0  0  0  0  0  0  0  0  0  0  0
    2.2890    1.8178   -1.2690 C   0  0  0  0  0  0  0  0  0  0  0  0
    0.9880    2.3034   -1.5261 C   0  0  0  0  0  0  0  0  0  0  0  0
    0.1749    1.5974   -1.7540 H   0  0  0  0  0  0  0  0  0  0  0  0
    0.7529    3.6839   -1.5172 C   0  0  0  0  0  0  0  0  0  0  0  0
   -0.2623    4.0581   -1.7148 H   0  0  0  0  0  0  0  0  0  0  0  0
    1.7988    4.5826   -1.2516 C   0  0  0  0  0  0  0  0  0  0  0  0
    1.6042    5.6662   -1.2394 H   0  0  0  0  0  0  0  0  0  0  0  0
    3.0962    4.1004   -1.0087 C   0  0  0  0  0  0  0  0  0  0  0  0
    3.9187    4.8024   -0.8050 H   0  0  0  0  0  0  0  0  0  0  0  0
    3.3466    2.7231   -1.0266 C   0  0  0  0  0  0  0  0  0  0  0  0
    4.3566    2.3316   -0.8398 H   0  0  0  0  0  0  0  0  0  0  0  0
    4.9624   -1.6174   -0.2542 C   0  0  0  0  0  0  0  0  0  0  0  0
    6.2650   -2.0655   -0.5427 C   0  0  0  0  0  0  0  0  0  0  0  0
    6.5386   -2.3023   -1.5836 H   0  0  0  0  0  0  0  0  0  0  0  0
    7.2121   -2.2129    0.4818 C   0  0  0  0  0  0  0  0  0  0  0  0
    8.2262   -2.5689    0.2452 H   0  0  0  0  0  0  0  0  0  0  0  0
    6.8623   -1.9053    1.8056 C   0  0  0  0  0  0  0  0  0  0  0  0
    7.6028   -2.0199    2.6120 H   0  0  0  0  0  0  0  0  0  0  0  0
    5.5641   -1.4556    2.0996 C   0  0  0  0  0  0  0  0  0  0  0  0
    5.2823   -1.2178    3.1366 H   0  0  0  0  0  0  0  0  0  0  0  0
    4.6135   -1.3136    1.0793 C   0  0  0  0  0  0  0  0  0  0  0  0
    3.5946   -0.9727    1.3342 H   0  0  0  0  0  0  0  0  0  0  0  0
  1  4  1  0  0  0  0
  1  3  1  0  0  0  0
  3  9  1  1  0  0  0
  3  2  1  0  0  0  0
  4  5  1  6  0  0  0
  4  6  1  0  0  0  0
  4 20  1  0  0  0  0
  6  2  1  0  0  0  0
  6  8  1  0  0  0  0
  7  6  1  0  0  0  0
  9 18  1  0  0  0  0
 10 12  1  0  0  0  0
 10  9  2  0  0  0  0
 11 10  1  0  0  0  0
 12 14  2  0  0  0  0
 13 12  1  0  0  0  0
 14 15  1  0  0  0  0
 14 16  1  0  0  0  0
 16 17  1  0  0  0  0
 18 16  2  0  0  0  0
 18 19  1  0  0  0  0
 20 29  1  0  0  0  0
 21 20  2  0  0  0  0
 21 23  1  0  0  0  0
 22 21  1  0  0  0  0
 23 25  2  0  0  0  0
 24 23  1  0  0  0  0
 25 27  1  0  0  0  0
 25 26  1  0  0  0  0
 27 28  1  0  0  0  0
 29 30  1  0  0  0  0
 29 27  2  0  0  0  0
M  END
