33
 OpenBabel05122313063D

 36 40  0  0  0  0  0  0  0  0999 V2000
    3.0675   -2.1844    0.2346 C   0  0  0  0  0  0  0  0  0  0  0  0
    3.7234   -1.4836   -0.3189 H   0  0  0  0  0  0  0  0  0  0  0  0
    3.5130   -3.4908    0.6044 C   0  0  0  0  0  0  0  0  0  0  0  0
    2.5605   -4.3390    1.1857 C   0  0  0  0  0  0  0  0  0  0  0  0
    2.8167   -5.3784    1.4410 H   0  0  0  0  0  0  0  0  0  0  0  0
    1.2431   -3.8839    1.4227 C   0  0  0  0  0  0  0  0  0  0  0  0
    0.2168   -4.7286    1.9743 C   0  0  0  0  0  0  0  0  0  0  0  0
    0.4744   -5.7685    2.2281 H   0  0  0  0  0  0  0  0  0  0  0  0
   -1.0601   -4.2607    2.1638 C   0  0  0  0  0  0  0  0  0  0  0  0
   -1.8438   -4.9201    2.5677 H   0  0  0  0  0  0  0  0  0  0  0  0
   -1.4020   -2.8980    1.8549 C   0  0  0  0  0  0  0  0  0  0  0  0
   -2.6998   -2.3726    2.0525 C   0  0  0  0  0  0  0  0  0  0  0  0
   -3.4974   -3.0329    2.4290 H   0  0  0  0  0  0  0  0  0  0  0  0
   -2.9621   -1.0207    1.7962 C   0  0  0  0  0  0  0  0  0  0  0  0
   -1.8613   -0.2317    1.3430 C   0  0  0  0  0  0  0  0  0  0  0  0
   -2.0181    0.8423    1.1514 H   0  0  0  0  0  0  0  0  0  0  0  0
   -0.3990   -2.0168    1.3331 C   0  0  0  0  0  0  0  0  0  0  0  0
    0.9276   -2.5353    1.0656 C   0  0  0  0  0  0  0  0  0  0  0  0
    4.8882   -3.9126    0.3516 C   0  0  0  0  0  0  0  0  0  0  0  0
    5.5495   -5.0518    0.8075 C   0  0  0  0  0  0  0  0  0  0  0  0
    5.0772   -5.7942    1.4649 H   0  0  0  0  0  0  0  0  0  0  0  0
    6.8948   -5.1417    0.3547 C   0  0  0  0  0  0  0  0  0  0  0  0
    7.5780   -5.9632    0.6094 H   0  0  0  0  0  0  0  0  0  0  0  0
    7.2550   -4.0710   -0.4460 C   0  0  0  0  0  0  0  0  0  0  0  0
    8.2187   -3.8800   -0.9338 H   0  0  0  0  0  0  0  0  0  0  0  0
   -4.2816   -0.4085    1.9383 C   0  0  0  0  0  0  0  0  0  0  0  0
   -4.6034    0.9308    2.1465 C   0  0  0  0  0  0  0  0  0  0  0  0
   -3.8426    1.7110    2.2829 H   0  0  0  0  0  0  0  0  0  0  0  0
   -6.0064    1.1711    2.1905 C   0  0  0  0  0  0  0  0  0  0  0  0
   -6.4580    2.1587    2.3573 H   0  0  0  0  0  0  0  0  0  0  0  0
   -6.7493    0.0176    2.0076 C   0  0  0  0  0  0  0  0  0  0  0  0
   -7.8397   -0.0959    1.9861 H   0  0  0  0  0  0  0  0  0  0  0  0
    1.8404   -1.7369    0.4579 N   0  0  0  0  0  2  0  0  0  0  0  0
   -0.6515   -0.7062    1.0943 N   0  0  0  0  0  2  0  0  0  0  0  0
    5.9573   -2.9521   -0.6518 S   0  0  0  0  0  0  0  0  0  0  0  0
   -5.7392   -1.3642    1.7787 S   0  0  0  0  0  0  0  0  0  0  0  0
  1 33  1  0  0  0  0
  1  3  2  0  0  0  0
  2  1  1  0  0  0  0
  3  4  1  0  0  0  0
  4  6  2  0  0  0  0
  4  5  1  0  0  0  0
  6  7  1  0  0  0  0
  7  9  2  0  0  0  0
  7  8  1  0  0  0  0
  9 10  1  0  0  0  0
 11 12  2  0  0  0  0
 11  9  1  0  0  0  0
 12 13  1  0  0  0  0
 14 26  1  0  0  0  0
 14 12  1  0  0  0  0
 15 14  2  0  0  0  0
 16 15  1  0  0  0  0
 17 11  1  0  0  0  0
 18 17  2  0  0  0  0
 18  6  1  0  0  0  0
 19  3  1  0  0  0  0
 19 20  2  0  0  0  0
 20 21  1  0  0  0  0
 22 23  1  0  0  0  0
 22 20  1  0  0  0  0
 24 22  2  0  0  0  0
 25 24  1  0  0  0  0
 26 27  2  0  0  0  0
 27 29  1  0  0  0  0
 27 28  1  0  0  0  0
 29 30  1  0  0  0  0
 31 29  2  0  0  0  0
 32 31  1  0  0  0  0
 33 18  1  0  0  0  0
 34 17  1  0  0  0  0
 34 15  1  0  0  0  0
 35 24  1  0  0  0  0
 35 19  1  0  0  0  0
 36 26  1  0  0  0  0
 36 31  1  0  0  0  0
M  END
