2
 OpenBabel05122313063D

 69 69  0  0  1  0  0  0  0  0999 V2000
    2.1800   -0.3082   -0.7409 N   0  0  0  0  0  0  0  0  0  0  0  0
    0.0001   -1.7679   -0.0000 N   0  0  0  0  0  2  0  0  0  0  0  0
    3.2307    4.6063   -1.1508 C   0  0  0  0  0  0  0  0  0  0  0  0
    2.9819    3.2721   -1.8538 C   0  0  0  0  0  0  0  0  0  0  0  0
    2.9075    2.0910   -0.8819 C   0  0  0  0  0  0  0  0  0  0  0  0
    2.7086    0.7629   -1.6097 C   0  0  0  0  0  0  0  0  0  0  0  0
    3.0003   -0.5879    0.4559 C   0  0  0  0  0  0  0  0  0  0  0  0
    4.4512   -1.0113    0.2086 C   0  0  0  0  0  0  0  0  0  0  0  0
    5.1833   -1.3313    1.5158 C   0  0  0  0  0  0  0  0  0  0  0  0
    6.6434   -1.7358    1.3131 C   0  0  0  0  0  0  0  0  0  0  0  0
    1.8543   -1.5117   -1.5082 C   0  0  0  0  0  0  0  0  0  0  0  0
    0.9260   -2.4160   -0.7263 C   0  0  2  0  0  3  0  0  0  0  0  0
    0.9594   -3.8189   -0.7457 C   0  0  0  0  0  0  0  0  0  0  0  0
    0.0003   -4.5215    0.0001 C   0  0  0  0  0  0  0  0  0  0  0  0
    2.4321    4.8189   -0.4101 H   0  0  0  0  0  0  0  0  0  0  0  0
    3.2571    5.4506   -1.8690 H   0  0  0  0  0  0  0  0  0  0  0  0
    4.1958    4.6025   -0.6016 H   0  0  0  0  0  0  0  0  0  0  0  0
    2.0234    3.3149   -2.4153 H   0  0  0  0  0  0  0  0  0  0  0  0
    3.7783    3.0893   -2.6105 H   0  0  0  0  0  0  0  0  0  0  0  0
    3.8242    2.0637   -0.2517 H   0  0  0  0  0  0  0  0  0  0  0  0
    2.0588    2.2460   -0.1813 H   0  0  0  0  0  0  0  0  0  0  0  0
    1.9473    0.9104   -2.4027 H   0  0  0  0  0  0  0  0  0  0  0  0
    3.6572    0.4430   -2.1080 H   0  0  0  0  0  0  0  0  0  0  0  0
    2.4757   -1.3726    1.0417 H   0  0  0  0  0  0  0  0  0  0  0  0
    2.9573    0.3122    1.1008 H   0  0  0  0  0  0  0  0  0  0  0  0
    4.9965   -0.2025   -0.3251 H   0  0  0  0  0  0  0  0  0  0  0  0
    4.4943   -1.9011   -0.4595 H   0  0  0  0  0  0  0  0  0  0  0  0
    4.6388   -2.1422    2.0495 H   0  0  0  0  0  0  0  0  0  0  0  0
    5.1273   -0.4459    2.1868 H   0  0  0  0  0  0  0  0  0  0  0  0
    7.1450   -1.9604    2.2758 H   0  0  0  0  0  0  0  0  0  0  0  0
    7.2198   -0.9274    0.8166 H   0  0  0  0  0  0  0  0  0  0  0  0
    6.7276   -2.6393    0.6732 H   0  0  0  0  0  0  0  0  0  0  0  0
    1.3037   -1.1752   -2.4154 H   0  0  0  0  0  0  0  0  0  0  0  0
    2.7477   -2.0831   -1.8551 H   0  0  0  0  0  0  0  0  0  0  0  0
    1.7235   -4.3457   -1.3356 H   0  0  0  0  0  0  0  0  0  0  0  0
    0.0004   -5.6221    0.0002 H   0  0  0  0  0  0  0  0  0  0  0  0
   -2.1799   -0.3084    0.7408 N   0  0  0  0  0  0  0  0  0  0  0  0
   -2.7087    0.7626    1.6097 C   0  0  0  0  0  0  0  0  0  0  0  0
   -2.9078    2.0908    0.8820 C   0  0  0  0  0  0  0  0  0  0  0  0
   -2.9825    3.2717    1.8539 C   0  0  0  0  0  0  0  0  0  0  0  0
   -3.2315    4.6059    1.1511 C   0  0  0  0  0  0  0  0  0  0  0  0
   -2.4328    4.8188    0.4105 H   0  0  0  0  0  0  0  0  0  0  0  0
   -3.2582    5.4502    1.8693 H   0  0  0  0  0  0  0  0  0  0  0  0
   -4.1965    4.6021    0.6016 H   0  0  0  0  0  0  0  0  0  0  0  0
   -2.0241    3.3147    2.4156 H   0  0  0  0  0  0  0  0  0  0  0  0
   -3.7791    3.0887    2.6105 H   0  0  0  0  0  0  0  0  0  0  0  0
   -3.8243    2.0633    0.2516 H   0  0  0  0  0  0  0  0  0  0  0  0
   -2.0589    2.2460    0.1815 H   0  0  0  0  0  0  0  0  0  0  0  0
   -1.9475    0.9102    2.4027 H   0  0  0  0  0  0  0  0  0  0  0  0
   -3.6572    0.4426    2.1079 H   0  0  0  0  0  0  0  0  0  0  0  0
   -3.0001   -0.5881   -0.4560 C   0  0  0  0  0  0  0  0  0  0  0  0
   -4.4510   -1.0116   -0.2088 C   0  0  0  0  0  0  0  0  0  0  0  0
   -5.1831   -1.3317   -1.5160 C   0  0  0  0  0  0  0  0  0  0  0  0
   -6.6432   -1.7363   -1.3133 C   0  0  0  0  0  0  0  0  0  0  0  0
   -7.1447   -1.9610   -2.2760 H   0  0  0  0  0  0  0  0  0  0  0  0
   -7.2196   -0.9279   -0.8169 H   0  0  0  0  0  0  0  0  0  0  0  0
   -6.7273   -2.6398   -0.6733 H   0  0  0  0  0  0  0  0  0  0  0  0
   -4.6385   -2.1427   -2.0495 H   0  0  0  0  0  0  0  0  0  0  0  0
   -5.1271   -0.4464   -2.1870 H   0  0  0  0  0  0  0  0  0  0  0  0
   -4.9964   -0.2028    0.3249 H   0  0  0  0  0  0  0  0  0  0  0  0
   -4.4942   -1.9014    0.4594 H   0  0  0  0  0  0  0  0  0  0  0  0
   -2.4755   -1.3728   -1.0418 H   0  0  0  0  0  0  0  0  0  0  0  0
   -2.9572    0.3120   -1.1009 H   0  0  0  0  0  0  0  0  0  0  0  0
   -1.8542   -1.5119    1.5081 C   0  0  0  0  0  0  0  0  0  0  0  0
   -0.9257   -2.4161    0.7263 C   0  0  0  0  0  0  0  0  0  0  0  0
   -0.9589   -3.8190    0.7459 C   0  0  0  0  0  0  0  0  0  0  0  0
   -1.7229   -4.3458    1.3359 H   0  0  0  0  0  0  0  0  0  0  0  0
   -1.3036   -1.1753    2.4153 H   0  0  0  0  0  0  0  0  0  0  0  0
   -2.7475   -2.0833    1.8550 H   0  0  0  0  0  0  0  0  0  0  0  0
  1  7  1  0  0  0  0
  2 65  1  0  0  0  0
  3 17  1  0  0  0  0
  3 15  1  0  0  0  0
  4  3  1  0  0  0  0
  4  5  1  0  0  0  0
  5 20  1  0  0  0  0
  5 21  1  0  0  0  0
  6  5  1  0  0  0  0
  6  1  1  0  0  0  0
  7 24  1  0  0  0  0
  7 25  1  0  0  0  0
  8  7  1  0  0  0  0
  8  9  1  0  0  0  0
  9 28  1  0  0  0  0
  9 29  1  0  0  0  0
 10  9  1  0  0  0  0
 10 30  1  0  0  0  0
 11  1  1  0  0  0  0
 12 11  1  6  0  0  0
 12  2  1  0  0  0  0
 13 12  1  0  0  0  0
 13 14  2  0  0  0  0
 14 36  1  0  0  0  0
 14 66  1  0  0  0  0
 16  3  1  0  0  0  0
 18  4  1  0  0  0  0
 19  4  1  0  0  0  0
 22  6  1  0  0  0  0
 23  6  1  0  0  0  0
 26  8  1  0  0  0  0
 27  8  1  0  0  0  0
 31 10  1  0  0  0  0
 32 10  1  0  0  0  0
 33 11  1  0  0  0  0
 34 11  1  0  0  0  0
 35 13  1  0  0  0  0
 37 64  1  0  0  0  0
 37 38  1  0  0  0  0
 38 50  1  0  0  0  0
 38 49  1  0  0  0  0
 39 38  1  0  0  0  0
 39 40  1  0  0  0  0
 40 45  1  0  0  0  0
 40 46  1  0  0  0  0
 41 40  1  0  0  0  0
 41 43  1  0  0  0  0
 42 41  1  0  0  0  0
 44 41  1  0  0  0  0
 47 39  1  0  0  0  0
 48 39  1  0  0  0  0
 51 52  1  0  0  0  0
 51 37  1  0  0  0  0
 52 60  1  0  0  0  0
 52 61  1  0  0  0  0
 53 54  1  0  0  0  0
 53 52  1  0  0  0  0
 54 56  1  0  0  0  0
 54 57  1  0  0  0  0
 55 54  1  0  0  0  0
 58 53  1  0  0  0  0
 59 53  1  0  0  0  0
 62 51  1  0  0  0  0
 63 51  1  0  0  0  0
 64 69  1  0  0  0  0
 64 68  1  0  0  0  0
 65 66  2  0  0  0  0
 65 64  1  0  0  0  0
 66 67  1  0  0  0  0
M  END
