3
 OpenBabel05122313063D

 16 15  0  0  0  0  0  0  0  0999 V2000
    3.5081    2.4270    0.5297 Cl  0  0  0  0  0  0  0  0  0  0  0  0
    3.5108   -2.4248    0.5309 Cl  0  0  0  0  0  0  0  0  0  0  0  0
    1.9338    0.0000   -0.7876 N   0  0  0  0  0  0  0  0  0  0  0  0
    2.2029    1.2298   -1.5661 C   0  0  0  0  0  0  0  0  0  0  0  0
    2.1786    2.4661   -0.6908 C   0  0  0  0  0  0  0  0  0  0  0  0
    2.2029   -1.2305   -1.5650 C   0  0  0  0  0  0  0  0  0  0  0  0
    2.1799   -2.4658   -0.6881 C   0  0  0  0  0  0  0  0  0  0  0  0
    2.5527    0.0004    0.0496 H   0  0  0  0  0  0  0  0  0  0  0  0
    3.1940    1.1436   -2.0650 H   0  0  0  0  0  0  0  0  0  0  0  0
    1.4142    1.3102   -2.3435 H   0  0  0  0  0  0  0  0  0  0  0  0
    1.2253    2.5334   -0.1293 H   0  0  0  0  0  0  0  0  0  0  0  0
    2.3138    3.3757   -1.3054 H   0  0  0  0  0  0  0  0  0  0  0  0
    1.4138   -1.3121   -2.3417 H   0  0  0  0  0  0  0  0  0  0  0  0
    3.1936   -1.1444   -2.0647 H   0  0  0  0  0  0  0  0  0  0  0  0
    2.3148   -3.3761   -1.3018 H   0  0  0  0  0  0  0  0  0  0  0  0
    1.2273   -2.5327   -0.1255 H   0  0  0  0  0  0  0  0  0  0  0  0
  3  8  1  0  0  0  0
  4  3  1  0  0  0  0
  4  5  1  0  0  0  0
  5 11  1  0  0  0  0
  5  1  1  0  0  0  0
  6  3  1  0  0  0  0
  6  7  1  0  0  0  0
  7 16  1  0  0  0  0
  7  2  1  0  0  0  0
  9  4  1  0  0  0  0
 10  4  1  0  0  0  0
 12  5  1  0  0  0  0
 13  6  1  0  0  0  0
 14  6  1  0  0  0  0
 15  7  1  0  0  0  0
M  END
