2
 OpenBabel05122313063D

 21 20  0  0  1  0  0  0  0  0999 V2000
   -4.2728   -0.3962    0.1881 O   0  0  0  0  0  0  0  0  0  0  0  0
   -2.0253    0.0533   -0.0576 N   0  0  0  0  0  2  0  0  0  0  0  0
   -2.9872   -0.7479    0.2866 C   0  0  2  0  0  3  0  0  0  0  0  0
   -2.8047   -2.1503    0.7755 C   0  0  0  0  0  0  0  0  0  0  0  0
   -3.2053   -3.1762   -0.2958 C   0  0  0  0  0  0  0  0  0  0  0  0
   -4.6639    0.9308   -0.2865 C   0  0  0  0  0  0  0  0  0  0  0  0
   -4.4358    1.9728    0.8058 C   0  0  0  0  0  0  0  0  0  0  0  0
   -6.1181    0.7945   -0.7081 C   0  0  0  0  0  0  0  0  0  0  0  0
   -2.2983    0.9773   -0.4147 H   0  0  0  0  0  0  0  0  0  0  0  0
   -3.4468   -2.2590    1.6741 H   0  0  0  0  0  0  0  0  0  0  0  0
   -1.7526   -2.2844    1.0864 H   0  0  0  0  0  0  0  0  0  0  0  0
   -3.1140   -4.2006    0.1143 H   0  0  0  0  0  0  0  0  0  0  0  0
   -4.2512   -3.0283   -0.6304 H   0  0  0  0  0  0  0  0  0  0  0  0
   -2.5276   -3.0961   -1.1676 H   0  0  0  0  0  0  0  0  0  0  0  0
   -4.0468    1.1627   -1.1856 H   0  0  0  0  0  0  0  0  0  0  0  0
   -5.0178    1.7072    1.7106 H   0  0  0  0  0  0  0  0  0  0  0  0
   -3.3687    2.0688    1.0893 H   0  0  0  0  0  0  0  0  0  0  0  0
   -4.7791    2.9642    0.4497 H   0  0  0  0  0  0  0  0  0  0  0  0
   -6.7502    0.5272    0.1621 H   0  0  0  0  0  0  0  0  0  0  0  0
   -6.4826    1.7534   -1.1246 H   0  0  0  0  0  0  0  0  0  0  0  0
   -6.2322    0.0098   -1.4805 H   0  0  0  0  0  0  0  0  0  0  0  0
  1  3  1  0  0  0  0
  3  2  1  6  0  0  0
  3  4  1  0  0  0  0
  4 11  1  0  0  0  0
  4 10  1  0  0  0  0
  5 12  1  0  0  0  0
  5  4  1  0  0  0  0
  6  1  1  0  0  0  0
  6  7  1  0  0  0  0
  7 17  1  0  0  0  0
  7 16  1  0  0  0  0
  8  6  1  0  0  0  0
  8 19  1  0  0  0  0
  9  2  1  0  0  0  0
 13  5  1  0  0  0  0
 14  5  1  0  0  0  0
 15  6  1  0  0  0  0
 18  7  1  0  0  0  0
 20  8  1  0  0  0  0
 21  8  1  0  0  0  0
M  END
