7
 OpenBabel05122313063D

 24 25  0  0  1  0  0  0  0  0999 V2000
   -4.8790    2.1707    0.0906 C   0  0  0  0  0  0  0  0  0  0  0  0
   -5.0118    2.6849    1.0621 H   0  0  0  0  0  0  0  0  0  0  0  0
   -5.3237    2.8077   -0.6965 H   0  0  0  0  0  0  0  0  0  0  0  0
   -5.0212   -0.3043   -0.1288 N   0  0  0  0  0  0  0  0  0  0  0  0
   -4.0226   -0.3266   -0.3755 H   0  0  0  0  0  0  0  0  0  0  0  0
   -1.7729    1.8317   -1.4928 N   0  0  0  0  0  0  0  0  0  0  0  0
   -1.4346    1.3721   -0.2658 N   0  0  0  0  0  2  0  0  0  0  0  0
   -2.9979    2.2351   -1.4767 N   0  0  0  0  0  0  0  0  0  0  0  0
   -3.4677    2.0393   -0.2114 N   0  0  0  0  0  0  0  0  0  0  0  0
   -6.8722    0.9305    0.4536 O   0  0  0  0  0  0  0  0  0  0  0  0
   -2.4855    1.5075    0.5547 C   0  0  1  0  0  3  0  0  0  0  0  0
   -5.7012   -1.5723   -0.0966 C   0  0  0  0  0  0  0  0  0  0  0  0
   -6.7841   -1.4192    0.0244 H   0  0  0  0  0  0  0  0  0  0  0  0
   -5.2067   -2.7157   -0.9445 C   0  0  0  0  0  0  0  0  0  0  0  0
   -4.2811   -2.5555   -1.5209 H   0  0  0  0  0  0  0  0  0  0  0  0
   -5.9557   -3.3492   -1.4446 H   0  0  0  0  0  0  0  0  0  0  0  0
   -2.5718    1.0917    1.9736 C   0  0  0  0  0  0  0  0  0  0  0  0
   -2.9350    0.0451    2.0298 H   0  0  0  0  0  0  0  0  0  0  0  0
   -1.5613    1.1213    2.4224 H   0  0  0  0  0  0  0  0  0  0  0  0
   -3.2576    1.7432    2.5477 H   0  0  0  0  0  0  0  0  0  0  0  0
   -5.6843    0.8496    0.1536 C   0  0  0  0  0  0  0  0  0  0  0  0
   -5.0631   -2.7736    0.5626 C   0  0  0  0  0  0  0  0  0  0  0  0
   -4.0431   -2.6510    0.9610 H   0  0  0  0  0  0  0  0  0  0  0  0
   -5.7136   -3.4472    1.1423 H   0  0  0  0  0  0  0  0  0  0  0  0
  1 21  1  0  0  0  0
  1  2  1  0  0  0  0
  3  1  1  0  0  0  0
  4 12  1  0  0  0  0
  4 21  1  0  0  0  0
  5  4  1  0  0  0  0
  6  8  2  0  0  0  0
  6  7  1  0  0  0  0
  7 11  1  0  0  0  0
  8  9  1  0  0  0  0
  9  1  1  0  0  0  0
  9 11  1  0  0  0  0
 11 17  1  6  0  0  0
 12 13  1  0  0  0  0
 12 22  1  0  0  0  0
 14 12  1  0  0  0  0
 14 22  1  0  0  0  0
 15 14  1  0  0  0  0
 16 14  1  0  0  0  0
 17 18  1  0  0  0  0
 17 19  1  0  0  0  0
 17 20  1  0  0  0  0
 21 10  2  0  0  0  0
 22 23  1  0  0  0  0
 22 24  1  0  0  0  0
M  END
