1
 OpenBabel05122313063D

 28 30  0  0  1  0  0  0  0  0999 V2000
    1.1733    0.3391   -0.8823 N   0  0  0  0  0  2  0  0  0  0  0  0
    1.8349   -1.6311   -1.7215 N   0  0  0  0  0  0  0  0  0  0  0  0
    2.5487    0.2400   -0.7051 C   0  0  0  0  0  0  0  0  0  0  0  0
    3.4724    1.1309   -0.1304 C   0  0  0  0  0  0  0  0  0  0  0  0
    3.1287    2.1104    0.2297 H   0  0  0  0  0  0  0  0  0  0  0  0
    4.8101    0.7255   -0.0868 C   0  0  0  0  0  0  0  0  0  0  0  0
    5.5614    1.4009    0.3488 H   0  0  0  0  0  0  0  0  0  0  0  0
    5.2263   -0.5301   -0.5949 C   0  0  0  0  0  0  0  0  0  0  0  0
    6.2895   -0.8083   -0.5386 H   0  0  0  0  0  0  0  0  0  0  0  0
    4.3171   -1.4236   -1.1755 C   0  0  0  0  0  0  0  0  0  0  0  0
    4.6419   -2.3970   -1.5700 H   0  0  0  0  0  0  0  0  0  0  0  0
    2.9750   -1.0133   -1.2206 C   0  0  0  0  0  0  0  0  0  0  0  0
    0.7665   -0.7806   -1.4959 C   0  0  1  0  0  3  0  0  0  0  0  0
   -0.6238   -1.0645   -1.8727 C   0  0  0  0  0  0  0  0  0  0  0  0
   -1.3951   -0.0406   -2.4682 C   0  0  0  0  0  0  0  0  0  0  0  0
   -0.9301    0.9380   -2.6606 H   0  0  0  0  0  0  0  0  0  0  0  0
   -2.7389   -0.2710   -2.7859 C   0  0  0  0  0  0  0  0  0  0  0  0
   -3.3330    0.5346   -3.2411 H   0  0  0  0  0  0  0  0  0  0  0  0
   -3.3321   -1.5132   -2.5081 C   0  0  0  0  0  0  0  0  0  0  0  0
   -4.3938   -1.6818   -2.7405 H   0  0  0  0  0  0  0  0  0  0  0  0
   -2.5730   -2.5331   -1.9139 C   0  0  0  0  0  0  0  0  0  0  0  0
   -3.0390   -3.5019   -1.6792 H   0  0  0  0  0  0  0  0  0  0  0  0
   -1.2243   -2.3147   -1.6003 C   0  0  0  0  0  0  0  0  0  0  0  0
   -0.6430   -3.1066   -1.1046 H   0  0  0  0  0  0  0  0  0  0  0  0
    1.8369   -2.8804   -2.4554 C   0  0  0  0  0  0  0  0  0  0  0  0
    0.9083   -2.9668   -3.0467 H   0  0  0  0  0  0  0  0  0  0  0  0
    1.9113   -3.7515   -1.7709 H   0  0  0  0  0  0  0  0  0  0  0  0
    2.7021   -2.9006   -3.1472 H   0  0  0  0  0  0  0  0  0  0  0  0
  1  3  1  0  0  0  0
  2 13  1  0  0  0  0
  2 12  1  0  0  0  0
  3  4  1  0  0  0  0
  4  6  2  0  0  0  0
  4  5  1  0  0  0  0
  6  7  1  0  0  0  0
  8  9  1  0  0  0  0
  8  6  1  0  0  0  0
 10  8  2  0  0  0  0
 11 10  1  0  0  0  0
 12 10  1  0  0  0  0
 12  3  2  0  0  0  0
 13 14  1  1  0  0  0
 13  1  1  0  0  0  0
 14 23  1  0  0  0  0
 15 14  2  0  0  0  0
 16 15  1  0  0  0  0
 17 19  2  0  0  0  0
 17 15  1  0  0  0  0
 18 17  1  0  0  0  0
 19 21  1  0  0  0  0
 20 19  1  0  0  0  0
 21 22  1  0  0  0  0
 21 23  2  0  0  0  0
 23 24  1  0  0  0  0
 25 27  1  0  0  0  0
 25  2  1  0  0  0  0
 26 25  1  0  0  0  0
 28 25  1  0  0  0  0
M  END
