2
 OpenBabel05122313063D

 38 41  0  0  0  0  0  0  0  0999 V2000
    2.4289   -1.6647   -1.3662 S   0  0  0  0  0  0  0  0  0  0  0  0
    1.0763   -0.8793   -0.2572 N   0  0  0  0  0  0  0  0  0  0  0  0
    0.4812   -3.2555    1.0655 N   0  0  0  0  0  0  0  0  0  0  0  0
    1.7542   -1.7582   -2.6797 O   0  0  0  0  0  0  0  0  0  0  0  0
    2.9781   -2.8466   -0.6673 O   0  0  0  0  0  0  0  0  0  0  0  0
    0.8476    0.3873   -0.6881 O   0  0  0  0  0  1  0  0  0  0  0  0
    3.6192   -0.3420   -1.3758 C   0  0  0  0  0  0  0  0  0  0  0  0
    4.6433   -0.3806   -0.4391 C   0  0  0  0  0  0  0  0  0  0  0  0
    5.5477    0.7143   -0.3487 C   0  0  0  0  0  0  0  0  0  0  0  0
    6.6186    0.7301    0.5930 C   0  0  0  0  0  0  0  0  0  0  0  0
    6.7465   -0.1346    1.2622 H   0  0  0  0  0  0  0  0  0  0  0  0
    7.4798    1.8144    0.6651 C   0  0  0  0  0  0  0  0  0  0  0  0
    7.3059    2.9259   -0.2037 C   0  0  0  0  0  0  0  0  0  0  0  0
    6.2740    2.9393   -1.1313 C   0  0  0  0  0  0  0  0  0  0  0  0
    5.3689    1.8437   -1.2322 C   0  0  0  0  0  0  0  0  0  0  0  0
    4.2955    1.8286   -2.1747 C   0  0  0  0  0  0  0  0  0  0  0  0
    3.4214    0.7590   -2.2530 C   0  0  0  0  0  0  0  0  0  0  0  0
    0.1982   -4.3900    1.6840 C   0  0  0  0  0  0  0  0  0  0  0  0
    0.4940   -4.6417    3.0524 C   0  0  0  0  0  0  0  0  0  0  0  0
    0.2356   -5.6115    3.5023 H   0  0  0  0  0  0  0  0  0  0  0  0
    1.0951   -3.6393    3.7953 C   0  0  0  0  0  0  0  0  0  0  0  0
    1.4066   -2.3963    3.1747 C   0  0  0  0  0  0  0  0  0  0  0  0
    2.0027   -1.3049    3.8694 C   0  0  0  0  0  0  0  0  0  0  0  0
    2.2638   -0.1117    3.2103 C   0  0  0  0  0  0  0  0  0  0  0  0
    1.9539    0.0345    1.8364 C   0  0  0  0  0  0  0  0  0  0  0  0
    1.3847   -1.0212    1.1343 C   0  0  0  0  0  0  0  0  0  0  0  0
    1.0813   -2.2644    1.7766 C   0  0  0  0  0  0  0  0  0  0  0  0
    4.7527   -1.2533    0.2213 H   0  0  0  0  0  0  0  0  0  0  0  0
    8.3023    1.8176    1.3961 H   0  0  0  0  0  0  0  0  0  0  0  0
    7.9965    3.7802   -0.1379 H   0  0  0  0  0  0  0  0  0  0  0  0
    6.1397    3.8001   -1.8045 H   0  0  0  0  0  0  0  0  0  0  0  0
    4.1680    2.6923   -2.8453 H   0  0  0  0  0  0  0  0  0  0  0  0
    2.5886    0.7368   -2.9678 H   0  0  0  0  0  0  0  0  0  0  0  0
   -0.3059   -5.1660    1.0783 H   0  0  0  0  0  0  0  0  0  0  0  0
    1.3323   -3.7829    4.8612 H   0  0  0  0  0  0  0  0  0  0  0  0
    2.2440   -1.4220    4.9372 H   0  0  0  0  0  0  0  0  0  0  0  0
    2.7147    0.7328    3.7524 H   0  0  0  0  0  0  0  0  0  0  0  0
    2.1405    0.9759    1.3021 H   0  0  0  0  0  0  0  0  0  0  0  0
  1  5  2  0  0  0  0
  1  2  1  0  0  0  0
  2 26  1  0  0  0  0
  3 18  2  0  0  0  0
  3 27  1  0  0  0  0
  4  1  2  0  0  0  0
  6  2  1  0  0  0  0
  7  1  1  0  0  0  0
  7  8  1  0  0  0  0
  8  9  2  0  0  0  0
  8 28  1  0  0  0  0
  9 10  1  0  0  0  0
 10 12  2  0  0  0  0
 10 11  1  0  0  0  0
 12 29  1  0  0  0  0
 13 30  1  0  0  0  0
 13 12  1  0  0  0  0
 14 13  2  0  0  0  0
 15 14  1  0  0  0  0
 15  9  1  0  0  0  0
 16 15  2  0  0  0  0
 17 16  1  0  0  0  0
 17  7  2  0  0  0  0
 18 19  1  0  0  0  0
 19 20  1  0  0  0  0
 19 21  2  0  0  0  0
 21 35  1  0  0  0  0
 22 21  1  0  0  0  0
 22 23  1  0  0  0  0
 23 36  1  0  0  0  0
 24 37  1  0  0  0  0
 24 23  2  0  0  0  0
 25 24  1  0  0  0  0
 26 27  1  0  0  0  0
 26 25  2  0  0  0  0
 27 22  2  0  0  0  0
 31 14  1  0  0  0  0
 32 16  1  0  0  0  0
 33 17  1  0  0  0  0
 34 18  1  0  0  0  0
 38 25  1  0  0  0  0
M  END
