2
 OpenBabel05122313063D

 14 14  0  0  0  0  0  0  0  0999 V2000
   -0.9493   -0.6148   -1.5342 S   0  0  0  0  0  1  0  0  0  0  0  0
   -1.8346   -1.0742    1.1985 N   0  0  0  0  0  0  0  0  0  0  0  0
   -1.6080   -2.0816    1.1617 H   0  0  0  0  0  0  0  0  0  0  0  0
   -2.0999   -0.8908    2.1770 H   0  0  0  0  0  0  0  0  0  0  0  0
   -2.6545   -0.6833   -1.0503 C   0  0  0  0  0  0  0  0  0  0  0  0
   -2.9719   -0.8465    0.3111 C   0  0  0  0  0  0  0  0  0  0  0  0
   -4.2940   -0.8465    0.7686 C   0  0  0  0  0  0  0  0  0  0  0  0
   -4.5155   -0.9834    1.8393 H   0  0  0  0  0  0  0  0  0  0  0  0
   -5.3370   -0.6781   -0.1578 C   0  0  0  0  0  0  0  0  0  0  0  0
   -6.3798   -0.6618    0.1895 H   0  0  0  0  0  0  0  0  0  0  0  0
   -5.0388   -0.5382   -1.5232 C   0  0  0  0  0  0  0  0  0  0  0  0
   -5.8542   -0.4117   -2.2507 H   0  0  0  0  0  0  0  0  0  0  0  0
   -3.7097   -0.5422   -1.9734 C   0  0  0  0  0  0  0  0  0  0  0  0
   -3.4788   -0.4156   -3.0412 H   0  0  0  0  0  0  0  0  0  0  0  0
  1  5  1  0  0  0  0
  2  4  1  0  0  0  0
  3  2  1  0  0  0  0
  5  6  1  0  0  0  0
  6  7  2  0  0  0  0
  6  2  1  0  0  0  0
  7  8  1  0  0  0  0
  9 10  1  0  0  0  0
  9  7  1  0  0  0  0
 11  9  2  0  0  0  0
 12 11  1  0  0  0  0
 13 11  1  0  0  0  0
 13  5  2  0  0  0  0
 14 13  1  0  0  0  0
M  END
