3
 OpenBabel05122313063D

 21 21  0  0  0  0  0  0  0  0999 V2000
    4.5297    2.6591   -0.6214 O   0  0  0  0  0  0  0  0  0  0  0  0
    5.5317    2.5364   -0.5919 H   0  0  0  0  0  0  0  0  0  0  0  0
    2.0278    0.1365   -0.0372 N   0  0  0  0  0  2  0  0  0  0  0  0
    2.6105    1.3162   -0.3016 C   0  0  0  0  0  3  0  0  0  0  0  0
    1.9549    2.1854   -0.4495 H   0  0  0  0  0  0  0  0  0  0  0  0
    6.8391    1.5495   -0.3589 O   0  0  0  0  0  0  0  0  0  0  0  0
    4.0183    1.4629   -0.3420 C   0  0  0  0  0  0  0  0  0  0  0  0
    6.9641   -0.6496    0.1625 O   0  0  0  0  0  0  0  0  0  0  0  0
    4.8173    0.3142   -0.0730 C   0  0  0  0  0  0  0  0  0  0  0  0
    6.2842    0.4702   -0.1050 C   0  0  0  0  0  0  0  0  0  0  0  0
    4.1692   -0.9057    0.2066 C   0  0  0  0  0  0  0  0  0  0  0  0
    4.7649   -1.8042    0.4151 H   0  0  0  0  0  0  0  0  0  0  0  0
    2.7809   -0.9708    0.2113 C   0  0  0  0  0  0  0  0  0  0  0  0
    2.2243   -1.9027    0.3731 H   0  0  0  0  0  0  0  0  0  0  0  0
    8.9726   -1.9185    0.4650 C   0  0  0  0  0  0  0  0  0  0  0  0
   10.0796   -1.8788    0.4586 H   0  0  0  0  0  0  0  0  0  0  0  0
    8.6447   -2.2593    1.4668 H   0  0  0  0  0  0  0  0  0  0  0  0
    8.6492   -2.6691   -0.2829 H   0  0  0  0  0  0  0  0  0  0  0  0
    8.4108   -0.5509    0.1432 C   0  0  0  0  0  0  0  0  0  0  0  0
    8.7193    0.2206    0.8793 H   0  0  0  0  0  0  0  0  0  0  0  0
    8.7239   -0.1862   -0.8575 H   0  0  0  0  0  0  0  0  0  0  0  0
  1  2  1  0  0  0  0
  1  7  1  0  0  0  0
  3 13  1  0  0  0  0
  4  3  1  0  0  0  0
  5  4  1  0  0  0  0
  6 10  2  0  0  0  0
  7  4  1  0  0  0  0
  7  9  2  0  0  0  0
  9 11  1  0  0  0  0
 10  9  1  0  0  0  0
 10  8  1  0  0  0  0
 11 13  2  0  0  0  0
 11 12  1  0  0  0  0
 13 14  1  0  0  0  0
 15 17  1  0  0  0  0
 16 15  1  0  0  0  0
 18 15  1  0  0  0  0
 19  8  1  0  0  0  0
 19 15  1  0  0  0  0
 19 20  1  0  0  0  0
 21 19  1  0  0  0  0
M  END
