3
 OpenBabel05122313063D

 37 39  0  0  1  0  0  0  0  0999 V2000
    2.6593   -2.1486    1.6144 S   0  0  0  0  0  0  0  0  0  0  0  0
    1.6397    2.5593    0.3241 O   0  0  0  0  0  0  0  0  0  0  0  0
   -1.2315   -0.2347   -0.3787 N   0  0  0  0  0  2  0  0  0  0  0  0
    0.7256   -0.9852   -1.2180 N   0  0  0  0  0  0  0  0  0  0  0  0
    0.9453   -0.0730   -0.2369 N   0  0  0  0  0  0  0  0  0  0  0  0
   -0.5967   -1.0558   -1.2777 C   0  0  0  0  0  0  0  0  0  0  0  0
   -1.1324   -1.7078   -1.9767 H   0  0  0  0  0  0  0  0  0  0  0  0
   -0.2282    0.3752    0.2672 C   0  0  0  0  0  3  0  0  0  0  0  0
   -0.3182    1.1357    1.0474 H   0  0  0  0  0  0  0  0  0  0  0  0
    2.3016    0.2509    0.1659 C   0  0  1  0  0  0  0  0  0  0  0  0
    2.9405   -0.2465   -0.5878 H   0  0  0  0  0  0  0  0  0  0  0  0
    2.5608    1.7717    0.1429 C   0  0  0  0  0  0  0  0  0  0  0  0
    3.9738    2.2171   -0.0413 C   0  0  0  0  0  0  0  0  0  0  0  0
    5.0396    1.3293   -0.3196 C   0  0  0  0  0  0  0  0  0  0  0  0
    4.8733    0.2467   -0.4187 H   0  0  0  0  0  0  0  0  0  0  0  0
    6.3418    1.8218   -0.4752 C   0  0  0  0  0  0  0  0  0  0  0  0
    7.1632    1.1223   -0.6905 H   0  0  0  0  0  0  0  0  0  0  0  0
    6.5935    3.1985   -0.3601 C   0  0  0  0  0  0  0  0  0  0  0  0
    7.6177    3.5818   -0.4849 H   0  0  0  0  0  0  0  0  0  0  0  0
    5.5388    4.0882   -0.0872 C   0  0  0  0  0  0  0  0  0  0  0  0
    5.7366    5.1669    0.0015 H   0  0  0  0  0  0  0  0  0  0  0  0
    4.2384    3.6011    0.0721 C   0  0  0  0  0  0  0  0  0  0  0  0
    3.3932    4.2716    0.2863 H   0  0  0  0  0  0  0  0  0  0  0  0
    2.6422   -0.3155    1.5613 C   0  0  0  0  0  0  0  0  0  0  0  0
    1.8870    0.0134    2.3038 H   0  0  0  0  0  0  0  0  0  0  0  0
    3.6272    0.0723    1.8896 H   0  0  0  0  0  0  0  0  0  0  0  0
    4.0653   -2.3956    0.5252 C   0  0  0  0  0  0  0  0  0  0  0  0
    3.8580   -2.6315   -0.8495 C   0  0  0  0  0  0  0  0  0  0  0  0
    2.8294   -2.6782   -1.2387 H   0  0  0  0  0  0  0  0  0  0  0  0
    4.9634   -2.7663   -1.7063 C   0  0  0  0  0  0  0  0  0  0  0  0
    4.8002   -2.9434   -2.7802 H   0  0  0  0  0  0  0  0  0  0  0  0
    6.2685   -2.6722   -1.1975 C   0  0  0  0  0  0  0  0  0  0  0  0
    7.1313   -2.7784   -1.8725 H   0  0  0  0  0  0  0  0  0  0  0  0
    6.4738   -2.4504    0.1752 C   0  0  0  0  0  0  0  0  0  0  0  0
    7.4961   -2.3881    0.5784 H   0  0  0  0  0  0  0  0  0  0  0  0
    5.3758   -2.3164    1.0382 C   0  0  0  0  0  0  0  0  0  0  0  0
    5.5232   -2.1463    2.1154 H   0  0  0  0  0  0  0  0  0  0  0  0
  3  8  1  0  0  0  0
  4  5  1  0  0  0  0
  5 10  1  0  0  0  0
  5  8  1  0  0  0  0
  6  4  2  0  0  0  0
  6  3  1  0  0  0  0
  7  6  1  0  0  0  0
  8  9  1  0  0  0  0
 10 11  1  6  0  0  0
 10 24  1  0  0  0  0
 12 10  1  0  0  0  0
 12  2  2  0  0  0  0
 13 22  1  0  0  0  0
 13 12  1  0  0  0  0
 14 13  2  0  0  0  0
 15 14  1  0  0  0  0
 16 18  2  0  0  0  0
 16 14  1  0  0  0  0
 17 16  1  0  0  0  0
 18 20  1  0  0  0  0
 19 18  1  0  0  0  0
 20 21  1  0  0  0  0
 20 22  2  0  0  0  0
 22 23  1  0  0  0  0
 24  1  1  0  0  0  0
 24 26  1  0  0  0  0
 24 25  1  0  0  0  0
 27 36  1  0  0  0  0
 27  1  1  0  0  0  0
 28 27  2  0  0  0  0
 29 28  1  0  0  0  0
 30 32  2  0  0  0  0
 30 28  1  0  0  0  0
 31 30  1  0  0  0  0
 32 34  1  0  0  0  0
 33 32  1  0  0  0  0
 34 35  1  0  0  0  0
 34 36  2  0  0  0  0
 36 37  1  0  0  0  0
M  END
