1
 OpenBabel05122313063D

 39 39  0  0  1  0  0  0  0  0999 V2000
   -1.8426   -0.5782   -0.5742 N   0  0  0  0  0  2  0  0  0  0  0  0
   -2.6472    0.1610   -1.3805 N   0  0  0  0  0  0  0  0  0  0  0  0
   -3.8901   -0.4004   -1.4728 C   0  0  1  0  0  3  0  0  0  0  0  0
   -3.8484   -1.5730   -0.7098 C   0  0  0  0  0  0  0  0  0  0  0  0
   -2.5509   -1.6469   -0.1562 C   0  0  0  0  0  0  0  0  0  0  0  0
   -1.9588   -2.6497    0.7782 C   0  0  0  0  0  0  0  0  0  0  0  0
   -2.6632   -3.4840    0.9519 H   0  0  0  0  0  0  0  0  0  0  0  0
   -1.0131   -3.0627    0.3710 H   0  0  0  0  0  0  0  0  0  0  0  0
   -1.7192   -2.1644    1.7471 H   0  0  0  0  0  0  0  0  0  0  0  0
   -4.6871   -2.2558   -0.5479 H   0  0  0  0  0  0  0  0  0  0  0  0
   -5.0052    0.2153   -2.2469 C   0  0  0  0  0  0  0  0  0  0  0  0
   -5.0586    1.3005   -2.0374 H   0  0  0  0  0  0  0  0  0  0  0  0
   -4.8887    0.0613   -3.3409 H   0  0  0  0  0  0  0  0  0  0  0  0
   -5.9529   -0.2424   -1.9117 H   0  0  0  0  0  0  0  0  0  0  0  0
   -2.1830    1.4315   -1.9148 C   0  0  0  0  0  0  0  0  0  0  0  0
   -2.3361    2.5679   -0.9081 C   0  0  0  0  0  0  0  0  0  0  0  0
   -3.7123    2.8425   -0.7043 O   0  0  0  0  0  0  0  0  0  0  0  0
   -4.1130    3.0165    0.6461 C   0  0  0  0  0  0  0  0  0  0  0  0
   -4.3711    1.7206    1.3997 C   0  0  0  0  0  0  0  0  0  0  0  0
   -5.5350    1.0937    0.8878 O   0  0  0  0  0  0  0  0  0  0  0  0
   -5.9135   -0.0317    1.6468 C   0  0  0  0  0  0  0  0  0  0  0  0
   -7.2228   -0.6017    1.1403 C   0  0  0  0  0  0  0  0  0  0  0  0
   -7.0434   -1.3029   -0.0757 O   0  0  0  0  0  0  0  0  0  0  0  0
   -8.2455   -1.8423   -0.5718 C   0  0  0  0  0  0  0  0  0  0  0  0
   -8.0150   -2.3652   -1.5203 H   0  0  0  0  0  0  0  0  0  0  0  0
   -8.6995   -2.5759    0.1390 H   0  0  0  0  0  0  0  0  0  0  0  0
   -9.0081   -1.0517   -0.7761 H   0  0  0  0  0  0  0  0  0  0  0  0
   -7.9554    0.2333    1.0098 H   0  0  0  0  0  0  0  0  0  0  0  0
   -7.6369   -1.2871    1.9223 H   0  0  0  0  0  0  0  0  0  0  0  0
   -6.0577    0.2524    2.7208 H   0  0  0  0  0  0  0  0  0  0  0  0
   -5.1236   -0.8212    1.6213 H   0  0  0  0  0  0  0  0  0  0  0  0
   -4.5116    1.9745    2.4823 H   0  0  0  0  0  0  0  0  0  0  0  0
   -3.4827    1.0452    1.3520 H   0  0  0  0  0  0  0  0  0  0  0  0
   -5.0568    3.6004    0.6149 H   0  0  0  0  0  0  0  0  0  0  0  0
   -3.3603    3.6122    1.2135 H   0  0  0  0  0  0  0  0  0  0  0  0
   -1.8174    3.4709   -1.3129 H   0  0  0  0  0  0  0  0  0  0  0  0
   -1.8237    2.2792    0.0379 H   0  0  0  0  0  0  0  0  0  0  0  0
   -1.1211    1.2999   -2.2070 H   0  0  0  0  0  0  0  0  0  0  0  0
   -2.7709    1.6477   -2.8272 H   0  0  0  0  0  0  0  0  0  0  0  0
  1  5  1  0  0  0  0
  2  1  1  0  0  0  0
  3 11  1  1  0  0  0
  3  2  1  0  0  0  0
  3  4  1  0  0  0  0
  4 10  1  0  0  0  0
  4  5  2  0  0  0  0
  5  6  1  0  0  0  0
  6  7  1  0  0  0  0
  6  9  1  0  0  0  0
  8  6  1  0  0  0  0
 11 12  1  0  0  0  0
 11 14  1  0  0  0  0
 13 11  1  0  0  0  0
 15  2  1  0  0  0  0
 15 16  1  0  0  0  0
 16 17  1  0  0  0  0
 16 37  1  0  0  0  0
 17 18  1  0  0  0  0
 18 35  1  0  0  0  0
 18 19  1  0  0  0  0
 19 32  1  0  0  0  0
 20 19  1  0  0  0  0
 20 21  1  0  0  0  0
 21 30  1  0  0  0  0
 22 21  1  0  0  0  0
 22 29  1  0  0  0  0
 23 22  1  0  0  0  0
 24 23  1  0  0  0  0
 24 26  1  0  0  0  0
 25 24  1  0  0  0  0
 27 24  1  0  0  0  0
 28 22  1  0  0  0  0
 31 21  1  0  0  0  0
 33 19  1  0  0  0  0
 34 18  1  0  0  0  0
 36 16  1  0  0  0  0
 38 15  1  0  0  0  0
 39 15  1  0  0  0  0
M  END
