26
 OpenBabel05122313063D

 26 27  0  0  1  0  0  0  0  0999 V2000
   -2.8090   -1.1547   -2.2009 C   0  0  0  0  0  0  0  0  0  0  0  0
   -3.1263   -1.4254   -3.2186 H   0  0  0  0  0  0  0  0  0  0  0  0
   -3.2590    0.0217   -1.5889 C   0  0  0  0  0  0  0  0  0  0  0  0
   -3.9238    0.7274   -2.1114 H   0  0  0  0  0  0  0  0  0  0  0  0
   -2.8400    0.3311   -0.2798 C   0  0  0  0  0  0  0  0  0  0  0  0
   -3.3303    1.5766    0.4223 C   0  0  2  0  0  0  0  0  0  0  0  0
   -2.6859    1.7380    1.3294 H   0  0  0  0  0  0  0  0  0  0  0  0
   -4.8160    1.5067    0.8743 C   0  0  0  0  0  0  0  0  0  0  0  0
   -4.8849    1.1728    1.9272 H   0  0  0  0  0  0  0  0  0  0  0  0
   -5.3660    0.7649    0.2631 H   0  0  0  0  0  0  0  0  0  0  0  0
   -5.3676    2.9384    0.6485 C   0  0  0  0  0  0  0  0  0  0  0  0
   -6.1396    2.9344   -0.1454 H   0  0  0  0  0  0  0  0  0  0  0  0
   -5.8301    3.3692    1.5572 H   0  0  0  0  0  0  0  0  0  0  0  0
   -1.9659    3.2135   -0.7887 C   0  0  0  0  0  0  0  0  0  0  0  0
   -2.0268    4.0703   -1.4897 H   0  0  0  0  0  0  0  0  0  0  0  0
   -1.3893    2.4068   -1.2850 H   0  0  0  0  0  0  0  0  0  0  0  0
   -1.3805    3.5473    0.1108 H   0  0  0  0  0  0  0  0  0  0  0  0
   -3.2947    2.7504   -0.4525 N   0  0  0  0  0  0  0  0  0  0  0  0
   -4.1420    3.7443    0.1953 C   0  0  0  0  0  0  0  0  0  0  0  0
   -4.3838    4.5712   -0.5046 H   0  0  0  0  0  0  0  0  0  0  0  0
   -3.6253    4.2025    1.0828 H   0  0  0  0  0  0  0  0  0  0  0  0
   -1.9290   -1.9889   -1.4975 C   0  0  0  0  0  3  0  0  0  0  0  0
   -1.5214   -2.9305   -1.9062 H   0  0  0  0  0  0  0  0  0  0  0  0
   -1.9605   -0.5620    0.3480 C   0  0  0  0  0  0  0  0  0  0  0  0
   -1.5791   -0.4001    1.3734 H   0  0  0  0  0  0  0  0  0  0  0  0
   -1.5151   -1.6802   -0.2554 N   0  0  0  0  0  2  0  0  0  0  0  0
  1  3  2  0  0  0  0
  1 22  1  0  0  0  0
  2  1  1  0  0  0  0
  3  5  1  0  0  0  0
  4  3  1  0  0  0  0
  5 24  2  0  0  0  0
  5  6  1  0  0  0  0
  6  8  1  0  0  0  0
  6  7  1  1  0  0  0
  8  9  1  0  0  0  0
 10  8  1  0  0  0  0
 11  8  1  0  0  0  0
 11 13  1  0  0  0  0
 12 11  1  0  0  0  0
 14 18  1  0  0  0  0
 14 17  1  0  0  0  0
 15 14  1  0  0  0  0
 16 14  1  0  0  0  0
 18 19  1  0  0  0  0
 18  6  1  0  0  0  0
 19 11  1  0  0  0  0
 19 21  1  0  0  0  0
 20 19  1  0  0  0  0
 22 26  1  0  0  0  0
 23 22  1  0  0  0  0
 24 25  1  0  0  0  0
 26 24  1  0  0  0  0
M  END
