29
 OpenBabel05122313063D

 30 31  0  0  1  0  0  0  0  0999 V2000
    5.0831    0.2187   -2.1463 C   0  0  0  0  0  0  0  0  0  0  0  0
    6.0886    0.4463   -2.6993 N   0  0  0  0  0  0  0  0  0  0  0  0
    2.9791    1.0690   -1.1438 C   0  0  2  0  0  3  0  0  0  0  0  0
    3.8391   -0.1068   -1.4584 C   0  0  0  0  0  0  0  0  0  0  0  0
    4.0478   -0.6851   -0.5267 H   0  0  0  0  0  0  0  0  0  0  0  0
    3.2089   -0.8012   -2.0668 H   0  0  0  0  0  0  0  0  0  0  0  0
    1.3844    2.3932   -0.5563 C   0  0  0  0  0  0  0  0  0  0  0  0
    0.0922    2.8699   -0.0213 C   0  0  0  0  0  0  0  0  0  0  0  0
   -1.0954    2.5906   -0.7452 C   0  0  0  0  0  0  0  0  0  0  0  0
   -2.3118    3.0568   -0.2187 C   0  0  0  0  0  0  0  0  0  0  0  0
   -3.2348    2.8707   -0.7891 H   0  0  0  0  0  0  0  0  0  0  0  0
   -2.3808    3.7558    0.9993 C   0  0  0  0  0  0  0  0  0  0  0  0
   -1.1809    4.0226    1.6836 C   0  0  0  0  0  0  0  0  0  0  0  0
   -1.2127    4.5819    2.6323 H   0  0  0  0  0  0  0  0  0  0  0  0
    0.0664    3.6050    1.1915 C   0  0  0  0  0  0  0  0  0  0  0  0
   -1.0699    1.8242   -2.0417 C   0  0  0  0  0  0  0  0  0  0  0  0
   -0.8904    0.7408   -1.8729 H   0  0  0  0  0  0  0  0  0  0  0  0
   -0.2646    2.1793   -2.7163 H   0  0  0  0  0  0  0  0  0  0  0  0
   -2.0339    1.9200   -2.5762 H   0  0  0  0  0  0  0  0  0  0  0  0
   -3.7099    4.1820    1.5683 C   0  0  0  0  0  0  0  0  0  0  0  0
   -4.1412    3.3772    2.2031 H   0  0  0  0  0  0  0  0  0  0  0  0
   -4.4475    4.3967    0.7699 H   0  0  0  0  0  0  0  0  0  0  0  0
   -3.6148    5.0820    2.2067 H   0  0  0  0  0  0  0  0  0  0  0  0
    1.3341    3.9066    1.9463 C   0  0  0  0  0  0  0  0  0  0  0  0
    1.1292    4.5318    2.8355 H   0  0  0  0  0  0  0  0  0  0  0  0
    2.0706    4.4351    1.3093 H   0  0  0  0  0  0  0  0  0  0  0  0
    1.8046    2.9613    2.2893 H   0  0  0  0  0  0  0  0  0  0  0  0
    2.2845    3.1780   -1.1150 N   0  0  0  0  0  0  0  0  0  0  0  0
    1.7954    1.0613   -0.5570 N   0  0  0  0  0  2  0  0  0  0  0  0
    3.3270    2.3051   -1.4900 O   0  0  0  0  0  0  0  0  0  0  0  0
  1  4  1  0  0  0  0
  2  1  3  0  0  0  0
  3  4  1  6  0  0  0
  3 29  1  0  0  0  0
  4  5  1  0  0  0  0
  6  4  1  0  0  0  0
  7  8  1  0  0  0  0
  8 15  1  0  0  0  0
  9 10  1  0  0  0  0
  9  8  2  0  0  0  0
 10 12  2  0  0  0  0
 11 10  1  0  0  0  0
 12 20  1  0  0  0  0
 12 13  1  0  0  0  0
 13 14  1  0  0  0  0
 15 13  2  0  0  0  0
 15 24  1  0  0  0  0
 16 17  1  0  0  0  0
 16  9  1  0  0  0  0
 18 16  1  0  0  0  0
 19 16  1  0  0  0  0
 20 21  1  0  0  0  0
 20 23  1  0  0  0  0
 22 20  1  0  0  0  0
 24 27  1  0  0  0  0
 24 25  1  0  0  0  0
 26 24  1  0  0  0  0
 28  7  2  0  0  0  0
 29  7  1  0  0  0  0
 30  3  1  0  0  0  0
 30 28  1  0  0  0  0
M  END
