6
 OpenBabel05122313063D

 51 54  0  0  0  0  0  0  0  0999 V2000
   -0.3070    1.1153    0.1770 P   0  0  0  0  0  0  0  0  0  0  0  0
    2.5080    0.3737    0.5163 B   0  0  1  0  0  0  0  0  0  0  0  0
    2.0471   -0.7387    1.5339 N   0  0  0  0  0  0  0  0  0  0  0  0
    0.9182   -1.4543    1.3147 N   0  0  0  0  0  0  0  0  0  0  0  0
    2.5366   -0.3056   -0.9014 N   0  0  0  0  0  0  0  0  0  0  0  0
    1.4263   -0.8082   -1.5114 N   0  0  0  0  0  2  0  0  0  0  0  0
   -0.9822    2.3704   -0.9897 C   0  0  0  0  0  0  0  0  0  0  0  0
   -1.0697    3.7383   -0.6539 C   0  0  0  0  0  0  0  0  0  0  0  0
   -0.7817    4.0768    0.3537 H   0  0  0  0  0  0  0  0  0  0  0  0
   -1.5287    4.6664   -1.5994 C   0  0  0  0  0  0  0  0  0  0  0  0
   -1.5989    5.7318   -1.3310 H   0  0  0  0  0  0  0  0  0  0  0  0
   -1.8952    4.2397   -2.8878 C   0  0  0  0  0  0  0  0  0  0  0  0
   -2.2543    4.9715   -3.6276 H   0  0  0  0  0  0  0  0  0  0  0  0
   -1.7987    2.8822   -3.2301 C   0  0  0  0  0  0  0  0  0  0  0  0
   -2.0787    2.5458   -4.2401 H   0  0  0  0  0  0  0  0  0  0  0  0
   -1.3437    1.9499   -2.2838 C   0  0  0  0  0  0  0  0  0  0  0  0
   -1.2518    0.8781   -2.5266 H   0  0  0  0  0  0  0  0  0  0  0  0
   -1.1522    1.4693    1.7738 C   0  0  0  0  0  0  0  0  0  0  0  0
   -0.5441    1.0418    2.9761 C   0  0  0  0  0  0  0  0  0  0  0  0
    0.4561    0.5854    2.9612 H   0  0  0  0  0  0  0  0  0  0  0  0
   -1.2101    1.1904    4.2008 C   0  0  0  0  0  0  0  0  0  0  0  0
   -0.7195    0.8518    5.1262 H   0  0  0  0  0  0  0  0  0  0  0  0
   -2.4921    1.7618    4.2480 C   0  0  0  0  0  0  0  0  0  0  0  0
   -3.0127    1.8765    5.2108 H   0  0  0  0  0  0  0  0  0  0  0  0
   -3.1043    2.1875    3.0593 C   0  0  0  0  0  0  0  0  0  0  0  0
   -4.1071    2.6408    3.0852 H   0  0  0  0  0  0  0  0  0  0  0  0
   -2.4420    2.0411    1.8304 C   0  0  0  0  0  0  0  0  0  0  0  0
   -2.9287    2.3900    0.9070 H   0  0  0  0  0  0  0  0  0  0  0  0
    1.4419    1.6199    0.4605 C   0  0  0  0  0  0  0  0  0  0  0  0
    1.7170    2.2692   -0.3954 H   0  0  0  0  0  0  0  0  0  0  0  0
    1.4883    2.2448    1.3759 H   0  0  0  0  0  0  0  0  0  0  0  0
    2.6137   -1.1237    2.7115 C   0  0  0  0  0  0  0  0  0  0  0  0
    3.5450   -0.6723    3.0659 H   0  0  0  0  0  0  0  0  0  0  0  0
    1.8179   -2.1230    3.2781 C   0  0  0  0  0  0  0  0  0  0  0  0
    1.9864   -2.6567    4.2186 H   0  0  0  0  0  0  0  0  0  0  0  0
    0.7653   -2.2937    2.3568 C   0  0  0  0  0  0  0  0  0  0  0  0
   -0.0895   -2.9772    2.3926 H   0  0  0  0  0  0  0  0  0  0  0  0
    3.6011   -0.4080   -1.7386 C   0  0  0  0  0  3  0  0  0  0  0  0
    4.5803   -0.0239   -1.4419 H   0  0  0  0  0  0  0  0  0  0  0  0
    3.1779   -0.9960   -2.9315 C   0  0  0  0  0  0  0  0  0  0  0  0
    3.7783   -1.2186   -3.8186 H   0  0  0  0  0  0  0  0  0  0  0  0
    1.8066   -1.2301   -2.7371 C   0  0  0  0  0  0  0  0  0  0  0  0
    1.0855   -1.6859   -3.4217 H   0  0  0  0  0  0  0  0  0  0  0  0
    3.9936    0.9002    0.9699 C   0  0  0  0  0  0  0  0  0  0  0  0
    3.8575    1.2353    2.0250 H   0  0  0  0  0  0  0  0  0  0  0  0
    4.7292    0.0661    1.0030 H   0  0  0  0  0  0  0  0  0  0  0  0
    4.5634    2.0580    0.2107 C   0  0  0  0  0  0  0  0  0  0  0  0
    5.7753    2.1130   -0.3754 C   0  0  0  0  0  0  0  0  0  0  0  0
    3.9144    2.9506    0.1337 H   0  0  0  0  0  0  0  0  0  0  0  0
    6.4772    1.2621   -0.3255 H   0  0  0  0  0  0  0  0  0  0  0  0
    6.1141    3.0070   -0.9218 H   0  0  0  0  0  0  0  0  0  0  0  0
  1 29  1  0  0  0  0
  1 18  1  0  0  0  0
  2 29  1  1  0  0  0
  2 44  1  0  0  0  0
  2  3  1  0  0  0  0
  3 32  1  0  0  0  0
  4  3  1  0  0  0  0
  4 36  2  0  0  0  0
  5  2  1  0  0  0  0
  6  5  1  0  0  0  0
  7  8  1  0  0  0  0
  7  1  1  0  0  0  0
  8  9  1  0  0  0  0
 10 11  1  0  0  0  0
 10  8  2  0  0  0  0
 12 10  1  0  0  0  0
 13 12  1  0  0  0  0
 14 12  2  0  0  0  0
 14 16  1  0  0  0  0
 15 14  1  0  0  0  0
 16  7  2  0  0  0  0
 17 16  1  0  0  0  0
 18 27  2  0  0  0  0
 18 19  1  0  0  0  0
 19 21  2  0  0  0  0
 20 19  1  0  0  0  0
 21 23  1  0  0  0  0
 21 22  1  0  0  0  0
 23 24  1  0  0  0  0
 25 26  1  0  0  0  0
 25 23  2  0  0  0  0
 27 25  1  0  0  0  0
 28 27  1  0  0  0  0
 29 31  1  0  0  0  0
 30 29  1  0  0  0  0
 32 33  1  0  0  0  0
 32 34  2  0  0  0  0
 34 35  1  0  0  0  0
 36 37  1  0  0  0  0
 36 34  1  0  0  0  0
 38 39  1  0  0  0  0
 38  5  1  0  0  0  0
 40 42  2  0  0  0  0
 40 38  1  0  0  0  0
 41 40  1  0  0  0  0
 42  6  1  0  0  0  0
 43 42  1  0  0  0  0
 44 46  1  0  0  0  0
 44 45  1  0  0  0  0
 47 44  1  0  0  0  0
 48 50  1  0  0  0  0
 48 47  2  0  0  0  0
 49 47  1  0  0  0  0
 51 48  1  0  0  0  0
M  END
