7
 OpenBabel05122313063D

 53 55  0  0  1  0  0  0  0  0999 V2000
    5.1756    0.3072    1.7936 O   0  0  0  0  0  0  0  0  0  0  0  0
    6.0183    2.2831    0.2158 O   0  0  0  0  0  0  0  0  0  0  0  0
    4.3111    3.6243   -1.4167 O   0  0  0  0  0  0  0  0  0  0  0  0
   -5.6832    3.2843    0.5765 O   0  0  0  0  0  0  0  0  0  0  0  0
   -7.2520    1.2495   -0.0732 O   0  0  0  0  0  0  0  0  0  0  0  0
   -6.2268   -1.2174   -0.6434 O   0  0  0  0  0  0  0  0  0  0  0  0
    0.2772   -0.6500    0.0206 N   0  0  0  0  0  2  0  0  0  0  0  0
   -1.0681   -0.7139    0.0052 N   0  0  0  0  0  0  0  0  0  0  0  0
   -1.4591   -1.6613    0.1906 H   0  0  0  0  0  0  0  0  0  0  0  0
    0.6058    0.6699   -0.0105 C   0  0  1  0  0  3  0  0  0  0  0  0
   -0.5826    1.4357   -0.0622 C   0  0  0  0  0  0  0  0  0  0  0  0
   -0.6515    2.5269   -0.0862 H   0  0  0  0  0  0  0  0  0  0  0  0
   -1.6471    0.5153   -0.0376 C   0  0  0  0  0  0  0  0  0  0  0  0
    2.0000    1.1267    0.0626 C   0  0  0  0  0  0  0  0  0  0  0  0
    2.8933    0.4773    0.9387 C   0  0  0  0  0  0  0  0  0  0  0  0
    2.5185   -0.3340    1.5743 H   0  0  0  0  0  0  0  0  0  0  0  0
    4.2398    0.8817    0.9972 C   0  0  0  0  0  0  0  0  0  0  0  0
    4.6972    1.9519    0.1861 C   0  0  0  0  0  0  0  0  0  0  0  0
    3.7807    2.6158   -0.6707 C   0  0  0  0  0  0  0  0  0  0  0  0
    2.4363    2.2029   -0.7347 C   0  0  0  0  0  0  0  0  0  0  0  0
    1.7312    2.6782   -1.4278 H   0  0  0  0  0  0  0  0  0  0  0  0
    4.7926   -0.8277    2.5509 C   0  0  0  0  0  0  0  0  0  0  0  0
    4.0172   -0.5794    3.3103 H   0  0  0  0  0  0  0  0  0  0  0  0
    5.7041   -1.1771    3.0698 H   0  0  0  0  0  0  0  0  0  0  0  0
    4.4035   -1.6451    1.9034 H   0  0  0  0  0  0  0  0  0  0  0  0
    6.3360    3.5319    0.8236 C   0  0  0  0  0  0  0  0  0  0  0  0
    5.8814    4.3848    0.2757 H   0  0  0  0  0  0  0  0  0  0  0  0
    7.4381    3.6269    0.7924 H   0  0  0  0  0  0  0  0  0  0  0  0
    6.0029    3.5579    1.8853 H   0  0  0  0  0  0  0  0  0  0  0  0
    3.4688    4.2924   -2.3361 C   0  0  0  0  0  0  0  0  0  0  0  0
    3.0632    3.5971   -3.1046 H   0  0  0  0  0  0  0  0  0  0  0  0
    4.0945    5.0550   -2.8357 H   0  0  0  0  0  0  0  0  0  0  0  0
    2.6169    4.7990   -1.8287 H   0  0  0  0  0  0  0  0  0  0  0  0
   -3.0999    0.6927   -0.0442 C   0  0  0  0  0  0  0  0  0  0  0  0
   -3.6551    1.9518    0.2629 C   0  0  0  0  0  0  0  0  0  0  0  0
   -2.9911    2.7826    0.5299 H   0  0  0  0  0  0  0  0  0  0  0  0
   -5.0521    2.1207    0.2750 C   0  0  0  0  0  0  0  0  0  0  0  0
   -5.9094    1.0315   -0.0349 C   0  0  0  0  0  0  0  0  0  0  0  0
   -5.3392   -0.2312   -0.3436 C   0  0  0  0  0  0  0  0  0  0  0  0
   -3.9428   -0.3965   -0.3518 C   0  0  0  0  0  0  0  0  0  0  0  0
   -3.5086   -1.3642   -0.6320 H   0  0  0  0  0  0  0  0  0  0  0  0
   -4.8902    4.4155    0.8762 C   0  0  0  0  0  0  0  0  0  0  0  0
   -4.2576    4.2549    1.7786 H   0  0  0  0  0  0  0  0  0  0  0  0
   -5.5930    5.2457    1.0747 H   0  0  0  0  0  0  0  0  0  0  0  0
   -4.2300    4.6974    0.0250 H   0  0  0  0  0  0  0  0  0  0  0  0
   -8.0309    0.5909    0.9238 C   0  0  0  0  0  0  0  0  0  0  0  0
   -7.9709   -0.5138    0.8317 H   0  0  0  0  0  0  0  0  0  0  0  0
   -9.0776    0.9138    0.7677 H   0  0  0  0  0  0  0  0  0  0  0  0
   -7.7095    0.8930    1.9454 H   0  0  0  0  0  0  0  0  0  0  0  0
   -5.7205   -2.4998   -0.9727 C   0  0  0  0  0  0  0  0  0  0  0  0
   -5.0916   -2.4706   -1.8900 H   0  0  0  0  0  0  0  0  0  0  0  0
   -6.6000   -3.1424   -1.1606 H   0  0  0  0  0  0  0  0  0  0  0  0
   -5.1215   -2.9361   -0.1426 H   0  0  0  0  0  0  0  0  0  0  0  0
  1 22  1  0  0  0  0
  2 26  1  0  0  0  0
  3 19  1  0  0  0  0
  4 42  1  0  0  0  0
  5 38  1  0  0  0  0
  5 46  1  0  0  0  0
  6 39  1  0  0  0  0
  8  7  1  0  0  0  0
  8  9  1  0  0  0  0
 10  7  1  0  0  0  0
 10 14  1  1  0  0  0
 11 13  2  0  0  0  0
 11 10  1  0  0  0  0
 12 11  1  0  0  0  0
 13  8  1  0  0  0  0
 14 15  1  0  0  0  0
 15 17  2  0  0  0  0
 15 16  1  0  0  0  0
 17  1  1  0  0  0  0
 18  2  1  0  0  0  0
 18 17  1  0  0  0  0
 19 18  2  0  0  0  0
 20 19  1  0  0  0  0
 20 14  2  0  0  0  0
 21 20  1  0  0  0  0
 22 24  1  0  0  0  0
 22 23  1  0  0  0  0
 25 22  1  0  0  0  0
 26 29  1  0  0  0  0
 27 26  1  0  0  0  0
 28 26  1  0  0  0  0
 30 33  1  0  0  0  0
 30  3  1  0  0  0  0
 31 30  1  0  0  0  0
 32 30  1  0  0  0  0
 34 13  1  0  0  0  0
 34 35  1  0  0  0  0
 35 37  2  0  0  0  0
 35 36  1  0  0  0  0
 37  4  1  0  0  0  0
 38 37  1  0  0  0  0
 39 38  2  0  0  0  0
 40 39  1  0  0  0  0
 40 34  2  0  0  0  0
 41 40  1  0  0  0  0
 42 44  1  0  0  0  0
 42 43  1  0  0  0  0
 45 42  1  0  0  0  0
 46 49  1  0  0  0  0
 47 46  1  0  0  0  0
 48 46  1  0  0  0  0
 50  6  1  0  0  0  0
 50 53  1  0  0  0  0
 51 50  1  0  0  0  0
 52 50  1  0  0  0  0
M  END
