2
 OpenBabel05122313063D

 12 12  0  0  1  0  0  0  0  0999 V2000
    1.3453    2.1603    1.7296 Se  0  0  0  0  0  1  0  0  0  0  0  0
    0.6180    1.4248   -0.9939 N   0  0  0  0  0  2  0  0  0  0  0  0
    1.0328    2.3687   -0.1180 C   0  0  1  0  0  3  0  0  0  0  0  0
    1.1646    3.5699   -0.7684 N   0  0  0  0  0  0  0  0  0  0  0  0
    0.4789    2.0466   -2.2234 C   0  0  0  0  0  0  0  0  0  0  0  0
    0.1331    1.4661   -3.0860 H   0  0  0  0  0  0  0  0  0  0  0  0
    0.8026    3.3777   -2.0932 C   0  0  0  0  0  0  0  0  0  0  0  0
    0.8018    4.2002   -2.8142 H   0  0  0  0  0  0  0  0  0  0  0  0
    1.5051    4.8336   -0.1468 C   0  0  0  0  0  0  0  0  0  0  0  0
    0.6358    5.2570    0.3989 H   0  0  0  0  0  0  0  0  0  0  0  0
    1.8224    5.5480   -0.9286 H   0  0  0  0  0  0  0  0  0  0  0  0
    2.3380    4.6895    0.5693 H   0  0  0  0  0  0  0  0  0  0  0  0
  2  3  1  0  0  0  0
  3  1  1  1  0  0  0
  4  9  1  0  0  0  0
  4  3  1  0  0  0  0
  5  7  2  0  0  0  0
  5  2  1  0  0  0  0
  6  5  1  0  0  0  0
  7  4  1  0  0  0  0
  8  7  1  0  0  0  0
  9 10  1  0  0  0  0
  9 12  1  0  0  0  0
 11  9  1  0  0  0  0
M  END
