1
 OpenBabel05122313063D

 23 23  0  0  0  0  0  0  0  0999 V2000
    0.5135    0.2938    0.2874 N   0  0  0  0  0  0  0  0  0  0  0  0
    0.6527    1.1356   -0.3036 H   0  0  0  0  0  0  0  0  0  0  0  0
    0.5161    0.6330    1.2690 H   0  0  0  0  0  0  0  0  0  0  0  0
    1.5267   -0.7398    0.0491 C   0  0  0  0  0  0  0  0  0  0  0  0
    1.4491   -1.0617   -1.0116 H   0  0  0  0  0  0  0  0  0  0  0  0
    1.2757   -1.6199    0.6774 H   0  0  0  0  0  0  0  0  0  0  0  0
    2.9631   -0.2864    0.3454 C   0  0  0  0  0  0  0  0  0  0  0  0
    2.9950    0.0530    1.4084 H   0  0  0  0  0  0  0  0  0  0  0  0
    3.9396   -1.4671    0.2031 C   0  0  0  0  0  0  0  0  0  0  0  0
    3.8662   -1.8658   -0.8351 H   0  0  0  0  0  0  0  0  0  0  0  0
    3.6330   -2.2953    0.8777 H   0  0  0  0  0  0  0  0  0  0  0  0
    5.3899   -1.0549    0.4848 C   0  0  0  0  0  0  0  0  0  0  0  0
    5.4820   -0.7592    1.5540 H   0  0  0  0  0  0  0  0  0  0  0  0
    6.0678   -1.9222    0.3423 H   0  0  0  0  0  0  0  0  0  0  0  0
    5.8217    0.1197   -0.4022 C   0  0  0  0  0  0  0  0  0  0  0  0
    5.8377   -0.2120   -1.4650 H   0  0  0  0  0  0  0  0  0  0  0  0
    6.8588    0.4298   -0.1569 H   0  0  0  0  0  0  0  0  0  0  0  0
    4.8591    1.3051   -0.2595 C   0  0  0  0  0  0  0  0  0  0  0  0
    5.1557    2.1332   -0.9361 H   0  0  0  0  0  0  0  0  0  0  0  0
    4.9273    1.7095    0.7753 H   0  0  0  0  0  0  0  0  0  0  0  0
    3.4085    0.8915   -0.5397 C   0  0  0  0  0  0  0  0  0  0  0  0
    3.3090    0.5881   -1.6076 H   0  0  0  0  0  0  0  0  0  0  0  0
    2.7356    1.7640   -0.3997 H   0  0  0  0  0  0  0  0  0  0  0  0
  1  3  1  0  0  0  0
  2  1  1  0  0  0  0
  4  1  1  0  0  0  0
  4  7  1  0  0  0  0
  4  6  1  0  0  0  0
  5  4  1  0  0  0  0
  7  8  1  0  0  0  0
  9  7  1  0  0  0  0
  9 12  1  0  0  0  0
  9 11  1  0  0  0  0
 10  9  1  0  0  0  0
 12 13  1  0  0  0  0
 14 12  1  0  0  0  0
 15 18  1  0  0  0  0
 15 17  1  0  0  0  0
 15 12  1  0  0  0  0
 16 15  1  0  0  0  0
 18 20  1  0  0  0  0
 19 18  1  0  0  0  0
 21 23  1  0  0  0  0
 21 18  1  0  0  0  0
 21  7  1  0  0  0  0
 22 21  1  0  0  0  0
M  END
