16
 OpenBabel05122313063D

 37 39  0  0  1  0  0  0  0  0999 V2000
    0.4716    2.3509   -0.8897 S   0  0  0  0  0  0  0  0  0  0  0  0
    2.8333    1.3189   -1.5478 C   0  0  2  0  0  0  0  0  0  0  0  0
    2.1573    0.5580   -0.4205 C   0  0  0  0  0  0  0  0  0  0  0  0
    2.9843   -0.5700   -0.0783 C   0  0  0  0  0  0  0  0  0  0  0  0
    4.1918   -0.4252   -1.0219 C   0  0  1  0  0  0  0  0  0  0  0  0
    3.6638   -0.7990   -2.4403 C   0  0  0  0  0  0  0  0  0  0  0  0
    2.7167    0.3849   -2.7904 C   0  0  0  0  0  0  0  0  0  0  0  0
    4.3330    1.1409   -1.1012 C   0  0  0  0  0  0  0  0  0  0  0  0
    2.1541    2.6728   -1.6125 C   0  0  0  0  0  0  0  0  0  0  0  0
    5.3523    1.6270   -2.1370 C   0  0  0  0  0  0  0  0  0  0  0  0
    4.6439    1.7956    0.2522 C   0  0  0  0  0  0  0  0  0  0  0  0
    2.2578   -3.2603    2.2282 C   0  0  0  0  0  0  0  0  0  0  0  0
    4.2856   -3.0885    0.7465 C   0  0  0  0  0  0  0  0  0  0  0  0
    2.5088   -1.4207    0.8001 N   0  0  0  0  0  2  0  0  0  0  0  0
    3.0228   -2.5313    1.2186 N   0  0  0  0  0  0  0  0  0  0  0  0
    1.0204    0.9735    0.0608 N   0  0  0  0  0  2  0  0  0  0  0  0
    0.0273    3.4465   -0.0131 O   0  0  0  0  0  0  0  0  0  0  0  0
   -0.4317    1.8492   -1.9535 O   0  0  0  0  0  0  0  0  0  0  0  0
    5.1160   -0.9464   -0.7183 H   0  0  0  0  0  0  0  0  0  0  0  0
    4.4953   -0.8932   -3.1669 H   0  0  0  0  0  0  0  0  0  0  0  0
    3.1135   -1.7585   -2.4215 H   0  0  0  0  0  0  0  0  0  0  0  0
    3.0410    0.9306   -3.6989 H   0  0  0  0  0  0  0  0  0  0  0  0
    1.6700    0.0608   -2.9366 H   0  0  0  0  0  0  0  0  0  0  0  0
    6.3802    1.3699   -1.8090 H   0  0  0  0  0  0  0  0  0  0  0  0
    5.2040    1.1955   -3.1442 H   0  0  0  0  0  0  0  0  0  0  0  0
    5.3057    2.7313   -2.2336 H   0  0  0  0  0  0  0  0  0  0  0  0
    4.6730    2.9007    0.1551 H   0  0  0  0  0  0  0  0  0  0  0  0
    5.6443    1.4768    0.6094 H   0  0  0  0  0  0  0  0  0  0  0  0
    3.9050    1.5465    1.0404 H   0  0  0  0  0  0  0  0  0  0  0  0
    1.9915    3.0852   -2.6244 H   0  0  0  0  0  0  0  0  0  0  0  0
    2.6121    3.4253   -0.9427 H   0  0  0  0  0  0  0  0  0  0  0  0
    2.8816   -3.4256    3.1318 H   0  0  0  0  0  0  0  0  0  0  0  0
    1.9255   -4.2382    1.8232 H   0  0  0  0  0  0  0  0  0  0  0  0
    1.3662   -2.6610    2.4937 H   0  0  0  0  0  0  0  0  0  0  0  0
    4.3990   -4.1101    1.1514 H   0  0  0  0  0  0  0  0  0  0  0  0
    4.2967   -3.1434   -0.3610 H   0  0  0  0  0  0  0  0  0  0  0  0
    5.1475   -2.4747    1.0853 H   0  0  0  0  0  0  0  0  0  0  0  0
  1 17  2  0  0  0  0
  1 16  1  0  0  0  0
  2  8  1  0  0  0  0
  2  3  1  1  0  0  0
  3  4  2  0  0  0  0
  3 16  1  0  0  0  0
  4 14  1  0  0  0  0
  5 19  1  1  0  0  0
  5  4  1  0  0  0  0
  6 21  1  0  0  0  0
  6  5  1  0  0  0  0
  7  6  1  0  0  0  0
  7  2  1  0  0  0  0
  8  5  1  0  0  0  0
  8 11  1  0  0  0  0
  9  2  1  0  0  0  0
  9 31  1  0  0  0  0
  9  1  1  0  0  0  0
 10 24  1  0  0  0  0
 10  8  1  0  0  0  0
 11 28  1  0  0  0  0
 11 29  1  0  0  0  0
 12 34  1  0  0  0  0
 12 32  1  0  0  0  0
 13 37  1  0  0  0  0
 13 35  1  0  0  0  0
 13 15  1  0  0  0  0
 14 15  1  0  0  0  0
 15 12  1  0  0  0  0
 18  1  2  0  0  0  0
 20  6  1  0  0  0  0
 22  7  1  0  0  0  0
 23  7  1  0  0  0  0
 25 10  1  0  0  0  0
 26 10  1  0  0  0  0
 27 11  1  0  0  0  0
 30  9  1  0  0  0  0
 33 12  1  0  0  0  0
 36 13  1  0  0  0  0
M  END
