2
 OpenBabel05122313063D

 21 22  0  0  1  0  0  0  0  0999 V2000
    1.2913    0.2907   -1.9412 N   0  0  0  0  0  0  0  0  0  0  0  0
   -1.2860    0.3356   -1.1948 N   0  0  0  0  0  2  0  0  0  0  0  0
   -2.5968    0.5130   -1.0271 N   0  0  0  0  0  0  0  0  0  0  0  0
   -3.0735   -0.2736   -0.5354 H   0  0  0  0  0  0  0  0  0  0  0  0
    2.5794    0.2007   -2.2969 C   0  0  0  0  0  0  0  0  0  0  0  0
    3.0990   -0.7181   -1.9747 H   0  0  0  0  0  0  0  0  0  0  0  0
    3.2392    1.2024   -3.0292 C   0  0  0  0  0  0  0  0  0  0  0  0
    4.2964    1.0809   -3.3065 H   0  0  0  0  0  0  0  0  0  0  0  0
    2.5139    2.3463   -3.3949 C   0  0  0  0  0  0  0  0  0  0  0  0
    2.9937    3.1574   -3.9634 H   0  0  0  0  0  0  0  0  0  0  0  0
    1.1646    2.4414   -3.0333 C   0  0  0  0  0  0  0  0  0  0  0  0
    0.5652    3.3208   -3.3093 H   0  0  0  0  0  0  0  0  0  0  0  0
    0.5808    1.3822   -2.3083 C   0  0  0  0  0  0  0  0  0  0  0  0
   -0.8397    1.3715   -1.9257 C   0  0  1  0  0  3  0  0  0  0  0  0
   -1.9258    2.2405   -2.2226 C   0  0  0  0  0  0  0  0  0  0  0  0
   -1.9145    3.1677   -2.8043 H   0  0  0  0  0  0  0  0  0  0  0  0
   -3.0503    1.6494   -1.6303 C   0  0  0  0  0  0  0  0  0  0  0  0
   -4.4847    2.0611   -1.5919 C   0  0  0  0  0  0  0  0  0  0  0  0
   -5.1396    1.2984   -2.0616 H   0  0  0  0  0  0  0  0  0  0  0  0
   -4.6261    3.0131   -2.1347 H   0  0  0  0  0  0  0  0  0  0  0  0
   -4.8357    2.2043   -0.5489 H   0  0  0  0  0  0  0  0  0  0  0  0
  2  3  1  0  0  0  0
  3  4  1  0  0  0  0
  5  6  1  0  0  0  0
  5  1  1  0  0  0  0
  7  5  2  0  0  0  0
  8  7  1  0  0  0  0
  9 11  2  0  0  0  0
  9  7  1  0  0  0  0
 10  9  1  0  0  0  0
 11 13  1  0  0  0  0
 12 11  1  0  0  0  0
 13  1  2  0  0  0  0
 14 13  1  6  0  0  0
 14  2  1  0  0  0  0
 15 14  1  0  0  0  0
 15 17  2  0  0  0  0
 16 15  1  0  0  0  0
 17 18  1  0  0  0  0
 17  3  1  0  0  0  0
 18 21  1  0  0  0  0
 19 18  1  0  0  0  0
 20 18  1  0  0  0  0
M  END
