19
 OpenBabel05122313063D

 24 25  0  0  0  0  0  0  0  0999 V2000
    0.8742   -2.1859   -1.4030 C   0  0  0  0  0  0  0  0  0  0  0  0
    1.8722   -1.1595   -1.0376 C   0  0  0  0  0  0  0  0  0  0  0  0
    3.1516   -0.8609   -1.5141 C   0  0  0  0  0  0  0  0  0  0  0  0
    3.9752   -1.4865   -2.5840 C   0  0  0  0  0  0  0  0  0  0  0  0
    4.5658   -0.7286   -3.1339 H   0  0  0  0  0  0  0  0  0  0  0  0
    3.3151   -2.0287   -3.2837 H   0  0  0  0  0  0  0  0  0  0  0  0
    4.6833   -2.2305   -2.1637 H   0  0  0  0  0  0  0  0  0  0  0  0
    4.6959    1.0357   -0.8325 C   0  0  0  0  0  0  0  0  0  0  0  0
    5.9568    0.4243   -0.9370 C   0  0  0  0  0  0  0  0  0  0  0  0
    6.0464   -0.6700   -0.9449 H   0  0  0  0  0  0  0  0  0  0  0  0
    7.1035    1.2297   -0.9899 C   0  0  0  0  0  0  0  0  0  0  0  0
    8.0933    0.7564   -1.0683 H   0  0  0  0  0  0  0  0  0  0  0  0
    6.9917    2.6269   -0.9207 C   0  0  0  0  0  0  0  0  0  0  0  0
    7.8953    3.2532   -0.9568 H   0  0  0  0  0  0  0  0  0  0  0  0
    5.7267    3.2240   -0.7930 C   0  0  0  0  0  0  0  0  0  0  0  0
    5.6353    4.3181   -0.7262 H   0  0  0  0  0  0  0  0  0  0  0  0
    4.5713    2.4340   -0.7517 C   0  0  0  0  0  0  0  0  0  0  0  0
    3.5733    2.8804   -0.6442 H   0  0  0  0  0  0  0  0  0  0  0  0
    1.5543   -0.2361   -0.0777 N   0  0  0  0  0  2  0  0  0  0  0  0
    2.5275    0.6064    0.0910 N   0  0  0  0  0  2  0  0  0  0  0  0
    3.5084    0.2427   -0.7727 N   0  0  0  0  0  0  0  0  0  0  0  0
   -0.2712   -2.1805   -0.9964 O   0  0  0  0  0  0  0  0  0  0  0  0
    1.3751   -3.1248   -2.2440 O   0  0  0  0  0  0  0  0  0  0  0  0
    0.6366   -3.7525   -2.4045 H   0  0  0  0  0  0  0  0  0  0  0  0
  1  2  1  0  0  0  0
  1 22  2  0  0  0  0
  2 19  1  0  0  0  0
  3  2  2  0  0  0  0
  3 21  1  0  0  0  0
  4  7  1  0  0  0  0
  4  3  1  0  0  0  0
  5  4  1  0  0  0  0
  6  4  1  0  0  0  0
  8 21  1  0  0  0  0
  8 17  1  0  0  0  0
  9  8  2  0  0  0  0
 10  9  1  0  0  0  0
 11  9  1  0  0  0  0
 11 13  2  0  0  0  0
 12 11  1  0  0  0  0
 13 15  1  0  0  0  0
 14 13  1  0  0  0  0
 15 17  2  0  0  0  0
 15 16  1  0  0  0  0
 17 18  1  0  0  0  0
 19 20  1  0  0  0  0
 21 20  1  0  0  0  0
 23  1  1  0  0  0  0
 24 23  1  0  0  0  0
M  END
