9
 OpenBabel05122313063D

 36 37  0  0  0  0  0  0  0  0999 V2000
    5.1703   -2.0042   -1.9668 F   0  0  0  0  0  0  0  0  0  0  0  0
    3.1867    4.2728   -0.2058 F   0  0  0  0  0  0  0  0  0  0  0  0
    4.3134    4.2527   -2.0748 F   0  0  0  0  0  0  0  0  0  0  0  0
    2.1293    4.3691   -2.1085 F   0  0  0  0  0  0  0  0  0  0  0  0
   -6.2057    0.2246   -2.6981 F   0  0  0  0  0  0  0  0  0  0  0  0
    0.5306   -0.4082   -1.0566 N   0  0  0  0  0  2  0  0  0  0  0  0
    6.1789   -0.6624   -0.5667 F   0  0  0  0  0  0  0  0  0  0  0  0
    6.2051   -0.2259   -2.6990 F   0  0  0  0  0  0  0  0  0  0  0  0
   -0.5310    0.4072   -1.0567 N   0  0  0  0  0  2  0  0  0  0  0  0
   -6.1790    0.6618   -0.5659 F   0  0  0  0  0  0  0  0  0  0  0  0
   -5.1707    2.0031   -1.9667 F   0  0  0  0  0  0  0  0  0  0  0  0
    1.7563    0.2796   -1.2323 C   0  0  0  0  0  0  0  0  0  0  0  0
    1.8486    1.6847   -1.3441 C   0  0  0  0  0  0  0  0  0  0  0  0
    0.9267    2.2785   -1.3168 H   0  0  0  0  0  0  0  0  0  0  0  0
   -1.7567   -0.2806   -1.2319 C   0  0  0  0  0  0  0  0  0  0  0  0
   -1.8490   -1.6857   -1.3433 C   0  0  0  0  0  0  0  0  0  0  0  0
   -0.9271   -2.2795   -1.3160 H   0  0  0  0  0  0  0  0  0  0  0  0
    2.9205   -0.5110   -1.3575 C   0  0  0  0  0  0  0  0  0  0  0  0
    2.8304   -1.6044   -1.3226 H   0  0  0  0  0  0  0  0  0  0  0  0
    4.2641    1.5128   -1.6028 C   0  0  0  0  0  0  0  0  0  0  0  0
    5.2389    1.9951   -1.7567 H   0  0  0  0  0  0  0  0  0  0  0  0
   -3.1848   -4.2739   -0.2047 F   0  0  0  0  0  0  0  0  0  0  0  0
   -2.9208    0.5100   -1.3573 C   0  0  0  0  0  0  0  0  0  0  0  0
   -2.8306    1.6034   -1.3227 H   0  0  0  0  0  0  0  0  0  0  0  0
    3.1002    2.2909   -1.4942 C   0  0  0  0  0  0  0  0  0  0  0  0
    4.1605    0.1115   -1.5533 C   0  0  0  0  0  0  0  0  0  0  0  0
   -2.1308   -4.3700   -2.1092 F   0  0  0  0  0  0  0  0  0  0  0  0
   -4.1609   -0.1125   -1.5527 C   0  0  0  0  0  0  0  0  0  0  0  0
   -4.3148   -4.2538   -2.0717 F   0  0  0  0  0  0  0  0  0  0  0  0
    3.1860    3.8003   -1.4820 C   0  0  0  0  0  0  0  0  0  0  0  0
   -3.1007   -2.2919   -1.4931 C   0  0  0  0  0  0  0  0  0  0  0  0
   -5.4237    0.7047   -1.7026 C   0  0  0  0  0  0  0  0  0  0  0  0
   -4.2645   -1.5139   -1.6018 C   0  0  0  0  0  0  0  0  0  0  0  0
   -5.2393   -1.9961   -1.7554 H   0  0  0  0  0  0  0  0  0  0  0  0
    5.4233   -0.7057   -1.7032 C   0  0  0  0  0  0  0  0  0  0  0  0
   -3.1864   -3.8013   -1.4808 C   0  0  0  0  0  0  0  0  0  0  0  0
  1 35  1  0  0  0  0
  3 30  1  0  0  0  0
  4 30  1  0  0  0  0
  5 32  1  0  0  0  0
  8 35  1  0  0  0  0
  9  6  1  0  0  0  0
 11 32  1  0  0  0  0
 12  6  1  0  0  0  0
 13 14  1  0  0  0  0
 13 12  1  0  0  0  0
 15  9  1  0  0  0  0
 16 17  1  0  0  0  0
 16 15  1  0  0  0  0
 18 19  1  0  0  0  0
 18 12  2  0  0  0  0
 20 26  2  0  0  0  0
 20 25  1  0  0  0  0
 21 20  1  0  0  0  0
 23 24  1  0  0  0  0
 23 15  2  0  0  0  0
 25 30  1  0  0  0  0
 25 13  2  0  0  0  0
 26 18  1  0  0  0  0
 27 36  1  0  0  0  0
 28 23  1  0  0  0  0
 29 36  1  0  0  0  0
 30  2  1  0  0  0  0
 31 36  1  0  0  0  0
 31 16  2  0  0  0  0
 32 28  1  0  0  0  0
 32 10  1  0  0  0  0
 33 28  2  0  0  0  0
 33 31  1  0  0  0  0
 34 33  1  0  0  0  0
 35 26  1  0  0  0  0
 35  7  1  0  0  0  0
 36 22  1  0  0  0  0
M  END
