6
 OpenBabel05122313063D

 23 22  0  0  0  0  0  0  0  0999 V2000
   -0.4332   -1.8525   -2.1107 O   0  0  0  0  0  0  0  0  0  0  0  0
   -1.2030   -1.1250   -2.2372 H   0  0  0  0  0  0  0  0  0  0  0  0
    0.1715   -1.5286    1.9808 O   0  0  0  0  0  0  0  0  0  0  0  0
    1.1854   -1.2137    2.0758 H   0  0  0  0  0  0  0  0  0  0  0  0
    1.9754   -2.7903   -0.4512 O   0  0  0  0  0  0  0  0  0  0  0  0
   -0.6545   -3.5481    0.1845 N   0  0  0  0  0  0  0  0  0  0  0  0
   -1.6521   -3.5986   -0.8968 C   0  0  0  0  0  0  0  0  0  0  0  0
   -2.4778   -2.9151   -0.6168 H   0  0  0  0  0  0  0  0  0  0  0  0
   -2.0860   -4.6214   -1.0177 H   0  0  0  0  0  0  0  0  0  0  0  0
    0.3973   -4.5476    0.0418 C   0  0  0  0  0  0  0  0  0  0  0  0
    0.1428   -5.3156   -0.7267 H   0  0  0  0  0  0  0  0  0  0  0  0
    0.5346   -5.1368    0.9788 H   0  0  0  0  0  0  0  0  0  0  0  0
   -1.1784   -3.4437    1.5578 C   0  0  0  0  0  0  0  0  0  0  0  0
   -2.0603   -2.7729    1.5220 H   0  0  0  0  0  0  0  0  0  0  0  0
   -1.5084   -4.4325    1.9574 H   0  0  0  0  0  0  0  0  0  0  0  0
    1.7538   -3.9785   -0.3181 C   0  0  0  0  0  0  0  0  0  0  0  0
    2.5745   -4.7376   -0.4564 H   0  0  0  0  0  0  0  0  0  0  0  0
   -0.1358   -2.8051    2.4799 C   0  0  0  0  0  0  0  0  0  0  0  0
    0.7731   -3.4520    2.5537 H   0  0  0  0  0  0  0  0  0  0  0  0
   -0.5639   -2.7477    3.5075 H   0  0  0  0  0  0  0  0  0  0  0  0
   -1.0355   -3.1274   -2.2227 C   0  0  0  0  0  0  0  0  0  0  0  0
   -0.2640   -3.8523   -2.5693 H   0  0  0  0  0  0  0  0  0  0  0  0
   -1.8320   -3.1207   -2.9990 H   0  0  0  0  0  0  0  0  0  0  0  0
  2  1  1  0  0  0  0
  3  4  1  0  0  0  0
  3 18  1  0  0  0  0
  5 16  2  0  0  0  0
  6 13  1  0  0  0  0
  7  8  1  0  0  0  0
  7  6  1  0  0  0  0
  9  7  1  0  0  0  0
 10  6  1  0  0  0  0
 10 12  1  0  0  0  0
 11 10  1  0  0  0  0
 13 15  1  0  0  0  0
 13 18  1  0  0  0  0
 14 13  1  0  0  0  0
 16 10  1  0  0  0  0
 17 16  1  0  0  0  0
 18 19  1  0  0  0  0
 18 20  1  0  0  0  0
 21  1  1  0  0  0  0
 21  7  1  0  0  0  0
 22 21  1  0  0  0  0
 23 21  1  0  0  0  0
M  END
