1
 OpenBabel05122313063D

 30 32  0  0  1  0  0  0  0  0999 V2000
    0.3700    0.0000   -0.4336 N   0  0  0  0  0  0  0  0  0  0  0  0
    0.1419   -1.1680    0.3188 C   0  0  2  0  0  3  0  0  0  0  0  0
   -0.2615   -0.7202    1.6041 C   0  0  0  0  0  0  0  0  0  0  0  0
    0.6198   -2.4921   -0.2108 C   0  0  0  0  0  0  0  0  0  0  0  0
    2.1742   -2.7403   -0.0422 C   0  0  0  0  0  0  0  0  0  0  0  0
    2.8990   -1.4155   -0.0594 C   0  0  0  0  0  0  0  0  0  0  0  0
    3.1385   -0.7038   -1.2567 C   0  0  0  0  0  0  0  0  0  0  0  0
    2.9959   -0.6991    1.1505 C   0  0  0  0  0  0  0  0  0  0  0  0
    0.7932    0.0000   -1.3629 H   0  0  0  0  0  0  0  0  0  0  0  0
   -0.5185   -1.3728    2.4443 H   0  0  0  0  0  0  0  0  0  0  0  0
    0.0496   -3.3046    0.2795 H   0  0  0  0  0  0  0  0  0  0  0  0
    0.3563   -2.5422   -1.2875 H   0  0  0  0  0  0  0  0  0  0  0  0
    2.5086   -3.4223   -0.8501 H   0  0  0  0  0  0  0  0  0  0  0  0
    2.3554   -3.2565    0.9221 H   0  0  0  0  0  0  0  0  0  0  0  0
    3.1818   -1.2466   -2.2156 H   0  0  0  0  0  0  0  0  0  0  0  0
    2.9095   -1.2389    2.1066 H   0  0  0  0  0  0  0  0  0  0  0  0
    0.1419    1.1680    0.3188 C   0  0  1  0  0  3  0  0  0  0  0  0
   -0.2615    0.7202    1.6041 C   0  0  0  0  0  0  0  0  0  0  0  0
    3.1385    0.7038   -1.2567 C   0  0  0  0  0  0  0  0  0  0  0  0
    2.9959    0.6991    1.1505 C   0  0  0  0  0  0  0  0  0  0  0  0
    0.6198    2.4921   -0.2108 C   0  0  0  0  0  0  0  0  0  0  0  0
   -0.5185    1.3728    2.4442 H   0  0  0  0  0  0  0  0  0  0  0  0
    2.8990    1.4155   -0.0594 C   0  0  0  0  0  0  0  0  0  0  0  0
    3.1818    1.2466   -2.2156 H   0  0  0  0  0  0  0  0  0  0  0  0
    2.9095    1.2389    2.1066 H   0  0  0  0  0  0  0  0  0  0  0  0
    2.1743    2.7403   -0.0422 C   0  0  0  0  0  0  0  0  0  0  0  0
    0.0496    3.3046    0.2795 H   0  0  0  0  0  0  0  0  0  0  0  0
    0.3563    2.5422   -1.2875 H   0  0  0  0  0  0  0  0  0  0  0  0
    2.5087    3.4223   -0.8501 H   0  0  0  0  0  0  0  0  0  0  0  0
    2.3555    3.2564    0.9221 H   0  0  0  0  0  0  0  0  0  0  0  0
  1  2  1  0  0  0  0
  1 17  1  0  0  0  0
  2  3  1  1  0  0  0
  3 10  1  0  0  0  0
  4  5  1  0  0  0  0
  4 11  1  0  0  0  0
  4  2  1  0  0  0  0
  5 14  1  0  0  0  0
  6  5  1  0  0  0  0
  6  8  1  0  0  0  0
  7 19  1  0  0  0  0
  7  6  2  0  0  0  0
  8 20  2  0  0  0  0
  8 16  1  0  0  0  0
  9  1  1  0  0  0  0
 12  4  1  0  0  0  0
 13  5  1  0  0  0  0
 15  7  1  0  0  0  0
 17 18  1  1  0  0  0
 18  3  2  0  0  0  0
 18 22  1  0  0  0  0
 19 23  2  0  0  0  0
 20 25  1  0  0  0  0
 21 26  1  0  0  0  0
 21 27  1  0  0  0  0
 21 17  1  0  0  0  0
 23 26  1  0  0  0  0
 23 20  1  0  0  0  0
 24 19  1  0  0  0  0
 26 30  1  0  0  0  0
 28 21  1  0  0  0  0
 29 26  1  0  0  0  0
M  END
