5
 OpenBabel05122313063D

 24 24  0  0  0  0  0  0  0  0999 V2000
   -4.8497   -1.3396    0.3442 S   0  0  0  0  0  0  0  0  0  0  0  0
   -5.5505   -0.9614    1.5777 O   0  0  0  0  0  0  0  0  0  0  0  0
   -5.1987   -2.5385   -0.4407 O   0  0  0  0  0  0  0  0  0  0  0  0
   -4.2892    1.6830    0.4326 O   0  0  0  0  0  0  0  0  0  0  0  0
    1.0562   -1.1025    1.2251 N   0  0  0  0  0  0  0  0  0  0  0  0
    1.5579   -1.9874    1.0657 H   0  0  0  0  0  0  0  0  0  0  0  0
    1.3085   -0.7451    2.1580 H   0  0  0  0  0  0  0  0  0  0  0  0
   -5.0564   -0.0672   -0.8271 N   0  0  0  0  0  0  0  0  0  0  0  0
   -5.5062   -0.4020   -1.6853 H   0  0  0  0  0  0  0  0  0  0  0  0
   -0.3577   -1.2416    1.0787 C   0  0  0  0  0  0  0  0  0  0  0  0
   -1.2090   -0.4714    1.8916 C   0  0  0  0  0  0  0  0  0  0  0  0
   -0.7799    0.1824    2.6665 H   0  0  0  0  0  0  0  0  0  0  0  0
   -2.5903   -0.5113    1.6813 C   0  0  0  0  0  0  0  0  0  0  0  0
   -3.2819    0.0912    2.2843 H   0  0  0  0  0  0  0  0  0  0  0  0
   -3.0894   -1.3192    0.6495 C   0  0  0  0  0  0  0  0  0  0  0  0
   -2.2517   -2.1037   -0.1597 C   0  0  0  0  0  0  0  0  0  0  0  0
   -2.6858   -2.7317   -0.9504 H   0  0  0  0  0  0  0  0  0  0  0  0
   -0.8718   -2.0619    0.0577 C   0  0  0  0  0  0  0  0  0  0  0  0
   -0.1814   -2.6155   -0.5960 H   0  0  0  0  0  0  0  0  0  0  0  0
   -4.8237    1.2824   -0.5938 C   0  0  0  0  0  0  0  0  0  0  0  0
   -5.2513    2.1879   -1.7355 C   0  0  0  0  0  0  0  0  0  0  0  0
   -5.1207    3.2373   -1.4184 H   0  0  0  0  0  0  0  0  0  0  0  0
   -6.3098    2.0140   -2.0150 H   0  0  0  0  0  0  0  0  0  0  0  0
   -4.6274    2.0001   -2.6334 H   0  0  0  0  0  0  0  0  0  0  0  0
  1 15  1  0  0  0  0
  1  2  2  0  0  0  0
  3  1  2  0  0  0  0
  5  7  1  0  0  0  0
  6  5  1  0  0  0  0
  8 20  1  0  0  0  0
  8  1  1  0  0  0  0
  9  8  1  0  0  0  0
 10  5  1  0  0  0  0
 10 11  1  0  0  0  0
 11 12  1  0  0  0  0
 13 11  2  0  0  0  0
 13 14  1  0  0  0  0
 15 13  1  0  0  0  0
 16 18  1  0  0  0  0
 16 15  2  0  0  0  0
 17 16  1  0  0  0  0
 18 10  2  0  0  0  0
 19 18  1  0  0  0  0
 20  4  2  0  0  0  0
 21 22  1  0  0  0  0
 21 20  1  0  0  0  0
 23 21  1  0  0  0  0
 24 21  1  0  0  0  0
M  END
