4
 OpenBabel05122313063D

 28 29  0  0  1  0  0  0  0  0999 V2000
   -3.6746   -2.0408    0.1791 S   0  0  0  0  0  0  0  0  0  0  0  0
   -4.3148   -2.8073   -0.9011 O   0  0  0  0  0  0  0  0  0  0  0  0
   -4.4421   -1.6107    1.3669 O   0  0  0  0  0  0  0  0  0  0  0  0
    1.9632   -1.6047    0.9305 N   0  0  0  0  0  2  0  0  0  0  0  0
    2.2416   -1.4588    1.9115 H   0  0  0  0  0  0  0  0  0  0  0  0
   -3.0751   -0.5255   -0.6014 N   0  0  0  0  0  0  0  0  0  0  0  0
   -2.0266   -0.4167   -0.5275 H   0  0  0  0  0  0  0  0  0  0  0  0
   -2.9380    1.7356   -1.0380 N   0  0  0  0  0  0  0  0  0  0  0  0
   -1.8903    1.5690   -0.9403 H   0  0  0  0  0  0  0  0  0  0  0  0
    0.7028   -2.1237    0.8929 C   0  0  0  0  0  0  0  0  0  0  0  0
   -0.1708   -2.1596    2.0312 C   0  0  0  0  0  0  0  0  0  0  0  0
    0.2381   -1.9072    3.0225 H   0  0  0  0  0  0  0  0  0  0  0  0
   -1.5442   -2.3095    1.8664 C   0  0  0  0  0  0  0  0  0  0  0  0
   -2.2365   -2.1446    2.7057 H   0  0  0  0  0  0  0  0  0  0  0  0
   -2.0679   -2.6057    0.5859 C   0  0  0  0  0  0  0  0  0  0  0  0
   -1.1932   -2.8311   -0.5089 C   0  0  0  0  0  0  0  0  0  0  0  0
   -1.6094   -3.1134   -1.4879 H   0  0  0  0  0  0  0  0  0  0  0  0
    0.1639   -2.6011   -0.3506 C   0  0  0  0  0  0  0  0  0  0  0  0
    0.8485   -2.7134   -1.2011 H   0  0  0  0  0  0  0  0  0  0  0  0
   -3.7282    0.6322   -0.7999 C   0  0  1  0  0  3  0  0  0  0  0  0
   -3.4311    2.9724   -1.2922 C   0  0  0  0  0  0  0  0  0  0  0  0
   -2.6699    3.7494   -1.4598 H   0  0  0  0  0  0  0  0  0  0  0  0
   -4.7993    3.1833   -1.3143 C   0  0  0  0  0  0  0  0  0  0  0  0
   -5.2005    4.1832   -1.5225 H   0  0  0  0  0  0  0  0  0  0  0  0
   -5.6526    2.0789   -1.0552 C   0  0  0  0  0  0  0  0  0  0  0  0
   -6.7437    2.2232   -1.0584 H   0  0  0  0  0  0  0  0  0  0  0  0
   -5.1390    0.8150   -0.7998 C   0  0  0  0  0  0  0  0  0  0  0  0
   -5.7800   -0.0519   -0.5949 H   0  0  0  0  0  0  0  0  0  0  0  0
  1 15  1  0  0  0  0
  1  3  2  0  0  0  0
  2  1  2  0  0  0  0
  4  5  1  0  0  0  0
  6  7  1  0  0  0  0
  6  1  1  0  0  0  0
  8  9  1  0  0  0  0
  8 20  1  0  0  0  0
 10  4  1  0  0  0  0
 10 11  1  0  0  0  0
 11 12  1  0  0  0  0
 13 11  2  0  0  0  0
 13 14  1  0  0  0  0
 15 13  1  0  0  0  0
 16 18  1  0  0  0  0
 16 15  2  0  0  0  0
 17 16  1  0  0  0  0
 18 10  2  0  0  0  0
 19 18  1  0  0  0  0
 20 27  1  0  0  0  0
 20  6  1  6  0  0  0
 21  8  1  0  0  0  0
 22 21  1  0  0  0  0
 23 21  2  0  0  0  0
 23 25  1  0  0  0  0
 24 23  1  0  0  0  0
 25 27  2  0  0  0  0
 26 25  1  0  0  0  0
 27 28  1  0  0  0  0
M  END
