2
 OpenBabel05122313063D

 15 16  0  0  0  0  0  0  0  0999 V2000
    4.3302   -3.0061    1.0872 N   0  0  0  0  0  0  0  0  0  0  0  0
    1.0782   -1.4889    1.0636 N   0  0  0  0  0  2  0  0  0  0  0  0
    3.4481   -3.3738   -1.1356 N   0  0  0  0  0  0  0  0  0  0  0  0
    1.3484   -2.7081   -1.8564 N   0  0  0  0  0  0  0  0  0  0  0  0
    1.6170   -3.1240   -2.7480 H   0  0  0  0  0  0  0  0  0  0  0  0
    0.4019   -2.3163   -1.7330 H   0  0  0  0  0  0  0  0  0  0  0  0
    2.7677   -1.7682    2.5009 N   0  0  0  0  0  0  0  0  0  0  0  0
    3.3284   -1.7002    3.3513 H   0  0  0  0  0  0  0  0  0  0  0  0
    2.0910   -2.2038    0.4317 C   0  0  0  0  0  0  0  0  0  0  0  0
    3.1702   -2.3863    1.3258 C   0  0  0  0  0  0  0  0  0  0  0  0
    1.5233   -1.2419    2.2905 C   0  0  0  0  0  3  0  0  0  0  0  0
    0.9873   -0.6590    3.0484 H   0  0  0  0  0  0  0  0  0  0  0  0
    2.2695   -2.7565   -0.8749 C   0  0  0  0  0  0  0  0  0  0  0  0
    4.3820   -3.4618   -0.1778 C   0  0  0  0  0  0  0  0  0  0  0  0
    5.3150   -3.9786   -0.4671 H   0  0  0  0  0  0  0  0  0  0  0  0
  1 10  1  0  0  0  0
  2 11  1  0  0  0  0
  3 13  2  0  0  0  0
  3 14  1  0  0  0  0
  4  6  1  0  0  0  0
  4 13  1  0  0  0  0
  5  4  1  0  0  0  0
  7  8  1  0  0  0  0
  9  2  1  0  0  0  0
  9 10  2  0  0  0  0
 10  7  1  0  0  0  0
 11  7  1  0  0  0  0
 11 12  1  0  0  0  0
 13  9  1  0  0  0  0
 14  1  2  0  0  0  0
 15 14  1  0  0  0  0
M  END
