6
 OpenBabel05122313063D

 47 48  0  0  0  0  0  0  0  0999 V2000
    3.1643    1.9026   -2.7789 O   0  0  0  0  0  0  0  0  0  0  0  0
    2.3129    0.0190    1.4782 O   0  0  0  0  0  0  0  0  0  0  0  0
    3.8335   -2.0744    0.2038 O   0  0  0  0  0  0  0  0  0  0  0  0
    6.4797   -1.5537   -0.8855 O   0  0  0  0  0  0  0  0  0  0  0  0
    6.8667    1.3543   -0.5789 O   0  0  0  0  0  0  0  0  0  0  0  0
   -1.3197    0.1514   -1.3967 N   0  0  0  0  0  2  0  0  0  0  0  0
    3.3012    2.1674   -0.5016 N   0  0  0  0  0  0  0  0  0  0  0  0
   -0.2165   -0.5966   -1.1416 C   0  0  0  0  0  3  0  0  0  0  0  0
    1.0776   -0.0820   -1.1926 C   0  0  0  0  0  0  0  0  0  0  0  0
    1.2575    1.2682   -1.5508 C   0  0  0  0  0  0  0  0  0  0  0  0
    0.1259    2.0079   -1.9373 C   0  0  0  0  0  0  0  0  0  0  0  0
   -1.1357    1.4220   -1.8357 C   0  0  0  0  0  0  0  0  0  0  0  0
    2.6539    1.8322   -1.6614 C   0  0  0  0  0  0  0  0  0  0  0  0
    2.6551    2.2883    0.7994 C   0  0  0  0  0  0  0  0  0  0  0  0
    3.0116    1.2025    1.8131 C   0  0  0  0  0  0  0  0  0  0  0  0
    2.7531   -1.1586    2.1311 C   0  0  0  0  0  0  0  0  0  0  0  0
    4.0335   -1.7606    1.5658 C   0  0  0  0  0  0  0  0  0  0  0  0
    4.7141   -3.0616   -0.3245 C   0  0  0  0  0  0  0  0  0  0  0  0
    6.1998   -2.7466   -0.1980 C   0  0  0  0  0  0  0  0  0  0  0  0
    7.7236   -0.9537   -0.5707 C   0  0  0  0  0  0  0  0  0  0  0  0
    7.7669    0.4416   -1.1792 C   0  0  0  0  0  0  0  0  0  0  0  0
    5.5092    1.1569   -0.9261 C   0  0  0  0  0  0  0  0  0  0  0  0
    4.7386    2.4391   -0.6017 C   0  0  0  0  0  0  0  0  0  0  0  0
   -0.3918   -1.6416   -0.8485 H   0  0  0  0  0  0  0  0  0  0  0  0
    1.9338   -0.7136   -0.9131 H   0  0  0  0  0  0  0  0  0  0  0  0
    0.2212    3.0431   -2.2946 H   0  0  0  0  0  0  0  0  0  0  0  0
   -2.0424    1.9889   -2.0920 H   0  0  0  0  0  0  0  0  0  0  0  0
    2.9246    3.2757    1.2338 H   0  0  0  0  0  0  0  0  0  0  0  0
    1.5554    2.2862    0.6604 H   0  0  0  0  0  0  0  0  0  0  0  0
    2.7187    1.5519    2.8350 H   0  0  0  0  0  0  0  0  0  0  0  0
    4.1147    1.0446    1.8272 H   0  0  0  0  0  0  0  0  0  0  0  0
    2.8869   -0.9860    3.2276 H   0  0  0  0  0  0  0  0  0  0  0  0
    1.9340   -1.8949    1.9953 H   0  0  0  0  0  0  0  0  0  0  0  0
    4.2681   -2.6733    2.1676 H   0  0  0  0  0  0  0  0  0  0  0  0
    4.8942   -1.0605    1.6955 H   0  0  0  0  0  0  0  0  0  0  0  0
    4.5270   -4.0504    0.1626 H   0  0  0  0  0  0  0  0  0  0  0  0
    4.4473   -3.1489   -1.3963 H   0  0  0  0  0  0  0  0  0  0  0  0
    6.7748   -3.6145   -0.6092 H   0  0  0  0  0  0  0  0  0  0  0  0
    6.4945   -2.6626    0.8782 H   0  0  0  0  0  0  0  0  0  0  0  0
    7.8489   -0.8766    0.5383 H   0  0  0  0  0  0  0  0  0  0  0  0
    8.5793   -1.5595   -0.9616 H   0  0  0  0  0  0  0  0  0  0  0  0
    7.5776    0.3647   -2.2774 H   0  0  0  0  0  0  0  0  0  0  0  0
    8.7844    0.8593   -1.0345 H   0  0  0  0  0  0  0  0  0  0  0  0
    5.4022    0.9139   -2.0071 H   0  0  0  0  0  0  0  0  0  0  0  0
    5.0554    0.3046   -0.3722 H   0  0  0  0  0  0  0  0  0  0  0  0
    4.9216    3.2146   -1.3729 H   0  0  0  0  0  0  0  0  0  0  0  0
    5.0908    2.8337    0.3718 H   0  0  0  0  0  0  0  0  0  0  0  0
  1 13  2  0  0  0  0
  2 15  1  0  0  0  0
  2 16  1  0  0  0  0
  3 17  1  0  0  0  0
  4 20  1  0  0  0  0
  4 19  1  0  0  0  0
  6  8  1  0  0  0  0
  7 14  1  0  0  0  0
  8 24  1  0  0  0  0
  9  8  1  0  0  0  0
  9 25  1  0  0  0  0
 10  9  2  0  0  0  0
 11 12  2  0  0  0  0
 11 10  1  0  0  0  0
 12  6  1  0  0  0  0
 13 10  1  0  0  0  0
 13  7  1  0  0  0  0
 14 28  1  0  0  0  0
 14 15  1  0  0  0  0
 15 31  1  0  0  0  0
 15 30  1  0  0  0  0
 16 32  1  0  0  0  0
 17 35  1  0  0  0  0
 17 16  1  0  0  0  0
 17 34  1  0  0  0  0
 18 19  1  0  0  0  0
 18 36  1  0  0  0  0
 18  3  1  0  0  0  0
 19 39  1  0  0  0  0
 20 40  1  0  0  0  0
 21 43  1  0  0  0  0
 21  5  1  0  0  0  0
 21 20  1  0  0  0  0
 22 23  1  0  0  0  0
 22  5  1  0  0  0  0
 22 45  1  0  0  0  0
 23  7  1  0  0  0  0
 23 47  1  0  0  0  0
 26 11  1  0  0  0  0
 27 12  1  0  0  0  0
 29 14  1  0  0  0  0
 33 16  1  0  0  0  0
 37 18  1  0  0  0  0
 38 19  1  0  0  0  0
 41 20  1  0  0  0  0
 42 21  1  0  0  0  0
 44 22  1  0  0  0  0
 46 23  1  0  0  0  0
M  END
