1
 OpenBabel05122313063D

 29 29  0  0  0  0  0  0  0  0999 V2000
    1.8028    1.0032   -0.0646 N   0  0  0  0  0  0  0  0  0  0  0  0
    1.7861    2.1735   -0.9925 C   0  0  0  0  0  0  0  0  0  0  0  0
    0.6524    3.1054   -0.6413 C   0  0  0  0  0  0  0  0  0  0  0  0
   -0.5904    3.0009   -1.2994 C   0  0  0  0  0  0  0  0  0  0  0  0
   -1.6631    3.8196   -0.9167 C   0  0  0  0  0  0  0  0  0  0  0  0
   -1.5084    4.7417    0.1319 C   0  0  0  0  0  0  0  0  0  0  0  0
   -0.2733    4.8514    0.7892 C   0  0  0  0  0  0  0  0  0  0  0  0
    0.8027    4.0390    0.4008 C   0  0  0  0  0  0  0  0  0  0  0  0
    1.7722    4.1210    0.9187 H   0  0  0  0  0  0  0  0  0  0  0  0
   -0.1467    5.5735    1.6100 H   0  0  0  0  0  0  0  0  0  0  0  0
   -2.3525    5.3798    0.4355 H   0  0  0  0  0  0  0  0  0  0  0  0
   -2.6282    3.7372   -1.4405 H   0  0  0  0  0  0  0  0  0  0  0  0
   -0.7091    2.2552   -2.1012 H   0  0  0  0  0  0  0  0  0  0  0  0
    1.6628    1.7649   -2.0138 H   0  0  0  0  0  0  0  0  0  0  0  0
    2.7617    2.6982   -0.9170 H   0  0  0  0  0  0  0  0  0  0  0  0
    2.9132    0.0717   -0.3059 C   0  0  0  0  0  0  0  0  0  0  0  0
    4.2446    0.6567    0.1447 C   0  0  0  0  0  0  0  0  0  0  0  0
    4.3579    1.6770    0.8019 O   0  0  0  0  0  0  0  0  0  0  0  0
    5.2688   -0.1225   -0.2437 O   0  0  0  0  0  0  0  0  0  0  0  0
    6.5880    0.2998    0.1828 C   0  0  0  0  0  0  0  0  0  0  0  0
    7.5896   -0.7093   -0.3362 C   0  0  0  0  0  0  0  0  0  0  0  0
    8.6129   -0.4170   -0.0281 H   0  0  0  0  0  0  0  0  0  0  0  0
    7.3821   -1.7203    0.0667 H   0  0  0  0  0  0  0  0  0  0  0  0
    7.5631   -0.7646   -1.4424 H   0  0  0  0  0  0  0  0  0  0  0  0
    6.5947    0.3738    1.2907 H   0  0  0  0  0  0  0  0  0  0  0  0
    6.7749    1.3221   -0.2081 H   0  0  0  0  0  0  0  0  0  0  0  0
    2.9302   -0.2212   -1.3738 H   0  0  0  0  0  0  0  0  0  0  0  0
    2.7289   -0.8633    0.2643 H   0  0  0  0  0  0  0  0  0  0  0  0
    1.8818    1.3569    0.9077 H   0  0  0  0  0  0  0  0  0  0  0  0
  1 29  1  0  0  0  0
  2 15  1  0  0  0  0
  2  3  1  0  0  0  0
  2  1  1  0  0  0  0
  3  8  1  0  0  0  0
  4  5  1  0  0  0  0
  4  3  2  0  0  0  0
  5  6  2  0  0  0  0
  6 11  1  0  0  0  0
  6  7  1  0  0  0  0
  7 10  1  0  0  0  0
  8  7  2  0  0  0  0
  8  9  1  0  0  0  0
 12  5  1  0  0  0  0
 13  4  1  0  0  0  0
 14  2  1  0  0  0  0
 16  1  1  0  0  0  0
 16 17  1  0  0  0  0
 16 28  1  0  0  0  0
 17 18  2  0  0  0  0
 19 17  1  0  0  0  0
 19 20  1  0  0  0  0
 20 25  1  0  0  0  0
 21 22  1  0  0  0  0
 21 23  1  0  0  0  0
 21 20  1  0  0  0  0
 24 21  1  0  0  0  0
 26 20  1  0  0  0  0
 27 16  1  0  0  0  0
M  END
