3
 OpenBabel05122313063D

 18 18  0  0  0  0  0  0  0  0999 V2000
    6.8978   -2.6882    0.2135 O   0  0  0  0  0  0  0  0  0  0  0  0
    7.3635   -2.4736    1.0428 H   0  0  0  0  0  0  0  0  0  0  0  0
    1.4742    0.7781   -0.0259 N   0  0  0  0  0  2  0  0  0  0  0  0
    2.0873    0.6113    1.1730 C   0  0  0  0  0  3  0  0  0  0  0  0
    1.4814    0.8183    2.0641 H   0  0  0  0  0  0  0  0  0  0  0  0
    3.4116    0.1969    1.3004 C   0  0  0  0  0  0  0  0  0  0  0  0
    3.8402    0.0843    2.3072 H   0  0  0  0  0  0  0  0  0  0  0  0
    4.1819   -0.0750    0.1511 C   0  0  0  0  0  0  0  0  0  0  0  0
    3.5324    0.1004   -1.0849 C   0  0  0  0  0  0  0  0  0  0  0  0
    4.0625   -0.0916   -2.0294 H   0  0  0  0  0  0  0  0  0  0  0  0
    2.2027    0.5211   -1.1394 C   0  0  0  0  0  0  0  0  0  0  0  0
    1.6715    0.6617   -2.0929 H   0  0  0  0  0  0  0  0  0  0  0  0
    5.5794   -0.6105    0.2381 C   0  0  0  0  0  0  0  0  0  0  0  0
    6.1746   -0.2958   -0.6424 H   0  0  0  0  0  0  0  0  0  0  0  0
    6.0858   -0.2161    1.1445 H   0  0  0  0  0  0  0  0  0  0  0  0
    5.6000   -2.1616    0.2836 C   0  0  0  0  0  0  0  0  0  0  0  0
    5.0479   -2.5499   -0.5977 H   0  0  0  0  0  0  0  0  0  0  0  0
    5.0327   -2.5060    1.1843 H   0  0  0  0  0  0  0  0  0  0  0  0
  1 16  1  0  0  0  0
  1  2  1  0  0  0  0
  3  4  1  0  0  0  0
  4  6  1  0  0  0  0
  4  5  1  0  0  0  0
  6  7  1  0  0  0  0
  8 13  1  0  0  0  0
  8  6  2  0  0  0  0
  9  8  1  0  0  0  0
 10  9  1  0  0  0  0
 11  9  2  0  0  0  0
 11  3  1  0  0  0  0
 12 11  1  0  0  0  0
 13 16  1  0  0  0  0
 13 15  1  0  0  0  0
 14 13  1  0  0  0  0
 16 18  1  0  0  0  0
 17 16  1  0  0  0  0
M  END
