5
 OpenBabel05122313063D

 26 27  0  0  1  0  0  0  0  0999 V2000
    1.6172   -0.4499   -2.0281 O   0  0  0  0  0  0  0  0  0  0  0  0
    2.6492   -0.0152   -1.5294 C   0  0  0  0  0  0  0  0  0  0  0  0
    2.8431    1.2555   -1.0300 N   0  0  0  0  0  0  0  0  0  0  0  0
    1.8660    2.1793   -0.6950 C   0  0  1  0  0  3  0  0  0  0  0  0
    0.6085    1.7952   -0.3517 N   0  0  0  0  0  2  0  0  0  0  0  0
   -0.2953    2.7448   -0.0108 C   0  0  0  0  0  0  0  0  0  0  0  0
    0.0080    4.1029    0.0361 C   0  0  0  0  0  0  0  0  0  0  0  0
    1.3120    4.5100   -0.2910 C   0  0  0  0  0  0  0  0  0  0  0  0
    2.2388    3.5435   -0.6711 C   0  0  0  0  0  0  0  0  0  0  0  0
    3.2625    3.8113   -0.9677 H   0  0  0  0  0  0  0  0  0  0  0  0
    1.5973    5.5722   -0.2652 H   0  0  0  0  0  0  0  0  0  0  0  0
   -0.7665    4.8242    0.3302 H   0  0  0  0  0  0  0  0  0  0  0  0
   -1.2988    2.3685    0.2245 H   0  0  0  0  0  0  0  0  0  0  0  0
    3.8347    1.4272   -0.7105 H   0  0  0  0  0  0  0  0  0  0  0  0
    3.7959   -0.8308   -1.4501 N   0  0  0  0  0  0  0  0  0  0  0  0
    4.9808   -0.6584   -0.7414 C   0  0  0  0  0  0  0  0  0  0  0  0
    5.8320   -1.7673   -0.5131 C   0  0  0  0  0  0  0  0  0  0  0  0
    7.0060   -1.5640    0.2095 C   0  0  0  0  0  0  0  0  0  0  0  0
    7.3116   -0.2778    0.6924 C   0  0  0  0  0  0  0  0  0  0  0  0
    6.4151    0.7553    0.4063 C   0  0  0  0  0  0  0  0  0  0  0  0
    5.2908    0.5774   -0.3055 N   0  0  0  0  0  0  0  0  0  0  0  0
    6.6041    1.7828    0.7595 H   0  0  0  0  0  0  0  0  0  0  0  0
    8.2209   -0.0840    1.2778 H   0  0  0  0  0  0  0  0  0  0  0  0
    7.6802   -2.4107    0.4085 H   0  0  0  0  0  0  0  0  0  0  0  0
    5.5560   -2.7648   -0.8861 H   0  0  0  0  0  0  0  0  0  0  0  0
    3.6073   -1.7648   -1.8166 H   0  0  0  0  0  0  0  0  0  0  0  0
  1  2  2  0  0  0  0
  2 15  1  0  0  0  0
  2  3  1  0  0  0  0
  3 14  1  0  0  0  0
  4  3  1  1  0  0  0
  4  9  1  0  0  0  0
  4  5  1  0  0  0  0
  5  6  1  0  0  0  0
  6  7  2  0  0  0  0
  6 13  1  0  0  0  0
  7 12  1  0  0  0  0
  8 11  1  0  0  0  0
  8  7  1  0  0  0  0
  9  8  2  0  0  0  0
 10  9  1  0  0  0  0
 15 16  1  0  0  0  0
 16 17  2  0  0  0  0
 16 21  1  0  0  0  0
 17 18  1  0  0  0  0
 18 24  1  0  0  0  0
 18 19  2  0  0  0  0
 19 23  1  0  0  0  0
 20 19  1  0  0  0  0
 20 22  1  0  0  0  0
 21 20  2  0  0  0  0
 25 17  1  0  0  0  0
 26 15  1  0  0  0  0
M  END
