4
 OpenBabel05122313063D

 40 40  0  0  0  0  0  0  0  0999 V2000
    2.2896   -0.2949   -1.0182 As  0  0  0  0  0  0  0  0  0  0  0  0
    2.6913   -2.5815   -0.4430 Si  0  0  0  0  0  0  0  0  0  0  0  0
    3.5637    0.8789    0.6522 Si  0  0  0  0  0  0  0  0  0  0  0  0
   -0.1088    1.0952   -0.1243 N   0  0  0  0  0  2  0  0  0  0  0  0
    0.4622   -0.0466   -0.3426 C   0  0  0  0  0  2  0  0  0  0  0  0
    0.2630    2.4351   -0.3285 C   0  0  0  0  0  0  0  0  0  0  0  0
    0.0083    3.3882    0.6784 C   0  0  0  0  0  0  0  0  0  0  0  0
    0.3491    4.7302    0.4639 C   0  0  0  0  0  0  0  0  0  0  0  0
    0.9081    5.1374   -0.7596 C   0  0  0  0  0  0  0  0  0  0  0  0
    1.1273    4.1909   -1.7744 C   0  0  0  0  0  0  0  0  0  0  0  0
    0.8121    2.8422   -1.5634 C   0  0  0  0  0  0  0  0  0  0  0  0
    1.3435   -3.6103   -1.2858 C   0  0  0  0  0  0  0  0  0  0  0  0
    2.7547   -3.0130    1.4026 C   0  0  0  0  0  0  0  0  0  0  0  0
    4.3592   -3.0058   -1.2385 C   0  0  0  0  0  0  0  0  0  0  0  0
    2.6785    0.8801    2.3247 C   0  0  0  0  0  0  0  0  0  0  0  0
    3.8895    2.6592    0.1084 C   0  0  0  0  0  0  0  0  0  0  0  0
    5.2401    0.0024    0.8035 C   0  0  0  0  0  0  0  0  0  0  0  0
   -0.4627    3.0584    1.6141 H   0  0  0  0  0  0  0  0  0  0  0  0
    0.1613    5.4703    1.2566 H   0  0  0  0  0  0  0  0  0  0  0  0
    1.1632    6.1946   -0.9259 H   0  0  0  0  0  0  0  0  0  0  0  0
    1.5530    4.5045   -2.7397 H   0  0  0  0  0  0  0  0  0  0  0  0
    0.9843    2.0928   -2.3500 H   0  0  0  0  0  0  0  0  0  0  0  0
    0.3373   -3.3105   -0.9362 H   0  0  0  0  0  0  0  0  0  0  0  0
    1.4879   -4.6874   -1.0590 H   0  0  0  0  0  0  0  0  0  0  0  0
    1.3762   -3.4829   -2.3865 H   0  0  0  0  0  0  0  0  0  0  0  0
    3.0342   -4.0821    1.5158 H   0  0  0  0  0  0  0  0  0  0  0  0
    1.7761   -2.8655    1.8983 H   0  0  0  0  0  0  0  0  0  0  0  0
    3.5092   -2.4094    1.9446 H   0  0  0  0  0  0  0  0  0  0  0  0
    4.5709   -4.0888   -1.1146 H   0  0  0  0  0  0  0  0  0  0  0  0
    5.1968   -2.4416   -0.7837 H   0  0  0  0  0  0  0  0  0  0  0  0
    4.3448   -2.7814   -2.3242 H   0  0  0  0  0  0  0  0  0  0  0  0
    1.6671    1.3224    2.2300 H   0  0  0  0  0  0  0  0  0  0  0  0
    3.2525    1.4898    3.0539 H   0  0  0  0  0  0  0  0  0  0  0  0
    2.5771   -0.1440    2.7349 H   0  0  0  0  0  0  0  0  0  0  0  0
    4.2827    2.7018   -0.9269 H   0  0  0  0  0  0  0  0  0  0  0  0
    4.6491    3.1061    0.7849 H   0  0  0  0  0  0  0  0  0  0  0  0
    2.9762    3.2822    0.1545 H   0  0  0  0  0  0  0  0  0  0  0  0
    5.7611   -0.0428   -0.1741 H   0  0  0  0  0  0  0  0  0  0  0  0
    5.1508   -1.0286    1.1977 H   0  0  0  0  0  0  0  0  0  0  0  0
    5.8827    0.5783    1.5026 H   0  0  0  0  0  0  0  0  0  0  0  0
  1  2  1  0  0  0  0
  1  5  1  0  0  0  0
  1  3  1  0  0  0  0
  2 13  1  0  0  0  0
  3 17  1  0  0  0  0
  3 15  1  0  0  0  0
  5  4  1  0  0  0  0
  6  4  1  0  0  0  0
  6  7  1  0  0  0  0
  7 18  1  0  0  0  0
  8  7  2  0  0  0  0
  8 19  1  0  0  0  0
  9  8  1  0  0  0  0
 10 11  1  0  0  0  0
 10  9  2  0  0  0  0
 11  6  2  0  0  0  0
 12 24  1  0  0  0  0
 12 23  1  0  0  0  0
 12  2  1  0  0  0  0
 13 26  1  0  0  0  0
 13 27  1  0  0  0  0
 13 28  1  0  0  0  0
 14 29  1  0  0  0  0
 14 30  1  0  0  0  0
 14  2  1  0  0  0  0
 15 34  1  0  0  0  0
 15 33  1  0  0  0  0
 16 37  1  0  0  0  0
 16  3  1  0  0  0  0
 16 36  1  0  0  0  0
 17 39  1  0  0  0  0
 17 40  1  0  0  0  0
 20  9  1  0  0  0  0
 21 10  1  0  0  0  0
 22 11  1  0  0  0  0
 25 12  1  0  0  0  0
 31 14  1  0  0  0  0
 32 15  1  0  0  0  0
 35 16  1  0  0  0  0
 38 17  1  0  0  0  0
M  END
