2
 OpenBabel05122313063D

 24 25  0  0  0  0  0  0  0  0999 V2000
   -5.4956   -2.9661    0.8031 O   0  0  0  0  0  0  0  0  0  0  0  0
   -1.9592    0.8553   -0.0444 N   0  0  0  0  0  2  0  0  0  0  0  0
   -5.6596   -1.0844   -0.5249 N   0  0  0  0  0  0  0  0  0  0  0  0
   -9.7531   -2.0234   -1.2103 N   0  0  0  0  0  0  0  0  0  0  0  0
   -6.1494   -2.2528    0.0477 C   0  0  0  0  0  0  0  0  0  0  0  0
   -7.5604   -2.6008   -0.3406 C   0  0  0  0  0  0  0  0  0  0  0  0
   -8.4977   -1.6943   -0.8812 C   0  0  0  0  0  0  0  0  0  0  0  0
   -8.2366   -0.6289   -1.0319 H   0  0  0  0  0  0  0  0  0  0  0  0
  -10.1377   -3.2925   -1.0017 C   0  0  0  0  0  0  0  0  0  0  0  0
  -11.1736   -3.5433   -1.2920 H   0  0  0  0  0  0  0  0  0  0  0  0
   -9.3014   -4.2744   -0.4406 C   0  0  0  0  0  0  0  0  0  0  0  0
   -9.6746   -5.2961   -0.2764 H   0  0  0  0  0  0  0  0  0  0  0  0
   -7.9934   -3.9196   -0.1010 C   0  0  0  0  0  0  0  0  0  0  0  0
   -7.2851   -4.6309    0.3497 H   0  0  0  0  0  0  0  0  0  0  0  0
   -4.4185   -0.4772   -0.3336 C   0  0  0  0  0  0  0  0  0  0  0  0
   -3.4310   -0.9691    0.5504 C   0  0  0  0  0  0  0  0  0  0  0  0
   -3.6136   -1.8795    1.1312 H   0  0  0  0  0  0  0  0  0  0  0  0
   -2.2310   -0.2627    0.6590 C   0  0  0  0  0  3  0  0  0  0  0  0
   -1.4463   -0.5810    1.3641 H   0  0  0  0  0  0  0  0  0  0  0  0
   -2.9019    1.3368   -0.8818 C   0  0  0  0  0  0  0  0  0  0  0  0
   -2.6442    2.2774   -1.4003 H   0  0  0  0  0  0  0  0  0  0  0  0
   -4.1341    0.7064   -1.0527 C   0  0  0  0  0  0  0  0  0  0  0  0
   -4.8764    1.1414   -1.7399 H   0  0  0  0  0  0  0  0  0  0  0  0
   -6.2673   -0.6233   -1.2046 H   0  0  0  0  0  0  0  0  0  0  0  0
  2 18  1  0  0  0  0
  3 15  1  0  0  0  0
  3  5  1  0  0  0  0
  4  9  2  0  0  0  0
  4  7  1  0  0  0  0
  5  1  2  0  0  0  0
  6 13  1  0  0  0  0
  6  5  1  0  0  0  0
  7  6  2  0  0  0  0
  8  7  1  0  0  0  0
  9 11  1  0  0  0  0
 10  9  1  0  0  0  0
 11 12  1  0  0  0  0
 11 13  2  0  0  0  0
 13 14  1  0  0  0  0
 15 16  2  0  0  0  0
 16 18  1  0  0  0  0
 16 17  1  0  0  0  0
 18 19  1  0  0  0  0
 20  2  1  0  0  0  0
 21 20  1  0  0  0  0
 22 20  2  0  0  0  0
 22 15  1  0  0  0  0
 23 22  1  0  0  0  0
 24  3  1  0  0  0  0
M  END
