1,2,7,8
 OpenBabel05122313063D

 74 76  0  0  0  0  0  0  0  0999 V2000
   -2.4882    0.7558    0.2916 P   0  0  2  0  0  0  0  0  0  0  0  0
    2.4879   -0.7559    0.2922 P   0  0  2  0  0  0  0  0  0  0  0  0
   -1.5056   -1.8852    1.6264 Si  0  0  0  0  0  0  0  0  0  0  0  0
   -0.8321    3.1446    0.0466 Si  0  0  0  0  0  0  0  0  0  0  0  0
    1.5058    1.8862    1.6254 Si  0  0  0  0  0  0  0  0  0  0  0  0
    0.8314   -3.1442    0.0470 Si  0  0  0  0  0  0  0  0  0  0  0  0
   -0.2506   -1.8005    0.4008 N   0  0  0  0  0  2  0  0  0  0  0  0
    0.2500    1.8010    0.4007 N   0  0  0  0  0  2  0  0  0  0  0  0
   -2.2045   -0.1153    1.8868 C   0  0  0  0  0  0  0  0  0  0  0  0
   -2.5461    2.5719    0.6845 C   0  0  0  0  0  0  0  0  0  0  0  0
    2.2044    0.1163    1.8868 C   0  0  0  0  0  0  0  0  0  0  0  0
    2.5450   -2.5719    0.6861 C   0  0  0  0  0  0  0  0  0  0  0  0
   -0.8519   -2.3932    3.3361 C   0  0  0  0  0  0  0  0  0  0  0  0
   -2.9087   -3.0498    1.1244 C   0  0  0  0  0  0  0  0  0  0  0  0
   -1.0136    3.3526   -1.8256 C   0  0  0  0  0  0  0  0  0  0  0  0
   -0.3548    4.8235    0.7770 C   0  0  0  0  0  0  0  0  0  0  0  0
    0.8535    2.3956    3.3353 C   0  0  0  0  0  0  0  0  0  0  0  0
    2.9089    3.0500    1.1215 C   0  0  0  0  0  0  0  0  0  0  0  0
    1.0140   -3.3519   -1.8251 C   0  0  0  0  0  0  0  0  0  0  0  0
    0.3531   -4.8232    0.7766 C   0  0  0  0  0  0  0  0  0  0  0  0
   -4.1851    0.3183   -0.2558 C   0  0  0  0  0  0  0  0  0  0  0  0
   -5.1114   -0.3912    0.5339 C   0  0  0  0  0  0  0  0  0  0  0  0
   -6.3898   -0.6886    0.0356 C   0  0  0  0  0  0  0  0  0  0  0  0
   -6.7602   -0.2760   -1.2533 C   0  0  0  0  0  0  0  0  0  0  0  0
   -5.8433    0.4325   -2.0476 C   0  0  0  0  0  0  0  0  0  0  0  0
   -4.5630    0.7204   -1.5565 C   0  0  0  0  0  0  0  0  0  0  0  0
    4.1850   -0.3194   -0.2554 C   0  0  0  0  0  0  0  0  0  0  0  0
    5.1114    0.3906    0.5336 C   0  0  0  0  0  0  0  0  0  0  0  0
    6.3898    0.6872    0.0352 C   0  0  0  0  0  0  0  0  0  0  0  0
    6.7603    0.2732   -1.2532 C   0  0  0  0  0  0  0  0  0  0  0  0
    5.8434   -0.4359   -2.0469 C   0  0  0  0  0  0  0  0  0  0  0  0
    4.5629   -0.7230   -1.5557 C   0  0  0  0  0  0  0  0  0  0  0  0
   -1.4044    0.4721    2.3839 H   0  0  0  0  0  0  0  0  0  0  0  0
   -3.0887   -0.0968    2.5588 H   0  0  0  0  0  0  0  0  0  0  0  0
   -3.3821    3.0421    0.1280 H   0  0  0  0  0  0  0  0  0  0  0  0
   -2.7142    2.7328    1.7692 H   0  0  0  0  0  0  0  0  0  0  0  0
    1.4042   -0.4706    2.3843 H   0  0  0  0  0  0  0  0  0  0  0  0
    3.0886    0.0981    2.5588 H   0  0  0  0  0  0  0  0  0  0  0  0
    3.3815   -3.0426    0.1308 H   0  0  0  0  0  0  0  0  0  0  0  0
    2.7119   -2.7321    1.7711 H   0  0  0  0  0  0  0  0  0  0  0  0
   -0.4659   -3.4319    3.3493 H   0  0  0  0  0  0  0  0  0  0  0  0
   -0.0305   -1.7229    3.6639 H   0  0  0  0  0  0  0  0  0  0  0  0
   -1.6613   -2.3280    4.0931 H   0  0  0  0  0  0  0  0  0  0  0  0
   -2.5391   -4.0911    1.0354 H   0  0  0  0  0  0  0  0  0  0  0  0
   -3.7317   -3.0464    1.8688 H   0  0  0  0  0  0  0  0  0  0  0  0
   -3.3277   -2.7507    0.1427 H   0  0  0  0  0  0  0  0  0  0  0  0
   -1.7395    4.1574   -2.0644 H   0  0  0  0  0  0  0  0  0  0  0  0
   -0.0378    3.6107   -2.2846 H   0  0  0  0  0  0  0  0  0  0  0  0
   -1.3686    2.4206   -2.3130 H   0  0  0  0  0  0  0  0  0  0  0  0
   -1.1375    5.5646    0.5125 H   0  0  0  0  0  0  0  0  0  0  0  0
   -0.2662    4.8070    1.8808 H   0  0  0  0  0  0  0  0  0  0  0  0
    0.6050    5.1860    0.3568 H   0  0  0  0  0  0  0  0  0  0  0  0
    0.0313    1.7264    3.6635 H   0  0  0  0  0  0  0  0  0  0  0  0
    1.6632    2.3294    4.0920 H   0  0  0  0  0  0  0  0  0  0  0  0
    0.4689    3.4347    3.3484 H   0  0  0  0  0  0  0  0  0  0  0  0
    2.5393    4.0913    1.0314 H   0  0  0  0  0  0  0  0  0  0  0  0
    3.7322    3.0475    1.8656 H   0  0  0  0  0  0  0  0  0  0  0  0
    3.3275    2.7497    0.1400 H   0  0  0  0  0  0  0  0  0  0  0  0
    0.0386   -3.6101   -2.2847 H   0  0  0  0  0  0  0  0  0  0  0  0
    1.3692   -2.4199   -2.3123 H   0  0  0  0  0  0  0  0  0  0  0  0
    1.7402   -4.1566   -2.0635 H   0  0  0  0  0  0  0  0  0  0  0  0
    1.1363   -5.5643    0.5133 H   0  0  0  0  0  0  0  0  0  0  0  0
    0.2626   -4.8069    1.8802 H   0  0  0  0  0  0  0  0  0  0  0  0
   -0.6060   -5.1856    0.3547 H   0  0  0  0  0  0  0  0  0  0  0  0
   -4.8393   -0.7195    1.5470 H   0  0  0  0  0  0  0  0  0  0  0  0
   -7.1019   -1.2467    0.6627 H   0  0  0  0  0  0  0  0  0  0  0  0
   -7.7624   -0.5113   -1.6422 H   0  0  0  0  0  0  0  0  0  0  0  0
   -6.1227    0.7519   -3.0631 H   0  0  0  0  0  0  0  0  0  0  0  0
   -3.8392    1.2535   -2.1927 H   0  0  0  0  0  0  0  0  0  0  0  0
    4.8392    0.7200    1.5464 H   0  0  0  0  0  0  0  0  0  0  0  0
    7.1021    1.2458    0.6618 H   0  0  0  0  0  0  0  0  0  0  0  0
    7.7627    0.5079   -1.6423 H   0  0  0  0  0  0  0  0  0  0  0  0
    6.1228   -0.7564   -3.0621 H   0  0  0  0  0  0  0  0  0  0  0  0
    3.8391   -1.2566   -2.1914 H   0  0  0  0  0  0  0  0  0  0  0  0
  1 21  1  1  0  0  0
  1 10  1  0  0  0  0
  1  9  1  0  0  0  0
  2 27  1  1  0  0  0
  2 12  1  0  0  0  0
  2 11  1  0  0  0  0
  3  9  1  0  0  0  0
  3 13  1  0  0  0  0
  4  8  1  0  0  0  0
  4 10  1  0  0  0  0
  4 16  1  0  0  0  0
  5 11  1  0  0  0  0
  5 17  1  0  0  0  0
  6  7  1  0  0  0  0
  6 12  1  0  0  0  0
  6 20  1  0  0  0  0
  7  3  1  0  0  0  0
  8  5  1  0  0  0  0
  9 33  1  0  0  0  0
  9 34  1  0  0  0  0
 10 36  1  0  0  0  0
 11 37  1  0  0  0  0
 11 38  1  0  0  0  0
 12 40  1  0  0  0  0
 13 41  1  0  0  0  0
 13 42  1  0  0  0  0
 13 43  1  0  0  0  0
 14  3  1  0  0  0  0
 14 45  1  0  0  0  0
 15  4  1  0  0  0  0
 16 51  1  0  0  0  0
 17 55  1  0  0  0  0
 17 53  1  0  0  0  0
 17 54  1  0  0  0  0
 18  5  1  0  0  0  0
 18 57  1  0  0  0  0
 19  6  1  0  0  0  0
 20 63  1  0  0  0  0
 21 22  1  0  0  0  0
 22 65  1  0  0  0  0
 23 22  2  0  0  0  0
 23 66  1  0  0  0  0
 24 23  1  0  0  0  0
 25 26  1  0  0  0  0
 25 24  2  0  0  0  0
 26 21  2  0  0  0  0
 27 28  1  0  0  0  0
 28 70  1  0  0  0  0
 29 28  2  0  0  0  0
 29 71  1  0  0  0  0
 30 29  1  0  0  0  0
 31 32  1  0  0  0  0
 31 30  2  0  0  0  0
 32 27  2  0  0  0  0
 35 10  1  0  0  0  0
 39 12  1  0  0  0  0
 44 14  1  0  0  0  0
 46 14  1  0  0  0  0
 47 15  1  0  0  0  0
 48 15  1  0  0  0  0
 49 15  1  0  0  0  0
 50 16  1  0  0  0  0
 52 16  1  0  0  0  0
 56 18  1  0  0  0  0
 58 18  1  0  0  0  0
 59 19  1  0  0  0  0
 60 19  1  0  0  0  0
 61 19  1  0  0  0  0
 62 20  1  0  0  0  0
 64 20  1  0  0  0  0
 67 24  1  0  0  0  0
 68 25  1  0  0  0  0
 69 26  1  0  0  0  0
 72 30  1  0  0  0  0
 73 31  1  0  0  0  0
 74 32  1  0  0  0  0
M  END
