1,2,3,4
 OpenBabel05122313063D

 77 82  0  0  0  0  0  0  0  0999 V2000
    1.7064    0.2428    0.0761 P   0  0  0  0  0  0  0  0  0  0  0  0
   -1.7067    0.2424   -0.0761 P   0  0  0  0  0  0  0  0  0  0  0  0
    1.3502   -2.5164    0.5135 N   0  0  0  0  0  2  0  0  0  0  0  0
   -1.3498   -2.5168   -0.5138 N   0  0  0  0  0  2  0  0  0  0  0  0
    1.2541   -3.7321   -0.2867 C   0  0  0  0  0  0  0  0  0  0  0  0
    0.0007   -4.5688   -0.0007 C   0  0  0  0  0  0  0  0  0  0  0  0
   -1.2528   -3.7327    0.2861 C   0  0  0  0  0  0  0  0  0  0  0  0
    2.8449   -0.7004    1.0930 C   0  0  0  0  0  0  0  0  0  0  0  0
    3.9759   -0.1929    1.7603 C   0  0  0  0  0  0  0  0  0  0  0  0
    4.9059   -1.0832    2.3044 C   0  0  0  0  0  0  0  0  0  0  0  0
    4.6989   -2.4728    2.1517 C   0  0  0  0  0  0  0  0  0  0  0  0
    3.5751   -2.9857    1.5031 C   0  0  0  0  0  0  0  0  0  0  0  0
    2.5692   -2.1071    1.0020 C   0  0  0  0  0  0  0  0  0  0  0  0
   -2.8454   -0.7013   -1.0922 C   0  0  0  0  0  0  0  0  0  0  0  0
   -3.9771   -0.1942   -1.7588 C   0  0  0  0  0  0  0  0  0  0  0  0
   -4.9070   -1.0848   -2.3024 C   0  0  0  0  0  0  0  0  0  0  0  0
   -4.6994   -2.4743   -2.1500 C   0  0  0  0  0  0  0  0  0  0  0  0
   -3.5750   -2.9868   -1.5021 C   0  0  0  0  0  0  0  0  0  0  0  0
   -2.5692   -2.1079   -1.0015 C   0  0  0  0  0  0  0  0  0  0  0  0
    2.3013    0.2409   -1.6492 C   0  0  0  0  0  0  0  0  0  0  0  0
    1.4606   -0.2487   -2.6699 C   0  0  0  0  0  0  0  0  0  0  0  0
    1.9158   -0.2811   -3.9963 C   0  0  0  0  0  0  0  0  0  0  0  0
    3.2073    0.1754   -4.3032 C   0  0  0  0  0  0  0  0  0  0  0  0
    4.0491    0.6564   -3.2854 C   0  0  0  0  0  0  0  0  0  0  0  0
    3.6037    0.6862   -1.9568 C   0  0  0  0  0  0  0  0  0  0  0  0
    1.6212    1.9564    0.6560 C   0  0  0  0  0  0  0  0  0  0  0  0
    1.7421    3.0431   -0.2347 C   0  0  0  0  0  0  0  0  0  0  0  0
    1.6530    4.3539    0.2542 C   0  0  0  0  0  0  0  0  0  0  0  0
    1.4321    4.5862    1.6209 C   0  0  0  0  0  0  0  0  0  0  0  0
    1.2925    3.5039    2.5067 C   0  0  0  0  0  0  0  0  0  0  0  0
    1.3839    2.1900    2.0298 C   0  0  0  0  0  0  0  0  0  0  0  0
   -2.3008    0.2412    1.6495 C   0  0  0  0  0  0  0  0  0  0  0  0
   -1.4602   -0.2496    2.6698 C   0  0  0  0  0  0  0  0  0  0  0  0
   -1.9149   -0.2817    3.9963 C   0  0  0  0  0  0  0  0  0  0  0  0
   -3.2058    0.1762    4.3039 C   0  0  0  0  0  0  0  0  0  0  0  0
   -4.0475    0.6584    3.2865 C   0  0  0  0  0  0  0  0  0  0  0  0
   -3.6026    0.6879    1.9577 C   0  0  0  0  0  0  0  0  0  0  0  0
   -1.6220    1.9558   -0.6567 C   0  0  0  0  0  0  0  0  0  0  0  0
   -1.3856    2.1888   -2.0308 C   0  0  0  0  0  0  0  0  0  0  0  0
   -1.2942    3.5025   -2.5082 C   0  0  0  0  0  0  0  0  0  0  0  0
   -1.4330    4.5852   -1.6228 C   0  0  0  0  0  0  0  0  0  0  0  0
   -1.6530    4.3534   -0.2559 C   0  0  0  0  0  0  0  0  0  0  0  0
   -1.7420    3.0429    0.2336 C   0  0  0  0  0  0  0  0  0  0  0  0
    2.1632   -4.3589   -0.1720 H   0  0  0  0  0  0  0  0  0  0  0  0
    1.2451   -3.4348   -1.3636 H   0  0  0  0  0  0  0  0  0  0  0  0
    0.1713   -5.2311    0.8738 H   0  0  0  0  0  0  0  0  0  0  0  0
   -0.1697   -5.2303   -0.8757 H   0  0  0  0  0  0  0  0  0  0  0  0
   -2.1617   -4.3598    0.1717 H   0  0  0  0  0  0  0  0  0  0  0  0
   -1.2433   -3.4357    1.3631 H   0  0  0  0  0  0  0  0  0  0  0  0
    4.1343    0.8950    1.8228 H   0  0  0  0  0  0  0  0  0  0  0  0
    5.7997   -0.7073    2.8217 H   0  0  0  0  0  0  0  0  0  0  0  0
    5.4351   -3.1763    2.5699 H   0  0  0  0  0  0  0  0  0  0  0  0
    3.4298   -4.0735    1.4436 H   0  0  0  0  0  0  0  0  0  0  0  0
   -4.1359    0.8937   -1.8211 H   0  0  0  0  0  0  0  0  0  0  0  0
   -5.8013   -0.7092   -2.8192 H   0  0  0  0  0  0  0  0  0  0  0  0
   -5.4356   -3.1780   -2.5679 H   0  0  0  0  0  0  0  0  0  0  0  0
   -3.4293   -4.0746   -1.4429 H   0  0  0  0  0  0  0  0  0  0  0  0
    0.4512   -0.6192   -2.4210 H   0  0  0  0  0  0  0  0  0  0  0  0
    1.2612   -0.6694   -4.7905 H   0  0  0  0  0  0  0  0  0  0  0  0
    3.5656    0.1490   -5.3432 H   0  0  0  0  0  0  0  0  0  0  0  0
    5.0649    1.0027   -3.5276 H   0  0  0  0  0  0  0  0  0  0  0  0
    4.2701    1.0456   -1.1577 H   0  0  0  0  0  0  0  0  0  0  0  0
    1.9093    2.8638   -1.3065 H   0  0  0  0  0  0  0  0  0  0  0  0
    1.7559    5.2000   -0.4410 H   0  0  0  0  0  0  0  0  0  0  0  0
    1.3673    5.6171    2.0001 H   0  0  0  0  0  0  0  0  0  0  0  0
    1.1179    3.6845    3.5777 H   0  0  0  0  0  0  0  0  0  0  0  0
    1.2844    1.3433    2.7264 H   0  0  0  0  0  0  0  0  0  0  0  0
   -0.4513   -0.6211    2.4204 H   0  0  0  0  0  0  0  0  0  0  0  0
   -1.2604   -0.6708    4.7903 H   0  0  0  0  0  0  0  0  0  0  0  0
   -3.5636    0.1500    5.3440 H   0  0  0  0  0  0  0  0  0  0  0  0
   -5.0628    1.0058    3.5293 H   0  0  0  0  0  0  0  0  0  0  0  0
   -4.2690    1.0482    1.1590 H   0  0  0  0  0  0  0  0  0  0  0  0
   -1.2867    1.3418   -2.7271 H   0  0  0  0  0  0  0  0  0  0  0  0
   -1.1203    3.6826   -3.5795 H   0  0  0  0  0  0  0  0  0  0  0  0
   -1.3682    5.6159   -2.0025 H   0  0  0  0  0  0  0  0  0  0  0  0
   -1.7553    5.1998    0.4390 H   0  0  0  0  0  0  0  0  0  0  0  0
   -1.9086    2.8641    1.3056 H   0  0  0  0  0  0  0  0  0  0  0  0
  1 26  1  0  0  0  0
  1  8  1  0  0  0  0
  2 32  1  0  0  0  0
  3 13  1  0  0  0  0
  4  7  1  0  0  0  0
  5 44  1  0  0  0  0
  5  6  1  0  0  0  0
  5  3  1  0  0  0  0
  6  7  1  0  0  0  0
  6 46  1  0  0  0  0
  7 49  1  0  0  0  0
  8  9  1  0  0  0  0
  9 50  1  0  0  0  0
  9 10  2  0  0  0  0
 10 51  1  0  0  0  0
 11 10  1  0  0  0  0
 11 52  1  0  0  0  0
 12 11  2  0  0  0  0
 13  8  2  0  0  0  0
 13 12  1  0  0  0  0
 14 19  1  0  0  0  0
 14  2  1  0  0  0  0
 15 14  2  0  0  0  0
 16 17  2  0  0  0  0
 16 15  1  0  0  0  0
 17 18  1  0  0  0  0
 18 57  1  0  0  0  0
 18 19  2  0  0  0  0
 19  4  1  0  0  0  0
 20  1  1  0  0  0  0
 21 58  1  0  0  0  0
 21 20  2  0  0  0  0
 22 21  1  0  0  0  0
 23 22  2  0  0  0  0
 23 24  1  0  0  0  0
 24 25  2  0  0  0  0
 25 20  1  0  0  0  0
 25 62  1  0  0  0  0
 26 31  1  0  0  0  0
 27 28  1  0  0  0  0
 27 26  2  0  0  0  0
 28 29  2  0  0  0  0
 29 65  1  0  0  0  0
 29 30  1  0  0  0  0
 30 66  1  0  0  0  0
 31 30  2  0  0  0  0
 31 67  1  0  0  0  0
 32 37  2  0  0  0  0
 32 33  1  0  0  0  0
 33 34  2  0  0  0  0
 34 35  1  0  0  0  0
 34 69  1  0  0  0  0
 35 70  1  0  0  0  0
 36 71  1  0  0  0  0
 36 35  2  0  0  0  0
 37 36  1  0  0  0  0
 38  2  1  0  0  0  0
 38 43  1  0  0  0  0
 39 38  2  0  0  0  0
 40 39  1  0  0  0  0
 40 41  2  0  0  0  0
 41 42  1  0  0  0  0
 42 43  2  0  0  0  0
 42 76  1  0  0  0  0
 43 77  1  0  0  0  0
 45  5  1  0  0  0  0
 47  6  1  0  0  0  0
 48  7  1  0  0  0  0
 53 12  1  0  0  0  0
 54 15  1  0  0  0  0
 55 16  1  0  0  0  0
 56 17  1  0  0  0  0
 59 22  1  0  0  0  0
 60 23  1  0  0  0  0
 61 24  1  0  0  0  0
 63 27  1  0  0  0  0
 64 28  1  0  0  0  0
 68 33  1  0  0  0  0
 72 37  1  0  0  0  0
 73 39  1  0  0  0  0
 74 40  1  0  0  0  0
 75 41  1  0  0  0  0
M  END
