1,2,3,4
 OpenBabel05122313063D

 78 83  0  0  0  0  0  0  0  0999 V2000
   -1.7596    0.2379   -0.0595 P   0  0  0  0  0  0  0  0  0  0  0  0
    1.7472    0.1175   -0.0295 P   0  0  0  0  0  0  0  0  0  0  0  0
   -1.5240   -2.7697    0.2821 N   0  0  0  0  0  2  0  0  0  0  0  0
    1.1824   -2.9560    0.1702 N   0  0  0  0  0  2  0  0  0  0  0  0
   -0.9012   -3.9782    0.8134 C   0  0  0  0  0  0  0  0  0  0  0  0
    0.3914   -4.1782    0.0247 C   0  0  0  0  0  0  0  0  0  0  0  0
    2.4340   -3.1009    0.4946 C   0  0  0  0  0  3  0  0  0  0  0  0
    3.4528   -2.0880    0.7335 C   0  0  0  0  0  0  0  0  0  0  0  0
    4.7139   -2.5997    1.1455 C   0  0  0  0  0  0  0  0  0  0  0  0
    5.7956   -1.7643    1.4218 C   0  0  0  0  0  0  0  0  0  0  0  0
    5.6456   -0.3750    1.2791 C   0  0  0  0  0  0  0  0  0  0  0  0
    4.4153    0.1469    0.8609 C   0  0  0  0  0  0  0  0  0  0  0  0
    3.3078   -0.6801    0.5907 C   0  0  0  0  0  0  0  0  0  0  0  0
    1.6505    1.6070    1.0663 C   0  0  0  0  0  0  0  0  0  0  0  0
    1.9718    1.4892    2.4374 C   0  0  0  0  0  0  0  0  0  0  0  0
    1.7949    2.5787    3.3026 C   0  0  0  0  0  0  0  0  0  0  0  0
    1.2937    3.7978    2.8172 C   0  0  0  0  0  0  0  0  0  0  0  0
    0.9725    3.9216    1.4574 C   0  0  0  0  0  0  0  0  0  0  0  0
    1.1470    2.8343    0.5870 C   0  0  0  0  0  0  0  0  0  0  0  0
    2.4383    0.7861   -1.6225 C   0  0  0  0  0  0  0  0  0  0  0  0
    3.1083    2.0242   -1.7213 C   0  0  0  0  0  0  0  0  0  0  0  0
    3.6662    2.4349   -2.9409 C   0  0  0  0  0  0  0  0  0  0  0  0
    3.5746    1.6114   -4.0743 C   0  0  0  0  0  0  0  0  0  0  0  0
    2.9304    0.3686   -3.9757 C   0  0  0  0  0  0  0  0  0  0  0  0
    2.3684   -0.0465   -2.7586 C   0  0  0  0  0  0  0  0  0  0  0  0
   -2.5204    0.8274    1.5181 C   0  0  0  0  0  0  0  0  0  0  0  0
   -1.6790    1.4407    2.4703 C   0  0  0  0  0  0  0  0  0  0  0  0
   -2.2081    1.9173    3.6768 C   0  0  0  0  0  0  0  0  0  0  0  0
   -3.5749    1.7650    3.9605 C   0  0  0  0  0  0  0  0  0  0  0  0
   -4.4127    1.1374    3.0264 C   0  0  0  0  0  0  0  0  0  0  0  0
   -3.8905    0.6724    1.8084 C   0  0  0  0  0  0  0  0  0  0  0  0
   -1.4794    1.8028   -1.0010 C   0  0  0  0  0  0  0  0  0  0  0  0
   -1.9291    3.0572   -0.5436 C   0  0  0  0  0  0  0  0  0  0  0  0
   -1.6308    4.2184   -1.2749 C   0  0  0  0  0  0  0  0  0  0  0  0
   -0.8830    4.1346   -2.4608 C   0  0  0  0  0  0  0  0  0  0  0  0
   -0.4526    2.8812   -2.9292 C   0  0  0  0  0  0  0  0  0  0  0  0
   -0.7535    1.7169   -2.2081 C   0  0  0  0  0  0  0  0  0  0  0  0
   -3.2316   -0.4640   -0.9304 C   0  0  0  0  0  0  0  0  0  0  0  0
   -4.0855    0.3759   -1.6646 C   0  0  0  0  0  0  0  0  0  0  0  0
   -5.2686   -0.1083   -2.2451 C   0  0  0  0  0  0  0  0  0  0  0  0
   -5.6254   -1.4546   -2.0766 C   0  0  0  0  0  0  0  0  0  0  0  0
   -4.7848   -2.3023   -1.3500 C   0  0  0  0  0  0  0  0  0  0  0  0
   -3.5691   -1.8397   -0.7858 C   0  0  0  0  0  0  0  0  0  0  0  0
   -2.7597   -2.8520   -0.1180 C   0  0  0  0  0  3  0  0  0  0  0  0
   -0.6568   -3.7956    1.8830 H   0  0  0  0  0  0  0  0  0  0  0  0
   -1.5691   -4.8614    0.7215 H   0  0  0  0  0  0  0  0  0  0  0  0
    0.1480   -4.3000   -1.0538 H   0  0  0  0  0  0  0  0  0  0  0  0
    0.9469   -5.0711    0.3832 H   0  0  0  0  0  0  0  0  0  0  0  0
    2.8012   -4.1397    0.6210 H   0  0  0  0  0  0  0  0  0  0  0  0
    4.8264   -3.6903    1.2510 H   0  0  0  0  0  0  0  0  0  0  0  0
    6.7558   -2.1931    1.7452 H   0  0  0  0  0  0  0  0  0  0  0  0
    6.4863    0.3031    1.4895 H   0  0  0  0  0  0  0  0  0  0  0  0
    4.3090    1.2353    0.7457 H   0  0  0  0  0  0  0  0  0  0  0  0
    2.3367    0.5313    2.8304 H   0  0  0  0  0  0  0  0  0  0  0  0
    2.0438    2.4679    4.3690 H   0  0  0  0  0  0  0  0  0  0  0  0
    1.1521    4.6497    3.4998 H   0  0  0  0  0  0  0  0  0  0  0  0
    0.5714    4.8668    1.0616 H   0  0  0  0  0  0  0  0  0  0  0  0
    0.8840    2.9499   -0.4720 H   0  0  0  0  0  0  0  0  0  0  0  0
    3.1951    2.6824   -0.8454 H   0  0  0  0  0  0  0  0  0  0  0  0
    4.1781    3.4077   -3.0030 H   0  0  0  0  0  0  0  0  0  0  0  0
    4.0098    1.9374   -5.0316 H   0  0  0  0  0  0  0  0  0  0  0  0
    2.8549   -0.2878   -4.8562 H   0  0  0  0  0  0  0  0  0  0  0  0
    1.8272   -1.0028   -2.6967 H   0  0  0  0  0  0  0  0  0  0  0  0
   -0.6069    1.5436    2.2686 H   0  0  0  0  0  0  0  0  0  0  0  0
   -1.5369    2.3992    4.4038 H   0  0  0  0  0  0  0  0  0  0  0  0
   -3.9870    2.1317    4.9133 H   0  0  0  0  0  0  0  0  0  0  0  0
   -5.4846    1.0094    3.2420 H   0  0  0  0  0  0  0  0  0  0  0  0
   -4.5591    0.1902    1.0811 H   0  0  0  0  0  0  0  0  0  0  0  0
   -2.4930    3.1283    0.3980 H   0  0  0  0  0  0  0  0  0  0  0  0
   -1.9767    5.1970   -0.9074 H   0  0  0  0  0  0  0  0  0  0  0  0
   -0.6366    5.0487   -3.0227 H   0  0  0  0  0  0  0  0  0  0  0  0
    0.1376    2.8051   -3.8551 H   0  0  0  0  0  0  0  0  0  0  0  0
   -0.4245    0.7288   -2.5691 H   0  0  0  0  0  0  0  0  0  0  0  0
   -3.8203    1.4368   -1.7818 H   0  0  0  0  0  0  0  0  0  0  0  0
   -5.9136    0.5718   -2.8216 H   0  0  0  0  0  0  0  0  0  0  0  0
   -6.5555   -1.8454   -2.5157 H   0  0  0  0  0  0  0  0  0  0  0  0
   -5.0541   -3.3630   -1.2245 H   0  0  0  0  0  0  0  0  0  0  0  0
   -3.2661   -3.8303    0.0092 H   0  0  0  0  0  0  0  0  0  0  0  0
  1 26  1  0  0  0  0
  2 13  1  0  0  0  0
  2 14  1  0  0  0  0
  3  5  1  0  0  0  0
  4  7  1  0  0  0  0
  5 45  1  0  0  0  0
  6  4  1  0  0  0  0
  6 48  1  0  0  0  0
  6  5  1  0  0  0  0
  7 49  1  0  0  0  0
  7  8  1  0  0  0  0
  8  9  1  0  0  0  0
  9 50  1  0  0  0  0
  9 10  2  0  0  0  0
 10 51  1  0  0  0  0
 11 10  1  0  0  0  0
 11 52  1  0  0  0  0
 12 11  2  0  0  0  0
 13  8  2  0  0  0  0
 13 12  1  0  0  0  0
 14 15  1  0  0  0  0
 15 54  1  0  0  0  0
 15 16  2  0  0  0  0
 16 55  1  0  0  0  0
 17 16  1  0  0  0  0
 17 56  1  0  0  0  0
 18 17  2  0  0  0  0
 19 14  2  0  0  0  0
 19 18  1  0  0  0  0
 20  2  1  0  0  0  0
 21 20  1  0  0  0  0
 21 59  1  0  0  0  0
 22 21  2  0  0  0  0
 23 24  2  0  0  0  0
 23 22  1  0  0  0  0
 24 25  1  0  0  0  0
 25 63  1  0  0  0  0
 25 20  2  0  0  0  0
 26 31  2  0  0  0  0
 26 27  1  0  0  0  0
 27 28  2  0  0  0  0
 28 29  1  0  0  0  0
 28 65  1  0  0  0  0
 29 66  1  0  0  0  0
 30 67  1  0  0  0  0
 30 29  2  0  0  0  0
 31 30  1  0  0  0  0
 32 33  1  0  0  0  0
 32  1  1  0  0  0  0
 33 69  1  0  0  0  0
 34 70  1  0  0  0  0
 34 33  2  0  0  0  0
 35 34  1  0  0  0  0
 36 35  2  0  0  0  0
 36 37  1  0  0  0  0
 37 32  2  0  0  0  0
 38 43  1  0  0  0  0
 38  1  1  0  0  0  0
 39 38  2  0  0  0  0
 40 41  2  0  0  0  0
 40 39  1  0  0  0  0
 41 42  1  0  0  0  0
 42 77  1  0  0  0  0
 42 43  2  0  0  0  0
 43 44  1  0  0  0  0
 44 78  1  0  0  0  0
 44  3  1  0  0  0  0
 46  5  1  0  0  0  0
 47  6  1  0  0  0  0
 53 12  1  0  0  0  0
 57 18  1  0  0  0  0
 58 19  1  0  0  0  0
 60 22  1  0  0  0  0
 61 23  1  0  0  0  0
 62 24  1  0  0  0  0
 64 27  1  0  0  0  0
 68 31  1  0  0  0  0
 71 35  1  0  0  0  0
 72 36  1  0  0  0  0
 73 37  1  0  0  0  0
 74 39  1  0  0  0  0
 75 40  1  0  0  0  0
 76 41  1  0  0  0  0
M  END
