1,2,3
 OpenBabel05122313063D

 42 44  0  0  0  0  0  0  0  0999 V2000
    3.2821   -1.4358   -0.0726 Se  0  0  0  0  0  1  0  0  0  0  0  0
   -0.7891    0.4179   -0.0394 P   0  0  0  0  0  0  0  0  0  0  0  0
    2.1339    1.3169   -0.2857 N   0  0  0  0  0  2  0  0  0  0  0  0
    3.4959    1.3948   -0.1878 N   0  0  0  0  0  0  0  0  0  0  0  0
    5.4973    0.3035   -0.0251 N   0  0  0  0  0  0  0  0  0  0  0  0
    5.9575    1.2138   -0.0201 H   0  0  0  0  0  0  0  0  0  0  0  0
    6.0451   -0.5430    0.1020 H   0  0  0  0  0  0  0  0  0  0  0  0
    4.1440    0.2497   -0.0946 C   0  0  0  0  0  0  0  0  0  0  0  0
    1.6091    2.5214   -0.4788 C   0  0  0  0  0  3  0  0  0  0  0  0
    2.3708    3.3174   -0.5435 H   0  0  0  0  0  0  0  0  0  0  0  0
    0.2395    2.9614   -0.6415 C   0  0  0  0  0  0  0  0  0  0  0  0
   -0.9380    2.1698   -0.5171 C   0  0  0  0  0  0  0  0  0  0  0  0
   -2.2043    2.7424   -0.7349 C   0  0  0  0  0  0  0  0  0  0  0  0
   -3.1006    2.1098   -0.6493 H   0  0  0  0  0  0  0  0  0  0  0  0
   -2.3390    4.0985   -1.0608 C   0  0  0  0  0  0  0  0  0  0  0  0
   -3.3374    4.5284   -1.2295 H   0  0  0  0  0  0  0  0  0  0  0  0
   -1.1875    4.8986   -1.1686 C   0  0  0  0  0  0  0  0  0  0  0  0
   -1.2763    5.9659   -1.4214 H   0  0  0  0  0  0  0  0  0  0  0  0
    0.0739    4.3395   -0.9618 C   0  0  0  0  0  0  0  0  0  0  0  0
    0.9729    4.9680   -1.0552 H   0  0  0  0  0  0  0  0  0  0  0  0
   -1.3748    0.3590    1.6969 C   0  0  0  0  0  0  0  0  0  0  0  0
   -1.3452    1.5189    2.4987 C   0  0  0  0  0  0  0  0  0  0  0  0
   -1.0397    2.4821    2.0634 H   0  0  0  0  0  0  0  0  0  0  0  0
   -1.7106    1.4477    3.8510 C   0  0  0  0  0  0  0  0  0  0  0  0
   -1.6868    2.3579    4.4693 H   0  0  0  0  0  0  0  0  0  0  0  0
   -2.1069    0.2233    4.4111 C   0  0  0  0  0  0  0  0  0  0  0  0
   -2.3949    0.1697    5.4720 H   0  0  0  0  0  0  0  0  0  0  0  0
   -2.1345   -0.9331    3.6143 C   0  0  0  0  0  0  0  0  0  0  0  0
   -2.4430   -1.8973    4.0457 H   0  0  0  0  0  0  0  0  0  0  0  0
   -1.7647   -0.8754    2.2635 C   0  0  0  0  0  0  0  0  0  0  0  0
   -1.7919   -1.7937    1.6564 H   0  0  0  0  0  0  0  0  0  0  0  0
   -2.0499   -0.4464   -1.0438 C   0  0  0  0  0  0  0  0  0  0  0  0
   -3.3792   -0.6102   -0.6086 C   0  0  0  0  0  0  0  0  0  0  0  0
   -3.6874   -0.2385    0.3800 H   0  0  0  0  0  0  0  0  0  0  0  0
   -4.3068   -1.2699   -1.4295 C   0  0  0  0  0  0  0  0  0  0  0  0
   -5.3424   -1.4033   -1.0821 H   0  0  0  0  0  0  0  0  0  0  0  0
   -3.9109   -1.7732   -2.6772 C   0  0  0  0  0  0  0  0  0  0  0  0
   -4.6366   -2.3040   -3.3118 H   0  0  0  0  0  0  0  0  0  0  0  0
   -2.5832   -1.6179   -3.1081 C   0  0  0  0  0  0  0  0  0  0  0  0
   -2.2647   -2.0290   -4.0776 H   0  0  0  0  0  0  0  0  0  0  0  0
   -1.6534   -0.9577   -2.2958 C   0  0  0  0  0  0  0  0  0  0  0  0
   -0.6033   -0.8654   -2.6124 H   0  0  0  0  0  0  0  0  0  0  0  0
  2 21  1  0  0  0  0
  3  4  1  0  0  0  0
  4  8  2  0  0  0  0
  5  6  1  0  0  0  0
  5  7  1  0  0  0  0
  8  1  1  0  0  0  0
  8  5  1  0  0  0  0
  9  3  1  0  0  0  0
 10  9  1  0  0  0  0
 11 12  1  0  0  0  0
 11  9  1  0  0  0  0
 12  2  1  0  0  0  0
 13 14  1  0  0  0  0
 13 12  2  0  0  0  0
 15 13  1  0  0  0  0
 16 15  1  0  0  0  0
 17 15  2  0  0  0  0
 17 19  1  0  0  0  0
 18 17  1  0  0  0  0
 19 11  2  0  0  0  0
 20 19  1  0  0  0  0
 21 30  2  0  0  0  0
 21 22  1  0  0  0  0
 22 24  2  0  0  0  0
 23 22  1  0  0  0  0
 24 26  1  0  0  0  0
 24 25  1  0  0  0  0
 26 27  1  0  0  0  0
 28 29  1  0  0  0  0
 28 26  2  0  0  0  0
 30 28  1  0  0  0  0
 31 30  1  0  0  0  0
 32 33  1  0  0  0  0
 32  2  1  0  0  0  0
 33 34  1  0  0  0  0
 35 36  1  0  0  0  0
 35 33  2  0  0  0  0
 37 35  1  0  0  0  0
 38 37  1  0  0  0  0
 39 37  2  0  0  0  0
 39 41  1  0  0  0  0
 40 39  1  0  0  0  0
 41 32  2  0  0  0  0
 42 41  1  0  0  0  0
M  END
