4,7
 OpenBabel05122313053D

 14 13  0  0  0  0  0  0  0  0999 V2000
    1.3129    2.1408   -0.0006 O   0  0  0  0  0  0  0  0  0  0  0  0
    1.6650   -1.4201    0.0006 O   0  0  0  0  0  0  0  0  0  0  0  0
   -0.1357   -2.7298   -0.0000 O   0  0  0  0  0  0  0  0  0  0  0  0
    0.3220   -1.6166    0.0001 C   0  0  0  0  0  3  0  0  0  0  0  0
    3.0302    0.0885    1.2758 C   0  0  0  0  0  0  0  0  0  0  0  0
    2.2016   -0.0889    0.0000 C   0  0  0  0  0  0  0  0  0  0  0  0
    1.0646    0.9617   -0.0002 C   0  0  0  0  0  3  0  0  0  0  0  0
    3.0299    0.0877   -1.2761 C   0  0  0  0  0  0  0  0  0  0  0  0
    3.4602    1.1065   -1.3046 H   0  0  0  0  0  0  0  0  0  0  0  0
    3.8473   -0.6591   -1.2955 H   0  0  0  0  0  0  0  0  0  0  0  0
    3.8475   -0.6583    1.2956 H   0  0  0  0  0  0  0  0  0  0  0  0
    2.4028   -0.0576    2.1765 H   0  0  0  0  0  0  0  0  0  0  0  0
    2.4023   -0.0591   -2.1765 H   0  0  0  0  0  0  0  0  0  0  0  0
    3.4606    1.1073    1.3036 H   0  0  0  0  0  0  0  0  0  0  0  0
  1  7  2  0  0  0  0
  3  4  2  0  0  0  0
  4  2  1  0  0  0  0
  5 11  1  0  0  0  0
  5 14  1  0  0  0  0
  5 12  1  0  0  0  0
  6  2  1  0  0  0  0
  6  5  1  0  0  0  0
  7  6  1  0  0  0  0
  8  6  1  0  0  0  0
  9  8  1  0  0  0  0
 10  8  1  0  0  0  0
 13  8  1  0  0  0  0
M  END
