2,5
 OpenBabel05122313053D

 25 26  0  0  1  0  0  0  0  0999 V2000
    0.1447    1.2990   -1.6176 P   0  0  0  0  0  2  0  0  0  0  0  0
    1.7600    0.6048   -1.1852 C   0  0  1  0  0  3  0  0  0  0  0  0
    1.9890   -0.6687   -1.7865 C   0  0  0  0  0  0  0  0  0  0  0  0
    0.8238   -1.1611   -2.4713 C   0  0  0  0  0  0  0  0  0  0  0  0
   -0.2354   -0.2163   -2.4600 C   0  0  0  0  0  3  0  0  0  0  0  0
   -1.2129   -0.4226   -2.9189 H   0  0  0  0  0  0  0  0  0  0  0  0
    3.3060   -1.3857   -1.8337 C   0  0  0  0  0  0  0  0  0  0  0  0
    3.5065   -1.7342   -2.8671 H   0  0  0  0  0  0  0  0  0  0  0  0
    3.3074   -2.2774   -1.1727 H   0  0  0  0  0  0  0  0  0  0  0  0
    4.1348   -0.7256   -1.5191 H   0  0  0  0  0  0  0  0  0  0  0  0
    0.7833   -2.4849   -3.1800 C   0  0  0  0  0  0  0  0  0  0  0  0
    1.2683   -3.2804   -2.5813 H   0  0  0  0  0  0  0  0  0  0  0  0
    1.3199   -2.4209   -4.1513 H   0  0  0  0  0  0  0  0  0  0  0  0
   -0.2589   -2.7942   -3.3798 H   0  0  0  0  0  0  0  0  0  0  0  0
    2.7241    1.3540   -0.3495 C   0  0  0  0  0  0  0  0  0  0  0  0
    3.4967    0.7126    0.6495 C   0  0  0  0  0  0  0  0  0  0  0  0
    3.3763   -0.3684    0.8145 H   0  0  0  0  0  0  0  0  0  0  0  0
    4.3764    1.4482    1.4555 C   0  0  0  0  0  0  0  0  0  0  0  0
    4.9633    0.9308    2.2299 H   0  0  0  0  0  0  0  0  0  0  0  0
    4.5010    2.8366    1.2874 C   0  0  0  0  0  0  0  0  0  0  0  0
    5.1907    3.4123    1.9230 H   0  0  0  0  0  0  0  0  0  0  0  0
    3.7350    3.4862    0.3063 C   0  0  0  0  0  0  0  0  0  0  0  0
    3.8238    4.5744    0.1673 H   0  0  0  0  0  0  0  0  0  0  0  0
    2.8564    2.7535   -0.5022 C   0  0  0  0  0  0  0  0  0  0  0  0
    2.2610    3.2648   -1.2743 H   0  0  0  0  0  0  0  0  0  0  0  0
  1  2  1  0  0  0  0
  2 15  1  6  0  0  0
  3  2  1  0  0  0  0
  4  5  1  0  0  0  0
  4  3  2  0  0  0  0
  5  1  1  0  0  0  0
  6  5  1  0  0  0  0
  7  3  1  0  0  0  0
  7 10  1  0  0  0  0
  7  9  1  0  0  0  0
  8  7  1  0  0  0  0
 11 12  1  0  0  0  0
 11  4  1  0  0  0  0
 13 11  1  0  0  0  0
 14 11  1  0  0  0  0
 15 16  1  0  0  0  0
 16 17  1  0  0  0  0
 16 18  2  0  0  0  0
 18 19  1  0  0  0  0
 20 18  1  0  0  0  0
 20 21  1  0  0  0  0
 22 20  2  0  0  0  0
 23 22  1  0  0  0  0
 24 15  2  0  0  0  0
 24 22  1  0  0  0  0
 25 24  1  0  0  0  0
M  END
