11,27
 OpenBabel05122313053D

 43 44  0  0  1  0  0  0  0  0999 V2000
   -0.1072    2.2849   -0.1541 O   0  0  0  0  0  0  0  0  0  0  0  0
    1.9545   -1.3913   -0.2051 N   0  0  0  0  0  0  0  0  0  0  0  0
    2.4994    0.7390   -0.0429 N   0  0  0  0  0  0  0  0  0  0  0  0
   -1.1941   -1.7997    0.7455 C   0  0  2  0  0  3  0  0  0  0  0  0
   -2.4142   -1.0108    0.7009 C   0  0  0  0  0  0  0  0  0  0  0  0
   -3.0231   -0.9499    1.6156 H   0  0  0  0  0  0  0  0  0  0  0  0
   -2.7603   -0.2254   -0.4087 C   0  0  0  0  0  0  0  0  0  0  0  0
   -1.8481   -0.2417   -1.5379 C   0  0  0  0  0  0  0  0  0  0  0  0
   -2.0570    0.4225   -2.3916 H   0  0  0  0  0  0  0  0  0  0  0  0
   -0.7456   -1.1393   -1.6469 C   0  0  0  0  0  0  0  0  0  0  0  0
   -0.3778   -1.8826   -0.4507 C   0  0  1  0  0  3  0  0  0  0  0  0
   -0.8488   -2.5457    2.0058 C   0  0  0  0  0  0  0  0  0  0  0  0
   -1.1325   -3.6149    1.9099 H   0  0  0  0  0  0  0  0  0  0  0  0
   -1.3910   -2.1170    2.8674 H   0  0  0  0  0  0  0  0  0  0  0  0
    0.2281   -2.4843    2.2468 H   0  0  0  0  0  0  0  0  0  0  0  0
   -4.0068    0.6117   -0.4394 C   0  0  0  0  0  0  0  0  0  0  0  0
   -3.8726    1.5296   -1.0437 H   0  0  0  0  0  0  0  0  0  0  0  0
   -4.3327    0.8968    0.5788 H   0  0  0  0  0  0  0  0  0  0  0  0
   -4.8337    0.0379   -0.9093 H   0  0  0  0  0  0  0  0  0  0  0  0
    0.0523   -1.2185   -2.9203 C   0  0  0  0  0  0  0  0  0  0  0  0
    1.1436   -1.1580   -2.7476 H   0  0  0  0  0  0  0  0  0  0  0  0
   -0.2278   -0.4031   -3.6129 H   0  0  0  0  0  0  0  0  0  0  0  0
   -0.1516   -2.1807   -3.4359 H   0  0  0  0  0  0  0  0  0  0  0  0
    1.0224   -2.4987   -0.3931 C   0  0  0  0  0  0  0  0  0  0  0  0
    1.1094   -3.2324    0.4327 H   0  0  0  0  0  0  0  0  0  0  0  0
    1.2555   -3.0402   -1.3348 H   0  0  0  0  0  0  0  0  0  0  0  0
    1.4832   -0.1316   -0.0422 C   0  0  0  0  0  2  0  0  0  0  0  0
    3.4099   -1.4093   -0.4050 C   0  0  0  0  0  0  0  0  0  0  0  0
    3.6541   -1.6508   -1.4641 H   0  0  0  0  0  0  0  0  0  0  0  0
    3.9003   -2.1641    0.2410 H   0  0  0  0  0  0  0  0  0  0  0  0
    3.7997    0.0425   -0.0243 C   0  0  0  0  0  0  0  0  0  0  0  0
    4.2425    0.1010    0.9940 H   0  0  0  0  0  0  0  0  0  0  0  0
    4.5109    0.4990   -0.7405 H   0  0  0  0  0  0  0  0  0  0  0  0
    2.3055    2.1489    0.2557 C   0  0  0  0  0  0  0  0  0  0  0  0
    3.2394    2.6879    0.0009 H   0  0  0  0  0  0  0  0  0  0  0  0
    2.0968    2.2901    1.3386 H   0  0  0  0  0  0  0  0  0  0  0  0
    1.1833    2.7657   -0.5668 C   0  0  0  0  0  0  0  0  0  0  0  0
    1.1963    3.8650   -0.4076 H   0  0  0  0  0  0  0  0  0  0  0  0
    1.3304    2.5626   -1.6530 H   0  0  0  0  0  0  0  0  0  0  0  0
   -1.1923    3.0773   -0.6454 C   0  0  0  0  0  0  0  0  0  0  0  0
   -2.1001    2.7408   -0.1148 H   0  0  0  0  0  0  0  0  0  0  0  0
   -1.3196    2.9577   -1.7439 H   0  0  0  0  0  0  0  0  0  0  0  0
   -1.0090    4.1461   -0.4093 H   0  0  0  0  0  0  0  0  0  0  0  0
  2 27  1  0  0  0  0
  3 27  1  0  0  0  0
  3 31  1  0  0  0  0
  3 34  1  0  0  0  0
  4 12  1  6  0  0  0
  5  4  1  0  0  0  0
  5  6  1  0  0  0  0
  7  5  2  0  0  0  0
  8  7  1  0  0  0  0
  9  8  1  0  0  0  0
 10  8  2  0  0  0  0
 10 11  1  0  0  0  0
 11 24  1  1  0  0  0
 11  4  1  0  0  0  0
 12 15  1  0  0  0  0
 12 14  1  0  0  0  0
 13 12  1  0  0  0  0
 16  7  1  0  0  0  0
 16 18  1  0  0  0  0
 17 16  1  0  0  0  0
 19 16  1  0  0  0  0
 20 21  1  0  0  0  0
 20 10  1  0  0  0  0
 22 20  1  0  0  0  0
 23 20  1  0  0  0  0
 24  2  1  0  0  0  0
 24 25  1  0  0  0  0
 26 24  1  0  0  0  0
 28  2  1  0  0  0  0
 28 31  1  0  0  0  0
 28 30  1  0  0  0  0
 29 28  1  0  0  0  0
 31 32  1  0  0  0  0
 33 31  1  0  0  0  0
 34 36  1  0  0  0  0
 35 34  1  0  0  0  0
 37 38  1  0  0  0  0
 37  1  1  0  0  0  0
 37 34  1  0  0  0  0
 39 37  1  0  0  0  0
 40 43  1  0  0  0  0
 40  1  1  0  0  0  0
 40 41  1  0  0  0  0
 42 40  1  0  0  0  0
M  END
