1,4
 OpenBabel05122313053D

 52 55  0  0  0  0  0  0  0  0999 V2000
   -0.9753    1.4278   -0.1987 C   0  0  0  0  0  3  0  0  0  0  0  0
    0.2331    0.7452   -0.0719 C   0  0  0  0  0  0  0  0  0  0  0  0
    0.2331   -0.7450    0.0716 C   0  0  0  0  0  0  0  0  0  0  0  0
   -0.9752   -1.4277    0.1985 C   0  0  0  0  0  3  0  0  0  0  0  0
   -1.0887    2.8915   -0.1850 C   0  0  0  0  0  0  0  0  0  0  0  0
   -2.0371    3.5495   -1.0124 C   0  0  0  0  0  0  0  0  0  0  0  0
   -2.6298    2.9523   -1.7200 H   0  0  0  0  0  0  0  0  0  0  0  0
   -2.2159    4.9386   -0.9639 C   0  0  0  0  0  0  0  0  0  0  0  0
   -2.9491    5.4175   -1.6314 H   0  0  0  0  0  0  0  0  0  0  0  0
   -1.4677    5.7171   -0.0664 C   0  0  0  0  0  0  0  0  0  0  0  0
   -1.6129    6.8070   -0.0196 H   0  0  0  0  0  0  0  0  0  0  0  0
   -0.5369    5.0868    0.7773 C   0  0  0  0  0  0  0  0  0  0  0  0
    0.0476    5.6833    1.4950 H   0  0  0  0  0  0  0  0  0  0  0  0
   -0.3459    3.7007    0.7171 C   0  0  0  0  0  0  0  0  0  0  0  0
    0.3803    3.2217    1.3891 H   0  0  0  0  0  0  0  0  0  0  0  0
    1.4962    1.4022   -0.0633 C   0  0  0  0  0  0  0  0  0  0  0  0
    2.5937    1.9661   -0.0454 C   0  0  0  0  0  0  0  0  0  0  0  0
    3.8448    2.6392   -0.0073 C   0  0  0  0  0  0  0  0  0  0  0  0
    3.9442    3.9998   -0.4035 C   0  0  0  0  0  0  0  0  0  0  0  0
    3.0367    4.5210   -0.7420 H   0  0  0  0  0  0  0  0  0  0  0  0
    5.1769    4.6605   -0.3628 C   0  0  0  0  0  0  0  0  0  0  0  0
    5.2393    5.7145   -0.6740 H   0  0  0  0  0  0  0  0  0  0  0  0
    6.3317    3.9866    0.0708 C   0  0  0  0  0  0  0  0  0  0  0  0
    7.2992    4.5104    0.0994 H   0  0  0  0  0  0  0  0  0  0  0  0
    6.2449    2.6418    0.4699 C   0  0  0  0  0  0  0  0  0  0  0  0
    7.1450    2.1104    0.8153 H   0  0  0  0  0  0  0  0  0  0  0  0
    5.0178    1.9705    0.4350 C   0  0  0  0  0  0  0  0  0  0  0  0
    4.9430    0.9215    0.7561 H   0  0  0  0  0  0  0  0  0  0  0  0
    1.4963   -1.4019    0.0630 C   0  0  0  0  0  0  0  0  0  0  0  0
    2.5938   -1.9657    0.0451 C   0  0  0  0  0  0  0  0  0  0  0  0
    3.8449   -2.6389    0.0071 C   0  0  0  0  0  0  0  0  0  0  0  0
    5.0179   -1.9703   -0.4351 C   0  0  0  0  0  0  0  0  0  0  0  0
    4.9432   -0.9213   -0.7563 H   0  0  0  0  0  0  0  0  0  0  0  0
    6.2450   -2.6416   -0.4699 C   0  0  0  0  0  0  0  0  0  0  0  0
    7.1452   -2.1103   -0.8153 H   0  0  0  0  0  0  0  0  0  0  0  0
    6.3318   -3.9865   -0.0706 C   0  0  0  0  0  0  0  0  0  0  0  0
    7.2992   -4.5102   -0.0992 H   0  0  0  0  0  0  0  0  0  0  0  0
    5.1769   -4.6602    0.3629 C   0  0  0  0  0  0  0  0  0  0  0  0
    5.2393   -5.7142    0.6742 H   0  0  0  0  0  0  0  0  0  0  0  0
    3.9442   -3.9995    0.4035 C   0  0  0  0  0  0  0  0  0  0  0  0
    3.0367   -4.5206    0.7419 H   0  0  0  0  0  0  0  0  0  0  0  0
   -1.0884   -2.8915    0.1847 C   0  0  0  0  0  0  0  0  0  0  0  0
   -0.3455   -3.7004   -0.7176 C   0  0  0  0  0  0  0  0  0  0  0  0
    0.3804   -3.2211   -1.3897 H   0  0  0  0  0  0  0  0  0  0  0  0
   -0.5363   -5.0865   -0.7779 C   0  0  0  0  0  0  0  0  0  0  0  0
    0.0482   -5.6828   -1.4959 H   0  0  0  0  0  0  0  0  0  0  0  0
   -1.4668   -5.7171    0.0657 C   0  0  0  0  0  0  0  0  0  0  0  0
   -1.6119   -6.8070    0.0188 H   0  0  0  0  0  0  0  0  0  0  0  0
   -2.2151   -4.9389    0.9635 C   0  0  0  0  0  0  0  0  0  0  0  0
   -2.9480   -5.4180    1.6310 H   0  0  0  0  0  0  0  0  0  0  0  0
   -2.0365   -3.5497    1.0122 C   0  0  0  0  0  0  0  0  0  0  0  0
   -2.6293   -2.9528    1.7200 H   0  0  0  0  0  0  0  0  0  0  0  0
  1  5  1  0  0  0  0
  1  2  2  0  0  0  0
  2 16  1  0  0  0  0
  2  3  1  0  0  0  0
  3  4  2  0  0  0  0
  5 14  1  0  0  0  0
  6  8  1  0  0  0  0
  6  5  2  0  0  0  0
  7  6  1  0  0  0  0
  8 10  2  0  0  0  0
  9  8  1  0  0  0  0
 10 11  1  0  0  0  0
 10 12  1  0  0  0  0
 12 13  1  0  0  0  0
 14 12  2  0  0  0  0
 14 15  1  0  0  0  0
 16 17  3  0  0  0  0
 17 18  1  0  0  0  0
 18 27  1  0  0  0  0
 19 21  1  0  0  0  0
 19 18  2  0  0  0  0
 20 19  1  0  0  0  0
 21 23  2  0  0  0  0
 22 21  1  0  0  0  0
 23 24  1  0  0  0  0
 23 25  1  0  0  0  0
 25 26  1  0  0  0  0
 27 25  2  0  0  0  0
 27 28  1  0  0  0  0
 29  3  1  0  0  0  0
 30 29  3  0  0  0  0
 31 30  1  0  0  0  0
 31 40  1  0  0  0  0
 32 31  2  0  0  0  0
 33 32  1  0  0  0  0
 34 32  1  0  0  0  0
 34 36  2  0  0  0  0
 35 34  1  0  0  0  0
 36 38  1  0  0  0  0
 37 36  1  0  0  0  0
 38 40  2  0  0  0  0
 38 39  1  0  0  0  0
 40 41  1  0  0  0  0
 42  4  1  0  0  0  0
 42 51  1  0  0  0  0
 43 42  2  0  0  0  0
 44 43  1  0  0  0  0
 45 43  1  0  0  0  0
 45 47  2  0  0  0  0
 46 45  1  0  0  0  0
 47 49  1  0  0  0  0
 48 47  1  0  0  0  0
 49 51  2  0  0  0  0
 49 50  1  0  0  0  0
 51 52  1  0  0  0  0
M  END
