3,16
 OpenBabel05122313053D

 25 26  0  0  0  0  0  0  0  0999 V2000
    1.1926   -1.7736   -0.5979 N   0  0  0  0  0  0  0  0  0  0  0  0
    2.5619   -0.7110    0.6890 N   0  0  0  0  0  0  0  0  0  0  0  0
    1.3791   -0.5703    0.0280 C   0  0  0  0  0  2  0  0  0  0  0  0
    2.2385   -2.6501   -0.3421 C   0  0  0  0  0  0  0  0  0  0  0  0
    2.2829   -3.6642   -0.7512 H   0  0  0  0  0  0  0  0  0  0  0  0
    3.1078   -1.9706    0.4707 C   0  0  0  0  0  0  0  0  0  0  0  0
    4.0579   -2.2825    0.9153 H   0  0  0  0  0  0  0  0  0  0  0  0
   -0.0002   -2.0465   -1.3867 C   0  0  0  0  0  0  0  0  0  0  0  0
   -0.0002   -3.1071   -1.6947 H   0  0  0  0  0  0  0  0  0  0  0  0
   -0.0001   -1.4018   -2.2880 H   0  0  0  0  0  0  0  0  0  0  0  0
    3.1946    0.3180    1.5106 C   0  0  0  0  0  0  0  0  0  0  0  0
    3.9199    0.9037    0.9123 H   0  0  0  0  0  0  0  0  0  0  0  0
    3.7218   -0.1615    2.3554 H   0  0  0  0  0  0  0  0  0  0  0  0
    2.4156    0.9913    1.9083 H   0  0  0  0  0  0  0  0  0  0  0  0
   -1.1928   -1.7734   -0.5979 N   0  0  0  0  0  0  0  0  0  0  0  0
   -1.3792   -0.5702    0.0281 C   0  0  0  0  0  2  0  0  0  0  0  0
   -2.5621   -0.7108    0.6891 N   0  0  0  0  0  0  0  0  0  0  0  0
   -3.1081   -1.9703    0.4707 C   0  0  0  0  0  0  0  0  0  0  0  0
   -2.2389   -2.6499   -0.3421 C   0  0  0  0  0  0  0  0  0  0  0  0
   -2.2833   -3.6639   -0.7512 H   0  0  0  0  0  0  0  0  0  0  0  0
   -4.0582   -2.2821    0.9154 H   0  0  0  0  0  0  0  0  0  0  0  0
   -3.1948    0.3182    1.5107 C   0  0  0  0  0  0  0  0  0  0  0  0
   -3.9213    0.9028    0.9128 H   0  0  0  0  0  0  0  0  0  0  0  0
   -3.7204   -0.1611    2.3566 H   0  0  0  0  0  0  0  0  0  0  0  0
   -2.4158    0.9926    1.9069 H   0  0  0  0  0  0  0  0  0  0  0  0
  1  4  1  0  0  0  0
  1  3  1  0  0  0  0
  2 11  1  0  0  0  0
  3  2  1  0  0  0  0
  4  6  2  0  0  0  0
  5  4  1  0  0  0  0
  6  2  1  0  0  0  0
  6  7  1  0  0  0  0
  8  1  1  0  0  0  0
  8 15  1  0  0  0  0
  9  8  1  0  0  0  0
 10  8  1  0  0  0  0
 11 14  1  0  0  0  0
 11 13  1  0  0  0  0
 12 11  1  0  0  0  0
 15 19  1  0  0  0  0
 15 16  1  0  0  0  0
 16 17  1  0  0  0  0
 17 22  1  0  0  0  0
 18 17  1  0  0  0  0
 18 21  1  0  0  0  0
 19 18  2  0  0  0  0
 20 19  1  0  0  0  0
 22 25  1  0  0  0  0
 22 24  1  0  0  0  0
 23 22  1  0  0  0  0
M  END
