9,34
 OpenBabel05122313053D

 54 60  0  0  1  0  0  0  0  0999 V2000
    4.2878   -1.2066    0.9761 S   0  0  0  0  0  0  0  0  0  0  0  0
    0.1466    1.5812   -2.0193 C   0  0  0  0  0  0  0  0  0  0  0  0
   -0.1349    2.0196   -3.0022 H   0  0  0  0  0  0  0  0  0  0  0  0
    1.1822    1.2107   -2.1400 H   0  0  0  0  0  0  0  0  0  0  0  0
    0.0973    2.6617   -0.9235 C   0  0  0  0  0  0  0  0  0  0  0  0
    0.9129    3.4063   -1.0483 H   0  0  0  0  0  0  0  0  0  0  0  0
   -0.8344    3.2505   -1.0302 H   0  0  0  0  0  0  0  0  0  0  0  0
    0.0939    2.0557    0.4597 C   0  0  1  0  0  3  0  0  0  0  0  0
   -0.9579    2.3082    1.4124 C   0  0  1  0  0  3  0  0  0  0  0  0
   -0.7436    1.4912    2.5561 C   0  0  0  0  0  3  0  0  0  0  0  0
   -1.3953    1.4357    3.4355 H   0  0  0  0  0  0  0  0  0  0  0  0
    0.4868    0.7849    2.3842 C   0  0  0  0  0  0  0  0  0  0  0  0
    1.0400    1.1379    1.0786 C   0  0  0  0  0  0  0  0  0  0  0  0
    2.3250    0.5666    0.7226 C   0  0  0  0  0  0  0  0  0  0  0  0
    3.2715    0.8481   -0.3504 C   0  0  0  0  0  0  0  0  0  0  0  0
    3.3255    1.9062   -1.2904 C   0  0  0  0  0  0  0  0  0  0  0  0
    2.5815    2.7085   -1.2522 H   0  0  0  0  0  0  0  0  0  0  0  0
    4.3489    1.9672   -2.2401 C   0  0  0  0  0  0  0  0  0  0  0  0
    4.3696    2.8010   -2.9574 H   0  0  0  0  0  0  0  0  0  0  0  0
    5.3608    0.9850   -2.2793 C   0  0  0  0  0  0  0  0  0  0  0  0
    6.1559    1.0412   -3.0375 H   0  0  0  0  0  0  0  0  0  0  0  0
    5.3792   -0.0406   -1.3291 C   0  0  0  0  0  0  0  0  0  0  0  0
    6.1884   -0.7855   -1.3171 H   0  0  0  0  0  0  0  0  0  0  0  0
    4.3570   -0.0861   -0.3663 C   0  0  0  0  0  0  0  0  0  0  0  0
    2.8240   -0.4512    1.5768 C   0  0  0  0  0  0  0  0  0  0  0  0
    2.2586   -0.7986    2.8343 C   0  0  0  0  0  0  0  0  0  0  0  0
    2.7415   -1.5621    3.4604 H   0  0  0  0  0  0  0  0  0  0  0  0
    1.1190   -0.1503    3.2563 C   0  0  0  0  0  0  0  0  0  0  0  0
    0.6626   -0.3770    4.2297 H   0  0  0  0  0  0  0  0  0  0  0  0
   -2.0900    3.2821    1.2539 C   0  0  0  0  0  0  0  0  0  0  0  0
   -1.7240    4.3207    1.3989 H   0  0  0  0  0  0  0  0  0  0  0  0
   -2.8796    3.0815    2.0008 H   0  0  0  0  0  0  0  0  0  0  0  0
   -2.5659    3.2317    0.2557 H   0  0  0  0  0  0  0  0  0  0  0  0
   -0.7433    0.4097   -1.6907 C   0  0  0  0  0  3  0  0  0  0  0  0
   -2.1901    0.4053   -1.7264 C   0  0  0  0  0  0  0  0  0  0  0  0
   -3.1355    1.4563   -1.9015 C   0  0  0  0  0  0  0  0  0  0  0  0
   -2.7948    2.4844   -2.0942 H   0  0  0  0  0  0  0  0  0  0  0  0
   -4.4920    1.1562   -1.8619 C   0  0  0  0  0  0  0  0  0  0  0  0
   -5.2294    1.9610   -2.0023 H   0  0  0  0  0  0  0  0  0  0  0  0
   -4.9512   -0.1731   -1.6453 C   0  0  0  0  0  0  0  0  0  0  0  0
   -6.0330   -0.3684   -1.6086 H   0  0  0  0  0  0  0  0  0  0  0  0
   -4.0539   -1.2242   -1.4924 C   0  0  0  0  0  0  0  0  0  0  0  0
   -4.4117   -2.2520   -1.3338 H   0  0  0  0  0  0  0  0  0  0  0  0
   -2.6659   -0.9519   -1.5315 C   0  0  0  0  0  0  0  0  0  0  0  0
   -1.5038   -1.8152   -1.4541 C   0  0  0  0  0  0  0  0  0  0  0  0
   -1.3715   -3.2169   -1.3107 C   0  0  0  0  0  0  0  0  0  0  0  0
   -2.2649   -3.8494   -1.2055 H   0  0  0  0  0  0  0  0  0  0  0  0
   -0.0973   -3.7721   -1.2834 C   0  0  0  0  0  0  0  0  0  0  0  0
    0.0223   -4.8588   -1.1624 H   0  0  0  0  0  0  0  0  0  0  0  0
    1.0603   -2.9538   -1.4073 C   0  0  0  0  0  0  0  0  0  0  0  0
    2.0561   -3.4212   -1.3796 H   0  0  0  0  0  0  0  0  0  0  0  0
    0.9630   -1.5758   -1.5568 C   0  0  0  0  0  0  0  0  0  0  0  0
    1.8667   -0.9595   -1.6617 H   0  0  0  0  0  0  0  0  0  0  0  0
   -0.3288   -0.9767   -1.5893 C   0  0  0  0  0  0  0  0  0  0  0  0
  1 25  1  0  0  0  0
  2 34  1  0  0  0  0
  2  5  1  0  0  0  0
  3  2  1  0  0  0  0
  4  2  1  0  0  0  0
  6  5  1  0  0  0  0
  7  5  1  0  0  0  0
  8  5  1  6  0  0  0
  8 13  1  0  0  0  0
  8  9  1  0  0  0  0
  9 30  1  1  0  0  0
  9 10  1  0  0  0  0
 10 11  1  0  0  0  0
 12 10  1  0  0  0  0
 12 28  1  0  0  0  0
 13 12  2  0  0  0  0
 14 13  1  0  0  0  0
 14 25  2  0  0  0  0
 15 14  1  0  0  0  0
 16 17  1  0  0  0  0
 16 15  2  0  0  0  0
 18 16  1  0  0  0  0
 19 18  1  0  0  0  0
 20 18  2  0  0  0  0
 20 22  1  0  0  0  0
 21 20  1  0  0  0  0
 22 23  1  0  0  0  0
 22 24  2  0  0  0  0
 24 15  1  0  0  0  0
 24  1  1  0  0  0  0
 25 26  1  0  0  0  0
 26 28  2  0  0  0  0
 26 27  1  0  0  0  0
 28 29  1  0  0  0  0
 30 31  1  0  0  0  0
 30 32  1  0  0  0  0
 33 30  1  0  0  0  0
 34 54  1  0  0  0  0
 35 34  1  0  0  0  0
 35 44  1  0  0  0  0
 36 38  1  0  0  0  0
 36 35  2  0  0  0  0
 37 36  1  0  0  0  0
 38 40  2  0  0  0  0
 39 38  1  0  0  0  0
 40 41  1  0  0  0  0
 40 42  1  0  0  0  0
 42 43  1  0  0  0  0
 44 42  2  0  0  0  0
 44 45  1  0  0  0  0
 45 46  1  0  0  0  0
 46 48  2  0  0  0  0
 46 47  1  0  0  0  0
 48 49  1  0  0  0  0
 50 51  1  0  0  0  0
 50 48  1  0  0  0  0
 52 50  2  0  0  0  0
 53 52  1  0  0  0  0
 54 52  1  0  0  0  0
 54 45  2  0  0  0  0
M  END
