4,10
 OpenBabel05122313053D

 27 28  0  0  0  0  0  0  0  0999 V2000
    0.1247    3.1760   -0.0000 S   0  0  0  0  0  0  0  0  0  0  0  0
   -2.7818   -4.0943   -0.0000 O   0  0  0  0  0  0  0  0  0  0  0  0
   -1.6820    1.3876    0.0000 N   0  0  0  0  0  0  0  0  0  0  0  0
   -0.3124    1.5064    0.0000 C   0  0  0  0  0  2  0  0  0  0  0  0
   -2.3955    2.6006   -0.0000 C   0  0  0  0  0  0  0  0  0  0  0  0
   -3.8888    2.6576    0.0000 C   0  0  0  0  0  0  0  0  0  0  0  0
   -1.5542    3.6922   -0.0000 C   0  0  0  0  0  0  0  0  0  0  0  0
   -1.8881    5.1501   -0.0001 C   0  0  0  0  0  0  0  0  0  0  0  0
   -2.1248    0.0203    0.0000 C   0  0  0  0  0  0  0  0  0  0  0  0
   -1.0276   -0.8947   -0.0000 C   0  0  0  0  0  3  0  0  0  0  0  0
   -1.3008   -2.2650   -0.0000 C   0  0  0  0  0  0  0  0  0  0  0  0
   -2.6322   -2.7387   -0.0000 C   0  0  0  0  0  0  0  0  0  0  0  0
   -4.0904   -4.6247   -0.0000 C   0  0  0  0  0  0  0  0  0  0  0  0
   -3.7041   -1.8243    0.0000 C   0  0  0  0  0  0  0  0  0  0  0  0
   -3.4466   -0.4406    0.0001 C   0  0  0  0  0  0  0  0  0  0  0  0
   -4.3197    2.1669   -0.8960 H   0  0  0  0  0  0  0  0  0  0  0  0
   -4.2249    3.7097    0.0001 H   0  0  0  0  0  0  0  0  0  0  0  0
   -4.3197    2.1668    0.8960 H   0  0  0  0  0  0  0  0  0  0  0  0
   -2.9828    5.3104   -0.0001 H   0  0  0  0  0  0  0  0  0  0  0  0
   -1.4747    5.6630   -0.8936 H   0  0  0  0  0  0  0  0  0  0  0  0
   -1.4747    5.6630    0.8934 H   0  0  0  0  0  0  0  0  0  0  0  0
   -0.4766   -2.9932   -0.0001 H   0  0  0  0  0  0  0  0  0  0  0  0
   -4.6656   -4.3184   -0.9036 H   0  0  0  0  0  0  0  0  0  0  0  0
   -4.6655   -4.3184    0.9036 H   0  0  0  0  0  0  0  0  0  0  0  0
   -3.9848   -5.7258   -0.0000 H   0  0  0  0  0  0  0  0  0  0  0  0
   -4.7469   -2.1660    0.0000 H   0  0  0  0  0  0  0  0  0  0  0  0
   -4.3038    0.2393    0.0001 H   0  0  0  0  0  0  0  0  0  0  0  0
  1  4  1  0  0  0  0
  2 12  1  0  0  0  0
  2 13  1  0  0  0  0
  4  3  1  0  0  0  0
  5  6  1  0  0  0  0
  5  3  1  0  0  0  0
  6 17  1  0  0  0  0
  6 18  1  0  0  0  0
  7  5  2  0  0  0  0
  7  1  1  0  0  0  0
  8  7  1  0  0  0  0
  8 21  1  0  0  0  0
  9  3  1  0  0  0  0
  9 15  1  0  0  0  0
 10  9  2  0  0  0  0
 11 12  2  0  0  0  0
 11 10  1  0  0  0  0
 12 14  1  0  0  0  0
 13 24  1  0  0  0  0
 14 26  1  0  0  0  0
 14 15  2  0  0  0  0
 15 27  1  0  0  0  0
 16  6  1  0  0  0  0
 19  8  1  0  0  0  0
 20  8  1  0  0  0  0
 22 11  1  0  0  0  0
 23 13  1  0  0  0  0
 25 13  1  0  0  0  0
M  END
