3,9
 OpenBabel05122313053D

 23 24  0  0  0  0  0  0  0  0999 V2000
    1.5288   -2.4233   -0.0001 S   0  0  0  0  0  0  0  0  0  0  0  0
    2.2119    0.0250    0.0000 N   0  0  0  0  0  0  0  0  0  0  0  0
    1.0810   -0.7574   -0.0000 C   0  0  0  0  0  2  0  0  0  0  0  0
    3.2436   -2.0392   -0.0000 C   0  0  0  0  0  0  0  0  0  0  0  0
    4.2546   -3.1412   -0.0001 C   0  0  0  0  0  0  0  0  0  0  0  0
    3.4338   -0.6746    0.0000 C   0  0  0  0  0  0  0  0  0  0  0  0
    4.7612    0.0124    0.0001 C   0  0  0  0  0  0  0  0  0  0  0  0
    1.9151    1.4335    0.0000 C   0  0  0  0  0  0  0  0  0  0  0  0
    0.5113    1.6783    0.0000 C   0  0  0  0  0  3  0  0  0  0  0  0
    0.0736    3.0140    0.0000 C   0  0  0  0  0  0  0  0  0  0  0  0
    0.9973    4.0732    0.0000 C   0  0  0  0  0  0  0  0  0  0  0  0
    2.3747    3.8088    0.0000 C   0  0  0  0  0  0  0  0  0  0  0  0
    2.8461    2.4843    0.0000 C   0  0  0  0  0  0  0  0  0  0  0  0
    4.1485   -3.7913   -0.8936 H   0  0  0  0  0  0  0  0  0  0  0  0
    4.1484   -3.7913    0.8934 H   0  0  0  0  0  0  0  0  0  0  0  0
    5.2854   -2.7396   -0.0000 H   0  0  0  0  0  0  0  0  0  0  0  0
    5.5716   -0.7379    0.0002 H   0  0  0  0  0  0  0  0  0  0  0  0
    4.8949    0.6514    0.8962 H   0  0  0  0  0  0  0  0  0  0  0  0
    4.8950    0.6513   -0.8959 H   0  0  0  0  0  0  0  0  0  0  0  0
   -1.0091    3.2123    0.0000 H   0  0  0  0  0  0  0  0  0  0  0  0
    0.6385    5.1143    0.0000 H   0  0  0  0  0  0  0  0  0  0  0  0
    3.1006    4.6356    0.0000 H   0  0  0  0  0  0  0  0  0  0  0  0
    3.9258    2.3092   -0.0000 H   0  0  0  0  0  0  0  0  0  0  0  0
  1  3  1  0  0  0  0
  1  4  1  0  0  0  0
  2  8  1  0  0  0  0
  2  6  1  0  0  0  0
  3  2  1  0  0  0  0
  4  6  2  0  0  0  0
  5  4  1  0  0  0  0
  5 16  1  0  0  0  0
  5 15  1  0  0  0  0
  6  7  1  0  0  0  0
  7 17  1  0  0  0  0
  7 18  1  0  0  0  0
  8  9  1  0  0  0  0
  9 10  2  0  0  0  0
 10 20  1  0  0  0  0
 11 10  1  0  0  0  0
 11 21  1  0  0  0  0
 12 11  2  0  0  0  0
 13 12  1  0  0  0  0
 13  8  2  0  0  0  0
 14  5  1  0  0  0  0
 19  7  1  0  0  0  0
 22 12  1  0  0  0  0
 23 13  1  0  0  0  0
M  END
