4,11
 OpenBabel05122313053D

 14 14  0  0  1  0  0  0  0  0999 V2000
    2.3541   -2.0552    0.0004 F   0  0  0  0  0  0  0  0  0  0  0  0
   -1.7307   -1.0745    0.0000 C   0  0  0  0  0  0  0  0  0  0  0  0
   -3.0894   -0.8439   -0.0001 N   0  0  0  0  0  0  0  0  0  0  0  0
    0.3843   -1.4893   -1.2264 C   0  0  0  0  0  3  0  0  0  0  0  0
   -1.0066   -1.1809   -1.2308 C   0  0  0  0  0  3  0  0  0  0  0  0
    1.0577   -1.7067    0.0003 C   0  0  2  0  0  3  0  0  0  0  0  0
   -1.5232   -1.0154   -2.1857 H   0  0  0  0  0  0  0  0  0  0  0  0
    0.9450   -1.5730   -2.1675 H   0  0  0  0  0  0  0  0  0  0  0  0
   -3.4666   -0.4154   -0.8474 H   0  0  0  0  0  0  0  0  0  0  0  0
   -3.4667   -0.4153    0.8470 H   0  0  0  0  0  0  0  0  0  0  0  0
    0.3842   -1.4890    1.2268 C   0  0  0  0  0  3  0  0  0  0  0  0
   -1.0068   -1.1806    1.2309 C   0  0  0  0  0  0  0  0  0  0  0  0
   -1.5234   -1.0149    2.1857 H   0  0  0  0  0  0  0  0  0  0  0  0
    0.9448   -1.5725    2.1680 H   0  0  0  0  0  0  0  0  0  0  0  0
  2 12  2  0  0  0  0
  3  2  1  0  0  0  0
  3 10  1  0  0  0  0
  4  6  1  0  0  0  0
  5  4  1  0  0  0  0
  5  2  1  0  0  0  0
  6  1  1  6  0  0  0
  6 11  1  0  0  0  0
  7  5  1  0  0  0  0
  8  4  1  0  0  0  0
  9  3  1  0  0  0  0
 11 12  1  0  0  0  0
 11 14  1  0  0  0  0
 12 13  1  0  0  0  0
M  END
