1,15
 OpenBabel05122313053D

 30 33  0  0  1  0  0  0  0  0999 V2000
    1.2952   -0.5318   -1.0757 C   0  0  0  0  0  3  0  0  0  0  0  0
    1.9127   -1.9394   -1.4235 C   0  0  2  0  0  0  0  0  0  0  0  0
    2.9219   -2.1658   -0.2776 C   0  0  0  0  0  0  0  0  0  0  0  0
    3.6678   -0.8359   -0.5354 C   0  0  1  0  0  0  0  0  0  0  0  0
    3.9282   -0.9553   -2.0278 C   0  0  0  0  0  0  0  0  0  0  0  0
    2.8768   -1.6204   -2.5603 C   0  0  0  0  0  0  0  0  0  0  0  0
    2.4836    0.1855   -0.3577 C   0  0  2  0  0  0  0  0  0  0  0  0
    2.7300    1.1347   -0.8782 H   0  0  0  0  0  0  0  0  0  0  0  0
    2.2017    0.4870    1.1288 C   0  0  1  0  0  0  0  0  0  0  0  0
    2.6517    1.9390    1.5297 C   0  0  2  0  0  0  0  0  0  0  0  0
    2.4633    2.0650    3.0322 C   0  0  0  0  0  0  0  0  0  0  0  0
    1.1305    2.0943    3.2632 C   0  0  0  0  0  0  0  0  0  0  0  0
    0.4320    1.9811    1.9123 C   0  0  1  0  0  0  0  0  0  0  0  0
    1.4357    2.7496    1.0261 C   0  0  0  0  0  0  0  0  0  0  0  0
    0.6785    0.4780    1.5024 C   0  0  0  0  0  3  0  0  0  0  0  0
    1.0796   -0.0620   -2.0545 H   0  0  0  0  0  0  0  0  0  0  0  0
    1.1789   -2.7341   -1.6419 H   0  0  0  0  0  0  0  0  0  0  0  0
    3.5656   -3.0533   -0.4378 H   0  0  0  0  0  0  0  0  0  0  0  0
    2.4627   -2.2233    0.7284 H   0  0  0  0  0  0  0  0  0  0  0  0
    4.5444   -0.6139    0.1039 H   0  0  0  0  0  0  0  0  0  0  0  0
    4.7536   -0.4676   -2.5666 H   0  0  0  0  0  0  0  0  0  0  0  0
    2.6536   -1.7802   -3.6254 H   0  0  0  0  0  0  0  0  0  0  0  0
    2.7431   -0.2529    1.7538 H   0  0  0  0  0  0  0  0  0  0  0  0
    3.6460    2.2183    1.1312 H   0  0  0  0  0  0  0  0  0  0  0  0
    3.2687    2.0075    3.7787 H   0  0  0  0  0  0  0  0  0  0  0  0
    0.6203    2.0521    4.2371 H   0  0  0  0  0  0  0  0  0  0  0  0
   -0.6185    2.3235    1.9022 H   0  0  0  0  0  0  0  0  0  0  0  0
    1.2545    2.6372   -0.0593 H   0  0  0  0  0  0  0  0  0  0  0  0
    1.5014    3.8254    1.2834 H   0  0  0  0  0  0  0  0  0  0  0  0
    0.5329   -0.1190    2.4188 H   0  0  0  0  0  0  0  0  0  0  0  0
  1  7  1  0  0  0  0
  2 17  1  6  0  0  0
  2  1  1  0  0  0  0
  2  3  1  0  0  0  0
  3 19  1  0  0  0  0
  4  7  1  0  0  0  0
  4  3  1  0  0  0  0
  4 20  1  1  0  0  0
  5  4  1  0  0  0  0
  6  5  2  0  0  0  0
  6  2  1  0  0  0  0
  7  8  1  6  0  0  0
  7  9  1  0  0  0  0
  9 15  1  0  0  0  0
  9 10  1  0  0  0  0
  9 23  1  1  0  0  0
 10 24  1  6  0  0  0
 10 11  1  0  0  0  0
 11 12  2  0  0  0  0
 11 25  1  0  0  0  0
 12 26  1  0  0  0  0
 13 27  1  6  0  0  0
 13 12  1  0  0  0  0
 14 29  1  0  0  0  0
 14 10  1  0  0  0  0
 14 13  1  0  0  0  0
 15 13  1  0  0  0  0
 15 30  1  0  0  0  0
 16  1  1  0  0  0  0
 18  3  1  0  0  0  0
 21  5  1  0  0  0  0
 22  6  1  0  0  0  0
 28 14  1  0  0  0  0
M  END
