3,6
 OpenBabel05122313053D

 47 52  0  0  1  0  0  0  0  0999 V2000
    0.2265    1.8673    1.8905 N   0  0  0  0  0  0  0  0  0  0  0  0
   -0.6665    2.6603    0.0789 N   0  0  0  0  0  0  0  0  0  0  0  0
   -0.9090    1.1097   -1.7308 C   0  0  0  0  0  3  0  0  0  0  0  0
    0.0248    1.1706   -2.3185 H   0  0  0  0  0  0  0  0  0  0  0  0
   -1.6980    0.7319   -2.4128 H   0  0  0  0  0  0  0  0  0  0  0  0
   -0.3735    1.4901    0.7188 C   0  0  0  0  0  2  0  0  0  0  0  0
   -1.2966    2.5413   -1.2561 C   0  0  0  0  0  0  0  0  0  0  0  0
    0.9084    0.8844    2.7098 C   0  0  0  0  0  0  0  0  0  0  0  0
    0.3207   -0.0474    2.6237 H   0  0  0  0  0  0  0  0  0  0  0  0
    0.8912    1.2154    3.7675 H   0  0  0  0  0  0  0  0  0  0  0  0
    2.3582    0.6561    2.2843 C   0  0  0  0  0  0  0  0  0  0  0  0
    2.7999   -0.0792    2.9862 H   0  0  0  0  0  0  0  0  0  0  0  0
    2.9284    1.5943    2.4323 H   0  0  0  0  0  0  0  0  0  0  0  0
    1.3491   -0.2250   -0.4200 B   0  0  0  0  0  1  0  0  0  0  0  0
    0.3189    3.2560    1.9685 C   0  0  0  0  0  0  0  0  0  0  0  0
    0.7720    3.7678    2.8227 H   0  0  0  0  0  0  0  0  0  0  0  0
    2.3120    0.0888   -1.9054 B   0  0  2  0  0  0  0  0  0  0  0  0
    1.7100    0.3953   -2.9056 H   0  0  0  0  0  0  0  0  0  0  0  0
   -0.7342    3.6187   -2.1907 C   0  0  0  0  0  0  0  0  0  0  0  0
   -1.0220    4.6442   -1.8762 H   0  0  0  0  0  0  0  0  0  0  0  0
   -1.1327    3.4598   -3.2116 H   0  0  0  0  0  0  0  0  0  0  0  0
    0.3705    3.5552   -2.2399 H   0  0  0  0  0  0  0  0  0  0  0  0
    2.5130   -1.3331    0.4208 C   0  0  1  0  0  0  0  0  0  0  0  0
    2.0452   -1.9960    1.1576 H   0  0  0  0  0  0  0  0  0  0  0  0
    2.6741    0.2013    0.8505 C   0  0  2  0  0  0  0  0  0  0  0  0
    3.9231    0.7612   -1.5632 B   0  0  1  0  0  0  0  0  0  0  0  0
    4.4329    1.5887   -2.2840 H   0  0  0  0  0  0  0  0  0  0  0  0
    4.1211    0.8499    0.1893 B   0  0  2  0  0  0  0  0  0  0  0  0
    4.6722    1.7104    0.8334 H   0  0  0  0  0  0  0  0  0  0  0  0
   -0.2590    3.7545    0.8252 C   0  0  0  0  0  0  0  0  0  0  0  0
   -0.4100    4.7875    0.5003 H   0  0  0  0  0  0  0  0  0  0  0  0
    4.8874   -0.4819   -0.7095 B   0  0  0  0  0  0  0  0  0  0  0  0
    6.0899   -0.5798   -0.7870 H   0  0  0  0  0  0  0  0  0  0  0  0
    2.5180    1.1837   -0.5208 B   0  0  2  0  0  0  0  0  0  0  0  0
    2.0751    2.2992   -0.3893 H   0  0  0  0  0  0  0  0  0  0  0  0
    2.2597   -1.5502   -1.2345 B   0  0  2  0  0  0  0  0  0  0  0  0
    1.6079   -2.4835   -1.6273 H   0  0  0  0  0  0  0  0  0  0  0  0
    4.0983   -0.7948    0.8336 B   0  0  2  0  0  0  0  0  0  0  0  0
    4.5428   -1.1168    1.9066 H   0  0  0  0  0  0  0  0  0  0  0  0
    3.8377   -1.9100   -0.5045 B   0  0  1  0  0  0  0  0  0  0  0  0
    4.1769   -3.0592   -0.3569 H   0  0  0  0  0  0  0  0  0  0  0  0
   -2.8146    2.7026   -1.0802 C   0  0  0  0  0  0  0  0  0  0  0  0
   -3.1995    1.9230   -0.3950 H   0  0  0  0  0  0  0  0  0  0  0  0
   -3.3271    2.5968   -2.0566 H   0  0  0  0  0  0  0  0  0  0  0  0
   -3.0687    3.6972   -0.6596 H   0  0  0  0  0  0  0  0  0  0  0  0
    3.7548   -0.9575   -2.0032 B   0  0  0  0  0  0  0  0  0  0  0  0
    4.1258   -1.4220   -3.0567 H   0  0  0  0  0  0  0  0  0  0  0  0
  1 15  1  0  0  0  0
  1  8  1  0  0  0  0
  2  6  1  0  0  0  0
  2 30  1  0  0  0  0
  3  7  1  0  0  0  0
  4  3  1  0  0  0  0
  5  3  1  0  0  0  0
  6  1  1  0  0  0  0
  7 42  1  0  0  0  0
  7  2  1  0  0  0  0
  8 10  1  0  0  0  0
  9  8  1  0  0  0  0
 11 13  1  0  0  0  0
 11  8  1  0  0  0  0
 11 12  1  0  0  0  0
 15 16  1  0  0  0  0
 17 18  1  6  0  0  0
 17 26  1  0  0  0  0
 17 36  1  0  0  0  0
 17 34  1  0  0  0  0
 19 20  1  0  0  0  0
 19  7  1  0  0  0  0
 21 19  1  0  0  0  0
 22 19  1  0  0  0  0
 23 25  1  0  0  0  0
 23 24  1  1  0  0  0
 25 11  1  1  0  0  0
 26 27  1  6  0  0  0
 26 28  1  0  0  0  0
 28 29  1  1  0  0  0
 28 38  1  0  0  0  0
 28 25  1  0  0  0  0
 30 15  2  0  0  0  0
 31 30  1  0  0  0  0
 32 38  1  0  0  0  0
 33 32  1  0  0  0  0
 34 14  1  0  0  0  0
 34 35  1  1  0  0  0
 34 25  1  0  0  0  0
 36 37  1  6  0  0  0
 36 40  1  0  0  0  0
 36 23  1  0  0  0  0
 38 39  1  1  0  0  0
 40 41  1  1  0  0  0
 40 23  1  0  0  0  0
 40 38  1  0  0  0  0
 42 45  1  0  0  0  0
 42 43  1  0  0  0  0
 44 42  1  0  0  0  0
 46 26  1  0  0  0  0
 46 32  1  0  0  0  0
 47 46  1  0  0  0  0
M  END
