1,32
 OpenBabel05122313053D

 56 58  0  0  0  0  0  0  0  0999 V2000
   -0.0000   -0.9808    1.1942 C   0  0  0  0  0  3  0  0  0  0  0  0
   -0.0000   -2.0203    1.5491 H   0  0  0  0  0  0  0  0  0  0  0  0
    2.7864   -2.2936    0.4746 C   0  0  0  0  0  0  0  0  0  0  0  0
    1.9148   -2.9762    0.4461 H   0  0  0  0  0  0  0  0  0  0  0  0
    3.6655   -2.8778    0.8169 H   0  0  0  0  0  0  0  0  0  0  0  0
    2.9679   -1.9526   -0.5628 H   0  0  0  0  0  0  0  0  0  0  0  0
    3.7759   -0.1557    1.3833 C   0  0  0  0  0  0  0  0  0  0  0  0
    3.8428    0.3976    2.3436 H   0  0  0  0  0  0  0  0  0  0  0  0
    4.6924   -0.7790    1.3316 H   0  0  0  0  0  0  0  0  0  0  0  0
    2.5479   -1.0983    1.4222 C   0  0  0  0  0  0  0  0  0  0  0  0
   -2.5480   -1.0983    1.4222 C   0  0  0  0  0  0  0  0  0  0  0  0
    2.5348    2.7099   -0.9202 C   0  0  0  0  0  0  0  0  0  0  0  0
    2.4101    2.1209   -1.8473 H   0  0  0  0  0  0  0  0  0  0  0  0
    3.4992    3.2528   -0.9861 H   0  0  0  0  0  0  0  0  0  0  0  0
    1.7354    3.4761   -0.8847 H   0  0  0  0  0  0  0  0  0  0  0  0
   -2.5469    1.8102    0.3288 C   0  0  0  0  0  0  0  0  0  0  0  0
    1.2576    0.9979    0.4954 C   0  0  0  0  0  0  0  0  0  0  0  0
    2.5468    1.8103    0.3289 C   0  0  0  0  0  0  0  0  0  0  0  0
    3.7428    0.8401    0.2309 C   0  0  0  0  0  0  0  0  0  0  0  0
    3.6872    0.3055   -0.7410 H   0  0  0  0  0  0  0  0  0  0  0  0
    4.6814    1.4324    0.2088 H   0  0  0  0  0  0  0  0  0  0  0  0
   -1.2577    0.9979    0.4954 C   0  0  0  0  0  0  0  0  0  0  0  0
    2.3975   -1.6274    2.8665 C   0  0  0  0  0  0  0  0  0  0  0  0
    1.6180   -2.4107    2.9489 H   0  0  0  0  0  0  0  0  0  0  0  0
    2.1386   -0.8098    3.5696 H   0  0  0  0  0  0  0  0  0  0  0  0
    3.3538   -2.0780    3.2021 H   0  0  0  0  0  0  0  0  0  0  0  0
    1.2688   -0.3379    1.0258 C   0  0  0  0  0  0  0  0  0  0  0  0
   -2.7863   -2.2938    0.4747 C   0  0  0  0  0  0  0  0  0  0  0  0
   -3.6654   -2.8779    0.8169 H   0  0  0  0  0  0  0  0  0  0  0  0
   -1.9147   -2.9763    0.4464 H   0  0  0  0  0  0  0  0  0  0  0  0
   -2.9677   -1.9529   -0.5628 H   0  0  0  0  0  0  0  0  0  0  0  0
   -0.0000    1.6315    0.2554 C   0  0  0  0  0  3  0  0  0  0  0  0
   -0.0000    2.6544   -0.1372 H   0  0  0  0  0  0  0  0  0  0  0  0
    2.6684    2.7152    1.5802 C   0  0  0  0  0  0  0  0  0  0  0  0
    1.8335    3.4434    1.6172 H   0  0  0  0  0  0  0  0  0  0  0  0
    3.6196    3.2854    1.5495 H   0  0  0  0  0  0  0  0  0  0  0  0
    2.6421    2.1361    2.5237 H   0  0  0  0  0  0  0  0  0  0  0  0
   -2.3977   -1.6273    2.8666 C   0  0  0  0  0  0  0  0  0  0  0  0
   -2.1389   -0.8095    3.5695 H   0  0  0  0  0  0  0  0  0  0  0  0
   -1.6180   -2.4105    2.9491 H   0  0  0  0  0  0  0  0  0  0  0  0
   -3.3539   -2.0779    3.2021 H   0  0  0  0  0  0  0  0  0  0  0  0
   -1.2689   -0.3379    1.0258 C   0  0  0  0  0  0  0  0  0  0  0  0
   -2.6687    2.7151    1.5802 C   0  0  0  0  0  0  0  0  0  0  0  0
   -3.6199    3.2852    1.5494 H   0  0  0  0  0  0  0  0  0  0  0  0
   -1.8338    3.4433    1.6172 H   0  0  0  0  0  0  0  0  0  0  0  0
   -2.6424    2.1359    2.5236 H   0  0  0  0  0  0  0  0  0  0  0  0
   -3.7761   -0.1558    1.3830 C   0  0  0  0  0  0  0  0  0  0  0  0
   -4.6925   -0.7792    1.3311 H   0  0  0  0  0  0  0  0  0  0  0  0
   -3.8432    0.3975    2.3433 H   0  0  0  0  0  0  0  0  0  0  0  0
   -2.5348    2.7099   -0.9202 C   0  0  0  0  0  0  0  0  0  0  0  0
   -2.4101    2.1210   -1.8474 H   0  0  0  0  0  0  0  0  0  0  0  0
   -1.7355    3.4762   -0.8846 H   0  0  0  0  0  0  0  0  0  0  0  0
   -3.4993    3.2529   -0.9861 H   0  0  0  0  0  0  0  0  0  0  0  0
   -3.7429    0.8400    0.2306 C   0  0  0  0  0  0  0  0  0  0  0  0
   -4.6815    1.4322    0.2083 H   0  0  0  0  0  0  0  0  0  0  0  0
   -3.6870    0.3054   -0.7413 H   0  0  0  0  0  0  0  0  0  0  0  0
  1  2  1  0  0  0  0
  3  5  1  0  0  0  0
  3 10  1  0  0  0  0
  4  3  1  0  0  0  0
  6  3  1  0  0  0  0
  7 10  1  0  0  0  0
  7  8  1  0  0  0  0
  9  7  1  0  0  0  0
 10 23  1  0  0  0  0
 11 38  1  0  0  0  0
 12 15  1  0  0  0  0
 12 18  1  0  0  0  0
 13 12  1  0  0  0  0
 14 12  1  0  0  0  0
 16 22  1  0  0  0  0
 16 43  1  0  0  0  0
 17 27  2  0  0  0  0
 18 17  1  0  0  0  0
 18 34  1  0  0  0  0
 19 18  1  0  0  0  0
 19  7  1  0  0  0  0
 20 19  1  0  0  0  0
 21 19  1  0  0  0  0
 22 42  2  0  0  0  0
 23 24  1  0  0  0  0
 23 26  1  0  0  0  0
 23 25  1  0  0  0  0
 27  1  1  0  0  0  0
 27 10  1  0  0  0  0
 28 29  1  0  0  0  0
 28 11  1  0  0  0  0
 30 28  1  0  0  0  0
 31 28  1  0  0  0  0
 32 22  1  0  0  0  0
 32 17  1  0  0  0  0
 33 32  1  0  0  0  0
 34 35  1  0  0  0  0
 34 37  1  0  0  0  0
 36 34  1  0  0  0  0
 38 40  1  0  0  0  0
 38 41  1  0  0  0  0
 38 39  1  0  0  0  0
 42  1  1  0  0  0  0
 42 11  1  0  0  0  0
 43 45  1  0  0  0  0
 43 46  1  0  0  0  0
 44 43  1  0  0  0  0
 47 11  1  0  0  0  0
 47 49  1  0  0  0  0
 48 47  1  0  0  0  0
 50 52  1  0  0  0  0
 50 16  1  0  0  0  0
 51 50  1  0  0  0  0
 53 50  1  0  0  0  0
 54 16  1  0  0  0  0
 54 47  1  0  0  0  0
 55 54  1  0  0  0  0
 56 54  1  0  0  0  0
M  END
