4,10
 OpenBabel05122313053D

 18 18  0  0  0  0  0  0  0  0999 V2000
    1.7795   -2.5467   -0.6283 C   0  0  0  0  0  0  0  0  0  0  0  0
    2.8144   -2.8745   -0.3948 H   0  0  0  0  0  0  0  0  0  0  0  0
    1.6941   -2.4434   -1.7267 H   0  0  0  0  0  0  0  0  0  0  0  0
    0.6433   -0.0004    2.0254 C   0  0  0  0  0  3  0  0  0  0  0  0
    0.1622   -0.0001    3.0140 H   0  0  0  0  0  0  0  0  0  0  0  0
    0.9347   -1.2378    1.3890 C   0  0  0  0  0  0  0  0  0  0  0  0
    0.6741   -2.1854    1.8793 H   0  0  0  0  0  0  0  0  0  0  0  0
    1.0873   -3.3467   -0.3040 H   0  0  0  0  0  0  0  0  0  0  0  0
    1.4803   -1.2472    0.0692 C   0  0  0  0  0  0  0  0  0  0  0  0
    1.7674   -0.0009   -0.5669 C   0  0  0  0  0  3  0  0  0  0  0  0
    2.1551   -0.0011   -1.5955 H   0  0  0  0  0  0  0  0  0  0  0  0
    0.9359    1.2368    1.3890 C   0  0  0  0  0  0  0  0  0  0  0  0
    0.6763    2.1847    1.8793 H   0  0  0  0  0  0  0  0  0  0  0  0
    1.4816    1.2457    0.0693 C   0  0  0  0  0  0  0  0  0  0  0  0
    1.7821    2.5449   -0.6283 C   0  0  0  0  0  0  0  0  0  0  0  0
    2.8176    2.8712   -0.3954 H   0  0  0  0  0  0  0  0  0  0  0  0
    1.6959    2.4418   -1.7266 H   0  0  0  0  0  0  0  0  0  0  0  0
    1.0912    3.3457   -0.3034 H   0  0  0  0  0  0  0  0  0  0  0  0
  1  2  1  0  0  0  0
  1  8  1  0  0  0  0
  1  9  1  0  0  0  0
  3  1  1  0  0  0  0
  4  5  1  0  0  0  0
  6  7  1  0  0  0  0
  6  4  1  0  0  0  0
  9  6  2  0  0  0  0
 10  9  1  0  0  0  0
 10 14  1  0  0  0  0
 11 10  1  0  0  0  0
 12 13  1  0  0  0  0
 12  4  1  0  0  0  0
 14 12  2  0  0  0  0
 15 16  1  0  0  0  0
 15 18  1  0  0  0  0
 15 14  1  0  0  0  0
 17 15  1  0  0  0  0
M  END
