3,11
 OpenBabel05122313053D

 25 25  0  0  1  0  0  0  0  0999 V2000
   -2.6349    3.2574   -0.4108 O   0  0  0  0  0  0  0  0  0  0  0  0
   -3.2121    2.0326   -0.3404 C   0  0  2  0  0  3  0  0  0  0  0  0
   -3.2388    1.1415   -1.4434 C   0  0  0  0  0  3  0  0  0  0  0  0
   -2.7970    1.5306   -2.3757 H   0  0  0  0  0  0  0  0  0  0  0  0
   -4.2509    0.0090   -1.6355 C   0  0  0  0  0  0  0  0  0  0  0  0
   -4.3657   -0.1641   -2.7229 H   0  0  0  0  0  0  0  0  0  0  0  0
   -5.2491    0.3321   -1.2802 H   0  0  0  0  0  0  0  0  0  0  0  0
   -3.7834   -1.2831   -0.9428 C   0  0  0  0  0  0  0  0  0  0  0  0
   -4.6435   -1.9188   -0.6287 H   0  0  0  0  0  0  0  0  0  0  0  0
   -3.2055   -1.8936   -1.6650 H   0  0  0  0  0  0  0  0  0  0  0  0
   -2.8861   -0.9771    0.2593 C   0  0  0  0  0  3  0  0  0  0  0  0
   -2.2304   -1.8419    0.4900 H   0  0  0  0  0  0  0  0  0  0  0  0
   -3.5998   -0.5263    1.5286 C   0  0  0  0  0  0  0  0  0  0  0  0
   -2.8527   -0.2723    2.3109 H   0  0  0  0  0  0  0  0  0  0  0  0
   -4.1425   -1.4175    1.9245 H   0  0  0  0  0  0  0  0  0  0  0  0
   -4.6070    0.6185    1.3885 C   0  0  0  0  0  0  0  0  0  0  0  0
   -5.4346    0.3173    0.7176 H   0  0  0  0  0  0  0  0  0  0  0  0
   -5.0860    0.7905    2.3738 H   0  0  0  0  0  0  0  0  0  0  0  0
   -4.0082    1.9549    0.9443 C   0  0  0  0  0  0  0  0  0  0  0  0
   -4.8200    2.7091    0.8391 H   0  0  0  0  0  0  0  0  0  0  0  0
   -3.3456    2.3623    1.7386 H   0  0  0  0  0  0  0  0  0  0  0  0
   -2.1782    3.7749   -1.6597 C   0  0  0  0  0  0  0  0  0  0  0  0
   -1.3243    3.1906   -2.0564 H   0  0  0  0  0  0  0  0  0  0  0  0
   -1.8434    4.8068   -1.4504 H   0  0  0  0  0  0  0  0  0  0  0  0
   -3.0036    3.7979   -2.4024 H   0  0  0  0  0  0  0  0  0  0  0  0
  2  1  1  6  0  0  0
  2 19  1  0  0  0  0
  3  2  1  0  0  0  0
  4  3  1  0  0  0  0
  5  3  1  0  0  0  0
  5  7  1  0  0  0  0
  5  8  1  0  0  0  0
  6  5  1  0  0  0  0
  8  9  1  0  0  0  0
  8 11  1  0  0  0  0
 10  8  1  0  0  0  0
 11 12  1  0  0  0  0
 11 13  1  0  0  0  0
 13 15  1  0  0  0  0
 13 14  1  0  0  0  0
 16 13  1  0  0  0  0
 16 18  1  0  0  0  0
 17 16  1  0  0  0  0
 19 16  1  0  0  0  0
 19 21  1  0  0  0  0
 20 19  1  0  0  0  0
 22 24  1  0  0  0  0
 22  1  1  0  0  0  0
 23 22  1  0  0  0  0
 25 22  1  0  0  0  0
M  END
