2,6
 OpenBabel05122313053D

 26 29  0  0  1  0  0  0  0  0999 V2000
    0.1376   -1.2568   -1.1592 C   0  0  0  0  0  0  0  0  0  0  0  0
    1.4713   -1.2254   -1.6851 C   0  0  0  0  0  3  0  0  0  0  0  0
    1.9947   -2.1769   -1.8563 H   0  0  0  0  0  0  0  0  0  0  0  0
    2.1076   -0.0001   -2.0117 C   0  0  0  0  0  3  0  0  0  0  0  0
    3.1310   -0.0001   -2.4095 H   0  0  0  0  0  0  0  0  0  0  0  0
    1.4713    1.2253   -1.6852 C   0  0  0  0  0  3  0  0  0  0  0  0
    1.9947    2.1768   -1.8565 H   0  0  0  0  0  0  0  0  0  0  0  0
    0.1376    1.2567   -1.1593 C   0  0  0  0  0  0  0  0  0  0  0  0
   -0.5276   -0.0000   -0.8896 C   0  0  0  0  0  0  0  0  0  0  0  0
   -0.5478    2.4858   -0.8437 C   0  0  0  0  0  0  0  0  0  0  0  0
   -0.0241    3.4348   -1.0334 H   0  0  0  0  0  0  0  0  0  0  0  0
   -1.8208    2.4768   -0.3376 C   0  0  0  0  0  0  0  0  0  0  0  0
   -2.3343    3.4240   -0.1135 H   0  0  0  0  0  0  0  0  0  0  0  0
   -2.5186    1.2415   -0.0678 C   0  0  0  0  0  0  0  0  0  0  0  0
   -1.8608   -0.0000   -0.3379 C   0  0  1  0  0  3  0  0  0  0  0  0
   -3.8277    1.2172    0.4649 C   0  0  0  0  0  0  0  0  0  0  0  0
   -4.3347    2.1703    0.6792 H   0  0  0  0  0  0  0  0  0  0  0  0
   -4.4706    0.0000    0.7256 C   0  0  0  0  0  0  0  0  0  0  0  0
   -5.4884    0.0000    1.1440 H   0  0  0  0  0  0  0  0  0  0  0  0
   -3.8277   -1.2172    0.4650 C   0  0  0  0  0  0  0  0  0  0  0  0
   -4.3347   -2.1702    0.6793 H   0  0  0  0  0  0  0  0  0  0  0  0
   -2.5186   -1.2415   -0.0678 C   0  0  0  0  0  0  0  0  0  0  0  0
   -1.8208   -2.4768   -0.3375 C   0  0  0  0  0  0  0  0  0  0  0  0
   -2.3343   -3.4241   -0.1133 H   0  0  0  0  0  0  0  0  0  0  0  0
   -0.5478   -2.4859   -0.8435 C   0  0  0  0  0  0  0  0  0  0  0  0
   -0.0241   -3.4349   -1.0331 H   0  0  0  0  0  0  0  0  0  0  0  0
  1  9  2  0  0  0  0
  1 25  1  0  0  0  0
  2  1  1  0  0  0  0
  3  2  1  0  0  0  0
  4  6  1  0  0  0  0
  4  2  1  0  0  0  0
  5  4  1  0  0  0  0
  6  8  1  0  0  0  0
  7  6  1  0  0  0  0
  8  9  1  0  0  0  0
  8 10  2  0  0  0  0
 10 12  1  0  0  0  0
 11 10  1  0  0  0  0
 12 13  1  0  0  0  0
 12 14  2  0  0  0  0
 14 16  1  0  0  0  0
 15  9  1  6  0  0  0
 15 14  1  0  0  0  0
 15 22  1  0  0  0  0
 16 17  1  0  0  0  0
 16 18  2  0  0  0  0
 18 19  1  0  0  0  0
 20 21  1  0  0  0  0
 20 18  1  0  0  0  0
 22 20  2  0  0  0  0
 23 24  1  0  0  0  0
 23 22  1  0  0  0  0
 25 23  2  0  0  0  0
 26 25  1  0  0  0  0
M  END
