3,14
 OpenBabel05122313053D

 48 50  0  0  0  0  0  0  0  0999 V2000
    1.2415   -0.6856    0.2346 P   0  0  0  0  0  0  0  0  0  0  0  0
    0.8715    3.1755   -0.8071 Si  0  0  0  0  0  0  0  0  0  0  0  0
   -0.0198    0.4522   -0.1861 C   0  0  0  0  0  3  0  0  0  0  0  0
   -0.3574    1.7411   -0.4991 C   0  0  0  0  0  0  0  0  0  0  0  0
   -1.8319    1.9063   -0.5954 C   0  0  0  0  0  0  0  0  0  0  0  0
   -2.4565    3.1189   -0.9767 C   0  0  0  0  0  0  0  0  0  0  0  0
   -1.8497    4.0086   -1.2018 H   0  0  0  0  0  0  0  0  0  0  0  0
   -3.8516    3.2069   -1.0803 C   0  0  0  0  0  0  0  0  0  0  0  0
   -4.3243    4.1543   -1.3821 H   0  0  0  0  0  0  0  0  0  0  0  0
   -4.6374    2.0780   -0.8002 C   0  0  0  0  0  0  0  0  0  0  0  0
   -5.7349    2.1351   -0.8837 H   0  0  0  0  0  0  0  0  0  0  0  0
   -4.0185    0.8745   -0.4096 C   0  0  0  0  0  0  0  0  0  0  0  0
   -4.6687    0.0069   -0.1909 H   0  0  0  0  0  0  0  0  0  0  0  0
   -2.6212    0.7441   -0.2880 C   0  0  0  0  0  3  0  0  0  0  0  0
    0.5227    4.5938    0.4060 C   0  0  0  0  0  0  0  0  0  0  0  0
    0.6672    4.2400    1.4480 H   0  0  0  0  0  0  0  0  0  0  0  0
   -0.5086    4.9888    0.3257 H   0  0  0  0  0  0  0  0  0  0  0  0
    1.2302    5.4314    0.2334 H   0  0  0  0  0  0  0  0  0  0  0  0
    2.6773    2.6667   -0.5621 C   0  0  0  0  0  0  0  0  0  0  0  0
    3.3213    3.4888   -0.9393 H   0  0  0  0  0  0  0  0  0  0  0  0
    2.9513    1.7457   -1.1122 H   0  0  0  0  0  0  0  0  0  0  0  0
    2.9218    2.5066    0.5052 H   0  0  0  0  0  0  0  0  0  0  0  0
    0.6923    3.7629   -2.6064 C   0  0  0  0  0  0  0  0  0  0  0  0
    1.3783    4.6133   -2.8025 H   0  0  0  0  0  0  0  0  0  0  0  0
   -0.3380    4.0835   -2.8552 H   0  0  0  0  0  0  0  0  0  0  0  0
    0.9634    2.9442   -3.3052 H   0  0  0  0  0  0  0  0  0  0  0  0
    2.1765   -1.2346   -1.2468 C   0  0  0  0  0  0  0  0  0  0  0  0
    2.8771   -2.4597   -1.2140 C   0  0  0  0  0  0  0  0  0  0  0  0
    2.8777   -3.0660   -0.2939 H   0  0  0  0  0  0  0  0  0  0  0  0
    3.5608   -2.9154   -2.3515 C   0  0  0  0  0  0  0  0  0  0  0  0
    4.1102   -3.8685   -2.3142 H   0  0  0  0  0  0  0  0  0  0  0  0
    3.5296   -2.1660   -3.5389 C   0  0  0  0  0  0  0  0  0  0  0  0
    4.0576   -2.5290   -4.4336 H   0  0  0  0  0  0  0  0  0  0  0  0
    2.8116   -0.9602   -3.5853 C   0  0  0  0  0  0  0  0  0  0  0  0
    2.7740   -0.3754   -4.5171 H   0  0  0  0  0  0  0  0  0  0  0  0
    2.1383   -0.4943   -2.4458 C   0  0  0  0  0  0  0  0  0  0  0  0
    1.5607    0.4419   -2.4814 H   0  0  0  0  0  0  0  0  0  0  0  0
    2.4918   -0.0675    1.4407 C   0  0  0  0  0  0  0  0  0  0  0  0
    2.0734    0.8630    2.4172 C   0  0  0  0  0  0  0  0  0  0  0  0
    1.0394    1.2370    2.4000 H   0  0  0  0  0  0  0  0  0  0  0  0
    2.9771    1.3435    3.3746 C   0  0  0  0  0  0  0  0  0  0  0  0
    2.6369    2.0746    4.1239 H   0  0  0  0  0  0  0  0  0  0  0  0
    4.3118    0.9055    3.3699 C   0  0  0  0  0  0  0  0  0  0  0  0
    5.0226    1.2867    4.1184 H   0  0  0  0  0  0  0  0  0  0  0  0
    4.7344   -0.0147    2.3983 C   0  0  0  0  0  0  0  0  0  0  0  0
    5.7814   -0.3542    2.3785 H   0  0  0  0  0  0  0  0  0  0  0  0
    3.8318   -0.5037    1.4409 C   0  0  0  0  0  0  0  0  0  0  0  0
    4.1842   -1.2116    0.6764 H   0  0  0  0  0  0  0  0  0  0  0  0
  1 38  1  0  0  0  0
  2 19  1  0  0  0  0
  2  4  1  0  0  0  0
  2 15  1  0  0  0  0
  3  1  1  0  0  0  0
  4  3  2  0  0  0  0
  5  4  1  0  0  0  0
  5 14  1  0  0  0  0
  6  5  2  0  0  0  0
  7  6  1  0  0  0  0
  8  6  1  0  0  0  0
  8 10  2  0  0  0  0
  9  8  1  0  0  0  0
 10 12  1  0  0  0  0
 11 10  1  0  0  0  0
 12 14  2  0  0  0  0
 12 13  1  0  0  0  0
 15 16  1  0  0  0  0
 17 15  1  0  0  0  0
 18 15  1  0  0  0  0
 19 22  1  0  0  0  0
 20 19  1  0  0  0  0
 21 19  1  0  0  0  0
 23  2  1  0  0  0  0
 24 23  1  0  0  0  0
 25 23  1  0  0  0  0
 26 23  1  0  0  0  0
 27 28  1  0  0  0  0
 27  1  1  0  0  0  0
 28 29  1  0  0  0  0
 30 31  1  0  0  0  0
 30 28  2  0  0  0  0
 32 30  1  0  0  0  0
 33 32  1  0  0  0  0
 34 32  2  0  0  0  0
 34 36  1  0  0  0  0
 35 34  1  0  0  0  0
 36 27  2  0  0  0  0
 37 36  1  0  0  0  0
 38 47  2  0  0  0  0
 38 39  1  0  0  0  0
 39 41  2  0  0  0  0
 40 39  1  0  0  0  0
 41 42  1  0  0  0  0
 43 41  1  0  0  0  0
 43 44  1  0  0  0  0
 45 43  2  0  0  0  0
 46 45  1  0  0  0  0
 47 45  1  0  0  0  0
 48 47  1  0  0  0  0
M  END
