2,4
 OpenBabel05122313053D

 11 10  0  0  0  0  0  0  0  0999 V2000
   -2.6274   -2.1764    0.1787 C   0  0  0  0  0  0  0  0  0  0  0  0
   -1.5489   -1.6179   -0.0764 C   0  0  0  0  0  3  0  0  0  0  0  0
   -4.7764   -1.4782   -0.7352 O   0  0  0  0  0  0  0  0  0  0  0  0
   -1.9998   -0.2935   -2.1467 C   0  0  0  0  0  1  0  0  0  0  0  0
   -4.4660   -1.2914   -2.1267 C   0  0  0  0  0  0  0  0  0  0  0  0
   -5.3208   -0.7011   -2.5225 H   0  0  0  0  0  0  0  0  0  0  0  0
   -4.4856   -2.2754   -2.6591 H   0  0  0  0  0  0  0  0  0  0  0  0
   -3.1754   -0.6321   -2.3684 C   0  0  0  0  0  2  0  0  0  0  0  0
   -4.0477   -2.5020   -0.0374 C   0  0  0  0  0  0  0  0  0  0  0  0
   -4.1331   -3.4706   -0.5915 H   0  0  0  0  0  0  0  0  0  0  0  0
   -4.5991   -2.6289    0.9187 H   0  0  0  0  0  0  0  0  0  0  0  0
  2  1  3  0  0  0  0
  3  9  1  0  0  0  0
  5  3  1  0  0  0  0
  6  5  1  0  0  0  0
  7  5  1  0  0  0  0
  8  4  1  0  0  0  0
  8  5  1  0  0  0  0
  9  1  1  0  0  0  0
  9 11  1  0  0  0  0
 10  9  1  0  0  0  0
M  END
