7,17
 OpenBabel05122313053D

 20 20  0  0  0  0  0  0  0  0999 V2000
    2.3728    2.2170    0.0485 C   0  0  0  0  0  0  0  0  0  0  0  0
    3.3964    2.1434   -0.3719 H   0  0  0  0  0  0  0  0  0  0  0  0
    2.1704    3.3046    0.1459 H   0  0  0  0  0  0  0  0  0  0  0  0
    2.2966    1.5207    1.4111 C   0  0  0  0  0  0  0  0  0  0  0  0
    1.4322    1.9242    1.9809 H   0  0  0  0  0  0  0  0  0  0  0  0
    3.1994    1.7453    2.0293 H   0  0  0  0  0  0  0  0  0  0  0  0
    2.0996    0.0147    1.2735 C   0  0  0  0  0  3  0  0  0  0  0  0
    1.7249   -0.3702    2.2382 H   0  0  0  0  0  0  0  0  0  0  0  0
    3.3341   -0.7936    0.8826 C   0  0  0  0  0  0  0  0  0  0  0  0
    4.2036   -0.5224    1.5294 H   0  0  0  0  0  0  0  0  0  0  0  0
    3.1180   -1.8642    1.0758 H   0  0  0  0  0  0  0  0  0  0  0  0
    3.6617   -0.6213   -0.6005 C   0  0  0  0  0  0  0  0  0  0  0  0
    4.2072    0.3274   -0.7803 H   0  0  0  0  0  0  0  0  0  0  0  0
    4.3322   -1.4298   -0.9570 H   0  0  0  0  0  0  0  0  0  0  0  0
    2.3705   -0.6433   -1.4051 C   0  0  0  0  0  3  0  0  0  0  0  0
    2.2542   -1.5159   -2.0731 H   0  0  0  0  0  0  0  0  0  0  0  0
    1.6024    0.4910   -1.7865 C   0  0  0  0  0  3  0  0  0  0  0  0
    0.9851    0.4202   -2.7002 H   0  0  0  0  0  0  0  0  0  0  0  0
    1.3681    1.5983   -0.9166 C   0  0  0  0  0  3  0  0  0  0  0  0
    0.6185    2.3055   -1.3142 H   0  0  0  0  0  0  0  0  0  0  0  0
  1  3  1  0  0  0  0
  1  4  1  0  0  0  0
  2  1  1  0  0  0  0
  4  5  1  0  0  0  0
  4  6  1  0  0  0  0
  7  4  1  0  0  0  0
  7  8  1  0  0  0  0
  9 11  1  0  0  0  0
  9  7  1  0  0  0  0
  9 10  1  0  0  0  0
 12  9  1  0  0  0  0
 13 12  1  0  0  0  0
 14 12  1  0  0  0  0
 15 12  1  0  0  0  0
 16 15  1  0  0  0  0
 17 15  1  0  0  0  0
 17 19  1  0  0  0  0
 18 17  1  0  0  0  0
 19  1  1  0  0  0  0
 20 19  1  0  0  0  0
M  END
