3,6
 OpenBabel05122313053D

 30 30  0  0  1  0  0  0  0  0999 V2000
   -1.7059   -1.8297    1.7479 C   0  0  0  0  0  0  0  0  0  0  0  0
   -0.3274   -2.1721    1.4254 C   0  0  0  0  0  0  0  0  0  0  0  0
   -0.0411   -2.9024    0.2215 C   0  0  2  0  0  3  0  0  0  0  0  0
   -1.1328   -3.4144   -0.6116 C   0  0  0  0  0  0  0  0  0  0  0  0
   -2.4757   -3.0863   -0.2944 C   0  0  0  0  0  0  0  0  0  0  0  0
   -2.7637   -2.2327    0.8618 C   0  0  1  0  0  3  0  0  0  0  0  0
   -1.9622   -1.0741    3.0295 C   0  0  0  0  0  0  0  0  0  0  0  0
   -3.0151   -0.7717    3.1472 H   0  0  0  0  0  0  0  0  0  0  0  0
   -1.3443   -0.1588    3.0978 H   0  0  0  0  0  0  0  0  0  0  0  0
   -1.6991   -1.7086    3.9018 H   0  0  0  0  0  0  0  0  0  0  0  0
    0.7487   -1.7552    2.3989 C   0  0  0  0  0  0  0  0  0  0  0  0
    0.6135   -2.2926    3.3610 H   0  0  0  0  0  0  0  0  0  0  0  0
    0.7025   -0.6730    2.6245 H   0  0  0  0  0  0  0  0  0  0  0  0
    1.7674   -1.9736    2.0397 H   0  0  0  0  0  0  0  0  0  0  0  0
    1.3669   -3.2281   -0.2070 C   0  0  0  0  0  0  0  0  0  0  0  0
    2.1294   -2.7558    0.4337 H   0  0  0  0  0  0  0  0  0  0  0  0
    1.5319   -2.8740   -1.2447 H   0  0  0  0  0  0  0  0  0  0  0  0
    1.5398   -4.3239   -0.1836 H   0  0  0  0  0  0  0  0  0  0  0  0
   -0.7559   -4.1592   -1.8635 C   0  0  0  0  0  0  0  0  0  0  0  0
   -1.6255   -4.6020   -2.3758 H   0  0  0  0  0  0  0  0  0  0  0  0
   -0.0379   -4.9732   -1.6444 H   0  0  0  0  0  0  0  0  0  0  0  0
   -0.2692   -3.4514   -2.5704 H   0  0  0  0  0  0  0  0  0  0  0  0
   -3.6300   -3.4563   -1.1859 C   0  0  0  0  0  0  0  0  0  0  0  0
   -3.3528   -4.1872   -1.9628 H   0  0  0  0  0  0  0  0  0  0  0  0
   -3.9975   -2.5390   -1.6973 H   0  0  0  0  0  0  0  0  0  0  0  0
   -4.4682   -3.8817   -0.6007 H   0  0  0  0  0  0  0  0  0  0  0  0
   -4.2041   -1.8572    1.0996 C   0  0  0  0  0  0  0  0  0  0  0  0
   -4.8146   -2.7588    1.3135 H   0  0  0  0  0  0  0  0  0  0  0  0
   -4.6145   -1.3664    0.1944 H   0  0  0  0  0  0  0  0  0  0  0  0
   -4.3330   -1.1603    1.9442 H   0  0  0  0  0  0  0  0  0  0  0  0
  1  7  1  0  0  0  0
  2  1  2  0  0  0  0
  2 11  1  0  0  0  0
  3 15  1  1  0  0  0
  3  2  1  0  0  0  0
  4  5  2  0  0  0  0
  4  3  1  0  0  0  0
  5  6  1  0  0  0  0
  6 27  1  1  0  0  0
  6  1  1  0  0  0  0
  7  9  1  0  0  0  0
  7  8  1  0  0  0  0
  7 10  1  0  0  0  0
 11 13  1  0  0  0  0
 11 12  1  0  0  0  0
 14 11  1  0  0  0  0
 15 18  1  0  0  0  0
 15 16  1  0  0  0  0
 17 15  1  0  0  0  0
 19 21  1  0  0  0  0
 19  4  1  0  0  0  0
 20 19  1  0  0  0  0
 22 19  1  0  0  0  0
 23 26  1  0  0  0  0
 23  5  1  0  0  0  0
 24 23  1  0  0  0  0
 25 23  1  0  0  0  0
 27 28  1  0  0  0  0
 27 30  1  0  0  0  0
 29 27  1  0  0  0  0
M  END
