13,17
 OpenBabel05122313053D

 34 35  0  0  0  0  0  0  0  0999 V2000
    1.5482   -0.4062   -0.5161 C   0  0  0  0  0  0  0  0  0  0  0  0
    2.4536   -1.4627   -0.2240 C   0  0  0  0  0  0  0  0  0  0  0  0
    3.8055   -1.1576    0.0560 C   0  0  0  0  0  0  0  0  0  0  0  0
    4.4932   -1.9842    0.2828 H   0  0  0  0  0  0  0  0  0  0  0  0
    4.2597    0.1707    0.0462 C   0  0  0  0  0  0  0  0  0  0  0  0
    3.3773    1.2391   -0.2555 C   0  0  0  0  0  0  0  0  0  0  0  0
    2.0432    0.9099   -0.5282 C   0  0  0  0  0  0  0  0  0  0  0  0
    1.3489    1.7289   -0.7657 H   0  0  0  0  0  0  0  0  0  0  0  0
    0.0821   -0.7412   -0.7662 C   0  0  0  0  0  0  0  0  0  0  0  0
    0.0462   -1.6062   -1.4653 H   0  0  0  0  0  0  0  0  0  0  0  0
   -0.6679   -1.1935    0.4814 C   0  0  0  0  0  3  0  0  0  0  0  0
   -0.7427   -2.2775    0.6545 H   0  0  0  0  0  0  0  0  0  0  0  0
   -0.9609   -0.3931    1.5911 C   0  0  0  0  0  3  0  0  0  0  0  0
   -1.2134   -0.9158    2.5279 H   0  0  0  0  0  0  0  0  0  0  0  0
   -1.1843    1.0233    1.6162 C   0  0  0  0  0  3  0  0  0  0  0  0
   -1.4598    1.4513    2.5923 H   0  0  0  0  0  0  0  0  0  0  0  0
   -1.2848    1.8955    0.5080 C   0  0  0  0  0  3  0  0  0  0  0  0
   -1.6278    2.9186    0.7247 H   0  0  0  0  0  0  0  0  0  0  0  0
   -1.1557    1.5498   -0.8797 C   0  0  0  0  0  3  0  0  0  0  0  0
   -1.5456    2.3032   -1.5830 H   0  0  0  0  0  0  0  0  0  0  0  0
   -0.7727    0.3210   -1.4264 C   0  0  0  0  0  3  0  0  0  0  0  0
   -0.9333    0.2197   -2.5108 H   0  0  0  0  0  0  0  0  0  0  0  0
    6.4868   -0.4747    0.6232 C   0  0  0  0  0  0  0  0  0  0  0  0
    7.4507    0.0358    0.8066 H   0  0  0  0  0  0  0  0  0  0  0  0
    6.6163   -1.1977   -0.2142 H   0  0  0  0  0  0  0  0  0  0  0  0
    6.1992   -1.0414    1.5378 H   0  0  0  0  0  0  0  0  0  0  0  0
    3.8864    2.6546   -0.2722 C   0  0  0  0  0  0  0  0  0  0  0  0
    4.7030    2.7859   -1.0131 H   0  0  0  0  0  0  0  0  0  0  0  0
    4.3157    2.9443    0.7101 H   0  0  0  0  0  0  0  0  0  0  0  0
    3.0751    3.3659   -0.5200 H   0  0  0  0  0  0  0  0  0  0  0  0
    2.0178   -2.7867   -0.1501 N   0  0  0  0  0  0  0  0  0  0  0  0
    1.2125   -3.0250   -0.7322 H   0  0  0  0  0  0  0  0  0  0  0  0
    2.7559   -3.4886   -0.2241 H   0  0  0  0  0  0  0  0  0  0  0  0
    5.5495    0.5341    0.3106 O   0  0  0  0  0  0  0  0  0  0  0  0
  1  2  1  0  0  0  0
  2 31  1  0  0  0  0
  2  3  2  0  0  0  0
  3  4  1  0  0  0  0
  5  3  1  0  0  0  0
  5 34  1  0  0  0  0
  6  5  2  0  0  0  0
  7  1  2  0  0  0  0
  7  6  1  0  0  0  0
  8  7  1  0  0  0  0
  9  1  1  0  0  0  0
  9 11  1  0  0  0  0
 10  9  1  0  0  0  0
 11 12  1  0  0  0  0
 11 13  1  0  0  0  0
 13 15  1  0  0  0  0
 13 14  1  0  0  0  0
 15 16  1  0  0  0  0
 17 18  1  0  0  0  0
 17 15  1  0  0  0  0
 19 17  1  0  0  0  0
 20 19  1  0  0  0  0
 21 19  1  0  0  0  0
 21  9  1  0  0  0  0
 22 21  1  0  0  0  0
 23 24  1  0  0  0  0
 23 26  1  0  0  0  0
 25 23  1  0  0  0  0
 27  6  1  0  0  0  0
 27 29  1  0  0  0  0
 28 27  1  0  0  0  0
 30 27  1  0  0  0  0
 32 31  1  0  0  0  0
 33 31  1  0  0  0  0
 34 23  1  0  0  0  0
M  END
