6,12
 OpenBabel05122313053D

 32 33  0  0  1  0  0  0  0  0999 V2000
   -0.0772    0.2773   -0.8323 N   0  0  0  0  0  0  0  0  0  0  0  0
   -1.2003    0.9256   -0.4738 N   0  0  0  0  0  0  0  0  0  0  0  0
   -1.2580    1.9470   -0.2855 H   0  0  0  0  0  0  0  0  0  0  0  0
   -6.1177   -1.8063    0.1628 N   0  0  0  0  0  0  0  0  0  0  0  0
    2.2310    0.2631   -1.2957 C   0  0  2  0  0  3  0  0  0  0  0  0
    2.3540   -1.1766   -1.3643 C   0  0  0  0  0  3  0  0  0  0  0  0
    1.5336   -1.8781   -1.1817 H   0  0  0  0  0  0  0  0  0  0  0  0
    3.6905   -1.4965   -1.7300 C   0  0  0  0  0  0  0  0  0  0  0  0
    4.0994   -2.5071   -1.8479 H   0  0  0  0  0  0  0  0  0  0  0  0
    4.4207   -0.2706   -1.8803 C   0  0  0  0  0  0  0  0  0  0  0  0
    5.4821   -0.1771   -2.1382 H   0  0  0  0  0  0  0  0  0  0  0  0
    3.5331    0.8099   -1.6091 C   0  0  0  0  0  3  0  0  0  0  0  0
    3.7950    1.8727   -1.6593 H   0  0  0  0  0  0  0  0  0  0  0  0
   -3.6113    2.4083    0.3019 N   0  0  0  0  0  0  0  0  0  0  0  0
    1.0122    0.9944   -0.9400 C   0  0  0  0  0  0  0  0  0  0  0  0
    1.0510    2.4794   -0.6897 C   0  0  0  0  0  0  0  0  0  0  0  0
    0.7474    2.7082    0.3549 H   0  0  0  0  0  0  0  0  0  0  0  0
    0.3449    3.0191   -1.3566 H   0  0  0  0  0  0  0  0  0  0  0  0
    2.0560    2.9081   -0.8394 H   0  0  0  0  0  0  0  0  0  0  0  0
   -2.3876    0.2695   -0.3200 C   0  0  0  0  0  0  0  0  0  0  0  0
   -2.4808   -1.1378   -0.5311 C   0  0  0  0  0  0  0  0  0  0  0  0
   -1.5625   -1.6637   -0.8194 H   0  0  0  0  0  0  0  0  0  0  0  0
   -3.6825   -1.8084   -0.3753 C   0  0  0  0  0  0  0  0  0  0  0  0
   -3.7650   -2.8919   -0.5343 H   0  0  0  0  0  0  0  0  0  0  0  0
   -4.8398   -1.0908   -0.0013 C   0  0  0  0  0  0  0  0  0  0  0  0
   -4.7993    0.2814    0.2160 C   0  0  0  0  0  0  0  0  0  0  0  0
   -5.7029    0.8311    0.5066 H   0  0  0  0  0  0  0  0  0  0  0  0
   -3.5863    0.9667    0.0600 C   0  0  0  0  0  0  0  0  0  0  0  0
   -7.1030   -1.1445    0.4912 O   0  0  0  0  0  0  0  0  0  0  0  0
   -6.1107   -3.0223   -0.0417 O   0  0  0  0  0  0  0  0  0  0  0  0
   -2.5421    3.0492    0.1727 O   0  0  0  0  0  0  0  0  0  0  0  0
   -4.6723    2.9345    0.6198 O   0  0  0  0  0  0  0  0  0  0  0  0
  1  2  1  0  0  0  0
  2 20  1  0  0  0  0
  2  3  1  0  0  0  0
  4 29  2  0  0  0  0
  5 15  1  1  0  0  0
  6  5  1  0  0  0  0
  6  7  1  0  0  0  0
  8  6  1  0  0  0  0
  9  8  1  0  0  0  0
 10  8  2  0  0  0  0
 10 12  1  0  0  0  0
 11 10  1  0  0  0  0
 12  5  1  0  0  0  0
 13 12  1  0  0  0  0
 14 32  2  0  0  0  0
 15  1  2  0  0  0  0
 15 16  1  0  0  0  0
 16 17  1  0  0  0  0
 18 16  1  0  0  0  0
 19 16  1  0  0  0  0
 20 28  1  0  0  0  0
 21 23  1  0  0  0  0
 21 20  2  0  0  0  0
 22 21  1  0  0  0  0
 23 25  2  0  0  0  0
 24 23  1  0  0  0  0
 25  4  1  0  0  0  0
 25 26  1  0  0  0  0
 26 27  1  0  0  0  0
 28 26  2  0  0  0  0
 28 14  1  0  0  0  0
 30  4  2  0  0  0  0
 31 14  2  0  0  0  0
M  END
