6,9
 OpenBabel05122313053D

 41 42  0  0  1  0  0  0  0  0999 V2000
    4.2928   -0.5345   -1.1909 N   0  0  0  0  0  0  0  0  0  0  0  0
   -1.7100   -2.3762    0.3942 N   0  0  0  0  0  0  0  0  0  0  0  0
    2.9435   -0.6967   -0.9736 C   0  0  0  0  0  0  0  0  0  0  0  0
    1.9681    0.0864   -1.6853 C   0  0  0  0  0  3  0  0  0  0  0  0
    2.2835    0.8639   -2.3882 H   0  0  0  0  0  0  0  0  0  0  0  0
    0.5779   -0.1062   -1.4759 C   0  0  0  0  0  3  0  0  0  0  0  0
   -0.1214    0.5135   -2.0532 H   0  0  0  0  0  0  0  0  0  0  0  0
    0.0790   -1.0712   -0.5467 C   0  0  1  0  0  3  0  0  0  0  0  0
    1.0499   -1.7862    0.2133 C   0  0  0  0  0  3  0  0  0  0  0  0
    0.6794   -2.4824    0.9779 H   0  0  0  0  0  0  0  0  0  0  0  0
    2.4445   -1.5989    0.0269 C   0  0  0  0  0  0  0  0  0  0  0  0
    3.1344   -2.1451    0.6781 H   0  0  0  0  0  0  0  0  0  0  0  0
   -1.3657   -1.2420   -0.2459 C   0  0  0  0  0  0  0  0  0  0  0  0
   -2.3081   -0.2428   -0.5767 C   0  0  0  0  0  0  0  0  0  0  0  0
   -1.9681    0.6836   -1.0539 H   0  0  0  0  0  0  0  0  0  0  0  0
   -3.6585   -0.3993   -0.2331 C   0  0  0  0  0  0  0  0  0  0  0  0
   -4.0029   -1.6033    0.4212 C   0  0  0  0  0  0  0  0  0  0  0  0
   -5.0399   -1.8102    0.7248 H   0  0  0  0  0  0  0  0  0  0  0  0
   -3.0029   -2.5404    0.7086 C   0  0  0  0  0  0  0  0  0  0  0  0
   -3.2617   -3.4790    1.2310 H   0  0  0  0  0  0  0  0  0  0  0  0
   -4.7138    0.6817   -0.5062 C   0  0  0  0  0  0  0  0  0  0  0  0
   -4.1121    1.9100   -1.2109 C   0  0  0  0  0  0  0  0  0  0  0  0
   -4.9016    2.6701   -1.3759 H   0  0  0  0  0  0  0  0  0  0  0  0
   -3.6902    1.6489   -2.2028 H   0  0  0  0  0  0  0  0  0  0  0  0
   -3.3111    2.3828   -0.6074 H   0  0  0  0  0  0  0  0  0  0  0  0
   -5.8266    0.0880   -1.3986 C   0  0  0  0  0  0  0  0  0  0  0  0
   -6.6072    0.8510   -1.5968 H   0  0  0  0  0  0  0  0  0  0  0  0
   -6.3198   -0.7814   -0.9200 H   0  0  0  0  0  0  0  0  0  0  0  0
   -5.4182   -0.2479   -2.3732 H   0  0  0  0  0  0  0  0  0  0  0  0
   -5.3151    1.1361    0.8438 C   0  0  0  0  0  0  0  0  0  0  0  0
   -4.5313    1.5616    1.5022 H   0  0  0  0  0  0  0  0  0  0  0  0
   -5.7953    0.2970    1.3851 H   0  0  0  0  0  0  0  0  0  0  0  0
   -6.0862    1.9159    0.6761 H   0  0  0  0  0  0  0  0  0  0  0  0
    5.2363   -1.1048   -0.2415 C   0  0  0  0  0  0  0  0  0  0  0  0
    5.1543   -0.6413    0.7685 H   0  0  0  0  0  0  0  0  0  0  0  0
    6.2636   -0.9437   -0.6153 H   0  0  0  0  0  0  0  0  0  0  0  0
    5.0883   -2.1984   -0.1404 H   0  0  0  0  0  0  0  0  0  0  0  0
    4.7569    0.5782   -2.0052 C   0  0  0  0  0  0  0  0  0  0  0  0
    4.2817    0.5632   -3.0060 H   0  0  0  0  0  0  0  0  0  0  0  0
    5.8471    0.4800   -2.1578 H   0  0  0  0  0  0  0  0  0  0  0  0
    4.5582    1.5666   -1.5309 H   0  0  0  0  0  0  0  0  0  0  0  0
  1  3  1  0  0  0  0
  1 34  1  0  0  0  0
  2 19  1  0  0  0  0
  3 11  2  0  0  0  0
  4  6  1  0  0  0  0
  4  3  1  0  0  0  0
  5  4  1  0  0  0  0
  6  8  1  0  0  0  0
  7  6  1  0  0  0  0
  8 13  1  1  0  0  0
  8  9  1  0  0  0  0
  9 10  1  0  0  0  0
 11  9  1  0  0  0  0
 11 12  1  0  0  0  0
 13  2  2  0  0  0  0
 14 13  1  0  0  0  0
 14 16  2  0  0  0  0
 15 14  1  0  0  0  0
 16 17  1  0  0  0  0
 17 19  2  0  0  0  0
 17 18  1  0  0  0  0
 19 20  1  0  0  0  0
 21 16  1  0  0  0  0
 21 30  1  0  0  0  0
 22 25  1  0  0  0  0
 22 21  1  0  0  0  0
 23 22  1  0  0  0  0
 24 22  1  0  0  0  0
 26 28  1  0  0  0  0
 26 21  1  0  0  0  0
 27 26  1  0  0  0  0
 29 26  1  0  0  0  0
 30 32  1  0  0  0  0
 30 31  1  0  0  0  0
 33 30  1  0  0  0  0
 34 37  1  0  0  0  0
 34 35  1  0  0  0  0
 36 34  1  0  0  0  0
 38 41  1  0  0  0  0
 38  1  1  0  0  0  0
 39 38  1  0  0  0  0
 40 38  1  0  0  0  0
M  END
