7,11
 OpenBabel05122313053D

 37 37  0  0  1  0  0  0  0  0999 V2000
   -2.2352    0.2522   -0.7204 P   0  0  0  0  0  0  0  0  0  0  0  0
   -1.4665   -0.5665    1.8020 O   0  0  0  0  0  0  0  0  0  0  0  0
    0.1939   -1.1308    0.1819 C   0  0  2  0  0  3  0  0  0  0  0  0
    1.2246   -1.5161    1.1288 C   0  0  0  0  0  0  0  0  0  0  0  0
    2.5053   -1.8839    0.6222 C   0  0  0  0  0  0  0  0  0  0  0  0
    3.3058   -2.1212    1.3365 H   0  0  0  0  0  0  0  0  0  0  0  0
    2.7956   -1.8533   -0.7696 C   0  0  0  0  0  3  0  0  0  0  0  0
    3.8152   -2.0745   -1.1159 H   0  0  0  0  0  0  0  0  0  0  0  0
    1.7792   -1.5349   -1.7070 C   0  0  0  0  0  3  0  0  0  0  0  0
    1.9986   -1.4937   -2.7820 H   0  0  0  0  0  0  0  0  0  0  0  0
    0.5088   -1.1404   -1.2201 C   0  0  0  0  0  3  0  0  0  0  0  0
   -0.2625   -0.7817   -1.9187 H   0  0  0  0  0  0  0  0  0  0  0  0
   -1.1141   -0.5593    0.6261 C   0  0  0  0  0  0  0  0  0  0  0  0
    1.0024   -1.5555    2.6172 C   0  0  0  0  0  0  0  0  0  0  0  0
    0.5704   -0.6149    3.0009 H   0  0  0  0  0  0  0  0  0  0  0  0
    1.9556   -1.7649    3.1393 H   0  0  0  0  0  0  0  0  0  0  0  0
    0.2714   -2.3488    2.8712 H   0  0  0  0  0  0  0  0  0  0  0  0
   -3.5752   -1.1016   -0.7644 C   0  0  0  0  0  0  0  0  0  0  0  0
   -4.3261   -0.6582   -1.4569 H   0  0  0  0  0  0  0  0  0  0  0  0
   -4.2641   -1.4353    0.5599 C   0  0  0  0  0  0  0  0  0  0  0  0
   -4.7578   -0.5522    1.0104 H   0  0  0  0  0  0  0  0  0  0  0  0
   -3.5477   -1.8302    1.3071 H   0  0  0  0  0  0  0  0  0  0  0  0
   -5.0473   -2.2062    0.3957 H   0  0  0  0  0  0  0  0  0  0  0  0
   -2.9950   -2.3509   -1.4419 C   0  0  0  0  0  0  0  0  0  0  0  0
   -2.5253   -2.1135   -2.4183 H   0  0  0  0  0  0  0  0  0  0  0  0
   -3.7923   -3.1016   -1.6243 H   0  0  0  0  0  0  0  0  0  0  0  0
   -2.2273   -2.8383   -0.8042 H   0  0  0  0  0  0  0  0  0  0  0  0
   -2.9713    1.5693    0.4018 C   0  0  0  0  0  0  0  0  0  0  0  0
   -3.2357    1.0719    1.3587 H   0  0  0  0  0  0  0  0  0  0  0  0
   -4.2203    2.1740   -0.2485 C   0  0  0  0  0  0  0  0  0  0  0  0
   -5.0240    1.4258   -0.4026 H   0  0  0  0  0  0  0  0  0  0  0  0
   -3.9837    2.6260   -1.2346 H   0  0  0  0  0  0  0  0  0  0  0  0
   -4.6359    2.9780    0.3947 H   0  0  0  0  0  0  0  0  0  0  0  0
   -1.8990    2.6320    0.6780 C   0  0  0  0  0  0  0  0  0  0  0  0
   -1.0312    2.2124    1.2248 H   0  0  0  0  0  0  0  0  0  0  0  0
   -2.3194    3.4471    1.3038 H   0  0  0  0  0  0  0  0  0  0  0  0
   -1.5216    3.0846   -0.2623 H   0  0  0  0  0  0  0  0  0  0  0  0
  1 28  1  0  0  0  0
  1 13  1  0  0  0  0
  3 13  1  1  0  0  0
  3  4  1  0  0  0  0
  4 14  1  0  0  0  0
  5  4  2  0  0  0  0
  5  6  1  0  0  0  0
  7  5  1  0  0  0  0
  8  7  1  0  0  0  0
  9 11  1  0  0  0  0
  9  7  1  0  0  0  0
 10  9  1  0  0  0  0
 11  3  1  0  0  0  0
 12 11  1  0  0  0  0
 13  2  2  0  0  0  0
 14 17  1  0  0  0  0
 14 15  1  0  0  0  0
 14 16  1  0  0  0  0
 18  1  1  0  0  0  0
 18 20  1  0  0  0  0
 19 18  1  0  0  0  0
 20 21  1  0  0  0  0
 20 22  1  0  0  0  0
 23 20  1  0  0  0  0
 24 27  1  0  0  0  0
 24 18  1  0  0  0  0
 25 24  1  0  0  0  0
 26 24  1  0  0  0  0
 28 34  1  0  0  0  0
 28 29  1  0  0  0  0
 30 33  1  0  0  0  0
 30 28  1  0  0  0  0
 31 30  1  0  0  0  0
 32 30  1  0  0  0  0
 34 35  1  0  0  0  0
 34 36  1  0  0  0  0
 37 34  1  0  0  0  0
M  END
