2,6
 OpenBabel05122313053D

 24 25  0  0  1  0  0  0  0  0999 V2000
   -2.0275    0.6810    0.8734 C   0  0  1  0  0  3  0  0  0  0  0  0
   -1.5858   -0.4981    1.5302 C   0  0  0  0  0  3  0  0  0  0  0  0
   -2.2135   -1.8463    1.2531 C   0  0  0  0  0  0  0  0  0  0  0  0
   -2.7106   -1.8032   -0.1991 C   0  0  2  0  0  0  0  0  0  0  0  0
   -1.5374   -1.4091   -1.1156 C   0  0  0  0  0  3  0  0  0  0  0  0
   -1.4612   -0.1627   -1.7817 C   0  0  0  0  0  3  0  0  0  0  0  0
   -2.5303    0.8881   -1.5855 C   0  0  0  0  0  0  0  0  0  0  0  0
   -3.1454    0.6350   -0.2000 C   0  0  1  0  0  0  0  0  0  0  0  0
   -3.8207   -0.7435   -0.2552 C   0  0  0  0  0  0  0  0  0  0  0  0
   -1.8590    2.0236    1.5469 C   0  0  0  0  0  0  0  0  0  0  0  0
   -1.0635   -0.3786    2.4955 H   0  0  0  0  0  0  0  0  0  0  0  0
   -3.0581   -2.0425    1.9529 H   0  0  0  0  0  0  0  0  0  0  0  0
   -1.4638   -2.6444    1.4061 H   0  0  0  0  0  0  0  0  0  0  0  0
   -3.0963   -2.7967   -0.5096 H   0  0  0  0  0  0  0  0  0  0  0  0
   -0.9289   -2.2447   -1.4989 H   0  0  0  0  0  0  0  0  0  0  0  0
   -0.8191   -0.0772   -2.6740 H   0  0  0  0  0  0  0  0  0  0  0  0
   -3.3098    0.8208   -2.3786 H   0  0  0  0  0  0  0  0  0  0  0  0
   -2.0760    1.8943   -1.6554 H   0  0  0  0  0  0  0  0  0  0  0  0
   -3.8894    1.4242    0.0382 H   0  0  0  0  0  0  0  0  0  0  0  0
   -4.4189   -0.8234   -1.1869 H   0  0  0  0  0  0  0  0  0  0  0  0
   -4.5183   -0.8932    0.5951 H   0  0  0  0  0  0  0  0  0  0  0  0
   -0.9456    2.0647    2.1707 H   0  0  0  0  0  0  0  0  0  0  0  0
   -2.7344    2.2157    2.2067 H   0  0  0  0  0  0  0  0  0  0  0  0
   -1.8162    2.8501    0.8110 H   0  0  0  0  0  0  0  0  0  0  0  0
  1  2  1  0  0  0  0
  1 10  1  1  0  0  0
  2 11  1  0  0  0  0
  3 13  1  0  0  0  0
  3  2  1  0  0  0  0
  3 12  1  0  0  0  0
  4 14  1  6  0  0  0
  4  3  1  0  0  0  0
  5  4  1  0  0  0  0
  6  7  1  0  0  0  0
  6  5  1  0  0  0  0
  7  8  1  0  0  0  0
  8 19  1  1  0  0  0
  8  1  1  0  0  0  0
  9  8  1  0  0  0  0
  9  4  1  0  0  0  0
  9 21  1  0  0  0  0
 10 22  1  0  0  0  0
 10 23  1  0  0  0  0
 15  5  1  0  0  0  0
 16  6  1  0  0  0  0
 17  7  1  0  0  0  0
 18  7  1  0  0  0  0
 20  9  1  0  0  0  0
 24 10  1  0  0  0  0
M  END
