2,12
 OpenBabel05122313053D

 48 49  0  0  1  0  0  0  0  0999 V2000
   -0.8092    0.2196    1.6559 C   0  0  0  0  0  0  0  0  0  0  0  0
   -2.1738    0.1548    2.1153 C   0  0  0  0  0  3  0  0  0  0  0  0
   -2.9521    1.0422    1.3166 C   0  0  0  0  0  0  0  0  0  0  0  0
   -2.0632    1.6525    0.3605 C   0  0  0  0  0  0  0  0  0  0  0  0
   -0.7266    1.1795    0.5878 C   0  0  0  0  0  0  0  0  0  0  0  0
    0.5413    1.6599   -0.0976 C   0  0  0  0  0  0  0  0  0  0  0  0
    1.6205    1.9075    0.9918 C   0  0  0  0  0  0  0  0  0  0  0  0
    1.2579    2.9570    2.0436 C   0  0  0  0  0  0  0  0  0  0  0  0
    0.2397    2.9889   -0.8516 C   0  0  0  0  0  0  0  0  0  0  0  0
    1.4421    3.7206   -1.4504 C   0  0  0  0  0  0  0  0  0  0  0  0
    0.4386   -1.6240   -0.6123 C   0  0  0  0  0  0  0  0  0  0  0  0
   -0.7125   -1.0679   -1.3369 C   0  0  0  0  0  3  0  0  0  0  0  0
   -0.1054    0.1269   -2.0780 C   0  0  0  0  0  0  0  0  0  0  0  0
    1.0451    0.5809   -1.1556 C   0  0  2  0  0  0  0  0  0  0  0  0
    1.4924   -0.7436   -0.5438 C   0  0  0  0  0  0  0  0  0  0  0  0
    2.8234   -1.0440   -0.0076 C   0  0  0  0  0  0  0  0  0  0  0  0
    3.8886   -0.2220   -0.2469 C   0  0  0  0  0  0  0  0  0  0  0  0
    5.3103   -0.4266    0.1734 C   0  0  0  0  0  0  0  0  0  0  0  0
    2.9948   -2.3628    0.7293 C   0  0  0  0  0  0  0  0  0  0  0  0
    3.3581   -3.5327   -0.1982 C   0  0  0  0  0  0  0  0  0  0  0  0
    0.0317   -0.3479    2.0682 H   0  0  0  0  0  0  0  0  0  0  0  0
   -2.5449   -0.4725    2.9349 H   0  0  0  0  0  0  0  0  0  0  0  0
   -4.0294    1.2242    1.4044 H   0  0  0  0  0  0  0  0  0  0  0  0
   -2.3634    2.3874   -0.3936 H   0  0  0  0  0  0  0  0  0  0  0  0
    1.8493    0.9457    1.4902 H   0  0  0  0  0  0  0  0  0  0  0  0
    2.5665    2.1962    0.4911 H   0  0  0  0  0  0  0  0  0  0  0  0
    1.1446    3.9706    1.6081 H   0  0  0  0  0  0  0  0  0  0  0  0
    2.0482    3.0217    2.8183 H   0  0  0  0  0  0  0  0  0  0  0  0
    0.3068    2.7095    2.5583 H   0  0  0  0  0  0  0  0  0  0  0  0
   -0.4901    2.7820   -1.6607 H   0  0  0  0  0  0  0  0  0  0  0  0
   -0.2836    3.6736   -0.1520 H   0  0  0  0  0  0  0  0  0  0  0  0
    2.1536    4.0665   -0.6741 H   0  0  0  0  0  0  0  0  0  0  0  0
    1.1059    4.6176   -2.0079 H   0  0  0  0  0  0  0  0  0  0  0  0
    2.0093    3.0901   -2.1647 H   0  0  0  0  0  0  0  0  0  0  0  0
    0.4403   -2.6423   -0.1966 H   0  0  0  0  0  0  0  0  0  0  0  0
   -1.2384   -1.7921   -1.9852 H   0  0  0  0  0  0  0  0  0  0  0  0
    0.3334   -0.2332   -3.0354 H   0  0  0  0  0  0  0  0  0  0  0  0
   -0.8303    0.9236   -2.3337 H   0  0  0  0  0  0  0  0  0  0  0  0
    1.8597    1.0665   -1.7280 H   0  0  0  0  0  0  0  0  0  0  0  0
    3.7055    0.6937   -0.8335 H   0  0  0  0  0  0  0  0  0  0  0  0
    5.4507   -1.3036    0.8338 H   0  0  0  0  0  0  0  0  0  0  0  0
    5.7039    0.4676    0.7051 H   0  0  0  0  0  0  0  0  0  0  0  0
    5.9735   -0.5683   -0.7092 H   0  0  0  0  0  0  0  0  0  0  0  0
    2.0617   -2.6004    1.2807 H   0  0  0  0  0  0  0  0  0  0  0  0
    3.7800   -2.2571    1.5057 H   0  0  0  0  0  0  0  0  0  0  0  0
    4.3251   -3.3469   -0.7081 H   0  0  0  0  0  0  0  0  0  0  0  0
    2.5926   -3.6724   -0.9873 H   0  0  0  0  0  0  0  0  0  0  0  0
    3.4462   -4.4840    0.3654 H   0  0  0  0  0  0  0  0  0  0  0  0
  1 21  1  0  0  0  0
  1  2  1  0  0  0  0
  2 22  1  0  0  0  0
  3 23  1  0  0  0  0
  3  2  1  0  0  0  0
  4  5  1  0  0  0  0
  4  3  2  0  0  0  0
  5  1  2  0  0  0  0
  6  5  1  0  0  0  0
  6  7  1  0  0  0  0
  7 25  1  0  0  0  0
  7  8  1  0  0  0  0
  8 29  1  0  0  0  0
  8 28  1  0  0  0  0
  9 31  1  0  0  0  0
  9  6  1  0  0  0  0
 10  9  1  0  0  0  0
 10 32  1  0  0  0  0
 11 15  2  0  0  0  0
 11 35  1  0  0  0  0
 12 11  1  0  0  0  0
 13 12  1  0  0  0  0
 13 14  1  0  0  0  0
 14 39  1  6  0  0  0
 14 15  1  0  0  0  0
 14  6  1  0  0  0  0
 15 16  1  0  0  0  0
 16 19  1  0  0  0  0
 17 16  2  0  0  0  0
 17 18  1  0  0  0  0
 18 42  1  0  0  0  0
 18 41  1  0  0  0  0
 19 44  1  0  0  0  0
 19 45  1  0  0  0  0
 20 48  1  0  0  0  0
 20 19  1  0  0  0  0
 24  4  1  0  0  0  0
 26  7  1  0  0  0  0
 27  8  1  0  0  0  0
 30  9  1  0  0  0  0
 33 10  1  0  0  0  0
 34 10  1  0  0  0  0
 36 12  1  0  0  0  0
 37 13  1  0  0  0  0
 38 13  1  0  0  0  0
 40 17  1  0  0  0  0
 43 18  1  0  0  0  0
 46 20  1  0  0  0  0
 47 20  1  0  0  0  0
M  END
