1,5
 OpenBabel05122313053D

 23 23  0  0  1  0  0  0  0  0999 V2000
    2.9227    0.1449   -0.0942 C   0  0  0  0  0  3  0  0  0  0  0  0
    2.9379   -1.3021   -0.6344 C   0  0  0  0  0  0  0  0  0  0  0  0
    4.1689   -2.0968   -0.1591 C   0  0  0  0  0  0  0  0  0  0  0  0
    2.9059   -1.2791   -2.1695 C   0  0  0  0  0  0  0  0  0  0  0  0
    1.6332   -1.9116   -0.0447 C   0  0  1  0  0  3  0  0  0  0  0  0
    0.5915   -2.4559   -0.8425 C   0  0  0  0  0  3  0  0  0  0  0  0
   -0.5443   -3.0225   -0.2562 C   0  0  0  0  0  0  0  0  0  0  0  0
   -0.6820   -3.0644    1.1415 C   0  0  0  0  0  0  0  0  0  0  0  0
    0.3246   -2.5350    1.9557 C   0  0  0  0  0  0  0  0  0  0  0  0
    1.4687   -1.9548    1.3756 C   0  0  0  0  0  0  0  0  0  0  0  0
    3.2806    0.8863   -0.8364 H   0  0  0  0  0  0  0  0  0  0  0  0
    3.4895    0.2722    0.8526 H   0  0  0  0  0  0  0  0  0  0  0  0
    4.1290   -3.1420   -0.5306 H   0  0  0  0  0  0  0  0  0  0  0  0
    5.0999   -1.6283   -0.5398 H   0  0  0  0  0  0  0  0  0  0  0  0
    4.2355   -2.1304    0.9463 H   0  0  0  0  0  0  0  0  0  0  0  0
    2.0459   -0.6896   -2.5460 H   0  0  0  0  0  0  0  0  0  0  0  0
    3.8347   -0.8116   -2.5532 H   0  0  0  0  0  0  0  0  0  0  0  0
    2.8439   -2.2999   -2.5972 H   0  0  0  0  0  0  0  0  0  0  0  0
    0.6599   -2.4113   -1.9363 H   0  0  0  0  0  0  0  0  0  0  0  0
   -1.3496   -3.4021   -0.9004 H   0  0  0  0  0  0  0  0  0  0  0  0
   -1.5904   -3.4908    1.5913 H   0  0  0  0  0  0  0  0  0  0  0  0
    0.2238   -2.5550    3.0508 H   0  0  0  0  0  0  0  0  0  0  0  0
    2.2768   -1.5954    2.0304 H   0  0  0  0  0  0  0  0  0  0  0  0
  1 12  1  0  0  0  0
  2  3  1  0  0  0  0
  2  1  1  0  0  0  0
  3 15  1  0  0  0  0
  4  2  1  0  0  0  0
  5  2  1  1  0  0  0
  5 10  1  0  0  0  0
  6  7  1  0  0  0  0
  6  5  1  0  0  0  0
  7  8  2  0  0  0  0
  8 21  1  0  0  0  0
  8  9  1  0  0  0  0
  9 22  1  0  0  0  0
 10  9  2  0  0  0  0
 10 23  1  0  0  0  0
 11  1  1  0  0  0  0
 13  3  1  0  0  0  0
 14  3  1  0  0  0  0
 16  4  1  0  0  0  0
 17  4  1  0  0  0  0
 18  4  1  0  0  0  0
 19  6  1  0  0  0  0
 20  7  1  0  0  0  0
M  END
