1,10
 OpenBabel05122313053D

 26 25  0  0  1  0  0  0  0  0999 V2000
    0.0194    0.0774    1.9336 C   0  0  0  0  0  3  0  0  0  0  0  0
    1.3023    0.6177    2.2481 C   0  0  2  0  0  3  0  0  0  0  0  0
    1.4942    2.0863    2.5103 C   0  0  0  0  0  0  0  0  0  0  0  0
    2.3754   -0.3157    2.1623 C   0  0  0  0  0  3  0  0  0  0  0  0
    3.8482    0.0338    2.2170 C   0  0  0  0  0  0  0  0  0  0  0  0
    4.4637   -0.6926    1.0175 C   0  0  0  0  0  0  0  0  0  0  0  0
    3.5817   -0.3131   -0.1536 C   0  0  0  0  0  3  0  0  0  0  0  0
    2.9607   -1.2235   -1.0538 C   0  0  1  0  0  3  0  0  0  0  0  0
    3.2180   -2.7053   -1.0144 C   0  0  0  0  0  0  0  0  0  0  0  0
    1.9782   -0.6457   -1.9155 C   0  0  0  0  0  3  0  0  0  0  0  0
   -0.8278    0.7778    1.9098 H   0  0  0  0  0  0  0  0  0  0  0  0
   -0.2184   -0.9624    2.2062 H   0  0  0  0  0  0  0  0  0  0  0  0
    1.6419    2.2330    3.6014 H   0  0  0  0  0  0  0  0  0  0  0  0
    0.6045    2.6653    2.2008 H   0  0  0  0  0  0  0  0  0  0  0  0
    2.3663    2.5040    1.9766 H   0  0  0  0  0  0  0  0  0  0  0  0
    2.1411   -1.3772    2.3559 H   0  0  0  0  0  0  0  0  0  0  0  0
    3.9961    1.1269    2.1133 H   0  0  0  0  0  0  0  0  0  0  0  0
    4.2984   -0.2714    3.1871 H   0  0  0  0  0  0  0  0  0  0  0  0
    4.4479   -1.7872    1.1880 H   0  0  0  0  0  0  0  0  0  0  0  0
    5.5205   -0.4011    0.8327 H   0  0  0  0  0  0  0  0  0  0  0  0
    3.6504    0.7436   -0.4629 H   0  0  0  0  0  0  0  0  0  0  0  0
    4.1990   -2.8955   -1.4996 H   0  0  0  0  0  0  0  0  0  0  0  0
    2.4357   -3.2586   -1.5624 H   0  0  0  0  0  0  0  0  0  0  0  0
    3.2609   -3.1042    0.0157 H   0  0  0  0  0  0  0  0  0  0  0  0
    1.3740   -1.3466   -2.5070 H   0  0  0  0  0  0  0  0  0  0  0  0
    2.1077    0.3666   -2.3273 H   0  0  0  0  0  0  0  0  0  0  0  0
  1 12  1  0  0  0  0
  2  1  1  6  0  0  0
  2  3  1  0  0  0  0
  3 13  1  0  0  0  0
  4  5  1  0  0  0  0
  4  2  1  0  0  0  0
  4 16  1  0  0  0  0
  5 18  1  0  0  0  0
  6 19  1  0  0  0  0
  6  5  1  0  0  0  0
  7  6  1  0  0  0  0
  8 10  1  1  0  0  0
  8  9  1  0  0  0  0
  8  7  1  0  0  0  0
  9 24  1  0  0  0  0
 11  1  1  0  0  0  0
 14  3  1  0  0  0  0
 15  3  1  0  0  0  0
 17  5  1  0  0  0  0
 20  6  1  0  0  0  0
 21  7  1  0  0  0  0
 22  9  1  0  0  0  0
 23  9  1  0  0  0  0
 25 10  1  0  0  0  0
 26 10  1  0  0  0  0
M  END
