2,12
 OpenBabel05122313053D

 26 26  0  0  1  0  0  0  0  0999 V2000
   -2.2914    0.6450    0.1939 C   0  0  2  0  0  3  0  0  0  0  0  0
   -1.9083    0.5936   -1.1730 C   0  0  0  0  0  3  0  0  0  0  0  0
   -1.5789    1.5507   -1.6139 H   0  0  0  0  0  0  0  0  0  0  0  0
   -2.3318   -0.4491   -2.1888 C   0  0  0  0  0  0  0  0  0  0  0  0
   -3.3668   -0.2279   -2.5372 H   0  0  0  0  0  0  0  0  0  0  0  0
   -1.6797   -0.3205   -3.0755 H   0  0  0  0  0  0  0  0  0  0  0  0
   -2.2248   -1.9095   -1.6940 C   0  0  0  0  0  0  0  0  0  0  0  0
   -3.1725   -2.2397   -1.2232 H   0  0  0  0  0  0  0  0  0  0  0  0
   -2.0721   -2.5738   -2.5666 H   0  0  0  0  0  0  0  0  0  0  0  0
   -1.0771   -2.1165   -0.7166 C   0  0  0  0  0  3  0  0  0  0  0  0
   -0.2200   -2.7046   -1.0870 H   0  0  0  0  0  0  0  0  0  0  0  0
   -1.1745   -1.9924    0.6919 C   0  0  0  0  0  3  0  0  0  0  0  0
   -0.4045   -2.5220    1.2788 H   0  0  0  0  0  0  0  0  0  0  0  0
   -2.4041   -1.5823    1.4635 C   0  0  0  0  0  0  0  0  0  0  0  0
   -2.0752   -1.2689    2.4749 H   0  0  0  0  0  0  0  0  0  0  0  0
   -3.0605   -2.4697    1.6170 H   0  0  0  0  0  0  0  0  0  0  0  0
   -3.1877   -0.4333    0.8067 C   0  0  0  0  0  0  0  0  0  0  0  0
   -3.8753   -0.8191    0.0290 H   0  0  0  0  0  0  0  0  0  0  0  0
   -3.8342    0.0413    1.5712 H   0  0  0  0  0  0  0  0  0  0  0  0
   -2.2771    1.9667    0.9400 C   0  0  0  0  0  0  0  0  0  0  0  0
   -3.3269    2.3432    0.9038 H   0  0  0  0  0  0  0  0  0  0  0  0
   -1.6565    2.6976    0.3850 H   0  0  0  0  0  0  0  0  0  0  0  0
   -1.8095    1.8915    2.3948 C   0  0  0  0  0  0  0  0  0  0  0  0
   -1.8869    2.8843    2.8795 H   0  0  0  0  0  0  0  0  0  0  0  0
   -0.7490    1.5721    2.4433 H   0  0  0  0  0  0  0  0  0  0  0  0
   -2.4124    1.1816    2.9981 H   0  0  0  0  0  0  0  0  0  0  0  0
  1 17  1  0  0  0  0
  1 20  1  6  0  0  0
  2  1  1  0  0  0  0
  3  2  1  0  0  0  0
  4  7  1  0  0  0  0
  4  2  1  0  0  0  0
  5  4  1  0  0  0  0
  6  4  1  0  0  0  0
  7  8  1  0  0  0  0
  7 10  1  0  0  0  0
  9  7  1  0  0  0  0
 10 12  1  0  0  0  0
 11 10  1  0  0  0  0
 12 13  1  0  0  0  0
 12 14  1  0  0  0  0
 14 16  1  0  0  0  0
 14 15  1  0  0  0  0
 17 14  1  0  0  0  0
 17 19  1  0  0  0  0
 18 17  1  0  0  0  0
 20 23  1  0  0  0  0
 21 20  1  0  0  0  0
 22 20  1  0  0  0  0
 23 25  1  0  0  0  0
 23 24  1  0  0  0  0
 23 26  1  0  0  0  0
M  END
