1,28
 OpenBabel05122313053D

 30 30  0  0  1  0  0  0  0  0999 V2000
    2.2993   -0.1254    0.7341 C   0  0  2  0  0  3  0  0  0  0  0  0
    1.6449    1.0980    1.1016 C   0  0  0  0  0  0  0  0  0  0  0  0
    1.3351    1.8080   -0.1053 C   0  0  0  0  0  0  0  0  0  0  0  0
    1.7177    0.9829   -1.2111 C   0  0  0  0  0  0  0  0  0  0  0  0
    2.3639   -0.1877   -0.6881 C   0  0  0  0  0  0  0  0  0  0  0  0
    2.7550   -1.2092    1.6699 C   0  0  0  0  0  0  0  0  0  0  0  0
    2.8175   -0.8091    2.7032 H   0  0  0  0  0  0  0  0  0  0  0  0
    3.7726   -1.5651    1.4043 H   0  0  0  0  0  0  0  0  0  0  0  0
    1.5323    1.6228    2.5034 C   0  0  0  0  0  0  0  0  0  0  0  0
    1.0243    2.6036    2.5360 H   0  0  0  0  0  0  0  0  0  0  0  0
    2.5405    1.7586    2.9505 H   0  0  0  0  0  0  0  0  0  0  0  0
    0.9785    0.9329    3.1724 H   0  0  0  0  0  0  0  0  0  0  0  0
    1.0136    3.2688   -0.1953 C   0  0  0  0  0  0  0  0  0  0  0  0
    1.9467    3.8489   -0.0226 H   0  0  0  0  0  0  0  0  0  0  0  0
    0.2852    3.6098    0.5625 H   0  0  0  0  0  0  0  0  0  0  0  0
    0.6354    3.5593   -1.1911 H   0  0  0  0  0  0  0  0  0  0  0  0
    1.6083    1.3065   -2.6712 C   0  0  0  0  0  0  0  0  0  0  0  0
    0.9185    2.1509   -2.8619 H   0  0  0  0  0  0  0  0  0  0  0  0
    1.2396    0.4296   -3.2412 H   0  0  0  0  0  0  0  0  0  0  0  0
    2.5960    1.5859   -3.0982 H   0  0  0  0  0  0  0  0  0  0  0  0
    3.1397   -1.1774   -1.4992 C   0  0  0  0  0  0  0  0  0  0  0  0
    4.1437   -0.7589   -1.7320 H   0  0  0  0  0  0  0  0  0  0  0  0
    2.6344   -1.4130   -2.4542 H   0  0  0  0  0  0  0  0  0  0  0  0
    3.2862   -2.1320   -0.9608 H   0  0  0  0  0  0  0  0  0  0  0  0
    1.7086   -2.3330    1.5996 C   0  0  0  0  0  0  0  0  0  0  0  0
    1.8486   -3.0683    2.4279 H   0  0  0  0  0  0  0  0  0  0  0  0
    1.8424   -2.8992    0.6530 H   0  0  0  0  0  0  0  0  0  0  0  0
    0.3241   -1.6930    1.6100 C   0  0  0  0  0  3  0  0  0  0  0  0
    0.1651   -1.1439    2.5645 H   0  0  0  0  0  0  0  0  0  0  0  0
   -0.4725   -2.4601    1.5362 H   0  0  0  0  0  0  0  0  0  0  0  0
  1  2  1  0  0  0  0
  1  6  1  6  0  0  0
  2  9  1  0  0  0  0
  3  2  2  0  0  0  0
  4  5  2  0  0  0  0
  4  3  1  0  0  0  0
  5  1  1  0  0  0  0
  6  7  1  0  0  0  0
  8  6  1  0  0  0  0
  9 10  1  0  0  0  0
  9 11  1  0  0  0  0
  9 12  1  0  0  0  0
 13  3  1  0  0  0  0
 13 14  1  0  0  0  0
 13 15  1  0  0  0  0
 16 13  1  0  0  0  0
 17  4  1  0  0  0  0
 18 17  1  0  0  0  0
 19 17  1  0  0  0  0
 20 17  1  0  0  0  0
 21 24  1  0  0  0  0
 21  5  1  0  0  0  0
 22 21  1  0  0  0  0
 23 21  1  0  0  0  0
 25 28  1  0  0  0  0
 25  6  1  0  0  0  0
 25 26  1  0  0  0  0
 27 25  1  0  0  0  0
 28 29  1  0  0  0  0
 30 28  1  0  0  0  0
M  END
