7,11
 OpenBabel05122313053D

 27 27  0  0  1  0  0  0  0  0999 V2000
    1.4415   -1.3059   -0.0298 C   0  0  1  0  0  3  0  0  0  0  0  0
   -2.9438   -0.7207    0.0114 C   0  0  0  0  0  0  0  0  0  0  0  0
   -3.4790    0.0313   -1.2229 C   0  0  0  0  0  0  0  0  0  0  0  0
   -3.4781   -2.1748   -0.0116 C   0  0  0  0  0  0  0  0  0  0  0  0
   -3.4628   -0.0155    1.2796 C   0  0  0  0  0  0  0  0  0  0  0  0
    2.9231   -1.4252   -0.1056 C   0  0  0  0  0  0  0  0  0  0  0  0
    0.7308   -1.1804    1.2044 C   0  0  0  0  0  3  0  0  0  0  0  0
   -0.6737   -0.9826    1.2164 C   0  0  0  0  0  3  0  0  0  0  0  0
   -1.4108   -0.8424   -0.0016 C   0  0  0  0  0  0  0  0  0  0  0  0
   -0.6954   -0.9679   -1.2339 C   0  0  0  0  0  0  0  0  0  0  0  0
    0.7075   -1.1700   -1.2464 C   0  0  0  0  0  3  0  0  0  0  0  0
    4.4671   -1.4999    0.9564 H   0  0  0  0  0  0  0  0  0  0  0  0
   -4.5832    0.0996   -1.1599 H   0  0  0  0  0  0  0  0  0  0  0  0
   -3.0789    1.0613   -1.2813 H   0  0  0  0  0  0  0  0  0  0  0  0
   -3.2454   -0.4919   -2.1709 H   0  0  0  0  0  0  0  0  0  0  0  0
   -3.1413   -2.7126   -0.9207 H   0  0  0  0  0  0  0  0  0  0  0  0
   -4.5871   -2.1733   -0.0027 H   0  0  0  0  0  0  0  0  0  0  0  0
   -3.1270   -2.7460    0.8714 H   0  0  0  0  0  0  0  0  0  0  0  0
   -4.5676    0.0559    1.2326 H   0  0  0  0  0  0  0  0  0  0  0  0
   -3.0614    1.0116    1.3723 H   0  0  0  0  0  0  0  0  0  0  0  0
   -3.2186   -0.5748    2.2041 H   0  0  0  0  0  0  0  0  0  0  0  0
    1.2909   -1.2225    2.1478 H   0  0  0  0  0  0  0  0  0  0  0  0
   -1.1805   -0.8617    2.1809 H   0  0  0  0  0  0  0  0  0  0  0  0
   -1.2187   -0.8357   -2.1881 H   0  0  0  0  0  0  0  0  0  0  0  0
    1.2679   -1.2058   -2.1912 H   0  0  0  0  0  0  0  0  0  0  0  0
    3.5019   -1.4415    1.1223 O   0  0  0  0  0  0  0  0  0  0  0  0
    3.5553   -1.5084   -1.1442 O   0  0  0  0  0  0  0  0  0  0  0  0
  1  6  1  1  0  0  0
  1  7  1  0  0  0  0
  2  5  1  0  0  0  0
  3 13  1  0  0  0  0
  3  2  1  0  0  0  0
  4 17  1  0  0  0  0
  4  2  1  0  0  0  0
  4 18  1  0  0  0  0
  5 20  1  0  0  0  0
  5 21  1  0  0  0  0
  6 26  1  0  0  0  0
  7  8  1  0  0  0  0
  7 22  1  0  0  0  0
  8 23  1  0  0  0  0
  9  2  1  0  0  0  0
  9  8  1  0  0  0  0
 10  9  2  0  0  0  0
 11 10  1  0  0  0  0
 11  1  1  0  0  0  0
 12 26  1  0  0  0  0
 14  3  1  0  0  0  0
 15  3  1  0  0  0  0
 16  4  1  0  0  0  0
 19  5  1  0  0  0  0
 24 10  1  0  0  0  0
 25 11  1  0  0  0  0
 27  6  2  0  0  0  0
M  END
