5,20
 OpenBabel05122313053D

 24 24  0  0  0  0  0  0  0  0999 V2000
    1.4074   -0.2330    2.4909 C   0  0  0  0  0  0  0  0  0  0  0  0
    1.4548    0.8474    2.7537 H   0  0  0  0  0  0  0  0  0  0  0  0
    2.2146   -0.7086    3.0926 H   0  0  0  0  0  0  0  0  0  0  0  0
    0.4279   -0.6133    2.8249 H   0  0  0  0  0  0  0  0  0  0  0  0
    1.6780   -0.4409    1.0330 C   0  0  0  0  0  2  0  0  0  0  0  0
    2.9391    0.0511    0.5226 C   0  0  0  0  0  0  0  0  0  0  0  0
    3.8939    0.9173    1.3148 C   0  0  0  0  0  0  0  0  0  0  0  0
    3.3335    1.7133    1.8515 H   0  0  0  0  0  0  0  0  0  0  0  0
    4.3594    0.3047    2.1199 H   0  0  0  0  0  0  0  0  0  0  0  0
    4.9804    1.5392    0.4267 C   0  0  0  0  0  0  0  0  0  0  0  0
    4.5335    2.3578   -0.1804 H   0  0  0  0  0  0  0  0  0  0  0  0
    5.7618    2.0064    1.0582 H   0  0  0  0  0  0  0  0  0  0  0  0
    5.5916    0.4935   -0.5103 C   0  0  0  0  0  0  0  0  0  0  0  0
    6.0332   -0.3294    0.0927 H   0  0  0  0  0  0  0  0  0  0  0  0
    6.4211    0.9281   -1.1022 H   0  0  0  0  0  0  0  0  0  0  0  0
    4.5240   -0.0804   -1.4515 C   0  0  0  0  0  0  0  0  0  0  0  0
    4.3004    0.6400   -2.2745 H   0  0  0  0  0  0  0  0  0  0  0  0
    4.8795   -0.9941   -1.9765 H   0  0  0  0  0  0  0  0  0  0  0  0
    3.2266   -0.3686   -0.7619 C   0  0  0  0  0  0  0  0  0  0  0  0
    2.1818   -1.1661   -1.4304 C   0  0  0  0  0  3  0  0  0  0  0  0
    2.5452   -2.1015   -1.8932 H   0  0  0  0  0  0  0  0  0  0  0  0
    1.0213   -0.5677   -2.0303 C   0  0  0  0  0  3  0  0  0  0  0  0
    0.5865   -1.0810   -2.9037 H   0  0  0  0  0  0  0  0  0  0  0  0
    0.9385    0.5293   -2.0649 H   0  0  0  0  0  0  0  0  0  0  0  0
  1  2  1  0  0  0  0
  1  4  1  0  0  0  0
  1  3  1  0  0  0  0
  5  1  1  0  0  0  0
  6  5  1  0  0  0  0
  6  7  1  0  0  0  0
  7  8  1  0  0  0  0
  7  9  1  0  0  0  0
 10 12  1  0  0  0  0
 10  7  1  0  0  0  0
 11 10  1  0  0  0  0
 13 14  1  0  0  0  0
 13 10  1  0  0  0  0
 15 13  1  0  0  0  0
 16 19  1  0  0  0  0
 16 13  1  0  0  0  0
 17 16  1  0  0  0  0
 18 16  1  0  0  0  0
 19  6  2  0  0  0  0
 20 19  1  0  0  0  0
 21 20  1  0  0  0  0
 22 20  1  0  0  0  0
 23 22  1  0  0  0  0
 24 22  1  0  0  0  0
M  END
