1,34
 OpenBabel05122313053D

 49 51  0  0  0  0  0  0  0  0999 V2000
    0.7045    0.2356    1.5070 C   0  0  0  0  0  3  0  0  0  0  0  0
    0.0744    0.4798    2.7439 C   0  0  0  0  0  0  0  0  0  0  0  0
   -0.9988    0.7175    2.7863 H   0  0  0  0  0  0  0  0  0  0  0  0
    0.7910    0.4083    3.9518 C   0  0  0  0  0  0  0  0  0  0  0  0
    0.2678    0.6070    4.9001 H   0  0  0  0  0  0  0  0  0  0  0  0
    2.1568    0.0786    3.9671 C   0  0  0  0  0  0  0  0  0  0  0  0
    2.7035    0.0171    4.9194 H   0  0  0  0  0  0  0  0  0  0  0  0
    2.8227   -0.1546    2.7561 C   0  0  0  0  0  0  0  0  0  0  0  0
    3.8992   -0.3854    2.7385 H   0  0  0  0  0  0  0  0  0  0  0  0
    2.0943   -0.0610    1.5569 C   0  0  0  0  0  0  0  0  0  0  0  0
    2.8032   -0.2296   -0.0854 P   0  0  0  0  0  4  0  0  0  0  0  0
    2.3433   -1.8496   -0.7781 C   0  0  0  0  0  0  0  0  0  0  0  0
    1.9321   -2.8819    0.0894 C   0  0  0  0  0  0  0  0  0  0  0  0
    1.9066   -2.7059    1.1755 H   0  0  0  0  0  0  0  0  0  0  0  0
    1.5407   -4.1203   -0.4394 C   0  0  0  0  0  0  0  0  0  0  0  0
    1.2117   -4.9231    0.2368 H   0  0  0  0  0  0  0  0  0  0  0  0
    1.5628   -4.3324   -1.8272 C   0  0  0  0  0  0  0  0  0  0  0  0
    1.2503   -5.3037   -2.2388 H   0  0  0  0  0  0  0  0  0  0  0  0
    1.9820   -3.3068   -2.6910 C   0  0  0  0  0  0  0  0  0  0  0  0
    2.0010   -3.4719   -3.7785 H   0  0  0  0  0  0  0  0  0  0  0  0
    2.3753   -2.0651   -2.1716 C   0  0  0  0  0  0  0  0  0  0  0  0
    2.6988   -1.2671   -2.8568 H   0  0  0  0  0  0  0  0  0  0  0  0
    4.6115   -0.0954   -0.0494 C   0  0  0  0  0  0  0  0  0  0  0  0
    5.4296   -1.1669   -0.4644 C   0  0  0  0  0  0  0  0  0  0  0  0
    4.9784   -2.1011   -0.8306 H   0  0  0  0  0  0  0  0  0  0  0  0
    6.8247   -1.0352   -0.4042 C   0  0  0  0  0  0  0  0  0  0  0  0
    7.4653   -1.8694   -0.7263 H   0  0  0  0  0  0  0  0  0  0  0  0
    7.3999    0.1554    0.0674 C   0  0  0  0  0  0  0  0  0  0  0  0
    8.4949    0.2538    0.1133 H   0  0  0  0  0  0  0  0  0  0  0  0
    6.5828    1.2212    0.4817 C   0  0  0  0  0  0  0  0  0  0  0  0
    7.0368    2.1526    0.8516 H   0  0  0  0  0  0  0  0  0  0  0  0
    5.1876    1.1051    0.4274 C   0  0  0  0  0  0  0  0  0  0  0  0
    4.5360    1.9340    0.7451 H   0  0  0  0  0  0  0  0  0  0  0  0
    1.8867    0.9811   -1.0459 C   0  0  0  0  0  3  0  0  0  0  0  0
    1.7854    0.7545   -2.1208 H   0  0  0  0  0  0  0  0  0  0  0  0
    1.9337    2.3882   -0.6685 C   0  0  0  0  0  0  0  0  0  0  0  0
    2.4799    2.8765    0.3285 O   0  0  0  0  0  0  0  0  0  0  0  0
    1.1635    3.3118   -1.6394 C   0  0  0  0  0  0  0  0  0  0  0  0
    0.5639    2.7388   -2.3791 H   0  0  0  0  0  0  0  0  0  0  0  0
    1.8786    4.0009   -2.1320 H   0  0  0  0  0  0  0  0  0  0  0  0
   -0.0098    4.4404   -0.7568 S   0  0  0  0  0  3  0  0  0  0  0  0
   -0.3570    3.6290    0.8249 C   0  0  0  0  0  0  0  0  0  0  0  0
   -1.1918    4.1956    1.2769 H   0  0  0  0  0  0  0  0  0  0  0  0
    0.5669    3.6992    1.4254 H   0  0  0  0  0  0  0  0  0  0  0  0
   -0.6236    2.5640    0.6407 H   0  0  0  0  0  0  0  0  0  0  0  0
   -1.5566    4.1269   -1.6557 C   0  0  0  0  0  0  0  0  0  0  0  0
   -1.6826    3.0322   -1.8097 H   0  0  0  0  0  0  0  0  0  0  0  0
   -1.4803    4.6571   -2.6231 H   0  0  0  0  0  0  0  0  0  0  0  0
   -2.3758    4.5559   -1.0486 H   0  0  0  0  0  0  0  0  0  0  0  0
  1 10  2  0  0  0  0
  1  2  1  0  0  0  0
  2  3  1  0  0  0  0
  2  4  2  0  0  0  0
  4  6  1  0  0  0  0
  4  5  1  0  0  0  0
  6  7  1  0  0  0  0
  8  6  2  0  0  0  0
  9  8  1  0  0  0  0
 10  8  1  0  0  0  0
 11 23  1  0  0  0  0
 11 10  1  0  0  0  0
 12 11  1  0  0  0  0
 12 13  1  0  0  0  0
 13 14  1  0  0  0  0
 15 13  2  0  0  0  0
 15 16  1  0  0  0  0
 17 15  1  0  0  0  0
 18 17  1  0  0  0  0
 19 21  1  0  0  0  0
 19 17  2  0  0  0  0
 20 19  1  0  0  0  0
 21 12  2  0  0  0  0
 22 21  1  0  0  0  0
 23 32  1  0  0  0  0
 24 26  1  0  0  0  0
 24 23  2  0  0  0  0
 25 24  1  0  0  0  0
 26 28  2  0  0  0  0
 27 26  1  0  0  0  0
 28 29  1  0  0  0  0
 28 30  1  0  0  0  0
 30 31  1  0  0  0  0
 32 30  2  0  0  0  0
 32 33  1  0  0  0  0
 34 36  1  0  0  0  0
 34 11  1  0  0  0  0
 35 34  1  0  0  0  0
 36 37  2  0  0  0  0
 38 41  1  0  0  0  0
 38 36  1  0  0  0  0
 39 38  1  0  0  0  0
 40 38  1  0  0  0  0
 41 42  1  0  0  0  0
 42 43  1  0  0  0  0
 42 44  1  0  0  0  0
 45 42  1  0  0  0  0
 46 49  1  0  0  0  0
 46 41  1  0  0  0  0
 47 46  1  0  0  0  0
 48 46  1  0  0  0  0
M  END
