5,8
 OpenBabel05122313053D

 49 52  0  0  0  0  0  0  0  0999 V2000
    0.0475    1.2593    1.7131 S   0  0  0  0  0  1  0  0  0  0  0  0
    0.7199   -2.1937    0.6735 S   0  0  0  0  0  1  0  0  0  0  0  0
   -0.9923    1.5518   -0.0008 P   0  0  2  0  0  4  0  0  0  0  0  0
   -1.0790   -1.5815   -0.0309 P   0  0  0  0  0  4  0  0  0  0  0  0
   -0.7826   -0.0136   -0.8665 C   0  0  0  0  0  3  0  0  0  0  0  0
   -1.0235   -0.0068   -1.9443 H   0  0  0  0  0  0  0  0  0  0  0  0
   -0.0166    2.6225   -1.0859 C   0  0  0  0  0  0  0  0  0  0  0  0
    1.2479    1.9803   -1.2743 C   0  0  0  0  0  3  0  0  0  0  0  0
    2.2026    2.6949   -2.0292 C   0  0  0  0  0  0  0  0  0  0  0  0
    3.1965    2.2615   -2.2220 H   0  0  0  0  0  0  0  0  0  0  0  0
    1.9008    3.9652   -2.5525 C   0  0  0  0  0  0  0  0  0  0  0  0
    2.6644    4.4988   -3.1410 H   0  0  0  0  0  0  0  0  0  0  0  0
    0.6473    4.5688   -2.3420 C   0  0  0  0  0  0  0  0  0  0  0  0
    0.4342    5.5649   -2.7580 H   0  0  0  0  0  0  0  0  0  0  0  0
   -0.3282    3.8924   -1.5921 C   0  0  0  0  0  0  0  0  0  0  0  0
   -1.3123    4.3488   -1.3992 H   0  0  0  0  0  0  0  0  0  0  0  0
   -2.7049    2.1386    0.2238 C   0  0  0  0  0  0  0  0  0  0  0  0
   -3.5276    2.3444   -0.9033 C   0  0  0  0  0  0  0  0  0  0  0  0
   -3.1183    2.2136   -1.9179 H   0  0  0  0  0  0  0  0  0  0  0  0
   -4.8682    2.7156   -0.7258 C   0  0  0  0  0  0  0  0  0  0  0  0
   -5.5129    2.8796   -1.6028 H   0  0  0  0  0  0  0  0  0  0  0  0
   -5.3864    2.8795    0.5707 C   0  0  0  0  0  0  0  0  0  0  0  0
   -6.4397    3.1690    0.7067 H   0  0  0  0  0  0  0  0  0  0  0  0
   -4.5649    2.6739    1.6907 C   0  0  0  0  0  0  0  0  0  0  0  0
   -4.9733    2.7952    2.7054 H   0  0  0  0  0  0  0  0  0  0  0  0
   -3.2240    2.3004    1.5202 C   0  0  0  0  0  0  0  0  0  0  0  0
   -2.5698    2.1093    2.3861 H   0  0  0  0  0  0  0  0  0  0  0  0
   -2.3588   -1.4279    1.2769 C   0  0  0  0  0  0  0  0  0  0  0  0
   -3.6921   -1.1279    0.9334 C   0  0  0  0  0  0  0  0  0  0  0  0
   -3.9915   -1.0284   -0.1202 H   0  0  0  0  0  0  0  0  0  0  0  0
   -4.6462   -0.9431    1.9434 C   0  0  0  0  0  0  0  0  0  0  0  0
   -5.6840   -0.6973    1.6731 H   0  0  0  0  0  0  0  0  0  0  0  0
   -4.2745   -1.0621    3.2926 C   0  0  0  0  0  0  0  0  0  0  0  0
   -5.0256   -0.9163    4.0840 H   0  0  0  0  0  0  0  0  0  0  0  0
   -2.9461   -1.3657    3.6323 C   0  0  0  0  0  0  0  0  0  0  0  0
   -2.6528   -1.4569    4.6890 H   0  0  0  0  0  0  0  0  0  0  0  0
   -1.9847   -1.5448    2.6271 C   0  0  0  0  0  0  0  0  0  0  0  0
   -0.9326   -1.7635    2.8668 H   0  0  0  0  0  0  0  0  0  0  0  0
   -1.7831   -2.7354   -1.2690 C   0  0  0  0  0  0  0  0  0  0  0  0
   -1.3894   -4.0861   -1.2422 C   0  0  0  0  0  0  0  0  0  0  0  0
   -0.6309   -4.4065   -0.5104 H   0  0  0  0  0  0  0  0  0  0  0  0
   -1.9418   -4.9926   -2.1582 C   0  0  0  0  0  0  0  0  0  0  0  0
   -1.6309   -6.0480   -2.1361 H   0  0  0  0  0  0  0  0  0  0  0  0
   -2.8787   -4.5538   -3.1080 C   0  0  0  0  0  0  0  0  0  0  0  0
   -3.3057   -5.2659   -3.8303 H   0  0  0  0  0  0  0  0  0  0  0  0
   -3.2611   -3.2034   -3.1456 C   0  0  0  0  0  0  0  0  0  0  0  0
   -3.9841   -2.8541   -3.8982 H   0  0  0  0  0  0  0  0  0  0  0  0
   -2.7149   -2.2920   -2.2294 C   0  0  0  0  0  0  0  0  0  0  0  0
   -3.0077   -1.2313   -2.2737 H   0  0  0  0  0  0  0  0  0  0  0  0
  3 17  1  0  0  0  0
  3  1  1  1  0  0  0
  4  2  1  0  0  0  0
  4 28  1  0  0  0  0
  5  4  1  0  0  0  0
  5  3  1  0  0  0  0
  6  5  1  0  0  0  0
  7  3  1  0  0  0  0
  8  7  1  0  0  0  0
  9  8  2  0  0  0  0
 10  9  1  0  0  0  0
 11 13  2  0  0  0  0
 11  9  1  0  0  0  0
 12 11  1  0  0  0  0
 13 15  1  0  0  0  0
 14 13  1  0  0  0  0
 15 16  1  0  0  0  0
 15  7  2  0  0  0  0
 17 26  1  0  0  0  0
 18 20  1  0  0  0  0
 18 17  2  0  0  0  0
 19 18  1  0  0  0  0
 20 22  2  0  0  0  0
 21 20  1  0  0  0  0
 22 23  1  0  0  0  0
 22 24  1  0  0  0  0
 24 25  1  0  0  0  0
 26 24  2  0  0  0  0
 26 27  1  0  0  0  0
 28 37  1  0  0  0  0
 29 28  2  0  0  0  0
 29 31  1  0  0  0  0
 30 29  1  0  0  0  0
 31 33  2  0  0  0  0
 32 31  1  0  0  0  0
 33 35  1  0  0  0  0
 33 34  1  0  0  0  0
 35 36  1  0  0  0  0
 37 38  1  0  0  0  0
 37 35  2  0  0  0  0
 39 40  1  0  0  0  0
 39  4  1  0  0  0  0
 40 41  1  0  0  0  0
 42 43  1  0  0  0  0
 42 40  2  0  0  0  0
 44 42  1  0  0  0  0
 45 44  1  0  0  0  0
 46 44  2  0  0  0  0
 46 48  1  0  0  0  0
 47 46  1  0  0  0  0
 48 39  2  0  0  0  0
 49 48  1  0  0  0  0
M  END
