31,58
 OpenBabel05122313053D

 78 84  0  0  0  0  0  0  0  0999 V2000
   -2.1159    2.6934    1.1220 O   0  0  0  0  0  0  0  0  0  0  0  0
   -2.0754    0.2389    2.0225 O   0  0  0  0  0  0  0  0  0  0  0  0
   -2.6790    0.5931   -2.2186 N   0  0  0  0  0  0  0  0  0  0  0  0
   -2.1335    2.6204   -1.6970 N   0  0  0  0  0  0  0  0  0  0  0  0
    0.4021   -1.3159    1.8964 N   0  0  0  0  0  0  0  0  0  0  0  0
    2.2113   -0.1391    1.7408 N   0  0  0  0  0  0  0  0  0  0  0  0
   -4.4071   -0.4501   -0.2255 C   0  0  0  0  0  0  0  0  0  0  0  0
   -4.3778    0.6276   -0.4399 H   0  0  0  0  0  0  0  0  0  0  0  0
   -5.2362   -0.9090    0.8309 C   0  0  0  0  0  0  0  0  0  0  0  0
   -5.8257   -0.1806    1.4069 H   0  0  0  0  0  0  0  0  0  0  0  0
   -5.2933   -2.2586    1.1375 C   0  0  0  0  0  0  0  0  0  0  0  0
   -5.9398   -2.6240    1.9507 H   0  0  0  0  0  0  0  0  0  0  0  0
   -4.4976   -3.1982    0.4165 C   0  0  0  0  0  0  0  0  0  0  0  0
   -4.5036   -4.5858    0.7448 C   0  0  0  0  0  0  0  0  0  0  0  0
   -5.1585   -4.9297    1.5609 H   0  0  0  0  0  0  0  0  0  0  0  0
   -3.7006   -5.4851    0.0588 C   0  0  0  0  0  0  0  0  0  0  0  0
   -3.7132   -6.5526    0.3264 H   0  0  0  0  0  0  0  0  0  0  0  0
   -2.8550   -5.0283   -0.9851 C   0  0  0  0  0  0  0  0  0  0  0  0
   -2.2017   -5.7385   -1.5135 H   0  0  0  0  0  0  0  0  0  0  0  0
   -2.8310   -3.6862   -1.3396 C   0  0  0  0  0  0  0  0  0  0  0  0
   -2.1344   -3.3567   -2.1243 H   0  0  0  0  0  0  0  0  0  0  0  0
   -3.6479   -2.7338   -0.6579 C   0  0  0  0  0  0  0  0  0  0  0  0
   -3.6388   -1.3309   -0.9811 C   0  0  0  0  0  0  0  0  0  0  0  0
   -2.7909   -0.8577   -2.1464 C   0  0  0  0  0  0  0  0  0  0  0  0
   -1.7524   -1.2688   -2.0911 H   0  0  0  0  0  0  0  0  0  0  0  0
   -3.2113   -1.2198   -3.1078 H   0  0  0  0  0  0  0  0  0  0  0  0
   -3.6060    1.4229   -2.8352 C   0  0  0  0  0  0  0  0  0  0  0  0
   -4.4185    1.0298   -3.4529 H   0  0  0  0  0  0  0  0  0  0  0  0
   -3.2610    2.7075   -2.5040 C   0  0  0  0  0  0  0  0  0  0  0  0
   -3.7075    3.6667   -2.7821 H   0  0  0  0  0  0  0  0  0  0  0  0
   -1.7632    1.3200   -1.5195 C   0  0  0  0  0  2  0  0  0  0  0  0
   -1.5715    3.7383   -0.9464 C   0  0  0  0  0  0  0  0  0  0  0  0
   -1.6859    4.6635   -1.5435 H   0  0  0  0  0  0  0  0  0  0  0  0
   -0.4797    3.5564   -0.8286 H   0  0  0  0  0  0  0  0  0  0  0  0
   -2.2787    3.8990    0.3959 C   0  0  0  0  0  0  0  0  0  0  0  0
   -1.8379    4.7642    0.9429 H   0  0  0  0  0  0  0  0  0  0  0  0
   -3.3631    4.1082    0.2403 H   0  0  0  0  0  0  0  0  0  0  0  0
   -2.9528    2.4292    2.1658 C   0  0  0  0  0  0  0  0  0  0  0  0
   -3.8041    3.3702    2.7639 C   0  0  0  0  0  0  0  0  0  0  0  0
   -3.8063    4.4097    2.4088 H   0  0  0  0  0  0  0  0  0  0  0  0
   -4.6490    2.9972    3.8270 C   0  0  0  0  0  0  0  0  0  0  0  0
   -5.3090    3.7492    4.2834 H   0  0  0  0  0  0  0  0  0  0  0  0
   -4.6400    1.6812    4.2956 C   0  0  0  0  0  0  0  0  0  0  0  0
   -5.2987    1.3789    5.1230 H   0  0  0  0  0  0  0  0  0  0  0  0
   -3.7831    0.7289    3.7110 C   0  0  0  0  0  0  0  0  0  0  0  0
   -3.7932   -0.3052    4.0788 H   0  0  0  0  0  0  0  0  0  0  0  0
   -2.9328    1.0874    2.6533 C   0  0  0  0  0  0  0  0  0  0  0  0
   -2.0095   -1.1076    2.4655 C   0  0  0  0  0  0  0  0  0  0  0  0
   -2.9854   -1.6190    2.3102 H   0  0  0  0  0  0  0  0  0  0  0  0
   -1.7635   -1.1429    3.5528 H   0  0  0  0  0  0  0  0  0  0  0  0
   -0.9415   -1.8325    1.6619 C   0  0  0  0  0  0  0  0  0  0  0  0
   -0.9530   -2.9063    1.9304 H   0  0  0  0  0  0  0  0  0  0  0  0
   -1.1406   -1.7799    0.5727 H   0  0  0  0  0  0  0  0  0  0  0  0
    1.2776   -1.8083    2.8534 C   0  0  0  0  0  0  0  0  0  0  0  0
    1.0186   -2.6452    3.5085 H   0  0  0  0  0  0  0  0  0  0  0  0
    2.4255   -1.0674    2.7516 C   0  0  0  0  0  0  0  0  0  0  0  0
    3.3806   -1.1391    3.2801 H   0  0  0  0  0  0  0  0  0  0  0  0
    0.9731   -0.2885    1.2015 C   0  0  0  0  0  2  0  0  0  0  0  0
    3.2561    0.7760    1.2484 C   0  0  0  0  0  0  0  0  0  0  0  0
    3.5732    1.4159    2.0929 H   0  0  0  0  0  0  0  0  0  0  0  0
    2.7827    1.4337    0.4889 H   0  0  0  0  0  0  0  0  0  0  0  0
    4.4046    0.0105    0.6294 C   0  0  0  0  0  0  0  0  0  0  0  0
    4.2450   -0.4677   -0.6691 C   0  0  0  0  0  0  0  0  0  0  0  0
    3.3181   -0.2458   -1.2210 H   0  0  0  0  0  0  0  0  0  0  0  0
    5.2512   -1.2465   -1.2924 C   0  0  0  0  0  0  0  0  0  0  0  0
    5.0844   -1.6144   -2.3155 H   0  0  0  0  0  0  0  0  0  0  0  0
    6.4230   -1.5414   -0.6154 C   0  0  0  0  0  0  0  0  0  0  0  0
    7.2106   -2.1468   -1.0910 H   0  0  0  0  0  0  0  0  0  0  0  0
    6.6340   -1.0716    0.7136 C   0  0  0  0  0  0  0  0  0  0  0  0
    7.8329   -1.3725    1.4249 C   0  0  0  0  0  0  0  0  0  0  0  0
    8.6035   -1.9744    0.9180 H   0  0  0  0  0  0  0  0  0  0  0  0
    8.0325   -0.9251    2.7215 C   0  0  0  0  0  0  0  0  0  0  0  0
    8.9635   -1.1673    3.2558 H   0  0  0  0  0  0  0  0  0  0  0  0
    7.0311   -0.1477    3.3599 C   0  0  0  0  0  0  0  0  0  0  0  0
    7.1916    0.2142    4.3870 H   0  0  0  0  0  0  0  0  0  0  0  0
    5.8537    0.1657    2.6948 C   0  0  0  0  0  0  0  0  0  0  0  0
    5.1018    0.7812    3.2105 H   0  0  0  0  0  0  0  0  0  0  0  0
    5.6088   -0.2797    1.3591 C   0  0  0  0  0  0  0  0  0  0  0  0
  1 38  1  0  0  0  0
  2 48  1  0  0  0  0
  2 47  1  0  0  0  0
  3 24  1  0  0  0  0
  3 31  1  0  0  0  0
  4 31  1  0  0  0  0
  4 32  1  0  0  0  0
  5 54  1  0  0  0  0
  6 56  1  0  0  0  0
  7  9  1  0  0  0  0
  8  7  1  0  0  0  0
  9 11  2  0  0  0  0
  9 10  1  0  0  0  0
 11 12  1  0  0  0  0
 13 14  1  0  0  0  0
 13 11  1  0  0  0  0
 14 15  1  0  0  0  0
 16 17  1  0  0  0  0
 16 14  2  0  0  0  0
 18 16  1  0  0  0  0
 19 18  1  0  0  0  0
 20 18  2  0  0  0  0
 20 22  1  0  0  0  0
 21 20  1  0  0  0  0
 22 13  2  0  0  0  0
 23 22  1  0  0  0  0
 23  7  2  0  0  0  0
 24 25  1  0  0  0  0
 24 23  1  0  0  0  0
 26 24  1  0  0  0  0
 27 29  2  0  0  0  0
 27  3  1  0  0  0  0
 28 27  1  0  0  0  0
 29  4  1  0  0  0  0
 30 29  1  0  0  0  0
 32 34  1  0  0  0  0
 32 35  1  0  0  0  0
 33 32  1  0  0  0  0
 35 36  1  0  0  0  0
 35  1  1  0  0  0  0
 37 35  1  0  0  0  0
 38 47  2  0  0  0  0
 38 39  1  0  0  0  0
 39 41  2  0  0  0  0
 40 39  1  0  0  0  0
 41 42  1  0  0  0  0
 41 43  1  0  0  0  0
 43 44  1  0  0  0  0
 45 46  1  0  0  0  0
 45 43  2  0  0  0  0
 47 45  1  0  0  0  0
 48 50  1  0  0  0  0
 49 48  1  0  0  0  0
 51  5  1  0  0  0  0
 51 52  1  0  0  0  0
 51 48  1  0  0  0  0
 53 51  1  0  0  0  0
 54 55  1  0  0  0  0
 56 54  2  0  0  0  0
 56 57  1  0  0  0  0
 58  6  1  0  0  0  0
 58  5  1  0  0  0  0
 59  6  1  0  0  0  0
 59 60  1  0  0  0  0
 61 59  1  0  0  0  0
 62 59  1  0  0  0  0
 62 78  1  0  0  0  0
 63 62  2  0  0  0  0
 64 63  1  0  0  0  0
 65 63  1  0  0  0  0
 65 67  2  0  0  0  0
 66 65  1  0  0  0  0
 67 69  1  0  0  0  0
 68 67  1  0  0  0  0
 69 78  2  0  0  0  0
 69 70  1  0  0  0  0
 70 72  2  0  0  0  0
 71 70  1  0  0  0  0
 72 73  1  0  0  0  0
 72 74  1  0  0  0  0
 74 75  1  0  0  0  0
 76 77  1  0  0  0  0
 76 74  2  0  0  0  0
 78 76  1  0  0  0  0
M  END
