11,12
 OpenBabel05122313053D

 16 16  0  0  0  0  0  0  0  0999 V2000
   -0.0047   -0.1275   -3.2996 O   0  0  0  0  0  0  0  0  0  0  0  0
   -1.2963   -0.2510   -2.7950 N   0  0  0  0  0  0  0  0  0  0  0  0
   -4.3077   -0.4285    2.3076 F   0  0  0  0  0  0  0  0  0  0  0  0
   -3.9229   -0.1275   -1.8008 C   0  0  0  0  0  0  0  0  0  0  0  0
   -5.1804   -0.3482   -1.2282 C   0  0  0  0  0  0  0  0  0  0  0  0
   -5.3333   -0.4521    0.1668 C   0  0  0  0  0  0  0  0  0  0  0  0
   -4.1902   -0.3235    0.9622 C   0  0  0  0  0  0  0  0  0  0  0  0
   -2.9272   -0.0912    0.4141 C   0  0  0  0  0  0  0  0  0  0  0  0
   -2.7720    0.0034   -0.9840 C   0  0  0  0  0  0  0  0  0  0  0  0
    2.0927    0.4415   -2.7717 O   0  0  0  0  0  0  0  0  0  0  0  0
    0.9345    0.4040   -2.4035 C   0  0  0  0  0  3  0  0  0  0  0  0
   -1.4221    0.1865   -1.5766 C   0  0  0  0  0  3  0  0  0  0  0  0
   -3.7979   -0.0507   -2.8893 H   0  0  0  0  0  0  0  0  0  0  0  0
   -6.0672   -0.4378   -1.8753 H   0  0  0  0  0  0  0  0  0  0  0  0
   -6.3112   -0.6224    0.6395 H   0  0  0  0  0  0  0  0  0  0  0  0
   -2.0627    0.0014    1.0803 H   0  0  0  0  0  0  0  0  0  0  0  0
  1  2  1  0  0  0  0
  1 11  1  0  0  0  0
  2 12  2  0  0  0  0
  4  5  2  0  0  0  0
  4  9  1  0  0  0  0
  5  6  1  0  0  0  0
  6 15  1  0  0  0  0
  6  7  2  0  0  0  0
  7  3  1  0  0  0  0
  8  7  1  0  0  0  0
  8 16  1  0  0  0  0
  9  8  2  0  0  0  0
 10 11  2  0  0  0  0
 12  9  1  0  0  0  0
 13  4  1  0  0  0  0
 14  5  1  0  0  0  0
M  END
