7,9
 OpenBabel05122313053D

 33 34  0  0  1  0  0  0  0  0999 V2000
    1.9013   -0.9642    0.7048 C   0  0  2  0  0  0  0  0  0  0  0  0
    3.2309   -0.4354    0.0912 C   0  0  0  0  0  0  0  0  0  0  0  0
    2.9687    0.9712   -0.4842 C   0  0  0  0  0  0  0  0  0  0  0  0
    1.9539    0.9565   -1.6277 C   0  0  0  0  0  0  0  0  0  0  0  0
    0.7254    0.1315   -1.3250 C   0  0  0  0  0  0  0  0  0  0  0  0
   -0.4436    0.2654   -2.1345 C   0  0  0  0  0  0  0  0  0  0  0  0
   -1.6063   -0.4996   -1.8623 C   0  0  0  0  0  3  0  0  0  0  0  0
   -1.6180   -1.4662   -0.8152 C   0  0  1  0  0  3  0  0  0  0  0  0
   -0.4730   -1.5546    0.0278 C   0  0  0  0  0  3  0  0  0  0  0  0
    0.7199   -0.8134   -0.2493 C   0  0  2  0  0  3  0  0  0  0  0  0
    4.2974   -0.3563    1.1915 C   0  0  0  0  0  0  0  0  0  0  0  0
    3.6948   -1.4145   -1.0024 C   0  0  0  0  0  0  0  0  0  0  0  0
   -2.9473   -2.8810    0.5597 C   0  0  0  0  0  0  0  0  0  0  0  0
    1.5957   -0.3890    1.9669 O   0  0  0  0  0  0  0  0  0  0  0  0
   -2.7514   -2.1885   -0.6673 O   0  0  0  0  0  0  0  0  0  0  0  0
    2.0420   -2.0542    0.8939 H   0  0  0  0  0  0  0  0  0  0  0  0
    3.9210    1.4204   -0.8348 H   0  0  0  0  0  0  0  0  0  0  0  0
    2.6004    1.6240    0.3354 H   0  0  0  0  0  0  0  0  0  0  0  0
    2.4187    0.5327   -2.5452 H   0  0  0  0  0  0  0  0  0  0  0  0
    1.6447    1.9876   -1.8933 H   0  0  0  0  0  0  0  0  0  0  0  0
   -0.4641    1.0174   -2.9351 H   0  0  0  0  0  0  0  0  0  0  0  0
   -2.5248   -0.3636   -2.4497 H   0  0  0  0  0  0  0  0  0  0  0  0
   -0.4706   -2.2185    0.9025 H   0  0  0  0  0  0  0  0  0  0  0  0
    3.9777    0.3275    1.9999 H   0  0  0  0  0  0  0  0  0  0  0  0
    4.4753   -1.3525    1.6468 H   0  0  0  0  0  0  0  0  0  0  0  0
    5.2588    0.0052    0.7732 H   0  0  0  0  0  0  0  0  0  0  0  0
    4.5954   -1.0270   -1.5216 H   0  0  0  0  0  0  0  0  0  0  0  0
    3.9612   -2.3950   -0.5574 H   0  0  0  0  0  0  0  0  0  0  0  0
    2.9171   -1.6043   -1.7698 H   0  0  0  0  0  0  0  0  0  0  0  0
   -2.8813   -2.1856    1.4247 H   0  0  0  0  0  0  0  0  0  0  0  0
   -3.9637   -3.3119    0.5122 H   0  0  0  0  0  0  0  0  0  0  0  0
   -2.2133   -3.7056    0.6919 H   0  0  0  0  0  0  0  0  0  0  0  0
    0.9577    0.3361    1.7867 H   0  0  0  0  0  0  0  0  0  0  0  0
  1 16  1  1  0  0  0
  1 14  1  0  0  0  0
  2  1  1  0  0  0  0
  2 11  1  0  0  0  0
  3  2  1  0  0  0  0
  3 18  1  0  0  0  0
  4  5  1  0  0  0  0
  4  3  1  0  0  0  0
  6  7  1  0  0  0  0
  6  5  2  0  0  0  0
  7  8  1  0  0  0  0
  8 15  1  1  0  0  0
  8  9  1  0  0  0  0
  9 23  1  0  0  0  0
 10  5  1  1  0  0  0
 10  9  1  0  0  0  0
 10  1  1  0  0  0  0
 11 25  1  0  0  0  0
 11 24  1  0  0  0  0
 12 28  1  0  0  0  0
 12  2  1  0  0  0  0
 13 32  1  0  0  0  0
 13 30  1  0  0  0  0
 15 13  1  0  0  0  0
 17  3  1  0  0  0  0
 19  4  1  0  0  0  0
 20  4  1  0  0  0  0
 21  6  1  0  0  0  0
 22  7  1  0  0  0  0
 26 11  1  0  0  0  0
 27 12  1  0  0  0  0
 29 12  1  0  0  0  0
 31 13  1  0  0  0  0
 33 14  1  0  0  0  0
M  END
