2,10
 OpenBabel05122313053D

 25 25  0  0  1  0  0  0  0  0999 V2000
   -3.7492    1.1959    0.0206 O   0  0  0  0  0  0  0  0  0  0  0  0
   -0.6369   -1.9897    0.6293 C   0  0  0  0  0  3  0  0  0  0  0  0
    0.1578   -2.5476    1.1629 H   0  0  0  0  0  0  0  0  0  0  0  0
   -1.8283   -1.7405    1.5332 C   0  0  0  0  0  0  0  0  0  0  0  0
   -1.4376   -1.2774    2.4664 H   0  0  0  0  0  0  0  0  0  0  0  0
   -2.2309   -2.7321    1.8487 H   0  0  0  0  0  0  0  0  0  0  0  0
   -2.9812   -0.8862    0.9999 C   0  0  0  0  0  0  0  0  0  0  0  0
   -3.5327   -1.4110    0.1951 H   0  0  0  0  0  0  0  0  0  0  0  0
   -3.7150   -0.7517    1.8227 H   0  0  0  0  0  0  0  0  0  0  0  0
   -1.5976    0.4855   -0.7058 C   0  0  0  0  0  3  0  0  0  0  0  0
   -1.5039    1.5450   -1.0221 H   0  0  0  0  0  0  0  0  0  0  0  0
   -2.0530   -0.3469   -1.9143 C   0  0  0  0  0  0  0  0  0  0  0  0
   -3.1292   -0.1570   -2.1218 H   0  0  0  0  0  0  0  0  0  0  0  0
   -1.4932    0.0145   -2.8002 H   0  0  0  0  0  0  0  0  0  0  0  0
   -4.4775    1.8359    1.0366 C   0  0  0  0  0  0  0  0  0  0  0  0
   -4.8991    1.1275    1.7921 H   0  0  0  0  0  0  0  0  0  0  0  0
   -5.3259    2.3652    0.5585 H   0  0  0  0  0  0  0  0  0  0  0  0
   -3.8602    2.5870    1.5889 H   0  0  0  0  0  0  0  0  0  0  0  0
   -2.5768    0.4983    0.4725 C   0  0  1  0  0  0  0  0  0  0  0  0
   -2.1054    1.0827    1.3007 H   0  0  0  0  0  0  0  0  0  0  0  0
   -0.5898   -2.0972   -0.7923 C   0  0  0  0  0  3  0  0  0  0  0  0
    0.2153   -2.7324   -1.2009 H   0  0  0  0  0  0  0  0  0  0  0  0
   -1.7652   -1.8549   -1.7339 C   0  0  0  0  0  0  0  0  0  0  0  0
   -2.6597   -2.3914   -1.3527 H   0  0  0  0  0  0  0  0  0  0  0  0
   -1.5358   -2.3154   -2.7155 H   0  0  0  0  0  0  0  0  0  0  0  0
  1 19  1  0  0  0  0
  1 15  1  0  0  0  0
  2  3  1  0  0  0  0
  2  4  1  0  0  0  0
  4  6  1  0  0  0  0
  4  5  1  0  0  0  0
  7  4  1  0  0  0  0
  7  9  1  0  0  0  0
  8  7  1  0  0  0  0
 10 19  1  0  0  0  0
 11 10  1  0  0  0  0
 12 23  1  0  0  0  0
 12 10  1  0  0  0  0
 13 12  1  0  0  0  0
 14 12  1  0  0  0  0
 15 18  1  0  0  0  0
 15 16  1  0  0  0  0
 17 15  1  0  0  0  0
 19  7  1  0  0  0  0
 19 20  1  1  0  0  0
 21  2  1  0  0  0  0
 22 21  1  0  0  0  0
 23 24  1  0  0  0  0
 23 21  1  0  0  0  0
 25 23  1  0  0  0  0
M  END
