3,5
 OpenBabel05122313053D

 68 70  0  0  1  0  0  0  0  0999 V2000
    0.2527    0.0650   -0.4377 C   0  0  0  0  0  0  0  0  0  0  0  0
   -0.9432    0.7955   -0.7735 C   0  0  1  0  0  3  0  0  0  0  0  0
   -2.1228    0.0881   -1.1253 C   0  0  1  0  0  3  0  0  0  0  0  0
   -2.1249   -1.3469   -1.1083 C   0  0  1  0  0  3  0  0  0  0  0  0
   -0.9723   -2.0807   -0.6946 C   0  0  2  0  0  3  0  0  0  0  0  0
    0.2502   -1.3673   -0.3804 C   0  0  0  0  0  0  0  0  0  0  0  0
   -0.9965    2.2999   -0.7313 C   0  0  0  0  0  0  0  0  0  0  0  0
   -2.3571    2.8425   -0.3364 C   0  0  0  0  0  0  0  0  0  0  0  0
   -2.3109    4.1090    0.4708 C   0  0  0  0  0  0  0  0  0  0  0  0
   -3.4803    2.1778   -0.7057 C   0  0  0  0  0  0  0  0  0  0  0  0
   -3.3589    0.8760   -1.4784 C   0  0  0  0  0  0  0  0  0  0  0  0
   -4.8896    2.5927   -0.3910 C   0  0  0  0  0  0  0  0  0  0  0  0
    1.5256   -2.1216   -0.1811 C   0  0  0  0  0  0  0  0  0  0  0  0
    2.3208   -2.0933    0.9989 C   0  0  0  0  0  0  0  0  0  0  0  0
    3.5227   -2.8345    1.0025 C   0  0  0  0  0  0  0  0  0  0  0  0
    3.9454   -3.5864   -0.1015 C   0  0  0  0  0  0  0  0  0  0  0  0
    3.1568   -3.6135   -1.2603 C   0  0  0  0  0  0  0  0  0  0  0  0
    1.9627   -2.8845   -1.2880 C   0  0  0  0  0  0  0  0  0  0  0  0
    1.9308   -1.3309    2.2347 C   0  0  0  0  0  0  0  0  0  0  0  0
    2.0074    2.3408   -2.4947 C   0  0  0  0  0  0  0  0  0  0  0  0
    3.8301    0.0477   -1.5847 C   0  0  0  0  0  0  0  0  0  0  0  0
    3.5145    2.5746    0.2716 C   0  0  0  0  0  0  0  0  0  0  0  0
    2.4534    3.4720    0.9367 C   0  0  0  0  0  0  0  0  0  0  0  0
    4.5412    3.4440   -0.4821 C   0  0  0  0  0  0  0  0  0  0  0  0
    4.2340    1.7409    1.3494 C   0  0  0  0  0  0  0  0  0  0  0  0
   -1.0515   -3.5828   -0.6032 C   0  0  0  0  0  0  0  0  0  0  0  0
   -3.4051   -2.3632   -2.7884 C   0  0  0  0  0  0  0  0  0  0  0  0
   -3.2893   -2.0160   -1.4121 O   0  0  0  0  0  0  0  0  0  0  0  0
    1.3682    0.7465   -0.1003 O   0  0  0  0  0  0  0  0  0  0  0  0
    2.6820    1.4130   -0.9968 Si  0  0  0  0  0  0  0  0  0  0  0  0
   -0.7249    2.7013   -1.7367 H   0  0  0  0  0  0  0  0  0  0  0  0
   -0.2162    2.6732   -0.0411 H   0  0  0  0  0  0  0  0  0  0  0  0
   -3.3082    4.5438    0.6647 H   0  0  0  0  0  0  0  0  0  0  0  0
   -1.6921    4.8827   -0.0344 H   0  0  0  0  0  0  0  0  0  0  0  0
   -1.8266    3.9134    1.4528 H   0  0  0  0  0  0  0  0  0  0  0  0
   -3.3397    1.0922   -2.5746 H   0  0  0  0  0  0  0  0  0  0  0  0
   -4.2497    0.2392   -1.3119 H   0  0  0  0  0  0  0  0  0  0  0  0
   -4.9580    3.5994    0.0602 H   0  0  0  0  0  0  0  0  0  0  0  0
   -5.3479    1.8682    0.3165 H   0  0  0  0  0  0  0  0  0  0  0  0
   -5.5188    2.5871   -1.3075 H   0  0  0  0  0  0  0  0  0  0  0  0
    4.1410   -2.8167    1.9138 H   0  0  0  0  0  0  0  0  0  0  0  0
    4.8897   -4.1496   -0.0550 H   0  0  0  0  0  0  0  0  0  0  0  0
    3.4723   -4.1913   -2.1420 H   0  0  0  0  0  0  0  0  0  0  0  0
    1.3490   -2.8830   -2.2022 H   0  0  0  0  0  0  0  0  0  0  0  0
    2.7154   -1.4175    3.0103 H   0  0  0  0  0  0  0  0  0  0  0  0
    0.9819   -1.7116    2.6594 H   0  0  0  0  0  0  0  0  0  0  0  0
    1.7668   -0.2592    2.0166 H   0  0  0  0  0  0  0  0  0  0  0  0
    1.2987    1.7036   -3.0629 H   0  0  0  0  0  0  0  0  0  0  0  0
    2.8406    2.6030   -3.1785 H   0  0  0  0  0  0  0  0  0  0  0  0
    1.4848    3.2762   -2.2153 H   0  0  0  0  0  0  0  0  0  0  0  0
    3.3482   -0.5668   -2.3704 H   0  0  0  0  0  0  0  0  0  0  0  0
    4.1212   -0.6325   -0.7608 H   0  0  0  0  0  0  0  0  0  0  0  0
    4.7504    0.4931   -2.0170 H   0  0  0  0  0  0  0  0  0  0  0  0
    2.9394    4.1810    1.6427 H   0  0  0  0  0  0  0  0  0  0  0  0
    1.7156    2.8775    1.5117 H   0  0  0  0  0  0  0  0  0  0  0  0
    1.8975    4.0820    0.1939 H   0  0  0  0  0  0  0  0  0  0  0  0
    5.0718    4.1148    0.2291 H   0  0  0  0  0  0  0  0  0  0  0  0
    4.0613    4.0897   -1.2465 H   0  0  0  0  0  0  0  0  0  0  0  0
    5.3156    2.8325   -0.9916 H   0  0  0  0  0  0  0  0  0  0  0  0
    4.7208    2.4119    2.0912 H   0  0  0  0  0  0  0  0  0  0  0  0
    5.0259    1.0946    0.9181 H   0  0  0  0  0  0  0  0  0  0  0  0
    3.5298    1.0896    1.9042 H   0  0  0  0  0  0  0  0  0  0  0  0
   -0.7157   -4.0663   -1.5440 H   0  0  0  0  0  0  0  0  0  0  0  0
   -2.0956   -3.8901   -0.4114 H   0  0  0  0  0  0  0  0  0  0  0  0
   -0.4056   -3.9638    0.2085 H   0  0  0  0  0  0  0  0  0  0  0  0
   -4.3730   -2.8855   -2.9077 H   0  0  0  0  0  0  0  0  0  0  0  0
   -2.5848   -3.0425   -3.1123 H   0  0  0  0  0  0  0  0  0  0  0  0
   -3.3967   -1.4624   -3.4428 H   0  0  0  0  0  0  0  0  0  0  0  0
  1  6  2  0  0  0  0
  1 29  1  0  0  0  0
  2  7  1  0  0  0  0
  2  1  1  1  0  0  0
  3 11  1  1  0  0  0
  3  4  1  0  0  0  0
  3  2  1  0  0  0  0
  4 28  1  1  0  0  0
  4  5  1  0  0  0  0
  5 26  1  6  0  0  0
  5  6  1  0  0  0  0
  6 13  1  0  0  0  0
  7  8  1  0  0  0  0
  7 32  1  0  0  0  0
  8  9  1  0  0  0  0
  9 33  1  0  0  0  0
  9 35  1  0  0  0  0
 10 12  1  0  0  0  0
 10  8  2  0  0  0  0
 11 37  1  0  0  0  0
 11 10  1  0  0  0  0
 12 38  1  0  0  0  0
 12 39  1  0  0  0  0
 13 14  1  0  0  0  0
 14 15  2  0  0  0  0
 14 19  1  0  0  0  0
 15 41  1  0  0  0  0
 16 42  1  0  0  0  0
 16 15  1  0  0  0  0
 17 16  2  0  0  0  0
 18 17  1  0  0  0  0
 18 13  2  0  0  0  0
 19 46  1  0  0  0  0
 19 45  1  0  0  0  0
 20 50  1  0  0  0  0
 20 30  1  0  0  0  0
 21 30  1  0  0  0  0
 21 52  1  0  0  0  0
 22 23  1  0  0  0  0
 22 25  1  0  0  0  0
 23 55  1  0  0  0  0
 23 54  1  0  0  0  0
 24 57  1  0  0  0  0
 24 22  1  0  0  0  0
 25 62  1  0  0  0  0
 25 60  1  0  0  0  0
 26 64  1  0  0  0  0
 26 65  1  0  0  0  0
 27 28  1  0  0  0  0
 30 29  1  0  0  0  0
 30 22  1  0  0  0  0
 31  7  1  0  0  0  0
 34  9  1  0  0  0  0
 36 11  1  0  0  0  0
 40 12  1  0  0  0  0
 43 17  1  0  0  0  0
 44 18  1  0  0  0  0
 47 19  1  0  0  0  0
 48 20  1  0  0  0  0
 49 20  1  0  0  0  0
 51 21  1  0  0  0  0
 53 21  1  0  0  0  0
 56 23  1  0  0  0  0
 58 24  1  0  0  0  0
 59 24  1  0  0  0  0
 61 25  1  0  0  0  0
 63 26  1  0  0  0  0
 66 27  1  0  0  0  0
 67 27  1  0  0  0  0
 68 27  1  0  0  0  0
M  END
