2,10
 OpenBabel05122313053D

 28 29  0  0  0  0  0  0  0  0999 V2000
    0.0482   -2.5689   -0.5682 C   0  0  0  0  0  3  0  0  0  0  0  0
   -1.1408   -2.0037   -0.0423 C   0  0  0  0  0  3  0  0  0  0  0  0
   -1.8395   -0.9327   -0.6580 C   0  0  0  0  0  3  0  0  0  0  0  0
   -3.0487   -0.2884   -0.0605 C   0  0  0  0  0  0  0  0  0  0  0  0
   -4.3984   -0.8898   -0.4310 C   0  0  0  0  0  0  0  0  0  0  0  0
   -3.8672   -1.0277    0.9770 C   0  0  0  0  0  0  0  0  0  0  0  0
   -3.0149    1.2562    0.0652 C   0  0  0  0  0  0  0  0  0  0  0  0
   -2.1407    1.7370    1.1834 C   0  0  0  0  0  0  0  0  0  0  0  0
   -0.7917    1.8985    1.0888 C   0  0  0  0  0  0  0  0  0  0  0  0
    0.0173    1.6832   -0.1202 C   0  0  0  0  0  3  0  0  0  0  0  0
   -0.2718    2.4282   -1.4050 C   0  0  0  0  0  0  0  0  0  0  0  0
    0.9737    2.7493   -0.5985 C   0  0  0  0  0  0  0  0  0  0  0  0
    0.5710   -3.3434    0.0137 H   0  0  0  0  0  0  0  0  0  0  0  0
    0.2187   -2.5951   -1.6582 H   0  0  0  0  0  0  0  0  0  0  0  0
   -1.4246   -2.2617    0.9938 H   0  0  0  0  0  0  0  0  0  0  0  0
   -1.7262   -0.7925   -1.7509 H   0  0  0  0  0  0  0  0  0  0  0  0
   -5.2373   -0.1987   -0.6158 H   0  0  0  0  0  0  0  0  0  0  0  0
   -4.3982   -1.7876   -1.0689 H   0  0  0  0  0  0  0  0  0  0  0  0
   -4.3347   -0.4250    1.7717 H   0  0  0  0  0  0  0  0  0  0  0  0
   -3.5443   -2.0253    1.3109 H   0  0  0  0  0  0  0  0  0  0  0  0
   -4.0570    1.6031    0.2241 H   0  0  0  0  0  0  0  0  0  0  0  0
   -2.6822    1.6631   -0.9110 H   0  0  0  0  0  0  0  0  0  0  0  0
   -2.6151    1.8655    2.1713 H   0  0  0  0  0  0  0  0  0  0  0  0
   -0.2378    2.1706    2.0080 H   0  0  0  0  0  0  0  0  0  0  0  0
   -0.1435    1.9111   -2.3707 H   0  0  0  0  0  0  0  0  0  0  0  0
   -1.0780    3.1824   -1.4053 H   0  0  0  0  0  0  0  0  0  0  0  0
    1.9490    2.4737   -1.0337 H   0  0  0  0  0  0  0  0  0  0  0  0
    0.9917    3.7152   -0.0617 H   0  0  0  0  0  0  0  0  0  0  0  0
  1  2  1  0  0  0  0
  1 13  1  0  0  0  0
  2 15  1  0  0  0  0
  3  4  1  0  0  0  0
  3  2  1  0  0  0  0
  4  7  1  0  0  0  0
  4  6  1  0  0  0  0
  5  4  1  0  0  0  0
  5  6  1  0  0  0  0
  6 20  1  0  0  0  0
  6 19  1  0  0  0  0
  7 21  1  0  0  0  0
  7  8  1  0  0  0  0
  8 23  1  0  0  0  0
  9  8  2  0  0  0  0
  9 24  1  0  0  0  0
 10  9  1  0  0  0  0
 11 12  1  0  0  0  0
 11 10  1  0  0  0  0
 12 10  1  0  0  0  0
 12 28  1  0  0  0  0
 14  1  1  0  0  0  0
 16  3  1  0  0  0  0
 17  5  1  0  0  0  0
 18  5  1  0  0  0  0
 22  7  1  0  0  0  0
 25 11  1  0  0  0  0
 26 11  1  0  0  0  0
 27 12  1  0  0  0  0
M  END
