1,10
 OpenBabel05122313053D

 28 29  0  0  0  0  0  0  0  0999 V2000
   -1.1602    0.6775   -1.5154 C   0  0  0  0  0  3  0  0  0  0  0  0
   -1.8960    1.6439   -0.6827 C   0  0  0  0  0  0  0  0  0  0  0  0
   -3.0181    1.5372    0.0858 C   0  0  0  0  0  0  0  0  0  0  0  0
   -3.9590    0.3979    0.3122 C   0  0  0  0  0  0  0  0  0  0  0  0
   -4.9913    0.5973    1.4150 C   0  0  0  0  0  0  0  0  0  0  0  0
   -5.4259    0.6799   -0.0234 C   0  0  0  0  0  0  0  0  0  0  0  0
   -3.4694   -1.0391    0.1175 C   0  0  0  0  0  0  0  0  0  0  0  0
   -2.4378   -1.4571    1.1289 C   0  0  0  0  0  0  0  0  0  0  0  0
   -1.1638   -1.8645    0.8859 C   0  0  0  0  0  0  0  0  0  0  0  0
   -0.4600   -1.9547   -0.4094 C   0  0  0  0  0  3  0  0  0  0  0  0
    0.1600   -3.2634   -0.8510 C   0  0  0  0  0  0  0  0  0  0  0  0
   -1.0344   -2.6870   -1.5922 C   0  0  0  0  0  0  0  0  0  0  0  0
   -1.7543   -0.1831   -1.8610 H   0  0  0  0  0  0  0  0  0  0  0  0
   -0.6950    1.1746   -2.3924 H   0  0  0  0  0  0  0  0  0  0  0  0
   -1.4511    2.6591   -0.6680 H   0  0  0  0  0  0  0  0  0  0  0  0
   -3.3452    2.4704    0.5809 H   0  0  0  0  0  0  0  0  0  0  0  0
   -4.9425    1.5276    2.0033 H   0  0  0  0  0  0  0  0  0  0  0  0
   -5.2874   -0.2888    1.9994 H   0  0  0  0  0  0  0  0  0  0  0  0
   -5.6677    1.6689   -0.4426 H   0  0  0  0  0  0  0  0  0  0  0  0
   -6.0191   -0.1482   -0.4440 H   0  0  0  0  0  0  0  0  0  0  0  0
   -3.0919   -1.1783   -0.9112 H   0  0  0  0  0  0  0  0  0  0  0  0
   -4.3590   -1.7034    0.2140 H   0  0  0  0  0  0  0  0  0  0  0  0
   -2.7669   -1.4088    2.1826 H   0  0  0  0  0  0  0  0  0  0  0  0
   -0.5520   -2.1196    1.7730 H   0  0  0  0  0  0  0  0  0  0  0  0
    1.1316   -3.2649   -1.3734 H   0  0  0  0  0  0  0  0  0  0  0  0
   -0.0141   -4.1653   -0.2356 H   0  0  0  0  0  0  0  0  0  0  0  0
   -1.9976   -3.2130   -1.4728 H   0  0  0  0  0  0  0  0  0  0  0  0
   -0.8703   -2.2805   -2.6039 H   0  0  0  0  0  0  0  0  0  0  0  0
  1  2  1  0  0  0  0
  2 15  1  0  0  0  0
  2  3  2  0  0  0  0
  3  4  1  0  0  0  0
  3 16  1  0  0  0  0
  4  5  1  0  0  0  0
  5 18  1  0  0  0  0
  5 17  1  0  0  0  0
  6  4  1  0  0  0  0
  6  5  1  0  0  0  0
  7 22  1  0  0  0  0
  7  4  1  0  0  0  0
  7  8  1  0  0  0  0
  8 23  1  0  0  0  0
  9  8  2  0  0  0  0
  9 24  1  0  0  0  0
 10  9  1  0  0  0  0
 11 10  1  0  0  0  0
 11 26  1  0  0  0  0
 12 27  1  0  0  0  0
 12 11  1  0  0  0  0
 12 10  1  0  0  0  0
 13  1  1  0  0  0  0
 14  1  1  0  0  0  0
 19  6  1  0  0  0  0
 20  6  1  0  0  0  0
 21  7  1  0  0  0  0
 25 11  1  0  0  0  0
 28 12  1  0  0  0  0
M  END
