5,7
 OpenBabel05122313053D

 20 21  0  0  0  0  0  0  0  0999 V2000
    1.9738    2.7851    0.1089 O   0  0  0  0  0  0  0  0  0  0  0  0
    1.9760   -2.7840    0.1087 O   0  0  0  0  0  0  0  0  0  0  0  0
    1.0105   -0.7229    0.7774 C   0  0  0  0  0  0  0  0  0  0  0  0
   -0.0864   -1.4236    1.4030 C   0  0  0  0  0  3  0  0  0  0  0  0
   -1.1034   -0.7167    2.0769 C   0  0  0  0  0  3  0  0  0  0  0  0
   -1.1038    0.7154    2.0775 C   0  0  0  0  0  3  0  0  0  0  0  0
   -0.0876    1.4228    1.4030 C   0  0  0  0  0  3  0  0  0  0  0  0
    1.0100    0.7232    0.7775 C   0  0  0  0  0  0  0  0  0  0  0  0
    2.0543    1.4266    0.0818 C   0  0  0  0  0  0  0  0  0  0  0  0
    3.0590    0.7115   -0.5536 C   0  0  0  0  0  0  0  0  0  0  0  0
    3.0595   -0.7094   -0.5536 C   0  0  0  0  0  0  0  0  0  0  0  0
    2.0555   -1.4254    0.0817 C   0  0  0  0  0  0  0  0  0  0  0  0
    2.6860    3.1535   -0.4454 H   0  0  0  0  0  0  0  0  0  0  0  0
    2.6884   -3.1517   -0.4458 H   0  0  0  0  0  0  0  0  0  0  0  0
   -0.1040   -2.5189    1.3464 H   0  0  0  0  0  0  0  0  0  0  0  0
   -1.9338   -1.2650    2.5424 H   0  0  0  0  0  0  0  0  0  0  0  0
   -1.9345    1.2630    2.5432 H   0  0  0  0  0  0  0  0  0  0  0  0
   -0.1059    2.5181    1.3466 H   0  0  0  0  0  0  0  0  0  0  0  0
    3.8639    1.2498   -1.0787 H   0  0  0  0  0  0  0  0  0  0  0  0
    3.8648   -1.2471   -1.0787 H   0  0  0  0  0  0  0  0  0  0  0  0
  3  8  1  0  0  0  0
  3  4  1  0  0  0  0
  4  5  1  0  0  0  0
  5  6  1  0  0  0  0
  5 16  1  0  0  0  0
  6 17  1  0  0  0  0
  7  6  1  0  0  0  0
  8  7  1  0  0  0  0
  9  1  1  0  0  0  0
  9  8  2  0  0  0  0
 10  9  1  0  0  0  0
 11 10  2  0  0  0  0
 11 12  1  0  0  0  0
 12  2  1  0  0  0  0
 12  3  2  0  0  0  0
 13  1  1  0  0  0  0
 14  2  1  0  0  0  0
 15  4  1  0  0  0  0
 18  7  1  0  0  0  0
 19 10  1  0  0  0  0
 20 11  1  0  0  0  0
M  END
