2,17
 OpenBabel05122313053D

 30 33  0  0  0  0  0  0  0  0999 V2000
    2.2998    0.7137    1.9260 C   0  0  0  0  0  0  0  0  0  0  0  0
    1.1649    1.4088    1.4614 C   0  0  0  0  0  3  0  0  0  0  0  0
   -0.0254    0.7196    1.0220 C   0  0  0  0  0  0  0  0  0  0  0  0
   -1.1990    1.4530    0.5328 C   0  0  0  0  0  0  0  0  0  0  0  0
   -1.2250    2.8691    0.5177 C   0  0  0  0  0  0  0  0  0  0  0  0
   -2.3347    3.5742    0.0567 C   0  0  0  0  0  0  0  0  0  0  0  0
   -3.4623    2.8702   -0.4043 C   0  0  0  0  0  0  0  0  0  0  0  0
   -3.4582    1.4769   -0.3960 C   0  0  0  0  0  0  0  0  0  0  0  0
   -2.3425    0.7344    0.0656 C   0  0  0  0  0  0  0  0  0  0  0  0
    3.1971    1.2699    2.2289 H   0  0  0  0  0  0  0  0  0  0  0  0
    1.2067    2.5028    1.4167 H   0  0  0  0  0  0  0  0  0  0  0  0
   -0.3550    3.4378    0.8700 H   0  0  0  0  0  0  0  0  0  0  0  0
   -2.3231    4.6741    0.0523 H   0  0  0  0  0  0  0  0  0  0  0  0
   -4.3450    3.4136   -0.7730 H   0  0  0  0  0  0  0  0  0  0  0  0
   -4.3487    0.9499   -0.7624 H   0  0  0  0  0  0  0  0  0  0  0  0
    2.2999   -0.7132    1.9261 C   0  0  0  0  0  0  0  0  0  0  0  0
    1.1651   -1.4086    1.4615 C   0  0  0  0  0  3  0  0  0  0  0  0
   -0.0254   -0.7195    1.0220 C   0  0  0  0  0  0  0  0  0  0  0  0
   -2.3424   -0.7346    0.0657 C   0  0  0  0  0  0  0  0  0  0  0  0
    3.1972   -1.2694    2.2290 H   0  0  0  0  0  0  0  0  0  0  0  0
    1.2070   -2.5025    1.4168 H   0  0  0  0  0  0  0  0  0  0  0  0
   -1.1988   -1.4531    0.5328 C   0  0  0  0  0  0  0  0  0  0  0  0
   -3.4580   -1.4773   -0.3960 C   0  0  0  0  0  0  0  0  0  0  0  0
   -1.2246   -2.8692    0.5177 C   0  0  0  0  0  0  0  0  0  0  0  0
   -3.4619   -2.8706   -0.4043 C   0  0  0  0  0  0  0  0  0  0  0  0
   -4.3485   -0.9504   -0.7624 H   0  0  0  0  0  0  0  0  0  0  0  0
   -2.3342   -3.5744    0.0568 C   0  0  0  0  0  0  0  0  0  0  0  0
   -0.3546   -3.4378    0.8701 H   0  0  0  0  0  0  0  0  0  0  0  0
   -4.3445   -3.4141   -0.7730 H   0  0  0  0  0  0  0  0  0  0  0  0
   -2.3224   -4.6743    0.0524 H   0  0  0  0  0  0  0  0  0  0  0  0
  1 16  2  0  0  0  0
  1 10  1  0  0  0  0
  2  1  1  0  0  0  0
  3 18  1  0  0  0  0
  3  2  1  0  0  0  0
  4  3  2  0  0  0  0
  5  4  1  0  0  0  0
  5 12  1  0  0  0  0
  6  5  2  0  0  0  0
  7  8  2  0  0  0  0
  7  6  1  0  0  0  0
  8  9  1  0  0  0  0
  9 19  2  0  0  0  0
  9  4  1  0  0  0  0
 11  2  1  0  0  0  0
 13  6  1  0  0  0  0
 14  7  1  0  0  0  0
 15  8  1  0  0  0  0
 16 20  1  0  0  0  0
 17 16  1  0  0  0  0
 18 17  1  0  0  0  0
 19 22  1  0  0  0  0
 21 17  1  0  0  0  0
 22 18  2  0  0  0  0
 23 19  1  0  0  0  0
 24 22  1  0  0  0  0
 24 28  1  0  0  0  0
 25 23  2  0  0  0  0
 25 27  1  0  0  0  0
 26 23  1  0  0  0  0
 27 24  2  0  0  0  0
 29 25  1  0  0  0  0
 30 27  1  0  0  0  0
M  END
