1,9
 OpenBabel05122313053D

 19 19  0  0  0  0  0  0  0  0999 V2000
    1.4907   -0.4952    1.5738 C   0  0  0  0  0  3  0  0  0  0  0  0
    1.3152   -0.0573    2.5741 H   0  0  0  0  0  0  0  0  0  0  0  0
    0.5604   -1.5685    1.2959 C   0  0  0  0  0  0  0  0  0  0  0  0
   -0.0804   -1.9430    2.1116 H   0  0  0  0  0  0  0  0  0  0  0  0
    0.2191   -2.0583    0.0007 C   0  0  0  0  0  0  0  0  0  0  0  0
   -0.5815   -2.8179    0.0044 H   0  0  0  0  0  0  0  0  0  0  0  0
    0.5536   -1.5677   -1.2964 C   0  0  0  0  0  3  0  0  0  0  0  0
   -0.0923   -1.9406   -2.1088 H   0  0  0  0  0  0  0  0  0  0  0  0
    1.4875   -0.4968   -1.5756 C   0  0  0  0  0  3  0  0  0  0  0  0
    1.3085   -0.0536   -2.5732 H   0  0  0  0  0  0  0  0  0  0  0  0
    2.9877   -0.5726   -1.2901 C   0  0  0  0  0  0  0  0  0  0  0  0
    3.4194    0.4541   -1.3013 H   0  0  0  0  0  0  0  0  0  0  0  0
    3.4691   -1.1016   -2.1464 H   0  0  0  0  0  0  0  0  0  0  0  0
    3.4029   -1.2814   -0.0030 C   0  0  0  0  0  0  0  0  0  0  0  0
    4.5080   -1.3957   -0.0033 H   0  0  0  0  0  0  0  0  0  0  0  0
    2.9875   -2.3124    0.0029 H   0  0  0  0  0  0  0  0  0  0  0  0
    2.9896   -0.5596    1.2776 C   0  0  0  0  0  0  0  0  0  0  0  0
    3.4123    0.4710    1.2735 H   0  0  0  0  0  0  0  0  0  0  0  0
    3.4812   -1.0736    2.1372 H   0  0  0  0  0  0  0  0  0  0  0  0
  1  2  1  0  0  0  0
  3  1  1  0  0  0  0
  3  4  1  0  0  0  0
  5  6  1  0  0  0  0
  5  3  2  0  0  0  0
  7  5  1  0  0  0  0
  8  7  1  0  0  0  0
  9  7  1  0  0  0  0
  9 11  1  0  0  0  0
 10  9  1  0  0  0  0
 11 14  1  0  0  0  0
 12 11  1  0  0  0  0
 13 11  1  0  0  0  0
 14 16  1  0  0  0  0
 14 17  1  0  0  0  0
 15 14  1  0  0  0  0
 17  1  1  0  0  0  0
 17 19  1  0  0  0  0
 18 17  1  0  0  0  0
M  END
