4,8
 OpenBabel05122313053D

 48 51  0  0  1  0  0  0  0  0999 V2000
    0.1812   -1.6057    0.1569 C   0  0  0  0  0  0  0  0  0  0  0  0
    0.8344   -2.5115    1.0338 C   0  0  0  0  0  0  0  0  0  0  0  0
    0.7951   -3.5809    0.7931 H   0  0  0  0  0  0  0  0  0  0  0  0
    1.6052   -2.0298    2.1336 C   0  0  0  0  0  3  0  0  0  0  0  0
    2.1577   -2.7417    2.7629 H   0  0  0  0  0  0  0  0  0  0  0  0
    1.6906   -0.6413    2.3916 C   0  0  0  0  0  3  0  0  0  0  0  0
    2.3111   -0.2625    3.2149 H   0  0  0  0  0  0  0  0  0  0  0  0
    1.0428    0.2717    1.5067 C   0  0  0  0  0  3  0  0  0  0  0  0
    1.1659    1.3532    1.6598 H   0  0  0  0  0  0  0  0  0  0  0  0
    0.2748   -0.1812    0.3935 C   0  0  1  0  0  3  0  0  0  0  0  0
   -0.6319   -2.1578   -1.0056 C   0  0  1  0  0  0  0  0  0  0  0  0
   -0.4059   -1.5307   -1.9002 H   0  0  0  0  0  0  0  0  0  0  0  0
   -0.2448   -3.5100   -1.2085 O   0  0  0  0  0  0  0  0  0  0  0  0
   -0.8813   -3.8909   -1.8401 H   0  0  0  0  0  0  0  0  0  0  0  0
   -2.1244   -2.0405   -0.7142 C   0  0  0  0  0  0  0  0  0  0  0  0
   -2.6780   -2.6908    0.4073 C   0  0  0  0  0  0  0  0  0  0  0  0
   -2.0235   -3.2847    1.0638 H   0  0  0  0  0  0  0  0  0  0  0  0
   -4.0459   -2.5782    0.6876 C   0  0  0  0  0  0  0  0  0  0  0  0
   -4.4685   -3.0835    1.5696 H   0  0  0  0  0  0  0  0  0  0  0  0
   -4.8759   -1.8121   -0.1493 C   0  0  0  0  0  0  0  0  0  0  0  0
   -5.9476   -1.7108    0.0796 H   0  0  0  0  0  0  0  0  0  0  0  0
   -4.3347   -1.1747   -1.2749 C   0  0  0  0  0  0  0  0  0  0  0  0
   -4.9787   -0.5704   -1.9311 H   0  0  0  0  0  0  0  0  0  0  0  0
   -2.9653   -1.2931   -1.5579 C   0  0  0  0  0  0  0  0  0  0  0  0
   -2.5324   -0.7764   -2.4287 H   0  0  0  0  0  0  0  0  0  0  0  0
   -0.4871    1.0034   -0.8212 P   0  0  0  0  0  0  0  0  0  0  0  0
   -2.0818    1.4138    0.0175 C   0  0  0  0  0  0  0  0  0  0  0  0
   -2.5152    0.8179    1.2182 C   0  0  0  0  0  0  0  0  0  0  0  0
   -1.8577    0.1158    1.7511 H   0  0  0  0  0  0  0  0  0  0  0  0
   -3.7918    1.0992    1.7299 C   0  0  0  0  0  0  0  0  0  0  0  0
   -4.1220    0.6140    2.6611 H   0  0  0  0  0  0  0  0  0  0  0  0
   -4.6434    1.9900    1.0600 C   0  0  0  0  0  0  0  0  0  0  0  0
   -5.6432    2.2098    1.4642 H   0  0  0  0  0  0  0  0  0  0  0  0
   -4.2154    2.5971   -0.1330 C   0  0  0  0  0  0  0  0  0  0  0  0
   -4.8773    3.2975   -0.6652 H   0  0  0  0  0  0  0  0  0  0  0  0
   -2.9496    2.3020   -0.6564 C   0  0  0  0  0  0  0  0  0  0  0  0
   -2.6273    2.7636   -1.6040 H   0  0  0  0  0  0  0  0  0  0  0  0
    0.5186    2.5195   -0.5049 C   0  0  0  0  0  0  0  0  0  0  0  0
    1.7045    2.6616   -1.2566 C   0  0  0  0  0  0  0  0  0  0  0  0
    1.9736    1.8925   -1.9975 H   0  0  0  0  0  0  0  0  0  0  0  0
    2.5446    3.7652   -1.0540 C   0  0  0  0  0  0  0  0  0  0  0  0
    3.4779    3.8527   -1.6298 H   0  0  0  0  0  0  0  0  0  0  0  0
    2.1944    4.7534   -0.1198 C   0  0  0  0  0  0  0  0  0  0  0  0
    2.8508    5.6232    0.0344 H   0  0  0  0  0  0  0  0  0  0  0  0
    1.0034    4.6321    0.6140 C   0  0  0  0  0  0  0  0  0  0  0  0
    0.7231    5.4077    1.3434 H   0  0  0  0  0  0  0  0  0  0  0  0
    0.1693    3.5182    0.4282 C   0  0  0  0  0  0  0  0  0  0  0  0
   -0.7596    3.4206    1.0105 H   0  0  0  0  0  0  0  0  0  0  0  0
  1 10  1  0  0  0  0
  1  2  2  0  0  0  0
  2  4  1  0  0  0  0
  3  2  1  0  0  0  0
  4  6  1  0  0  0  0
  4  5  1  0  0  0  0
  6  7  1  0  0  0  0
  8  9  1  0  0  0  0
  8  6  1  0  0  0  0
 10 26  1  6  0  0  0
 10  8  1  0  0  0  0
 11 12  1  6  0  0  0
 11 15  1  0  0  0  0
 11  1  1  0  0  0  0
 13 11  1  0  0  0  0
 14 13  1  0  0  0  0
 15 16  1  0  0  0  0
 16 18  2  0  0  0  0
 16 17  1  0  0  0  0
 18 19  1  0  0  0  0
 20 21  1  0  0  0  0
 20 18  1  0  0  0  0
 22 20  2  0  0  0  0
 23 22  1  0  0  0  0
 24 22  1  0  0  0  0
 24 15  2  0  0  0  0
 25 24  1  0  0  0  0
 26 38  1  0  0  0  0
 26 27  1  0  0  0  0
 27 28  1  0  0  0  0
 28 30  2  0  0  0  0
 28 29  1  0  0  0  0
 30 31  1  0  0  0  0
 32 33  1  0  0  0  0
 32 30  1  0  0  0  0
 34 32  2  0  0  0  0
 35 34  1  0  0  0  0
 36 34  1  0  0  0  0
 36 27  2  0  0  0  0
 37 36  1  0  0  0  0
 38 47  1  0  0  0  0
 39 41  1  0  0  0  0
 39 38  2  0  0  0  0
 40 39  1  0  0  0  0
 41 43  2  0  0  0  0
 42 41  1  0  0  0  0
 43 44  1  0  0  0  0
 43 45  1  0  0  0  0
 45 46  1  0  0  0  0
 47 45  2  0  0  0  0
 47 48  1  0  0  0  0
M  END
