12,14
 OpenBabel05122313053D

 20 21  0  0  1  0  0  0  0  0999 V2000
    2.2666    0.4199    0.7986 C   0  0  2  0  0  0  0  0  0  0  0  0
    2.0160    0.2288    1.8624 H   0  0  0  0  0  0  0  0  0  0  0  0
    2.7015   -1.2257    0.0634 S   0  0  0  0  0  0  0  0  0  0  0  0
    0.8191    0.1932   -1.1979 C   0  0  1  0  0  3  0  0  0  0  0  0
    1.8367   -0.8684   -1.5196 C   0  0  0  0  0  0  0  0  0  0  0  0
    2.5446   -0.5063   -2.2974 H   0  0  0  0  0  0  0  0  0  0  0  0
    1.3686   -1.8034   -1.8861 H   0  0  0  0  0  0  0  0  0  0  0  0
   -0.3107    0.5342   -2.0094 C   0  0  0  0  0  0  0  0  0  0  0  0
   -0.5104   -0.0203   -2.9369 H   0  0  0  0  0  0  0  0  0  0  0  0
   -1.2028    1.5474   -1.5800 C   0  0  0  0  0  0  0  0  0  0  0  0
   -2.0973    1.7767   -2.1750 H   0  0  0  0  0  0  0  0  0  0  0  0
   -0.9825    2.2226   -0.3366 C   0  0  0  0  0  3  0  0  0  0  0  0
   -1.7087    2.9671    0.0170 H   0  0  0  0  0  0  0  0  0  0  0  0
    1.0367    0.8614    0.0380 C   0  0  2  0  0  3  0  0  0  0  0  0
    0.1299    1.8821    0.4715 C   0  0  0  0  0  3  0  0  0  0  0  0
    0.2699    2.3634    1.4496 H   0  0  0  0  0  0  0  0  0  0  0  0
    3.4036    1.4424    0.6956 C   0  0  0  0  0  0  0  0  0  0  0  0
    3.1007    2.4127    1.1436 H   0  0  0  0  0  0  0  0  0  0  0  0
    3.6801    1.6213   -0.3626 H   0  0  0  0  0  0  0  0  0  0  0  0
    4.3029    1.0808    1.2303 H   0  0  0  0  0  0  0  0  0  0  0  0
  1  2  1  1  0  0  0
  3  1  1  0  0  0  0
  4  8  1  1  0  0  0
  4 14  1  0  0  0  0
  5  4  1  0  0  0  0
  5  3  1  0  0  0  0
  6  5  1  0  0  0  0
  7  5  1  0  0  0  0
  8 10  2  0  0  0  0
  9  8  1  0  0  0  0
 10 12  1  0  0  0  0
 11 10  1  0  0  0  0
 12 13  1  0  0  0  0
 12 15  1  0  0  0  0
 14 15  1  6  0  0  0
 14  1  1  0  0  0  0
 15 16  1  0  0  0  0
 17  1  1  0  0  0  0
 17 18  1  0  0  0  0
 17 20  1  0  0  0  0
 19 17  1  0  0  0  0
M  END
