2
 OpenBabel05122313053D

 51 54  0  0  1  0  0  0  0  0999 V2000
   -0.0000    0.7985    2.7288 Si  0  0  0  0  0  0  0  0  0  0  0  0
   -1.3995    0.3897    1.5339 C   0  0  2  0  0  3  0  0  0  0  0  0
   -1.8713   -0.9506    1.3087 C   0  0  0  0  0  0  0  0  0  0  0  0
   -1.6954   -1.8027    1.9805 H   0  0  0  0  0  0  0  0  0  0  0  0
   -2.5541   -1.0540    0.0620 C   0  0  0  0  0  0  0  0  0  0  0  0
   -2.5754    0.2668   -0.5062 C   0  0  0  0  0  0  0  0  0  0  0  0
   -1.8429    1.1555    0.3823 C   0  0  0  0  0  0  0  0  0  0  0  0
   -1.7074    2.5316    0.0264 C   0  0  0  0  0  0  0  0  0  0  0  0
   -1.1792    3.2267    0.6924 H   0  0  0  0  0  0  0  0  0  0  0  0
   -2.2852    2.9866   -1.1482 C   0  0  0  0  0  0  0  0  0  0  0  0
   -2.1929    4.0484   -1.4216 H   0  0  0  0  0  0  0  0  0  0  0  0
   -3.0100    2.1088   -2.0094 C   0  0  0  0  0  0  0  0  0  0  0  0
   -3.4544    2.5118   -2.9318 H   0  0  0  0  0  0  0  0  0  0  0  0
   -3.1636    0.7673   -1.7006 C   0  0  0  0  0  0  0  0  0  0  0  0
   -3.7191    0.0917   -2.3672 H   0  0  0  0  0  0  0  0  0  0  0  0
   -3.2770   -2.2542   -0.4745 C   0  0  0  0  0  0  0  0  0  0  0  0
   -3.2029   -2.2618   -1.5823 H   0  0  0  0  0  0  0  0  0  0  0  0
   -2.7565   -3.1718   -0.1333 H   0  0  0  0  0  0  0  0  0  0  0  0
   -4.7531   -2.2837   -0.0481 C   0  0  0  0  0  0  0  0  0  0  0  0
   -5.2679   -3.1756   -0.4590 H   0  0  0  0  0  0  0  0  0  0  0  0
   -5.2945   -1.3834   -0.4035 H   0  0  0  0  0  0  0  0  0  0  0  0
   -4.8488   -2.3126    1.0563 H   0  0  0  0  0  0  0  0  0  0  0  0
    1.3995    0.3897    1.5339 C   0  0  1  0  0  3  0  0  0  0  0  0
    1.8713   -0.9506    1.3087 C   0  0  0  0  0  0  0  0  0  0  0  0
    1.6954   -1.8027    1.9805 H   0  0  0  0  0  0  0  0  0  0  0  0
    2.5541   -1.0540    0.0620 C   0  0  0  0  0  0  0  0  0  0  0  0
    2.5754    0.2668   -0.5062 C   0  0  0  0  0  0  0  0  0  0  0  0
    1.8429    1.1555    0.3823 C   0  0  0  0  0  0  0  0  0  0  0  0
    1.7074    2.5316    0.0264 C   0  0  0  0  0  0  0  0  0  0  0  0
    1.1792    3.2267    0.6924 H   0  0  0  0  0  0  0  0  0  0  0  0
    2.2852    2.9866   -1.1482 C   0  0  0  0  0  0  0  0  0  0  0  0
    2.1928    4.0484   -1.4216 H   0  0  0  0  0  0  0  0  0  0  0  0
    3.0100    2.1088   -2.0094 C   0  0  0  0  0  0  0  0  0  0  0  0
    3.4544    2.5118   -2.9318 H   0  0  0  0  0  0  0  0  0  0  0  0
    3.1636    0.7673   -1.7006 C   0  0  0  0  0  0  0  0  0  0  0  0
    3.7191    0.0917   -2.3672 H   0  0  0  0  0  0  0  0  0  0  0  0
    3.2770   -2.2542   -0.4745 C   0  0  0  0  0  0  0  0  0  0  0  0
    2.7566   -3.1718   -0.1333 H   0  0  0  0  0  0  0  0  0  0  0  0
    3.2029   -2.2618   -1.5823 H   0  0  0  0  0  0  0  0  0  0  0  0
    4.7531   -2.2837   -0.0481 C   0  0  0  0  0  0  0  0  0  0  0  0
    5.2679   -3.1756   -0.4590 H   0  0  0  0  0  0  0  0  0  0  0  0
    4.8489   -2.3126    1.0563 H   0  0  0  0  0  0  0  0  0  0  0  0
    5.2945   -1.3834   -0.4035 H   0  0  0  0  0  0  0  0  0  0  0  0
   -0.0000    2.5675    3.3770 C   0  0  0  0  0  0  0  0  0  0  0  0
   -0.8984    2.7390    4.0046 H   0  0  0  0  0  0  0  0  0  0  0  0
    0.0000    3.3286    2.5737 H   0  0  0  0  0  0  0  0  0  0  0  0
    0.8983    2.7390    4.0047 H   0  0  0  0  0  0  0  0  0  0  0  0
   -0.0000   -0.4252    4.1621 C   0  0  0  0  0  0  0  0  0  0  0  0
   -0.8982   -0.2792    4.7960 H   0  0  0  0  0  0  0  0  0  0  0  0
    0.8981   -0.2791    4.7960 H   0  0  0  0  0  0  0  0  0  0  0  0
    0.0000   -1.4765    3.8121 H   0  0  0  0  0  0  0  0  0  0  0  0
  1 44  1  0  0  0  0
  1 48  1  0  0  0  0
  2  1  1  6  0  0  0
  3  2  1  0  0  0  0
  3  4  1  0  0  0  0
  5  3  2  0  0  0  0
  6  5  1  0  0  0  0
  6  7  1  0  0  0  0
  7  2  1  0  0  0  0
  8  7  2  0  0  0  0
  8  9  1  0  0  0  0
 10  8  1  0  0  0  0
 11 10  1  0  0  0  0
 12 14  1  0  0  0  0
 12 10  2  0  0  0  0
 13 12  1  0  0  0  0
 14  6  2  0  0  0  0
 15 14  1  0  0  0  0
 16 18  1  0  0  0  0
 16 19  1  0  0  0  0
 16  5  1  0  0  0  0
 17 16  1  0  0  0  0
 19 22  1  0  0  0  0
 20 19  1  0  0  0  0
 21 19  1  0  0  0  0
 23  1  1  6  0  0  0
 24 23  1  0  0  0  0
 24 25  1  0  0  0  0
 26 24  2  0  0  0  0
 27 26  1  0  0  0  0
 27 28  1  0  0  0  0
 28 23  1  0  0  0  0
 29 28  2  0  0  0  0
 29 30  1  0  0  0  0
 31 29  1  0  0  0  0
 32 31  1  0  0  0  0
 33 35  1  0  0  0  0
 33 31  2  0  0  0  0
 34 33  1  0  0  0  0
 35 27  2  0  0  0  0
 36 35  1  0  0  0  0
 37 38  1  0  0  0  0
 37 40  1  0  0  0  0
 37 26  1  0  0  0  0
 39 37  1  0  0  0  0
 40 42  1  0  0  0  0
 41 40  1  0  0  0  0
 43 40  1  0  0  0  0
 44 45  1  0  0  0  0
 44 47  1  0  0  0  0
 46 44  1  0  0  0  0
 48 49  1  0  0  0  0
 48 50  1  0  0  0  0
 51 48  1  0  0  0  0
M  END
