7,13
 OpenBabel05122313053D

 20 19  0  0  1  0  0  0  0  0999 V2000
   -1.9652   -1.6486   -0.7264 O   0  0  0  0  0  0  0  0  0  0  0  0
   -2.2542    0.5033   -0.0181 N   0  0  0  0  0  0  0  0  0  0  0  0
   -3.6946    0.4776   -0.1975 C   0  0  0  0  0  0  0  0  0  0  0  0
   -4.0300    1.3075   -0.8565 H   0  0  0  0  0  0  0  0  0  0  0  0
   -4.2230    0.5735    0.7774 H   0  0  0  0  0  0  0  0  0  0  0  0
   -3.9595   -0.4917   -0.6584 H   0  0  0  0  0  0  0  0  0  0  0  0
   -1.4897   -0.6132   -0.2849 C   0  0  0  0  0  3  0  0  0  0  0  0
   -1.6675    1.6440    0.6442 C   0  0  0  0  0  0  0  0  0  0  0  0
   -1.9974    1.6818    1.7104 H   0  0  0  0  0  0  0  0  0  0  0  0
   -2.0518    2.5804    0.1722 H   0  0  0  0  0  0  0  0  0  0  0  0
   -0.1533    1.6319    0.6004 C   0  0  0  0  0  3  0  0  0  0  0  0
    0.2986    2.1164    1.4828 H   0  0  0  0  0  0  0  0  0  0  0  0
    0.6550    1.7065   -0.5862 C   0  0  1  0  0  3  0  0  0  0  0  0
    1.9355    2.5101   -0.5784 C   0  0  0  0  0  0  0  0  0  0  0  0
    2.7083    2.0707   -1.2387 H   0  0  0  0  0  0  0  0  0  0  0  0
    2.3574    2.6221    0.4390 H   0  0  0  0  0  0  0  0  0  0  0  0
    1.7100    3.5288   -0.9607 H   0  0  0  0  0  0  0  0  0  0  0  0
    0.3016    0.9278   -1.7226 C   0  0  0  0  0  3  0  0  0  0  0  0
    1.0404    0.8565   -2.5372 H   0  0  0  0  0  0  0  0  0  0  0  0
   -0.7437    0.7902   -2.0276 H   0  0  0  0  0  0  0  0  0  0  0  0
  1  7  2  0  0  0  0
  2  8  1  0  0  0  0
  3  2  1  0  0  0  0
  3  5  1  0  0  0  0
  4  3  1  0  0  0  0
  6  3  1  0  0  0  0
  7  2  1  0  0  0  0
  8  9  1  0  0  0  0
 10  8  1  0  0  0  0
 11  8  1  0  0  0  0
 11 12  1  0  0  0  0
 13 18  1  1  0  0  0
 13 14  1  0  0  0  0
 13 11  1  0  0  0  0
 14 16  1  0  0  0  0
 15 14  1  0  0  0  0
 17 14  1  0  0  0  0
 19 18  1  0  0  0  0
 20 18  1  0  0  0  0
M  END
