1,7
 OpenBabel05122313053D

 33 34  0  0  0  0  0  0  0  0999 V2000
    1.0700    0.2268    0.1381 C   0  0  0  0  0  3  0  0  0  0  0  0
    1.6578    1.5724    0.1091 C   0  0  0  0  0  0  0  0  0  0  0  0
    3.0370   -1.4445   -0.0169 C   0  0  0  0  0  0  0  0  0  0  0  0
    1.6320   -1.0161    0.0641 C   0  0  0  0  0  0  0  0  0  0  0  0
    1.5678    2.3476   -1.0760 C   0  0  0  0  0  0  0  0  0  0  0  0
    3.3457   -2.8258   -0.0140 C   0  0  0  0  0  0  0  0  0  0  0  0
    0.4501   -1.9550   -0.0392 C   0  0  0  0  0  3  0  0  0  0  0  0
    2.0592    3.6562   -1.1248 C   0  0  0  0  0  0  0  0  0  0  0  0
    4.6697   -3.2807   -0.0754 C   0  0  0  0  0  0  0  0  0  0  0  0
    2.6631    4.2608   -0.0000 C   0  0  0  0  0  0  0  0  0  0  0  0
    5.7494   -2.3807   -0.1482 C   0  0  0  0  0  0  0  0  0  0  0  0
    2.7776    3.4836    1.1687 C   0  0  0  0  0  0  0  0  0  0  0  0
    5.4448   -1.0009   -0.1636 C   0  0  0  0  0  0  0  0  0  0  0  0
    2.2934    2.1676    1.2241 C   0  0  0  0  0  0  0  0  0  0  0  0
    4.1278   -0.5401   -0.1014 C   0  0  0  0  0  0  0  0  0  0  0  0
    3.1752    5.6780   -0.0629 C   0  0  0  0  0  0  0  0  0  0  0  0
    7.1780   -2.8589   -0.2161 C   0  0  0  0  0  0  0  0  0  0  0  0
    1.1041    1.8828   -1.9603 H   0  0  0  0  0  0  0  0  0  0  0  0
    2.5236   -3.5556    0.0355 H   0  0  0  0  0  0  0  0  0  0  0  0
    0.3877   -2.7291    0.7539 H   0  0  0  0  0  0  0  0  0  0  0  0
    0.4098   -2.4646   -1.0250 H   0  0  0  0  0  0  0  0  0  0  0  0
    1.9764    4.2277   -2.0643 H   0  0  0  0  0  0  0  0  0  0  0  0
    4.8718   -4.3644   -0.0696 H   0  0  0  0  0  0  0  0  0  0  0  0
    3.2636    3.9178    2.0578 H   0  0  0  0  0  0  0  0  0  0  0  0
    6.2669   -0.2693   -0.2318 H   0  0  0  0  0  0  0  0  0  0  0  0
    2.4224    1.5839    2.1464 H   0  0  0  0  0  0  0  0  0  0  0  0
    3.9335    0.5404   -0.1267 H   0  0  0  0  0  0  0  0  0  0  0  0
    3.9303    5.8010   -0.8677 H   0  0  0  0  0  0  0  0  0  0  0  0
    7.2404   -3.9644   -0.1863 H   0  0  0  0  0  0  0  0  0  0  0  0
    3.6461    5.9849    0.8913 H   0  0  0  0  0  0  0  0  0  0  0  0
    2.3576    6.3972   -0.2821 H   0  0  0  0  0  0  0  0  0  0  0  0
    7.6769   -2.5182   -1.1482 H   0  0  0  0  0  0  0  0  0  0  0  0
    7.7808   -2.4634    0.6289 H   0  0  0  0  0  0  0  0  0  0  0  0
  2  1  1  0  0  0  0
  2 14  1  0  0  0  0
  3  6  1  0  0  0  0
  3  4  1  0  0  0  0
  4  1  2  0  0  0  0
  5  2  2  0  0  0  0
  6 19  1  0  0  0  0
  7  4  1  0  0  0  0
  7 20  1  0  0  0  0
  8  5  1  0  0  0  0
  8 10  2  0  0  0  0
  9 23  1  0  0  0  0
  9  6  2  0  0  0  0
 10 12  1  0  0  0  0
 11  9  1  0  0  0  0
 12 14  2  0  0  0  0
 12 24  1  0  0  0  0
 13 11  2  0  0  0  0
 13 15  1  0  0  0  0
 14 26  1  0  0  0  0
 15  3  2  0  0  0  0
 16 10  1  0  0  0  0
 16 30  1  0  0  0  0
 17 29  1  0  0  0  0
 17 11  1  0  0  0  0
 17 33  1  0  0  0  0
 18  5  1  0  0  0  0
 21  7  1  0  0  0  0
 22  8  1  0  0  0  0
 25 13  1  0  0  0  0
 27 15  1  0  0  0  0
 28 16  1  0  0  0  0
 31 16  1  0  0  0  0
 32 17  1  0  0  0  0
M  END
