2,4
 OpenBabel05122313053D

 39 41  0  0  1  0  0  0  0  0999 V2000
    1.5064   -2.8018   -1.7365 O   0  0  0  0  0  0  0  0  0  0  0  0
    0.9782   -1.9166   -1.1119 C   0  0  0  0  0  3  0  0  0  0  0  0
    1.2005   -0.4851   -0.8698 C   0  0  1  0  0  3  0  0  0  0  0  0
    0.0557    0.3695   -0.6493 C   0  0  2  0  0  3  0  0  0  0  0  0
   -1.2336   -0.1346   -1.0678 C   0  0  0  0  0  3  0  0  0  0  0  0
    2.6124   -0.0750   -0.6704 C   0  0  0  0  0  0  0  0  0  0  0  0
    3.5550   -0.9195   -0.0406 C   0  0  0  0  0  0  0  0  0  0  0  0
    4.8994   -0.5397    0.0709 C   0  0  0  0  0  0  0  0  0  0  0  0
    5.3345    0.6896   -0.4488 C   0  0  0  0  0  0  0  0  0  0  0  0
    4.4120    1.5275   -1.0963 C   0  0  0  0  0  0  0  0  0  0  0  0
    3.0680    1.1511   -1.2101 C   0  0  0  0  0  0  0  0  0  0  0  0
    0.2220    1.7461   -0.0918 C   0  0  0  0  0  0  0  0  0  0  0  0
    1.0480    2.0474    1.0128 C   0  0  0  0  0  0  0  0  0  0  0  0
    1.2071    3.3679    1.4527 C   0  0  0  0  0  0  0  0  0  0  0  0
    0.5528    4.4191    0.7899 C   0  0  0  0  0  0  0  0  0  0  0  0
   -0.2572    4.1371   -0.3210 C   0  0  0  0  0  0  0  0  0  0  0  0
   -0.4203    2.8149   -0.7563 C   0  0  0  0  0  0  0  0  0  0  0  0
   -2.5619    0.4035   -0.7040 C   0  0  0  0  0  0  0  0  0  0  0  0
   -2.8384    1.1578    0.4634 C   0  0  0  0  0  0  0  0  0  0  0  0
   -4.1362    1.5993    0.7446 C   0  0  0  0  0  0  0  0  0  0  0  0
   -5.2001    1.2954   -0.1228 C   0  0  0  0  0  0  0  0  0  0  0  0
   -4.9472    0.5415   -1.2785 C   0  0  0  0  0  0  0  0  0  0  0  0
   -3.6468    0.1032   -1.5625 C   0  0  0  0  0  0  0  0  0  0  0  0
   -1.2463   -0.6177   -2.0593 H   0  0  0  0  0  0  0  0  0  0  0  0
    3.2292   -1.8914    0.3583 H   0  0  0  0  0  0  0  0  0  0  0  0
    5.6141   -1.2133    0.5680 H   0  0  0  0  0  0  0  0  0  0  0  0
    6.3896    0.9888   -0.3592 H   0  0  0  0  0  0  0  0  0  0  0  0
    4.7425    2.4866   -1.5236 H   0  0  0  0  0  0  0  0  0  0  0  0
    2.3580    1.8095   -1.7301 H   0  0  0  0  0  0  0  0  0  0  0  0
    1.5863    1.2393    1.5239 H   0  0  0  0  0  0  0  0  0  0  0  0
    1.8543    3.5781    2.3177 H   0  0  0  0  0  0  0  0  0  0  0  0
    0.6797    5.4562    1.1353 H   0  0  0  0  0  0  0  0  0  0  0  0
   -0.7679    4.9528   -0.8548 H   0  0  0  0  0  0  0  0  0  0  0  0
   -1.0553    2.5986   -1.6277 H   0  0  0  0  0  0  0  0  0  0  0  0
   -2.0246    1.4080    1.1554 H   0  0  0  0  0  0  0  0  0  0  0  0
   -4.3205    2.1895    1.6555 H   0  0  0  0  0  0  0  0  0  0  0  0
   -6.2193    1.6425    0.1044 H   0  0  0  0  0  0  0  0  0  0  0  0
   -5.7690    0.2902   -1.9663 H   0  0  0  0  0  0  0  0  0  0  0  0
   -3.4582   -0.4965   -2.4668 H   0  0  0  0  0  0  0  0  0  0  0  0
  1  2  2  0  0  0  0
  3  2  1  1  0  0  0
  3  6  1  0  0  0  0
  3  4  1  0  0  0  0
  4  5  1  6  0  0  0
  4 12  1  0  0  0  0
  5 18  1  0  0  0  0
  6  7  1  0  0  0  0
  7  8  2  0  0  0  0
  7 25  1  0  0  0  0
  8 26  1  0  0  0  0
  9 27  1  0  0  0  0
  9  8  1  0  0  0  0
 10  9  2  0  0  0  0
 11 10  1  0  0  0  0
 11  6  2  0  0  0  0
 12 13  1  0  0  0  0
 13 14  2  0  0  0  0
 13 30  1  0  0  0  0
 14 31  1  0  0  0  0
 15 32  1  0  0  0  0
 15 14  1  0  0  0  0
 16 15  2  0  0  0  0
 17 16  1  0  0  0  0
 17 12  2  0  0  0  0
 18 19  1  0  0  0  0
 19 20  2  0  0  0  0
 19 35  1  0  0  0  0
 20 36  1  0  0  0  0
 21 37  1  0  0  0  0
 21 20  1  0  0  0  0
 22 21  2  0  0  0  0
 23 22  1  0  0  0  0
 23 18  2  0  0  0  0
 24  5  1  0  0  0  0
 28 10  1  0  0  0  0
 29 11  1  0  0  0  0
 33 16  1  0  0  0  0
 34 17  1  0  0  0  0
 38 22  1  0  0  0  0
 39 23  1  0  0  0  0
M  END
