1,17
 OpenBabel05122313053D

 32 34  0  0  0  0  0  0  0  0999 V2000
   -0.2045    1.3610    0.5741 C   0  0  0  0  0  2  0  0  0  0  0  0
    1.5247    2.4656    1.5654 C   0  0  0  0  0  0  0  0  0  0  0  0
    0.3575    2.9914    2.0483 C   0  0  0  0  0  0  0  0  0  0  0  0
   -2.0965    2.5776    1.6606 C   0  0  0  0  0  0  0  0  0  0  0  0
    2.0960    0.7071   -0.1069 C   0  0  0  0  0  0  0  0  0  0  0  0
    3.0609    1.4001   -0.8573 C   0  0  0  0  0  0  0  0  0  0  0  0
    4.0268    0.7017   -1.5924 C   0  0  0  0  0  0  0  0  0  0  0  0
    1.1615    1.4592    0.6698 N   0  0  0  0  0  0  0  0  0  0  0  0
   -0.6819    2.3022    1.4326 N   0  0  0  0  0  0  0  0  0  0  0  0
    2.5694    2.6962    1.7926 H   0  0  0  0  0  0  0  0  0  0  0  0
    0.1815    3.7850    2.7809 H   0  0  0  0  0  0  0  0  0  0  0  0
   -2.3044    2.6069    2.7469 H   0  0  0  0  0  0  0  0  0  0  0  0
   -2.3798    3.5478    1.2071 H   0  0  0  0  0  0  0  0  0  0  0  0
   -2.6874    1.7677    1.1957 H   0  0  0  0  0  0  0  0  0  0  0  0
    3.0385    2.4995   -0.8649 H   0  0  0  0  0  0  0  0  0  0  0  0
    4.7734    1.2580   -2.1771 H   0  0  0  0  0  0  0  0  0  0  0  0
   -0.2044   -1.3607    0.5743 C   0  0  0  0  0  2  0  0  0  0  0  0
    1.5248   -2.4662    1.5645 C   0  0  0  0  0  0  0  0  0  0  0  0
    0.3576   -2.9919    2.0476 C   0  0  0  0  0  0  0  0  0  0  0  0
   -2.0964   -2.5768    1.6612 C   0  0  0  0  0  0  0  0  0  0  0  0
    2.0961   -0.7070   -0.1070 C   0  0  0  0  0  0  0  0  0  0  0  0
    3.0611   -1.3998   -0.8574 C   0  0  0  0  0  0  0  0  0  0  0  0
    4.0269   -0.7011   -1.5925 C   0  0  0  0  0  0  0  0  0  0  0  0
    1.1616   -1.4593    0.6695 N   0  0  0  0  0  0  0  0  0  0  0  0
   -0.6818   -2.3021    1.4326 N   0  0  0  0  0  0  0  0  0  0  0  0
    2.5695   -2.6972    1.7914 H   0  0  0  0  0  0  0  0  0  0  0  0
    0.1816   -3.7857    2.7800 H   0  0  0  0  0  0  0  0  0  0  0  0
   -2.3038   -2.6061    2.7476 H   0  0  0  0  0  0  0  0  0  0  0  0
   -2.3804   -3.5468    1.2078 H   0  0  0  0  0  0  0  0  0  0  0  0
   -2.6871   -1.7666    1.1968 H   0  0  0  0  0  0  0  0  0  0  0  0
    3.0389   -2.4992   -0.8652 H   0  0  0  0  0  0  0  0  0  0  0  0
    4.7736   -1.2573   -2.1772 H   0  0  0  0  0  0  0  0  0  0  0  0
  1  8  1  0  0  0  0
  1  9  1  0  0  0  0
  2 10  1  0  0  0  0
  2  3  2  0  0  0  0
  3 11  1  0  0  0  0
  4 12  1  0  0  0  0
  5  8  1  0  0  0  0
  6  5  2  0  0  0  0
  7  6  1  0  0  0  0
  8  2  1  0  0  0  0
  9  4  1  0  0  0  0
  9  3  1  0  0  0  0
 13  4  1  0  0  0  0
 14  4  1  0  0  0  0
 15  6  1  0  0  0  0
 16  7  1  0  0  0  0
 17 24  1  0  0  0  0
 17 25  1  0  0  0  0
 18 26  1  0  0  0  0
 18 19  2  0  0  0  0
 19 27  1  0  0  0  0
 20 28  1  0  0  0  0
 21  5  1  0  0  0  0
 21 24  1  0  0  0  0
 22 21  2  0  0  0  0
 23  7  2  0  0  0  0
 23 22  1  0  0  0  0
 24 18  1  0  0  0  0
 25 20  1  0  0  0  0
 25 19  1  0  0  0  0
 29 20  1  0  0  0  0
 30 20  1  0  0  0  0
 31 22  1  0  0  0  0
 32 23  1  0  0  0  0
M  END
