9,10
 OpenBabel05122313053D

 32 32  0  0  1  0  0  0  0  0999 V2000
    0.6076   -0.7748   -1.0987 C   0  0  2  0  0  3  0  0  0  0  0  0
    1.3969    0.3253   -1.7984 C   0  0  0  0  0  0  0  0  0  0  0  0
    2.1900    1.2809   -0.8952 C   0  0  0  0  0  0  0  0  0  0  0  0
    1.4102    1.8249    0.3180 C   0  0  1  0  0  0  0  0  0  0  0  0
    0.6078    0.7748    1.0986 C   0  0  1  0  0  3  0  0  0  0  0  0
    1.3970   -0.3254    1.7982 C   0  0  0  0  0  0  0  0  0  0  0  0
    2.1899   -1.2812    0.8949 C   0  0  0  0  0  0  0  0  0  0  0  0
    1.4099   -1.8250   -0.3182 C   0  0  2  0  0  0  0  0  0  0  0  0
   -0.6345   -1.1790   -1.6669 C   0  0  0  0  0  3  0  0  0  0  0  0
   -0.6341    1.1792    1.6670 C   0  0  0  0  0  3  0  0  0  0  0  0
    2.3556    2.6029    1.2506 C   0  0  0  0  0  0  0  0  0  0  0  0
    2.3551   -2.6031   -1.2508 C   0  0  0  0  0  0  0  0  0  0  0  0
    0.7007    0.9067   -2.4363 H   0  0  0  0  0  0  0  0  0  0  0  0
    2.1082   -0.1543   -2.5077 H   0  0  0  0  0  0  0  0  0  0  0  0
    2.5407    2.1424   -1.5024 H   0  0  0  0  0  0  0  0  0  0  0  0
    3.1166    0.7864   -0.5407 H   0  0  0  0  0  0  0  0  0  0  0  0
    0.6696    2.5592   -0.0651 H   0  0  0  0  0  0  0  0  0  0  0  0
    0.7009   -0.9067    2.4363 H   0  0  0  0  0  0  0  0  0  0  0  0
    2.1085    0.1541    2.5074 H   0  0  0  0  0  0  0  0  0  0  0  0
    2.5405   -2.1427    1.5022 H   0  0  0  0  0  0  0  0  0  0  0  0
    3.1165   -0.7869    0.5404 H   0  0  0  0  0  0  0  0  0  0  0  0
    0.6692   -2.5592    0.0650 H   0  0  0  0  0  0  0  0  0  0  0  0
   -0.9759   -2.2186   -1.5338 H   0  0  0  0  0  0  0  0  0  0  0  0
   -0.9840   -0.7081   -2.5998 H   0  0  0  0  0  0  0  0  0  0  0  0
   -0.9837    0.7083    2.5999 H   0  0  0  0  0  0  0  0  0  0  0  0
   -0.9754    2.2188    1.5339 H   0  0  0  0  0  0  0  0  0  0  0  0
    3.1673    1.9566    1.6438 H   0  0  0  0  0  0  0  0  0  0  0  0
    2.8387    3.4398    0.7062 H   0  0  0  0  0  0  0  0  0  0  0  0
    1.8075    3.0277    2.1154 H   0  0  0  0  0  0  0  0  0  0  0  0
    1.8068   -3.0279   -2.1155 H   0  0  0  0  0  0  0  0  0  0  0  0
    3.1669   -1.9570   -1.6441 H   0  0  0  0  0  0  0  0  0  0  0  0
    2.8382   -3.4401   -0.7065 H   0  0  0  0  0  0  0  0  0  0  0  0
  1  9  1  6  0  0  0
  1  8  1  0  0  0  0
  2  1  1  0  0  0  0
  2  3  1  0  0  0  0
  3 16  1  0  0  0  0
  3  4  1  0  0  0  0
  4 17  1  6  0  0  0
  4  5  1  0  0  0  0
  4 11  1  0  0  0  0
  5 10  1  1  0  0  0
  5  6  1  0  0  0  0
  6 18  1  0  0  0  0
  6 19  1  0  0  0  0
  7 20  1  0  0  0  0
  7  6  1  0  0  0  0
  8 22  1  1  0  0  0
  8  7  1  0  0  0  0
  9 23  1  0  0  0  0
 10 25  1  0  0  0  0
 11 27  1  0  0  0  0
 11 29  1  0  0  0  0
 12 32  1  0  0  0  0
 12  8  1  0  0  0  0
 13  2  1  0  0  0  0
 14  2  1  0  0  0  0
 15  3  1  0  0  0  0
 21  7  1  0  0  0  0
 24  9  1  0  0  0  0
 26 10  1  0  0  0  0
 28 11  1  0  0  0  0
 30 12  1  0  0  0  0
 31 12  1  0  0  0  0
M  END
