7,47
 OpenBabel05122313053D

 62 64  0  0  1  0  0  0  0  0999 V2000
   -2.3534   -0.3008   -1.2393 C   0  0  0  0  0  0  0  0  0  0  0  0
   -3.5927   -0.2681   -1.8309 O   0  0  0  0  0  0  0  0  0  0  0  0
   -4.6899    0.1693   -1.0246 C   0  0  0  0  0  0  0  0  0  0  0  0
   -5.5954    0.0774   -1.6539 H   0  0  0  0  0  0  0  0  0  0  0  0
   -4.5722    1.2245   -0.6987 H   0  0  0  0  0  0  0  0  0  0  0  0
   -4.7952   -0.4640   -0.1181 H   0  0  0  0  0  0  0  0  0  0  0  0
   -1.8375   -1.5508   -0.7861 C   0  0  1  0  0  3  0  0  0  0  0  0
   -2.6960   -2.7864   -0.9330 C   0  0  0  0  0  0  0  0  0  0  0  0
   -3.7526   -2.5109   -0.7558 H   0  0  0  0  0  0  0  0  0  0  0  0
   -2.4358   -3.5191   -0.1451 H   0  0  0  0  0  0  0  0  0  0  0  0
   -2.5580   -3.4101   -2.3285 C   0  0  0  0  0  0  0  0  0  0  0  0
   -3.1870   -4.3178   -2.4212 H   0  0  0  0  0  0  0  0  0  0  0  0
   -1.5091   -3.6998   -2.5447 H   0  0  0  0  0  0  0  0  0  0  0  0
   -2.8773   -2.6893   -3.1069 H   0  0  0  0  0  0  0  0  0  0  0  0
   -0.4705   -1.6227   -0.3416 C   0  0  0  0  0  0  0  0  0  0  0  0
    0.1708   -2.9368    0.0621 C   0  0  0  0  0  0  0  0  0  0  0  0
   -0.3495   -3.7677   -0.4521 H   0  0  0  0  0  0  0  0  0  0  0  0
    1.2063   -2.9453   -0.3255 H   0  0  0  0  0  0  0  0  0  0  0  0
    0.2134   -3.2040    1.5718 C   0  0  0  0  0  0  0  0  0  0  0  0
    0.7398   -4.1576    1.7818 H   0  0  0  0  0  0  0  0  0  0  0  0
   -0.8046   -3.2673    2.0019 H   0  0  0  0  0  0  0  0  0  0  0  0
    0.7466   -2.3909    2.1009 H   0  0  0  0  0  0  0  0  0  0  0  0
    0.3017   -0.4202   -0.2443 C   0  0  0  0  0  0  0  0  0  0  0  0
    1.5962   -0.5347    0.1426 O   0  0  0  0  0  0  0  0  0  0  0  0
    2.9654   -0.6149   -0.9260 Si  0  0  0  0  0  0  0  0  0  0  0  0
    3.2476    1.0300   -1.7968 C   0  0  0  0  0  0  0  0  0  0  0  0
    3.5323    1.8444   -1.1048 H   0  0  0  0  0  0  0  0  0  0  0  0
    2.3321    1.3525   -2.3326 H   0  0  0  0  0  0  0  0  0  0  0  0
    4.0536    0.9054   -2.5497 H   0  0  0  0  0  0  0  0  0  0  0  0
    2.6458   -1.9093   -2.2630 C   0  0  0  0  0  0  0  0  0  0  0  0
    2.6884   -2.9510   -1.8910 H   0  0  0  0  0  0  0  0  0  0  0  0
    3.4048   -1.8020   -3.0649 H   0  0  0  0  0  0  0  0  0  0  0  0
    1.6499   -1.7499   -2.7261 H   0  0  0  0  0  0  0  0  0  0  0  0
    4.3731   -1.0836    0.2732 C   0  0  0  0  0  0  0  0  0  0  0  0
    4.4314   -0.0558    1.4201 C   0  0  0  0  0  0  0  0  0  0  0  0
    4.5835    0.9791    1.0491 H   0  0  0  0  0  0  0  0  0  0  0  0
    5.2783   -0.2898    2.1021 H   0  0  0  0  0  0  0  0  0  0  0  0
    3.5023   -0.0704    2.0252 H   0  0  0  0  0  0  0  0  0  0  0  0
    4.1152   -2.4862    0.8553 C   0  0  0  0  0  0  0  0  0  0  0  0
    4.0979   -3.2684    0.0684 H   0  0  0  0  0  0  0  0  0  0  0  0
    3.1526   -2.5305    1.4034 H   0  0  0  0  0  0  0  0  0  0  0  0
    4.9211   -2.7596    1.5715 H   0  0  0  0  0  0  0  0  0  0  0  0
    5.6985   -1.0747   -0.5139 C   0  0  0  0  0  0  0  0  0  0  0  0
    5.6861   -1.7922   -1.3614 H   0  0  0  0  0  0  0  0  0  0  0  0
    6.5425   -1.3662    0.1494 H   0  0  0  0  0  0  0  0  0  0  0  0
    5.9339   -0.0703   -0.9228 H   0  0  0  0  0  0  0  0  0  0  0  0
   -0.2645    0.8844   -0.5416 C   0  0  2  0  0  3  0  0  0  0  0  0
    0.3838    2.1684   -0.2367 C   0  0  0  0  0  0  0  0  0  0  0  0
    1.4901    2.3008    0.6411 C   0  0  0  0  0  0  0  0  0  0  0  0
    1.8801    1.4139    1.1497 H   0  0  0  0  0  0  0  0  0  0  0  0
    2.0641    3.5456    0.8999 C   0  0  0  0  0  0  0  0  0  0  0  0
    2.9104    3.6108    1.6007 H   0  0  0  0  0  0  0  0  0  0  0  0
    1.5644    4.7123    0.2851 C   0  0  0  0  0  0  0  0  0  0  0  0
    2.0293    5.6895    0.4829 H   0  0  0  0  0  0  0  0  0  0  0  0
    0.4520    4.6168   -0.5466 C   0  0  0  0  0  0  0  0  0  0  0  0
    0.0164    5.5197   -1.0020 H   0  0  0  0  0  0  0  0  0  0  0  0
   -0.1686    3.3671   -0.8000 C   0  0  0  0  0  0  0  0  0  0  0  0
   -1.3856    3.3038   -1.5705 C   0  0  0  0  0  0  0  0  0  0  0  0
   -1.7645    4.2339   -2.0218 H   0  0  0  0  0  0  0  0  0  0  0  0
   -2.0894    2.1412   -1.6993 C   0  0  0  0  0  0  0  0  0  0  0  0
   -3.0330    2.0996   -2.2588 H   0  0  0  0  0  0  0  0  0  0  0  0
   -1.5741    0.9041   -1.1574 C   0  0  0  0  0  0  0  0  0  0  0  0
  1 62  2  0  0  0  0
  1  7  1  0  0  0  0
  2  1  1  0  0  0  0
  2  3  1  0  0  0  0
  3  5  1  0  0  0  0
  3  6  1  0  0  0  0
  4  3  1  0  0  0  0
  7  8  1  6  0  0  0
  7 15  1  0  0  0  0
  8  9  1  0  0  0  0
  8 10  1  0  0  0  0
 11  8  1  0  0  0  0
 12 11  1  0  0  0  0
 13 11  1  0  0  0  0
 14 11  1  0  0  0  0
 15 23  2  0  0  0  0
 15 16  1  0  0  0  0
 16 19  1  0  0  0  0
 17 16  1  0  0  0  0
 18 16  1  0  0  0  0
 19 20  1  0  0  0  0
 19 21  1  0  0  0  0
 19 22  1  0  0  0  0
 23 24  1  0  0  0  0
 25 24  1  0  0  0  0
 25 34  1  0  0  0  0
 26 27  1  0  0  0  0
 26 25  1  0  0  0  0
 28 26  1  0  0  0  0
 29 26  1  0  0  0  0
 30 31  1  0  0  0  0
 30 25  1  0  0  0  0
 32 30  1  0  0  0  0
 33 30  1  0  0  0  0
 34 39  1  0  0  0  0
 34 35  1  0  0  0  0
 35 38  1  0  0  0  0
 35 37  1  0  0  0  0
 36 35  1  0  0  0  0
 39 41  1  0  0  0  0
 39 42  1  0  0  0  0
 40 39  1  0  0  0  0
 43 45  1  0  0  0  0
 43 34  1  0  0  0  0
 44 43  1  0  0  0  0
 46 43  1  0  0  0  0
 47 62  1  1  0  0  0
 47 23  1  0  0  0  0
 47 48  1  0  0  0  0
 48 49  1  0  0  0  0
 49 51  2  0  0  0  0
 49 50  1  0  0  0  0
 51 52  1  0  0  0  0
 53 54  1  0  0  0  0
 53 51  1  0  0  0  0
 55 53  2  0  0  0  0
 56 55  1  0  0  0  0
 57 55  1  0  0  0  0
 57 48  2  0  0  0  0
 58 57  1  0  0  0  0
 59 58  1  0  0  0  0
 60 58  2  0  0  0  0
 60 62  1  0  0  0  0
 61 60  1  0  0  0  0
M  END
