3,10
 OpenBabel05122313053D

 32 34  0  0  0  0  0  0  0  0999 V2000
    3.3817    2.0940    0.3564 C   0  0  0  0  0  3  0  0  0  0  0  0
    4.4438    2.3753    0.4012 H   0  0  0  0  0  0  0  0  0  0  0  0
    2.6932    2.0536   -0.8884 C   0  0  0  0  0  3  0  0  0  0  0  0
    3.2386    2.2847   -1.8168 H   0  0  0  0  0  0  0  0  0  0  0  0
    1.3088    1.6694   -0.9545 C   0  0  0  0  0  3  0  0  0  0  0  0
    0.8173    1.5913   -1.9339 H   0  0  0  0  0  0  0  0  0  0  0  0
    0.5734    1.3262    0.2238 C   0  0  0  0  0  0  0  0  0  0  0  0
    1.3110    1.2817    1.4701 C   0  0  0  0  0  0  0  0  0  0  0  0
    0.8103    0.9278    2.3808 H   0  0  0  0  0  0  0  0  0  0  0  0
    2.6734    1.6794    1.5363 C   0  0  0  0  0  3  0  0  0  0  0  0
    3.2019    1.6154    2.5004 H   0  0  0  0  0  0  0  0  0  0  0  0
   -0.8440    0.9392    0.1525 C   0  0  0  0  0  0  0  0  0  0  0  0
   -1.6771    1.4725   -0.8602 C   0  0  0  0  0  0  0  0  0  0  0  0
   -1.2728    2.1963   -1.5836 H   0  0  0  0  0  0  0  0  0  0  0  0
   -3.0327    1.1488   -0.9190 C   0  0  0  0  0  0  0  0  0  0  0  0
   -3.6634    1.6182   -1.6875 H   0  0  0  0  0  0  0  0  0  0  0  0
   -3.6192    0.2666    0.0209 C   0  0  0  0  0  0  0  0  0  0  0  0
   -2.7786   -0.2695    1.0272 C   0  0  0  0  0  0  0  0  0  0  0  0
   -3.1910   -0.9899    1.7480 H   0  0  0  0  0  0  0  0  0  0  0  0
   -1.4255    0.0599    1.0971 C   0  0  0  0  0  0  0  0  0  0  0  0
   -0.7998   -0.4210    1.8614 H   0  0  0  0  0  0  0  0  0  0  0  0
   -5.0563   -0.0804   -0.0447 C   0  0  0  0  0  0  0  0  0  0  0  0
   -5.7303   -0.1479   -1.2868 C   0  0  0  0  0  0  0  0  0  0  0  0
   -5.1744    0.0302   -2.2195 H   0  0  0  0  0  0  0  0  0  0  0  0
   -7.0892   -0.4797   -1.3484 C   0  0  0  0  0  0  0  0  0  0  0  0
   -7.5925   -0.5398   -2.3250 H   0  0  0  0  0  0  0  0  0  0  0  0
   -7.8057   -0.7436   -0.1698 C   0  0  0  0  0  0  0  0  0  0  0  0
   -8.8743   -1.0010   -0.2184 H   0  0  0  0  0  0  0  0  0  0  0  0
   -7.1517   -0.6769    1.0711 C   0  0  0  0  0  0  0  0  0  0  0  0
   -7.7090   -0.8718    1.9995 H   0  0  0  0  0  0  0  0  0  0  0  0
   -5.7910   -0.3527    1.1334 C   0  0  0  0  0  0  0  0  0  0  0  0
   -5.2976   -0.2767    2.1139 H   0  0  0  0  0  0  0  0  0  0  0  0
  1  2  1  0  0  0  0
  1 10  1  0  0  0  0
  3  1  1  0  0  0  0
  4  3  1  0  0  0  0
  5  3  1  0  0  0  0
  5  7  1  0  0  0  0
  6  5  1  0  0  0  0
  7  8  2  0  0  0  0
  8 10  1  0  0  0  0
  8  9  1  0  0  0  0
 10 11  1  0  0  0  0
 12  7  1  0  0  0  0
 12 20  1  0  0  0  0
 13 12  2  0  0  0  0
 14 13  1  0  0  0  0
 15 13  1  0  0  0  0
 15 17  2  0  0  0  0
 16 15  1  0  0  0  0
 17 18  1  0  0  0  0
 18 20  2  0  0  0  0
 18 19  1  0  0  0  0
 20 21  1  0  0  0  0
 22 17  1  0  0  0  0
 22 31  1  0  0  0  0
 23 22  2  0  0  0  0
 24 23  1  0  0  0  0
 25 23  1  0  0  0  0
 25 27  2  0  0  0  0
 26 25  1  0  0  0  0
 27 29  1  0  0  0  0
 28 27  1  0  0  0  0
 29 31  2  0  0  0  0
 29 30  1  0  0  0  0
 31 32  1  0  0  0  0
M  END
