7,9
 OpenBabel05122313053D

 38 40  0  0  1  0  0  0  0  0999 V2000
    2.1155   -2.0100    0.2625 O   0  0  0  0  0  0  0  0  0  0  0  0
    0.8257    0.8996   -1.5063 O   0  0  0  0  0  0  0  0  0  0  0  0
    3.1399   -2.4537   -1.7203 O   0  0  0  0  0  0  0  0  0  0  0  0
    2.5505    2.2390   -2.1406 O   0  0  0  0  0  0  0  0  0  0  0  0
   -0.3575   -0.3570    1.4330 C   0  0  0  0  0  0  0  0  0  0  0  0
   -0.1313   -1.2788    0.3608 C   0  0  2  0  0  3  0  0  0  0  0  0
   -1.1044   -2.2856    0.0675 C   0  0  0  0  0  3  0  0  0  0  0  0
   -2.2924   -2.3994    0.8255 C   0  0  0  0  0  3  0  0  0  0  0  0
   -2.5333   -1.4598    1.8740 C   0  0  0  0  0  3  0  0  0  0  0  0
   -1.5796   -0.4604    2.1823 C   0  0  0  0  0  0  0  0  0  0  0  0
    0.6618    0.6789    1.7259 C   0  0  0  0  0  0  0  0  0  0  0  0
    1.6772    0.9571    0.7740 C   0  0  0  0  0  0  0  0  0  0  0  0
    2.6498    1.9314    1.0498 C   0  0  0  0  0  0  0  0  0  0  0  0
    2.6342    2.6325    2.2642 C   0  0  0  0  0  0  0  0  0  0  0  0
    1.6405    2.3539    3.2145 C   0  0  0  0  0  0  0  0  0  0  0  0
    0.6649    1.3850    2.9464 C   0  0  0  0  0  0  0  0  0  0  0  0
    1.1404   -1.1955   -0.4367 C   0  0  1  0  0  0  0  0  0  0  0  0
    1.6822    0.2317   -0.5522 C   0  0  1  0  0  0  0  0  0  0  0  0
    1.3837    1.9117   -2.2363 C   0  0  0  0  0  0  0  0  0  0  0  0
    0.3413    2.5421   -3.1207 C   0  0  0  0  0  0  0  0  0  0  0  0
    3.0862   -2.5823   -0.5141 C   0  0  0  0  0  0  0  0  0  0  0  0
    4.0517   -3.3603    0.3440 C   0  0  0  0  0  0  0  0  0  0  0  0
   -0.9298   -2.9585   -0.7846 H   0  0  0  0  0  0  0  0  0  0  0  0
   -3.0502   -3.1497    0.5646 H   0  0  0  0  0  0  0  0  0  0  0  0
   -3.4825   -1.4897    2.4269 H   0  0  0  0  0  0  0  0  0  0  0  0
   -1.8117    0.2810    2.9563 H   0  0  0  0  0  0  0  0  0  0  0  0
    3.4085    2.1478    0.2836 H   0  0  0  0  0  0  0  0  0  0  0  0
    3.4005    3.3950    2.4693 H   0  0  0  0  0  0  0  0  0  0  0  0
    1.6248    2.8913    4.1745 H   0  0  0  0  0  0  0  0  0  0  0  0
   -0.0934    1.1648    3.7109 H   0  0  0  0  0  0  0  0  0  0  0  0
    1.0030   -1.5966   -1.4604 H   0  0  0  0  0  0  0  0  0  0  0  0
    2.7068    0.2040   -0.9726 H   0  0  0  0  0  0  0  0  0  0  0  0
    3.5047   -4.0456    1.0199 H   0  0  0  0  0  0  0  0  0  0  0  0
    4.6212   -2.6583    0.9860 H   0  0  0  0  0  0  0  0  0  0  0  0
    4.7492   -3.9226   -0.3000 H   0  0  0  0  0  0  0  0  0  0  0  0
    0.8260    3.2119   -3.8513 H   0  0  0  0  0  0  0  0  0  0  0  0
   -0.3548    3.1239   -2.4821 H   0  0  0  0  0  0  0  0  0  0  0  0
   -0.2615    1.7643   -3.6277 H   0  0  0  0  0  0  0  0  0  0  0  0
  2 18  1  0  0  0  0
  3 21  2  0  0  0  0
  5 11  1  0  0  0  0
  5 10  2  0  0  0  0
  6  7  1  1  0  0  0
  6  5  1  0  0  0  0
  7  8  1  0  0  0  0
  8  9  1  0  0  0  0
  9 10  1  0  0  0  0
  9 25  1  0  0  0  0
 10 26  1  0  0  0  0
 11 16  1  0  0  0  0
 12 13  1  0  0  0  0
 12 11  2  0  0  0  0
 13 14  2  0  0  0  0
 14 28  1  0  0  0  0
 14 15  1  0  0  0  0
 15 29  1  0  0  0  0
 16 15  2  0  0  0  0
 16 30  1  0  0  0  0
 17 31  1  6  0  0  0
 17  1  1  0  0  0  0
 17  6  1  0  0  0  0
 18 32  1  6  0  0  0
 18 17  1  0  0  0  0
 18 12  1  0  0  0  0
 19  4  2  0  0  0  0
 19  2  1  0  0  0  0
 20 37  1  0  0  0  0
 20 19  1  0  0  0  0
 21  1  1  0  0  0  0
 21 22  1  0  0  0  0
 22 34  1  0  0  0  0
 22 33  1  0  0  0  0
 23  7  1  0  0  0  0
 24  8  1  0  0  0  0
 27 13  1  0  0  0  0
 35 22  1  0  0  0  0
 36 20  1  0  0  0  0
 38 20  1  0  0  0  0
M  END
