1,4
 OpenBabel05122313053D

 48 51  0  0  0  0  0  0  0  0999 V2000
   -1.4106   -0.1304    0.2364 C   0  0  0  0  0  3  0  0  0  0  0  0
   -0.7397    1.0735    0.0875 C   0  0  0  0  0  0  0  0  0  0  0  0
    0.7403    1.0731   -0.0884 C   0  0  0  0  0  0  0  0  0  0  0  0
    1.4104   -0.1312   -0.2372 C   0  0  0  0  0  3  0  0  0  0  0  0
   -2.8734   -0.2904    0.1973 C   0  0  0  0  0  0  0  0  0  0  0  0
   -3.5299   -1.1859    1.0814 C   0  0  0  0  0  0  0  0  0  0  0  0
   -4.9079   -1.4304    0.9915 C   0  0  0  0  0  0  0  0  0  0  0  0
   -5.6746   -0.8042   -0.0035 C   0  0  0  0  0  0  0  0  0  0  0  0
   -5.0446    0.0772   -0.8994 C   0  0  0  0  0  0  0  0  0  0  0  0
   -3.6728    0.3359   -0.7976 C   0  0  0  0  0  0  0  0  0  0  0  0
   -1.4760    2.3737    0.0424 C   0  0  0  0  0  0  0  0  0  0  0  0
   -1.2931    3.2799   -1.0266 C   0  0  0  0  0  0  0  0  0  0  0  0
   -2.0181    4.4778   -1.0850 C   0  0  0  0  0  0  0  0  0  0  0  0
   -2.9326    4.8013   -0.0693 C   0  0  0  0  0  0  0  0  0  0  0  0
   -3.1181    3.9141    1.0032 C   0  0  0  0  0  0  0  0  0  0  0  0
   -2.3995    2.7121    1.0557 C   0  0  0  0  0  0  0  0  0  0  0  0
    1.4774    2.3727   -0.0430 C   0  0  0  0  0  0  0  0  0  0  0  0
    2.4012    2.7108   -1.0561 C   0  0  0  0  0  0  0  0  0  0  0  0
    3.1206    3.9123   -1.0033 C   0  0  0  0  0  0  0  0  0  0  0  0
    2.9357    4.7993    0.0694 C   0  0  0  0  0  0  0  0  0  0  0  0
    2.0209    4.4762    1.0850 C   0  0  0  0  0  0  0  0  0  0  0  0
    1.2951    3.2788    1.0262 C   0  0  0  0  0  0  0  0  0  0  0  0
    2.8731   -0.2920   -0.1983 C   0  0  0  0  0  0  0  0  0  0  0  0
    3.5289   -1.1874   -1.0830 C   0  0  0  0  0  0  0  0  0  0  0  0
    4.9068   -1.4327   -0.9934 C   0  0  0  0  0  0  0  0  0  0  0  0
    5.6740   -0.8076    0.0019 C   0  0  0  0  0  0  0  0  0  0  0  0
    5.0446    0.0738    0.8984 C   0  0  0  0  0  0  0  0  0  0  0  0
    3.6730    0.3333    0.7969 C   0  0  0  0  0  0  0  0  0  0  0  0
   -2.9418   -1.6876    1.8633 H   0  0  0  0  0  0  0  0  0  0  0  0
   -5.3857   -2.1212    1.7036 H   0  0  0  0  0  0  0  0  0  0  0  0
   -6.7541   -1.0024   -0.0832 H   0  0  0  0  0  0  0  0  0  0  0  0
   -5.6321    0.5731   -1.6878 H   0  0  0  0  0  0  0  0  0  0  0  0
   -3.1969    1.0344   -1.5014 H   0  0  0  0  0  0  0  0  0  0  0  0
   -0.5729    3.0359   -1.8217 H   0  0  0  0  0  0  0  0  0  0  0  0
   -1.8645    5.1674   -1.9293 H   0  0  0  0  0  0  0  0  0  0  0  0
   -3.4970    5.7453   -0.1120 H   0  0  0  0  0  0  0  0  0  0  0  0
   -3.8295    4.1605    1.8064 H   0  0  0  0  0  0  0  0  0  0  0  0
   -2.5474    2.0146    1.8937 H   0  0  0  0  0  0  0  0  0  0  0  0
    2.5487    2.0134   -1.8943 H   0  0  0  0  0  0  0  0  0  0  0  0
    3.8323    4.1584   -1.8063 H   0  0  0  0  0  0  0  0  0  0  0  0
    3.5007    5.7429    0.1124 H   0  0  0  0  0  0  0  0  0  0  0  0
    1.8677    5.1657    1.9294 H   0  0  0  0  0  0  0  0  0  0  0  0
    0.5747    3.0352    1.8212 H   0  0  0  0  0  0  0  0  0  0  0  0
    2.9404   -1.6881   -1.8651 H   0  0  0  0  0  0  0  0  0  0  0  0
    5.3842   -2.1234   -1.7059 H   0  0  0  0  0  0  0  0  0  0  0  0
    6.7534   -1.0065    0.0814 H   0  0  0  0  0  0  0  0  0  0  0  0
    5.6325    0.5688    1.6869 H   0  0  0  0  0  0  0  0  0  0  0  0
    3.1975    1.0318    1.5010 H   0  0  0  0  0  0  0  0  0  0  0  0
  2  1  2  0  0  0  0
  3 17  1  0  0  0  0
  3  2  1  0  0  0  0
  4 23  1  0  0  0  0
  4  3  2  0  0  0  0
  5  1  1  0  0  0  0
  5  6  1  0  0  0  0
  6 29  1  0  0  0  0
  7  6  2  0  0  0  0
  7 30  1  0  0  0  0
  8  7  1  0  0  0  0
  9 10  1  0  0  0  0
  9  8  2  0  0  0  0
 10  5  2  0  0  0  0
 11  2  1  0  0  0  0
 11 16  1  0  0  0  0
 12 11  2  0  0  0  0
 13 12  1  0  0  0  0
 13 14  2  0  0  0  0
 14 15  1  0  0  0  0
 15 16  2  0  0  0  0
 15 37  1  0  0  0  0
 16 38  1  0  0  0  0
 17 22  1  0  0  0  0
 18 19  1  0  0  0  0
 18 17  2  0  0  0  0
 19 20  2  0  0  0  0
 20 41  1  0  0  0  0
 20 21  1  0  0  0  0
 21 42  1  0  0  0  0
 22 21  2  0  0  0  0
 22 43  1  0  0  0  0
 23 28  1  0  0  0  0
 24 25  1  0  0  0  0
 24 23  2  0  0  0  0
 25 26  2  0  0  0  0
 26 46  1  0  0  0  0
 26 27  1  0  0  0  0
 27 47  1  0  0  0  0
 28 27  2  0  0  0  0
 28 48  1  0  0  0  0
 31  8  1  0  0  0  0
 32  9  1  0  0  0  0
 33 10  1  0  0  0  0
 34 12  1  0  0  0  0
 35 13  1  0  0  0  0
 36 14  1  0  0  0  0
 39 18  1  0  0  0  0
 40 19  1  0  0  0  0
 44 24  1  0  0  0  0
 45 25  1  0  0  0  0
M  END
