1,3
 OpenBabel05122313053D

 27 28  0  0  1  0  0  0  0  0999 V2000
   -0.1899    0.3992   -0.2143 C   0  0  0  0  0  2  0  0  0  0  0  0
   -0.6702   -0.8672   -0.4541 C   0  0  1  0  0  3  0  0  0  0  0  0
    0.3472   -1.9492   -0.7847 C   0  0  0  0  0  3  0  0  0  0  0  0
   -0.8780    1.6715   -0.0848 C   0  0  0  0  0  0  0  0  0  0  0  0
   -0.3465    2.7101    0.7251 C   0  0  0  0  0  0  0  0  0  0  0  0
   -0.9793    3.9562    0.8203 C   0  0  0  0  0  0  0  0  0  0  0  0
   -2.1461    4.2163    0.0831 C   0  0  0  0  0  0  0  0  0  0  0  0
   -2.6681    3.2147   -0.7551 C   0  0  0  0  0  0  0  0  0  0  0  0
   -2.0480    1.9640   -0.8392 C   0  0  0  0  0  0  0  0  0  0  0  0
   -2.0819   -1.2968   -0.2362 C   0  0  0  0  0  0  0  0  0  0  0  0
   -2.8737   -0.7284    0.7901 C   0  0  0  0  0  0  0  0  0  0  0  0
   -4.1866   -1.1632    1.0086 C   0  0  0  0  0  0  0  0  0  0  0  0
   -4.7422   -2.1747    0.2064 C   0  0  0  0  0  0  0  0  0  0  0  0
   -3.9650   -2.7567   -0.8078 C   0  0  0  0  0  0  0  0  0  0  0  0
   -2.6462   -2.3303   -1.0188 C   0  0  0  0  0  0  0  0  0  0  0  0
    0.4385   -2.1213   -1.8748 H   0  0  0  0  0  0  0  0  0  0  0  0
    0.1256   -2.9077   -0.2790 H   0  0  0  0  0  0  0  0  0  0  0  0
    0.5856    2.5233    1.2788 H   0  0  0  0  0  0  0  0  0  0  0  0
   -0.5494    4.7381    1.4655 H   0  0  0  0  0  0  0  0  0  0  0  0
   -2.6374    5.1990    0.1478 H   0  0  0  0  0  0  0  0  0  0  0  0
   -3.5714    3.4138   -1.3526 H   0  0  0  0  0  0  0  0  0  0  0  0
   -2.4610    1.1873   -1.4992 H   0  0  0  0  0  0  0  0  0  0  0  0
   -2.4420    0.0595    1.4244 H   0  0  0  0  0  0  0  0  0  0  0  0
   -4.7817   -0.7123    1.8178 H   0  0  0  0  0  0  0  0  0  0  0  0
   -5.7750   -2.5143    0.3782 H   0  0  0  0  0  0  0  0  0  0  0  0
   -4.3890   -3.5535   -1.4386 H   0  0  0  0  0  0  0  0  0  0  0  0
   -2.0369   -2.7928   -1.8099 H   0  0  0  0  0  0  0  0  0  0  0  0
  1  4  1  0  0  0  0
  2 10  1  0  0  0  0
  2  1  1  1  0  0  0
  3  2  1  0  0  0  0
  3 17  1  0  0  0  0
  4  5  1  0  0  0  0
  5  6  2  0  0  0  0
  5 18  1  0  0  0  0
  6 19  1  0  0  0  0
  7 20  1  0  0  0  0
  7  6  1  0  0  0  0
  8  7  2  0  0  0  0
  9  8  1  0  0  0  0
  9  4  2  0  0  0  0
 10 11  1  0  0  0  0
 11 12  2  0  0  0  0
 11 23  1  0  0  0  0
 12 24  1  0  0  0  0
 13 25  1  0  0  0  0
 13 12  1  0  0  0  0
 14 13  2  0  0  0  0
 15 14  1  0  0  0  0
 15 10  2  0  0  0  0
 16  3  1  0  0  0  0
 21  8  1  0  0  0  0
 22  9  1  0  0  0  0
 26 14  1  0  0  0  0
 27 15  1  0  0  0  0
M  END
