6,10
 OpenBabel05122313053D

 39 42  0  0  1  0  0  0  0  0999 V2000
    0.8205    0.7107    0.2483 C   0  0  2  0  0  3  0  0  0  0  0  0
    1.5783    1.4330    1.2216 C   0  0  0  0  0  0  0  0  0  0  0  0
    1.6161    2.5309    1.1941 H   0  0  0  0  0  0  0  0  0  0  0  0
    2.3231    0.7137    2.1900 C   0  0  0  0  0  0  0  0  0  0  0  0
    2.9486    1.2556    2.9125 H   0  0  0  0  0  0  0  0  0  0  0  0
    2.3238   -0.7199    2.1872 C   0  0  0  0  0  3  0  0  0  0  0  0
    2.9498   -1.2637    2.9078 H   0  0  0  0  0  0  0  0  0  0  0  0
    1.5784   -1.4373    1.2177 C   0  0  0  0  0  3  0  0  0  0  0  0
    1.6165   -2.5351    1.1872 H   0  0  0  0  0  0  0  0  0  0  0  0
    0.8213   -0.7120    0.2462 C   0  0  2  0  0  3  0  0  0  0  0  0
   -0.0212   -1.2463   -0.8914 C   0  0  2  0  0  0  0  0  0  0  0  0
    0.5192   -2.0582   -1.4218 H   0  0  0  0  0  0  0  0  0  0  0  0
   -0.1278    0.0022   -1.8189 C   0  0  0  0  0  0  0  0  0  0  0  0
   -1.0575    0.0030   -2.4181 H   0  0  0  0  0  0  0  0  0  0  0  0
    0.7353    0.0030   -2.5132 H   0  0  0  0  0  0  0  0  0  0  0  0
   -0.0213    1.2482   -0.8882 C   0  0  1  0  0  0  0  0  0  0  0  0
    0.5198    2.0614   -1.4161 H   0  0  0  0  0  0  0  0  0  0  0  0
   -1.3731    1.7999   -0.4438 C   0  0  0  0  0  0  0  0  0  0  0  0
   -1.8359    1.7213    0.8830 C   0  0  0  0  0  0  0  0  0  0  0  0
   -1.2047    1.2612    1.6564 H   0  0  0  0  0  0  0  0  0  0  0  0
   -3.0968    2.2182    1.2460 C   0  0  0  0  0  0  0  0  0  0  0  0
   -3.4649    2.1551    2.2799 H   0  0  0  0  0  0  0  0  0  0  0  0
   -3.9027    2.8041    0.2652 C   0  0  0  0  0  0  0  0  0  0  0  0
   -3.4702    2.9094   -1.0632 C   0  0  0  0  0  0  0  0  0  0  0  0
   -4.1248    3.3840   -1.8080 H   0  0  0  0  0  0  0  0  0  0  0  0
   -2.2083    2.4084   -1.4046 C   0  0  0  0  0  0  0  0  0  0  0  0
   -1.8630    2.4934   -2.4472 H   0  0  0  0  0  0  0  0  0  0  0  0
   -1.3729   -1.7988   -0.4474 C   0  0  0  0  0  0  0  0  0  0  0  0
   -1.8321   -1.7292    0.8812 C   0  0  0  0  0  0  0  0  0  0  0  0
   -1.1983   -1.2755    1.6563 H   0  0  0  0  0  0  0  0  0  0  0  0
   -3.0926   -2.2272    1.2440 C   0  0  0  0  0  0  0  0  0  0  0  0
   -3.4577   -2.1712    2.2794 H   0  0  0  0  0  0  0  0  0  0  0  0
   -3.9018   -2.8052    0.2613 C   0  0  0  0  0  0  0  0  0  0  0  0
   -3.4729   -2.9015   -1.0690 C   0  0  0  0  0  0  0  0  0  0  0  0
   -4.1301   -3.3700   -1.8154 H   0  0  0  0  0  0  0  0  0  0  0  0
   -2.2114   -2.3995   -1.4102 C   0  0  0  0  0  0  0  0  0  0  0  0
   -1.8691   -2.4775   -2.4544 H   0  0  0  0  0  0  0  0  0  0  0  0
   -5.1148    3.2817    0.6030 F   0  0  0  0  0  0  0  0  0  0  0  0
   -5.1135   -3.2838    0.5989 F   0  0  0  0  0  0  0  0  0  0  0  0
  1  2  1  6  0  0  0
  2  4  2  0  0  0  0
  3  2  1  0  0  0  0
  4  5  1  0  0  0  0
  6  4  1  0  0  0  0
  6  7  1  0  0  0  0
  8  6  1  0  0  0  0
  9  8  1  0  0  0  0
 10  1  1  0  0  0  0
 10  8  1  6  0  0  0
 11 12  1  6  0  0  0
 11 28  1  0  0  0  0
 11 10  1  0  0  0  0
 13 11  1  0  0  0  0
 13 16  1  0  0  0  0
 14 13  1  0  0  0  0
 15 13  1  0  0  0  0
 16 17  1  6  0  0  0
 16 18  1  0  0  0  0
 16  1  1  0  0  0  0
 18 19  1  0  0  0  0
 19 21  2  0  0  0  0
 19 20  1  0  0  0  0
 21 22  1  0  0  0  0
 23 38  1  0  0  0  0
 23 21  1  0  0  0  0
 24 23  2  0  0  0  0
 25 24  1  0  0  0  0
 26 24  1  0  0  0  0
 26 18  2  0  0  0  0
 27 26  1  0  0  0  0
 28 29  1  0  0  0  0
 29 31  2  0  0  0  0
 29 30  1  0  0  0  0
 31 32  1  0  0  0  0
 33 39  1  0  0  0  0
 33 31  1  0  0  0  0
 34 33  2  0  0  0  0
 35 34  1  0  0  0  0
 36 34  1  0  0  0  0
 36 28  2  0  0  0  0
 37 36  1  0  0  0  0
M  END
