4,14
 OpenBabel05122313053D

 21 22  0  0  0  0  0  0  0  0999 V2000
    1.3181    5.0101    1.4290 F   0  0  0  0  0  0  0  0  0  0  0  0
    0.5926    1.1960   -2.4965 N   0  0  0  0  0  0  0  0  0  0  0  0
    0.1889   -0.8522   -3.0951 N   0  0  0  0  0  0  0  0  0  0  0  0
    0.2539   -0.0420   -1.9991 C   0  0  0  0  0  2  0  0  0  0  0  0
    0.7336    1.1626   -3.8755 C   0  0  0  0  0  0  0  0  0  0  0  0
    1.0135    2.0348   -4.4716 H   0  0  0  0  0  0  0  0  0  0  0  0
    0.4750   -0.1326   -4.2537 C   0  0  0  0  0  0  0  0  0  0  0  0
    0.4768   -0.5995   -5.2430 H   0  0  0  0  0  0  0  0  0  0  0  0
   -0.1276   -2.2739   -3.0426 C   0  0  0  0  0  0  0  0  0  0  0  0
    0.4130   -2.7478   -2.2014 H   0  0  0  0  0  0  0  0  0  0  0  0
    0.1717   -2.7442   -3.9969 H   0  0  0  0  0  0  0  0  0  0  0  0
   -1.2125   -2.4300   -2.8779 H   0  0  0  0  0  0  0  0  0  0  0  0
    0.7967    2.2304   -1.5422 C   0  0  0  0  0  0  0  0  0  0  0  0
    0.6610    1.7856   -0.1927 C   0  0  0  0  0  3  0  0  0  0  0  0
    0.8517    2.7708    0.7984 C   0  0  0  0  0  0  0  0  0  0  0  0
    0.7826    2.5234    1.8688 H   0  0  0  0  0  0  0  0  0  0  0  0
    1.1464    4.0963    0.4465 C   0  0  0  0  0  0  0  0  0  0  0  0
    1.2705    4.5089   -0.8855 C   0  0  0  0  0  0  0  0  0  0  0  0
    1.5052    5.5574   -1.1141 H   0  0  0  0  0  0  0  0  0  0  0  0
    1.0910    3.5518   -1.8980 C   0  0  0  0  0  0  0  0  0  0  0  0
    1.1825    3.8515   -2.9529 H   0  0  0  0  0  0  0  0  0  0  0  0
  2  4  1  0  0  0  0
  2 13  1  0  0  0  0
  3  9  1  0  0  0  0
  3  4  1  0  0  0  0
  5  2  1  0  0  0  0
  6  5  1  0  0  0  0
  7  5  2  0  0  0  0
  7  3  1  0  0  0  0
  8  7  1  0  0  0  0
  9 12  1  0  0  0  0
  9 10  1  0  0  0  0
 11  9  1  0  0  0  0
 13 14  1  0  0  0  0
 14 15  2  0  0  0  0
 15 16  1  0  0  0  0
 17 15  1  0  0  0  0
 17  1  1  0  0  0  0
 18 17  2  0  0  0  0
 19 18  1  0  0  0  0
 20 13  2  0  0  0  0
 20 18  1  0  0  0  0
 21 20  1  0  0  0  0
M  END
