9,14
 OpenBabel05122313053D

 30 35  0  0  1  0  0  0  0  0999 V2000
   -2.9578    1.1571   -1.1238 C   0  0  2  0  0  0  0  0  0  0  0  0
   -3.8282    2.2294   -0.4977 C   0  0  1  0  0  0  0  0  0  0  0  0
   -5.2421    1.6724   -0.4306 C   0  0  0  0  0  0  0  0  0  0  0  0
   -4.8429    0.2144   -0.1750 C   0  0  1  0  0  0  0  0  0  0  0  0
   -3.8316   -0.0930   -1.3191 C   0  0  2  0  0  0  0  0  0  0  0  0
   -3.8772    0.3088    1.0434 C   0  0  2  0  0  0  0  0  0  0  0  0
   -2.9893    1.4305    0.4801 C   0  0  1  0  0  0  0  0  0  0  0  0
   -3.0940   -1.4412   -1.1047 C   0  0  1  0  0  0  0  0  0  0  0  0
   -1.5389   -1.3838   -0.9629 C   0  0  0  0  0  3  0  0  0  0  0  0
   -1.2550   -2.2135    0.3065 C   0  0  2  0  0  0  0  0  0  0  0  0
   -2.4395   -3.1747    0.4472 C   0  0  0  0  0  0  0  0  0  0  0  0
   -3.5002   -2.0943    0.2432 C   0  0  1  0  0  0  0  0  0  0  0  0
   -3.1397   -1.0293    1.3132 C   0  0  1  0  0  0  0  0  0  0  0  0
   -1.5807   -1.0131    1.2183 C   0  0  0  0  0  3  0  0  0  0  0  0
   -2.1953    1.4652   -1.8668 H   0  0  0  0  0  0  0  0  0  0  0  0
   -3.5999    3.2898   -0.6741 H   0  0  0  0  0  0  0  0  0  0  0  0
   -5.8008    1.8067   -1.3784 H   0  0  0  0  0  0  0  0  0  0  0  0
   -5.8354    2.1087    0.3976 H   0  0  0  0  0  0  0  0  0  0  0  0
   -5.6741   -0.5028   -0.0692 H   0  0  0  0  0  0  0  0  0  0  0  0
   -4.3300   -0.0528   -2.3084 H   0  0  0  0  0  0  0  0  0  0  0  0
   -4.4121    0.6692    1.9449 H   0  0  0  0  0  0  0  0  0  0  0  0
   -2.2516    1.9697    1.1068 H   0  0  0  0  0  0  0  0  0  0  0  0
   -3.3344   -2.1330   -1.9389 H   0  0  0  0  0  0  0  0  0  0  0  0
   -0.9550   -1.5944   -1.8779 H   0  0  0  0  0  0  0  0  0  0  0  0
   -0.2382   -2.6310    0.3955 H   0  0  0  0  0  0  0  0  0  0  0  0
   -2.4546   -3.9589   -0.3360 H   0  0  0  0  0  0  0  0  0  0  0  0
   -2.4888   -3.6566    1.4442 H   0  0  0  0  0  0  0  0  0  0  0  0
   -4.5509   -2.4336    0.2812 H   0  0  0  0  0  0  0  0  0  0  0  0
   -3.4138   -1.4085    2.3200 H   0  0  0  0  0  0  0  0  0  0  0  0
   -1.0303   -0.8951    2.1707 H   0  0  0  0  0  0  0  0  0  0  0  0
  1 15  1  6  0  0  0
  1  2  1  0  0  0  0
  1  7  1  0  0  0  0
  2 16  1  6  0  0  0
  2  3  1  0  0  0  0
  2  7  1  0  0  0  0
  3  4  1  0  0  0  0
  3 18  1  0  0  0  0
  4 19  1  1  0  0  0
  4  6  1  0  0  0  0
  5 20  1  6  0  0  0
  5  1  1  0  0  0  0
  5  8  1  0  0  0  0
  5  4  1  0  0  0  0
  6 13  1  0  0  0  0
  6 21  1  1  0  0  0
  7  6  1  0  0  0  0
  7 22  1  1  0  0  0
  8 23  1  6  0  0  0
  8  9  1  0  0  0  0
  8 12  1  0  0  0  0
  9 10  1  0  0  0  0
 10 25  1  1  0  0  0
 10 11  1  0  0  0  0
 10 14  1  0  0  0  0
 11 27  1  0  0  0  0
 12 28  1  1  0  0  0
 12 11  1  0  0  0  0
 12 13  1  0  0  0  0
 13 29  1  1  0  0  0
 14 13  1  0  0  0  0
 14 30  1  0  0  0  0
 17  3  1  0  0  0  0
 24  9  1  0  0  0  0
 26 11  1  0  0  0  0
M  END
