1,4
 OpenBabel05122313053D

 32 31  0  0  0  0  0  0  0  0999 V2000
    1.5718    0.9221   -0.0106 C   0  0  0  0  0  3  0  0  0  0  0  0
    0.7464    2.0206   -0.0488 C   0  0  0  0  0  0  0  0  0  0  0  0
   -0.7464    2.0206   -0.0490 C   0  0  0  0  0  0  0  0  0  0  0  0
   -1.5718    0.9221   -0.0105 C   0  0  0  0  0  3  0  0  0  0  0  0
    3.0800    0.8815   -0.0003 C   0  0  0  0  0  0  0  0  0  0  0  0
    3.5284    0.3516    1.3826 C   0  0  0  0  0  0  0  0  0  0  0  0
    3.5438   -0.1030   -1.0979 C   0  0  0  0  0  0  0  0  0  0  0  0
    3.6967    2.2692   -0.2488 C   0  0  0  0  0  0  0  0  0  0  0  0
   -3.0801    0.8815   -0.0002 C   0  0  0  0  0  0  0  0  0  0  0  0
   -3.5284    0.3527    1.3831 C   0  0  0  0  0  0  0  0  0  0  0  0
   -3.5439   -0.1038   -1.0971 C   0  0  0  0  0  0  0  0  0  0  0  0
   -3.6966    2.2690   -0.2498 C   0  0  0  0  0  0  0  0  0  0  0  0
    3.1099   -0.6543    1.5855 H   0  0  0  0  0  0  0  0  0  0  0  0
    3.1939    1.0242    2.1973 H   0  0  0  0  0  0  0  0  0  0  0  0
    4.6350    0.2803    1.4173 H   0  0  0  0  0  0  0  0  0  0  0  0
    3.2074    0.2228   -2.1019 H   0  0  0  0  0  0  0  0  0  0  0  0
    3.1369   -1.1200   -0.9202 H   0  0  0  0  0  0  0  0  0  0  0  0
    4.6506   -0.1750   -1.1027 H   0  0  0  0  0  0  0  0  0  0  0  0
    3.4102    2.9910    0.5430 H   0  0  0  0  0  0  0  0  0  0  0  0
    3.3813    2.6825   -1.2284 H   0  0  0  0  0  0  0  0  0  0  0  0
    4.8030    2.1999   -0.2506 H   0  0  0  0  0  0  0  0  0  0  0  0
   -4.6349    0.2814    1.4179 H   0  0  0  0  0  0  0  0  0  0  0  0
   -3.1939    1.0260    2.1972 H   0  0  0  0  0  0  0  0  0  0  0  0
   -3.1098   -0.6530    1.5868 H   0  0  0  0  0  0  0  0  0  0  0  0
   -3.2075    0.2212   -2.1013 H   0  0  0  0  0  0  0  0  0  0  0  0
   -4.6507   -0.1759   -1.1018 H   0  0  0  0  0  0  0  0  0  0  0  0
   -3.1370   -1.1207   -0.9185 H   0  0  0  0  0  0  0  0  0  0  0  0
   -3.4102    2.9915    0.5413 H   0  0  0  0  0  0  0  0  0  0  0  0
   -4.8030    2.1997   -0.2516 H   0  0  0  0  0  0  0  0  0  0  0  0
   -3.3813    2.6815   -1.2297 H   0  0  0  0  0  0  0  0  0  0  0  0
    1.1816    3.0360   -0.0924 H   0  0  0  0  0  0  0  0  0  0  0  0
   -1.1816    3.0359   -0.0929 H   0  0  0  0  0  0  0  0  0  0  0  0
  1  5  1  0  0  0  0
  2  1  2  0  0  0  0
  3  2  1  0  0  0  0
  3  4  2  0  0  0  0
  4  9  1  0  0  0  0
  5  6  1  0  0  0  0
  6 15  1  0  0  0  0
  6 13  1  0  0  0  0
  6 14  1  0  0  0  0
  7 17  1  0  0  0  0
  7  5  1  0  0  0  0
  8  5  1  0  0  0  0
  8 19  1  0  0  0  0
  9 10  1  0  0  0  0
 10 22  1  0  0  0  0
 10 24  1  0  0  0  0
 10 23  1  0  0  0  0
 11 27  1  0  0  0  0
 11  9  1  0  0  0  0
 12  9  1  0  0  0  0
 12 28  1  0  0  0  0
 16  7  1  0  0  0  0
 18  7  1  0  0  0  0
 20  8  1  0  0  0  0
 21  8  1  0  0  0  0
 25 11  1  0  0  0  0
 26 11  1  0  0  0  0
 29 12  1  0  0  0  0
 30 12  1  0  0  0  0
 31  2  1  0  0  0  0
 32  3  1  0  0  0  0
M  END
