2,4
 OpenBabel05122313053D

 36 39  0  0  1  0  0  0  0  0999 V2000
    1.2073   -1.6799   -1.2210 C   0  0  0  0  0  0  0  0  0  0  0  0
    2.4758   -1.4634   -1.8316 C   0  0  0  0  0  3  0  0  0  0  0  0
    2.9715   -0.1452   -2.0633 C   0  0  0  0  0  3  0  0  0  0  0  0
    2.2217    0.9801   -1.6201 C   0  0  0  0  0  3  0  0  0  0  0  0
   -0.0117    3.1324   -0.4222 C   0  0  0  0  0  0  0  0  0  0  0  0
   -1.0847    3.7957    0.1940 C   0  0  0  0  0  0  0  0  0  0  0  0
   -2.1585    3.0682    0.7382 C   0  0  0  0  0  0  0  0  0  0  0  0
   -2.1878    1.6623    0.6693 C   0  0  0  0  0  0  0  0  0  0  0  0
   -0.9250   -0.4975   -0.1731 C   0  0  1  0  0  0  0  0  0  0  0  0
    0.4528   -0.5481   -0.8109 C   0  0  0  0  0  0  0  0  0  0  0  0
    0.9365    0.7837   -1.0379 C   0  0  1  0  0  3  0  0  0  0  0  0
   -0.0400    1.7314   -0.4897 C   0  0  0  0  0  0  0  0  0  0  0  0
   -1.1304    0.9940    0.0421 C   0  0  0  0  0  0  0  0  0  0  0  0
   -1.9861   -1.1615   -1.0964 C   0  0  0  0  0  0  0  0  0  0  0  0
   -3.3853   -1.1209   -0.5299 C   0  0  0  0  0  0  0  0  0  0  0  0
   -4.3664   -0.2747   -1.0822 C   0  0  0  0  0  0  0  0  0  0  0  0
   -5.6514   -0.2007   -0.5224 C   0  0  0  0  0  0  0  0  0  0  0  0
   -5.9736   -0.9716    0.6049 C   0  0  0  0  0  0  0  0  0  0  0  0
   -5.0049   -1.8220    1.1638 C   0  0  0  0  0  0  0  0  0  0  0  0
   -3.7238   -1.8957    0.5989 C   0  0  0  0  0  0  0  0  0  0  0  0
    0.8533   -2.7004   -1.0221 H   0  0  0  0  0  0  0  0  0  0  0  0
    3.0969   -2.3275   -2.1066 H   0  0  0  0  0  0  0  0  0  0  0  0
    3.9678   -0.0043   -2.5023 H   0  0  0  0  0  0  0  0  0  0  0  0
    2.6333    1.9932   -1.7315 H   0  0  0  0  0  0  0  0  0  0  0  0
    0.8376    3.7008   -0.8303 H   0  0  0  0  0  0  0  0  0  0  0  0
   -1.0804    4.8941    0.2605 H   0  0  0  0  0  0  0  0  0  0  0  0
   -2.9858    3.6036    1.2280 H   0  0  0  0  0  0  0  0  0  0  0  0
   -3.0268    1.1025    1.1060 H   0  0  0  0  0  0  0  0  0  0  0  0
   -0.9259   -1.0322    0.8010 H   0  0  0  0  0  0  0  0  0  0  0  0
   -1.6796   -2.2162   -1.2635 H   0  0  0  0  0  0  0  0  0  0  0  0
   -1.9606   -0.6580   -2.0841 H   0  0  0  0  0  0  0  0  0  0  0  0
   -4.1123    0.3423   -1.9581 H   0  0  0  0  0  0  0  0  0  0  0  0
   -6.4042    0.4671   -0.9682 H   0  0  0  0  0  0  0  0  0  0  0  0
   -6.9795   -0.9130    1.0474 H   0  0  0  0  0  0  0  0  0  0  0  0
   -5.2504   -2.4339    2.0452 H   0  0  0  0  0  0  0  0  0  0  0  0
   -2.9701   -2.5654    1.0444 H   0  0  0  0  0  0  0  0  0  0  0  0
  1 21  1  0  0  0  0
  1 10  2  0  0  0  0
  2  1  1  0  0  0  0
  3  2  1  0  0  0  0
  3  4  1  0  0  0  0
  5  6  1  0  0  0  0
  6 26  1  0  0  0  0
  6  7  2  0  0  0  0
  7 27  1  0  0  0  0
  8  7  1  0  0  0  0
  8 28  1  0  0  0  0
  9 13  1  0  0  0  0
  9 29  1  1  0  0  0
 10  9  1  0  0  0  0
 11  4  1  1  0  0  0
 11 10  1  0  0  0  0
 11 12  1  0  0  0  0
 12  5  2  0  0  0  0
 12 13  1  0  0  0  0
 13  8  2  0  0  0  0
 14 15  1  0  0  0  0
 14  9  1  0  0  0  0
 15 20  1  0  0  0  0
 16 15  2  0  0  0  0
 16 17  1  0  0  0  0
 17 18  2  0  0  0  0
 18 34  1  0  0  0  0
 18 19  1  0  0  0  0
 19 35  1  0  0  0  0
 20 36  1  0  0  0  0
 20 19  2  0  0  0  0
 22  2  1  0  0  0  0
 23  3  1  0  0  0  0
 24  4  1  0  0  0  0
 25  5  1  0  0  0  0
 30 14  1  0  0  0  0
 31 14  1  0  0  0  0
 32 16  1  0  0  0  0
 33 17  1  0  0  0  0
M  END
