2,4
 OpenBabel05122313053D

 34 35  0  0  1  0  0  0  0  0999 V2000
    0.4202    1.5011   -0.4897 C   0  0  2  0  0  3  0  0  0  0  0  0
   -0.6110    1.8859    0.3867 C   0  0  0  0  0  3  0  0  0  0  0  0
   -1.0566    1.2025    1.5781 C   0  0  2  0  0  3  0  0  0  0  0  0
   -0.6993   -0.1247    1.9394 C   0  0  0  0  0  3  0  0  0  0  0  0
    0.1382   -1.0878    1.2634 C   0  0  1  0  0  3  0  0  0  0  0  0
    1.0160   -0.7602    0.2046 C   0  0  0  0  0  0  0  0  0  0  0  0
    1.7102   -1.8084   -0.5750 C   0  0  0  0  0  0  0  0  0  0  0  0
    3.0610   -2.0043   -0.5406 C   0  0  0  0  0  0  0  0  0  0  0  0
    4.0340   -1.1970    0.1565 C   0  0  0  0  0  0  0  0  0  0  0  0
    3.9126    0.1278    0.4995 C   0  0  0  0  0  0  0  0  0  0  0  0
    2.8136    1.0325    0.2155 C   0  0  0  0  0  0  0  0  0  0  0  0
    1.5187    0.6219   -0.0032 C   0  0  1  0  0  3  0  0  0  0  0  0
    0.5781    2.2019   -1.8187 C   0  0  0  0  0  0  0  0  0  0  0  0
   -2.1006    1.9085    2.4142 C   0  0  0  0  0  0  0  0  0  0  0  0
    0.0590   -2.5251    1.7320 C   0  0  0  0  0  0  0  0  0  0  0  0
    3.1652    2.5048    0.1720 C   0  0  0  0  0  0  0  0  0  0  0  0
   -1.2196    2.7564    0.0903 H   0  0  0  0  0  0  0  0  0  0  0  0
   -1.2747   -0.5354    2.7840 H   0  0  0  0  0  0  0  0  0  0  0  0
    1.0957   -2.4857   -1.1914 H   0  0  0  0  0  0  0  0  0  0  0  0
    3.4542   -2.8780   -1.0881 H   0  0  0  0  0  0  0  0  0  0  0  0
    5.0101   -1.6725    0.3492 H   0  0  0  0  0  0  0  0  0  0  0  0
    4.8060    0.6031    0.9402 H   0  0  0  0  0  0  0  0  0  0  0  0
   -0.3810    2.6426   -2.1532 H   0  0  0  0  0  0  0  0  0  0  0  0
    1.3387    3.0087   -1.7657 H   0  0  0  0  0  0  0  0  0  0  0  0
    0.9175    1.4905   -2.5971 H   0  0  0  0  0  0  0  0  0  0  0  0
   -2.8326    2.4414    1.7760 H   0  0  0  0  0  0  0  0  0  0  0  0
   -2.6572    1.2007    3.0568 H   0  0  0  0  0  0  0  0  0  0  0  0
   -1.6199    2.6639    3.0716 H   0  0  0  0  0  0  0  0  0  0  0  0
    0.9400   -2.7590    2.3660 H   0  0  0  0  0  0  0  0  0  0  0  0
    0.0707   -3.2350    0.8847 H   0  0  0  0  0  0  0  0  0  0  0  0
   -0.8598   -2.7137    2.3177 H   0  0  0  0  0  0  0  0  0  0  0  0
    3.6113    2.7984   -0.8026 H   0  0  0  0  0  0  0  0  0  0  0  0
    3.9226    2.7355    0.9487 H   0  0  0  0  0  0  0  0  0  0  0  0
    2.2847    3.1498    0.3545 H   0  0  0  0  0  0  0  0  0  0  0  0
  1 13  1  1  0  0  0
  1 12  1  0  0  0  0
  1  2  1  0  0  0  0
  2  3  1  0  0  0  0
  3  4  1  0  0  0  0
  3 14  1  6  0  0  0
  4 18  1  0  0  0  0
  5 15  1  1  0  0  0
  5  4  1  0  0  0  0
  6  5  1  0  0  0  0
  7  8  1  0  0  0  0
  7  6  2  0  0  0  0
  8  9  2  0  0  0  0
  9 21  1  0  0  0  0
  9 10  1  0  0  0  0
 10 22  1  0  0  0  0
 11 10  2  0  0  0  0
 12  6  1  6  0  0  0
 12 11  1  0  0  0  0
 13 24  1  0  0  0  0
 14 27  1  0  0  0  0
 14 28  1  0  0  0  0
 15 31  1  0  0  0  0
 15 29  1  0  0  0  0
 16 11  1  0  0  0  0
 16 34  1  0  0  0  0
 16 33  1  0  0  0  0
 17  2  1  0  0  0  0
 19  7  1  0  0  0  0
 20  8  1  0  0  0  0
 23 13  1  0  0  0  0
 25 13  1  0  0  0  0
 26 14  1  0  0  0  0
 30 15  1  0  0  0  0
 32 16  1  0  0  0  0
M  END
