5,20
 OpenBabel05122313053D

 74 81  0  0  0  0  0  0  0  0999 V2000
    0.6516   -2.7046   -0.3029 N   0  0  0  0  0  0  0  0  0  0  0  0
   -0.4635   -1.5083    1.1590 N   0  0  0  0  0  0  0  0  0  0  0  0
    0.6515    2.7047    0.3027 N   0  0  0  0  0  0  0  0  0  0  0  0
   -0.4636    1.5082   -1.1590 N   0  0  0  0  0  0  0  0  0  0  0  0
    0.5968   -1.4648    0.2802 C   0  0  0  0  0  2  0  0  0  0  0  0
   -0.2990   -3.5569    0.2523 C   0  0  0  0  0  0  0  0  0  0  0  0
   -0.5872   -4.9123    0.0379 C   0  0  0  0  0  0  0  0  0  0  0  0
   -0.0237   -5.5102   -0.6915 H   0  0  0  0  0  0  0  0  0  0  0  0
   -1.6092   -5.4785    0.8176 C   0  0  0  0  0  0  0  0  0  0  0  0
   -1.8559   -6.5425    0.6879 H   0  0  0  0  0  0  0  0  0  0  0  0
   -2.3149   -4.7174    1.7759 C   0  0  0  0  0  0  0  0  0  0  0  0
   -3.0993   -5.2007    2.3764 H   0  0  0  0  0  0  0  0  0  0  0  0
   -2.0320   -3.3571    1.9828 C   0  0  0  0  0  0  0  0  0  0  0  0
   -2.5684   -2.7594    2.7330 H   0  0  0  0  0  0  0  0  0  0  0  0
   -1.0173   -2.7939    1.2007 C   0  0  0  0  0  0  0  0  0  0  0  0
    1.5626   -3.1038   -1.3621 C   0  0  0  0  0  0  0  0  0  0  0  0
    2.1056   -2.2088   -1.7139 H   0  0  0  0  0  0  0  0  0  0  0  0
    0.9756   -3.5430   -2.1942 H   0  0  0  0  0  0  0  0  0  0  0  0
    2.3053   -3.8322   -0.9832 H   0  0  0  0  0  0  0  0  0  0  0  0
    0.5968    1.4649   -0.2803 C   0  0  0  0  0  2  0  0  0  0  0  0
   -0.2991    3.5569   -0.2525 C   0  0  0  0  0  0  0  0  0  0  0  0
   -0.5873    4.9123   -0.0382 C   0  0  0  0  0  0  0  0  0  0  0  0
   -0.0238    5.5103    0.6912 H   0  0  0  0  0  0  0  0  0  0  0  0
   -1.6094    5.4784   -0.8178 C   0  0  0  0  0  0  0  0  0  0  0  0
   -1.8562    6.5424   -0.6881 H   0  0  0  0  0  0  0  0  0  0  0  0
   -2.3151    4.7173   -1.7760 C   0  0  0  0  0  0  0  0  0  0  0  0
   -3.0996    5.2006   -2.3766 H   0  0  0  0  0  0  0  0  0  0  0  0
   -2.0320    3.3570   -1.9829 C   0  0  0  0  0  0  0  0  0  0  0  0
   -2.5685    2.7592   -2.7332 H   0  0  0  0  0  0  0  0  0  0  0  0
   -1.0174    2.7939   -1.2008 C   0  0  0  0  0  0  0  0  0  0  0  0
    1.5626    3.1039    1.3618 C   0  0  0  0  0  0  0  0  0  0  0  0
    2.1055    2.2090    1.7138 H   0  0  0  0  0  0  0  0  0  0  0  0
    0.9756    3.5432    2.1939 H   0  0  0  0  0  0  0  0  0  0  0  0
    2.3053    3.8323    0.9829 H   0  0  0  0  0  0  0  0  0  0  0  0
   -1.1807   -0.3504    1.6073 C   0  0  0  0  0  0  0  0  0  0  0  0
   -1.0012    0.1415    2.9038 C   0  0  0  0  0  0  0  0  0  0  0  0
   -0.2599   -0.3340    3.5611 H   0  0  0  0  0  0  0  0  0  0  0  0
   -1.7611    1.2395    3.3194 C   0  0  0  0  0  0  0  0  0  0  0  0
   -1.6117    1.6529    4.3292 H   0  0  0  0  0  0  0  0  0  0  0  0
   -2.7306    1.8195    2.4793 C   0  0  0  0  0  0  0  0  0  0  0  0
   -3.5037    3.0308    2.9652 C   0  0  0  0  0  0  0  0  0  0  0  0
   -3.6905    2.9390    4.0553 H   0  0  0  0  0  0  0  0  0  0  0  0
   -2.8405    3.9190    2.8483 H   0  0  0  0  0  0  0  0  0  0  0  0
   -4.8046    3.2834    2.2001 C   0  0  0  0  0  0  0  0  0  0  0  0
   -5.2276    4.2671    2.4890 H   0  0  0  0  0  0  0  0  0  0  0  0
   -5.5614    2.5181    2.4822 H   0  0  0  0  0  0  0  0  0  0  0  0
   -4.5471    3.2162    0.6936 C   0  0  0  0  0  0  0  0  0  0  0  0
   -5.4638    3.4652    0.1208 H   0  0  0  0  0  0  0  0  0  0  0  0
   -3.7827    3.9720    0.4118 H   0  0  0  0  0  0  0  0  0  0  0  0
   -4.0533    1.8237    0.2994 C   0  0  0  0  0  0  0  0  0  0  0  0
   -4.8994    1.1027    0.3831 H   0  0  0  0  0  0  0  0  0  0  0  0
   -3.7491    1.7953   -0.7646 H   0  0  0  0  0  0  0  0  0  0  0  0
   -2.9304    1.2997    1.1733 C   0  0  0  0  0  0  0  0  0  0  0  0
   -2.1160    0.2352    0.7147 C   0  0  0  0  0  0  0  0  0  0  0  0
   -2.1160   -0.2352   -0.7145 C   0  0  0  0  0  0  0  0  0  0  0  0
   -1.1808    0.3503   -1.6072 C   0  0  0  0  0  0  0  0  0  0  0  0
   -1.0014   -0.1416   -2.9037 C   0  0  0  0  0  0  0  0  0  0  0  0
   -0.2602    0.3339   -3.5611 H   0  0  0  0  0  0  0  0  0  0  0  0
   -1.7615   -1.2395   -3.3192 C   0  0  0  0  0  0  0  0  0  0  0  0
   -1.6122   -1.6530   -4.3291 H   0  0  0  0  0  0  0  0  0  0  0  0
   -2.7309   -1.8195   -2.4791 C   0  0  0  0  0  0  0  0  0  0  0  0
   -3.5042   -3.0307   -2.9650 C   0  0  0  0  0  0  0  0  0  0  0  0
   -3.6910   -2.9389   -4.0551 H   0  0  0  0  0  0  0  0  0  0  0  0
   -2.8411   -3.9190   -2.8480 H   0  0  0  0  0  0  0  0  0  0  0  0
   -4.8051   -3.2831   -2.1998 C   0  0  0  0  0  0  0  0  0  0  0  0
   -5.2283   -4.2667   -2.4887 H   0  0  0  0  0  0  0  0  0  0  0  0
   -5.5618   -2.5176   -2.4820 H   0  0  0  0  0  0  0  0  0  0  0  0
   -4.5475   -3.2159   -0.6933 C   0  0  0  0  0  0  0  0  0  0  0  0
   -3.7834   -3.9719   -0.4116 H   0  0  0  0  0  0  0  0  0  0  0  0
   -5.4643   -3.4647   -0.1206 H   0  0  0  0  0  0  0  0  0  0  0  0
   -4.0535   -1.8236   -0.2991 C   0  0  0  0  0  0  0  0  0  0  0  0
   -4.8994   -1.1024   -0.3827 H   0  0  0  0  0  0  0  0  0  0  0  0
   -3.7492   -1.7953    0.7649 H   0  0  0  0  0  0  0  0  0  0  0  0
   -2.9306   -1.2997   -1.1731 C   0  0  0  0  0  0  0  0  0  0  0  0
  1  6  1  0  0  0  0
  1  5  1  0  0  0  0
  2 15  1  0  0  0  0
  2 35  1  0  0  0  0
  3 31  1  0  0  0  0
  4 20  1  0  0  0  0
  5  2  1  0  0  0  0
  6 15  1  0  0  0  0
  7  6  2  0  0  0  0
  7  9  1  0  0  0  0
  8  7  1  0  0  0  0
  9 11  2  0  0  0  0
 10  9  1  0  0  0  0
 11 13  1  0  0  0  0
 11 12  1  0  0  0  0
 13 14  1  0  0  0  0
 15 13  2  0  0  0  0
 16 19  1  0  0  0  0
 16  1  1  0  0  0  0
 17 16  1  0  0  0  0
 18 16  1  0  0  0  0
 20  3  1  0  0  0  0
 21 22  1  0  0  0  0
 21  3  1  0  0  0  0
 22 23  1  0  0  0  0
 24 25  1  0  0  0  0
 24 22  2  0  0  0  0
 26 24  1  0  0  0  0
 27 26  1  0  0  0  0
 28 26  2  0  0  0  0
 28 30  1  0  0  0  0
 29 28  1  0  0  0  0
 30  4  1  0  0  0  0
 30 21  2  0  0  0  0
 31 32  1  0  0  0  0
 31 33  1  0  0  0  0
 34 31  1  0  0  0  0
 35 36  1  0  0  0  0
 36 38  2  0  0  0  0
 36 37  1  0  0  0  0
 38 39  1  0  0  0  0
 40 41  1  0  0  0  0
 40 38  1  0  0  0  0
 41 42  1  0  0  0  0
 43 41  1  0  0  0  0
 44 46  1  0  0  0  0
 44 45  1  0  0  0  0
 44 41  1  0  0  0  0
 47 44  1  0  0  0  0
 48 47  1  0  0  0  0
 49 47  1  0  0  0  0
 50 51  1  0  0  0  0
 50 47  1  0  0  0  0
 50 53  1  0  0  0  0
 52 50  1  0  0  0  0
 53 40  2  0  0  0  0
 54 53  1  0  0  0  0
 54 35  2  0  0  0  0
 55 54  1  0  0  0  0
 56  4  1  0  0  0  0
 56 55  2  0  0  0  0
 57 56  1  0  0  0  0
 58 57  1  0  0  0  0
 59 57  2  0  0  0  0
 59 61  1  0  0  0  0
 60 59  1  0  0  0  0
 61 74  2  0  0  0  0
 62 64  1  0  0  0  0
 62 61  1  0  0  0  0
 62 65  1  0  0  0  0
 63 62  1  0  0  0  0
 65 68  1  0  0  0  0
 66 65  1  0  0  0  0
 67 65  1  0  0  0  0
 68 69  1  0  0  0  0
 68 71  1  0  0  0  0
 68 70  1  0  0  0  0
 71 73  1  0  0  0  0
 72 71  1  0  0  0  0
 74 55  1  0  0  0  0
 74 71  1  0  0  0  0
M  END
