3,24
 OpenBabel05122313053D

 42 44  0  0  1  0  0  0  0  0999 V2000
    1.2250   -1.4095   -2.4559 C   0  0  0  0  0  0  0  0  0  0  0  0
    0.2818   -1.9040   -2.7326 H   0  0  0  0  0  0  0  0  0  0  0  0
    1.2701   -0.0036   -2.3795 C   0  0  0  0  0  3  0  0  0  0  0  0
    0.3954    0.5929   -2.6841 H   0  0  0  0  0  0  0  0  0  0  0  0
    2.4487    0.6517   -1.9372 C   0  0  2  0  0  3  0  0  0  0  0  0
    3.5934   -0.1239   -1.6685 C   0  0  0  0  0  0  0  0  0  0  0  0
    4.5186    0.3784   -1.3480 H   0  0  0  0  0  0  0  0  0  0  0  0
    3.5443   -1.5206   -1.7565 C   0  0  0  0  0  0  0  0  0  0  0  0
    4.4339   -2.1167   -1.4986 H   0  0  0  0  0  0  0  0  0  0  0  0
    2.3468   -2.1800   -2.0988 C   0  0  0  0  0  0  0  0  0  0  0  0
    2.4076    2.1328   -1.6637 C   0  0  0  0  0  0  0  0  0  0  0  0
    3.3800    2.4895   -1.2608 H   0  0  0  0  0  0  0  0  0  0  0  0
    2.1794    2.7152   -2.5885 H   0  0  0  0  0  0  0  0  0  0  0  0
    1.2219    3.6708   -0.2300 C   0  0  0  0  0  0  0  0  0  0  0  0
    1.1880    4.3727   -1.0932 H   0  0  0  0  0  0  0  0  0  0  0  0
    0.2530    3.6662    0.3144 H   0  0  0  0  0  0  0  0  0  0  0  0
    2.2316   -3.6802   -1.9406 C   0  0  0  0  0  0  0  0  0  0  0  0
    1.2856   -4.0385   -2.4069 H   0  0  0  0  0  0  0  0  0  0  0  0
    3.0784   -4.1992   -2.4331 H   0  0  0  0  0  0  0  0  0  0  0  0
    1.3626    2.3401   -0.7056 O   0  0  0  0  0  0  0  0  0  0  0  0
    2.2925   -4.0987   -0.5701 O   0  0  0  0  0  0  0  0  0  0  0  0
    1.2248    1.4094    2.4561 C   0  0  0  0  0  3  0  0  0  0  0  0
    0.2815    1.9035    2.7331 H   0  0  0  0  0  0  0  0  0  0  0  0
    1.2704    0.0035    2.3794 C   0  0  0  0  0  3  0  0  0  0  0  0
    0.3960   -0.5934    2.6841 H   0  0  0  0  0  0  0  0  0  0  0  0
    2.4492   -0.6512    1.9369 C   0  0  0  0  0  0  0  0  0  0  0  0
    3.5936    0.1249    1.6682 C   0  0  0  0  0  0  0  0  0  0  0  0
    4.5190   -0.3770    1.3475 H   0  0  0  0  0  0  0  0  0  0  0  0
    3.5440    1.5215    1.7564 C   0  0  0  0  0  0  0  0  0  0  0  0
    4.4333    2.1180    1.4984 H   0  0  0  0  0  0  0  0  0  0  0  0
    2.3463    2.1804    2.0989 C   0  0  0  0  0  0  0  0  0  0  0  0
    2.4087   -2.1323    1.6632 C   0  0  0  0  0  0  0  0  0  0  0  0
    3.3812   -2.4885    1.2599 H   0  0  0  0  0  0  0  0  0  0  0  0
    2.1815   -2.7149    2.5882 H   0  0  0  0  0  0  0  0  0  0  0  0
    1.2235   -3.6710    0.2302 C   0  0  0  0  0  0  0  0  0  0  0  0
    1.1901   -4.3729    1.0934 H   0  0  0  0  0  0  0  0  0  0  0  0
    0.2546   -3.6672   -0.3142 H   0  0  0  0  0  0  0  0  0  0  0  0
    2.2303    3.6806    1.9407 C   0  0  0  0  0  0  0  0  0  0  0  0
    1.2842    4.0384    2.4072 H   0  0  0  0  0  0  0  0  0  0  0  0
    3.0769    4.1999    2.4331 H   0  0  0  0  0  0  0  0  0  0  0  0
    1.3633   -2.3403    0.7057 O   0  0  0  0  0  0  0  0  0  0  0  0
    2.2908    4.0992    0.5702 O   0  0  0  0  0  0  0  0  0  0  0  0
  1  3  1  0  0  0  0
  1 10  2  0  0  0  0
  2  1  1  0  0  0  0
  4  3  1  0  0  0  0
  5  3  1  1  0  0  0
  5  6  1  0  0  0  0
  5 11  1  0  0  0  0
  6  7  1  0  0  0  0
  8  6  2  0  0  0  0
  8  9  1  0  0  0  0
 10 17  1  0  0  0  0
 10  8  1  0  0  0  0
 11 12  1  0  0  0  0
 11 20  1  0  0  0  0
 13 11  1  0  0  0  0
 14 16  1  0  0  0  0
 14 42  1  0  0  0  0
 15 14  1  0  0  0  0
 17 21  1  0  0  0  0
 18 17  1  0  0  0  0
 19 17  1  0  0  0  0
 20 14  1  0  0  0  0
 21 35  1  0  0  0  0
 22 23  1  0  0  0  0
 24 22  1  0  0  0  0
 24 25  1  0  0  0  0
 26 24  1  0  0  0  0
 27 29  1  0  0  0  0
 27 26  2  0  0  0  0
 28 27  1  0  0  0  0
 29 31  2  0  0  0  0
 30 29  1  0  0  0  0
 31 22  1  0  0  0  0
 32 26  1  0  0  0  0
 32 34  1  0  0  0  0
 33 32  1  0  0  0  0
 35 41  1  0  0  0  0
 35 36  1  0  0  0  0
 37 35  1  0  0  0  0
 38 31  1  0  0  0  0
 38 39  1  0  0  0  0
 38 40  1  0  0  0  0
 41 32  1  0  0  0  0
 42 38  1  0  0  0  0
M  END
