5,11
 OpenBabel05122313053D

 52 54  0  0  1  0  0  0  0  0999 V2000
   -1.5361    0.2772    0.8089 P   0  0  0  0  0  0  0  0  0  0  0  0
    3.3499   -1.2001   -2.5029 O   0  0  0  0  0  0  0  0  0  0  0  0
   -1.0594   -2.5567    1.1485 N   0  0  0  0  0  0  0  0  0  0  0  0
   -0.0424   -0.1573   -0.2110 C   0  0  2  0  0  3  0  0  0  0  0  0
    0.7608   -1.2838    0.1962 C   0  0  2  0  0  3  0  0  0  0  0  0
    1.9105   -1.6472   -0.5618 C   0  0  0  0  0  0  0  0  0  0  0  0
    2.5208   -2.4943   -0.2326 H   0  0  0  0  0  0  0  0  0  0  0  0
    2.2898   -0.9002   -1.7211 C   0  0  0  0  0  0  0  0  0  0  0  0
    1.5486    0.2564   -2.0824 C   0  0  0  0  0  3  0  0  0  0  0  0
    1.8935    0.8635   -2.9289 H   0  0  0  0  0  0  0  0  0  0  0  0
    0.4005    0.6182   -1.3217 C   0  0  0  0  0  3  0  0  0  0  0  0
   -0.1531    1.5303   -1.5879 H   0  0  0  0  0  0  0  0  0  0  0  0
    0.3074   -2.0949    1.4111 C   0  0  2  0  0  0  0  0  0  0  0  0
    0.2047   -1.3627    2.2410 H   0  0  0  0  0  0  0  0  0  0  0  0
    1.2974   -3.1743    1.8653 C   0  0  0  0  0  0  0  0  0  0  0  0
    0.9160   -3.6794    2.7740 H   0  0  0  0  0  0  0  0  0  0  0  0
    2.2773   -2.7258    2.1219 H   0  0  0  0  0  0  0  0  0  0  0  0
    1.4592   -3.9533    1.0929 H   0  0  0  0  0  0  0  0  0  0  0  0
   -1.8476   -2.8455    2.3275 C   0  0  0  0  0  0  0  0  0  0  0  0
   -2.9121   -2.9603    2.0352 H   0  0  0  0  0  0  0  0  0  0  0  0
   -1.7813   -1.9934    3.0345 H   0  0  0  0  0  0  0  0  0  0  0  0
   -1.5415   -3.7793    2.8660 H   0  0  0  0  0  0  0  0  0  0  0  0
   -1.2087   -3.5341    0.0901 C   0  0  0  0  0  0  0  0  0  0  0  0
   -0.6345   -3.2184   -0.8040 H   0  0  0  0  0  0  0  0  0  0  0  0
   -2.2756   -3.5952   -0.2072 H   0  0  0  0  0  0  0  0  0  0  0  0
   -0.8716   -4.5651    0.3715 H   0  0  0  0  0  0  0  0  0  0  0  0
    4.2512   -2.2170   -2.0806 C   0  0  0  0  0  0  0  0  0  0  0  0
    4.7134   -1.9657   -1.1027 H   0  0  0  0  0  0  0  0  0  0  0  0
    5.0421   -2.2623   -2.8509 H   0  0  0  0  0  0  0  0  0  0  0  0
    3.7529   -3.2088   -2.0176 H   0  0  0  0  0  0  0  0  0  0  0  0
   -2.8972   -0.4921   -0.1822 C   0  0  0  0  0  0  0  0  0  0  0  0
   -2.7606   -0.9493   -1.5090 C   0  0  0  0  0  0  0  0  0  0  0  0
   -1.7985   -0.8366   -2.0305 H   0  0  0  0  0  0  0  0  0  0  0  0
   -3.8412   -1.5554   -2.1695 C   0  0  0  0  0  0  0  0  0  0  0  0
   -3.7177   -1.9102   -3.2046 H   0  0  0  0  0  0  0  0  0  0  0  0
   -5.0752   -1.7075   -1.5172 C   0  0  0  0  0  0  0  0  0  0  0  0
   -5.9213   -2.1825   -2.0367 H   0  0  0  0  0  0  0  0  0  0  0  0
   -5.2231   -1.2508   -0.1973 C   0  0  0  0  0  0  0  0  0  0  0  0
   -6.1870   -1.3656    0.3220 H   0  0  0  0  0  0  0  0  0  0  0  0
   -4.1411   -0.6520    0.4656 C   0  0  0  0  0  0  0  0  0  0  0  0
   -4.2572   -0.3041    1.5048 H   0  0  0  0  0  0  0  0  0  0  0  0
   -1.7168    2.0654    0.3499 C   0  0  0  0  0  0  0  0  0  0  0  0
   -2.5519    2.5488   -0.6792 C   0  0  0  0  0  0  0  0  0  0  0  0
   -3.1468    1.8423   -1.2780 H   0  0  0  0  0  0  0  0  0  0  0  0
   -2.6266    3.9263   -0.9431 C   0  0  0  0  0  0  0  0  0  0  0  0
   -3.2835    4.2928   -1.7472 H   0  0  0  0  0  0  0  0  0  0  0  0
   -1.8630    4.8329   -0.1909 C   0  0  0  0  0  0  0  0  0  0  0  0
   -1.9168    5.9111   -0.4053 H   0  0  0  0  0  0  0  0  0  0  0  0
   -1.0341    4.3605    0.8399 C   0  0  0  0  0  0  0  0  0  0  0  0
   -0.4293    5.0639    1.4315 H   0  0  0  0  0  0  0  0  0  0  0  0
   -0.9742    2.9883    1.1181 C   0  0  0  0  0  0  0  0  0  0  0  0
   -0.3338    2.6202    1.9355 H   0  0  0  0  0  0  0  0  0  0  0  0
  2 27  1  0  0  0  0
  2  8  1  0  0  0  0
  3 13  1  0  0  0  0
  3 19  1  0  0  0  0
  4  5  1  0  0  0  0
  4  1  1  1  0  0  0
  5 13  1  6  0  0  0
  6  7  1  0  0  0  0
  6  5  1  0  0  0  0
  8  6  2  0  0  0  0
  9  8  1  0  0  0  0
  9 11  1  0  0  0  0
 10  9  1  0  0  0  0
 11  4  1  0  0  0  0
 12 11  1  0  0  0  0
 13 15  1  0  0  0  0
 13 14  1  1  0  0  0
 15 17  1  0  0  0  0
 15 16  1  0  0  0  0
 18 15  1  0  0  0  0
 19 22  1  0  0  0  0
 19 21  1  0  0  0  0
 20 19  1  0  0  0  0
 23 26  1  0  0  0  0
 23  3  1  0  0  0  0
 24 23  1  0  0  0  0
 25 23  1  0  0  0  0
 27 30  1  0  0  0  0
 27 28  1  0  0  0  0
 29 27  1  0  0  0  0
 31 40  1  0  0  0  0
 31  1  1  0  0  0  0
 32 31  2  0  0  0  0
 33 32  1  0  0  0  0
 34 36  2  0  0  0  0
 34 32  1  0  0  0  0
 35 34  1  0  0  0  0
 36 38  1  0  0  0  0
 37 36  1  0  0  0  0
 38 39  1  0  0  0  0
 38 40  2  0  0  0  0
 40 41  1  0  0  0  0
 42  1  1  0  0  0  0
 42 51  1  0  0  0  0
 43 42  2  0  0  0  0
 44 43  1  0  0  0  0
 45 43  1  0  0  0  0
 45 47  2  0  0  0  0
 46 45  1  0  0  0  0
 47 49  1  0  0  0  0
 48 47  1  0  0  0  0
 49 51  2  0  0  0  0
 49 50  1  0  0  0  0
 51 52  1  0  0  0  0
M  END
