5,27
 OpenBabel05122313053D

 49 50  0  0  0  0  0  0  0  0999 V2000
    2.0721   -2.1570   -0.3944 N   0  0  0  0  0  0  0  0  0  0  0  0
    0.9886   -2.3027    1.4759 N   0  0  0  0  0  0  0  0  0  0  0  0
    0.8180    2.8262    0.3642 N   0  0  0  0  0  0  0  0  0  0  0  0
    0.8821    1.5407    2.1060 N   0  0  0  0  0  0  0  0  0  0  0  0
    1.0653   -1.5297    0.3253 C   0  0  0  0  0  2  0  0  0  0  0  0
    2.5831   -3.2619    0.2837 C   0  0  0  0  0  0  0  0  0  0  0  0
    3.3778   -3.8976   -0.1107 H   0  0  0  0  0  0  0  0  0  0  0  0
    1.8967   -3.3554    1.4615 C   0  0  0  0  0  0  0  0  0  0  0  0
    1.9714   -4.0826    2.2760 H   0  0  0  0  0  0  0  0  0  0  0  0
    2.6584   -1.5794   -1.6405 C   0  0  0  0  0  0  0  0  0  0  0  0
    1.5241   -1.3153   -2.6386 C   0  0  0  0  0  0  0  0  0  0  0  0
    3.6691   -2.5569   -2.2539 C   0  0  0  0  0  0  0  0  0  0  0  0
    3.2031   -3.5349   -2.4892 H   0  0  0  0  0  0  0  0  0  0  0  0
    4.5462   -2.7244   -1.5971 H   0  0  0  0  0  0  0  0  0  0  0  0
    4.0448   -2.1272   -3.2024 H   0  0  0  0  0  0  0  0  0  0  0  0
    3.3610   -0.2661   -1.2524 C   0  0  0  0  0  0  0  0  0  0  0  0
    4.1860   -0.4621   -0.5378 H   0  0  0  0  0  0  0  0  0  0  0  0
    2.6257    0.4073   -0.7695 H   0  0  0  0  0  0  0  0  0  0  0  0
    3.7816    0.2325   -2.1485 H   0  0  0  0  0  0  0  0  0  0  0  0
    0.0886   -2.0555    2.6031 C   0  0  0  0  0  0  0  0  0  0  0  0
    0.5955   -2.4474    3.5111 H   0  0  0  0  0  0  0  0  0  0  0  0
   -0.8449   -2.6427    2.4715 H   0  0  0  0  0  0  0  0  0  0  0  0
   -0.2661   -0.5817    2.7658 C   0  0  0  0  0  0  0  0  0  0  0  0
    0.9535    0.3367    2.9320 C   0  0  0  0  0  0  0  0  0  0  0  0
    1.0757    0.6661    3.9831 H   0  0  0  0  0  0  0  0  0  0  0  0
    1.8774   -0.2137    2.6500 H   0  0  0  0  0  0  0  0  0  0  0  0
    0.5640    1.5181    0.7562 C   0  0  0  0  0  2  0  0  0  0  0  0
    1.3001    2.7928    2.5304 C   0  0  0  0  0  0  0  0  0  0  0  0
    1.6003    2.9999    3.5624 H   0  0  0  0  0  0  0  0  0  0  0  0
    1.2534    3.6080    1.4346 C   0  0  0  0  0  0  0  0  0  0  0  0
    1.4900    4.6698    1.3454 H   0  0  0  0  0  0  0  0  0  0  0  0
    0.4927    3.4009   -0.9758 C   0  0  0  0  0  0  0  0  0  0  0  0
    0.7896    2.3602   -2.0611 C   0  0  0  0  0  0  0  0  0  0  0  0
    1.3552    4.6485   -1.2301 C   0  0  0  0  0  0  0  0  0  0  0  0
    2.4337    4.4253   -1.1051 H   0  0  0  0  0  0  0  0  0  0  0  0
    1.0863    5.4972   -0.5701 H   0  0  0  0  0  0  0  0  0  0  0  0
    1.1943    4.9852   -2.2726 H   0  0  0  0  0  0  0  0  0  0  0  0
   -0.9982    3.7853   -0.9790 C   0  0  0  0  0  0  0  0  0  0  0  0
   -1.2115    4.5258   -0.1818 H   0  0  0  0  0  0  0  0  0  0  0  0
   -1.6184    2.8886   -0.8019 H   0  0  0  0  0  0  0  0  0  0  0  0
   -1.2833    4.2296   -1.9536 H   0  0  0  0  0  0  0  0  0  0  0  0
   -0.9782   -0.4741    3.6092 H   0  0  0  0  0  0  0  0  0  0  0  0
    1.9107   -0.7891   -3.5334 H   0  0  0  0  0  0  0  0  0  0  0  0
   -0.7950   -0.2625    1.8279 H   0  0  0  0  0  0  0  0  0  0  0  0
    0.2947    1.4008   -1.7969 H   0  0  0  0  0  0  0  0  0  0  0  0
    0.7506   -0.6906   -2.1420 H   0  0  0  0  0  0  0  0  0  0  0  0
    1.0458   -2.2637   -2.9549 H   0  0  0  0  0  0  0  0  0  0  0  0
    1.8783    2.1754   -2.1453 H   0  0  0  0  0  0  0  0  0  0  0  0
    0.4125    2.7172   -3.0393 H   0  0  0  0  0  0  0  0  0  0  0  0
  1  6  1  0  0  0  0
  1  5  1  0  0  0  0
  2 20  1  0  0  0  0
  3 27  1  0  0  0  0
  3 30  1  0  0  0  0
  4 28  1  0  0  0  0
  4 24  1  0  0  0  0
  5  2  1  0  0  0  0
  6  8  2  0  0  0  0
  7  6  1  0  0  0  0
  8  2  1  0  0  0  0
  8  9  1  0  0  0  0
 10 16  1  0  0  0  0
 10  1  1  0  0  0  0
 11 46  1  0  0  0  0
 11 10  1  0  0  0  0
 12 10  1  0  0  0  0
 12 14  1  0  0  0  0
 13 12  1  0  0  0  0
 15 12  1  0  0  0  0
 16 18  1  0  0  0  0
 16 17  1  0  0  0  0
 19 16  1  0  0  0  0
 20 23  1  0  0  0  0
 20 21  1  0  0  0  0
 22 20  1  0  0  0  0
 23 24  1  0  0  0  0
 23 42  1  0  0  0  0
 24 25  1  0  0  0  0
 26 24  1  0  0  0  0
 27  4  1  0  0  0  0
 28 29  1  0  0  0  0
 30 28  2  0  0  0  0
 31 30  1  0  0  0  0
 32  3  1  0  0  0  0
 33 45  1  0  0  0  0
 33 32  1  0  0  0  0
 34 35  1  0  0  0  0
 34 32  1  0  0  0  0
 34 36  1  0  0  0  0
 37 34  1  0  0  0  0
 38 32  1  0  0  0  0
 38 40  1  0  0  0  0
 38 39  1  0  0  0  0
 41 38  1  0  0  0  0
 43 11  1  0  0  0  0
 44 23  1  0  0  0  0
 47 11  1  0  0  0  0
 48 33  1  0  0  0  0
 49 33  1  0  0  0  0
M  END
