6,7
 OpenBabel05122313053D

 32 32  0  0  1  0  0  0  0  0999 V2000
    1.6863    2.7223   -1.2628 F   0  0  0  0  0  0  0  0  0  0  0  0
    0.4692    3.6606    0.4577 F   0  0  0  0  0  0  0  0  0  0  0  0
   -0.1728    1.5732   -0.3238 O   0  0  0  0  0  0  0  0  0  0  0  0
    1.9039    1.9006    0.9585 O   0  0  0  0  0  0  0  0  0  0  0  0
    0.9908    2.5241   -0.0897 B   0  0  0  0  0  0  0  0  0  0  0  0
   -0.1904    0.2944   -0.1949 C   0  0  0  0  0  2  0  0  0  0  0  0
    2.0612    0.6396    1.1423 C   0  0  0  0  0  2  0  0  0  0  0  0
    2.8928    0.3291    2.3584 C   0  0  0  0  0  0  0  0  0  0  0  0
   -1.6287   -0.2530   -0.2453 C   0  0  1  0  0  0  0  0  0  0  0  0
   -2.4928    0.5967   -1.2160 C   0  0  0  0  0  0  0  0  0  0  0  0
   -1.7111   -1.7381   -0.6240 C   0  0  0  0  0  0  0  0  0  0  0  0
   -3.9627    0.1699   -1.2109 C   0  0  0  0  0  0  0  0  0  0  0  0
   -4.5181   -0.0542    0.1763 C   0  0  0  0  0  0  0  0  0  0  0  0
   -3.6969   -0.1472    1.2466 C   0  0  0  0  0  0  0  0  0  0  0  0
   -2.1954   -0.0439    1.1955 C   0  0  0  0  0  0  0  0  0  0  0  0
   -6.0114   -0.1881    0.2895 C   0  0  0  0  0  0  0  0  0  0  0  0
    2.1936    0.0971    3.1915 H   0  0  0  0  0  0  0  0  0  0  0  0
    3.5088   -0.5763    2.2055 H   0  0  0  0  0  0  0  0  0  0  0  0
    3.5153    1.1953    2.6586 H   0  0  0  0  0  0  0  0  0  0  0  0
   -2.0737    0.5319   -2.2423 H   0  0  0  0  0  0  0  0  0  0  0  0
   -2.4143    1.6577   -0.9113 H   0  0  0  0  0  0  0  0  0  0  0  0
   -1.0729   -2.3667    0.0217 H   0  0  0  0  0  0  0  0  0  0  0  0
   -2.7511   -2.0980   -0.5072 H   0  0  0  0  0  0  0  0  0  0  0  0
   -1.4094   -1.9053   -1.6769 H   0  0  0  0  0  0  0  0  0  0  0  0
   -4.1171   -0.7557   -1.8139 H   0  0  0  0  0  0  0  0  0  0  0  0
   -4.5709    0.9449   -1.7278 H   0  0  0  0  0  0  0  0  0  0  0  0
   -4.1400   -0.3085    2.2450 H   0  0  0  0  0  0  0  0  0  0  0  0
   -1.7427   -0.7867    1.8856 H   0  0  0  0  0  0  0  0  0  0  0  0
   -1.8784    0.9543    1.5743 H   0  0  0  0  0  0  0  0  0  0  0  0
   -6.3881   -1.0139   -0.3535 H   0  0  0  0  0  0  0  0  0  0  0  0
   -6.3336   -0.3882    1.3299 H   0  0  0  0  0  0  0  0  0  0  0  0
   -6.5240    0.7343   -0.0613 H   0  0  0  0  0  0  0  0  0  0  0  0
  1  5  1  0  0  0  0
  3  6  1  0  0  0  0
  3  5  1  0  0  0  0
  4  7  1  0  0  0  0
  5  2  1  0  0  0  0
  5  4  1  0  0  0  0
  7  8  1  0  0  0  0
  8 19  1  0  0  0  0
  8 17  1  0  0  0  0
  9  6  1  6  0  0  0
  9 15  1  0  0  0  0
 10 12  1  0  0  0  0
 10 21  1  0  0  0  0
 10  9  1  0  0  0  0
 11 23  1  0  0  0  0
 11  9  1  0  0  0  0
 11 22  1  0  0  0  0
 12 13  1  0  0  0  0
 13 16  1  0  0  0  0
 13 14  2  0  0  0  0
 14 27  1  0  0  0  0
 15 14  1  0  0  0  0
 15 29  1  0  0  0  0
 15 28  1  0  0  0  0
 16 31  1  0  0  0  0
 18  8  1  0  0  0  0
 20 10  1  0  0  0  0
 24 11  1  0  0  0  0
 25 12  1  0  0  0  0
 26 12  1  0  0  0  0
 30 16  1  0  0  0  0
 32 16  1  0  0  0  0
M  END
