14,17
 OpenBabel05122313053D

 48 50  0  0  1  0  0  0  0  0999 V2000
   -4.4635   -0.5552    1.1675 O   0  0  0  0  0  0  0  0  0  0  0  0
   -4.9389   -0.8286   -1.0214 O   0  0  0  0  0  0  0  0  0  0  0  0
    3.5101   -2.4294   -0.6460 O   0  0  0  0  0  0  0  0  0  0  0  0
   -0.9566   -0.3920   -1.9300 C   0  0  0  0  0  0  0  0  0  0  0  0
   -2.3134   -0.1153   -2.5788 C   0  0  0  0  0  0  0  0  0  0  0  0
   -3.0426    1.0358   -1.8888 C   0  0  0  0  0  0  0  0  0  0  0  0
   -3.2364    0.8198   -0.3716 C   0  0  1  0  0  0  0  0  0  0  0  0
   -1.8367    0.5258    0.2698 C   0  0  1  0  0  0  0  0  0  0  0  0
   -1.7982    0.4024    1.7993 C   0  0  0  0  0  0  0  0  0  0  0  0
   -0.3707    0.5839    2.3124 C   0  0  0  0  0  0  0  0  0  0  0  0
    0.6475   -0.2188    1.5295 C   0  0  0  0  0  0  0  0  0  0  0  0
    0.3560   -0.7410    0.2194 C   0  0  0  0  0  0  0  0  0  0  0  0
   -1.0494   -0.6478   -0.4032 C   0  0  2  0  0  0  0  0  0  0  0  0
    1.3729   -1.4596   -0.4702 C   0  0  0  0  0  3  0  0  0  0  0  0
    2.6557   -1.7040    0.1095 C   0  0  0  0  0  0  0  0  0  0  0  0
    2.9649   -1.1477    1.3765 C   0  0  0  0  0  0  0  0  0  0  0  0
    1.9535   -0.4023    2.0583 C   0  0  0  0  0  3  0  0  0  0  0  0
   -3.8276    2.1167    0.2305 C   0  0  0  0  0  0  0  0  0  0  0  0
   -4.2845   -0.2804   -0.1520 C   0  0  0  0  0  0  0  0  0  0  0  0
   -1.7081   -2.0289   -0.1551 C   0  0  0  0  0  0  0  0  0  0  0  0
    4.8864   -2.4315   -0.2882 C   0  0  0  0  0  0  0  0  0  0  0  0
   -5.4441   -1.5576    1.4583 C   0  0  0  0  0  0  0  0  0  0  0  0
   -0.4843   -1.2620   -2.4305 H   0  0  0  0  0  0  0  0  0  0  0  0
   -0.2817    0.4714   -2.0982 H   0  0  0  0  0  0  0  0  0  0  0  0
   -2.9567   -1.0181   -2.5588 H   0  0  0  0  0  0  0  0  0  0  0  0
   -2.1600    0.1290   -3.6503 H   0  0  0  0  0  0  0  0  0  0  0  0
   -4.0324    1.2007   -2.3591 H   0  0  0  0  0  0  0  0  0  0  0  0
   -2.4561    1.9716   -2.0149 H   0  0  0  0  0  0  0  0  0  0  0  0
   -1.2619    1.4439    0.0181 H   0  0  0  0  0  0  0  0  0  0  0  0
   -2.4489    1.1633    2.2693 H   0  0  0  0  0  0  0  0  0  0  0  0
   -2.2039   -0.5768    2.1190 H   0  0  0  0  0  0  0  0  0  0  0  0
   -0.0872    1.6561    2.2598 H   0  0  0  0  0  0  0  0  0  0  0  0
   -0.3057    0.3008    3.3838 H   0  0  0  0  0  0  0  0  0  0  0  0
    1.2030   -1.8541   -1.4788 H   0  0  0  0  0  0  0  0  0  0  0  0
    3.9583   -1.2560    1.8263 H   0  0  0  0  0  0  0  0  0  0  0  0
    2.1963    0.0478    3.0322 H   0  0  0  0  0  0  0  0  0  0  0  0
   -4.0918    2.0027    1.2980 H   0  0  0  0  0  0  0  0  0  0  0  0
   -4.7469    2.4063   -0.3172 H   0  0  0  0  0  0  0  0  0  0  0  0
   -3.0959    2.9441    0.1304 H   0  0  0  0  0  0  0  0  0  0  0  0
   -1.8389   -2.2406    0.9233 H   0  0  0  0  0  0  0  0  0  0  0  0
   -2.6959   -2.1049   -0.6468 H   0  0  0  0  0  0  0  0  0  0  0  0
   -1.0700   -2.8315   -0.5748 H   0  0  0  0  0  0  0  0  0  0  0  0
    5.0591   -2.9423    0.6843 H   0  0  0  0  0  0  0  0  0  0  0  0
    5.4121   -2.9883   -1.0847 H   0  0  0  0  0  0  0  0  0  0  0  0
    5.2847   -1.3950   -0.2399 H   0  0  0  0  0  0  0  0  0  0  0  0
   -5.1490   -2.5340    1.0225 H   0  0  0  0  0  0  0  0  0  0  0  0
   -6.4319   -1.2783    1.0405 H   0  0  0  0  0  0  0  0  0  0  0  0
   -5.4933   -1.6280    2.5595 H   0  0  0  0  0  0  0  0  0  0  0  0
  1 22  1  0  0  0  0
  2 19  2  0  0  0  0
  3 21  1  0  0  0  0
  3 15  1  0  0  0  0
  4 13  1  0  0  0  0
  5 25  1  0  0  0  0
  5  4  1  0  0  0  0
  5  6  1  0  0  0  0
  6  7  1  0  0  0  0
  7 19  1  1  0  0  0
  7 18  1  0  0  0  0
  7  8  1  0  0  0  0
  8 29  1  6  0  0  0
  8  9  1  0  0  0  0
  9 31  1  0  0  0  0
  9 30  1  0  0  0  0
  9 10  1  0  0  0  0
 10 33  1  0  0  0  0
 11 17  1  0  0  0  0
 11 10  1  0  0  0  0
 12 11  2  0  0  0  0
 13 20  1  1  0  0  0
 13 12  1  0  0  0  0
 13  8  1  0  0  0  0
 14 15  1  0  0  0  0
 14 12  1  0  0  0  0
 15 16  2  0  0  0  0
 16 35  1  0  0  0  0
 16 17  1  0  0  0  0
 17 36  1  0  0  0  0
 18 37  1  0  0  0  0
 19  1  1  0  0  0  0
 20 40  1  0  0  0  0
 21 45  1  0  0  0  0
 21 43  1  0  0  0  0
 22 48  1  0  0  0  0
 23  4  1  0  0  0  0
 24  4  1  0  0  0  0
 26  5  1  0  0  0  0
 27  6  1  0  0  0  0
 28  6  1  0  0  0  0
 32 10  1  0  0  0  0
 34 14  1  0  0  0  0
 38 18  1  0  0  0  0
 39 18  1  0  0  0  0
 41 20  1  0  0  0  0
 42 20  1  0  0  0  0
 44 21  1  0  0  0  0
 46 22  1  0  0  0  0
 47 22  1  0  0  0  0
M  END
