2,30
 OpenBabel05122313053D

 31 34  0  0  1  0  0  0  0  0999 V2000
    1.9086   -2.3883   -0.0309 N   0  0  0  0  0  0  0  0  0  0  0  0
    1.8474   -0.9896    0.0033 C   0  0  0  0  0  3  0  0  0  0  0  0
    3.1490   -0.5032   -0.1676 C   0  0  0  0  0  0  0  0  0  0  0  0
    3.4489    0.5506   -0.1714 H   0  0  0  0  0  0  0  0  0  0  0  0
    4.0310   -1.6303   -0.2951 C   0  0  0  0  0  0  0  0  0  0  0  0
    5.4261   -1.7851   -0.4633 C   0  0  0  0  0  0  0  0  0  0  0  0
    6.0751   -0.8984   -0.5395 H   0  0  0  0  0  0  0  0  0  0  0  0
    5.9711   -3.0724   -0.5262 C   0  0  0  0  0  0  0  0  0  0  0  0
    7.0570   -3.1985   -0.6570 H   0  0  0  0  0  0  0  0  0  0  0  0
    5.1485   -4.2211   -0.4198 C   0  0  0  0  0  0  0  0  0  0  0  0
    5.6058   -5.2214   -0.4662 H   0  0  0  0  0  0  0  0  0  0  0  0
    3.7620   -4.1057   -0.2539 C   0  0  0  0  0  0  0  0  0  0  0  0
    3.1266   -4.9993   -0.1644 H   0  0  0  0  0  0  0  0  0  0  0  0
    3.2129   -2.8112   -0.1979 C   0  0  0  0  0  0  0  0  0  0  0  0
    0.7097   -3.1874    0.0753 C   0  0  2  0  0  0  0  0  0  0  0  0
    0.8216   -3.8869    0.9355 H   0  0  0  0  0  0  0  0  0  0  0  0
    0.3776   -3.9857   -1.2174 C   0  0  1  0  0  0  0  0  0  0  0  0
    1.2690   -4.4365   -1.6937 H   0  0  0  0  0  0  0  0  0  0  0  0
   -0.7336   -4.9951   -0.8577 C   0  0  0  0  0  0  0  0  0  0  0  0
   -0.8798   -5.7243   -1.6796 H   0  0  0  0  0  0  0  0  0  0  0  0
   -0.4827   -5.5766    0.0533 H   0  0  0  0  0  0  0  0  0  0  0  0
   -1.9891   -4.0872   -0.6719 C   0  0  0  0  0  0  0  0  0  0  0  0
   -2.7864   -4.3450   -1.4005 H   0  0  0  0  0  0  0  0  0  0  0  0
   -2.4322   -4.1683    0.3419 H   0  0  0  0  0  0  0  0  0  0  0  0
   -1.4337   -2.6638   -0.9440 C   0  0  2  0  0  0  0  0  0  0  0  0
   -2.2215   -1.9336   -1.2063 H   0  0  0  0  0  0  0  0  0  0  0  0
   -0.3942   -2.9420   -2.0487 C   0  0  0  0  0  0  0  0  0  0  0  0
    0.2140   -2.0490   -2.2974 H   0  0  0  0  0  0  0  0  0  0  0  0
   -0.8307   -3.3637   -2.9778 H   0  0  0  0  0  0  0  0  0  0  0  0
   -0.5317   -2.2456    0.2404 C   0  0  0  0  0  3  0  0  0  0  0  0
   -1.0339   -2.4073    1.2179 H   0  0  0  0  0  0  0  0  0  0  0  0
  1  2  1  0  0  0  0
  1 15  1  0  0  0  0
  3  2  2  0  0  0  0
  4  3  1  0  0  0  0
  5 14  1  0  0  0  0
  5  3  1  0  0  0  0
  6  5  2  0  0  0  0
  7  6  1  0  0  0  0
  8  6  1  0  0  0  0
  8 10  2  0  0  0  0
  9  8  1  0  0  0  0
 10 12  1  0  0  0  0
 11 10  1  0  0  0  0
 12 14  2  0  0  0  0
 12 13  1  0  0  0  0
 14  1  1  0  0  0  0
 15 30  1  0  0  0  0
 15 16  1  1  0  0  0
 17 18  1  6  0  0  0
 17 19  1  0  0  0  0
 17 15  1  0  0  0  0
 19 22  1  0  0  0  0
 19 21  1  0  0  0  0
 20 19  1  0  0  0  0
 22 24  1  0  0  0  0
 23 22  1  0  0  0  0
 25 26  1  6  0  0  0
 25 22  1  0  0  0  0
 25 30  1  0  0  0  0
 27 17  1  0  0  0  0
 27 25  1  0  0  0  0
 28 27  1  0  0  0  0
 29 27  1  0  0  0  0
 30 31  1  0  0  0  0
M  END
