3,8
 OpenBabel05122313053D

 16 16  0  0  1  0  0  0  0  0999 V2000
    2.4372    2.1855    0.2596 F   0  0  0  0  0  0  0  0  0  0  0  0
    1.1758    1.7645    0.0842 C   0  0  1  0  0  3  0  0  0  0  0  0
    0.6976    1.5050   -1.2273 C   0  0  0  0  0  3  0  0  0  0  0  0
   -0.6528    1.1112   -1.4217 C   0  0  0  0  0  3  0  0  0  0  0  0
   -1.5200    0.9532   -0.2940 C   0  0  0  0  0  0  0  0  0  0  0  0
   -2.7884    0.5929   -0.5813 O   0  0  0  0  0  0  0  0  0  0  0  0
   -1.0095    1.1219    1.0267 C   0  0  0  0  0  0  0  0  0  0  0  0
    0.3548    1.5123    1.2072 C   0  0  0  0  0  3  0  0  0  0  0  0
   -3.6279    0.1487    0.4784 C   0  0  0  0  0  0  0  0  0  0  0  0
    1.3832    1.6174   -2.0786 H   0  0  0  0  0  0  0  0  0  0  0  0
   -1.0485    0.8979   -2.4223 H   0  0  0  0  0  0  0  0  0  0  0  0
   -1.6341    0.9330    1.9068 H   0  0  0  0  0  0  0  0  0  0  0  0
    0.7744    1.6372    2.2150 H   0  0  0  0  0  0  0  0  0  0  0  0
   -4.5787   -0.1594    0.0078 H   0  0  0  0  0  0  0  0  0  0  0  0
   -3.8321    0.9614    1.2088 H   0  0  0  0  0  0  0  0  0  0  0  0
   -3.1811   -0.7229    1.0027 H   0  0  0  0  0  0  0  0  0  0  0  0
  2  1  1  1  0  0  0
  2  8  1  0  0  0  0
  3  2  1  0  0  0  0
  4  3  1  0  0  0  0
  4  5  1  0  0  0  0
  5  7  2  0  0  0  0
  6  5  1  0  0  0  0
  6  9  1  0  0  0  0
  7  8  1  0  0  0  0
  7 12  1  0  0  0  0
  8 13  1  0  0  0  0
  9 16  1  0  0  0  0
  9 15  1  0  0  0  0
 10  3  1  0  0  0  0
 11  4  1  0  0  0  0
 14  9  1  0  0  0  0
M  END
