3,17
 OpenBabel05122313053D

 46 48  0  0  0  0  0  0  0  0999 V2000
    0.4998    1.8618   -0.4862 N   0  0  0  0  0  0  0  0  0  0  0  0
   -1.6485    1.6330   -0.2915 N   0  0  0  0  0  0  0  0  0  0  0  0
   -2.0741   -0.9314   -1.4623 C   0  0  0  0  0  3  0  0  0  0  0  0
   -1.8054   -0.3049   -2.3451 H   0  0  0  0  0  0  0  0  0  0  0  0
   -2.4418   -1.9037   -1.8446 H   0  0  0  0  0  0  0  0  0  0  0  0
    1.9065    1.5793   -0.5212 C   0  0  0  0  0  0  0  0  0  0  0  0
    2.4626    0.9897   -1.6770 C   0  0  0  0  0  0  0  0  0  0  0  0
   -0.0569    3.1198   -0.7192 C   0  0  0  0  0  0  0  0  0  0  0  0
    0.5565    3.9936   -0.9571 H   0  0  0  0  0  0  0  0  0  0  0  0
    4.6551    0.9966   -0.5566 C   0  0  0  0  0  0  0  0  0  0  0  0
    4.0589    1.5878    0.5734 C   0  0  0  0  0  0  0  0  0  0  0  0
    4.6772    1.8106    1.4580 H   0  0  0  0  0  0  0  0  0  0  0  0
    2.0591    2.5119    1.8344 C   0  0  0  0  0  0  0  0  0  0  0  0
    1.7697    3.5685    1.6528 H   0  0  0  0  0  0  0  0  0  0  0  0
    2.7556    2.4942    2.6938 H   0  0  0  0  0  0  0  0  0  0  0  0
    1.1314    1.9780    2.1230 H   0  0  0  0  0  0  0  0  0  0  0  0
   -0.4680    0.9134   -0.2357 C   0  0  0  0  0  2  0  0  0  0  0  0
   -3.8904    1.6389    0.7545 C   0  0  0  0  0  0  0  0  0  0  0  0
    2.6879    1.8903    0.6145 C   0  0  0  0  0  0  0  0  0  0  0  0
   -1.4124    2.9706   -0.6055 C   0  0  0  0  0  0  0  0  0  0  0  0
   -2.2193    3.6920   -0.7490 H   0  0  0  0  0  0  0  0  0  0  0  0
    3.8425    0.7114   -1.6679 C   0  0  0  0  0  0  0  0  0  0  0  0
    4.2921    0.2480   -2.5609 H   0  0  0  0  0  0  0  0  0  0  0  0
    1.5951    0.6195   -2.8470 C   0  0  0  0  0  0  0  0  0  0  0  0
    0.9281   -0.2261   -2.5526 H   0  0  0  0  0  0  0  0  0  0  0  0
    2.2017    0.3163   -3.7207 H   0  0  0  0  0  0  0  0  0  0  0  0
    0.9276    1.4525   -3.1467 H   0  0  0  0  0  0  0  0  0  0  0  0
   -5.1146    0.9679    0.9528 C   0  0  0  0  0  0  0  0  0  0  0  0
   -5.8730    1.4377    1.5998 H   0  0  0  0  0  0  0  0  0  0  0  0
   -3.1401   -0.2595   -0.6554 C   0  0  0  0  0  0  0  0  0  0  0  0
   -2.9284    1.0226   -0.0754 C   0  0  0  0  0  0  0  0  0  0  0  0
   -3.6469    2.9463    1.4717 C   0  0  0  0  0  0  0  0  0  0  0  0
   -3.8701    3.8307    0.8368 H   0  0  0  0  0  0  0  0  0  0  0  0
   -2.5963    3.0482    1.8091 H   0  0  0  0  0  0  0  0  0  0  0  0
   -4.3015    3.0203    2.3615 H   0  0  0  0  0  0  0  0  0  0  0  0
   -5.3785   -0.2874    0.3814 C   0  0  0  0  0  0  0  0  0  0  0  0
   -4.3763   -0.8833   -0.4061 C   0  0  0  0  0  0  0  0  0  0  0  0
   -4.5506   -1.8776   -0.8481 H   0  0  0  0  0  0  0  0  0  0  0  0
   -6.6950   -0.9888    0.6066 C   0  0  0  0  0  0  0  0  0  0  0  0
   -6.5429   -2.0216    0.9828 H   0  0  0  0  0  0  0  0  0  0  0  0
   -7.2702   -1.0760   -0.3395 H   0  0  0  0  0  0  0  0  0  0  0  0
   -7.3288   -0.4484    1.3364 H   0  0  0  0  0  0  0  0  0  0  0  0
    6.1207    0.6435   -0.5493 C   0  0  0  0  0  0  0  0  0  0  0  0
    6.7414    1.4804   -0.1698 H   0  0  0  0  0  0  0  0  0  0  0  0
    6.4843    0.3753   -1.5600 H   0  0  0  0  0  0  0  0  0  0  0  0
    6.3132   -0.2251    0.1173 H   0  0  0  0  0  0  0  0  0  0  0  0
  1 17  1  0  0  0  0
  2 17  1  0  0  0  0
  2 31  1  0  0  0  0
  3 30  1  0  0  0  0
  4  3  1  0  0  0  0
  5  3  1  0  0  0  0
  6  1  1  0  0  0  0
  6 19  1  0  0  0  0
  7 22  1  0  0  0  0
  7  6  2  0  0  0  0
  8 20  2  0  0  0  0
  8  1  1  0  0  0  0
  9  8  1  0  0  0  0
 10 43  1  0  0  0  0
 10 11  1  0  0  0  0
 11 19  2  0  0  0  0
 11 12  1  0  0  0  0
 13 16  1  0  0  0  0
 13 15  1  0  0  0  0
 14 13  1  0  0  0  0
 18 28  1  0  0  0  0
 18 32  1  0  0  0  0
 19 13  1  0  0  0  0
 20  2  1  0  0  0  0
 21 20  1  0  0  0  0
 22 10  2  0  0  0  0
 23 22  1  0  0  0  0
 24 25  1  0  0  0  0
 24  7  1  0  0  0  0
 26 24  1  0  0  0  0
 27 24  1  0  0  0  0
 28 29  1  0  0  0  0
 30 37  2  0  0  0  0
 30 31  1  0  0  0  0
 31 18  2  0  0  0  0
 32 34  1  0  0  0  0
 32 35  1  0  0  0  0
 33 32  1  0  0  0  0
 36 39  1  0  0  0  0
 36 28  2  0  0  0  0
 37 36  1  0  0  0  0
 38 37  1  0  0  0  0
 39 40  1  0  0  0  0
 39 42  1  0  0  0  0
 41 39  1  0  0  0  0
 43 44  1  0  0  0  0
 43 46  1  0  0  0  0
 45 43  1  0  0  0  0
M  END
