4,6
 OpenBabel05122313053D

 16 16  0  0  0  0  0  0  0  0999 V2000
    4.2155    0.3068    1.1434 O   0  0  0  0  0  0  0  0  0  0  0  0
    3.5124    0.1826    0.0057 C   0  0  0  0  0  0  0  0  0  0  0  0
    3.0267    1.4012   -0.5630 C   0  0  0  0  0  0  0  0  0  0  0  0
    2.2374    1.3638   -1.7572 C   0  0  0  0  0  3  0  0  0  0  0  0
    1.9485    0.1338   -2.4228 C   0  0  0  0  0  3  0  0  0  0  0  0
    2.3730   -1.0740   -1.7915 C   0  0  0  0  0  3  0  0  0  0  0  0
    3.1543   -1.0716   -0.5887 C   0  0  0  0  0  3  0  0  0  0  0  0
    4.3972   -0.8488    1.9624 C   0  0  0  0  0  0  0  0  0  0  0  0
    3.2294    2.3418   -0.0359 H   0  0  0  0  0  0  0  0  0  0  0  0
    1.8223    2.3008   -2.1551 H   0  0  0  0  0  0  0  0  0  0  0  0
    1.3249    0.1099   -3.3267 H   0  0  0  0  0  0  0  0  0  0  0  0
    2.0753   -2.0382   -2.2226 H   0  0  0  0  0  0  0  0  0  0  0  0
    3.4390   -2.0226   -0.1236 H   0  0  0  0  0  0  0  0  0  0  0  0
    4.9113   -0.4950    2.8742 H   0  0  0  0  0  0  0  0  0  0  0  0
    3.4112   -1.2775    2.2374 H   0  0  0  0  0  0  0  0  0  0  0  0
    5.0355   -1.6072    1.4588 H   0  0  0  0  0  0  0  0  0  0  0  0
  1  8  1  0  0  0  0
  2  1  1  0  0  0  0
  3  9  1  0  0  0  0
  3  2  2  0  0  0  0
  4  3  1  0  0  0  0
  5  6  1  0  0  0  0
  5  4  1  0  0  0  0
  6  7  1  0  0  0  0
  7 13  1  0  0  0  0
  7  2  1  0  0  0  0
  8 15  1  0  0  0  0
  8 14  1  0  0  0  0
 10  4  1  0  0  0  0
 11  5  1  0  0  0  0
 12  6  1  0  0  0  0
 16  8  1  0  0  0  0
M  END
