8,27
 OpenBabel05122313053D

 35 37  0  0  0  0  0  0  0  0999 V2000
    2.8386   -0.7789    2.7222 C   0  0  0  0  0  0  0  0  0  0  0  0
    3.5394   -1.2952    3.4063 H   0  0  0  0  0  0  0  0  0  0  0  0
    1.8729   -1.3219    2.7726 H   0  0  0  0  0  0  0  0  0  0  0  0
    2.6683    0.6763    3.1913 C   0  0  0  0  0  0  0  0  0  0  0  0
    3.5922    1.2578    2.9855 H   0  0  0  0  0  0  0  0  0  0  0  0
    2.5798    0.6302    4.2969 H   0  0  0  0  0  0  0  0  0  0  0  0
    3.3600   -0.9723    1.3655 N   0  0  0  0  0  0  0  0  0  0  0  0
    2.5756   -1.0142    0.2552 C   0  0  0  0  0  2  0  0  0  0  0  0
    3.4166   -1.2617   -0.7843 N   0  0  0  0  0  0  0  0  0  0  0  0
    4.7263   -1.3885   -0.3314 C   0  0  0  0  0  0  0  0  0  0  0  0
    5.5616   -1.6221   -0.9985 H   0  0  0  0  0  0  0  0  0  0  0  0
    4.6908   -1.2065    1.0280 C   0  0  0  0  0  0  0  0  0  0  0  0
    5.4882   -1.2528    1.7760 H   0  0  0  0  0  0  0  0  0  0  0  0
    2.9569   -1.3695   -2.1720 C   0  0  0  0  0  0  0  0  0  0  0  0
    1.8526   -1.4352   -2.1025 H   0  0  0  0  0  0  0  0  0  0  0  0
    3.3057   -2.3383   -2.5824 H   0  0  0  0  0  0  0  0  0  0  0  0
    3.4107   -0.2164   -3.0794 C   0  0  0  0  0  0  0  0  0  0  0  0
    4.4878   -0.3386   -3.3213 H   0  0  0  0  0  0  0  0  0  0  0  0
    2.8768   -0.3374   -4.0460 H   0  0  0  0  0  0  0  0  0  0  0  0
    3.2182    1.2037   -2.5274 C   0  0  0  0  0  0  0  0  0  0  0  0
    3.8198    1.3067   -1.5997 H   0  0  0  0  0  0  0  0  0  0  0  0
    3.6663    1.9159   -3.2490 H   0  0  0  0  0  0  0  0  0  0  0  0
    1.7648    1.6409   -2.2039 C   0  0  0  0  0  0  0  0  0  0  0  0
    1.4167    2.4528   -2.8712 H   0  0  0  0  0  0  0  0  0  0  0  0
    1.0427    0.8063   -2.3034 H   0  0  0  0  0  0  0  0  0  0  0  0
    1.6519    2.1083   -0.8219 N   0  0  0  0  0  0  0  0  0  0  0  0
    1.2681    1.3061    0.2088 C   0  0  0  0  0  2  0  0  0  0  0  0
    1.5684    2.0023    1.3419 N   0  0  0  0  0  0  0  0  0  0  0  0
    2.1119    3.2436    1.0243 C   0  0  0  0  0  0  0  0  0  0  0  0
    2.3900    3.9758    1.7884 H   0  0  0  0  0  0  0  0  0  0  0  0
    2.1635    3.3097   -0.3441 C   0  0  0  0  0  0  0  0  0  0  0  0
    2.5038    4.1084   -1.0096 H   0  0  0  0  0  0  0  0  0  0  0  0
    1.4378    1.4562    2.6933 C   0  0  0  0  0  0  0  0  0  0  0  0
    0.5325    0.8147    2.7052 H   0  0  0  0  0  0  0  0  0  0  0  0
    1.2481    2.3107    3.3718 H   0  0  0  0  0  0  0  0  0  0  0  0
  1  3  1  0  0  0  0
  1  4  1  0  0  0  0
  1  2  1  0  0  0  0
  4  6  1  0  0  0  0
  5  4  1  0  0  0  0
  7  1  1  0  0  0  0
  8  7  1  0  0  0  0
  9 10  1  0  0  0  0
  9  8  1  0  0  0  0
 10 12  2  0  0  0  0
 11 10  1  0  0  0  0
 12  7  1  0  0  0  0
 12 13  1  0  0  0  0
 14 15  1  0  0  0  0
 14  9  1  0  0  0  0
 16 14  1  0  0  0  0
 17 20  1  0  0  0  0
 17 14  1  0  0  0  0
 18 17  1  0  0  0  0
 19 17  1  0  0  0  0
 20 23  1  0  0  0  0
 20 21  1  0  0  0  0
 22 20  1  0  0  0  0
 23 26  1  0  0  0  0
 24 23  1  0  0  0  0
 25 23  1  0  0  0  0
 26 31  1  0  0  0  0
 26 27  1  0  0  0  0
 27 28  1  0  0  0  0
 28 33  1  0  0  0  0
 29 28  1  0  0  0  0
 29 30  1  0  0  0  0
 31 29  2  0  0  0  0
 32 31  1  0  0  0  0
 33 34  1  0  0  0  0
 33  4  1  0  0  0  0
 33 35  1  0  0  0  0
M  END
