22,30
 OpenBabel05122313053D

 43 44  0  0  0  0  0  0  0  0999 V2000
   -2.7682   -0.9522   -0.1590 N   0  0  0  0  0  0  0  0  0  0  0  0
   -2.1137   -0.2491   -2.1017 N   0  0  0  0  0  0  0  0  0  0  0  0
   -0.5859    1.5206   -2.5144 N   0  0  0  0  0  0  0  0  0  0  0  0
    0.4172    2.7286   -1.0220 N   0  0  0  0  0  0  0  0  0  0  0  0
   -4.5858    1.1007    2.2753 C   0  0  0  0  0  0  0  0  0  0  0  0
   -5.1203    0.4416    1.5597 H   0  0  0  0  0  0  0  0  0  0  0  0
   -5.0455    2.1060    2.1916 H   0  0  0  0  0  0  0  0  0  0  0  0
   -4.8008    0.7195    3.2957 H   0  0  0  0  0  0  0  0  0  0  0  0
   -3.0806    1.1488    2.0054 C   0  0  0  0  0  0  0  0  0  0  0  0
   -2.8916    1.5295    0.9766 H   0  0  0  0  0  0  0  0  0  0  0  0
   -2.6077    1.8919    2.6815 H   0  0  0  0  0  0  0  0  0  0  0  0
   -2.3508   -0.1868    2.1856 C   0  0  0  0  0  0  0  0  0  0  0  0
   -2.4668   -0.5525    3.2287 H   0  0  0  0  0  0  0  0  0  0  0  0
   -1.2599   -0.0441    2.0280 H   0  0  0  0  0  0  0  0  0  0  0  0
   -2.8052   -1.3214    1.2639 C   0  0  0  0  0  0  0  0  0  0  0  0
   -2.1351   -2.1974    1.3930 H   0  0  0  0  0  0  0  0  0  0  0  0
   -3.8460   -1.6347    1.4761 H   0  0  0  0  0  0  0  0  0  0  0  0
   -3.8985   -0.8463   -0.9625 C   0  0  0  0  0  0  0  0  0  0  0  0
   -4.8937   -1.1147   -0.5961 H   0  0  0  0  0  0  0  0  0  0  0  0
   -3.4930   -0.3927   -2.1898 C   0  0  0  0  0  0  0  0  0  0  0  0
   -4.0561   -0.1912   -3.1057 H   0  0  0  0  0  0  0  0  0  0  0  0
   -1.6472   -0.5871   -0.8504 C   0  0  0  0  0  2  0  0  0  0  0  0
   -1.2122    0.3367   -3.0814 C   0  0  0  0  0  0  0  0  0  0  0  0
   -0.4251   -0.4016   -3.3327 H   0  0  0  0  0  0  0  0  0  0  0  0
   -1.7802    0.6156   -3.9871 H   0  0  0  0  0  0  0  0  0  0  0  0
   -0.7090    2.8381   -2.9393 C   0  0  0  0  0  0  0  0  0  0  0  0
   -1.2084    3.1194   -3.8710 H   0  0  0  0  0  0  0  0  0  0  0  0
   -0.0654    3.5953   -1.9960 C   0  0  0  0  0  0  0  0  0  0  0  0
    0.1019    4.6751   -1.9413 H   0  0  0  0  0  0  0  0  0  0  0  0
    0.1033    1.4334   -1.3249 C   0  0  0  0  0  2  0  0  0  0  0  0
    1.0882    3.1565    0.2110 C   0  0  0  0  0  0  0  0  0  0  0  0
    2.0316    2.5739    0.2841 H   0  0  0  0  0  0  0  0  0  0  0  0
    1.3422    4.2282    0.0880 H   0  0  0  0  0  0  0  0  0  0  0  0
    0.2295    2.9145    1.4503 C   0  0  0  0  0  0  0  0  0  0  0  0
   -0.0629    1.8415    1.4452 H   0  0  0  0  0  0  0  0  0  0  0  0
   -0.7118    3.5048    1.3835 H   0  0  0  0  0  0  0  0  0  0  0  0
    0.9728    3.2275    2.7497 C   0  0  0  0  0  0  0  0  0  0  0  0
    1.9050    2.6222    2.7767 H   0  0  0  0  0  0  0  0  0  0  0  0
    1.2962    4.2928    2.7531 H   0  0  0  0  0  0  0  0  0  0  0  0
    0.1324    2.9352    3.9932 C   0  0  0  0  0  0  0  0  0  0  0  0
   -0.7997    3.5390    4.0051 H   0  0  0  0  0  0  0  0  0  0  0  0
    0.6882    3.1601    4.9253 H   0  0  0  0  0  0  0  0  0  0  0  0
   -0.1626    1.8659    4.0304 H   0  0  0  0  0  0  0  0  0  0  0  0
  1 15  1  0  0  0  0
  2 22  1  0  0  0  0
  3 30  1  0  0  0  0
  4 31  1  0  0  0  0
  5  8  1  0  0  0  0
  6  5  1  0  0  0  0
  7  5  1  0  0  0  0
  9 12  1  0  0  0  0
  9  5  1  0  0  0  0
  9 11  1  0  0  0  0
 10  9  1  0  0  0  0
 12 13  1  0  0  0  0
 14 12  1  0  0  0  0
 15 16  1  0  0  0  0
 15 17  1  0  0  0  0
 15 12  1  0  0  0  0
 18 19  1  0  0  0  0
 18  1  1  0  0  0  0
 20  2  1  0  0  0  0
 20 18  2  0  0  0  0
 21 20  1  0  0  0  0
 22  1  1  0  0  0  0
 23  3  1  0  0  0  0
 23  2  1  0  0  0  0
 24 23  1  0  0  0  0
 25 23  1  0  0  0  0
 26  3  1  0  0  0  0
 26 28  2  0  0  0  0
 27 26  1  0  0  0  0
 28 29  1  0  0  0  0
 28  4  1  0  0  0  0
 30  4  1  0  0  0  0
 31 32  1  0  0  0  0
 31 34  1  0  0  0  0
 33 31  1  0  0  0  0
 34 37  1  0  0  0  0
 35 34  1  0  0  0  0
 36 34  1  0  0  0  0
 37 39  1  0  0  0  0
 37 38  1  0  0  0  0
 37 40  1  0  0  0  0
 40 41  1  0  0  0  0
 40 43  1  0  0  0  0
 40 42  1  0  0  0  0
M  END
