7,9
 OpenBabel05122313053D

 28 29  0  0  1  0  0  0  0  0999 V2000
   -2.7755   -0.8507   -0.6693 O   0  0  0  0  0  0  0  0  0  0  0  0
   -1.8062    0.1861   -0.9713 C   0  0  2  0  0  0  0  0  0  0  0  0
   -2.4332   -1.7914    0.2498 C   0  0  0  0  0  0  0  0  0  0  0  0
   -1.1340   -2.1156    0.5135 C   0  0  0  0  0  0  0  0  0  0  0  0
   -0.0783   -1.5348   -0.2969 C   0  0  0  0  0  0  0  0  0  0  0  0
    1.2372   -2.0932   -0.3815 C   0  0  0  0  0  0  0  0  0  0  0  0
    2.1966   -1.5280   -1.2643 C   0  0  0  0  0  3  0  0  0  0  0  0
    1.8653   -0.4147   -2.0870 C   0  0  0  0  0  3  0  0  0  0  0  0
    0.5718    0.1662   -1.9659 C   0  0  0  0  0  3  0  0  0  0  0  0
   -0.4088   -0.3922   -1.0994 C   0  0  2  0  0  3  0  0  0  0  0  0
   -1.9441    1.3185    0.0658 C   0  0  0  0  0  0  0  0  0  0  0  0
   -3.3203    1.9193    0.0984 C   0  0  0  0  0  0  0  0  0  0  0  0
   -3.5890    3.2251   -0.0725 C   0  0  0  0  0  0  0  0  0  0  0  0
   -3.6305   -2.4441    0.8596 C   0  0  0  0  0  0  0  0  0  0  0  0
   -2.1286    0.5688   -1.9609 H   0  0  0  0  0  0  0  0  0  0  0  0
   -0.8999   -2.8946    1.2499 H   0  0  0  0  0  0  0  0  0  0  0  0
    1.5051   -2.9439    0.2592 H   0  0  0  0  0  0  0  0  0  0  0  0
    3.2128   -1.9457   -1.2973 H   0  0  0  0  0  0  0  0  0  0  0  0
    2.6189    0.0387   -2.7435 H   0  0  0  0  0  0  0  0  0  0  0  0
    0.3233    1.0655   -2.5497 H   0  0  0  0  0  0  0  0  0  0  0  0
   -1.1860    2.0949   -0.1576 H   0  0  0  0  0  0  0  0  0  0  0  0
   -1.6759    0.8939    1.0582 H   0  0  0  0  0  0  0  0  0  0  0  0
   -4.1513    1.2119    0.2681 H   0  0  0  0  0  0  0  0  0  0  0  0
   -2.7840    3.9598   -0.2448 H   0  0  0  0  0  0  0  0  0  0  0  0
   -4.6195    3.6110   -0.0350 H   0  0  0  0  0  0  0  0  0  0  0  0
   -4.3013   -2.8233    0.0610 H   0  0  0  0  0  0  0  0  0  0  0  0
   -4.2165   -1.7065    1.4471 H   0  0  0  0  0  0  0  0  0  0  0  0
   -3.3409   -3.2828    1.5177 H   0  0  0  0  0  0  0  0  0  0  0  0
  1  3  1  0  0  0  0
  2 15  1  6  0  0  0
  2  1  1  0  0  0  0
  2 11  1  0  0  0  0
  3  4  2  0  0  0  0
  3 14  1  0  0  0  0
  4 16  1  0  0  0  0
  5  4  1  0  0  0  0
  6  5  2  0  0  0  0
  6 17  1  0  0  0  0
  7  6  1  0  0  0  0
  8  9  1  0  0  0  0
  8  7  1  0  0  0  0
 10  9  1  1  0  0  0
 10  2  1  0  0  0  0
 10  5  1  0  0  0  0
 11 12  1  0  0  0  0
 11 22  1  0  0  0  0
 12 23  1  0  0  0  0
 13 25  1  0  0  0  0
 13 12  2  0  0  0  0
 14 27  1  0  0  0  0
 14 28  1  0  0  0  0
 18  7  1  0  0  0  0
 19  8  1  0  0  0  0
 20  9  1  0  0  0  0
 21 11  1  0  0  0  0
 24 13  1  0  0  0  0
 26 14  1  0  0  0  0
M  END
