7,24
 OpenBabel05122313053D

 66 67  0  0  1  0  0  0  0  0999 V2000
   -1.6997    2.4855   -0.3500 Si  0  0  0  0  0  0  0  0  0  0  0  0
   -2.8821   -1.2577    0.3825 Si  0  0  0  0  0  0  0  0  0  0  0  0
    0.2183    1.2169    1.5865 C   0  0  0  0  0  0  0  0  0  0  0  0
    1.6273    1.1854    1.7925 C   0  0  0  0  0  0  0  0  0  0  0  0
    2.2473    1.8437    0.6697 C   0  0  0  0  0  0  0  0  0  0  0  0
    1.2204    2.2438   -0.2291 C   0  0  0  0  0  0  0  0  0  0  0  0
   -0.0539    1.8062    0.2960 C   0  0  2  0  0  3  0  0  0  0  0  0
   -0.8010    0.9791    2.6552 C   0  0  0  0  0  0  0  0  0  0  0  0
   -0.3831    0.4413    3.5249 H   0  0  0  0  0  0  0  0  0  0  0  0
   -1.6770    0.4210    2.2900 H   0  0  0  0  0  0  0  0  0  0  0  0
   -1.1728    1.9591    3.0257 H   0  0  0  0  0  0  0  0  0  0  0  0
    2.3479    0.7327    3.0267 C   0  0  0  0  0  0  0  0  0  0  0  0
    2.6779    1.6048    3.6313 H   0  0  0  0  0  0  0  0  0  0  0  0
    3.2467    0.1369    2.7714 H   0  0  0  0  0  0  0  0  0  0  0  0
    1.7045    0.1064    3.6732 H   0  0  0  0  0  0  0  0  0  0  0  0
    3.6881    2.2448    0.5730 C   0  0  0  0  0  0  0  0  0  0  0  0
    4.0826    2.1255   -0.4545 H   0  0  0  0  0  0  0  0  0  0  0  0
    4.3319    1.6436    1.2404 H   0  0  0  0  0  0  0  0  0  0  0  0
    3.8007    3.3133    0.8609 H   0  0  0  0  0  0  0  0  0  0  0  0
    1.4291    3.1810   -1.3797 C   0  0  0  0  0  0  0  0  0  0  0  0
    1.1485    4.2130   -1.0763 H   0  0  0  0  0  0  0  0  0  0  0  0
    0.8248    2.9063   -2.2629 H   0  0  0  0  0  0  0  0  0  0  0  0
    2.4906    3.2163   -1.6927 H   0  0  0  0  0  0  0  0  0  0  0  0
   -0.0367   -2.0070    0.9673 C   0  0  1  0  0  3  0  0  0  0  0  0
    0.9718   -2.6626    0.1912 C   0  0  0  0  0  0  0  0  0  0  0  0
    0.6824   -2.4505   -1.1880 C   0  0  0  0  0  0  0  0  0  0  0  0
   -0.5355   -1.6922   -1.2696 C   0  0  2  0  0  3  0  0  0  0  0  0
   -1.0141   -1.4341    0.0667 C   0  0  1  0  0  3  0  0  0  0  0  0
   -0.1099   -2.2038    2.4540 C   0  0  0  0  0  0  0  0  0  0  0  0
   -0.3285   -3.2698    2.6846 H   0  0  0  0  0  0  0  0  0  0  0  0
   -0.8927   -1.5978    2.9327 H   0  0  0  0  0  0  0  0  0  0  0  0
    0.8587   -1.9688    2.9391 H   0  0  0  0  0  0  0  0  0  0  0  0
    1.9861   -3.6050    0.7613 C   0  0  0  0  0  0  0  0  0  0  0  0
    1.4703   -4.5013    1.1709 H   0  0  0  0  0  0  0  0  0  0  0  0
    2.5718   -3.1410    1.5790 H   0  0  0  0  0  0  0  0  0  0  0  0
    2.7024   -3.9592   -0.0040 H   0  0  0  0  0  0  0  0  0  0  0  0
    1.4277   -3.0650   -2.3326 C   0  0  0  0  0  0  0  0  0  0  0  0
    2.5253   -2.9906   -2.1957 H   0  0  0  0  0  0  0  0  0  0  0  0
    1.1878   -2.5723   -3.2917 H   0  0  0  0  0  0  0  0  0  0  0  0
    1.1739   -4.1439   -2.4214 H   0  0  0  0  0  0  0  0  0  0  0  0
   -1.2729   -1.4379   -2.5526 C   0  0  0  0  0  0  0  0  0  0  0  0
   -0.5949   -1.0880   -3.3556 H   0  0  0  0  0  0  0  0  0  0  0  0
   -2.0620   -0.6739   -2.4322 H   0  0  0  0  0  0  0  0  0  0  0  0
   -1.7524   -2.3735   -2.9111 H   0  0  0  0  0  0  0  0  0  0  0  0
   -3.2907    1.6798    0.3215 C   0  0  0  0  0  0  0  0  0  0  0  0
   -3.2745    1.6576    1.4314 H   0  0  0  0  0  0  0  0  0  0  0  0
   -4.0591    2.4473    0.0686 H   0  0  0  0  0  0  0  0  0  0  0  0
   -3.7130    0.3229   -0.2643 C   0  0  0  0  0  0  0  0  0  0  0  0
   -3.6199    0.3327   -1.3723 H   0  0  0  0  0  0  0  0  0  0  0  0
   -4.7968    0.1418   -0.0759 H   0  0  0  0  0  0  0  0  0  0  0  0
   -1.7908    2.4400   -2.2443 C   0  0  0  0  0  0  0  0  0  0  0  0
   -1.3669    3.3623   -2.6889 H   0  0  0  0  0  0  0  0  0  0  0  0
   -2.8466    2.3661   -2.5776 H   0  0  0  0  0  0  0  0  0  0  0  0
   -1.2244    1.5794   -2.6539 H   0  0  0  0  0  0  0  0  0  0  0  0
   -1.7642    4.2882    0.2518 C   0  0  0  0  0  0  0  0  0  0  0  0
   -2.6765    4.7983   -0.1218 H   0  0  0  0  0  0  0  0  0  0  0  0
   -0.8848    4.8659   -0.0971 H   0  0  0  0  0  0  0  0  0  0  0  0
   -1.7769    4.3339    1.3605 H   0  0  0  0  0  0  0  0  0  0  0  0
   -3.6883   -2.7148   -0.5363 C   0  0  0  0  0  0  0  0  0  0  0  0
   -4.7633   -2.7793   -0.2683 H   0  0  0  0  0  0  0  0  0  0  0  0
   -3.2067   -3.6709   -0.2453 H   0  0  0  0  0  0  0  0  0  0  0  0
   -3.6191   -2.6209   -1.6367 H   0  0  0  0  0  0  0  0  0  0  0  0
   -3.4240   -1.5316    2.1864 C   0  0  0  0  0  0  0  0  0  0  0  0
   -3.1276   -0.7510    2.9121 H   0  0  0  0  0  0  0  0  0  0  0  0
   -3.0661   -2.5091    2.5665 H   0  0  0  0  0  0  0  0  0  0  0  0
   -4.5338   -1.5673    2.1787 H   0  0  0  0  0  0  0  0  0  0  0  0
  1 55  1  0  0  0  0
  1 45  1  0  0  0  0
  2 63  1  0  0  0  0
  3  4  2  0  0  0  0
  3  8  1  0  0  0  0
  4 12  1  0  0  0  0
  5  4  1  0  0  0  0
  6  7  1  0  0  0  0
  6  5  2  0  0  0  0
  7  1  1  1  0  0  0
  7  3  1  0  0  0  0
  8 11  1  0  0  0  0
  8  9  1  0  0  0  0
 10  8  1  0  0  0  0
 12 13  1  0  0  0  0
 12 15  1  0  0  0  0
 14 12  1  0  0  0  0
 16  5  1  0  0  0  0
 16 19  1  0  0  0  0
 16 18  1  0  0  0  0
 17 16  1  0  0  0  0
 20 21  1  0  0  0  0
 20  6  1  0  0  0  0
 22 20  1  0  0  0  0
 23 20  1  0  0  0  0
 24 29  1  1  0  0  0
 25 33  1  0  0  0  0
 25 24  1  0  0  0  0
 26 25  2  0  0  0  0
 27 41  1  6  0  0  0
 27 26  1  0  0  0  0
 27 28  1  0  0  0  0
 28  2  1  6  0  0  0
 28 24  1  0  0  0  0
 29 30  1  0  0  0  0
 29 31  1  0  0  0  0
 29 32  1  0  0  0  0
 33 34  1  0  0  0  0
 33 35  1  0  0  0  0
 36 33  1  0  0  0  0
 37 38  1  0  0  0  0
 37 26  1  0  0  0  0
 39 37  1  0  0  0  0
 40 37  1  0  0  0  0
 41 43  1  0  0  0  0
 42 41  1  0  0  0  0
 44 41  1  0  0  0  0
 45 46  1  0  0  0  0
 47 45  1  0  0  0  0
 48 50  1  0  0  0  0
 48 45  1  0  0  0  0
 48  2  1  0  0  0  0
 49 48  1  0  0  0  0
 51  1  1  0  0  0  0
 52 51  1  0  0  0  0
 53 51  1  0  0  0  0
 54 51  1  0  0  0  0
 55 58  1  0  0  0  0
 56 55  1  0  0  0  0
 57 55  1  0  0  0  0
 59 60  1  0  0  0  0
 59 61  1  0  0  0  0
 59  2  1  0  0  0  0
 62 59  1  0  0  0  0
 63 65  1  0  0  0  0
 63 64  1  0  0  0  0
 66 63  1  0  0  0  0
M  END
