5,35
 OpenBabel05122313053D

 60 61  0  0  1  0  0  0  0  0999 V2000
    0.8824   -1.5995   -0.0488 C   0  0  0  0  0  0  0  0  0  0  0  0
   -0.0549   -2.1238   -1.0080 C   0  0  0  0  0  0  0  0  0  0  0  0
   -1.2125   -2.6001   -0.3010 C   0  0  0  0  0  0  0  0  0  0  0  0
   -1.0099   -2.3671    1.0930 C   0  0  0  0  0  0  0  0  0  0  0  0
    0.2548   -1.7133    1.2532 C   0  0  1  0  0  3  0  0  0  0  0  0
    0.1282   -2.2849   -2.4898 C   0  0  0  0  0  0  0  0  0  0  0  0
    0.4833   -3.3098   -2.7333 H   0  0  0  0  0  0  0  0  0  0  0  0
    0.8628   -1.5733   -2.9038 H   0  0  0  0  0  0  0  0  0  0  0  0
   -0.8295   -2.1283   -3.0234 H   0  0  0  0  0  0  0  0  0  0  0  0
   -2.3640   -3.3352   -0.9128 C   0  0  0  0  0  0  0  0  0  0  0  0
   -2.0826   -4.3894   -1.1249 H   0  0  0  0  0  0  0  0  0  0  0  0
   -2.6820   -2.8684   -1.8649 H   0  0  0  0  0  0  0  0  0  0  0  0
   -3.2421   -3.3496   -0.2395 H   0  0  0  0  0  0  0  0  0  0  0  0
   -1.8909   -2.8533    2.2008 C   0  0  0  0  0  0  0  0  0  0  0  0
   -2.9587   -2.8511    1.9114 H   0  0  0  0  0  0  0  0  0  0  0  0
   -1.7968   -2.2278    3.1075 H   0  0  0  0  0  0  0  0  0  0  0  0
   -1.6127   -3.8950    2.4727 H   0  0  0  0  0  0  0  0  0  0  0  0
    0.8454   -1.3606    2.5895 C   0  0  0  0  0  0  0  0  0  0  0  0
    0.0842   -0.9188    3.2631 H   0  0  0  0  0  0  0  0  0  0  0  0
    1.6713   -0.6329    2.4952 H   0  0  0  0  0  0  0  0  0  0  0  0
    1.2541   -2.2599    3.0988 H   0  0  0  0  0  0  0  0  0  0  0  0
    2.7183   -1.1489   -0.2566 Si  0  0  0  0  0  0  0  0  0  0  0  0
    3.7569   -2.2164    0.9278 C   0  0  0  0  0  0  0  0  0  0  0  0
    3.5836   -3.2939    0.7250 H   0  0  0  0  0  0  0  0  0  0  0  0
    3.5305   -2.0283    1.9942 H   0  0  0  0  0  0  0  0  0  0  0  0
    4.8349   -2.0081    0.7668 H   0  0  0  0  0  0  0  0  0  0  0  0
    3.4054   -1.5354   -1.9886 C   0  0  0  0  0  0  0  0  0  0  0  0
    4.5028   -1.3712   -1.9644 H   0  0  0  0  0  0  0  0  0  0  0  0
    2.9937   -0.9059   -2.8004 H   0  0  0  0  0  0  0  0  0  0  0  0
    3.2275   -2.5974   -2.2544 H   0  0  0  0  0  0  0  0  0  0  0  0
    0.8824    1.5995    0.0489 C   0  0  0  0  0  0  0  0  0  0  0  0
   -0.0549    2.1238    1.0080 C   0  0  0  0  0  0  0  0  0  0  0  0
   -1.2125    2.6000    0.3012 C   0  0  0  0  0  0  0  0  0  0  0  0
   -1.0100    2.3671   -1.0929 C   0  0  0  0  0  0  0  0  0  0  0  0
    0.2548    1.7133   -1.2532 C   0  0  1  0  0  3  0  0  0  0  0  0
    0.1282    2.2848    2.4899 C   0  0  0  0  0  0  0  0  0  0  0  0
    0.4831    3.3097    2.7335 H   0  0  0  0  0  0  0  0  0  0  0  0
    0.8630    1.5733    2.9038 H   0  0  0  0  0  0  0  0  0  0  0  0
   -0.8294    2.1279    3.0235 H   0  0  0  0  0  0  0  0  0  0  0  0
   -2.3640    3.3351    0.9130 C   0  0  0  0  0  0  0  0  0  0  0  0
   -2.0826    4.3893    1.1251 H   0  0  0  0  0  0  0  0  0  0  0  0
   -2.6820    2.8683    1.8652 H   0  0  0  0  0  0  0  0  0  0  0  0
   -3.2421    3.3495    0.2398 H   0  0  0  0  0  0  0  0  0  0  0  0
   -1.8910    2.8533   -2.2006 C   0  0  0  0  0  0  0  0  0  0  0  0
   -2.9588    2.8512   -1.9112 H   0  0  0  0  0  0  0  0  0  0  0  0
   -1.7969    2.2279   -3.1074 H   0  0  0  0  0  0  0  0  0  0  0  0
   -1.6129    3.8952   -2.4724 H   0  0  0  0  0  0  0  0  0  0  0  0
    0.8452    1.3607   -2.5895 C   0  0  0  0  0  0  0  0  0  0  0  0
    0.0841    0.9189   -3.2631 H   0  0  0  0  0  0  0  0  0  0  0  0
    1.6712    0.6330   -2.4953 H   0  0  0  0  0  0  0  0  0  0  0  0
    1.2539    2.2600   -3.0988 H   0  0  0  0  0  0  0  0  0  0  0  0
    2.7183    1.1490    0.2566 Si  0  0  0  0  0  0  0  0  0  0  0  0
    3.7569    2.2164   -0.9278 C   0  0  0  0  0  0  0  0  0  0  0  0
    3.5835    3.2939   -0.7250 H   0  0  0  0  0  0  0  0  0  0  0  0
    3.5305    2.0283   -1.9942 H   0  0  0  0  0  0  0  0  0  0  0  0
    4.8349    2.0082   -0.7668 H   0  0  0  0  0  0  0  0  0  0  0  0
    3.4054    1.5354    1.9886 C   0  0  0  0  0  0  0  0  0  0  0  0
    4.5028    1.3713    1.9644 H   0  0  0  0  0  0  0  0  0  0  0  0
    2.9937    0.9060    2.8004 H   0  0  0  0  0  0  0  0  0  0  0  0
    3.2274    2.5975    2.2544 H   0  0  0  0  0  0  0  0  0  0  0  0
  1  5  1  0  0  0  0
  2  3  1  0  0  0  0
  2  1  2  0  0  0  0
  3  4  2  0  0  0  0
  4  5  1  0  0  0  0
  4 14  1  0  0  0  0
  5 18  1  1  0  0  0
  6  2  1  0  0  0  0
  7  6  1  0  0  0  0
  8  6  1  0  0  0  0
  9  6  1  0  0  0  0
 10  3  1  0  0  0  0
 10 13  1  0  0  0  0
 11 10  1  0  0  0  0
 12 10  1  0  0  0  0
 14 17  1  0  0  0  0
 14 16  1  0  0  0  0
 15 14  1  0  0  0  0
 18 21  1  0  0  0  0
 18 19  1  0  0  0  0
 20 18  1  0  0  0  0
 22  1  1  0  0  0  0
 22 52  1  0  0  0  0
 22 23  1  0  0  0  0
 23 25  1  0  0  0  0
 24 23  1  0  0  0  0
 26 23  1  0  0  0  0
 27 28  1  0  0  0  0
 27 22  1  0  0  0  0
 29 27  1  0  0  0  0
 30 27  1  0  0  0  0
 31 52  1  0  0  0  0
 31 32  2  0  0  0  0
 32 36  1  0  0  0  0
 33 40  1  0  0  0  0
 33 32  1  0  0  0  0
 34 33  2  0  0  0  0
 35 48  1  6  0  0  0
 35 34  1  0  0  0  0
 35 31  1  0  0  0  0
 36 37  1  0  0  0  0
 36 38  1  0  0  0  0
 36 39  1  0  0  0  0
 40 41  1  0  0  0  0
 40 42  1  0  0  0  0
 43 40  1  0  0  0  0
 44 45  1  0  0  0  0
 44 34  1  0  0  0  0
 46 44  1  0  0  0  0
 47 44  1  0  0  0  0
 48 50  1  0  0  0  0
 49 48  1  0  0  0  0
 51 48  1  0  0  0  0
 52 57  1  0  0  0  0
 53 56  1  0  0  0  0
 53 54  1  0  0  0  0
 53 52  1  0  0  0  0
 55 53  1  0  0  0  0
 57 60  1  0  0  0  0
 57 59  1  0  0  0  0
 58 57  1  0  0  0  0
M  END
