15,19
 OpenBabel05122313053D

 65 68  0  0  0  0  0  0  0  0999 V2000
   -1.5148    0.0120    0.2492 C   0  0  0  0  0  0  0  0  0  0  0  0
   -2.6960   -0.1815    0.9855 C   0  0  0  0  0  0  0  0  0  0  0  0
   -3.3929   -1.4292    0.9070 C   0  0  0  0  0  0  0  0  0  0  0  0
   -2.8773   -2.4417    0.0908 C   0  0  0  0  0  0  0  0  0  0  0  0
   -1.6038   -2.3169   -0.5484 C   0  0  0  0  0  0  0  0  0  0  0  0
   -1.0455   -3.4274   -1.2552 C   0  0  0  0  0  0  0  0  0  0  0  0
   -1.6277   -4.3579   -1.2906 H   0  0  0  0  0  0  0  0  0  0  0  0
    0.2112   -3.3678   -1.8366 C   0  0  0  0  0  0  0  0  0  0  0  0
    0.6612   -4.2215   -2.3608 H   0  0  0  0  0  0  0  0  0  0  0  0
    0.9337   -2.1761   -1.6570 C   0  0  0  0  0  0  0  0  0  0  0  0
    2.2494   -2.0371   -2.0530 O   0  0  0  0  0  0  0  0  0  0  0  0
    2.6711   -0.8396   -1.5558 C   0  0  0  0  0  0  0  0  0  0  0  0
    4.0028   -0.3629   -1.6365 C   0  0  0  0  0  3  0  0  0  0  0  0
    4.7885   -0.9579   -2.1174 H   0  0  0  0  0  0  0  0  0  0  0  0
    4.2611    0.9068   -1.0469 C   0  0  0  0  0  3  0  0  0  0  0  0
    5.2829    1.3107   -1.0708 H   0  0  0  0  0  0  0  0  0  0  0  0
    3.2292    1.6435   -0.3891 C   0  0  0  0  0  3  0  0  0  0  0  0
    3.4689    2.5967    0.1006 H   0  0  0  0  0  0  0  0  0  0  0  0
    1.9332    1.0799   -0.2252 C   0  0  0  0  0  3  0  0  0  0  0  0
    1.1650    1.5877    0.3647 H   0  0  0  0  0  0  0  0  0  0  0  0
    1.6100   -0.1541   -0.8765 C   0  0  0  0  0  0  0  0  0  0  0  0
    0.4582   -1.0476   -0.9622 C   0  0  0  0  0  0  0  0  0  0  0  0
   -0.8778   -1.0716   -0.4315 C   0  0  0  0  0  0  0  0  0  0  0  0
   -0.9655    1.2727    0.1927 O   0  0  0  0  0  0  0  0  0  0  0  0
   -1.4195    2.3767   -1.0669 Si  0  0  0  0  0  0  0  0  0  0  0  0
   -0.3981    2.0177   -2.6104 C   0  0  0  0  0  0  0  0  0  0  0  0
    0.6832    2.2014   -2.4598 H   0  0  0  0  0  0  0  0  0  0  0  0
   -0.7448    2.6500   -3.4534 H   0  0  0  0  0  0  0  0  0  0  0  0
   -0.5226    0.9569   -2.9079 H   0  0  0  0  0  0  0  0  0  0  0  0
   -3.2393    2.1113   -1.4880 C   0  0  0  0  0  0  0  0  0  0  0  0
   -3.9210    2.3648   -0.6532 H   0  0  0  0  0  0  0  0  0  0  0  0
   -3.4162    1.0504   -1.7578 H   0  0  0  0  0  0  0  0  0  0  0  0
   -3.5173    2.7336   -2.3629 H   0  0  0  0  0  0  0  0  0  0  0  0
   -1.0751    4.1281   -0.3674 C   0  0  0  0  0  0  0  0  0  0  0  0
    0.4130    4.3016   -0.0106 C   0  0  0  0  0  0  0  0  0  0  0  0
    1.0829    4.0859   -0.8682 H   0  0  0  0  0  0  0  0  0  0  0  0
    0.7106    3.6456    0.8325 H   0  0  0  0  0  0  0  0  0  0  0  0
    0.6090    5.3496    0.3070 H   0  0  0  0  0  0  0  0  0  0  0  0
   -1.4588    5.1396   -1.4681 C   0  0  0  0  0  0  0  0  0  0  0  0
   -2.5286    5.0628   -1.7529 H   0  0  0  0  0  0  0  0  0  0  0  0
   -0.8521    5.0071   -2.3878 H   0  0  0  0  0  0  0  0  0  0  0  0
   -1.2886    6.1787   -1.1095 H   0  0  0  0  0  0  0  0  0  0  0  0
   -1.9266    4.3811    0.8901 C   0  0  0  0  0  0  0  0  0  0  0  0
   -3.0133    4.2862    0.6866 H   0  0  0  0  0  0  0  0  0  0  0  0
   -1.7533    5.4117    1.2715 H   0  0  0  0  0  0  0  0  0  0  0  0
   -1.6671    3.6758    1.7051 H   0  0  0  0  0  0  0  0  0  0  0  0
   -3.1514    0.9222    1.9150 C   0  0  0  0  0  0  0  0  0  0  0  0
   -4.2267    0.8186    2.1521 H   0  0  0  0  0  0  0  0  0  0  0  0
   -3.0402    1.9020    1.4146 H   0  0  0  0  0  0  0  0  0  0  0  0
   -2.3285    0.9364    3.2142 C   0  0  0  0  0  0  0  0  0  0  0  0
   -2.6399    1.7709    3.8752 H   0  0  0  0  0  0  0  0  0  0  0  0
   -1.2477    1.0499    2.9962 H   0  0  0  0  0  0  0  0  0  0  0  0
   -2.4520   -0.0109    3.7771 H   0  0  0  0  0  0  0  0  0  0  0  0
   -4.6924   -1.6552    1.6504 C   0  0  0  0  0  0  0  0  0  0  0  0
   -4.5945   -1.2676    2.6858 H   0  0  0  0  0  0  0  0  0  0  0  0
   -4.8528   -2.7474    1.7379 H   0  0  0  0  0  0  0  0  0  0  0  0
   -5.9188   -1.0135    0.9802 C   0  0  0  0  0  0  0  0  0  0  0  0
   -6.8391   -1.2023    1.5692 H   0  0  0  0  0  0  0  0  0  0  0  0
   -6.0798   -1.4223   -0.0375 H   0  0  0  0  0  0  0  0  0  0  0  0
   -5.8042    0.0843    0.8727 H   0  0  0  0  0  0  0  0  0  0  0  0
   -3.5551   -3.6393   -0.0349 O   0  0  0  0  0  0  0  0  0  0  0  0
   -4.3793   -3.7480   -1.1899 C   0  0  0  0  0  0  0  0  0  0  0  0
   -4.8342   -4.7570   -1.1692 H   0  0  0  0  0  0  0  0  0  0  0  0
   -3.7916   -3.6345   -2.1292 H   0  0  0  0  0  0  0  0  0  0  0  0
   -5.1901   -2.9858   -1.1920 H   0  0  0  0  0  0  0  0  0  0  0  0
  1  2  1  0  0  0  0
  2 47  1  0  0  0  0
  3  2  2  0  0  0  0
  3 54  1  0  0  0  0
  4  3  1  0  0  0  0
  5 23  1  0  0  0  0
  5  4  2  0  0  0  0
  6  5  1  0  0  0  0
  7  6  1  0  0  0  0
  8 10  1  0  0  0  0
  8  6  2  0  0  0  0
  9  8  1  0  0  0  0
 10 22  2  0  0  0  0
 11 10  1  0  0  0  0
 11 12  1  0  0  0  0
 12 21  2  0  0  0  0
 13 12  1  0  0  0  0
 13 15  1  0  0  0  0
 14 13  1  0  0  0  0
 15 17  1  0  0  0  0
 16 15  1  0  0  0  0
 17 19  1  0  0  0  0
 17 18  1  0  0  0  0
 19 20  1  0  0  0  0
 21 19  1  0  0  0  0
 22 21  1  0  0  0  0
 22 23  1  0  0  0  0
 23  1  2  0  0  0  0
 24  1  1  0  0  0  0
 25 34  1  0  0  0  0
 25 24  1  0  0  0  0
 26 27  1  0  0  0  0
 26 25  1  0  0  0  0
 28 26  1  0  0  0  0
 29 26  1  0  0  0  0
 30 25  1  0  0  0  0
 30 31  1  0  0  0  0
 32 30  1  0  0  0  0
 33 30  1  0  0  0  0
 34 35  1  0  0  0  0
 34 43  1  0  0  0  0
 35 38  1  0  0  0  0
 35 37  1  0  0  0  0
 36 35  1  0  0  0  0
 39 42  1  0  0  0  0
 39 34  1  0  0  0  0
 40 39  1  0  0  0  0
 41 39  1  0  0  0  0
 43 45  1  0  0  0  0
 43 46  1  0  0  0  0
 44 43  1  0  0  0  0
 47 48  1  0  0  0  0
 47 50  1  0  0  0  0
 49 47  1  0  0  0  0
 50 53  1  0  0  0  0
 50 51  1  0  0  0  0
 52 50  1  0  0  0  0
 54 56  1  0  0  0  0
 54 55  1  0  0  0  0
 57 58  1  0  0  0  0
 57 54  1  0  0  0  0
 59 57  1  0  0  0  0
 60 57  1  0  0  0  0
 61  4  1  0  0  0  0
 62 63  1  0  0  0  0
 62 61  1  0  0  0  0
 64 62  1  0  0  0  0
 65 62  1  0  0  0  0
M  END
