2,13
 OpenBabel05122313053D

 48 52  0  0  1  0  0  0  0  0999 V2000
   -0.7202   -0.4107   -2.2511 P   0  0  0  0  0  2  0  0  0  0  0  0
   -0.1066    0.4484   -0.7415 C   0  0  2  0  0  3  0  0  0  0  0  0
   -0.8800    1.6358   -0.4099 C   0  0  0  0  0  0  0  0  0  0  0  0
   -0.6383    2.6394    0.5788 C   0  0  0  0  0  0  0  0  0  0  0  0
    0.2545    2.5788    1.2184 H   0  0  0  0  0  0  0  0  0  0  0  0
   -1.5151    3.7098    0.7031 C   0  0  0  0  0  0  0  0  0  0  0  0
   -1.3169    4.4834    1.4604 H   0  0  0  0  0  0  0  0  0  0  0  0
   -2.6681    3.8178   -0.1193 C   0  0  0  0  0  0  0  0  0  0  0  0
   -3.3592    4.6617    0.0218 H   0  0  0  0  0  0  0  0  0  0  0  0
   -2.9302    2.8638   -1.0956 C   0  0  0  0  0  0  0  0  0  0  0  0
   -3.8175    2.9416   -1.7414 H   0  0  0  0  0  0  0  0  0  0  0  0
   -2.0223    1.7838   -1.2980 C   0  0  0  0  0  0  0  0  0  0  0  0
   -2.0965    0.7166   -2.2666 C   0  0  0  0  0  3  0  0  0  0  0  0
   -2.8911    0.6707   -3.0251 H   0  0  0  0  0  0  0  0  0  0  0  0
    1.4254   -0.0114   -0.0070 P   0  0  0  0  0  4  0  0  0  0  0  0
    2.6091    1.3743   -0.1468 C   0  0  0  0  0  0  0  0  0  0  0  0
    2.4829    2.2437   -1.2507 C   0  0  0  0  0  0  0  0  0  0  0  0
    1.6684    2.0896   -1.9752 H   0  0  0  0  0  0  0  0  0  0  0  0
    3.3858    3.3047   -1.4061 C   0  0  0  0  0  0  0  0  0  0  0  0
    3.2849    3.9847   -2.2651 H   0  0  0  0  0  0  0  0  0  0  0  0
    4.4065    3.5052   -0.4623 C   0  0  0  0  0  0  0  0  0  0  0  0
    5.1093    4.3433   -0.5833 H   0  0  0  0  0  0  0  0  0  0  0  0
    4.5254    2.6452    0.6416 C   0  0  0  0  0  0  0  0  0  0  0  0
    5.3189    2.8081    1.3862 H   0  0  0  0  0  0  0  0  0  0  0  0
    3.6288    1.5789    0.8040 C   0  0  0  0  0  0  0  0  0  0  0  0
    3.7137    0.9123    1.6750 H   0  0  0  0  0  0  0  0  0  0  0  0
    2.0898   -1.4227   -0.9403 C   0  0  0  0  0  0  0  0  0  0  0  0
    3.1905   -1.2702   -1.8049 C   0  0  0  0  0  0  0  0  0  0  0  0
    3.6941   -0.2963   -1.8942 H   0  0  0  0  0  0  0  0  0  0  0  0
    3.6378   -2.3692   -2.5535 C   0  0  0  0  0  0  0  0  0  0  0  0
    4.4982   -2.2536   -3.2293 H   0  0  0  0  0  0  0  0  0  0  0  0
    2.9876   -3.6085   -2.4430 C   0  0  0  0  0  0  0  0  0  0  0  0
    3.3385   -4.4664   -3.0364 H   0  0  0  0  0  0  0  0  0  0  0  0
    1.8909   -3.7568   -1.5780 C   0  0  0  0  0  0  0  0  0  0  0  0
    1.3738   -4.7239   -1.4922 H   0  0  0  0  0  0  0  0  0  0  0  0
    1.4381   -2.6695   -0.8194 C   0  0  0  0  0  0  0  0  0  0  0  0
    0.5765   -2.7949   -0.1473 H   0  0  0  0  0  0  0  0  0  0  0  0
    1.3950   -0.5211    1.7404 C   0  0  0  0  0  0  0  0  0  0  0  0
    2.3878   -1.4043    2.2168 C   0  0  0  0  0  0  0  0  0  0  0  0
    3.1533   -1.8014    1.5330 H   0  0  0  0  0  0  0  0  0  0  0  0
    2.3769   -1.7968    3.5634 C   0  0  0  0  0  0  0  0  0  0  0  0
    3.1445   -2.4928    3.9335 H   0  0  0  0  0  0  0  0  0  0  0  0
    1.3779   -1.3208    4.4284 C   0  0  0  0  0  0  0  0  0  0  0  0
    1.3629   -1.6461    5.4796 H   0  0  0  0  0  0  0  0  0  0  0  0
    0.3898   -0.4453    3.9512 C   0  0  0  0  0  0  0  0  0  0  0  0
   -0.4142   -0.0893    4.6115 H   0  0  0  0  0  0  0  0  0  0  0  0
    0.3993   -0.0388    2.6100 C   0  0  0  0  0  0  0  0  0  0  0  0
   -0.3914    0.6221    2.2345 H   0  0  0  0  0  0  0  0  0  0  0  0
  1  2  1  0  0  0  0
  2  3  1  0  0  0  0
  2 15  1  6  0  0  0
  3  4  1  0  0  0  0
  4  6  2  0  0  0  0
  4  5  1  0  0  0  0
  6  7  1  0  0  0  0
  8  9  1  0  0  0  0
  8  6  1  0  0  0  0
 10  8  2  0  0  0  0
 11 10  1  0  0  0  0
 12 10  1  0  0  0  0
 12  3  2  0  0  0  0
 13  1  1  0  0  0  0
 13 12  1  0  0  0  0
 14 13  1  0  0  0  0
 15 38  1  0  0  0  0
 16 15  1  0  0  0  0
 16 25  1  0  0  0  0
 17 16  2  0  0  0  0
 18 17  1  0  0  0  0
 19 17  1  0  0  0  0
 19 21  2  0  0  0  0
 20 19  1  0  0  0  0
 21 23  1  0  0  0  0
 22 21  1  0  0  0  0
 23 25  2  0  0  0  0
 23 24  1  0  0  0  0
 25 26  1  0  0  0  0
 27 36  1  0  0  0  0
 27 15  1  0  0  0  0
 28 27  2  0  0  0  0
 29 28  1  0  0  0  0
 30 32  2  0  0  0  0
 30 28  1  0  0  0  0
 31 30  1  0  0  0  0
 32 34  1  0  0  0  0
 33 32  1  0  0  0  0
 34 35  1  0  0  0  0
 34 36  2  0  0  0  0
 36 37  1  0  0  0  0
 38 39  2  0  0  0  0
 38 47  1  0  0  0  0
 39 41  1  0  0  0  0
 40 39  1  0  0  0  0
 41 42  1  0  0  0  0
 41 43  2  0  0  0  0
 43 44  1  0  0  0  0
 45 43  1  0  0  0  0
 45 46  1  0  0  0  0
 47 45  2  0  0  0  0
 48 47  1  0  0  0  0
M  END
