7,14
 OpenBabel05122313053D

 75 76  0  0  1  0  0  0  0  0999 V2000
   -0.0003   -0.0003    2.7079 Si  0  0  0  0  0  0  0  0  0  0  0  0
   -1.3571   -0.3259    1.4164 C   0  0  2  0  0  3  0  0  0  0  0  0
   -1.7632   -1.4306    0.5750 C   0  0  2  0  0  3  0  0  0  0  0  0
   -2.4667   -0.8715   -0.5426 C   0  0  0  0  0  0  0  0  0  0  0  0
   -2.8954   -1.4534   -1.3637 H   0  0  0  0  0  0  0  0  0  0  0  0
   -2.5693    0.5385   -0.4129 C   0  0  0  0  0  0  0  0  0  0  0  0
   -1.8452    0.8720    0.7693 C   0  0  0  0  0  3  0  0  0  0  0  0
   -1.7137    1.8889    1.1516 H   0  0  0  0  0  0  0  0  0  0  0  0
    1.3568    0.3257    1.4168 C   0  0  2  0  0  3  0  0  0  0  0  0
    1.7627    1.4306    0.5755 C   0  0  2  0  0  3  0  0  0  0  0  0
    2.4666    0.8719   -0.5420 C   0  0  0  0  0  0  0  0  0  0  0  0
    2.8953    1.4539   -1.3629 H   0  0  0  0  0  0  0  0  0  0  0  0
    2.5695   -0.5381   -0.4125 C   0  0  0  0  0  0  0  0  0  0  0  0
    1.8454   -0.8720    0.7696 C   0  0  0  0  0  3  0  0  0  0  0  0
    1.7140   -1.8890    1.1516 H   0  0  0  0  0  0  0  0  0  0  0  0
   -3.5135    1.4342   -1.2082 C   0  0  0  0  0  0  0  0  0  0  0  0
   -4.9268    1.1686   -0.6289 C   0  0  0  0  0  0  0  0  0  0  0  0
   -5.2201    0.1073   -0.7575 H   0  0  0  0  0  0  0  0  0  0  0  0
   -5.6777    1.8005   -1.1474 H   0  0  0  0  0  0  0  0  0  0  0  0
   -4.9649    1.4040    0.4541 H   0  0  0  0  0  0  0  0  0  0  0  0
   -3.5111    1.0746   -2.7062 C   0  0  0  0  0  0  0  0  0  0  0  0
   -2.5137    1.2429   -3.1543 H   0  0  0  0  0  0  0  0  0  0  0  0
   -4.2497    1.7014   -3.2462 H   0  0  0  0  0  0  0  0  0  0  0  0
   -3.7930    0.0153   -2.8715 H   0  0  0  0  0  0  0  0  0  0  0  0
   -3.1801    2.9249   -1.0225 C   0  0  0  0  0  0  0  0  0  0  0  0
   -3.2317    3.2243    0.0442 H   0  0  0  0  0  0  0  0  0  0  0  0
   -3.9148    3.5457   -1.5738 H   0  0  0  0  0  0  0  0  0  0  0  0
   -2.1708    3.1602   -1.4092 H   0  0  0  0  0  0  0  0  0  0  0  0
    1.7578    2.9355    0.8895 C   0  0  0  0  0  0  0  0  0  0  0  0
    2.4700    3.7191   -0.2309 C   0  0  0  0  0  0  0  0  0  0  0  0
    1.9473    3.5944   -1.1997 H   0  0  0  0  0  0  0  0  0  0  0  0
    3.5233    3.3975   -0.3532 H   0  0  0  0  0  0  0  0  0  0  0  0
    2.4769    4.7993    0.0180 H   0  0  0  0  0  0  0  0  0  0  0  0
    0.3571    3.5496    1.0628 C   0  0  0  0  0  0  0  0  0  0  0  0
    0.4491    4.6313    1.2900 H   0  0  0  0  0  0  0  0  0  0  0  0
   -0.1903    3.0881    1.9029 H   0  0  0  0  0  0  0  0  0  0  0  0
   -0.2419    3.4423    0.1388 H   0  0  0  0  0  0  0  0  0  0  0  0
    2.5573    3.1122    2.2022 C   0  0  0  0  0  0  0  0  0  0  0  0
    3.5814    2.6999    2.1006 H   0  0  0  0  0  0  0  0  0  0  0  0
    2.0652    2.5901    3.0459 H   0  0  0  0  0  0  0  0  0  0  0  0
    2.6402    4.1879    2.4621 H   0  0  0  0  0  0  0  0  0  0  0  0
   -1.7585   -2.9355    0.8888 C   0  0  0  0  0  0  0  0  0  0  0  0
   -2.4703   -3.7190   -0.2318 C   0  0  0  0  0  0  0  0  0  0  0  0
   -2.4774   -4.7992    0.0170 H   0  0  0  0  0  0  0  0  0  0  0  0
   -1.9473   -3.5942   -1.2004 H   0  0  0  0  0  0  0  0  0  0  0  0
   -3.5236   -3.3974   -0.3545 H   0  0  0  0  0  0  0  0  0  0  0  0
   -2.5585   -3.1122    2.2012 C   0  0  0  0  0  0  0  0  0  0  0  0
   -2.6415   -4.1879    2.4611 H   0  0  0  0  0  0  0  0  0  0  0  0
   -3.5826   -2.6998    2.0993 H   0  0  0  0  0  0  0  0  0  0  0  0
   -2.0666   -2.5901    3.0451 H   0  0  0  0  0  0  0  0  0  0  0  0
   -0.3579   -3.5496    1.0626 C   0  0  0  0  0  0  0  0  0  0  0  0
    0.1893   -3.0878    1.9028 H   0  0  0  0  0  0  0  0  0  0  0  0
    0.2414   -3.4424    0.1388 H   0  0  0  0  0  0  0  0  0  0  0  0
   -0.4499   -4.6312    1.2900 H   0  0  0  0  0  0  0  0  0  0  0  0
    3.5141   -1.4335   -1.2078 C   0  0  0  0  0  0  0  0  0  0  0  0
    4.9274   -1.1671   -0.6288 C   0  0  0  0  0  0  0  0  0  0  0  0
    5.2202   -0.1057   -0.7576 H   0  0  0  0  0  0  0  0  0  0  0  0
    5.6784   -1.7987   -1.1473 H   0  0  0  0  0  0  0  0  0  0  0  0
    4.9657   -1.4024    0.4542 H   0  0  0  0  0  0  0  0  0  0  0  0
    3.1814   -2.9243   -1.0219 C   0  0  0  0  0  0  0  0  0  0  0  0
    3.9163   -3.5448   -1.5733 H   0  0  0  0  0  0  0  0  0  0  0  0
    2.1721   -3.1601   -1.4083 H   0  0  0  0  0  0  0  0  0  0  0  0
    3.2334   -3.2235    0.0449 H   0  0  0  0  0  0  0  0  0  0  0  0
    3.5113   -1.0740   -2.7059 C   0  0  0  0  0  0  0  0  0  0  0  0
    3.7925   -0.0146   -2.8714 H   0  0  0  0  0  0  0  0  0  0  0  0
    2.5139   -1.2429   -3.1538 H   0  0  0  0  0  0  0  0  0  0  0  0
    4.2501   -1.7004   -3.2459 H   0  0  0  0  0  0  0  0  0  0  0  0
    0.5574   -1.3893    3.8621 C   0  0  0  0  0  0  0  0  0  0  0  0
    1.2160   -0.9363    4.6323 H   0  0  0  0  0  0  0  0  0  0  0  0
    1.1315   -2.1950    3.3694 H   0  0  0  0  0  0  0  0  0  0  0  0
   -0.3050   -1.8482    4.3865 H   0  0  0  0  0  0  0  0  0  0  0  0
   -0.5581    1.3883    3.8624 C   0  0  0  0  0  0  0  0  0  0  0  0
   -1.2176    0.9353    4.6318 H   0  0  0  0  0  0  0  0  0  0  0  0
   -1.1314    2.1947    3.3697 H   0  0  0  0  0  0  0  0  0  0  0  0
    0.3041    1.8464    4.3878 H   0  0  0  0  0  0  0  0  0  0  0  0
  1 68  1  0  0  0  0
  1 72  1  0  0  0  0
  2  1  1  6  0  0  0
  3 42  1  1  0  0  0
  3  2  1  0  0  0  0
  4  6  2  0  0  0  0
  4  3  1  0  0  0  0
  5  4  1  0  0  0  0
  6  7  1  0  0  0  0
  7  8  1  0  0  0  0
  7  2  1  0  0  0  0
  9  1  1  6  0  0  0
 10 29  1  1  0  0  0
 10  9  1  0  0  0  0
 11 13  2  0  0  0  0
 11 10  1  0  0  0  0
 12 11  1  0  0  0  0
 13 14  1  0  0  0  0
 14 15  1  0  0  0  0
 14  9  1  0  0  0  0
 16 25  1  0  0  0  0
 16 17  1  0  0  0  0
 16  6  1  0  0  0  0
 17 20  1  0  0  0  0
 18 17  1  0  0  0  0
 19 17  1  0  0  0  0
 21 16  1  0  0  0  0
 22 21  1  0  0  0  0
 23 21  1  0  0  0  0
 24 21  1  0  0  0  0
 25 26  1  0  0  0  0
 27 25  1  0  0  0  0
 28 25  1  0  0  0  0
 29 34  1  0  0  0  0
 29 38  1  0  0  0  0
 30 33  1  0  0  0  0
 30 29  1  0  0  0  0
 31 30  1  0  0  0  0
 32 30  1  0  0  0  0
 34 35  1  0  0  0  0
 34 36  1  0  0  0  0
 37 34  1  0  0  0  0
 38 41  1  0  0  0  0
 38 40  1  0  0  0  0
 39 38  1  0  0  0  0
 42 51  1  0  0  0  0
 42 47  1  0  0  0  0
 43 44  1  0  0  0  0
 43 42  1  0  0  0  0
 45 43  1  0  0  0  0
 46 43  1  0  0  0  0
 47 48  1  0  0  0  0
 47 50  1  0  0  0  0
 49 47  1  0  0  0  0
 51 54  1  0  0  0  0
 51 52  1  0  0  0  0
 53 51  1  0  0  0  0
 55 60  1  0  0  0  0
 55 56  1  0  0  0  0
 55 13  1  0  0  0  0
 56 59  1  0  0  0  0
 57 56  1  0  0  0  0
 58 56  1  0  0  0  0
 60 63  1  0  0  0  0
 61 60  1  0  0  0  0
 62 60  1  0  0  0  0
 64 55  1  0  0  0  0
 65 64  1  0  0  0  0
 66 64  1  0  0  0  0
 67 64  1  0  0  0  0
 68 71  1  0  0  0  0
 68 69  1  0  0  0  0
 70 68  1  0  0  0  0
 72 75  1  0  0  0  0
 72 73  1  0  0  0  0
 74 72  1  0  0  0  0
M  END
