2,12
 OpenBabel05122313053D

 19 20  0  0  1  0  0  0  0  0999 V2000
    1.3895    1.9802    0.7610 C   0  0  1  0  0  0  0  0  0  0  0  0
    0.3564    1.1946    1.5045 C   0  0  0  0  0  3  0  0  0  0  0  0
   -1.0236    1.4650    1.4744 C   0  0  0  0  0  3  0  0  0  0  0  0
   -1.6287    2.5555    0.6751 C   0  0  0  0  0  0  0  0  0  0  0  0
    2.4549    1.2335   -0.0002 C   0  0  1  0  0  0  0  0  0  0  0  0
    2.2622   -0.7059   -0.0002 Br  0  0  0  0  0  0  0  0  0  0  0  0
    1.7431    2.9013    1.2608 H   0  0  0  0  0  0  0  0  0  0  0  0
    0.7422    0.6163    2.3623 H   0  0  0  0  0  0  0  0  0  0  0  0
   -1.6217    1.0909    2.3221 H   0  0  0  0  0  0  0  0  0  0  0  0
   -2.1138    3.3788    1.2284 H   0  0  0  0  0  0  0  0  0  0  0  0
    3.5113    1.5378   -0.0003 H   0  0  0  0  0  0  0  0  0  0  0  0
    0.3561    1.1946   -1.5045 C   0  0  0  0  0  3  0  0  0  0  0  0
   -1.0239    1.4650   -1.4742 C   0  0  0  0  0  3  0  0  0  0  0  0
    1.3893    1.9802   -0.7613 C   0  0  1  0  0  0  0  0  0  0  0  0
   -1.6288    2.5555   -0.6748 C   0  0  0  0  0  0  0  0  0  0  0  0
    0.7416    0.6163   -2.3624 H   0  0  0  0  0  0  0  0  0  0  0  0
   -1.6221    1.0909   -2.3217 H   0  0  0  0  0  0  0  0  0  0  0  0
    1.7429    2.9013   -1.2612 H   0  0  0  0  0  0  0  0  0  0  0  0
   -2.1141    3.3788   -1.2279 H   0  0  0  0  0  0  0  0  0  0  0  0
  1  7  1  1  0  0  0
  1  2  1  0  0  0  0
  2  8  1  0  0  0  0
  3  2  1  0  0  0  0
  3  9  1  0  0  0  0
  4 10  1  0  0  0  0
  4  3  1  0  0  0  0
  5 11  1  6  0  0  0
  5  6  1  0  0  0  0
  5  1  1  0  0  0  0
 12 13  1  0  0  0  0
 12 14  1  0  0  0  0
 13 15  1  0  0  0  0
 14 18  1  6  0  0  0
 14  5  1  0  0  0  0
 14  1  1  0  0  0  0
 15  4  2  0  0  0  0
 16 12  1  0  0  0  0
 17 13  1  0  0  0  0
 19 15  1  0  0  0  0
M  END
