4,9
 OpenBabel05122313053D

 33 34  0  0  0  0  0  0  0  0999 V2000
   -0.7495   -0.0370   -0.0018 Si  0  0  0  0  0  0  0  0  0  0  0  0
    0.4468   -0.4646   -1.3812 C   0  0  0  0  0  3  0  0  0  0  0  0
    0.5926    0.2498   -2.2102 H   0  0  0  0  0  0  0  0  0  0  0  0
    1.1095   -1.7117   -1.4542 C   0  0  0  0  0  3  0  0  0  0  0  0
    0.7088   -2.5977   -0.9373 H   0  0  0  0  0  0  0  0  0  0  0  0
    1.7421   -1.9457   -2.3269 H   0  0  0  0  0  0  0  0  0  0  0  0
    0.4406   -0.3818    1.4074 C   0  0  0  0  0  3  0  0  0  0  0  0
    0.5816    0.3761    2.1979 H   0  0  0  0  0  0  0  0  0  0  0  0
    1.0956   -1.6261    1.5535 C   0  0  0  0  0  3  0  0  0  0  0  0
    0.6902   -2.5368    1.0850 H   0  0  0  0  0  0  0  0  0  0  0  0
    1.7214   -1.8158    2.4416 H   0  0  0  0  0  0  0  0  0  0  0  0
   -2.2941   -1.1241    0.0146 C   0  0  0  0  0  0  0  0  0  0  0  0
   -2.6530   -1.8969   -1.1113 C   0  0  0  0  0  0  0  0  0  0  0  0
   -2.0178   -1.8723   -2.0121 H   0  0  0  0  0  0  0  0  0  0  0  0
   -3.8056   -2.6992   -1.0995 C   0  0  0  0  0  0  0  0  0  0  0  0
   -4.0708   -3.2951   -1.9865 H   0  0  0  0  0  0  0  0  0  0  0  0
   -4.6174   -2.7427    0.0447 C   0  0  0  0  0  0  0  0  0  0  0  0
   -5.5204   -3.3724    0.0571 H   0  0  0  0  0  0  0  0  0  0  0  0
   -4.2736   -1.9841    1.1764 C   0  0  0  0  0  0  0  0  0  0  0  0
   -4.9073   -2.0188    2.0762 H   0  0  0  0  0  0  0  0  0  0  0  0
   -3.1214   -1.1843    1.1597 C   0  0  0  0  0  0  0  0  0  0  0  0
   -2.8607   -0.5964    2.0557 H   0  0  0  0  0  0  0  0  0  0  0  0
   -1.2148    1.7881   -0.0426 C   0  0  0  0  0  0  0  0  0  0  0  0
   -0.2202    2.7909    0.0401 C   0  0  0  0  0  0  0  0  0  0  0  0
    0.8385    2.5027    0.1349 H   0  0  0  0  0  0  0  0  0  0  0  0
   -0.5626    4.1504    0.0010 C   0  0  0  0  0  0  0  0  0  0  0  0
    0.2253    4.9165    0.0669 H   0  0  0  0  0  0  0  0  0  0  0  0
   -1.9085    4.5334   -0.1221 C   0  0  0  0  0  0  0  0  0  0  0  0
   -2.1777    5.6005   -0.1526 H   0  0  0  0  0  0  0  0  0  0  0  0
   -2.9083    3.5523   -0.2060 C   0  0  0  0  0  0  0  0  0  0  0  0
   -3.9645    3.8477   -0.3031 H   0  0  0  0  0  0  0  0  0  0  0  0
   -2.5631    2.1918   -0.1667 C   0  0  0  0  0  0  0  0  0  0  0  0
   -3.3558    1.4294   -0.2323 H   0  0  0  0  0  0  0  0  0  0  0  0
  1 12  1  0  0  0  0
  1  7  1  0  0  0  0
  2  1  1  0  0  0  0
  3  2  1  0  0  0  0
  4  2  1  0  0  0  0
  4  5  1  0  0  0  0
  6  4  1  0  0  0  0
  7  9  1  0  0  0  0
  7  8  1  0  0  0  0
  9 11  1  0  0  0  0
 10  9  1  0  0  0  0
 12 21  1  0  0  0  0
 13 15  1  0  0  0  0
 13 12  2  0  0  0  0
 14 13  1  0  0  0  0
 15 17  2  0  0  0  0
 16 15  1  0  0  0  0
 17 18  1  0  0  0  0
 17 19  1  0  0  0  0
 19 20  1  0  0  0  0
 21 19  2  0  0  0  0
 21 22  1  0  0  0  0
 23  1  1  0  0  0  0
 23 24  1  0  0  0  0
 24 25  1  0  0  0  0
 26 24  2  0  0  0  0
 26 27  1  0  0  0  0
 28 26  1  0  0  0  0
 29 28  1  0  0  0  0
 30 32  1  0  0  0  0
 30 28  2  0  0  0  0
 31 30  1  0  0  0  0
 32 23  2  0  0  0  0
 33 32  1  0  0  0  0
M  END
