3,5
 OpenBabel05122313053D

 60 65  0  0  1  0  0  0  0  0999 V2000
   -1.5774    1.2399    0.5259 C   0  0  0  0  0  0  0  0  0  0  0  0
   -0.9625    0.3870    1.5175 C   0  0  0  0  0  0  0  0  0  0  0  0
   -1.2247   -1.0009    1.1387 C   0  0  2  0  0  3  0  0  0  0  0  0
   -1.9796   -0.9955   -0.0878 C   0  0  2  0  0  3  0  0  0  0  0  0
   -2.1608    0.3971   -0.4947 C   0  0  1  0  0  3  0  0  0  0  0  0
   -1.6401    2.7147    0.5861 C   0  0  0  0  0  0  0  0  0  0  0  0
   -2.8224    3.3926    0.2120 C   0  0  0  0  0  0  0  0  0  0  0  0
   -3.6889    2.8188   -0.1440 H   0  0  0  0  0  0  0  0  0  0  0  0
   -2.9056    4.7883    0.3099 C   0  0  0  0  0  0  0  0  0  0  0  0
   -3.8369    5.2979    0.0200 H   0  0  0  0  0  0  0  0  0  0  0  0
   -1.8102    5.5317    0.7761 C   0  0  0  0  0  0  0  0  0  0  0  0
   -1.8760    6.6280    0.8487 H   0  0  0  0  0  0  0  0  0  0  0  0
   -0.6301    4.8691    1.1502 C   0  0  0  0  0  0  0  0  0  0  0  0
    0.2344    5.4431    1.5162 H   0  0  0  0  0  0  0  0  0  0  0  0
   -0.5431    3.4744    1.0573 C   0  0  0  0  0  0  0  0  0  0  0  0
    0.3855    2.9624    1.3441 H   0  0  0  0  0  0  0  0  0  0  0  0
   -0.4033    0.8284    2.8190 C   0  0  0  0  0  0  0  0  0  0  0  0
   -1.1913    1.6525    3.6535 C   0  0  0  0  0  0  0  0  0  0  0  0
   -2.1817    1.9817    3.3060 H   0  0  0  0  0  0  0  0  0  0  0  0
   -0.7225    2.0497    4.9133 C   0  0  0  0  0  0  0  0  0  0  0  0
   -1.3490    2.6935    5.5491 H   0  0  0  0  0  0  0  0  0  0  0  0
    0.5389    1.6273    5.3618 C   0  0  0  0  0  0  0  0  0  0  0  0
    0.9085    1.9407    6.3499 H   0  0  0  0  0  0  0  0  0  0  0  0
    1.3265    0.8037    4.5420 C   0  0  0  0  0  0  0  0  0  0  0  0
    2.3172    0.4680    4.8835 H   0  0  0  0  0  0  0  0  0  0  0  0
    0.8607    0.4069    3.2810 C   0  0  0  0  0  0  0  0  0  0  0  0
    1.4863   -0.2342    2.6461 H   0  0  0  0  0  0  0  0  0  0  0  0
   -0.8843   -2.1970    1.9469 C   0  0  0  0  0  0  0  0  0  0  0  0
   -1.2070   -2.2326    3.3207 C   0  0  0  0  0  0  0  0  0  0  0  0
   -1.6818   -1.3595    3.7905 H   0  0  0  0  0  0  0  0  0  0  0  0
   -0.9316   -3.3758    4.0854 C   0  0  0  0  0  0  0  0  0  0  0  0
   -1.1874   -3.3878    5.1558 H   0  0  0  0  0  0  0  0  0  0  0  0
   -0.3321   -4.4965    3.4911 C   0  0  0  0  0  0  0  0  0  0  0  0
   -0.1116   -5.3906    4.0935 H   0  0  0  0  0  0  0  0  0  0  0  0
   -0.0095   -4.4697    2.1240 C   0  0  0  0  0  0  0  0  0  0  0  0
    0.4661   -5.3418    1.6509 H   0  0  0  0  0  0  0  0  0  0  0  0
   -0.2818   -3.3297    1.3585 C   0  0  0  0  0  0  0  0  0  0  0  0
   -0.0237   -3.3035    0.2895 H   0  0  0  0  0  0  0  0  0  0  0  0
   -2.6209   -2.1669   -0.7320 C   0  0  0  0  0  0  0  0  0  0  0  0
   -3.3081   -3.1051    0.0705 C   0  0  0  0  0  0  0  0  0  0  0  0
   -3.3233   -2.9761    1.1621 H   0  0  0  0  0  0  0  0  0  0  0  0
   -3.9745   -4.1918   -0.5125 C   0  0  0  0  0  0  0  0  0  0  0  0
   -4.5027   -4.9126    0.1299 H   0  0  0  0  0  0  0  0  0  0  0  0
   -3.9698   -4.3590   -1.9057 C   0  0  0  0  0  0  0  0  0  0  0  0
   -4.4896   -5.2145   -2.3630 H   0  0  0  0  0  0  0  0  0  0  0  0
   -3.2985   -3.4266   -2.7129 C   0  0  0  0  0  0  0  0  0  0  0  0
   -3.2889   -3.5470   -3.8066 H   0  0  0  0  0  0  0  0  0  0  0  0
   -2.6324   -2.3392   -2.1332 C   0  0  0  0  0  0  0  0  0  0  0  0
   -2.1115   -1.6179   -2.7766 H   0  0  0  0  0  0  0  0  0  0  0  0
   -2.9757    0.8454   -1.6518 C   0  0  0  0  0  0  0  0  0  0  0  0
   -4.3323    0.4622   -1.7299 C   0  0  0  0  0  0  0  0  0  0  0  0
   -4.7571   -0.1828   -0.9466 H   0  0  0  0  0  0  0  0  0  0  0  0
   -5.1339    0.8962   -2.7955 C   0  0  0  0  0  0  0  0  0  0  0  0
   -6.1890    0.5872   -2.8441 H   0  0  0  0  0  0  0  0  0  0  0  0
   -4.5928    1.7181   -3.7966 C   0  0  0  0  0  0  0  0  0  0  0  0
   -5.2217    2.0563   -4.6340 H   0  0  0  0  0  0  0  0  0  0  0  0
   -3.2434    2.1006   -3.7283 C   0  0  0  0  0  0  0  0  0  0  0  0
   -2.8089    2.7377   -4.5133 H   0  0  0  0  0  0  0  0  0  0  0  0
   -2.4394    1.6657   -2.6660 C   0  0  0  0  0  0  0  0  0  0  0  0
   -1.3790    1.9536   -2.6189 H   0  0  0  0  0  0  0  0  0  0  0  0
  1  6  1  0  0  0  0
  1  2  2  0  0  0  0
  2 17  1  0  0  0  0
  3  2  1  0  0  0  0
  3 28  1  1  0  0  0
  4 39  1  1  0  0  0
  4  3  1  0  0  0  0
  5 50  1  1  0  0  0
  5  4  1  0  0  0  0
  5  1  1  0  0  0  0
  6 15  1  0  0  0  0
  7  9  1  0  0  0  0
  7  6  2  0  0  0  0
  8  7  1  0  0  0  0
  9 11  2  0  0  0  0
 10  9  1  0  0  0  0
 11 12  1  0  0  0  0
 11 13  1  0  0  0  0
 13 14  1  0  0  0  0
 15 13  2  0  0  0  0
 15 16  1  0  0  0  0
 17 26  2  0  0  0  0
 17 18  1  0  0  0  0
 18 20  2  0  0  0  0
 19 18  1  0  0  0  0
 20 22  1  0  0  0  0
 20 21  1  0  0  0  0
 22 23  1  0  0  0  0
 24 25  1  0  0  0  0
 24 22  2  0  0  0  0
 26 24  1  0  0  0  0
 27 26  1  0  0  0  0
 28 29  1  0  0  0  0
 29 30  1  0  0  0  0
 29 31  2  0  0  0  0
 31 32  1  0  0  0  0
 33 31  1  0  0  0  0
 33 34  1  0  0  0  0
 35 33  2  0  0  0  0
 36 35  1  0  0  0  0
 37 28  2  0  0  0  0
 37 35  1  0  0  0  0
 38 37  1  0  0  0  0
 39 40  1  0  0  0  0
 40 41  1  0  0  0  0
 42 40  2  0  0  0  0
 42 43  1  0  0  0  0
 44 42  1  0  0  0  0
 45 44  1  0  0  0  0
 46 48  1  0  0  0  0
 46 44  2  0  0  0  0
 47 46  1  0  0  0  0
 48 39  2  0  0  0  0
 49 48  1  0  0  0  0
 51 50  1  0  0  0  0
 51 52  1  0  0  0  0
 53 51  2  0  0  0  0
 54 53  1  0  0  0  0
 55 57  2  0  0  0  0
 55 53  1  0  0  0  0
 56 55  1  0  0  0  0
 57 59  1  0  0  0  0
 58 57  1  0  0  0  0
 59 60  1  0  0  0  0
 59 50  2  0  0  0  0
M  END
