2,5
 OpenBabel05122313053D

 22 23  0  0  0  0  0  0  0  0999 V2000
    0.6242    1.4436   -0.0321 C   0  0  0  0  0  3  0  0  0  0  0  0
   -0.2129    1.6465    1.0857 C   0  0  0  0  0  3  0  0  0  0  0  0
   -0.6486    0.7082    2.0791 C   0  0  0  0  0  0  0  0  0  0  0  0
   -0.6487   -0.7091    2.0788 C   0  0  0  0  0  0  0  0  0  0  0  0
   -0.2130   -1.6470    1.0850 C   0  0  0  0  0  3  0  0  0  0  0  0
    0.6242   -1.4437   -0.0326 C   0  0  0  0  0  3  0  0  0  0  0  0
    1.9135   -0.7012   -0.0449 C   0  0  0  0  0  0  0  0  0  0  0  0
    3.1353   -1.4007   -0.0938 C   0  0  0  0  0  0  0  0  0  0  0  0
    4.3507   -0.7020   -0.1324 C   0  0  0  0  0  0  0  0  0  0  0  0
    4.3507    0.7021   -0.1323 C   0  0  0  0  0  0  0  0  0  0  0  0
    3.1352    1.4008   -0.0935 C   0  0  0  0  0  0  0  0  0  0  0  0
    1.9134    0.7012   -0.0447 C   0  0  0  0  0  0  0  0  0  0  0  0
    0.5939    2.2847   -0.7460 H   0  0  0  0  0  0  0  0  0  0  0  0
   -0.7244    2.6215    1.1561 H   0  0  0  0  0  0  0  0  0  0  0  0
   -1.2889    1.1464    2.8621 H   0  0  0  0  0  0  0  0  0  0  0  0
   -1.2889   -1.1476    2.8616 H   0  0  0  0  0  0  0  0  0  0  0  0
   -0.7245   -2.6220    1.1549 H   0  0  0  0  0  0  0  0  0  0  0  0
    0.5939   -2.2844   -0.7470 H   0  0  0  0  0  0  0  0  0  0  0  0
    3.1283   -2.5016   -0.1149 H   0  0  0  0  0  0  0  0  0  0  0  0
    5.3006   -1.2557   -0.1798 H   0  0  0  0  0  0  0  0  0  0  0  0
    5.3005    1.2558   -0.1795 H   0  0  0  0  0  0  0  0  0  0  0  0
    3.1282    2.5017   -0.1142 H   0  0  0  0  0  0  0  0  0  0  0  0
  1  2  1  0  0  0  0
  2 14  1  0  0  0  0
  2  3  1  0  0  0  0
  3 15  1  0  0  0  0
  4  3  2  0  0  0  0
  4 16  1  0  0  0  0
  5 17  1  0  0  0  0
  5  4  1  0  0  0  0
  6  5  1  0  0  0  0
  7 12  1  0  0  0  0
  7  6  1  0  0  0  0
  8  7  2  0  0  0  0
  9 10  2  0  0  0  0
  9  8  1  0  0  0  0
 10 11  1  0  0  0  0
 11 12  2  0  0  0  0
 12  1  1  0  0  0  0
 13  1  1  0  0  0  0
 18  6  1  0  0  0  0
 19  8  1  0  0  0  0
 20  9  1  0  0  0  0
 21 10  1  0  0  0  0
 22 11  1  0  0  0  0
M  END
