1,12
 OpenBabel05122313053D

 36 38  0  0  0  0  0  0  0  0999 V2000
   -2.2825   -0.0448    0.8684 C   0  0  0  0  0  3  0  0  0  0  0  0
   -3.5718   -0.3344    0.3550 C   0  0  0  0  0  0  0  0  0  0  0  0
   -4.7174   -0.4230    1.1620 C   0  0  0  0  0  0  0  0  0  0  0  0
   -4.6228   -0.2210    2.5469 C   0  0  0  0  0  0  0  0  0  0  0  0
   -3.3716    0.0951    3.0897 C   0  0  0  0  0  0  0  0  0  0  0  0
   -2.2293    0.1942    2.2660 C   0  0  0  0  0  0  0  0  0  0  0  0
   -0.9612    0.6766    2.9228 C   0  0  0  0  0  0  0  0  0  0  0  0
    0.2634    0.0447    2.4695 N   0  0  0  0  0  0  0  0  0  0  0  0
    1.3869    0.0067    3.4026 C   0  0  0  0  0  0  0  0  0  0  0  0
    2.4278   -0.7651    2.6045 C   0  0  0  0  0  0  0  0  0  0  0  0
    1.9636   -0.5705    1.2296 N   0  0  0  0  0  0  0  0  0  0  0  0
    0.6369   -0.1709    1.1708 C   0  0  0  0  0  2  0  0  0  0  0  0
    2.7449   -1.2219    0.1908 C   0  0  0  0  0  0  0  0  0  0  0  0
    5.2135   -1.3186    0.7813 C   0  0  0  0  0  0  0  0  0  0  0  0
    6.5201   -0.8087    0.7250 C   0  0  0  0  0  0  0  0  0  0  0  0
    6.7900    0.3418   -0.0317 C   0  0  0  0  0  0  0  0  0  0  0  0
    5.7506    0.9705   -0.7366 C   0  0  0  0  0  0  0  0  0  0  0  0
    4.4454    0.4604   -0.6775 C   0  0  0  0  0  0  0  0  0  0  0  0
    4.1606   -0.6868    0.0905 C   0  0  0  0  0  0  0  0  0  0  0  0
   -3.6803   -0.4621   -0.7324 H   0  0  0  0  0  0  0  0  0  0  0  0
   -5.6928   -0.6489    0.7010 H   0  0  0  0  0  0  0  0  0  0  0  0
   -5.5095   -0.2997    3.1945 H   0  0  0  0  0  0  0  0  0  0  0  0
   -3.2762    0.2779    4.1740 H   0  0  0  0  0  0  0  0  0  0  0  0
   -1.0211    0.5040    4.0166 H   0  0  0  0  0  0  0  0  0  0  0  0
   -0.8730    1.7864    2.8030 H   0  0  0  0  0  0  0  0  0  0  0  0
    1.7267    1.0434    3.6405 H   0  0  0  0  0  0  0  0  0  0  0  0
    1.1046   -0.4858    4.3548 H   0  0  0  0  0  0  0  0  0  0  0  0
    2.4256   -1.8545    2.8544 H   0  0  0  0  0  0  0  0  0  0  0  0
    3.4608   -0.3892    2.7387 H   0  0  0  0  0  0  0  0  0  0  0  0
    2.7883   -2.3182    0.4013 H   0  0  0  0  0  0  0  0  0  0  0  0
    2.2075   -1.0887   -0.7612 H   0  0  0  0  0  0  0  0  0  0  0  0
    5.0054   -2.2297    1.3660 H   0  0  0  0  0  0  0  0  0  0  0  0
    7.3313   -1.3154    1.2699 H   0  0  0  0  0  0  0  0  0  0  0  0
    7.8137    0.7430   -0.0810 H   0  0  0  0  0  0  0  0  0  0  0  0
    5.9592    1.8626   -1.3467 H   0  0  0  0  0  0  0  0  0  0  0  0
    3.6404    0.9412   -1.2511 H   0  0  0  0  0  0  0  0  0  0  0  0
  1  6  1  0  0  0  0
  2  1  2  0  0  0  0
  2  3  1  0  0  0  0
  3  4  2  0  0  0  0
  4  5  1  0  0  0  0
  4 22  1  0  0  0  0
  5 23  1  0  0  0  0
  6  7  1  0  0  0  0
  6  5  2  0  0  0  0
  7 24  1  0  0  0  0
  8  7  1  0  0  0  0
  8  9  1  0  0  0  0
  9 26  1  0  0  0  0
  9 27  1  0  0  0  0
 10 29  1  0  0  0  0
 10 28  1  0  0  0  0
 10  9  1  0  0  0  0
 11 10  1  0  0  0  0
 12 11  1  0  0  0  0
 12  8  1  0  0  0  0
 13 30  1  0  0  0  0
 13 11  1  0  0  0  0
 14 32  1  0  0  0  0
 15 14  1  0  0  0  0
 15 33  1  0  0  0  0
 16 15  2  0  0  0  0
 17 18  2  0  0  0  0
 17 16  1  0  0  0  0
 18 19  1  0  0  0  0
 19 13  1  0  0  0  0
 19 14  2  0  0  0  0
 20  2  1  0  0  0  0
 21  3  1  0  0  0  0
 25  7  1  0  0  0  0
 31 13  1  0  0  0  0
 34 16  1  0  0  0  0
 35 17  1  0  0  0  0
 36 18  1  0  0  0  0
M  END
