1,5
 OpenBabel05122313053D

 39 41  0  0  0  0  0  0  0  0999 V2000
    0.4062    0.5385   -0.1364 C   0  0  0  0  0  3  0  0  0  0  0  0
    1.7312    0.0926   -0.0520 C   0  0  0  0  0  0  0  0  0  0  0  0
    2.0940   -1.2744    0.2702 C   0  0  0  0  0  0  0  0  0  0  0  0
    1.1181   -2.2579    0.6038 C   0  0  0  0  0  0  0  0  0  0  0  0
   -0.1936   -1.9522    0.9332 C   0  0  0  0  0  1  0  0  0  0  0  0
    0.5471    2.8960    0.7899 C   0  0  0  0  0  0  0  0  0  0  0  0
    0.2644    4.2659    0.7136 C   0  0  0  0  0  0  0  0  0  0  0  0
   -0.4279    4.7825   -0.3942 C   0  0  0  0  0  0  0  0  0  0  0  0
   -0.8282    3.9134   -1.4213 C   0  0  0  0  0  0  0  0  0  0  0  0
   -0.5633    2.5403   -1.3309 C   0  0  0  0  0  0  0  0  0  0  0  0
    0.1254    1.9975   -0.2217 C   0  0  0  0  0  0  0  0  0  0  0  0
    2.9681    1.8695   -1.3711 C   0  0  0  0  0  0  0  0  0  0  0  0
    3.9745    2.8385   -1.4894 C   0  0  0  0  0  0  0  0  0  0  0  0
    4.8661    3.0628   -0.4287 C   0  0  0  0  0  0  0  0  0  0  0  0
    4.7419    2.3082    0.7493 C   0  0  0  0  0  0  0  0  0  0  0  0
    3.7365    1.3386    0.8631 C   0  0  0  0  0  0  0  0  0  0  0  0
    2.8303    1.1041   -0.1940 C   0  0  0  0  0  0  0  0  0  0  0  0
    4.4279   -1.3854   -0.6960 C   0  0  0  0  0  0  0  0  0  0  0  0
    5.7384   -1.8739   -0.6721 C   0  0  0  0  0  0  0  0  0  0  0  0
    6.1793   -2.6844    0.3888 C   0  0  0  0  0  0  0  0  0  0  0  0
    5.2864   -3.0085    1.4218 C   0  0  0  0  0  0  0  0  0  0  0  0
    3.9690   -2.5293    1.3944 C   0  0  0  0  0  0  0  0  0  0  0  0
    3.5101   -1.7051    0.3376 C   0  0  0  0  0  0  0  0  0  0  0  0
    1.4921   -3.2835    0.7932 H   0  0  0  0  0  0  0  0  0  0  0  0
    1.1280    2.5108    1.6401 H   0  0  0  0  0  0  0  0  0  0  0  0
    0.6033    4.9380    1.5171 H   0  0  0  0  0  0  0  0  0  0  0  0
   -0.6431    5.8599   -0.4618 H   0  0  0  0  0  0  0  0  0  0  0  0
   -1.3587    4.3077   -2.3019 H   0  0  0  0  0  0  0  0  0  0  0  0
   -0.8855    1.8656   -2.1338 H   0  0  0  0  0  0  0  0  0  0  0  0
    2.2666    1.7016   -2.2019 H   0  0  0  0  0  0  0  0  0  0  0  0
    4.0621    3.4241   -2.4175 H   0  0  0  0  0  0  0  0  0  0  0  0
    5.6564    3.8236   -0.5194 H   0  0  0  0  0  0  0  0  0  0  0  0
    5.4353    2.4762    1.5877 H   0  0  0  0  0  0  0  0  0  0  0  0
    3.6457    0.7461    1.7861 H   0  0  0  0  0  0  0  0  0  0  0  0
    4.0988   -0.7537   -1.5330 H   0  0  0  0  0  0  0  0  0  0  0  0
    6.4262   -1.6178   -1.4927 H   0  0  0  0  0  0  0  0  0  0  0  0
    7.2140   -3.0588    0.4094 H   0  0  0  0  0  0  0  0  0  0  0  0
    5.6196   -3.6358    2.2631 H   0  0  0  0  0  0  0  0  0  0  0  0
    3.2809   -2.7693    2.2192 H   0  0  0  0  0  0  0  0  0  0  0  0
  1  2  2  0  0  0  0
  2  3  1  0  0  0  0
  3 23  1  0  0  0  0
  3  4  2  0  0  0  0
  4 24  1  0  0  0  0
  4  5  1  0  0  0  0
  6 25  1  0  0  0  0
  7  6  1  0  0  0  0
  7 26  1  0  0  0  0
  8  7  2  0  0  0  0
  9 10  2  0  0  0  0
  9  8  1  0  0  0  0
 10 11  1  0  0  0  0
 11  1  1  0  0  0  0
 11  6  2  0  0  0  0
 12 17  1  0  0  0  0
 13 12  2  0  0  0  0
 13 14  1  0  0  0  0
 14 15  2  0  0  0  0
 15 16  1  0  0  0  0
 15 33  1  0  0  0  0
 16 34  1  0  0  0  0
 17  2  1  0  0  0  0
 17 16  2  0  0  0  0
 18 19  2  0  0  0  0
 18 23  1  0  0  0  0
 19 20  1  0  0  0  0
 20 37  1  0  0  0  0
 20 21  2  0  0  0  0
 21 38  1  0  0  0  0
 22 21  1  0  0  0  0
 22 39  1  0  0  0  0
 23 22  2  0  0  0  0
 27  8  1  0  0  0  0
 28  9  1  0  0  0  0
 29 10  1  0  0  0  0
 30 12  1  0  0  0  0
 31 13  1  0  0  0  0
 32 14  1  0  0  0  0
 35 18  1  0  0  0  0
 36 19  1  0  0  0  0
M  END
