7,25
 OpenBabel05122313053D

 57 60  0  0  1  0  0  0  0  0999 V2000
   -2.9819   -0.2868    2.6358 O   0  0  0  0  0  0  0  0  0  0  0  0
   -2.6364   -2.9415   -1.8240 O   0  0  0  0  0  0  0  0  0  0  0  0
    2.3738   -2.1391    0.2166 O   0  0  0  0  0  0  0  0  0  0  0  0
    3.3714   -1.0885   -1.5340 O   0  0  0  0  0  0  0  0  0  0  0  0
    2.8610    2.4610   -0.4536 O   0  0  0  0  0  0  0  0  0  0  0  0
    3.9991    0.8436    0.6532 O   0  0  0  0  0  0  0  0  0  0  0  0
   -3.1072    0.0690    0.2584 C   0  0  0  0  0  3  0  0  0  0  0  0
   -4.1095    0.5172    0.3764 H   0  0  0  0  0  0  0  0  0  0  0  0
   -2.5535   -0.4833    1.4987 C   0  0  0  0  0  0  0  0  0  0  0  0
   -1.2366   -1.2544    1.1948 C   0  0  1  0  0  0  0  0  0  0  0  0
   -0.6914   -1.9540    2.4434 C   0  0  0  0  0  0  0  0  0  0  0  0
   -0.7175   -1.2858    3.3258 H   0  0  0  0  0  0  0  0  0  0  0  0
    0.3552   -2.2663    2.2556 H   0  0  0  0  0  0  0  0  0  0  0  0
   -1.6016   -3.1942    2.6115 C   0  0  0  0  0  0  0  0  0  0  0  0
   -2.3945   -2.9825    3.3536 H   0  0  0  0  0  0  0  0  0  0  0  0
   -1.0277   -4.0670    2.9803 H   0  0  0  0  0  0  0  0  0  0  0  0
   -2.2347   -3.4662    1.2173 C   0  0  0  0  0  0  0  0  0  0  0  0
   -3.3288   -3.2839    1.2448 H   0  0  0  0  0  0  0  0  0  0  0  0
   -2.0954   -4.5016    0.8534 H   0  0  0  0  0  0  0  0  0  0  0  0
   -1.5613   -2.4463    0.2645 C   0  0  1  0  0  0  0  0  0  0  0  0
   -0.6011   -2.8700   -0.1060 H   0  0  0  0  0  0  0  0  0  0  0  0
   -2.3975   -2.1123   -0.9582 C   0  0  0  0  0  0  0  0  0  0  0  0
   -2.8757   -0.6472   -1.0794 C   0  0  2  0  0  0  0  0  0  0  0  0
   -1.6648    0.1624   -1.6192 C   0  0  1  0  0  3  0  0  0  0  0  0
   -0.4342    0.1091   -0.8838 C   0  0  1  0  0  3  0  0  0  0  0  0
    0.9271    0.5246   -1.4102 C   0  0  0  0  0  0  0  0  0  0  0  0
    0.9956    1.5934   -1.6915 H   0  0  0  0  0  0  0  0  0  0  0  0
    1.2026   -0.0616   -2.3100 H   0  0  0  0  0  0  0  0  0  0  0  0
    1.8939    0.2259   -0.2313 C   0  0  0  0  0  0  0  0  0  0  0  0
    1.0038    0.1597    1.0448 C   0  0  0  0  0  0  0  0  0  0  0  0
    1.4025   -0.6019    1.7374 H   0  0  0  0  0  0  0  0  0  0  0  0
    1.0148    1.1296    1.5779 H   0  0  0  0  0  0  0  0  0  0  0  0
   -0.3840   -0.1917    0.5237 C   0  0  2  0  0  3  0  0  0  0  0  0
   -4.1105   -0.5683   -1.9731 C   0  0  0  0  0  0  0  0  0  0  0  0
   -4.9544   -1.0914   -1.4816 H   0  0  0  0  0  0  0  0  0  0  0  0
   -3.9345   -1.0634   -2.9457 H   0  0  0  0  0  0  0  0  0  0  0  0
   -4.4105    0.4850   -2.1405 H   0  0  0  0  0  0  0  0  0  0  0  0
   -1.6392    0.5657   -3.0694 C   0  0  0  0  0  0  0  0  0  0  0  0
   -2.5670    1.0861   -3.3725 H   0  0  0  0  0  0  0  0  0  0  0  0
   -1.5465   -0.3352   -3.7162 H   0  0  0  0  0  0  0  0  0  0  0  0
   -0.7871    1.2345   -3.2950 H   0  0  0  0  0  0  0  0  0  0  0  0
    2.5605   -1.1403   -0.4528 C   0  0  0  0  0  0  0  0  0  0  0  0
    4.1368   -2.2809   -1.8283 C   0  0  0  0  0  0  0  0  0  0  0  0
    4.3308   -2.2286   -2.9171 H   0  0  0  0  0  0  0  0  0  0  0  0
    3.5096   -3.1683   -1.6097 H   0  0  0  0  0  0  0  0  0  0  0  0
    5.4261   -2.3081   -1.0245 C   0  0  0  0  0  0  0  0  0  0  0  0
    6.0307   -1.3988   -1.2141 H   0  0  0  0  0  0  0  0  0  0  0  0
    6.0312   -3.1931   -1.3062 H   0  0  0  0  0  0  0  0  0  0  0  0
    5.2083   -2.3698    0.0595 H   0  0  0  0  0  0  0  0  0  0  0  0
    2.9574    1.3107   -0.0645 C   0  0  0  0  0  0  0  0  0  0  0  0
    5.0626    1.7818    0.9386 C   0  0  0  0  0  0  0  0  0  0  0  0
    4.6490    2.6089    1.5537 H   0  0  0  0  0  0  0  0  0  0  0  0
    5.4038    2.2308   -0.0175 H   0  0  0  0  0  0  0  0  0  0  0  0
    6.1641    1.0269    1.6519 C   0  0  0  0  0  0  0  0  0  0  0  0
    5.7948    0.5830    2.5975 H   0  0  0  0  0  0  0  0  0  0  0  0
    6.9990    1.7137    1.8937 H   0  0  0  0  0  0  0  0  0  0  0  0
    6.5597    0.2090    1.0174 H   0  0  0  0  0  0  0  0  0  0  0  0
  2 22  2  0  0  0  0
  4 42  1  0  0  0  0
  5 50  2  0  0  0  0
  6 51  1  0  0  0  0
  7  8  1  0  0  0  0
  7  9  1  0  0  0  0
  9  1  2  0  0  0  0
 10  9  1  1  0  0  0
 10 11  1  0  0  0  0
 11 14  1  0  0  0  0
 11 12  1  0  0  0  0
 13 11  1  0  0  0  0
 14 16  1  0  0  0  0
 14 15  1  0  0  0  0
 17 18  1  0  0  0  0
 17 14  1  0  0  0  0
 19 17  1  0  0  0  0
 20 21  1  6  0  0  0
 20 10  1  0  0  0  0
 20 17  1  0  0  0  0
 22 20  1  0  0  0  0
 23 34  1  6  0  0  0
 23 22  1  0  0  0  0
 23  7  1  0  0  0  0
 24 38  1  6  0  0  0
 24 23  1  0  0  0  0
 24 25  1  0  0  0  0
 25 26  1  1  0  0  0
 25 33  1  0  0  0  0
 26 29  1  0  0  0  0
 27 26  1  0  0  0  0
 28 26  1  0  0  0  0
 29 50  1  0  0  0  0
 29 30  1  0  0  0  0
 30 32  1  0  0  0  0
 30 31  1  0  0  0  0
 33 30  1  6  0  0  0
 33 10  1  0  0  0  0
 34 35  1  0  0  0  0
 36 34  1  0  0  0  0
 37 34  1  0  0  0  0
 39 38  1  0  0  0  0
 40 38  1  0  0  0  0
 41 38  1  0  0  0  0
 42 29  1  0  0  0  0
 42  3  2  0  0  0  0
 43 45  1  0  0  0  0
 43  4  1  0  0  0  0
 43 46  1  0  0  0  0
 44 43  1  0  0  0  0
 46 49  1  0  0  0  0
 47 46  1  0  0  0  0
 48 46  1  0  0  0  0
 50  6  1  0  0  0  0
 51 52  1  0  0  0  0
 51 54  1  0  0  0  0
 53 51  1  0  0  0  0
 54 56  1  0  0  0  0
 54 55  1  0  0  0  0
 57 54  1  0  0  0  0
M  END
