27,68
 OpenBabel05122313053D

 82 87  0  0  0  0  0  0  0  0999 V2000
    0.7914   -0.9387   -1.0511 O   0  0  0  0  0  0  0  0  0  0  0  0
    3.0459    2.1813    0.6458 N   0  0  0  0  0  0  0  0  0  0  0  0
    2.7165    1.2265   -1.2893 N   0  0  0  0  0  0  0  0  0  0  0  0
    2.0635   -0.5346    4.0599 C   0  0  0  0  0  0  0  0  0  0  0  0
    3.0788   -0.9811    4.0848 H   0  0  0  0  0  0  0  0  0  0  0  0
    1.3445   -1.3663    3.9163 H   0  0  0  0  0  0  0  0  0  0  0  0
    1.8738   -0.0891    5.0582 H   0  0  0  0  0  0  0  0  0  0  0  0
    1.9428    0.5034    2.9452 C   0  0  0  0  0  0  0  0  0  0  0  0
    2.0775    0.0074    1.9602 H   0  0  0  0  0  0  0  0  0  0  0  0
    0.9102    0.9172    2.9213 H   0  0  0  0  0  0  0  0  0  0  0  0
    2.9287    1.6663    3.0815 C   0  0  0  0  0  0  0  0  0  0  0  0
    3.9694    1.2756    3.1008 H   0  0  0  0  0  0  0  0  0  0  0  0
    2.7804    2.1799    4.0558 H   0  0  0  0  0  0  0  0  0  0  0  0
    2.7986    2.7264    1.9800 C   0  0  0  0  0  0  0  0  0  0  0  0
    1.7751    3.1523    1.9599 H   0  0  0  0  0  0  0  0  0  0  0  0
    3.5060    3.5638    2.1471 H   0  0  0  0  0  0  0  0  0  0  0  0
    4.3107    1.8205    0.1720 C   0  0  0  0  0  0  0  0  0  0  0  0
    4.0979    1.1972   -1.0799 C   0  0  0  0  0  0  0  0  0  0  0  0
    5.1655    0.7097   -1.8489 C   0  0  0  0  0  0  0  0  0  0  0  0
    5.0089    0.2222   -2.8213 H   0  0  0  0  0  0  0  0  0  0  0  0
    6.4533    0.8721   -1.3202 C   0  0  0  0  0  0  0  0  0  0  0  0
    7.3179    0.5033   -1.8907 H   0  0  0  0  0  0  0  0  0  0  0  0
    6.6671    1.5005   -0.0716 C   0  0  0  0  0  0  0  0  0  0  0  0
    7.6944    1.6102    0.3049 H   0  0  0  0  0  0  0  0  0  0  0  0
    5.6014    1.9869    0.6974 C   0  0  0  0  0  0  0  0  0  0  0  0
    5.7748    2.4759    1.6658 H   0  0  0  0  0  0  0  0  0  0  0  0
    2.0715    1.8162   -0.2358 C   0  0  0  0  0  2  0  0  0  0  0  0
    2.0329    0.5859   -2.4023 C   0  0  0  0  0  0  0  0  0  0  0  0
    2.6688    0.6607   -3.3060 H   0  0  0  0  0  0  0  0  0  0  0  0
    1.1020    1.1528   -2.5974 H   0  0  0  0  0  0  0  0  0  0  0  0
    1.7031   -0.8789   -2.1342 C   0  0  0  0  0  0  0  0  0  0  0  0
    1.2581   -1.3238   -3.0542 H   0  0  0  0  0  0  0  0  0  0  0  0
    2.6312   -1.4472   -1.8946 H   0  0  0  0  0  0  0  0  0  0  0  0
    0.4349   -2.1747   -0.5794 C   0  0  0  0  0  0  0  0  0  0  0  0
    0.8428   -3.3780   -1.1348 C   0  0  0  0  0  0  0  0  0  0  0  0
    1.4922   -3.3951   -2.0202 H   0  0  0  0  0  0  0  0  0  0  0  0
    0.4345   -4.6293   -0.5814 C   0  0  0  0  0  0  0  0  0  0  0  0
    0.8452   -5.8734   -1.1384 C   0  0  0  0  0  0  0  0  0  0  0  0
    1.4975   -5.8705   -2.0255 H   0  0  0  0  0  0  0  0  0  0  0  0
    0.4327   -7.0734   -0.5749 C   0  0  0  0  0  0  0  0  0  0  0  0
    0.7574   -8.0279   -1.0150 H   0  0  0  0  0  0  0  0  0  0  0  0
   -0.7896   -0.9424    1.0491 O   0  0  0  0  0  0  0  0  0  0  0  0
   -3.0528    2.1751   -0.6424 N   0  0  0  0  0  0  0  0  0  0  0  0
   -2.7206    1.2171    1.2906 N   0  0  0  0  0  0  0  0  0  0  0  0
   -2.0630   -0.5284   -4.0646 C   0  0  0  0  0  0  0  0  0  0  0  0
   -3.0765   -0.9790   -4.0879 H   0  0  0  0  0  0  0  0  0  0  0  0
   -1.3401   -1.3574   -3.9246 H   0  0  0  0  0  0  0  0  0  0  0  0
   -1.8776   -0.0800   -5.0624 H   0  0  0  0  0  0  0  0  0  0  0  0
   -1.9437    0.5077   -2.9479 C   0  0  0  0  0  0  0  0  0  0  0  0
   -2.0741    0.0091   -1.9636 H   0  0  0  0  0  0  0  0  0  0  0  0
   -0.9128    0.9256   -2.9257 H   0  0  0  0  0  0  0  0  0  0  0  0
   -2.9346    1.6670   -3.0795 C   0  0  0  0  0  0  0  0  0  0  0  0
   -3.9737    1.2722   -3.0984 H   0  0  0  0  0  0  0  0  0  0  0  0
   -2.7896    2.1838   -4.0526 H   0  0  0  0  0  0  0  0  0  0  0  0
   -2.8072    2.7245   -1.9752 C   0  0  0  0  0  0  0  0  0  0  0  0
   -1.7850    3.1533   -1.9542 H   0  0  0  0  0  0  0  0  0  0  0  0
   -3.5172    3.5602   -2.1399 H   0  0  0  0  0  0  0  0  0  0  0  0
   -4.3165    1.8101   -0.1691 C   0  0  0  0  0  0  0  0  0  0  0  0
   -4.1019    1.1848    1.0814 C   0  0  0  0  0  0  0  0  0  0  0  0
   -5.1681    0.6929    1.8495 C   0  0  0  0  0  0  0  0  0  0  0  0
   -5.0101    0.2037    2.8209 H   0  0  0  0  0  0  0  0  0  0  0  0
   -6.4564    0.8530    1.3214 C   0  0  0  0  0  0  0  0  0  0  0  0
   -7.3200    0.4808    1.8913 H   0  0  0  0  0  0  0  0  0  0  0  0
   -6.6721    1.4835    0.0741 C   0  0  0  0  0  0  0  0  0  0  0  0
   -7.6997    1.5913   -0.3019 H   0  0  0  0  0  0  0  0  0  0  0  0
   -5.6077    1.9743   -0.6940 C   0  0  0  0  0  0  0  0  0  0  0  0
   -5.7825    2.4648   -1.6613 H   0  0  0  0  0  0  0  0  0  0  0  0
   -2.0773    1.8107    0.2383 C   0  0  0  0  0  2  0  0  0  0  0  0
   -2.0352    0.5767    2.4026 C   0  0  0  0  0  0  0  0  0  0  0  0
   -2.6714    0.6483    3.3064 H   0  0  0  0  0  0  0  0  0  0  0  0
   -1.1059    1.1459    2.5986 H   0  0  0  0  0  0  0  0  0  0  0  0
   -1.7012   -0.8868    2.1323 C   0  0  0  0  0  0  0  0  0  0  0  0
   -1.2547   -1.3316    3.0517 H   0  0  0  0  0  0  0  0  0  0  0  0
   -2.6276   -1.4575    1.8921 H   0  0  0  0  0  0  0  0  0  0  0  0
   -0.4284   -2.1767    0.5765 C   0  0  0  0  0  0  0  0  0  0  0  0
   -0.8317   -3.3819    1.1312 C   0  0  0  0  0  0  0  0  0  0  0  0
   -1.4812   -3.4020    2.0165 H   0  0  0  0  0  0  0  0  0  0  0  0
   -0.4186   -4.6313    0.5769 C   0  0  0  0  0  0  0  0  0  0  0  0
   -0.8247   -5.8773    1.1331 C   0  0  0  0  0  0  0  0  0  0  0  0
   -1.4769   -5.8774    2.0203 H   0  0  0  0  0  0  0  0  0  0  0  0
   -0.4075   -7.0753    0.5689 C   0  0  0  0  0  0  0  0  0  0  0  0
   -0.7285   -8.0314    1.0084 H   0  0  0  0  0  0  0  0  0  0  0  0
  1 34  1  0  0  0  0
  2 14  1  0  0  0  0
  3 18  1  0  0  0  0
  3 27  1  0  0  0  0
  4  5  1  0  0  0  0
  4  7  1  0  0  0  0
  6  4  1  0  0  0  0
  8 11  1  0  0  0  0
  8  4  1  0  0  0  0
  9  8  1  0  0  0  0
 10  8  1  0  0  0  0
 11 12  1  0  0  0  0
 11 13  1  0  0  0  0
 14 16  1  0  0  0  0
 14 11  1  0  0  0  0
 15 14  1  0  0  0  0
 17  2  1  0  0  0  0
 17 25  1  0  0  0  0
 18 17  2  0  0  0  0
 19 21  2  0  0  0  0
 19 18  1  0  0  0  0
 20 19  1  0  0  0  0
 21 23  1  0  0  0  0
 22 21  1  0  0  0  0
 23 24  1  0  0  0  0
 23 25  2  0  0  0  0
 25 26  1  0  0  0  0
 27  2  1  0  0  0  0
 28 31  1  0  0  0  0
 28  3  1  0  0  0  0
 29 28  1  0  0  0  0
 30 28  1  0  0  0  0
 31 33  1  0  0  0  0
 31  1  1  0  0  0  0
 32 31  1  0  0  0  0
 34 75  1  0  0  0  0
 35 37  1  0  0  0  0
 35 34  2  0  0  0  0
 36 35  1  0  0  0  0
 37 78  1  0  0  0  0
 38 37  2  0  0  0  0
 38 40  1  0  0  0  0
 39 38  1  0  0  0  0
 40 81  2  0  0  0  0
 41 40  1  0  0  0  0
 42 72  1  0  0  0  0
 43 58  1  0  0  0  0
 43 68  1  0  0  0  0
 44 69  1  0  0  0  0
 45 47  1  0  0  0  0
 45 49  1  0  0  0  0
 46 45  1  0  0  0  0
 48 45  1  0  0  0  0
 49 51  1  0  0  0  0
 49 50  1  0  0  0  0
 52 49  1  0  0  0  0
 52 55  1  0  0  0  0
 53 52  1  0  0  0  0
 54 52  1  0  0  0  0
 55 56  1  0  0  0  0
 55 43  1  0  0  0  0
 57 55  1  0  0  0  0
 58 59  1  0  0  0  0
 59 44  1  0  0  0  0
 59 60  2  0  0  0  0
 60 61  1  0  0  0  0
 62 60  1  0  0  0  0
 62 63  1  0  0  0  0
 64 62  2  0  0  0  0
 65 64  1  0  0  0  0
 66 58  2  0  0  0  0
 66 64  1  0  0  0  0
 67 66  1  0  0  0  0
 68 44  1  0  0  0  0
 69 71  1  0  0  0  0
 69 70  1  0  0  0  0
 72 69  1  0  0  0  0
 72 73  1  0  0  0  0
 74 72  1  0  0  0  0
 75 42  1  0  0  0  0
 75 76  2  0  0  0  0
 76 77  1  0  0  0  0
 78 76  1  0  0  0  0
 78 79  2  0  0  0  0
 79 80  1  0  0  0  0
 81 82  1  0  0  0  0
 81 79  1  0  0  0  0
M  END
