1,12
 OpenBabel05122313053D

 50 51  0  0  0  0  0  0  0  0999 V2000
    1.4540    0.7955    0.0791 C   0  0  0  0  0  3  0  0  0  0  0  0
    0.5776    1.6100   -0.8086 C   0  0  0  0  0  0  0  0  0  0  0  0
    0.9767    1.9917   -2.1195 C   0  0  0  0  0  0  0  0  0  0  0  0
    0.1901    2.8098   -2.9347 C   0  0  0  0  0  0  0  0  0  0  0  0
   -1.0391    3.2999   -2.4608 C   0  0  0  0  0  0  0  0  0  0  0  0
   -1.4606    2.9415   -1.1741 C   0  0  0  0  0  0  0  0  0  0  0  0
   -0.6937    2.0887   -0.3516 C   0  0  0  0  0  0  0  0  0  0  0  0
    3.2942    1.2599    0.1329 Si  0  0  0  0  0  0  0  0  0  0  0  0
    3.5189    3.1066   -0.2519 C   0  0  0  0  0  0  0  0  0  0  0  0
    4.4008    0.2650   -1.0517 C   0  0  0  0  0  0  0  0  0  0  0  0
    3.9765    1.0350    1.8945 C   0  0  0  0  0  0  0  0  0  0  0  0
   -1.7651   -0.6450    0.4889 C   0  0  0  0  0  3  0  0  0  0  0  0
   -1.6705    0.5242    1.4304 C   0  0  0  0  0  0  0  0  0  0  0  0
   -2.1455    0.4108    2.7660 C   0  0  0  0  0  0  0  0  0  0  0  0
   -2.1261    1.4770    3.6711 C   0  0  0  0  0  0  0  0  0  0  0  0
   -1.6362    2.7281    3.2645 C   0  0  0  0  0  0  0  0  0  0  0  0
   -1.1828    2.8805    1.9481 C   0  0  0  0  0  0  0  0  0  0  0  0
   -1.1838    1.8078    1.0297 C   0  0  0  0  0  0  0  0  0  0  0  0
   -3.2841   -0.4891   -0.6690 Si  0  0  0  0  0  0  0  0  0  0  0  0
   -4.5144    0.7142    0.1355 C   0  0  0  0  0  0  0  0  0  0  0  0
   -3.0976    0.0708   -2.4757 C   0  0  0  0  0  0  0  0  0  0  0  0
   -4.1232   -2.2017   -0.6895 C   0  0  0  0  0  0  0  0  0  0  0  0
    1.1096    0.9509    1.1274 H   0  0  0  0  0  0  0  0  0  0  0  0
    1.9497    1.6450   -2.4988 H   0  0  0  0  0  0  0  0  0  0  0  0
    0.5458    3.0815   -3.9406 H   0  0  0  0  0  0  0  0  0  0  0  0
   -1.6623    3.9544   -3.0879 H   0  0  0  0  0  0  0  0  0  0  0  0
   -2.4200    3.3168   -0.7859 H   0  0  0  0  0  0  0  0  0  0  0  0
   -2.1171   -1.5100    1.0971 H   0  0  0  0  0  0  0  0  0  0  0  0
   -2.5805   -0.5516    3.0826 H   0  0  0  0  0  0  0  0  0  0  0  0
   -2.5101    1.3338    4.6930 H   0  0  0  0  0  0  0  0  0  0  0  0
   -1.6146    3.5785    3.9624 H   0  0  0  0  0  0  0  0  0  0  0  0
   -0.8007    3.8551    1.6064 H   0  0  0  0  0  0  0  0  0  0  0  0
    3.2015    3.3778   -1.2774 H   0  0  0  0  0  0  0  0  0  0  0  0
    2.9164    3.7171    0.4523 H   0  0  0  0  0  0  0  0  0  0  0  0
    4.5837    3.3965   -0.1324 H   0  0  0  0  0  0  0  0  0  0  0  0
    4.2837   -0.8285   -0.9055 H   0  0  0  0  0  0  0  0  0  0  0  0
    4.1845    0.4892   -2.1166 H   0  0  0  0  0  0  0  0  0  0  0  0
    5.4667    0.5195   -0.8755 H   0  0  0  0  0  0  0  0  0  0  0  0
    3.3476    1.5764    2.6315 H   0  0  0  0  0  0  0  0  0  0  0  0
    4.0620   -0.0177    2.2254 H   0  0  0  0  0  0  0  0  0  0  0  0
    4.9930    1.4786    1.9414 H   0  0  0  0  0  0  0  0  0  0  0  0
   -4.7265    0.4280    1.1856 H   0  0  0  0  0  0  0  0  0  0  0  0
   -4.1123    1.7475    0.1548 H   0  0  0  0  0  0  0  0  0  0  0  0
   -5.4729    0.7274   -0.4239 H   0  0  0  0  0  0  0  0  0  0  0  0
   -2.4702    0.9772   -2.5750 H   0  0  0  0  0  0  0  0  0  0  0  0
   -2.6939   -0.7137   -3.1445 H   0  0  0  0  0  0  0  0  0  0  0  0
   -4.1127    0.3248   -2.8475 H   0  0  0  0  0  0  0  0  0  0  0  0
   -3.4509   -3.0125   -1.0388 H   0  0  0  0  0  0  0  0  0  0  0  0
   -4.4677   -2.4751    0.3297 H   0  0  0  0  0  0  0  0  0  0  0  0
   -5.0116   -2.1949   -1.3545 H   0  0  0  0  0  0  0  0  0  0  0  0
  1  8  1  0  0  0  0
  1 23  1  0  0  0  0
  2  7  1  0  0  0  0
  2  1  1  0  0  0  0
  3  2  2  0  0  0  0
  4  5  2  0  0  0  0
  4  3  1  0  0  0  0
  5  6  1  0  0  0  0
  6 27  1  0  0  0  0
  6  7  2  0  0  0  0
  7 18  1  0  0  0  0
  8 11  1  0  0  0  0
  9 35  1  0  0  0  0
  9  8  1  0  0  0  0
  9 34  1  0  0  0  0
 10 36  1  0  0  0  0
 10 38  1  0  0  0  0
 10  8  1  0  0  0  0
 11 41  1  0  0  0  0
 11 40  1  0  0  0  0
 11 39  1  0  0  0  0
 12 28  1  0  0  0  0
 12 13  1  0  0  0  0
 13 14  1  0  0  0  0
 14 29  1  0  0  0  0
 14 15  2  0  0  0  0
 15 30  1  0  0  0  0
 16 15  1  0  0  0  0
 16 31  1  0  0  0  0
 17 16  2  0  0  0  0
 18 13  2  0  0  0  0
 18 17  1  0  0  0  0
 19 20  1  0  0  0  0
 19 12  1  0  0  0  0
 20 43  1  0  0  0  0
 20 42  1  0  0  0  0
 21 19  1  0  0  0  0
 22 19  1  0  0  0  0
 22 49  1  0  0  0  0
 24  3  1  0  0  0  0
 25  4  1  0  0  0  0
 26  5  1  0  0  0  0
 32 17  1  0  0  0  0
 33  9  1  0  0  0  0
 37 10  1  0  0  0  0
 44 20  1  0  0  0  0
 45 21  1  0  0  0  0
 46 21  1  0  0  0  0
 47 21  1  0  0  0  0
 48 22  1  0  0  0  0
 50 22  1  0  0  0  0
M  END
