2,32
 OpenBabel05122313053D

 59 64  0  0  0  0  0  0  0  0999 V2000
    1.7835    0.1414    0.2024 P   0  0  0  0  0  4  0  0  0  0  0  0
   -1.2972    0.1560    0.8612 C   0  0  0  0  0  2  0  0  0  0  0  0
   -1.9091    1.3246   -1.0201 C   0  0  0  0  0  0  0  0  0  0  0  0
   -2.0763    1.8300   -2.3143 C   0  0  0  0  0  0  0  0  0  0  0  0
   -2.7920    3.0322   -2.4424 C   0  0  0  0  0  0  0  0  0  0  0  0
   -3.3215    3.6936   -1.3136 C   0  0  0  0  0  0  0  0  0  0  0  0
   -3.1581    3.1792   -0.0169 C   0  0  0  0  0  0  0  0  0  0  0  0
   -2.4416    1.9820    0.1153 C   0  0  0  0  0  0  0  0  0  0  0  0
   -2.4396    1.5081    2.6034 C   0  0  0  0  0  0  0  0  0  0  0  0
   -0.4373   -0.6705   -1.3213 C   0  0  0  0  0  0  0  0  0  0  0  0
   -1.1061   -1.4854   -2.2880 C   0  0  0  0  0  0  0  0  0  0  0  0
   -2.5286   -1.5615   -2.3636 C   0  0  0  0  0  0  0  0  0  0  0  0
   -3.1364   -2.3662   -3.3140 C   0  0  0  0  0  0  0  0  0  0  0  0
   -2.3546   -3.1236   -4.2280 C   0  0  0  0  0  0  0  0  0  0  0  0
   -0.9708   -3.0908   -4.1592 C   0  0  0  0  0  0  0  0  0  0  0  0
   -0.3094   -2.2883   -3.1841 C   0  0  0  0  0  0  0  0  0  0  0  0
    1.1076   -2.2761   -3.0515 C   0  0  0  0  0  0  0  0  0  0  0  0
    1.7267   -1.5236   -2.0673 C   0  0  0  0  0  0  0  0  0  0  0  0
    0.9586   -0.7065   -1.1904 C   0  0  0  0  0  0  0  0  0  0  0  0
    3.5653    0.2244   -0.2334 C   0  0  0  0  0  0  0  0  0  0  0  0
    4.4035   -0.8241    0.2021 C   0  0  0  0  0  0  0  0  0  0  0  0
    5.7684   -0.8121   -0.1207 C   0  0  0  0  0  0  0  0  0  0  0  0
    6.3057    0.2461   -0.8703 C   0  0  0  0  0  0  0  0  0  0  0  0
    5.4764    1.2966   -1.2954 C   0  0  0  0  0  0  0  0  0  0  0  0
    4.1102    1.2895   -0.9794 C   0  0  0  0  0  0  0  0  0  0  0  0
    1.1945    1.8618    0.2838 C   0  0  0  0  0  0  0  0  0  0  0  0
    1.0020    2.4654    1.5423 C   0  0  0  0  0  0  0  0  0  0  0  0
    0.5710    3.7976    1.6145 C   0  0  0  0  0  0  0  0  0  0  0  0
    0.3277    4.5280    0.4394 C   0  0  0  0  0  0  0  0  0  0  0  0
    0.5131    3.9258   -0.8140 C   0  0  0  0  0  0  0  0  0  0  0  0
    0.9441    2.5937   -0.8949 C   0  0  0  0  0  0  0  0  0  0  0  0
    1.4653   -0.7590    1.6950 C   0  0  0  0  0  3  0  0  0  0  0  0
   -2.0643    1.2310    1.2258 N   0  0  0  0  0  0  0  0  0  0  0  0
   -1.2168    0.2130   -0.5215 N   0  0  0  0  0  0  0  0  0  0  0  0
   -1.6618    1.3071   -3.1872 H   0  0  0  0  0  0  0  0  0  0  0  0
   -2.9451    3.4628   -3.4429 H   0  0  0  0  0  0  0  0  0  0  0  0
   -3.8779    4.6326   -1.4511 H   0  0  0  0  0  0  0  0  0  0  0  0
   -3.5657    3.7018    0.8593 H   0  0  0  0  0  0  0  0  0  0  0  0
   -1.6164    2.0254    3.1367 H   0  0  0  0  0  0  0  0  0  0  0  0
   -2.6632    0.5348    3.0876 H   0  0  0  0  0  0  0  0  0  0  0  0
   -3.3436    2.1442    2.6110 H   0  0  0  0  0  0  0  0  0  0  0  0
   -3.1349   -1.0052   -1.6359 H   0  0  0  0  0  0  0  0  0  0  0  0
   -4.2339   -2.4317   -3.3505 H   0  0  0  0  0  0  0  0  0  0  0  0
   -2.8536   -3.7543   -4.9790 H   0  0  0  0  0  0  0  0  0  0  0  0
   -0.3602   -3.6963   -4.8462 H   0  0  0  0  0  0  0  0  0  0  0  0
    1.7114   -2.8921   -3.7350 H   0  0  0  0  0  0  0  0  0  0  0  0
    2.8206   -1.5463   -1.9628 H   0  0  0  0  0  0  0  0  0  0  0  0
    3.9882   -1.6477    0.8021 H   0  0  0  0  0  0  0  0  0  0  0  0
    6.4155   -1.6328    0.2232 H   0  0  0  0  0  0  0  0  0  0  0  0
    7.3778    0.2565   -1.1181 H   0  0  0  0  0  0  0  0  0  0  0  0
    5.8969    2.1331   -1.8736 H   0  0  0  0  0  0  0  0  0  0  0  0
    3.4712    2.1236   -1.3035 H   0  0  0  0  0  0  0  0  0  0  0  0
    1.1577    1.8836    2.4625 H   0  0  0  0  0  0  0  0  0  0  0  0
    0.4145    4.2649    2.5983 H   0  0  0  0  0  0  0  0  0  0  0  0
   -0.0218    5.5693    0.5016 H   0  0  0  0  0  0  0  0  0  0  0  0
    0.2970    4.4852   -1.7358 H   0  0  0  0  0  0  0  0  0  0  0  0
    1.0563    2.1126   -1.8787 H   0  0  0  0  0  0  0  0  0  0  0  0
    1.9102   -0.2193    2.5569 H   0  0  0  0  0  0  0  0  0  0  0  0
    1.9413   -1.7585    1.6182 H   0  0  0  0  0  0  0  0  0  0  0  0
  1 26  1  0  0  0  0
  1 32  1  0  0  0  0
  2 33  1  0  0  0  0
  3 34  1  0  0  0  0
  3  8  1  0  0  0  0
  4  3  2  0  0  0  0
  5  4  1  0  0  0  0
  5  6  2  0  0  0  0
  6  7  1  0  0  0  0
  7  8  2  0  0  0  0
  7 38  1  0  0  0  0
  8 33  1  0  0  0  0
  9 41  1  0  0  0  0
  9 40  1  0  0  0  0
  9 39  1  0  0  0  0
 10 19  1  0  0  0  0
 10 34  1  0  0  0  0
 11 10  2  0  0  0  0
 12 11  1  0  0  0  0
 12 42  1  0  0  0  0
 13 12  2  0  0  0  0
 14 15  2  0  0  0  0
 14 13  1  0  0  0  0
 15 16  1  0  0  0  0
 16 17  2  0  0  0  0
 16 11  1  0  0  0  0
 17 18  1  0  0  0  0
 18 47  1  0  0  0  0
 18 19  2  0  0  0  0
 19  1  1  0  0  0  0
 20 21  1  0  0  0  0
 20  1  1  0  0  0  0
 21 48  1  0  0  0  0
 22 21  2  0  0  0  0
 22 49  1  0  0  0  0
 23 22  1  0  0  0  0
 24 25  1  0  0  0  0
 24 23  2  0  0  0  0
 25 20  2  0  0  0  0
 26 27  1  0  0  0  0
 27 28  2  0  0  0  0
 27 53  1  0  0  0  0
 28 54  1  0  0  0  0
 29 55  1  0  0  0  0
 29 28  1  0  0  0  0
 30 29  2  0  0  0  0
 31 30  1  0  0  0  0
 31 26  2  0  0  0  0
 32 58  1  0  0  0  0
 33  9  1  0  0  0  0
 34  2  1  0  0  0  0
 35  4  1  0  0  0  0
 36  5  1  0  0  0  0
 37  6  1  0  0  0  0
 43 13  1  0  0  0  0
 44 14  1  0  0  0  0
 45 15  1  0  0  0  0
 46 17  1  0  0  0  0
 50 23  1  0  0  0  0
 51 24  1  0  0  0  0
 52 25  1  0  0  0  0
 56 30  1  0  0  0  0
 57 31  1  0  0  0  0
 59 32  1  0  0  0  0
M  END
