8,14
 OpenBabel05122313053D

 23 24  0  0  0  0  0  0  0  0999 V2000
    0.8044    2.6700   -0.9375 N   0  0  0  0  0  0  0  0  0  0  0  0
    2.3712    1.1476   -0.9069 N   0  0  0  0  0  0  0  0  0  0  0  0
    3.1093   -0.0010   -0.9979 C   0  0  0  0  0  2  0  0  0  0  0  0
   -0.4592    3.3991   -0.9525 C   0  0  0  0  0  0  0  0  0  0  0  0
   -1.2823    2.6960   -1.1715 H   0  0  0  0  0  0  0  0  0  0  0  0
   -0.4131    4.1581   -1.7550 H   0  0  0  0  0  0  0  0  0  0  0  0
   -0.6247    3.9056    0.0180 H   0  0  0  0  0  0  0  0  0  0  0  0
    0.9942    1.3568   -0.6796 C   0  0  0  0  0  2  0  0  0  0  0  0
    2.0189    3.3082   -1.2543 C   0  0  0  0  0  0  0  0  0  0  0  0
    2.0549    4.3768   -1.4853 H   0  0  0  0  0  0  0  0  0  0  0  0
    2.9950    2.3702   -1.2256 C   0  0  0  0  0  0  0  0  0  0  0  0
    4.0681    2.4012   -1.4305 H   0  0  0  0  0  0  0  0  0  0  0  0
    2.3709   -1.1494   -0.9056 N   0  0  0  0  0  0  0  0  0  0  0  0
    0.9937   -1.3579   -0.6781 C   0  0  0  0  0  2  0  0  0  0  0  0
    0.8036   -2.6713   -0.9347 N   0  0  0  0  0  0  0  0  0  0  0  0
   -0.4603   -3.4000   -0.9490 C   0  0  0  0  0  0  0  0  0  0  0  0
   -1.2831   -2.6968   -1.1687 H   0  0  0  0  0  0  0  0  0  0  0  0
   -0.4144   -4.1598   -1.7507 H   0  0  0  0  0  0  0  0  0  0  0  0
   -0.6260   -3.9054    0.0219 H   0  0  0  0  0  0  0  0  0  0  0  0
    2.0178   -3.3101   -1.2508 C   0  0  0  0  0  0  0  0  0  0  0  0
    2.0535   -4.3790   -1.4807 H   0  0  0  0  0  0  0  0  0  0  0  0
    2.9942   -2.3724   -1.2231 C   0  0  0  0  0  0  0  0  0  0  0  0
    4.0673   -2.4041   -1.4279 H   0  0  0  0  0  0  0  0  0  0  0  0
  1  8  1  0  0  0  0
  2  8  1  0  0  0  0
  3  2  1  0  0  0  0
  3 13  1  0  0  0  0
  4  1  1  0  0  0  0
  4  7  1  0  0  0  0
  5  4  1  0  0  0  0
  6  4  1  0  0  0  0
  9 11  2  0  0  0  0
  9  1  1  0  0  0  0
 10  9  1  0  0  0  0
 11  2  1  0  0  0  0
 12 11  1  0  0  0  0
 13 14  1  0  0  0  0
 15 14  1  0  0  0  0
 16 15  1  0  0  0  0
 16 19  1  0  0  0  0
 17 16  1  0  0  0  0
 18 16  1  0  0  0  0
 20 22  2  0  0  0  0
 20 15  1  0  0  0  0
 21 20  1  0  0  0  0
 22 13  1  0  0  0  0
 23 22  1  0  0  0  0
M  END
