2,4
 OpenBabel05122313053D

 43 43  0  0  1  0  0  0  0  0999 V2000
    0.0004   -0.6030   -1.8508 P   0  0  0  0  0  2  0  0  0  0  0  0
   -1.1067    0.2884   -0.6817 C   0  0  1  0  0  3  0  0  0  0  0  0
   -0.0003    0.9751   -0.0028 C   0  0  1  0  0  3  0  0  0  0  0  0
    1.1067    0.2892   -0.6816 C   0  0  2  0  0  3  0  0  0  0  0  0
   -2.6267    0.4205   -0.8492 C   0  0  0  0  0  0  0  0  0  0  0  0
   -3.0786   -0.5944   -1.9251 C   0  0  0  0  0  0  0  0  0  0  0  0
   -2.6198   -0.3724   -2.9099 H   0  0  0  0  0  0  0  0  0  0  0  0
   -4.1794   -0.5489   -2.0472 H   0  0  0  0  0  0  0  0  0  0  0  0
   -2.8174   -1.6346   -1.6495 H   0  0  0  0  0  0  0  0  0  0  0  0
   -3.4494    0.1360    0.4268 C   0  0  0  0  0  0  0  0  0  0  0  0
   -4.5190    0.3606    0.2357 H   0  0  0  0  0  0  0  0  0  0  0  0
   -3.1270    0.7392    1.2912 H   0  0  0  0  0  0  0  0  0  0  0  0
   -3.3802   -0.9286    0.7155 H   0  0  0  0  0  0  0  0  0  0  0  0
   -2.9664    1.8296   -1.3920 C   0  0  0  0  0  0  0  0  0  0  0  0
   -2.3467    2.0743   -2.2783 H   0  0  0  0  0  0  0  0  0  0  0  0
   -2.8144    2.6220   -0.6354 H   0  0  0  0  0  0  0  0  0  0  0  0
   -4.0313    1.8656   -1.6996 H   0  0  0  0  0  0  0  0  0  0  0  0
   -0.0011    2.2346    0.8822 C   0  0  0  0  0  0  0  0  0  0  0  0
   -1.2385    2.3461    1.7920 C   0  0  0  0  0  0  0  0  0  0  0  0
   -2.1759    2.4328    1.2169 H   0  0  0  0  0  0  0  0  0  0  0  0
   -1.1503    3.2630    2.4086 H   0  0  0  0  0  0  0  0  0  0  0  0
   -1.3256    1.4861    2.4823 H   0  0  0  0  0  0  0  0  0  0  0  0
   -0.0013    3.4472   -0.0869 C   0  0  0  0  0  0  0  0  0  0  0  0
   -0.0024    4.3900    0.4975 H   0  0  0  0  0  0  0  0  0  0  0  0
   -0.8936    3.4476   -0.7390 H   0  0  0  0  0  0  0  0  0  0  0  0
    0.8919    3.4489   -0.7377 H   0  0  0  0  0  0  0  0  0  0  0  0
    1.2351    2.3475    1.7933 C   0  0  0  0  0  0  0  0  0  0  0  0
    1.1454    3.2647    2.4093 H   0  0  0  0  0  0  0  0  0  0  0  0
    2.1731    2.4347    1.2194 H   0  0  0  0  0  0  0  0  0  0  0  0
    1.3221    1.4881    2.4843 H   0  0  0  0  0  0  0  0  0  0  0  0
    2.6267    0.4222   -0.8486 C   0  0  0  0  0  0  0  0  0  0  0  0
    3.0793   -0.5926   -1.9244 C   0  0  0  0  0  0  0  0  0  0  0  0
    2.6208   -0.3706   -2.9093 H   0  0  0  0  0  0  0  0  0  0  0  0
    2.8184   -1.6328   -1.6490 H   0  0  0  0  0  0  0  0  0  0  0  0
    4.1802   -0.5467   -2.0460 H   0  0  0  0  0  0  0  0  0  0  0  0
    2.9662    1.8312   -1.3915 C   0  0  0  0  0  0  0  0  0  0  0  0
    2.8141    2.6238   -0.6351 H   0  0  0  0  0  0  0  0  0  0  0  0
    2.3466    2.0757   -2.2779 H   0  0  0  0  0  0  0  0  0  0  0  0
    4.0312    1.8674   -1.6990 H   0  0  0  0  0  0  0  0  0  0  0  0
    3.4489    0.1378    0.4277 C   0  0  0  0  0  0  0  0  0  0  0  0
    3.3798   -0.9270    0.7161 H   0  0  0  0  0  0  0  0  0  0  0  0
    3.1258    0.7406    1.2921 H   0  0  0  0  0  0  0  0  0  0  0  0
    4.5186    0.3628    0.2372 H   0  0  0  0  0  0  0  0  0  0  0  0
  1  2  1  0  0  0  0
  1  4  1  0  0  0  0
  2  5  1  6  0  0  0
  2  3  1  0  0  0  0
  3 18  1  6  0  0  0
  4 31  1  6  0  0  0
  4  3  1  0  0  0  0
  5 10  1  0  0  0  0
  6  9  1  0  0  0  0
  6  5  1  0  0  0  0
  7  6  1  0  0  0  0
  8  6  1  0  0  0  0
 10 13  1  0  0  0  0
 10 12  1  0  0  0  0
 11 10  1  0  0  0  0
 14  5  1  0  0  0  0
 14 16  1  0  0  0  0
 15 14  1  0  0  0  0
 17 14  1  0  0  0  0
 18 19  1  0  0  0  0
 18 27  1  0  0  0  0
 19 21  1  0  0  0  0
 19 22  1  0  0  0  0
 20 19  1  0  0  0  0
 23 24  1  0  0  0  0
 23 18  1  0  0  0  0
 25 23  1  0  0  0  0
 26 23  1  0  0  0  0
 27 28  1  0  0  0  0
 27 30  1  0  0  0  0
 29 27  1  0  0  0  0
 31 40  1  0  0  0  0
 32 34  1  0  0  0  0
 32 31  1  0  0  0  0
 33 32  1  0  0  0  0
 35 32  1  0  0  0  0
 36 31  1  0  0  0  0
 36 37  1  0  0  0  0
 38 36  1  0  0  0  0
 39 36  1  0  0  0  0
 40 41  1  0  0  0  0
 40 42  1  0  0  0  0
 43 40  1  0  0  0  0
M  END
