10,14
 OpenBabel05122313053D

 58 62  0  0  1  0  0  0  0  0999 V2000
    0.5225    0.3199    0.5373 C   0  0  0  0  0  0  0  0  0  0  0  0
    1.0921   -0.3232   -0.8271 C   0  0  0  0  0  0  0  0  0  0  0  0
    1.4507   -0.0008    1.7287 C   0  0  0  0  0  0  0  0  0  0  0  0
    2.7588    0.5353    1.7727 C   0  0  0  0  0  0  0  0  0  0  0  0
    3.6451    0.2083    2.8082 C   0  0  0  0  0  0  0  0  0  0  0  0
    3.2444   -0.6524    3.8419 C   0  0  0  0  0  0  0  0  0  0  0  0
    1.9407   -1.1672    3.8317 C   0  0  0  0  0  0  0  0  0  0  0  0
    1.0563   -0.8418    2.7909 C   0  0  0  0  0  0  0  0  0  0  0  0
   -0.8979   -0.2101    0.8865 C   0  0  1  0  0  3  0  0  0  0  0  0
   -1.3490   -1.5473    0.6145 C   0  0  0  0  0  3  0  0  0  0  0  0
   -2.5795   -2.0417    1.1151 C   0  0  0  0  0  3  0  0  0  0  0  0
   -3.4349   -1.1899    1.8740 C   0  0  0  0  0  0  0  0  0  0  0  0
   -3.0286    0.1370    2.1474 C   0  0  0  0  0  0  0  0  0  0  0  0
   -1.7846    0.6174    1.6382 C   0  0  0  0  0  3  0  0  0  0  0  0
    0.3780    1.8531    0.3371 C   0  0  0  0  0  0  0  0  0  0  0  0
   -0.3432    2.3433   -0.7731 C   0  0  0  0  0  0  0  0  0  0  0  0
   -0.5828    3.7121   -0.9469 C   0  0  0  0  0  0  0  0  0  0  0  0
   -0.1083    4.6373   -0.0048 C   0  0  0  0  0  0  0  0  0  0  0  0
    0.5907    4.1695    1.1154 C   0  0  0  0  0  0  0  0  0  0  0  0
    0.8232    2.7943    1.2869 C   0  0  0  0  0  0  0  0  0  0  0  0
    1.2351   -1.8429   -0.9002 C   0  0  0  0  0  0  0  0  0  0  0  0
    1.9017   -2.6342    0.0611 C   0  0  0  0  0  0  0  0  0  0  0  0
    2.0210   -4.0229   -0.1084 C   0  0  0  0  0  0  0  0  0  0  0  0
    1.4913   -4.6523   -1.2445 C   0  0  0  0  0  0  0  0  0  0  0  0
    0.8428   -3.8761   -2.2179 C   0  0  0  0  0  0  0  0  0  0  0  0
    0.7205   -2.4903   -2.0463 C   0  0  0  0  0  0  0  0  0  0  0  0
    2.3805    0.3226   -1.3596 C   0  0  0  0  0  0  0  0  0  0  0  0
    2.3116    1.4231   -2.2401 C   0  0  0  0  0  0  0  0  0  0  0  0
    3.4714    2.0237   -2.7514 C   0  0  0  0  0  0  0  0  0  0  0  0
    4.7363    1.5274   -2.4043 C   0  0  0  0  0  0  0  0  0  0  0  0
    4.8237    0.4117   -1.5580 C   0  0  0  0  0  0  0  0  0  0  0  0
    3.6609   -0.1864   -1.0518 C   0  0  0  0  0  0  0  0  0  0  0  0
    0.3137   -0.0722   -1.5708 H   0  0  0  0  0  0  0  0  0  0  0  0
    3.0896    1.2264    0.9883 H   0  0  0  0  0  0  0  0  0  0  0  0
    4.6588    0.6374    2.8053 H   0  0  0  0  0  0  0  0  0  0  0  0
    3.9399   -0.9096    4.6550 H   0  0  0  0  0  0  0  0  0  0  0  0
    1.6018   -1.8329    4.6399 H   0  0  0  0  0  0  0  0  0  0  0  0
    0.0468   -1.2718    2.8071 H   0  0  0  0  0  0  0  0  0  0  0  0
   -0.7373   -2.2131   -0.0015 H   0  0  0  0  0  0  0  0  0  0  0  0
   -2.8955   -3.0619    0.8598 H   0  0  0  0  0  0  0  0  0  0  0  0
   -4.4151   -1.5510    2.2154 H   0  0  0  0  0  0  0  0  0  0  0  0
   -3.6921    0.8207    2.6937 H   0  0  0  0  0  0  0  0  0  0  0  0
   -1.5076    1.6637    1.8208 H   0  0  0  0  0  0  0  0  0  0  0  0
   -0.7567    1.6419   -1.5089 H   0  0  0  0  0  0  0  0  0  0  0  0
   -1.1611    4.0525   -1.8185 H   0  0  0  0  0  0  0  0  0  0  0  0
   -0.2955    5.7135   -0.1373 H   0  0  0  0  0  0  0  0  0  0  0  0
    0.9546    4.8764    1.8766 H   0  0  0  0  0  0  0  0  0  0  0  0
    1.3473    2.4558    2.1901 H   0  0  0  0  0  0  0  0  0  0  0  0
    2.3206   -2.1741    0.9643 H   0  0  0  0  0  0  0  0  0  0  0  0
    2.5376   -4.6167    0.6612 H   0  0  0  0  0  0  0  0  0  0  0  0
    1.5855   -5.7413   -1.3724 H   0  0  0  0  0  0  0  0  0  0  0  0
    0.4234   -4.3514   -3.1177 H   0  0  0  0  0  0  0  0  0  0  0  0
    0.1917   -1.8934   -2.8050 H   0  0  0  0  0  0  0  0  0  0  0  0
    1.3322    1.8192   -2.5380 H   0  0  0  0  0  0  0  0  0  0  0  0
    3.3806    2.8826   -3.4337 H   0  0  0  0  0  0  0  0  0  0  0  0
    5.6480    1.9955   -2.8055 H   0  0  0  0  0  0  0  0  0  0  0  0
    5.8068   -0.0075   -1.2942 H   0  0  0  0  0  0  0  0  0  0  0  0
    3.7560   -1.0718   -0.4100 H   0  0  0  0  0  0  0  0  0  0  0  0
  1  3  1  0  0  0  0
  2  1  1  0  0  0  0
  3  4  2  0  0  0  0
  3  8  1  0  0  0  0
  4  5  1  0  0  0  0
  5  6  2  0  0  0  0
  6 36  1  0  0  0  0
  7  6  1  0  0  0  0
  7 37  1  0  0  0  0
  8 38  1  0  0  0  0
  8  7  2  0  0  0  0
  9  1  1  1  0  0  0
  9 14  1  0  0  0  0
 10  9  1  0  0  0  0
 10 11  1  0  0  0  0
 11 12  1  0  0  0  0
 12 13  2  0  0  0  0
 12 41  1  0  0  0  0
 13 42  1  0  0  0  0
 14 43  1  0  0  0  0
 14 13  1  0  0  0  0
 15  1  1  0  0  0  0
 15 20  1  0  0  0  0
 16 15  2  0  0  0  0
 17 16  1  0  0  0  0
 17 18  2  0  0  0  0
 18 19  1  0  0  0  0
 19 20  2  0  0  0  0
 19 47  1  0  0  0  0
 20 48  1  0  0  0  0
 21  2  1  0  0  0  0
 21 22  1  0  0  0  0
 22 49  1  0  0  0  0
 23 22  2  0  0  0  0
 23 50  1  0  0  0  0
 24 23  1  0  0  0  0
 25 26  1  0  0  0  0
 25 24  2  0  0  0  0
 26 21  2  0  0  0  0
 27 32  1  0  0  0  0
 27  2  1  0  0  0  0
 28 27  2  0  0  0  0
 29 30  2  0  0  0  0
 29 28  1  0  0  0  0
 30 31  1  0  0  0  0
 31 57  1  0  0  0  0
 31 32  2  0  0  0  0
 32 58  1  0  0  0  0
 33  2  1  0  0  0  0
 34  4  1  0  0  0  0
 35  5  1  0  0  0  0
 39 10  1  0  0  0  0
 40 11  1  0  0  0  0
 44 16  1  0  0  0  0
 45 17  1  0  0  0  0
 46 18  1  0  0  0  0
 51 24  1  0  0  0  0
 52 25  1  0  0  0  0
 53 26  1  0  0  0  0
 54 28  1  0  0  0  0
 55 29  1  0  0  0  0
 56 30  1  0  0  0  0
M  END
