17
 OpenBabel05122313053D

 39 42  0  0  1  0  0  0  0  0999 V2000
    0.0012   -0.5116    1.6389 C   0  0  0  0  0  3  0  0  0  0  0  0
    1.1694    0.3471    1.4686 C   0  0  0  0  0  0  0  0  0  0  0  0
    0.7228    1.6930    1.1398 C   0  0  0  0  0  0  0  0  0  0  0  0
   -0.7194    1.6936    1.1407 C   0  0  0  0  0  0  0  0  0  0  0  0
   -1.1666    0.3480    1.4703 C   0  0  0  0  0  0  0  0  0  0  0  0
   -2.5798    0.1256    1.5254 C   0  0  0  0  0  0  0  0  0  0  0  0
   -3.4572    1.1745    1.2792 C   0  0  0  0  0  0  0  0  0  0  0  0
   -2.9986    2.4800    0.9600 C   0  0  0  0  0  0  0  0  0  0  0  0
   -1.6373    2.7428    0.8973 C   0  0  0  0  0  0  0  0  0  0  0  0
    2.5826    0.1236    1.5218 C   0  0  0  0  0  0  0  0  0  0  0  0
    3.4604    1.1718    1.2745 C   0  0  0  0  0  0  0  0  0  0  0  0
    3.0024    2.4776    0.9561 C   0  0  0  0  0  0  0  0  0  0  0  0
    1.6412    2.7416    0.8952 C   0  0  0  0  0  0  0  0  0  0  0  0
    0.0006   -2.0605    1.6917 C   0  0  0  0  0  0  0  0  0  0  0  0
    1.2341   -2.6566    2.3945 C   0  0  0  0  0  0  0  0  0  0  0  0
   -1.2326   -2.6555    2.3959 C   0  0  0  0  0  0  0  0  0  0  0  0
   -0.0004   -2.3580    0.1864 C   0  0  2  0  0  3  0  0  0  0  0  0
    1.1485   -2.2746   -0.6685 C   0  0  0  0  0  3  0  0  0  0  0  0
    0.7061   -2.1804   -2.0261 C   0  0  0  0  0  0  0  0  0  0  0  0
   -0.7094   -2.1802   -2.0253 C   0  0  0  0  0  0  0  0  0  0  0  0
   -1.1502   -2.2744   -0.6672 C   0  0  0  0  0  3  0  0  0  0  0  0
   -2.9894   -0.8544    1.7890 H   0  0  0  0  0  0  0  0  0  0  0  0
   -4.5397    0.9848    1.3344 H   0  0  0  0  0  0  0  0  0  0  0  0
   -3.7264    3.2810    0.7657 H   0  0  0  0  0  0  0  0  0  0  0  0
   -1.2656    3.7482    0.6507 H   0  0  0  0  0  0  0  0  0  0  0  0
    2.9917   -0.8568    1.7849 H   0  0  0  0  0  0  0  0  0  0  0  0
    4.5429    0.9813    1.3283 H   0  0  0  0  0  0  0  0  0  0  0  0
    3.7305    3.2782    0.7609 H   0  0  0  0  0  0  0  0  0  0  0  0
    1.2700    3.7472    0.6493 H   0  0  0  0  0  0  0  0  0  0  0  0
    1.3504   -2.2267    3.4087 H   0  0  0  0  0  0  0  0  0  0  0  0
    1.1070   -3.7526    2.4925 H   0  0  0  0  0  0  0  0  0  0  0  0
    2.1751   -2.4967    1.8429 H   0  0  0  0  0  0  0  0  0  0  0  0
   -1.3474   -2.2256    3.4103 H   0  0  0  0  0  0  0  0  0  0  0  0
   -2.1741   -2.4949    1.8454 H   0  0  0  0  0  0  0  0  0  0  0  0
   -1.1063   -3.7517    2.4937 H   0  0  0  0  0  0  0  0  0  0  0  0
    2.1967   -2.2593   -0.3480 H   0  0  0  0  0  0  0  0  0  0  0  0
    1.3548   -2.0969   -2.9053 H   0  0  0  0  0  0  0  0  0  0  0  0
   -1.3590   -2.0967   -2.9038 H   0  0  0  0  0  0  0  0  0  0  0  0
   -2.1981   -2.2591   -0.3455 H   0  0  0  0  0  0  0  0  0  0  0  0
  1 14  1  0  0  0  0
  2 10  1  0  0  0  0
  2  1  1  0  0  0  0
  3  4  1  0  0  0  0
  3  2  2  0  0  0  0
  4  5  1  0  0  0  0
  5  6  2  0  0  0  0
  5  1  1  0  0  0  0
  6 22  1  0  0  0  0
  7 23  1  0  0  0  0
  7  6  1  0  0  0  0
  8  7  2  0  0  0  0
  9  8  1  0  0  0  0
  9  4  2  0  0  0  0
 10 26  1  0  0  0  0
 11 27  1  0  0  0  0
 11 10  2  0  0  0  0
 12 11  1  0  0  0  0
 13 12  2  0  0  0  0
 13  3  1  0  0  0  0
 14 15  1  0  0  0  0
 14 16  1  0  0  0  0
 15 31  1  0  0  0  0
 15 30  1  0  0  0  0
 16 35  1  0  0  0  0
 16 33  1  0  0  0  0
 17 14  1  1  0  0  0
 18 36  1  0  0  0  0
 18 17  1  0  0  0  0
 19 20  2  0  0  0  0
 19 18  1  0  0  0  0
 20 21  1  0  0  0  0
 21 39  1  0  0  0  0
 21 17  1  0  0  0  0
 24  8  1  0  0  0  0
 25  9  1  0  0  0  0
 28 12  1  0  0  0  0
 29 13  1  0  0  0  0
 32 15  1  0  0  0  0
 34 16  1  0  0  0  0
 37 19  1  0  0  0  0
 38 20  1  0  0  0  0
M  END
