5,9
 OpenBabel05122313053D

 25 25  0  0  1  0  0  0  0  0999 V2000
   -5.0927   -1.4761    1.2929 O   0  0  0  0  0  0  0  0  0  0  0  0
   -4.0084   -0.6269    0.8790 C   0  0  2  0  0  0  0  0  0  0  0  0
   -4.6478    0.7377    0.6182 C   0  0  0  0  0  0  0  0  0  0  0  0
   -3.6628    1.8454    0.2410 C   0  0  0  0  0  0  0  0  0  0  0  0
   -2.7190    1.6316   -0.9194 C   0  0  0  0  0  3  0  0  0  0  0  0
   -2.9015    0.8642   -2.1054 C   0  0  0  0  0  3  0  0  0  0  0  0
   -4.1223    0.0001   -2.4048 C   0  0  0  0  0  0  0  0  0  0  0  0
   -4.0983   -1.3268   -1.6120 C   0  0  0  0  0  0  0  0  0  0  0  0
   -3.2689   -1.2328   -0.3220 C   0  0  0  0  0  3  0  0  0  0  0  0
   -4.7003   -2.5886    2.0579 C   0  0  0  0  0  0  0  0  0  0  0  0
   -3.2813   -0.5332    1.7240 H   0  0  0  0  0  0  0  0  0  0  0  0
   -5.4362    0.6104   -0.1505 H   0  0  0  0  0  0  0  0  0  0  0  0
   -5.1834    1.0343    1.5433 H   0  0  0  0  0  0  0  0  0  0  0  0
   -4.2323    2.7811    0.0297 H   0  0  0  0  0  0  0  0  0  0  0  0
   -3.0339    2.0908    1.1225 H   0  0  0  0  0  0  0  0  0  0  0  0
   -1.9709    2.4409   -1.0027 H   0  0  0  0  0  0  0  0  0  0  0  0
   -2.3127    1.1925   -2.9805 H   0  0  0  0  0  0  0  0  0  0  0  0
   -4.1525   -0.2112   -3.4919 H   0  0  0  0  0  0  0  0  0  0  0  0
   -5.0416    0.5826   -2.1840 H   0  0  0  0  0  0  0  0  0  0  0  0
   -5.1273   -1.6761   -1.3715 H   0  0  0  0  0  0  0  0  0  0  0  0
   -3.6431   -2.1095   -2.2519 H   0  0  0  0  0  0  0  0  0  0  0  0
   -2.9572   -2.2575   -0.0266 H   0  0  0  0  0  0  0  0  0  0  0  0
   -5.6198   -3.1366    2.3451 H   0  0  0  0  0  0  0  0  0  0  0  0
   -4.1610   -2.2867    2.9900 H   0  0  0  0  0  0  0  0  0  0  0  0
   -4.0357   -3.2939    1.5038 H   0  0  0  0  0  0  0  0  0  0  0  0
  1 10  1  0  0  0  0
  2  1  1  0  0  0  0
  2 11  1  1  0  0  0
  3  2  1  0  0  0  0
  3 13  1  0  0  0  0
  4  3  1  0  0  0  0
  4 15  1  0  0  0  0
  5  4  1  0  0  0  0
  6  5  1  0  0  0  0
  7 19  1  0  0  0  0
  7  6  1  0  0  0  0
  7  8  1  0  0  0  0
  8 20  1  0  0  0  0
  8  9  1  0  0  0  0
  9 22  1  0  0  0  0
  9  2  1  0  0  0  0
 10 23  1  0  0  0  0
 10 24  1  0  0  0  0
 12  3  1  0  0  0  0
 14  4  1  0  0  0  0
 16  5  1  0  0  0  0
 17  6  1  0  0  0  0
 18  7  1  0  0  0  0
 21  8  1  0  0  0  0
 25 10  1  0  0  0  0
M  END
