18,20
 OpenBabel05122313053D

 48 50  0  0  1  0  0  0  0  0999 V2000
    0.9710   -2.3596    1.6089 S   0  0  0  0  0  0  0  0  0  0  0  0
   -1.8297    0.8944    0.1979 N   0  0  0  0  0  0  0  0  0  0  0  0
   -1.6767   -1.3060    0.9836 O   0  0  0  0  0  0  0  0  0  0  0  0
   -0.9045   -0.1247    0.7124 C   0  0  1  0  0  0  0  0  0  0  0  0
   -3.0653    0.1652   -0.1350 C   0  0  1  0  0  0  0  0  0  0  0  0
   -3.7948    0.4060   -1.4583 C   0  0  0  0  0  0  0  0  0  0  0  0
   -5.0121   -0.5432   -1.4882 C   0  0  0  0  0  0  0  0  0  0  0  0
   -4.6517   -2.0226   -1.2427 C   0  0  0  0  0  0  0  0  0  0  0  0
   -3.7881   -2.2447    0.0182 C   0  0  0  0  0  0  0  0  0  0  0  0
   -2.6122   -1.2976   -0.0882 C   0  0  2  0  0  0  0  0  0  0  0  0
   -1.9757    2.1144    1.0518 C   0  0  0  0  0  0  0  0  0  0  0  0
   -0.6197    2.8359    1.1122 C   0  0  0  0  0  0  0  0  0  0  0  0
   -2.4514    1.7795    2.4837 C   0  0  0  0  0  0  0  0  0  0  0  0
   -2.9902    3.0592    0.3871 C   0  0  0  0  0  0  0  0  0  0  0  0
    0.1968   -0.4934   -0.2898 C   0  0  0  0  0  0  0  0  0  0  0  0
    1.1402   -1.5376    0.0421 C   0  0  0  0  0  0  0  0  0  0  0  0
    2.1572   -1.8776   -0.8937 C   0  0  0  0  0  3  0  0  0  0  0  0
    2.2420   -1.2052   -2.1512 C   0  0  0  0  0  3  0  0  0  0  0  0
    1.3044   -0.2030   -2.4919 C   0  0  0  0  0  3  0  0  0  0  0  0
    0.2948    0.1513   -1.5475 C   0  0  0  0  0  3  0  0  0  0  0  0
    2.6970   -2.8294    1.9472 C   0  0  0  0  0  0  0  0  0  0  0  0
   -0.4272    0.1703    1.6679 H   0  0  0  0  0  0  0  0  0  0  0  0
   -3.8126    0.2967    0.6865 H   0  0  0  0  0  0  0  0  0  0  0  0
   -3.1067    0.1948   -2.3059 H   0  0  0  0  0  0  0  0  0  0  0  0
   -4.1261    1.4566   -1.5674 H   0  0  0  0  0  0  0  0  0  0  0  0
   -5.7306   -0.2131   -0.7049 H   0  0  0  0  0  0  0  0  0  0  0  0
   -5.5483   -0.4467   -2.4547 H   0  0  0  0  0  0  0  0  0  0  0  0
   -5.5780   -2.6298   -1.1808 H   0  0  0  0  0  0  0  0  0  0  0  0
   -4.0907   -2.4063   -2.1235 H   0  0  0  0  0  0  0  0  0  0  0  0
   -4.3639   -2.0249    0.9428 H   0  0  0  0  0  0  0  0  0  0  0  0
   -3.4460   -3.2979    0.0812 H   0  0  0  0  0  0  0  0  0  0  0  0
   -2.0727   -1.5263   -1.0432 H   0  0  0  0  0  0  0  0  0  0  0  0
    0.1643    2.2220    1.5946 H   0  0  0  0  0  0  0  0  0  0  0  0
   -0.7147    3.7676    1.7044 H   0  0  0  0  0  0  0  0  0  0  0  0
   -0.2677    3.1047    0.0980 H   0  0  0  0  0  0  0  0  0  0  0  0
   -1.7237    1.1365    3.0178 H   0  0  0  0  0  0  0  0  0  0  0  0
   -3.4287    1.2563    2.4800 H   0  0  0  0  0  0  0  0  0  0  0  0
   -2.5726    2.7074    3.0774 H   0  0  0  0  0  0  0  0  0  0  0  0
   -2.6986    3.2693   -0.6611 H   0  0  0  0  0  0  0  0  0  0  0  0
   -3.0218    4.0199    0.9377 H   0  0  0  0  0  0  0  0  0  0  0  0
   -4.0166    2.6427    0.3915 H   0  0  0  0  0  0  0  0  0  0  0  0
    2.9046   -2.6406   -0.6445 H   0  0  0  0  0  0  0  0  0  0  0  0
    3.0619   -1.4532   -2.8398 H   0  0  0  0  0  0  0  0  0  0  0  0
    1.3907    0.3408   -3.4421 H   0  0  0  0  0  0  0  0  0  0  0  0
   -0.4221    0.9629   -1.7379 H   0  0  0  0  0  0  0  0  0  0  0  0
    2.7180   -3.1295    3.0120 H   0  0  0  0  0  0  0  0  0  0  0  0
    3.3689   -1.9611    1.7981 H   0  0  0  0  0  0  0  0  0  0  0  0
    3.0327   -3.6882    1.3334 H   0  0  0  0  0  0  0  0  0  0  0  0
  1 21  1  0  0  0  0
  2  4  1  0  0  0  0
  2 11  1  0  0  0  0
  4  3  1  0  0  0  0
  4 22  1  1  0  0  0
  5 10  1  0  0  0  0
  5  2  1  0  0  0  0
  5 23  1  1  0  0  0
  6  5  1  0  0  0  0
  7  6  1  0  0  0  0
  7  8  1  0  0  0  0
  7 26  1  0  0  0  0
  8 28  1  0  0  0  0
  8  9  1  0  0  0  0
  9 31  1  0  0  0  0
  9 30  1  0  0  0  0
 10 32  1  6  0  0  0
 10  9  1  0  0  0  0
 10  3  1  0  0  0  0
 11 12  1  0  0  0  0
 11 13  1  0  0  0  0
 12 33  1  0  0  0  0
 12 34  1  0  0  0  0
 13 36  1  0  0  0  0
 13 38  1  0  0  0  0
 14 41  1  0  0  0  0
 14 40  1  0  0  0  0
 14 11  1  0  0  0  0
 15 16  2  0  0  0  0
 15  4  1  0  0  0  0
 16  1  1  0  0  0  0
 17 42  1  0  0  0  0
 17 16  1  0  0  0  0
 18 17  1  0  0  0  0
 19 18  1  0  0  0  0
 19 20  1  0  0  0  0
 20 15  1  0  0  0  0
 21 46  1  0  0  0  0
 24  6  1  0  0  0  0
 25  6  1  0  0  0  0
 27  7  1  0  0  0  0
 29  8  1  0  0  0  0
 35 12  1  0  0  0  0
 37 13  1  0  0  0  0
 39 14  1  0  0  0  0
 43 18  1  0  0  0  0
 44 19  1  0  0  0  0
 45 20  1  0  0  0  0
 47 21  1  0  0  0  0
 48 21  1  0  0  0  0
M  END
