2,18
 OpenBabel05122313053D

 54 57  0  0  0  0  0  0  0  0999 V2000
    1.2967    1.2412    0.9973 C   0  0  0  0  0  0  0  0  0  0  0  0
    0.2492    0.8183    1.9005 C   0  0  0  0  0  3  0  0  0  0  0  0
    0.6211   -0.4526    2.4272 C   0  0  0  0  0  0  0  0  0  0  0  0
    1.7938   -0.9047    1.7734 C   0  0  0  0  0  0  0  0  0  0  0  0
    2.2481    0.1486    0.8949 C   0  0  0  0  0  0  0  0  0  0  0  0
    3.3977    0.2443    0.0430 C   0  0  0  0  0  0  0  0  0  0  0  0
    3.5673    1.4487   -0.6354 C   0  0  0  0  0  0  0  0  0  0  0  0
    2.6714    2.5436   -0.4834 C   0  0  0  0  0  0  0  0  0  0  0  0
    1.5339    2.4787    0.3165 C   0  0  0  0  0  0  0  0  0  0  0  0
    0.6081    3.6545    0.4805 C   0  0  0  0  0  0  0  0  0  0  0  0
   -0.6079    3.6544   -0.4807 C   0  0  0  0  0  0  0  0  0  0  0  0
   -1.5337    2.4787   -0.3166 C   0  0  0  0  0  0  0  0  0  0  0  0
   -2.6712    2.5437    0.4834 C   0  0  0  0  0  0  0  0  0  0  0  0
   -3.5672    1.4489    0.6354 C   0  0  0  0  0  0  0  0  0  0  0  0
   -3.3977    0.2445   -0.0431 C   0  0  0  0  0  0  0  0  0  0  0  0
   -2.2482    0.1487   -0.8951 C   0  0  0  0  0  0  0  0  0  0  0  0
   -1.2966    1.2412   -0.9975 C   0  0  0  0  0  0  0  0  0  0  0  0
   -0.2491    0.8182   -1.9004 C   0  0  0  0  0  3  0  0  0  0  0  0
   -0.6211   -0.4528   -2.4271 C   0  0  0  0  0  0  0  0  0  0  0  0
   -1.7938   -0.9047   -1.7735 C   0  0  0  0  0  0  0  0  0  0  0  0
    4.4020   -0.8929   -0.0002 C   0  0  0  0  0  0  0  0  0  0  0  0
    5.1734   -0.9814   -1.3206 C   0  0  0  0  0  0  0  0  0  0  0  0
    5.3569   -0.8004    1.2066 C   0  0  0  0  0  0  0  0  0  0  0  0
   -4.4020   -0.8927    0.0002 C   0  0  0  0  0  0  0  0  0  0  0  0
   -5.3564   -0.8007   -1.2070 C   0  0  0  0  0  0  0  0  0  0  0  0
   -5.1739   -0.9808    1.3203 C   0  0  0  0  0  0  0  0  0  0  0  0
   -0.6280    1.4069    2.1951 H   0  0  0  0  0  0  0  0  0  0  0  0
    0.0366   -1.0323    3.1501 H   0  0  0  0  0  0  0  0  0  0  0  0
    2.2828   -1.8722    1.9297 H   0  0  0  0  0  0  0  0  0  0  0  0
    4.4420    1.5792   -1.2891 H   0  0  0  0  0  0  0  0  0  0  0  0
    2.8985    3.4872   -1.0056 H   0  0  0  0  0  0  0  0  0  0  0  0
    1.1791    4.5905    0.3105 H   0  0  0  0  0  0  0  0  0  0  0  0
    0.2331    3.6928    1.5249 H   0  0  0  0  0  0  0  0  0  0  0  0
   -1.1788    4.5905   -0.3108 H   0  0  0  0  0  0  0  0  0  0  0  0
   -0.2329    3.6926   -1.5251 H   0  0  0  0  0  0  0  0  0  0  0  0
   -2.8981    3.4874    1.0056 H   0  0  0  0  0  0  0  0  0  0  0  0
   -4.4418    1.5794    1.2892 H   0  0  0  0  0  0  0  0  0  0  0  0
    0.6283    1.4066   -2.1950 H   0  0  0  0  0  0  0  0  0  0  0  0
   -0.0365   -1.0325   -3.1499 H   0  0  0  0  0  0  0  0  0  0  0  0
   -2.2829   -1.8721   -1.9299 H   0  0  0  0  0  0  0  0  0  0  0  0
    3.8146   -1.8304    0.0969 H   0  0  0  0  0  0  0  0  0  0  0  0
    4.4809   -1.0417   -2.1835 H   0  0  0  0  0  0  0  0  0  0  0  0
    5.8129   -1.8867   -1.3309 H   0  0  0  0  0  0  0  0  0  0  0  0
    5.8433   -0.1092   -1.4710 H   0  0  0  0  0  0  0  0  0  0  0  0
    4.8016   -0.7674    2.1654 H   0  0  0  0  0  0  0  0  0  0  0  0
    5.9762    0.1185    1.1464 H   0  0  0  0  0  0  0  0  0  0  0  0
    6.0398   -1.6741    1.2348 H   0  0  0  0  0  0  0  0  0  0  0  0
   -3.8145   -1.8302   -0.0964 H   0  0  0  0  0  0  0  0  0  0  0  0
   -4.8008   -0.7681   -2.1656 H   0  0  0  0  0  0  0  0  0  0  0  0
   -5.9758    0.1181   -1.1474 H   0  0  0  0  0  0  0  0  0  0  0  0
   -6.0393   -1.6745   -1.2352 H   0  0  0  0  0  0  0  0  0  0  0  0
   -4.4817   -1.0406    2.1835 H   0  0  0  0  0  0  0  0  0  0  0  0
   -5.8133   -1.8861    1.3307 H   0  0  0  0  0  0  0  0  0  0  0  0
   -5.8440   -0.1085    1.4700 H   0  0  0  0  0  0  0  0  0  0  0  0
  1  2  1  0  0  0  0
  2 27  1  0  0  0  0
  2  3  1  0  0  0  0
  3 28  1  0  0  0  0
  4 29  1  0  0  0  0
  4  3  2  0  0  0  0
  5  1  1  0  0  0  0
  5  4  1  0  0  0  0
  6  5  2  0  0  0  0
  7  8  2  0  0  0  0
  7  6  1  0  0  0  0
  8  9  1  0  0  0  0
  9 10  1  0  0  0  0
  9  1  2  0  0  0  0
 10 33  1  0  0  0  0
 11 12  1  0  0  0  0
 11 34  1  0  0  0  0
 11 10  1  0  0  0  0
 12 13  1  0  0  0  0
 13 14  2  0  0  0  0
 13 36  1  0  0  0  0
 14 37  1  0  0  0  0
 15 24  1  0  0  0  0
 15 14  1  0  0  0  0
 16 15  2  0  0  0  0
 17 16  1  0  0  0  0
 17 12  2  0  0  0  0
 18 17  1  0  0  0  0
 19 18  1  0  0  0  0
 19 20  2  0  0  0  0
 20 16  1  0  0  0  0
 21  6  1  0  0  0  0
 21 41  1  0  0  0  0
 21 23  1  0  0  0  0
 22 21  1  0  0  0  0
 23 47  1  0  0  0  0
 23 45  1  0  0  0  0
 24 26  1  0  0  0  0
 25 50  1  0  0  0  0
 25 24  1  0  0  0  0
 26 53  1  0  0  0  0
 26 54  1  0  0  0  0
 26 52  1  0  0  0  0
 30  7  1  0  0  0  0
 31  8  1  0  0  0  0
 32 10  1  0  0  0  0
 35 11  1  0  0  0  0
 38 18  1  0  0  0  0
 39 19  1  0  0  0  0
 40 20  1  0  0  0  0
 42 22  1  0  0  0  0
 43 22  1  0  0  0  0
 44 22  1  0  0  0  0
 46 23  1  0  0  0  0
 48 24  1  0  0  0  0
 49 25  1  0  0  0  0
 51 25  1  0  0  0  0
M  END
