8,10
 OpenBabel05122313053D

 43 45  0  0  0  0  0  0  0  0999 V2000
   -2.5986    1.8387   -0.0079 Si  0  0  0  0  0  0  0  0  0  0  0  0
   -3.8557   -1.2647    0.0179 Si  0  0  0  0  0  0  0  0  0  0  0  0
   -1.1031   -0.5874    0.6553 C   0  0  0  0  0  0  0  0  0  0  0  0
   -1.1027   -0.5305   -0.7354 C   0  0  0  0  0  0  0  0  0  0  0  0
   -0.0372   -0.8297   -1.5250 C   0  0  0  0  0  0  0  0  0  0  0  0
    1.1501   -1.2581   -0.7956 C   0  0  0  0  0  0  0  0  0  0  0  0
    2.3784   -1.5509   -1.4925 C   0  0  0  0  0  3  0  0  0  0  0  0
    3.5404   -1.9679   -0.8085 C   0  0  0  0  0  3  0  0  0  0  0  0
    3.5341   -2.0439    0.6195 C   0  0  0  0  0  3  0  0  0  0  0  0
    2.3666   -1.6978    1.3332 C   0  0  0  0  0  3  0  0  0  0  0  0
    1.1448   -1.3310    0.6599 C   0  0  0  0  0  0  0  0  0  0  0  0
   -0.0446   -0.9665    1.4195 C   0  0  0  0  0  0  0  0  0  0  0  0
   -2.3447   -0.0754   -0.0203 C   0  0  0  0  0  0  0  0  0  0  0  0
   -0.9373    2.6390    0.3789 C   0  0  0  0  0  0  0  0  0  0  0  0
   -3.8876    2.3001    1.2976 C   0  0  0  0  0  0  0  0  0  0  0  0
   -3.1690    2.3538   -1.7345 C   0  0  0  0  0  0  0  0  0  0  0  0
   -3.2465   -2.9644   -0.5354 C   0  0  0  0  0  0  0  0  0  0  0  0
   -4.4737   -1.3477    1.8016 C   0  0  0  0  0  0  0  0  0  0  0  0
   -5.2202   -0.6513   -1.1384 C   0  0  0  0  0  0  0  0  0  0  0  0
   -0.0030   -0.7617   -2.6234 H   0  0  0  0  0  0  0  0  0  0  0  0
    2.3987   -1.4394   -2.5860 H   0  0  0  0  0  0  0  0  0  0  0  0
    4.4632   -2.1738   -1.3676 H   0  0  0  0  0  0  0  0  0  0  0  0
    4.4519   -2.3083    1.1621 H   0  0  0  0  0  0  0  0  0  0  0  0
    2.3776   -1.6998    2.4324 H   0  0  0  0  0  0  0  0  0  0  0  0
   -0.0161   -0.9983    2.5198 H   0  0  0  0  0  0  0  0  0  0  0  0
   -0.5249    2.3035    1.3515 H   0  0  0  0  0  0  0  0  0  0  0  0
   -0.1881    2.4011   -0.4033 H   0  0  0  0  0  0  0  0  0  0  0  0
   -1.0444    3.7427    0.4165 H   0  0  0  0  0  0  0  0  0  0  0  0
   -4.8869    1.8812    1.0630 H   0  0  0  0  0  0  0  0  0  0  0  0
   -3.5868    1.9372    2.3014 H   0  0  0  0  0  0  0  0  0  0  0  0
   -3.9904    3.4035    1.3546 H   0  0  0  0  0  0  0  0  0  0  0  0
   -2.4327    2.0235   -2.4955 H   0  0  0  0  0  0  0  0  0  0  0  0
   -4.1560    1.9267   -1.9992 H   0  0  0  0  0  0  0  0  0  0  0  0
   -3.2457    3.4590   -1.7983 H   0  0  0  0  0  0  0  0  0  0  0  0
   -2.8708   -2.9341   -1.5783 H   0  0  0  0  0  0  0  0  0  0  0  0
   -2.4167   -3.3154    0.1116 H   0  0  0  0  0  0  0  0  0  0  0  0
   -4.0630   -3.7135   -0.4839 H   0  0  0  0  0  0  0  0  0  0  0  0
   -3.6583   -1.6780    2.4772 H   0  0  0  0  0  0  0  0  0  0  0  0
   -4.8370   -0.3641    2.1589 H   0  0  0  0  0  0  0  0  0  0  0  0
   -5.3071   -2.0745    1.8929 H   0  0  0  0  0  0  0  0  0  0  0  0
   -5.6315    0.3251   -0.8123 H   0  0  0  0  0  0  0  0  0  0  0  0
   -4.8470   -0.5390   -2.1765 H   0  0  0  0  0  0  0  0  0  0  0  0
   -6.0570   -1.3798   -1.1559 H   0  0  0  0  0  0  0  0  0  0  0  0
  1 14  1  0  0  0  0
  1 15  1  0  0  0  0
  2 18  1  0  0  0  0
  3 12  1  0  0  0  0
  4 13  1  0  0  0  0
  4  3  2  0  0  0  0
  5  6  2  0  0  0  0
  5  4  1  0  0  0  0
  6 11  1  0  0  0  0
  7  8  1  0  0  0  0
  7  6  1  0  0  0  0
  8  9  1  0  0  0  0
  9 23  1  0  0  0  0
  9 10  1  0  0  0  0
 10 24  1  0  0  0  0
 11 10  1  0  0  0  0
 11 12  2  0  0  0  0
 12 25  1  0  0  0  0
 13  1  1  0  0  0  0
 13  2  1  0  0  0  0
 13  3  1  0  0  0  0
 14 28  1  0  0  0  0
 14 26  1  0  0  0  0
 15 31  1  0  0  0  0
 15 30  1  0  0  0  0
 16  1  1  0  0  0  0
 17 37  1  0  0  0  0
 17  2  1  0  0  0  0
 17 36  1  0  0  0  0
 18 40  1  0  0  0  0
 18 39  1  0  0  0  0
 18 38  1  0  0  0  0
 19 41  1  0  0  0  0
 19  2  1  0  0  0  0
 20  5  1  0  0  0  0
 21  7  1  0  0  0  0
 22  8  1  0  0  0  0
 27 14  1  0  0  0  0
 29 15  1  0  0  0  0
 32 16  1  0  0  0  0
 33 16  1  0  0  0  0
 34 16  1  0  0  0  0
 35 17  1  0  0  0  0
 42 19  1  0  0  0  0
 43 19  1  0  0  0  0
M  END
