2,5
 OpenBabel05122313053D

 37 38  0  0  1  0  0  0  0  0999 V2000
   -0.7113   -0.6973   -0.4409 C   0  0  1  0  0  3  0  0  0  0  0  0
    0.4005   -1.4198   -0.9882 C   0  0  0  0  0  3  0  0  0  0  0  0
    0.4836   -2.4918   -0.7779 H   0  0  0  0  0  0  0  0  0  0  0  0
    1.4460   -0.8405   -1.7616 C   0  0  1  0  0  3  0  0  0  0  0  0
    1.3799    0.5646   -1.9704 C   0  0  0  0  0  3  0  0  0  0  0  0
    2.1897    1.0761   -2.5111 H   0  0  0  0  0  0  0  0  0  0  0  0
    0.2923    1.3197   -1.4689 C   0  0  0  0  0  0  0  0  0  0  0  0
    0.2964    2.4036   -1.6252 H   0  0  0  0  0  0  0  0  0  0  0  0
   -0.7442    0.7297   -0.6763 C   0  0  0  0  0  0  0  0  0  0  0  0
   -1.8735    1.6321   -0.1777 C   0  0  2  0  0  0  0  0  0  0  0  0
   -1.9967    1.4422    0.9063 H   0  0  0  0  0  0  0  0  0  0  0  0
   -3.2068    1.2592   -0.8646 C   0  0  0  0  0  0  0  0  0  0  0  0
   -3.0312    1.1129   -1.9538 H   0  0  0  0  0  0  0  0  0  0  0  0
   -3.8910    2.1296   -0.7796 H   0  0  0  0  0  0  0  0  0  0  0  0
   -3.9069    0.0378   -0.2673 C   0  0  0  0  0  0  0  0  0  0  0  0
   -4.8988   -0.0752   -0.7547 H   0  0  0  0  0  0  0  0  0  0  0  0
   -4.1260    0.2389    0.8043 H   0  0  0  0  0  0  0  0  0  0  0  0
   -3.1719   -1.2979   -0.3961 C   0  0  0  0  0  0  0  0  0  0  0  0
   -3.8471   -2.0907   -0.0084 H   0  0  0  0  0  0  0  0  0  0  0  0
   -3.0163   -1.5325   -1.4725 H   0  0  0  0  0  0  0  0  0  0  0  0
   -1.8044   -1.4759    0.3322 C   0  0  0  0  0  0  0  0  0  0  0  0
   -1.5157   -2.9934    0.3258 C   0  0  0  0  0  0  0  0  0  0  0  0
   -2.3176   -3.5144    0.8849 H   0  0  0  0  0  0  0  0  0  0  0  0
   -0.5583   -3.2372    0.8271 H   0  0  0  0  0  0  0  0  0  0  0  0
   -1.4995   -3.4146   -0.6997 H   0  0  0  0  0  0  0  0  0  0  0  0
   -1.8809   -1.0690    1.8207 C   0  0  0  0  0  0  0  0  0  0  0  0
   -2.7228   -1.5998    2.3119 H   0  0  0  0  0  0  0  0  0  0  0  0
   -2.0285    0.0118    1.9881 H   0  0  0  0  0  0  0  0  0  0  0  0
   -0.9438   -1.3504    2.3380 H   0  0  0  0  0  0  0  0  0  0  0  0
    2.5749   -1.6728   -2.3032 C   0  0  0  0  0  0  0  0  0  0  0  0
    2.3404   -2.0370   -3.3266 H   0  0  0  0  0  0  0  0  0  0  0  0
    2.7636   -2.5574   -1.6649 H   0  0  0  0  0  0  0  0  0  0  0  0
    3.5121   -1.0864   -2.3613 H   0  0  0  0  0  0  0  0  0  0  0  0
   -1.5886    3.1322   -0.3157 C   0  0  0  0  0  0  0  0  0  0  0  0
   -0.6327    3.4193    0.1642 H   0  0  0  0  0  0  0  0  0  0  0  0
   -2.3950    3.7054    0.1825 H   0  0  0  0  0  0  0  0  0  0  0  0
   -1.5645    3.4582   -1.3761 H   0  0  0  0  0  0  0  0  0  0  0  0
  1  2  1  6  0  0  0
  1 21  1  0  0  0  0
  2  3  1  0  0  0  0
  4 30  1  1  0  0  0
  4  2  1  0  0  0  0
  5  4  1  0  0  0  0
  5  7  1  0  0  0  0
  6  5  1  0  0  0  0
  7  9  2  0  0  0  0
  8  7  1  0  0  0  0
  9  1  1  0  0  0  0
  9 10  1  0  0  0  0
 10 11  1  1  0  0  0
 12 14  1  0  0  0  0
 12 15  1  0  0  0  0
 12 10  1  0  0  0  0
 13 12  1  0  0  0  0
 15 17  1  0  0  0  0
 16 15  1  0  0  0  0
 18 15  1  0  0  0  0
 18 19  1  0  0  0  0
 18 21  1  0  0  0  0
 20 18  1  0  0  0  0
 21 26  1  0  0  0  0
 22 21  1  0  0  0  0
 22 24  1  0  0  0  0
 22 23  1  0  0  0  0
 25 22  1  0  0  0  0
 26 28  1  0  0  0  0
 26 27  1  0  0  0  0
 26 29  1  0  0  0  0
 30 32  1  0  0  0  0
 31 30  1  0  0  0  0
 33 30  1  0  0  0  0
 34 10  1  0  0  0  0
 34 35  1  0  0  0  0
 34 36  1  0  0  0  0
 37 34  1  0  0  0  0
M  END
