9,13
 OpenBabel05122313053D

 55 56  0  0  1  0  0  0  0  0999 V2000
   -0.7723    1.6667   -0.6015 P   0  0  0  0  0  0  0  0  0  0  0  0
   -0.9196    1.4316   -2.0881 O   0  0  0  0  0  0  0  0  0  0  0  0
   -2.0183    2.5487    0.0141 O   0  0  0  0  0  0  0  0  0  0  0  0
    0.5457    2.4909   -0.1256 O   0  0  0  0  0  0  0  0  0  0  0  0
    0.4500   -0.7825    0.1457 C   0  0  1  0  0  3  0  0  0  0  0  0
    1.0561   -1.5934    1.1806 C   0  0  0  0  0  0  0  0  0  0  0  0
    2.0255   -2.5663    0.8143 C   0  0  0  0  0  0  0  0  0  0  0  0
    2.5148   -3.1533    1.6037 H   0  0  0  0  0  0  0  0  0  0  0  0
    2.4255   -2.7372   -0.5448 C   0  0  0  0  0  3  0  0  0  0  0  0
    3.2203   -3.4543   -0.7932 H   0  0  0  0  0  0  0  0  0  0  0  0
    1.8200   -1.9631   -1.5600 C   0  0  0  0  0  3  0  0  0  0  0  0
    2.1383   -2.0635   -2.6059 H   0  0  0  0  0  0  0  0  0  0  0  0
    0.8452   -0.9851   -1.2060 C   0  0  0  0  0  3  0  0  0  0  0  0
    0.4099   -0.3396   -1.9825 H   0  0  0  0  0  0  0  0  0  0  0  0
    0.6666   -1.4381    2.6271 C   0  0  0  0  0  0  0  0  0  0  0  0
   -0.3958   -1.7228    2.7721 H   0  0  0  0  0  0  0  0  0  0  0  0
    0.7806   -0.3936    2.9774 H   0  0  0  0  0  0  0  0  0  0  0  0
    1.2960   -2.0769    3.2740 H   0  0  0  0  0  0  0  0  0  0  0  0
   -0.6324    0.2130    0.5381 C   0  0  2  0  0  0  0  0  0  0  0  0
   -0.3128    0.7234    1.4680 H   0  0  0  0  0  0  0  0  0  0  0  0
   -1.9737   -0.4727    0.8021 C   0  0  0  0  0  0  0  0  0  0  0  0
   -2.3396   -1.5935   -0.1135 C   0  0  0  0  0  0  0  0  0  0  0  0
   -2.5666   -2.8879    0.4064 C   0  0  0  0  0  0  0  0  0  0  0  0
   -2.4766   -3.0507    1.4915 H   0  0  0  0  0  0  0  0  0  0  0  0
   -2.8866   -3.9612   -0.4370 C   0  0  0  0  0  0  0  0  0  0  0  0
   -3.0561   -4.9610   -0.0087 H   0  0  0  0  0  0  0  0  0  0  0  0
   -2.9809   -3.7626   -1.8234 C   0  0  0  0  0  0  0  0  0  0  0  0
   -3.2302   -4.6036   -2.4881 H   0  0  0  0  0  0  0  0  0  0  0  0
   -2.7448   -2.4853   -2.3554 C   0  0  0  0  0  0  0  0  0  0  0  0
   -2.8088   -2.3198   -3.4419 H   0  0  0  0  0  0  0  0  0  0  0  0
   -2.4215   -1.4111   -1.5131 C   0  0  0  0  0  0  0  0  0  0  0  0
   -2.2138   -0.4213   -1.9482 H   0  0  0  0  0  0  0  0  0  0  0  0
   -2.7581   -0.0955    1.8575 C   0  0  0  0  0  0  0  0  0  0  0  0
   -2.3516    0.9863    2.8312 C   0  0  0  0  0  0  0  0  0  0  0  0
   -2.9763    0.9542    3.7448 H   0  0  0  0  0  0  0  0  0  0  0  0
   -2.4618    1.9916    2.3736 H   0  0  0  0  0  0  0  0  0  0  0  0
   -1.2925    0.8985    3.1497 H   0  0  0  0  0  0  0  0  0  0  0  0
   -4.1281   -0.6737    2.1021 C   0  0  0  0  0  0  0  0  0  0  0  0
   -4.8637    0.1498    2.2304 H   0  0  0  0  0  0  0  0  0  0  0  0
   -4.1533   -1.2536    3.0507 H   0  0  0  0  0  0  0  0  0  0  0  0
   -4.4783   -1.3296    1.2853 H   0  0  0  0  0  0  0  0  0  0  0  0
   -3.1584    2.8821   -0.8157 C   0  0  0  0  0  0  0  0  0  0  0  0
   -2.8661    2.7790   -1.8810 H   0  0  0  0  0  0  0  0  0  0  0  0
   -3.3711    3.9522   -0.6131 H   0  0  0  0  0  0  0  0  0  0  0  0
   -4.3595    2.0127   -0.4930 C   0  0  0  0  0  0  0  0  0  0  0  0
   -4.1552    0.9466   -0.7153 H   0  0  0  0  0  0  0  0  0  0  0  0
   -5.2276    2.3328   -1.1045 H   0  0  0  0  0  0  0  0  0  0  0  0
   -4.6417    2.0966    0.5752 H   0  0  0  0  0  0  0  0  0  0  0  0
    0.9190    3.7064   -0.8239 C   0  0  0  0  0  0  0  0  0  0  0  0
    2.0082    3.6224   -1.0065 H   0  0  0  0  0  0  0  0  0  0  0  0
    0.4194    3.7257   -1.8161 H   0  0  0  0  0  0  0  0  0  0  0  0
    0.5737    4.9209    0.0175 C   0  0  0  0  0  0  0  0  0  0  0  0
    0.9092    5.8473   -0.4914 H   0  0  0  0  0  0  0  0  0  0  0  0
    1.0758    4.8643    1.0036 H   0  0  0  0  0  0  0  0  0  0  0  0
   -0.5190    4.9875    0.1880 H   0  0  0  0  0  0  0  0  0  0  0  0
  1  4  1  0  0  0  0
  1  3  1  0  0  0  0
  1 19  1  0  0  0  0
  2  1  2  0  0  0  0
  5 19  1  6  0  0  0
  5  6  1  0  0  0  0
  6 15  1  0  0  0  0
  7  6  2  0  0  0  0
  7  8  1  0  0  0  0
  9  7  1  0  0  0  0
 10  9  1  0  0  0  0
 11 13  1  0  0  0  0
 11  9  1  0  0  0  0
 12 11  1  0  0  0  0
 13  5  1  0  0  0  0
 14 13  1  0  0  0  0
 15 16  1  0  0  0  0
 15 17  1  0  0  0  0
 15 18  1  0  0  0  0
 19 21  1  0  0  0  0
 19 20  1  1  0  0  0
 21 33  2  0  0  0  0
 22 23  1  0  0  0  0
 22 21  1  0  0  0  0
 23 24  1  0  0  0  0
 25 26  1  0  0  0  0
 25 23  2  0  0  0  0
 27 25  1  0  0  0  0
 28 27  1  0  0  0  0
 29 27  2  0  0  0  0
 29 31  1  0  0  0  0
 30 29  1  0  0  0  0
 31 22  2  0  0  0  0
 32 31  1  0  0  0  0
 33 38  1  0  0  0  0
 33 34  1  0  0  0  0
 34 37  1  0  0  0  0
 34 35  1  0  0  0  0
 36 34  1  0  0  0  0
 38 39  1  0  0  0  0
 38 40  1  0  0  0  0
 41 38  1  0  0  0  0
 42 44  1  0  0  0  0
 42 45  1  0  0  0  0
 42  3  1  0  0  0  0
 43 42  1  0  0  0  0
 45 48  1  0  0  0  0
 46 45  1  0  0  0  0
 47 45  1  0  0  0  0
 49  4  1  0  0  0  0
 49 52  1  0  0  0  0
 50 49  1  0  0  0  0
 51 49  1  0  0  0  0
 52 55  1  0  0  0  0
 52 54  1  0  0  0  0
 53 52  1  0  0  0  0
M  END
