5,15
 OpenBabel05122313053D

 33 35  0  0  0  0  0  0  0  0999 V2000
   -0.8950    3.4845    0.5465 N   0  0  0  0  0  2  0  0  0  0  0  0
    4.5180    2.2803   -1.1017 C   0  0  0  0  0  0  0  0  0  0  0  0
    5.4264    2.8571   -1.3324 H   0  0  0  0  0  0  0  0  0  0  0  0
   -2.0381    2.9227    0.1855 N   0  0  0  0  0  0  0  0  0  0  0  0
   -0.5398    1.2624    0.0891 C   0  0  0  0  0  3  0  0  0  0  0  0
   -0.0266    2.4804    0.4926 N   0  0  0  0  0  0  0  0  0  0  0  0
    3.1584    0.2750   -1.3501 C   0  0  0  0  0  0  0  0  0  0  0  0
    3.0062   -0.7098   -1.8169 H   0  0  0  0  0  0  0  0  0  0  0  0
    4.3258    0.9974   -1.6391 C   0  0  0  0  0  0  0  0  0  0  0  0
    5.0867    0.5584   -2.3042 H   0  0  0  0  0  0  0  0  0  0  0  0
   -3.2088    3.7788    0.0625 C   0  0  0  0  0  0  0  0  0  0  0  0
   -3.7500    3.8528    1.0259 H   0  0  0  0  0  0  0  0  0  0  0  0
   -3.8837    3.3563   -0.7025 H   0  0  0  0  0  0  0  0  0  0  0  0
   -2.8654    4.7834   -0.2414 H   0  0  0  0  0  0  0  0  0  0  0  0
    2.1529    0.7875   -0.4947 C   0  0  0  0  0  3  0  0  0  0  0  0
    2.3602    2.0900    0.0243 C   0  0  0  0  0  0  0  0  0  0  0  0
    1.3433    2.6951    0.9581 C   0  0  0  0  0  0  0  0  0  0  0  0
    1.4062    2.2304    1.9674 H   0  0  0  0  0  0  0  0  0  0  0  0
    1.4741    3.7868    1.0714 H   0  0  0  0  0  0  0  0  0  0  0  0
   -3.0670    0.7099   -0.3846 C   0  0  0  0  0  0  0  0  0  0  0  0
   -1.9145    1.5743   -0.0928 C   0  0  0  0  0  0  0  0  0  0  0  0
   -4.2493    0.8008    0.3897 C   0  0  0  0  0  0  0  0  0  0  0  0
   -4.3101    1.5202    1.2201 H   0  0  0  0  0  0  0  0  0  0  0  0
   -2.9862   -0.2704   -1.3982 C   0  0  0  0  0  0  0  0  0  0  0  0
   -2.0574   -0.3592   -1.9884 H   0  0  0  0  0  0  0  0  0  0  0  0
   -5.3299   -0.0572    0.1468 C   0  0  0  0  0  0  0  0  0  0  0  0
   -6.2382    0.0210    0.7633 H   0  0  0  0  0  0  0  0  0  0  0  0
   -4.0707   -1.1275   -1.6313 C   0  0  0  0  0  0  0  0  0  0  0  0
   -3.9926   -1.8867   -2.4246 H   0  0  0  0  0  0  0  0  0  0  0  0
    3.5231    2.8256   -0.2800 C   0  0  0  0  0  0  0  0  0  0  0  0
    3.6479    3.8391    0.1370 H   0  0  0  0  0  0  0  0  0  0  0  0
   -5.2443   -1.0255   -0.8670 C   0  0  0  0  0  0  0  0  0  0  0  0
   -6.0916   -1.7022   -1.0563 H   0  0  0  0  0  0  0  0  0  0  0  0
  2 30  1  0  0  0  0
  3  2  1  0  0  0  0
  4  1  1  0  0  0  0
  5  6  1  0  0  0  0
  6  1  1  0  0  0  0
  6 17  1  0  0  0  0
  7 15  2  0  0  0  0
  8  7  1  0  0  0  0
  9  7  1  0  0  0  0
  9  2  2  0  0  0  0
 10  9  1  0  0  0  0
 11  4  1  0  0  0  0
 11 12  1  0  0  0  0
 13 11  1  0  0  0  0
 14 11  1  0  0  0  0
 15 16  1  0  0  0  0
 16 17  1  0  0  0  0
 17 19  1  0  0  0  0
 17 18  1  0  0  0  0
 20 21  1  0  0  0  0
 20 22  1  0  0  0  0
 21  5  2  0  0  0  0
 21  4  1  0  0  0  0
 22 23  1  0  0  0  0
 24 20  2  0  0  0  0
 25 24  1  0  0  0  0
 26 22  2  0  0  0  0
 26 27  1  0  0  0  0
 28 24  1  0  0  0  0
 28 32  2  0  0  0  0
 29 28  1  0  0  0  0
 30 16  2  0  0  0  0
 30 31  1  0  0  0  0
 32 26  1  0  0  0  0
 33 32  1  0  0  0  0
M  END
