1,4
 OpenBabel05122313053D

 44 46  0  0  1  0  0  0  0  0999 V2000
   -0.7250    1.0685   -0.0424 C   0  0  0  0  0  3  0  0  0  0  0  0
   -1.6987    0.1829   -0.4164 C   0  0  0  0  0  0  0  0  0  0  0  0
   -0.9384   -1.0619   -0.8355 C   0  0  2  0  0  3  0  0  0  0  0  0
   -0.0754   -0.9529   -1.9905 C   0  0  0  0  0  3  0  0  0  0  0  0
    0.4130    0.2862   -2.4838 C   0  0  0  0  0  3  0  0  0  0  0  0
    1.5093    0.3480   -3.5126 C   0  0  0  0  0  0  0  0  0  0  0  0
    0.0734    3.0805    1.2334 C   0  0  0  0  0  0  0  0  0  0  0  0
    0.0317    4.4543    1.5033 C   0  0  0  0  0  0  0  0  0  0  0  0
   -0.8356    5.2916    0.7836 C   0  0  0  0  0  0  0  0  0  0  0  0
   -1.6582    4.7392   -0.2133 C   0  0  0  0  0  0  0  0  0  0  0  0
   -1.6278    3.3643   -0.4748 C   0  0  0  0  0  0  0  0  0  0  0  0
   -0.7702    2.5008    0.2553 C   0  0  0  0  0  0  0  0  0  0  0  0
   -3.8920    1.1472    0.3820 C   0  0  0  0  0  0  0  0  0  0  0  0
   -5.2871    1.2287    0.3026 C   0  0  0  0  0  0  0  0  0  0  0  0
   -5.9939    0.4609   -0.6399 C   0  0  0  0  0  0  0  0  0  0  0  0
   -5.2868   -0.3955   -1.4994 C   0  0  0  0  0  0  0  0  0  0  0  0
   -3.8903   -0.4786   -1.4233 C   0  0  0  0  0  0  0  0  0  0  0  0
   -3.1631    0.3000   -0.4899 C   0  0  0  0  0  0  0  0  0  0  0  0
   -2.2337   -2.4992    0.7788 C   0  0  0  0  0  0  0  0  0  0  0  0
   -2.4972   -3.7248    1.4078 C   0  0  0  0  0  0  0  0  0  0  0  0
   -1.7923   -4.8801    1.0387 C   0  0  0  0  0  0  0  0  0  0  0  0
   -0.8182   -4.7903    0.0292 C   0  0  0  0  0  0  0  0  0  0  0  0
   -0.5506   -3.5663   -0.5949 C   0  0  0  0  0  0  0  0  0  0  0  0
   -1.2490   -2.3872   -0.2334 C   0  0  0  0  0  0  0  0  0  0  0  0
    0.4081   -1.8717   -2.3605 H   0  0  0  0  0  0  0  0  0  0  0  0
   -0.2380    1.1741   -2.4150 H   0  0  0  0  0  0  0  0  0  0  0  0
    2.1338   -0.5672   -3.5022 H   0  0  0  0  0  0  0  0  0  0  0  0
    1.1009    0.4762   -4.5395 H   0  0  0  0  0  0  0  0  0  0  0  0
    2.1767    1.2130   -3.3212 H   0  0  0  0  0  0  0  0  0  0  0  0
    0.7809    2.4348    1.7696 H   0  0  0  0  0  0  0  0  0  0  0  0
    0.6928    4.8783    2.2750 H   0  0  0  0  0  0  0  0  0  0  0  0
   -0.8624    6.3725    0.9895 H   0  0  0  0  0  0  0  0  0  0  0  0
   -2.3302    5.3884   -0.7959 H   0  0  0  0  0  0  0  0  0  0  0  0
   -2.2730    2.9375   -1.2566 H   0  0  0  0  0  0  0  0  0  0  0  0
   -3.3475    1.7370    1.1338 H   0  0  0  0  0  0  0  0  0  0  0  0
   -5.8324    1.8932    0.9908 H   0  0  0  0  0  0  0  0  0  0  0  0
   -7.0911    0.5242   -0.6974 H   0  0  0  0  0  0  0  0  0  0  0  0
   -5.8293   -1.0070   -2.2369 H   0  0  0  0  0  0  0  0  0  0  0  0
   -3.3410   -1.1525   -2.0987 H   0  0  0  0  0  0  0  0  0  0  0  0
   -2.8066   -1.6090    1.0719 H   0  0  0  0  0  0  0  0  0  0  0  0
   -3.2683   -3.7745    2.1920 H   0  0  0  0  0  0  0  0  0  0  0  0
   -1.9995   -5.8427    1.5300 H   0  0  0  0  0  0  0  0  0  0  0  0
   -0.2507   -5.6849   -0.2700 H   0  0  0  0  0  0  0  0  0  0  0  0
    0.2452   -3.5232   -1.3512 H   0  0  0  0  0  0  0  0  0  0  0  0
  1 12  1  0  0  0  0
  2  1  2  0  0  0  0
  3  4  1  6  0  0  0
  3  2  1  0  0  0  0
  3 24  1  0  0  0  0
  5 26  1  0  0  0  0
  5  4  1  0  0  0  0
  6 27  1  0  0  0  0
  6 29  1  0  0  0  0
  6  5  1  0  0  0  0
  7  8  1  0  0  0  0
  7 30  1  0  0  0  0
  8 31  1  0  0  0  0
  9 32  1  0  0  0  0
  9  8  2  0  0  0  0
 10  9  1  0  0  0  0
 11 10  2  0  0  0  0
 11 12  1  0  0  0  0
 12  7  2  0  0  0  0
 13 35  1  0  0  0  0
 14 13  1  0  0  0  0
 14 36  1  0  0  0  0
 15 14  2  0  0  0  0
 16 17  2  0  0  0  0
 16 15  1  0  0  0  0
 17 18  1  0  0  0  0
 18  2  1  0  0  0  0
 18 13  2  0  0  0  0
 19 40  1  0  0  0  0
 19 20  1  0  0  0  0
 20 41  1  0  0  0  0
 21 20  2  0  0  0  0
 21 42  1  0  0  0  0
 22 21  1  0  0  0  0
 23 24  1  0  0  0  0
 23 22  2  0  0  0  0
 24 19  2  0  0  0  0
 25  4  1  0  0  0  0
 28  6  1  0  0  0  0
 33 10  1  0  0  0  0
 34 11  1  0  0  0  0
 37 15  1  0  0  0  0
 38 16  1  0  0  0  0
 39 17  1  0  0  0  0
 43 22  1  0  0  0  0
 44 23  1  0  0  0  0
M  END
