9,12
 OpenBabel05122313053D

 38 39  0  0  1  0  0  0  0  0999 V2000
   -2.7002    0.7420   -0.8387 P   0  0  0  0  0  4  0  0  0  0  0  0
   -2.1588   -1.3771   -2.2693 F   0  0  0  0  0  0  0  0  0  0  0  0
   -3.3396   -2.8415   -0.5857 F   0  0  0  0  0  0  0  0  0  0  0  0
   -3.2510   -1.3175    1.0093 F   0  0  0  0  0  0  0  0  0  0  0  0
   -0.7760   -3.5326   -0.1683 F   0  0  0  0  0  0  0  0  0  0  0  0
   -1.7946   -3.4207    1.7813 F   0  0  0  0  0  0  0  0  0  0  0  0
    0.7510   -2.2799    1.6731 F   0  0  0  0  0  0  0  0  0  0  0  0
   -0.8572   -0.8699    2.1751 F   0  0  0  0  0  0  0  0  0  0  0  0
   -1.9103   -0.9261   -0.9574 C   0  0  2  0  0  3  0  0  0  0  0  0
   -2.5125   -1.9533    0.0267 C   0  0  0  0  0  0  0  0  0  0  0  0
   -1.3510   -2.6766    0.7312 C   0  0  0  0  0  0  0  0  0  0  0  0
   -0.3255   -1.5959    1.1117 C   0  0  0  0  0  3  0  0  0  0  0  0
   -1.8917    1.7523    0.4239 C   0  0  0  0  0  0  0  0  0  0  0  0
   -2.2552    1.6205    1.7800 C   0  0  0  0  0  0  0  0  0  0  0  0
   -3.0252    0.8966    2.0778 H   0  0  0  0  0  0  0  0  0  0  0  0
   -1.6008    2.3939    2.7481 C   0  0  0  0  0  0  0  0  0  0  0  0
   -1.8699    2.2760    3.8081 H   0  0  0  0  0  0  0  0  0  0  0  0
   -0.5997    3.3003    2.3710 C   0  0  0  0  0  0  0  0  0  0  0  0
   -0.0798    3.8964    3.1349 H   0  0  0  0  0  0  0  0  0  0  0  0
   -0.2412    3.4318    1.0192 C   0  0  0  0  0  0  0  0  0  0  0  0
    0.5521    4.1329    0.7244 H   0  0  0  0  0  0  0  0  0  0  0  0
   -0.8750    2.6558    0.0424 C   0  0  0  0  0  0  0  0  0  0  0  0
   -0.5594    2.7287   -1.0081 H   0  0  0  0  0  0  0  0  0  0  0  0
   -4.5076    0.7434   -0.5520 C   0  0  0  0  0  0  0  0  0  0  0  0
   -5.1487    1.7982    0.1257 C   0  0  0  0  0  0  0  0  0  0  0  0
   -4.5577    2.6149    0.5664 H   0  0  0  0  0  0  0  0  0  0  0  0
   -6.5475    1.8002    0.2421 C   0  0  0  0  0  0  0  0  0  0  0  0
   -7.0477    2.6214    0.7773 H   0  0  0  0  0  0  0  0  0  0  0  0
   -7.3041    0.7604   -0.3199 C   0  0  0  0  0  0  0  0  0  0  0  0
   -8.4003    0.7641   -0.2238 H   0  0  0  0  0  0  0  0  0  0  0  0
   -6.6628   -0.2873   -1.0014 C   0  0  0  0  0  0  0  0  0  0  0  0
   -7.2530   -1.1065   -1.4387 H   0  0  0  0  0  0  0  0  0  0  0  0
   -5.2669   -0.3006   -1.1208 C   0  0  0  0  0  0  0  0  0  0  0  0
   -4.7625   -1.1312   -1.6366 H   0  0  0  0  0  0  0  0  0  0  0  0
   -2.5561    1.5320   -2.4643 C   0  0  0  0  0  0  0  0  0  0  0  0
   -2.9990    2.5434   -2.3942 H   0  0  0  0  0  0  0  0  0  0  0  0
   -3.1346    0.9136   -3.1757 H   0  0  0  0  0  0  0  0  0  0  0  0
   -1.4914    1.5550   -2.7818 H   0  0  0  0  0  0  0  0  0  0  0  0
  1 24  1  0  0  0  0
  1 13  1  0  0  0  0
  3 10  1  0  0  0  0
  5 11  1  0  0  0  0
  9  2  1  6  0  0  0
  9  1  1  0  0  0  0
  9 10  1  0  0  0  0
 10 11  1  0  0  0  0
 10  4  1  0  0  0  0
 11 12  1  0  0  0  0
 11  6  1  0  0  0  0
 12  7  1  0  0  0  0
 12  8  1  0  0  0  0
 13 14  1  0  0  0  0
 14 15  1  0  0  0  0
 14 16  2  0  0  0  0
 16 17  1  0  0  0  0
 18 16  1  0  0  0  0
 18 19  1  0  0  0  0
 20 18  2  0  0  0  0
 21 20  1  0  0  0  0
 22 13  2  0  0  0  0
 22 20  1  0  0  0  0
 23 22  1  0  0  0  0
 24 25  1  0  0  0  0
 25 27  2  0  0  0  0
 25 26  1  0  0  0  0
 27 28  1  0  0  0  0
 29 30  1  0  0  0  0
 29 27  1  0  0  0  0
 31 29  2  0  0  0  0
 32 31  1  0  0  0  0
 33 31  1  0  0  0  0
 33 24  2  0  0  0  0
 34 33  1  0  0  0  0
 35 36  1  0  0  0  0
 35  1  1  0  0  0  0
 37 35  1  0  0  0  0
 38 35  1  0  0  0  0
M  END
