2,21
 OpenBabel05122313053D

 32 32  0  0  1  0  0  0  0  0999 V2000
   -2.2096    0.1533   -0.1235 C   0  0  2  0  0  3  0  0  0  0  0  0
   -1.4976    0.4829   -1.3490 C   0  0  1  0  0  3  0  0  0  0  0  0
   -0.7755    1.7219   -1.0867 C   0  0  2  0  0  3  0  0  0  0  0  0
   -0.9626    2.0719    0.2820 C   0  0  0  0  0  0  0  0  0  0  0  0
   -1.8244    1.0969    0.8809 C   0  0  0  0  0  0  0  0  0  0  0  0
   -0.8174   -0.5448   -2.1150 C   0  0  0  0  0  3  0  0  0  0  0  0
   -0.0759    2.5252   -2.1416 C   0  0  0  0  0  0  0  0  0  0  0  0
   -0.8250    3.0016   -2.8099 H   0  0  0  0  0  0  0  0  0  0  0  0
    0.5728    1.9024   -2.7892 H   0  0  0  0  0  0  0  0  0  0  0  0
    0.5450    3.3337   -1.7152 H   0  0  0  0  0  0  0  0  0  0  0  0
   -0.5006    3.3237    0.9633 C   0  0  0  0  0  0  0  0  0  0  0  0
    0.3483    3.8012    0.4382 H   0  0  0  0  0  0  0  0  0  0  0  0
   -0.1925    3.1367    2.0106 H   0  0  0  0  0  0  0  0  0  0  0  0
   -1.3221    4.0726    1.0002 H   0  0  0  0  0  0  0  0  0  0  0  0
   -2.3199    1.1560    2.2952 C   0  0  0  0  0  0  0  0  0  0  0  0
   -3.2004    1.8298    2.3876 H   0  0  0  0  0  0  0  0  0  0  0  0
   -1.5428    1.5461    2.9827 H   0  0  0  0  0  0  0  0  0  0  0  0
   -2.6274    0.1609    2.6696 H   0  0  0  0  0  0  0  0  0  0  0  0
   -3.1417   -1.0221    0.0892 C   0  0  2  0  0  0  0  0  0  0  0  0
   -2.3013   -2.3106    0.1624 C   0  0  0  0  0  0  0  0  0  0  0  0
   -0.9371   -1.9900    0.7642 C   0  0  0  0  0  3  0  0  0  0  0  0
   -4.2687   -1.0758   -0.9497 C   0  0  0  0  0  0  0  0  0  0  0  0
   -4.8892   -0.1573   -0.9274 H   0  0  0  0  0  0  0  0  0  0  0  0
   -4.9337   -1.9447   -0.7653 H   0  0  0  0  0  0  0  0  0  0  0  0
   -3.8550   -1.1752   -1.9740 H   0  0  0  0  0  0  0  0  0  0  0  0
   -0.2113   -0.2227   -2.9781 H   0  0  0  0  0  0  0  0  0  0  0  0
   -1.3097   -1.5192   -2.2577 H   0  0  0  0  0  0  0  0  0  0  0  0
   -3.6103   -0.8739    1.0864 H   0  0  0  0  0  0  0  0  0  0  0  0
   -2.8553   -3.1032    0.7209 H   0  0  0  0  0  0  0  0  0  0  0  0
   -2.1693   -2.7178   -0.8643 H   0  0  0  0  0  0  0  0  0  0  0  0
   -1.0470   -1.6685    1.8308 H   0  0  0  0  0  0  0  0  0  0  0  0
   -0.2911   -2.8891    0.7787 H   0  0  0  0  0  0  0  0  0  0  0  0
  1 19  1  1  0  0  0
  1  5  1  0  0  0  0
  2  6  1  1  0  0  0
  2  3  1  0  0  0  0
  2  1  1  0  0  0  0
  3  7  1  6  0  0  0
  3  4  1  0  0  0  0
  4  5  2  0  0  0  0
  4 11  1  0  0  0  0
  5 15  1  0  0  0  0
  7 10  1  0  0  0  0
  8  7  1  0  0  0  0
  9  7  1  0  0  0  0
 11 14  1  0  0  0  0
 11 13  1  0  0  0  0
 12 11  1  0  0  0  0
 15 16  1  0  0  0  0
 15 18  1  0  0  0  0
 15 17  1  0  0  0  0
 19 20  1  0  0  0  0
 19 28  1  1  0  0  0
 20 29  1  0  0  0  0
 20 21  1  0  0  0  0
 21 32  1  0  0  0  0
 21 31  1  0  0  0  0
 22 23  1  0  0  0  0
 22 24  1  0  0  0  0
 22 19  1  0  0  0  0
 25 22  1  0  0  0  0
 26  6  1  0  0  0  0
 27  6  1  0  0  0  0
 30 20  1  0  0  0  0
M  END
