6,12
 OpenBabel05122313053D

 51 52  0  0  1  0  0  0  0  0999 V2000
   -3.6366   -2.0641   -0.3157 O   0  0  0  0  0  0  0  0  0  0  0  0
   -2.6073   -2.1010    1.7077 O   0  0  0  0  0  0  0  0  0  0  0  0
    1.1575    0.7683    2.4876 O   0  0  0  0  0  0  0  0  0  0  0  0
    5.7077    1.0167   -0.6829 O   0  0  0  0  0  0  0  0  0  0  0  0
   -2.7759   -1.6288    0.4376 C   0  0  0  0  0  0  0  0  0  0  0  0
   -1.7859   -0.5667    0.1277 C   0  0  0  0  0  3  0  0  0  0  0  0
   -1.5092   -0.0282    1.0510 H   0  0  0  0  0  0  0  0  0  0  0  0
   -2.1217    0.3064   -1.0869 C   0  0  2  0  0  0  0  0  0  0  0  0
   -2.9389   -0.2405   -1.6093 H   0  0  0  0  0  0  0  0  0  0  0  0
   -0.8917    0.2119   -1.9723 C   0  0  0  0  0  3  0  0  0  0  0  0
   -1.0386    0.0662   -3.0544 H   0  0  0  0  0  0  0  0  0  0  0  0
    0.4049    0.5937   -1.5539 C   0  0  0  0  0  3  0  0  0  0  0  0
    1.1904    0.6378   -2.3271 H   0  0  0  0  0  0  0  0  0  0  0  0
    0.7578    0.6908   -0.1773 C   0  0  0  0  0  3  0  0  0  0  0  0
   -0.0155    1.0169    0.5282 H   0  0  0  0  0  0  0  0  0  0  0  0
   -3.4667   -3.1825    2.0739 C   0  0  0  0  0  0  0  0  0  0  0  0
   -3.3284   -4.0479    1.3937 H   0  0  0  0  0  0  0  0  0  0  0  0
   -4.5327   -2.8795    2.0271 H   0  0  0  0  0  0  0  0  0  0  0  0
   -3.1905   -3.4591    3.1074 H   0  0  0  0  0  0  0  0  0  0  0  0
    2.1263    0.8386    0.3346 C   0  0  0  0  0  0  0  0  0  0  0  0
    2.3008    0.8673    1.7462 C   0  0  0  0  0  0  0  0  0  0  0  0
    3.5946    0.9620    2.2928 C   0  0  0  0  0  0  0  0  0  0  0  0
    3.7414    0.9829    3.3807 H   0  0  0  0  0  0  0  0  0  0  0  0
    4.7137    1.0180    1.4548 C   0  0  0  0  0  0  0  0  0  0  0  0
    5.7295    1.0828    1.8699 H   0  0  0  0  0  0  0  0  0  0  0  0
    4.5601    0.9773    0.0542 C   0  0  0  0  0  0  0  0  0  0  0  0
    3.2678    0.8951   -0.4931 C   0  0  0  0  0  0  0  0  0  0  0  0
    3.1341    0.8662   -1.5816 H   0  0  0  0  0  0  0  0  0  0  0  0
    1.2671    0.6036    3.8876 C   0  0  0  0  0  0  0  0  0  0  0  0
    1.8598   -0.3020    4.1457 H   0  0  0  0  0  0  0  0  0  0  0  0
    0.2365    0.4788    4.2682 H   0  0  0  0  0  0  0  0  0  0  0  0
    1.7284    1.4904    4.3776 H   0  0  0  0  0  0  0  0  0  0  0  0
    5.5995    0.8693   -2.0845 C   0  0  0  0  0  0  0  0  0  0  0  0
    6.6314    0.8675   -2.4821 H   0  0  0  0  0  0  0  0  0  0  0  0
    5.0381    1.7109   -2.5517 H   0  0  0  0  0  0  0  0  0  0  0  0
    5.1008   -0.0871   -2.3628 H   0  0  0  0  0  0  0  0  0  0  0  0
   -2.6407    1.6949   -0.7591 C   0  0  0  0  0  0  0  0  0  0  0  0
   -2.0180    2.8369   -1.1300 C   0  0  0  0  0  0  0  0  0  0  0  0
   -1.0594    2.7724   -1.6712 H   0  0  0  0  0  0  0  0  0  0  0  0
   -2.5496    4.2181   -0.8474 C   0  0  0  0  0  0  0  0  0  0  0  0
   -2.4258    4.8574   -1.7489 H   0  0  0  0  0  0  0  0  0  0  0  0
   -1.9142    4.7006   -0.0670 H   0  0  0  0  0  0  0  0  0  0  0  0
   -4.0156    4.2041   -0.3962 C   0  0  0  0  0  0  0  0  0  0  0  0
   -4.3022    5.1921    0.0195 H   0  0  0  0  0  0  0  0  0  0  0  0
   -4.6693    4.0304   -1.2795 H   0  0  0  0  0  0  0  0  0  0  0  0
   -4.2532    3.0881    0.6255 C   0  0  0  0  0  0  0  0  0  0  0  0
   -5.2963    3.1107    1.0031 H   0  0  0  0  0  0  0  0  0  0  0  0
   -3.5947    3.2563    1.5066 H   0  0  0  0  0  0  0  0  0  0  0  0
   -3.9409    1.7162    0.0171 C   0  0  0  0  0  0  0  0  0  0  0  0
   -3.9082    0.9414    0.8140 H   0  0  0  0  0  0  0  0  0  0  0  0
   -4.7654    1.3906   -0.6590 H   0  0  0  0  0  0  0  0  0  0  0  0
  1  5  2  0  0  0  0
  2 16  1  0  0  0  0
  3 29  1  0  0  0  0
  4 26  1  0  0  0  0
  5  2  1  0  0  0  0
  6  5  1  0  0  0  0
  6  7  1  0  0  0  0
  8  9  1  6  0  0  0
  8 37  1  0  0  0  0
  8  6  1  0  0  0  0
 10 12  1  0  0  0  0
 10  8  1  0  0  0  0
 11 10  1  0  0  0  0
 12 14  1  0  0  0  0
 13 12  1  0  0  0  0
 14 20  1  0  0  0  0
 14 15  1  0  0  0  0
 16 19  1  0  0  0  0
 17 16  1  0  0  0  0
 18 16  1  0  0  0  0
 20 21  1  0  0  0  0
 21 22  2  0  0  0  0
 21  3  1  0  0  0  0
 22 23  1  0  0  0  0
 24 25  1  0  0  0  0
 24 22  1  0  0  0  0
 26 24  2  0  0  0  0
 27 26  1  0  0  0  0
 27 20  2  0  0  0  0
 28 27  1  0  0  0  0
 29 30  1  0  0  0  0
 29 31  1  0  0  0  0
 29 32  1  0  0  0  0
 33  4  1  0  0  0  0
 34 33  1  0  0  0  0
 35 33  1  0  0  0  0
 36 33  1  0  0  0  0
 37 49  1  0  0  0  0
 38 40  1  0  0  0  0
 38 37  2  0  0  0  0
 39 38  1  0  0  0  0
 40 43  1  0  0  0  0
 40 42  1  0  0  0  0
 41 40  1  0  0  0  0
 43 44  1  0  0  0  0
 43 46  1  0  0  0  0
 45 43  1  0  0  0  0
 46 47  1  0  0  0  0
 46 48  1  0  0  0  0
 49 46  1  0  0  0  0
 49 50  1  0  0  0  0
 51 49  1  0  0  0  0
M  END
