2,5
 OpenBabel05122313053D

 29 29  0  0  0  0  0  0  0  0999 V2000
    2.0536   -0.1281    0.2431 N   0  0  0  0  0  0  0  0  0  0  0  0
    1.0946   -0.0481   -0.6106 C   0  0  0  0  0  3  0  0  0  0  0  0
    1.2629   -0.0862   -2.1286 C   0  0  0  0  0  0  0  0  0  0  0  0
    0.1110    0.6342   -2.8423 C   0  0  0  0  0  0  0  0  0  0  0  0
   -1.2522    0.3653   -2.2317 C   0  0  0  0  0  3  0  0  0  0  0  0
   -2.3517    0.4028   -3.0169 C   0  0  0  0  0  0  0  0  0  0  0  0
    3.4573   -0.2802   -0.1545 C   0  0  0  0  0  0  0  0  0  0  0  0
    4.2058   -1.0982    0.9120 C   0  0  0  0  0  0  0  0  0  0  0  0
    5.6966   -1.2488    0.5882 C   0  0  0  0  0  0  0  0  0  0  0  0
    6.3687    0.1166    0.3969 C   0  0  0  0  0  0  0  0  0  0  0  0
    5.6345    0.9491   -0.6615 C   0  0  0  0  0  0  0  0  0  0  0  0
    4.1422    1.0884   -0.3345 C   0  0  0  0  0  0  0  0  0  0  0  0
   -2.2863    0.5878   -4.1092 H   0  0  0  0  0  0  0  0  0  0  0  0
   -3.3739    0.2816   -2.6215 H   0  0  0  0  0  0  0  0  0  0  0  0
    1.2696   -1.1591   -2.4282 H   0  0  0  0  0  0  0  0  0  0  0  0
    2.2439    0.3224   -2.4538 H   0  0  0  0  0  0  0  0  0  0  0  0
    0.1156    0.4053   -3.9327 H   0  0  0  0  0  0  0  0  0  0  0  0
    0.3018    1.7295   -2.7700 H   0  0  0  0  0  0  0  0  0  0  0  0
    3.5465   -0.8299   -1.1245 H   0  0  0  0  0  0  0  0  0  0  0  0
    4.0753   -0.5820    1.8891 H   0  0  0  0  0  0  0  0  0  0  0  0
    3.7261   -2.0932    1.0200 H   0  0  0  0  0  0  0  0  0  0  0  0
    6.2066   -1.8256    1.3883 H   0  0  0  0  0  0  0  0  0  0  0  0
    5.8117   -1.8451   -0.3454 H   0  0  0  0  0  0  0  0  0  0  0  0
    6.3561    0.6667    1.3649 H   0  0  0  0  0  0  0  0  0  0  0  0
    7.4371   -0.0084    0.1214 H   0  0  0  0  0  0  0  0  0  0  0  0
    6.0987    1.9533   -0.7596 H   0  0  0  0  0  0  0  0  0  0  0  0
    5.7456    0.4571   -1.6542 H   0  0  0  0  0  0  0  0  0  0  0  0
    3.6214    1.6669   -1.1250 H   0  0  0  0  0  0  0  0  0  0  0  0
    4.0165    1.6622    0.6112 H   0  0  0  0  0  0  0  0  0  0  0  0
  2  1  2  0  0  0  0
  3  2  1  0  0  0  0
  4 18  1  0  0  0  0
  4  5  1  0  0  0  0
  4  3  1  0  0  0  0
  6 14  1  0  0  0  0
  6  5  2  0  0  0  0
  7  1  1  0  0  0  0
  7  8  1  0  0  0  0
  8 21  1  0  0  0  0
  8 20  1  0  0  0  0
  9  8  1  0  0  0  0
  9 22  1  0  0  0  0
 10  9  1  0  0  0  0
 10 24  1  0  0  0  0
 11 12  1  0  0  0  0
 11 10  1  0  0  0  0
 12  7  1  0  0  0  0
 12 29  1  0  0  0  0
 13  6  1  0  0  0  0
 15  3  1  0  0  0  0
 16  3  1  0  0  0  0
 17  4  1  0  0  0  0
 19  7  1  0  0  0  0
 23  9  1  0  0  0  0
 25 10  1  0  0  0  0
 26 11  1  0  0  0  0
 27 11  1  0  0  0  0
 28 12  1  0  0  0  0
M  END
