4,5
 OpenBabel05122313053D

 54 57  0  0  0  0  0  0  0  0999 V2000
    2.7900   -0.1546    0.7756 N   0  0  0  0  0  0  0  0  0  0  0  0
   -1.9932    2.3819   -0.2477 C   0  0  0  0  0  0  0  0  0  0  0  0
   -2.0048    0.5876    1.4625 N   0  0  0  0  0  0  0  0  0  0  0  0
   -1.0950   -0.4289    1.2725 C   0  0  0  0  0  2  0  0  0  0  0  0
    1.6334   -0.8839    0.6763 C   0  0  0  0  0  2  0  0  0  0  0  0
   -2.6807    1.3606    0.4409 C   0  0  0  0  0  0  0  0  0  0  0  0
   -2.7123    3.1219   -1.2053 C   0  0  0  0  0  0  0  0  0  0  0  0
   -2.1887    3.9148   -1.7608 H   0  0  0  0  0  0  0  0  0  0  0  0
    2.9961    1.1825    0.2759 C   0  0  0  0  0  0  0  0  0  0  0  0
   -2.3688    0.6833    2.8031 C   0  0  0  0  0  0  0  0  0  0  0  0
   -3.0694    1.4468    3.1521 H   0  0  0  0  0  0  0  0  0  0  0  0
   -4.7273   -0.1088    0.8535 C   0  0  0  0  0  0  0  0  0  0  0  0
   -4.2008   -1.0400    0.5488 H   0  0  0  0  0  0  0  0  0  0  0  0
   -4.7229   -0.0612    1.9611 H   0  0  0  0  0  0  0  0  0  0  0  0
   -5.7792   -0.1827    0.5198 H   0  0  0  0  0  0  0  0  0  0  0  0
   -4.0443    1.0629    0.2003 C   0  0  0  0  0  0  0  0  0  0  0  0
   -0.2362   -2.2182    2.9020 C   0  0  0  0  0  0  0  0  0  0  0  0
   -1.0056   -2.9848    3.1372 H   0  0  0  0  0  0  0  0  0  0  0  0
    0.3176   -2.0069    3.8409 H   0  0  0  0  0  0  0  0  0  0  0  0
   -4.0643    2.8621   -1.4537 C   0  0  0  0  0  0  0  0  0  0  0  0
   -4.6087    3.4519   -2.2064 H   0  0  0  0  0  0  0  0  0  0  0  0
   -4.7213    1.8425   -0.7541 C   0  0  0  0  0  0  0  0  0  0  0  0
   -5.7776    1.6181   -0.9669 H   0  0  0  0  0  0  0  0  0  0  0  0
   -0.5406    2.6588    0.0026 C   0  0  0  0  0  0  0  0  0  0  0  0
   -0.3387    2.8326    1.0776 H   0  0  0  0  0  0  0  0  0  0  0  0
    0.0837    1.7912   -0.3071 H   0  0  0  0  0  0  0  0  0  0  0  0
   -0.1948    3.5436   -0.5627 H   0  0  0  0  0  0  0  0  0  0  0  0
    3.7041    1.3914   -0.9275 C   0  0  0  0  0  0  0  0  0  0  0  0
   -1.7010   -0.3016    3.4722 C   0  0  0  0  0  0  0  0  0  0  0  0
   -1.7067   -0.5842    4.5290 H   0  0  0  0  0  0  0  0  0  0  0  0
    3.8750    2.7279   -1.3428 C   0  0  0  0  0  0  0  0  0  0  0  0
    4.4078    2.9225   -2.2860 H   0  0  0  0  0  0  0  0  0  0  0  0
    0.7218   -2.8220    1.8765 C   0  0  0  0  0  0  0  0  0  0  0  0
    1.1366   -3.7553    2.3057 H   0  0  0  0  0  0  0  0  0  0  0  0
    0.1955   -3.0693    0.9317 H   0  0  0  0  0  0  0  0  0  0  0  0
    4.2543    0.2442   -1.7221 C   0  0  0  0  0  0  0  0  0  0  0  0
    4.8983   -0.4112   -1.0998 H   0  0  0  0  0  0  0  0  0  0  0  0
    3.4230   -0.3955   -2.1009 H   0  0  0  0  0  0  0  0  0  0  0  0
    4.8510    0.6054   -2.5802 H   0  0  0  0  0  0  0  0  0  0  0  0
    3.3905    3.7954   -0.5771 C   0  0  0  0  0  0  0  0  0  0  0  0
    3.5362    4.8292   -0.9256 H   0  0  0  0  0  0  0  0  0  0  0  0
    2.7374    3.5551    0.6397 C   0  0  0  0  0  0  0  0  0  0  0  0
    2.3755    4.3956    1.2514 H   0  0  0  0  0  0  0  0  0  0  0  0
    1.8638    1.9572    2.4145 C   0  0  0  0  0  0  0  0  0  0  0  0
    0.9854    1.2916    2.2912 H   0  0  0  0  0  0  0  0  0  0  0  0
    2.5541    1.4447    3.1174 H   0  0  0  0  0  0  0  0  0  0  0  0
    1.5237    2.8934    2.8954 H   0  0  0  0  0  0  0  0  0  0  0  0
    1.8175   -1.9228    1.5500 N   0  0  0  0  0  0  0  0  0  0  0  0
   -0.9338   -0.9795    2.5242 N   0  0  0  0  0  0  0  0  0  0  0  0
    3.6782   -0.7494    1.6744 C   0  0  0  0  0  0  0  0  0  0  0  0
    4.6650   -0.3205    1.8702 H   0  0  0  0  0  0  0  0  0  0  0  0
    2.5342    2.2400    1.0941 C   0  0  0  0  0  0  0  0  0  0  0  0
    3.0607   -1.8665    2.1680 C   0  0  0  0  0  0  0  0  0  0  0  0
    3.4048   -2.6260    2.8763 H   0  0  0  0  0  0  0  0  0  0  0  0
  1 50  1  0  0  0  0
  2 24  1  0  0  0  0
  2  6  1  0  0  0  0
  3 10  1  0  0  0  0
  4  3  1  0  0  0  0
  4 49  1  0  0  0  0
  5  1  1  0  0  0  0
  5 48  1  0  0  0  0
  6  3  1  0  0  0  0
  7  2  2  0  0  0  0
  8  7  1  0  0  0  0
  9  1  1  0  0  0  0
  9 52  1  0  0  0  0
 10 11  1  0  0  0  0
 10 29  2  0  0  0  0
 12 14  1  0  0  0  0
 13 12  1  0  0  0  0
 15 12  1  0  0  0  0
 16  6  2  0  0  0  0
 16 12  1  0  0  0  0
 17 18  1  0  0  0  0
 17 19  1  0  0  0  0
 20  7  1  0  0  0  0
 20 22  2  0  0  0  0
 21 20  1  0  0  0  0
 22 16  1  0  0  0  0
 23 22  1  0  0  0  0
 24 25  1  0  0  0  0
 26 24  1  0  0  0  0
 27 24  1  0  0  0  0
 28  9  2  0  0  0  0
 29 30  1  0  0  0  0
 31 28  1  0  0  0  0
 31 40  2  0  0  0  0
 32 31  1  0  0  0  0
 33 34  1  0  0  0  0
 33 17  1  0  0  0  0
 35 33  1  0  0  0  0
 36 37  1  0  0  0  0
 36 28  1  0  0  0  0
 38 36  1  0  0  0  0
 39 36  1  0  0  0  0
 40 42  1  0  0  0  0
 41 40  1  0  0  0  0
 42 52  2  0  0  0  0
 42 43  1  0  0  0  0
 44 47  1  0  0  0  0
 44 46  1  0  0  0  0
 45 44  1  0  0  0  0
 48 33  1  0  0  0  0
 48 53  1  0  0  0  0
 49 17  1  0  0  0  0
 49 29  1  0  0  0  0
 50 51  1  0  0  0  0
 50 53  2  0  0  0  0
 52 44  1  0  0  0  0
 53 54  1  0  0  0  0
M  END
