4,7
 OpenBabel05122313053D

 61 65  0  0  0  0  0  0  0  0999 V2000
   -0.8125   -1.9167    1.9106 N   0  0  0  0  0  0  0  0  0  0  0  0
   -2.0549    2.0804    1.1481 N   0  0  0  0  0  0  0  0  0  0  0  0
   -0.1120    2.4085    0.2369 N   0  0  0  0  0  0  0  0  0  0  0  0
   -0.3789   -1.4700    0.6894 C   0  0  0  0  0  2  0  0  0  0  0  0
    2.7457    0.2940   -0.2885 N   0  0  0  0  0  0  0  0  0  0  0  0
    0.7820   -2.1654    0.4690 N   0  0  0  0  0  0  0  0  0  0  0  0
   -1.1229    1.4867    0.3332 C   0  0  0  0  0  2  0  0  0  0  0  0
   -0.4030    3.5451    0.9825 C   0  0  0  0  0  0  0  0  0  0  0  0
    0.2840    4.3920    1.0522 H   0  0  0  0  0  0  0  0  0  0  0  0
    1.5533   -2.1717   -0.7801 C   0  0  0  0  0  0  0  0  0  0  0  0
    1.3050   -3.1002   -1.3315 H   0  0  0  0  0  0  0  0  0  0  0  0
    1.1874   -1.3170   -1.3776 H   0  0  0  0  0  0  0  0  0  0  0  0
   -3.4372    1.5936    1.3320 C   0  0  0  0  0  0  0  0  0  0  0  0
   -3.4071    0.5530    0.9448 H   0  0  0  0  0  0  0  0  0  0  0  0
    3.0309   -2.0625   -0.5022 C   0  0  0  0  0  0  0  0  0  0  0  0
    4.9713   -0.6283    0.1597 C   0  0  0  0  0  0  0  0  0  0  0  0
    0.0466   -2.8781    2.4290 C   0  0  0  0  0  0  0  0  0  0  0  0
   -0.1189   -3.3613    3.3947 H   0  0  0  0  0  0  0  0  0  0  0  0
    3.8803   -3.1572   -0.4954 C   0  0  0  0  0  0  0  0  0  0  0  0
    3.4801   -4.1506   -0.7543 H   0  0  0  0  0  0  0  0  0  0  0  0
    3.5696   -0.7597   -0.1967 C   0  0  0  0  0  0  0  0  0  0  0  0
    0.9307    2.3594   -0.7943 C   0  0  0  0  0  0  0  0  0  0  0  0
    0.8815    1.3434   -1.2252 H   0  0  0  0  0  0  0  0  0  0  0  0
    0.6421    3.0799   -1.5871 H   0  0  0  0  0  0  0  0  0  0  0  0
   -1.6266    3.3390    1.5558 C   0  0  0  0  0  0  0  0  0  0  0  0
   -2.2196    3.9784    2.2151 H   0  0  0  0  0  0  0  0  0  0  0  0
    2.3268    2.6464   -0.2959 C   0  0  0  0  0  0  0  0  0  0  0  0
    1.0560   -3.0293    1.5197 C   0  0  0  0  0  0  0  0  0  0  0  0
    1.9504   -3.6574    1.5376 H   0  0  0  0  0  0  0  0  0  0  0  0
    3.2150    1.5311   -0.0668 C   0  0  0  0  0  0  0  0  0  0  0  0
    4.5900    1.7799    0.3335 C   0  0  0  0  0  0  0  0  0  0  0  0
    5.7952   -1.7987    0.1808 C   0  0  0  0  0  0  0  0  0  0  0  0
    6.8574   -1.6986    0.4532 H   0  0  0  0  0  0  0  0  0  0  0  0
    5.0194    3.1270    0.5507 C   0  0  0  0  0  0  0  0  0  0  0  0
    6.0563    3.3115    0.8726 H   0  0  0  0  0  0  0  0  0  0  0  0
    4.1493    4.1764    0.3267 C   0  0  0  0  0  0  0  0  0  0  0  0
    4.4868    5.2138    0.4702 H   0  0  0  0  0  0  0  0  0  0  0  0
    2.8149    3.9326   -0.1193 C   0  0  0  0  0  0  0  0  0  0  0  0
    2.1671    4.7939   -0.3478 H   0  0  0  0  0  0  0  0  0  0  0  0
    5.4446    0.6662    0.4428 C   0  0  0  0  0  0  0  0  0  0  0  0
    6.5000    0.8137    0.7247 H   0  0  0  0  0  0  0  0  0  0  0  0
   -3.8331    1.6058    2.8094 C   0  0  0  0  0  0  0  0  0  0  0  0
   -3.0814    1.0971    3.4432 H   0  0  0  0  0  0  0  0  0  0  0  0
   -3.9563    2.6410    3.1889 H   0  0  0  0  0  0  0  0  0  0  0  0
   -4.8059    1.0926    2.9406 H   0  0  0  0  0  0  0  0  0  0  0  0
   -2.1278   -1.5844    2.4789 C   0  0  0  0  0  0  0  0  0  0  0  0
   -2.3434   -0.5827    2.0669 H   0  0  0  0  0  0  0  0  0  0  0  0
   -4.4016    2.3902    0.4501 C   0  0  0  0  0  0  0  0  0  0  0  0
   -4.4381    3.4559    0.7576 H   0  0  0  0  0  0  0  0  0  0  0  0
   -4.0821    2.3228   -0.6096 H   0  0  0  0  0  0  0  0  0  0  0  0
   -5.4233    1.9708    0.5400 H   0  0  0  0  0  0  0  0  0  0  0  0
    5.2624   -3.0285   -0.1544 C   0  0  0  0  0  0  0  0  0  0  0  0
    5.9013   -3.9243   -0.1562 H   0  0  0  0  0  0  0  0  0  0  0  0
   -3.1885   -2.5602    1.9629 C   0  0  0  0  0  0  0  0  0  0  0  0
   -3.1677   -2.5969    0.8541 H   0  0  0  0  0  0  0  0  0  0  0  0
   -3.0063   -3.5836    2.3517 H   0  0  0  0  0  0  0  0  0  0  0  0
   -4.1966   -2.2395    2.2944 H   0  0  0  0  0  0  0  0  0  0  0  0
   -2.0727   -1.4959    4.0032 C   0  0  0  0  0  0  0  0  0  0  0  0
   -1.8973   -2.4860    4.4717 H   0  0  0  0  0  0  0  0  0  0  0  0
   -1.2794   -0.8004    4.3429 H   0  0  0  0  0  0  0  0  0  0  0  0
   -3.0445   -1.1289    4.3862 H   0  0  0  0  0  0  0  0  0  0  0  0
  1 17  1  0  0  0  0
  1 46  1  0  0  0  0
  2 13  1  0  0  0  0
  2 25  1  0  0  0  0
  3  7  1  0  0  0  0
  3  8  1  0  0  0  0
  4  1  1  0  0  0  0
  5 21  2  0  0  0  0
  5 30  1  0  0  0  0
  6  4  1  0  0  0  0
  6 28  1  0  0  0  0
  7  2  1  0  0  0  0
  8  9  1  0  0  0  0
  8 25  2  0  0  0  0
 10 15  1  0  0  0  0
 10  6  1  0  0  0  0
 11 10  1  0  0  0  0
 12 10  1  0  0  0  0
 13 42  1  0  0  0  0
 14 13  1  0  0  0  0
 15 19  2  0  0  0  0
 15 21  1  0  0  0  0
 16 32  1  0  0  0  0
 16 40  2  0  0  0  0
 17 18  1  0  0  0  0
 19 52  1  0  0  0  0
 20 19  1  0  0  0  0
 21 16  1  0  0  0  0
 22 27  1  0  0  0  0
 22  3  1  0  0  0  0
 23 22  1  0  0  0  0
 24 22  1  0  0  0  0
 25 26  1  0  0  0  0
 27 38  2  0  0  0  0
 27 30  1  0  0  0  0
 28 29  1  0  0  0  0
 28 17  2  0  0  0  0
 30 31  2  0  0  0  0
 31 40  1  0  0  0  0
 31 34  1  0  0  0  0
 32 33  1  0  0  0  0
 34 35  1  0  0  0  0
 36 37  1  0  0  0  0
 36 34  2  0  0  0  0
 38 36  1  0  0  0  0
 39 38  1  0  0  0  0
 40 41  1  0  0  0  0
 42 45  1  0  0  0  0
 42 44  1  0  0  0  0
 42 43  1  0  0  0  0
 46 58  1  0  0  0  0
 47 46  1  0  0  0  0
 48 51  1  0  0  0  0
 48 49  1  0  0  0  0
 48 13  1  0  0  0  0
 50 48  1  0  0  0  0
 52 32  2  0  0  0  0
 53 52  1  0  0  0  0
 54 57  1  0  0  0  0
 54 56  1  0  0  0  0
 54 46  1  0  0  0  0
 55 54  1  0  0  0  0
 58 60  1  0  0  0  0
 58 61  1  0  0  0  0
 58 59  1  0  0  0  0
M  END
