5,6
 OpenBabel05122313053D

 18 17  0  0  0  0  0  0  0  0999 V2000
   -2.4523    3.6079    0.0216 C   0  0  0  0  0  0  0  0  0  0  0  0
   -3.1879    3.4511   -0.7981 H   0  0  0  0  0  0  0  0  0  0  0  0
   -1.9837    4.5993   -0.1219 H   0  0  0  0  0  0  0  0  0  0  0  0
   -3.0099    3.6366    0.9860 H   0  0  0  0  0  0  0  0  0  0  0  0
   -1.6285    1.2802   -0.0327 C   0  0  0  0  0  2  0  0  0  0  0  0
   -1.6283   -1.2803    0.0327 C   0  0  0  0  0  2  0  0  0  0  0  0
   -2.4521   -3.6080   -0.0206 C   0  0  0  0  0  0  0  0  0  0  0  0
   -3.1866   -3.4517    0.8002 H   0  0  0  0  0  0  0  0  0  0  0  0
   -1.9833   -4.5995    0.1213 H   0  0  0  0  0  0  0  0  0  0  0  0
   -3.0112   -3.6359   -0.9842 H   0  0  0  0  0  0  0  0  0  0  0  0
   -1.4286    2.5849    0.0123 N   0  0  0  0  0  0  0  0  0  0  0  0
   -0.3544    2.8084    0.0071 H   0  0  0  0  0  0  0  0  0  0  0  0
   -2.8787    0.7101   -0.0717 N   0  0  0  0  0  0  0  0  0  0  0  0
   -3.6703    1.1491    0.4131 H   0  0  0  0  0  0  0  0  0  0  0  0
   -2.8787   -0.7102    0.0724 N   0  0  0  0  0  0  0  0  0  0  0  0
   -3.6702   -1.1492   -0.4127 H   0  0  0  0  0  0  0  0  0  0  0  0
   -1.4285   -2.5850   -0.0122 N   0  0  0  0  0  0  0  0  0  0  0  0
   -0.3540   -2.8083   -0.0073 H   0  0  0  0  0  0  0  0  0  0  0  0
  1  4  1  0  0  0  0
  2  1  1  0  0  0  0
  3  1  1  0  0  0  0
  5 11  1  0  0  0  0
  6 15  1  0  0  0  0
  7 17  1  0  0  0  0
  7  9  1  0  0  0  0
  7  8  1  0  0  0  0
 10  7  1  0  0  0  0
 11  1  1  0  0  0  0
 12 11  1  0  0  0  0
 13  5  1  0  0  0  0
 13 15  1  0  0  0  0
 13 14  1  0  0  0  0
 16 15  1  0  0  0  0
 17 18  1  0  0  0  0
 17  6  1  0  0  0  0
M  END
