3,9
 OpenBabel05122313053D

 16 16  0  0  0  0  0  0  0  0999 V2000
    1.8688    1.4336    0.7127 C   0  0  0  0  0  3  0  0  0  0  0  0
    1.3375    2.2626    1.2133 H   0  0  0  0  0  0  0  0  0  0  0  0
    1.8688    1.4337   -0.7124 C   0  0  0  0  0  3  0  0  0  0  0  0
    1.3375    2.2628   -1.2129 H   0  0  0  0  0  0  0  0  0  0  0  0
    2.8611    0.6744   -1.5185 C   0  0  0  0  0  0  0  0  0  0  0  0
    3.5706    1.2489   -2.1373 H   0  0  0  0  0  0  0  0  0  0  0  0
    2.8611   -0.6742   -1.5186 C   0  0  0  0  0  0  0  0  0  0  0  0
    3.5706   -1.2486   -2.1375 H   0  0  0  0  0  0  0  0  0  0  0  0
    1.8688   -1.4336   -0.7127 C   0  0  0  0  0  3  0  0  0  0  0  0
    1.3375   -2.2626   -1.2133 H   0  0  0  0  0  0  0  0  0  0  0  0
    1.8688   -1.4337    0.7124 C   0  0  0  0  0  3  0  0  0  0  0  0
    1.3375   -2.2628    1.2129 H   0  0  0  0  0  0  0  0  0  0  0  0
    2.8610   -0.6744    1.5185 C   0  0  0  0  0  0  0  0  0  0  0  0
    3.5705   -1.2489    2.1375 H   0  0  0  0  0  0  0  0  0  0  0  0
    2.8610    0.6742    1.5186 C   0  0  0  0  0  0  0  0  0  0  0  0
    3.5705    1.2486    2.1377 H   0  0  0  0  0  0  0  0  0  0  0  0
  1  2  1  0  0  0  0
  1 15  1  0  0  0  0
  3  1  1  0  0  0  0
  4  3  1  0  0  0  0
  5  3  1  0  0  0  0
  6  5  1  0  0  0  0
  7  5  2  0  0  0  0
  7  9  1  0  0  0  0
  8  7  1  0  0  0  0
  9 11  1  0  0  0  0
 10  9  1  0  0  0  0
 11 12  1  0  0  0  0
 11 13  1  0  0  0  0
 13 15  2  0  0  0  0
 13 14  1  0  0  0  0
 15 16  1  0  0  0  0
M  END
