2,10
 OpenBabel05122313053D

 37 39  0  0  0  0  0  0  0  0999 V2000
    1.2955    1.0561   -0.1247 C   0  0  0  0  0  0  0  0  0  0  0  0
    0.8735   -0.2429   -0.2967 C   0  0  0  0  0  3  0  0  0  0  0  0
    2.7907   -1.6140    0.6109 C   0  0  0  0  0  0  0  0  0  0  0  0
    3.5986   -2.7585    0.5822 C   0  0  0  0  0  0  0  0  0  0  0  0
    3.4097   -3.7386   -0.4061 C   0  0  0  0  0  0  0  0  0  0  0  0
    2.4008   -3.5580   -1.3669 C   0  0  0  0  0  0  0  0  0  0  0  0
    1.5795   -2.4240   -1.3275 C   0  0  0  0  0  0  0  0  0  0  0  0
    1.7557   -1.4209   -0.3416 C   0  0  0  0  0  0  0  0  0  0  0  0
    0.2318    2.0676   -0.1757 C   0  0  0  0  0  0  0  0  0  0  0  0
   -1.0692    1.5395   -0.4114 C   0  0  0  0  0  3  0  0  0  0  0  0
   -2.1433    2.4102   -0.6097 C   0  0  0  0  0  0  0  0  0  0  0  0
   -1.9803    3.8167   -0.5375 C   0  0  0  0  0  0  0  0  0  0  0  0
   -0.6951    4.3229   -0.2685 C   0  0  0  0  0  0  0  0  0  0  0  0
    0.4036    3.4645   -0.1017 C   0  0  0  0  0  0  0  0  0  0  0  0
    3.6712    1.1232   -0.9752 C   0  0  0  0  0  0  0  0  0  0  0  0
    5.0181    1.4808   -0.8276 C   0  0  0  0  0  0  0  0  0  0  0  0
    5.4442    2.1812    0.3128 C   0  0  0  0  0  0  0  0  0  0  0  0
    4.5103    2.5259    1.3028 C   0  0  0  0  0  0  0  0  0  0  0  0
    3.1613    2.1704    1.1537 C   0  0  0  0  0  0  0  0  0  0  0  0
    2.7222    1.4566    0.0158 C   0  0  0  0  0  0  0  0  0  0  0  0
   -3.1586    4.7312   -0.7624 C   0  0  0  0  0  0  0  0  0  0  0  0
    2.9577   -0.8478    1.3810 H   0  0  0  0  0  0  0  0  0  0  0  0
    4.3879   -2.8841    1.3397 H   0  0  0  0  0  0  0  0  0  0  0  0
    4.0457   -4.6366   -0.4283 H   0  0  0  0  0  0  0  0  0  0  0  0
    2.2472   -4.3133   -2.1533 H   0  0  0  0  0  0  0  0  0  0  0  0
    0.7838   -2.2973   -2.0754 H   0  0  0  0  0  0  0  0  0  0  0  0
   -3.1443    2.0051   -0.8331 H   0  0  0  0  0  0  0  0  0  0  0  0
   -0.5465    5.4130   -0.2083 H   0  0  0  0  0  0  0  0  0  0  0  0
    1.4064    3.8848    0.0685 H   0  0  0  0  0  0  0  0  0  0  0  0
    3.3367    0.5718   -1.8663 H   0  0  0  0  0  0  0  0  0  0  0  0
    5.7428    1.2111   -1.6113 H   0  0  0  0  0  0  0  0  0  0  0  0
    6.5025    2.4606    0.4286 H   0  0  0  0  0  0  0  0  0  0  0  0
    4.8350    3.0742    2.2008 H   0  0  0  0  0  0  0  0  0  0  0  0
    2.4329    2.4325    1.9368 H   0  0  0  0  0  0  0  0  0  0  0  0
   -2.8901    5.7928   -0.5975 H   0  0  0  0  0  0  0  0  0  0  0  0
   -3.5483    4.6401   -1.7988 H   0  0  0  0  0  0  0  0  0  0  0  0
   -4.0026    4.4850   -0.0838 H   0  0  0  0  0  0  0  0  0  0  0  0
  1 20  1  0  0  0  0
  2  1  2  0  0  0  0
  3 22  1  0  0  0  0
  4  3  1  0  0  0  0
  4 23  1  0  0  0  0
  5  4  2  0  0  0  0
  6  7  2  0  0  0  0
  6  5  1  0  0  0  0
  7  8  1  0  0  0  0
  8  2  1  0  0  0  0
  8  3  2  0  0  0  0
  9  1  1  0  0  0  0
  9 14  1  0  0  0  0
 10  9  2  0  0  0  0
 11 12  2  0  0  0  0
 11 10  1  0  0  0  0
 12 13  1  0  0  0  0
 13 28  1  0  0  0  0
 13 14  2  0  0  0  0
 14 29  1  0  0  0  0
 15 16  2  0  0  0  0
 15 20  1  0  0  0  0
 16 17  1  0  0  0  0
 17 32  1  0  0  0  0
 17 18  2  0  0  0  0
 18 33  1  0  0  0  0
 19 18  1  0  0  0  0
 19 34  1  0  0  0  0
 20 19  2  0  0  0  0
 21 35  1  0  0  0  0
 21 12  1  0  0  0  0
 21 37  1  0  0  0  0
 24  5  1  0  0  0  0
 25  6  1  0  0  0  0
 26  7  1  0  0  0  0
 27 11  1  0  0  0  0
 30 15  1  0  0  0  0
 31 16  1  0  0  0  0
 36 21  1  0  0  0  0
M  END
