1,9
 OpenBabel05122313053D

 27 27  0  0  0  0  0  0  0  0999 V2000
   -0.6807   -0.2593   -0.3055 C   0  0  0  0  0  3  0  0  0  0  0  0
   -1.5880    0.8187   -0.3908 C   0  0  0  0  0  0  0  0  0  0  0  0
   -2.9778    0.6246   -0.1982 C   0  0  0  0  0  0  0  0  0  0  0  0
   -3.4997   -0.6671    0.0930 C   0  0  0  0  0  0  0  0  0  0  0  0
   -2.6229   -1.7583    0.1440 C   0  0  0  0  0  0  0  0  0  0  0  0
   -2.9537   -2.7871    0.3467 H   0  0  0  0  0  0  0  0  0  0  0  0
   -1.2529   -1.5367   -0.0793 C   0  0  0  0  0  0  0  0  0  0  0  0
   -0.2651   -2.6519   -0.1385 C   0  0  0  0  0  0  0  0  0  0  0  0
    0.9753   -2.2005   -0.8657 C   0  0  0  0  0  3  0  0  0  0  0  0
    0.7591   -2.1035   -1.9535 H   0  0  0  0  0  0  0  0  0  0  0  0
    1.8120   -2.9179   -0.7207 H   0  0  0  0  0  0  0  0  0  0  0  0
   -1.5062    2.6206   -1.9274 C   0  0  0  0  0  0  0  0  0  0  0  0
   -1.0483    3.6264   -2.0141 H   0  0  0  0  0  0  0  0  0  0  0  0
   -2.6070    2.7107   -2.0348 H   0  0  0  0  0  0  0  0  0  0  0  0
   -1.1049    1.9700   -2.7367 H   0  0  0  0  0  0  0  0  0  0  0  0
   -4.3222    2.2207    0.8973 C   0  0  0  0  0  0  0  0  0  0  0  0
   -4.9655    3.0852    0.6423 H   0  0  0  0  0  0  0  0  0  0  0  0
   -3.4904    2.5694    1.5505 H   0  0  0  0  0  0  0  0  0  0  0  0
   -4.9276    1.4679    1.4468 H   0  0  0  0  0  0  0  0  0  0  0  0
   -5.4105   -1.9961    0.5626 C   0  0  0  0  0  0  0  0  0  0  0  0
   -6.4988   -1.8416    0.6865 H   0  0  0  0  0  0  0  0  0  0  0  0
   -4.9967   -2.4407    1.4960 H   0  0  0  0  0  0  0  0  0  0  0  0
   -5.2379   -2.7133   -0.2713 H   0  0  0  0  0  0  0  0  0  0  0  0
   -0.4330   -3.7742    0.3375 O   0  0  0  0  0  0  0  0  0  0  0  0
   -4.8519   -0.7269    0.2881 O   0  0  0  0  0  0  0  0  0  0  0  0
   -3.8291    1.6966   -0.3302 O   0  0  0  0  0  0  0  0  0  0  0  0
   -1.1492    2.1124   -0.6436 O   0  0  0  0  0  0  0  0  0  0  0  0
  1  7  1  0  0  0  0
  2  1  2  0  0  0  0
  2  3  1  0  0  0  0
  3  4  2  0  0  0  0
  4  5  1  0  0  0  0
  4 25  1  0  0  0  0
  5  6  1  0  0  0  0
  7  5  2  0  0  0  0
  8  7  1  0  0  0  0
  8 24  2  0  0  0  0
  9 11  1  0  0  0  0
  9  8  1  0  0  0  0
 10  9  1  0  0  0  0
 12 27  1  0  0  0  0
 13 12  1  0  0  0  0
 14 12  1  0  0  0  0
 15 12  1  0  0  0  0
 16 19  1  0  0  0  0
 16 18  1  0  0  0  0
 17 16  1  0  0  0  0
 20 21  1  0  0  0  0
 20 22  1  0  0  0  0
 23 20  1  0  0  0  0
 25 20  1  0  0  0  0
 26  3  1  0  0  0  0
 26 16  1  0  0  0  0
 27  2  1  0  0  0  0
M  END
