2,12
 OpenBabel05122313053D

 35 37  0  0  0  0  0  0  0  0999 V2000
   -1.2460    1.9995    0.0838 N   0  0  0  0  0  0  0  0  0  0  0  0
    2.3329   -0.2250   -0.1061 C   0  0  0  0  0  3  0  0  0  0  0  0
    3.5517   -0.8994   -0.1963 C   0  0  0  0  0  0  0  0  0  0  0  0
    4.7976   -0.2147   -0.1944 C   0  0  0  0  0  0  0  0  0  0  0  0
    4.8322    1.1680   -0.0971 C   0  0  0  0  0  0  0  0  0  0  0  0
    3.6289    3.3382    0.1024 C   0  0  0  0  0  0  0  0  0  0  0  0
    2.4395    4.0515    0.1963 C   0  0  0  0  0  0  0  0  0  0  0  0
    1.1999    3.3732    0.1863 C   0  0  0  0  0  0  0  0  0  0  0  0
    1.1381    1.9802    0.0843 C   0  0  0  0  0  0  0  0  0  0  0  0
    2.3583    1.2132   -0.0091 C   0  0  0  0  0  0  0  0  0  0  0  0
    3.6227    1.9174   -0.0015 C   0  0  0  0  0  0  0  0  0  0  0  0
   -0.1788    1.2616    0.0633 C   0  0  0  0  0  3  0  0  0  0  0  0
   -2.5536    1.5210    0.0628 C   0  0  0  0  0  0  0  0  0  0  0  0
   -3.2515    1.5046   -1.1854 C   0  0  0  0  0  0  0  0  0  0  0  0
   -2.5902    2.0750   -2.4126 C   0  0  0  0  0  0  0  0  0  0  0  0
   -4.5644    1.0081   -1.2243 C   0  0  0  0  0  0  0  0  0  0  0  0
   -5.2158    0.5770   -0.0572 C   0  0  0  0  0  0  0  0  0  0  0  0
   -4.5654    0.7103    1.1755 C   0  0  0  0  0  0  0  0  0  0  0  0
   -3.2487    1.2042    1.2661 C   0  0  0  0  0  0  0  0  0  0  0  0
   -2.6457    1.4960    2.6197 C   0  0  0  0  0  0  0  0  0  0  0  0
    3.5673   -2.0020   -0.2689 H   0  0  0  0  0  0  0  0  0  0  0  0
    5.7364   -0.7862   -0.2684 H   0  0  0  0  0  0  0  0  0  0  0  0
    5.7922    1.7080   -0.0917 H   0  0  0  0  0  0  0  0  0  0  0  0
    4.5976    3.8634    0.1074 H   0  0  0  0  0  0  0  0  0  0  0  0
    2.4607    5.1495    0.2769 H   0  0  0  0  0  0  0  0  0  0  0  0
    0.2474    3.9209    0.2532 H   0  0  0  0  0  0  0  0  0  0  0  0
   -3.3121    2.1753   -3.2459 H   0  0  0  0  0  0  0  0  0  0  0  0
   -1.7421    1.4594   -2.7735 H   0  0  0  0  0  0  0  0  0  0  0  0
   -2.1593    3.0725   -2.1858 H   0  0  0  0  0  0  0  0  0  0  0  0
   -5.0912    0.9800   -2.1918 H   0  0  0  0  0  0  0  0  0  0  0  0
   -6.2427    0.1852   -0.1058 H   0  0  0  0  0  0  0  0  0  0  0  0
   -5.0957    0.4501    2.1064 H   0  0  0  0  0  0  0  0  0  0  0  0
   -2.5154    0.5854    3.2400 H   0  0  0  0  0  0  0  0  0  0  0  0
   -3.3139    2.1709    3.1941 H   0  0  0  0  0  0  0  0  0  0  0  0
   -1.6640    1.9954    2.5252 H   0  0  0  0  0  0  0  0  0  0  0  0
  2 10  1  0  0  0  0
  3  4  1  0  0  0  0
  3  2  2  0  0  0  0
  4  5  2  0  0  0  0
  5 23  1  0  0  0  0
  5 11  1  0  0  0  0
  6 24  1  0  0  0  0
  6  7  1  0  0  0  0
  7 25  1  0  0  0  0
  8  7  2  0  0  0  0
  8 26  1  0  0  0  0
  9  8  1  0  0  0  0
 10 11  1  0  0  0  0
 10  9  2  0  0  0  0
 11  6  2  0  0  0  0
 12  1  2  0  0  0  0
 12  9  1  0  0  0  0
 13  1  1  0  0  0  0
 13 19  1  0  0  0  0
 14 13  2  0  0  0  0
 15 29  1  0  0  0  0
 15 14  1  0  0  0  0
 16 14  1  0  0  0  0
 16 17  2  0  0  0  0
 17 18  1  0  0  0  0
 18 19  2  0  0  0  0
 18 32  1  0  0  0  0
 19 20  1  0  0  0  0
 20 34  1  0  0  0  0
 20 33  1  0  0  0  0
 21  3  1  0  0  0  0
 22  4  1  0  0  0  0
 27 15  1  0  0  0  0
 28 15  1  0  0  0  0
 30 16  1  0  0  0  0
 31 17  1  0  0  0  0
 35 20  1  0  0  0  0
M  END
