6,14
 OpenBabel05122313053D

 49 49  0  0  1  0  0  0  0  0999 V2000
    2.8617   -0.5015   -0.2135 N   0  0  0  0  0  0  0  0  0  0  0  0
   -2.9170    0.1616    1.3794 C   0  0  0  0  0  3  0  0  0  0  0  0
   -2.3813    0.4165    2.3107 H   0  0  0  0  0  0  0  0  0  0  0  0
   -3.6851    0.8817    1.0548 H   0  0  0  0  0  0  0  0  0  0  0  0
    2.1356    1.5395    0.2043 N   0  0  0  0  0  0  0  0  0  0  0  0
   -3.0130   -1.1905    0.9378 C   0  0  0  0  0  3  0  0  0  0  0  0
   -3.8726   -1.4579    0.2982 H   0  0  0  0  0  0  0  0  0  0  0  0
   -2.3060   -2.3312    1.6468 C   0  0  0  0  0  0  0  0  0  0  0  0
   -2.1859   -3.1711    0.9296 H   0  0  0  0  0  0  0  0  0  0  0  0
   -2.9272   -2.7181    2.4866 H   0  0  0  0  0  0  0  0  0  0  0  0
   -0.9328   -1.8564    2.1216 C   0  0  0  0  0  0  0  0  0  0  0  0
   -0.3347   -2.6989    2.5411 H   0  0  0  0  0  0  0  0  0  0  0  0
   -1.0575   -1.1381    2.9628 H   0  0  0  0  0  0  0  0  0  0  0  0
   -0.2129   -1.1634    0.9484 C   0  0  0  0  0  3  0  0  0  0  0  0
    0.1843   -1.9473    0.2699 H   0  0  0  0  0  0  0  0  0  0  0  0
    0.9605   -0.3158    1.5008 C   0  0  0  0  0  0  0  0  0  0  0  0
    0.5283    0.5388    2.0471 H   0  0  0  0  0  0  0  0  0  0  0  0
    1.5182   -0.8951    2.2700 H   0  0  0  0  0  0  0  0  0  0  0  0
    1.9537    0.2182    0.5204 C   0  0  2  0  0  3  0  0  0  0  0  0
    3.5277    0.3676   -1.0600 C   0  0  0  0  0  0  0  0  0  0  0  0
    4.2641    0.0317   -1.7895 H   0  0  0  0  0  0  0  0  0  0  0  0
    3.0828    1.6296   -0.7981 C   0  0  0  0  0  0  0  0  0  0  0  0
    3.3760    2.5722   -1.2573 H   0  0  0  0  0  0  0  0  0  0  0  0
    3.1157   -1.9929   -0.3058 C   0  0  0  0  0  0  0  0  0  0  0  0
    4.6239   -2.1980   -0.5589 C   0  0  0  0  0  0  0  0  0  0  0  0
    5.2384   -1.7060    0.2212 H   0  0  0  0  0  0  0  0  0  0  0  0
    4.9495   -1.8372   -1.5527 H   0  0  0  0  0  0  0  0  0  0  0  0
    4.8373   -3.2832   -0.5316 H   0  0  0  0  0  0  0  0  0  0  0  0
    2.3012   -2.5482   -1.4854 C   0  0  0  0  0  0  0  0  0  0  0  0
    1.2271   -2.3017   -1.3923 H   0  0  0  0  0  0  0  0  0  0  0  0
    2.4329   -3.6469   -1.5400 H   0  0  0  0  0  0  0  0  0  0  0  0
    2.6423   -2.1061   -2.4418 H   0  0  0  0  0  0  0  0  0  0  0  0
    2.7791   -2.7202    1.0043 C   0  0  0  0  0  0  0  0  0  0  0  0
    1.6957   -2.7595    1.2064 H   0  0  0  0  0  0  0  0  0  0  0  0
    3.3035   -2.2677    1.8689 H   0  0  0  0  0  0  0  0  0  0  0  0
    3.1316   -3.7648    0.9089 H   0  0  0  0  0  0  0  0  0  0  0  0
    1.4776    2.7576    0.8254 C   0  0  0  0  0  0  0  0  0  0  0  0
    2.0595    4.0203    0.1664 C   0  0  0  0  0  0  0  0  0  0  0  0
    1.8299    4.0640   -0.9157 H   0  0  0  0  0  0  0  0  0  0  0  0
    3.1525    4.1185    0.3204 H   0  0  0  0  0  0  0  0  0  0  0  0
    1.5780    4.8978    0.6368 H   0  0  0  0  0  0  0  0  0  0  0  0
    1.8363    2.8038    2.3230 C   0  0  0  0  0  0  0  0  0  0  0  0
    1.4156    1.9589    2.8973 H   0  0  0  0  0  0  0  0  0  0  0  0
    1.4308    3.7359    2.7621 H   0  0  0  0  0  0  0  0  0  0  0  0
    2.9358    2.8068    2.4635 H   0  0  0  0  0  0  0  0  0  0  0  0
   -0.0337    2.7473    0.5631 C   0  0  0  0  0  0  0  0  0  0  0  0
   -0.2411    2.7324   -0.5234 H   0  0  0  0  0  0  0  0  0  0  0  0
   -0.4826    3.6582    1.0051 H   0  0  0  0  0  0  0  0  0  0  0  0
   -0.5568    1.8645    0.9797 H   0  0  0  0  0  0  0  0  0  0  0  0
  1 19  1  0  0  0  0
  2  3  1  0  0  0  0
  4  2  1  0  0  0  0
  5 19  1  0  0  0  0
  5 37  1  0  0  0  0
  6  2  1  0  0  0  0
  6  8  1  0  0  0  0
  7  6  1  0  0  0  0
  8 11  1  0  0  0  0
  8 10  1  0  0  0  0
  9  8  1  0  0  0  0
 11 12  1  0  0  0  0
 11 13  1  0  0  0  0
 14 16  1  0  0  0  0
 14 11  1  0  0  0  0
 15 14  1  0  0  0  0
 16 17  1  0  0  0  0
 16 18  1  0  0  0  0
 19 16  1  1  0  0  0
 20 22  2  0  0  0  0
 20  1  1  0  0  0  0
 21 20  1  0  0  0  0
 22  5  1  0  0  0  0
 23 22  1  0  0  0  0
 24  1  1  0  0  0  0
 24 33  1  0  0  0  0
 25 28  1  0  0  0  0
 25 24  1  0  0  0  0
 25 26  1  0  0  0  0
 27 25  1  0  0  0  0
 29 30  1  0  0  0  0
 29 24  1  0  0  0  0
 31 29  1  0  0  0  0
 32 29  1  0  0  0  0
 33 34  1  0  0  0  0
 33 35  1  0  0  0  0
 36 33  1  0  0  0  0
 37 42  1  0  0  0  0
 38 40  1  0  0  0  0
 38 41  1  0  0  0  0
 38 37  1  0  0  0  0
 39 38  1  0  0  0  0
 42 45  1  0  0  0  0
 42 44  1  0  0  0  0
 42 43  1  0  0  0  0
 46 37  1  0  0  0  0
 46 49  1  0  0  0  0
 46 48  1  0  0  0  0
 47 46  1  0  0  0  0
M  END
