7,10
 OpenBabel05122313053D

 24 23  0  0  1  0  0  0  0  0999 V2000
    3.7079    2.0284   -1.3581 O   0  0  0  0  0  0  0  0  0  0  0  0
    3.0644    3.1861    0.4861 O   0  0  0  0  0  0  0  0  0  0  0  0
    5.8570   -2.3847   -0.5113 O   0  0  0  0  0  0  0  0  0  0  0  0
    4.0726   -3.3938    0.2595 O   0  0  0  0  0  0  0  0  0  0  0  0
    4.8194   -2.4203    0.1447 N   0  0  0  0  0  0  0  0  0  0  0  0
    3.2470    2.0342   -0.2249 C   0  0  0  0  0  0  0  0  0  0  0  0
    2.7897    0.8533    0.5495 C   0  0  0  0  0  3  0  0  0  0  0  0
    3.2450   -0.4913   -0.0026 C   0  0  2  0  0  0  0  0  0  0  0  0
    1.9721   -1.3089   -0.1259 C   0  0  0  0  0  3  0  0  0  0  0  0
    1.0880   -1.5340    0.9532 C   0  0  0  0  0  3  0  0  0  0  0  0
    1.0136   -0.6883    2.0967 C   0  0  0  0  0  3  0  0  0  0  0  0
    4.3716   -1.1484    0.8166 C   0  0  0  0  0  0  0  0  0  0  0  0
    3.3925    4.3880   -0.2122 C   0  0  0  0  0  0  0  0  0  0  0  0
    2.9634    1.0231    1.6268 H   0  0  0  0  0  0  0  0  0  0  0  0
    3.6379   -0.2967   -1.0230 H   0  0  0  0  0  0  0  0  0  0  0  0
    1.8471   -1.9527   -1.0103 H   0  0  0  0  0  0  0  0  0  0  0  0
    0.2920   -2.2799    0.7828 H   0  0  0  0  0  0  0  0  0  0  0  0
    1.9186   -0.2919    2.5776 H   0  0  0  0  0  0  0  0  0  0  0  0
    0.1647   -0.8337    2.7826 H   0  0  0  0  0  0  0  0  0  0  0  0
    5.2534   -0.4855    0.8686 H   0  0  0  0  0  0  0  0  0  0  0  0
    4.0222   -1.4319    1.8272 H   0  0  0  0  0  0  0  0  0  0  0  0
    2.7826    4.4914   -1.1335 H   0  0  0  0  0  0  0  0  0  0  0  0
    3.1780    5.2180    0.4851 H   0  0  0  0  0  0  0  0  0  0  0  0
    4.4611    4.4003   -0.5095 H   0  0  0  0  0  0  0  0  0  0  0  0
  1  6  2  0  0  0  0
  3  5  2  0  0  0  0
  5  4  2  0  0  0  0
  5 12  1  0  0  0  0
  6  2  1  0  0  0  0
  6  7  1  0  0  0  0
  7 14  1  0  0  0  0
  8 15  1  6  0  0  0
  8  7  1  0  0  0  0
  8 12  1  0  0  0  0
  9  8  1  0  0  0  0
  9 10  1  0  0  0  0
 10 11  1  0  0  0  0
 11 18  1  0  0  0  0
 11 19  1  0  0  0  0
 12 20  1  0  0  0  0
 12 21  1  0  0  0  0
 13 23  1  0  0  0  0
 13  2  1  0  0  0  0
 16  9  1  0  0  0  0
 17 10  1  0  0  0  0
 22 13  1  0  0  0  0
 24 13  1  0  0  0  0
M  END
