2,7
 OpenBabel05122313053D

 54 56  0  0  1  0  0  0  0  0999 V2000
   -1.6071   -0.0001    1.4779 P   0  0  2  0  0  0  0  0  0  0  0  0
   -0.6148    1.3434    0.6811 C   0  0  2  0  0  3  0  0  0  0  0  0
   -0.4867    1.7514   -0.7011 C   0  0  0  0  0  0  0  0  0  0  0  0
    0.7319    2.5047   -0.8205 C   0  0  0  0  0  0  0  0  0  0  0  0
    1.3764    2.5344    0.4522 C   0  0  0  0  0  0  0  0  0  0  0  0
    0.5513    1.8228    1.3855 C   0  0  0  0  0  0  0  0  0  0  0  0
   -0.6148   -1.3436    0.6810 C   0  0  1  0  0  3  0  0  0  0  0  0
   -0.4866   -1.7515   -0.7012 C   0  0  0  0  0  0  0  0  0  0  0  0
    0.7321   -2.5046   -0.8206 C   0  0  0  0  0  0  0  0  0  0  0  0
    1.3767   -2.5342    0.4522 C   0  0  0  0  0  0  0  0  0  0  0  0
    0.5513   -1.8229    1.3855 C   0  0  0  0  0  0  0  0  0  0  0  0
   -1.4718    1.6468   -1.8290 C   0  0  0  0  0  0  0  0  0  0  0  0
    1.1592    3.2243   -2.0605 C   0  0  0  0  0  0  0  0  0  0  0  0
    2.6244    3.2737    0.8193 C   0  0  0  0  0  0  0  0  0  0  0  0
    0.8382    1.7379    2.8564 C   0  0  0  0  0  0  0  0  0  0  0  0
   -1.4718   -1.6470   -1.8290 C   0  0  0  0  0  0  0  0  0  0  0  0
    1.1596   -3.2241   -2.0605 C   0  0  0  0  0  0  0  0  0  0  0  0
    2.6248   -3.2734    0.8190 C   0  0  0  0  0  0  0  0  0  0  0  0
    0.8381   -1.7379    2.8564 C   0  0  0  0  0  0  0  0  0  0  0  0
   -3.2579   -0.0001    0.6829 C   0  0  0  0  0  0  0  0  0  0  0  0
   -3.9421   -1.2162    0.4658 C   0  0  0  0  0  0  0  0  0  0  0  0
   -5.2682   -1.2138    0.0099 C   0  0  0  0  0  0  0  0  0  0  0  0
   -5.9350   -0.0000   -0.2243 C   0  0  0  0  0  0  0  0  0  0  0  0
   -5.2680    1.2137    0.0095 C   0  0  0  0  0  0  0  0  0  0  0  0
   -3.9419    1.2161    0.4654 C   0  0  0  0  0  0  0  0  0  0  0  0
   -1.8711    2.6567   -2.0663 H   0  0  0  0  0  0  0  0  0  0  0  0
   -2.3321    1.0061   -1.5821 H   0  0  0  0  0  0  0  0  0  0  0  0
   -0.9941    1.2627   -2.7520 H   0  0  0  0  0  0  0  0  0  0  0  0
    1.1171    2.5598   -2.9463 H   0  0  0  0  0  0  0  0  0  0  0  0
    2.1943    3.6051   -1.9774 H   0  0  0  0  0  0  0  0  0  0  0  0
    0.4916    4.0913   -2.2542 H   0  0  0  0  0  0  0  0  0  0  0  0
    3.1823    3.6093   -0.0751 H   0  0  0  0  0  0  0  0  0  0  0  0
    3.3037    2.6354    1.4187 H   0  0  0  0  0  0  0  0  0  0  0  0
    2.3804    4.1729    1.4249 H   0  0  0  0  0  0  0  0  0  0  0  0
    1.8275    1.2815    3.0600 H   0  0  0  0  0  0  0  0  0  0  0  0
    0.0616    1.1555    3.3858 H   0  0  0  0  0  0  0  0  0  0  0  0
    0.8547    2.7594    3.2928 H   0  0  0  0  0  0  0  0  0  0  0  0
   -0.9942   -1.2626   -2.7519 H   0  0  0  0  0  0  0  0  0  0  0  0
   -2.3323   -1.0066   -1.5820 H   0  0  0  0  0  0  0  0  0  0  0  0
   -1.8708   -2.6570   -2.0665 H   0  0  0  0  0  0  0  0  0  0  0  0
    2.1956   -3.6027   -1.9782 H   0  0  0  0  0  0  0  0  0  0  0  0
    1.1154   -2.5604   -2.9467 H   0  0  0  0  0  0  0  0  0  0  0  0
    0.4936   -4.0926   -2.2529 H   0  0  0  0  0  0  0  0  0  0  0  0
    2.3806   -4.1747    1.4213 H   0  0  0  0  0  0  0  0  0  0  0  0
    3.3024   -2.6363    1.4216 H   0  0  0  0  0  0  0  0  0  0  0  0
    3.1845   -3.6056   -0.0755 H   0  0  0  0  0  0  0  0  0  0  0  0
    0.8549   -2.7595    3.2928 H   0  0  0  0  0  0  0  0  0  0  0  0
    0.0614   -1.1557    3.3858 H   0  0  0  0  0  0  0  0  0  0  0  0
    1.8273   -1.2812    3.0601 H   0  0  0  0  0  0  0  0  0  0  0  0
   -3.4240   -2.1721    0.6427 H   0  0  0  0  0  0  0  0  0  0  0  0
   -5.7843   -2.1698   -0.1671 H   0  0  0  0  0  0  0  0  0  0  0  0
   -6.9742    0.0000   -0.5859 H   0  0  0  0  0  0  0  0  0  0  0  0
   -5.7839    2.1698   -0.1679 H   0  0  0  0  0  0  0  0  0  0  0  0
   -3.4236    2.1720    0.6419 H   0  0  0  0  0  0  0  0  0  0  0  0
  1 20  1  6  0  0  0
  2  6  1  0  0  0  0
  2  1  1  6  0  0  0
  3  2  1  0  0  0  0
  4  3  2  0  0  0  0
  4  5  1  0  0  0  0
  5 14  1  0  0  0  0
  5  6  2  0  0  0  0
  6 15  1  0  0  0  0
  7 11  1  0  0  0  0
  7  1  1  6  0  0  0
  8  7  1  0  0  0  0
  9  8  2  0  0  0  0
  9 10  1  0  0  0  0
 10 18  1  0  0  0  0
 10 11  2  0  0  0  0
 11 19  1  0  0  0  0
 12 27  1  0  0  0  0
 12  3  1  0  0  0  0
 13 30  1  0  0  0  0
 13  4  1  0  0  0  0
 14 33  1  0  0  0  0
 14 34  1  0  0  0  0
 15 35  1  0  0  0  0
 15 37  1  0  0  0  0
 15 36  1  0  0  0  0
 16 39  1  0  0  0  0
 16  8  1  0  0  0  0
 17 41  1  0  0  0  0
 17  9  1  0  0  0  0
 18 44  1  0  0  0  0
 18 45  1  0  0  0  0
 19 49  1  0  0  0  0
 19 47  1  0  0  0  0
 19 48  1  0  0  0  0
 21 50  1  0  0  0  0
 21 20  1  0  0  0  0
 22 21  2  0  0  0  0
 23 24  2  0  0  0  0
 23 22  1  0  0  0  0
 24 25  1  0  0  0  0
 25 54  1  0  0  0  0
 25 20  2  0  0  0  0
 26 12  1  0  0  0  0
 28 12  1  0  0  0  0
 29 13  1  0  0  0  0
 31 13  1  0  0  0  0
 32 14  1  0  0  0  0
 38 16  1  0  0  0  0
 40 16  1  0  0  0  0
 42 17  1  0  0  0  0
 43 17  1  0  0  0  0
 46 18  1  0  0  0  0
 51 22  1  0  0  0  0
 52 23  1  0  0  0  0
 53 24  1  0  0  0  0
M  END
