3
 OpenBabel05122313053D

 55 57  0  0  1  0  0  0  0  0999 V2000
    3.5361    2.3981   -0.3070 Se  0  0  0  0  0  1  0  0  0  0  0  0
    2.4171    0.5957   -0.1102 P   0  0  2  0  0  4  0  0  0  0  0  0
    1.1362    0.2088   -1.3690 C   0  0  2  0  0  3  0  0  0  0  0  0
    0.2099    1.2105   -1.8632 C   0  0  0  0  0  0  0  0  0  0  0  0
   -0.8705    0.5223   -2.4986 C   0  0  0  0  0  0  0  0  0  0  0  0
   -0.6447   -0.8852   -2.3862 C   0  0  0  0  0  0  0  0  0  0  0  0
    0.5761   -1.0989   -1.6689 C   0  0  0  0  0  0  0  0  0  0  0  0
    1.2747    0.4215    1.3244 C   0  0  1  0  0  3  0  0  0  0  0  0
    0.3831    1.4888    1.7329 C   0  0  1  0  0  3  0  0  0  0  0  0
   -0.6347    0.9053    2.5604 C   0  0  0  0  0  0  0  0  0  0  0  0
   -0.4064   -0.4956    2.6450 C   0  0  0  0  0  0  0  0  0  0  0  0
    0.7520   -0.8237    1.8600 C   0  0  2  0  0  3  0  0  0  0  0  0
    0.3323    2.7070   -1.9078 C   0  0  0  0  0  0  0  0  0  0  0  0
   -1.9649    1.2086   -3.2510 C   0  0  0  0  0  0  0  0  0  0  0  0
   -1.4488   -1.9813   -3.0090 C   0  0  0  0  0  0  0  0  0  0  0  0
    1.1443   -2.4809   -1.5089 C   0  0  0  0  0  0  0  0  0  0  0  0
    0.5255    2.9751    1.5519 C   0  0  0  0  0  0  0  0  0  0  0  0
   -1.6463    1.6682    3.3584 C   0  0  0  0  0  0  0  0  0  0  0  0
   -1.1339   -1.4316    3.5597 C   0  0  0  0  0  0  0  0  0  0  0  0
    1.3507   -2.2033    1.8729 C   0  0  0  0  0  0  0  0  0  0  0  0
    3.6714   -0.7315   -0.0660 C   0  0  0  0  0  0  0  0  0  0  0  0
    4.3020   -1.0500    1.1532 C   0  0  0  0  0  0  0  0  0  0  0  0
    5.3940   -1.9284    1.1653 C   0  0  0  0  0  0  0  0  0  0  0  0
    5.8704   -2.4789   -0.0362 C   0  0  0  0  0  0  0  0  0  0  0  0
    5.2577   -2.1412   -1.2543 C   0  0  0  0  0  0  0  0  0  0  0  0
    4.1645   -1.2638   -1.2738 C   0  0  0  0  0  0  0  0  0  0  0  0
    0.4478    3.0334   -2.9638 H   0  0  0  0  0  0  0  0  0  0  0  0
    1.2137    3.0731   -1.3537 H   0  0  0  0  0  0  0  0  0  0  0  0
   -0.5820    3.1957   -1.5149 H   0  0  0  0  0  0  0  0  0  0  0  0
   -2.6950    0.4882   -3.6640 H   0  0  0  0  0  0  0  0  0  0  0  0
   -1.5464    1.7977   -4.0943 H   0  0  0  0  0  0  0  0  0  0  0  0
   -2.5180    1.9149   -2.5956 H   0  0  0  0  0  0  0  0  0  0  0  0
   -0.8447   -2.5282   -3.7637 H   0  0  0  0  0  0  0  0  0  0  0  0
   -2.3523   -1.5905   -3.5125 H   0  0  0  0  0  0  0  0  0  0  0  0
   -1.7793   -2.7202   -2.2475 H   0  0  0  0  0  0  0  0  0  0  0  0
    2.0113   -2.5259   -0.8339 H   0  0  0  0  0  0  0  0  0  0  0  0
    1.4849   -2.8643   -2.4953 H   0  0  0  0  0  0  0  0  0  0  0  0
    0.3722   -3.1822   -1.1343 H   0  0  0  0  0  0  0  0  0  0  0  0
   -0.4103    3.4383    1.1815 H   0  0  0  0  0  0  0  0  0  0  0  0
    1.3504    3.2315    0.8645 H   0  0  0  0  0  0  0  0  0  0  0  0
    0.7568    3.4420    2.5330 H   0  0  0  0  0  0  0  0  0  0  0  0
   -1.2542    1.8631    4.3810 H   0  0  0  0  0  0  0  0  0  0  0  0
   -2.5963    1.1099    3.4586 H   0  0  0  0  0  0  0  0  0  0  0  0
   -1.8829    2.6477    2.9023 H   0  0  0  0  0  0  0  0  0  0  0  0
   -2.2044   -1.1664    3.6474 H   0  0  0  0  0  0  0  0  0  0  0  0
   -0.6872   -1.3895    4.5777 H   0  0  0  0  0  0  0  0  0  0  0  0
   -1.0803   -2.4825    3.2182 H   0  0  0  0  0  0  0  0  0  0  0  0
    1.8584   -2.3851    2.8447 H   0  0  0  0  0  0  0  0  0  0  0  0
    2.1031   -2.3610    1.0870 H   0  0  0  0  0  0  0  0  0  0  0  0
    0.5708   -2.9812    1.7603 H   0  0  0  0  0  0  0  0  0  0  0  0
    3.9373   -0.6033    2.0909 H   0  0  0  0  0  0  0  0  0  0  0  0
    5.8805   -2.1808    2.1196 H   0  0  0  0  0  0  0  0  0  0  0  0
    6.7292   -3.1668   -0.0241 H   0  0  0  0  0  0  0  0  0  0  0  0
    5.6372   -2.5604   -2.1984 H   0  0  0  0  0  0  0  0  0  0  0  0
    3.6924   -0.9844   -2.2280 H   0  0  0  0  0  0  0  0  0  0  0  0
  2  1  1  6  0  0  0
  2 21  1  0  0  0  0
  3  2  1  1  0  0  0
  4  3  1  0  0  0  0
  5  6  1  0  0  0  0
  5  4  2  0  0  0  0
  6  7  2  0  0  0  0
  7 16  1  0  0  0  0
  7  3  1  0  0  0  0
  8  2  1  6  0  0  0
  8  9  1  0  0  0  0
  8 12  1  0  0  0  0
  9 17  1  1  0  0  0
  9 10  1  0  0  0  0
 10 11  2  0  0  0  0
 10 18  1  0  0  0  0
 11 19  1  0  0  0  0
 12 20  1  1  0  0  0
 12 11  1  0  0  0  0
 13  4  1  0  0  0  0
 13 29  1  0  0  0  0
 13 28  1  0  0  0  0
 14 32  1  0  0  0  0
 14  5  1  0  0  0  0
 15  6  1  0  0  0  0
 15 35  1  0  0  0  0
 16 38  1  0  0  0  0
 16 36  1  0  0  0  0
 17 41  1  0  0  0  0
 18 43  1  0  0  0  0
 18 42  1  0  0  0  0
 19 45  1  0  0  0  0
 19 46  1  0  0  0  0
 20 48  1  0  0  0  0
 21 22  1  0  0  0  0
 22 23  2  0  0  0  0
 22 51  1  0  0  0  0
 23 52  1  0  0  0  0
 24 53  1  0  0  0  0
 24 23  1  0  0  0  0
 25 24  2  0  0  0  0
 26 25  1  0  0  0  0
 26 21  2  0  0  0  0
 27 13  1  0  0  0  0
 30 14  1  0  0  0  0
 31 14  1  0  0  0  0
 33 15  1  0  0  0  0
 34 15  1  0  0  0  0
 37 16  1  0  0  0  0
 39 17  1  0  0  0  0
 40 17  1  0  0  0  0
 44 18  1  0  0  0  0
 47 19  1  0  0  0  0
 49 20  1  0  0  0  0
 50 20  1  0  0  0  0
 54 25  1  0  0  0  0
 55 26  1  0  0  0  0
M  END
