21,24
 OpenBabel05122313053D

 48 51  0  0  0  0  0  0  0  0999 V2000
   -3.1819   -2.0813    2.0901 F   0  0  0  0  0  0  0  0  0  0  0  0
   -5.8526   -2.1990    1.8342 F   0  0  0  0  0  0  0  0  0  0  0  0
   -7.0962   -1.1004   -0.3527 F   0  0  0  0  0  0  0  0  0  0  0  0
   -5.5910    0.1171   -2.2980 F   0  0  0  0  0  0  0  0  0  0  0  0
   -2.9156    0.2411   -2.0789 F   0  0  0  0  0  0  0  0  0  0  0  0
   -2.4425    1.2472    2.1353 F   0  0  0  0  0  0  0  0  0  0  0  0
   -3.7250    3.6375    2.0708 F   0  0  0  0  0  0  0  0  0  0  0  0
   -3.4154    5.3058   -0.0768 F   0  0  0  0  0  0  0  0  0  0  0  0
   -1.8222    4.5642   -2.1771 F   0  0  0  0  0  0  0  0  0  0  0  0
   -0.5608    2.1545   -2.1400 F   0  0  0  0  0  0  0  0  0  0  0  0
    0.5610    2.1545    2.1401 F   0  0  0  0  0  0  0  0  0  0  0  0
    1.8224    4.5642    2.1771 F   0  0  0  0  0  0  0  0  0  0  0  0
    3.4156    5.3056    0.0768 F   0  0  0  0  0  0  0  0  0  0  0  0
    3.7253    3.6371   -2.0707 F   0  0  0  0  0  0  0  0  0  0  0  0
    2.4426    1.2469   -2.1350 F   0  0  0  0  0  0  0  0  0  0  0  0
    3.1820   -2.0806   -2.0905 F   0  0  0  0  0  0  0  0  0  0  0  0
    5.8526   -2.1984   -1.8345 F   0  0  0  0  0  0  0  0  0  0  0  0
    7.0962   -1.1005    0.3529 F   0  0  0  0  0  0  0  0  0  0  0  0
    5.5908    0.1162    2.2986 F   0  0  0  0  0  0  0  0  0  0  0  0
    2.9155    0.2403    2.0794 F   0  0  0  0  0  0  0  0  0  0  0  0
   -1.4470   -0.8672    0.1389 C   0  0  0  0  0  0  0  0  0  0  0  0
   -0.7414    0.3152    0.0404 C   0  0  0  0  0  0  0  0  0  0  0  0
    0.7414    0.3152   -0.0402 C   0  0  0  0  0  0  0  0  0  0  0  0
    1.4469   -0.8672   -0.1388 C   0  0  0  0  0  0  0  0  0  0  0  0
   -2.9158   -0.8909    0.0336 C   0  0  0  0  0  0  0  0  0  0  0  0
   -3.7336   -1.5223    0.9978 C   0  0  0  0  0  0  0  0  0  0  0  0
   -5.1300   -1.5983    0.8843 C   0  0  0  0  0  0  0  0  0  0  0  0
   -5.7698   -1.0326   -0.2305 C   0  0  0  0  0  0  0  0  0  0  0  0
   -4.9966   -0.4073   -1.2229 C   0  0  0  0  0  0  0  0  0  0  0  0
   -3.6033   -0.3388   -1.0758 C   0  0  0  0  0  0  0  0  0  0  0  0
   -1.4450    1.6314    0.0048 C   0  0  0  0  0  0  0  0  0  0  0  0
   -2.2803    2.0357    1.0637 C   0  0  0  0  0  0  0  0  0  0  0  0
   -2.9467    3.2709    1.0487 C   0  0  0  0  0  0  0  0  0  0  0  0
   -2.7849    4.1310   -0.0510 C   0  0  0  0  0  0  0  0  0  0  0  0
   -1.9619    3.7516   -1.1259 C   0  0  0  0  0  0  0  0  0  0  0  0
   -1.3107    2.5104   -1.0862 C   0  0  0  0  0  0  0  0  0  0  0  0
    1.4450    1.6314   -0.0047 C   0  0  0  0  0  0  0  0  0  0  0  0
    1.3108    2.5104    1.0863 C   0  0  0  0  0  0  0  0  0  0  0  0
    1.9621    3.7515    1.1260 C   0  0  0  0  0  0  0  0  0  0  0  0
    2.7851    4.1309    0.0510 C   0  0  0  0  0  0  0  0  0  0  0  0
    2.9469    3.2707   -1.0486 C   0  0  0  0  0  0  0  0  0  0  0  0
    2.2804    2.0355   -1.0636 C   0  0  0  0  0  0  0  0  0  0  0  0
    2.9157   -0.8910   -0.0336 C   0  0  0  0  0  0  0  0  0  0  0  0
    3.7336   -1.5220   -0.9979 C   0  0  0  0  0  0  0  0  0  0  0  0
    5.1300   -1.5981   -0.8843 C   0  0  0  0  0  0  0  0  0  0  0  0
    5.7697   -1.0327    0.2307 C   0  0  0  0  0  0  0  0  0  0  0  0
    4.9965   -0.4079    1.2233 C   0  0  0  0  0  0  0  0  0  0  0  0
    3.6032   -0.3392    1.0761 C   0  0  0  0  0  0  0  0  0  0  0  0
  3 28  1  0  0  0  0
  4 29  1  0  0  0  0
  5 30  1  0  0  0  0
  8 34  1  0  0  0  0
  9 35  1  0  0  0  0
 10 36  1  0  0  0  0
 14 41  1  0  0  0  0
 15 42  1  0  0  0  0
 16 44  1  0  0  0  0
 17 45  1  0  0  0  0
 22 21  2  0  0  0  0
 23 37  1  0  0  0  0
 23 22  1  0  0  0  0
 24 23  2  0  0  0  0
 24 43  1  0  0  0  0
 25 21  1  0  0  0  0
 25 26  1  0  0  0  0
 26  1  1  0  0  0  0
 27 26  2  0  0  0  0
 27  2  1  0  0  0  0
 28 27  1  0  0  0  0
 29 30  1  0  0  0  0
 29 28  2  0  0  0  0
 30 25  2  0  0  0  0
 31 22  1  0  0  0  0
 31 32  1  0  0  0  0
 32  6  1  0  0  0  0
 33 32  2  0  0  0  0
 33  7  1  0  0  0  0
 34 33  1  0  0  0  0
 35 36  1  0  0  0  0
 35 34  2  0  0  0  0
 36 31  2  0  0  0  0
 37 38  1  0  0  0  0
 38 39  2  0  0  0  0
 38 11  1  0  0  0  0
 39 12  1  0  0  0  0
 40 13  1  0  0  0  0
 40 39  1  0  0  0  0
 41 40  2  0  0  0  0
 42 41  1  0  0  0  0
 42 37  2  0  0  0  0
 43 48  1  0  0  0  0
 44 45  1  0  0  0  0
 44 43  2  0  0  0  0
 45 46  2  0  0  0  0
 46 18  1  0  0  0  0
 46 47  1  0  0  0  0
 47 19  1  0  0  0  0
 48 47  2  0  0  0  0
 48 20  1  0  0  0  0
M  END
