4,9
 OpenBabel05122313053D

 18 18  0  0  0  0  0  0  0  0999 V2000
   -0.1984   -1.6410    2.9660 C   0  0  0  0  0  0  0  0  0  0  0  0
    0.5770   -0.5159    3.2896 C   0  0  0  0  0  0  0  0  0  0  0  0
    0.2031    0.1933    4.0433 H   0  0  0  0  0  0  0  0  0  0  0  0
    1.7389   -0.1722    2.5166 C   0  0  0  0  0  3  0  0  0  0  0  0
    2.3139    0.7255    2.7764 H   0  0  0  0  0  0  0  0  0  0  0  0
    2.3764   -1.2176    1.7068 C   0  0  0  0  0  0  0  0  0  0  0  0
    1.6110   -2.3296    1.3906 C   0  0  0  0  0  0  0  0  0  0  0  0
    2.0052   -3.0798    0.6891 H   0  0  0  0  0  0  0  0  0  0  0  0
    0.2266   -2.4374    1.8336 C   0  0  0  0  0  3  0  0  0  0  0  0
   -0.3554   -3.3236    1.5510 H   0  0  0  0  0  0  0  0  0  0  0  0
   -1.4988   -1.9323    3.6595 C   0  0  0  0  0  0  0  0  0  0  0  0
   -1.4365   -2.8909    4.2153 H   0  0  0  0  0  0  0  0  0  0  0  0
   -2.3244   -2.0241    2.9255 H   0  0  0  0  0  0  0  0  0  0  0  0
   -1.7652   -1.1299    4.3726 H   0  0  0  0  0  0  0  0  0  0  0  0
    3.7461   -0.9872    1.1405 C   0  0  0  0  0  0  0  0  0  0  0  0
    4.1086   -1.8703    0.5819 H   0  0  0  0  0  0  0  0  0  0  0  0
    4.4743   -0.7479    1.9427 H   0  0  0  0  0  0  0  0  0  0  0  0
    3.7275   -0.1263    0.4408 H   0  0  0  0  0  0  0  0  0  0  0  0
  1  2  2  0  0  0  0
  1 11  1  0  0  0  0
  2  3  1  0  0  0  0
  4  5  1  0  0  0  0
  4  2  1  0  0  0  0
  6  4  1  0  0  0  0
  7  6  2  0  0  0  0
  7  9  1  0  0  0  0
  8  7  1  0  0  0  0
  9  1  1  0  0  0  0
 10  9  1  0  0  0  0
 11 12  1  0  0  0  0
 11 14  1  0  0  0  0
 13 11  1  0  0  0  0
 15  6  1  0  0  0  0
 15 17  1  0  0  0  0
 16 15  1  0  0  0  0
 18 15  1  0  0  0  0
M  END
