5,43
 OpenBabel05122313053D

 46 47  0  0  0  0  0  0  0  0999 V2000
   -2.0387    2.4060   -0.4665 C   0  0  0  0  0  0  0  0  0  0  0  0
   -2.2146    2.7181   -1.5032 H   0  0  0  0  0  0  0  0  0  0  0  0
   -3.0300    1.9746    0.4559 C   0  0  0  0  0  0  0  0  0  0  0  0
   -4.1028    1.8895    0.2528 H   0  0  0  0  0  0  0  0  0  0  0  0
   -2.3735    1.5973    1.6612 C   0  0  0  0  0  3  0  0  0  0  0  0
   -2.8589    1.2223    2.5706 H   0  0  0  0  0  0  0  0  0  0  0  0
   -0.9712    1.8389    1.4864 C   0  0  0  0  0  0  0  0  0  0  0  0
   -0.1952    1.6820    2.2445 H   0  0  0  0  0  0  0  0  0  0  0  0
   -0.7567    2.3555    0.1753 C   0  0  0  0  0  0  0  0  0  0  0  0
    0.5418    2.8392   -0.4104 C   0  0  0  0  0  0  0  0  0  0  0  0
    0.5255    2.6614   -1.5058 H   0  0  0  0  0  0  0  0  0  0  0  0
    0.5801    3.9450   -0.2777 H   0  0  0  0  0  0  0  0  0  0  0  0
    1.7980    2.2100    0.1948 C   0  0  0  0  0  0  0  0  0  0  0  0
    1.7655    1.1122    0.0282 H   0  0  0  0  0  0  0  0  0  0  0  0
    1.8029    2.3564    1.2980 H   0  0  0  0  0  0  0  0  0  0  0  0
    3.1010    2.7701   -0.3772 C   0  0  0  0  0  0  0  0  0  0  0  0
    3.1081    2.6343   -1.4818 H   0  0  0  0  0  0  0  0  0  0  0  0
    3.1403    3.8679   -0.2044 H   0  0  0  0  0  0  0  0  0  0  0  0
    4.3610    2.1185    0.2290 C   0  0  0  0  0  0  0  0  0  0  0  0
    5.2518    2.6946   -0.1056 H   0  0  0  0  0  0  0  0  0  0  0  0
    4.3251    2.2090    1.3368 H   0  0  0  0  0  0  0  0  0  0  0  0
    4.5313    0.6766   -0.1576 C   0  0  0  0  0  0  0  0  0  0  0  0
    4.7445    0.4846   -1.2273 H   0  0  0  0  0  0  0  0  0  0  0  0
    4.4208   -0.3832    0.6682 C   0  0  0  0  0  0  0  0  0  0  0  0
    4.1907   -0.1961    1.7358 H   0  0  0  0  0  0  0  0  0  0  0  0
    4.5442   -1.8244    0.2569 C   0  0  0  0  0  0  0  0  0  0  0  0
    5.2330   -2.3502    0.9538 H   0  0  0  0  0  0  0  0  0  0  0  0
    5.0072   -1.8848   -0.7521 H   0  0  0  0  0  0  0  0  0  0  0  0
    3.1930   -2.5696    0.2370 C   0  0  0  0  0  0  0  0  0  0  0  0
    3.3785   -3.6568    0.0962 H   0  0  0  0  0  0  0  0  0  0  0  0
    2.7069   -2.4778    1.2332 H   0  0  0  0  0  0  0  0  0  0  0  0
    2.2552   -2.0692   -0.8664 C   0  0  0  0  0  0  0  0  0  0  0  0
    2.7293   -2.2751   -1.8500 H   0  0  0  0  0  0  0  0  0  0  0  0
    2.1629   -0.9639   -0.8183 H   0  0  0  0  0  0  0  0  0  0  0  0
    0.8544   -2.6890   -0.8633 C   0  0  0  0  0  0  0  0  0  0  0  0
    0.3784   -2.5171   -1.8505 H   0  0  0  0  0  0  0  0  0  0  0  0
    0.9317   -3.7937   -0.7484 H   0  0  0  0  0  0  0  0  0  0  0  0
   -0.0850   -2.1884    0.2031 C   0  0  0  0  0  0  0  0  0  0  0  0
   -1.4401   -2.6016    0.3579 C   0  0  0  0  0  0  0  0  0  0  0  0
   -1.9831   -3.2669   -0.3242 H   0  0  0  0  0  0  0  0  0  0  0  0
   -1.9757   -2.0062    1.5412 C   0  0  0  0  0  0  0  0  0  0  0  0
   -2.9944   -2.1433    1.9236 H   0  0  0  0  0  0  0  0  0  0  0  0
   -0.9607   -1.1944    2.1143 C   0  0  0  0  0  3  0  0  0  0  0  0
   -1.0395   -0.6211    3.0449 H   0  0  0  0  0  0  0  0  0  0  0  0
    0.1915   -1.2702    1.2689 C   0  0  0  0  0  0  0  0  0  0  0  0
    1.1442   -0.7546    1.4390 H   0  0  0  0  0  0  0  0  0  0  0  0
  1  9  1  0  0  0  0
  1  3  2  0  0  0  0
  2  1  1  0  0  0  0
  3  5  1  0  0  0  0
  4  3  1  0  0  0  0
  5  6  1  0  0  0  0
  7  5  1  0  0  0  0
  7  8  1  0  0  0  0
  9  7  2  0  0  0  0
 10 12  1  0  0  0  0
 10  9  1  0  0  0  0
 10 13  1  0  0  0  0
 11 10  1  0  0  0  0
 13 15  1  0  0  0  0
 14 13  1  0  0  0  0
 16 18  1  0  0  0  0
 16 13  1  0  0  0  0
 16 19  1  0  0  0  0
 17 16  1  0  0  0  0
 19 21  1  0  0  0  0
 20 19  1  0  0  0  0
 22 19  1  0  0  0  0
 22 24  2  0  0  0  0
 23 22  1  0  0  0  0
 24 25  1  0  0  0  0
 26 24  1  0  0  0  0
 26 27  1  0  0  0  0
 28 26  1  0  0  0  0
 29 26  1  0  0  0  0
 29 31  1  0  0  0  0
 30 29  1  0  0  0  0
 32 35  1  0  0  0  0
 32 34  1  0  0  0  0
 32 29  1  0  0  0  0
 33 32  1  0  0  0  0
 35 37  1  0  0  0  0
 35 38  1  0  0  0  0
 36 35  1  0  0  0  0
 38 39  1  0  0  0  0
 38 45  2  0  0  0  0
 39 41  2  0  0  0  0
 40 39  1  0  0  0  0
 41 42  1  0  0  0  0
 41 43  1  0  0  0  0
 43 44  1  0  0  0  0
 45 46  1  0  0  0  0
 45 43  1  0  0  0  0
M  END
