7,38
 OpenBabel05122313053D

 68 73  0  0  0  0  0  0  0  0999 V2000
   -2.3204    1.2742    2.5741 S   0  0  0  0  0  0  0  0  0  0  0  0
   -2.9940    2.3084    3.4597 O   0  0  0  0  0  0  0  0  0  0  0  0
   -2.0027    0.5204   -1.6507 N   0  0  0  0  0  0  0  0  0  0  0  0
   -3.1066   -0.3341    0.0302 N   0  0  0  0  0  0  0  0  0  0  0  0
    1.8799    0.4263    0.2050 N   0  0  0  0  0  0  0  0  0  0  0  0
    0.7737    0.1222    2.0738 N   0  0  0  0  0  0  0  0  0  0  0  0
   -1.8920   -0.3565   -0.6061 C   0  0  0  0  0  2  0  0  0  0  0  0
   -3.2702    1.1027   -1.6854 C   0  0  0  0  0  0  0  0  0  0  0  0
   -3.8480    2.0473   -2.5426 C   0  0  0  0  0  0  0  0  0  0  0  0
   -3.2802    2.4984   -3.3679 H   0  0  0  0  0  0  0  0  0  0  0  0
   -5.1833    2.3996   -2.2922 C   0  0  0  0  0  0  0  0  0  0  0  0
   -5.6741    3.1399   -2.9406 H   0  0  0  0  0  0  0  0  0  0  0  0
   -5.9094    1.8252   -1.2261 C   0  0  0  0  0  0  0  0  0  0  0  0
   -6.9558    2.1225   -1.0653 H   0  0  0  0  0  0  0  0  0  0  0  0
   -5.3264    0.8845   -0.3628 C   0  0  0  0  0  0  0  0  0  0  0  0
   -5.8996    0.4393    0.4619 H   0  0  0  0  0  0  0  0  0  0  0  0
   -3.9893    0.5390   -0.6056 C   0  0  0  0  0  0  0  0  0  0  0  0
   -0.9266    0.8484   -2.5635 C   0  0  0  0  0  0  0  0  0  0  0  0
   -1.3338    0.8951   -3.5940 H   0  0  0  0  0  0  0  0  0  0  0  0
   -0.2284   -0.0150   -2.5343 H   0  0  0  0  0  0  0  0  0  0  0  0
   -0.1982    2.1306   -2.2065 C   0  0  0  0  0  0  0  0  0  0  0  0
   -0.1927    2.6284   -0.8894 C   0  0  0  0  0  0  0  0  0  0  0  0
   -0.7952    2.1357   -0.1112 H   0  0  0  0  0  0  0  0  0  0  0  0
    0.5946    3.7410   -0.5550 C   0  0  0  0  0  0  0  0  0  0  0  0
    0.6002    4.1093    0.4818 H   0  0  0  0  0  0  0  0  0  0  0  0
    1.3782    4.3731   -1.5327 C   0  0  0  0  0  0  0  0  0  0  0  0
    1.9992    5.2416   -1.2668 H   0  0  0  0  0  0  0  0  0  0  0  0
    1.3571    3.8977   -2.8546 C   0  0  0  0  0  0  0  0  0  0  0  0
    1.9563    4.3970   -3.6312 H   0  0  0  0  0  0  0  0  0  0  0  0
    0.5707    2.7852   -3.1892 C   0  0  0  0  0  0  0  0  0  0  0  0
    0.5655    2.4083   -4.2247 H   0  0  0  0  0  0  0  0  0  0  0  0
   -3.3906   -1.0637    1.2568 C   0  0  0  0  0  0  0  0  0  0  0  0
   -2.5539   -1.7774    1.3901 H   0  0  0  0  0  0  0  0  0  0  0  0
   -4.3049   -1.6770    1.1110 H   0  0  0  0  0  0  0  0  0  0  0  0
   -3.5719   -0.1215    2.4450 C   0  0  0  0  0  0  0  0  0  0  0  0
   -3.6018   -0.6651    3.4098 H   0  0  0  0  0  0  0  0  0  0  0  0
   -4.4959    0.4853    2.3648 H   0  0  0  0  0  0  0  0  0  0  0  0
    0.8218   -0.2451    0.7527 C   0  0  0  0  0  2  0  0  0  0  0  0
    2.4926    1.2436    1.1575 C   0  0  0  0  0  0  0  0  0  0  0  0
    3.5734    2.1336    1.0845 C   0  0  0  0  0  0  0  0  0  0  0  0
    4.1193    2.2919    0.1462 H   0  0  0  0  0  0  0  0  0  0  0  0
    3.9346    2.7977    2.2665 C   0  0  0  0  0  0  0  0  0  0  0  0
    4.7781    3.5033    2.2470 H   0  0  0  0  0  0  0  0  0  0  0  0
    3.2501    2.5723    3.4801 C   0  0  0  0  0  0  0  0  0  0  0  0
    3.5710    3.1022    4.3888 H   0  0  0  0  0  0  0  0  0  0  0  0
    2.1658    1.6840    3.5537 C   0  0  0  0  0  0  0  0  0  0  0  0
    1.6407    1.5097    4.5028 H   0  0  0  0  0  0  0  0  0  0  0  0
    1.7898    1.0353    2.3687 C   0  0  0  0  0  0  0  0  0  0  0  0
    2.3461    0.2485   -1.1707 C   0  0  0  0  0  0  0  0  0  0  0  0
    2.1089    1.1620   -1.7509 H   0  0  0  0  0  0  0  0  0  0  0  0
    1.7428   -0.5927   -1.5729 H   0  0  0  0  0  0  0  0  0  0  0  0
    3.8229   -0.0625   -1.2718 C   0  0  0  0  0  0  0  0  0  0  0  0
    4.6499    0.7268   -2.0933 C   0  0  0  0  0  0  0  0  0  0  0  0
    4.2127    1.5747   -2.6459 H   0  0  0  0  0  0  0  0  0  0  0  0
    6.0200    0.4433   -2.2071 C   0  0  0  0  0  0  0  0  0  0  0  0
    6.6577    1.0663   -2.8527 H   0  0  0  0  0  0  0  0  0  0  0  0
    6.5732   -0.6309   -1.4933 C   0  0  0  0  0  0  0  0  0  0  0  0
    7.6478   -0.8537   -1.5774 H   0  0  0  0  0  0  0  0  0  0  0  0
    5.7502   -1.4231   -0.6752 C   0  0  0  0  0  0  0  0  0  0  0  0
    6.1779   -2.2730   -0.1218 H   0  0  0  0  0  0  0  0  0  0  0  0
    4.3806   -1.1456   -0.5646 C   0  0  0  0  0  0  0  0  0  0  0  0
    3.7251   -1.7789    0.0572 H   0  0  0  0  0  0  0  0  0  0  0  0
   -0.0956   -0.5070    3.0583 C   0  0  0  0  0  0  0  0  0  0  0  0
    0.5445   -0.9586    3.8466 H   0  0  0  0  0  0  0  0  0  0  0  0
   -0.5892   -1.3523    2.5380 H   0  0  0  0  0  0  0  0  0  0  0  0
   -1.0884    0.4486    3.7048 C   0  0  0  0  0  0  0  0  0  0  0  0
   -0.5937    1.3380    4.1432 H   0  0  0  0  0  0  0  0  0  0  0  0
   -1.6693   -0.0449    4.5093 H   0  0  0  0  0  0  0  0  0  0  0  0
  1  2  2  0  0  0  0
  1 66  1  0  0  0  0
  3  7  1  0  0  0  0
  4 32  1  0  0  0  0
  5 38  1  0  0  0  0
  5 39  1  0  0  0  0
  6 48  1  0  0  0  0
  6 63  1  0  0  0  0
  7  4  1  0  0  0  0
  8  3  1  0  0  0  0
  8 17  1  0  0  0  0
  9 11  1  0  0  0  0
  9  8  2  0  0  0  0
 10  9  1  0  0  0  0
 11 13  2  0  0  0  0
 12 11  1  0  0  0  0
 13 14  1  0  0  0  0
 13 15  1  0  0  0  0
 15 16  1  0  0  0  0
 17 15  2  0  0  0  0
 17  4  1  0  0  0  0
 18 20  1  0  0  0  0
 18 21  1  0  0  0  0
 18  3  1  0  0  0  0
 19 18  1  0  0  0  0
 21 22  1  0  0  0  0
 22 24  2  0  0  0  0
 22 23  1  0  0  0  0
 24 25  1  0  0  0  0
 26 27  1  0  0  0  0
 26 24  1  0  0  0  0
 28 26  2  0  0  0  0
 29 28  1  0  0  0  0
 30 28  1  0  0  0  0
 30 21  2  0  0  0  0
 31 30  1  0  0  0  0
 32 33  1  0  0  0  0
 32 35  1  0  0  0  0
 34 32  1  0  0  0  0
 35  1  1  0  0  0  0
 35 36  1  0  0  0  0
 37 35  1  0  0  0  0
 38  6  1  0  0  0  0
 39 48  1  0  0  0  0
 40 39  2  0  0  0  0
 40 42  1  0  0  0  0
 41 40  1  0  0  0  0
 42 44  2  0  0  0  0
 43 42  1  0  0  0  0
 44 46  1  0  0  0  0
 44 45  1  0  0  0  0
 46 47  1  0  0  0  0
 48 46  2  0  0  0  0
 49  5  1  0  0  0  0
 50 49  1  0  0  0  0
 51 49  1  0  0  0  0
 52 49  1  0  0  0  0
 52 61  1  0  0  0  0
 53 52  2  0  0  0  0
 54 53  1  0  0  0  0
 55 53  1  0  0  0  0
 55 57  2  0  0  0  0
 56 55  1  0  0  0  0
 57 59  1  0  0  0  0
 58 57  1  0  0  0  0
 59 61  2  0  0  0  0
 59 60  1  0  0  0  0
 61 62  1  0  0  0  0
 63 66  1  0  0  0  0
 63 64  1  0  0  0  0
 65 63  1  0  0  0  0
 66 67  1  0  0  0  0
 66 68  1  0  0  0  0
M  END
