5,16
 OpenBabel05122313053D

 52 53  0  0  0  0  0  0  0  0999 V2000
    2.0976    1.5124    0.1866 N   0  0  0  0  0  0  0  0  0  0  0  0
    3.0103   -0.4338   -0.0648 N   0  0  0  0  0  0  0  0  0  0  0  0
   -0.4423   -1.4785   -1.8693 N   0  0  0  0  0  0  0  0  0  0  0  0
   -1.7445    0.1353   -1.2469 N   0  0  0  0  0  0  0  0  0  0  0  0
    1.8496    0.1785    0.3171 C   0  0  0  0  0  2  0  0  0  0  0  0
    3.9626    0.5028   -0.4465 C   0  0  0  0  0  0  0  0  0  0  0  0
    3.3853    1.7348   -0.2844 C   0  0  0  0  0  0  0  0  0  0  0  0
    1.1338    2.5737    0.4832 C   0  0  0  0  0  0  0  0  0  0  0  0
    0.5976    3.2526   -0.7795 C   0  0  0  0  0  0  0  0  0  0  0  0
   -0.3808    4.3985   -0.4828 C   0  0  0  0  0  0  0  0  0  0  0  0
    0.2534    5.6185    0.1902 C   0  0  0  0  0  0  0  0  0  0  0  0
    3.1955   -1.8839   -0.1427 C   0  0  0  0  0  0  0  0  0  0  0  0
    3.1803   -2.4028   -1.5883 C   0  0  0  0  0  0  0  0  0  0  0  0
    1.9589   -1.9509   -2.3978 C   0  0  0  0  0  0  0  0  0  0  0  0
    0.6183   -2.4839   -1.8508 C   0  0  0  0  0  0  0  0  0  0  0  0
   -0.7484   -0.6844   -0.8019 C   0  0  0  0  0  2  0  0  0  0  0  0
   -1.2174   -1.1499   -2.9725 C   0  0  0  0  0  0  0  0  0  0  0  0
   -2.0435   -0.1298   -2.5782 C   0  0  0  0  0  0  0  0  0  0  0  0
   -2.4426    1.1365   -0.4283 C   0  0  0  0  0  0  0  0  0  0  0  0
   -3.9569    0.9292   -0.3734 C   0  0  0  0  0  0  0  0  0  0  0  0
   -4.4011   -0.3928    0.2576 C   0  0  0  0  0  0  0  0  0  0  0  0
   -5.9189   -0.5735    0.2564 C   0  0  0  0  0  0  0  0  0  0  0  0
    4.9653    0.2203   -0.7812 H   0  0  0  0  0  0  0  0  0  0  0  0
    3.7862    2.7399   -0.4464 H   0  0  0  0  0  0  0  0  0  0  0  0
    0.3140    2.0956    1.0583 H   0  0  0  0  0  0  0  0  0  0  0  0
    1.6282    3.3043    1.1544 H   0  0  0  0  0  0  0  0  0  0  0  0
    1.4504    3.6434   -1.3769 H   0  0  0  0  0  0  0  0  0  0  0  0
    0.1110    2.4781   -1.4106 H   0  0  0  0  0  0  0  0  0  0  0  0
   -0.8460    4.7096   -1.4417 H   0  0  0  0  0  0  0  0  0  0  0  0
   -1.2155    4.0170    0.1470 H   0  0  0  0  0  0  0  0  0  0  0  0
   -0.4884    6.4302    0.3222 H   0  0  0  0  0  0  0  0  0  0  0  0
    1.0856    6.0265   -0.4201 H   0  0  0  0  0  0  0  0  0  0  0  0
    0.6573    5.3865    1.1970 H   0  0  0  0  0  0  0  0  0  0  0  0
    4.1505   -2.1450    0.3550 H   0  0  0  0  0  0  0  0  0  0  0  0
    2.3779   -2.3241    0.4642 H   0  0  0  0  0  0  0  0  0  0  0  0
    4.0999   -2.0667   -2.1113 H   0  0  0  0  0  0  0  0  0  0  0  0
    3.2438   -3.5111   -1.5498 H   0  0  0  0  0  0  0  0  0  0  0  0
    1.9194   -0.8413   -2.4016 H   0  0  0  0  0  0  0  0  0  0  0  0
    2.0879   -2.2516   -3.4567 H   0  0  0  0  0  0  0  0  0  0  0  0
    0.7099   -2.7961   -0.7913 H   0  0  0  0  0  0  0  0  0  0  0  0
    0.2662   -3.3674   -2.4182 H   0  0  0  0  0  0  0  0  0  0  0  0
   -1.1270   -1.6688   -3.9315 H   0  0  0  0  0  0  0  0  0  0  0  0
   -2.8180    0.4133   -3.1272 H   0  0  0  0  0  0  0  0  0  0  0  0
   -1.9907    1.0651    0.5827 H   0  0  0  0  0  0  0  0  0  0  0  0
   -2.2037    2.1406   -0.8339 H   0  0  0  0  0  0  0  0  0  0  0  0
   -4.3796    1.7828    0.1986 H   0  0  0  0  0  0  0  0  0  0  0  0
   -4.3850    1.0253   -1.3960 H   0  0  0  0  0  0  0  0  0  0  0  0
   -3.9242   -1.2402   -0.2830 H   0  0  0  0  0  0  0  0  0  0  0  0
   -4.0179   -0.4433    1.2994 H   0  0  0  0  0  0  0  0  0  0  0  0
   -6.3264   -0.5678   -0.7757 H   0  0  0  0  0  0  0  0  0  0  0  0
   -6.2113   -1.5330    0.7258 H   0  0  0  0  0  0  0  0  0  0  0  0
   -6.4234    0.2403    0.8168 H   0  0  0  0  0  0  0  0  0  0  0  0
  1  5  1  0  0  0  0
  1  8  1  0  0  0  0
  2  5  1  0  0  0  0
  3 15  1  0  0  0  0
  3 16  1  0  0  0  0
  4 16  1  0  0  0  0
  4 19  1  0  0  0  0
  6  7  2  0  0  0  0
  6  2  1  0  0  0  0
  7  1  1  0  0  0  0
  8 25  1  0  0  0  0
  8 26  1  0  0  0  0
  9 10  1  0  0  0  0
  9  8  1  0  0  0  0
 10 30  1  0  0  0  0
 10 11  1  0  0  0  0
 11 31  1  0  0  0  0
 11 33  1  0  0  0  0
 12  2  1  0  0  0  0
 12 34  1  0  0  0  0
 12 35  1  0  0  0  0
 13 37  1  0  0  0  0
 13 12  1  0  0  0  0
 14 15  1  0  0  0  0
 14 13  1  0  0  0  0
 15 40  1  0  0  0  0
 17 18  2  0  0  0  0
 17  3  1  0  0  0  0
 18  4  1  0  0  0  0
 19 20  1  0  0  0  0
 19 44  1  0  0  0  0
 20 46  1  0  0  0  0
 20 21  1  0  0  0  0
 21 49  1  0  0  0  0
 22 21  1  0  0  0  0
 22 51  1  0  0  0  0
 22 52  1  0  0  0  0
 23  6  1  0  0  0  0
 24  7  1  0  0  0  0
 27  9  1  0  0  0  0
 28  9  1  0  0  0  0
 29 10  1  0  0  0  0
 32 11  1  0  0  0  0
 36 13  1  0  0  0  0
 38 14  1  0  0  0  0
 39 14  1  0  0  0  0
 41 15  1  0  0  0  0
 42 17  1  0  0  0  0
 43 18  1  0  0  0  0
 45 19  1  0  0  0  0
 47 20  1  0  0  0  0
 48 21  1  0  0  0  0
 50 22  1  0  0  0  0
M  END
