2,18
 OpenBabel05122313053D

 41 41  0  0  1  0  0  0  0  0999 V2000
   -2.1481   -0.6885   -0.2484 C   0  0  1  0  0  0  0  0  0  0  0  0
   -0.7735   -1.3686   -0.1158 C   0  0  2  0  0  3  0  0  0  0  0  0
   -0.9705   -2.1514    2.1081 O   0  0  0  0  0  0  0  0  0  0  0  0
    0.0604    3.1989   -1.2573 O   0  0  0  0  0  0  0  0  0  0  0  0
   -0.7231    3.4639    0.8627 O   0  0  0  0  0  0  0  0  0  0  0  0
   -4.0537    0.9420   -1.4240 O   0  0  0  0  0  0  0  0  0  0  0  0
   -0.4455    2.7264   -0.2532 C   0  0  0  0  0  0  0  0  0  0  0  0
   -3.9164   -0.1994    1.2270 O   0  0  0  0  0  0  0  0  0  0  0  0
   -3.5765   -2.3845    0.7740 O   0  0  0  0  0  0  0  0  0  0  0  0
   -3.0766    2.8896   -0.7907 O   0  0  0  0  0  0  0  0  0  0  0  0
   -1.5424   -1.5557   -1.4053 C   0  0  0  0  0  0  0  0  0  0  0  0
   -5.1378    1.7116   -1.9403 C   0  0  0  0  0  0  0  0  0  0  0  0
   -5.6627    2.2527   -1.1257 H   0  0  0  0  0  0  0  0  0  0  0  0
   -5.8235    0.9933   -2.4250 H   0  0  0  0  0  0  0  0  0  0  0  0
   -4.7811    2.4634   -2.6738 H   0  0  0  0  0  0  0  0  0  0  0  0
   -0.1824   -3.6159    0.5732 O   0  0  0  0  0  0  0  0  0  0  0  0
   -3.0606    1.6657   -0.8304 C   0  0  0  0  0  0  0  0  0  0  0  0
   -0.7281    1.2754   -0.0482 C   0  0  0  0  0  2  0  0  0  0  0  0
   -0.6222   -2.5014    0.8441 C   0  0  0  0  0  0  0  0  0  0  0  0
   -0.9084   -3.1994    3.0759 C   0  0  0  0  0  0  0  0  0  0  0  0
   -1.6620   -3.9803    2.8461 H   0  0  0  0  0  0  0  0  0  0  0  0
   -1.1315   -2.7303    4.0511 H   0  0  0  0  0  0  0  0  0  0  0  0
    0.0945   -3.6720    3.0910 H   0  0  0  0  0  0  0  0  0  0  0  0
   -0.6877    4.8812    0.6662 C   0  0  0  0  0  0  0  0  0  0  0  0
    0.2784    5.2056    0.2278 H   0  0  0  0  0  0  0  0  0  0  0  0
   -0.8405    5.3366    1.6613 H   0  0  0  0  0  0  0  0  0  0  0  0
   -1.5069    5.1760   -0.0206 H   0  0  0  0  0  0  0  0  0  0  0  0
   -3.2701   -1.2153    0.5931 C   0  0  0  0  0  0  0  0  0  0  0  0
   -4.9767   -0.5999    2.0936 C   0  0  0  0  0  0  0  0  0  0  0  0
   -5.7750   -1.1254    1.5302 H   0  0  0  0  0  0  0  0  0  0  0  0
   -5.3715    0.3287    2.5438 H   0  0  0  0  0  0  0  0  0  0  0  0
   -4.6062   -1.2859    2.8824 H   0  0  0  0  0  0  0  0  0  0  0  0
   -2.1595   -2.9044   -1.7392 C   0  0  0  0  0  0  0  0  0  0  0  0
   -1.4007   -3.5337   -2.2486 H   0  0  0  0  0  0  0  0  0  0  0  0
   -3.0090   -2.7634   -2.4395 H   0  0  0  0  0  0  0  0  0  0  0  0
   -2.5300   -3.4424   -0.8530 H   0  0  0  0  0  0  0  0  0  0  0  0
   -1.0986   -0.8221   -2.6618 C   0  0  0  0  0  0  0  0  0  0  0  0
   -0.6501    0.1646   -2.4501 H   0  0  0  0  0  0  0  0  0  0  0  0
   -1.9616   -0.6802   -3.3446 H   0  0  0  0  0  0  0  0  0  0  0  0
   -0.3402   -1.4327   -3.1953 H   0  0  0  0  0  0  0  0  0  0  0  0
   -1.9835    0.7858   -0.3231 C   0  0  2  0  0  3  0  0  0  0  0  0
  1  2  1  0  0  0  0
  1 28  1  1  0  0  0
  2 19  1  1  0  0  0
  3 20  1  0  0  0  0
  4  7  2  0  0  0  0
  6 17  1  0  0  0  0
  7 18  1  0  0  0  0
  7  5  1  0  0  0  0
  8 29  1  0  0  0  0
 11  1  1  0  0  0  0
 11  2  1  0  0  0  0
 12  6  1  0  0  0  0
 12 13  1  0  0  0  0
 14 12  1  0  0  0  0
 15 12  1  0  0  0  0
 16 19  2  0  0  0  0
 17 10  2  0  0  0  0
 17 41  1  0  0  0  0
 19  3  1  0  0  0  0
 20 23  1  0  0  0  0
 20 22  1  0  0  0  0
 21 20  1  0  0  0  0
 24  5  1  0  0  0  0
 24 26  1  0  0  0  0
 25 24  1  0  0  0  0
 27 24  1  0  0  0  0
 28  9  2  0  0  0  0
 28  8  1  0  0  0  0
 29 31  1  0  0  0  0
 29 32  1  0  0  0  0
 30 29  1  0  0  0  0
 33 11  1  0  0  0  0
 33 36  1  0  0  0  0
 34 33  1  0  0  0  0
 35 33  1  0  0  0  0
 37 38  1  0  0  0  0
 37 11  1  0  0  0  0
 39 37  1  0  0  0  0
 40 37  1  0  0  0  0
 41  1  1  0  0  0  0
 41 18  1  6  0  0  0
M  END
