2,15
 OpenBabel05122313053D

 32 32  0  0  1  0  0  0  0  0999 V2000
    2.3605    1.3603   -0.4353 C   0  0  0  0  0  0  0  0  0  0  0  0
    1.4175    1.3546   -1.5414 C   0  0  2  0  0  3  0  0  0  0  0  0
    0.2305    2.0610   -1.0766 C   0  0  0  0  0  0  0  0  0  0  0  0
    0.4108    2.3883    0.2994 C   0  0  0  0  0  0  0  0  0  0  0  0
    1.7097    1.9380    0.7011 C   0  0  0  0  0  0  0  0  0  0  0  0
    3.7419    0.7616   -0.4385 C   0  0  0  0  0  0  0  0  0  0  0  0
    4.2957    1.1421    0.4462 H   0  0  0  0  0  0  0  0  0  0  0  0
    4.3118    1.1061   -1.3268 H   0  0  0  0  0  0  0  0  0  0  0  0
    3.6709   -0.7788   -0.3698 C   0  0  1  0  0  0  0  0  0  0  0  0
    3.5643   -1.1600   -1.4101 H   0  0  0  0  0  0  0  0  0  0  0  0
    4.9528   -1.3966    0.2048 C   0  0  0  0  0  0  0  0  0  0  0  0
    5.1130   -1.0620    1.2526 H   0  0  0  0  0  0  0  0  0  0  0  0
    5.8521   -1.1106   -0.3822 H   0  0  0  0  0  0  0  0  0  0  0  0
    4.8944   -2.5044    0.2142 H   0  0  0  0  0  0  0  0  0  0  0  0
    2.3973   -1.1572    0.3890 C   0  0  0  0  0  3  0  0  0  0  0  0
    2.4831   -0.8424    1.4608 H   0  0  0  0  0  0  0  0  0  0  0  0
    2.2763   -2.2586    0.4029 H   0  0  0  0  0  0  0  0  0  0  0  0
    1.2299    0.1625   -2.3454 C   0  0  0  0  0  3  0  0  0  0  0  0
    2.1140   -0.4303   -2.6304 H   0  0  0  0  0  0  0  0  0  0  0  0
    0.4382    0.1771   -3.1127 H   0  0  0  0  0  0  0  0  0  0  0  0
   -0.8960    2.4857   -1.9698 C   0  0  0  0  0  0  0  0  0  0  0  0
   -1.7750    2.8427   -1.4034 H   0  0  0  0  0  0  0  0  0  0  0  0
   -1.2304    1.6753   -2.6481 H   0  0  0  0  0  0  0  0  0  0  0  0
   -0.5625    3.3229   -2.6202 H   0  0  0  0  0  0  0  0  0  0  0  0
   -0.5041    3.2138    1.1511 C   0  0  0  0  0  0  0  0  0  0  0  0
   -0.4722    2.9047    2.2138 H   0  0  0  0  0  0  0  0  0  0  0  0
   -1.5569    3.1618    0.8130 H   0  0  0  0  0  0  0  0  0  0  0  0
   -0.2060    4.2849    1.1182 H   0  0  0  0  0  0  0  0  0  0  0  0
    2.3065    2.1535    2.0597 C   0  0  0  0  0  0  0  0  0  0  0  0
    2.7383    3.1743    2.1549 H   0  0  0  0  0  0  0  0  0  0  0  0
    3.1176    1.4317    2.2742 H   0  0  0  0  0  0  0  0  0  0  0  0
    1.5463    2.0486    2.8596 H   0  0  0  0  0  0  0  0  0  0  0  0
  1  5  2  0  0  0  0
  2 18  1  1  0  0  0
  2  3  1  0  0  0  0
  2  1  1  0  0  0  0
  3  4  2  0  0  0  0
  4  5  1  0  0  0  0
  4 25  1  0  0  0  0
  5 29  1  0  0  0  0
  6  1  1  0  0  0  0
  6  9  1  0  0  0  0
  6  7  1  0  0  0  0
  8  6  1  0  0  0  0
  9 10  1  6  0  0  0
  9 11  1  0  0  0  0
  9 15  1  0  0  0  0
 11 14  1  0  0  0  0
 11 12  1  0  0  0  0
 13 11  1  0  0  0  0
 15 17  1  0  0  0  0
 15 16  1  0  0  0  0
 19 18  1  0  0  0  0
 20 18  1  0  0  0  0
 21 22  1  0  0  0  0
 21  3  1  0  0  0  0
 23 21  1  0  0  0  0
 24 21  1  0  0  0  0
 25 26  1  0  0  0  0
 27 25  1  0  0  0  0
 28 25  1  0  0  0  0
 29 30  1  0  0  0  0
 29 31  1  0  0  0  0
 29 32  1  0  0  0  0
M  END
