7,11
 OpenBabel05122313053D

 61 66  0  0  1  0  0  0  0  0999 V2000
    1.5864    3.9358    0.5428 O   0  0  0  0  0  0  0  0  0  0  0  0
    2.4053    1.0057   -0.7597 O   0  0  0  0  0  0  0  0  0  0  0  0
   -1.0386   -3.4601   -1.2285 O   0  0  0  0  0  0  0  0  0  0  0  0
   -0.0379    2.2145    0.8627 N   0  0  0  0  0  0  0  0  0  0  0  0
   -0.4499   -1.3712   -0.2865 C   0  0  0  0  0  0  0  0  0  0  0  0
   -0.1795    0.0326   -0.4322 C   0  0  2  0  0  3  0  0  0  0  0  0
   -0.3824    0.6572   -1.6967 C   0  0  0  0  0  3  0  0  0  0  0  0
   -0.2145    1.7386   -1.7903 H   0  0  0  0  0  0  0  0  0  0  0  0
   -0.8012   -0.0902   -2.8244 C   0  0  0  0  0  3  0  0  0  0  0  0
   -0.9745    0.4049   -3.7884 H   0  0  0  0  0  0  0  0  0  0  0  0
   -1.0911   -1.4752   -2.6736 C   0  0  0  0  0  3  0  0  0  0  0  0
   -1.4710   -2.0391   -3.5347 H   0  0  0  0  0  0  0  0  0  0  0  0
   -0.8688   -2.1335   -1.4281 C   0  0  0  0  0  0  0  0  0  0  0  0
    0.4035    0.8156    0.7188 C   0  0  1  0  0  0  0  0  0  0  0  0
    0.3165    0.2361    1.6590 H   0  0  0  0  0  0  0  0  0  0  0  0
    1.2025    2.7833    0.6008 C   0  0  0  0  0  0  0  0  0  0  0  0
    1.8539    1.3797    0.4780 C   0  0  2  0  0  0  0  0  0  0  0  0
    2.5531    1.1520    1.3129 H   0  0  0  0  0  0  0  0  0  0  0  0
   -1.2564    2.7339    1.3287 C   0  0  0  0  0  0  0  0  0  0  0  0
   -2.1882    1.8756    1.9448 C   0  0  0  0  0  0  0  0  0  0  0  0
   -1.9591    0.8097    2.0714 H   0  0  0  0  0  0  0  0  0  0  0  0
   -3.4187    2.3851    2.3775 C   0  0  0  0  0  0  0  0  0  0  0  0
   -4.1503    1.7004    2.8314 H   0  0  0  0  0  0  0  0  0  0  0  0
   -3.7182    3.7468    2.2173 C   0  0  0  0  0  0  0  0  0  0  0  0
   -4.6891    4.1422    2.5505 H   0  0  0  0  0  0  0  0  0  0  0  0
   -2.7728    4.6014    1.6258 C   0  0  0  0  0  0  0  0  0  0  0  0
   -2.9993    5.6711    1.5016 H   0  0  0  0  0  0  0  0  0  0  0  0
   -1.5430    4.1066    1.1747 C   0  0  0  0  0  0  0  0  0  0  0  0
   -0.7969    4.7627    0.7066 H   0  0  0  0  0  0  0  0  0  0  0  0
    3.7287    1.2959   -0.9959 C   0  0  0  0  0  0  0  0  0  0  0  0
    4.4042    2.3652   -0.3796 C   0  0  0  0  0  0  0  0  0  0  0  0
    3.8624    3.0551    0.2842 H   0  0  0  0  0  0  0  0  0  0  0  0
    5.7597    2.5777   -0.6796 C   0  0  0  0  0  0  0  0  0  0  0  0
    6.2870    3.4169   -0.2008 H   0  0  0  0  0  0  0  0  0  0  0  0
    6.4359    1.7497   -1.5879 C   0  0  0  0  0  0  0  0  0  0  0  0
    7.4968    1.9276   -1.8175 H   0  0  0  0  0  0  0  0  0  0  0  0
    5.7429    0.6978   -2.2119 C   0  0  0  0  0  0  0  0  0  0  0  0
    6.2600    0.0459   -2.9325 H   0  0  0  0  0  0  0  0  0  0  0  0
    4.3936    0.4646   -1.9180 C   0  0  0  0  0  0  0  0  0  0  0  0
    3.8349   -0.3559   -2.3919 H   0  0  0  0  0  0  0  0  0  0  0  0
   -1.7677   -4.2013   -2.1960 C   0  0  0  0  0  0  0  0  0  0  0  0
   -2.7732   -3.7573   -2.3641 H   0  0  0  0  0  0  0  0  0  0  0  0
   -1.8808   -5.2194   -1.7817 H   0  0  0  0  0  0  0  0  0  0  0  0
   -1.2256   -4.2675   -3.1650 H   0  0  0  0  0  0  0  0  0  0  0  0
   -0.1135   -2.0978    0.9790 C   0  0  0  0  0  0  0  0  0  0  0  0
   -1.0892   -2.5387    1.8667 C   0  0  0  0  0  0  0  0  0  0  0  0
   -2.1469   -2.3505    1.6485 H   0  0  0  0  0  0  0  0  0  0  0  0
   -0.7397   -3.2158    3.0637 C   0  0  0  0  0  0  0  0  0  0  0  0
   -1.5374   -3.5427    3.7473 H   0  0  0  0  0  0  0  0  0  0  0  0
    0.5888   -3.4531    3.3732 C   0  0  0  0  0  0  0  0  0  0  0  0
    0.8657   -3.9681    4.3063 H   0  0  0  0  0  0  0  0  0  0  0  0
    3.0001   -3.2678    2.7843 C   0  0  0  0  0  0  0  0  0  0  0  0
    3.2537   -3.7808    3.7252 H   0  0  0  0  0  0  0  0  0  0  0  0
    3.9990   -2.8592    1.9141 C   0  0  0  0  0  0  0  0  0  0  0  0
    5.0561   -3.0405    2.1603 H   0  0  0  0  0  0  0  0  0  0  0  0
    3.6580   -2.2088    0.6989 C   0  0  0  0  0  0  0  0  0  0  0  0
    4.4499   -1.8840    0.0069 H   0  0  0  0  0  0  0  0  0  0  0  0
    2.3288   -1.9722    0.3774 C   0  0  0  0  0  0  0  0  0  0  0  0
    2.0833   -1.4631   -0.5640 H   0  0  0  0  0  0  0  0  0  0  0  0
    1.2761   -2.3588    1.2600 C   0  0  0  0  0  0  0  0  0  0  0  0
    1.6244   -3.0353    2.4879 C   0  0  0  0  0  0  0  0  0  0  0  0
  1 16  2  0  0  0  0
  2 17  1  0  0  0  0
  4 19  1  0  0  0  0
  5 45  1  0  0  0  0
  6  7  1  6  0  0  0
  6  5  1  0  0  0  0
  6 14  1  0  0  0  0
  8  7  1  0  0  0  0
  9 11  1  0  0  0  0
  9  7  1  0  0  0  0
 10  9  1  0  0  0  0
 11 13  1  0  0  0  0
 12 11  1  0  0  0  0
 13  3  1  0  0  0  0
 13  5  2  0  0  0  0
 14  4  1  0  0  0  0
 14 15  1  1  0  0  0
 16  4  1  0  0  0  0
 17 16  1  0  0  0  0
 17 14  1  0  0  0  0
 17 18  1  1  0  0  0
 19 20  1  0  0  0  0
 20 21  1  0  0  0  0
 20 22  2  0  0  0  0
 22 23  1  0  0  0  0
 24 22  1  0  0  0  0
 24 25  1  0  0  0  0
 26 24  2  0  0  0  0
 27 26  1  0  0  0  0
 28 19  2  0  0  0  0
 28 26  1  0  0  0  0
 29 28  1  0  0  0  0
 30  2  1  0  0  0  0
 30 31  1  0  0  0  0
 31 32  1  0  0  0  0
 33 31  2  0  0  0  0
 33 34  1  0  0  0  0
 35 33  1  0  0  0  0
 36 35  1  0  0  0  0
 37 39  1  0  0  0  0
 37 35  2  0  0  0  0
 38 37  1  0  0  0  0
 39 30  2  0  0  0  0
 40 39  1  0  0  0  0
 41 43  1  0  0  0  0
 41  3  1  0  0  0  0
 42 41  1  0  0  0  0
 44 41  1  0  0  0  0
 45 60  2  0  0  0  0
 45 46  1  0  0  0  0
 46 48  2  0  0  0  0
 47 46  1  0  0  0  0
 48 50  1  0  0  0  0
 48 49  1  0  0  0  0
 50 51  1  0  0  0  0
 52 53  1  0  0  0  0
 54 55  1  0  0  0  0
 54 52  2  0  0  0  0
 56 54  1  0  0  0  0
 57 56  1  0  0  0  0
 58 56  2  0  0  0  0
 58 60  1  0  0  0  0
 59 58  1  0  0  0  0
 60 61  1  0  0  0  0
 61 52  1  0  0  0  0
 61 50  2  0  0  0  0
M  END
