13,19
 OpenBabel05122313053D

 20 19  0  0  1  0  0  0  0  0999 V2000
    2.2757   -2.4685   -0.9341 F   0  0  0  0  0  0  0  0  0  0  0  0
    1.9219   -3.0006    1.1451 F   0  0  0  0  0  0  0  0  0  0  0  0
    1.1196   -4.2577   -0.4211 F   0  0  0  0  0  0  0  0  0  0  0  0
   -1.1402   -4.5467   -2.0145 F   0  0  0  0  0  0  0  0  0  0  0  0
    0.3623   -3.1134   -2.6698 F   0  0  0  0  0  0  0  0  0  0  0  0
   -1.7187   -2.7431   -3.1114 F   0  0  0  0  0  0  0  0  0  0  0  0
   -3.5228   -3.5570   -1.4403 F   0  0  0  0  0  0  0  0  0  0  0  0
   -4.6266   -2.1668   -0.2185 F   0  0  0  0  0  0  0  0  0  0  0  0
   -3.9712   -1.5554   -2.2038 F   0  0  0  0  0  0  0  0  0  0  0  0
   -4.2221    0.4065   -0.1397 F   0  0  0  0  0  0  0  0  0  0  0  0
   -4.1658   -0.6314    1.7997 F   0  0  0  0  0  0  0  0  0  0  0  0
   -3.0748    1.2148    1.5003 F   0  0  0  0  0  0  0  0  0  0  0  0
    0.0563   -2.1357   -0.0457 C   0  0  0  0  0  0  0  0  0  0  0  0
    1.3129   -2.9618   -0.0849 C   0  0  0  0  0  0  0  0  0  0  0  0
   -1.0194   -2.4128   -0.8630 C   0  0  2  0  0  0  0  0  0  0  0  0
   -0.8897   -3.2292   -2.1546 C   0  0  0  0  0  0  0  0  0  0  0  0
   -2.2856   -1.7520   -0.4999 C   0  0  0  0  0  0  0  0  0  0  0  0
   -3.6055   -2.2462   -1.1024 C   0  0  0  0  0  0  0  0  0  0  0  0
   -2.1948   -0.7480    0.4404 C   0  0  0  0  0  0  0  0  0  0  0  0
   -3.4067    0.0441    0.8838 C   0  0  0  0  0  0  0  0  0  0  0  0
  1 14  1  0  0  0  0
  3 14  1  0  0  0  0
  5 16  1  0  0  0  0
  6 16  1  0  0  0  0
  7 18  1  0  0  0  0
  9 18  1  0  0  0  0
 10 20  1  0  0  0  0
 14 13  1  0  0  0  0
 14  2  1  0  0  0  0
 15 17  1  0  0  0  0
 15 13  1  6  0  0  0
 16  4  1  0  0  0  0
 16 15  1  0  0  0  0
 17 19  2  0  0  0  0
 18 17  1  0  0  0  0
 18  8  1  0  0  0  0
 19 20  1  0  0  0  0
 20 12  1  0  0  0  0
 20 11  1  0  0  0  0
M  END
