5,8
 OpenBabel05122313053D

 19 21  0  0  0  0  0  0  0  0999 V2000
   -2.1110    0.3274   -1.4729 C   0  0  0  0  0  0  0  0  0  0  0  0
   -3.1173   -0.1603   -0.6917 C   0  0  0  0  0  0  0  0  0  0  0  0
   -3.1168   -0.1607    0.6939 C   0  0  0  0  0  0  0  0  0  0  0  0
   -2.1093    0.3266    1.4741 C   0  0  0  0  0  0  0  0  0  0  0  0
    0.1478    1.4388    1.4161 C   0  0  0  0  0  3  0  0  0  0  0  0
    1.2185    2.0318    0.7146 C   0  0  0  0  0  0  0  0  0  0  0  0
    1.2182    2.0308   -0.7156 C   0  0  0  0  0  0  0  0  0  0  0  0
    0.1464    1.4396   -1.4170 C   0  0  0  0  0  3  0  0  0  0  0  0
   -1.0080    0.9072   -0.7304 C   0  0  0  0  0  0  0  0  0  0  0  0
   -1.0076    0.9070    0.7307 C   0  0  0  0  0  0  0  0  0  0  0  0
   -4.2854   -0.7888    0.0014 C   0  0  0  0  0  0  0  0  0  0  0  0
   -2.0798    0.3168   -2.5736 H   0  0  0  0  0  0  0  0  0  0  0  0
   -2.0769    0.3154    2.5748 H   0  0  0  0  0  0  0  0  0  0  0  0
    0.1749    1.3865    2.5137 H   0  0  0  0  0  0  0  0  0  0  0  0
    2.0816    2.4306    1.2647 H   0  0  0  0  0  0  0  0  0  0  0  0
    2.0811    2.4294   -1.2664 H   0  0  0  0  0  0  0  0  0  0  0  0
    0.1727    1.3876   -2.5146 H   0  0  0  0  0  0  0  0  0  0  0  0
   -5.2613   -0.2636    0.0019 H   0  0  0  0  0  0  0  0  0  0  0  0
   -4.3879   -1.8926    0.0010 H   0  0  0  0  0  0  0  0  0  0  0  0
  1  9  2  0  0  0  0
  1  2  1  0  0  0  0
  2 11  1  0  0  0  0
  2  3  2  0  0  0  0
  3  4  1  0  0  0  0
  4 13  1  0  0  0  0
  5 14  1  0  0  0  0
  6 15  1  0  0  0  0
  6  5  1  0  0  0  0
  7  6  2  0  0  0  0
  8  9  1  0  0  0  0
  8  7  1  0  0  0  0
  9 10  1  0  0  0  0
 10  5  1  0  0  0  0
 10  4  2  0  0  0  0
 11 18  1  0  0  0  0
 11  3  1  0  0  0  0
 12  1  1  0  0  0  0
 16  7  1  0  0  0  0
 17  8  1  0  0  0  0
 19 11  1  0  0  0  0
M  END
