1,4
 OpenBabel05122313053D

 14 13  0  0  0  0  0  0  0  0999 V2000
    0.7504    0.2631    1.7478 C   0  0  0  0  0  3  0  0  0  0  0  0
    2.0937    0.5664    1.8134 C   0  0  0  0  0  0  0  0  0  0  0  0
    2.8970    0.4035    0.5969 C   0  0  0  0  0  0  0  0  0  0  0  0
    2.3261   -0.0559   -0.5633 C   0  0  0  0  0  3  0  0  0  0  0  0
    3.1343   -0.2595   -1.8148 C   0  0  0  0  0  0  0  0  0  0  0  0
    2.7869    1.1008    3.0481 C   0  0  0  0  0  0  0  0  0  0  0  0
    0.1937    0.4258    2.6955 H   0  0  0  0  0  0  0  0  0  0  0  0
    3.9804    0.6567    0.6456 H   0  0  0  0  0  0  0  0  0  0  0  0
    3.1761   -1.3374   -2.0945 H   0  0  0  0  0  0  0  0  0  0  0  0
    4.1848    0.1016   -1.7211 H   0  0  0  0  0  0  0  0  0  0  0  0
    2.6764    0.2454   -2.6933 H   0  0  0  0  0  0  0  0  0  0  0  0
    3.2333    2.1036    2.8641 H   0  0  0  0  0  0  0  0  0  0  0  0
    3.6279    0.4424    3.3576 H   0  0  0  0  0  0  0  0  0  0  0  0
    2.0885    1.1890    3.9034 H   0  0  0  0  0  0  0  0  0  0  0  0
  1  2  2  0  0  0  0
  1  7  1  0  0  0  0
  2  6  1  0  0  0  0
  3  8  1  0  0  0  0
  3  2  1  0  0  0  0
  4  3  2  0  0  0  0
  5 10  1  0  0  0  0
  5  4  1  0  0  0  0
  6 13  1  0  0  0  0
  6 14  1  0  0  0  0
  9  5  1  0  0  0  0
 11  5  1  0  0  0  0
 12  6  1  0  0  0  0
M  END
