1,2
 OpenBabel05122313053D

 58 61  0  0  0  0  0  0  0  0999 V2000
    1.2716    1.4914   -0.0945 C   0  0  0  0  0  2  0  0  0  0  0  0
   -1.2715    1.4914    0.0943 C   0  0  0  0  0  2  0  0  0  0  0  0
   -0.7189    0.2457    0.0516 N   0  0  0  0  0  0  0  0  0  0  0  0
   -2.5902    1.7287    0.1378 N   0  0  0  0  0  0  0  0  0  0  0  0
   -2.7391    2.7746    0.2560 H   0  0  0  0  0  0  0  0  0  0  0  0
    0.7189    0.2457   -0.0520 N   0  0  0  0  0  0  0  0  0  0  0  0
    2.5903    1.7287   -0.1376 N   0  0  0  0  0  0  0  0  0  0  0  0
    2.7393    2.7745   -0.2559 H   0  0  0  0  0  0  0  0  0  0  0  0
   -3.7146    0.8737    0.0196 C   0  0  0  0  0  0  0  0  0  0  0  0
   -2.9078   -2.6326    0.9535 C   0  0  0  0  0  0  0  0  0  0  0  0
   -3.5524   -2.9515    1.7853 H   0  0  0  0  0  0  0  0  0  0  0  0
    1.3865   -1.0171    0.0256 C   0  0  0  0  0  0  0  0  0  0  0  0
    3.7146    0.8737   -0.0187 C   0  0  0  0  0  0  0  0  0  0  0  0
    2.0315   -2.9877    1.2840 C   0  0  0  0  0  0  0  0  0  0  0  0
    1.9760   -3.5917    2.2019 H   0  0  0  0  0  0  0  0  0  0  0  0
    5.8429   -0.9480    0.0988 C   0  0  0  0  0  0  0  0  0  0  0  0
    1.3098   -1.7903    1.1989 C   0  0  0  0  0  0  0  0  0  0  0  0
    0.7006   -1.4378    2.0431 H   0  0  0  0  0  0  0  0  0  0  0  0
   -1.3102   -1.7887   -1.2016 C   0  0  0  0  0  0  0  0  0  0  0  0
   -0.7013   -1.4352   -2.0456 H   0  0  0  0  0  0  0  0  0  0  0  0
   -3.9287    0.1137   -1.1475 C   0  0  0  0  0  0  0  0  0  0  0  0
   -3.2478    0.2335   -2.0008 H   0  0  0  0  0  0  0  0  0  0  0  0
   -4.6317    0.7936    1.0850 C   0  0  0  0  0  0  0  0  0  0  0  0
   -4.4776    1.4216    1.9746 H   0  0  0  0  0  0  0  0  0  0  0  0
   -5.8430   -0.9479   -0.0969 C   0  0  0  0  0  0  0  0  0  0  0  0
    2.1583   -1.4530   -1.0663 C   0  0  0  0  0  0  0  0  0  0  0  0
    2.1925   -0.8430   -1.9799 H   0  0  0  0  0  0  0  0  0  0  0  0
   -1.3865   -1.0170   -0.0274 C   0  0  0  0  0  0  0  0  0  0  0  0
    4.9766   -0.8073    1.1980 C   0  0  0  0  0  0  0  0  0  0  0  0
    5.1229   -1.4295    2.0921 H   0  0  0  0  0  0  0  0  0  0  0  0
   -2.1579   -1.4543    1.0643 C   0  0  0  0  0  0  0  0  0  0  0  0
   -2.1917   -0.8455    1.9787 H   0  0  0  0  0  0  0  0  0  0  0  0
   -4.9781   -0.8062   -1.1970 C   0  0  0  0  0  0  0  0  0  0  0  0
   -5.1255   -1.4276   -2.0915 H   0  0  0  0  0  0  0  0  0  0  0  0
    4.6331    0.7945   -1.0829 C   0  0  0  0  0  0  0  0  0  0  0  0
    4.4801    1.4234   -1.9722 H   0  0  0  0  0  0  0  0  0  0  0  0
    5.6925   -0.1181   -1.0250 C   0  0  0  0  0  0  0  0  0  0  0  0
    6.3941   -0.2067   -1.8666 H   0  0  0  0  0  0  0  0  0  0  0  0
   -6.8620   -2.0584   -0.0911 C   0  0  0  0  0  0  0  0  0  0  0  0
    2.8466   -3.3996    0.2167 C   0  0  0  0  0  0  0  0  0  0  0  0
    3.4457   -4.3180    0.3003 H   0  0  0  0  0  0  0  0  0  0  0  0
   -5.6912   -0.1190    1.0275 C   0  0  0  0  0  0  0  0  0  0  0  0
   -6.3918   -0.2084    1.8699 H   0  0  0  0  0  0  0  0  0  0  0  0
    3.9273    0.1127    1.1481 C   0  0  0  0  0  0  0  0  0  0  0  0
    3.2453    0.2318    2.0006 H   0  0  0  0  0  0  0  0  0  0  0  0
   -2.8463   -3.3995   -0.2207 C   0  0  0  0  0  0  0  0  0  0  0  0
   -3.4453   -4.3179   -0.3052 H   0  0  0  0  0  0  0  0  0  0  0  0
   -2.0317   -2.9861   -1.2879 C   0  0  0  0  0  0  0  0  0  0  0  0
   -1.9765   -3.5890   -2.2065 H   0  0  0  0  0  0  0  0  0  0  0  0
    2.9084   -2.6313   -0.9566 C   0  0  0  0  0  0  0  0  0  0  0  0
    3.5533   -2.9490   -1.7885 H   0  0  0  0  0  0  0  0  0  0  0  0
    6.8617   -2.0587    0.0933 C   0  0  0  0  0  0  0  0  0  0  0  0
   -7.9055   -1.7946    0.7266 F   0  0  0  0  0  0  0  0  0  0  0  0
   -7.3538   -2.3067   -1.3268 F   0  0  0  0  0  0  0  0  0  0  0  0
    7.9064   -1.7940   -0.7226 F   0  0  0  0  0  0  0  0  0  0  0  0
   -6.2993   -3.2229    0.3482 F   0  0  0  0  0  0  0  0  0  0  0  0
    7.3518   -2.3084    1.3294 F   0  0  0  0  0  0  0  0  0  0  0  0
    6.2996   -3.2226   -0.3481 F   0  0  0  0  0  0  0  0  0  0  0  0
  1  6  1  0  0  0  0
  2  4  1  0  0  0  0
  3  2  1  0  0  0  0
  4  5  1  0  0  0  0
  6 12  1  0  0  0  0
  6  3  1  0  0  0  0
  7  1  1  0  0  0  0
  7 13  1  0  0  0  0
  8  7  1  0  0  0  0
  9  4  1  0  0  0  0
  9 23  1  0  0  0  0
 10 31  1  0  0  0  0
 10 11  1  0  0  0  0
 12 17  1  0  0  0  0
 13 44  1  0  0  0  0
 14 15  1  0  0  0  0
 16 29  1  0  0  0  0
 17 14  2  0  0  0  0
 17 18  1  0  0  0  0
 19 28  1  0  0  0  0
 20 19  1  0  0  0  0
 21  9  2  0  0  0  0
 22 21  1  0  0  0  0
 23 24  1  0  0  0  0
 25 39  1  0  0  0  0
 25 42  1  0  0  0  0
 26 50  1  0  0  0  0
 26 12  2  0  0  0  0
 27 26  1  0  0  0  0
 28  3  1  0  0  0  0
 28 31  2  0  0  0  0
 29 30  1  0  0  0  0
 31 32  1  0  0  0  0
 33 21  1  0  0  0  0
 33 25  2  0  0  0  0
 34 33  1  0  0  0  0
 35 37  1  0  0  0  0
 35 13  2  0  0  0  0
 36 35  1  0  0  0  0
 37 16  2  0  0  0  0
 38 37  1  0  0  0  0
 39 56  1  0  0  0  0
 39 53  1  0  0  0  0
 40 41  1  0  0  0  0
 40 14  1  0  0  0  0
 42 23  2  0  0  0  0
 42 43  1  0  0  0  0
 44 29  2  0  0  0  0
 44 45  1  0  0  0  0
 46 10  2  0  0  0  0
 47 46  1  0  0  0  0
 48 19  2  0  0  0  0
 48 46  1  0  0  0  0
 49 48  1  0  0  0  0
 50 40  2  0  0  0  0
 51 50  1  0  0  0  0
 52 16  1  0  0  0  0
 52 57  1  0  0  0  0
 54 39  1  0  0  0  0
 55 52  1  0  0  0  0
 58 52  1  0  0  0  0
M  END
