1,7
 OpenBabel05122313053D

  8  7  0  0  0  0  0  0  0  0999 V2000
    0.0438    1.1270   -1.2443 C   0  0  0  0  0  0  0  0  0  0  0  0
    0.1158    0.8141   -2.9580 Cl  0  0  0  0  0  0  0  0  0  0  0  0
    0.0193    2.3921   -0.7310 C   0  0  0  0  0  0  0  0  0  0  0  0
    0.0378    3.8624   -1.6478 Cl  0  0  0  0  0  0  0  0  0  0  0  0
   -0.0192    2.3921    0.7309 C   0  0  0  0  0  0  0  0  0  0  0  0
   -0.0378    3.8625    1.6476 Cl  0  0  0  0  0  0  0  0  0  0  0  0
   -0.0438    1.1271    1.2442 C   0  0  0  0  0  0  0  0  0  0  0  0
   -0.1158    0.8142    2.9579 Cl  0  0  0  0  0  0  0  0  0  0  0  0
  1  3  2  0  0  0  0
  2  1  1  0  0  0  0
  3  5  1  0  0  0  0
  4  3  1  0  0  0  0
  5  7  2  0  0  0  0
  5  6  1  0  0  0  0
  7  8  1  0  0  0  0
M  END
