4,12
 OpenBabel05122313053D

 45 47  0  0  1  0  0  0  0  0999 V2000
    0.7131    0.2363    0.3407 P   0  0  0  0  0  0  0  0  0  0  0  0
    0.2175    0.8390    1.8235 O   0  0  0  0  0  0  0  0  0  0  0  0
   -2.3993    1.8621    2.2096 O   0  0  0  0  0  0  0  0  0  0  0  0
   -2.8186   -1.4277    0.4716 C   0  0  0  0  0  3  0  0  0  0  0  0
   -2.8867   -2.1160    1.3274 H   0  0  0  0  0  0  0  0  0  0  0  0
   -3.0174   -1.9480   -0.8614 C   0  0  0  0  0  0  0  0  0  0  0  0
   -3.2311   -3.0159   -1.0031 H   0  0  0  0  0  0  0  0  0  0  0  0
   -2.7584   -1.1153   -1.9700 C   0  0  0  0  0  0  0  0  0  0  0  0
   -2.7585   -1.5384   -2.9849 H   0  0  0  0  0  0  0  0  0  0  0  0
   -2.3471    0.2519   -1.7760 C   0  0  0  0  0  3  0  0  0  0  0  0
   -2.0654    0.8745   -2.6361 H   0  0  0  0  0  0  0  0  0  0  0  0
   -2.2251    0.7729   -0.4528 C   0  0  0  0  0  3  0  0  0  0  0  0
   -1.8725    1.8035   -0.2992 H   0  0  0  0  0  0  0  0  0  0  0  0
   -2.4834   -0.0591    0.7015 C   0  0  2  0  0  3  0  0  0  0  0  0
   -2.2052    0.4646    2.1105 C   0  0  1  0  0  0  0  0  0  0  0  0
   -2.8891   -0.0720    2.8156 H   0  0  0  0  0  0  0  0  0  0  0  0
   -0.7758    0.1562    2.5858 C   0  0  0  0  0  0  0  0  0  0  0  0
   -0.6687    0.5377    3.6208 H   0  0  0  0  0  0  0  0  0  0  0  0
   -0.6094   -0.9434    2.5709 H   0  0  0  0  0  0  0  0  0  0  0  0
   -3.7553    2.2546    2.1356 C   0  0  0  0  0  0  0  0  0  0  0  0
   -3.7864    3.3550    2.2499 H   0  0  0  0  0  0  0  0  0  0  0  0
   -4.3619    1.7917    2.9503 H   0  0  0  0  0  0  0  0  0  0  0  0
   -4.2253    1.9846    1.1608 H   0  0  0  0  0  0  0  0  0  0  0  0
    2.3801   -0.4223    0.7162 C   0  0  0  0  0  0  0  0  0  0  0  0
    3.1017    0.1878    1.7636 C   0  0  0  0  0  0  0  0  0  0  0  0
    2.6389    0.9962    2.3486 H   0  0  0  0  0  0  0  0  0  0  0  0
    4.4009   -0.2479    2.0591 C   0  0  0  0  0  0  0  0  0  0  0  0
    4.9617    0.2257    2.8793 H   0  0  0  0  0  0  0  0  0  0  0  0
    4.9824   -1.2843    1.3107 C   0  0  0  0  0  0  0  0  0  0  0  0
    6.0030   -1.6249    1.5439 H   0  0  0  0  0  0  0  0  0  0  0  0
    4.2606   -1.8875    0.2687 C   0  0  0  0  0  0  0  0  0  0  0  0
    4.7113   -2.7050   -0.3143 H   0  0  0  0  0  0  0  0  0  0  0  0
    2.9568   -1.4662   -0.0319 C   0  0  0  0  0  0  0  0  0  0  0  0
    2.3779   -1.9357   -0.8406 H   0  0  0  0  0  0  0  0  0  0  0  0
    1.0365    1.8299   -0.5014 C   0  0  0  0  0  0  0  0  0  0  0  0
    0.5456    3.0388    0.0334 C   0  0  0  0  0  0  0  0  0  0  0  0
   -0.0060    3.0234    0.9852 H   0  0  0  0  0  0  0  0  0  0  0  0
    0.7664    4.2422   -0.6551 C   0  0  0  0  0  0  0  0  0  0  0  0
    0.3880    5.1866   -0.2344 H   0  0  0  0  0  0  0  0  0  0  0  0
    1.4684    4.2435   -1.8706 C   0  0  0  0  0  0  0  0  0  0  0  0
    1.6408    5.1894   -2.4064 H   0  0  0  0  0  0  0  0  0  0  0  0
    1.9495    3.0357   -2.4037 C   0  0  0  0  0  0  0  0  0  0  0  0
    2.4955    3.0328   -3.3593 H   0  0  0  0  0  0  0  0  0  0  0  0
    1.7375    1.8276   -1.7251 C   0  0  0  0  0  0  0  0  0  0  0  0
    2.0872    0.8758   -2.1524 H   0  0  0  0  0  0  0  0  0  0  0  0
  1 24  1  0  0  0  0
  1  2  1  0  0  0  0
  2 17  1  0  0  0  0
  4 14  1  0  0  0  0
  4  5  1  0  0  0  0
  6  4  1  0  0  0  0
  7  6  1  0  0  0  0
  8 10  1  0  0  0  0
  8  6  2  0  0  0  0
  9  8  1  0  0  0  0
 10 12  1  0  0  0  0
 11 10  1  0  0  0  0
 12 13  1  0  0  0  0
 12 14  1  0  0  0  0
 14 15  1  1  0  0  0
 15  3  1  0  0  0  0
 15 17  1  0  0  0  0
 15 16  1  1  0  0  0
 17 18  1  0  0  0  0
 19 17  1  0  0  0  0
 20  3  1  0  0  0  0
 20 21  1  0  0  0  0
 20 22  1  0  0  0  0
 23 20  1  0  0  0  0
 24 25  1  0  0  0  0
 25 27  2  0  0  0  0
 25 26  1  0  0  0  0
 27 28  1  0  0  0  0
 29 30  1  0  0  0  0
 29 27  1  0  0  0  0
 31 29  2  0  0  0  0
 32 31  1  0  0  0  0
 33 31  1  0  0  0  0
 33 24  2  0  0  0  0
 34 33  1  0  0  0  0
 35 36  1  0  0  0  0
 35  1  1  0  0  0  0
 36 37  1  0  0  0  0
 38 39  1  0  0  0  0
 38 36  2  0  0  0  0
 40 38  1  0  0  0  0
 41 40  1  0  0  0  0
 42 40  2  0  0  0  0
 42 44  1  0  0  0  0
 43 42  1  0  0  0  0
 44 35  2  0  0  0  0
 45 44  1  0  0  0  0
M  END
