2,7
 OpenBabel05122313053D

 32 33  0  0  0  0  0  0  0  0999 V2000
   -0.5634   -2.6874    0.2307 O   0  0  0  0  0  0  0  0  0  0  0  0
   -0.1150   -1.4282    0.0645 C   0  0  0  0  0  3  0  0  0  0  0  0
    1.2875   -1.2262   -0.0172 C   0  0  0  0  0  0  0  0  0  0  0  0
    1.9547   -2.0873    0.1361 H   0  0  0  0  0  0  0  0  0  0  0  0
    1.9250   -0.0089   -0.2459 C   0  0  0  0  0  0  0  0  0  0  0  0
    1.2467    1.2561   -0.4608 C   0  0  0  0  0  0  0  0  0  0  0  0
   -0.1759    1.4020   -0.3083 C   0  0  0  0  0  2  0  0  0  0  0  0
   -0.6873    2.7214   -0.4034 C   0  0  0  0  0  0  0  0  0  0  0  0
   -1.7575    2.8915   -0.2273 H   0  0  0  0  0  0  0  0  0  0  0  0
    0.1077    3.8243   -0.7380 C   0  0  0  0  0  0  0  0  0  0  0  0
   -0.3518    4.8218   -0.8190 H   0  0  0  0  0  0  0  0  0  0  0  0
    1.4828    3.6549   -0.9857 C   0  0  0  0  0  0  0  0  0  0  0  0
    2.1117    4.5066   -1.2819 H   0  0  0  0  0  0  0  0  0  0  0  0
    2.0367    2.3895   -0.8354 C   0  0  0  0  0  0  0  0  0  0  0  0
    3.1107    2.2512   -1.0186 H   0  0  0  0  0  0  0  0  0  0  0  0
    0.3104   -3.8326    0.2258 C   0  0  0  0  0  0  0  0  0  0  0  0
    0.8915   -3.8903   -0.7164 H   0  0  0  0  0  0  0  0  0  0  0  0
   -0.3541   -4.7111    0.3072 H   0  0  0  0  0  0  0  0  0  0  0  0
    1.0011   -3.8133    1.0932 H   0  0  0  0  0  0  0  0  0  0  0  0
    3.4144   -0.0610   -0.2093 C   0  0  0  0  0  0  0  0  0  0  0  0
    4.1175   -0.9437   -1.0605 C   0  0  0  0  0  0  0  0  0  0  0  0
    3.5627   -1.5402   -1.8000 H   0  0  0  0  0  0  0  0  0  0  0  0
    5.5119   -1.0409   -0.9949 C   0  0  0  0  0  0  0  0  0  0  0  0
    6.0863   -1.7048   -1.6549 H   0  0  0  0  0  0  0  0  0  0  0  0
    6.1953   -0.2619   -0.0547 C   0  0  0  0  0  0  0  0  0  0  0  0
    5.5308    0.6132    0.8125 C   0  0  0  0  0  0  0  0  0  0  0  0
    6.1185    1.1943    1.5359 H   0  0  0  0  0  0  0  0  0  0  0  0
    4.1387    0.7155    0.7264 C   0  0  0  0  0  0  0  0  0  0  0  0
    3.5992    1.3937    1.4039 H   0  0  0  0  0  0  0  0  0  0  0  0
    8.2253   -1.1608   -0.7362 O   0  0  0  0  0  0  0  0  0  0  0  0
    8.2447    0.3422    0.8552 O   0  0  0  0  0  0  0  0  0  0  0  0
    7.6803   -0.3689    0.0280 N   0  0  0  0  0  0  0  0  0  0  0  0
  2  1  1  0  0  0  0
  3  2  2  0  0  0  0
  3  4  1  0  0  0  0
  5 20  1  0  0  0  0
  5  3  1  0  0  0  0
  6  7  1  0  0  0  0
  6  5  2  0  0  0  0
  8  7  1  0  0  0  0
  8  9  1  0  0  0  0
 10  8  2  0  0  0  0
 11 10  1  0  0  0  0
 12 14  2  0  0  0  0
 12 10  1  0  0  0  0
 13 12  1  0  0  0  0
 14  6  1  0  0  0  0
 15 14  1  0  0  0  0
 16  1  1  0  0  0  0
 16 18  1  0  0  0  0
 16 19  1  0  0  0  0
 17 16  1  0  0  0  0
 20 28  1  0  0  0  0
 21 23  1  0  0  0  0
 21 20  2  0  0  0  0
 22 21  1  0  0  0  0
 23 25  2  0  0  0  0
 24 23  1  0  0  0  0
 25 32  1  0  0  0  0
 25 26  1  0  0  0  0
 26 27  1  0  0  0  0
 28 26  2  0  0  0  0
 28 29  1  0  0  0  0
 30 32  2  0  0  0  0
 32 31  2  0  0  0  0
M  END
