2,5
 OpenBabel05122313053D

 22 22  0  0  1  0  0  0  0  0999 V2000
   -2.7106    1.3422   -1.8514 O   0  0  0  0  0  0  0  0  0  0  0  0
   -2.0285    0.5239   -1.3012 C   0  0  0  0  0  3  0  0  0  0  0  0
   -1.6667   -0.8876   -1.3984 C   0  0  2  0  0  3  0  0  0  0  0  0
   -2.6942   -1.9701   -1.5800 C   0  0  0  0  0  0  0  0  0  0  0  0
   -0.2839   -1.1153   -1.1653 C   0  0  0  0  0  3  0  0  0  0  0  0
    0.6028    0.0062   -1.1021 C   0  0  0  0  0  3  0  0  0  0  0  0
    2.0108   -0.0663   -0.6726 C   0  0  0  0  0  0  0  0  0  0  0  0
    2.5782   -1.2077   -0.0588 C   0  0  0  0  0  0  0  0  0  0  0  0
    3.9274   -1.2237    0.3148 C   0  0  0  0  0  0  0  0  0  0  0  0
    4.7392   -0.0982    0.0961 C   0  0  0  0  0  0  0  0  0  0  0  0
    4.1890    1.0449   -0.5054 C   0  0  0  0  0  0  0  0  0  0  0  0
    2.8419    1.0583   -0.8865 C   0  0  0  0  0  0  0  0  0  0  0  0
   -3.6843   -1.6551   -1.1998 H   0  0  0  0  0  0  0  0  0  0  0  0
   -2.3968   -2.9002   -1.0552 H   0  0  0  0  0  0  0  0  0  0  0  0
   -2.8122   -2.2011   -2.6600 H   0  0  0  0  0  0  0  0  0  0  0  0
    0.0641   -2.1436   -0.9738 H   0  0  0  0  0  0  0  0  0  0  0  0
    0.3865    0.8535   -1.7718 H   0  0  0  0  0  0  0  0  0  0  0  0
    1.9602   -2.0958    0.1383 H   0  0  0  0  0  0  0  0  0  0  0  0
    4.3489   -2.1233    0.7882 H   0  0  0  0  0  0  0  0  0  0  0  0
    5.7975   -0.1121    0.3971 H   0  0  0  0  0  0  0  0  0  0  0  0
    4.8147    1.9333   -0.6797 H   0  0  0  0  0  0  0  0  0  0  0  0
    2.4126    1.9575   -1.3557 H   0  0  0  0  0  0  0  0  0  0  0  0
  1  2  2  0  0  0  0
  3  2  1  1  0  0  0
  3  5  1  0  0  0  0
  4  3  1  0  0  0  0
  4 13  1  0  0  0  0
  4 14  1  0  0  0  0
  5  6  1  0  0  0  0
  5 16  1  0  0  0  0
  6  7  1  0  0  0  0
  7  8  1  0  0  0  0
  8 18  1  0  0  0  0
  8  9  2  0  0  0  0
  9 19  1  0  0  0  0
 10  9  1  0  0  0  0
 10 20  1  0  0  0  0
 11 10  2  0  0  0  0
 12  7  2  0  0  0  0
 12 11  1  0  0  0  0
 15  4  1  0  0  0  0
 17  6  1  0  0  0  0
 21 11  1  0  0  0  0
 22 12  1  0  0  0  0
M  END
