5,7
 OpenBabel05122313053D

 25 25  0  0  1  0  0  0  0  0999 V2000
    3.0763   -0.0002   -0.5924 F   0  0  0  0  0  0  0  0  0  0  0  0
    2.3519   -0.0003    1.5990 F   0  0  0  0  0  0  0  0  0  0  0  0
    1.9833   -0.0002    0.2649 B   0  0  0  0  0  0  0  0  0  0  0  0
    1.0325   -1.2301   -0.0272 N   0  0  0  0  0  0  0  0  0  0  0  0
    0.3666   -1.2525   -1.2411 C   0  0  1  0  0  3  0  0  0  0  0  0
    0.1238    0.0001   -1.8788 C   0  0  0  0  0  3  0  0  0  0  0  0
    0.3668    1.2526   -1.2410 C   0  0  1  0  0  3  0  0  0  0  0  0
    1.0327    1.2300   -0.0271 N   0  0  0  0  0  0  0  0  0  0  0  0
    1.2882   -2.4722    0.7000 C   0  0  0  0  0  0  0  0  0  0  0  0
   -0.0025   -2.5470   -1.9044 C   0  0  0  0  0  0  0  0  0  0  0  0
   -0.0019    2.5473   -1.9041 C   0  0  0  0  0  0  0  0  0  0  0  0
    1.2887    2.4719    0.7004 C   0  0  0  0  0  0  0  0  0  0  0  0
   -0.4146    0.0003   -2.8341 H   0  0  0  0  0  0  0  0  0  0  0  0
    1.6383   -2.2013    1.7111 H   0  0  0  0  0  0  0  0  0  0  0  0
    2.0817   -3.0653    0.1981 H   0  0  0  0  0  0  0  0  0  0  0  0
    0.3717   -3.0844    0.7875 H   0  0  0  0  0  0  0  0  0  0  0  0
   -0.6479   -2.3611   -2.7815 H   0  0  0  0  0  0  0  0  0  0  0  0
   -0.5441   -3.2283   -1.2224 H   0  0  0  0  0  0  0  0  0  0  0  0
    0.9157   -3.0689   -2.2476 H   0  0  0  0  0  0  0  0  0  0  0  0
   -0.6470    2.3617   -2.7814 H   0  0  0  0  0  0  0  0  0  0  0  0
    0.9164    3.0693   -2.2467 H   0  0  0  0  0  0  0  0  0  0  0  0
   -0.5438    3.2285   -1.2220 H   0  0  0  0  0  0  0  0  0  0  0  0
    1.6385    2.2008    1.7114 H   0  0  0  0  0  0  0  0  0  0  0  0
    0.3723    3.0844    0.7877 H   0  0  0  0  0  0  0  0  0  0  0  0
    2.0824    3.0648    0.1986 H   0  0  0  0  0  0  0  0  0  0  0  0
  1  3  1  0  0  0  0
  3  2  1  0  0  0  0
  4  3  1  0  0  0  0
  4  9  1  0  0  0  0
  5 10  1  6  0  0  0
  5  4  1  0  0  0  0
  6  5  1  0  0  0  0
  6  7  1  0  0  0  0
  7 11  1  6  0  0  0
  7  8  1  0  0  0  0
  8  3  1  0  0  0  0
  8 12  1  0  0  0  0
  9 16  1  0  0  0  0
  9 14  1  0  0  0  0
 10 18  1  0  0  0  0
 11 22  1  0  0  0  0
 12 24  1  0  0  0  0
 12 23  1  0  0  0  0
 13  6  1  0  0  0  0
 15  9  1  0  0  0  0
 17 10  1  0  0  0  0
 19 10  1  0  0  0  0
 20 11  1  0  0  0  0
 21 11  1  0  0  0  0
 25 12  1  0  0  0  0
M  END
