3,7
 OpenBabel05122313053D

 20 21  0  0  1  0  0  0  0  0999 V2000
    1.9866    1.4447   -1.0754 O   0  0  0  0  0  0  0  0  0  0  0  0
    1.2543    0.3908    0.8502 C   0  0  0  0  0  0  0  0  0  0  0  0
    0.3209    0.2104    1.9013 C   0  0  0  0  0  3  0  0  0  0  0  0
    0.4849   -0.5619    2.6665 H   0  0  0  0  0  0  0  0  0  0  0  0
   -0.8423    1.0377    1.9564 C   0  0  0  0  0  3  0  0  0  0  0  0
   -1.5857    0.8911    2.7505 H   0  0  0  0  0  0  0  0  0  0  0  0
   -1.0980    1.9619    0.9035 C   0  0  0  0  0  3  0  0  0  0  0  0
   -2.0374    2.5327    0.9059 H   0  0  0  0  0  0  0  0  0  0  0  0
   -0.1765    2.1514   -0.1725 C   0  0  0  0  0  3  0  0  0  0  0  0
   -0.3807    2.8452   -0.9968 H   0  0  0  0  0  0  0  0  0  0  0  0
    1.0079    1.3765   -0.1491 C   0  0  0  0  0  0  0  0  0  0  0  0
    2.8400    0.2823   -0.8869 C   0  0  0  0  0  0  0  0  0  0  0  0
    2.5901   -0.2520    0.5473 C   0  0  2  0  0  0  0  0  0  0  0  0
    2.6350   -1.7753    0.6518 C   0  0  0  0  0  0  0  0  0  0  0  0
    2.5464   -0.4755   -1.6451 H   0  0  0  0  0  0  0  0  0  0  0  0
    3.8825    0.6005   -1.0756 H   0  0  0  0  0  0  0  0  0  0  0  0
    3.3414    0.1868    1.2441 H   0  0  0  0  0  0  0  0  0  0  0  0
    1.8755   -2.2288   -0.0161 H   0  0  0  0  0  0  0  0  0  0  0  0
    2.4225   -2.1130    1.6856 H   0  0  0  0  0  0  0  0  0  0  0  0
    3.6344   -2.1663    0.3736 H   0  0  0  0  0  0  0  0  0  0  0  0
  1 12  1  0  0  0  0
  1 11  1  0  0  0  0
  2  3  1  0  0  0  0
  3  5  1  0  0  0  0
  3  4  1  0  0  0  0
  5  6  1  0  0  0  0
  7  8  1  0  0  0  0
  7  5  1  0  0  0  0
  9 11  1  0  0  0  0
  9  7  1  0  0  0  0
 10  9  1  0  0  0  0
 11  2  2  0  0  0  0
 12 13  1  0  0  0  0
 13 14  1  0  0  0  0
 13  2  1  0  0  0  0
 13 17  1  1  0  0  0
 14 19  1  0  0  0  0
 15 12  1  0  0  0  0
 16 12  1  0  0  0  0
 18 14  1  0  0  0  0
 20 14  1  0  0  0  0
M  END
