4,5
 OpenBabel05122313053D

 25 26  0  0  0  0  0  0  0  0999 V2000
   -4.8469   -1.2665    0.4265 O   0  0  0  0  0  0  0  0  0  0  0  0
   -0.7955    2.2886   -0.8638 N   0  0  0  0  0  0  0  0  0  0  0  0
    1.3361    2.7154   -0.7300 N   0  0  0  0  0  0  0  0  0  0  0  0
    0.4258    1.6949   -0.6369 C   0  0  0  0  0  2  0  0  0  0  0  0
   -1.5358    0.1557   -0.1960 C   0  0  0  0  0  3  0  0  0  0  0  0
   -2.5770   -0.7071    0.1693 C   0  0  0  0  0  0  0  0  0  0  0  0
   -2.3755   -1.7054    0.5812 H   0  0  0  0  0  0  0  0  0  0  0  0
   -3.9326   -0.3217    0.0509 C   0  0  0  0  0  0  0  0  0  0  0  0
    2.7428    2.5925   -0.3979 C   0  0  0  0  0  0  0  0  0  0  0  0
    2.8928    1.5968    0.0579 H   0  0  0  0  0  0  0  0  0  0  0  0
    3.0220    3.3641    0.3454 H   0  0  0  0  0  0  0  0  0  0  0  0
    3.3827    2.6987   -1.2968 H   0  0  0  0  0  0  0  0  0  0  0  0
   -0.6550    3.6452   -1.1079 C   0  0  0  0  0  0  0  0  0  0  0  0
   -1.5030    4.3062   -1.3051 H   0  0  0  0  0  0  0  0  0  0  0  0
   -4.2733    0.9619   -0.4244 C   0  0  0  0  0  0  0  0  0  0  0  0
   -5.3195    1.2781   -0.5219 H   0  0  0  0  0  0  0  0  0  0  0  0
   -3.2462    1.8624   -0.7588 C   0  0  0  0  0  0  0  0  0  0  0  0
   -3.5022    2.8764   -1.1022 H   0  0  0  0  0  0  0  0  0  0  0  0
    0.6891    3.9141   -1.0272 C   0  0  0  0  0  0  0  0  0  0  0  0
    1.2365    4.8530   -1.1504 H   0  0  0  0  0  0  0  0  0  0  0  0
   -6.2168   -0.9348    0.3600 C   0  0  0  0  0  0  0  0  0  0  0  0
   -6.4693   -0.0664    1.0107 H   0  0  0  0  0  0  0  0  0  0  0  0
   -6.7748   -1.8215    0.7156 H   0  0  0  0  0  0  0  0  0  0  0  0
   -6.5417   -0.6997   -0.6799 H   0  0  0  0  0  0  0  0  0  0  0  0
   -1.9169    1.4565   -0.6357 C   0  0  0  0  0  0  0  0  0  0  0  0
  2  4  1  0  0  0  0
  2 25  1  0  0  0  0
  3  4  1  0  0  0  0
  3  9  1  0  0  0  0
  5  6  1  0  0  0  0
  6  7  1  0  0  0  0
  8  6  2  0  0  0  0
  8  1  1  0  0  0  0
  9 10  1  0  0  0  0
  9 11  1  0  0  0  0
 12  9  1  0  0  0  0
 13 19  2  0  0  0  0
 13  2  1  0  0  0  0
 14 13  1  0  0  0  0
 15  8  1  0  0  0  0
 16 15  1  0  0  0  0
 17 25  1  0  0  0  0
 17 15  2  0  0  0  0
 18 17  1  0  0  0  0
 19  3  1  0  0  0  0
 20 19  1  0  0  0  0
 21  1  1  0  0  0  0
 21 23  1  0  0  0  0
 21 22  1  0  0  0  0
 24 21  1  0  0  0  0
 25  5  2  0  0  0  0
M  END
