5,18
 OpenBabel05122313053D

 26 27  0  0  0  0  0  0  0  0999 V2000
   -4.6687   -1.5601   -0.3004 O   0  0  0  0  0  0  0  0  0  0  0  0
    2.4711    1.8533   -0.9959 N   0  0  0  0  0  0  0  0  0  0  0  0
    0.8250    2.8300    0.0214 N   0  0  0  0  0  0  0  0  0  0  0  0
   -5.9806    0.1849   -0.3852 O   0  0  0  0  0  0  0  0  0  0  0  0
    1.3273    1.5893   -0.2763 C   0  0  0  0  0  2  0  0  0  0  0  0
    3.3722    0.8558   -1.5475 C   0  0  0  0  0  0  0  0  0  0  0  0
    4.3794    0.9586   -1.0957 H   0  0  0  0  0  0  0  0  0  0  0  0
    3.4419    0.9674   -2.6463 H   0  0  0  0  0  0  0  0  0  0  0  0
    2.9531   -0.1421   -1.3292 H   0  0  0  0  0  0  0  0  0  0  0  0
    2.6609    3.2224   -1.1409 C   0  0  0  0  0  0  0  0  0  0  0  0
    3.5066    3.6363   -1.6972 H   0  0  0  0  0  0  0  0  0  0  0  0
    1.6215    3.8396   -0.4976 C   0  0  0  0  0  0  0  0  0  0  0  0
    1.3833    4.8996   -0.3703 H   0  0  0  0  0  0  0  0  0  0  0  0
   -0.3478    3.0268    0.8698 C   0  0  0  0  0  0  0  0  0  0  0  0
   -0.6259    4.0964    0.8153 H   0  0  0  0  0  0  0  0  0  0  0  0
   -0.0468    2.8143    1.9204 H   0  0  0  0  0  0  0  0  0  0  0  0
   -1.5111    2.1449    0.4838 C   0  0  0  0  0  0  0  0  0  0  0  0
   -1.2859    0.7778    0.1769 C   0  0  0  0  0  3  0  0  0  0  0  0
   -2.4252   -0.0079   -0.1098 C   0  0  0  0  0  0  0  0  0  0  0  0
   -2.3292   -1.0663   -0.3861 H   0  0  0  0  0  0  0  0  0  0  0  0
   -3.7092    0.5419   -0.0408 C   0  0  0  0  0  0  0  0  0  0  0  0
   -3.9331    1.8955    0.2465 C   0  0  0  0  0  0  0  0  0  0  0  0
   -4.9581    2.2863    0.2650 H   0  0  0  0  0  0  0  0  0  0  0  0
   -2.8125    2.6911    0.5012 C   0  0  0  0  0  0  0  0  0  0  0  0
   -2.9502    3.7598    0.7342 H   0  0  0  0  0  0  0  0  0  0  0  0
   -4.8745   -0.3447   -0.2643 N   0  0  0  0  0  0  0  0  0  0  0  0
  1 26  2  0  0  0  0
  2  5  1  0  0  0  0
  3 14  1  0  0  0  0
  4 26  2  0  0  0  0
  5  3  1  0  0  0  0
  6  9  1  0  0  0  0
  6  7  1  0  0  0  0
  6  2  1  0  0  0  0
  8  6  1  0  0  0  0
 10  2  1  0  0  0  0
 10 12  2  0  0  0  0
 11 10  1  0  0  0  0
 12 13  1  0  0  0  0
 12  3  1  0  0  0  0
 14 16  1  0  0  0  0
 15 14  1  0  0  0  0
 17 24  1  0  0  0  0
 17 14  1  0  0  0  0
 18 17  2  0  0  0  0
 19 21  2  0  0  0  0
 19 18  1  0  0  0  0
 20 19  1  0  0  0  0
 21 22  1  0  0  0  0
 22 23  1  0  0  0  0
 22 24  2  0  0  0  0
 24 25  1  0  0  0  0
 26 21  1  0  0  0  0
M  END
