1,5
 OpenBabel05122313053D

 20 19  0  0  0  0  0  0  0  0999 V2000
   -1.1696    0.6961   -0.0935 C   0  0  0  0  0  2  0  0  0  0  0  0
   -0.6879    1.9615   -0.2550 N   0  0  0  0  0  0  0  0  0  0  0  0
   -1.2844    2.7928   -0.2857 H   0  0  0  0  0  0  0  0  0  0  0  0
    0.7097    2.1192   -0.2073 C   0  0  0  0  0  0  0  0  0  0  0  0
    1.3669    0.9364   -0.0194 C   0  0  0  0  0  3  0  0  0  0  0  0
    2.7742    0.8755    0.0615 C   0  0  0  0  0  0  0  0  0  0  0  0
    3.9473    0.7456    0.1182 N   0  0  0  0  0  0  0  0  0  0  0  0
    1.2599    3.5040   -0.3463 C   0  0  0  0  0  0  0  0  0  0  0  0
    0.9060    4.1738    0.4687 H   0  0  0  0  0  0  0  0  0  0  0  0
    0.9605    3.9720   -1.3098 H   0  0  0  0  0  0  0  0  0  0  0  0
    2.3643    3.4761   -0.3061 H   0  0  0  0  0  0  0  0  0  0  0  0
   -2.5244    0.5718   -0.1049 N   0  0  0  0  0  0  0  0  0  0  0  0
   -3.4090    1.6921   -0.3926 C   0  0  0  0  0  0  0  0  0  0  0  0
   -4.4102    1.3088   -0.6656 H   0  0  0  0  0  0  0  0  0  0  0  0
   -3.0326    2.2782   -1.2566 H   0  0  0  0  0  0  0  0  0  0  0  0
   -3.5330    2.3768    0.4788 H   0  0  0  0  0  0  0  0  0  0  0  0
   -3.1706   -0.6408    0.3685 C   0  0  0  0  0  0  0  0  0  0  0  0
   -3.8351   -0.4134    1.2305 H   0  0  0  0  0  0  0  0  0  0  0  0
   -2.3868   -1.3416    0.7015 H   0  0  0  0  0  0  0  0  0  0  0  0
   -3.7844   -1.1149   -0.4281 H   0  0  0  0  0  0  0  0  0  0  0  0
  2  4  1  0  0  0  0
  2  1  1  0  0  0  0
  3  2  1  0  0  0  0
  4  5  2  0  0  0  0
  5  6  1  0  0  0  0
  6  7  3  0  0  0  0
  8 11  1  0  0  0  0
  8  4  1  0  0  0  0
  8  9  1  0  0  0  0
 10  8  1  0  0  0  0
 12  1  1  0  0  0  0
 12 17  1  0  0  0  0
 13 12  1  0  0  0  0
 13 16  1  0  0  0  0
 14 13  1  0  0  0  0
 15 13  1  0  0  0  0
 17 19  1  0  0  0  0
 17 18  1  0  0  0  0
 20 17  1  0  0  0  0
M  END
