3,6
 OpenBabel05122313053D

 45 47  0  0  1  0  0  0  0  0999 V2000
   -0.7060    0.2384    0.7973 C   0  0  0  0  0  0  0  0  0  0  0  0
   -0.6442    0.2130   -0.6465 C   0  0  0  0  0  0  0  0  0  0  0  0
   -1.0817   -0.9518   -1.3316 C   0  0  0  0  0  3  0  0  0  0  0  0
   -1.5954   -2.0845   -0.6293 C   0  0  0  0  0  0  0  0  0  0  0  0
   -1.6577   -2.0590    0.7813 C   0  0  0  0  0  0  0  0  0  0  0  0
   -1.2041   -0.9010    1.4845 C   0  0  0  0  0  3  0  0  0  0  0  0
   -1.2823   -0.8676    2.5806 H   0  0  0  0  0  0  0  0  0  0  0  0
   -2.0899   -2.9036    1.3350 H   0  0  0  0  0  0  0  0  0  0  0  0
   -1.9753   -2.9503   -1.1882 H   0  0  0  0  0  0  0  0  0  0  0  0
   -1.0582   -0.9595   -2.4302 H   0  0  0  0  0  0  0  0  0  0  0  0
   -0.1029    1.3850   -1.4340 C   0  0  0  0  0  0  0  0  0  0  0  0
    1.3918    1.7202   -1.1648 C   0  0  2  0  0  0  0  0  0  0  0  0
    2.2055    0.4202   -1.1340 C   0  0  0  0  0  0  0  0  0  0  0  0
    2.5433   -0.1239   -2.1867 O   0  0  0  0  0  0  0  0  0  0  0  0
    2.4998   -0.1992    0.1879 C   0  0  0  0  0  0  0  0  0  0  0  0
    3.3411   -1.9103    0.1641 Si  0  0  0  0  0  0  0  0  0  0  0  0
    2.2109   -3.1123   -0.7594 C   0  0  0  0  0  0  0  0  0  0  0  0
    2.6422   -4.1344   -0.7708 H   0  0  0  0  0  0  0  0  0  0  0  0
    2.0769   -2.7723   -1.8050 H   0  0  0  0  0  0  0  0  0  0  0  0
    1.2123   -3.1615   -0.2788 H   0  0  0  0  0  0  0  0  0  0  0  0
    3.5408   -2.4792    1.9609 C   0  0  0  0  0  0  0  0  0  0  0  0
    4.0270   -3.4761    1.9919 H   0  0  0  0  0  0  0  0  0  0  0  0
    4.1738   -1.7826    2.5485 H   0  0  0  0  0  0  0  0  0  0  0  0
    2.5608   -2.5720    2.4733 H   0  0  0  0  0  0  0  0  0  0  0  0
    5.0314   -1.7871   -0.6695 C   0  0  0  0  0  0  0  0  0  0  0  0
    5.5281   -2.7787   -0.7053 H   0  0  0  0  0  0  0  0  0  0  0  0
    5.6987   -1.0897   -0.1231 H   0  0  0  0  0  0  0  0  0  0  0  0
    4.9095   -1.4149   -1.7056 H   0  0  0  0  0  0  0  0  0  0  0  0
    2.0977    0.4243    1.3318 C   0  0  0  0  0  0  0  0  0  0  0  0
    1.3245    1.7176    1.3694 C   0  0  1  0  0  0  0  0  0  0  0  0
    1.6031    2.5676    0.1077 C   0  0  1  0  0  0  0  0  0  0  0  0
    2.9895    3.1613    0.1441 C   0  0  0  0  0  0  0  0  0  0  0  0
    3.2532    4.4788    0.1494 C   0  0  0  0  0  0  0  0  0  0  0  0
    4.2857    4.8601    0.1733 H   0  0  0  0  0  0  0  0  0  0  0  0
    2.4428    5.2272    0.1273 H   0  0  0  0  0  0  0  0  0  0  0  0
    3.8289    2.4425    0.1647 H   0  0  0  0  0  0  0  0  0  0  0  0
    0.8758    3.4084    0.0897 H   0  0  0  0  0  0  0  0  0  0  0  0
   -0.1987    1.4279    1.5785 C   0  0  0  0  0  0  0  0  0  0  0  0
   -0.3924    1.2455    2.6537 H   0  0  0  0  0  0  0  0  0  0  0  0
   -0.7648    2.3436    1.3088 H   0  0  0  0  0  0  0  0  0  0  0  0
    1.6509    2.3059    2.2530 H   0  0  0  0  0  0  0  0  0  0  0  0
    2.2809   -0.0648    2.3061 H   0  0  0  0  0  0  0  0  0  0  0  0
    1.7532    2.2928   -2.0424 H   0  0  0  0  0  0  0  0  0  0  0  0
   -0.2203    1.1571   -2.5105 H   0  0  0  0  0  0  0  0  0  0  0  0
   -0.7047    2.2955   -1.2309 H   0  0  0  0  0  0  0  0  0  0  0  0
  1  6  1  0  0  0  0
  1 38  1  0  0  0  0
  2  1  2  0  0  0  0
  3  2  1  0  0  0  0
  3  4  1  0  0  0  0
  4  5  2  0  0  0  0
  5  8  1  0  0  0  0
  5  6  1  0  0  0  0
  6  7  1  0  0  0  0
  9  4  1  0  0  0  0
 10  3  1  0  0  0  0
 11 45  1  0  0  0  0
 11 12  1  0  0  0  0
 11  2  1  0  0  0  0
 12 43  1  6  0  0  0
 12 13  1  0  0  0  0
 12 31  1  0  0  0  0
 13 15  1  0  0  0  0
 14 13  2  0  0  0  0
 15 29  2  0  0  0  0
 16 15  1  0  0  0  0
 16 21  1  0  0  0  0
 17 20  1  0  0  0  0
 17 16  1  0  0  0  0
 18 17  1  0  0  0  0
 19 17  1  0  0  0  0
 21 22  1  0  0  0  0
 21 24  1  0  0  0  0
 21 23  1  0  0  0  0
 25 27  1  0  0  0  0
 25 16  1  0  0  0  0
 26 25  1  0  0  0  0
 28 25  1  0  0  0  0
 29 30  1  0  0  0  0
 29 42  1  0  0  0  0
 30 38  1  0  0  0  0
 30 41  1  1  0  0  0
 31 37  1  6  0  0  0
 31 32  1  0  0  0  0
 31 30  1  0  0  0  0
 32 33  2  0  0  0  0
 32 36  1  0  0  0  0
 33 34  1  0  0  0  0
 35 33  1  0  0  0  0
 38 39  1  0  0  0  0
 40 38  1  0  0  0  0
 44 11  1  0  0  0  0
M  END
