1,3
 OpenBabel05122313053D

 46 52  0  0  1  0  0  0  0  0999 V2000
   -0.2037    0.7963    0.9160 C   0  0  2  0  0  3  0  0  0  0  0  0
    0.3588   -0.4469    1.3860 C   0  0  2  0  0  3  0  0  0  0  0  0
   -0.6569   -1.4464    1.3409 C   0  0  0  0  0  3  0  0  0  0  0  0
   -0.5344   -2.5061    1.5849 H   0  0  0  0  0  0  0  0  0  0  0  0
   -1.8893   -0.8064    0.9842 C   0  0  0  0  0  0  0  0  0  0  0  0
   -1.6371    0.5931    0.7805 C   0  0  0  0  0  0  0  0  0  0  0  0
    0.6911    1.9100    0.6059 C   0  0  0  0  0  0  0  0  0  0  0  0
    0.2799    3.0228   -0.1711 C   0  0  0  0  0  0  0  0  0  0  0  0
   -0.7243    3.0206   -0.6104 H   0  0  0  0  0  0  0  0  0  0  0  0
    1.1479    4.0779   -0.4473 C   0  0  0  0  0  0  0  0  0  0  0  0
    0.8013    4.9252   -1.0574 H   0  0  0  0  0  0  0  0  0  0  0  0
    2.4725    4.0327    0.0259 C   0  0  0  0  0  0  0  0  0  0  0  0
    3.1679    4.8588   -0.1852 H   0  0  0  0  0  0  0  0  0  0  0  0
    2.9192    2.9108    0.7226 C   0  0  0  0  0  0  0  0  0  0  0  0
    3.9740    2.8668    1.0235 H   0  0  0  0  0  0  0  0  0  0  0  0
    2.0636    1.8210    1.0197 C   0  0  0  0  0  0  0  0  0  0  0  0
    2.5776    0.6098    1.6822 C   0  0  0  0  0  0  0  0  0  0  0  0
    3.9087    0.5131    2.1557 C   0  0  0  0  0  0  0  0  0  0  0  0
    4.5885    1.3690    2.0554 H   0  0  0  0  0  0  0  0  0  0  0  0
    4.3901   -0.6522    2.7523 C   0  0  0  0  0  0  0  0  0  0  0  0
    5.4316   -0.6924    3.1044 H   0  0  0  0  0  0  0  0  0  0  0  0
    3.5469   -1.7688    2.9102 C   0  0  0  0  0  0  0  0  0  0  0  0
    3.9201   -2.6840    3.3934 H   0  0  0  0  0  0  0  0  0  0  0  0
    2.2314   -1.7036    2.4549 C   0  0  0  0  0  0  0  0  0  0  0  0
    1.5634   -2.5668    2.5858 H   0  0  0  0  0  0  0  0  0  0  0  0
    1.7364   -0.5359    1.8311 C   0  0  0  0  0  0  0  0  0  0  0  0
   -3.1911   -1.3894    0.7214 C   0  0  0  0  0  0  0  0  0  0  0  0
   -3.4192   -2.7803    0.8427 C   0  0  0  0  0  0  0  0  0  0  0  0
   -2.6030   -3.4316    1.1840 H   0  0  0  0  0  0  0  0  0  0  0  0
   -4.6495   -3.3348    0.4982 C   0  0  0  0  0  0  0  0  0  0  0  0
   -4.8098   -4.4196    0.5855 H   0  0  0  0  0  0  0  0  0  0  0  0
   -5.6776   -2.5001    0.0160 C   0  0  0  0  0  0  0  0  0  0  0  0
   -6.6453   -2.9316   -0.2807 H   0  0  0  0  0  0  0  0  0  0  0  0
   -5.4750   -1.1240   -0.0855 C   0  0  0  0  0  0  0  0  0  0  0  0
   -6.2949   -0.4974   -0.4615 H   0  0  0  0  0  0  0  0  0  0  0  0
   -4.2432   -0.5270    0.2807 C   0  0  0  0  0  0  0  0  0  0  0  0
   -4.0479    0.9310    0.2949 C   0  0  0  0  0  0  0  0  0  0  0  0
   -5.1361    1.8186    0.1055 C   0  0  0  0  0  0  0  0  0  0  0  0
   -6.1259    1.4153   -0.1466 H   0  0  0  0  0  0  0  0  0  0  0  0
   -5.0013    3.1960    0.2748 C   0  0  0  0  0  0  0  0  0  0  0  0
   -5.8705    3.8536    0.1242 H   0  0  0  0  0  0  0  0  0  0  0  0
   -3.7665    3.7314    0.6863 C   0  0  0  0  0  0  0  0  0  0  0  0
   -3.6650    4.8081    0.8889 H   0  0  0  0  0  0  0  0  0  0  0  0
   -2.6699    2.8865    0.8508 C   0  0  0  0  0  0  0  0  0  0  0  0
   -1.7207    3.3013    1.2109 H   0  0  0  0  0  0  0  0  0  0  0  0
   -2.7654    1.4951    0.6051 C   0  0  0  0  0  0  0  0  0  0  0  0
  1  7  1  6  0  0  0
  1  2  1  0  0  0  0
  2  3  1  1  0  0  0
  2 26  1  0  0  0  0
  3  4  1  0  0  0  0
  5  3  1  0  0  0  0
  6  1  1  0  0  0  0
  6  5  1  0  0  0  0
  7 16  1  0  0  0  0
  8  7  2  0  0  0  0
  9  8  1  0  0  0  0
 10  8  1  0  0  0  0
 10 12  2  0  0  0  0
 11 10  1  0  0  0  0
 12 14  1  0  0  0  0
 13 12  1  0  0  0  0
 14 16  2  0  0  0  0
 14 15  1  0  0  0  0
 16 17  1  0  0  0  0
 17 26  2  0  0  0  0
 17 18  1  0  0  0  0
 18 20  2  0  0  0  0
 19 18  1  0  0  0  0
 20 22  1  0  0  0  0
 20 21  1  0  0  0  0
 22 23  1  0  0  0  0
 24 25  1  0  0  0  0
 24 22  2  0  0  0  0
 26 24  1  0  0  0  0
 27 28  1  0  0  0  0
 27  5  2  0  0  0  0
 28 29  1  0  0  0  0
 30 31  1  0  0  0  0
 30 28  2  0  0  0  0
 32 30  1  0  0  0  0
 33 32  1  0  0  0  0
 34 32  2  0  0  0  0
 34 36  1  0  0  0  0
 35 34  1  0  0  0  0
 36 37  2  0  0  0  0
 36 27  1  0  0  0  0
 37 46  1  0  0  0  0
 38 40  2  0  0  0  0
 38 37  1  0  0  0  0
 39 38  1  0  0  0  0
 40 42  1  0  0  0  0
 41 40  1  0  0  0  0
 42 44  2  0  0  0  0
 42 43  1  0  0  0  0
 44 45  1  0  0  0  0
 46  6  2  0  0  0  0
 46 44  1  0  0  0  0
M  END
