18,21
 OpenBabel05122313053D

 41 41  0  0  1  0  0  0  0  0999 V2000
   -3.8081    2.3874   -1.3598 O   0  0  0  0  0  0  0  0  0  0  0  0
   -4.4536    1.7329    0.7223 O   0  0  0  0  0  0  0  0  0  0  0  0
   -5.7641   -0.4158   -0.4713 O   0  0  0  0  0  0  0  0  0  0  0  0
   -5.1929   -2.2979    0.6551 O   0  0  0  0  0  0  0  0  0  0  0  0
    1.5718    2.4713   -1.1538 O   0  0  0  0  0  0  0  0  0  0  0  0
    2.0484    2.5970    1.0614 O   0  0  0  0  0  0  0  0  0  0  0  0
   -0.6628   -0.5746   -0.6533 C   0  0  0  0  0  0  0  0  0  0  0  0
   -1.5549    0.5166   -0.6991 C   0  0  0  0  0  0  0  0  0  0  0  0
   -2.9187    0.3578   -0.4190 C   0  0  0  0  0  0  0  0  0  0  0  0
   -3.4319   -0.9337   -0.1359 C   0  0  0  0  0  0  0  0  0  0  0  0
   -2.5426   -2.0236   -0.0933 C   0  0  0  0  0  0  0  0  0  0  0  0
   -1.1752   -1.8466   -0.3407 C   0  0  0  0  0  0  0  0  0  0  0  0
   -3.7812    1.5889   -0.4434 C   0  0  0  0  0  0  0  0  0  0  0  0
   -5.4160    2.7918    0.7457 C   0  0  0  0  0  0  0  0  0  0  0  0
   -4.9052   -1.1481   -0.0093 C   0  0  0  0  0  0  0  0  0  0  0  0
   -6.5869   -2.6051    0.7569 C   0  0  0  0  0  0  0  0  0  0  0  0
    2.1549   -2.0912    1.2172 C   0  0  0  0  0  3  0  0  0  0  0  0
    2.1326   -2.4083   -0.1732 C   0  0  0  0  0  3  0  0  0  0  0  0
    1.7097   -1.4980   -1.1677 C   0  0  0  0  0  3  0  0  0  0  0  0
    0.8105   -0.3041   -0.9055 C   0  0  2  0  0  0  0  0  0  0  0  0
    1.5173    0.4714    0.2099 C   0  0  0  0  0  3  0  0  0  0  0  0
    1.6989    1.9233   -0.0671 C   0  0  0  0  0  0  0  0  0  0  0  0
    2.3021    3.9948    0.8875 C   0  0  0  0  0  0  0  0  0  0  0  0
   -1.1784    1.5196   -0.9540 H   0  0  0  0  0  0  0  0  0  0  0  0
   -2.9441   -3.0241    0.1193 H   0  0  0  0  0  0  0  0  0  0  0  0
   -0.5009   -2.7145   -0.3023 H   0  0  0  0  0  0  0  0  0  0  0  0
   -6.2805    2.5228    0.1046 H   0  0  0  0  0  0  0  0  0  0  0  0
   -5.7394    2.8943    1.7969 H   0  0  0  0  0  0  0  0  0  0  0  0
   -4.9766    3.7386    0.3742 H   0  0  0  0  0  0  0  0  0  0  0  0
   -6.6520   -3.5552    1.3163 H   0  0  0  0  0  0  0  0  0  0  0  0
   -7.0432   -2.7138   -0.2480 H   0  0  0  0  0  0  0  0  0  0  0  0
   -7.1288   -1.8010    1.2945 H   0  0  0  0  0  0  0  0  0  0  0  0
    1.3293   -1.5361    1.6834 H   0  0  0  0  0  0  0  0  0  0  0  0
    2.6783   -2.7900    1.8876 H   0  0  0  0  0  0  0  0  0  0  0  0
    2.6697   -3.3082   -0.5201 H   0  0  0  0  0  0  0  0  0  0  0  0
    1.8782   -1.7980   -2.2148 H   0  0  0  0  0  0  0  0  0  0  0  0
    0.8777    0.3569   -1.7962 H   0  0  0  0  0  0  0  0  0  0  0  0
    1.1013    0.3364    1.2231 H   0  0  0  0  0  0  0  0  0  0  0  0
    3.1220    4.1603    0.1592 H   0  0  0  0  0  0  0  0  0  0  0  0
    2.5870    4.3805    1.8826 H   0  0  0  0  0  0  0  0  0  0  0  0
    1.3992    4.5181    0.5129 H   0  0  0  0  0  0  0  0  0  0  0  0
  1 13  2  0  0  0  0
  2 14  1  0  0  0  0
  3 15  2  0  0  0  0
  4 16  1  0  0  0  0
  5 22  2  0  0  0  0
  7 12  1  0  0  0  0
  8  7  2  0  0  0  0
  8  9  1  0  0  0  0
  9 10  2  0  0  0  0
 10 11  1  0  0  0  0
 10 15  1  0  0  0  0
 11 25  1  0  0  0  0
 12 26  1  0  0  0  0
 12 11  2  0  0  0  0
 13  9  1  0  0  0  0
 13  2  1  0  0  0  0
 14 28  1  0  0  0  0
 15  4  1  0  0  0  0
 16 32  1  0  0  0  0
 16 30  1  0  0  0  0
 17 33  1  0  0  0  0
 17 34  1  0  0  0  0
 18 17  1  0  0  0  0
 19 20  1  0  0  0  0
 19 18  1  0  0  0  0
 20 37  1  6  0  0  0
 20  7  1  0  0  0  0
 20 21  1  0  0  0  0
 21 38  1  0  0  0  0
 22 21  1  0  0  0  0
 22  6  1  0  0  0  0
 23  6  1  0  0  0  0
 23 40  1  0  0  0  0
 24  8  1  0  0  0  0
 27 14  1  0  0  0  0
 29 14  1  0  0  0  0
 31 16  1  0  0  0  0
 35 18  1  0  0  0  0
 36 19  1  0  0  0  0
 39 23  1  0  0  0  0
 41 23  1  0  0  0  0
M  END
