5,6
 OpenBabel05122313053D

 32 34  0  0  1  0  0  0  0  0999 V2000
    2.2254    2.4614   -0.7434 C   0  0  0  0  0  0  0  0  0  0  0  0
    0.7999    2.4792   -0.0752 C   0  0  0  0  0  0  0  0  0  0  0  0
    0.0216    1.2508   -0.4648 C   0  0  1  0  0  3  0  0  0  0  0  0
   -0.8929    1.2263   -1.5560 C   0  0  0  0  0  3  0  0  0  0  0  0
   -1.3654   -0.0004   -2.1010 C   0  0  0  0  0  3  0  0  0  0  0  0
    0.3543   -0.0001    0.1399 C   0  0  0  0  0  3  0  0  0  0  0  0
    4.1887    0.0004    1.4163 C   0  0  0  0  0  0  0  0  0  0  0  0
    3.7663    1.2178    0.8581 C   0  0  0  0  0  0  0  0  0  0  0  0
    3.0034    1.2328   -0.3264 C   0  0  0  0  0  0  0  0  0  0  0  0
    2.7315   -0.0000   -0.9562 C   0  0  0  0  0  0  0  0  0  0  0  0
    2.7561    3.3891   -0.4465 H   0  0  0  0  0  0  0  0  0  0  0  0
    2.0984    2.4892   -1.8456 H   0  0  0  0  0  0  0  0  0  0  0  0
    0.2658    3.4002   -0.3852 H   0  0  0  0  0  0  0  0  0  0  0  0
    0.9253    2.5205    1.0260 H   0  0  0  0  0  0  0  0  0  0  0  0
   -1.2429    2.1792   -1.9810 H   0  0  0  0  0  0  0  0  0  0  0  0
   -2.1011   -0.0005   -2.9156 H   0  0  0  0  0  0  0  0  0  0  0  0
    0.9847   -0.0001    1.0392 H   0  0  0  0  0  0  0  0  0  0  0  0
    4.8000    0.0006    2.3316 H   0  0  0  0  0  0  0  0  0  0  0  0
    4.0010    2.1665    1.3669 H   0  0  0  0  0  0  0  0  0  0  0  0
    2.1496   -0.0002   -1.8911 H   0  0  0  0  0  0  0  0  0  0  0  0
    0.0218   -1.2514   -0.4649 C   0  0  1  0  0  3  0  0  0  0  0  0
   -0.8925   -1.2272   -1.5558 C   0  0  0  0  0  3  0  0  0  0  0  0
    3.7666   -1.2172    0.8584 C   0  0  0  0  0  0  0  0  0  0  0  0
    3.0037   -1.2326   -0.3261 C   0  0  0  0  0  0  0  0  0  0  0  0
    0.8004   -2.4796   -0.0750 C   0  0  0  0  0  0  0  0  0  0  0  0
   -1.2420   -2.1802   -1.9809 H   0  0  0  0  0  0  0  0  0  0  0  0
    4.0015   -2.1657    1.3675 H   0  0  0  0  0  0  0  0  0  0  0  0
    2.2260   -2.4615   -0.7428 C   0  0  0  0  0  0  0  0  0  0  0  0
    0.2665   -3.4007   -0.3851 H   0  0  0  0  0  0  0  0  0  0  0  0
    0.9255   -2.5208    1.0262 H   0  0  0  0  0  0  0  0  0  0  0  0
    2.7569   -3.3890   -0.4455 H   0  0  0  0  0  0  0  0  0  0  0  0
    2.0993   -2.4897   -1.8451 H   0  0  0  0  0  0  0  0  0  0  0  0
  1 11  1  0  0  0  0
  1  9  1  0  0  0  0
  1  2  1  0  0  0  0
  2 14  1  0  0  0  0
  3  4  1  6  0  0  0
  3  2  1  0  0  0  0
  3  6  1  0  0  0  0
  5  4  1  0  0  0  0
  5 22  1  0  0  0  0
  6 17  1  0  0  0  0
  7 18  1  0  0  0  0
  8 19  1  0  0  0  0
  8  7  2  0  0  0  0
  9  8  1  0  0  0  0
 10  9  2  0  0  0  0
 10 24  1  0  0  0  0
 12  1  1  0  0  0  0
 13  2  1  0  0  0  0
 15  4  1  0  0  0  0
 16  5  1  0  0  0  0
 20 10  1  0  0  0  0
 21 22  1  6  0  0  0
 21 25  1  0  0  0  0
 21  6  1  0  0  0  0
 23 27  1  0  0  0  0
 23  7  1  0  0  0  0
 24 23  2  0  0  0  0
 25 30  1  0  0  0  0
 26 22  1  0  0  0  0
 28 31  1  0  0  0  0
 28 24  1  0  0  0  0
 28 25  1  0  0  0  0
 29 25  1  0  0  0  0
 32 28  1  0  0  0  0
M  END
