11,13
 OpenBabel05122313053D

 40 42  0  0  1  0  0  0  0  0999 V2000
   -2.9422   -1.6914   -0.1245 S   0  0  0  0  0  0  0  0  0  0  0  0
    0.2928   -2.7421   -0.9202 O   0  0  0  0  0  0  0  0  0  0  0  0
   -3.9909   -2.1715    0.8034 O   0  0  0  0  0  0  0  0  0  0  0  0
   -2.8201   -2.1890   -1.5189 O   0  0  0  0  0  0  0  0  0  0  0  0
   -0.2622    0.7435    1.3324 O   0  0  0  0  0  0  0  0  0  0  0  0
   -1.1862   -3.5175    0.6359 N   0  0  0  0  0  0  0  0  0  0  0  0
   -0.3681   -3.7671   -0.3203 C   0  0  0  0  0  0  0  0  0  0  0  0
   -1.2683   -2.0751    0.6881 C   0  0  1  0  0  0  0  0  0  0  0  0
   -0.0916   -1.5560   -0.1848 C   0  0  1  0  0  0  0  0  0  0  0  0
    1.0958   -1.0409    0.6080 C   0  0  1  0  0  3  0  0  0  0  0  0
    2.3542   -1.7015    0.5966 C   0  0  0  0  0  3  0  0  0  0  0  0
    3.4733   -1.1836    1.3105 C   0  0  0  0  0  3  0  0  0  0  0  0
    3.3420    0.0534    1.9888 C   0  0  0  0  0  3  0  0  0  0  0  0
    2.0900    0.7367    2.0306 C   0  0  0  0  0  0  0  0  0  0  0  0
    0.9675    0.1821    1.3519 C   0  0  0  0  0  0  0  0  0  0  0  0
   -0.4111    2.0808    1.8032 C   0  0  0  0  0  0  0  0  0  0  0  0
   -3.0615    0.1071   -0.2061 C   0  0  0  0  0  0  0  0  0  0  0  0
   -3.7569    0.7796    0.8075 C   0  0  0  0  0  0  0  0  0  0  0  0
   -3.9003    2.1722    0.7207 C   0  0  0  0  0  0  0  0  0  0  0  0
   -3.3440    2.8993   -0.3540 C   0  0  0  0  0  0  0  0  0  0  0  0
   -2.6496    2.1894   -1.3586 C   0  0  0  0  0  0  0  0  0  0  0  0
   -2.5225    0.7972   -1.3033 C   0  0  0  0  0  0  0  0  0  0  0  0
   -3.4953    4.3955   -0.4464 C   0  0  0  0  0  0  0  0  0  0  0  0
   -0.1201   -4.7664   -0.7108 H   0  0  0  0  0  0  0  0  0  0  0  0
   -1.3296   -1.6578    1.7104 H   0  0  0  0  0  0  0  0  0  0  0  0
   -0.4104   -0.7888   -0.9148 H   0  0  0  0  0  0  0  0  0  0  0  0
    2.4532   -2.6125   -0.0077 H   0  0  0  0  0  0  0  0  0  0  0  0
    4.4450   -1.6911    1.2576 H   0  0  0  0  0  0  0  0  0  0  0  0
    4.2147    0.5064    2.4800 H   0  0  0  0  0  0  0  0  0  0  0  0
    2.0108    1.6975    2.5511 H   0  0  0  0  0  0  0  0  0  0  0  0
   -1.4645    2.3487    1.6141 H   0  0  0  0  0  0  0  0  0  0  0  0
   -0.1999    2.1523    2.8915 H   0  0  0  0  0  0  0  0  0  0  0  0
    0.2551    2.7699    1.2429 H   0  0  0  0  0  0  0  0  0  0  0  0
   -4.1974    0.2028    1.6339 H   0  0  0  0  0  0  0  0  0  0  0  0
   -4.4597    2.7090    1.5032 H   0  0  0  0  0  0  0  0  0  0  0  0
   -2.2037    2.7364   -2.2033 H   0  0  0  0  0  0  0  0  0  0  0  0
   -2.0302    0.2412   -2.1143 H   0  0  0  0  0  0  0  0  0  0  0  0
   -2.5185    4.8877   -0.6302 H   0  0  0  0  0  0  0  0  0  0  0  0
   -4.1566    4.6745   -1.2936 H   0  0  0  0  0  0  0  0  0  0  0  0
   -3.9329    4.8235    0.4759 H   0  0  0  0  0  0  0  0  0  0  0  0
  1  8  1  0  0  0  0
  1  3  2  0  0  0  0
  2  7  1  0  0  0  0
  2  9  1  0  0  0  0
  4  1  2  0  0  0  0
  5 15  1  0  0  0  0
  5 16  1  0  0  0  0
  6  8  1  0  0  0  0
  7  6  2  0  0  0  0
  8 25  1  1  0  0  0
  9 26  1  6  0  0  0
  9 10  1  0  0  0  0
  9  8  1  0  0  0  0
 10 11  1  6  0  0  0
 10 15  1  0  0  0  0
 11 12  1  0  0  0  0
 12 13  1  0  0  0  0
 13 14  1  0  0  0  0
 13 29  1  0  0  0  0
 14 30  1  0  0  0  0
 15 14  2  0  0  0  0
 16 32  1  0  0  0  0
 17  1  1  0  0  0  0
 17 18  1  0  0  0  0
 18 34  1  0  0  0  0
 19 18  2  0  0  0  0
 19 35  1  0  0  0  0
 20 19  1  0  0  0  0
 21 22  1  0  0  0  0
 21 20  2  0  0  0  0
 22 17  2  0  0  0  0
 23 20  1  0  0  0  0
 23 40  1  0  0  0  0
 24  7  1  0  0  0  0
 27 11  1  0  0  0  0
 28 12  1  0  0  0  0
 31 16  1  0  0  0  0
 33 16  1  0  0  0  0
 36 21  1  0  0  0  0
 37 22  1  0  0  0  0
 38 23  1  0  0  0  0
 39 23  1  0  0  0  0
M  END
