1,4
 OpenBabel05122313053D

 25 26  0  0  1  0  0  0  0  0999 V2000
    0.1897    0.8713    0.3108 C   0  0  0  0  0  3  0  0  0  0  0  0
    0.7476    0.4739   -1.0627 C   0  0  2  0  0  0  0  0  0  0  0  0
   -0.2354   -0.5468   -1.6000 C   0  0  0  0  0  3  0  0  0  0  0  0
   -0.6403   -1.6725   -0.8391 C   0  0  0  0  0  3  0  0  0  0  0  0
   -0.5928   -1.7590    0.5915 C   0  0  0  0  0  3  0  0  0  0  0  0
    0.5484   -1.3473    1.5086 C   0  0  0  0  0  0  0  0  0  0  0  0
    1.0270    0.1096    1.3356 C   0  0  1  0  0  0  0  0  0  0  0  0
    2.4844    0.2442    0.7282 C   0  0  0  0  0  0  0  0  0  0  0  0
    2.2585   -0.0567   -0.8375 C   0  0  0  0  0  0  0  0  0  0  0  0
    2.3823   -1.4955   -1.1090 C   0  0  0  0  0  0  0  0  0  0  0  0
    2.4385   -2.6420   -1.3391 N   0  0  0  0  0  0  0  0  0  0  0  0
    3.2133    0.6561   -1.6937 C   0  0  0  0  0  0  0  0  0  0  0  0
    3.9383    1.2402   -2.4041 N   0  0  0  0  0  0  0  0  0  0  0  0
    3.4760   -0.6448    1.3458 C   0  0  0  0  0  0  0  0  0  0  0  0
    4.2346   -1.3711    1.8636 N   0  0  0  0  0  0  0  0  0  0  0  0
    2.9221    1.6413    0.8973 C   0  0  0  0  0  0  0  0  0  0  0  0
    3.2244    2.7602    1.0600 N   0  0  0  0  0  0  0  0  0  0  0  0
    0.2300    1.9612    0.4845 H   0  0  0  0  0  0  0  0  0  0  0  0
   -1.1568   -2.6198    0.9875 H   0  0  0  0  0  0  0  0  0  0  0  0
    0.1924   -1.4711    2.5494 H   0  0  0  0  0  0  0  0  0  0  0  0
    1.0341    0.6179    2.3189 H   0  0  0  0  0  0  0  0  0  0  0  0
    1.3813   -2.0768    1.4002 H   0  0  0  0  0  0  0  0  0  0  0  0
   -1.2358   -2.4323   -1.3721 H   0  0  0  0  0  0  0  0  0  0  0  0
    0.7956    1.3352   -1.7540 H   0  0  0  0  0  0  0  0  0  0  0  0
   -0.4410   -0.5689   -2.6809 H   0  0  0  0  0  0  0  0  0  0  0  0
  1 18  1  0  0  0  0
  1  7  1  0  0  0  0
  2 24  1  6  0  0  0
  2  9  1  0  0  0  0
  2  1  1  0  0  0  0
  3  2  1  0  0  0  0
  3  4  1  0  0  0  0
  4  5  1  0  0  0  0
  5 19  1  0  0  0  0
  5  6  1  0  0  0  0
  6 20  1  0  0  0  0
  7  6  1  0  0  0  0
  7 21  1  1  0  0  0
  8 16  1  0  0  0  0
  8  7  1  0  0  0  0
  8 14  1  0  0  0  0
  9  8  1  0  0  0  0
 10  9  1  0  0  0  0
 11 10  3  0  0  0  0
 12  9  1  0  0  0  0
 13 12  3  0  0  0  0
 14 15  3  0  0  0  0
 16 17  3  0  0  0  0
 22  6  1  0  0  0  0
 23  4  1  0  0  0  0
 25  3  1  0  0  0  0
M  END
