2,10
 OpenBabel05122313053D

 27 28  0  0  1  0  0  0  0  0999 V2000
   -0.4029    2.4178    0.0006 O   0  0  0  0  0  0  0  0  0  0  0  0
   -0.3796    1.0792    0.0002 C   0  0  0  0  0  2  0  0  0  0  0  0
    0.7891    3.1998    0.0005 C   0  0  0  0  0  0  0  0  0  0  0  0
   -1.7969    0.6086    0.0001 C   0  0  0  0  0  0  0  0  0  0  0  0
   -2.9394    1.4404   -0.0001 C   0  0  0  0  0  0  0  0  0  0  0  0
   -4.2177    0.8665   -0.0002 C   0  0  0  0  0  0  0  0  0  0  0  0
   -4.3764   -0.5313    0.0000 C   0  0  0  0  0  0  0  0  0  0  0  0
   -3.2483   -1.3708    0.0002 C   0  0  0  0  0  0  0  0  0  0  0  0
   -1.9721   -0.7974    0.0003 C   0  0  0  0  0  0  0  0  0  0  0  0
   -0.6712   -1.5100    0.0002 C   0  0  2  0  0  3  0  0  0  0  0  0
    0.0094   -1.7227    1.2398 C   0  0  0  0  0  0  0  0  0  0  0  0
    1.3894   -2.0606    1.2265 C   0  0  0  0  0  0  0  0  0  0  0  0
    2.0860   -2.2370   -0.0002 C   0  0  0  0  0  3  0  0  0  0  0  0
    1.3890   -2.0607   -1.2266 C   0  0  0  0  0  0  0  0  0  0  0  0
    0.0089   -1.7229   -1.2395 C   0  0  0  0  0  0  0  0  0  0  0  0
    1.3963    2.9978   -0.9023 H   0  0  0  0  0  0  0  0  0  0  0  0
    1.3976    2.9961    0.9022 H   0  0  0  0  0  0  0  0  0  0  0  0
    0.4571    4.2545    0.0017 H   0  0  0  0  0  0  0  0  0  0  0  0
   -2.8072    2.5312   -0.0003 H   0  0  0  0  0  0  0  0  0  0  0  0
   -5.1071    1.5153   -0.0004 H   0  0  0  0  0  0  0  0  0  0  0  0
   -5.3856   -0.9703    0.0000 H   0  0  0  0  0  0  0  0  0  0  0  0
   -3.3617   -2.4653    0.0004 H   0  0  0  0  0  0  0  0  0  0  0  0
   -0.5126   -1.5276    2.1862 H   0  0  0  0  0  0  0  0  0  0  0  0
    1.9358   -2.1420    2.1775 H   0  0  0  0  0  0  0  0  0  0  0  0
    3.1632   -2.4495   -0.0003 H   0  0  0  0  0  0  0  0  0  0  0  0
    1.9351   -2.1421   -2.1778 H   0  0  0  0  0  0  0  0  0  0  0  0
   -0.5133   -1.5279   -2.1857 H   0  0  0  0  0  0  0  0  0  0  0  0
  2  1  1  0  0  0  0
  3  1  1  0  0  0  0
  3 18  1  0  0  0  0
  3 17  1  0  0  0  0
  4  2  1  0  0  0  0
  4  9  1  0  0  0  0
  5  4  2  0  0  0  0
  6  5  1  0  0  0  0
  6  7  2  0  0  0  0
  7  8  1  0  0  0  0
  8  9  2  0  0  0  0
  8 22  1  0  0  0  0
 10  9  1  6  0  0  0
 10 11  1  0  0  0  0
 11 23  1  0  0  0  0
 12 11  2  0  0  0  0
 12 24  1  0  0  0  0
 13 12  1  0  0  0  0
 14 13  1  0  0  0  0
 15 14  2  0  0  0  0
 15 10  1  0  0  0  0
 16  3  1  0  0  0  0
 19  5  1  0  0  0  0
 20  6  1  0  0  0  0
 21  7  1  0  0  0  0
 25 13  1  0  0  0  0
 26 14  1  0  0  0  0
 27 15  1  0  0  0  0
M  END
