5,7
 OpenBabel05122313053D

 50 53  0  0  1  0  0  0  0  0999 V2000
   -0.1959    1.3272    0.2644 C   0  0  0  0  0  0  0  0  0  0  0  0
    0.4838    1.3281    1.5160 C   0  0  0  0  0  0  0  0  0  0  0  0
    1.7220    2.0284    1.3742 C   0  0  0  0  0  0  0  0  0  0  0  0
    1.8223    2.4653    0.0345 C   0  0  0  0  0  0  0  0  0  0  0  0
    0.6722    2.0021   -0.6652 C   0  0  0  0  0  3  0  0  0  0  0  0
   -0.0944   -1.2195   -0.6125 C   0  0  1  0  0  3  0  0  0  0  0  0
    0.8622   -2.0987   -0.0211 C   0  0  0  0  0  3  0  0  0  0  0  0
    2.0193   -2.1605   -0.8484 C   0  0  0  0  0  3  0  0  0  0  0  0
    1.7818   -1.3434   -1.9847 C   0  0  0  0  0  0  0  0  0  0  0  0
    0.5009   -0.7544   -1.8403 C   0  0  0  0  0  0  0  0  0  0  0  0
   -1.4843   -0.8578   -0.0918 C   0  0  0  0  0  0  0  0  0  0  0  0
   -2.5460   -1.4402   -1.0694 C   0  0  0  0  0  0  0  0  0  0  0  0
   -2.6222   -2.9705   -1.0725 C   0  0  0  0  0  0  0  0  0  0  0  0
   -2.9481   -3.5072    0.3217 C   0  0  0  0  0  0  0  0  0  0  0  0
   -1.8848   -3.0414    1.3172 C   0  0  0  0  0  0  0  0  0  0  0  0
   -1.7117   -1.5110    1.3034 C   0  0  0  0  0  0  0  0  0  0  0  0
   -1.5884    0.7624   -0.0139 C   0  0  0  0  0  0  0  0  0  0  0  0
   -2.5413    1.2270    1.1257 C   0  0  0  0  0  0  0  0  0  0  0  0
   -2.7427    2.7466    1.1876 C   0  0  0  0  0  0  0  0  0  0  0  0
   -3.2866    3.3006   -0.1297 C   0  0  0  0  0  0  0  0  0  0  0  0
   -2.3654    2.9022   -1.2837 C   0  0  0  0  0  0  0  0  0  0  0  0
   -2.1491    1.3812   -1.3294 C   0  0  0  0  0  0  0  0  0  0  0  0
    0.1368    0.8533    2.4398 H   0  0  0  0  0  0  0  0  0  0  0  0
    2.4823    2.1441    2.1535 H   0  0  0  0  0  0  0  0  0  0  0  0
    2.6730    2.9893   -0.4113 H   0  0  0  0  0  0  0  0  0  0  0  0
    0.4753    2.1725   -1.7280 H   0  0  0  0  0  0  0  0  0  0  0  0
    0.7750   -2.5876    0.9508 H   0  0  0  0  0  0  0  0  0  0  0  0
    2.9466   -2.6943   -0.6144 H   0  0  0  0  0  0  0  0  0  0  0  0
    2.4927   -1.1401   -2.7919 H   0  0  0  0  0  0  0  0  0  0  0  0
    0.0398   -0.0719   -2.5607 H   0  0  0  0  0  0  0  0  0  0  0  0
   -2.3477   -1.0806   -2.0974 H   0  0  0  0  0  0  0  0  0  0  0  0
   -3.5429   -1.0402   -0.7789 H   0  0  0  0  0  0  0  0  0  0  0  0
   -1.6521   -3.3926   -1.4169 H   0  0  0  0  0  0  0  0  0  0  0  0
   -3.3846   -3.2966   -1.8104 H   0  0  0  0  0  0  0  0  0  0  0  0
   -3.9487   -3.1309    0.6343 H   0  0  0  0  0  0  0  0  0  0  0  0
   -3.0162   -4.6150    0.3161 H   0  0  0  0  0  0  0  0  0  0  0  0
   -2.1496   -3.3529    2.3495 H   0  0  0  0  0  0  0  0  0  0  0  0
   -0.9342   -3.5584    1.0796 H   0  0  0  0  0  0  0  0  0  0  0  0
   -2.6433   -1.0927    1.7287 H   0  0  0  0  0  0  0  0  0  0  0  0
   -0.8924   -1.2179    1.9929 H   0  0  0  0  0  0  0  0  0  0  0  0
   -2.1685    0.8753    2.1056 H   0  0  0  0  0  0  0  0  0  0  0  0
   -3.5296    0.7392    0.9724 H   0  0  0  0  0  0  0  0  0  0  0  0
   -3.4258    2.9890    2.0284 H   0  0  0  0  0  0  0  0  0  0  0  0
   -1.7724    3.2362    1.4239 H   0  0  0  0  0  0  0  0  0  0  0  0
   -4.3058    2.8896   -0.3092 H   0  0  0  0  0  0  0  0  0  0  0  0
   -3.3966    4.4039   -0.0788 H   0  0  0  0  0  0  0  0  0  0  0  0
   -1.3959    3.4308   -1.1696 H   0  0  0  0  0  0  0  0  0  0  0  0
   -2.7877    3.2336   -2.2557 H   0  0  0  0  0  0  0  0  0  0  0  0
   -3.1336    0.9173   -1.5344 H   0  0  0  0  0  0  0  0  0  0  0  0
   -1.5101    1.1206   -2.1961 H   0  0  0  0  0  0  0  0  0  0  0  0
  1  2  2  0  0  0  0
  2 23  1  0  0  0  0
  3  2  1  0  0  0  0
  3 24  1  0  0  0  0
  4  3  2  0  0  0  0
  5  4  1  0  0  0  0
  5  1  1  0  0  0  0
  6 11  1  6  0  0  0
  6  7  1  0  0  0  0
  7 27  1  0  0  0  0
  8 28  1  0  0  0  0
  8  7  1  0  0  0  0
  9 10  2  0  0  0  0
  9  8  1  0  0  0  0
 10  6  1  0  0  0  0
 11 17  1  0  0  0  0
 11 16  1  0  0  0  0
 12 32  1  0  0  0  0
 12 11  1  0  0  0  0
 13 12  1  0  0  0  0
 13 14  1  0  0  0  0
 14 35  1  0  0  0  0
 14 15  1  0  0  0  0
 15 37  1  0  0  0  0
 16 15  1  0  0  0  0
 16 39  1  0  0  0  0
 16 40  1  0  0  0  0
 17  1  1  0  0  0  0
 17 18  1  0  0  0  0
 18 19  1  0  0  0  0
 18 41  1  0  0  0  0
 19 44  1  0  0  0  0
 19 43  1  0  0  0  0
 20 46  1  0  0  0  0
 20 19  1  0  0  0  0
 21 47  1  0  0  0  0
 21 20  1  0  0  0  0
 22 21  1  0  0  0  0
 22 17  1  0  0  0  0
 25  4  1  0  0  0  0
 26  5  1  0  0  0  0
 29  9  1  0  0  0  0
 30 10  1  0  0  0  0
 31 12  1  0  0  0  0
 33 13  1  0  0  0  0
 34 13  1  0  0  0  0
 36 14  1  0  0  0  0
 38 15  1  0  0  0  0
 42 18  1  0  0  0  0
 45 20  1  0  0  0  0
 48 21  1  0  0  0  0
 49 22  1  0  0  0  0
 50 22  1  0  0  0  0
M  END
