1,14
 OpenBabel05122313053D

 28 29  0  0  0  0  0  0  0  0999 V2000
    0.3822   -1.5507   -1.3343 C   0  0  0  0  0  3  0  0  0  0  0  0
   -0.8254   -2.2197   -0.9912 C   0  0  0  0  0  0  0  0  0  0  0  0
   -0.8560   -2.3810    0.4148 C   0  0  0  0  0  0  0  0  0  0  0  0
    0.3557   -1.8431    0.9488 C   0  0  0  0  0  0  0  0  0  0  0  0
    1.1372   -1.3379   -0.1290 C   0  0  0  0  0  0  0  0  0  0  0  0
    2.4691   -0.6790   -0.0350 C   0  0  0  0  0  0  0  0  0  0  0  0
    3.6655   -1.5845    0.0435 C   0  0  0  0  0  0  0  0  0  0  0  0
    2.4691    0.6790   -0.0350 C   0  0  0  0  0  0  0  0  0  0  0  0
    3.6655    1.5845    0.0436 C   0  0  0  0  0  0  0  0  0  0  0  0
    1.1372    1.3379   -0.1290 C   0  0  0  0  0  0  0  0  0  0  0  0
    0.3556    1.8430    0.9488 C   0  0  0  0  0  0  0  0  0  0  0  0
   -0.8560    2.3810    0.4148 C   0  0  0  0  0  0  0  0  0  0  0  0
   -0.8254    2.2197   -0.9913 C   0  0  0  0  0  0  0  0  0  0  0  0
    0.3822    1.5507   -1.3343 C   0  0  0  0  0  3  0  0  0  0  0  0
    0.7046   -1.2657   -2.3423 H   0  0  0  0  0  0  0  0  0  0  0  0
   -1.6299   -2.4838   -1.6847 H   0  0  0  0  0  0  0  0  0  0  0  0
   -1.6901   -2.7813    1.0009 H   0  0  0  0  0  0  0  0  0  0  0  0
    0.6172   -1.7767    2.0108 H   0  0  0  0  0  0  0  0  0  0  0  0
    3.5919   -2.2531    0.9275 H   0  0  0  0  0  0  0  0  0  0  0  0
    4.6196   -1.0290    0.1093 H   0  0  0  0  0  0  0  0  0  0  0  0
    3.7118   -2.2507   -0.8444 H   0  0  0  0  0  0  0  0  0  0  0  0
    3.7107    2.2521   -0.8432 H   0  0  0  0  0  0  0  0  0  0  0  0
    4.6197    1.0290    0.1076 H   0  0  0  0  0  0  0  0  0  0  0  0
    3.5928    2.2518    0.9288 H   0  0  0  0  0  0  0  0  0  0  0  0
    0.6172    1.7767    2.0109 H   0  0  0  0  0  0  0  0  0  0  0  0
   -1.6901    2.7813    1.0009 H   0  0  0  0  0  0  0  0  0  0  0  0
   -1.6298    2.4838   -1.6847 H   0  0  0  0  0  0  0  0  0  0  0  0
    0.7047    1.2657   -2.3423 H   0  0  0  0  0  0  0  0  0  0  0  0
  1  2  1  0  0  0  0
  1  5  1  0  0  0  0
  2  3  2  0  0  0  0
  3  4  1  0  0  0  0
  3 17  1  0  0  0  0
  4 18  1  0  0  0  0
  5  6  1  0  0  0  0
  5  4  2  0  0  0  0
  6  7  1  0  0  0  0
  7 20  1  0  0  0  0
  7 19  1  0  0  0  0
  8  6  2  0  0  0  0
  8  9  1  0  0  0  0
  9 23  1  0  0  0  0
  9 24  1  0  0  0  0
 10  8  1  0  0  0  0
 10 11  2  0  0  0  0
 11 25  1  0  0  0  0
 12 11  1  0  0  0  0
 12 26  1  0  0  0  0
 13 12  2  0  0  0  0
 14 13  1  0  0  0  0
 14 10  1  0  0  0  0
 15  1  1  0  0  0  0
 16  2  1  0  0  0  0
 21  7  1  0  0  0  0
 22  9  1  0  0  0  0
 27 13  1  0  0  0  0
 28 14  1  0  0  0  0
M  END
