7,16
 OpenBabel05122313053D

 54 58  0  0  1  0  0  0  0  0999 V2000
   -0.9563    2.0973    1.4680 Si  0  0  0  0  0  0  0  0  0  0  0  0
   -1.7568    1.4691    3.0559 C   0  0  0  0  0  0  0  0  0  0  0  0
   -1.0739    3.9810    1.4378 C   0  0  0  0  0  0  0  0  0  0  0  0
    0.9563    2.0973   -1.4680 Si  0  0  0  0  0  0  0  0  0  0  0  0
    1.0739    3.9810   -1.4379 C   0  0  0  0  0  0  0  0  0  0  0  0
    1.7568    1.4690   -3.0559 C   0  0  0  0  0  0  0  0  0  0  0  0
   -0.7669    1.3010   -1.3179 C   0  0  1  0  0  3  0  0  0  0  0  0
   -1.1740    0.2008   -2.1380 C   0  0  0  0  0  0  0  0  0  0  0  0
   -2.2120   -0.5233   -1.4865 C   0  0  0  0  0  0  0  0  0  0  0  0
   -2.9618   -1.7381   -1.9641 C   0  0  0  0  0  0  0  0  0  0  0  0
   -4.3372   -1.8197   -1.2826 C   0  0  0  0  0  0  0  0  0  0  0  0
   -4.2111   -1.6522    0.2370 C   0  0  0  0  0  0  0  0  0  0  0  0
   -3.6414   -0.2782    0.6295 C   0  0  0  0  0  0  0  0  0  0  0  0
   -2.4880    0.1333   -0.2467 C   0  0  2  0  0  3  0  0  0  0  0  0
   -1.5861    1.2481   -0.1037 C   0  0  1  0  0  3  0  0  0  0  0  0
    0.7670    1.3010    1.3179 C   0  0  1  0  0  3  0  0  0  0  0  0
    1.1740    0.2008    2.1380 C   0  0  0  0  0  0  0  0  0  0  0  0
    2.2120   -0.5233    1.4865 C   0  0  0  0  0  0  0  0  0  0  0  0
    2.9618   -1.7382    1.9641 C   0  0  0  0  0  0  0  0  0  0  0  0
    4.3372   -1.8197    1.2826 C   0  0  0  0  0  0  0  0  0  0  0  0
    4.2111   -1.6523   -0.2370 C   0  0  0  0  0  0  0  0  0  0  0  0
    3.6414   -0.2782   -0.6296 C   0  0  0  0  0  0  0  0  0  0  0  0
    2.4880    0.1333    0.2467 C   0  0  2  0  0  3  0  0  0  0  0  0
    1.5861    1.2481    0.1037 C   0  0  1  0  0  3  0  0  0  0  0  0
   -1.2233    1.8942    3.9312 H   0  0  0  0  0  0  0  0  0  0  0  0
   -1.7210    0.3645    3.1291 H   0  0  0  0  0  0  0  0  0  0  0  0
   -2.8154    1.7918    3.1197 H   0  0  0  0  0  0  0  0  0  0  0  0
   -2.0802    4.2780    1.7990 H   0  0  0  0  0  0  0  0  0  0  0  0
   -0.9427    4.4021    0.4248 H   0  0  0  0  0  0  0  0  0  0  0  0
   -0.3209    4.4372    2.1124 H   0  0  0  0  0  0  0  0  0  0  0  0
    2.0803    4.2780   -1.7989 H   0  0  0  0  0  0  0  0  0  0  0  0
    0.9426    4.4021   -0.4249 H   0  0  0  0  0  0  0  0  0  0  0  0
    0.3210    4.4371   -2.1126 H   0  0  0  0  0  0  0  0  0  0  0  0
    1.2233    1.8942   -3.9312 H   0  0  0  0  0  0  0  0  0  0  0  0
    1.7210    0.3645   -3.1290 H   0  0  0  0  0  0  0  0  0  0  0  0
    2.8154    1.7918   -3.1197 H   0  0  0  0  0  0  0  0  0  0  0  0
   -0.7364   -0.0730   -3.1065 H   0  0  0  0  0  0  0  0  0  0  0  0
   -3.0612   -1.7106   -3.0688 H   0  0  0  0  0  0  0  0  0  0  0  0
   -2.3737   -2.6542   -1.7341 H   0  0  0  0  0  0  0  0  0  0  0  0
   -4.9995   -1.0246   -1.6928 H   0  0  0  0  0  0  0  0  0  0  0  0
   -4.8205   -2.7885   -1.5238 H   0  0  0  0  0  0  0  0  0  0  0  0
   -5.1960   -1.7958    0.7264 H   0  0  0  0  0  0  0  0  0  0  0  0
   -3.5375   -2.4408    0.6335 H   0  0  0  0  0  0  0  0  0  0  0  0
   -4.4284    0.5029    0.5218 H   0  0  0  0  0  0  0  0  0  0  0  0
   -3.3528   -0.2765    1.6985 H   0  0  0  0  0  0  0  0  0  0  0  0
    0.7364   -0.0730    3.1065 H   0  0  0  0  0  0  0  0  0  0  0  0
    3.0612   -1.7106    3.0688 H   0  0  0  0  0  0  0  0  0  0  0  0
    2.3737   -2.6542    1.7341 H   0  0  0  0  0  0  0  0  0  0  0  0
    4.9995   -1.0246    1.6927 H   0  0  0  0  0  0  0  0  0  0  0  0
    4.8205   -2.7885    1.5238 H   0  0  0  0  0  0  0  0  0  0  0  0
    5.1960   -1.7958   -0.7265 H   0  0  0  0  0  0  0  0  0  0  0  0
    3.5375   -2.4408   -0.6336 H   0  0  0  0  0  0  0  0  0  0  0  0
    4.4284    0.5029   -0.5218 H   0  0  0  0  0  0  0  0  0  0  0  0
    3.3527   -0.2765   -1.6985 H   0  0  0  0  0  0  0  0  0  0  0  0
  1  2  1  0  0  0  0
  2 27  1  0  0  0  0
  2 26  1  0  0  0  0
  2 25  1  0  0  0  0
  3  1  1  0  0  0  0
  3 28  1  0  0  0  0
  3 30  1  0  0  0  0
  4  5  1  0  0  0  0
  4  7  1  0  0  0  0
  5 32  1  0  0  0  0
  6  4  1  0  0  0  0
  7  8  1  1  0  0  0
  7 15  1  0  0  0  0
  8  9  2  0  0  0  0
 10 39  1  0  0  0  0
 10  9  1  0  0  0  0
 10 11  1  0  0  0  0
 11 12  1  0  0  0  0
 12 13  1  0  0  0  0
 12 43  1  0  0  0  0
 12 42  1  0  0  0  0
 13 45  1  0  0  0  0
 14  9  1  6  0  0  0
 14 15  1  0  0  0  0
 14 13  1  0  0  0  0
 15  1  1  1  0  0  0
 16  1  1  0  0  0  0
 16 17  1  6  0  0  0
 17 46  1  0  0  0  0
 18 19  1  0  0  0  0
 18 17  2  0  0  0  0
 19 47  1  0  0  0  0
 20 50  1  0  0  0  0
 20 49  1  0  0  0  0
 20 19  1  0  0  0  0
 21 20  1  0  0  0  0
 22 53  1  0  0  0  0
 22 21  1  0  0  0  0
 22 23  1  0  0  0  0
 23 18  1  1  0  0  0
 24  4  1  6  0  0  0
 24 23  1  0  0  0  0
 24 16  1  0  0  0  0
 29  3  1  0  0  0  0
 31  5  1  0  0  0  0
 33  5  1  0  0  0  0
 34  6  1  0  0  0  0
 35  6  1  0  0  0  0
 36  6  1  0  0  0  0
 37  8  1  0  0  0  0
 38 10  1  0  0  0  0
 40 11  1  0  0  0  0
 41 11  1  0  0  0  0
 44 13  1  0  0  0  0
 48 19  1  0  0  0  0
 51 21  1  0  0  0  0
 52 21  1  0  0  0  0
 54 22  1  0  0  0  0
M  END
