6,8
 OpenBabel05122313053D

 46 48  0  0  1  0  0  0  0  0999 V2000
   -3.2054    1.5597    0.0315 C   0  0  0  0  0  0  0  0  0  0  0  0
   -4.4785    0.7344   -0.1752 C   0  0  0  0  0  0  0  0  0  0  0  0
   -4.3570   -0.7154    0.3515 C   0  0  0  0  0  0  0  0  0  0  0  0
   -3.1053   -1.3460   -0.2947 C   0  0  0  0  0  0  0  0  0  0  0  0
    1.5860   -1.3306   -1.4859 C   0  0  2  0  0  3  0  0  0  0  0  0
    2.8017   -0.6544   -1.7920 C   0  0  0  0  0  3  0  0  0  0  0  0
    2.9171    0.7555   -1.6879 C   0  0  0  0  0  3  0  0  0  0  0  0
    1.8013    1.4904   -1.2069 C   0  0  0  0  0  3  0  0  0  0  0  0
   -0.6631    1.7425   -0.5081 C   0  0  0  0  0  0  0  0  0  0  0  0
   -5.5977   -1.5187   -0.0693 C   0  0  0  0  0  0  0  0  0  0  0  0
   -4.2518   -0.7378    1.8886 C   0  0  0  0  0  0  0  0  0  0  0  0
   -0.7687    2.9377   -1.4841 C   0  0  0  0  0  0  0  0  0  0  0  0
   -0.4598    2.2816    0.9235 C   0  0  0  0  0  0  0  0  0  0  0  0
    1.4790   -2.8272   -1.6050 C   0  0  0  0  0  0  0  0  0  0  0  0
   -1.8198   -0.5287   -0.1175 C   0  0  2  0  0  0  0  0  0  0  0  0
    0.5449    0.8777   -0.9221 C   0  0  0  0  0  0  0  0  0  0  0  0
   -1.9817    0.9079   -0.6330 C   0  0  1  0  0  0  0  0  0  0  0  0
    0.4365   -0.5487   -1.0971 C   0  0  0  0  0  0  0  0  0  0  0  0
   -0.7549   -1.1829   -0.8642 N   0  0  0  0  0  0  0  0  0  0  0  0
   -3.3557    2.5829   -0.3691 H   0  0  0  0  0  0  0  0  0  0  0  0
   -3.0183    1.6817    1.1178 H   0  0  0  0  0  0  0  0  0  0  0  0
   -4.7149    0.6934   -1.2619 H   0  0  0  0  0  0  0  0  0  0  0  0
   -5.3418    1.2345    0.3135 H   0  0  0  0  0  0  0  0  0  0  0  0
   -3.2796   -1.4615   -1.3872 H   0  0  0  0  0  0  0  0  0  0  0  0
   -2.9497   -2.3702    0.1131 H   0  0  0  0  0  0  0  0  0  0  0  0
    3.6754   -1.2531   -2.0875 H   0  0  0  0  0  0  0  0  0  0  0  0
    3.8735    1.2560   -1.8854 H   0  0  0  0  0  0  0  0  0  0  0  0
    1.9078    2.5730   -1.0540 H   0  0  0  0  0  0  0  0  0  0  0  0
   -5.5302   -2.5711    0.2762 H   0  0  0  0  0  0  0  0  0  0  0  0
   -6.5196   -1.0794    0.3644 H   0  0  0  0  0  0  0  0  0  0  0  0
   -5.7137   -1.5298   -1.1729 H   0  0  0  0  0  0  0  0  0  0  0  0
   -3.3758   -0.1777    2.2701 H   0  0  0  0  0  0  0  0  0  0  0  0
   -4.1625   -1.7793    2.2599 H   0  0  0  0  0  0  0  0  0  0  0  0
   -5.1582   -0.2927    2.3482 H   0  0  0  0  0  0  0  0  0  0  0  0
   -0.7952    2.5934   -2.5375 H   0  0  0  0  0  0  0  0  0  0  0  0
    0.0824    3.6372   -1.3723 H   0  0  0  0  0  0  0  0  0  0  0  0
   -1.6900    3.5205   -1.2879 H   0  0  0  0  0  0  0  0  0  0  0  0
   -1.2358    3.0286    1.1830 H   0  0  0  0  0  0  0  0  0  0  0  0
    0.5245    2.7777    1.0181 H   0  0  0  0  0  0  0  0  0  0  0  0
   -0.4821    1.4672    1.6732 H   0  0  0  0  0  0  0  0  0  0  0  0
    0.8394   -3.1223   -2.4655 H   0  0  0  0  0  0  0  0  0  0  0  0
    2.4771   -3.2801   -1.7516 H   0  0  0  0  0  0  0  0  0  0  0  0
    1.0501   -3.2862   -0.6898 H   0  0  0  0  0  0  0  0  0  0  0  0
   -1.5524   -0.4932    0.9657 H   0  0  0  0  0  0  0  0  0  0  0  0
   -2.1975    0.8120   -1.7227 H   0  0  0  0  0  0  0  0  0  0  0  0
   -0.7016   -2.1962   -0.7516 H   0  0  0  0  0  0  0  0  0  0  0  0
  1 21  1  0  0  0  0
  2  1  1  0  0  0  0
  2 23  1  0  0  0  0
  2  3  1  0  0  0  0
  3 11  1  0  0  0  0
  4 15  1  0  0  0  0
  4 25  1  0  0  0  0
  4  3  1  0  0  0  0
  5 14  1  6  0  0  0
  5 18  1  0  0  0  0
  6  7  1  0  0  0  0
  6  5  1  0  0  0  0
  7  8  1  0  0  0  0
  8 28  1  0  0  0  0
  8 16  1  0  0  0  0
  9 13  1  0  0  0  0
 10 29  1  0  0  0  0
 10  3  1  0  0  0  0
 10 30  1  0  0  0  0
 11 33  1  0  0  0  0
 11 32  1  0  0  0  0
 11 34  1  0  0  0  0
 12 36  1  0  0  0  0
 12 37  1  0  0  0  0
 12  9  1  0  0  0  0
 13 39  1  0  0  0  0
 13 38  1  0  0  0  0
 13 40  1  0  0  0  0
 14 43  1  0  0  0  0
 15 44  1  1  0  0  0
 16  9  1  0  0  0  0
 17 45  1  6  0  0  0
 17  9  1  0  0  0  0
 17 15  1  0  0  0  0
 17  1  1  0  0  0  0
 18 16  2  0  0  0  0
 18 19  1  0  0  0  0
 19 46  1  0  0  0  0
 19 15  1  0  0  0  0
 20  1  1  0  0  0  0
 22  2  1  0  0  0  0
 24  4  1  0  0  0  0
 26  6  1  0  0  0  0
 27  7  1  0  0  0  0
 31 10  1  0  0  0  0
 35 12  1  0  0  0  0
 41 14  1  0  0  0  0
 42 14  1  0  0  0  0
M  END
