1,8
 OpenBabel05122313053D

 14 14  0  0  0  0  0  0  0  0999 V2000
   -2.0425   -0.0066    0.4309 C   0  0  0  0  0  3  0  0  0  0  0  0
   -2.6098   -0.0480    1.7160 C   0  0  0  0  0  0  0  0  0  0  0  0
   -4.0046   -0.0636    1.9171 C   0  0  0  0  0  0  0  0  0  0  0  0
   -4.8701   -0.0336    0.8122 C   0  0  0  0  0  0  0  0  0  0  0  0
   -4.3353    0.0182   -0.4832 C   0  0  0  0  0  0  0  0  0  0  0  0
   -2.9367    0.0345   -0.6900 C   0  0  0  0  0  0  0  0  0  0  0  0
   -2.3522    0.1002   -2.0383 C   0  0  0  0  0  0  0  0  0  0  0  0
   -0.9993    0.1152   -2.2003 C   0  0  0  0  0  3  0  0  0  0  0  0
   -1.9593   -0.0582    2.6069 H   0  0  0  0  0  0  0  0  0  0  0  0
   -4.4136   -0.0968    2.9396 H   0  0  0  0  0  0  0  0  0  0  0  0
   -5.9611   -0.0462    0.9605 H   0  0  0  0  0  0  0  0  0  0  0  0
   -5.0069    0.0487   -1.3577 H   0  0  0  0  0  0  0  0  0  0  0  0
   -3.0567    0.1381   -2.8949 H   0  0  0  0  0  0  0  0  0  0  0  0
   -0.5866    0.1673   -3.2263 H   0  0  0  0  0  0  0  0  0  0  0  0
  1  2  1  0  0  0  0
  2  3  2  0  0  0  0
  2  9  1  0  0  0  0
  3 10  1  0  0  0  0
  4 11  1  0  0  0  0
  4  3  1  0  0  0  0
  5  4  2  0  0  0  0
  6  5  1  0  0  0  0
  6  1  2  0  0  0  0
  7  6  1  0  0  0  0
  8  7  2  0  0  0  0
 12  5  1  0  0  0  0
 13  7  1  0  0  0  0
 14  8  1  0  0  0  0
M  END
