2,6
 OpenBabel05122313053D

 54 57  0  0  1  0  0  0  0  0999 V2000
    1.4028   -0.5692   -1.0672 C   0  0  0  0  0  0  0  0  0  0  0  0
    0.1135   -0.0730   -0.6592 C   0  0  2  0  0  3  0  0  0  0  0  0
   -1.0866   -0.7612   -1.0599 C   0  0  0  0  0  0  0  0  0  0  0  0
   -0.9901   -1.9667   -1.8176 C   0  0  0  0  0  0  0  0  0  0  0  0
   -1.8844   -2.5328   -2.1006 H   0  0  0  0  0  0  0  0  0  0  0  0
    0.2936   -2.4736   -2.1565 C   0  0  0  0  0  3  0  0  0  0  0  0
    0.3657   -3.4278   -2.6976 H   0  0  0  0  0  0  0  0  0  0  0  0
    1.4867   -1.7765   -1.8223 C   0  0  0  0  0  0  0  0  0  0  0  0
    2.4555   -2.1990   -2.1107 H   0  0  0  0  0  0  0  0  0  0  0  0
    2.7979    0.3976   -0.5696 S   0  0  0  0  0  0  0  0  0  0  0  0
    4.2005   -0.7619   -0.8947 C   0  0  0  0  0  0  0  0  0  0  0  0
    3.9096   -1.7493   -0.4821 H   0  0  0  0  0  0  0  0  0  0  0  0
    4.3738   -0.8547   -1.9855 H   0  0  0  0  0  0  0  0  0  0  0  0
    5.4185   -0.2243   -0.1893 C   0  0  0  0  0  0  0  0  0  0  0  0
    6.4281    0.4507   -0.9016 C   0  0  0  0  0  0  0  0  0  0  0  0
    6.3334    0.5722   -1.9924 H   0  0  0  0  0  0  0  0  0  0  0  0
    7.5513    0.9621   -0.2332 C   0  0  0  0  0  0  0  0  0  0  0  0
    8.3366    1.4829   -0.8018 H   0  0  0  0  0  0  0  0  0  0  0  0
    7.6711    0.8090    1.1564 C   0  0  0  0  0  0  0  0  0  0  0  0
    8.5516    1.2091    1.6817 H   0  0  0  0  0  0  0  0  0  0  0  0
    6.6634    0.1441    1.8754 C   0  0  0  0  0  0  0  0  0  0  0  0
    6.7522    0.0224    2.9656 H   0  0  0  0  0  0  0  0  0  0  0  0
    5.5416   -0.3670    1.2092 C   0  0  0  0  0  0  0  0  0  0  0  0
    4.7445   -0.8797    1.7702 H   0  0  0  0  0  0  0  0  0  0  0  0
   -0.0095    1.4144    0.3053 S   0  0  0  0  0  0  0  0  0  0  0  0
   -0.1697    2.6570   -1.0795 C   0  0  0  0  0  0  0  0  0  0  0  0
    0.8125    2.7408   -1.5840 H   0  0  0  0  0  0  0  0  0  0  0  0
   -0.9181    2.2522   -1.7890 H   0  0  0  0  0  0  0  0  0  0  0  0
   -0.6164    3.9677   -0.4968 C   0  0  0  0  0  0  0  0  0  0  0  0
    0.3192    4.9740   -0.1851 C   0  0  0  0  0  0  0  0  0  0  0  0
    1.3866    4.8025   -0.3962 H   0  0  0  0  0  0  0  0  0  0  0  0
   -0.0995    6.1849    0.3866 C   0  0  0  0  0  0  0  0  0  0  0  0
    0.6411    6.9648    0.6203 H   0  0  0  0  0  0  0  0  0  0  0  0
   -1.4590    6.3999    0.6609 C   0  0  0  0  0  0  0  0  0  0  0  0
   -1.7883    7.3496    1.1094 H   0  0  0  0  0  0  0  0  0  0  0  0
   -2.3981    5.3980    0.3634 C   0  0  0  0  0  0  0  0  0  0  0  0
   -3.4650    5.5604    0.5794 H   0  0  0  0  0  0  0  0  0  0  0  0
   -1.9793    4.1887   -0.2071 C   0  0  0  0  0  0  0  0  0  0  0  0
   -2.7118    3.3970   -0.4310 H   0  0  0  0  0  0  0  0  0  0  0  0
   -2.6108   -0.0200   -0.5495 S   0  0  0  0  0  0  0  0  0  0  0  0
   -3.8295   -1.3634   -0.9056 C   0  0  0  0  0  0  0  0  0  0  0  0
   -3.9745   -1.4683   -1.9994 H   0  0  0  0  0  0  0  0  0  0  0  0
   -3.4077   -2.3038   -0.4965 H   0  0  0  0  0  0  0  0  0  0  0  0
   -5.1180   -1.0072   -0.2108 C   0  0  0  0  0  0  0  0  0  0  0  0
   -6.2028   -0.4685   -0.9288 C   0  0  0  0  0  0  0  0  0  0  0  0
   -6.1143   -0.3238   -2.0173 H   0  0  0  0  0  0  0  0  0  0  0  0
   -7.3919   -0.1219   -0.2688 C   0  0  0  0  0  0  0  0  0  0  0  0
   -8.2351    0.2929   -0.8418 H   0  0  0  0  0  0  0  0  0  0  0  0
   -7.5039   -0.3042    1.1180 C   0  0  0  0  0  0  0  0  0  0  0  0
   -8.4361   -0.0333    1.6365 H   0  0  0  0  0  0  0  0  0  0  0  0
   -6.4224   -0.8331    1.8426 C   0  0  0  0  0  0  0  0  0  0  0  0
   -6.5049   -0.9768    2.9306 H   0  0  0  0  0  0  0  0  0  0  0  0
   -5.2347   -1.1798    1.1848 C   0  0  0  0  0  0  0  0  0  0  0  0
   -4.3807   -1.5846    1.7504 H   0  0  0  0  0  0  0  0  0  0  0  0
  1  2  1  0  0  0  0
  1 10  1  0  0  0  0
  2 25  1  6  0  0  0
  3  2  1  0  0  0  0
  3 40  1  0  0  0  0
  4  3  2  0  0  0  0
  5  4  1  0  0  0  0
  6  8  1  0  0  0  0
  6  4  1  0  0  0  0
  7  6  1  0  0  0  0
  8  1  2  0  0  0  0
  9  8  1  0  0  0  0
 11 10  1  0  0  0  0
 11 12  1  0  0  0  0
 11 14  1  0  0  0  0
 13 11  1  0  0  0  0
 14 23  1  0  0  0  0
 15 17  1  0  0  0  0
 15 14  2  0  0  0  0
 16 15  1  0  0  0  0
 17 19  2  0  0  0  0
 18 17  1  0  0  0  0
 19 20  1  0  0  0  0
 19 21  1  0  0  0  0
 21 22  1  0  0  0  0
 23 24  1  0  0  0  0
 23 21  2  0  0  0  0
 26 29  1  0  0  0  0
 26 25  1  0  0  0  0
 27 26  1  0  0  0  0
 28 26  1  0  0  0  0
 29 38  2  0  0  0  0
 29 30  1  0  0  0  0
 30 32  2  0  0  0  0
 31 30  1  0  0  0  0
 32 33  1  0  0  0  0
 32 34  1  0  0  0  0
 34 35  1  0  0  0  0
 36 37  1  0  0  0  0
 36 34  2  0  0  0  0
 38 36  1  0  0  0  0
 39 38  1  0  0  0  0
 41 40  1  0  0  0  0
 41 43  1  0  0  0  0
 41 44  1  0  0  0  0
 42 41  1  0  0  0  0
 44 53  1  0  0  0  0
 45 47  1  0  0  0  0
 45 44  2  0  0  0  0
 46 45  1  0  0  0  0
 47 49  2  0  0  0  0
 48 47  1  0  0  0  0
 49 50  1  0  0  0  0
 49 51  1  0  0  0  0
 51 52  1  0  0  0  0
 53 54  1  0  0  0  0
 53 51  2  0  0  0  0
M  END
