1,7
 OpenBabel05122313053D

 39 39  0  0  1  0  0  0  0  0999 V2000
    1.9924   -1.4302    0.5693 C   0  0  0  0  0  3  0  0  0  0  0  0
    1.9548   -2.5069    0.3552 H   0  0  0  0  0  0  0  0  0  0  0  0
    2.8454   -0.6035   -0.2619 C   0  0  0  0  0  0  0  0  0  0  0  0
    2.7833    0.7938   -0.0688 C   0  0  0  0  0  0  0  0  0  0  0  0
    3.3068    1.4594   -0.7687 H   0  0  0  0  0  0  0  0  0  0  0  0
    1.8880    1.4041    0.8924 C   0  0  1  0  0  3  0  0  0  0  0  0
    1.1037    0.5473    1.7226 C   0  0  0  0  0  3  0  0  0  0  0  0
    0.4029    0.9910    2.4455 H   0  0  0  0  0  0  0  0  0  0  0  0
    1.1610   -0.8912    1.5942 C   0  0  1  0  0  3  0  0  0  0  0  0
    3.6406   -1.2614   -1.3732 C   0  0  0  0  0  0  0  0  0  0  0  0
    2.9631   -2.0413   -1.7868 H   0  0  0  0  0  0  0  0  0  0  0  0
    3.9850   -0.3098   -2.5216 C   0  0  0  0  0  0  0  0  0  0  0  0
    3.0742    0.1950   -2.9013 H   0  0  0  0  0  0  0  0  0  0  0  0
    4.4422   -0.8743   -3.3582 H   0  0  0  0  0  0  0  0  0  0  0  0
    4.7175    0.4654   -2.2127 H   0  0  0  0  0  0  0  0  0  0  0  0
    4.8890   -1.9502   -0.7942 C   0  0  0  0  0  0  0  0  0  0  0  0
    5.5913   -1.2035   -0.3681 H   0  0  0  0  0  0  0  0  0  0  0  0
    5.4270   -2.5111   -1.5850 H   0  0  0  0  0  0  0  0  0  0  0  0
    4.6289   -2.6660    0.0120 H   0  0  0  0  0  0  0  0  0  0  0  0
    1.8481    2.9179    1.0058 C   0  0  0  0  0  0  0  0  0  0  0  0
    2.1467    3.3012    0.0071 H   0  0  0  0  0  0  0  0  0  0  0  0
    2.8904    3.3770    2.0411 C   0  0  0  0  0  0  0  0  0  0  0  0
    2.6256    3.0152    3.0568 H   0  0  0  0  0  0  0  0  0  0  0  0
    2.9465    4.4839    2.0781 H   0  0  0  0  0  0  0  0  0  0  0  0
    3.9017    2.9910    1.8011 H   0  0  0  0  0  0  0  0  0  0  0  0
    0.4546    3.4815    1.2957 C   0  0  0  0  0  0  0  0  0  0  0  0
   -0.2422    3.1771    0.4906 H   0  0  0  0  0  0  0  0  0  0  0  0
    0.4897    4.5888    1.3245 H   0  0  0  0  0  0  0  0  0  0  0  0
    0.0561    3.1443    2.2755 H   0  0  0  0  0  0  0  0  0  0  0  0
    0.3438   -1.7675    2.5289 C   0  0  0  0  0  0  0  0  0  0  0  0
   -0.6530   -1.2806    2.6266 H   0  0  0  0  0  0  0  0  0  0  0  0
    0.1349   -3.1931    2.0083 C   0  0  0  0  0  0  0  0  0  0  0  0
   -0.2167   -3.1978    0.9579 H   0  0  0  0  0  0  0  0  0  0  0  0
   -0.6106   -3.7282    2.6293 H   0  0  0  0  0  0  0  0  0  0  0  0
    1.0768   -3.7774    2.0530 H   0  0  0  0  0  0  0  0  0  0  0  0
    0.9939   -1.7735    3.9251 C   0  0  0  0  0  0  0  0  0  0  0  0
    2.0045   -2.2294    3.8821 H   0  0  0  0  0  0  0  0  0  0  0  0
    0.3840   -2.3623    4.6398 H   0  0  0  0  0  0  0  0  0  0  0  0
    1.1042   -0.7485    4.3322 H   0  0  0  0  0  0  0  0  0  0  0  0
  1  9  1  0  0  0  0
  2  1  1  0  0  0  0
  3  4  2  0  0  0  0
  3  1  1  0  0  0  0
  4  6  1  0  0  0  0
  5  4  1  0  0  0  0
  6 20  1  1  0  0  0
  6  7  1  0  0  0  0
  7  8  1  0  0  0  0
  9  7  1  0  0  0  0
  9 30  1  6  0  0  0
 10 16  1  0  0  0  0
 10  3  1  0  0  0  0
 11 10  1  0  0  0  0
 12 15  1  0  0  0  0
 12 10  1  0  0  0  0
 13 12  1  0  0  0  0
 14 12  1  0  0  0  0
 16 17  1  0  0  0  0
 16 19  1  0  0  0  0
 18 16  1  0  0  0  0
 20 26  1  0  0  0  0
 20 22  1  0  0  0  0
 21 20  1  0  0  0  0
 22 24  1  0  0  0  0
 22 23  1  0  0  0  0
 25 22  1  0  0  0  0
 26 28  1  0  0  0  0
 26 29  1  0  0  0  0
 27 26  1  0  0  0  0
 30 31  1  0  0  0  0
 30 36  1  0  0  0  0
 32 35  1  0  0  0  0
 32 30  1  0  0  0  0
 32 34  1  0  0  0  0
 33 32  1  0  0  0  0
 36 39  1  0  0  0  0
 36 38  1  0  0  0  0
 37 36  1  0  0  0  0
M  END
