1,26
 OpenBabel05122313053D

 54 59  0  0  0  0  0  0  0  0999 V2000
   -0.2631   -1.1556   -0.0102 C   0  0  0  0  0  3  0  0  0  0  0  0
   -1.2016    0.0001    0.0002 C   0  0  0  0  0  0  0  0  0  0  0  0
   -2.5641    0.0000    0.0001 C   0  0  0  0  0  0  0  0  0  0  0  0
   -3.3401    1.2714    0.0031 C   0  0  0  0  0  0  0  0  0  0  0  0
   -4.4727    1.3912    0.8423 C   0  0  0  0  0  0  0  0  0  0  0  0
   -4.7714    0.5345    1.4649 H   0  0  0  0  0  0  0  0  0  0  0  0
   -5.2036    2.5848    0.8966 C   0  0  0  0  0  0  0  0  0  0  0  0
   -6.0748    2.6608    1.5651 H   0  0  0  0  0  0  0  0  0  0  0  0
   -4.8281    3.6799    0.1014 C   0  0  0  0  0  0  0  0  0  0  0  0
   -5.4054    4.6161    0.1395 H   0  0  0  0  0  0  0  0  0  0  0  0
   -3.7179    3.5686   -0.7497 C   0  0  0  0  0  0  0  0  0  0  0  0
   -3.4244    4.4156   -1.3883 H   0  0  0  0  0  0  0  0  0  0  0  0
   -2.9806    2.3770   -0.7994 C   0  0  0  0  0  0  0  0  0  0  0  0
   -2.1256    2.2953   -1.4835 H   0  0  0  0  0  0  0  0  0  0  0  0
   -3.3400   -1.2713   -0.0029 C   0  0  0  0  0  0  0  0  0  0  0  0
   -2.9803   -2.3772    0.7993 C   0  0  0  0  0  0  0  0  0  0  0  0
   -2.1251   -2.2955    1.4832 H   0  0  0  0  0  0  0  0  0  0  0  0
   -3.7175   -3.5687    0.7495 C   0  0  0  0  0  0  0  0  0  0  0  0
   -3.4238   -4.4159    1.3879 H   0  0  0  0  0  0  0  0  0  0  0  0
   -4.8280   -3.6799   -0.1013 C   0  0  0  0  0  0  0  0  0  0  0  0
   -5.4052   -4.6162   -0.1395 H   0  0  0  0  0  0  0  0  0  0  0  0
   -5.2037   -2.5847   -0.8963 C   0  0  0  0  0  0  0  0  0  0  0  0
   -6.0750   -2.6606   -1.5645 H   0  0  0  0  0  0  0  0  0  0  0  0
   -4.4729   -1.3910   -0.8419 C   0  0  0  0  0  0  0  0  0  0  0  0
   -4.7717   -0.5343   -1.4643 H   0  0  0  0  0  0  0  0  0  0  0  0
   -0.2632    1.1559    0.0106 C   0  0  0  0  0  3  0  0  0  0  0  0
    0.4283    1.6141    1.1728 C   0  0  0  0  0  3  0  0  0  0  0  0
    0.1515    1.3871    2.2086 H   0  0  0  0  0  0  0  0  0  0  0  0
    1.4954    2.4827    0.7523 C   0  0  0  0  0  0  0  0  0  0  0  0
    1.5294    2.4637   -0.6915 C   0  0  0  0  0  0  0  0  0  0  0  0
    2.5236    3.2001   -1.3908 C   0  0  0  0  0  0  0  0  0  0  0  0
    2.5661    3.1683   -2.4885 H   0  0  0  0  0  0  0  0  0  0  0  0
    3.4330    3.9461   -0.6563 C   0  0  0  0  0  0  0  0  0  0  0  0
    4.2071    4.5281   -1.1787 H   0  0  0  0  0  0  0  0  0  0  0  0
    3.3978    3.9654    0.7707 C   0  0  0  0  0  0  0  0  0  0  0  0
    4.1454    4.5622    1.3145 H   0  0  0  0  0  0  0  0  0  0  0  0
    2.4531    3.2382    1.4794 C   0  0  0  0  0  0  0  0  0  0  0  0
    2.4414    3.2361    2.5784 H   0  0  0  0  0  0  0  0  0  0  0  0
    0.4800    1.5855   -1.1384 C   0  0  0  0  0  3  0  0  0  0  0  0
    0.2438    1.3429   -2.1809 H   0  0  0  0  0  0  0  0  0  0  0  0
    0.4281   -1.6142   -1.1724 C   0  0  0  0  0  3  0  0  0  0  0  0
    0.1511   -1.3873   -2.2082 H   0  0  0  0  0  0  0  0  0  0  0  0
    1.4951   -2.4829   -0.7519 C   0  0  0  0  0  0  0  0  0  0  0  0
    1.5294   -2.4636    0.6918 C   0  0  0  0  0  0  0  0  0  0  0  0
    0.4804   -1.5850    1.1388 C   0  0  0  0  0  3  0  0  0  0  0  0
    0.2442   -1.3423    2.1813 H   0  0  0  0  0  0  0  0  0  0  0  0
    2.5236   -3.2000    1.3911 C   0  0  0  0  0  0  0  0  0  0  0  0
    2.5663   -3.1679    2.4888 H   0  0  0  0  0  0  0  0  0  0  0  0
    3.4327   -3.9464    0.6565 C   0  0  0  0  0  0  0  0  0  0  0  0
    4.2068   -4.5284    1.1789 H   0  0  0  0  0  0  0  0  0  0  0  0
    3.3973   -3.9659   -0.7704 C   0  0  0  0  0  0  0  0  0  0  0  0
    4.1447   -4.5630   -1.3142 H   0  0  0  0  0  0  0  0  0  0  0  0
    2.4526   -3.2387   -1.4791 C   0  0  0  0  0  0  0  0  0  0  0  0
    2.4406   -3.2367   -2.5781 H   0  0  0  0  0  0  0  0  0  0  0  0
  1  2  1  0  0  0  0
  1 45  1  0  0  0  0
  2 26  1  0  0  0  0
  3  2  2  0  0  0  0
  3  4  1  0  0  0  0
  4  5  1  0  0  0  0
  5  7  2  0  0  0  0
  5  6  1  0  0  0  0
  7  8  1  0  0  0  0
  9 10  1  0  0  0  0
  9  7  1  0  0  0  0
 11  9  2  0  0  0  0
 12 11  1  0  0  0  0
 13 11  1  0  0  0  0
 13  4  2  0  0  0  0
 14 13  1  0  0  0  0
 15  3  1  0  0  0  0
 15 16  1  0  0  0  0
 16 17  1  0  0  0  0
 18 16  2  0  0  0  0
 18 19  1  0  0  0  0
 20 18  1  0  0  0  0
 21 20  1  0  0  0  0
 22 24  1  0  0  0  0
 22 20  2  0  0  0  0
 23 22  1  0  0  0  0
 24 15  2  0  0  0  0
 25 24  1  0  0  0  0
 26 27  1  0  0  0  0
 27 28  1  0  0  0  0
 29 27  1  0  0  0  0
 29 37  1  0  0  0  0
 30 29  2  0  0  0  0
 31 30  1  0  0  0  0
 31 33  2  0  0  0  0
 32 31  1  0  0  0  0
 33 35  1  0  0  0  0
 34 33  1  0  0  0  0
 35 36  1  0  0  0  0
 35 37  2  0  0  0  0
 37 38  1  0  0  0  0
 39 30  1  0  0  0  0
 39 26  1  0  0  0  0
 40 39  1  0  0  0  0
 41 43  1  0  0  0  0
 41  1  1  0  0  0  0
 42 41  1  0  0  0  0
 43 44  1  0  0  0  0
 44 45  1  0  0  0  0
 44 47  2  0  0  0  0
 45 46  1  0  0  0  0
 47 48  1  0  0  0  0
 49 50  1  0  0  0  0
 49 47  1  0  0  0  0
 51 49  2  0  0  0  0
 52 51  1  0  0  0  0
 53 51  1  0  0  0  0
 53 43  2  0  0  0  0
 54 53  1  0  0  0  0
M  END
