3,11
 OpenBabel05122313053D

 52 58  0  0  1  0  0  0  0  0999 V2000
   -2.6011   -0.0000   -0.0000 C   0  0  0  0  0  0  0  0  0  0  0  0
   -1.2413   -0.0000   -0.0000 C   0  0  0  0  0  3  0  0  0  0  0  0
   -0.3240    1.1755   -0.0000 C   0  0  0  0  0  3  0  0  0  0  0  0
    0.3756    1.6418    1.1599 C   0  0  0  0  0  3  0  0  0  0  0  0
    0.1081    1.4144    2.1987 H   0  0  0  0  0  0  0  0  0  0  0  0
    1.4335    2.5173    0.7248 C   0  0  0  0  0  0  0  0  0  0  0  0
    2.3987    3.2849    1.4364 C   0  0  0  0  0  0  0  0  0  0  0  0
    2.4094    3.2763    2.5354 H   0  0  0  0  0  0  0  0  0  0  0  0
    3.3155    4.0327    0.7137 C   0  0  0  0  0  0  0  0  0  0  0  0
    4.0665    4.6340    1.2475 H   0  0  0  0  0  0  0  0  0  0  0  0
   -0.3240   -1.1756   -0.0000 C   0  0  0  0  0  3  0  0  0  0  0  0
    0.3756   -1.6418    1.1599 C   0  0  0  0  0  3  0  0  0  0  0  0
    0.1081   -1.4144    2.1987 H   0  0  0  0  0  0  0  0  0  0  0  0
    1.4335   -2.5173    0.7248 C   0  0  0  0  0  0  0  0  0  0  0  0
    2.3987   -3.2849    1.4364 C   0  0  0  0  0  0  0  0  0  0  0  0
    2.4094   -3.2763    2.5354 H   0  0  0  0  0  0  0  0  0  0  0  0
    3.3155   -4.0326    0.7137 C   0  0  0  0  0  0  0  0  0  0  0  0
    4.0666   -4.6340    1.2475 H   0  0  0  0  0  0  0  0  0  0  0  0
   -3.4902    1.1851   -0.0000 C   0  0  1  0  0  3  0  0  0  0  0  0
   -3.2011    2.5577   -0.0000 C   0  0  0  0  0  0  0  0  0  0  0  0
   -2.1615    2.9153   -0.0000 H   0  0  0  0  0  0  0  0  0  0  0  0
   -4.2663    3.4758    0.0000 C   0  0  0  0  0  0  0  0  0  0  0  0
   -4.0520    4.5550    0.0000 H   0  0  0  0  0  0  0  0  0  0  0  0
   -5.6011    3.0304    0.0000 C   0  0  0  0  0  0  0  0  0  0  0  0
   -6.4199    3.7659    0.0000 H   0  0  0  0  0  0  0  0  0  0  0  0
   -5.8998    1.6566    0.0000 C   0  0  0  0  0  0  0  0  0  0  0  0
   -6.9456    1.3136    0.0000 H   0  0  0  0  0  0  0  0  0  0  0  0
   -4.8440    0.7354    0.0000 C   0  0  0  0  0  0  0  0  0  0  0  0
   -4.8440   -0.7354   -0.0000 C   0  0  0  0  0  0  0  0  0  0  0  0
   -5.8998   -1.6566    0.0000 C   0  0  0  0  0  0  0  0  0  0  0  0
   -6.9456   -1.3136    0.0000 H   0  0  0  0  0  0  0  0  0  0  0  0
   -5.6012   -3.0304   -0.0000 C   0  0  0  0  0  0  0  0  0  0  0  0
   -6.4200   -3.7659   -0.0000 H   0  0  0  0  0  0  0  0  0  0  0  0
   -4.2663   -3.4758   -0.0000 C   0  0  0  0  0  0  0  0  0  0  0  0
   -4.0520   -4.5550   -0.0000 H   0  0  0  0  0  0  0  0  0  0  0  0
   -3.2011   -2.5577   -0.0000 C   0  0  0  0  0  0  0  0  0  0  0  0
   -2.1616   -2.9153   -0.0000 H   0  0  0  0  0  0  0  0  0  0  0  0
   -3.4903   -1.1851   -0.0000 C   0  0  0  0  0  0  0  0  0  0  0  0
    0.3757    1.6418   -1.1600 C   0  0  0  0  0  3  0  0  0  0  0  0
    0.1082    1.4143   -2.1987 H   0  0  0  0  0  0  0  0  0  0  0  0
    1.4335    2.5172   -0.7249 C   0  0  0  0  0  0  0  0  0  0  0  0
    2.3987    3.2849   -1.4365 C   0  0  0  0  0  0  0  0  0  0  0  0
    2.4094    3.2762   -2.5355 H   0  0  0  0  0  0  0  0  0  0  0  0
    3.3155    4.0327   -0.7138 C   0  0  0  0  0  0  0  0  0  0  0  0
    4.0665    4.6340   -1.2476 H   0  0  0  0  0  0  0  0  0  0  0  0
    0.3757   -1.6418   -1.1600 C   0  0  0  0  0  3  0  0  0  0  0  0
    0.1082   -1.4143   -2.1987 H   0  0  0  0  0  0  0  0  0  0  0  0
    1.4335   -2.5172   -0.7249 C   0  0  0  0  0  0  0  0  0  0  0  0
    2.3988   -3.2849   -1.4365 C   0  0  0  0  0  0  0  0  0  0  0  0
    2.4095   -3.2762   -2.5355 H   0  0  0  0  0  0  0  0  0  0  0  0
    3.3156   -4.0326   -0.7138 C   0  0  0  0  0  0  0  0  0  0  0  0
    4.0666   -4.6339   -1.2476 H   0  0  0  0  0  0  0  0  0  0  0  0
  1 38  2  0  0  0  0
  2  1  1  0  0  0  0
  3  2  1  0  0  0  0
  3  4  1  0  0  0  0
  4  5  1  0  0  0  0
  6  4  1  0  0  0  0
  6  7  1  0  0  0  0
  7  8  1  0  0  0  0
  9 10  1  0  0  0  0
  9  7  2  0  0  0  0
 11  2  1  0  0  0  0
 11 12  1  0  0  0  0
 12 13  1  0  0  0  0
 14 12  1  0  0  0  0
 14 15  1  0  0  0  0
 15 16  1  0  0  0  0
 17 18  1  0  0  0  0
 17 15  2  0  0  0  0
 19  1  1  6  0  0  0
 19 20  1  0  0  0  0
 19 28  1  0  0  0  0
 20 22  2  0  0  0  0
 21 20  1  0  0  0  0
 22 24  1  0  0  0  0
 23 22  1  0  0  0  0
 24 25  1  0  0  0  0
 26 24  2  0  0  0  0
 26 27  1  0  0  0  0
 28 26  1  0  0  0  0
 29 28  2  0  0  0  0
 29 30  1  0  0  0  0
 30 31  1  0  0  0  0
 32 33  1  0  0  0  0
 32 30  2  0  0  0  0
 34 32  1  0  0  0  0
 35 34  1  0  0  0  0
 36 34  2  0  0  0  0
 36 38  1  0  0  0  0
 37 36  1  0  0  0  0
 38 29  1  0  0  0  0
 39 41  1  0  0  0  0
 39  3  1  0  0  0  0
 40 39  1  0  0  0  0
 41  6  2  0  0  0  0
 42 41  1  0  0  0  0
 42 44  2  0  0  0  0
 43 42  1  0  0  0  0
 44  9  1  0  0  0  0
 45 44  1  0  0  0  0
 46 48  1  0  0  0  0
 46 11  1  0  0  0  0
 47 46  1  0  0  0  0
 48 14  2  0  0  0  0
 49 48  1  0  0  0  0
 49 51  2  0  0  0  0
 50 49  1  0  0  0  0
 51 17  1  0  0  0  0
 52 51  1  0  0  0  0
M  END
