3,7
 OpenBabel05122313053D

 12 11  0  0  1  0  0  0  0  0999 V2000
   -0.7994    2.9465    3.0050 Br  0  0  0  0  0  0  0  0  0  0  0  0
   -0.1036    3.5581   -2.7428 Br  0  0  0  0  0  0  0  0  0  0  0  0
   -0.1939    0.9426    1.0853 C   0  0  0  0  0  2  0  0  0  0  0  0
   -0.4524    2.2866    1.2430 C   0  0  0  0  0  0  0  0  0  0  0  0
   -0.4637    3.0834    0.0752 C   0  0  2  0  0  3  0  0  0  0  0  0
   -0.1835    2.4237   -1.1709 C   0  0  0  0  0  0  0  0  0  0  0  0
    0.0495    1.0694   -1.3673 C   0  0  0  0  0  3  0  0  0  0  0  0
    0.2555    0.7665   -2.4083 H   0  0  0  0  0  0  0  0  0  0  0  0
   -0.7544    4.5496    0.1325 C   0  0  0  0  0  0  0  0  0  0  0  0
   -0.9597    4.8837    1.1648 H   0  0  0  0  0  0  0  0  0  0  0  0
   -1.6272    4.7809   -0.5128 H   0  0  0  0  0  0  0  0  0  0  0  0
    0.0972    5.1285   -0.2807 H   0  0  0  0  0  0  0  0  0  0  0  0
  2  6  1  0  0  0  0
  3  4  2  0  0  0  0
  4  1  1  0  0  0  0
  5  6  1  1  0  0  0
  5  9  1  0  0  0  0
  5  4  1  0  0  0  0
  7  6  2  0  0  0  0
  8  7  1  0  0  0  0
  9 10  1  0  0  0  0
 11  9  1  0  0  0  0
 12  9  1  0  0  0  0
M  END
