7,11
 OpenBabel05122313053D

 24 25  0  0  1  0  0  0  0  0999 V2000
   -1.8466   -2.5579    0.7637 O   0  0  0  0  0  0  0  0  0  0  0  0
   -1.8160    1.4586   -1.3663 O   0  0  0  0  0  0  0  0  0  0  0  0
   -2.6670    1.7910   -1.7078 H   0  0  0  0  0  0  0  0  0  0  0  0
   -2.4749   -0.4823   -0.1033 N   0  0  0  0  0  0  0  0  0  0  0  0
   -1.6686   -1.3567    0.6157 C   0  0  0  0  0  0  0  0  0  0  0  0
   -0.5601   -0.5103    1.1576 C   0  0  1  0  0  3  0  0  0  0  0  0
    0.5880   -0.8849    1.8886 C   0  0  0  0  0  3  0  0  0  0  0  0
    0.7218   -1.9292    2.2034 H   0  0  0  0  0  0  0  0  0  0  0  0
    1.5659    0.1217    2.1780 C   0  0  0  0  0  3  0  0  0  0  0  0
    2.4825   -0.1448    2.7210 H   0  0  0  0  0  0  0  0  0  0  0  0
    1.4098    1.4384    1.6674 C   0  0  0  0  0  3  0  0  0  0  0  0
    2.2104    2.1741    1.8273 H   0  0  0  0  0  0  0  0  0  0  0  0
    0.2503    1.8135    0.9080 C   0  0  0  0  0  0  0  0  0  0  0  0
    0.1550    2.8201    0.4795 H   0  0  0  0  0  0  0  0  0  0  0  0
   -0.7195    0.8209    0.6682 C   0  0  0  0  0  0  0  0  0  0  0  0
   -2.0417    0.9285   -0.0794 C   0  0  1  0  0  0  0  0  0  0  0  0
   -3.0482    1.7936    0.6979 C   0  0  0  0  0  0  0  0  0  0  0  0
   -3.1911    1.4060    1.7246 H   0  0  0  0  0  0  0  0  0  0  0  0
   -4.0350    1.7850    0.1891 H   0  0  0  0  0  0  0  0  0  0  0  0
   -2.6893    2.8395    0.7541 H   0  0  0  0  0  0  0  0  0  0  0  0
   -3.5807   -0.9409   -0.9049 C   0  0  0  0  0  0  0  0  0  0  0  0
   -3.4232   -0.6899   -1.9756 H   0  0  0  0  0  0  0  0  0  0  0  0
   -4.5515   -0.5148   -0.5695 H   0  0  0  0  0  0  0  0  0  0  0  0
   -3.6250   -2.0418   -0.7968 H   0  0  0  0  0  0  0  0  0  0  0  0
  3  2  1  0  0  0  0
  4 16  1  0  0  0  0
  4  5  1  0  0  0  0
  5  1  2  0  0  0  0
  6  5  1  6  0  0  0
  6  7  1  0  0  0  0
  7  9  1  0  0  0  0
  7  8  1  0  0  0  0
  9 10  1  0  0  0  0
 11 12  1  0  0  0  0
 11  9  1  0  0  0  0
 13 11  1  0  0  0  0
 14 13  1  0  0  0  0
 15 13  2  0  0  0  0
 15  6  1  0  0  0  0
 16  2  1  6  0  0  0
 16 15  1  0  0  0  0
 16 17  1  0  0  0  0
 17 20  1  0  0  0  0
 17 18  1  0  0  0  0
 19 17  1  0  0  0  0
 21 24  1  0  0  0  0
 21 23  1  0  0  0  0
 21  4  1  0  0  0  0
 22 21  1  0  0  0  0
M  END
