5,14
 OpenBabel05122313053D

 33 34  0  0  0  0  0  0  0  0999 V2000
   -1.7738   -2.0437   -0.2388 N   0  0  0  0  0  0  0  0  0  0  0  0
    0.7362   -3.2837    0.3260 O   0  0  0  0  0  0  0  0  0  0  0  0
    4.8010    1.7745    0.0503 O   0  0  0  0  0  0  0  0  0  0  0  0
    3.5597   -2.8279   -0.0375 O   0  0  0  0  0  0  0  0  0  0  0  0
    1.4617    0.1960   -0.1328 C   0  0  0  0  0  3  0  0  0  0  0  0
    1.8609   -1.1695   -0.1144 C   0  0  0  0  0  0  0  0  0  0  0  0
    3.2471   -1.5083   -0.0455 C   0  0  0  0  0  0  0  0  0  0  0  0
    4.2017   -0.4849   -0.0003 C   0  0  0  0  0  0  0  0  0  0  0  0
    5.2792   -0.6829    0.0425 H   0  0  0  0  0  0  0  0  0  0  0  0
    3.7847    0.8696   -0.0034 C   0  0  0  0  0  0  0  0  0  0  0  0
    2.4219    1.2194   -0.0606 C   0  0  0  0  0  0  0  0  0  0  0  0
    2.0867    2.2647   -0.0411 H   0  0  0  0  0  0  0  0  0  0  0  0
    0.7449   -2.1176   -0.0792 C   0  0  0  0  0  0  0  0  0  0  0  0
   -0.5155   -1.4268   -0.6181 C   0  0  0  0  0  3  0  0  0  0  0  0
   -0.4707   -1.4110   -1.7284 H   0  0  0  0  0  0  0  0  0  0  0  0
   -1.9209   -2.6466    0.9791 C   0  0  0  0  0  3  0  0  0  0  0  0
   -1.0194   -2.6953    1.5980 H   0  0  0  0  0  0  0  0  0  0  0  0
   -3.1492   -3.1681    1.3725 C   0  0  0  0  0  0  0  0  0  0  0  0
   -3.2228   -3.6484    2.3580 H   0  0  0  0  0  0  0  0  0  0  0  0
   -4.2612   -3.0720    0.5215 C   0  0  0  0  0  0  0  0  0  0  0  0
   -5.2381   -3.4771    0.8219 H   0  0  0  0  0  0  0  0  0  0  0  0
   -4.0960   -2.4364   -0.7176 C   0  0  0  0  0  0  0  0  0  0  0  0
   -4.9319   -2.3185   -1.4206 H   0  0  0  0  0  0  0  0  0  0  0  0
   -2.8494   -1.9300   -1.0698 C   0  0  0  0  0  0  0  0  0  0  0  0
   -2.6603   -1.4068   -2.0149 H   0  0  0  0  0  0  0  0  0  0  0  0
    4.4704    3.1512    0.0596 C   0  0  0  0  0  0  0  0  0  0  0  0
    3.9224    3.4514   -0.8610 H   0  0  0  0  0  0  0  0  0  0  0  0
    5.4284    3.7020    0.1078 H   0  0  0  0  0  0  0  0  0  0  0  0
    3.8488    3.4219    0.9418 H   0  0  0  0  0  0  0  0  0  0  0  0
    4.9216   -3.1962    0.0388 C   0  0  0  0  0  0  0  0  0  0  0  0
    5.5030   -2.8239   -0.8349 H   0  0  0  0  0  0  0  0  0  0  0  0
    4.9460   -4.3019    0.0444 H   0  0  0  0  0  0  0  0  0  0  0  0
    5.4021   -2.8175    0.9690 H   0  0  0  0  0  0  0  0  0  0  0  0
  1 16  1  0  0  0  0
  3 26  1  0  0  0  0
  4 30  1  0  0  0  0
  5  6  2  0  0  0  0
  5 11  1  0  0  0  0
  6 13  1  0  0  0  0
  6  7  1  0  0  0  0
  7  4  1  0  0  0  0
  7  8  2  0  0  0  0
  8  9  1  0  0  0  0
 10  8  1  0  0  0  0
 10  3  1  0  0  0  0
 11 12  1  0  0  0  0
 11 10  2  0  0  0  0
 13  2  2  0  0  0  0
 14  1  1  0  0  0  0
 14 13  1  0  0  0  0
 15 14  1  0  0  0  0
 16 18  1  0  0  0  0
 16 17  1  0  0  0  0
 18 19  1  0  0  0  0
 20 21  1  0  0  0  0
 20 18  2  0  0  0  0
 22 20  1  0  0  0  0
 23 22  1  0  0  0  0
 24 22  2  0  0  0  0
 24  1  1  0  0  0  0
 25 24  1  0  0  0  0
 26 28  1  0  0  0  0
 26 29  1  0  0  0  0
 27 26  1  0  0  0  0
 30 32  1  0  0  0  0
 30 33  1  0  0  0  0
 31 30  1  0  0  0  0
M  END
