26,28
 OpenBabel05122313053D

 57 58  0  0  1  0  0  0  0  0999 V2000
   -0.5022   -1.2000   -0.7839 O   0  0  0  0  0  0  0  0  0  0  0  0
    1.2134    0.0783   -1.6196 O   0  0  0  0  0  0  0  0  0  0  0  0
    0.2270    2.2967   -0.1864 O   0  0  0  0  0  0  0  0  0  0  0  0
   -2.8351    2.0779   -0.0947 O   0  0  0  0  0  0  0  0  0  0  0  0
   -3.4786   -0.4116    1.1768 O   0  0  0  0  0  0  0  0  0  0  0  0
   -2.8924   -2.9238   -0.9429 O   0  0  0  0  0  0  0  0  0  0  0  0
   -0.7262    3.8045   -1.6012 O   0  0  0  0  0  0  0  0  0  0  0  0
   -2.0996    3.5130    1.5147 O   0  0  0  0  0  0  0  0  0  0  0  0
   -5.1641   -0.3260   -0.3583 O   0  0  0  0  0  0  0  0  0  0  0  0
   -4.6274   -3.5142    0.4126 O   0  0  0  0  0  0  0  0  0  0  0  0
    0.2545   -0.0190   -0.5995 C   0  0  1  0  0  0  0  0  0  0  0  0
   -0.6189    1.2377   -0.6540 C   0  0  1  0  0  0  0  0  0  0  0  0
   -1.8448    1.1050    0.2644 C   0  0  2  0  0  0  0  0  0  0  0  0
   -2.5004   -0.2678    0.1409 C   0  0  1  0  0  0  0  0  0  0  0  0
   -1.4495   -1.3803    0.2724 C   0  0  1  0  0  0  0  0  0  0  0  0
   -2.0352   -2.7805    0.1971 C   0  0  0  0  0  0  0  0  0  0  0  0
    0.0484    3.5532   -0.6994 C   0  0  0  0  0  0  0  0  0  0  0  0
    0.8990    4.5358    0.0572 C   0  0  0  0  0  0  0  0  0  0  0  0
   -2.8395    3.2660    0.5823 C   0  0  0  0  0  0  0  0  0  0  0  0
   -3.8359    4.2061   -0.0381 C   0  0  0  0  0  0  0  0  0  0  0  0
   -4.7969   -0.4507    0.7930 C   0  0  0  0  0  0  0  0  0  0  0  0
   -5.6810   -0.7338    1.9745 C   0  0  0  0  0  0  0  0  0  0  0  0
   -4.1959   -3.2639   -0.6977 C   0  0  0  0  0  0  0  0  0  0  0  0
   -5.0061   -3.2257   -1.9630 C   0  0  0  0  0  0  0  0  0  0  0  0
    2.4095   -0.5637   -1.4236 C   0  0  0  0  0  0  0  0  0  0  0  0
    2.4788   -1.9365   -1.0549 C   0  0  0  0  0  3  0  0  0  0  0  0
    3.7395   -2.5779   -0.8898 C   0  0  0  0  0  3  0  0  0  0  0  0
    4.9254   -1.8156   -1.0459 C   0  0  0  0  0  3  0  0  0  0  0  0
    4.8618   -0.4413   -1.4144 C   0  0  0  0  0  3  0  0  0  0  0  0
    3.6061    0.2126   -1.5833 C   0  0  0  0  0  0  0  0  0  0  0  0
    3.5153    1.6665   -1.9491 C   0  0  0  0  0  0  0  0  0  0  0  0
    0.7809   -0.0515    0.3868 H   0  0  0  0  0  0  0  0  0  0  0  0
   -0.9479    1.4380   -1.6945 H   0  0  0  0  0  0  0  0  0  0  0  0
   -1.5245    1.2850    1.3130 H   0  0  0  0  0  0  0  0  0  0  0  0
   -2.9996   -0.3568   -0.8450 H   0  0  0  0  0  0  0  0  0  0  0  0
   -0.9308   -1.2979    1.2594 H   0  0  0  0  0  0  0  0  0  0  0  0
   -2.6137   -2.9980    1.1164 H   0  0  0  0  0  0  0  0  0  0  0  0
   -1.2077   -3.5120    0.1007 H   0  0  0  0  0  0  0  0  0  0  0  0
    1.1003    5.4235   -0.5677 H   0  0  0  0  0  0  0  0  0  0  0  0
    1.8313    4.0696    0.4262 H   0  0  0  0  0  0  0  0  0  0  0  0
    0.3083    4.8471    0.9445 H   0  0  0  0  0  0  0  0  0  0  0  0
   -4.7443    3.6687   -0.3678 H   0  0  0  0  0  0  0  0  0  0  0  0
   -4.0811    5.0169    0.6696 H   0  0  0  0  0  0  0  0  0  0  0  0
   -3.3542    4.6403   -0.9390 H   0  0  0  0  0  0  0  0  0  0  0  0
   -5.7585   -1.8383    2.0554 H   0  0  0  0  0  0  0  0  0  0  0  0
   -5.2515   -0.3411    2.9138 H   0  0  0  0  0  0  0  0  0  0  0  0
   -6.6899   -0.3238    1.7917 H   0  0  0  0  0  0  0  0  0  0  0  0
   -4.3826   -3.4059   -2.8570 H   0  0  0  0  0  0  0  0  0  0  0  0
   -5.4398   -2.2060   -2.0310 H   0  0  0  0  0  0  0  0  0  0  0  0
   -5.8352   -3.9525   -1.8969 H   0  0  0  0  0  0  0  0  0  0  0  0
    1.5367   -2.4795   -0.9028 H   0  0  0  0  0  0  0  0  0  0  0  0
    3.7859   -3.6297   -0.5791 H   0  0  0  0  0  0  0  0  0  0  0  0
    5.9031   -2.2813   -0.8584 H   0  0  0  0  0  0  0  0  0  0  0  0
    5.7858    0.1464   -1.4995 H   0  0  0  0  0  0  0  0  0  0  0  0
    4.4312    2.2081   -1.6483 H   0  0  0  0  0  0  0  0  0  0  0  0
    2.6389    2.1363   -1.4682 H   0  0  0  0  0  0  0  0  0  0  0  0
    3.3885    1.7737   -3.0466 H   0  0  0  0  0  0  0  0  0  0  0  0
  1 11  1  0  0  0  0
  1 15  1  0  0  0  0
  2 25  1  0  0  0  0
  2 11  1  0  0  0  0
  4 13  1  0  0  0  0
  4 19  1  0  0  0  0
  6 23  1  0  0  0  0
  6 16  1  0  0  0  0
  7 17  2  0  0  0  0
  9 21  2  0  0  0  0
 11 32  1  1  0  0  0
 12 33  1  6  0  0  0
 12 11  1  0  0  0  0
 12  3  1  0  0  0  0
 12 13  1  0  0  0  0
 13 34  1  1  0  0  0
 14 35  1  6  0  0  0
 14 13  1  0  0  0  0
 14 15  1  0  0  0  0
 14  5  1  0  0  0  0
 15 36  1  1  0  0  0
 16 15  1  0  0  0  0
 16 37  1  0  0  0  0
 17  3  1  0  0  0  0
 17 18  1  0  0  0  0
 18 40  1  0  0  0  0
 18 41  1  0  0  0  0
 19  8  2  0  0  0  0
 20 19  1  0  0  0  0
 20 43  1  0  0  0  0
 21  5  1  0  0  0  0
 21 22  1  0  0  0  0
 22 45  1  0  0  0  0
 22 46  1  0  0  0  0
 23 10  2  0  0  0  0
 24 50  1  0  0  0  0
 24 23  1  0  0  0  0
 25 26  1  0  0  0  0
 26 51  1  0  0  0  0
 26 27  1  0  0  0  0
 27 52  1  0  0  0  0
 28 27  1  0  0  0  0
 28 53  1  0  0  0  0
 29 28  1  0  0  0  0
 30 25  2  0  0  0  0
 30 29  1  0  0  0  0
 31 55  1  0  0  0  0
 31 30  1  0  0  0  0
 31 56  1  0  0  0  0
 38 16  1  0  0  0  0
 39 18  1  0  0  0  0
 42 20  1  0  0  0  0
 44 20  1  0  0  0  0
 47 22  1  0  0  0  0
 48 24  1  0  0  0  0
 49 24  1  0  0  0  0
 54 29  1  0  0  0  0
 57 31  1  0  0  0  0
M  END
