5,12
 OpenBabel05122313053D

 48 50  0  0  1  0  0  0  0  0999 V2000
    4.3498   -2.3340    0.1488 O   0  0  0  0  0  0  0  0  0  0  0  0
   -1.8054   -1.5650    0.3100 N   0  0  0  0  0  0  0  0  0  0  0  0
   -4.6296   -1.4131   -0.0374 N   0  0  0  0  0  0  0  0  0  0  0  0
    0.6784   -0.2982   -0.4012 C   0  0  1  0  0  3  0  0  0  0  0  0
    1.6043   -0.4011   -1.4796 C   0  0  0  0  0  3  0  0  0  0  0  0
    1.3428    0.0467   -2.4492 H   0  0  0  0  0  0  0  0  0  0  0  0
    2.8519   -1.0870   -1.3478 C   0  0  0  0  0  3  0  0  0  0  0  0
    3.5314   -1.1382   -2.2062 H   0  0  0  0  0  0  0  0  0  0  0  0
    3.2043   -1.6599   -0.0935 C   0  0  0  0  0  0  0  0  0  0  0  0
    2.3311   -1.4934    1.0278 C   0  0  0  0  0  0  0  0  0  0  0  0
    2.6596   -1.8682    2.0054 H   0  0  0  0  0  0  0  0  0  0  0  0
    1.1002   -0.8104    0.8702 C   0  0  0  0  0  3  0  0  0  0  0  0
    0.4503   -0.6594    1.7428 H   0  0  0  0  0  0  0  0  0  0  0  0
    5.3836   -2.2833   -0.8266 C   0  0  0  0  0  0  0  0  0  0  0  0
    6.2473   -2.8148   -0.3881 H   0  0  0  0  0  0  0  0  0  0  0  0
    5.6731   -1.2333   -1.0461 H   0  0  0  0  0  0  0  0  0  0  0  0
    5.0858   -2.7927   -1.7691 H   0  0  0  0  0  0  0  0  0  0  0  0
   -0.6296    0.3960   -0.5455 C   0  0  0  0  0  0  0  0  0  0  0  0
   -1.8317   -0.2323   -0.1426 C   0  0  0  0  0  0  0  0  0  0  0  0
   -3.0711    0.5283   -0.1506 C   0  0  0  0  0  0  0  0  0  0  0  0
   -4.3988   -0.0294    0.0695 C   0  0  0  0  0  0  0  0  0  0  0  0
   -5.4608    0.8405    0.3598 C   0  0  0  0  0  0  0  0  0  0  0  0
   -6.4584    0.4268    0.5569 H   0  0  0  0  0  0  0  0  0  0  0  0
   -5.3105    2.2442    0.3032 C   0  0  0  0  0  0  0  0  0  0  0  0
   -6.1746    2.8886    0.5260 H   0  0  0  0  0  0  0  0  0  0  0  0
   -4.1125    2.7948   -0.1172 C   0  0  0  0  0  0  0  0  0  0  0  0
   -4.0025    3.8808   -0.2551 H   0  0  0  0  0  0  0  0  0  0  0  0
   -2.9879    1.9575   -0.3676 C   0  0  0  0  0  0  0  0  0  0  0  0
   -1.7678    2.5275   -0.8322 C   0  0  0  0  0  0  0  0  0  0  0  0
   -1.7358    3.6062   -1.0464 H   0  0  0  0  0  0  0  0  0  0  0  0
   -0.6330    1.7548   -0.9676 C   0  0  0  0  0  0  0  0  0  0  0  0
    0.3152    2.2131   -1.2828 H   0  0  0  0  0  0  0  0  0  0  0  0
   -1.1210   -2.6244   -0.3942 C   0  0  0  0  0  0  0  0  0  0  0  0
   -0.8394   -2.2927   -1.4104 H   0  0  0  0  0  0  0  0  0  0  0  0
   -1.7915   -3.5096   -0.4982 H   0  0  0  0  0  0  0  0  0  0  0  0
   -0.1935   -2.9742    0.1185 H   0  0  0  0  0  0  0  0  0  0  0  0
   -2.3175   -1.9222    1.6125 C   0  0  0  0  0  0  0  0  0  0  0  0
   -2.8191   -1.0550    2.0784 H   0  0  0  0  0  0  0  0  0  0  0  0
   -1.4883   -2.2465    2.2904 H   0  0  0  0  0  0  0  0  0  0  0  0
   -3.0556   -2.7533    1.5554 H   0  0  0  0  0  0  0  0  0  0  0  0
   -4.2766   -2.0440   -1.3007 C   0  0  0  0  0  0  0  0  0  0  0  0
   -3.3997   -1.5491   -1.7511 H   0  0  0  0  0  0  0  0  0  0  0  0
   -5.1181   -1.9829   -2.0357 H   0  0  0  0  0  0  0  0  0  0  0  0
   -4.0359   -3.1172   -1.1486 H   0  0  0  0  0  0  0  0  0  0  0  0
   -5.8347   -1.9622    0.5441 C   0  0  0  0  0  0  0  0  0  0  0  0
   -5.9729   -1.5848    1.5760 H   0  0  0  0  0  0  0  0  0  0  0  0
   -5.7405   -3.0668    0.5917 H   0  0  0  0  0  0  0  0  0  0  0  0
   -6.7641   -1.7349   -0.0390 H   0  0  0  0  0  0  0  0  0  0  0  0
  2 37  1  0  0  0  0
  3 21  1  0  0  0  0
  3 45  1  0  0  0  0
  4 18  1  1  0  0  0
  4 12  1  0  0  0  0
  5  7  1  0  0  0  0
  5  4  1  0  0  0  0
  6  5  1  0  0  0  0
  7  9  1  0  0  0  0
  8  7  1  0  0  0  0
  9  1  1  0  0  0  0
  9 10  2  0  0  0  0
 10 11  1  0  0  0  0
 12 10  1  0  0  0  0
 12 13  1  0  0  0  0
 14 15  1  0  0  0  0
 14  1  1  0  0  0  0
 16 14  1  0  0  0  0
 17 14  1  0  0  0  0
 18 19  1  0  0  0  0
 19  2  1  0  0  0  0
 20 19  2  0  0  0  0
 20 21  1  0  0  0  0
 21 22  2  0  0  0  0
 22 23  1  0  0  0  0
 24 22  1  0  0  0  0
 24 25  1  0  0  0  0
 26 24  2  0  0  0  0
 27 26  1  0  0  0  0
 28 20  1  0  0  0  0
 28 26  1  0  0  0  0
 29 28  2  0  0  0  0
 30 29  1  0  0  0  0
 31 29  1  0  0  0  0
 31 18  2  0  0  0  0
 32 31  1  0  0  0  0
 33 36  1  0  0  0  0
 33  2  1  0  0  0  0
 34 33  1  0  0  0  0
 35 33  1  0  0  0  0
 37 38  1  0  0  0  0
 37 39  1  0  0  0  0
 40 37  1  0  0  0  0
 41 44  1  0  0  0  0
 41  3  1  0  0  0  0
 42 41  1  0  0  0  0
 43 41  1  0  0  0  0
 45 47  1  0  0  0  0
 45 46  1  0  0  0  0
 48 45  1  0  0  0  0
M  END
