1,24
 OpenBabel05122313053D

 43 44  0  0  0  0  0  0  0  0999 V2000
   -2.0896   -0.6706   -0.2252 C   0  0  0  0  0  2  0  0  0  0  0  0
   -3.0045    0.3196   -0.4541 N   0  0  0  0  0  0  0  0  0  0  0  0
   -4.1864   -1.4098    0.2565 C   0  0  0  0  0  0  0  0  0  0  0  0
   -4.9530   -2.1264    0.5667 H   0  0  0  0  0  0  0  0  0  0  0  0
   -4.2905   -0.1090   -0.1613 C   0  0  0  0  0  0  0  0  0  0  0  0
   -5.1671    0.5344   -0.2843 H   0  0  0  0  0  0  0  0  0  0  0  0
   -2.8385   -1.7303    0.2097 N   0  0  0  0  0  0  0  0  0  0  0  0
   -2.6997    1.6822   -0.9024 C   0  0  0  0  0  0  0  0  0  0  0  0
   -3.5176    1.9903   -1.5825 H   0  0  0  0  0  0  0  0  0  0  0  0
   -1.7787    1.6230   -1.5139 H   0  0  0  0  0  0  0  0  0  0  0  0
   -2.5532    2.6901    0.2468 C   0  0  0  0  0  0  0  0  0  0  0  0
   -3.4597    2.6347    0.8858 H   0  0  0  0  0  0  0  0  0  0  0  0
   -2.5623    3.7042   -0.2072 H   0  0  0  0  0  0  0  0  0  0  0  0
   -1.2893    2.5216    1.1000 C   0  0  0  0  0  0  0  0  0  0  0  0
   -1.2503    1.4880    1.5127 H   0  0  0  0  0  0  0  0  0  0  0  0
   -1.3574    3.1925    1.9819 H   0  0  0  0  0  0  0  0  0  0  0  0
    0.0002    2.8133    0.3281 C   0  0  0  0  0  0  0  0  0  0  0  0
    0.0002    3.8731   -0.0104 H   0  0  0  0  0  0  0  0  0  0  0  0
    0.0001    2.2072   -0.6064 H   0  0  0  0  0  0  0  0  0  0  0  0
   -2.3107   -3.0384    0.5710 C   0  0  0  0  0  0  0  0  0  0  0  0
   -1.2156   -3.0254    0.4253 H   0  0  0  0  0  0  0  0  0  0  0  0
   -2.7514   -3.8240   -0.0730 H   0  0  0  0  0  0  0  0  0  0  0  0
   -2.5337   -3.2666    1.6315 H   0  0  0  0  0  0  0  0  0  0  0  0
    2.0894   -0.6708   -0.2251 C   0  0  0  0  0  2  0  0  0  0  0  0
    3.0045    0.3193   -0.4543 N   0  0  0  0  0  0  0  0  0  0  0  0
    4.1862   -1.4101    0.2567 C   0  0  0  0  0  0  0  0  0  0  0  0
    4.9527   -2.1267    0.5671 H   0  0  0  0  0  0  0  0  0  0  0  0
    4.2904   -0.1094   -0.1614 C   0  0  0  0  0  0  0  0  0  0  0  0
    5.1671    0.5339   -0.2846 H   0  0  0  0  0  0  0  0  0  0  0  0
    2.8383   -1.7304    0.2100 N   0  0  0  0  0  0  0  0  0  0  0  0
    2.6998    1.6818   -0.9028 C   0  0  0  0  0  0  0  0  0  0  0  0
    3.5176    1.9897   -1.5832 H   0  0  0  0  0  0  0  0  0  0  0  0
    1.7786    1.6225   -1.5141 H   0  0  0  0  0  0  0  0  0  0  0  0
    2.5536    2.6899    0.2461 C   0  0  0  0  0  0  0  0  0  0  0  0
    3.4603    2.6347    0.8850 H   0  0  0  0  0  0  0  0  0  0  0  0
    2.5626    3.7040   -0.2080 H   0  0  0  0  0  0  0  0  0  0  0  0
    1.2899    2.5216    1.0997 C   0  0  0  0  0  0  0  0  0  0  0  0
    1.2510    1.4881    1.5126 H   0  0  0  0  0  0  0  0  0  0  0  0
    1.3583    3.1927    1.9815 H   0  0  0  0  0  0  0  0  0  0  0  0
    2.3104   -3.0384    0.5717 C   0  0  0  0  0  0  0  0  0  0  0  0
    1.2153   -3.0253    0.4260 H   0  0  0  0  0  0  0  0  0  0  0  0
    2.7509   -3.8242   -0.0721 H   0  0  0  0  0  0  0  0  0  0  0  0
    2.5334   -3.2663    1.6322 H   0  0  0  0  0  0  0  0  0  0  0  0
  1  7  1  0  0  0  0
  2  1  1  0  0  0  0
  2  5  1  0  0  0  0
  3  4  1  0  0  0  0
  5  3  2  0  0  0  0
  6  5  1  0  0  0  0
  7  3  1  0  0  0  0
  7 20  1  0  0  0  0
  8  2  1  0  0  0  0
  8 11  1  0  0  0  0
  9  8  1  0  0  0  0
 10  8  1  0  0  0  0
 11 12  1  0  0  0  0
 11 14  1  0  0  0  0
 13 11  1  0  0  0  0
 14 15  1  0  0  0  0
 14 16  1  0  0  0  0
 17 37  1  0  0  0  0
 17 14  1  0  0  0  0
 18 17  1  0  0  0  0
 19 17  1  0  0  0  0
 20 23  1  0  0  0  0
 21 20  1  0  0  0  0
 22 20  1  0  0  0  0
 24 30  1  0  0  0  0
 25 24  1  0  0  0  0
 25 28  1  0  0  0  0
 26 27  1  0  0  0  0
 28 26  2  0  0  0  0
 29 28  1  0  0  0  0
 30 26  1  0  0  0  0
 30 40  1  0  0  0  0
 31 25  1  0  0  0  0
 31 34  1  0  0  0  0
 32 31  1  0  0  0  0
 33 31  1  0  0  0  0
 34 35  1  0  0  0  0
 34 37  1  0  0  0  0
 36 34  1  0  0  0  0
 37 38  1  0  0  0  0
 37 39  1  0  0  0  0
 40 43  1  0  0  0  0
 41 40  1  0  0  0  0
 42 40  1  0  0  0  0
M  END
