4,8
 OpenBabel05122313053D

 26 28  0  0  0  0  0  0  0  0999 V2000
   -0.1868   -1.4552   -1.0883 C   0  0  0  0  0  0  0  0  0  0  0  0
    1.0337   -1.3423   -1.8201 C   0  0  0  0  0  3  0  0  0  0  0  0
    1.0130   -1.0380   -2.8770 H   0  0  0  0  0  0  0  0  0  0  0  0
    2.2833   -1.5624   -1.1486 C   0  0  0  0  0  3  0  0  0  0  0  0
    3.2285   -1.3943   -1.6888 H   0  0  0  0  0  0  0  0  0  0  0  0
    2.3230   -1.9355    0.2245 C   0  0  0  0  0  3  0  0  0  0  0  0
    3.2820   -2.0476    0.7480 H   0  0  0  0  0  0  0  0  0  0  0  0
    1.0880   -2.0381    0.9476 C   0  0  0  0  0  3  0  0  0  0  0  0
    1.1169   -2.1967    2.0358 H   0  0  0  0  0  0  0  0  0  0  0  0
   -0.1677   -1.8169    0.3133 C   0  0  0  0  0  0  0  0  0  0  0  0
   -1.4775   -1.8851    1.0610 C   0  0  0  0  0  0  0  0  0  0  0  0
   -1.3018   -1.8023    2.1506 H   0  0  0  0  0  0  0  0  0  0  0  0
   -1.9107   -2.8991    0.8904 H   0  0  0  0  0  0  0  0  0  0  0  0
   -2.4548   -0.8313    0.5892 C   0  0  0  0  0  0  0  0  0  0  0  0
   -2.4875   -0.4970   -0.7866 C   0  0  0  0  0  0  0  0  0  0  0  0
   -1.5291   -1.1946   -1.7281 C   0  0  0  0  0  0  0  0  0  0  0  0
   -1.9429   -2.1908   -2.0142 H   0  0  0  0  0  0  0  0  0  0  0  0
   -1.4131   -0.6297   -2.6738 H   0  0  0  0  0  0  0  0  0  0  0  0
   -3.3060   -0.1579    1.4831 C   0  0  0  0  0  0  0  0  0  0  0  0
   -3.2727   -0.4086    2.5546 H   0  0  0  0  0  0  0  0  0  0  0  0
   -4.1912    0.8292    1.0222 C   0  0  0  0  0  0  0  0  0  0  0  0
   -4.8532    1.3455    1.7329 H   0  0  0  0  0  0  0  0  0  0  0  0
   -4.2278    1.1574   -0.3420 C   0  0  0  0  0  0  0  0  0  0  0  0
   -4.9211    1.9288   -0.7083 H   0  0  0  0  0  0  0  0  0  0  0  0
   -3.3740    0.4985   -1.2415 C   0  0  0  0  0  0  0  0  0  0  0  0
   -3.3975    0.7564   -2.3123 H   0  0  0  0  0  0  0  0  0  0  0  0
  1 10  2  0  0  0  0
  2  4  1  0  0  0  0
  2  1  1  0  0  0  0
  3  2  1  0  0  0  0
  4  6  1  0  0  0  0
  5  4  1  0  0  0  0
  6  7  1  0  0  0  0
  6  8  1  0  0  0  0
  8  9  1  0  0  0  0
 10  8  1  0  0  0  0
 10 11  1  0  0  0  0
 11 12  1  0  0  0  0
 13 11  1  0  0  0  0
 14 11  1  0  0  0  0
 14 19  1  0  0  0  0
 15 14  2  0  0  0  0
 16  1  1  0  0  0  0
 16 15  1  0  0  0  0
 17 16  1  0  0  0  0
 18 16  1  0  0  0  0
 19 20  1  0  0  0  0
 21 19  2  0  0  0  0
 21 22  1  0  0  0  0
 23 21  1  0  0  0  0
 24 23  1  0  0  0  0
 25 15  1  0  0  0  0
 25 23  2  0  0  0  0
 26 25  1  0  0  0  0
M  END
