2,15
 OpenBabel05122313053D

 40 42  0  0  1  0  0  0  0  0999 V2000
   -0.4219    2.4080    0.4387 N   0  0  0  0  0  0  0  0  0  0  0  0
    0.1878    1.3060   -0.1008 C   0  0  0  0  0  2  0  0  0  0  0  0
    1.3266    1.7973   -0.6964 N   0  0  0  0  0  0  0  0  0  0  0  0
    1.4021    3.1776   -0.5447 C   0  0  0  0  0  0  0  0  0  0  0  0
    2.2245    3.7698   -0.9536 H   0  0  0  0  0  0  0  0  0  0  0  0
    0.2981    3.5625    0.1708 C   0  0  0  0  0  0  0  0  0  0  0  0
   -0.0193    4.5547    0.4981 H   0  0  0  0  0  0  0  0  0  0  0  0
   -1.7131    2.2853    1.1533 C   0  0  1  0  0  0  0  0  0  0  0  0
   -1.5075    1.5572    1.9662 H   0  0  0  0  0  0  0  0  0  0  0  0
   -2.1239    3.6072    1.7862 C   0  0  0  0  0  0  0  0  0  0  0  0
   -1.3297    3.9938    2.4548 H   0  0  0  0  0  0  0  0  0  0  0  0
   -3.0302    3.4538    2.4010 H   0  0  0  0  0  0  0  0  0  0  0  0
   -2.3599    4.3808    1.0284 H   0  0  0  0  0  0  0  0  0  0  0  0
   -2.7324    1.6362    0.2230 C   0  0  0  0  0  0  0  0  0  0  0  0
   -2.3622    0.4265   -0.4235 C   0  0  0  0  0  3  0  0  0  0  0  0
   -3.3071   -0.1672   -1.2910 C   0  0  0  0  0  0  0  0  0  0  0  0
   -3.0239   -1.0775   -1.8413 H   0  0  0  0  0  0  0  0  0  0  0  0
   -4.5807    0.3894   -1.4850 C   0  0  0  0  0  0  0  0  0  0  0  0
   -5.2948   -0.1036   -2.1640 H   0  0  0  0  0  0  0  0  0  0  0  0
   -4.9386    1.5753   -0.8270 C   0  0  0  0  0  0  0  0  0  0  0  0
   -5.9336    2.0218   -0.9753 H   0  0  0  0  0  0  0  0  0  0  0  0
   -4.0079    2.1978    0.0180 C   0  0  0  0  0  0  0  0  0  0  0  0
   -4.2912    3.1335    0.5232 H   0  0  0  0  0  0  0  0  0  0  0  0
    2.3265    0.9708   -1.3798 C   0  0  1  0  0  0  0  0  0  0  0  0
    1.8047    0.0051   -1.5479 H   0  0  0  0  0  0  0  0  0  0  0  0
    2.6536    1.5417   -2.7648 C   0  0  0  0  0  0  0  0  0  0  0  0
    1.7219    1.6129   -3.3584 H   0  0  0  0  0  0  0  0  0  0  0  0
    3.3477    0.8603   -3.2925 H   0  0  0  0  0  0  0  0  0  0  0  0
    3.1430    2.5349   -2.7077 H   0  0  0  0  0  0  0  0  0  0  0  0
    3.5615    0.7132   -0.5274 C   0  0  0  0  0  0  0  0  0  0  0  0
    4.4221   -0.3394   -0.9062 C   0  0  0  0  0  0  0  0  0  0  0  0
    4.1800   -0.9395   -1.7976 H   0  0  0  0  0  0  0  0  0  0  0  0
    5.5654   -0.6431   -0.1548 C   0  0  0  0  0  0  0  0  0  0  0  0
    6.2174   -1.4742   -0.4643 H   0  0  0  0  0  0  0  0  0  0  0  0
    5.8729    0.1043    0.9946 C   0  0  0  0  0  0  0  0  0  0  0  0
    6.7679   -0.1344    1.5887 H   0  0  0  0  0  0  0  0  0  0  0  0
    5.0264    1.1539    1.3788 C   0  0  0  0  0  0  0  0  0  0  0  0
    5.2538    1.7436    2.2802 H   0  0  0  0  0  0  0  0  0  0  0  0
    3.8798    1.4549    0.6251 C   0  0  0  0  0  0  0  0  0  0  0  0
    3.2153    2.2671    0.9544 H   0  0  0  0  0  0  0  0  0  0  0  0
  1  8  1  0  0  0  0
  2  1  1  0  0  0  0
  3  4  1  0  0  0  0
  3  2  1  0  0  0  0
  4  6  2  0  0  0  0
  5  4  1  0  0  0  0
  6  1  1  0  0  0  0
  6  7  1  0  0  0  0
  8 10  1  0  0  0  0
  8  9  1  1  0  0  0
 10 12  1  0  0  0  0
 10 11  1  0  0  0  0
 13 10  1  0  0  0  0
 14  8  1  0  0  0  0
 15 14  2  0  0  0  0
 16 15  1  0  0  0  0
 17 16  1  0  0  0  0
 18 16  2  0  0  0  0
 18 20  1  0  0  0  0
 19 18  1  0  0  0  0
 20 22  2  0  0  0  0
 21 20  1  0  0  0  0
 22 14  1  0  0  0  0
 22 23  1  0  0  0  0
 24 25  1  6  0  0  0
 24  3  1  0  0  0  0
 24 30  1  0  0  0  0
 26 29  1  0  0  0  0
 26 24  1  0  0  0  0
 27 26  1  0  0  0  0
 28 26  1  0  0  0  0
 30 39  1  0  0  0  0
 31 30  2  0  0  0  0
 31 33  1  0  0  0  0
 32 31  1  0  0  0  0
 33 35  2  0  0  0  0
 34 33  1  0  0  0  0
 35 37  1  0  0  0  0
 35 36  1  0  0  0  0
 37 38  1  0  0  0  0
 39 40  1  0  0  0  0
 39 37  2  0  0  0  0
M  END
