23
 OpenBabel05122313053D

 71 73  0  0  1  0  0  0  0  0999 V2000
   -0.8967    2.8243    0.5781 O   0  0  0  0  0  0  0  0  0  0  0  0
    0.5947   -2.8217    1.7090 O   0  0  0  0  0  0  0  0  0  0  0  0
   -0.3080    0.1590    3.3713 O   0  0  0  0  0  0  0  0  0  0  0  0
    1.8337   -1.8357   -0.1736 C   0  0  0  0  0  0  0  0  0  0  0  0
   -1.9993   -0.5750    0.3923 C   0  0  1  0  0  3  0  0  0  0  0  0
    0.7247   -0.3520    1.2528 C   0  0  1  0  0  3  0  0  0  0  0  0
    1.5249    0.4310    0.3325 C   0  0  0  0  0  0  0  0  0  0  0  0
   -1.5985    0.5848    1.3382 C   0  0  1  0  0  0  0  0  0  0  0  0
    2.1538   -0.4937   -0.5837 C   0  0  0  0  0  0  0  0  0  0  0  0
   -1.2484    1.0763   -1.0658 C   0  0  1  0  0  3  0  0  0  0  0  0
    2.3779   -3.1251   -0.7194 C   0  0  0  0  0  0  0  0  0  0  0  0
    1.8140    1.8708    0.4695 C   0  0  0  0  0  0  0  0  0  0  0  0
    1.8916    2.4272    1.7665 C   0  0  0  0  0  0  0  0  0  0  0  0
   -2.9240   -1.6633    0.8948 C   0  0  0  0  0  0  0  0  0  0  0  0
   -0.3789    0.1584    2.1507 C   0  0  0  0  0  0  0  0  0  0  0  0
   -1.1591    1.6651    0.2870 C   0  0  0  0  0  0  0  0  0  0  0  0
    0.9963   -1.7432    0.9907 C   0  0  0  0  0  0  0  0  0  0  0  0
    2.0607    2.7122   -0.6377 C   0  0  0  0  0  0  0  0  0  0  0  0
    3.1745   -0.1722   -1.6469 C   0  0  0  0  0  0  0  0  0  0  0  0
   -4.4200   -0.0926   -1.9123 C   0  0  0  0  0  0  0  0  0  0  0  0
   -2.4828   -2.4680    2.1179 C   0  0  0  0  0  0  0  0  0  0  0  0
   -2.7061    1.1527    2.2434 C   0  0  0  0  0  0  0  0  0  0  0  0
   -2.0607   -0.1106   -0.9714 C   0  0  2  0  0  3  0  0  0  0  0  0
    1.0737   -2.8476    3.0624 C   0  0  0  0  0  0  0  0  0  0  0  0
    3.7194   -3.5152   -0.0819 C   0  0  0  0  0  0  0  0  0  0  0  0
    4.5271    0.2492   -1.0541 C   0  0  0  0  0  0  0  0  0  0  0  0
   -3.9226    1.7102    1.5055 C   0  0  0  0  0  0  0  0  0  0  0  0
   -2.9836   -0.6191   -2.0526 C   0  0  0  0  0  0  0  0  0  0  0  0
   -1.1071    1.9744   -2.2690 C   0  0  0  0  0  0  0  0  0  0  0  0
   -2.1769    3.0757   -2.3378 C   0  0  0  0  0  0  0  0  0  0  0  0
    2.2051    3.7804    1.9475 C   0  0  0  0  0  0  0  0  0  0  0  0
    2.3735    4.0636   -0.4546 C   0  0  0  0  0  0  0  0  0  0  0  0
    2.4473    4.6044    0.8392 C   0  0  0  0  0  0  0  0  0  0  0  0
    2.7997    0.6161   -2.3268 H   0  0  0  0  0  0  0  0  0  0  0  0
   -3.0036   -1.7273   -2.0474 H   0  0  0  0  0  0  0  0  0  0  0  0
   -4.6702    2.0993    2.2249 H   0  0  0  0  0  0  0  0  0  0  0  0
   -2.1275    3.7187   -1.4384 H   0  0  0  0  0  0  0  0  0  0  0  0
    3.3053   -1.0679   -2.2868 H   0  0  0  0  0  0  0  0  0  0  0  0
   -2.2309    1.9548    2.8448 H   0  0  0  0  0  0  0  0  0  0  0  0
   -2.5709   -0.3306   -3.0410 H   0  0  0  0  0  0  0  0  0  0  0  0
   -4.8948   -0.4558   -0.9795 H   0  0  0  0  0  0  0  0  0  0  0  0
    4.0792   -4.4850   -0.4796 H   0  0  0  0  0  0  0  0  0  0  0  0
    1.6345   -3.9250   -0.5317 H   0  0  0  0  0  0  0  0  0  0  0  0
   -3.8950   -1.1676    1.1286 H   0  0  0  0  0  0  0  0  0  0  0  0
   -4.4280    0.9426    0.8863 H   0  0  0  0  0  0  0  0  0  0  0  0
    1.7113    1.7866    2.6415 H   0  0  0  0  0  0  0  0  0  0  0  0
   -2.2334   -1.8141    2.9774 H   0  0  0  0  0  0  0  0  0  0  0  0
    2.4832   -3.0496   -1.8211 H   0  0  0  0  0  0  0  0  0  0  0  0
   -0.1108    2.4586   -2.2230 H   0  0  0  0  0  0  0  0  0  0  0  0
    5.2659    0.4369   -1.8584 H   0  0  0  0  0  0  0  0  0  0  0  0
   -1.1181    1.3704   -3.1979 H   0  0  0  0  0  0  0  0  0  0  0  0
   -3.1469   -2.3612    0.0629 H   0  0  0  0  0  0  0  0  0  0  0  0
   -3.0074    0.3694    2.9688 H   0  0  0  0  0  0  0  0  0  0  0  0
   -4.4509    1.0145   -1.8921 H   0  0  0  0  0  0  0  0  0  0  0  0
   -5.0451   -0.4351   -2.7611 H   0  0  0  0  0  0  0  0  0  0  0  0
    1.9794    2.3091   -1.6554 H   0  0  0  0  0  0  0  0  0  0  0  0
    4.4320    1.1760   -0.4551 H   0  0  0  0  0  0  0  0  0  0  0  0
    4.9385   -0.5381   -0.3910 H   0  0  0  0  0  0  0  0  0  0  0  0
    2.2573    4.1933    2.9662 H   0  0  0  0  0  0  0  0  0  0  0  0
   -3.1982    2.6500   -2.4042 H   0  0  0  0  0  0  0  0  0  0  0  0
   -3.6405    2.5467    0.8353 H   0  0  0  0  0  0  0  0  0  0  0  0
    0.5723   -3.7018    3.5537 H   0  0  0  0  0  0  0  0  0  0  0  0
    2.6891    5.6685    0.9812 H   0  0  0  0  0  0  0  0  0  0  0  0
   -3.2964   -3.1471    2.4422 H   0  0  0  0  0  0  0  0  0  0  0  0
    2.1744   -3.0072    3.0837 H   0  0  0  0  0  0  0  0  0  0  0  0
   -2.0219    3.7157   -3.2296 H   0  0  0  0  0  0  0  0  0  0  0  0
    2.5501    4.7042   -1.3319 H   0  0  0  0  0  0  0  0  0  0  0  0
    3.6214   -3.6162    1.0179 H   0  0  0  0  0  0  0  0  0  0  0  0
   -1.5887   -3.0743    1.8878 H   0  0  0  0  0  0  0  0  0  0  0  0
    0.8243   -1.9079    3.5964 H   0  0  0  0  0  0  0  0  0  0  0  0
    4.5026   -2.7563   -0.2792 H   0  0  0  0  0  0  0  0  0  0  0  0
  2 24  1  0  0  0  0
  4 17  2  0  0  0  0
  5 14  1  1  0  0  0
  5  8  1  0  0  0  0
  6 15  1  6  0  0  0
  7 12  1  0  0  0  0
  7  6  1  0  0  0  0
  8 15  1  1  0  0  0
  8 22  1  0  0  0  0
  9  4  1  0  0  0  0
  9  7  2  0  0  0  0
 10 29  1  6  0  0  0
 10 23  1  0  0  0  0
 10 16  1  0  0  0  0
 11 43  1  0  0  0  0
 11  4  1  0  0  0  0
 11 25  1  0  0  0  0
 12 13  1  0  0  0  0
 13 31  2  0  0  0  0
 13 46  1  0  0  0  0
 14 44  1  0  0  0  0
 14 21  1  0  0  0  0
 15  3  2  0  0  0  0
 16  1  2  0  0  0  0
 16  8  1  0  0  0  0
 17  6  1  0  0  0  0
 17  2  1  0  0  0  0
 18 32  1  0  0  0  0
 18 12  2  0  0  0  0
 19 26  1  0  0  0  0
 19  9  1  0  0  0  0
 20 54  1  0  0  0  0
 20 41  1  0  0  0  0
 21 64  1  0  0  0  0
 21 47  1  0  0  0  0
 22 39  1  0  0  0  0
 22 53  1  0  0  0  0
 23 28  1  1  0  0  0
 23  5  1  0  0  0  0
 24 65  1  0  0  0  0
 24 62  1  0  0  0  0
 24 70  1  0  0  0  0
 25 68  1  0  0  0  0
 26 57  1  0  0  0  0
 26 58  1  0  0  0  0
 27 36  1  0  0  0  0
 27 22  1  0  0  0  0
 28 35  1  0  0  0  0
 28 20  1  0  0  0  0
 29 49  1  0  0  0  0
 30 29  1  0  0  0  0
 30 37  1  0  0  0  0
 31 59  1  0  0  0  0
 32 33  2  0  0  0  0
 33 63  1  0  0  0  0
 33 31  1  0  0  0  0
 34 19  1  0  0  0  0
 38 19  1  0  0  0  0
 40 28  1  0  0  0  0
 42 25  1  0  0  0  0
 45 27  1  0  0  0  0
 48 11  1  0  0  0  0
 50 26  1  0  0  0  0
 51 29  1  0  0  0  0
 52 14  1  0  0  0  0
 55 20  1  0  0  0  0
 56 18  1  0  0  0  0
 60 30  1  0  0  0  0
 61 27  1  0  0  0  0
 66 30  1  0  0  0  0
 67 32  1  0  0  0  0
 69 21  1  0  0  0  0
 71 25  1  0  0  0  0
M  END
