1,24
 OpenBabel05122313053D

 32 33  0  0  0  0  0  0  0  0999 V2000
    0.4807   -1.3135    0.0001 C   0  0  0  0  0  3  0  0  0  0  0  0
   -6.4274    4.0135   -0.0000 C   0  0  0  0  0  0  0  0  0  0  0  0
   -7.3487    3.4134    0.0000 H   0  0  0  0  0  0  0  0  0  0  0  0
   -3.9642    4.1101   -0.0000 C   0  0  0  0  0  0  0  0  0  0  0  0
   -1.6413    2.8237    0.0000 C   0  0  0  0  0  0  0  0  0  0  0  0
   -1.6412   -2.8239    0.0001 C   0  0  0  0  0  0  0  0  0  0  0  0
   -5.1407    1.9195    0.0000 C   0  0  0  0  0  0  0  0  0  0  0  0
   -6.4274   -4.0135   -0.0001 C   0  0  0  0  0  0  0  0  0  0  0  0
   -7.3487   -3.4134   -0.0002 H   0  0  0  0  0  0  0  0  0  0  0  0
   -2.7079   -3.4600    0.0002 C   0  0  0  0  0  0  0  0  0  0  0  0
   -2.7079    3.4599    0.0000 C   0  0  0  0  0  0  0  0  0  0  0  0
   -5.1295   -0.6786    0.0000 C   0  0  0  0  0  0  0  0  0  0  0  0
   -0.5114   -2.0730    0.0001 C   0  0  0  0  0  0  0  0  0  0  0  0
   -5.1407   -1.9195    0.0000 C   0  0  0  0  0  0  0  0  0  0  0  0
   -6.4895   -5.4102   -0.0002 C   0  0  0  0  0  0  0  0  0  0  0  0
   -7.4678   -5.9137   -0.0003 H   0  0  0  0  0  0  0  0  0  0  0  0
   -4.0608   -5.5249   -0.0000 C   0  0  0  0  0  0  0  0  0  0  0  0
   -3.1297   -6.1098    0.0000 H   0  0  0  0  0  0  0  0  0  0  0  0
   -6.4895    5.4102   -0.0000 C   0  0  0  0  0  0  0  0  0  0  0  0
   -7.4678    5.9137   -0.0000 H   0  0  0  0  0  0  0  0  0  0  0  0
   -5.1821   -3.3356   -0.0000 C   0  0  0  0  0  0  0  0  0  0  0  0
   -0.5115    2.0729    0.0001 C   0  0  0  0  0  0  0  0  0  0  0  0
   -5.1821    3.3356    0.0000 C   0  0  0  0  0  0  0  0  0  0  0  0
    0.4806    1.3134    0.0001 C   0  0  0  0  0  3  0  0  0  0  0  0
   -3.9642   -4.1101    0.0000 C   0  0  0  0  0  0  0  0  0  0  0  0
   -5.1295    0.6786    0.0001 C   0  0  0  0  0  0  0  0  0  0  0  0
   -4.0608    5.5249   -0.0000 C   0  0  0  0  0  0  0  0  0  0  0  0
   -3.1297    6.1098   -0.0000 H   0  0  0  0  0  0  0  0  0  0  0  0
   -5.3027   -6.1668   -0.0001 C   0  0  0  0  0  0  0  0  0  0  0  0
   -5.3487   -7.2664   -0.0002 H   0  0  0  0  0  0  0  0  0  0  0  0
   -5.3028    6.1668   -0.0000 C   0  0  0  0  0  0  0  0  0  0  0  0
   -5.3487    7.2664   -0.0001 H   0  0  0  0  0  0  0  0  0  0  0  0
  1 13  3  0  0  0  0
  2  3  1  0  0  0  0
  2 23  1  0  0  0  0
  4 11  1  0  0  0  0
  4 23  2  0  0  0  0
  5 22  1  0  0  0  0
  6 13  1  0  0  0  0
  6 10  3  0  0  0  0
  7 26  3  0  0  0  0
  8 21  1  0  0  0  0
  9  8  1  0  0  0  0
 11  5  3  0  0  0  0
 12 26  1  0  0  0  0
 14 12  3  0  0  0  0
 15  8  2  0  0  0  0
 15 29  1  0  0  0  0
 16 15  1  0  0  0  0
 17 25  1  0  0  0  0
 17 18  1  0  0  0  0
 19  2  2  0  0  0  0
 20 19  1  0  0  0  0
 21 14  1  0  0  0  0
 21 25  2  0  0  0  0
 23  7  1  0  0  0  0
 24 22  3  0  0  0  0
 25 10  1  0  0  0  0
 27  4  1  0  0  0  0
 28 27  1  0  0  0  0
 29 17  2  0  0  0  0
 30 29  1  0  0  0  0
 31 19  1  0  0  0  0
 31 27  2  0  0  0  0
 32 31  1  0  0  0  0
M  END
