3,21
 OpenBabel05122313053D

 23 23  0  0  0  0  0  0  0  0999 V2000
    4.4540    1.7939    0.4421 Cl  0  0  0  0  0  0  0  0  0  0  0  0
    1.8273    1.0992    0.1907 N   0  0  0  0  0  0  0  0  0  0  0  0
    1.0435    0.0064    0.0826 C   0  0  0  0  0  2  0  0  0  0  0  0
    4.4688   -1.7786    0.2756 Cl  0  0  0  0  0  0  0  0  0  0  0  0
    1.8367   -1.0855    0.0867 N   0  0  0  0  0  0  0  0  0  0  0  0
    3.1660    0.7015    0.2781 C   0  0  0  0  0  0  0  0  0  0  0  0
    3.1710   -0.6876    0.2126 C   0  0  0  0  0  0  0  0  0  0  0  0
    1.1542    2.3986    0.1198 C   0  0  0  0  0  0  0  0  0  0  0  0
    1.7874    3.1069   -0.4543 H   0  0  0  0  0  0  0  0  0  0  0  0
    1.0373    2.8116    1.1427 H   0  0  0  0  0  0  0  0  0  0  0  0
   -0.2067    2.1999   -0.5594 C   0  0  0  0  0  3  0  0  0  0  0  0
   -0.9933    2.8851   -0.2117 H   0  0  0  0  0  0  0  0  0  0  0  0
   -0.3199    1.6087   -1.8350 C   0  0  0  0  0  3  0  0  0  0  0  0
    0.5853    1.2908   -2.3754 H   0  0  0  0  0  0  0  0  0  0  0  0
   -1.1846    1.8406   -2.4721 H   0  0  0  0  0  0  0  0  0  0  0  0
    1.1627   -2.3721   -0.1165 C   0  0  0  0  0  0  0  0  0  0  0  0
    1.0544   -2.8876    0.8599 H   0  0  0  0  0  0  0  0  0  0  0  0
    1.7897   -3.0144   -0.7695 H   0  0  0  0  0  0  0  0  0  0  0  0
   -0.2096   -2.0856   -0.7471 C   0  0  0  0  0  3  0  0  0  0  0  0
   -0.9707   -2.8443   -0.5076 H   0  0  0  0  0  0  0  0  0  0  0  0
   -0.3149   -1.3590   -1.9772 C   0  0  0  0  0  3  0  0  0  0  0  0
    0.6068   -1.0383   -2.4903 H   0  0  0  0  0  0  0  0  0  0  0  0
   -1.1572   -1.5558   -2.6585 H   0  0  0  0  0  0  0  0  0  0  0  0
  2  6  1  0  0  0  0
  3  5  1  0  0  0  0
  3  2  1  0  0  0  0
  5  7  1  0  0  0  0
  6  1  1  0  0  0  0
  7  4  1  0  0  0  0
  7  6  2  0  0  0  0
  8  2  1  0  0  0  0
  8 10  1  0  0  0  0
  9  8  1  0  0  0  0
 11 12  1  0  0  0  0
 11  8  1  0  0  0  0
 13 11  1  0  0  0  0
 14 13  1  0  0  0  0
 15 13  1  0  0  0  0
 16  5  1  0  0  0  0
 16 17  1  0  0  0  0
 18 16  1  0  0  0  0
 19 20  1  0  0  0  0
 19 16  1  0  0  0  0
 21 19  1  0  0  0  0
 22 21  1  0  0  0  0
 23 21  1  0  0  0  0
M  END
