5,7
 OpenBabel05122313053D

 23 24  0  0  1  0  0  0  0  0999 V2000
    4.1299   -0.0781    1.4962 O   0  0  0  0  0  0  0  0  0  0  0  0
    4.1735    0.3133   -0.7477 O   0  0  0  0  0  0  0  0  0  0  0  0
    0.1067   -0.9953   -0.8579 C   0  0  0  0  0  0  0  0  0  0  0  0
    0.0420   -1.2714    0.5561 C   0  0  2  0  0  3  0  0  0  0  0  0
   -1.1815   -1.7147    1.1367 C   0  0  0  0  0  3  0  0  0  0  0  0
   -2.2996   -1.9762    0.2941 C   0  0  0  0  0  3  0  0  0  0  0  0
   -2.2212   -1.6872   -1.0995 C   0  0  0  0  0  3  0  0  0  0  0  0
   -1.0153   -1.2109   -1.6956 C   0  0  0  0  0  0  0  0  0  0  0  0
    1.5002   -0.5189   -1.1901 C   0  0  0  0  0  0  0  0  0  0  0  0
    2.1834   -0.5098    0.1597 C   0  0  0  0  0  0  0  0  0  0  0  0
    1.3300   -0.9290    1.1427 C   0  0  0  0  0  0  0  0  0  0  0  0
    3.5724   -0.0825    0.4106 C   0  0  0  0  0  0  0  0  0  0  0  0
    5.5261    0.7583   -0.6068 C   0  0  0  0  0  0  0  0  0  0  0  0
   -1.2594   -1.8643    2.2229 H   0  0  0  0  0  0  0  0  0  0  0  0
   -3.2503   -2.3096    0.7303 H   0  0  0  0  0  0  0  0  0  0  0  0
   -3.1161   -1.8154   -1.7248 H   0  0  0  0  0  0  0  0  0  0  0  0
   -0.9798   -0.9702   -2.7665 H   0  0  0  0  0  0  0  0  0  0  0  0
    1.5179    0.4822   -1.6694 H   0  0  0  0  0  0  0  0  0  0  0  0
    2.0036   -1.2100   -1.9015 H   0  0  0  0  0  0  0  0  0  0  0  0
    1.5868   -0.9962    2.2080 H   0  0  0  0  0  0  0  0  0  0  0  0
    6.1656   -0.0457   -0.1890 H   0  0  0  0  0  0  0  0  0  0  0  0
    5.8664    1.0362   -1.6201 H   0  0  0  0  0  0  0  0  0  0  0  0
    5.5850    1.6315    0.0742 H   0  0  0  0  0  0  0  0  0  0  0  0
  2 13  1  0  0  0  0
  2 12  1  0  0  0  0
  4  3  1  1  0  0  0
  4  5  1  0  0  0  0
  4 11  1  0  0  0  0
  5 14  1  0  0  0  0
  6 15  1  0  0  0  0
  6  5  1  0  0  0  0
  7  6  1  0  0  0  0
  8  7  1  0  0  0  0
  8  3  2  0  0  0  0
  9  3  1  0  0  0  0
  9 10  1  0  0  0  0
 10 12  1  0  0  0  0
 10 11  2  0  0  0  0
 11 20  1  0  0  0  0
 12  1  2  0  0  0  0
 13 21  1  0  0  0  0
 13 23  1  0  0  0  0
 16  7  1  0  0  0  0
 17  8  1  0  0  0  0
 18  9  1  0  0  0  0
 19  9  1  0  0  0  0
 22 13  1  0  0  0  0
M  END
