2,18
 OpenBabel05122313053D

 57 60  0  0  1  0  0  0  0  0999 V2000
    1.6679   -0.7792    1.5381 C   0  0  1  0  0  3  0  0  0  0  0  0
    1.5611    0.6404    1.3749 C   0  0  0  0  0  3  0  0  0  0  0  0
    1.1691    1.3333    2.1288 H   0  0  0  0  0  0  0  0  0  0  0  0
    2.0141    1.0404    0.0873 C   0  0  2  0  0  3  0  0  0  0  0  0
    2.5008   -0.1560   -0.5642 C   0  0  0  0  0  0  0  0  0  0  0  0
    2.3286   -1.2711    0.3481 C   0  0  0  0  0  0  0  0  0  0  0  0
    3.0772   -0.3710   -1.8492 C   0  0  0  0  0  0  0  0  0  0  0  0
    3.1718    0.4648   -2.5572 H   0  0  0  0  0  0  0  0  0  0  0  0
    3.5207   -1.6434   -2.1749 C   0  0  0  0  0  0  0  0  0  0  0  0
    3.9747   -1.8269   -3.1601 H   0  0  0  0  0  0  0  0  0  0  0  0
    3.4063   -2.7266   -1.2518 C   0  0  0  0  0  0  0  0  0  0  0  0
    3.7877   -3.7170   -1.5426 H   0  0  0  0  0  0  0  0  0  0  0  0
    2.8143   -2.5590   -0.0095 C   0  0  0  0  0  0  0  0  0  0  0  0
    2.7083   -3.4067    0.6833 H   0  0  0  0  0  0  0  0  0  0  0  0
   -1.5583   -1.0310    1.7335 C   0  0  0  0  0  0  0  0  0  0  0  0
   -2.2495   -1.3813    0.5336 C   0  0  0  0  0  0  0  0  0  0  0  0
   -2.4561   -2.4097    0.2126 H   0  0  0  0  0  0  0  0  0  0  0  0
   -2.5739   -0.2206   -0.2273 C   0  0  2  0  0  3  0  0  0  0  0  0
   -2.1642    0.9148    0.5717 C   0  0  0  0  0  0  0  0  0  0  0  0
   -1.5654    0.4160    1.7954 C   0  0  0  0  0  0  0  0  0  0  0  0
   -2.2653    2.3209    0.3549 C   0  0  0  0  0  0  0  0  0  0  0  0
   -2.6791    2.7012   -0.5896 H   0  0  0  0  0  0  0  0  0  0  0  0
   -1.8577    3.1865    1.3598 C   0  0  0  0  0  0  0  0  0  0  0  0
   -1.9499    4.2730    1.2128 H   0  0  0  0  0  0  0  0  0  0  0  0
   -1.3387    2.6936    2.5955 C   0  0  0  0  0  0  0  0  0  0  0  0
   -1.0609    3.4096    3.3838 H   0  0  0  0  0  0  0  0  0  0  0  0
   -1.1781    1.3327    2.8154 C   0  0  0  0  0  0  0  0  0  0  0  0
   -0.7728    0.9603    3.7685 H   0  0  0  0  0  0  0  0  0  0  0  0
    1.4162   -1.5841    2.7873 C   0  0  0  0  0  0  0  0  0  0  0  0
    2.3543   -2.1308    3.0272 H   0  0  0  0  0  0  0  0  0  0  0  0
    1.2424   -0.8950    3.6411 H   0  0  0  0  0  0  0  0  0  0  0  0
    0.2644   -2.6040    2.7153 C   0  0  0  0  0  0  0  0  0  0  0  0
    0.3819   -3.3378    3.5409 H   0  0  0  0  0  0  0  0  0  0  0  0
    0.3369   -3.1845    1.7696 H   0  0  0  0  0  0  0  0  0  0  0  0
   -1.1383   -1.9792    2.8286 C   0  0  0  0  0  0  0  0  0  0  0  0
   -1.8826   -2.8015    2.8724 H   0  0  0  0  0  0  0  0  0  0  0  0
   -1.2110   -1.4503    3.8036 H   0  0  0  0  0  0  0  0  0  0  0  0
    2.1712    2.4502   -0.4011 C   0  0  0  0  0  0  0  0  0  0  0  0
    1.9398    2.4958   -1.4857 H   0  0  0  0  0  0  0  0  0  0  0  0
    1.4173    3.0979    0.0958 H   0  0  0  0  0  0  0  0  0  0  0  0
    3.5837    3.0072   -0.1439 C   0  0  0  0  0  0  0  0  0  0  0  0
    3.8003    2.9619    0.9456 H   0  0  0  0  0  0  0  0  0  0  0  0
    4.3287    2.3373   -0.6257 H   0  0  0  0  0  0  0  0  0  0  0  0
    3.7564    4.4367   -0.6561 C   0  0  0  0  0  0  0  0  0  0  0  0
    3.5739    4.4965   -1.7493 H   0  0  0  0  0  0  0  0  0  0  0  0
    4.7788    4.8202   -0.4645 H   0  0  0  0  0  0  0  0  0  0  0  0
    3.0405    5.1297   -0.1665 H   0  0  0  0  0  0  0  0  0  0  0  0
   -3.3715   -0.1783   -1.4979 C   0  0  0  0  0  0  0  0  0  0  0  0
   -2.9735    0.6225   -2.1561 H   0  0  0  0  0  0  0  0  0  0  0  0
   -3.2198   -1.1281   -2.0531 H   0  0  0  0  0  0  0  0  0  0  0  0
   -4.8743    0.0478   -1.2500 C   0  0  0  0  0  0  0  0  0  0  0  0
   -5.0080    0.9880   -0.6713 H   0  0  0  0  0  0  0  0  0  0  0  0
   -5.2611   -0.7640   -0.5962 H   0  0  0  0  0  0  0  0  0  0  0  0
   -5.6837    0.1109   -2.5448 C   0  0  0  0  0  0  0  0  0  0  0  0
   -5.3318    0.9360   -3.1987 H   0  0  0  0  0  0  0  0  0  0  0  0
   -6.7620    0.2751   -2.3468 H   0  0  0  0  0  0  0  0  0  0  0  0
   -5.5878   -0.8301   -3.1257 H   0  0  0  0  0  0  0  0  0  0  0  0
  1 29  1  1  0  0  0
  2  1  1  0  0  0  0
  2  3  1  0  0  0  0
  4 38  1  1  0  0  0
  4  2  1  0  0  0  0
  5  4  1  0  0  0  0
  5  6  1  0  0  0  0
  6  1  1  0  0  0  0
  7  5  2  0  0  0  0
  8  7  1  0  0  0  0
  9  7  1  0  0  0  0
  9 11  2  0  0  0  0
 10  9  1  0  0  0  0
 11 13  1  0  0  0  0
 12 11  1  0  0  0  0
 13  6  2  0  0  0  0
 13 14  1  0  0  0  0
 15 20  1  0  0  0  0
 15 35  1  0  0  0  0
 16 15  2  0  0  0  0
 17 16  1  0  0  0  0
 18 48  1  1  0  0  0
 18 16  1  0  0  0  0
 18 19  1  0  0  0  0
 19 20  1  0  0  0  0
 20 27  2  0  0  0  0
 21 19  2  0  0  0  0
 21 23  1  0  0  0  0
 22 21  1  0  0  0  0
 23 25  2  0  0  0  0
 24 23  1  0  0  0  0
 25 27  1  0  0  0  0
 25 26  1  0  0  0  0
 27 28  1  0  0  0  0
 29 30  1  0  0  0  0
 29 31  1  0  0  0  0
 32 29  1  0  0  0  0
 32 35  1  0  0  0  0
 32 33  1  0  0  0  0
 34 32  1  0  0  0  0
 35 36  1  0  0  0  0
 35 37  1  0  0  0  0
 38 41  1  0  0  0  0
 38 40  1  0  0  0  0
 39 38  1  0  0  0  0
 41 42  1  0  0  0  0
 43 41  1  0  0  0  0
 44 46  1  0  0  0  0
 44 47  1  0  0  0  0
 44 41  1  0  0  0  0
 45 44  1  0  0  0  0
 48 51  1  0  0  0  0
 49 48  1  0  0  0  0
 50 48  1  0  0  0  0
 51 52  1  0  0  0  0
 51 53  1  0  0  0  0
 54 56  1  0  0  0  0
 54 51  1  0  0  0  0
 55 54  1  0  0  0  0
 57 54  1  0  0  0  0
M  END
