23,26
 OpenBabel05122313053D

 37 40  0  0  1  0  0  0  0  0999 V2000
    1.8616   -1.9953    0.5870 O   0  0  0  0  0  0  0  0  0  0  0  0
    1.6930   -2.5434    1.3751 H   0  0  0  0  0  0  0  0  0  0  0  0
    1.1159    2.4169   -0.9606 O   0  0  0  0  0  0  0  0  0  0  0  0
   -1.6412    2.7259    0.0790 O   0  0  0  0  0  0  0  0  0  0  0  0
    2.3552   -0.3582   -1.5953 C   0  0  0  0  0  0  0  0  0  0  0  0
    1.7599   -1.2776   -1.7316 H   0  0  0  0  0  0  0  0  0  0  0  0
    2.0579    0.3711   -2.3776 H   0  0  0  0  0  0  0  0  0  0  0  0
    3.8698   -0.5940   -1.6577 C   0  0  0  0  0  0  0  0  0  0  0  0
    4.1278   -1.5056   -1.0785 H   0  0  0  0  0  0  0  0  0  0  0  0
    4.2404   -0.7438   -2.6919 H   0  0  0  0  0  0  0  0  0  0  0  0
    4.4427    0.6577   -0.9807 C   0  0  0  0  0  0  0  0  0  0  0  0
    4.3709    1.5215   -1.6738 H   0  0  0  0  0  0  0  0  0  0  0  0
    5.5058    0.5598   -0.6783 H   0  0  0  0  0  0  0  0  0  0  0  0
    3.5094    0.8868    0.2220 C   0  0  2  0  0  0  0  0  0  0  0  0
    3.4203    1.9657    0.4642 H   0  0  0  0  0  0  0  0  0  0  0  0
    3.8753    0.0920    1.4926 C   0  0  0  0  0  0  0  0  0  0  0  0
    4.3637   -0.8641    1.2107 H   0  0  0  0  0  0  0  0  0  0  0  0
    4.5703    0.6405    2.1593 H   0  0  0  0  0  0  0  0  0  0  0  0
    2.5236   -0.2114    2.1401 C   0  0  0  0  0  0  0  0  0  0  0  0
    2.1003    0.7070    2.5999 H   0  0  0  0  0  0  0  0  0  0  0  0
    2.5498   -0.9916    2.9306 H   0  0  0  0  0  0  0  0  0  0  0  0
    1.6426   -0.6413    0.9372 C   0  0  2  0  0  0  0  0  0  0  0  0
    0.1816   -0.2794    1.1776 C   0  0  1  0  0  3  0  0  0  0  0  0
   -0.7712   -0.9589    1.9774 C   0  0  0  0  0  3  0  0  0  0  0  0
   -0.5479   -1.9308    2.4382 H   0  0  0  0  0  0  0  0  0  0  0  0
   -2.0748   -0.3990    2.0740 C   0  0  0  0  0  3  0  0  0  0  0  0
   -2.8582   -0.9364    2.6271 H   0  0  0  0  0  0  0  0  0  0  0  0
   -2.4035    0.8530    1.4643 C   0  0  0  0  0  0  0  0  0  0  0  0
   -3.4256    1.2379    1.5562 H   0  0  0  0  0  0  0  0  0  0  0  0
   -1.4273    1.5553    0.6972 C   0  0  0  0  0  0  0  0  0  0  0  0
   -0.1322    0.9553    0.5336 C   0  0  2  0  0  3  0  0  0  0  0  0
    1.0188    1.3905   -0.3095 C   0  0  0  0  0  0  0  0  0  0  0  0
    2.1089    0.3073   -0.2137 C   0  0  2  0  0  0  0  0  0  0  0  0
   -2.9706    3.2266   -0.0004 C   0  0  0  0  0  0  0  0  0  0  0  0
   -2.9134    4.1456   -0.6103 H   0  0  0  0  0  0  0  0  0  0  0  0
   -3.3743    3.4796    1.0039 H   0  0  0  0  0  0  0  0  0  0  0  0
   -3.6413    2.4955   -0.5003 H   0  0  0  0  0  0  0  0  0  0  0  0
  1  2  1  0  0  0  0
  3 32  2  0  0  0  0
  4 30  1  0  0  0  0
  5 33  1  0  0  0  0
  6  5  1  0  0  0  0
  7  5  1  0  0  0  0
  8  5  1  0  0  0  0
  8  9  1  0  0  0  0
  8 11  1  0  0  0  0
 10  8  1  0  0  0  0
 11 13  1  0  0  0  0
 11 14  1  0  0  0  0
 12 11  1  0  0  0  0
 14 15  1  1  0  0  0
 14 16  1  0  0  0  0
 16 19  1  0  0  0  0
 16 18  1  0  0  0  0
 17 16  1  0  0  0  0
 19 20  1  0  0  0  0
 19 21  1  0  0  0  0
 22  1  1  6  0  0  0
 22 23  1  0  0  0  0
 22 19  1  0  0  0  0
 23 24  1  1  0  0  0
 24 26  1  0  0  0  0
 24 25  1  0  0  0  0
 26 27  1  0  0  0  0
 28 29  1  0  0  0  0
 28 26  1  0  0  0  0
 30 28  2  0  0  0  0
 31 32  1  6  0  0  0
 31 30  1  0  0  0  0
 31 23  1  0  0  0  0
 33 32  1  6  0  0  0
 33 14  1  0  0  0  0
 33 22  1  0  0  0  0
 34  4  1  0  0  0  0
 34 36  1  0  0  0  0
 35 34  1  0  0  0  0
 37 34  1  0  0  0  0
M  END
