24,39
 OpenBabel05122313053D

 47 49  0  0  0  0  0  0  0  0999 V2000
    1.2200   -1.9036    0.4570 C   0  0  0  0  0  0  0  0  0  0  0  0
    0.0078   -1.6764    1.1661 C   0  0  0  0  0  0  0  0  0  0  0  0
    0.0736   -1.1902    2.6005 C   0  0  0  0  0  0  0  0  0  0  0  0
    0.6608   -1.8937    3.2250 H   0  0  0  0  0  0  0  0  0  0  0  0
   -0.9182   -1.1029    3.0748 H   0  0  0  0  0  0  0  0  0  0  0  0
    0.5548   -0.1934    2.6859 H   0  0  0  0  0  0  0  0  0  0  0  0
   -1.2262   -1.8938    0.4952 C   0  0  0  0  0  0  0  0  0  0  0  0
   -1.2469   -2.4451   -0.8135 C   0  0  0  0  0  0  0  0  0  0  0  0
   -2.5429   -2.6824   -1.5468 C   0  0  0  0  0  0  0  0  0  0  0  0
   -2.3628   -3.1533   -2.5308 H   0  0  0  0  0  0  0  0  0  0  0  0
   -3.0930   -1.7349   -1.7256 H   0  0  0  0  0  0  0  0  0  0  0  0
   -3.2244   -3.3497   -0.9787 H   0  0  0  0  0  0  0  0  0  0  0  0
   -0.0292   -2.7452   -1.4413 C   0  0  0  0  0  0  0  0  0  0  0  0
   -0.0449   -3.1867   -2.4499 H   0  0  0  0  0  0  0  0  0  0  0  0
    1.2092   -2.4488   -0.8491 C   0  0  0  0  0  0  0  0  0  0  0  0
    2.4857   -2.6843   -1.6154 C   0  0  0  0  0  0  0  0  0  0  0  0
    3.0340   -1.7365   -1.7982 H   0  0  0  0  0  0  0  0  0  0  0  0
    2.2815   -3.1464   -2.5989 H   0  0  0  0  0  0  0  0  0  0  0  0
    3.1783   -3.3580   -1.0686 H   0  0  0  0  0  0  0  0  0  0  0  0
    2.5297   -1.4269    1.0329 C   0  0  0  0  0  0  0  0  0  0  0  0
    2.4923   -1.3389    2.1344 H   0  0  0  0  0  0  0  0  0  0  0  0
    3.3516   -2.1273    0.7930 H   0  0  0  0  0  0  0  0  0  0  0  0
    2.9371   -0.1099    0.4824 N   0  0  0  0  0  0  0  0  0  0  0  0
    2.1014    0.9026    0.0896 C   0  0  0  0  0  2  0  0  0  0  0  0
    2.9471    1.9106   -0.2811 N   0  0  0  0  0  0  0  0  0  0  0  0
    4.2748    1.5438   -0.1258 C   0  0  0  0  0  0  0  0  0  0  0  0
    5.1062    2.2094   -0.3777 H   0  0  0  0  0  0  0  0  0  0  0  0
    4.2676    0.2623    0.3599 C   0  0  0  0  0  0  0  0  0  0  0  0
    5.0922   -0.4068    0.6246 H   0  0  0  0  0  0  0  0  0  0  0  0
    2.5211    3.2079   -0.7883 C   0  0  0  0  0  0  0  0  0  0  0  0
    2.8890    3.3594   -1.8218 H   0  0  0  0  0  0  0  0  0  0  0  0
    2.9051    4.0198   -0.1406 H   0  0  0  0  0  0  0  0  0  0  0  0
    1.4163    3.2325   -0.7876 H   0  0  0  0  0  0  0  0  0  0  0  0
   -2.5146    3.2060   -0.8135 C   0  0  0  0  0  0  0  0  0  0  0  0
   -1.4099    3.2325   -0.8052 H   0  0  0  0  0  0  0  0  0  0  0  0
   -2.9046    4.0279   -0.1823 H   0  0  0  0  0  0  0  0  0  0  0  0
   -2.8752    3.3397   -1.8521 H   0  0  0  0  0  0  0  0  0  0  0  0
   -2.9425    1.9169   -0.2876 N   0  0  0  0  0  0  0  0  0  0  0  0
   -2.0981    0.9132    0.0977 C   0  0  0  0  0  2  0  0  0  0  0  0
   -2.9348   -0.0927    0.5041 N   0  0  0  0  0  0  0  0  0  0  0  0
   -4.2649    0.2791    0.3758 C   0  0  0  0  0  0  0  0  0  0  0  0
   -5.0905   -0.3852    0.6498 H   0  0  0  0  0  0  0  0  0  0  0  0
   -4.2706    1.5538   -0.1276 C   0  0  0  0  0  0  0  0  0  0  0  0
   -5.1012    2.2170   -0.3883 H   0  0  0  0  0  0  0  0  0  0  0  0
   -2.5291   -1.4020    1.0736 C   0  0  0  0  0  0  0  0  0  0  0  0
   -3.3545   -2.1033    0.8503 H   0  0  0  0  0  0  0  0  0  0  0  0
   -2.4903   -1.2953    2.1731 H   0  0  0  0  0  0  0  0  0  0  0  0
  1 20  1  0  0  0  0
  1  2  1  0  0  0  0
  2  3  1  0  0  0  0
  3  6  1  0  0  0  0
  3  5  1  0  0  0  0
  3  4  1  0  0  0  0
  7 45  1  0  0  0  0
  7  2  2  0  0  0  0
  8  7  1  0  0  0  0
  9 12  1  0  0  0  0
  9  8  1  0  0  0  0
 10  9  1  0  0  0  0
 11  9  1  0  0  0  0
 13 15  1  0  0  0  0
 13  8  2  0  0  0  0
 14 13  1  0  0  0  0
 15  1  2  0  0  0  0
 16 19  1  0  0  0  0
 16 15  1  0  0  0  0
 17 16  1  0  0  0  0
 18 16  1  0  0  0  0
 20 21  1  0  0  0  0
 22 20  1  0  0  0  0
 23 20  1  0  0  0  0
 24 23  1  0  0  0  0
 25 26  1  0  0  0  0
 25 24  1  0  0  0  0
 26 28  2  0  0  0  0
 27 26  1  0  0  0  0
 28 23  1  0  0  0  0
 28 29  1  0  0  0  0
 30 33  1  0  0  0  0
 30 25  1  0  0  0  0
 30 32  1  0  0  0  0
 31 30  1  0  0  0  0
 34 35  1  0  0  0  0
 34 38  1  0  0  0  0
 34 36  1  0  0  0  0
 37 34  1  0  0  0  0
 38 43  1  0  0  0  0
 38 39  1  0  0  0  0
 39 40  1  0  0  0  0
 40 45  1  0  0  0  0
 41 40  1  0  0  0  0
 41 42  1  0  0  0  0
 43 41  2  0  0  0  0
 44 43  1  0  0  0  0
 45 47  1  0  0  0  0
 46 45  1  0  0  0  0
M  END
