4,12
 OpenBabel05122313053D

 36 40  0  0  0  0  0  0  0  0999 V2000
    5.4092   -0.2301   -0.0270 O   0  0  0  0  0  0  0  0  0  0  0  0
    2.5602   -1.5586   -0.0694 N   0  0  0  0  0  0  0  0  0  0  0  0
    1.0202   -3.1458   -0.0804 N   0  0  0  0  0  0  0  0  0  0  0  0
    1.1889   -1.7913   -0.0953 C   0  0  0  0  0  2  0  0  0  0  0  0
    2.2599   -3.7837   -0.0441 C   0  0  0  0  0  0  0  0  0  0  0  0
    2.5779   -5.1472   -0.0180 C   0  0  0  0  0  0  0  0  0  0  0  0
    3.9382   -5.4877    0.0151 C   0  0  0  0  0  0  0  0  0  0  0  0
    4.9342   -4.4890    0.0215 C   0  0  0  0  0  0  0  0  0  0  0  0
    4.6166   -3.1222   -0.0044 C   0  0  0  0  0  0  0  0  0  0  0  0
    3.2578   -2.7722   -0.0374 C   0  0  0  0  0  0  0  0  0  0  0  0
    2.9134   -0.1815   -0.0875 C   0  0  0  0  0  0  0  0  0  0  0  0
    1.7746    0.6735   -0.1303 C   0  0  0  0  0  3  0  0  0  0  0  0
    1.9448    2.0754   -0.1655 C   0  0  0  0  0  0  0  0  0  0  0  0
    3.2188    2.6586   -0.1516 C   0  0  0  0  0  0  0  0  0  0  0  0
    4.3460    1.8203   -0.1020 C   0  0  0  0  0  0  0  0  0  0  0  0
    5.7807    2.0460   -0.0734 C   0  0  0  0  0  0  0  0  0  0  0  0
    6.6184    3.1771   -0.0809 C   0  0  0  0  0  0  0  0  0  0  0  0
    8.0074    2.9848   -0.0429 C   0  0  0  0  0  0  0  0  0  0  0  0
    8.5647    1.6884    0.0022 C   0  0  0  0  0  0  0  0  0  0  0  0
    7.7489    0.5437    0.0106 C   0  0  0  0  0  0  0  0  0  0  0  0
    6.3714    0.7587   -0.0279 C   0  0  0  0  0  0  0  0  0  0  0  0
    4.1837    0.4067   -0.0717 C   0  0  0  0  0  0  0  0  0  0  0  0
   -0.2495   -3.8516   -0.1013 C   0  0  0  0  0  0  0  0  0  0  0  0
    1.7924   -5.9156   -0.0232 H   0  0  0  0  0  0  0  0  0  0  0  0
    4.2301   -6.5480    0.0363 H   0  0  0  0  0  0  0  0  0  0  0  0
    5.9933   -4.7852    0.0477 H   0  0  0  0  0  0  0  0  0  0  0  0
    5.3933   -2.3509    0.0008 H   0  0  0  0  0  0  0  0  0  0  0  0
    1.0447    2.7058   -0.2120 H   0  0  0  0  0  0  0  0  0  0  0  0
    3.3373    3.7521   -0.1807 H   0  0  0  0  0  0  0  0  0  0  0  0
    6.1910    4.1902   -0.1161 H   0  0  0  0  0  0  0  0  0  0  0  0
    8.6764    3.8582   -0.0483 H   0  0  0  0  0  0  0  0  0  0  0  0
    9.6580    1.5686    0.0313 H   0  0  0  0  0  0  0  0  0  0  0  0
    8.1691   -0.4712    0.0454 H   0  0  0  0  0  0  0  0  0  0  0  0
   -1.0714   -3.1143   -0.1561 H   0  0  0  0  0  0  0  0  0  0  0  0
   -0.3578   -4.4619    0.8185 H   0  0  0  0  0  0  0  0  0  0  0  0
   -0.2910   -4.5249   -0.9810 H   0  0  0  0  0  0  0  0  0  0  0  0
  2 10  1  0  0  0  0
  3  5  1  0  0  0  0
  4  3  1  0  0  0  0
  4  2  1  0  0  0  0
  5 10  2  0  0  0  0
  5  6  1  0  0  0  0
  6  7  2  0  0  0  0
  7  8  1  0  0  0  0
  7 25  1  0  0  0  0
  8 26  1  0  0  0  0
  9 27  1  0  0  0  0
  9  8  2  0  0  0  0
 10  9  1  0  0  0  0
 11 22  1  0  0  0  0
 11  2  1  0  0  0  0
 12 11  2  0  0  0  0
 13 14  2  0  0  0  0
 13 12  1  0  0  0  0
 14 15  1  0  0  0  0
 15 16  1  0  0  0  0
 15 22  2  0  0  0  0
 16 21  1  0  0  0  0
 17 16  2  0  0  0  0
 17 18  1  0  0  0  0
 18 19  2  0  0  0  0
 19 20  1  0  0  0  0
 19 32  1  0  0  0  0
 20 33  1  0  0  0  0
 21  1  1  0  0  0  0
 21 20  2  0  0  0  0
 22  1  1  0  0  0  0
 23  3  1  0  0  0  0
 23 35  1  0  0  0  0
 24  6  1  0  0  0  0
 28 13  1  0  0  0  0
 29 14  1  0  0  0  0
 30 17  1  0  0  0  0
 31 18  1  0  0  0  0
 34 23  1  0  0  0  0
 36 23  1  0  0  0  0
M  END
