36,54
 OpenBabel05122313053D

 81 87  0  0  1  0  0  0  0  0999 V2000
   -3.1197    3.1484   -0.4770 O   0  0  0  0  0  0  0  0  0  0  0  0
   -4.4931    1.5174    0.3937 O   0  0  0  0  0  0  0  0  0  0  0  0
   -2.4095   -0.7515    0.5176 N   0  0  0  0  0  0  0  0  0  0  0  0
   -1.0490   -1.9387   -0.7315 N   0  0  0  0  0  0  0  0  0  0  0  0
    0.1536    2.5063    0.0134 N   0  0  0  0  0  0  0  0  0  0  0  0
    1.9773    1.5009   -0.6750 N   0  0  0  0  0  0  0  0  0  0  0  0
   -5.4602    3.6262   -0.3429 C   0  0  0  0  0  0  0  0  0  0  0  0
   -5.3651    4.4520   -1.0743 H   0  0  0  0  0  0  0  0  0  0  0  0
   -5.3139    4.0338    0.6753 H   0  0  0  0  0  0  0  0  0  0  0  0
   -6.4781    3.1985   -0.4179 H   0  0  0  0  0  0  0  0  0  0  0  0
   -4.5703    1.8899   -1.9875 C   0  0  0  0  0  0  0  0  0  0  0  0
   -4.5394    2.6513   -2.7908 H   0  0  0  0  0  0  0  0  0  0  0  0
   -5.5332    1.3465   -2.0436 H   0  0  0  0  0  0  0  0  0  0  0  0
   -3.7581    1.1563   -2.1543 H   0  0  0  0  0  0  0  0  0  0  0  0
   -4.4169    2.5533   -0.6200 C   0  0  0  0  0  0  0  0  0  0  0  0
   -2.3014    2.1660    0.1461 C   0  0  1  0  0  0  0  0  0  0  0  0
   -1.9810    1.4008   -0.5983 H   0  0  0  0  0  0  0  0  0  0  0  0
   -1.0512    2.7695    0.7794 C   0  0  0  0  0  0  0  0  0  0  0  0
   -1.1817    3.8629    0.8902 H   0  0  0  0  0  0  0  0  0  0  0  0
   -0.8808    2.3418    1.7879 H   0  0  0  0  0  0  0  0  0  0  0  0
   -3.2763    1.5155    1.1286 C   0  0  2  0  0  0  0  0  0  0  0  0
   -3.3686    2.1533    2.0434 H   0  0  0  0  0  0  0  0  0  0  0  0
   -2.8833    0.1146    1.5859 C   0  0  0  0  0  0  0  0  0  0  0  0
   -2.0634    0.1736    2.3310 H   0  0  0  0  0  0  0  0  0  0  0  0
   -3.7436   -0.3747    2.0836 H   0  0  0  0  0  0  0  0  0  0  0  0
    0.7529    3.3811   -0.8889 C   0  0  0  0  0  0  0  0  0  0  0  0
    0.3652    4.6406   -1.3646 C   0  0  0  0  0  0  0  0  0  0  0  0
   -0.5815    5.1021   -1.0508 H   0  0  0  0  0  0  0  0  0  0  0  0
    1.2238    5.2674   -2.2792 C   0  0  0  0  0  0  0  0  0  0  0  0
    0.9559    6.2562   -2.6796 H   0  0  0  0  0  0  0  0  0  0  0  0
    2.4218    4.6495   -2.6990 C   0  0  0  0  0  0  0  0  0  0  0  0
    3.0746    5.1702   -3.4148 H   0  0  0  0  0  0  0  0  0  0  0  0
    2.8002    3.3815   -2.2320 C   0  0  0  0  0  0  0  0  0  0  0  0
    3.7325    2.9139   -2.5721 H   0  0  0  0  0  0  0  0  0  0  0  0
    1.9430    2.7433   -1.3202 C   0  0  0  0  0  0  0  0  0  0  0  0
    0.8790    1.3506    0.1320 C   0  0  0  0  0  2  0  0  0  0  0  0
    3.1026    0.5538   -0.6654 C   0  0  0  0  0  0  0  0  0  0  0  0
    2.7530   -0.2592    0.0085 H   0  0  0  0  0  0  0  0  0  0  0  0
    3.3956   -0.0497   -2.0441 C   0  0  0  0  0  0  0  0  0  0  0  0
    2.4697   -0.4966   -2.4605 H   0  0  0  0  0  0  0  0  0  0  0  0
    3.7092    0.7443   -2.7550 H   0  0  0  0  0  0  0  0  0  0  0  0
    4.5121   -1.0977   -1.9290 C   0  0  0  0  0  0  0  0  0  0  0  0
    4.1490   -1.9445   -1.3039 H   0  0  0  0  0  0  0  0  0  0  0  0
    4.7378   -1.5223   -2.9293 H   0  0  0  0  0  0  0  0  0  0  0  0
    5.7763   -0.5113   -1.2866 C   0  0  0  0  0  0  0  0  0  0  0  0
    6.2013    0.2651   -1.9625 H   0  0  0  0  0  0  0  0  0  0  0  0
    6.5537   -1.2969   -1.1859 H   0  0  0  0  0  0  0  0  0  0  0  0
    5.4657    0.1180    0.0774 C   0  0  0  0  0  0  0  0  0  0  0  0
    6.3775    0.5742    0.5146 H   0  0  0  0  0  0  0  0  0  0  0  0
    5.1420   -0.6732    0.7894 H   0  0  0  0  0  0  0  0  0  0  0  0
    4.3551    1.1697   -0.0227 C   0  0  0  0  0  0  0  0  0  0  0  0
    4.0777    1.5467    0.9823 H   0  0  0  0  0  0  0  0  0  0  0  0
    4.7063    2.0330   -0.6286 H   0  0  0  0  0  0  0  0  0  0  0  0
   -1.0824   -0.9913    0.2565 C   0  0  0  0  0  2  0  0  0  0  0  0
   -3.2230   -1.5411   -0.2911 C   0  0  0  0  0  0  0  0  0  0  0  0
   -4.6178   -1.6388   -0.3905 C   0  0  0  0  0  0  0  0  0  0  0  0
   -5.2703   -0.9786    0.1955 H   0  0  0  0  0  0  0  0  0  0  0  0
   -5.1267   -2.5813   -1.2944 C   0  0  0  0  0  0  0  0  0  0  0  0
   -6.2158   -2.6900   -1.4040 H   0  0  0  0  0  0  0  0  0  0  0  0
   -4.2666   -3.3926   -2.0660 C   0  0  0  0  0  0  0  0  0  0  0  0
   -4.6974   -4.1302   -2.7589 H   0  0  0  0  0  0  0  0  0  0  0  0
   -2.8711   -3.2814   -1.9749 C   0  0  0  0  0  0  0  0  0  0  0  0
   -2.2217   -3.9273   -2.5780 H   0  0  0  0  0  0  0  0  0  0  0  0
   -2.3504   -2.3300   -1.0804 C   0  0  0  0  0  0  0  0  0  0  0  0
    0.1983   -2.5788   -1.1768 C   0  0  0  0  0  0  0  0  0  0  0  0
    0.9957   -1.9579   -0.7124 H   0  0  0  0  0  0  0  0  0  0  0  0
    0.3174   -3.9977   -0.5970 C   0  0  0  0  0  0  0  0  0  0  0  0
   -0.5500   -4.6084   -0.9301 H   0  0  0  0  0  0  0  0  0  0  0  0
    0.2625   -3.9234    0.5092 H   0  0  0  0  0  0  0  0  0  0  0  0
    1.6185   -4.6645   -1.0544 C   0  0  0  0  0  0  0  0  0  0  0  0
    2.4835   -4.1107   -0.6241 H   0  0  0  0  0  0  0  0  0  0  0  0
    1.6773   -5.6938   -0.6450 H   0  0  0  0  0  0  0  0  0  0  0  0
    1.7330   -4.6769   -2.5837 C   0  0  0  0  0  0  0  0  0  0  0  0
    0.9115   -5.2977   -3.0084 H   0  0  0  0  0  0  0  0  0  0  0  0
    2.6825   -5.1557   -2.9017 H   0  0  0  0  0  0  0  0  0  0  0  0
    1.6453   -3.2543   -3.1502 C   0  0  0  0  0  0  0  0  0  0  0  0
    2.5302   -2.6809   -2.8044 H   0  0  0  0  0  0  0  0  0  0  0  0
    1.6981   -3.2656   -4.2587 H   0  0  0  0  0  0  0  0  0  0  0  0
    0.3647   -2.5341   -2.7044 C   0  0  0  0  0  0  0  0  0  0  0  0
    0.3640   -1.4761   -3.0433 H   0  0  0  0  0  0  0  0  0  0  0  0
   -0.5056   -3.0156   -3.1952 H   0  0  0  0  0  0  0  0  0  0  0  0
  1 16  1  0  0  0  0
  2 21  1  0  0  0  0
  3 23  1  0  0  0  0
  4 54  1  0  0  0  0
  5 36  1  0  0  0  0
  5 18  1  0  0  0  0
  6 37  1  0  0  0  0
  6 36  1  0  0  0  0
  7  9  1  0  0  0  0
  8  7  1  0  0  0  0
 10  7  1  0  0  0  0
 11 15  1  0  0  0  0
 12 11  1  0  0  0  0
 13 11  1  0  0  0  0
 14 11  1  0  0  0  0
 15  1  1  0  0  0  0
 15  7  1  0  0  0  0
 15  2  1  0  0  0  0
 16 17  1  6  0  0  0
 16 18  1  0  0  0  0
 16 21  1  0  0  0  0
 18 19  1  0  0  0  0
 18 20  1  0  0  0  0
 21 23  1  0  0  0  0
 21 22  1  1  0  0  0
 23 25  1  0  0  0  0
 23 24  1  0  0  0  0
 26  5  1  0  0  0  0
 27 28  1  0  0  0  0
 27 26  2  0  0  0  0
 29 27  1  0  0  0  0
 30 29  1  0  0  0  0
 31 29  2  0  0  0  0
 31 33  1  0  0  0  0
 32 31  1  0  0  0  0
 33 35  2  0  0  0  0
 34 33  1  0  0  0  0
 35 26  1  0  0  0  0
 35  6  1  0  0  0  0
 37 51  1  0  0  0  0
 37 38  1  0  0  0  0
 39 42  1  0  0  0  0
 39 37  1  0  0  0  0
 40 39  1  0  0  0  0
 41 39  1  0  0  0  0
 42 43  1  0  0  0  0
 42 45  1  0  0  0  0
 44 42  1  0  0  0  0
 45 47  1  0  0  0  0
 45 48  1  0  0  0  0
 46 45  1  0  0  0  0
 48 49  1  0  0  0  0
 48 50  1  0  0  0  0
 51 48  1  0  0  0  0
 51 52  1  0  0  0  0
 53 51  1  0  0  0  0
 54  3  1  0  0  0  0
 55  3  1  0  0  0  0
 56 55  1  0  0  0  0
 56 57  1  0  0  0  0
 58 56  2  0  0  0  0
 59 58  1  0  0  0  0
 60 62  2  0  0  0  0
 60 58  1  0  0  0  0
 61 60  1  0  0  0  0
 62 64  1  0  0  0  0
 63 62  1  0  0  0  0
 64  4  1  0  0  0  0
 64 55  2  0  0  0  0
 65  4  1  0  0  0  0
 65 66  1  0  0  0  0
 65 67  1  0  0  0  0
 67 69  1  0  0  0  0
 68 67  1  0  0  0  0
 70 72  1  0  0  0  0
 70 71  1  0  0  0  0
 70 67  1  0  0  0  0
 73 70  1  0  0  0  0
 74 73  1  0  0  0  0
 75 73  1  0  0  0  0
 76 77  1  0  0  0  0
 76 79  1  0  0  0  0
 76 73  1  0  0  0  0
 78 76  1  0  0  0  0
 79 65  1  0  0  0  0
 80 79  1  0  0  0  0
 81 79  1  0  0  0  0
M  END
