4,6
 OpenBabel05122313053D

 43 45  0  0  1  0  0  0  0  0999 V2000
   -0.7792   -2.8817    0.1285 O   0  0  0  0  0  0  0  0  0  0  0  0
    1.2577   -0.9604    0.6536 O   0  0  0  0  0  0  0  0  0  0  0  0
   -0.7539   -0.5572   -0.5144 C   0  0  2  0  0  3  0  0  0  0  0  0
   -1.4599    0.1221   -1.5414 C   0  0  0  0  0  3  0  0  0  0  0  0
   -0.8236    1.1038   -2.3586 C   0  0  0  0  0  3  0  0  0  0  0  0
    0.5305    1.4342   -2.1144 C   0  0  0  0  0  3  0  0  0  0  0  0
    1.2809    0.7490   -1.1104 C   0  0  0  0  0  0  0  0  0  0  0  0
    0.6396   -0.2464   -0.3261 C   0  0  0  0  0  0  0  0  0  0  0  0
   -1.3762   -1.6197    0.4000 C   0  0  1  0  0  0  0  0  0  0  0  0
   -2.8763   -1.7124    0.2311 C   0  0  0  0  0  0  0  0  0  0  0  0
   -3.4462   -2.6982   -0.5944 C   0  0  0  0  0  0  0  0  0  0  0  0
   -4.8357   -2.7361   -0.7903 C   0  0  0  0  0  0  0  0  0  0  0  0
   -5.6635   -1.7864   -0.1706 C   0  0  0  0  0  0  0  0  0  0  0  0
   -5.0977   -0.8038    0.6586 C   0  0  0  0  0  0  0  0  0  0  0  0
   -3.7111   -0.7713    0.8635 C   0  0  0  0  0  0  0  0  0  0  0  0
    2.4643   -0.4361    1.2583 C   0  0  1  0  0  0  0  0  0  0  0  0
    2.5396   -1.0552    2.6496 C   0  0  0  0  0  0  0  0  0  0  0  0
    3.6888   -0.7313    0.4101 C   0  0  0  0  0  0  0  0  0  0  0  0
    3.7516   -1.8787   -0.4023 C   0  0  0  0  0  0  0  0  0  0  0  0
    4.9081   -2.1590   -1.1452 C   0  0  0  0  0  0  0  0  0  0  0  0
    6.0153   -1.2984   -1.0804 C   0  0  0  0  0  0  0  0  0  0  0  0
    5.9591   -0.1516   -0.2724 C   0  0  0  0  0  0  0  0  0  0  0  0
    4.8003    0.1313    0.4661 C   0  0  0  0  0  0  0  0  0  0  0  0
    0.1556   -2.7833    0.3944 H   0  0  0  0  0  0  0  0  0  0  0  0
   -2.5301   -0.0913   -1.6700 H   0  0  0  0  0  0  0  0  0  0  0  0
   -1.4020    1.6524   -3.1133 H   0  0  0  0  0  0  0  0  0  0  0  0
    1.0150    2.2348   -2.6906 H   0  0  0  0  0  0  0  0  0  0  0  0
    2.3340    1.0022   -0.9418 H   0  0  0  0  0  0  0  0  0  0  0  0
   -1.1628   -1.3044    1.4475 H   0  0  0  0  0  0  0  0  0  0  0  0
   -2.7849   -3.4366   -1.0694 H   0  0  0  0  0  0  0  0  0  0  0  0
   -5.2756   -3.5140   -1.4331 H   0  0  0  0  0  0  0  0  0  0  0  0
   -6.7524   -1.8148   -0.3288 H   0  0  0  0  0  0  0  0  0  0  0  0
   -5.7387   -0.0575    1.1516 H   0  0  0  0  0  0  0  0  0  0  0  0
   -3.2683   -0.0038    1.5166 H   0  0  0  0  0  0  0  0  0  0  0  0
    2.3368    0.6651    1.3551 H   0  0  0  0  0  0  0  0  0  0  0  0
    3.4477   -0.6971    3.1712 H   0  0  0  0  0  0  0  0  0  0  0  0
    2.5968   -2.1596    2.5784 H   0  0  0  0  0  0  0  0  0  0  0  0
    1.6486   -0.7676    3.2406 H   0  0  0  0  0  0  0  0  0  0  0  0
    2.8795   -2.5471   -0.4623 H   0  0  0  0  0  0  0  0  0  0  0  0
    4.9435   -3.0561   -1.7817 H   0  0  0  0  0  0  0  0  0  0  0  0
    6.9214   -1.5183   -1.6648 H   0  0  0  0  0  0  0  0  0  0  0  0
    6.8204    0.5317   -0.2219 H   0  0  0  0  0  0  0  0  0  0  0  0
    4.7552    1.0372    1.0923 H   0  0  0  0  0  0  0  0  0  0  0  0
  1 24  1  0  0  0  0
  1  9  1  0  0  0  0
  2 16  1  0  0  0  0
  3  8  1  0  0  0  0
  3  9  1  6  0  0  0
  4  3  1  0  0  0  0
  5  6  1  0  0  0  0
  5  4  1  0  0  0  0
  6  7  1  0  0  0  0
  7 28  1  0  0  0  0
  7  8  2  0  0  0  0
  8  2  1  0  0  0  0
  9 29  1  1  0  0  0
 10  9  1  0  0  0  0
 10 15  1  0  0  0  0
 11 10  2  0  0  0  0
 12 11  1  0  0  0  0
 12 13  2  0  0  0  0
 13 14  1  0  0  0  0
 14 15  2  0  0  0  0
 14 33  1  0  0  0  0
 15 34  1  0  0  0  0
 16 35  1  1  0  0  0
 16 17  1  0  0  0  0
 17 36  1  0  0  0  0
 17 38  1  0  0  0  0
 18 23  1  0  0  0  0
 18 16  1  0  0  0  0
 19 18  2  0  0  0  0
 20 21  2  0  0  0  0
 20 19  1  0  0  0  0
 21 22  1  0  0  0  0
 22 42  1  0  0  0  0
 22 23  2  0  0  0  0
 23 43  1  0  0  0  0
 25  4  1  0  0  0  0
 26  5  1  0  0  0  0
 27  6  1  0  0  0  0
 30 11  1  0  0  0  0
 31 12  1  0  0  0  0
 32 13  1  0  0  0  0
 37 17  1  0  0  0  0
 39 19  1  0  0  0  0
 40 20  1  0  0  0  0
 41 21  1  0  0  0  0
M  END
