9,18
 OpenBabel05122313053D

 29 30  0  0  1  0  0  0  0  0999 V2000
   -4.0252   -0.4313   -1.2388 S   0  0  0  0  0  0  0  0  0  0  0  0
   -4.6782   -0.6788    1.6699 S   0  0  0  0  0  0  0  0  0  0  0  0
   -1.4216   -0.5879   -1.5249 O   0  0  0  0  0  0  0  0  0  0  0  0
    2.9753    0.7119    2.3303 O   0  0  0  0  0  0  0  0  0  0  0  0
    3.1941   -0.9498    0.6235 N   0  0  0  0  0  0  0  0  0  0  0  0
   -2.1088   -0.7493    0.7251 C   0  0  0  0  0  0  0  0  0  0  0  0
   -1.0992   -0.6654   -0.3208 C   0  0  0  0  0  0  0  0  0  0  0  0
    0.3243   -0.6703    0.1092 C   0  0  0  0  0  3  0  0  0  0  0  0
    1.3717   -0.7355   -0.9018 C   0  0  0  0  0  3  0  0  0  0  0  0
   -3.4433   -0.6402    0.4132 C   0  0  0  0  0  0  0  0  0  0  0  0
   -5.7820   -0.1290   -0.7292 C   0  0  0  0  0  0  0  0  0  0  0  0
   -6.0785   -0.9441    0.5153 C   0  0  0  0  0  0  0  0  0  0  0  0
    2.6331   -1.3665   -0.5418 C   0  0  2  0  0  3  0  0  0  0  0  0
    3.3026   -2.3815   -1.2630 C   0  0  0  0  0  0  0  0  0  0  0  0
    4.4809   -2.9302   -0.7501 C   0  0  0  0  0  0  0  0  0  0  0  0
    4.9924   -2.4915    0.4897 C   0  0  0  0  0  0  0  0  0  0  0  0
    4.3064   -1.4789    1.1570 C   0  0  0  0  0  0  0  0  0  0  0  0
    2.5151    0.4462    1.2608 C   0  0  0  0  0  3  0  0  0  0  0  0
   -1.8052   -0.8967    1.7719 H   0  0  0  0  0  0  0  0  0  0  0  0
    0.5034   -1.1371    1.0932 H   0  0  0  0  0  0  0  0  0  0  0  0
    1.0348   -0.8717   -1.9417 H   0  0  0  0  0  0  0  0  0  0  0  0
   -6.4211   -0.4287   -1.5841 H   0  0  0  0  0  0  0  0  0  0  0  0
   -5.9152    0.9566   -0.5426 H   0  0  0  0  0  0  0  0  0  0  0  0
   -6.9998   -0.6107    1.0337 H   0  0  0  0  0  0  0  0  0  0  0  0
   -6.1600   -2.0273    0.2893 H   0  0  0  0  0  0  0  0  0  0  0  0
    2.8706   -2.7338   -2.2099 H   0  0  0  0  0  0  0  0  0  0  0  0
    5.0074   -3.7161   -1.3127 H   0  0  0  0  0  0  0  0  0  0  0  0
    5.9162   -2.9093    0.9124 H   0  0  0  0  0  0  0  0  0  0  0  0
    4.6204   -1.0188    2.1093 H   0  0  0  0  0  0  0  0  0  0  0  0
  1 11  1  0  0  0  0
  1 10  1  0  0  0  0
  3  7  2  0  0  0  0
  5 17  1  0  0  0  0
  5 18  1  0  0  0  0
  6 19  1  0  0  0  0
  7  8  1  0  0  0  0
  7  6  1  0  0  0  0
  8 20  1  0  0  0  0
  9  8  1  0  0  0  0
 10  6  2  0  0  0  0
 10  2  1  0  0  0  0
 11 23  1  0  0  0  0
 11 12  1  0  0  0  0
 12 24  1  0  0  0  0
 12  2  1  0  0  0  0
 13  9  1  1  0  0  0
 13  5  1  0  0  0  0
 14 15  2  0  0  0  0
 14 13  1  0  0  0  0
 15 16  1  0  0  0  0
 16 28  1  0  0  0  0
 16 17  2  0  0  0  0
 17 29  1  0  0  0  0
 18  4  2  0  0  0  0
 21  9  1  0  0  0  0
 22 11  1  0  0  0  0
 25 12  1  0  0  0  0
 26 14  1  0  0  0  0
 27 15  1  0  0  0  0
M  END
