4,14
 OpenBabel05122313053D

 39 42  0  0  0  0  0  0  0  0999 V2000
    0.4626    2.9842   -0.2868 Si  0  0  0  0  0  0  0  0  0  0  0  0
    1.6200    1.6697    0.4289 C   0  0  0  0  0  0  0  0  0  0  0  0
    1.5616    1.2334    1.7894 C   0  0  0  0  0  0  0  0  0  0  0  0
    2.2307   -0.0145    1.9489 C   0  0  0  0  0  3  0  0  0  0  0  0
    2.8400   -0.3403    0.6856 C   0  0  0  0  0  0  0  0  0  0  0  0
    2.4401    0.6899   -0.2645 C   0  0  0  0  0  0  0  0  0  0  0  0
    3.6678   -1.4200    0.2661 C   0  0  0  0  0  0  0  0  0  0  0  0
    4.0641   -1.4885   -1.0630 C   0  0  0  0  0  0  0  0  0  0  0  0
    3.6411   -0.5079   -2.0064 C   0  0  0  0  0  0  0  0  0  0  0  0
    2.8391    0.5626   -1.6270 C   0  0  0  0  0  0  0  0  0  0  0  0
    0.0512    4.2696    1.0343 C   0  0  0  0  0  0  0  0  0  0  0  0
    1.1755    3.8215   -1.8246 C   0  0  0  0  0  0  0  0  0  0  0  0
   -1.0292    1.9134   -0.6686 C   0  0  0  0  0  0  0  0  0  0  0  0
   -0.8721    0.5900   -1.3191 C   0  0  0  0  0  3  0  0  0  0  0  0
   -2.2081   -0.0192   -1.3314 C   0  0  0  0  0  0  0  0  0  0  0  0
   -3.0979    0.8619   -0.6143 C   0  0  0  0  0  0  0  0  0  0  0  0
   -2.3457    2.0279   -0.2186 C   0  0  0  0  0  0  0  0  0  0  0  0
   -2.6960   -1.2358   -1.8540 C   0  0  0  0  0  0  0  0  0  0  0  0
   -4.0398   -1.5748   -1.6532 C   0  0  0  0  0  0  0  0  0  0  0  0
   -4.9083   -0.7203   -0.9319 C   0  0  0  0  0  0  0  0  0  0  0  0
   -4.4461    0.4918   -0.4084 C   0  0  0  0  0  0  0  0  0  0  0  0
    1.0244    1.7557    2.5925 H   0  0  0  0  0  0  0  0  0  0  0  0
    2.3618   -0.5646    2.8898 H   0  0  0  0  0  0  0  0  0  0  0  0
    3.9922   -2.1806    0.9924 H   0  0  0  0  0  0  0  0  0  0  0  0
    4.7127   -2.3120   -1.3980 H   0  0  0  0  0  0  0  0  0  0  0  0
    3.9669   -0.5961   -3.0539 H   0  0  0  0  0  0  0  0  0  0  0  0
    2.5389    1.3227   -2.3621 H   0  0  0  0  0  0  0  0  0  0  0  0
   -0.7037    4.9855    0.6491 H   0  0  0  0  0  0  0  0  0  0  0  0
    0.9511    4.8462    1.3292 H   0  0  0  0  0  0  0  0  0  0  0  0
   -0.3715    3.7962    1.9432 H   0  0  0  0  0  0  0  0  0  0  0  0
    0.5145    4.6561   -2.1362 H   0  0  0  0  0  0  0  0  0  0  0  0
    1.2407    3.1178   -2.6782 H   0  0  0  0  0  0  0  0  0  0  0  0
    2.1873    4.2327   -1.6319 H   0  0  0  0  0  0  0  0  0  0  0  0
   -0.1737    0.4519   -2.1683 H   0  0  0  0  0  0  0  0  0  0  0  0
   -2.7489    2.8613    0.3747 H   0  0  0  0  0  0  0  0  0  0  0  0
   -2.0304   -1.9125   -2.4110 H   0  0  0  0  0  0  0  0  0  0  0  0
   -4.4287   -2.5198   -2.0632 H   0  0  0  0  0  0  0  0  0  0  0  0
   -5.9592   -1.0146   -0.7863 H   0  0  0  0  0  0  0  0  0  0  0  0
   -5.1258    1.1567    0.1478 H   0  0  0  0  0  0  0  0  0  0  0  0
  1  2  1  0  0  0  0
  1 11  1  0  0  0  0
  2  3  2  0  0  0  0
  3  4  1  0  0  0  0
  3 22  1  0  0  0  0
  4 23  1  0  0  0  0
  5  4  1  0  0  0  0
  6  2  1  0  0  0  0
  6  5  2  0  0  0  0
  7  5  1  0  0  0  0
  7 24  1  0  0  0  0
  8  7  2  0  0  0  0
  9 10  2  0  0  0  0
  9  8  1  0  0  0  0
 10  6  1  0  0  0  0
 11 29  1  0  0  0  0
 11 30  1  0  0  0  0
 12 33  1  0  0  0  0
 12  1  1  0  0  0  0
 13  1  1  0  0  0  0
 13 17  2  0  0  0  0
 14 13  1  0  0  0  0
 15 14  1  0  0  0  0
 15 16  1  0  0  0  0
 16 21  2  0  0  0  0
 16 17  1  0  0  0  0
 17 35  1  0  0  0  0
 18 19  1  0  0  0  0
 18 15  2  0  0  0  0
 19 20  2  0  0  0  0
 20 38  1  0  0  0  0
 20 21  1  0  0  0  0
 21 39  1  0  0  0  0
 25  8  1  0  0  0  0
 26  9  1  0  0  0  0
 27 10  1  0  0  0  0
 28 11  1  0  0  0  0
 31 12  1  0  0  0  0
 32 12  1  0  0  0  0
 34 14  1  0  0  0  0
 36 18  1  0  0  0  0
 37 19  1  0  0  0  0
M  END
