1,2
 OpenBabel05122313053D

 26 26  0  0  1  0  0  0  0  0999 V2000
   -1.4513    0.4081    0.1645 C   0  0  0  0  0  2  0  0  0  0  0  0
    0.1654    2.2124   -0.6573 C   0  0  0  0  0  3  0  0  0  0  0  0
    1.0750    2.8153   -0.4572 H   0  0  0  0  0  0  0  0  0  0  0  0
   -0.0614    2.2726   -1.7437 H   0  0  0  0  0  0  0  0  0  0  0  0
   -3.6977    0.3086    0.4522 C   0  0  0  0  0  0  0  0  0  0  0  0
   -4.6794   -0.1617    0.5560 H   0  0  0  0  0  0  0  0  0  0  0  0
   -3.3425    1.6357    0.4453 C   0  0  0  0  0  0  0  0  0  0  0  0
   -3.9545    2.5352    0.5531 H   0  0  0  0  0  0  0  0  0  0  0  0
   -1.9709    1.6701    0.2651 N   0  0  0  0  0  0  0  0  0  0  0  0
   -1.0164    2.7844    0.1436 C   0  0  2  0  0  0  0  0  0  0  0  0
   -0.6744    3.0288    1.1764 H   0  0  0  0  0  0  0  0  0  0  0  0
   -1.6695    4.0188   -0.4735 C   0  0  0  0  0  0  0  0  0  0  0  0
   -0.9092    4.8163   -0.5847 H   0  0  0  0  0  0  0  0  0  0  0  0
   -2.4916    4.4288    0.1500 H   0  0  0  0  0  0  0  0  0  0  0  0
   -2.0691    3.7853   -1.4811 H   0  0  0  0  0  0  0  0  0  0  0  0
   -2.5284   -0.4303    0.2826 N   0  0  0  0  0  0  0  0  0  0  0  0
   -2.4607   -1.8859    0.0767 C   0  0  0  0  0  0  0  0  0  0  0  0
   -1.3731   -2.0990    0.0983 H   0  0  0  0  0  0  0  0  0  0  0  0
   -3.1594   -2.6343    1.2130 C   0  0  0  0  0  0  0  0  0  0  0  0
   -2.7787   -2.3158    2.2031 H   0  0  0  0  0  0  0  0  0  0  0  0
   -2.9851   -3.7233    1.1078 H   0  0  0  0  0  0  0  0  0  0  0  0
   -4.2576   -2.4755    1.1955 H   0  0  0  0  0  0  0  0  0  0  0  0
   -2.9897   -2.2588   -1.3107 C   0  0  0  0  0  0  0  0  0  0  0  0
   -4.0637   -1.9989   -1.4155 H   0  0  0  0  0  0  0  0  0  0  0  0
   -2.8846   -3.3502   -1.4733 H   0  0  0  0  0  0  0  0  0  0  0  0
   -2.4005   -1.7281   -2.0848 H   0  0  0  0  0  0  0  0  0  0  0  0
  1  9  1  0  0  0  0
  1 16  1  0  0  0  0
  2  3  1  0  0  0  0
  2 10  1  0  0  0  0
  4  2  1  0  0  0  0
  5  6  1  0  0  0  0
  7  5  2  0  0  0  0
  7  8  1  0  0  0  0
  9  7  1  0  0  0  0
 10  9  1  0  0  0  0
 10 11  1  1  0  0  0
 12 10  1  0  0  0  0
 12 14  1  0  0  0  0
 13 12  1  0  0  0  0
 15 12  1  0  0  0  0
 16  5  1  0  0  0  0
 17 18  1  0  0  0  0
 17 16  1  0  0  0  0
 17 19  1  0  0  0  0
 19 20  1  0  0  0  0
 21 19  1  0  0  0  0
 22 19  1  0  0  0  0
 23 17  1  0  0  0  0
 24 23  1  0  0  0  0
 25 23  1  0  0  0  0
 26 23  1  0  0  0  0
M  END
