4,30
 OpenBabel05122313053D

 54 57  0  0  0  0  0  0  0  0999 V2000
    0.6659    0.4377   -1.0783 S   0  0  0  0  0  0  0  0  0  0  0  0
   -1.1810   -3.9158   -0.3707 O   0  0  0  0  0  0  0  0  0  0  0  0
    0.1639   -3.4486    1.3950 O   0  0  0  0  0  0  0  0  0  0  0  0
   -0.5162    0.1262    1.5742 C   0  0  0  0  0  3  0  0  0  0  0  0
   -1.0347   -0.4002    2.7810 C   0  0  0  0  0  0  0  0  0  0  0  0
   -0.4485   -0.1361    4.0266 C   0  0  0  0  0  0  0  0  0  0  0  0
    0.7060    0.6588    4.1018 C   0  0  0  0  0  0  0  0  0  0  0  0
    1.2700    1.1553    2.9199 C   0  0  0  0  0  0  0  0  0  0  0  0
    0.6820    0.8908    1.6635 C   0  0  0  0  0  0  0  0  0  0  0  0
    1.3113    1.4978    0.4164 C   0  0  0  0  0  0  0  0  0  0  0  0
    0.7225    2.8769    0.0883 C   0  0  0  0  0  0  0  0  0  0  0  0
    0.0690    3.6351    1.0802 C   0  0  0  0  0  0  0  0  0  0  0  0
   -0.4553    4.9039    0.7890 C   0  0  0  0  0  0  0  0  0  0  0  0
   -0.3524    5.4371   -0.5041 C   0  0  0  0  0  0  0  0  0  0  0  0
    0.2840    4.6881   -1.5063 C   0  0  0  0  0  0  0  0  0  0  0  0
    0.8160    3.4239   -1.2125 C   0  0  0  0  0  0  0  0  0  0  0  0
    2.8367    1.4358    0.4088 C   0  0  0  0  0  0  0  0  0  0  0  0
    3.6417    2.4509   -0.1475 C   0  0  0  0  0  0  0  0  0  0  0  0
    5.0391    2.3204   -0.1867 C   0  0  0  0  0  0  0  0  0  0  0  0
    5.6604    1.1756    0.3328 C   0  0  0  0  0  0  0  0  0  0  0  0
    4.8718    0.1674    0.9094 C   0  0  0  0  0  0  0  0  0  0  0  0
    3.4796    0.2996    0.9530 C   0  0  0  0  0  0  0  0  0  0  0  0
    1.1295   -1.2868   -0.7086 C   0  0  0  0  0  0  0  0  0  0  0  0
    2.4502   -1.8333   -1.0265 C   0  0  0  0  0  0  0  0  0  0  0  0
    3.2908   -1.1860   -1.9629 C   0  0  0  0  0  0  0  0  0  0  0  0
    4.5679   -1.6826   -2.2461 C   0  0  0  0  0  0  0  0  0  0  0  0
    5.0348   -2.8420   -1.6062 C   0  0  0  0  0  0  0  0  0  0  0  0
    4.2080   -3.4968   -0.6769 C   0  0  0  0  0  0  0  0  0  0  0  0
    2.9320   -3.0008   -0.3845 C   0  0  0  0  0  0  0  0  0  0  0  0
   -0.0569   -1.7893   -0.2503 C   0  0  0  0  0  3  0  0  0  0  0  0
   -0.4056   -3.1526    0.1922 C   0  0  0  0  0  0  0  0  0  0  0  0
   -0.2565   -4.6843    1.9855 C   0  0  0  0  0  0  0  0  0  0  0  0
   -1.9187   -1.0545    2.7396 H   0  0  0  0  0  0  0  0  0  0  0  0
   -0.8890   -0.5632    4.9415 H   0  0  0  0  0  0  0  0  0  0  0  0
    1.1757    0.8787    5.0724 H   0  0  0  0  0  0  0  0  0  0  0  0
    2.1876    1.7617    2.9671 H   0  0  0  0  0  0  0  0  0  0  0  0
   -0.0308    3.2207    2.0927 H   0  0  0  0  0  0  0  0  0  0  0  0
   -0.9568    5.4770    1.5839 H   0  0  0  0  0  0  0  0  0  0  0  0
   -0.7702    6.4292   -0.7326 H   0  0  0  0  0  0  0  0  0  0  0  0
    0.3690    5.0891   -2.5279 H   0  0  0  0  0  0  0  0  0  0  0  0
    1.3068    2.8479   -2.0109 H   0  0  0  0  0  0  0  0  0  0  0  0
    3.1772    3.3631   -0.5454 H   0  0  0  0  0  0  0  0  0  0  0  0
    5.6452    3.1285   -0.6243 H   0  0  0  0  0  0  0  0  0  0  0  0
    6.7555    1.0720    0.2957 H   0  0  0  0  0  0  0  0  0  0  0  0
    5.3408   -0.7395    1.3194 H   0  0  0  0  0  0  0  0  0  0  0  0
    2.8723   -0.4930    1.4095 H   0  0  0  0  0  0  0  0  0  0  0  0
    2.9341   -0.2707   -2.4592 H   0  0  0  0  0  0  0  0  0  0  0  0
    5.2071   -1.1556   -2.9706 H   0  0  0  0  0  0  0  0  0  0  0  0
    6.0403   -3.2314   -1.8260 H   0  0  0  0  0  0  0  0  0  0  0  0
    4.5685   -4.4006   -0.1615 H   0  0  0  0  0  0  0  0  0  0  0  0
    2.3079   -3.4898    0.3762 H   0  0  0  0  0  0  0  0  0  0  0  0
   -1.3496   -4.6781    2.1728 H   0  0  0  0  0  0  0  0  0  0  0  0
    0.2936   -4.7673    2.9397 H   0  0  0  0  0  0  0  0  0  0  0  0
   -0.0229   -5.5426    1.3239 H   0  0  0  0  0  0  0  0  0  0  0  0
  1 23  1  0  0  0  0
  1 10  1  0  0  0  0
  2 31  2  0  0  0  0
  3 32  1  0  0  0  0
  4  9  2  0  0  0  0
  4  5  1  0  0  0  0
  5  6  2  0  0  0  0
  6  7  1  0  0  0  0
  6 34  1  0  0  0  0
  7 35  1  0  0  0  0
  8 36  1  0  0  0  0
  8  7  2  0  0  0  0
  9  8  1  0  0  0  0
 10  9  1  0  0  0  0
 11 10  1  0  0  0  0
 11 12  1  0  0  0  0
 12 37  1  0  0  0  0
 13 12  2  0  0  0  0
 13 38  1  0  0  0  0
 14 13  1  0  0  0  0
 15 16  1  0  0  0  0
 15 14  2  0  0  0  0
 16 11  2  0  0  0  0
 17 10  1  0  0  0  0
 17 22  1  0  0  0  0
 18 17  2  0  0  0  0
 19 18  1  0  0  0  0
 19 20  2  0  0  0  0
 20 21  1  0  0  0  0
 21 22  2  0  0  0  0
 21 45  1  0  0  0  0
 22 46  1  0  0  0  0
 23 30  2  0  0  0  0
 24 23  1  0  0  0  0
 24 29  1  0  0  0  0
 25 24  2  0  0  0  0
 26 25  1  0  0  0  0
 26 27  2  0  0  0  0
 27 28  1  0  0  0  0
 28 29  2  0  0  0  0
 28 50  1  0  0  0  0
 29 51  1  0  0  0  0
 30 31  1  0  0  0  0
 31  3  1  0  0  0  0
 32 52  1  0  0  0  0
 32 53  1  0  0  0  0
 33  5  1  0  0  0  0
 39 14  1  0  0  0  0
 40 15  1  0  0  0  0
 41 16  1  0  0  0  0
 42 18  1  0  0  0  0
 43 19  1  0  0  0  0
 44 20  1  0  0  0  0
 47 25  1  0  0  0  0
 48 26  1  0  0  0  0
 49 27  1  0  0  0  0
 54 32  1  0  0  0  0
M  END
