1,4
 OpenBabel05122313053D

 16 15  0  0  0  0  0  0  0  0999 V2000
   -1.8333    0.9451   -0.9973 C   0  0  0  0  0  3  0  0  0  0  0  0
   -3.0327    0.0502   -0.8324 C   0  0  0  0  0  0  0  0  0  0  0  0
   -2.8162   -1.2425   -0.5041 C   0  0  0  0  0  0  0  0  0  0  0  0
   -1.4314   -1.7890   -0.2915 C   0  0  0  0  0  3  0  0  0  0  0  0
   -4.3897    0.6406   -1.1018 C   0  0  0  0  0  0  0  0  0  0  0  0
   -1.1480   -2.9330   -1.2755 C   0  0  0  0  0  0  0  0  0  0  0  0
   -1.7350    1.2272   -2.0696 H   0  0  0  0  0  0  0  0  0  0  0  0
   -1.9739    1.9124   -0.4729 H   0  0  0  0  0  0  0  0  0  0  0  0
   -3.6630   -1.9533   -0.4450 H   0  0  0  0  0  0  0  0  0  0  0  0
   -1.3593   -2.2244    0.7279 H   0  0  0  0  0  0  0  0  0  0  0  0
   -5.2024   -0.1002   -0.9751 H   0  0  0  0  0  0  0  0  0  0  0  0
   -4.5969    1.5002   -0.4269 H   0  0  0  0  0  0  0  0  0  0  0  0
   -4.4484    1.0444   -2.1356 H   0  0  0  0  0  0  0  0  0  0  0  0
   -1.8951   -3.7468   -1.1469 H   0  0  0  0  0  0  0  0  0  0  0  0
   -1.2171   -2.6039   -2.3313 H   0  0  0  0  0  0  0  0  0  0  0  0
   -0.1499   -3.3933   -1.1270 H   0  0  0  0  0  0  0  0  0  0  0  0
  1  2  1  0  0  0  0
  1  8  1  0  0  0  0
  2  3  2  0  0  0  0
  3  9  1  0  0  0  0
  3  4  1  0  0  0  0
  4 10  1  0  0  0  0
  5 11  1  0  0  0  0
  5  2  1  0  0  0  0
  5 12  1  0  0  0  0
  6 14  1  0  0  0  0
  6 16  1  0  0  0  0
  6  4  1  0  0  0  0
  7  1  1  0  0  0  0
 13  5  1  0  0  0  0
 15  6  1  0  0  0  0
M  END
