3,8
 OpenBabel05122313053D

 30 31  0  0  0  0  0  0  0  0999 V2000
    0.6706   -0.2088    1.2328 C   0  0  0  0  0  3  0  0  0  0  0  0
    0.3993   -1.0863    1.8354 H   0  0  0  0  0  0  0  0  0  0  0  0
    1.4389    0.8417    1.8103 C   0  0  0  0  0  3  0  0  0  0  0  0
    1.7488    0.7698    2.8627 H   0  0  0  0  0  0  0  0  0  0  0  0
    0.3318   -0.1759   -0.1541 C   0  0  0  0  0  0  0  0  0  0  0  0
    0.7286    0.9552   -0.9340 C   0  0  0  0  0  0  0  0  0  0  0  0
    0.4988    0.9798   -2.0081 H   0  0  0  0  0  0  0  0  0  0  0  0
    1.4941    1.9987   -0.3467 C   0  0  0  0  0  3  0  0  0  0  0  0
    1.8483    2.8289   -0.9742 H   0  0  0  0  0  0  0  0  0  0  0  0
    1.8313    1.9676    1.0361 C   0  0  0  0  0  3  0  0  0  0  0  0
    2.4488    2.7605    1.4776 H   0  0  0  0  0  0  0  0  0  0  0  0
   -4.2883    0.9084   -0.4199 N   0  0  0  0  0  0  0  0  0  0  0  0
   -4.1162   -0.2508    0.2491 C   0  0  0  0  0  0  0  0  0  0  0  0
   -5.5366    1.3543   -0.6153 C   0  0  0  0  0  0  0  0  0  0  0  0
   -5.6346    2.3078   -1.1657 H   0  0  0  0  0  0  0  0  0  0  0  0
   -6.5086   -0.5241    0.5299 C   0  0  0  0  0  0  0  0  0  0  0  0
   -7.3758   -1.0903    0.9035 H   0  0  0  0  0  0  0  0  0  0  0  0
   -6.6840    0.6818   -0.1622 C   0  0  0  0  0  0  0  0  0  0  0  0
   -7.6857    1.0957   -0.3501 H   0  0  0  0  0  0  0  0  0  0  0  0
   -5.2063   -0.9995    0.7375 C   0  0  0  0  0  0  0  0  0  0  0  0
   -5.0297   -1.9432    1.2758 H   0  0  0  0  0  0  0  0  0  0  0  0
   -2.6862   -0.7061    0.4301 C   0  0  0  0  0  0  0  0  0  0  0  0
   -2.6551   -1.6328    1.0405 H   0  0  0  0  0  0  0  0  0  0  0  0
   -2.1486    0.0797    1.0044 H   0  0  0  0  0  0  0  0  0  0  0  0
   -1.9718   -0.9208   -0.9119 C   0  0  0  0  0  0  0  0  0  0  0  0
   -2.0901    0.0075   -1.5101 H   0  0  0  0  0  0  0  0  0  0  0  0
   -2.4858   -1.7257   -1.4790 H   0  0  0  0  0  0  0  0  0  0  0  0
   -0.4812   -1.2810   -0.7842 C   0  0  0  0  0  0  0  0  0  0  0  0
   -0.3590   -2.2095   -0.1883 H   0  0  0  0  0  0  0  0  0  0  0  0
   -0.0729   -1.5012   -1.7912 H   0  0  0  0  0  0  0  0  0  0  0  0
  1  3  1  0  0  0  0
  1  2  1  0  0  0  0
  3  4  1  0  0  0  0
  5  1  1  0  0  0  0
  6  8  1  0  0  0  0
  6  5  2  0  0  0  0
  7  6  1  0  0  0  0
  8 10  1  0  0  0  0
  9  8  1  0  0  0  0
 10 11  1  0  0  0  0
 10  3  1  0  0  0  0
 12 13  1  0  0  0  0
 13 22  1  0  0  0  0
 13 20  2  0  0  0  0
 14 12  2  0  0  0  0
 14 18  1  0  0  0  0
 15 14  1  0  0  0  0
 16 20  1  0  0  0  0
 16 17  1  0  0  0  0
 18 16  2  0  0  0  0
 19 18  1  0  0  0  0
 20 21  1  0  0  0  0
 22 24  1  0  0  0  0
 22 23  1  0  0  0  0
 25 28  1  0  0  0  0
 25 22  1  0  0  0  0
 26 25  1  0  0  0  0
 27 25  1  0  0  0  0
 28 29  1  0  0  0  0
 28  5  1  0  0  0  0
 30 28  1  0  0  0  0
M  END
