7,20
 OpenBabel05122313053D

 25 25  0  0  1  0  0  0  0  0999 V2000
   -3.4317   -0.8942    1.1876 N   0  0  0  0  0  0  0  0  0  0  0  0
   -3.6032   -0.6518   -0.1352 C   0  0  1  0  0  3  0  0  0  0  0  0
   -2.4103   -0.2122   -0.5948 N   0  0  0  0  0  0  0  0  0  0  0  0
   -2.1145   -0.6058    1.5433 C   0  0  0  0  0  0  0  0  0  0  0  0
   -1.7693   -0.7842    2.5650 H   0  0  0  0  0  0  0  0  0  0  0  0
   -0.7972    1.0850   -1.7769 C   0  0  2  0  0  3  0  0  0  0  0  0
   -1.4400   -0.1790    0.4112 C   0  0  0  0  0  3  0  0  0  0  0  0
   -1.2242    2.5234   -1.5778 C   0  0  0  0  0  0  0  0  0  0  0  0
   -0.3620    3.1986   -1.4304 H   0  0  0  0  0  0  0  0  0  0  0  0
   -1.9087    2.6338   -0.7130 H   0  0  0  0  0  0  0  0  0  0  0  0
   -1.7703    2.8769   -2.4797 H   0  0  0  0  0  0  0  0  0  0  0  0
   -4.8582   -0.8530   -0.9029 C   0  0  0  0  0  0  0  0  0  0  0  0
   -5.7207   -0.3645   -0.4062 H   0  0  0  0  0  0  0  0  0  0  0  0
   -5.0976   -1.9326   -1.0076 H   0  0  0  0  0  0  0  0  0  0  0  0
   -4.7658   -0.4323   -1.9200 H   0  0  0  0  0  0  0  0  0  0  0  0
   -4.4773   -1.3581    2.0907 C   0  0  0  0  0  0  0  0  0  0  0  0
   -5.2220   -0.5593    2.2800 H   0  0  0  0  0  0  0  0  0  0  0  0
   -4.0156   -1.6499    3.0502 H   0  0  0  0  0  0  0  0  0  0  0  0
   -4.9911   -2.2409    1.6649 H   0  0  0  0  0  0  0  0  0  0  0  0
    0.4764    0.7412   -2.2802 C   0  0  0  0  0  3  0  0  0  0  0  0
    1.1994    1.5389   -2.5109 H   0  0  0  0  0  0  0  0  0  0  0  0
    0.6266   -0.2160   -2.8018 H   0  0  0  0  0  0  0  0  0  0  0  0
   -1.9595    0.1099   -1.9436 C   0  0  0  0  0  0  0  0  0  0  0  0
   -2.7854    0.5649   -2.5268 H   0  0  0  0  0  0  0  0  0  0  0  0
   -1.6251   -0.8260   -2.4333 H   0  0  0  0  0  0  0  0  0  0  0  0
  1  4  1  0  0  0  0
  1 16  1  0  0  0  0
  2 12  1  6  0  0  0
  2  1  1  0  0  0  0
  3  2  1  0  0  0  0
  3  7  1  0  0  0  0
  4  5  1  0  0  0  0
  6 20  1  6  0  0  0
  6  8  1  0  0  0  0
  7  4  2  0  0  0  0
  8  9  1  0  0  0  0
  8 10  1  0  0  0  0
 11  8  1  0  0  0  0
 12 13  1  0  0  0  0
 14 12  1  0  0  0  0
 15 12  1  0  0  0  0
 16 17  1  0  0  0  0
 16 18  1  0  0  0  0
 19 16  1  0  0  0  0
 21 20  1  0  0  0  0
 22 20  1  0  0  0  0
 23  6  1  0  0  0  0
 23  3  1  0  0  0  0
 24 23  1  0  0  0  0
 25 23  1  0  0  0  0
M  END
