3,38
 OpenBabel05122313053D

 54 58  0  0  1  0  0  0  0  0999 V2000
   -0.7913    1.7208    0.3144 C   0  0  0  0  0  0  0  0  0  0  0  0
   -1.4272    1.0395   -0.7755 C   0  0  0  0  0  0  0  0  0  0  0  0
   -0.7816    1.4718   -1.9771 C   0  0  0  0  0  3  0  0  0  0  0  0
   -1.0153    1.1180   -2.9886 H   0  0  0  0  0  0  0  0  0  0  0  0
    0.1955    2.4536   -1.6397 C   0  0  0  0  0  0  0  0  0  0  0  0
    0.8651    2.9621   -2.3407 H   0  0  0  0  0  0  0  0  0  0  0  0
    0.1775    2.6318   -0.2361 C   0  0  0  0  0  0  0  0  0  0  0  0
    0.9392    3.6195    0.5963 C   0  0  0  0  0  0  0  0  0  0  0  0
    1.9586    3.2190    0.7874 H   0  0  0  0  0  0  0  0  0  0  0  0
    1.0655    4.5643    0.0283 H   0  0  0  0  0  0  0  0  0  0  0  0
    0.2276    3.8641    1.9379 C   0  0  0  0  0  0  0  0  0  0  0  0
    0.8790    4.4677    2.6020 H   0  0  0  0  0  0  0  0  0  0  0  0
   -0.6950    4.4643    1.7700 H   0  0  0  0  0  0  0  0  0  0  0  0
   -0.1414    2.5394    2.6187 C   0  0  0  0  0  0  0  0  0  0  0  0
   -0.5715    2.7240    3.6243 H   0  0  0  0  0  0  0  0  0  0  0  0
    0.7822    1.9411    2.7613 H   0  0  0  0  0  0  0  0  0  0  0  0
   -1.1401    1.7233    1.7810 C   0  0  0  0  0  0  0  0  0  0  0  0
   -1.2213    0.6915    2.1812 H   0  0  0  0  0  0  0  0  0  0  0  0
   -2.1592    2.1612    1.8858 H   0  0  0  0  0  0  0  0  0  0  0  0
   -2.5237    0.0071   -0.7117 C   0  0  2  0  0  0  0  0  0  0  0  0
   -2.6888   -0.3444   -1.7551 H   0  0  0  0  0  0  0  0  0  0  0  0
   -3.8869    0.4950   -0.1940 C   0  0  0  0  0  0  0  0  0  0  0  0
   -3.7781    0.8565    0.8517 H   0  0  0  0  0  0  0  0  0  0  0  0
   -4.2366    1.3608   -0.7936 H   0  0  0  0  0  0  0  0  0  0  0  0
   -4.9098   -0.6502   -0.2431 C   0  0  0  0  0  0  0  0  0  0  0  0
   -5.8838   -0.3119    0.1676 H   0  0  0  0  0  0  0  0  0  0  0  0
   -5.0974   -0.9186   -1.3070 H   0  0  0  0  0  0  0  0  0  0  0  0
   -4.4210   -1.8970    0.5094 C   0  0  0  0  0  0  0  0  0  0  0  0
   -5.1617   -2.7179    0.4131 H   0  0  0  0  0  0  0  0  0  0  0  0
   -4.3557   -1.6629    1.5958 H   0  0  0  0  0  0  0  0  0  0  0  0
   -3.0423   -2.3648    0.0204 C   0  0  0  0  0  0  0  0  0  0  0  0
   -2.6853   -3.2289    0.6188 H   0  0  0  0  0  0  0  0  0  0  0  0
   -3.1079   -2.7162   -1.0333 H   0  0  0  0  0  0  0  0  0  0  0  0
   -2.0287   -1.2100    0.0988 C   0  0  1  0  0  0  0  0  0  0  0  0
   -1.9682   -0.9045    1.1658 H   0  0  0  0  0  0  0  0  0  0  0  0
    0.4913   -1.8346    0.4596 C   0  0  0  0  0  0  0  0  0  0  0  0
   -0.6381   -1.5435   -0.3615 C   0  0  0  0  0  0  0  0  0  0  0  0
   -0.2000   -1.6048   -1.7297 C   0  0  0  0  0  3  0  0  0  0  0  0
   -0.8237   -1.4487   -2.6170 H   0  0  0  0  0  0  0  0  0  0  0  0
    1.1775   -1.9596   -1.7375 C   0  0  0  0  0  0  0  0  0  0  0  0
    1.8071   -2.0674   -2.6263 H   0  0  0  0  0  0  0  0  0  0  0  0
    1.6135   -2.0973   -0.3949 C   0  0  0  0  0  0  0  0  0  0  0  0
    2.9506   -2.5128    0.1414 C   0  0  0  0  0  0  0  0  0  0  0  0
    3.5964   -1.6146    0.2505 H   0  0  0  0  0  0  0  0  0  0  0  0
    3.4560   -3.1866   -0.5802 H   0  0  0  0  0  0  0  0  0  0  0  0
    2.7745   -3.1904    1.5126 C   0  0  0  0  0  0  0  0  0  0  0  0
    2.2693   -4.1730    1.3766 H   0  0  0  0  0  0  0  0  0  0  0  0
    3.7683   -3.4059    1.9556 H   0  0  0  0  0  0  0  0  0  0  0  0
    1.9568   -2.3126    2.4712 C   0  0  0  0  0  0  0  0  0  0  0  0
    2.4868   -1.3483    2.6052 H   0  0  0  0  0  0  0  0  0  0  0  0
    1.8917   -2.7890    3.4708 H   0  0  0  0  0  0  0  0  0  0  0  0
    0.5341   -2.0250    1.9513 C   0  0  0  0  0  0  0  0  0  0  0  0
    0.1071   -1.1457    2.4780 H   0  0  0  0  0  0  0  0  0  0  0  0
   -0.1396   -2.8782    2.1949 H   0  0  0  0  0  0  0  0  0  0  0  0
  1 17  1  0  0  0  0
  2 20  1  0  0  0  0
  2  1  2  0  0  0  0
  3  5  1  0  0  0  0
  3  2  1  0  0  0  0
  4  3  1  0  0  0  0
  5  7  2  0  0  0  0
  6  5  1  0  0  0  0
  7  1  1  0  0  0  0
  7  8  1  0  0  0  0
  8  9  1  0  0  0  0
  8 11  1  0  0  0  0
 10  8  1  0  0  0  0
 11 12  1  0  0  0  0
 11 14  1  0  0  0  0
 13 11  1  0  0  0  0
 14 16  1  0  0  0  0
 14 15  1  0  0  0  0
 17 19  1  0  0  0  0
 17 18  1  0  0  0  0
 17 14  1  0  0  0  0
 20 21  1  6  0  0  0
 20 22  1  0  0  0  0
 20 34  1  0  0  0  0
 22 23  1  0  0  0  0
 24 22  1  0  0  0  0
 25 22  1  0  0  0  0
 25 26  1  0  0  0  0
 25 28  1  0  0  0  0
 27 25  1  0  0  0  0
 28 30  1  0  0  0  0
 29 28  1  0  0  0  0
 31 34  1  0  0  0  0
 31 28  1  0  0  0  0
 31 32  1  0  0  0  0
 33 31  1  0  0  0  0
 34 35  1  1  0  0  0
 36 52  1  0  0  0  0
 37 34  1  0  0  0  0
 37 36  2  0  0  0  0
 38 37  1  0  0  0  0
 39 38  1  0  0  0  0
 40 38  1  0  0  0  0
 40 42  2  0  0  0  0
 41 40  1  0  0  0  0
 42 43  1  0  0  0  0
 42 36  1  0  0  0  0
 43 44  1  0  0  0  0
 43 46  1  0  0  0  0
 45 43  1  0  0  0  0
 46 48  1  0  0  0  0
 46 49  1  0  0  0  0
 47 46  1  0  0  0  0
 49 50  1  0  0  0  0
 49 51  1  0  0  0  0
 52 54  1  0  0  0  0
 52 49  1  0  0  0  0
 52 53  1  0  0  0  0
M  END
