17,40
 OpenBabel05122313053D

 57 61  0  0  1  0  0  0  0  0999 V2000
    0.3830   -1.8360    0.3971 C   0  0  0  0  0  0  0  0  0  0  0  0
    0.3475   -2.0516    1.8836 C   0  0  0  0  0  0  0  0  0  0  0  0
   -0.6881   -2.2712    2.2173 H   0  0  0  0  0  0  0  0  0  0  0  0
    0.6696   -1.1259    2.4088 H   0  0  0  0  0  0  0  0  0  0  0  0
    1.3092   -3.1940    2.2618 C   0  0  0  0  0  0  0  0  0  0  0  0
    1.3422   -3.3037    3.3652 H   0  0  0  0  0  0  0  0  0  0  0  0
    0.9150   -4.1540    1.8594 H   0  0  0  0  0  0  0  0  0  0  0  0
    2.7217   -2.9356    1.7175 C   0  0  0  0  0  0  0  0  0  0  0  0
    3.4144   -3.7332    2.0553 H   0  0  0  0  0  0  0  0  0  0  0  0
    3.0939   -1.9828    2.1446 H   0  0  0  0  0  0  0  0  0  0  0  0
    2.7611   -2.8384    0.1787 C   0  0  0  0  0  0  0  0  0  0  0  0
    2.8598   -3.8536   -0.2671 H   0  0  0  0  0  0  0  0  0  0  0  0
    3.6536   -2.2679   -0.1533 H   0  0  0  0  0  0  0  0  0  0  0  0
    1.5200   -2.2152   -0.3928 C   0  0  0  0  0  0  0  0  0  0  0  0
    1.1947   -1.9958   -1.7554 C   0  0  0  0  0  0  0  0  0  0  0  0
    1.8611   -2.1647   -2.6070 H   0  0  0  0  0  0  0  0  0  0  0  0
   -0.1226   -1.4632   -1.8217 C   0  0  0  0  0  3  0  0  0  0  0  0
   -0.6583   -1.2021   -2.7413 H   0  0  0  0  0  0  0  0  0  0  0  0
   -0.6387   -1.3701   -0.4831 C   0  0  0  0  0  0  0  0  0  0  0  0
   -2.0296   -0.9090   -0.1224 C   0  0  2  0  0  0  0  0  0  0  0  0
   -2.0424   -0.6789    0.9637 H   0  0  0  0  0  0  0  0  0  0  0  0
   -3.0675   -2.0172   -0.4105 C   0  0  0  0  0  0  0  0  0  0  0  0
   -2.5886   -3.0059   -0.2523 H   0  0  0  0  0  0  0  0  0  0  0  0
   -3.3075   -1.9809   -1.4955 H   0  0  0  0  0  0  0  0  0  0  0  0
   -4.3592   -1.9648    0.4220 C   0  0  0  0  0  0  0  0  0  0  0  0
   -5.1097   -2.6129   -0.0796 H   0  0  0  0  0  0  0  0  0  0  0  0
   -4.1770   -2.4375    1.4113 H   0  0  0  0  0  0  0  0  0  0  0  0
   -4.9668   -0.5699    0.6592 C   0  0  0  0  0  0  0  0  0  0  0  0
   -4.4802   -0.0962    1.5406 H   0  0  0  0  0  0  0  0  0  0  0  0
   -6.0291   -0.7022    0.9530 H   0  0  0  0  0  0  0  0  0  0  0  0
   -4.8721    0.4178   -0.5164 C   0  0  0  0  0  0  0  0  0  0  0  0
   -5.6952    1.1576   -0.4300 H   0  0  0  0  0  0  0  0  0  0  0  0
   -5.0447   -0.1080   -1.4820 H   0  0  0  0  0  0  0  0  0  0  0  0
   -3.5515    1.1995   -0.5595 C   0  0  0  0  0  0  0  0  0  0  0  0
   -3.4047    1.6861    0.4289 H   0  0  0  0  0  0  0  0  0  0  0  0
   -3.6334    2.0319   -1.2899 H   0  0  0  0  0  0  0  0  0  0  0  0
   -2.2895    0.3942   -0.9245 C   0  0  1  0  0  0  0  0  0  0  0  0
   -2.4112    0.0794   -1.9848 H   0  0  0  0  0  0  0  0  0  0  0  0
   -1.0503    1.2559   -0.8628 C   0  0  0  0  0  0  0  0  0  0  0  0
   -0.2705    1.6822   -1.9822 C   0  0  0  0  0  3  0  0  0  0  0  0
   -0.4664    1.4257   -3.0305 H   0  0  0  0  0  0  0  0  0  0  0  0
    0.7981    2.5002   -1.5070 C   0  0  0  0  0  0  0  0  0  0  0  0
    1.5774    2.9604   -2.1229 H   0  0  0  0  0  0  0  0  0  0  0  0
    0.7025    2.5762   -0.0968 C   0  0  0  0  0  0  0  0  0  0  0  0
    1.5058    3.4289    0.8430 C   0  0  0  0  0  0  0  0  0  0  0  0
    1.3246    4.4889    0.5544 H   0  0  0  0  0  0  0  0  0  0  0  0
    2.5888    3.2423    0.6917 H   0  0  0  0  0  0  0  0  0  0  0  0
    1.1265    3.2128    2.3203 C   0  0  0  0  0  0  0  0  0  0  0  0
    1.4453    4.0921    2.9165 H   0  0  0  0  0  0  0  0  0  0  0  0
    1.6893    2.3394    2.7073 H   0  0  0  0  0  0  0  0  0  0  0  0
   -0.3727    2.9527    2.5130 C   0  0  0  0  0  0  0  0  0  0  0  0
   -0.6064    2.8497    3.5927 H   0  0  0  0  0  0  0  0  0  0  0  0
   -0.9622    3.8209    2.1419 H   0  0  0  0  0  0  0  0  0  0  0  0
   -0.8188    1.6842    1.7646 C   0  0  0  0  0  0  0  0  0  0  0  0
   -0.3423    0.7988    2.2390 H   0  0  0  0  0  0  0  0  0  0  0  0
   -1.9129    1.5352    1.8602 H   0  0  0  0  0  0  0  0  0  0  0  0
   -0.4179    1.7752    0.3149 C   0  0  0  0  0  0  0  0  0  0  0  0
  1  2  1  0  0  0  0
  2  3  1  0  0  0  0
  2  5  1  0  0  0  0
  2  4  1  0  0  0  0
  5  6  1  0  0  0  0
  7  5  1  0  0  0  0
  8  9  1  0  0  0  0
  8 10  1  0  0  0  0
  8  5  1  0  0  0  0
 11  8  1  0  0  0  0
 12 11  1  0  0  0  0
 13 11  1  0  0  0  0
 14 11  1  0  0  0  0
 14  1  1  0  0  0  0
 15 14  2  0  0  0  0
 16 15  1  0  0  0  0
 17 15  1  0  0  0  0
 17 19  1  0  0  0  0
 18 17  1  0  0  0  0
 19 20  1  0  0  0  0
 19  1  2  0  0  0  0
 20 21  1  1  0  0  0
 22 23  1  0  0  0  0
 22 20  1  0  0  0  0
 22 25  1  0  0  0  0
 24 22  1  0  0  0  0
 25 28  1  0  0  0  0
 25 27  1  0  0  0  0
 26 25  1  0  0  0  0
 28 30  1  0  0  0  0
 28 29  1  0  0  0  0
 31 32  1  0  0  0  0
 31 28  1  0  0  0  0
 33 31  1  0  0  0  0
 34 31  1  0  0  0  0
 34 35  1  0  0  0  0
 36 34  1  0  0  0  0
 37 38  1  6  0  0  0
 37 39  1  0  0  0  0
 37 34  1  0  0  0  0
 37 20  1  0  0  0  0
 39 57  2  0  0  0  0
 40 42  1  0  0  0  0
 40 39  1  0  0  0  0
 41 40  1  0  0  0  0
 42 44  2  0  0  0  0
 43 42  1  0  0  0  0
 44 57  1  0  0  0  0
 44 45  1  0  0  0  0
 45 48  1  0  0  0  0
 46 45  1  0  0  0  0
 47 45  1  0  0  0  0
 48 51  1  0  0  0  0
 48 50  1  0  0  0  0
 48 49  1  0  0  0  0
 51 52  1  0  0  0  0
 53 51  1  0  0  0  0
 54 56  1  0  0  0  0
 54 55  1  0  0  0  0
 54 51  1  0  0  0  0
 57 54  1  0  0  0  0
M  END
