1,6
 OpenBabel05122313053D

 37 38  0  0  0  0  0  0  0  0999 V2000
   -1.3872    1.1971   -0.3367 C   0  0  0  0  0  2  0  0  0  0  0  0
    2.1763    3.3439   -0.2604 C   0  0  0  0  0  0  0  0  0  0  0  0
    2.2111    4.4139   -0.4873 H   0  0  0  0  0  0  0  0  0  0  0  0
   -3.0158    2.5530    0.4849 C   0  0  0  0  0  0  0  0  0  0  0  0
   -3.9226    2.8110    1.0393 H   0  0  0  0  0  0  0  0  0  0  0  0
    1.3862    1.1982   -0.3367 C   0  0  0  0  0  2  0  0  0  0  0  0
   -0.0011    2.8555   -1.5052 C   0  0  0  0  0  0  0  0  0  0  0  0
   -0.0016    3.9443   -1.6948 H   0  0  0  0  0  0  0  0  0  0  0  0
   -0.0009    2.3065   -2.4676 H   0  0  0  0  0  0  0  0  0  0  0  0
   -1.1964    2.4925   -0.7589 N   0  0  0  0  0  0  0  0  0  0  0  0
    2.5077    1.2589    0.4347 N   0  0  0  0  0  0  0  0  0  0  0  0
   -3.2038    0.3793    2.6389 C   0  0  0  0  0  0  0  0  0  0  0  0
   -2.2373    0.7166    3.0627 H   0  0  0  0  0  0  0  0  0  0  0  0
   -3.5014   -0.5480    3.1657 H   0  0  0  0  0  0  0  0  0  0  0  0
   -3.9732    1.1498    2.8560 H   0  0  0  0  0  0  0  0  0  0  0  0
   -2.5090    1.2570    0.4345 N   0  0  0  0  0  0  0  0  0  0  0  0
   -2.1792    3.3422   -0.2609 C   0  0  0  0  0  0  0  0  0  0  0  0
   -2.2148    4.4121   -0.4880 H   0  0  0  0  0  0  0  0  0  0  0  0
    1.1944    2.4934   -0.7588 N   0  0  0  0  0  0  0  0  0  0  0  0
   -4.3817   -0.3563    0.4894 C   0  0  0  0  0  0  0  0  0  0  0  0
   -5.1693    0.4233    0.5608 H   0  0  0  0  0  0  0  0  0  0  0  0
   -4.7540   -1.2699    0.9928 H   0  0  0  0  0  0  0  0  0  0  0  0
   -4.2070   -0.6086   -0.5742 H   0  0  0  0  0  0  0  0  0  0  0  0
    3.0133    2.5553    0.4855 C   0  0  0  0  0  0  0  0  0  0  0  0
    3.9198    2.8140    1.0402 H   0  0  0  0  0  0  0  0  0  0  0  0
   -3.0754    0.0892    1.1438 C   0  0  0  0  0  0  0  0  0  0  0  0
   -2.3229   -0.7130    0.9974 H   0  0  0  0  0  0  0  0  0  0  0  0
    3.0751    0.0914    1.1438 C   0  0  0  0  0  0  0  0  0  0  0  0
    2.3232   -0.7113    0.9976 H   0  0  0  0  0  0  0  0  0  0  0  0
    3.2038    0.3815    2.6389 C   0  0  0  0  0  0  0  0  0  0  0  0
    3.9727    1.1525    2.8559 H   0  0  0  0  0  0  0  0  0  0  0  0
    3.5021   -0.5456    3.1655 H   0  0  0  0  0  0  0  0  0  0  0  0
    2.2371    0.7182    3.0630 H   0  0  0  0  0  0  0  0  0  0  0  0
    4.3816   -0.3531    0.4890 C   0  0  0  0  0  0  0  0  0  0  0  0
    4.2066   -0.6056   -0.5745 H   0  0  0  0  0  0  0  0  0  0  0  0
    4.7547   -1.2665    0.9923 H   0  0  0  0  0  0  0  0  0  0  0  0
    5.1686    0.4270    0.5601 H   0  0  0  0  0  0  0  0  0  0  0  0
  1 16  1  0  0  0  0
  2 24  2  0  0  0  0
  3  2  1  0  0  0  0
  4  5  1  0  0  0  0
  6 11  1  0  0  0  0
  7 10  1  0  0  0  0
  7 19  1  0  0  0  0
  8  7  1  0  0  0  0
  9  7  1  0  0  0  0
 10  1  1  0  0  0  0
 10 17  1  0  0  0  0
 11 24  1  0  0  0  0
 11 28  1  0  0  0  0
 12 15  1  0  0  0  0
 12 13  1  0  0  0  0
 12 14  1  0  0  0  0
 16  4  1  0  0  0  0
 16 26  1  0  0  0  0
 17  4  2  0  0  0  0
 18 17  1  0  0  0  0
 19  6  1  0  0  0  0
 19  2  1  0  0  0  0
 20 21  1  0  0  0  0
 20 22  1  0  0  0  0
 20 26  1  0  0  0  0
 23 20  1  0  0  0  0
 24 25  1  0  0  0  0
 26 12  1  0  0  0  0
 27 26  1  0  0  0  0
 28 30  1  0  0  0  0
 29 28  1  0  0  0  0
 30 31  1  0  0  0  0
 30 33  1  0  0  0  0
 30 32  1  0  0  0  0
 34 37  1  0  0  0  0
 34 36  1  0  0  0  0
 34 28  1  0  0  0  0
 35 34  1  0  0  0  0
M  END
