1,4
 OpenBabel05122313053D

 18 19  0  0  1  0  0  0  0  0999 V2000
    1.8691    0.3199    1.3218 C   0  0  0  0  0  3  0  0  0  0  0  0
    1.8741   -1.0267    0.9078 C   0  0  0  0  0  3  0  0  0  0  0  0
    2.6555   -1.2441   -0.3890 C   0  0  1  0  0  0  0  0  0  0  0  0
    1.8694   -0.3194   -1.3221 C   0  0  0  0  0  3  0  0  0  0  0  0
    1.8741    1.0273   -0.9081 C   0  0  0  0  0  3  0  0  0  0  0  0
    2.6553    1.2448    0.3888 C   0  0  2  0  0  0  0  0  0  0  0  0
    4.1142   -0.7398   -0.2349 C   0  0  0  0  0  0  0  0  0  0  0  0
    4.1140    0.7407    0.2350 C   0  0  0  0  0  0  0  0  0  0  0  0
    1.5685    0.6368    2.3311 H   0  0  0  0  0  0  0  0  0  0  0  0
    1.5945   -1.8597    1.5709 H   0  0  0  0  0  0  0  0  0  0  0  0
    2.6099   -2.2948   -0.7259 H   0  0  0  0  0  0  0  0  0  0  0  0
    1.5691   -0.6362   -2.3315 H   0  0  0  0  0  0  0  0  0  0  0  0
    1.5946    1.8602   -1.5713 H   0  0  0  0  0  0  0  0  0  0  0  0
    2.6094    2.2955    0.7257 H   0  0  0  0  0  0  0  0  0  0  0  0
    4.6485   -1.3882    0.4896 H   0  0  0  0  0  0  0  0  0  0  0  0
    4.6379   -0.8493   -1.2068 H   0  0  0  0  0  0  0  0  0  0  0  0
    4.6484    1.3891   -0.4894 H   0  0  0  0  0  0  0  0  0  0  0  0
    4.6375    0.8503    1.2070 H   0  0  0  0  0  0  0  0  0  0  0  0
  1  9  1  0  0  0  0
  2  1  1  0  0  0  0
  2 10  1  0  0  0  0
  3 11  1  6  0  0  0
  3  7  1  0  0  0  0
  3  2  1  0  0  0  0
  4  5  1  0  0  0  0
  4  3  1  0  0  0  0
  5  6  1  0  0  0  0
  6 14  1  1  0  0  0
  6  1  1  0  0  0  0
  7  8  1  0  0  0  0
  7 15  1  0  0  0  0
  8  6  1  0  0  0  0
  8 18  1  0  0  0  0
 12  4  1  0  0  0  0
 13  5  1  0  0  0  0
 16  7  1  0  0  0  0
 17  8  1  0  0  0  0
M  END
