2,25
 OpenBabel05122313053D

 35 36  0  0  0  0  0  0  0  0999 V2000
   -2.2235    0.4346    1.2302 N   0  0  0  0  0  0  0  0  0  0  0  0
   -1.4343    0.2256    0.1344 C   0  0  0  0  0  2  0  0  0  0  0  0
   -1.8118    1.1708   -0.7783 N   0  0  0  0  0  0  0  0  0  0  0  0
   -3.0961    1.4980    1.0159 C   0  0  0  0  0  0  0  0  0  0  0  0
    2.2241    0.4345    1.2301 N   0  0  0  0  0  0  0  0  0  0  0  0
   -2.8334    1.9725   -0.2684 C   0  0  0  0  0  0  0  0  0  0  0  0
    1.8121    1.1703   -0.7784 N   0  0  0  0  0  0  0  0  0  0  0  0
   -2.2041   -0.4226    2.4111 C   0  0  0  0  0  0  0  0  0  0  0  0
   -1.2632   -0.2714    2.9743 H   0  0  0  0  0  0  0  0  0  0  0  0
   -2.2629   -1.4748    2.0648 H   0  0  0  0  0  0  0  0  0  0  0  0
   -3.0665   -0.1719    3.0542 H   0  0  0  0  0  0  0  0  0  0  0  0
   -4.8093    2.3118    2.7790 N   0  0  0  0  0  0  0  0  0  0  0  0
   -1.3123    1.2379   -2.1549 C   0  0  0  0  0  0  0  0  0  0  0  0
   -2.1121    1.7218   -2.7478 H   0  0  0  0  0  0  0  0  0  0  0  0
   -1.2189    0.1900   -2.5054 H   0  0  0  0  0  0  0  0  0  0  0  0
   -3.8977    3.9136   -1.6104 N   0  0  0  0  0  0  0  0  0  0  0  0
    0.0002    2.0085   -2.3637 C   0  0  0  0  0  0  0  0  0  0  0  0
    0.0003    2.3226   -3.4279 H   0  0  0  0  0  0  0  0  0  0  0  0
    0.0005    2.9510   -1.7771 H   0  0  0  0  0  0  0  0  0  0  0  0
    4.8095    2.3124    2.7786 N   0  0  0  0  0  0  0  0  0  0  0  0
    1.3124    1.2373   -2.1549 C   0  0  0  0  0  0  0  0  0  0  0  0
    1.2183    0.1892   -2.5049 H   0  0  0  0  0  0  0  0  0  0  0  0
    2.1124    1.7203   -2.7482 H   0  0  0  0  0  0  0  0  0  0  0  0
    3.8973    3.9135   -1.6111 N   0  0  0  0  0  0  0  0  0  0  0  0
    1.4349    0.2251    0.1345 C   0  0  0  0  0  2  0  0  0  0  0  0
    3.0965    1.4980    1.0157 C   0  0  0  0  0  0  0  0  0  0  0  0
    2.8337    1.9722   -0.2687 C   0  0  0  0  0  0  0  0  0  0  0  0
    2.2049   -0.4227    2.4111 C   0  0  0  0  0  0  0  0  0  0  0  0
    1.2638   -0.2721    2.9740 H   0  0  0  0  0  0  0  0  0  0  0  0
    3.0670   -0.1714    3.0544 H   0  0  0  0  0  0  0  0  0  0  0  0
    2.2644   -1.4749    2.0649 H   0  0  0  0  0  0  0  0  0  0  0  0
   -4.0380    1.9511    1.9697 C   0  0  0  0  0  0  0  0  0  0  0  0
   -3.4293    3.0348   -0.9864 C   0  0  0  0  0  0  0  0  0  0  0  0
    4.0382    1.9515    1.9694 C   0  0  0  0  0  0  0  0  0  0  0  0
    3.4292    3.0346   -0.9869 C   0  0  0  0  0  0  0  0  0  0  0  0
  1  8  1  0  0  0  0
  2  1  1  0  0  0  0
  3  6  1  0  0  0  0
  3  2  1  0  0  0  0
  4  1  1  0  0  0  0
  4 32  1  0  0  0  0
  5 28  1  0  0  0  0
  6  4  2  0  0  0  0
  7 27  1  0  0  0  0
  7 25  1  0  0  0  0
  8  9  1  0  0  0  0
  8 11  1  0  0  0  0
 10  8  1  0  0  0  0
 13  3  1  0  0  0  0
 14 13  1  0  0  0  0
 15 13  1  0  0  0  0
 16 33  3  0  0  0  0
 17 21  1  0  0  0  0
 17 13  1  0  0  0  0
 17 19  1  0  0  0  0
 18 17  1  0  0  0  0
 21  7  1  0  0  0  0
 22 21  1  0  0  0  0
 23 21  1  0  0  0  0
 24 35  3  0  0  0  0
 25  5  1  0  0  0  0
 26  5  1  0  0  0  0
 26 34  1  0  0  0  0
 27 26  2  0  0  0  0
 28 29  1  0  0  0  0
 28 30  1  0  0  0  0
 31 28  1  0  0  0  0
 32 12  3  0  0  0  0
 33  6  1  0  0  0  0
 34 20  3  0  0  0  0
 35 27  1  0  0  0  0
M  END
