3,9
 OpenBabel05122313053D

 19 20  0  0  1  0  0  0  0  0999 V2000
   -1.2669   -0.1958   -0.5234 C   0  0  0  0  0  0  0  0  0  0  0  0
   -1.0284    2.1810   -0.7273 F   0  0  0  0  0  0  0  0  0  0  0  0
    0.8580   -1.6869   -0.7782 C   0  0  0  0  0  3  0  0  0  0  0  0
    0.5131   -2.5608   -0.2184 H   0  0  0  0  0  0  0  0  0  0  0  0
   -1.7941   -2.5186   -0.2211 F   0  0  0  0  0  0  0  0  0  0  0  0
    0.0973   -0.4717   -0.9946 C   0  0  1  0  0  3  0  0  0  0  0  0
   -4.2810   -1.8997    0.6238 F   0  0  0  0  0  0  0  0  0  0  0  0
   -2.1598   -1.2291   -0.1545 C   0  0  0  0  0  0  0  0  0  0  0  0
    0.9424    0.4101   -1.7701 C   0  0  0  0  0  3  0  0  0  0  0  0
    0.6702    1.4158   -2.1039 H   0  0  0  0  0  0  0  0  0  0  0  0
   -3.1001    1.3167    0.0282 C   0  0  0  0  0  0  0  0  0  0  0  0
   -3.5659    2.5626    0.1221 F   0  0  0  0  0  0  0  0  0  0  0  0
    2.1715   -0.2568   -2.0448 C   0  0  0  0  0  0  0  0  0  0  0  0
    3.0083    0.1540   -2.6206 H   0  0  0  0  0  0  0  0  0  0  0  0
   -1.7859    1.1165   -0.4211 C   0  0  0  0  0  0  0  0  0  0  0  0
   -3.9045    0.3274    0.3663 N   0  0  0  0  0  0  0  0  0  0  0  0
    2.1195   -1.5521   -1.4226 C   0  0  0  0  0  0  0  0  0  0  0  0
    2.9135   -2.3077   -1.4355 H   0  0  0  0  0  0  0  0  0  0  0  0
   -3.4562   -0.9088    0.2822 C   0  0  0  0  0  0  0  0  0  0  0  0
  1 15  2  0  0  0  0
  1  8  1  0  0  0  0
  2 15  1  0  0  0  0
  3  4  1  0  0  0  0
  5  8  1  0  0  0  0
  6  3  1  0  0  0  0
  6  1  1  6  0  0  0
  8 19  2  0  0  0  0
  9  6  1  0  0  0  0
 10  9  1  0  0  0  0
 11 12  1  0  0  0  0
 11 16  2  0  0  0  0
 13  9  1  0  0  0  0
 13 17  2  0  0  0  0
 14 13  1  0  0  0  0
 15 11  1  0  0  0  0
 17  3  1  0  0  0  0
 18 17  1  0  0  0  0
 19 16  1  0  0  0  0
 19  7  1  0  0  0  0
M  END
