9,12
 OpenBabel05122313053D

 40 42  0  0  1  0  0  0  0  0999 V2000
   -5.3489   -0.7606    0.3157 Cl  0  0  0  0  0  0  0  0  0  0  0  0
    5.6841    1.8398   -0.8447 Cl  0  0  0  0  0  0  0  0  0  0  0  0
   -0.4215   -2.0513   -0.7356 N   0  0  0  0  0  0  0  0  0  0  0  0
   -0.8233   -2.5797   -1.5100 H   0  0  0  0  0  0  0  0  0  0  0  0
    1.5520   -1.0869    0.3865 N   0  0  0  0  0  0  0  0  0  0  0  0
    0.7074   -0.4326    1.3602 B   0  0  0  0  0  0  0  0  0  0  0  0
    1.0111   -1.9258   -0.6673 B   0  0  0  0  0  0  0  0  0  0  0  0
   -2.7343   -1.3936   -0.2836 C   0  0  1  0  0  3  0  0  0  0  0  0
   -3.6258   -0.7266    0.6108 C   0  0  2  0  0  3  0  0  0  0  0  0
   -3.1751   -0.0498    1.7813 C   0  0  0  0  0  3  0  0  0  0  0  0
   -3.9006    0.4709    2.4182 H   0  0  0  0  0  0  0  0  0  0  0  0
   -1.7858    0.0102    2.0331 C   0  0  0  0  0  3  0  0  0  0  0  0
   -1.4276    0.5967    2.8907 H   0  0  0  0  0  0  0  0  0  0  0  0
   -0.8289   -0.6558    1.1972 C   0  0  0  0  0  0  0  0  0  0  0  0
   -1.3318   -1.3906    0.0683 C   0  0  0  0  0  0  0  0  0  0  0  0
   -3.2100   -2.1101   -1.5168 C   0  0  0  0  0  0  0  0  0  0  0  0
   -4.2394   -1.8042   -1.7724 H   0  0  0  0  0  0  0  0  0  0  0  0
   -3.2139   -3.2117   -1.3657 H   0  0  0  0  0  0  0  0  0  0  0  0
   -2.5669   -1.8802   -2.3898 H   0  0  0  0  0  0  0  0  0  0  0  0
    1.2872    0.4647    2.5224 C   0  0  0  0  0  0  0  0  0  0  0  0
    0.9125    1.5074    2.4308 H   0  0  0  0  0  0  0  0  0  0  0  0
    2.3925    0.5047    2.5477 H   0  0  0  0  0  0  0  0  0  0  0  0
    0.9377    0.1031    3.5135 H   0  0  0  0  0  0  0  0  0  0  0  0
    1.9204   -2.6573   -1.7266 C   0  0  0  0  0  0  0  0  0  0  0  0
    1.3484   -3.2422   -2.4740 H   0  0  0  0  0  0  0  0  0  0  0  0
    2.6438   -3.3392   -1.2333 H   0  0  0  0  0  0  0  0  0  0  0  0
    2.5412   -1.9170   -2.2748 H   0  0  0  0  0  0  0  0  0  0  0  0
    2.9738   -0.8804    0.4182 C   0  0  0  0  0  0  0  0  0  0  0  0
    3.5122    0.2804   -0.1957 C   0  0  0  0  0  0  0  0  0  0  0  0
    4.9166    0.4357   -0.1296 C   0  0  0  0  0  0  0  0  0  0  0  0
    5.7501   -0.5037    0.5000 C   0  0  0  0  0  0  0  0  0  0  0  0
    6.8348   -0.3309    0.5195 H   0  0  0  0  0  0  0  0  0  0  0  0
    5.1832   -1.6377    1.0924 C   0  0  0  0  0  0  0  0  0  0  0  0
    5.8290   -2.3758    1.5909 H   0  0  0  0  0  0  0  0  0  0  0  0
    3.7953   -1.8254    1.0525 C   0  0  0  0  0  0  0  0  0  0  0  0
    3.3282   -2.7045    1.5199 H   0  0  0  0  0  0  0  0  0  0  0  0
    2.6068    1.2795   -0.8617 C   0  0  0  0  0  0  0  0  0  0  0  0
    3.1890    2.0565   -1.3863 H   0  0  0  0  0  0  0  0  0  0  0  0
    1.9530    1.7857   -0.1206 H   0  0  0  0  0  0  0  0  0  0  0  0
    1.9281    0.7931   -1.5899 H   0  0  0  0  0  0  0  0  0  0  0  0
  2 30  1  0  0  0  0
  3  7  1  0  0  0  0
  3 15  1  0  0  0  0
  4  3  1  0  0  0  0
  5 28  1  0  0  0  0
  5  6  1  0  0  0  0
  6 20  1  0  0  0  0
  7  5  1  0  0  0  0
  8 16  1  1  0  0  0
  8 15  1  0  0  0  0
  8  9  1  0  0  0  0
  9  1  1  1  0  0  0
  9 10  1  0  0  0  0
 10 12  1  0  0  0  0
 10 11  1  0  0  0  0
 12 13  1  0  0  0  0
 14  6  1  0  0  0  0
 14 12  1  0  0  0  0
 15 14  2  0  0  0  0
 16 18  1  0  0  0  0
 17 16  1  0  0  0  0
 19 16  1  0  0  0  0
 20 22  1  0  0  0  0
 20 23  1  0  0  0  0
 21 20  1  0  0  0  0
 24 26  1  0  0  0  0
 24  7  1  0  0  0  0
 25 24  1  0  0  0  0
 27 24  1  0  0  0  0
 28 35  1  0  0  0  0
 29 30  1  0  0  0  0
 29 28  2  0  0  0  0
 30 31  2  0  0  0  0
 31 32  1  0  0  0  0
 31 33  1  0  0  0  0
 33 34  1  0  0  0  0
 35 33  2  0  0  0  0
 35 36  1  0  0  0  0
 37 29  1  0  0  0  0
 37 39  1  0  0  0  0
 38 37  1  0  0  0  0
 40 37  1  0  0  0  0
M  END
