13,15
 OpenBabel05122313053D

 47 50  0  0  1  0  0  0  0  0999 V2000
    6.3442   -0.3935   -0.5168 F   0  0  0  0  0  0  0  0  0  0  0  0
    0.1571   -2.0340    2.7125 N   0  0  0  0  0  0  0  0  0  0  0  0
    1.3751    2.0451   -0.2331 N   0  0  0  0  0  0  0  0  0  0  0  0
   -3.8857   -0.9700    0.0885 O   0  0  0  0  0  0  0  0  0  0  0  0
   -2.8761    0.7799   -1.0240 O   0  0  0  0  0  0  0  0  0  0  0  0
    1.5118    4.1241    0.9352 O   0  0  0  0  0  0  0  0  0  0  0  0
   -1.5113    3.0064    0.6958 O   0  0  0  0  0  0  0  0  0  0  0  0
   -2.8823    4.1903   -0.6944 O   0  0  0  0  0  0  0  0  0  0  0  0
   -3.9280   -0.1891   -1.1174 C   0  0  0  0  0  0  0  0  0  0  0  0
   -3.7265   -0.8613   -1.9862 H   0  0  0  0  0  0  0  0  0  0  0  0
   -4.9033    0.3253   -1.1948 H   0  0  0  0  0  0  0  0  0  0  0  0
   -2.5704   -0.9095    0.4616 C   0  0  0  0  0  0  0  0  0  0  0  0
   -1.9504    0.1511   -0.2277 C   0  0  2  0  0  3  0  0  0  0  0  0
   -0.5900    0.4732   -0.0045 C   0  0  2  0  0  3  0  0  0  0  0  0
    0.0891   -0.2969    0.9838 C   0  0  0  0  0  3  0  0  0  0  0  0
    1.1463   -0.0745    1.1522 H   0  0  0  0  0  0  0  0  0  0  0  0
   -0.5454   -1.3488    1.7465 C   0  0  1  0  0  3  0  0  0  0  0  0
   -1.8933   -1.7183    1.4034 C   0  0  0  0  0  0  0  0  0  0  0  0
   -0.3613   -3.3138    3.1674 C   0  0  0  0  0  0  0  0  0  0  0  0
    0.3219   -3.7324    3.9275 H   0  0  0  0  0  0  0  0  0  0  0  0
   -0.4542   -4.0471    2.3324 H   0  0  0  0  0  0  0  0  0  0  0  0
   -1.3567   -3.1985    3.6432 H   0  0  0  0  0  0  0  0  0  0  0  0
    1.5845   -1.7889    2.8672 C   0  0  0  0  0  0  0  0  0  0  0  0
    1.9477   -2.3462    3.7494 H   0  0  0  0  0  0  0  0  0  0  0  0
    1.7846   -0.7148    3.0507 H   0  0  0  0  0  0  0  0  0  0  0  0
    2.1752   -2.1115    1.9796 H   0  0  0  0  0  0  0  0  0  0  0  0
    0.0535    1.6311   -0.7294 C   0  0  1  0  0  0  0  0  0  0  0  0
   -0.4770    3.0381   -0.2627 C   0  0  2  0  0  0  0  0  0  0  0  0
   -0.7515    3.7130   -1.0994 H   0  0  0  0  0  0  0  0  0  0  0  0
    0.9422    3.2599    0.3034 C   0  0  0  0  0  0  0  0  0  0  0  0
    2.6370    1.4377   -0.3285 C   0  0  0  0  0  0  0  0  0  0  0  0
    2.7862    0.2117   -1.0109 C   0  0  0  0  0  0  0  0  0  0  0  0
    1.9180   -0.2711   -1.4784 H   0  0  0  0  0  0  0  0  0  0  0  0
    4.0391   -0.4104   -1.0733 C   0  0  0  0  0  0  0  0  0  0  0  0
    4.1645   -1.3740   -1.5866 H   0  0  0  0  0  0  0  0  0  0  0  0
    5.1389    0.2034   -0.4624 C   0  0  0  0  0  0  0  0  0  0  0  0
    5.0094    1.4267    0.2094 C   0  0  0  0  0  0  0  0  0  0  0  0
    5.8956    1.8811    0.6750 H   0  0  0  0  0  0  0  0  0  0  0  0
    3.7574    2.0478    0.2823 C   0  0  0  0  0  0  0  0  0  0  0  0
    3.6268    3.0027    0.8089 H   0  0  0  0  0  0  0  0  0  0  0  0
   -2.7149    3.5790    0.3364 C   0  0  0  0  0  0  0  0  0  0  0  0
   -3.7472    3.2978    1.3949 C   0  0  0  0  0  0  0  0  0  0  0  0
   -3.3197    3.4229    2.4074 H   0  0  0  0  0  0  0  0  0  0  0  0
   -4.0671    2.2396    1.2982 H   0  0  0  0  0  0  0  0  0  0  0  0
   -4.6206    3.9565    1.2503 H   0  0  0  0  0  0  0  0  0  0  0  0
   -2.4104   -2.5651    1.8636 H   0  0  0  0  0  0  0  0  0  0  0  0
    0.0167    1.4790   -1.8287 H   0  0  0  0  0  0  0  0  0  0  0  0
  1 36  1  0  0  0  0
  2 23  1  0  0  0  0
  2 19  1  0  0  0  0
  3 30  1  0  0  0  0
  4 12  1  0  0  0  0
  8 41  2  0  0  0  0
  9  5  1  0  0  0  0
  9  4  1  0  0  0  0
 10  9  1  0  0  0  0
 11  9  1  0  0  0  0
 12 18  2  0  0  0  0
 13  5  1  1  0  0  0
 13 14  1  0  0  0  0
 13 12  1  0  0  0  0
 14 15  1  1  0  0  0
 15 16  1  0  0  0  0
 15 17  1  0  0  0  0
 17  2  1  6  0  0  0
 18 17  1  0  0  0  0
 18 46  1  0  0  0  0
 19 22  1  0  0  0  0
 19 20  1  0  0  0  0
 21 19  1  0  0  0  0
 23 25  1  0  0  0  0
 23 24  1  0  0  0  0
 26 23  1  0  0  0  0
 27 47  1  6  0  0  0
 27 28  1  0  0  0  0
 27  3  1  0  0  0  0
 27 14  1  0  0  0  0
 28 29  1  6  0  0  0
 28 30  1  0  0  0  0
 28  7  1  0  0  0  0
 30  6  2  0  0  0  0
 31  3  1  0  0  0  0
 31 39  1  0  0  0  0
 32 31  2  0  0  0  0
 33 32  1  0  0  0  0
 34 32  1  0  0  0  0
 34 36  2  0  0  0  0
 35 34  1  0  0  0  0
 36 37  1  0  0  0  0
 37 39  2  0  0  0  0
 37 38  1  0  0  0  0
 39 40  1  0  0  0  0
 41  7  1  0  0  0  0
 41 42  1  0  0  0  0
 42 43  1  0  0  0  0
 44 42  1  0  0  0  0
 45 42  1  0  0  0  0
M  END
