4,8
 OpenBabel05122313053D

 13 12  0  0  1  0  0  0  0  0999 V2000
   -0.3320    3.3100    2.7142 Cl  0  0  0  0  0  0  0  0  0  0  0  0
    0.0699    3.4743   -2.7683 Cl  0  0  0  0  0  0  0  0  0  0  0  0
   -0.0154    0.2470    2.0064 O   0  0  0  0  0  0  0  0  0  0  0  0
   -0.0605    1.1485    1.1350 C   0  0  0  0  0  3  0  0  0  0  0  0
   -0.1717    2.5403    1.1445 C   0  0  2  0  0  3  0  0  0  0  0  0
   -0.1482    3.2623   -0.0600 C   0  0  0  0  0  0  0  0  0  0  0  0
    0.0059    2.5202   -1.2711 C   0  0  0  0  0  0  0  0  0  0  0  0
    0.0688    1.1446   -1.4018 C   0  0  0  0  0  2  0  0  0  0  0  0
    0.1350    0.8150   -2.4493 H   0  0  0  0  0  0  0  0  0  0  0  0
   -0.2852    4.7510   -0.0862 C   0  0  0  0  0  0  0  0  0  0  0  0
   -0.3821    5.1698    0.9302 H   0  0  0  0  0  0  0  0  0  0  0  0
   -1.1741    5.0302   -0.6896 H   0  0  0  0  0  0  0  0  0  0  0  0
    0.5849    5.2081   -0.6001 H   0  0  0  0  0  0  0  0  0  0  0  0
  2  7  1  0  0  0  0
  4  5  1  0  0  0  0
  4  3  2  0  0  0  0
  5  1  1  1  0  0  0
  6  5  1  0  0  0  0
  7  6  2  0  0  0  0
  8  7  1  0  0  0  0
  9  8  1  0  0  0  0
 10  6  1  0  0  0  0
 10 11  1  0  0  0  0
 12 10  1  0  0  0  0
 13 10  1  0  0  0  0
M  END
