6,8
 OpenBabel05122313053D

 41 42  0  0  1  0  0  0  0  0999 V2000
    0.8385    0.0127    2.3045 O   0  0  0  0  0  0  0  0  0  0  0  0
    0.0201    2.6127   -0.1767 O   0  0  0  0  0  0  0  0  0  0  0  0
    0.8249    1.4303    0.0077 N   0  0  0  0  0  0  0  0  0  0  0  0
    0.0474   -0.9477    0.1880 C   0  0  0  0  0  0  0  0  0  0  0  0
    0.0924    0.3006   -0.5272 C   0  0  1  0  0  3  0  0  0  0  0  0
   -0.6131    0.4445   -1.7623 C   0  0  0  0  0  3  0  0  0  0  0  0
   -1.3000   -0.6465   -2.3527 C   0  0  0  0  0  3  0  0  0  0  0  0
   -1.3263   -1.8857   -1.6568 C   0  0  0  0  0  3  0  0  0  0  0  0
   -0.6406   -2.0419   -0.4229 C   0  0  0  0  0  0  0  0  0  0  0  0
    0.8046   -1.1482    1.5059 C   0  0  2  0  0  0  0  0  0  0  0  0
    0.2901   -2.2942    2.3729 C   0  0  0  0  0  0  0  0  0  0  0  0
   -0.4874    3.0451    1.0809 C   0  0  0  0  0  0  0  0  0  0  0  0
    2.1167    1.6729   -0.7079 C   0  0  1  0  0  0  0  0  0  0  0  0
    2.7691    2.9539   -0.1905 C   0  0  0  0  0  0  0  0  0  0  0  0
    2.9984    0.4403   -0.5659 C   0  0  0  0  0  0  0  0  0  0  0  0
    3.7552    0.2138    0.6013 C   0  0  0  0  0  0  0  0  0  0  0  0
    4.5405   -0.9411    0.7294 C   0  0  0  0  0  0  0  0  0  0  0  0
    4.5777   -1.8890   -0.3060 C   0  0  0  0  0  0  0  0  0  0  0  0
    3.8264   -1.6741   -1.4719 C   0  0  0  0  0  0  0  0  0  0  0  0
    3.0453   -0.5158   -1.5985 C   0  0  0  0  0  0  0  0  0  0  0  0
    0.9687    0.7651    1.6689 H   0  0  0  0  0  0  0  0  0  0  0  0
   -0.6346    1.4379   -2.2300 H   0  0  0  0  0  0  0  0  0  0  0  0
   -1.8636   -0.5126   -3.2852 H   0  0  0  0  0  0  0  0  0  0  0  0
   -1.9089   -2.7262   -2.0600 H   0  0  0  0  0  0  0  0  0  0  0  0
   -0.7142   -2.9964    0.1111 H   0  0  0  0  0  0  0  0  0  0  0  0
    1.8383   -1.4268    1.1698 H   0  0  0  0  0  0  0  0  0  0  0  0
    0.4375   -3.2820    1.8958 H   0  0  0  0  0  0  0  0  0  0  0  0
   -0.7787   -2.1618    2.6282 H   0  0  0  0  0  0  0  0  0  0  0  0
    0.8689   -2.2851    3.3160 H   0  0  0  0  0  0  0  0  0  0  0  0
   -1.2092    3.8499    0.8434 H   0  0  0  0  0  0  0  0  0  0  0  0
    0.3220    3.4414    1.7335 H   0  0  0  0  0  0  0  0  0  0  0  0
   -1.0211    2.2263    1.6068 H   0  0  0  0  0  0  0  0  0  0  0  0
    1.8891    1.8047   -1.7930 H   0  0  0  0  0  0  0  0  0  0  0  0
    3.7512    3.0952   -0.6814 H   0  0  0  0  0  0  0  0  0  0  0  0
    2.1296    3.8273   -0.4110 H   0  0  0  0  0  0  0  0  0  0  0  0
    2.9319    2.9115    0.9046 H   0  0  0  0  0  0  0  0  0  0  0  0
    3.7146    0.9329    1.4318 H   0  0  0  0  0  0  0  0  0  0  0  0
    5.1223   -1.1051    1.6489 H   0  0  0  0  0  0  0  0  0  0  0  0
    5.1927   -2.7959   -0.2033 H   0  0  0  0  0  0  0  0  0  0  0  0
    3.8492   -2.4114   -2.2886 H   0  0  0  0  0  0  0  0  0  0  0  0
    2.4510   -0.3509   -2.5109 H   0  0  0  0  0  0  0  0  0  0  0  0
  2  3  1  0  0  0  0
  2 12  1  0  0  0  0
  4 10  1  0  0  0  0
  5  3  1  1  0  0  0
  5  4  1  0  0  0  0
  6  5  1  0  0  0  0
  7  6  1  0  0  0  0
  7  8  1  0  0  0  0
  8  9  1  0  0  0  0
  9 25  1  0  0  0  0
  9  4  2  0  0  0  0
 10 26  1  6  0  0  0
 10  1  1  0  0  0  0
 10 11  1  0  0  0  0
 11 28  1  0  0  0  0
 11 29  1  0  0  0  0
 12 32  1  0  0  0  0
 12 31  1  0  0  0  0
 13 33  1  6  0  0  0
 13 15  1  0  0  0  0
 13 14  1  0  0  0  0
 13  3  1  0  0  0  0
 14 36  1  0  0  0  0
 15 16  1  0  0  0  0
 16 17  2  0  0  0  0
 16 37  1  0  0  0  0
 17 38  1  0  0  0  0
 18 39  1  0  0  0  0
 18 17  1  0  0  0  0
 19 18  2  0  0  0  0
 20 19  1  0  0  0  0
 20 15  2  0  0  0  0
 21  1  1  0  0  0  0
 22  6  1  0  0  0  0
 23  7  1  0  0  0  0
 24  8  1  0  0  0  0
 27 11  1  0  0  0  0
 30 12  1  0  0  0  0
 34 14  1  0  0  0  0
 35 14  1  0  0  0  0
 40 19  1  0  0  0  0
 41 20  1  0  0  0  0
M  END
