5,20
 OpenBabel05122313053D

 31 34  0  0  0  0  0  0  0  0999 V2000
    2.5082    1.4091    0.3255 N   0  0  0  0  0  0  0  0  0  0  0  0
    1.1880    2.0280   -1.2629 N   0  0  0  0  0  0  0  0  0  0  0  0
   -2.5082    1.4090    0.3256 N   0  0  0  0  0  0  0  0  0  0  0  0
   -1.1882    2.0279   -1.2629 N   0  0  0  0  0  0  0  0  0  0  0  0
    1.3570    1.0391   -0.3310 C   0  0  0  0  0  2  0  0  0  0  0  0
    3.0504    2.6088   -0.2156 C   0  0  0  0  0  0  0  0  0  0  0  0
    2.1819    2.9948   -1.2252 C   0  0  0  0  0  0  0  0  0  0  0  0
    2.2148    3.8476   -1.9079 H   0  0  0  0  0  0  0  0  0  0  0  0
   -0.0001    2.0343   -2.1035 C   0  0  0  0  0  0  0  0  0  0  0  0
   -0.0001    1.1219   -2.7328 H   0  0  0  0  0  0  0  0  0  0  0  0
   -0.0001    2.9380   -2.7382 H   0  0  0  0  0  0  0  0  0  0  0  0
    3.1133    0.7550    1.3890 C   0  0  0  0  0  0  0  0  0  0  0  0
    2.6157   -0.1722    1.7070 H   0  0  0  0  0  0  0  0  0  0  0  0
    4.2674    1.2706    1.9188 C   0  0  0  0  0  0  0  0  0  0  0  0
    4.7415    0.7431    2.7572 H   0  0  0  0  0  0  0  0  0  0  0  0
    4.8520    2.4696    1.3882 C   0  0  0  0  0  0  0  0  0  0  0  0
    5.7809    2.8596    1.8286 H   0  0  0  0  0  0  0  0  0  0  0  0
    4.2556    3.1320    0.3375 C   0  0  0  0  0  0  0  0  0  0  0  0
    4.6780    4.0537   -0.0858 H   0  0  0  0  0  0  0  0  0  0  0  0
   -1.3571    1.0390   -0.3310 C   0  0  0  0  0  2  0  0  0  0  0  0
   -3.0506    2.6086   -0.2157 C   0  0  0  0  0  0  0  0  0  0  0  0
   -2.1823    2.9946   -1.2254 C   0  0  0  0  0  0  0  0  0  0  0  0
   -2.2152    3.8473   -1.9081 H   0  0  0  0  0  0  0  0  0  0  0  0
   -3.1132    0.7550    1.3892 C   0  0  0  0  0  0  0  0  0  0  0  0
   -2.6156   -0.1721    1.7072 H   0  0  0  0  0  0  0  0  0  0  0  0
   -4.2674    1.2706    1.9190 C   0  0  0  0  0  0  0  0  0  0  0  0
   -4.7413    0.7431    2.7576 H   0  0  0  0  0  0  0  0  0  0  0  0
   -4.8521    2.4694    1.3883 C   0  0  0  0  0  0  0  0  0  0  0  0
   -5.7810    2.8595    1.8288 H   0  0  0  0  0  0  0  0  0  0  0  0
   -4.2558    3.1318    0.3374 C   0  0  0  0  0  0  0  0  0  0  0  0
   -4.6784    4.0534   -0.0859 H   0  0  0  0  0  0  0  0  0  0  0  0
  1 12  1  0  0  0  0
  2  7  1  0  0  0  0
  2  5  1  0  0  0  0
  3 24  1  0  0  0  0
  4 22  1  0  0  0  0
  4 20  1  0  0  0  0
  5  1  1  0  0  0  0
  6  1  1  0  0  0  0
  6 18  1  0  0  0  0
  7  6  2  0  0  0  0
  8  7  1  0  0  0  0
  9  4  1  0  0  0  0
  9  2  1  0  0  0  0
 10  9  1  0  0  0  0
 11  9  1  0  0  0  0
 12 13  1  0  0  0  0
 12 14  2  0  0  0  0
 14 15  1  0  0  0  0
 16 17  1  0  0  0  0
 16 14  1  0  0  0  0
 18 16  2  0  0  0  0
 19 18  1  0  0  0  0
 20  3  1  0  0  0  0
 21  3  1  0  0  0  0
 21 30  1  0  0  0  0
 22 21  2  0  0  0  0
 23 22  1  0  0  0  0
 24 25  1  0  0  0  0
 24 26  2  0  0  0  0
 26 27  1  0  0  0  0
 28 29  1  0  0  0  0
 28 26  1  0  0  0  0
 30 28  2  0  0  0  0
 31 30  1  0  0  0  0
M  END
