2,15
 OpenBabel05122313053D

 64 65  0  0  1  0  0  0  0  0999 V2000
    1.3235   -1.4562    1.5158 C   0  0  1  0  0  3  0  0  0  0  0  0
    2.5401   -1.2964    0.7783 C   0  0  2  0  0  3  0  0  0  0  0  0
    2.3463   -1.8757   -0.5239 C   0  0  0  0  0  0  0  0  0  0  0  0
    1.0158   -2.3789   -0.5904 C   0  0  0  0  0  0  0  0  0  0  0  0
    0.3502   -2.0540    0.6406 C   0  0  1  0  0  3  0  0  0  0  0  0
   -1.0066   -2.5974    1.0301 C   0  0  0  0  0  0  0  0  0  0  0  0
   -2.1582   -2.1915    0.1427 C   0  0  0  0  0  0  0  0  0  0  0  0
   -3.4020   -1.8919    0.5690 C   0  0  0  0  0  0  0  0  0  0  0  0
   -4.5646   -1.5084   -0.3069 C   0  0  0  0  0  0  0  0  0  0  0  0
   -5.3520   -0.2386    0.1079 C   0  0  0  0  0  0  0  0  0  0  0  0
   -4.9180    1.1287   -0.4590 C   0  0  0  0  0  0  0  0  0  0  0  0
   -3.6021    1.7342    0.0567 C   0  0  0  0  0  0  0  0  0  0  0  0
   -2.3591    1.1424   -0.6271 C   0  0  0  0  0  0  0  0  0  0  0  0
   -1.0357    1.5262   -0.0257 C   0  0  0  0  0  0  0  0  0  0  0  0
   -0.5772    1.1709    1.2848 C   0  0  1  0  0  3  0  0  0  0  0  0
    0.7093    1.7873    1.4859 C   0  0  0  0  0  0  0  0  0  0  0  0
    1.0184    2.5461    0.3168 C   0  0  0  0  0  0  0  0  0  0  0  0
   -0.0369    2.3657   -0.6299 C   0  0  0  0  0  0  0  0  0  0  0  0
    1.2566   -1.4256    3.0135 C   0  0  0  0  0  0  0  0  0  0  0  0
    3.8484   -0.8121    1.3254 C   0  0  0  0  0  0  0  0  0  0  0  0
    3.3891   -2.0836   -1.5767 C   0  0  0  0  0  0  0  0  0  0  0  0
    0.4769   -3.2399   -1.6865 C   0  0  0  0  0  0  0  0  0  0  0  0
   -1.4273    0.5770    2.3666 C   0  0  0  0  0  0  0  0  0  0  0  0
    1.4620    1.9316    2.7758 C   0  0  0  0  0  0  0  0  0  0  0  0
    2.1582    3.5060    0.2054 C   0  0  0  0  0  0  0  0  0  0  0  0
   -0.0949    3.0192   -1.9741 C   0  0  0  0  0  0  0  0  0  0  0  0
   -0.9198   -3.7114    1.0054 H   0  0  0  0  0  0  0  0  0  0  0  0
   -1.2389   -2.3486    2.0844 H   0  0  0  0  0  0  0  0  0  0  0  0
   -1.9394   -2.1254   -0.9376 H   0  0  0  0  0  0  0  0  0  0  0  0
   -3.6185   -1.9398    1.6550 H   0  0  0  0  0  0  0  0  0  0  0  0
   -5.2838   -2.3588   -0.2824 H   0  0  0  0  0  0  0  0  0  0  0  0
   -4.2331   -1.4285   -1.3649 H   0  0  0  0  0  0  0  0  0  0  0  0
   -5.3816   -0.1792    1.2197 H   0  0  0  0  0  0  0  0  0  0  0  0
   -6.4074   -0.3894   -0.2029 H   0  0  0  0  0  0  0  0  0  0  0  0
   -4.8821    1.0670   -1.5704 H   0  0  0  0  0  0  0  0  0  0  0  0
   -5.7393    1.8414   -0.2302 H   0  0  0  0  0  0  0  0  0  0  0  0
   -3.5509    1.5921    1.1564 H   0  0  0  0  0  0  0  0  0  0  0  0
   -3.6150    2.8341   -0.1014 H   0  0  0  0  0  0  0  0  0  0  0  0
   -2.3658    1.4198   -1.6989 H   0  0  0  0  0  0  0  0  0  0  0  0
   -2.4329    0.0433   -0.6110 H   0  0  0  0  0  0  0  0  0  0  0  0
    1.7745   -0.5588    3.4593 H   0  0  0  0  0  0  0  0  0  0  0  0
    1.7669   -2.3345    3.4017 H   0  0  0  0  0  0  0  0  0  0  0  0
    0.2235   -1.4536    3.4022 H   0  0  0  0  0  0  0  0  0  0  0  0
    4.5046   -1.6688    1.5932 H   0  0  0  0  0  0  0  0  0  0  0  0
    4.3818   -0.1912    0.5795 H   0  0  0  0  0  0  0  0  0  0  0  0
    3.7148   -0.2037    2.2405 H   0  0  0  0  0  0  0  0  0  0  0  0
    4.2488   -1.4046   -1.4383 H   0  0  0  0  0  0  0  0  0  0  0  0
    2.9806   -1.9004   -2.5893 H   0  0  0  0  0  0  0  0  0  0  0  0
    3.7633   -3.1306   -1.5416 H   0  0  0  0  0  0  0  0  0  0  0  0
   -0.0356   -2.6308   -2.4625 H   0  0  0  0  0  0  0  0  0  0  0  0
    1.2969   -3.7909   -2.1865 H   0  0  0  0  0  0  0  0  0  0  0  0
   -0.2486   -3.9807   -1.2961 H   0  0  0  0  0  0  0  0  0  0  0  0
   -0.8298    0.1157    3.1704 H   0  0  0  0  0  0  0  0  0  0  0  0
   -2.0308    1.3812    2.8412 H   0  0  0  0  0  0  0  0  0  0  0  0
   -2.1338   -0.1746    1.9740 H   0  0  0  0  0  0  0  0  0  0  0  0
    0.9870    1.3759    3.6038 H   0  0  0  0  0  0  0  0  0  0  0  0
    1.4905    3.0013    3.0749 H   0  0  0  0  0  0  0  0  0  0  0  0
    2.5176    1.6009    2.6965 H   0  0  0  0  0  0  0  0  0  0  0  0
    2.3827    3.7581   -0.8463 H   0  0  0  0  0  0  0  0  0  0  0  0
    3.0846    3.1004    0.6542 H   0  0  0  0  0  0  0  0  0  0  0  0
    1.9008    4.4474    0.7409 H   0  0  0  0  0  0  0  0  0  0  0  0
    0.9010    2.9975   -2.4594 H   0  0  0  0  0  0  0  0  0  0  0  0
   -0.4107    4.0809   -1.8833 H   0  0  0  0  0  0  0  0  0  0  0  0
   -0.8008    2.4999   -2.6472 H   0  0  0  0  0  0  0  0  0  0  0  0
  1 19  1  1  0  0  0
  2 20  1  1  0  0  0
  2  1  1  0  0  0  0
  3  2  1  0  0  0  0
  4  3  2  0  0  0  0
  4  5  1  0  0  0  0
  5  6  1  1  0  0  0
  5  1  1  0  0  0  0
  6 28  1  0  0  0  0
  7  8  2  0  0  0  0
  7  6  1  0  0  0  0
  8 30  1  0  0  0  0
  9 31  1  0  0  0  0
  9 10  1  0  0  0  0
  9  8  1  0  0  0  0
 10 33  1  0  0  0  0
 11 36  1  0  0  0  0
 11 12  1  0  0  0  0
 11 10  1  0  0  0  0
 12 37  1  0  0  0  0
 13 40  1  0  0  0  0
 13 14  1  0  0  0  0
 13 12  1  0  0  0  0
 14 15  1  0  0  0  0
 15 16  1  0  0  0  0
 15 23  1  1  0  0  0
 16 24  1  0  0  0  0
 17 16  2  0  0  0  0
 18 14  2  0  0  0  0
 18 17  1  0  0  0  0
 19 42  1  0  0  0  0
 19 43  1  0  0  0  0
 19 41  1  0  0  0  0
 20 44  1  0  0  0  0
 20 46  1  0  0  0  0
 21 49  1  0  0  0  0
 21 47  1  0  0  0  0
 21  3  1  0  0  0  0
 22 52  1  0  0  0  0
 22  4  1  0  0  0  0
 23 54  1  0  0  0  0
 23 53  1  0  0  0  0
 24 57  1  0  0  0  0
 24 56  1  0  0  0  0
 25 17  1  0  0  0  0
 25 60  1  0  0  0  0
 25 61  1  0  0  0  0
 26 63  1  0  0  0  0
 26 18  1  0  0  0  0
 27  6  1  0  0  0  0
 29  7  1  0  0  0  0
 32  9  1  0  0  0  0
 34 10  1  0  0  0  0
 35 11  1  0  0  0  0
 38 12  1  0  0  0  0
 39 13  1  0  0  0  0
 45 20  1  0  0  0  0
 48 21  1  0  0  0  0
 50 22  1  0  0  0  0
 51 22  1  0  0  0  0
 55 23  1  0  0  0  0
 58 24  1  0  0  0  0
 59 25  1  0  0  0  0
 62 26  1  0  0  0  0
 64 26  1  0  0  0  0
M  END
