7,8
 OpenBabel05122313053D

 44 45  0  0  0  0  0  0  0  0999 V2000
    0.1641    2.6586   -0.8363 N   0  0  0  0  0  0  0  0  0  0  0  0
    1.9349    3.0515    0.4427 N   0  0  0  0  0  0  0  0  0  0  0  0
    1.6191    1.7241    0.4211 N   0  0  0  0  0  0  0  0  0  0  0  0
   -2.5950    1.4714   -0.7269 N   0  0  0  0  0  0  0  0  0  0  0  0
   -3.9750    1.1536    0.9730 N   0  0  0  0  0  0  0  0  0  0  0  0
   -2.9160    0.2839    1.0210 N   0  0  0  0  0  0  0  0  0  0  0  0
    0.5452    1.4188   -0.3554 C   0  0  0  0  0  2  0  0  0  0  0  0
   -2.0400    0.4418    0.0017 C   0  0  0  0  0  2  0  0  0  0  0  0
   -1.9939    1.9488   -1.9635 C   0  0  0  0  0  0  0  0  0  0  0  0
   -2.7867    2.3792   -2.6065 H   0  0  0  0  0  0  0  0  0  0  0  0
   -1.5718    1.0608   -2.4760 H   0  0  0  0  0  0  0  0  0  0  0  0
   -0.9181    3.0129   -1.7587 C   0  0  0  0  0  0  0  0  0  0  0  0
   -0.4826    3.2454   -2.7538 H   0  0  0  0  0  0  0  0  0  0  0  0
   -1.3789    3.9450   -1.3716 H   0  0  0  0  0  0  0  0  0  0  0  0
    1.0362    3.6039   -0.3303 C   0  0  0  0  0  0  0  0  0  0  0  0
    0.9722    4.6752   -0.5546 H   0  0  0  0  0  0  0  0  0  0  0  0
   -3.7594    1.8679   -0.1053 C   0  0  0  0  0  0  0  0  0  0  0  0
   -4.4223    2.6583   -0.4765 H   0  0  0  0  0  0  0  0  0  0  0  0
   -2.8585   -0.7102    2.0935 C   0  0  0  0  0  0  0  0  0  0  0  0
   -2.3320   -1.5872    1.6638 H   0  0  0  0  0  0  0  0  0  0  0  0
   -3.9089   -0.9999    2.2841 H   0  0  0  0  0  0  0  0  0  0  0  0
   -2.2017   -0.1804    3.3714 C   0  0  0  0  0  0  0  0  0  0  0  0
   -2.4457   -0.9007    4.1822 H   0  0  0  0  0  0  0  0  0  0  0  0
   -2.6957    0.7753    3.6501 H   0  0  0  0  0  0  0  0  0  0  0  0
   -0.6789   -0.0014    3.3004 C   0  0  0  0  0  0  0  0  0  0  0  0
   -0.3485    0.5080    4.2311 H   0  0  0  0  0  0  0  0  0  0  0  0
   -0.4251    0.6941    2.4693 H   0  0  0  0  0  0  0  0  0  0  0  0
    0.0899   -1.3137    3.1260 C   0  0  0  0  0  0  0  0  0  0  0  0
   -0.1883   -2.0472    3.9115 H   0  0  0  0  0  0  0  0  0  0  0  0
    1.1836   -1.1525    3.1985 H   0  0  0  0  0  0  0  0  0  0  0  0
   -0.1047   -1.7831    2.1388 H   0  0  0  0  0  0  0  0  0  0  0  0
    2.4441    0.7909    1.1870 C   0  0  0  0  0  0  0  0  0  0  0  0
    1.9614   -0.1980    1.0745 H   0  0  0  0  0  0  0  0  0  0  0  0
    2.3939    1.1005    2.2519 H   0  0  0  0  0  0  0  0  0  0  0  0
    3.8841    0.7378    0.6846 C   0  0  0  0  0  0  0  0  0  0  0  0
    4.3572    1.7362    0.8039 H   0  0  0  0  0  0  0  0  0  0  0  0
    3.8525    0.5029   -0.4003 H   0  0  0  0  0  0  0  0  0  0  0  0
    4.6926   -0.3368    1.4154 C   0  0  0  0  0  0  0  0  0  0  0  0
    4.6614   -0.1487    2.5125 H   0  0  0  0  0  0  0  0  0  0  0  0
    4.1974   -1.3195    1.2553 H   0  0  0  0  0  0  0  0  0  0  0  0
    6.1450   -0.4105    0.9443 C   0  0  0  0  0  0  0  0  0  0  0  0
    6.2000   -0.6378   -0.1403 H   0  0  0  0  0  0  0  0  0  0  0  0
    6.7085   -1.1998    1.4809 H   0  0  0  0  0  0  0  0  0  0  0  0
    6.6739    0.5516    1.1093 H   0  0  0  0  0  0  0  0  0  0  0  0
  1  7  1  0  0  0  0
  1 15  1  0  0  0  0
  3  2  1  0  0  0  0
  3 32  1  0  0  0  0
  4 17  1  0  0  0  0
  4  8  1  0  0  0  0
  5  6  1  0  0  0  0
  6 19  1  0  0  0  0
  7  3  1  0  0  0  0
  8  6  1  0  0  0  0
  9 12  1  0  0  0  0
  9  4  1  0  0  0  0
 10  9  1  0  0  0  0
 11  9  1  0  0  0  0
 12 14  1  0  0  0  0
 12  1  1  0  0  0  0
 13 12  1  0  0  0  0
 15  2  2  0  0  0  0
 16 15  1  0  0  0  0
 17  5  2  0  0  0  0
 18 17  1  0  0  0  0
 19 21  1  0  0  0  0
 19 22  1  0  0  0  0
 20 19  1  0  0  0  0
 22 24  1  0  0  0  0
 22 23  1  0  0  0  0
 25 22  1  0  0  0  0
 25 26  1  0  0  0  0
 27 25  1  0  0  0  0
 28 30  1  0  0  0  0
 28 25  1  0  0  0  0
 28 29  1  0  0  0  0
 31 28  1  0  0  0  0
 32 34  1  0  0  0  0
 33 32  1  0  0  0  0
 35 36  1  0  0  0  0
 35 32  1  0  0  0  0
 35 38  1  0  0  0  0
 37 35  1  0  0  0  0
 38 39  1  0  0  0  0
 40 38  1  0  0  0  0
 41 44  1  0  0  0  0
 41 38  1  0  0  0  0
 41 43  1  0  0  0  0
 42 41  1  0  0  0  0
M  END
