10,14
 OpenBabel05122313053D

 32 33  0  0  1  0  0  0  0  0999 V2000
    2.6518    0.7407   -0.0464 Si  0  0  0  0  0  0  0  0  0  0  0  0
    1.7317   -0.9786   -0.1388 C   0  0  1  0  0  0  0  0  0  0  0  0
    1.6597   -1.4307    1.2444 O   0  0  0  0  0  0  0  0  0  0  0  0
    0.4453   -2.1322    1.4872 C   0  0  0  0  0  0  0  0  0  0  0  0
    0.0585   -1.8474    2.4883 H   0  0  0  0  0  0  0  0  0  0  0  0
    0.5928   -3.2416    1.4808 H   0  0  0  0  0  0  0  0  0  0  0  0
   -0.4753   -1.7441    0.3586 C   0  0  0  0  0  0  0  0  0  0  0  0
   -1.8392   -2.0618    0.1342 C   0  0  0  0  0  0  0  0  0  0  0  0
   -2.4292   -2.6073    0.8829 H   0  0  0  0  0  0  0  0  0  0  0  0
   -2.4462   -1.5931   -1.0693 C   0  0  0  0  0  3  0  0  0  0  0  0
   -3.5144   -1.7833   -1.2449 H   0  0  0  0  0  0  0  0  0  0  0  0
   -1.6993   -0.8577   -2.0333 C   0  0  0  0  0  3  0  0  0  0  0  0
   -2.1935   -0.4759   -2.9361 H   0  0  0  0  0  0  0  0  0  0  0  0
   -0.3363   -0.5264   -1.7720 C   0  0  0  0  0  3  0  0  0  0  0  0
    0.2238    0.0914   -2.4876 H   0  0  0  0  0  0  0  0  0  0  0  0
    0.2892   -1.0026   -0.5896 C   0  0  2  0  0  3  0  0  0  0  0  0
    2.5209   -1.9969   -0.9857 C   0  0  0  0  0  0  0  0  0  0  0  0
    3.5335   -2.1455   -0.5654 H   0  0  0  0  0  0  0  0  0  0  0  0
    2.6253   -1.6442   -2.0324 H   0  0  0  0  0  0  0  0  0  0  0  0
    2.0054   -2.9801   -1.0099 H   0  0  0  0  0  0  0  0  0  0  0  0
    4.4605    0.3386    0.3429 C   0  0  0  0  0  0  0  0  0  0  0  0
    5.0226    1.2736    0.5457 H   0  0  0  0  0  0  0  0  0  0  0  0
    4.9697   -0.1854   -0.4908 H   0  0  0  0  0  0  0  0  0  0  0  0
    4.5263   -0.3007    1.2470 H   0  0  0  0  0  0  0  0  0  0  0  0
    2.5365    1.6278   -1.7168 C   0  0  0  0  0  0  0  0  0  0  0  0
    1.5211    2.0350   -1.8935 H   0  0  0  0  0  0  0  0  0  0  0  0
    2.8138    0.9685   -2.5650 H   0  0  0  0  0  0  0  0  0  0  0  0
    3.2375    2.4884   -1.7264 H   0  0  0  0  0  0  0  0  0  0  0  0
    1.9493    1.7997    1.3416 C   0  0  0  0  0  0  0  0  0  0  0  0
    2.6816    2.5887    1.6103 H   0  0  0  0  0  0  0  0  0  0  0  0
    1.7605    1.1784    2.2383 H   0  0  0  0  0  0  0  0  0  0  0  0
    1.0037    2.2968    1.0574 H   0  0  0  0  0  0  0  0  0  0  0  0
  1 21  1  0  0  0  0
  1 29  1  0  0  0  0
  2 17  1  6  0  0  0
  2  1  1  0  0  0  0
  2  3  1  0  0  0  0
  3  4  1  0  0  0  0
  4  5  1  0  0  0  0
  6  4  1  0  0  0  0
  7  4  1  0  0  0  0
  8  7  2  0  0  0  0
  8  9  1  0  0  0  0
 10  8  1  0  0  0  0
 11 10  1  0  0  0  0
 12 14  1  0  0  0  0
 12 10  1  0  0  0  0
 13 12  1  0  0  0  0
 15 14  1  0  0  0  0
 16 14  1  6  0  0  0
 16  2  1  0  0  0  0
 16  7  1  0  0  0  0
 17 18  1  0  0  0  0
 19 17  1  0  0  0  0
 20 17  1  0  0  0  0
 21 22  1  0  0  0  0
 21 24  1  0  0  0  0
 23 21  1  0  0  0  0
 25  1  1  0  0  0  0
 26 25  1  0  0  0  0
 27 25  1  0  0  0  0
 28 25  1  0  0  0  0
 29 30  1  0  0  0  0
 29 31  1  0  0  0  0
 32 29  1  0  0  0  0
M  END
