2,6
 OpenBabel05122313053D

 17 18  0  0  0  0  0  0  0  0999 V2000
   -1.0754   -1.3537   -1.9104 N   0  0  0  0  0  2  0  0  0  0  0  0
   -0.0969   -0.6329   -2.5515 C   0  0  0  0  0  3  0  0  0  0  0  0
    0.6279   -1.2290   -3.1313 H   0  0  0  0  0  0  0  0  0  0  0  0
   -0.0370    0.8020   -2.5907 C   0  0  0  0  0  3  0  0  0  0  0  0
    0.7468    1.3117   -3.1674 H   0  0  0  0  0  0  0  0  0  0  0  0
   -0.9485    1.5311   -1.7754 C   0  0  0  0  0  3  0  0  0  0  0  0
   -0.9218    2.6318   -1.7538 H   0  0  0  0  0  0  0  0  0  0  0  0
   -2.0668    0.8330   -1.1725 C   0  0  0  0  0  0  0  0  0  0  0  0
   -3.1243    1.4801   -0.4631 C   0  0  0  0  0  0  0  0  0  0  0  0
   -3.1139    2.5797   -0.4041 H   0  0  0  0  0  0  0  0  0  0  0  0
   -4.1720    0.7619    0.0949 C   0  0  0  0  0  0  0  0  0  0  0  0
   -4.9840    1.2863    0.6201 H   0  0  0  0  0  0  0  0  0  0  0  0
   -4.2063   -0.6555   -0.0382 C   0  0  0  0  0  0  0  0  0  0  0  0
   -5.0562   -1.2215    0.3737 H   0  0  0  0  0  0  0  0  0  0  0  0
   -3.1881   -1.3265   -0.6941 C   0  0  0  0  0  0  0  0  0  0  0  0
   -3.2243   -2.4148   -0.8482 H   0  0  0  0  0  0  0  0  0  0  0  0
   -2.0661   -0.6253   -1.2532 C   0  0  0  0  0  0  0  0  0  0  0  0
  1 17  1  0  0  0  0
  2  1  1  0  0  0  0
  3  2  1  0  0  0  0
  4  2  1  0  0  0  0
  4  6  1  0  0  0  0
  5  4  1  0  0  0  0
  6  7  1  0  0  0  0
  6  8  1  0  0  0  0
  8  9  1  0  0  0  0
  9 10  1  0  0  0  0
  9 11  2  0  0  0  0
 11 12  1  0  0  0  0
 13 11  1  0  0  0  0
 13 14  1  0  0  0  0
 15 13  2  0  0  0  0
 16 15  1  0  0  0  0
 17  8  2  0  0  0  0
 17 15  1  0  0  0  0
M  END
