2,4
 OpenBabel05122313053D

 56 60  0  0  0  0  0  0  0  0999 V2000
   -2.2212    0.1517    1.2938 N   0  0  0  0  0  0  0  0  0  0  0  0
   -1.4630    0.7503    0.3151 C   0  0  0  0  0  2  0  0  0  0  0  0
   -3.0088    2.2211    1.1306 N   0  0  0  0  0  0  0  0  0  0  0  0
    1.4630    0.7502    0.3147 C   0  0  0  0  0  2  0  0  0  0  0  0
   -1.9776    2.0062    0.2607 N   0  0  0  0  0  0  0  0  0  0  0  0
   -3.1413    1.0706    1.7486 C   0  0  0  0  0  0  0  0  0  0  0  0
   -3.8962    0.8460    2.5102 H   0  0  0  0  0  0  0  0  0  0  0  0
    2.2217    0.1513    1.2929 N   0  0  0  0  0  0  0  0  0  0  0  0
    3.1421    1.0702    1.7473 C   0  0  0  0  0  0  0  0  0  0  0  0
    3.8974    0.8455    2.5085 H   0  0  0  0  0  0  0  0  0  0  0  0
    3.0095    2.2207    1.1294 N   0  0  0  0  0  0  0  0  0  0  0  0
    1.5387    3.0839   -0.6265 C   0  0  0  0  0  0  0  0  0  0  0  0
    0.9987    2.5874   -1.4529 H   0  0  0  0  0  0  0  0  0  0  0  0
    2.4557    3.5428   -1.0422 H   0  0  0  0  0  0  0  0  0  0  0  0
    1.9777    2.0060    0.2601 N   0  0  0  0  0  0  0  0  0  0  0  0
    0.7088    4.1275    0.0969 C   0  0  0  0  0  0  0  0  0  0  0  0
    1.3942    5.1198    0.8278 C   0  0  0  0  0  0  0  0  0  0  0  0
    2.4947    5.1092    0.8295 H   0  0  0  0  0  0  0  0  0  0  0  0
    0.7020    6.0960    1.5544 C   0  0  0  0  0  0  0  0  0  0  0  0
    1.2589    6.8605    2.1168 H   0  0  0  0  0  0  0  0  0  0  0  0
   -0.7011    6.0961    1.5546 C   0  0  0  0  0  0  0  0  0  0  0  0
   -1.2578    6.8607    2.1171 H   0  0  0  0  0  0  0  0  0  0  0  0
   -1.3937    5.1200    0.8282 C   0  0  0  0  0  0  0  0  0  0  0  0
   -2.4941    5.1096    0.8301 H   0  0  0  0  0  0  0  0  0  0  0  0
   -0.7086    4.1276    0.0971 C   0  0  0  0  0  0  0  0  0  0  0  0
   -1.5388    3.0841   -0.6261 C   0  0  0  0  0  0  0  0  0  0  0  0
   -2.4560    3.5431   -1.0414 H   0  0  0  0  0  0  0  0  0  0  0  0
   -0.9991    2.5875   -1.4526 H   0  0  0  0  0  0  0  0  0  0  0  0
   -2.0878   -1.2473    1.7244 C   0  0  0  0  0  0  0  0  0  0  0  0
   -1.4412   -1.2831    2.6260 H   0  0  0  0  0  0  0  0  0  0  0  0
   -1.5539   -1.7564    0.8953 H   0  0  0  0  0  0  0  0  0  0  0  0
   -3.4283   -1.8859    1.9993 C   0  0  0  0  0  0  0  0  0  0  0  0
   -3.8123   -2.2207    3.3112 C   0  0  0  0  0  0  0  0  0  0  0  0
   -3.1196   -2.0296    4.1469 H   0  0  0  0  0  0  0  0  0  0  0  0
   -5.0667   -2.8014    3.5588 C   0  0  0  0  0  0  0  0  0  0  0  0
   -5.3565   -3.0633    4.5877 H   0  0  0  0  0  0  0  0  0  0  0  0
   -5.9464   -3.0462    2.4937 C   0  0  0  0  0  0  0  0  0  0  0  0
   -6.9301   -3.5012    2.6855 H   0  0  0  0  0  0  0  0  0  0  0  0
   -5.5678   -2.7132    1.1816 C   0  0  0  0  0  0  0  0  0  0  0  0
   -6.2528   -2.9107    0.3432 H   0  0  0  0  0  0  0  0  0  0  0  0
   -4.3157   -2.1363    0.9317 C   0  0  0  0  0  0  0  0  0  0  0  0
   -4.0061   -1.8789   -0.0958 H   0  0  0  0  0  0  0  0  0  0  0  0
    2.0884   -1.2477    1.7234 C   0  0  0  0  0  0  0  0  0  0  0  0
    1.5549   -1.7569    0.8940 H   0  0  0  0  0  0  0  0  0  0  0  0
    1.4414   -1.2837    2.6247 H   0  0  0  0  0  0  0  0  0  0  0  0
    3.4289   -1.8861    1.9986 C   0  0  0  0  0  0  0  0  0  0  0  0
    4.3161   -2.1373    0.9310 C   0  0  0  0  0  0  0  0  0  0  0  0
    4.0063   -1.8806   -0.0967 H   0  0  0  0  0  0  0  0  0  0  0  0
    5.5684   -2.7138    1.1811 C   0  0  0  0  0  0  0  0  0  0  0  0
    6.2532   -2.9119    0.3427 H   0  0  0  0  0  0  0  0  0  0  0  0
    5.9473   -3.0457    2.4934 C   0  0  0  0  0  0  0  0  0  0  0  0
    6.9310   -3.5004    2.6853 H   0  0  0  0  0  0  0  0  0  0  0  0
    5.0677   -2.8001    3.5584 C   0  0  0  0  0  0  0  0  0  0  0  0
    5.3577   -3.0612    4.5875 H   0  0  0  0  0  0  0  0  0  0  0  0
    3.8132   -2.2198    3.3106 C   0  0  0  0  0  0  0  0  0  0  0  0
    3.1207   -2.0281    4.1463 H   0  0  0  0  0  0  0  0  0  0  0  0
  1 29  1  0  0  0  0
  1  6  1  0  0  0  0
  2  1  1  0  0  0  0
  3  6  2  0  0  0  0
  4  8  1  0  0  0  0
  5  2  1  0  0  0  0
  5  3  1  0  0  0  0
  6  7  1  0  0  0  0
  8 43  1  0  0  0  0
  8  9  1  0  0  0  0
  9 10  1  0  0  0  0
 11  9  2  0  0  0  0
 12 16  1  0  0  0  0
 12 15  1  0  0  0  0
 13 12  1  0  0  0  0
 14 12  1  0  0  0  0
 15  4  1  0  0  0  0
 15 11  1  0  0  0  0
 16 25  2  0  0  0  0
 16 17  1  0  0  0  0
 17 18  1  0  0  0  0
 17 19  2  0  0  0  0
 19 21  1  0  0  0  0
 19 20  1  0  0  0  0
 21 22  1  0  0  0  0
 23 24  1  0  0  0  0
 23 21  2  0  0  0  0
 25 23  1  0  0  0  0
 26 25  1  0  0  0  0
 26  5  1  0  0  0  0
 27 26  1  0  0  0  0
 28 26  1  0  0  0  0
 29 32  1  0  0  0  0
 29 30  1  0  0  0  0
 31 29  1  0  0  0  0
 32 33  1  0  0  0  0
 33 35  2  0  0  0  0
 33 34  1  0  0  0  0
 35 36  1  0  0  0  0
 37 38  1  0  0  0  0
 37 35  1  0  0  0  0
 39 37  2  0  0  0  0
 40 39  1  0  0  0  0
 41 39  1  0  0  0  0
 41 32  2  0  0  0  0
 42 41  1  0  0  0  0
 43 46  1  0  0  0  0
 43 45  1  0  0  0  0
 44 43  1  0  0  0  0
 46 55  1  0  0  0  0
 47 49  1  0  0  0  0
 47 46  2  0  0  0  0
 48 47  1  0  0  0  0
 49 51  2  0  0  0  0
 50 49  1  0  0  0  0
 51 52  1  0  0  0  0
 51 53  1  0  0  0  0
 53 54  1  0  0  0  0
 55 53  2  0  0  0  0
 55 56  1  0  0  0  0
M  END
