1,20
 OpenBabel05122313053D

 38 41  0  0  1  0  0  0  0  0999 V2000
    0.6605   -0.6874   -1.5955 C   0  0  0  0  0  3  0  0  0  0  0  0
   -0.4643   -1.6761   -1.7877 C   0  0  0  0  0  0  0  0  0  0  0  0
   -0.7015   -2.1231   -0.3349 C   0  0  2  0  0  0  0  0  0  0  0  0
   -1.4184   -1.0164    0.4453 C   0  0  1  0  0  3  0  0  0  0  0  0
   -2.8315   -0.6820    0.1763 C   0  0  0  0  0  0  0  0  0  0  0  0
   -3.4719    0.4208    0.7942 C   0  0  0  0  0  0  0  0  0  0  0  0
   -4.8251    0.6805    0.5595 C   0  0  0  0  0  0  0  0  0  0  0  0
   -5.5760   -0.1513   -0.2892 C   0  0  0  0  0  0  0  0  0  0  0  0
   -4.9576   -1.2486   -0.9064 C   0  0  0  0  0  0  0  0  0  0  0  0
   -3.5994   -1.5091   -0.6810 C   0  0  0  0  0  0  0  0  0  0  0  0
    1.0532   -0.0760   -2.4191 H   0  0  0  0  0  0  0  0  0  0  0  0
   -0.1203   -2.5152   -2.4350 H   0  0  0  0  0  0  0  0  0  0  0  0
   -1.3632   -1.2358   -2.2614 H   0  0  0  0  0  0  0  0  0  0  0  0
   -1.2335   -3.0915   -0.2324 H   0  0  0  0  0  0  0  0  0  0  0  0
   -2.8790    1.1084    1.4168 H   0  0  0  0  0  0  0  0  0  0  0  0
   -5.2976    1.5512    1.0384 H   0  0  0  0  0  0  0  0  0  0  0  0
   -6.6407    0.0589   -0.4722 H   0  0  0  0  0  0  0  0  0  0  0  0
   -5.5353   -1.9094   -1.5701 H   0  0  0  0  0  0  0  0  0  0  0  0
   -3.1412   -2.3838   -1.1631 H   0  0  0  0  0  0  0  0  0  0  0  0
   -0.6605   -0.6874    1.5956 C   0  0  0  0  0  3  0  0  0  0  0  0
    0.4643   -1.6761    1.7877 C   0  0  0  0  0  0  0  0  0  0  0  0
    0.7015   -2.1231    0.3349 C   0  0  2  0  0  0  0  0  0  0  0  0
    1.4184   -1.0164   -0.4452 C   0  0  1  0  0  3  0  0  0  0  0  0
    2.8315   -0.6820   -0.1763 C   0  0  0  0  0  0  0  0  0  0  0  0
    3.4718    0.4208   -0.7941 C   0  0  0  0  0  0  0  0  0  0  0  0
    4.8250    0.6806   -0.5594 C   0  0  0  0  0  0  0  0  0  0  0  0
    5.5760   -0.1513    0.2892 C   0  0  0  0  0  0  0  0  0  0  0  0
    4.9576   -1.2486    0.9063 C   0  0  0  0  0  0  0  0  0  0  0  0
    3.5994   -1.5091    0.6809 C   0  0  0  0  0  0  0  0  0  0  0  0
   -1.0532   -0.0760    2.4191 H   0  0  0  0  0  0  0  0  0  0  0  0
    0.1202   -2.5152    2.4350 H   0  0  0  0  0  0  0  0  0  0  0  0
    1.3632   -1.2358    2.2614 H   0  0  0  0  0  0  0  0  0  0  0  0
    1.2334   -3.0915    0.2325 H   0  0  0  0  0  0  0  0  0  0  0  0
    2.8789    1.1085   -1.4166 H   0  0  0  0  0  0  0  0  0  0  0  0
    5.2975    1.5513   -1.0383 H   0  0  0  0  0  0  0  0  0  0  0  0
    6.6407    0.0589    0.4721 H   0  0  0  0  0  0  0  0  0  0  0  0
    5.5354   -1.9095    1.5699 H   0  0  0  0  0  0  0  0  0  0  0  0
    3.1413   -2.3839    1.1630 H   0  0  0  0  0  0  0  0  0  0  0  0
  1 23  1  0  0  0  0
  2  1  1  0  0  0  0
  2  3  1  0  0  0  0
  3 14  1  1  0  0  0
  3 22  1  0  0  0  0
  3  4  1  0  0  0  0
  4  5  1  1  0  0  0
  4 20  1  0  0  0  0
  5  6  1  0  0  0  0
  6 15  1  0  0  0  0
  7  6  2  0  0  0  0
  7 16  1  0  0  0  0
  8  7  1  0  0  0  0
  9 10  1  0  0  0  0
  9  8  2  0  0  0  0
 10  5  2  0  0  0  0
 11  1  1  0  0  0  0
 12  2  1  0  0  0  0
 13  2  1  0  0  0  0
 17  8  1  0  0  0  0
 18  9  1  0  0  0  0
 19 10  1  0  0  0  0
 20 21  1  0  0  0  0
 20 30  1  0  0  0  0
 21 32  1  0  0  0  0
 21 31  1  0  0  0  0
 22 33  1  6  0  0  0
 22 21  1  0  0  0  0
 23 24  1  6  0  0  0
 23 22  1  0  0  0  0
 24 29  1  0  0  0  0
 25 26  1  0  0  0  0
 25 24  2  0  0  0  0
 26 27  2  0  0  0  0
 27 36  1  0  0  0  0
 27 28  1  0  0  0  0
 28 37  1  0  0  0  0
 29 28  2  0  0  0  0
 29 38  1  0  0  0  0
 34 25  1  0  0  0  0
 35 26  1  0  0  0  0
M  END
