3,4
 OpenBabel05122313053D

 33 34  0  0  0  0  0  0  0  0999 V2000
   -2.0037   -1.9675    0.2365 N   0  0  0  0  0  0  0  0  0  0  0  0
    2.7416   -0.5005    0.0267 N   0  0  0  0  0  0  0  0  0  0  0  0
    1.5345   -0.4935   -0.6104 C   0  0  0  0  0  2  0  0  0  0  0  0
   -1.0583   -1.2962   -0.4910 C   0  0  0  0  0  2  0  0  0  0  0  0
    1.6201   -1.5212   -1.5223 N   0  0  0  0  0  0  0  0  0  0  0  0
   -0.6568   -2.2015   -1.4469 N   0  0  0  0  0  0  0  0  0  0  0  0
    3.1077    0.3546    1.1633 C   0  0  0  0  0  0  0  0  0  0  0  0
    2.9964    1.4125    0.8487 H   0  0  0  0  0  0  0  0  0  0  0  0
    4.1691    0.1367    1.3901 H   0  0  0  0  0  0  0  0  0  0  0  0
    2.2304    0.0953    2.3836 C   0  0  0  0  0  0  0  0  0  0  0  0
    2.6198    0.7400    3.2097 H   0  0  0  0  0  0  0  0  0  0  0  0
    1.2026    0.4569    2.1474 H   0  0  0  0  0  0  0  0  0  0  0  0
   -0.4375   -1.9052    2.5574 O   0  0  0  0  0  0  0  0  0  0  0  0
    0.0489   -1.7881    1.7130 H   0  0  0  0  0  0  0  0  0  0  0  0
    2.2525   -1.2792    2.7089 O   0  0  0  0  0  0  0  0  0  0  0  0
    1.3749   -1.4979    3.0932 H   0  0  0  0  0  0  0  0  0  0  0  0
    3.5463   -1.5231   -0.4583 C   0  0  0  0  0  0  0  0  0  0  0  0
    4.5525   -1.6973   -0.0670 H   0  0  0  0  0  0  0  0  0  0  0  0
   -2.1780   -3.2567   -0.2563 C   0  0  0  0  0  0  0  0  0  0  0  0
   -2.8959   -3.9520    0.1880 H   0  0  0  0  0  0  0  0  0  0  0  0
   -2.6152   -1.4883    1.4822 C   0  0  0  0  0  0  0  0  0  0  0  0
   -3.2044   -2.3360    1.8804 H   0  0  0  0  0  0  0  0  0  0  0  0
   -3.2832   -0.6346    1.2446 H   0  0  0  0  0  0  0  0  0  0  0  0
    0.4630   -1.8862   -2.3226 C   0  0  0  0  0  0  0  0  0  0  0  0
    0.1846   -1.0277   -2.9654 H   0  0  0  0  0  0  0  0  0  0  0  0
    0.7044   -2.7670   -2.9442 H   0  0  0  0  0  0  0  0  0  0  0  0
    2.8447   -2.1750   -1.4374 C   0  0  0  0  0  0  0  0  0  0  0  0
    3.1168   -3.0162   -2.0813 H   0  0  0  0  0  0  0  0  0  0  0  0
   -1.3273   -3.4116   -1.3181 C   0  0  0  0  0  0  0  0  0  0  0  0
   -1.1620   -4.2588   -1.9900 H   0  0  0  0  0  0  0  0  0  0  0  0
   -1.5534   -1.0251    2.4955 C   0  0  0  0  0  0  0  0  0  0  0  0
   -1.2457    0.0121    2.2357 H   0  0  0  0  0  0  0  0  0  0  0  0
   -2.0168   -1.0046    3.5022 H   0  0  0  0  0  0  0  0  0  0  0  0
  1 21  1  0  0  0  0
  2  7  1  0  0  0  0
  3  2  1  0  0  0  0
  4  1  1  0  0  0  0
  5 27  1  0  0  0  0
  5  3  1  0  0  0  0
  6 29  1  0  0  0  0
  6  4  1  0  0  0  0
  7  9  1  0  0  0  0
  7 10  1  0  0  0  0
  8  7  1  0  0  0  0
 10 15  1  0  0  0  0
 10 11  1  0  0  0  0
 12 10  1  0  0  0  0
 14 13  1  0  0  0  0
 15 16  1  0  0  0  0
 17 18  1  0  0  0  0
 17  2  1  0  0  0  0
 19 20  1  0  0  0  0
 19  1  1  0  0  0  0
 21 22  1  0  0  0  0
 21 31  1  0  0  0  0
 23 21  1  0  0  0  0
 24  5  1  0  0  0  0
 24  6  1  0  0  0  0
 25 24  1  0  0  0  0
 26 24  1  0  0  0  0
 27 17  2  0  0  0  0
 28 27  1  0  0  0  0
 29 19  2  0  0  0  0
 30 29  1  0  0  0  0
 31 13  1  0  0  0  0
 31 33  1  0  0  0  0
 32 31  1  0  0  0  0
M  END
