7,23
 OpenBabel05122313053D

 55 57  0  0  0  0  0  0  0  0999 V2000
   -3.4170   -1.9702   -0.4278 N   0  0  0  0  0  0  0  0  0  0  0  0
   -1.4046   -2.7594   -0.3833 N   0  0  0  0  0  0  0  0  0  0  0  0
    1.6178   -0.8486    1.4739 N   0  0  0  0  0  0  0  0  0  0  0  0
    0.4661    2.7313   -0.0707 N   0  0  0  0  0  0  0  0  0  0  0  0
   -1.6093    3.3350   -0.1471 N   0  0  0  0  0  0  0  0  0  0  0  0
   -4.5287   -1.0294   -0.4572 C   0  0  0  0  0  0  0  0  0  0  0  0
   -2.1059   -1.5890   -0.3770 C   0  0  0  0  0  2  0  0  0  0  0  0
   -3.5345   -3.3526   -0.4613 C   0  0  0  0  0  0  0  0  0  0  0  0
   -2.2592   -3.8539   -0.4279 C   0  0  0  0  0  0  0  0  0  0  0  0
    0.0525   -2.8590   -0.3210 C   0  0  0  0  0  0  0  0  0  0  0  0
    0.5868   -3.0999    1.0952 C   0  0  0  0  0  0  0  0  0  0  0  0
    0.6642   -1.8434    1.9698 C   0  0  0  0  0  0  0  0  0  0  0  0
    3.0095   -1.2827    1.5587 C   0  0  0  0  0  0  0  0  0  0  0  0
    3.8958   -0.8641    0.3965 C   0  0  0  0  0  0  0  0  0  0  0  0
    3.3946   -0.8138   -0.9190 C   0  0  0  0  0  0  0  0  0  0  0  0
    4.2299   -0.4610   -1.9895 C   0  0  0  0  0  0  0  0  0  0  0  0
    5.5831   -0.1605   -1.7650 C   0  0  0  0  0  0  0  0  0  0  0  0
    6.0942   -0.2134   -0.4583 C   0  0  0  0  0  0  0  0  0  0  0  0
    5.2545   -0.5598    0.6116 C   0  0  0  0  0  0  0  0  0  0  0  0
    1.3978    0.4634    2.0859 C   0  0  0  0  0  0  0  0  0  0  0  0
    2.1492    1.6108    1.4030 C   0  0  0  0  0  0  0  0  0  0  0  0
    1.6826    1.9194   -0.0247 C   0  0  0  0  0  0  0  0  0  0  0  0
   -0.8003    2.2339   -0.1676 C   0  0  0  0  0  2  0  0  0  0  0  0
    0.4517    4.1171    0.0184 C   0  0  0  0  0  0  0  0  0  0  0  0
   -0.8636    4.5000   -0.0358 C   0  0  0  0  0  0  0  0  0  0  0  0
   -3.0611    3.2693   -0.2433 C   0  0  0  0  0  0  0  0  0  0  0  0
   -4.4050   -0.3124    0.3779 H   0  0  0  0  0  0  0  0  0  0  0  0
   -5.4767   -1.5868   -0.3461 H   0  0  0  0  0  0  0  0  0  0  0  0
   -4.5357   -0.4753   -1.4164 H   0  0  0  0  0  0  0  0  0  0  0  0
   -4.5034   -3.8577   -0.5143 H   0  0  0  0  0  0  0  0  0  0  0  0
   -1.8919   -4.8840   -0.4405 H   0  0  0  0  0  0  0  0  0  0  0  0
    0.4487   -1.9140   -0.7399 H   0  0  0  0  0  0  0  0  0  0  0  0
    0.3519   -3.6829   -0.9987 H   0  0  0  0  0  0  0  0  0  0  0  0
    1.5920   -3.5633    1.0020 H   0  0  0  0  0  0  0  0  0  0  0  0
   -0.0415   -3.8582    1.6096 H   0  0  0  0  0  0  0  0  0  0  0  0
   -0.3340   -1.3581    2.0033 H   0  0  0  0  0  0  0  0  0  0  0  0
    0.8970   -2.1526    3.0242 H   0  0  0  0  0  0  0  0  0  0  0  0
    3.0295   -2.3925    1.5995 H   0  0  0  0  0  0  0  0  0  0  0  0
    3.4824   -0.9520    2.5206 H   0  0  0  0  0  0  0  0  0  0  0  0
    2.3307   -1.0220   -1.1048 H   0  0  0  0  0  0  0  0  0  0  0  0
    3.8106   -0.4143   -3.0064 H   0  0  0  0  0  0  0  0  0  0  0  0
    6.2371    0.1194   -2.6051 H   0  0  0  0  0  0  0  0  0  0  0  0
    7.1521    0.0256   -0.2687 H   0  0  0  0  0  0  0  0  0  0  0  0
    5.6569   -0.5867    1.6377 H   0  0  0  0  0  0  0  0  0  0  0  0
    1.6964    0.4475    3.1696 H   0  0  0  0  0  0  0  0  0  0  0  0
    0.3066    0.6689    2.0626 H   0  0  0  0  0  0  0  0  0  0  0  0
    3.2356    1.3929    1.3697 H   0  0  0  0  0  0  0  0  0  0  0  0
    2.0415    2.5214    2.0304 H   0  0  0  0  0  0  0  0  0  0  0  0
    2.4660    2.4698   -0.5817 H   0  0  0  0  0  0  0  0  0  0  0  0
    1.4651    0.9925   -0.5862 H   0  0  0  0  0  0  0  0  0  0  0  0
    1.3688    4.7070    0.1032 H   0  0  0  0  0  0  0  0  0  0  0  0
   -1.3247    5.4917   -0.0135 H   0  0  0  0  0  0  0  0  0  0  0  0
   -3.3626    2.9205   -1.2506 H   0  0  0  0  0  0  0  0  0  0  0  0
   -3.4812    4.2751   -0.0601 H   0  0  0  0  0  0  0  0  0  0  0  0
   -3.4329    2.5544    0.5167 H   0  0  0  0  0  0  0  0  0  0  0  0
  1  7  1  0  0  0  0
  2  7  1  0  0  0  0
  2 10  1  0  0  0  0
  3 13  1  0  0  0  0
  3 12  1  0  0  0  0
  3 20  1  0  0  0  0
  4 22  1  0  0  0  0
  4 24  1  0  0  0  0
  5 25  1  0  0  0  0
  6  1  1  0  0  0  0
  6 28  1  0  0  0  0
  6 27  1  0  0  0  0
  8  9  2  0  0  0  0
  8  1  1  0  0  0  0
  9  2  1  0  0  0  0
 10 11  1  0  0  0  0
 11 35  1  0  0  0  0
 11 12  1  0  0  0  0
 12 36  1  0  0  0  0
 12 37  1  0  0  0  0
 13 38  1  0  0  0  0
 13 39  1  0  0  0  0
 14 19  1  0  0  0  0
 14 13  1  0  0  0  0
 15 14  2  0  0  0  0
 16 17  2  0  0  0  0
 16 15  1  0  0  0  0
 17 18  1  0  0  0  0
 18 43  1  0  0  0  0
 18 19  2  0  0  0  0
 19 44  1  0  0  0  0
 20 45  1  0  0  0  0
 21 48  1  0  0  0  0
 21 20  1  0  0  0  0
 22 21  1  0  0  0  0
 23  5  1  0  0  0  0
 23  4  1  0  0  0  0
 24 51  1  0  0  0  0
 25 52  1  0  0  0  0
 25 24  2  0  0  0  0
 26  5  1  0  0  0  0
 26 54  1  0  0  0  0
 26 55  1  0  0  0  0
 29  6  1  0  0  0  0
 30  8  1  0  0  0  0
 31  9  1  0  0  0  0
 32 10  1  0  0  0  0
 33 10  1  0  0  0  0
 34 11  1  0  0  0  0
 40 15  1  0  0  0  0
 41 16  1  0  0  0  0
 42 17  1  0  0  0  0
 46 20  1  0  0  0  0
 47 21  1  0  0  0  0
 49 22  1  0  0  0  0
 50 22  1  0  0  0  0
 53 26  1  0  0  0  0
M  END
