10,13
 OpenBabel05122313053D

 64 67  0  0  1  0  0  0  0  0999 V2000
    2.3359   -0.6888   -0.5063 Si  0  0  0  0  0  0  0  0  0  0  0  0
    1.0087    0.3797   -0.5268 O   0  0  0  0  0  0  0  0  0  0  0  0
    1.4380    4.0643   -0.5630 O   0  0  0  0  0  0  0  0  0  0  0  0
   -0.5156    5.1907   -0.3381 O   0  0  0  0  0  0  0  0  0  0  0  0
   -0.1066    0.2772    0.3575 C   0  0  1  0  0  0  0  0  0  0  0  0
   -0.4891    1.6631    0.9151 C   0  0  0  0  0  0  0  0  0  0  0  0
   -1.4226    2.2900   -0.1484 C   0  0  2  0  0  0  0  0  0  0  0  0
   -2.1060    1.0660   -0.7251 C   0  0  0  0  0  0  0  0  0  0  0  0
   -3.3241    0.9704   -1.4610 C   0  0  0  0  0  0  0  0  0  0  0  0
   -3.7500   -0.3081   -1.9077 C   0  0  0  0  0  3  0  0  0  0  0  0
   -2.9590   -1.4766   -1.6611 C   0  0  0  0  0  0  0  0  0  0  0  0
   -1.7537   -1.3775   -0.9209 C   0  0  0  0  0  0  0  0  0  0  0  0
   -1.3314   -0.0974   -0.4546 C   0  0  2  0  0  3  0  0  0  0  0  0
   -0.6437    3.0216   -1.2765 C   0  0  0  0  0  0  0  0  0  0  0  0
    0.2299    4.1211   -0.7155 C   0  0  0  0  0  0  0  0  0  0  0  0
    0.2111    6.2625    0.2763 C   0  0  0  0  0  0  0  0  0  0  0  0
    1.6410   -2.4489   -0.3880 C   0  0  0  0  0  0  0  0  0  0  0  0
    1.3781   -3.2637   -1.5137 C   0  0  0  0  0  0  0  0  0  0  0  0
    0.6692   -4.4694   -1.3919 C   0  0  0  0  0  0  0  0  0  0  0  0
    0.1926   -4.8828   -0.1369 C   0  0  0  0  0  0  0  0  0  0  0  0
    0.4529   -4.0991    0.9985 C   0  0  0  0  0  0  0  0  0  0  0  0
    1.1811   -2.9055    0.8721 C   0  0  0  0  0  0  0  0  0  0  0  0
    3.3445   -0.3245    1.0457 C   0  0  0  0  0  0  0  0  0  0  0  0
    4.1392   -1.3107    1.6731 C   0  0  0  0  0  0  0  0  0  0  0  0
    4.9222   -1.0011    2.7965 C   0  0  0  0  0  0  0  0  0  0  0  0
    4.9206    0.3041    3.3140 C   0  0  0  0  0  0  0  0  0  0  0  0
    4.1387    1.2978    2.7027 C   0  0  0  0  0  0  0  0  0  0  0  0
    3.3594    0.9865    1.5781 C   0  0  0  0  0  0  0  0  0  0  0  0
    3.2975   -0.2308   -2.0934 C   0  0  0  0  0  0  0  0  0  0  0  0
    4.4556   -1.2277   -2.2859 C   0  0  0  0  0  0  0  0  0  0  0  0
    3.8608    1.1932   -1.8948 C   0  0  0  0  0  0  0  0  0  0  0  0
    2.3647   -0.2270   -3.3197 C   0  0  0  0  0  0  0  0  0  0  0  0
    0.0874   -0.4513    1.1725 H   0  0  0  0  0  0  0  0  0  0  0  0
   -1.0518    1.5314    1.8595 H   0  0  0  0  0  0  0  0  0  0  0  0
    0.4124    2.2661    1.1284 H   0  0  0  0  0  0  0  0  0  0  0  0
   -2.1471    2.9953    0.3056 H   0  0  0  0  0  0  0  0  0  0  0  0
   -3.9547    1.8554   -1.6246 H   0  0  0  0  0  0  0  0  0  0  0  0
   -4.7160   -0.4090   -2.4220 H   0  0  0  0  0  0  0  0  0  0  0  0
   -3.3243   -2.4608   -1.9836 H   0  0  0  0  0  0  0  0  0  0  0  0
   -1.1758   -2.2796   -0.6773 H   0  0  0  0  0  0  0  0  0  0  0  0
    0.0182    2.3030   -1.7934 H   0  0  0  0  0  0  0  0  0  0  0  0
   -1.3639    3.4527   -2.0010 H   0  0  0  0  0  0  0  0  0  0  0  0
    0.7215    5.9154    1.1975 H   0  0  0  0  0  0  0  0  0  0  0  0
    0.9803    6.6641   -0.4136 H   0  0  0  0  0  0  0  0  0  0  0  0
   -0.5347    7.0401    0.5188 H   0  0  0  0  0  0  0  0  0  0  0  0
    1.7193   -2.9497   -2.5115 H   0  0  0  0  0  0  0  0  0  0  0  0
    0.4792   -5.0858   -2.2841 H   0  0  0  0  0  0  0  0  0  0  0  0
   -0.3792   -5.8188   -0.0430 H   0  0  0  0  0  0  0  0  0  0  0  0
    0.0796   -4.4104    1.9857 H   0  0  0  0  0  0  0  0  0  0  0  0
    1.3860   -2.3111    1.7771 H   0  0  0  0  0  0  0  0  0  0  0  0
    4.1412   -2.3413    1.2820 H   0  0  0  0  0  0  0  0  0  0  0  0
    5.5339   -1.7826    3.2732 H   0  0  0  0  0  0  0  0  0  0  0  0
    5.5311    0.5478    4.1971 H   0  0  0  0  0  0  0  0  0  0  0  0
    4.1375    2.3230    3.1043 H   0  0  0  0  0  0  0  0  0  0  0  0
    2.7600    1.7763    1.0967 H   0  0  0  0  0  0  0  0  0  0  0  0
    5.1304   -1.2454   -1.4045 H   0  0  0  0  0  0  0  0  0  0  0  0
    4.0966   -2.2640   -2.4547 H   0  0  0  0  0  0  0  0  0  0  0  0
    5.0709   -0.9394   -3.1667 H   0  0  0  0  0  0  0  0  0  0  0  0
    3.0619    1.9366   -1.6935 H   0  0  0  0  0  0  0  0  0  0  0  0
    4.5819    1.2380   -1.0540 H   0  0  0  0  0  0  0  0  0  0  0  0
    4.3987    1.5142   -2.8143 H   0  0  0  0  0  0  0  0  0  0  0  0
    1.9553   -1.2303   -3.5532 H   0  0  0  0  0  0  0  0  0  0  0  0
    1.5060    0.4573   -3.1703 H   0  0  0  0  0  0  0  0  0  0  0  0
    2.9226    0.1167   -4.2189 H   0  0  0  0  0  0  0  0  0  0  0  0
  1 17  1  0  0  0  0
  1 23  1  0  0  0  0
  2  1  1  0  0  0  0
  2  5  1  0  0  0  0
  4 16  1  0  0  0  0
  5  6  1  0  0  0  0
  5 33  1  1  0  0  0
  6 35  1  0  0  0  0
  6 34  1  0  0  0  0
  7 36  1  1  0  0  0
  7  6  1  0  0  0  0
  8 13  1  0  0  0  0
  8  7  1  0  0  0  0
  9  8  2  0  0  0  0
 10 11  1  0  0  0  0
 10  9  1  0  0  0  0
 11 12  2  0  0  0  0
 12 40  1  0  0  0  0
 13 12  1  1  0  0  0
 13  5  1  0  0  0  0
 14 15  1  0  0  0  0
 14  7  1  0  0  0  0
 15  3  2  0  0  0  0
 15  4  1  0  0  0  0
 16 45  1  0  0  0  0
 16 43  1  0  0  0  0
 17 22  1  0  0  0  0
 18 19  1  0  0  0  0
 18 17  2  0  0  0  0
 19 20  2  0  0  0  0
 20 48  1  0  0  0  0
 20 21  1  0  0  0  0
 21 49  1  0  0  0  0
 22 21  2  0  0  0  0
 22 50  1  0  0  0  0
 23 28  2  0  0  0  0
 23 24  1  0  0  0  0
 24 25  2  0  0  0  0
 25 52  1  0  0  0  0
 25 26  1  0  0  0  0
 26 53  1  0  0  0  0
 27 54  1  0  0  0  0
 27 26  2  0  0  0  0
 28 27  1  0  0  0  0
 29 31  1  0  0  0  0
 29  1  1  0  0  0  0
 30 29  1  0  0  0  0
 30 56  1  0  0  0  0
 31 59  1  0  0  0  0
 31 60  1  0  0  0  0
 32 63  1  0  0  0  0
 32 29  1  0  0  0  0
 37  9  1  0  0  0  0
 38 10  1  0  0  0  0
 39 11  1  0  0  0  0
 41 14  1  0  0  0  0
 42 14  1  0  0  0  0
 44 16  1  0  0  0  0
 46 18  1  0  0  0  0
 47 19  1  0  0  0  0
 51 24  1  0  0  0  0
 55 28  1  0  0  0  0
 57 30  1  0  0  0  0
 58 30  1  0  0  0  0
 61 31  1  0  0  0  0
 62 32  1  0  0  0  0
 64 32  1  0  0  0  0
M  END
