7,9
 OpenBabel05122313053D

 30 30  0  0  1  0  0  0  0  0999 V2000
    1.7360   -2.0527   -0.7451 O   0  0  0  0  0  0  0  0  0  0  0  0
    1.7924   -0.5276   -0.7742 S   0  0  1  0  0  0  0  0  0  0  0  0
    0.5591    0.0014    0.4790 C   0  0  1  0  0  3  0  0  0  0  0  0
   -0.0234    1.3089    0.4578 C   0  0  0  0  0  0  0  0  0  0  0  0
    0.5465    2.2024   -0.3816 O   0  0  0  0  0  0  0  0  0  0  0  0
   -1.1470    1.5859    1.2947 C   0  0  0  0  0  0  0  0  0  0  0  0
   -1.6636    0.5550    2.1349 C   0  0  0  0  0  3  0  0  0  0  0  0
   -1.0627   -0.7333    2.1876 C   0  0  0  0  0  3  0  0  0  0  0  0
    0.0214   -1.0151    1.3132 C   0  0  0  0  0  3  0  0  0  0  0  0
    3.4257   -0.0917    0.1660 C   0  0  0  0  0  0  0  0  0  0  0  0
    3.4920    1.4144    0.3896 C   0  0  0  0  0  0  0  0  0  0  0  0
    3.4486   -0.9047    1.4529 C   0  0  0  0  0  0  0  0  0  0  0  0
    4.4923   -0.5762   -0.8221 C   0  0  0  0  0  0  0  0  0  0  0  0
   -0.1367    3.4219   -0.6531 C   0  0  0  0  0  0  0  0  0  0  0  0
   -1.6466    2.5612    1.2627 H   0  0  0  0  0  0  0  0  0  0  0  0
   -2.5587    0.7633    2.7380 H   0  0  0  0  0  0  0  0  0  0  0  0
   -1.4967   -1.5247    2.8125 H   0  0  0  0  0  0  0  0  0  0  0  0
    0.4567   -2.0223    1.2153 H   0  0  0  0  0  0  0  0  0  0  0  0
    4.4955    1.6812    0.7843 H   0  0  0  0  0  0  0  0  0  0  0  0
    3.3380    1.9776   -0.5527 H   0  0  0  0  0  0  0  0  0  0  0  0
    2.7392    1.7577    1.1257 H   0  0  0  0  0  0  0  0  0  0  0  0
    4.4646   -0.8789    1.8993 H   0  0  0  0  0  0  0  0  0  0  0  0
    2.7362   -0.5087    2.2037 H   0  0  0  0  0  0  0  0  0  0  0  0
    3.1930   -1.9621    1.2355 H   0  0  0  0  0  0  0  0  0  0  0  0
    5.5007   -0.4500   -0.3763 H   0  0  0  0  0  0  0  0  0  0  0  0
    4.3456   -1.6486   -1.0590 H   0  0  0  0  0  0  0  0  0  0  0  0
    4.4618    0.0004   -1.7693 H   0  0  0  0  0  0  0  0  0  0  0  0
    0.4645    3.9437   -1.4191 H   0  0  0  0  0  0  0  0  0  0  0  0
   -1.1530    3.2293   -1.0558 H   0  0  0  0  0  0  0  0  0  0  0  0
   -0.2041    4.0615    0.2532 H   0  0  0  0  0  0  0  0  0  0  0  0
  2  1  2  1  0  0  0
  2 10  1  0  0  0  0
  3  2  1  6  0  0  0
  3  9  1  0  0  0  0
  4  3  1  0  0  0  0
  4  6  2  0  0  0  0
  5  4  1  0  0  0  0
  6  7  1  0  0  0  0
  7  8  1  0  0  0  0
  7 16  1  0  0  0  0
  8 17  1  0  0  0  0
  9  8  1  0  0  0  0
 10 11  1  0  0  0  0
 10 12  1  0  0  0  0
 11 19  1  0  0  0  0
 11 21  1  0  0  0  0
 12 22  1  0  0  0  0
 12 23  1  0  0  0  0
 13 25  1  0  0  0  0
 13 10  1  0  0  0  0
 14  5  1  0  0  0  0
 14 30  1  0  0  0  0
 15  6  1  0  0  0  0
 18  9  1  0  0  0  0
 20 11  1  0  0  0  0
 24 12  1  0  0  0  0
 26 13  1  0  0  0  0
 27 13  1  0  0  0  0
 28 14  1  0  0  0  0
 29 14  1  0  0  0  0
M  END
