5,9
 OpenBabel05122313053D

 23 25  0  0  1  0  0  0  0  0999 V2000
    3.8377   -1.4168    0.0002 Cl  0  0  0  0  0  0  0  0  0  0  0  0
    4.2651    1.5003   -0.0002 Cl  0  0  0  0  0  0  0  0  0  0  0  0
   -2.5498   -1.8915   -0.7150 C   0  0  0  0  0  0  0  0  0  0  0  0
   -3.4704   -2.1249   -1.2671 H   0  0  0  0  0  0  0  0  0  0  0  0
   -1.3774   -1.5262   -1.4151 C   0  0  0  0  0  3  0  0  0  0  0  0
   -1.3899   -1.4766   -2.5134 H   0  0  0  0  0  0  0  0  0  0  0  0
   -0.1838   -1.1504   -0.7129 C   0  0  0  0  0  0  0  0  0  0  0  0
   -0.1836   -1.1504    0.7129 C   0  0  0  0  0  0  0  0  0  0  0  0
   -1.3774   -1.5258    1.4151 C   0  0  0  0  0  3  0  0  0  0  0  0
   -1.3898   -1.4760    2.5133 H   0  0  0  0  0  0  0  0  0  0  0  0
   -2.5498   -1.8917    0.7152 C   0  0  0  0  0  0  0  0  0  0  0  0
   -3.4703   -2.1252    1.2674 H   0  0  0  0  0  0  0  0  0  0  0  0
    1.0632   -0.7333    1.4599 C   0  0  0  0  0  0  0  0  0  0  0  0
    1.7407   -1.6120    1.5429 H   0  0  0  0  0  0  0  0  0  0  0  0
    0.7957   -0.4345    2.4912 H   0  0  0  0  0  0  0  0  0  0  0  0
    1.7937    0.4061    0.7649 C   0  0  2  0  0  0  0  0  0  0  0  0
    1.7056    1.3907    1.2491 H   0  0  0  0  0  0  0  0  0  0  0  0
    1.7938    0.4059   -0.7652 C   0  0  2  0  0  0  0  0  0  0  0  0
    1.7058    1.3904   -1.2497 H   0  0  0  0  0  0  0  0  0  0  0  0
    1.0632   -0.7336   -1.4600 C   0  0  0  0  0  0  0  0  0  0  0  0
    0.7958   -0.4350   -2.4914 H   0  0  0  0  0  0  0  0  0  0  0  0
    1.7405   -1.6124   -1.5426 H   0  0  0  0  0  0  0  0  0  0  0  0
    3.0745    0.1890   -0.0001 C   0  0  0  0  0  0  0  0  0  0  0  0
  2 23  1  0  0  0  0
  3 11  2  0  0  0  0
  4  3  1  0  0  0  0
  5  3  1  0  0  0  0
  5  7  1  0  0  0  0
  6  5  1  0  0  0  0
  7  8  2  0  0  0  0
  8  9  1  0  0  0  0
  8 13  1  0  0  0  0
  9 10  1  0  0  0  0
 11 12  1  0  0  0  0
 11  9  1  0  0  0  0
 13 14  1  0  0  0  0
 13 15  1  0  0  0  0
 16 17  1  1  0  0  0
 16 13  1  0  0  0  0
 18 19  1  6  0  0  0
 18 23  1  0  0  0  0
 18 16  1  0  0  0  0
 20 18  1  0  0  0  0
 20  7  1  0  0  0  0
 21 20  1  0  0  0  0
 22 20  1  0  0  0  0
 23  1  1  0  0  0  0
 23 16  1  0  0  0  0
M  END
