1,43
 OpenBabel05122313053D

 43 44  0  0  1  0  0  0  0  0999 V2000
    1.4147    0.1781   -0.1193 C   0  0  0  0  0  3  0  0  0  0  0  0
    2.6903    0.2068    0.4010 C   0  0  0  0  0  0  0  0  0  0  0  0
    3.2309   -0.6191    0.8713 H   0  0  0  0  0  0  0  0  0  0  0  0
    3.2106    1.4818    0.2144 N   0  0  0  0  0  0  0  0  0  0  0  0
    4.5732    1.8755    0.6303 C   0  0  0  0  0  0  0  0  0  0  0  0
    4.6695    2.9506    0.3780 H   0  0  0  0  0  0  0  0  0  0  0  0
    5.6135    1.0902   -0.1732 C   0  0  0  0  0  0  0  0  0  0  0  0
    5.5451    0.0051    0.0398 H   0  0  0  0  0  0  0  0  0  0  0  0
    6.6324    1.4299    0.0968 H   0  0  0  0  0  0  0  0  0  0  0  0
    5.4726    1.2348   -1.2622 H   0  0  0  0  0  0  0  0  0  0  0  0
    4.7309    1.7122    2.1442 C   0  0  0  0  0  0  0  0  0  0  0  0
    3.9575    2.2848    2.6921 H   0  0  0  0  0  0  0  0  0  0  0  0
    5.7279    2.0775    2.4587 H   0  0  0  0  0  0  0  0  0  0  0  0
    4.6465    0.6489    2.4435 H   0  0  0  0  0  0  0  0  0  0  0  0
    2.2902    2.2627   -0.4061 C   0  0  1  0  0  3  0  0  0  0  0  0
    2.4341    3.6745   -0.8514 C   0  0  0  0  0  0  0  0  0  0  0  0
    3.2818    4.1668   -0.3414 H   0  0  0  0  0  0  0  0  0  0  0  0
    1.5259    4.2638   -0.6106 H   0  0  0  0  0  0  0  0  0  0  0  0
    2.6107    3.7554   -1.9460 H   0  0  0  0  0  0  0  0  0  0  0  0
    1.1985    1.4688   -0.6076 N   0  0  0  0  0  0  0  0  0  0  0  0
   -0.0000    1.8023   -1.3643 C   0  0  0  0  0  0  0  0  0  0  0  0
   -0.0000    1.1432   -2.2669 H   0  0  0  0  0  0  0  0  0  0  0  0
   -0.0000    2.8724   -1.6324 H   0  0  0  0  0  0  0  0  0  0  0  0
   -1.1985    1.4688   -0.6075 N   0  0  0  0  0  0  0  0  0  0  0  0
   -2.2902    2.2627   -0.4059 C   0  0  1  0  0  3  0  0  0  0  0  0
   -2.4342    3.6745   -0.8511 C   0  0  0  0  0  0  0  0  0  0  0  0
   -2.6130    3.7554   -1.9454 H   0  0  0  0  0  0  0  0  0  0  0  0
   -1.5252    4.2633   -0.6123 H   0  0  0  0  0  0  0  0  0  0  0  0
   -3.2806    4.1673   -0.3395 H   0  0  0  0  0  0  0  0  0  0  0  0
   -3.2106    1.4818    0.2144 N   0  0  0  0  0  0  0  0  0  0  0  0
   -4.5732    1.8754    0.6303 C   0  0  0  0  0  0  0  0  0  0  0  0
   -4.6696    2.9505    0.3779 H   0  0  0  0  0  0  0  0  0  0  0  0
   -5.6134    1.0900   -0.1734 C   0  0  0  0  0  0  0  0  0  0  0  0
   -5.4724    1.2346   -1.2623 H   0  0  0  0  0  0  0  0  0  0  0  0
   -6.6323    1.4297    0.0965 H   0  0  0  0  0  0  0  0  0  0  0  0
   -5.5450    0.0049    0.0398 H   0  0  0  0  0  0  0  0  0  0  0  0
   -4.7311    1.7122    2.1441 C   0  0  0  0  0  0  0  0  0  0  0  0
   -4.6467    0.6490    2.4434 H   0  0  0  0  0  0  0  0  0  0  0  0
   -5.7281    2.0775    2.4585 H   0  0  0  0  0  0  0  0  0  0  0  0
   -3.9577    2.2849    2.6920 H   0  0  0  0  0  0  0  0  0  0  0  0
   -2.6902    0.2067    0.4011 C   0  0  0  0  0  0  0  0  0  0  0  0
   -3.2308   -0.6191    0.8714 H   0  0  0  0  0  0  0  0  0  0  0  0
   -1.4147    0.1781   -0.1193 C   0  0  0  0  0  3  0  0  0  0  0  0
  1  2  2  0  0  0  0
  2  3  1  0  0  0  0
  4  2  1  0  0  0  0
  4  5  1  0  0  0  0
  5 11  1  0  0  0  0
  6  5  1  0  0  0  0
  7  8  1  0  0  0  0
  7  9  1  0  0  0  0
  7  5  1  0  0  0  0
 10  7  1  0  0  0  0
 11 14  1  0  0  0  0
 11 13  1  0  0  0  0
 11 12  1  0  0  0  0
 15 16  1  6  0  0  0
 15  4  1  0  0  0  0
 16 18  1  0  0  0  0
 16 17  1  0  0  0  0
 19 16  1  0  0  0  0
 20 15  1  0  0  0  0
 20  1  1  0  0  0  0
 21 20  1  0  0  0  0
 21 24  1  0  0  0  0
 22 21  1  0  0  0  0
 23 21  1  0  0  0  0
 24 25  1  0  0  0  0
 24 43  1  0  0  0  0
 25 26  1  6  0  0  0
 25 30  1  0  0  0  0
 26 28  1  0  0  0  0
 26 29  1  0  0  0  0
 27 26  1  0  0  0  0
 30 41  1  0  0  0  0
 30 31  1  0  0  0  0
 31 37  1  0  0  0  0
 32 31  1  0  0  0  0
 33 36  1  0  0  0  0
 33 35  1  0  0  0  0
 33 31  1  0  0  0  0
 34 33  1  0  0  0  0
 37 38  1  0  0  0  0
 37 39  1  0  0  0  0
 37 40  1  0  0  0  0
 41 42  1  0  0  0  0
 43 41  2  0  0  0  0
M  END
