11,18
 OpenBabel05122313053D

 34 36  0  0  0  0  0  0  0  0999 V2000
    1.5446   -0.2535    2.3738 F   0  0  0  0  0  0  0  0  0  0  0  0
    4.1939   -0.8178    2.5179 F   0  0  0  0  0  0  0  0  0  0  0  0
    5.3958   -2.2913    0.5471 F   0  0  0  0  0  0  0  0  0  0  0  0
    3.9291   -3.1979   -1.5793 F   0  0  0  0  0  0  0  0  0  0  0  0
    1.2769   -2.6228   -1.7464 F   0  0  0  0  0  0  0  0  0  0  0  0
   -0.0782    2.4692    1.9552 F   0  0  0  0  0  0  0  0  0  0  0  0
    1.6768    4.4324    1.4686 F   0  0  0  0  0  0  0  0  0  0  0  0
    3.2355    4.3930   -0.7906 F   0  0  0  0  0  0  0  0  0  0  0  0
    2.9941    2.3131   -2.5662 F   0  0  0  0  0  0  0  0  0  0  0  0
    1.2356    0.3309   -2.1162 F   0  0  0  0  0  0  0  0  0  0  0  0
   -0.5202    0.2328    0.1238 C   0  0  0  0  0  3  0  0  0  0  0  0
   -0.1285   -1.0824    0.2125 C   0  0  0  0  0  0  0  0  0  0  0  0
   -1.1461   -2.1480    0.1733 C   0  0  0  0  0  0  0  0  0  0  0  0
   -0.8337   -3.5182    0.3428 C   0  0  0  0  0  0  0  0  0  0  0  0
   -1.8343   -4.4942    0.2714 C   0  0  0  0  0  0  0  0  0  0  0  0
   -3.1661   -4.1128    0.0331 C   0  0  0  0  0  0  0  0  0  0  0  0
   -3.4878   -2.7521   -0.1114 C   0  0  0  0  0  0  0  0  0  0  0  0
   -2.5011   -1.7534   -0.0417 C   0  0  0  0  0  3  0  0  0  0  0  0
    1.3166   -1.4373    0.3149 C   0  0  0  0  0  0  0  0  0  0  0  0
    2.1014   -0.9796    1.3908 C   0  0  0  0  0  0  0  0  0  0  0  0
    3.4738   -1.2603    1.4822 C   0  0  0  0  0  0  0  0  0  0  0  0
    4.0917   -2.0180    0.4729 C   0  0  0  0  0  0  0  0  0  0  0  0
    3.3356   -2.4876   -0.6151 C   0  0  0  0  0  0  0  0  0  0  0  0
    1.9658   -2.1900   -0.6832 C   0  0  0  0  0  0  0  0  0  0  0  0
    0.4735    1.3058   -0.0644 C   0  0  0  0  0  0  0  0  0  0  0  0
    0.6381    2.3955    0.8193 C   0  0  0  0  0  0  0  0  0  0  0  0
    1.5570    3.4320    0.5900 C   0  0  0  0  0  0  0  0  0  0  0  0
    2.3614    3.4112   -0.5601 C   0  0  0  0  0  0  0  0  0  0  0  0
    2.2353    2.3454   -1.4665 C   0  0  0  0  0  0  0  0  0  0  0  0
    1.3134    1.3206   -1.2067 C   0  0  0  0  0  0  0  0  0  0  0  0
    0.2074   -3.8199    0.5355 H   0  0  0  0  0  0  0  0  0  0  0  0
   -1.5761   -5.5561    0.4006 H   0  0  0  0  0  0  0  0  0  0  0  0
   -3.9568   -4.8768   -0.0335 H   0  0  0  0  0  0  0  0  0  0  0  0
   -4.5428   -2.4730   -0.2798 H   0  0  0  0  0  0  0  0  0  0  0  0
  4 23  1  0  0  0  0
  5 24  1  0  0  0  0
  8 28  1  0  0  0  0
  9 29  1  0  0  0  0
 10 30  1  0  0  0  0
 11 12  2  0  0  0  0
 12 19  1  0  0  0  0
 13 12  1  0  0  0  0
 13 14  1  0  0  0  0
 14 31  1  0  0  0  0
 15 14  2  0  0  0  0
 15 32  1  0  0  0  0
 16 15  1  0  0  0  0
 17 18  1  0  0  0  0
 17 16  2  0  0  0  0
 18 13  2  0  0  0  0
 19 20  1  0  0  0  0
 20 21  2  0  0  0  0
 20  1  1  0  0  0  0
 21  2  1  0  0  0  0
 22  3  1  0  0  0  0
 22 21  1  0  0  0  0
 23 22  2  0  0  0  0
 24 23  1  0  0  0  0
 24 19  2  0  0  0  0
 25 11  1  0  0  0  0
 25 26  1  0  0  0  0
 26  6  1  0  0  0  0
 27 26  2  0  0  0  0
 27  7  1  0  0  0  0
 28 27  1  0  0  0  0
 29 30  1  0  0  0  0
 29 28  2  0  0  0  0
 30 25  2  0  0  0  0
 33 16  1  0  0  0  0
 34 17  1  0  0  0  0
M  END
