4,6
 OpenBabel05122313053D

 32 34  0  0  1  0  0  0  0  0999 V2000
    0.0000    2.2468    1.7316 S   0  0  1  0  0  0  0  0  0  0  0  0
    0.0000    1.8467    3.2080 O   0  0  0  0  0  0  0  0  0  0  0  0
    1.2673    1.3717    0.7937 C   0  0  0  0  0  3  0  0  0  0  0  0
    1.2471   -0.0508    0.6822 C   0  0  1  0  0  3  0  0  0  0  0  0
   -0.0000   -0.7517    0.6592 C   0  0  0  0  0  3  0  0  0  0  0  0
   -1.2472   -0.0507    0.6822 C   0  0  1  0  0  3  0  0  0  0  0  0
   -1.2673    1.3718    0.7937 C   0  0  0  0  0  3  0  0  0  0  0  0
   -2.5166   -0.8218    0.5740 C   0  0  0  0  0  0  0  0  0  0  0  0
   -3.6257   -0.4607    1.3695 C   0  0  0  0  0  0  0  0  0  0  0  0
   -4.8227   -1.1899    1.3107 C   0  0  0  0  0  0  0  0  0  0  0  0
   -4.9334   -2.2992    0.4576 C   0  0  0  0  0  0  0  0  0  0  0  0
   -3.8348   -2.6700   -0.3369 C   0  0  0  0  0  0  0  0  0  0  0  0
   -2.6415   -1.9391   -0.2812 C   0  0  0  0  0  0  0  0  0  0  0  0
    2.5166   -0.8219    0.5740 C   0  0  0  0  0  0  0  0  0  0  0  0
    2.6413   -1.9395   -0.2810 C   0  0  0  0  0  0  0  0  0  0  0  0
    3.8346   -2.6704   -0.3366 C   0  0  0  0  0  0  0  0  0  0  0  0
    4.9333   -2.2994    0.4576 C   0  0  0  0  0  0  0  0  0  0  0  0
    4.8227   -1.1899    1.3104 C   0  0  0  0  0  0  0  0  0  0  0  0
    3.6258   -0.4607    1.3692 C   0  0  0  0  0  0  0  0  0  0  0  0
    2.2315    1.8966    0.7184 H   0  0  0  0  0  0  0  0  0  0  0  0
   -0.0001   -1.8488    0.6095 H   0  0  0  0  0  0  0  0  0  0  0  0
   -2.2314    1.8967    0.7184 H   0  0  0  0  0  0  0  0  0  0  0  0
   -3.5267    0.3936    2.0562 H   0  0  0  0  0  0  0  0  0  0  0  0
   -5.6743   -0.8922    1.9429 H   0  0  0  0  0  0  0  0  0  0  0  0
   -5.8736   -2.8708    0.4076 H   0  0  0  0  0  0  0  0  0  0  0  0
   -3.9147   -3.5295   -1.0211 H   0  0  0  0  0  0  0  0  0  0  0  0
   -1.7958   -2.2050   -0.9324 H   0  0  0  0  0  0  0  0  0  0  0  0
    1.7955   -2.2056   -0.9320 H   0  0  0  0  0  0  0  0  0  0  0  0
    3.9143   -3.5301   -1.0207 H   0  0  0  0  0  0  0  0  0  0  0  0
    5.8735   -2.8710    0.4076 H   0  0  0  0  0  0  0  0  0  0  0  0
    5.6745   -0.8921    1.9425 H   0  0  0  0  0  0  0  0  0  0  0  0
    3.5269    0.3938    2.0557 H   0  0  0  0  0  0  0  0  0  0  0  0
  1  2  2  1  0  0  0
  3  1  1  0  0  0  0
  4 14  1  6  0  0  0
  4  3  1  0  0  0  0
  5  6  1  0  0  0  0
  5  4  1  0  0  0  0
  6  8  1  6  0  0  0
  6  7  1  0  0  0  0
  7  1  1  0  0  0  0
  8  9  1  0  0  0  0
  9 23  1  0  0  0  0
 10  9  2  0  0  0  0
 10 24  1  0  0  0  0
 11 10  1  0  0  0  0
 12 13  1  0  0  0  0
 12 11  2  0  0  0  0
 13  8  2  0  0  0  0
 14 19  1  0  0  0  0
 15 14  2  0  0  0  0
 16 15  1  0  0  0  0
 16 17  2  0  0  0  0
 17 18  1  0  0  0  0
 18 19  2  0  0  0  0
 18 31  1  0  0  0  0
 19 32  1  0  0  0  0
 20  3  1  0  0  0  0
 21  5  1  0  0  0  0
 22  7  1  0  0  0  0
 25 11  1  0  0  0  0
 26 12  1  0  0  0  0
 27 13  1  0  0  0  0
 28 15  1  0  0  0  0
 29 16  1  0  0  0  0
 30 17  1  0  0  0  0
M  END
