3,10
 OpenBabel05122313053D

 64 66  0  0  1  0  0  0  0  0999 V2000
    1.6151    2.7173   -0.5453 Si  0  0  0  0  0  0  0  0  0  0  0  0
    0.1907    1.5632   -0.9860 C   0  0  2  0  0  3  0  0  0  0  0  0
    2.6765    1.3399    0.2133 C   0  0  2  0  0  3  0  0  0  0  0  0
   -1.4359   -0.0944   -0.6046 C   0  0  0  0  0  0  0  0  0  0  0  0
    3.1358   -0.4719    1.6230 C   0  0  0  0  0  0  0  0  0  0  0  0
   -0.7650   -0.3902   -1.8234 C   0  0  0  0  0  0  0  0  0  0  0  0
    3.3914    0.3318   -0.5383 C   0  0  2  0  0  3  0  0  0  0  0  0
   -0.8064    1.0876   -0.0773 C   0  0  0  0  0  3  0  0  0  0  0  0
    2.4915    0.8113    1.5463 C   0  0  1  0  0  3  0  0  0  0  0  0
    0.2381    0.6004   -2.0507 C   0  0  0  0  0  3  0  0  0  0  0  0
   -3.2263   -2.0507   -0.5529 C   0  0  0  0  0  0  0  0  0  0  0  0
   -3.6973    0.3589    0.2746 C   0  0  0  0  0  0  0  0  0  0  0  0
    3.6935   -0.7628    0.3410 C   0  0  0  0  0  0  0  0  0  0  0  0
    2.3533    3.5503   -2.0707 C   0  0  0  0  0  0  0  0  0  0  0  0
   -4.0830    1.2200   -0.7744 C   0  0  0  0  0  0  0  0  0  0  0  0
    1.0949    4.0559    0.6761 C   0  0  0  0  0  0  0  0  0  0  0  0
   -2.6421   -0.7252    0.0673 C   0  0  2  0  0  0  0  0  0  0  0  0
    1.8307    1.4905    2.7163 C   0  0  0  0  0  0  0  0  0  0  0  0
    3.8865    0.3917   -1.9567 C   0  0  0  0  0  0  0  0  0  0  0  0
    4.5482   -1.9354   -0.0224 C   0  0  0  0  0  0  0  0  0  0  0  0
   -4.3094    0.5275    1.5326 C   0  0  0  0  0  0  0  0  0  0  0  0
   -2.1397   -3.1447   -0.5684 C   0  0  0  0  0  0  0  0  0  0  0  0
    3.2798   -1.3034    2.8602 C   0  0  0  0  0  0  0  0  0  0  0  0
   -5.0657    2.2010   -0.5780 C   0  0  0  0  0  0  0  0  0  0  0  0
   -5.2916    1.5096    1.7349 C   0  0  0  0  0  0  0  0  0  0  0  0
   -5.6775    2.3475    0.6776 C   0  0  0  0  0  0  0  0  0  0  0  0
   -4.3664   -2.5474    0.3601 C   0  0  0  0  0  0  0  0  0  0  0  0
   -3.8071   -1.8457   -1.9644 C   0  0  0  0  0  0  0  0  0  0  0  0
   -2.2943   -1.0187    1.0821 H   0  0  0  0  0  0  0  0  0  0  0  0
   -5.3521    2.8614   -1.4111 H   0  0  0  0  0  0  0  0  0  0  0  0
    0.9179    0.6185   -2.9126 H   0  0  0  0  0  0  0  0  0  0  0  0
   -3.5908    1.1288   -1.7546 H   0  0  0  0  0  0  0  0  0  0  0  0
   -3.0605   -1.4630   -2.6863 H   0  0  0  0  0  0  0  0  0  0  0  0
   -4.0053   -0.1242    2.3668 H   0  0  0  0  0  0  0  0  0  0  0  0
   -1.1023    1.5693    0.8642 H   0  0  0  0  0  0  0  0  0  0  0  0
   -5.2111   -1.8319    0.3973 H   0  0  0  0  0  0  0  0  0  0  0  0
    3.6057   -2.3330    2.6203 H   0  0  0  0  0  0  0  0  0  0  0  0
   -1.2878   -2.9159   -1.2345 H   0  0  0  0  0  0  0  0  0  0  0  0
   -2.5785   -4.1046   -0.9101 H   0  0  0  0  0  0  0  0  0  0  0  0
    1.8114    0.8217    3.5957 H   0  0  0  0  0  0  0  0  0  0  0  0
   -4.6584   -1.1366   -1.9515 H   0  0  0  0  0  0  0  0  0  0  0  0
    2.3779    2.4134    2.9993 H   0  0  0  0  0  0  0  0  0  0  0  0
    4.0344   -0.8608    3.5449 H   0  0  0  0  0  0  0  0  0  0  0  0
    0.5285    4.8385    0.1308 H   0  0  0  0  0  0  0  0  0  0  0  0
    4.9777    0.6035   -1.9768 H   0  0  0  0  0  0  0  0  0  0  0  0
    0.7813    1.7801    2.5147 H   0  0  0  0  0  0  0  0  0  0  0  0
   -6.4464    3.1196    0.8334 H   0  0  0  0  0  0  0  0  0  0  0  0
    0.4497    3.6758    1.4893 H   0  0  0  0  0  0  0  0  0  0  0  0
    4.2161   -2.3966   -0.9738 H   0  0  0  0  0  0  0  0  0  0  0  0
    1.9814    4.5360    1.1381 H   0  0  0  0  0  0  0  0  0  0  0  0
   -1.7215   -3.3003    0.4458 H   0  0  0  0  0  0  0  0  0  0  0  0
   -4.0083   -2.7092    1.3979 H   0  0  0  0  0  0  0  0  0  0  0  0
   -4.7563   -3.5153   -0.0154 H   0  0  0  0  0  0  0  0  0  0  0  0
   -4.1847   -2.8118   -2.3580 H   0  0  0  0  0  0  0  0  0  0  0  0
    2.3497    2.8984   -2.9653 H   0  0  0  0  0  0  0  0  0  0  0  0
   -0.9553   -1.2423   -2.4819 H   0  0  0  0  0  0  0  0  0  0  0  0
    3.7311   -0.5747   -2.4762 H   0  0  0  0  0  0  0  0  0  0  0  0
    4.5191   -2.7220    0.7546 H   0  0  0  0  0  0  0  0  0  0  0  0
    3.3974    3.8743   -1.8849 H   0  0  0  0  0  0  0  0  0  0  0  0
   -5.7547    1.6230    2.7272 H   0  0  0  0  0  0  0  0  0  0  0  0
    3.3915    1.1809   -2.5479 H   0  0  0  0  0  0  0  0  0  0  0  0
    1.7535    4.4512   -2.3141 H   0  0  0  0  0  0  0  0  0  0  0  0
    5.6059   -1.6190   -0.1476 H   0  0  0  0  0  0  0  0  0  0  0  0
    2.3209   -1.3822    3.4088 H   0  0  0  0  0  0  0  0  0  0  0  0
  1 16  1  0  0  0  0
  2  1  1  1  0  0  0
  2  8  1  0  0  0  0
  3  1  1  6  0  0  0
  3  9  1  0  0  0  0
  4  8  1  0  0  0  0
  4 17  1  0  0  0  0
  5 23  1  0  0  0  0
  6  4  2  0  0  0  0
  7 19  1  1  0  0  0
  7  3  1  0  0  0  0
  7 13  1  0  0  0  0
  8 35  1  0  0  0  0
  9  5  1  0  0  0  0
  9 18  1  1  0  0  0
 10  6  1  0  0  0  0
 10  2  1  0  0  0  0
 11 17  1  0  0  0  0
 11 27  1  0  0  0  0
 12 21  1  0  0  0  0
 13  5  2  0  0  0  0
 14 59  1  0  0  0  0
 14  1  1  0  0  0  0
 15 24  1  0  0  0  0
 15 12  2  0  0  0  0
 16 50  1  0  0  0  0
 16 48  1  0  0  0  0
 17 12  1  0  0  0  0
 17 29  1  1  0  0  0
 18 42  1  0  0  0  0
 18 40  1  0  0  0  0
 20 13  1  0  0  0  0
 20 58  1  0  0  0  0
 21 25  2  0  0  0  0
 21 34  1  0  0  0  0
 22 11  1  0  0  0  0
 22 51  1  0  0  0  0
 23 64  1  0  0  0  0
 23 43  1  0  0  0  0
 24 26  2  0  0  0  0
 25 60  1  0  0  0  0
 26 47  1  0  0  0  0
 26 25  1  0  0  0  0
 27 36  1  0  0  0  0
 27 52  1  0  0  0  0
 28 41  1  0  0  0  0
 28 11  1  0  0  0  0
 30 24  1  0  0  0  0
 31 10  1  0  0  0  0
 32 15  1  0  0  0  0
 33 28  1  0  0  0  0
 37 23  1  0  0  0  0
 38 22  1  0  0  0  0
 39 22  1  0  0  0  0
 44 16  1  0  0  0  0
 45 19  1  0  0  0  0
 46 18  1  0  0  0  0
 49 20  1  0  0  0  0
 53 27  1  0  0  0  0
 54 28  1  0  0  0  0
 55 14  1  0  0  0  0
 56  6  1  0  0  0  0
 57 19  1  0  0  0  0
 61 19  1  0  0  0  0
 62 14  1  0  0  0  0
 63 20  1  0  0  0  0
M  END
