14
 OpenBabel05122313053D

 57 62  0  0  0  0  0  0  0  0999 V2000
   -0.0000   -0.6411    2.4434 Si  0  0  0  0  0  0  0  0  0  0  0  0
    2.8730   -1.9167    0.1219 S   0  0  0  0  0  0  0  0  0  0  0  0
   -2.8731   -1.9169    0.1216 S   0  0  0  0  0  0  0  0  0  0  0  0
    2.8748    1.6921    1.1733 S   0  0  0  0  0  0  0  0  0  0  0  0
   -2.8745    1.6926    1.1736 S   0  0  0  0  0  0  0  0  0  0  0  0
   -1.6033   -0.9331    3.4020 C   0  0  0  0  0  0  0  0  0  0  0  0
   -1.9026   -2.3993    3.7478 C   0  0  0  0  0  0  0  0  0  0  0  0
    1.6033   -0.9332    3.4019 C   0  0  0  0  0  0  0  0  0  0  0  0
    1.9023   -2.3994    3.7481 C   0  0  0  0  0  0  0  0  0  0  0  0
    4.4104    3.4557   -0.3959 C   0  0  0  0  0  0  0  0  0  0  0  0
   -4.4099    3.4566   -0.3954 C   0  0  0  0  0  0  0  0  0  0  0  0
    4.4127   -2.5665   -2.1447 C   0  0  0  0  0  0  0  0  0  0  0  0
   -4.4126   -2.5668   -2.1451 C   0  0  0  0  0  0  0  0  0  0  0  0
   -0.0001   -1.6339    0.8461 C   0  0  0  0  0  3  0  0  0  0  0  0
    1.1267   -1.8693   -0.0268 C   0  0  0  0  0  0  0  0  0  0  0  0
    3.0408   -2.4228   -1.5676 C   0  0  0  0  0  0  0  0  0  0  0  0
    1.8281   -2.5713   -2.2022 C   0  0  0  0  0  0  0  0  0  0  0  0
    0.7184   -2.2565   -1.3526 C   0  0  0  0  0  0  0  0  0  0  0  0
   -0.7183   -2.2565   -1.3527 C   0  0  0  0  0  0  0  0  0  0  0  0
   -1.8280   -2.5715   -2.2023 C   0  0  0  0  0  0  0  0  0  0  0  0
   -3.0407   -2.4231   -1.5679 C   0  0  0  0  0  0  0  0  0  0  0  0
   -1.1268   -1.8694   -0.0269 C   0  0  0  0  0  0  0  0  0  0  0  0
    0.0001    1.0584    1.6357 C   0  0  0  0  0  3  0  0  0  0  0  0
    1.1279    1.7277    1.0265 C   0  0  0  0  0  0  0  0  0  0  0  0
    3.0397    3.0237    0.0167 C   0  0  0  0  0  0  0  0  0  0  0  0
    1.8255    3.4880   -0.4359 C   0  0  0  0  0  0  0  0  0  0  0  0
    0.7184    2.7652    0.1152 C   0  0  0  0  0  0  0  0  0  0  0  0
   -0.7179    2.7654    0.1153 C   0  0  0  0  0  0  0  0  0  0  0  0
   -1.8250    3.4883   -0.4358 C   0  0  0  0  0  0  0  0  0  0  0  0
   -3.0392    3.0242    0.0170 C   0  0  0  0  0  0  0  0  0  0  0  0
   -1.1276    1.7280    1.0267 C   0  0  0  0  0  0  0  0  0  0  0  0
   -2.4312   -0.5118    2.7894 H   0  0  0  0  0  0  0  0  0  0  0  0
   -1.5684   -0.3024    4.3175 H   0  0  0  0  0  0  0  0  0  0  0  0
   -1.1317   -2.8332    4.4160 H   0  0  0  0  0  0  0  0  0  0  0  0
   -2.8797   -2.5044    4.2622 H   0  0  0  0  0  0  0  0  0  0  0  0
   -1.9404   -3.0302    2.8362 H   0  0  0  0  0  0  0  0  0  0  0  0
    1.5687   -0.3022    4.3172 H   0  0  0  0  0  0  0  0  0  0  0  0
    2.4312   -0.5123    2.7890 H   0  0  0  0  0  0  0  0  0  0  0  0
    2.8795   -2.5046    4.2624 H   0  0  0  0  0  0  0  0  0  0  0  0
    1.1315   -2.8328    4.4166 H   0  0  0  0  0  0  0  0  0  0  0  0
    1.9397   -3.0306    2.8367 H   0  0  0  0  0  0  0  0  0  0  0  0
    5.0616    3.6731    0.4759 H   0  0  0  0  0  0  0  0  0  0  0  0
    4.9115    2.6704   -1.0003 H   0  0  0  0  0  0  0  0  0  0  0  0
    4.3472    4.3708   -1.0155 H   0  0  0  0  0  0  0  0  0  0  0  0
   -4.9120    2.6708   -0.9983 H   0  0  0  0  0  0  0  0  0  0  0  0
   -5.0604    3.6757    0.4765 H   0  0  0  0  0  0  0  0  0  0  0  0
   -4.3465    4.3707   -1.0163 H   0  0  0  0  0  0  0  0  0  0  0  0
    4.9147   -1.5797   -2.2310 H   0  0  0  0  0  0  0  0  0  0  0  0
    5.0621   -3.2188   -1.5249 H   0  0  0  0  0  0  0  0  0  0  0  0
    4.3516   -3.0050   -3.1591 H   0  0  0  0  0  0  0  0  0  0  0  0
   -4.3513   -3.0054   -3.1595 H   0  0  0  0  0  0  0  0  0  0  0  0
   -5.0619   -3.2192   -1.5253 H   0  0  0  0  0  0  0  0  0  0  0  0
   -4.9146   -1.5801   -2.2314 H   0  0  0  0  0  0  0  0  0  0  0  0
    1.7441   -2.8568   -3.2587 H   0  0  0  0  0  0  0  0  0  0  0  0
   -1.7438   -2.8570   -3.2588 H   0  0  0  0  0  0  0  0  0  0  0  0
    1.7379    4.2958   -1.1739 H   0  0  0  0  0  0  0  0  0  0  0  0
   -1.7374    4.2961   -1.1738 H   0  0  0  0  0  0  0  0  0  0  0  0
  1  8  1  0  0  0  0
  1  6  1  0  0  0  0
  6  7  1  0  0  0  0
  6 33  1  0  0  0  0
  7 35  1  0  0  0  0
  7 34  1  0  0  0  0
  8  9  1  0  0  0  0
  8 37  1  0  0  0  0
  9 39  1  0  0  0  0
  9 40  1  0  0  0  0
 10 25  1  0  0  0  0
 10 42  1  0  0  0  0
 11 30  1  0  0  0  0
 11 46  1  0  0  0  0
 12 16  1  0  0  0  0
 12 49  1  0  0  0  0
 13 21  1  0  0  0  0
 13 52  1  0  0  0  0
 14  1  1  0  0  0  0
 15  2  1  0  0  0  0
 15 14  1  0  0  0  0
 16  2  1  0  0  0  0
 17 16  2  0  0  0  0
 17 18  1  0  0  0  0
 18 15  2  0  0  0  0
 19 18  1  0  0  0  0
 19 22  2  0  0  0  0
 20 21  2  0  0  0  0
 20 19  1  0  0  0  0
 21  3  1  0  0  0  0
 22  3  1  0  0  0  0
 22 14  1  0  0  0  0
 23  1  1  0  0  0  0
 24  4  1  0  0  0  0
 24 23  1  0  0  0  0
 25  4  1  0  0  0  0
 26 25  2  0  0  0  0
 26 27  1  0  0  0  0
 27 28  1  0  0  0  0
 27 24  2  0  0  0  0
 28 31  2  0  0  0  0
 29 30  2  0  0  0  0
 29 28  1  0  0  0  0
 30  5  1  0  0  0  0
 31  5  1  0  0  0  0
 31 23  1  0  0  0  0
 32  6  1  0  0  0  0
 36  7  1  0  0  0  0
 38  8  1  0  0  0  0
 41  9  1  0  0  0  0
 43 10  1  0  0  0  0
 44 10  1  0  0  0  0
 45 11  1  0  0  0  0
 47 11  1  0  0  0  0
 48 12  1  0  0  0  0
 50 12  1  0  0  0  0
 51 13  1  0  0  0  0
 53 13  1  0  0  0  0
 54 17  1  0  0  0  0
 55 20  1  0  0  0  0
 56 26  1  0  0  0  0
 57 29  1  0  0  0  0
M  END
