3,6
 OpenBabel05122313053D

 38 37  0  0  0  0  0  0  0  0999 V2000
    3.3127    0.5660    0.0185 Si  0  0  0  0  0  0  0  0  0  0  0  0
   -3.3127    0.5660   -0.0185 Si  0  0  0  0  0  0  0  0  0  0  0  0
    1.4329    0.6949    0.0181 C   0  0  0  0  0  3  0  0  0  0  0  0
    0.7447    1.8906   -0.0141 C   0  0  0  0  0  0  0  0  0  0  0  0
   -0.7448    1.8906    0.0141 C   0  0  0  0  0  0  0  0  0  0  0  0
   -1.4329    0.6949   -0.0181 C   0  0  0  0  0  3  0  0  0  0  0  0
    1.4261    3.2460   -0.1106 C   0  0  0  0  0  0  0  0  0  0  0  0
   -1.4262    3.2459    0.1105 C   0  0  0  0  0  0  0  0  0  0  0  0
    3.9639   -1.1788    0.4262 C   0  0  0  0  0  0  0  0  0  0  0  0
    5.0640   -1.1802    0.2758 H   0  0  0  0  0  0  0  0  0  0  0  0
    3.7819   -1.4431    1.4874 H   0  0  0  0  0  0  0  0  0  0  0  0
    3.5406   -1.9861   -0.2017 H   0  0  0  0  0  0  0  0  0  0  0  0
    4.0180    1.0356   -1.6872 C   0  0  0  0  0  0  0  0  0  0  0  0
    3.7363    2.0682   -1.9760 H   0  0  0  0  0  0  0  0  0  0  0  0
    5.1263    0.9699   -1.6875 H   0  0  0  0  0  0  0  0  0  0  0  0
    3.6388    0.3567   -2.4784 H   0  0  0  0  0  0  0  0  0  0  0  0
    4.1240    1.6504    1.3621 C   0  0  0  0  0  0  0  0  0  0  0  0
    3.9968    2.7371    1.1948 H   0  0  0  0  0  0  0  0  0  0  0  0
    3.6956    1.4157    2.3589 H   0  0  0  0  0  0  0  0  0  0  0  0
    5.2128    1.4368    1.4076 H   0  0  0  0  0  0  0  0  0  0  0  0
   -3.9639   -1.1788   -0.4262 C   0  0  0  0  0  0  0  0  0  0  0  0
   -3.5406   -1.9861    0.2016 H   0  0  0  0  0  0  0  0  0  0  0  0
   -5.0641   -1.1803   -0.2758 H   0  0  0  0  0  0  0  0  0  0  0  0
   -3.7820   -1.4431   -1.4874 H   0  0  0  0  0  0  0  0  0  0  0  0
   -4.1240    1.6504   -1.3621 C   0  0  0  0  0  0  0  0  0  0  0  0
   -3.9969    2.7371   -1.1946 H   0  0  0  0  0  0  0  0  0  0  0  0
   -3.6955    1.4158   -2.3588 H   0  0  0  0  0  0  0  0  0  0  0  0
   -5.2127    1.4367   -1.4077 H   0  0  0  0  0  0  0  0  0  0  0  0
   -4.0180    1.0355    1.6873 C   0  0  0  0  0  0  0  0  0  0  0  0
   -3.6386    0.3566    2.4784 H   0  0  0  0  0  0  0  0  0  0  0  0
   -3.7364    2.0682    1.9760 H   0  0  0  0  0  0  0  0  0  0  0  0
   -5.1262    0.9696    1.6876 H   0  0  0  0  0  0  0  0  0  0  0  0
    1.2889    3.8492    0.8131 H   0  0  0  0  0  0  0  0  0  0  0  0
    1.0051    3.8511   -0.9408 H   0  0  0  0  0  0  0  0  0  0  0  0
    2.5115    3.1562   -0.2889 H   0  0  0  0  0  0  0  0  0  0  0  0
   -1.0052    3.8511    0.9408 H   0  0  0  0  0  0  0  0  0  0  0  0
   -2.5116    3.1561    0.2889 H   0  0  0  0  0  0  0  0  0  0  0  0
   -1.2891    3.8491   -0.8131 H   0  0  0  0  0  0  0  0  0  0  0  0
  1  9  1  0  0  0  0
  1 17  1  0  0  0  0
  2  6  1  0  0  0  0
  2 29  1  0  0  0  0
  3  1  1  0  0  0  0
  4  5  1  0  0  0  0
  4  3  2  0  0  0  0
  5  8  1  0  0  0  0
  6  5  2  0  0  0  0
  7  4  1  0  0  0  0
  7 33  1  0  0  0  0
  8 37  1  0  0  0  0
  8 36  1  0  0  0  0
  9 11  1  0  0  0  0
 10  9  1  0  0  0  0
 12  9  1  0  0  0  0
 13  1  1  0  0  0  0
 14 13  1  0  0  0  0
 15 13  1  0  0  0  0
 16 13  1  0  0  0  0
 17 20  1  0  0  0  0
 17 19  1  0  0  0  0
 18 17  1  0  0  0  0
 21 23  1  0  0  0  0
 21  2  1  0  0  0  0
 21 22  1  0  0  0  0
 24 21  1  0  0  0  0
 25 26  1  0  0  0  0
 25  2  1  0  0  0  0
 27 25  1  0  0  0  0
 28 25  1  0  0  0  0
 29 32  1  0  0  0  0
 29 31  1  0  0  0  0
 29 30  1  0  0  0  0
 34  7  1  0  0  0  0
 35  7  1  0  0  0  0
 38  8  1  0  0  0  0
M  END
