39,43
 OpenBabel05122313053D

 48 50  0  0  1  0  0  0  0  0999 V2000
   -1.0691    2.3726   -0.3558 S   0  0  0  0  0  0  0  0  0  0  0  0
    5.0529   -1.5637    0.7919 O   0  0  0  0  0  0  0  0  0  0  0  0
    5.7671    0.9454   -0.0025 O   0  0  0  0  0  0  0  0  0  0  0  0
    3.1605    2.1930    0.1256 O   0  0  0  0  0  0  0  0  0  0  0  0
    0.9566    0.2230    0.5096 O   0  0  0  0  0  0  0  0  0  0  0  0
    3.5917   -1.8039   -1.0286 O   0  0  0  0  0  0  0  0  0  0  0  0
    0.0792   -1.8827   -0.0393 O   0  0  0  0  0  0  0  0  0  0  0  0
    4.7547   -1.1576   -0.5115 C   0  0  1  0  0  0  0  0  0  0  0  0
    5.5721   -1.4419   -1.2139 H   0  0  0  0  0  0  0  0  0  0  0  0
    4.5831    0.3750   -0.5099 C   0  0  1  0  0  0  0  0  0  0  0  0
    4.4222    0.6761   -1.5730 H   0  0  0  0  0  0  0  0  0  0  0  0
    3.3301    0.7971    0.2848 C   0  0  2  0  0  0  0  0  0  0  0  0
    3.4985    0.5389    1.3567 H   0  0  0  0  0  0  0  0  0  0  0  0
    2.1442   -0.0034   -0.2533 C   0  0  1  0  0  0  0  0  0  0  0  0
    1.9661    0.3198   -1.3097 H   0  0  0  0  0  0  0  0  0  0  0  0
    2.4443   -1.5091   -0.2426 C   0  0  1  0  0  0  0  0  0  0  0  0
    2.6019   -1.8137    0.8167 H   0  0  0  0  0  0  0  0  0  0  0  0
    1.2316   -2.2585   -0.7900 C   0  0  0  0  0  0  0  0  0  0  0  0
    1.0984   -2.0150   -1.8716 H   0  0  0  0  0  0  0  0  0  0  0  0
    1.3470   -3.3545   -0.6881 H   0  0  0  0  0  0  0  0  0  0  0  0
   -0.1284   -0.4925   -0.0695 C   0  0  1  0  0  0  0  0  0  0  0  0
   -0.2394   -0.1545   -1.1337 H   0  0  0  0  0  0  0  0  0  0  0  0
    5.5227   -2.8980    0.8807 C   0  0  0  0  0  0  0  0  0  0  0  0
    5.7175   -3.1075    1.9493 H   0  0  0  0  0  0  0  0  0  0  0  0
    6.4704   -3.0313    0.3083 H   0  0  0  0  0  0  0  0  0  0  0  0
    4.7763   -3.6272    0.4946 H   0  0  0  0  0  0  0  0  0  0  0  0
    6.1471    2.1675   -0.6073 C   0  0  0  0  0  0  0  0  0  0  0  0
    7.1065    2.4716   -0.1447 H   0  0  0  0  0  0  0  0  0  0  0  0
    5.3908    2.9652   -0.4492 H   0  0  0  0  0  0  0  0  0  0  0  0
    6.3090    2.0511   -1.7069 H   0  0  0  0  0  0  0  0  0  0  0  0
    2.4968    2.8395    1.1993 C   0  0  0  0  0  0  0  0  0  0  0  0
    2.5386    3.9275    0.9953 H   0  0  0  0  0  0  0  0  0  0  0  0
    3.0079    2.6411    2.1712 H   0  0  0  0  0  0  0  0  0  0  0  0
    1.4337    2.5293    1.2858 H   0  0  0  0  0  0  0  0  0  0  0  0
   -1.3739   -0.1477    0.7081 C   0  0  1  0  0  3  0  0  0  0  0  0
   -1.9508    1.1635    0.5980 C   0  0  0  0  0  0  0  0  0  0  0  0
   -3.1794    1.4460    1.2708 C   0  0  0  0  0  0  0  0  0  0  0  0
   -3.6666    2.4207    1.1530 H   0  0  0  0  0  0  0  0  0  0  0  0
   -3.8064    0.4436    2.0608 C   0  0  0  0  0  3  0  0  0  0  0  0
   -4.7735    0.6639    2.5345 H   0  0  0  0  0  0  0  0  0  0  0  0
   -3.2035   -0.8321    2.2371 C   0  0  0  0  0  3  0  0  0  0  0  0
   -3.7010   -1.6080    2.8330 H   0  0  0  0  0  0  0  0  0  0  0  0
   -2.0071   -1.1233    1.5329 C   0  0  0  0  0  3  0  0  0  0  0  0
   -1.5555   -2.1231    1.5735 H   0  0  0  0  0  0  0  0  0  0  0  0
   -2.3737    3.5602   -0.7935 C   0  0  0  0  0  0  0  0  0  0  0  0
   -1.8904    4.2700   -1.4915 H   0  0  0  0  0  0  0  0  0  0  0  0
   -2.7388    4.1261    0.0853 H   0  0  0  0  0  0  0  0  0  0  0  0
   -3.2088    3.0558   -1.3162 H   0  0  0  0  0  0  0  0  0  0  0  0
  1 36  1  0  0  0  0
  2 23  1  0  0  0  0
  4 12  1  0  0  0  0
  4 31  1  0  0  0  0
  6  8  1  0  0  0  0
  6 16  1  0  0  0  0
  8  9  1  6  0  0  0
  8 10  1  0  0  0  0
  8  2  1  0  0  0  0
 10 11  1  6  0  0  0
 10  3  1  0  0  0  0
 10 12  1  0  0  0  0
 12 13  1  1  0  0  0
 14 15  1  6  0  0  0
 14 16  1  0  0  0  0
 14 12  1  0  0  0  0
 14  5  1  0  0  0  0
 16 17  1  1  0  0  0
 18 20  1  0  0  0  0
 18 16  1  0  0  0  0
 18  7  1  0  0  0  0
 19 18  1  0  0  0  0
 21 22  1  6  0  0  0
 21  7  1  0  0  0  0
 21  5  1  0  0  0  0
 21 35  1  0  0  0  0
 23 24  1  0  0  0  0
 25 23  1  0  0  0  0
 26 23  1  0  0  0  0
 27 29  1  0  0  0  0
 27 28  1  0  0  0  0
 27  3  1  0  0  0  0
 30 27  1  0  0  0  0
 31 34  1  0  0  0  0
 31 33  1  0  0  0  0
 32 31  1  0  0  0  0
 35 36  1  6  0  0  0
 35 43  1  0  0  0  0
 36 37  2  0  0  0  0
 37 39  1  0  0  0  0
 38 37  1  0  0  0  0
 39 41  1  0  0  0  0
 39 40  1  0  0  0  0
 41 42  1  0  0  0  0
 43 44  1  0  0  0  0
 43 41  1  0  0  0  0
 45  1  1  0  0  0  0
 45 47  1  0  0  0  0
 46 45  1  0  0  0  0
 48 45  1  0  0  0  0
M  END
