2,5
 OpenBabel05122313053D

 52 54  0  0  0  0  0  0  0  0999 V2000
    1.9221   -0.1782   -0.8680 P   0  0  0  0  0  0  0  0  0  0  0  0
   -2.5791   -0.9223    0.4884 C   0  0  0  0  0  3  0  0  0  0  0  0
   -1.7255   -1.9666    0.2027 C   0  0  0  0  0  0  0  0  0  0  0  0
   -0.3372   -1.6920   -0.2931 C   0  0  0  0  0  0  0  0  0  0  0  0
    0.2044   -0.4149   -0.2627 C   0  0  0  0  0  3  0  0  0  0  0  0
   -4.0064   -1.1490    0.9431 C   0  0  0  0  0  0  0  0  0  0  0  0
   -4.0518   -1.9461    1.7209 H   0  0  0  0  0  0  0  0  0  0  0  0
   -4.4021   -0.2357    1.4377 H   0  0  0  0  0  0  0  0  0  0  0  0
   -4.9694   -1.5163   -0.2003 C   0  0  0  0  0  0  0  0  0  0  0  0
   -5.9961   -1.6960    0.1803 H   0  0  0  0  0  0  0  0  0  0  0  0
   -4.6365   -2.4312   -0.7307 H   0  0  0  0  0  0  0  0  0  0  0  0
   -5.0296   -0.7048   -0.9526 H   0  0  0  0  0  0  0  0  0  0  0  0
   -2.0793   -3.4207    0.4961 C   0  0  0  0  0  0  0  0  0  0  0  0
   -1.7546   -4.0759   -0.3374 H   0  0  0  0  0  0  0  0  0  0  0  0
   -3.1771   -3.5420    0.5704 H   0  0  0  0  0  0  0  0  0  0  0  0
   -1.4238   -3.9073    1.7981 C   0  0  0  0  0  0  0  0  0  0  0  0
   -1.6816   -4.9646    2.0135 H   0  0  0  0  0  0  0  0  0  0  0  0
   -1.7517   -3.2913    2.6614 H   0  0  0  0  0  0  0  0  0  0  0  0
   -0.3185   -3.8381    1.7381 H   0  0  0  0  0  0  0  0  0  0  0  0
    0.3993   -2.8379   -0.9285 C   0  0  0  0  0  0  0  0  0  0  0  0
   -0.0877   -3.3588   -2.1496 C   0  0  0  0  0  0  0  0  0  0  0  0
   -1.0106   -2.9360   -2.5777 H   0  0  0  0  0  0  0  0  0  0  0  0
    0.5942   -4.3824   -2.8204 C   0  0  0  0  0  0  0  0  0  0  0  0
    0.2031   -4.7653   -3.7758 H   0  0  0  0  0  0  0  0  0  0  0  0
    1.7754   -4.9165   -2.2778 C   0  0  0  0  0  0  0  0  0  0  0  0
    2.3117   -5.7216   -2.8028 H   0  0  0  0  0  0  0  0  0  0  0  0
    2.2667   -4.4131   -1.0652 C   0  0  0  0  0  0  0  0  0  0  0  0
    3.1927   -4.8209   -0.6317 H   0  0  0  0  0  0  0  0  0  0  0  0
    1.5860   -3.3821   -0.3973 C   0  0  0  0  0  0  0  0  0  0  0  0
    1.9840   -2.9975    0.5526 H   0  0  0  0  0  0  0  0  0  0  0  0
    2.4354   -0.8321    1.8818 C   0  0  0  0  0  0  0  0  0  0  0  0
    1.4064   -1.2234    1.9047 H   0  0  0  0  0  0  0  0  0  0  0  0
    2.9073   -0.2159    0.7033 C   0  0  0  0  0  0  0  0  0  0  0  0
    4.2273    0.2908    0.6924 C   0  0  0  0  0  0  0  0  0  0  0  0
    4.6193    0.7662   -0.2210 H   0  0  0  0  0  0  0  0  0  0  0  0
    5.0396    0.2005    1.8306 C   0  0  0  0  0  0  0  0  0  0  0  0
    6.0625    0.6072    1.8033 H   0  0  0  0  0  0  0  0  0  0  0  0
    4.5570   -0.4118    3.0008 C   0  0  0  0  0  0  0  0  0  0  0  0
    5.1974   -0.4858    3.8927 H   0  0  0  0  0  0  0  0  0  0  0  0
    3.2534   -0.9299    3.0198 C   0  0  0  0  0  0  0  0  0  0  0  0
    2.8631   -1.4102    3.9307 H   0  0  0  0  0  0  0  0  0  0  0  0
    1.9994    1.6442   -1.2502 C   0  0  0  0  0  0  0  0  0  0  0  0
    1.9561    2.0068   -2.6137 C   0  0  0  0  0  0  0  0  0  0  0  0
    1.8950    1.2124   -3.3753 H   0  0  0  0  0  0  0  0  0  0  0  0
    1.9989    3.3541   -3.0062 C   0  0  0  0  0  0  0  0  0  0  0  0
    1.9573    3.6158   -4.0746 H   0  0  0  0  0  0  0  0  0  0  0  0
    2.1056    4.3650   -2.0369 C   0  0  0  0  0  0  0  0  0  0  0  0
    2.1462    5.4219   -2.3414 H   0  0  0  0  0  0  0  0  0  0  0  0
    2.1775    4.0177   -0.6769 C   0  0  0  0  0  0  0  0  0  0  0  0
    2.2795    4.8037    0.0878 H   0  0  0  0  0  0  0  0  0  0  0  0
    2.1269    2.6699   -0.2884 C   0  0  0  0  0  0  0  0  0  0  0  0
    2.2102    2.4084    0.7759 H   0  0  0  0  0  0  0  0  0  0  0  0
  1  5  1  0  0  0  0
  1 33  1  0  0  0  0
  2  6  1  0  0  0  0
  3  2  2  0  0  0  0
  3 13  1  0  0  0  0
  4  5  2  0  0  0  0
  4  3  1  0  0  0  0
  6  8  1  0  0  0  0
  6  7  1  0  0  0  0
  9 10  1  0  0  0  0
  9  6  1  0  0  0  0
 11  9  1  0  0  0  0
 12  9  1  0  0  0  0
 13 15  1  0  0  0  0
 13 16  1  0  0  0  0
 14 13  1  0  0  0  0
 16 17  1  0  0  0  0
 16 18  1  0  0  0  0
 19 16  1  0  0  0  0
 20 29  1  0  0  0  0
 20  4  1  0  0  0  0
 21 20  2  0  0  0  0
 22 21  1  0  0  0  0
 23 25  2  0  0  0  0
 23 21  1  0  0  0  0
 24 23  1  0  0  0  0
 25 27  1  0  0  0  0
 26 25  1  0  0  0  0
 27 28  1  0  0  0  0
 27 29  2  0  0  0  0
 29 30  1  0  0  0  0
 31 32  1  0  0  0  0
 31 40  1  0  0  0  0
 33 31  2  0  0  0  0
 34 33  1  0  0  0  0
 34 36  2  0  0  0  0
 35 34  1  0  0  0  0
 36 38  1  0  0  0  0
 37 36  1  0  0  0  0
 38 40  2  0  0  0  0
 38 39  1  0  0  0  0
 40 41  1  0  0  0  0
 42  1  1  0  0  0  0
 42 51  1  0  0  0  0
 43 42  2  0  0  0  0
 44 43  1  0  0  0  0
 45 43  1  0  0  0  0
 45 47  2  0  0  0  0
 46 45  1  0  0  0  0
 47 49  1  0  0  0  0
 48 47  1  0  0  0  0
 49 51  2  0  0  0  0
 49 50  1  0  0  0  0
 51 52  1  0  0  0  0
M  END
