21,25
 OpenBabel05122313053D

 34 36  0  0  0  0  0  0  0  0999 V2000
   -3.1144   -0.2201    0.0762 C   0  0  0  0  0  0  0  0  0  0  0  0
   -3.6044   -1.5263    0.2706 C   0  0  0  0  0  0  0  0  0  0  0  0
   -2.9237   -2.3829    0.3746 H   0  0  0  0  0  0  0  0  0  0  0  0
   -4.9918   -1.7386    0.3336 C   0  0  0  0  0  0  0  0  0  0  0  0
   -5.3757   -2.7589    0.4853 H   0  0  0  0  0  0  0  0  0  0  0  0
   -5.8934   -0.6679    0.2060 C   0  0  0  0  0  0  0  0  0  0  0  0
   -6.9767   -0.8546    0.2582 H   0  0  0  0  0  0  0  0  0  0  0  0
   -5.4152    0.6411    0.0122 C   0  0  0  0  0  0  0  0  0  0  0  0
   -6.1189    1.4824   -0.0879 H   0  0  0  0  0  0  0  0  0  0  0  0
   -4.0365    0.8568   -0.0515 C   0  0  0  0  0  0  0  0  0  0  0  0
   -3.2673    2.1371   -0.2479 C   0  0  0  0  0  0  0  0  0  0  0  0
   -3.5271    2.6391   -1.2078 H   0  0  0  0  0  0  0  0  0  0  0  0
   -3.4870    2.8844    0.5484 H   0  0  0  0  0  0  0  0  0  0  0  0
   -1.8354    1.6819   -0.2175 C   0  0  0  0  0  0  0  0  0  0  0  0
   -0.9835    2.3643   -0.3325 H   0  0  0  0  0  0  0  0  0  0  0  0
   -1.7415    0.3315   -0.0319 C   0  0  0  0  0  0  0  0  0  0  0  0
   -0.4480   -0.4803    0.0445 C   0  0  0  0  0  0  0  0  0  0  0  0
    0.7296    0.4719   -0.0992 C   0  0  0  0  0  0  0  0  0  0  0  0
    1.3573    1.2226    0.9356 C   0  0  0  0  0  0  0  0  0  0  0  0
    1.1251    1.1670    2.0048 H   0  0  0  0  0  0  0  0  0  0  0  0
    2.3744    2.0804    0.3460 C   0  0  0  0  0  3  0  0  0  0  0  0
    3.0299    2.7608    0.9030 H   0  0  0  0  0  0  0  0  0  0  0  0
    2.3707    1.8827   -1.0613 C   0  0  0  0  0  3  0  0  0  0  0  0
    3.0158    2.3759   -1.7967 H   0  0  0  0  0  0  0  0  0  0  0  0
    1.3946    0.8586   -1.3315 C   0  0  0  0  0  3  0  0  0  0  0  0
    1.1683    0.4524   -2.3241 H   0  0  0  0  0  0  0  0  0  0  0  0
   -0.3538   -1.2061    1.4070 C   0  0  0  0  0  0  0  0  0  0  0  0
    0.6269   -1.7159    1.4882 H   0  0  0  0  0  0  0  0  0  0  0  0
   -1.1563   -1.9584    1.5199 H   0  0  0  0  0  0  0  0  0  0  0  0
   -0.4499   -0.4953    2.2506 H   0  0  0  0  0  0  0  0  0  0  0  0
   -0.4265   -1.5221   -1.0981 C   0  0  0  0  0  0  0  0  0  0  0  0
    0.5245   -2.0905   -1.0850 H   0  0  0  0  0  0  0  0  0  0  0  0
   -0.5351   -1.0385   -2.0883 H   0  0  0  0  0  0  0  0  0  0  0  0
   -1.2602   -2.2409   -0.9956 H   0  0  0  0  0  0  0  0  0  0  0  0
  1  2  1  0  0  0  0
  2  4  2  0  0  0  0
  2  3  1  0  0  0  0
  4  5  1  0  0  0  0
  6  7  1  0  0  0  0
  6  4  1  0  0  0  0
  8  6  2  0  0  0  0
  9  8  1  0  0  0  0
 10  8  1  0  0  0  0
 10  1  2  0  0  0  0
 11 14  1  0  0  0  0
 11 10  1  0  0  0  0
 11 13  1  0  0  0  0
 12 11  1  0  0  0  0
 14 16  2  0  0  0  0
 15 14  1  0  0  0  0
 16 17  1  0  0  0  0
 16  1  1  0  0  0  0
 17 27  1  0  0  0  0
 18 17  1  0  0  0  0
 18 19  2  0  0  0  0
 19 20  1  0  0  0  0
 21 22  1  0  0  0  0
 21 19  1  0  0  0  0
 23 21  1  0  0  0  0
 24 23  1  0  0  0  0
 25 23  1  0  0  0  0
 25 18  1  0  0  0  0
 26 25  1  0  0  0  0
 27 28  1  0  0  0  0
 27 29  1  0  0  0  0
 27 30  1  0  0  0  0
 31 32  1  0  0  0  0
 31 34  1  0  0  0  0
 31 17  1  0  0  0  0
 33 31  1  0  0  0  0
M  END
