2,4
 OpenBabel05122313053D

 45 48  0  0  1  0  0  0  0  0999 V2000
   -1.8231    1.0472    3.3500 O   0  0  0  0  0  0  0  0  0  0  0  0
    0.8301   -1.3875   -0.5982 C   0  0  0  0  0  3  0  0  0  0  0  0
    1.8231   -2.1081   -1.3279 C   0  0  0  0  0  3  0  0  0  0  0  0
    2.8224   -1.3869   -2.0225 C   0  0  0  0  0  3  0  0  0  0  0  0
    2.8094    0.0415   -2.0275 C   0  0  0  0  0  0  0  0  0  0  0  0
    1.8193    0.7689   -1.3119 C   0  0  0  0  0  0  0  0  0  0  0  0
    0.7955    0.0396   -0.6006 C   0  0  1  0  0  3  0  0  0  0  0  0
   -0.3125    0.7461    0.0946 C   0  0  0  0  0  0  0  0  0  0  0  0
   -1.2464    1.5669   -0.7853 C   0  0  2  0  0  0  0  0  0  0  0  0
   -0.6518    2.9544   -1.1287 C   0  0  0  0  0  0  0  0  0  0  0  0
    0.6237    2.9338   -1.9770 C   0  0  0  0  0  0  0  0  0  0  0  0
    1.8394    2.2805   -1.2946 C   0  0  0  0  0  0  0  0  0  0  0  0
   -0.5054    0.6108    1.4346 C   0  0  0  0  0  0  0  0  0  0  0  0
   -1.6400    1.2308    2.1508 C   0  0  0  0  0  0  0  0  0  0  0  0
   -2.5383    2.1388    1.3202 C   0  0  0  0  0  0  0  0  0  0  0  0
   -2.6519    1.6886   -0.1528 C   0  0  2  0  0  0  0  0  0  0  0  0
   -3.5123    0.4333   -0.2761 C   0  0  0  0  0  0  0  0  0  0  0  0
   -3.0254   -0.8193   -0.6907 C   0  0  0  0  0  0  0  0  0  0  0  0
   -3.8706   -1.9379   -0.7733 C   0  0  0  0  0  0  0  0  0  0  0  0
   -5.2352   -1.8518   -0.4459 C   0  0  0  0  0  0  0  0  0  0  0  0
   -5.7274   -0.5924   -0.0413 C   0  0  0  0  0  0  0  0  0  0  0  0
   -4.8854    0.5208    0.0413 C   0  0  0  0  0  0  0  0  0  0  0  0
   -6.1428   -3.0539   -0.5105 C   0  0  0  0  0  0  0  0  0  0  0  0
   -1.3499    1.0268   -1.7525 H   0  0  0  0  0  0  0  0  0  0  0  0
   -0.4521    3.5114   -0.1877 H   0  0  0  0  0  0  0  0  0  0  0  0
   -1.4323    3.5272   -1.6733 H   0  0  0  0  0  0  0  0  0  0  0  0
    0.4255    2.4317   -2.9493 H   0  0  0  0  0  0  0  0  0  0  0  0
    0.8893    3.9830   -2.2225 H   0  0  0  0  0  0  0  0  0  0  0  0
    1.8951    2.6369   -0.2445 H   0  0  0  0  0  0  0  0  0  0  0  0
    2.7733    2.6179   -1.7862 H   0  0  0  0  0  0  0  0  0  0  0  0
    0.1910    0.0168    2.0471 H   0  0  0  0  0  0  0  0  0  0  0  0
   -3.5240    2.1939    1.8199 H   0  0  0  0  0  0  0  0  0  0  0  0
   -2.1000    3.1607    1.3709 H   0  0  0  0  0  0  0  0  0  0  0  0
   -3.1882    2.4911   -0.7053 H   0  0  0  0  0  0  0  0  0  0  0  0
   -1.9676   -0.9421   -0.9617 H   0  0  0  0  0  0  0  0  0  0  0  0
   -3.4547   -2.9038   -1.1017 H   0  0  0  0  0  0  0  0  0  0  0  0
   -6.7945   -0.4839    0.2110 H   0  0  0  0  0  0  0  0  0  0  0  0
   -5.3065    1.4896    0.3559 H   0  0  0  0  0  0  0  0  0  0  0  0
   -7.0729   -2.8314   -1.0727 H   0  0  0  0  0  0  0  0  0  0  0  0
   -5.6464   -3.9158   -0.9968 H   0  0  0  0  0  0  0  0  0  0  0  0
   -6.4527   -3.3762    0.5064 H   0  0  0  0  0  0  0  0  0  0  0  0
    0.0741   -1.9292   -0.0123 H   0  0  0  0  0  0  0  0  0  0  0  0
    3.6134    0.5913   -2.5361 H   0  0  0  0  0  0  0  0  0  0  0  0
    3.6321   -1.9249   -2.5351 H   0  0  0  0  0  0  0  0  0  0  0  0
    1.8482   -3.2052   -1.2908 H   0  0  0  0  0  0  0  0  0  0  0  0
  2 42  1  0  0  0  0
  3 45  1  0  0  0  0
  3  2  1  0  0  0  0
  4  3  1  0  0  0  0
  5  4  1  0  0  0  0
  5  6  2  0  0  0  0
  6 12  1  0  0  0  0
  7  6  1  6  0  0  0
  7  2  1  0  0  0  0
  7  8  1  0  0  0  0
  8 13  2  0  0  0  0
  9 24  1  6  0  0  0
  9 16  1  0  0  0  0
  9  8  1  0  0  0  0
 10  9  1  0  0  0  0
 10 25  1  0  0  0  0
 11 12  1  0  0  0  0
 11 10  1  0  0  0  0
 12 29  1  0  0  0  0
 13 31  1  0  0  0  0
 13 14  1  0  0  0  0
 14  1  2  0  0  0  0
 15 33  1  0  0  0  0
 15 32  1  0  0  0  0
 15 14  1  0  0  0  0
 16 34  1  6  0  0  0
 16 15  1  0  0  0  0
 17 16  1  0  0  0  0
 17 22  1  0  0  0  0
 18 17  2  0  0  0  0
 19 18  1  0  0  0  0
 19 20  2  0  0  0  0
 20 21  1  0  0  0  0
 21 22  2  0  0  0  0
 21 37  1  0  0  0  0
 22 38  1  0  0  0  0
 23 20  1  0  0  0  0
 23 41  1  0  0  0  0
 26 10  1  0  0  0  0
 27 11  1  0  0  0  0
 28 11  1  0  0  0  0
 30 12  1  0  0  0  0
 35 18  1  0  0  0  0
 36 19  1  0  0  0  0
 39 23  1  0  0  0  0
 40 23  1  0  0  0  0
 43  5  1  0  0  0  0
 44  4  1  0  0  0  0
M  END
