6,14
 OpenBabel05122313053D

 75 76  0  0  1  0  0  0  0  0999 V2000
   -0.0000   -1.4146    3.2261 Si  0  0  0  0  0  0  0  0  0  0  0  0
    3.5688   -1.2940   -1.4379 Si  0  0  0  0  0  0  0  0  0  0  0  0
   -3.1221    2.3550    0.0548 Si  0  0  0  0  0  0  0  0  0  0  0  0
   -3.5688   -1.2940   -1.4379 Si  0  0  0  0  0  0  0  0  0  0  0  0
    3.1221    2.3550    0.0548 Si  0  0  0  0  0  0  0  0  0  0  0  0
    1.5966    0.5669    1.7589 C   0  0  0  0  0  3  0  0  0  0  0  0
    1.2663    1.4159    2.3733 H   0  0  0  0  0  0  0  0  0  0  0  0
    2.3586    0.6827    0.5487 C   0  0  2  0  0  3  0  0  0  0  0  0
    2.5791   -0.6581    0.0604 C   0  0  0  0  0  0  0  0  0  0  0  0
    1.9800   -1.5529    1.0153 C   0  0  0  0  0  0  0  0  0  0  0  0
    1.9578   -2.6456    0.9131 H   0  0  0  0  0  0  0  0  0  0  0  0
    1.3800   -0.8198    2.0828 C   0  0  2  0  0  3  0  0  0  0  0  0
   -1.3800   -0.8197    2.0828 C   0  0  1  0  0  3  0  0  0  0  0  0
   -1.5966    0.5669    1.7589 C   0  0  0  0  0  3  0  0  0  0  0  0
   -1.2663    1.4159    2.3733 H   0  0  0  0  0  0  0  0  0  0  0  0
   -2.3587    0.6827    0.5487 C   0  0  1  0  0  3  0  0  0  0  0  0
   -2.5792   -0.6581    0.0604 C   0  0  0  0  0  0  0  0  0  0  0  0
   -1.9800   -1.5529    1.0153 C   0  0  0  0  0  0  0  0  0  0  0  0
   -1.9578   -2.6456    0.9131 H   0  0  0  0  0  0  0  0  0  0  0  0
    2.0088    3.7371    0.7085 C   0  0  0  0  0  0  0  0  0  0  0  0
    1.8405    3.6674    1.8023 H   0  0  0  0  0  0  0  0  0  0  0  0
    1.0247    3.7145    0.2012 H   0  0  0  0  0  0  0  0  0  0  0  0
    2.4759    4.7229    0.5066 H   0  0  0  0  0  0  0  0  0  0  0  0
    3.4010    2.6327   -1.7908 C   0  0  0  0  0  0  0  0  0  0  0  0
    4.1036    1.9050   -2.2391 H   0  0  0  0  0  0  0  0  0  0  0  0
    3.8319    3.6462   -1.9302 H   0  0  0  0  0  0  0  0  0  0  0  0
    2.4425    2.5822   -2.3424 H   0  0  0  0  0  0  0  0  0  0  0  0
    4.7797    2.4294    0.9749 C   0  0  0  0  0  0  0  0  0  0  0  0
    5.4618    1.6178    0.6526 H   0  0  0  0  0  0  0  0  0  0  0  0
    4.6243    2.3266    2.0683 H   0  0  0  0  0  0  0  0  0  0  0  0
    5.2867    3.3992    0.7895 H   0  0  0  0  0  0  0  0  0  0  0  0
    2.8218   -0.7732   -3.0915 C   0  0  0  0  0  0  0  0  0  0  0  0
    3.4987   -1.0642   -3.9214 H   0  0  0  0  0  0  0  0  0  0  0  0
    2.6457    0.3170   -3.1490 H   0  0  0  0  0  0  0  0  0  0  0  0
    1.8477   -1.2806   -3.2345 H   0  0  0  0  0  0  0  0  0  0  0  0
    5.3571   -0.6757   -1.2855 C   0  0  0  0  0  0  0  0  0  0  0  0
    5.7850   -0.9519   -0.3001 H   0  0  0  0  0  0  0  0  0  0  0  0
    5.4458    0.4222   -1.3997 H   0  0  0  0  0  0  0  0  0  0  0  0
    5.9828   -1.1462   -2.0724 H   0  0  0  0  0  0  0  0  0  0  0  0
    3.6008   -3.1820   -1.3261 C   0  0  0  0  0  0  0  0  0  0  0  0
    4.0607   -3.5304   -0.3786 H   0  0  0  0  0  0  0  0  0  0  0  0
    4.1964   -3.5997   -2.1640 H   0  0  0  0  0  0  0  0  0  0  0  0
    2.5748   -3.5950   -1.3966 H   0  0  0  0  0  0  0  0  0  0  0  0
   -3.6009   -3.1820   -1.3261 C   0  0  0  0  0  0  0  0  0  0  0  0
   -4.0609   -3.5304   -0.3787 H   0  0  0  0  0  0  0  0  0  0  0  0
   -2.5749   -3.5951   -1.3967 H   0  0  0  0  0  0  0  0  0  0  0  0
   -4.1966   -3.5996   -2.1640 H   0  0  0  0  0  0  0  0  0  0  0  0
   -5.3571   -0.6756   -1.2855 C   0  0  0  0  0  0  0  0  0  0  0  0
   -5.4458    0.4223   -1.3996 H   0  0  0  0  0  0  0  0  0  0  0  0
   -5.7850   -0.9518   -0.3001 H   0  0  0  0  0  0  0  0  0  0  0  0
   -5.9828   -1.1460   -2.0724 H   0  0  0  0  0  0  0  0  0  0  0  0
   -2.8218   -0.7731   -3.0915 C   0  0  0  0  0  0  0  0  0  0  0  0
   -2.6452    0.3170   -3.1487 H   0  0  0  0  0  0  0  0  0  0  0  0
   -3.4989   -1.0637   -3.9214 H   0  0  0  0  0  0  0  0  0  0  0  0
   -1.8479   -1.2809   -3.2347 H   0  0  0  0  0  0  0  0  0  0  0  0
   -4.7796    2.4294    0.9749 C   0  0  0  0  0  0  0  0  0  0  0  0
   -4.6242    2.3265    2.0683 H   0  0  0  0  0  0  0  0  0  0  0  0
   -5.4619    1.6180    0.6525 H   0  0  0  0  0  0  0  0  0  0  0  0
   -5.2865    3.3993    0.7896 H   0  0  0  0  0  0  0  0  0  0  0  0
   -3.4009    2.6328   -1.7908 C   0  0  0  0  0  0  0  0  0  0  0  0
   -2.4423    2.5824   -2.3423 H   0  0  0  0  0  0  0  0  0  0  0  0
   -3.8319    3.6462   -1.9302 H   0  0  0  0  0  0  0  0  0  0  0  0
   -4.1034    1.9051   -2.2392 H   0  0  0  0  0  0  0  0  0  0  0  0
   -2.0087    3.7370    0.7085 C   0  0  0  0  0  0  0  0  0  0  0  0
   -1.8408    3.6674    1.8024 H   0  0  0  0  0  0  0  0  0  0  0  0
   -2.4755    4.7229    0.5064 H   0  0  0  0  0  0  0  0  0  0  0  0
   -1.0244    3.7142    0.2016 H   0  0  0  0  0  0  0  0  0  0  0  0
    0.0000   -0.5143    4.8783 C   0  0  0  0  0  0  0  0  0  0  0  0
    0.0000    0.5848    4.7345 H   0  0  0  0  0  0  0  0  0  0  0  0
    0.8989   -0.7802    5.4709 H   0  0  0  0  0  0  0  0  0  0  0  0
   -0.8989   -0.7801    5.4709 H   0  0  0  0  0  0  0  0  0  0  0  0
   -0.0000   -3.2877    3.3918 C   0  0  0  0  0  0  0  0  0  0  0  0
   -0.0000   -3.7729    2.3950 H   0  0  0  0  0  0  0  0  0  0  0  0
   -0.8975   -3.6355    3.9422 H   0  0  0  0  0  0  0  0  0  0  0  0
    0.8975   -3.6355    3.9422 H   0  0  0  0  0  0  0  0  0  0  0  0
  1 72  1  0  0  0  0
  1 68  1  0  0  0  0
  2 40  1  0  0  0  0
  2 36  1  0  0  0  0
  2  9  1  0  0  0  0
  3 64  1  0  0  0  0
  3 56  1  0  0  0  0
  4 44  1  0  0  0  0
  4 48  1  0  0  0  0
  4 17  1  0  0  0  0
  5 20  1  0  0  0  0
  5 28  1  0  0  0  0
  6 12  1  0  0  0  0
  6  7  1  0  0  0  0
  8  5  1  1  0  0  0
  8  6  1  0  0  0  0
  9  8  1  0  0  0  0
  9 10  2  0  0  0  0
 10 12  1  0  0  0  0
 11 10  1  0  0  0  0
 12  1  1  6  0  0  0
 13  1  1  6  0  0  0
 14 13  1  0  0  0  0
 14 15  1  0  0  0  0
 16  3  1  1  0  0  0
 16 14  1  0  0  0  0
 17 16  1  0  0  0  0
 17 18  2  0  0  0  0
 18 13  1  0  0  0  0
 19 18  1  0  0  0  0
 20 21  1  0  0  0  0
 22 20  1  0  0  0  0
 23 20  1  0  0  0  0
 24  5  1  0  0  0  0
 25 24  1  0  0  0  0
 26 24  1  0  0  0  0
 27 24  1  0  0  0  0
 28 30  1  0  0  0  0
 29 28  1  0  0  0  0
 31 28  1  0  0  0  0
 32  2  1  0  0  0  0
 33 32  1  0  0  0  0
 34 32  1  0  0  0  0
 35 32  1  0  0  0  0
 36 37  1  0  0  0  0
 38 36  1  0  0  0  0
 39 36  1  0  0  0  0
 40 41  1  0  0  0  0
 42 40  1  0  0  0  0
 43 40  1  0  0  0  0
 44 45  1  0  0  0  0
 46 44  1  0  0  0  0
 47 44  1  0  0  0  0
 48 50  1  0  0  0  0
 49 48  1  0  0  0  0
 51 48  1  0  0  0  0
 52  4  1  0  0  0  0
 53 52  1  0  0  0  0
 54 52  1  0  0  0  0
 55 52  1  0  0  0  0
 56 57  1  0  0  0  0
 58 56  1  0  0  0  0
 59 56  1  0  0  0  0
 60  3  1  0  0  0  0
 61 60  1  0  0  0  0
 62 60  1  0  0  0  0
 63 60  1  0  0  0  0
 64 65  1  0  0  0  0
 66 64  1  0  0  0  0
 67 64  1  0  0  0  0
 68 71  1  0  0  0  0
 68 70  1  0  0  0  0
 69 68  1  0  0  0  0
 72 74  1  0  0  0  0
 72 75  1  0  0  0  0
 73 72  1  0  0  0  0
M  END
