5,9
 OpenBabel05122313053D

 42 44  0  0  1  0  0  0  0  0999 V2000
    1.6385   -1.2377    0.8599 C   0  0  1  0  0  3  0  0  0  0  0  0
    2.3203   -1.4996   -0.3819 C   0  0  0  0  0  0  0  0  0  0  0  0
    3.7201   -1.2450   -0.5058 C   0  0  0  0  0  0  0  0  0  0  0  0
    4.2293   -1.3857   -1.4657 H   0  0  0  0  0  0  0  0  0  0  0  0
    4.4502   -0.7361    0.6036 C   0  0  0  0  0  3  0  0  0  0  0  0
    5.5161   -0.4993    0.4782 H   0  0  0  0  0  0  0  0  0  0  0  0
    3.8142   -0.5317    1.8583 C   0  0  0  0  0  3  0  0  0  0  0  0
    4.3739   -0.1206    2.7083 H   0  0  0  0  0  0  0  0  0  0  0  0
    2.4197   -0.7505    1.9551 C   0  0  0  0  0  3  0  0  0  0  0  0
    1.8570   -0.5268    2.8730 H   0  0  0  0  0  0  0  0  0  0  0  0
    0.1474   -1.3222    1.1382 C   0  0  0  0  0  0  0  0  0  0  0  0
   -0.2964   -0.9350    2.2210 O   0  0  0  0  0  0  0  0  0  0  0  0
   -0.6377   -1.8424    0.1512 N   0  0  0  0  0  0  0  0  0  0  0  0
   -0.1856   -2.0923   -0.7319 H   0  0  0  0  0  0  0  0  0  0  0  0
   -2.0885   -1.7693    0.2191 C   0  0  1  0  0  0  0  0  0  0  0  0
   -2.3359   -1.8192    1.2992 H   0  0  0  0  0  0  0  0  0  0  0  0
   -2.6289   -0.4450   -0.3273 C   0  0  0  0  0  0  0  0  0  0  0  0
   -1.8690    0.3130   -1.2105 C   0  0  0  0  0  0  0  0  0  0  0  0
   -0.8574   -0.0199   -1.4792 H   0  0  0  0  0  0  0  0  0  0  0  0
   -2.3520    1.5273   -1.7616 C   0  0  0  0  0  0  0  0  0  0  0  0
   -1.7035    2.0990   -2.4421 H   0  0  0  0  0  0  0  0  0  0  0  0
   -3.6165    1.9832   -1.4324 C   0  0  0  0  0  0  0  0  0  0  0  0
   -4.0046    2.9239   -1.8531 H   0  0  0  0  0  0  0  0  0  0  0  0
   -4.4375    1.2460   -0.5293 C   0  0  0  0  0  0  0  0  0  0  0  0
   -5.7387    1.7054   -0.1691 C   0  0  0  0  0  0  0  0  0  0  0  0
   -6.1034    2.6449   -0.6132 H   0  0  0  0  0  0  0  0  0  0  0  0
   -6.5296    0.9958    0.7209 C   0  0  0  0  0  0  0  0  0  0  0  0
   -7.5311    1.3650    0.9891 H   0  0  0  0  0  0  0  0  0  0  0  0
   -6.0412   -0.2067    1.2952 C   0  0  0  0  0  0  0  0  0  0  0  0
   -6.6641   -0.7622    2.0126 H   0  0  0  0  0  0  0  0  0  0  0  0
   -4.7806   -0.6829    0.9642 C   0  0  0  0  0  0  0  0  0  0  0  0
   -4.4227   -1.6104    1.4330 H   0  0  0  0  0  0  0  0  0  0  0  0
   -3.9408    0.0141    0.0427 C   0  0  0  0  0  0  0  0  0  0  0  0
   -2.6929   -2.9758   -0.5139 C   0  0  0  0  0  0  0  0  0  0  0  0
   -2.3416   -3.9255   -0.0636 H   0  0  0  0  0  0  0  0  0  0  0  0
   -2.4038   -2.9616   -1.5855 H   0  0  0  0  0  0  0  0  0  0  0  0
   -3.7982   -2.9490   -0.4733 H   0  0  0  0  0  0  0  0  0  0  0  0
    1.5798   -1.9790   -1.4197 O   0  0  0  0  0  0  0  0  0  0  0  0
    2.1362   -1.9972   -2.7331 C   0  0  0  0  0  0  0  0  0  0  0  0
    2.9858   -2.7085   -2.8033 H   0  0  0  0  0  0  0  0  0  0  0  0
    2.4610   -0.9819   -3.0405 H   0  0  0  0  0  0  0  0  0  0  0  0
    1.3244   -2.3376   -3.4008 H   0  0  0  0  0  0  0  0  0  0  0  0
  1 11  1  6  0  0  0
  1  9  1  0  0  0  0
  2  1  1  0  0  0  0
  3  2  2  0  0  0  0
  3  5  1  0  0  0  0
  4  3  1  0  0  0  0
  5  7  1  0  0  0  0
  6  5  1  0  0  0  0
  7  9  1  0  0  0  0
  7  8  1  0  0  0  0
  9 10  1  0  0  0  0
 11 12  2  0  0  0  0
 13 15  1  0  0  0  0
 13 11  1  0  0  0  0
 14 13  1  0  0  0  0
 15 16  1  1  0  0  0
 17 33  1  0  0  0  0
 17 15  1  0  0  0  0
 18 17  2  0  0  0  0
 19 18  1  0  0  0  0
 20 22  2  0  0  0  0
 20 18  1  0  0  0  0
 21 20  1  0  0  0  0
 22 24  1  0  0  0  0
 23 22  1  0  0  0  0
 24 25  2  0  0  0  0
 24 33  1  0  0  0  0
 25 27  1  0  0  0  0
 26 25  1  0  0  0  0
 27 28  1  0  0  0  0
 27 29  2  0  0  0  0
 29 30  1  0  0  0  0
 31 29  1  0  0  0  0
 31 32  1  0  0  0  0
 33 31  2  0  0  0  0
 34 37  1  0  0  0  0
 34 35  1  0  0  0  0
 34 15  1  0  0  0  0
 36 34  1  0  0  0  0
 38  2  1  0  0  0  0
 39 38  1  0  0  0  0
 40 39  1  0  0  0  0
 41 39  1  0  0  0  0
 42 39  1  0  0  0  0
M  END
