4,10
 OpenBabel05122313053D

 62 65  0  0  1  0  0  0  0  0999 V2000
   -0.7930    0.6797    0.6728 P   0  0  2  0  0  0  0  0  0  0  0  0
   -0.7755   -2.4458    1.7240 C   0  0  0  0  0  0  0  0  0  0  0  0
   -1.7912   -2.2442    2.0919 H   0  0  0  0  0  0  0  0  0  0  0  0
   -0.6075   -3.2369    0.5572 C   0  0  0  0  0  3  0  0  0  0  0  0
   -1.4926   -3.6131    0.0243 H   0  0  0  0  0  0  0  0  0  0  0  0
    0.7094   -3.5380    0.0542 C   0  0  0  0  0  0  0  0  0  0  0  0
    0.8294   -4.1389   -0.8576 H   0  0  0  0  0  0  0  0  0  0  0  0
    1.8270   -2.9554    0.6809 C   0  0  0  0  0  0  0  0  0  0  0  0
    2.8299   -3.0972    0.2528 H   0  0  0  0  0  0  0  0  0  0  0  0
    1.6569   -2.0583    1.7926 C   0  0  0  0  0  3  0  0  0  0  0  0
    2.5363   -1.5599    2.2259 H   0  0  0  0  0  0  0  0  0  0  0  0
    0.3630   -1.8184    2.3543 C   0  0  0  0  0  0  0  0  0  0  0  0
    0.1943   -0.9467    3.5732 C   0  0  0  0  0  0  0  0  0  0  0  0
    1.1733   -0.4881    3.8228 H   0  0  0  0  0  0  0  0  0  0  0  0
   -0.0580   -1.6174    4.4233 H   0  0  0  0  0  0  0  0  0  0  0  0
   -0.8716    0.1564    3.4773 C   0  0  0  0  0  0  0  0  0  0  0  0
   -0.9430    0.6435    4.4710 H   0  0  0  0  0  0  0  0  0  0  0  0
   -1.8779   -0.2785    3.2920 H   0  0  0  0  0  0  0  0  0  0  0  0
   -0.5582    1.2309    2.4302 C   0  0  0  0  0  0  0  0  0  0  0  0
    0.4904    1.5807    2.5385 H   0  0  0  0  0  0  0  0  0  0  0  0
   -1.2098    2.1159    2.5783 H   0  0  0  0  0  0  0  0  0  0  0  0
   -0.6484    2.2675   -0.3312 C   0  0  1  0  0  0  0  0  0  0  0  0
   -0.4375    1.9582   -1.3782 H   0  0  0  0  0  0  0  0  0  0  0  0
   -2.1765    2.4920   -0.1431 C   0  0  0  0  0  0  0  0  0  0  0  0
   -2.3665    3.2949    0.5973 H   0  0  0  0  0  0  0  0  0  0  0  0
   -2.6949    2.7774   -1.0792 H   0  0  0  0  0  0  0  0  0  0  0  0
   -2.6234    1.0937    0.3856 C   0  0  1  0  0  0  0  0  0  0  0  0
   -3.1293    1.1432    1.3747 H   0  0  0  0  0  0  0  0  0  0  0  0
   -3.4946    0.2687   -0.5628 C   0  0  0  0  0  0  0  0  0  0  0  0
   -2.9825    0.2111   -1.5482 H   0  0  0  0  0  0  0  0  0  0  0  0
   -4.8620    0.9540   -0.7664 C   0  0  0  0  0  0  0  0  0  0  0  0
   -5.3615    1.0569    0.2246 H   0  0  0  0  0  0  0  0  0  0  0  0
   -4.7302    1.9849   -1.1568 H   0  0  0  0  0  0  0  0  0  0  0  0
   -5.7620    0.1470   -1.7120 C   0  0  0  0  0  0  0  0  0  0  0  0
   -6.7429    0.6532   -1.8226 H   0  0  0  0  0  0  0  0  0  0  0  0
   -5.3018    0.1321   -2.7250 H   0  0  0  0  0  0  0  0  0  0  0  0
   -5.9508   -1.2928   -1.2201 C   0  0  0  0  0  0  0  0  0  0  0  0
   -6.5669   -1.8703   -1.9395 H   0  0  0  0  0  0  0  0  0  0  0  0
   -6.5181   -1.2809   -0.2623 H   0  0  0  0  0  0  0  0  0  0  0  0
   -4.5996   -1.9822   -0.9980 C   0  0  0  0  0  0  0  0  0  0  0  0
   -4.0767   -2.1020   -1.9727 H   0  0  0  0  0  0  0  0  0  0  0  0
   -4.7464   -3.0056   -0.5931 H   0  0  0  0  0  0  0  0  0  0  0  0
   -3.6985   -1.1681   -0.0619 C   0  0  0  0  0  0  0  0  0  0  0  0
   -4.1493   -1.1328    0.9581 H   0  0  0  0  0  0  0  0  0  0  0  0
   -2.7091   -1.6539    0.0273 H   0  0  0  0  0  0  0  0  0  0  0  0
    0.2757    3.4104    0.0919 C   0  0  0  0  0  0  0  0  0  0  0  0
   -0.0050    3.7103    1.1283 H   0  0  0  0  0  0  0  0  0  0  0  0
    1.7675    3.0375    0.1133 C   0  0  0  0  0  0  0  0  0  0  0  0
    1.9359    2.1842    0.8116 H   0  0  0  0  0  0  0  0  0  0  0  0
    2.0669    2.7076   -0.9092 H   0  0  0  0  0  0  0  0  0  0  0  0
    2.6615    4.2152    0.5265 C   0  0  0  0  0  0  0  0  0  0  0  0
    3.7279    3.9095    0.5045 H   0  0  0  0  0  0  0  0  0  0  0  0
    2.4339    4.4863    1.5814 H   0  0  0  0  0  0  0  0  0  0  0  0
    2.4260    5.4325   -0.3755 C   0  0  0  0  0  0  0  0  0  0  0  0
    3.0474    6.2861   -0.0362 H   0  0  0  0  0  0  0  0  0  0  0  0
    2.7635    5.1927   -1.4087 H   0  0  0  0  0  0  0  0  0  0  0  0
    0.9439    5.8231   -0.4039 C   0  0  0  0  0  0  0  0  0  0  0  0
    0.7791    6.6751   -1.0945 H   0  0  0  0  0  0  0  0  0  0  0  0
    0.6370    6.1777    0.6053 H   0  0  0  0  0  0  0  0  0  0  0  0
    0.0560    4.6412   -0.8134 C   0  0  0  0  0  0  0  0  0  0  0  0
    0.2824    4.3491   -1.8641 H   0  0  0  0  0  0  0  0  0  0  0  0
   -1.0130    4.9386   -0.7964 H   0  0  0  0  0  0  0  0  0  0  0  0
  1 19  1  1  0  0  0
  2  3  1  0  0  0  0
  2 12  2  0  0  0  0
  4  2  1  0  0  0  0
  5  4  1  0  0  0  0
  6  4  1  0  0  0  0
  6  8  2  0  0  0  0
  7  6  1  0  0  0  0
  8 10  1  0  0  0  0
  9  8  1  0  0  0  0
 10 11  1  0  0  0  0
 10 12  1  0  0  0  0
 12 13  1  0  0  0  0
 13 14  1  0  0  0  0
 13 15  1  0  0  0  0
 16 13  1  0  0  0  0
 16 17  1  0  0  0  0
 18 16  1  0  0  0  0
 19 20  1  0  0  0  0
 19 21  1  0  0  0  0
 19 16  1  0  0  0  0
 22 23  1  6  0  0  0
 22 24  1  0  0  0  0
 22 46  1  0  0  0  0
 22  1  1  0  0  0  0
 24 27  1  0  0  0  0
 24 25  1  0  0  0  0
 26 24  1  0  0  0  0
 27  1  1  0  0  0  0
 27 28  1  1  0  0  0
 29 43  1  0  0  0  0
 29 27  1  0  0  0  0
 30 29  1  0  0  0  0
 31 29  1  0  0  0  0
 31 32  1  0  0  0  0
 33 31  1  0  0  0  0
 34 37  1  0  0  0  0
 34 31  1  0  0  0  0
 35 34  1  0  0  0  0
 36 34  1  0  0  0  0
 37 40  1  0  0  0  0
 37 39  1  0  0  0  0
 38 37  1  0  0  0  0
 40 42  1  0  0  0  0
 40 43  1  0  0  0  0
 41 40  1  0  0  0  0
 43 45  1  0  0  0  0
 43 44  1  0  0  0  0
 46 48  1  0  0  0  0
 46 47  1  0  0  0  0
 48 51  1  0  0  0  0
 48 49  1  0  0  0  0
 50 48  1  0  0  0  0
 51 53  1  0  0  0  0
 52 51  1  0  0  0  0
 54 55  1  0  0  0  0
 54 51  1  0  0  0  0
 56 54  1  0  0  0  0
 57 54  1  0  0  0  0
 57 59  1  0  0  0  0
 58 57  1  0  0  0  0
 60 62  1  0  0  0  0
 60 57  1  0  0  0  0
 60 46  1  0  0  0  0
 61 60  1  0  0  0  0
M  END
