1
 OpenBabel05122313053D

 39 43  0  0  1  0  0  0  0  0999 V2000
   -0.1352    0.0004   -1.1789 C   0  0  1  0  0  3  0  0  0  0  0  0
    0.5753    1.1484   -1.6564 C   0  0  0  0  0  3  0  0  0  0  0  0
    0.3259    2.1952   -1.4592 H   0  0  0  0  0  0  0  0  0  0  0  0
    1.6777    0.7072   -2.4517 C   0  0  0  0  0  0  0  0  0  0  0  0
    2.4091    1.3592   -2.9424 H   0  0  0  0  0  0  0  0  0  0  0  0
    1.6778   -0.7059   -2.4520 C   0  0  0  0  0  0  0  0  0  0  0  0
    2.4094   -1.3576   -2.9426 H   0  0  0  0  0  0  0  0  0  0  0  0
    0.5754   -1.1474   -1.6568 C   0  0  0  0  0  3  0  0  0  0  0  0
    0.3266   -2.1944   -1.4592 H   0  0  0  0  0  0  0  0  0  0  0  0
   -0.1353    0.0004    1.1788 C   0  0  2  0  0  3  0  0  0  0  0  0
    0.5752    1.1484    1.6563 C   0  0  0  0  0  3  0  0  0  0  0  0
    0.3258    2.1952    1.4591 H   0  0  0  0  0  0  0  0  0  0  0  0
    1.6775    0.7072    2.4517 C   0  0  0  0  0  0  0  0  0  0  0  0
    2.4089    1.3592    2.9425 H   0  0  0  0  0  0  0  0  0  0  0  0
    1.6775   -0.7060    2.4520 C   0  0  0  0  0  0  0  0  0  0  0  0
    2.4092   -1.3577    2.9427 H   0  0  0  0  0  0  0  0  0  0  0  0
    0.5752   -1.1474    1.6567 C   0  0  0  0  0  3  0  0  0  0  0  0
    0.3264   -2.1944    1.4592 H   0  0  0  0  0  0  0  0  0  0  0  0
   -1.1321    0.0001   -0.0001 C   0  0  0  0  0  0  0  0  0  0  0  0
   -2.0998    1.1945   -0.0001 C   0  0  0  0  0  0  0  0  0  0  0  0
   -1.8546    2.5749   -0.0001 C   0  0  0  0  0  0  0  0  0  0  0  0
   -0.8362    2.9840   -0.0002 H   0  0  0  0  0  0  0  0  0  0  0  0
   -2.9370    3.4745   -0.0001 C   0  0  0  0  0  0  0  0  0  0  0  0
   -2.7380    4.5566   -0.0001 H   0  0  0  0  0  0  0  0  0  0  0  0
   -4.2613    3.0063    0.0001 C   0  0  0  0  0  0  0  0  0  0  0  0
   -5.0962    3.7230    0.0001 H   0  0  0  0  0  0  0  0  0  0  0  0
   -4.5206    1.6281    0.0001 C   0  0  0  0  0  0  0  0  0  0  0  0
   -5.5555    1.2542    0.0002 H   0  0  0  0  0  0  0  0  0  0  0  0
   -3.4403    0.7319    0.0000 C   0  0  0  0  0  0  0  0  0  0  0  0
   -3.4400   -0.7325    0.0000 C   0  0  0  0  0  0  0  0  0  0  0  0
   -4.5200   -1.6291    0.0001 C   0  0  0  0  0  0  0  0  0  0  0  0
   -5.5550   -1.2555    0.0002 H   0  0  0  0  0  0  0  0  0  0  0  0
   -4.2602   -3.0072    0.0000 C   0  0  0  0  0  0  0  0  0  0  0  0
   -5.0948   -3.7242    0.0001 H   0  0  0  0  0  0  0  0  0  0  0  0
   -2.9357   -3.4749   -0.0001 C   0  0  0  0  0  0  0  0  0  0  0  0
   -2.7363   -4.5569   -0.0001 H   0  0  0  0  0  0  0  0  0  0  0  0
   -1.8537   -2.5749   -0.0001 C   0  0  0  0  0  0  0  0  0  0  0  0
   -0.8351   -2.9837   -0.0002 H   0  0  0  0  0  0  0  0  0  0  0  0
   -2.0994   -1.1946   -0.0001 C   0  0  0  0  0  0  0  0  0  0  0  0
  1 19  1  1  0  0  0
  2  3  1  0  0  0  0
  2  1  1  0  0  0  0
  4  2  1  0  0  0  0
  5  4  1  0  0  0  0
  6  4  2  0  0  0  0
  6  8  1  0  0  0  0
  7  6  1  0  0  0  0
  8  9  1  0  0  0  0
  8  1  1  0  0  0  0
 10 19  1  6  0  0  0
 10 11  1  0  0  0  0
 10 17  1  0  0  0  0
 11 13  1  0  0  0  0
 12 11  1  0  0  0  0
 13 15  2  0  0  0  0
 13 14  1  0  0  0  0
 15 16  1  0  0  0  0
 17 15  1  0  0  0  0
 18 17  1  0  0  0  0
 19 20  1  0  0  0  0
 19 39  1  0  0  0  0
 20 29  1  0  0  0  0
 21 20  2  0  0  0  0
 21 23  1  0  0  0  0
 22 21  1  0  0  0  0
 23 25  2  0  0  0  0
 24 23  1  0  0  0  0
 25 27  1  0  0  0  0
 25 26  1  0  0  0  0
 27 28  1  0  0  0  0
 29 30  1  0  0  0  0
 29 27  2  0  0  0  0
 30 31  1  0  0  0  0
 31 32  1  0  0  0  0
 33 31  2  0  0  0  0
 33 34  1  0  0  0  0
 35 33  1  0  0  0  0
 36 35  1  0  0  0  0
 37 39  1  0  0  0  0
 37 35  2  0  0  0  0
 38 37  1  0  0  0  0
 39 30  2  0  0  0  0
M  END
