2
 OpenBabel05122313053D

 57 60  0  0  1  0  0  0  0  0999 V2000
    2.0255   -0.2408    0.8761 C   0  0  2  0  0  3  0  0  0  0  0  0
    0.8831   -0.7816    1.5714 C   0  0  2  0  0  3  0  0  0  0  0  0
    0.4223   -1.9483    0.8886 C   0  0  0  0  0  3  0  0  0  0  0  0
   -0.4541   -2.5482    1.1612 H   0  0  0  0  0  0  0  0  0  0  0  0
    1.3368   -2.2399   -0.1825 C   0  0  0  0  0  0  0  0  0  0  0  0
    1.3914   -3.2922   -1.1391 C   0  0  0  0  0  0  0  0  0  0  0  0
    0.6322   -4.0872   -1.1289 H   0  0  0  0  0  0  0  0  0  0  0  0
    2.4117   -3.2845   -2.0774 C   0  0  0  0  0  0  0  0  0  0  0  0
    2.4716   -4.0904   -2.8240 H   0  0  0  0  0  0  0  0  0  0  0  0
    3.3809   -2.2386   -2.1056 C   0  0  0  0  0  0  0  0  0  0  0  0
    4.1665   -2.2579   -2.8757 H   0  0  0  0  0  0  0  0  0  0  0  0
    3.3433   -1.1942   -1.1938 C   0  0  0  0  0  0  0  0  0  0  0  0
    4.0841   -0.3843   -1.2416 H   0  0  0  0  0  0  0  0  0  0  0  0
    2.3209   -1.1789   -0.2007 C   0  0  0  0  0  0  0  0  0  0  0  0
    0.0000   -0.0001    2.5294 C   0  0  0  0  0  0  0  0  0  0  0  0
   -0.5875   -0.6762    3.1714 H   0  0  0  0  0  0  0  0  0  0  0  0
    3.2781    1.0745    1.4454 Si  0  0  0  0  0  0  0  0  0  0  0  0
    3.6133    2.4031    0.1467 C   0  0  0  0  0  0  0  0  0  0  0  0
    2.7062    2.9984   -0.0766 H   0  0  0  0  0  0  0  0  0  0  0  0
    3.9530    1.9726   -0.8153 H   0  0  0  0  0  0  0  0  0  0  0  0
    4.4022    3.0884    0.5210 H   0  0  0  0  0  0  0  0  0  0  0  0
    4.8779    0.1250    1.8114 C   0  0  0  0  0  0  0  0  0  0  0  0
    5.2527   -0.4140    0.9189 H   0  0  0  0  0  0  0  0  0  0  0  0
    4.7121   -0.6256    2.6110 H   0  0  0  0  0  0  0  0  0  0  0  0
    5.6724    0.8213    2.1513 H   0  0  0  0  0  0  0  0  0  0  0  0
    2.7729    1.9380    3.0580 C   0  0  0  0  0  0  0  0  0  0  0  0
    3.6094    2.6045    3.3560 H   0  0  0  0  0  0  0  0  0  0  0  0
    2.6156    1.2186    3.8870 H   0  0  0  0  0  0  0  0  0  0  0  0
    1.8688    2.5724    2.9675 H   0  0  0  0  0  0  0  0  0  0  0  0
   -2.0255    0.2407    0.8762 C   0  0  2  0  0  3  0  0  0  0  0  0
   -0.8831    0.7815    1.5714 C   0  0  2  0  0  3  0  0  0  0  0  0
   -0.4224    1.9482    0.8887 C   0  0  0  0  0  3  0  0  0  0  0  0
    0.4541    2.5482    1.1614 H   0  0  0  0  0  0  0  0  0  0  0  0
   -1.3368    2.2399   -0.1823 C   0  0  0  0  0  0  0  0  0  0  0  0
   -1.3915    3.2923   -1.1388 C   0  0  0  0  0  0  0  0  0  0  0  0
   -0.6323    4.0873   -1.1285 H   0  0  0  0  0  0  0  0  0  0  0  0
   -2.4118    3.2847   -2.0771 C   0  0  0  0  0  0  0  0  0  0  0  0
   -2.4717    4.0907   -2.8236 H   0  0  0  0  0  0  0  0  0  0  0  0
   -3.3810    2.2387   -2.1054 C   0  0  0  0  0  0  0  0  0  0  0  0
   -4.1666    2.2581   -2.8754 H   0  0  0  0  0  0  0  0  0  0  0  0
   -3.3433    1.1943   -1.1936 C   0  0  0  0  0  0  0  0  0  0  0  0
   -4.0841    0.3844   -1.2415 H   0  0  0  0  0  0  0  0  0  0  0  0
   -2.3209    1.1789   -0.2006 C   0  0  0  0  0  0  0  0  0  0  0  0
    0.5875    0.6760    3.1714 H   0  0  0  0  0  0  0  0  0  0  0  0
   -3.2780   -1.0746    1.4454 Si  0  0  0  0  0  0  0  0  0  0  0  0
   -3.6132   -2.4031    0.1465 C   0  0  0  0  0  0  0  0  0  0  0  0
   -2.7060   -2.9984   -0.0768 H   0  0  0  0  0  0  0  0  0  0  0  0
   -3.9530   -1.9726   -0.8154 H   0  0  0  0  0  0  0  0  0  0  0  0
   -4.4021   -3.0886    0.5208 H   0  0  0  0  0  0  0  0  0  0  0  0
   -4.8779   -0.1253    1.8115 C   0  0  0  0  0  0  0  0  0  0  0  0
   -5.2527    0.4138    0.9190 H   0  0  0  0  0  0  0  0  0  0  0  0
   -4.7121    0.6253    2.6111 H   0  0  0  0  0  0  0  0  0  0  0  0
   -5.6724   -0.8216    2.1513 H   0  0  0  0  0  0  0  0  0  0  0  0
   -2.7728   -1.9383    3.0578 C   0  0  0  0  0  0  0  0  0  0  0  0
   -3.6093   -2.6048    3.3559 H   0  0  0  0  0  0  0  0  0  0  0  0
   -2.6155   -1.2190    3.8869 H   0  0  0  0  0  0  0  0  0  0  0  0
   -1.8686   -2.5726    2.9673 H   0  0  0  0  0  0  0  0  0  0  0  0
  1 17  1  1  0  0  0
  1  2  1  0  0  0  0
  2 15  1  6  0  0  0
  3  4  1  0  0  0  0
  3  2  1  0  0  0  0
  5  3  1  0  0  0  0
  6  7  1  0  0  0  0
  6  5  2  0  0  0  0
  8  6  1  0  0  0  0
  9  8  1  0  0  0  0
 10  8  2  0  0  0  0
 10 12  1  0  0  0  0
 11 10  1  0  0  0  0
 12 14  2  0  0  0  0
 13 12  1  0  0  0  0
 14  5  1  0  0  0  0
 14  1  1  0  0  0  0
 15 16  1  0  0  0  0
 15 44  1  0  0  0  0
 17 22  1  0  0  0  0
 17 26  1  0  0  0  0
 18 21  1  0  0  0  0
 18 17  1  0  0  0  0
 19 18  1  0  0  0  0
 20 18  1  0  0  0  0
 22 25  1  0  0  0  0
 22 24  1  0  0  0  0
 23 22  1  0  0  0  0
 26 27  1  0  0  0  0
 26 28  1  0  0  0  0
 29 26  1  0  0  0  0
 30 45  1  1  0  0  0
 30 31  1  0  0  0  0
 31 15  1  6  0  0  0
 32 33  1  0  0  0  0
 32 31  1  0  0  0  0
 34 32  1  0  0  0  0
 35 36  1  0  0  0  0
 35 34  2  0  0  0  0
 37 35  1  0  0  0  0
 38 37  1  0  0  0  0
 39 37  2  0  0  0  0
 39 41  1  0  0  0  0
 40 39  1  0  0  0  0
 41 43  2  0  0  0  0
 42 41  1  0  0  0  0
 43 34  1  0  0  0  0
 43 30  1  0  0  0  0
 45 50  1  0  0  0  0
 45 54  1  0  0  0  0
 46 49  1  0  0  0  0
 46 45  1  0  0  0  0
 47 46  1  0  0  0  0
 48 46  1  0  0  0  0
 50 53  1  0  0  0  0
 50 52  1  0  0  0  0
 51 50  1  0  0  0  0
 54 55  1  0  0  0  0
 54 56  1  0  0  0  0
 57 54  1  0  0  0  0
M  END
