1,19
 OpenBabel05122313053D

 19 19  0  0  1  0  0  0  0  0999 V2000
    1.7537    1.8796    0.5647 C   0  0  0  0  0  3  0  0  0  0  0  0
    1.3924    2.9113    0.3892 H   0  0  0  0  0  0  0  0  0  0  0  0
    1.6981    1.6944    1.6582 H   0  0  0  0  0  0  0  0  0  0  0  0
    3.1964    1.6962    0.0520 C   0  0  1  0  0  0  0  0  0  0  0  0
    3.2403    2.1629   -0.9613 H   0  0  0  0  0  0  0  0  0  0  0  0
    4.2300    2.3973    0.9382 C   0  0  0  0  0  0  0  0  0  0  0  0
    4.2724    1.9302    1.9447 H   0  0  0  0  0  0  0  0  0  0  0  0
    3.9702    3.4672    1.0719 H   0  0  0  0  0  0  0  0  0  0  0  0
    5.2504    2.3564    0.5051 H   0  0  0  0  0  0  0  0  0  0  0  0
    3.4177    0.2089   -0.1460 C   0  0  0  0  0  0  0  0  0  0  0  0
    4.6548   -0.4509   -0.0477 C   0  0  0  0  0  0  0  0  0  0  0  0
    5.5677    0.1227    0.1772 H   0  0  0  0  0  0  0  0  0  0  0  0
    4.7361   -1.8436   -0.2208 C   0  0  0  0  0  0  0  0  0  0  0  0
    5.7098   -2.3511   -0.1408 H   0  0  0  0  0  0  0  0  0  0  0  0
    3.5739   -2.5854   -0.4839 C   0  0  0  0  0  0  0  0  0  0  0  0
    3.6318   -3.6784   -0.6076 H   0  0  0  0  0  0  0  0  0  0  0  0
    2.3289   -1.9362   -0.5772 C   0  0  0  0  0  0  0  0  0  0  0  0
    1.4150   -2.5251   -0.7487 H   0  0  0  0  0  0  0  0  0  0  0  0
    2.2455   -0.5428   -0.4157 C   0  0  0  0  0  3  0  0  0  0  0  0
  1  3  1  0  0  0  0
  2  1  1  0  0  0  0
  4  5  1  6  0  0  0
  4  1  1  0  0  0  0
  4  6  1  0  0  0  0
  6  8  1  0  0  0  0
  6  7  1  0  0  0  0
  9  6  1  0  0  0  0
 10 11  1  0  0  0  0
 10  4  1  0  0  0  0
 11 12  1  0  0  0  0
 13 14  1  0  0  0  0
 13 11  2  0  0  0  0
 15 13  1  0  0  0  0
 16 15  1  0  0  0  0
 17 15  2  0  0  0  0
 17 19  1  0  0  0  0
 18 17  1  0  0  0  0
 19 10  2  0  0  0  0
M  END
