5,14
 OpenBabel05122313053D

 57 59  0  0  1  0  0  0  0  0999 V2000
   -3.3411    1.9427   -1.2822 O   0  0  0  0  0  0  0  0  0  0  0  0
   -2.3926   -1.0305   -1.0760 C   0  0  0  0  0  0  0  0  0  0  0  0
   -1.6316   -2.0316   -0.3675 C   0  0  0  0  0  0  0  0  0  0  0  0
   -1.7460   -1.7786    1.0503 C   0  0  0  0  0  0  0  0  0  0  0  0
   -2.6331   -0.6323    1.2319 C   0  0  1  0  0  3  0  0  0  0  0  0
   -3.0196   -0.1763   -0.0869 C   0  0  0  0  0  0  0  0  0  0  0  0
   -2.6228   -0.9678   -2.5542 C   0  0  0  0  0  0  0  0  0  0  0  0
   -0.9255   -3.1962   -0.9782 C   0  0  0  0  0  0  0  0  0  0  0  0
   -1.2104   -2.6554    2.1389 C   0  0  0  0  0  0  0  0  0  0  0  0
   -3.1606   -0.1369    2.5437 C   0  0  0  0  0  0  0  0  0  0  0  0
   -3.9297    0.9765   -0.4205 C   0  0  0  0  0  0  0  0  0  0  0  0
   -2.4406    2.8154   -0.6264 C   0  0  0  0  0  0  0  0  0  0  0  0
   -1.0568    2.2647   -0.3720 C   0  0  0  0  0  3  0  0  0  0  0  0
   -0.3480    1.4890   -1.3326 C   0  0  0  0  0  3  0  0  0  0  0  0
    0.9411    0.9147   -0.9132 C   0  0  2  0  0  3  0  0  0  0  0  0
    0.9463   -0.5065   -1.1063 C   0  0  0  0  0  3  0  0  0  0  0  0
    1.9999    1.7773   -0.3391 C   0  0  0  0  0  0  0  0  0  0  0  0
    2.0713    3.1101   -0.8172 C   0  0  0  0  0  0  0  0  0  0  0  0
    3.0829    3.9765   -0.3857 C   0  0  0  0  0  0  0  0  0  0  0  0
    4.0438    3.5308    0.5345 C   0  0  0  0  0  0  0  0  0  0  0  0
    3.9887    2.2111    1.0121 C   0  0  0  0  0  0  0  0  0  0  0  0
    2.9814    1.3404    0.5813 C   0  0  0  0  0  0  0  0  0  0  0  0
    1.9925   -1.4865   -0.7167 C   0  0  0  0  0  0  0  0  0  0  0  0
    2.7820   -2.0560   -1.7405 C   0  0  0  0  0  0  0  0  0  0  0  0
    3.7752   -2.9978   -1.4369 C   0  0  0  0  0  0  0  0  0  0  0  0
    3.9803   -3.4054   -0.1094 C   0  0  0  0  0  0  0  0  0  0  0  0
    3.1849   -2.8657    0.9141 C   0  0  0  0  0  0  0  0  0  0  0  0
    2.1980   -1.9165    0.6123 C   0  0  0  0  0  0  0  0  0  0  0  0
   -2.9195    0.0497   -2.8699 H   0  0  0  0  0  0  0  0  0  0  0  0
   -3.4384   -1.6640   -2.8433 H   0  0  0  0  0  0  0  0  0  0  0  0
   -1.7268   -1.2708   -3.1310 H   0  0  0  0  0  0  0  0  0  0  0  0
   -0.6683   -3.0230   -2.0394 H   0  0  0  0  0  0  0  0  0  0  0  0
   -1.5932   -4.0834   -0.9419 H   0  0  0  0  0  0  0  0  0  0  0  0
    0.0019   -3.4542   -0.4334 H   0  0  0  0  0  0  0  0  0  0  0  0
   -1.0193   -2.0902    3.0702 H   0  0  0  0  0  0  0  0  0  0  0  0
   -0.2692   -3.1517    1.8373 H   0  0  0  0  0  0  0  0  0  0  0  0
   -1.9456   -3.4528    2.3785 H   0  0  0  0  0  0  0  0  0  0  0  0
   -3.4269    0.9358    2.5060 H   0  0  0  0  0  0  0  0  0  0  0  0
   -2.4272   -0.2748    3.3598 H   0  0  0  0  0  0  0  0  0  0  0  0
   -4.0751   -0.7025    2.8202 H   0  0  0  0  0  0  0  0  0  0  0  0
   -4.8151    0.5871   -0.9648 H   0  0  0  0  0  0  0  0  0  0  0  0
   -4.2983    1.4581    0.5129 H   0  0  0  0  0  0  0  0  0  0  0  0
   -2.8741    3.1814    0.3337 H   0  0  0  0  0  0  0  0  0  0  0  0
   -2.3417    3.7005   -1.2938 H   0  0  0  0  0  0  0  0  0  0  0  0
   -0.4689    2.8400    0.3614 H   0  0  0  0  0  0  0  0  0  0  0  0
   -0.8220    1.1804   -2.2795 H   0  0  0  0  0  0  0  0  0  0  0  0
    0.3712   -0.8198   -1.9980 H   0  0  0  0  0  0  0  0  0  0  0  0
    1.3402    3.4584   -1.5617 H   0  0  0  0  0  0  0  0  0  0  0  0
    3.1250    5.0036   -0.7773 H   0  0  0  0  0  0  0  0  0  0  0  0
    4.8383    4.2101    0.8774 H   0  0  0  0  0  0  0  0  0  0  0  0
    4.7383    1.8543    1.7337 H   0  0  0  0  0  0  0  0  0  0  0  0
    2.9562    0.3180    0.9744 H   0  0  0  0  0  0  0  0  0  0  0  0
    2.6243   -1.7456   -2.7851 H   0  0  0  0  0  0  0  0  0  0  0  0
    4.3902   -3.4201   -2.2456 H   0  0  0  0  0  0  0  0  0  0  0  0
    4.7540   -4.1508    0.1267 H   0  0  0  0  0  0  0  0  0  0  0  0
    3.3301   -3.1895    1.9555 H   0  0  0  0  0  0  0  0  0  0  0  0
    1.5618   -1.5112    1.4123 H   0  0  0  0  0  0  0  0  0  0  0  0
  1 12  1  0  0  0  0
  1 11  1  0  0  0  0
  2  3  1  0  0  0  0
  2  6  2  0  0  0  0
  3  4  2  0  0  0  0
  4  5  1  0  0  0  0
  4  9  1  0  0  0  0
  5 10  1  1  0  0  0
  6  5  1  0  0  0  0
  7  2  1  0  0  0  0
  8 33  1  0  0  0  0
  8 34  1  0  0  0  0
  8  3  1  0  0  0  0
  9 37  1  0  0  0  0
  9 35  1  0  0  0  0
 10 40  1  0  0  0  0
 10 39  1  0  0  0  0
 11  6  1  0  0  0  0
 11 42  1  0  0  0  0
 12 13  1  0  0  0  0
 12 43  1  0  0  0  0
 13 45  1  0  0  0  0
 14 13  1  0  0  0  0
 15 14  1  1  0  0  0
 15 17  1  0  0  0  0
 16 15  1  0  0  0  0
 16 23  1  0  0  0  0
 17 22  1  0  0  0  0
 18 19  1  0  0  0  0
 18 17  2  0  0  0  0
 19 20  2  0  0  0  0
 20 50  1  0  0  0  0
 20 21  1  0  0  0  0
 21 51  1  0  0  0  0
 22 52  1  0  0  0  0
 22 21  2  0  0  0  0
 23 28  1  0  0  0  0
 24 25  1  0  0  0  0
 24 23  2  0  0  0  0
 25 26  2  0  0  0  0
 26 55  1  0  0  0  0
 26 27  1  0  0  0  0
 27 56  1  0  0  0  0
 28 27  2  0  0  0  0
 28 57  1  0  0  0  0
 29  7  1  0  0  0  0
 30  7  1  0  0  0  0
 31  7  1  0  0  0  0
 32  8  1  0  0  0  0
 36  9  1  0  0  0  0
 38 10  1  0  0  0  0
 41 11  1  0  0  0  0
 44 12  1  0  0  0  0
 46 14  1  0  0  0  0
 47 16  1  0  0  0  0
 48 18  1  0  0  0  0
 49 19  1  0  0  0  0
 53 24  1  0  0  0  0
 54 25  1  0  0  0  0
M  END
