3,11
 OpenBabel05122313053D

 51 52  0  0  1  0  0  0  0  0999 V2000
    0.0000    2.8729    0.3333 Si  0  0  0  0  0  0  0  0  0  0  0  0
   -1.4105    1.7056   -0.1317 C   0  0  1  0  0  3  0  0  0  0  0  0
   -1.6118    1.2257   -1.4745 C   0  0  0  0  0  3  0  0  0  0  0  0
   -1.2480    1.7070   -2.3919 H   0  0  0  0  0  0  0  0  0  0  0  0
   -2.3631    0.0190   -1.4269 C   0  0  0  0  0  0  0  0  0  0  0  0
   -2.6907   -0.5620   -2.2976 H   0  0  0  0  0  0  0  0  0  0  0  0
   -2.6603   -0.2778   -0.0611 C   0  0  0  0  0  0  0  0  0  0  0  0
   -2.0498    0.7477    0.7248 C   0  0  0  0  0  3  0  0  0  0  0  0
   -2.0649    0.7954    1.8201 H   0  0  0  0  0  0  0  0  0  0  0  0
    1.4105    1.7056   -0.1317 C   0  0  2  0  0  3  0  0  0  0  0  0
    1.6118    1.2256   -1.4746 C   0  0  0  0  0  3  0  0  0  0  0  0
    1.2480    1.7070   -2.3919 H   0  0  0  0  0  0  0  0  0  0  0  0
    2.3631    0.0190   -1.4269 C   0  0  0  0  0  0  0  0  0  0  0  0
    2.6907   -0.5620   -2.2976 H   0  0  0  0  0  0  0  0  0  0  0  0
    2.6603   -0.2778   -0.0611 C   0  0  0  0  0  0  0  0  0  0  0  0
    2.0498    0.7477    0.7248 C   0  0  0  0  0  3  0  0  0  0  0  0
    2.0649    0.7954    1.8201 H   0  0  0  0  0  0  0  0  0  0  0  0
   -3.6232   -1.3631    0.4157 C   0  0  0  0  0  0  0  0  0  0  0  0
   -3.6799   -1.4259    1.9525 C   0  0  0  0  0  0  0  0  0  0  0  0
   -2.6923   -1.6607    2.3940 H   0  0  0  0  0  0  0  0  0  0  0  0
   -4.3928   -2.2120    2.2741 H   0  0  0  0  0  0  0  0  0  0  0  0
   -4.0273   -0.4646    2.3818 H   0  0  0  0  0  0  0  0  0  0  0  0
   -5.0308   -0.9862   -0.1081 C   0  0  0  0  0  0  0  0  0  0  0  0
   -5.0556   -0.9606   -1.2159 H   0  0  0  0  0  0  0  0  0  0  0  0
   -5.3361    0.0136    0.2612 H   0  0  0  0  0  0  0  0  0  0  0  0
   -5.7828   -1.7272    0.2352 H   0  0  0  0  0  0  0  0  0  0  0  0
   -3.2372   -2.7451   -0.1491 C   0  0  0  0  0  0  0  0  0  0  0  0
   -3.2144   -2.7384   -1.2572 H   0  0  0  0  0  0  0  0  0  0  0  0
   -3.9764   -3.5098    0.1665 H   0  0  0  0  0  0  0  0  0  0  0  0
   -2.2384   -3.0663    0.2057 H   0  0  0  0  0  0  0  0  0  0  0  0
    3.6232   -1.3631    0.4157 C   0  0  0  0  0  0  0  0  0  0  0  0
    3.2374   -2.7451   -0.1493 C   0  0  0  0  0  0  0  0  0  0  0  0
    2.2385   -3.0663    0.2054 H   0  0  0  0  0  0  0  0  0  0  0  0
    3.9765   -3.5097    0.1663 H   0  0  0  0  0  0  0  0  0  0  0  0
    3.2147   -2.7383   -1.2573 H   0  0  0  0  0  0  0  0  0  0  0  0
    3.6797   -1.4260    1.9525 C   0  0  0  0  0  0  0  0  0  0  0  0
    2.6921   -1.6610    2.3939 H   0  0  0  0  0  0  0  0  0  0  0  0
    4.0270   -0.4647    2.3820 H   0  0  0  0  0  0  0  0  0  0  0  0
    4.3926   -2.2121    2.2741 H   0  0  0  0  0  0  0  0  0  0  0  0
    5.0308   -0.9861   -0.1080 C   0  0  0  0  0  0  0  0  0  0  0  0
    5.7829   -1.7270    0.2353 H   0  0  0  0  0  0  0  0  0  0  0  0
    5.3360    0.0137    0.2615 H   0  0  0  0  0  0  0  0  0  0  0  0
    5.0557   -0.9604   -1.2157 H   0  0  0  0  0  0  0  0  0  0  0  0
    0.0000    4.4328   -0.7227 C   0  0  0  0  0  0  0  0  0  0  0  0
    0.8998    5.0475   -0.5168 H   0  0  0  0  0  0  0  0  0  0  0  0
   -0.8999    5.0474   -0.5168 H   0  0  0  0  0  0  0  0  0  0  0  0
    0.0001    4.1824   -1.8027 H   0  0  0  0  0  0  0  0  0  0  0  0
    0.0000    3.2358    2.1818 C   0  0  0  0  0  0  0  0  0  0  0  0
    0.8978    3.8189    2.4707 H   0  0  0  0  0  0  0  0  0  0  0  0
   -0.0000    2.2951    2.7687 H   0  0  0  0  0  0  0  0  0  0  0  0
   -0.8977    3.8190    2.4707 H   0  0  0  0  0  0  0  0  0  0  0  0
  1 48  1  0  0  0  0
  2  1  1  1  0  0  0
  2  8  1  0  0  0  0
  3  5  1  0  0  0  0
  3  2  1  0  0  0  0
  4  3  1  0  0  0  0
  5  7  2  0  0  0  0
  6  5  1  0  0  0  0
  7 18  1  0  0  0  0
  7  8  1  0  0  0  0
  8  9  1  0  0  0  0
 10  1  1  1  0  0  0
 10 16  1  0  0  0  0
 11 13  1  0  0  0  0
 11 10  1  0  0  0  0
 12 11  1  0  0  0  0
 13 15  2  0  0  0  0
 14 13  1  0  0  0  0
 15 31  1  0  0  0  0
 15 16  1  0  0  0  0
 16 17  1  0  0  0  0
 18 19  1  0  0  0  0
 19 21  1  0  0  0  0
 19 22  1  0  0  0  0
 19 20  1  0  0  0  0
 23 26  1  0  0  0  0
 23 25  1  0  0  0  0
 23 18  1  0  0  0  0
 24 23  1  0  0  0  0
 27 29  1  0  0  0  0
 27 30  1  0  0  0  0
 27 18  1  0  0  0  0
 28 27  1  0  0  0  0
 31 36  1  0  0  0  0
 32 34  1  0  0  0  0
 32 33  1  0  0  0  0
 32 31  1  0  0  0  0
 35 32  1  0  0  0  0
 36 39  1  0  0  0  0
 36 38  1  0  0  0  0
 36 37  1  0  0  0  0
 40 41  1  0  0  0  0
 40 42  1  0  0  0  0
 40 31  1  0  0  0  0
 43 40  1  0  0  0  0
 44 46  1  0  0  0  0
 44 45  1  0  0  0  0
 44  1  1  0  0  0  0
 47 44  1  0  0  0  0
 48 49  1  0  0  0  0
 48 51  1  0  0  0  0
 48 50  1  0  0  0  0
M  END
