1,7
 OpenBabel05122313053D

 34 36  0  0  1  0  0  0  0  0999 V2000
    0.6263   -2.0636    0.4848 C   0  0  0  0  0  3  0  0  0  0  0  0
    0.4801   -2.4163    1.5117 H   0  0  0  0  0  0  0  0  0  0  0  0
    1.5174   -2.6211   -0.4796 C   0  0  0  0  0  0  0  0  0  0  0  0
    2.1739   -3.4856   -0.3246 H   0  0  0  0  0  0  0  0  0  0  0  0
    1.4166   -1.8413   -1.6844 C   0  0  0  0  0  0  0  0  0  0  0  0
    1.9778   -2.0043   -2.6115 H   0  0  0  0  0  0  0  0  0  0  0  0
    0.4672   -0.7980   -1.4450 C   0  0  0  0  0  3  0  0  0  0  0  0
    0.1751   -0.0180   -2.1574 H   0  0  0  0  0  0  0  0  0  0  0  0
   -0.0355   -0.9263   -0.1051 C   0  0  1  0  0  3  0  0  0  0  0  0
   -1.1275   -0.1029    0.5727 C   0  0  0  0  0  0  0  0  0  0  0  0
   -0.9405   -0.1564    1.9939 O   0  0  0  0  0  0  0  0  0  0  0  0
   -1.4569   -0.9185    2.3139 H   0  0  0  0  0  0  0  0  0  0  0  0
   -1.0083    1.3634    0.1395 C   0  0  0  0  0  0  0  0  0  0  0  0
   -1.5176    1.7877   -1.1024 C   0  0  0  0  0  0  0  0  0  0  0  0
   -2.0787    1.0801   -1.7324 H   0  0  0  0  0  0  0  0  0  0  0  0
   -1.3306    3.1102   -1.5324 C   0  0  0  0  0  0  0  0  0  0  0  0
   -1.7314    3.4294   -2.5066 H   0  0  0  0  0  0  0  0  0  0  0  0
   -0.6439    4.0242   -0.7186 C   0  0  0  0  0  0  0  0  0  0  0  0
   -0.4943    5.0610   -1.0557 H   0  0  0  0  0  0  0  0  0  0  0  0
   -0.1557    3.6100    0.5302 C   0  0  0  0  0  0  0  0  0  0  0  0
    0.3781    4.3226    1.1771 H   0  0  0  0  0  0  0  0  0  0  0  0
   -0.3358    2.2870    0.9595 C   0  0  0  0  0  0  0  0  0  0  0  0
    0.0465    1.9572    1.9345 H   0  0  0  0  0  0  0  0  0  0  0  0
   -2.5260   -0.6514    0.2449 C   0  0  0  0  0  0  0  0  0  0  0  0
   -3.6301   -0.0480    0.8854 C   0  0  0  0  0  0  0  0  0  0  0  0
   -3.4533    0.7992    1.5652 H   0  0  0  0  0  0  0  0  0  0  0  0
   -4.9294   -0.5154    0.6546 C   0  0  0  0  0  0  0  0  0  0  0  0
   -5.7813   -0.0334    1.1580 H   0  0  0  0  0  0  0  0  0  0  0  0
   -5.1464   -1.5915   -0.2238 C   0  0  0  0  0  0  0  0  0  0  0  0
   -6.1679   -1.9571   -0.4086 H   0  0  0  0  0  0  0  0  0  0  0  0
   -4.0553   -2.1952   -0.8639 C   0  0  0  0  0  0  0  0  0  0  0  0
   -4.2163   -3.0391   -1.5518 H   0  0  0  0  0  0  0  0  0  0  0  0
   -2.7499   -1.7293   -0.6297 C   0  0  0  0  0  0  0  0  0  0  0  0
   -1.8999   -2.2111   -1.1340 H   0  0  0  0  0  0  0  0  0  0  0  0
  1  2  1  0  0  0  0
  3  4  1  0  0  0  0
  3  1  1  0  0  0  0
  5  7  1  0  0  0  0
  5  3  2  0  0  0  0
  6  5  1  0  0  0  0
  7  9  1  0  0  0  0
  8  7  1  0  0  0  0
  9  1  1  0  0  0  0
  9 10  1  6  0  0  0
 10 11  1  0  0  0  0
 11 12  1  0  0  0  0
 13 10  1  0  0  0  0
 13 22  1  0  0  0  0
 14 13  2  0  0  0  0
 15 14  1  0  0  0  0
 16 14  1  0  0  0  0
 16 18  2  0  0  0  0
 17 16  1  0  0  0  0
 18 20  1  0  0  0  0
 19 18  1  0  0  0  0
 20 22  2  0  0  0  0
 20 21  1  0  0  0  0
 22 23  1  0  0  0  0
 24 10  1  0  0  0  0
 24 25  1  0  0  0  0
 25 26  1  0  0  0  0
 27 25  2  0  0  0  0
 27 28  1  0  0  0  0
 29 27  1  0  0  0  0
 30 29  1  0  0  0  0
 31 33  1  0  0  0  0
 31 29  2  0  0  0  0
 32 31  1  0  0  0  0
 33 24  2  0  0  0  0
 34 33  1  0  0  0  0
M  END
