7,11
 OpenBabel05122313053D

 46 48  0  0  1  0  0  0  0  0999 V2000
   -0.7168    0.1025   -0.3870 P   0  0  0  0  0  0  0  0  0  0  0  0
    1.6812    1.2523   -2.0385 Si  0  0  0  0  0  0  0  0  0  0  0  0
   -0.1322    0.6107   -2.0607 C   0  0  0  0  0  0  0  0  0  0  0  0
    1.7691    3.1364   -2.1283 C   0  0  0  0  0  0  0  0  0  0  0  0
    2.6017    0.4356   -3.4644 C   0  0  0  0  0  0  0  0  0  0  0  0
    2.4106    0.6449   -0.3800 C   0  0  1  0  0  3  0  0  0  0  0  0
    1.9209    1.2044    0.8678 C   0  0  0  0  0  3  0  0  0  0  0  0
    2.0923    0.5298    2.1141 C   0  0  0  0  0  3  0  0  0  0  0  0
    2.8232   -0.7103    2.1624 C   0  0  0  0  0  0  0  0  0  0  0  0
    3.3533   -1.2631    0.9787 C   0  0  0  0  0  0  0  0  0  0  0  0
    3.0950   -0.6129   -0.2876 C   0  0  0  0  0  3  0  0  0  0  0  0
   -1.2715    1.6375    0.4649 C   0  0  0  0  0  0  0  0  0  0  0  0
   -1.5691    1.5356    1.8424 C   0  0  0  0  0  0  0  0  0  0  0  0
   -1.9760    2.6714    2.5549 C   0  0  0  0  0  0  0  0  0  0  0  0
   -2.0857    3.9154    1.9083 C   0  0  0  0  0  0  0  0  0  0  0  0
   -1.7919    4.0194    0.5409 C   0  0  0  0  0  0  0  0  0  0  0  0
   -1.3883    2.8832   -0.1818 C   0  0  0  0  0  0  0  0  0  0  0  0
   -2.3065   -0.7831   -0.6574 C   0  0  0  0  0  0  0  0  0  0  0  0
   -2.4683   -2.1460   -0.3466 C   0  0  0  0  0  0  0  0  0  0  0  0
   -3.7022   -2.7679   -0.5935 C   0  0  0  0  0  0  0  0  0  0  0  0
   -4.7694   -2.0445   -1.1473 C   0  0  0  0  0  0  0  0  0  0  0  0
   -4.6088   -0.6829   -1.4524 C   0  0  0  0  0  0  0  0  0  0  0  0
   -3.3827   -0.0510   -1.2034 C   0  0  0  0  0  0  0  0  0  0  0  0
   -0.8597    1.2528   -2.5993 H   0  0  0  0  0  0  0  0  0  0  0  0
   -0.0892   -0.3669   -2.5892 H   0  0  0  0  0  0  0  0  0  0  0  0
    1.2866    3.6130   -1.2516 H   0  0  0  0  0  0  0  0  0  0  0  0
    1.2639    3.5136   -3.0412 H   0  0  0  0  0  0  0  0  0  0  0  0
    2.8258    3.4718   -2.1612 H   0  0  0  0  0  0  0  0  0  0  0  0
    3.6826    0.6822   -3.4518 H   0  0  0  0  0  0  0  0  0  0  0  0
    2.1852    0.7667   -4.4377 H   0  0  0  0  0  0  0  0  0  0  0  0
    2.4876   -0.6663   -3.4059 H   0  0  0  0  0  0  0  0  0  0  0  0
    1.3140    2.1234    0.8565 H   0  0  0  0  0  0  0  0  0  0  0  0
    1.6131    0.9273    3.0196 H   0  0  0  0  0  0  0  0  0  0  0  0
    2.8744   -1.2735    3.1052 H   0  0  0  0  0  0  0  0  0  0  0  0
    3.8251   -2.2553    0.9912 H   0  0  0  0  0  0  0  0  0  0  0  0
    3.3694   -1.1494   -1.2071 H   0  0  0  0  0  0  0  0  0  0  0  0
   -1.4615    0.5576    2.3431 H   0  0  0  0  0  0  0  0  0  0  0  0
   -2.2074    2.5856    3.6276 H   0  0  0  0  0  0  0  0  0  0  0  0
   -2.4017    4.8056    2.4732 H   0  0  0  0  0  0  0  0  0  0  0  0
   -1.8777    4.9897    0.0283 H   0  0  0  0  0  0  0  0  0  0  0  0
   -1.1627    2.9776   -1.2539 H   0  0  0  0  0  0  0  0  0  0  0  0
   -1.6274   -2.7035    0.0869 H   0  0  0  0  0  0  0  0  0  0  0  0
   -3.8266   -3.8331   -0.3466 H   0  0  0  0  0  0  0  0  0  0  0  0
   -5.7335   -2.5407   -1.3379 H   0  0  0  0  0  0  0  0  0  0  0  0
   -5.4439   -0.1068   -1.8792 H   0  0  0  0  0  0  0  0  0  0  0  0
   -3.2708    1.0223   -1.4241 H   0  0  0  0  0  0  0  0  0  0  0  0
  1 12  1  0  0  0  0
  3  2  1  0  0  0  0
  3  1  1  0  0  0  0
  4  2  1  0  0  0  0
  4 26  1  0  0  0  0
  5 29  1  0  0  0  0
  5 31  1  0  0  0  0
  5  2  1  0  0  0  0
  6  2  1  6  0  0  0
  6 11  1  0  0  0  0
  6  7  1  0  0  0  0
  7  8  1  0  0  0  0
  8  9  1  0  0  0  0
  8 33  1  0  0  0  0
  9 34  1  0  0  0  0
 10 35  1  0  0  0  0
 10  9  2  0  0  0  0
 11 10  1  0  0  0  0
 12 13  1  0  0  0  0
 13 37  1  0  0  0  0
 13 14  2  0  0  0  0
 14 38  1  0  0  0  0
 15 39  1  0  0  0  0
 15 14  1  0  0  0  0
 16 15  2  0  0  0  0
 17 12  2  0  0  0  0
 17 16  1  0  0  0  0
 18  1  1  0  0  0  0
 18 19  1  0  0  0  0
 19 42  1  0  0  0  0
 20 43  1  0  0  0  0
 20 19  2  0  0  0  0
 21 20  1  0  0  0  0
 22 23  1  0  0  0  0
 22 21  2  0  0  0  0
 23 18  2  0  0  0  0
 24  3  1  0  0  0  0
 25  3  1  0  0  0  0
 27  4  1  0  0  0  0
 28  4  1  0  0  0  0
 30  5  1  0  0  0  0
 32  7  1  0  0  0  0
 36 11  1  0  0  0  0
 40 16  1  0  0  0  0
 41 17  1  0  0  0  0
 44 21  1  0  0  0  0
 45 22  1  0  0  0  0
 46 23  1  0  0  0  0
M  END
