7,14
 OpenBabel05122313053D

 32 31  0  0  1  0  0  0  0  0999 V2000
    1.4422    2.7198    2.1052 O   0  0  0  0  0  0  0  0  0  0  0  0
    1.5193    3.8128    0.1125 O   0  0  0  0  0  0  0  0  0  0  0  0
   -1.8292   -1.0287    2.5721 O   0  0  0  0  0  0  0  0  0  0  0  0
   -2.9659   -1.7286    0.7354 O   0  0  0  0  0  0  0  0  0  0  0  0
   -4.5452    0.8382    0.9136 O   0  0  0  0  0  0  0  0  0  0  0  0
   -4.8873    1.1778   -1.3047 O   0  0  0  0  0  0  0  0  0  0  0  0
   -0.6941    0.6735   -2.0235 C   0  0  0  0  0  3  0  0  0  0  0  0
   -0.2252    1.5710   -2.4921 H   0  0  0  0  0  0  0  0  0  0  0  0
   -0.5440   -0.1438   -2.7689 H   0  0  0  0  0  0  0  0  0  0  0  0
   -2.1523    0.9087   -1.8124 C   0  0  0  0  0  0  0  0  0  0  0  0
   -2.7987    1.2716   -2.6305 H   0  0  0  0  0  0  0  0  0  0  0  0
   -2.6805    0.6878   -0.5838 C   0  0  0  0  0  0  0  0  0  0  0  0
   -1.7666    0.2878    0.5358 C   0  0  1  0  0  3  0  0  0  0  0  0
   -0.8602    1.2290    1.1543 C   0  0  0  0  0  3  0  0  0  0  0  0
   -0.5900    1.0801    2.2098 H   0  0  0  0  0  0  0  0  0  0  0  0
   -0.1522    2.1927    0.3619 C   0  0  0  0  0  3  0  0  0  0  0  0
   -0.6387    2.7119   -0.4783 H   0  0  0  0  0  0  0  0  0  0  0  0
    0.9860    2.9076    0.9891 C   0  0  0  0  0  0  0  0  0  0  0  0
    2.6851    4.4930    0.5858 C   0  0  0  0  0  0  0  0  0  0  0  0
    2.4856    5.0000    1.5511 H   0  0  0  0  0  0  0  0  0  0  0  0
    2.9488    5.2320   -0.1921 H   0  0  0  0  0  0  0  0  0  0  0  0
    3.5222    3.7805    0.7377 H   0  0  0  0  0  0  0  0  0  0  0  0
   -2.1792   -0.8507    1.4183 C   0  0  0  0  0  0  0  0  0  0  0  0
   -3.4180   -2.8511    1.4956 C   0  0  0  0  0  0  0  0  0  0  0  0
   -2.5610   -3.4265    1.9006 H   0  0  0  0  0  0  0  0  0  0  0  0
   -4.0098   -3.4749    0.8017 H   0  0  0  0  0  0  0  0  0  0  0  0
   -4.0479   -2.5177    2.3450 H   0  0  0  0  0  0  0  0  0  0  0  0
   -4.1057    0.8999   -0.2252 C   0  0  0  0  0  0  0  0  0  0  0  0
   -6.2642    1.4159   -1.0060 C   0  0  0  0  0  0  0  0  0  0  0  0
   -6.7205    0.5363   -0.5074 H   0  0  0  0  0  0  0  0  0  0  0  0
   -6.7604    1.6106   -1.9738 H   0  0  0  0  0  0  0  0  0  0  0  0
   -6.3812    2.2881   -0.3305 H   0  0  0  0  0  0  0  0  0  0  0  0
  2 19  1  0  0  0  0
  2 18  1  0  0  0  0
  4 23  1  0  0  0  0
  4 24  1  0  0  0  0
  6 29  1  0  0  0  0
  6 28  1  0  0  0  0
  7 10  1  0  0  0  0
  8  7  1  0  0  0  0
  9  7  1  0  0  0  0
 10 12  2  0  0  0  0
 11 10  1  0  0  0  0
 12 28  1  0  0  0  0
 13 12  1  1  0  0  0
 13 14  1  0  0  0  0
 13 23  1  0  0  0  0
 14 15  1  0  0  0  0
 16 18  1  0  0  0  0
 16 14  1  0  0  0  0
 17 16  1  0  0  0  0
 18  1  2  0  0  0  0
 19 22  1  0  0  0  0
 19 20  1  0  0  0  0
 21 19  1  0  0  0  0
 23  3  2  0  0  0  0
 24 25  1  0  0  0  0
 24 27  1  0  0  0  0
 26 24  1  0  0  0  0
 28  5  2  0  0  0  0
 29 30  1  0  0  0  0
 29 32  1  0  0  0  0
 31 29  1  0  0  0  0
M  END
