5,10
 OpenBabel05122313053D

 22 21  0  0  0  0  0  0  0  0999 V2000
   -2.2053    0.7751    2.0662 O   0  0  0  0  0  0  0  0  0  0  0  0
   -2.1638   -1.4755    1.7572 O   0  0  0  0  0  0  0  0  0  0  0  0
   -4.6525   -0.3629   -2.1258 O   0  0  0  0  0  0  0  0  0  0  0  0
   -4.4333   -0.3624    0.1344 O   0  0  0  0  0  0  0  0  0  0  0  0
   -1.6322   -0.1076   -0.0881 C   0  0  0  0  0  3  0  0  0  0  0  0
   -2.4668   -0.1142   -1.1767 C   0  0  0  0  0  0  0  0  0  0  0  0
   -1.8190    0.0279   -2.5329 C   0  0  0  0  0  0  0  0  0  0  0  0
   -2.3931    0.7480   -3.1570 H   0  0  0  0  0  0  0  0  0  0  0  0
   -1.9240   -0.9342   -3.0854 H   0  0  0  0  0  0  0  0  0  0  0  0
   -0.3281    0.4221   -2.3748 C   0  0  0  0  0  3  0  0  0  0  0  0
   -0.1865    1.4953   -2.6413 H   0  0  0  0  0  0  0  0  0  0  0  0
    0.3109   -0.1529   -3.0789 H   0  0  0  0  0  0  0  0  0  0  0  0
   -2.0676   -0.1923    1.3270 C   0  0  0  0  0  0  0  0  0  0  0  0
   -2.4991   -1.6361    3.1373 C   0  0  0  0  0  0  0  0  0  0  0  0
   -1.6950   -1.2403    3.7915 H   0  0  0  0  0  0  0  0  0  0  0  0
   -2.6162   -2.7228    3.3001 H   0  0  0  0  0  0  0  0  0  0  0  0
   -3.4415   -1.1042    3.3798 H   0  0  0  0  0  0  0  0  0  0  0  0
   -3.9330   -0.2902   -1.1371 C   0  0  0  0  0  0  0  0  0  0  0  0
   -5.8429   -0.5459    0.2260 C   0  0  0  0  0  0  0  0  0  0  0  0
   -6.3885    0.2760   -0.2821 H   0  0  0  0  0  0  0  0  0  0  0  0
   -6.0836   -0.5560    1.3048 H   0  0  0  0  0  0  0  0  0  0  0  0
   -6.1550   -1.5008   -0.2461 H   0  0  0  0  0  0  0  0  0  0  0  0
  2 14  1  0  0  0  0
  3 18  2  0  0  0  0
  4 19  1  0  0  0  0
  5 13  1  0  0  0  0
  6 18  1  0  0  0  0
  6  5  2  0  0  0  0
  7 10  1  0  0  0  0
  7  6  1  0  0  0  0
  8  7  1  0  0  0  0
  9  7  1  0  0  0  0
 11 10  1  0  0  0  0
 12 10  1  0  0  0  0
 13  2  1  0  0  0  0
 13  1  2  0  0  0  0
 14 16  1  0  0  0  0
 14 17  1  0  0  0  0
 14 15  1  0  0  0  0
 18  4  1  0  0  0  0
 19 21  1  0  0  0  0
 20 19  1  0  0  0  0
 22 19  1  0  0  0  0
M  END
