4,6
 OpenBabel05122313053D

 52 54  0  0  1  0  0  0  0  0999 V2000
   -1.2345    0.0593    0.4928 P   0  0  0  0  0  0  0  0  0  0  0  0
    3.1257    0.2649   -0.2979 C   0  0  0  0  0  0  0  0  0  0  0  0
    2.2393    1.4067   -0.2111 C   0  0  0  0  0  3  0  0  0  0  0  0
    1.4715    1.6628    0.9620 C   0  0  0  0  0  3  0  0  0  0  0  0
    1.5208    0.7714    2.0999 C   0  0  2  0  0  3  0  0  0  0  0  0
    2.3748   -0.3688    1.9792 C   0  0  0  0  0  3  0  0  0  0  0  0
    3.2070   -0.5962    0.8232 C   0  0  0  0  0  0  0  0  0  0  0  0
    3.8399   -0.0035   -1.6082 C   0  0  0  0  0  0  0  0  0  0  0  0
    4.2027   -1.4753   -1.8174 C   0  0  0  0  0  0  0  0  0  0  0  0
    5.0618    0.9237   -1.7358 C   0  0  0  0  0  0  0  0  0  0  0  0
    0.6431    0.9651    3.3135 C   0  0  0  0  0  0  0  0  0  0  0  0
   -0.8390    1.2876    3.0430 C   0  0  0  0  0  0  0  0  0  0  0  0
   -1.6296    0.1993    2.2984 C   0  0  0  0  0  0  0  0  0  0  0  0
   -2.4796   -1.1097   -0.1722 C   0  0  0  0  0  0  0  0  0  0  0  0
   -2.9468   -2.1932    0.5993 C   0  0  0  0  0  0  0  0  0  0  0  0
   -3.8872   -3.0833    0.0615 C   0  0  0  0  0  0  0  0  0  0  0  0
   -4.3563   -2.9101   -1.2498 C   0  0  0  0  0  0  0  0  0  0  0  0
   -3.8806   -1.8414   -2.0253 C   0  0  0  0  0  0  0  0  0  0  0  0
   -2.9456   -0.9437   -1.4920 C   0  0  0  0  0  0  0  0  0  0  0  0
   -1.7553    1.6784   -0.2274 C   0  0  0  0  0  0  0  0  0  0  0  0
   -1.0942    2.1556   -1.3794 C   0  0  0  0  0  0  0  0  0  0  0  0
   -1.4734    3.3793   -1.9522 C   0  0  0  0  0  0  0  0  0  0  0  0
   -2.5048    4.1407   -1.3796 C   0  0  0  0  0  0  0  0  0  0  0  0
   -3.1704    3.6664   -0.2381 C   0  0  0  0  0  0  0  0  0  0  0  0
   -2.8034    2.4379    0.3323 C   0  0  0  0  0  0  0  0  0  0  0  0
    2.1067    2.0525   -1.0914 H   0  0  0  0  0  0  0  0  0  0  0  0
    0.7706    2.5118    0.9567 H   0  0  0  0  0  0  0  0  0  0  0  0
    2.3461   -1.1370    2.7658 H   0  0  0  0  0  0  0  0  0  0  0  0
    3.7844   -1.5275    0.7646 H   0  0  0  0  0  0  0  0  0  0  0  0
    3.1017    0.2631   -2.3963 H   0  0  0  0  0  0  0  0  0  0  0  0
    3.3036   -2.1140   -1.7133 H   0  0  0  0  0  0  0  0  0  0  0  0
    4.9771   -1.8200   -1.1005 H   0  0  0  0  0  0  0  0  0  0  0  0
    4.6132   -1.6222   -2.8361 H   0  0  0  0  0  0  0  0  0  0  0  0
    4.7849    1.9914   -1.6213 H   0  0  0  0  0  0  0  0  0  0  0  0
    5.5394    0.8005   -2.7288 H   0  0  0  0  0  0  0  0  0  0  0  0
    5.8208    0.6874   -0.9612 H   0  0  0  0  0  0  0  0  0  0  0  0
    1.0716    1.7856    3.9309 H   0  0  0  0  0  0  0  0  0  0  0  0
    0.7056    0.0465    3.9328 H   0  0  0  0  0  0  0  0  0  0  0  0
   -0.9362    2.2574    2.5090 H   0  0  0  0  0  0  0  0  0  0  0  0
   -1.3255    1.4478    4.0277 H   0  0  0  0  0  0  0  0  0  0  0  0
   -2.7215    0.3554    2.4131 H   0  0  0  0  0  0  0  0  0  0  0  0
   -1.3957   -0.8027    2.7153 H   0  0  0  0  0  0  0  0  0  0  0  0
   -2.5613   -2.3614    1.6135 H   0  0  0  0  0  0  0  0  0  0  0  0
   -4.2463   -3.9265    0.6709 H   0  0  0  0  0  0  0  0  0  0  0  0
   -5.0904   -3.6141   -1.6706 H   0  0  0  0  0  0  0  0  0  0  0  0
   -4.2360   -1.7054   -3.0579 H   0  0  0  0  0  0  0  0  0  0  0  0
   -2.5696   -0.1150   -2.1074 H   0  0  0  0  0  0  0  0  0  0  0  0
   -0.3030    1.5342   -1.8324 H   0  0  0  0  0  0  0  0  0  0  0  0
   -0.9586    3.7388   -2.8563 H   0  0  0  0  0  0  0  0  0  0  0  0
   -2.7956    5.1036   -1.8265 H   0  0  0  0  0  0  0  0  0  0  0  0
   -3.9853    4.2545    0.2110 H   0  0  0  0  0  0  0  0  0  0  0  0
   -3.3461    2.0731    1.2171 H   0  0  0  0  0  0  0  0  0  0  0  0
  1 13  1  0  0  0  0
  2  3  1  0  0  0  0
  2  7  2  0  0  0  0
  3  4  1  0  0  0  0
  4  5  1  0  0  0  0
  5 11  1  6  0  0  0
  6  5  1  0  0  0  0
  6 28  1  0  0  0  0
  7  6  1  0  0  0  0
  8  2  1  0  0  0  0
  9 31  1  0  0  0  0
  9  8  1  0  0  0  0
  9 32  1  0  0  0  0
 10 34  1  0  0  0  0
 10  8  1  0  0  0  0
 10 36  1  0  0  0  0
 11 37  1  0  0  0  0
 11 38  1  0  0  0  0
 12 11  1  0  0  0  0
 12 40  1  0  0  0  0
 13 41  1  0  0  0  0
 13 42  1  0  0  0  0
 13 12  1  0  0  0  0
 14  1  1  0  0  0  0
 14 15  1  0  0  0  0
 15 43  1  0  0  0  0
 16 15  2  0  0  0  0
 16 44  1  0  0  0  0
 17 16  1  0  0  0  0
 18 19  1  0  0  0  0
 18 17  2  0  0  0  0
 19 14  2  0  0  0  0
 20 25  1  0  0  0  0
 20  1  1  0  0  0  0
 21 20  2  0  0  0  0
 22 23  2  0  0  0  0
 22 21  1  0  0  0  0
 23 24  1  0  0  0  0
 24 51  1  0  0  0  0
 24 25  2  0  0  0  0
 25 52  1  0  0  0  0
 26  3  1  0  0  0  0
 27  4  1  0  0  0  0
 29  7  1  0  0  0  0
 30  8  1  0  0  0  0
 33  9  1  0  0  0  0
 35 10  1  0  0  0  0
 39 12  1  0  0  0  0
 45 17  1  0  0  0  0
 46 18  1  0  0  0  0
 47 19  1  0  0  0  0
 48 21  1  0  0  0  0
 49 22  1  0  0  0  0
 50 23  1  0  0  0  0
M  END
