3,19
 OpenBabel05122313053D

 29 30  0  0  0  0  0  0  0  0999 V2000
    1.7212   -1.4651   -0.1429 N   0  0  0  0  0  0  0  0  0  0  0  0
    1.9891    0.7038    0.0312 N   0  0  0  0  0  0  0  0  0  0  0  0
    1.0355   -0.2745   -0.0821 C   0  0  0  0  0  2  0  0  0  0  0  0
    3.2677    0.1365    0.0446 C   0  0  0  0  0  0  0  0  0  0  0  0
    3.0927   -1.2653   -0.0675 C   0  0  0  0  0  0  0  0  0  0  0  0
    4.1856   -2.1427   -0.0837 C   0  0  0  0  0  0  0  0  0  0  0  0
    4.0487   -3.2299   -0.1667 H   0  0  0  0  0  0  0  0  0  0  0  0
    5.4639   -1.5693    0.0091 C   0  0  0  0  0  0  0  0  0  0  0  0
    6.3478   -2.2239   -0.0012 H   0  0  0  0  0  0  0  0  0  0  0  0
    5.6391   -0.1724    0.1176 C   0  0  0  0  0  0  0  0  0  0  0  0
    6.6569    0.2380    0.1915 H   0  0  0  0  0  0  0  0  0  0  0  0
    4.5442    0.7067    0.1384 C   0  0  0  0  0  0  0  0  0  0  0  0
    4.6799    1.7915    0.2394 H   0  0  0  0  0  0  0  0  0  0  0  0
    0.9835   -2.7191   -0.1639 C   0  0  0  0  0  0  0  0  0  0  0  0
    1.4809   -3.4156   -0.8750 H   0  0  0  0  0  0  0  0  0  0  0  0
    1.0279   -3.1816    0.8463 H   0  0  0  0  0  0  0  0  0  0  0  0
   -0.4540   -2.4291   -0.5611 C   0  0  0  0  0  3  0  0  0  0  0  0
   -1.1702   -3.1647   -0.1605 H   0  0  0  0  0  0  0  0  0  0  0  0
   -0.7527   -1.7528   -1.7956 C   0  0  0  0  0  3  0  0  0  0  0  0
   -1.7072   -1.9581   -2.3078 H   0  0  0  0  0  0  0  0  0  0  0  0
    0.0651   -1.4625   -2.4753 H   0  0  0  0  0  0  0  0  0  0  0  0
    1.7529    2.1421    0.1497 C   0  0  0  0  0  0  0  0  0  0  0  0
    0.6926    2.3032   -0.1509 H   0  0  0  0  0  0  0  0  0  0  0  0
    2.3688    2.6620   -0.6128 H   0  0  0  0  0  0  0  0  0  0  0  0
    2.0493    2.6598    1.5290 C   0  0  0  0  0  0  0  0  0  0  0  0
    1.5911    2.0927    2.3597 H   0  0  0  0  0  0  0  0  0  0  0  0
    2.7790    3.7573    1.7909 C   0  0  0  0  0  0  0  0  0  0  0  0
    2.9202    4.1232    2.8192 H   0  0  0  0  0  0  0  0  0  0  0  0
    3.2487    4.3413    0.9811 H   0  0  0  0  0  0  0  0  0  0  0  0
  1  3  1  0  0  0  0
  1  5  1  0  0  0  0
  2  4  1  0  0  0  0
  2 22  1  0  0  0  0
  3  2  1  0  0  0  0
  4 12  1  0  0  0  0
  5  4  2  0  0  0  0
  6  5  1  0  0  0  0
  6  8  2  0  0  0  0
  7  6  1  0  0  0  0
  8 10  1  0  0  0  0
  9  8  1  0  0  0  0
 10 12  2  0  0  0  0
 10 11  1  0  0  0  0
 12 13  1  0  0  0  0
 14  1  1  0  0  0  0
 14 16  1  0  0  0  0
 15 14  1  0  0  0  0
 17 14  1  0  0  0  0
 17 18  1  0  0  0  0
 19 17  1  0  0  0  0
 20 19  1  0  0  0  0
 21 19  1  0  0  0  0
 22 25  1  0  0  0  0
 23 22  1  0  0  0  0
 24 22  1  0  0  0  0
 25 27  2  0  0  0  0
 25 26  1  0  0  0  0
 27 28  1  0  0  0  0
 29 27  1  0  0  0  0
M  END
