1,2
 OpenBabel05122313053D

 16 15  0  0  0  0  0  0  0  0999 V2000
    1.4804   -0.0688   -0.7518 C   0  0  0  0  0  3  0  0  0  0  0  0
    1.0111    0.1512    1.5372 C   0  0  0  0  0  3  0  0  0  0  0  0
    2.1260    0.4780    0.5311 C   0  0  0  0  0  0  0  0  0  0  0  0
    3.5269   -0.0802    0.8762 C   0  0  0  0  0  0  0  0  0  0  0  0
    4.5722    0.2757   -0.1379 C   0  0  0  0  0  0  0  0  0  0  0  0
    5.2034   -0.5889   -0.9526 C   0  0  0  0  0  0  0  0  0  0  0  0
    1.7762   -1.1277   -0.8921 H   0  0  0  0  0  0  0  0  0  0  0  0
    1.7291    0.4613   -1.6921 H   0  0  0  0  0  0  0  0  0  0  0  0
    1.1749   -0.8481    1.9865 H   0  0  0  0  0  0  0  0  0  0  0  0
    0.8882    0.8631    2.3777 H   0  0  0  0  0  0  0  0  0  0  0  0
    2.2235    1.5848    0.4454 H   0  0  0  0  0  0  0  0  0  0  0  0
    3.4562   -1.1862    0.9759 H   0  0  0  0  0  0  0  0  0  0  0  0
    3.8202    0.3136    1.8765 H   0  0  0  0  0  0  0  0  0  0  0  0
    4.7994    1.3550   -0.2342 H   0  0  0  0  0  0  0  0  0  0  0  0
    5.0052   -1.6729   -0.8983 H   0  0  0  0  0  0  0  0  0  0  0  0
    5.9412   -0.2517   -1.6976 H   0  0  0  0  0  0  0  0  0  0  0  0
  1  3  1  0  0  0  0
  2  9  1  0  0  0  0
  2 10  1  0  0  0  0
  3  4  1  0  0  0  0
  3  2  1  0  0  0  0
  4 12  1  0  0  0  0
  4 13  1  0  0  0  0
  5  4  1  0  0  0  0
  6 15  1  0  0  0  0
  6  5  2  0  0  0  0
  7  1  1  0  0  0  0
  8  1  1  0  0  0  0
 11  3  1  0  0  0  0
 14  5  1  0  0  0  0
 16  6  1  0  0  0  0
M  END
