24,30
 OpenBabel05122313053D

 31 33  0  0  1  0  0  0  0  0999 V2000
    4.7961   -2.6711    0.3179 O   0  0  0  0  0  0  0  0  0  0  0  0
    3.9679    2.7040   -0.3157 O   0  0  0  0  0  0  0  0  0  0  0  0
    2.1055   -1.5374   -0.3251 N   0  0  0  0  0  0  0  0  0  0  0  0
    1.2562   -0.5351   -0.5846 N   0  0  0  0  0  0  0  0  0  0  0  0
    1.7654    0.7110   -0.5884 N   0  0  0  0  0  0  0  0  0  0  0  0
   -0.0459   -0.8406   -0.8236 N   0  0  0  0  0  0  0  0  0  0  0  0
    4.5925   -1.4688    0.1765 C   0  0  0  0  0  0  0  0  0  0  0  0
    3.2686   -0.8950   -0.1433 C   0  0  0  0  0  0  0  0  0  0  0  0
    3.0573    0.4980   -0.3065 C   0  0  0  0  0  0  0  0  0  0  0  0
    4.1407    1.4966   -0.1716 C   0  0  0  0  0  0  0  0  0  0  0  0
    5.4876    0.9075    0.1594 C   0  0  0  0  0  0  0  0  0  0  0  0
    5.6941   -0.4460    0.3180 C   0  0  0  0  0  0  0  0  0  0  0  0
    6.6064    1.8947    0.3070 C   0  0  0  0  0  0  0  0  0  0  0  0
    7.0619    1.8348    1.3180 H   0  0  0  0  0  0  0  0  0  0  0  0
    6.2326    2.9215    0.1405 H   0  0  0  0  0  0  0  0  0  0  0  0
    7.4233    1.6851   -0.4154 H   0  0  0  0  0  0  0  0  0  0  0  0
    7.0483   -0.9984    0.6462 C   0  0  0  0  0  0  0  0  0  0  0  0
    7.7917   -0.7243   -0.1321 H   0  0  0  0  0  0  0  0  0  0  0  0
    7.0003   -2.0996    0.7278 H   0  0  0  0  0  0  0  0  0  0  0  0
    7.4299   -0.5803    1.6017 H   0  0  0  0  0  0  0  0  0  0  0  0
   -0.8400    0.1539   -1.0786 C   0  0  0  0  0  0  0  0  0  0  0  0
   -0.4738    1.1989   -1.1150 H   0  0  0  0  0  0  0  0  0  0  0  0
   -2.2458   -0.1024   -1.3259 C   0  0  2  0  0  3  0  0  0  0  0  0
   -3.2326    0.8821   -1.7047 C   0  0  0  0  0  3  0  0  0  0  0  0
   -3.0320    1.9454   -1.8852 H   0  0  0  0  0  0  0  0  0  0  0  0
   -4.4948    0.2312   -1.8269 C   0  0  0  0  0  0  0  0  0  0  0  0
   -5.4404    0.7066   -2.1110 H   0  0  0  0  0  0  0  0  0  0  0  0
   -4.3069   -1.1609   -1.5025 C   0  0  0  0  0  0  0  0  0  0  0  0
   -5.0897   -1.9284   -1.4919 H   0  0  0  0  0  0  0  0  0  0  0  0
   -2.9347   -1.3658   -1.1865 C   0  0  0  0  0  3  0  0  0  0  0  0
   -2.4533   -2.3071   -0.8986 H   0  0  0  0  0  0  0  0  0  0  0  0
  2 10  2  0  0  0  0
  3  8  2  0  0  0  0
  4  3  1  0  0  0  0
  5  4  1  0  0  0  0
  5  9  2  0  0  0  0
  6  4  1  0  0  0  0
  7  1  2  0  0  0  0
  7 12  1  0  0  0  0
  8  7  1  0  0  0  0
  9 10  1  0  0  0  0
  9  8  1  0  0  0  0
 10 11  1  0  0  0  0
 11 13  1  0  0  0  0
 11 12  2  0  0  0  0
 12 17  1  0  0  0  0
 13 14  1  0  0  0  0
 15 13  1  0  0  0  0
 16 13  1  0  0  0  0
 17 19  1  0  0  0  0
 17 20  1  0  0  0  0
 18 17  1  0  0  0  0
 21  6  2  0  0  0  0
 22 21  1  0  0  0  0
 23 30  1  0  0  0  0
 23 21  1  1  0  0  0
 24 23  1  0  0  0  0
 25 24  1  0  0  0  0
 26 24  1  0  0  0  0
 26 28  2  0  0  0  0
 27 26  1  0  0  0  0
 28 29  1  0  0  0  0
 28 30  1  0  0  0  0
 30 31  1  0  0  0  0
M  END
