7,22
 OpenBabel05122313053D

 36 37  0  0  1  0  0  0  0  0999 V2000
    0.7139   -0.4065    2.5691 O   0  0  0  0  0  0  0  0  0  0  0  0
    4.8216    2.2180   -0.5193 F   0  0  0  0  0  0  0  0  0  0  0  0
    6.2461   -0.1008   -0.4697 F   0  0  0  0  0  0  0  0  0  0  0  0
    5.1078   -2.3982    0.4888 F   0  0  0  0  0  0  0  0  0  0  0  0
    2.5532   -2.3710    1.4155 F   0  0  0  0  0  0  0  0  0  0  0  0
    0.6935    2.2165   -0.1070 C   0  0  0  0  0  0  0  0  0  0  0  0
   -0.5175    2.4710    0.6404 C   0  0  2  0  0  3  0  0  0  0  0  0
   -1.6386    2.2111   -0.2576 C   0  0  0  0  0  0  0  0  0  0  0  0
   -1.1243    1.7427   -1.5009 C   0  0  0  0  0  0  0  0  0  0  0  0
    0.3266    1.7334   -1.4054 C   0  0  0  0  0  0  0  0  0  0  0  0
   -0.5823    3.1057    1.9953 C   0  0  0  0  0  0  0  0  0  0  0  0
   -3.0697    2.5387    0.0301 C   0  0  0  0  0  0  0  0  0  0  0  0
   -1.8996    1.3786   -2.7262 C   0  0  0  0  0  0  0  0  0  0  0  0
    1.2721    1.4573   -2.5295 C   0  0  0  0  0  0  0  0  0  0  0  0
    2.1045    2.4194    0.3620 C   0  0  0  0  0  0  0  0  0  0  0  0
    2.9050    1.1306    0.3937 C   0  0  0  0  0  0  0  0  0  0  0  0
    4.2338    1.1006   -0.0479 C   0  0  0  0  0  0  0  0  0  0  0  0
    4.9868   -0.0860   -0.0222 C   0  0  0  0  0  0  0  0  0  0  0  0
    4.4022   -1.2635    0.4710 C   0  0  0  0  0  0  0  0  0  0  0  0
    3.0796   -1.2346    0.9445 C   0  0  0  0  0  0  0  0  0  0  0  0
    2.3234   -0.0544    0.8875 C   0  0  0  0  0  0  0  0  0  0  0  0
    0.8958   -0.0640    1.4049 C   0  0  0  0  0  3  0  0  0  0  0  0
   -0.2985    4.1791    1.9407 H   0  0  0  0  0  0  0  0  0  0  0  0
   -1.6015    3.0613    2.4212 H   0  0  0  0  0  0  0  0  0  0  0  0
    0.1011    2.6129    2.7146 H   0  0  0  0  0  0  0  0  0  0  0  0
   -3.2560    3.6126   -0.1878 H   0  0  0  0  0  0  0  0  0  0  0  0
   -3.7674    1.9423   -0.5858 H   0  0  0  0  0  0  0  0  0  0  0  0
   -3.3403    2.3731    1.0900 H   0  0  0  0  0  0  0  0  0  0  0  0
   -1.7835    2.1519   -3.5157 H   0  0  0  0  0  0  0  0  0  0  0  0
   -1.5410    0.4156   -3.1453 H   0  0  0  0  0  0  0  0  0  0  0  0
   -2.9792    1.2711   -2.5119 H   0  0  0  0  0  0  0  0  0  0  0  0
    1.5098    2.4066   -3.0581 H   0  0  0  0  0  0  0  0  0  0  0  0
    2.2238    1.0243   -2.1679 H   0  0  0  0  0  0  0  0  0  0  0  0
    0.8413    0.7509   -3.2625 H   0  0  0  0  0  0  0  0  0  0  0  0
    2.0956    2.8687    1.3772 H   0  0  0  0  0  0  0  0  0  0  0  0
    2.6246    3.1463   -0.2933 H   0  0  0  0  0  0  0  0  0  0  0  0
  2 17  1  0  0  0  0
  3 18  1  0  0  0  0
  6 15  1  0  0  0  0
  6  7  1  0  0  0  0
  7 11  1  6  0  0  0
  8 12  1  0  0  0  0
  8  7  1  0  0  0  0
  9 10  1  0  0  0  0
  9  8  2  0  0  0  0
 10  6  2  0  0  0  0
 11 24  1  0  0  0  0
 11 25  1  0  0  0  0
 12 28  1  0  0  0  0
 13 31  1  0  0  0  0
 13  9  1  0  0  0  0
 14 33  1  0  0  0  0
 14 10  1  0  0  0  0
 15 16  1  0  0  0  0
 15 35  1  0  0  0  0
 16 21  1  0  0  0  0
 17 18  1  0  0  0  0
 17 16  2  0  0  0  0
 18 19  2  0  0  0  0
 19  4  1  0  0  0  0
 19 20  1  0  0  0  0
 20  5  1  0  0  0  0
 21 20  2  0  0  0  0
 21 22  1  0  0  0  0
 22  1  2  0  0  0  0
 23 11  1  0  0  0  0
 26 12  1  0  0  0  0
 27 12  1  0  0  0  0
 29 13  1  0  0  0  0
 30 13  1  0  0  0  0
 32 14  1  0  0  0  0
 34 14  1  0  0  0  0
 36 15  1  0  0  0  0
M  END
