5,13
 OpenBabel05122313053D

 66 69  0  0  0  0  0  0  0  0999 V2000
    2.3515   -0.4376    0.9677 N   0  0  0  0  0  0  0  0  0  0  0  0
    1.2241   -2.2765    1.1403 N   0  0  0  0  0  0  0  0  0  0  0  0
   -1.0991   -2.7588    0.9209 N   0  0  0  0  0  0  0  0  0  0  0  0
   -2.7462   -1.3888    0.6555 N   0  0  0  0  0  0  0  0  0  0  0  0
    1.2752   -1.0994    0.4311 C   0  0  0  0  0  2  0  0  0  0  0  0
    2.9233   -1.1800    2.0026 C   0  0  0  0  0  0  0  0  0  0  0  0
    3.7929   -0.8093    2.5515 H   0  0  0  0  0  0  0  0  0  0  0  0
    2.2135   -2.3435    2.1152 C   0  0  0  0  0  0  0  0  0  0  0  0
    2.3352   -3.2012    2.7833 H   0  0  0  0  0  0  0  0  0  0  0  0
    0.2439   -3.2963    0.8144 C   0  0  0  0  0  0  0  0  0  0  0  0
    0.4172   -3.6374   -0.2267 H   0  0  0  0  0  0  0  0  0  0  0  0
    0.3544   -4.1470    1.5111 H   0  0  0  0  0  0  0  0  0  0  0  0
   -1.4478   -1.6012    0.2670 C   0  0  0  0  0  2  0  0  0  0  0  0
   -3.1832   -2.3944    1.5179 C   0  0  0  0  0  0  0  0  0  0  0  0
   -4.1956   -2.3883    1.9315 H   0  0  0  0  0  0  0  0  0  0  0  0
   -2.1408   -3.2626    1.6916 C   0  0  0  0  0  0  0  0  0  0  0  0
   -2.0581   -4.1854    2.2735 H   0  0  0  0  0  0  0  0  0  0  0  0
    2.9869    0.7763    0.4990 C   0  0  0  0  0  0  0  0  0  0  0  0
    4.2333    0.6383   -0.1605 C   0  0  0  0  0  0  0  0  0  0  0  0
    4.9134    1.8163   -0.5144 C   0  0  0  0  0  0  0  0  0  0  0  0
    5.8799    1.7414   -1.0353 H   0  0  0  0  0  0  0  0  0  0  0  0
    4.3698    3.0767   -0.2412 C   0  0  0  0  0  0  0  0  0  0  0  0
    4.9167    3.9868   -0.5308 H   0  0  0  0  0  0  0  0  0  0  0  0
    3.1206    3.1785    0.3785 C   0  0  0  0  0  0  0  0  0  0  0  0
    2.6841    4.1713    0.5643 H   0  0  0  0  0  0  0  0  0  0  0  0
    2.3983    2.0326    0.7608 C   0  0  0  0  0  0  0  0  0  0  0  0
    4.8185   -0.7142   -0.5527 C   0  0  0  0  0  0  0  0  0  0  0  0
    4.1026   -1.5015   -0.2427 H   0  0  0  0  0  0  0  0  0  0  0  0
    4.9581   -0.8274   -2.0810 C   0  0  0  0  0  0  0  0  0  0  0  0
    3.9801   -0.6377   -2.5661 H   0  0  0  0  0  0  0  0  0  0  0  0
    5.3093   -1.8420   -2.3612 H   0  0  0  0  0  0  0  0  0  0  0  0
    5.6943   -0.0977   -2.4768 H   0  0  0  0  0  0  0  0  0  0  0  0
    6.1504   -0.9886    0.1655 C   0  0  0  0  0  0  0  0  0  0  0  0
    6.0404   -0.9554    1.2691 H   0  0  0  0  0  0  0  0  0  0  0  0
    6.9195   -0.2386   -0.1126 H   0  0  0  0  0  0  0  0  0  0  0  0
    6.5454   -1.9881   -0.1094 H   0  0  0  0  0  0  0  0  0  0  0  0
    1.0177    2.1863    1.3777 C   0  0  0  0  0  0  0  0  0  0  0  0
    0.6228    1.1672    1.5634 H   0  0  0  0  0  0  0  0  0  0  0  0
    1.0711    2.9175    2.7285 C   0  0  0  0  0  0  0  0  0  0  0  0
    0.0585    2.9824    3.1772 H   0  0  0  0  0  0  0  0  0  0  0  0
    1.4496    3.9542    2.6131 H   0  0  0  0  0  0  0  0  0  0  0  0
    1.7343    2.3972    3.4494 H   0  0  0  0  0  0  0  0  0  0  0  0
    0.0630    2.8704    0.3827 C   0  0  0  0  0  0  0  0  0  0  0  0
    0.0529    2.3281   -0.5835 H   0  0  0  0  0  0  0  0  0  0  0  0
    0.3731    3.9177    0.1876 H   0  0  0  0  0  0  0  0  0  0  0  0
   -0.9722    2.8950    0.7782 H   0  0  0  0  0  0  0  0  0  0  0  0
   -3.5471   -0.2182    0.3921 C   0  0  0  0  0  0  0  0  0  0  0  0
   -4.5584   -0.2684   -0.5893 C   0  0  0  0  0  0  0  0  0  0  0  0
   -5.3203    0.8961   -0.7842 C   0  0  0  0  0  0  0  0  0  0  0  0
   -6.1041    0.8859   -1.5583 H   0  0  0  0  0  0  0  0  0  0  0  0
   -5.1005    2.0706   -0.0411 C   0  0  0  0  0  0  0  0  0  0  0  0
   -4.1100    2.0549    0.9580 C   0  0  0  0  0  0  0  0  0  0  0  0
   -3.9438    2.9543    1.5725 H   0  0  0  0  0  0  0  0  0  0  0  0
   -3.3279    0.9138    1.2038 C   0  0  0  0  0  0  0  0  0  0  0  0
   -4.7769   -1.4987   -1.4245 C   0  0  0  0  0  0  0  0  0  0  0  0
   -3.8975   -1.6242   -2.0937 H   0  0  0  0  0  0  0  0  0  0  0  0
   -5.6875   -1.4027   -2.0449 H   0  0  0  0  0  0  0  0  0  0  0  0
   -4.8690   -2.4171   -0.8094 H   0  0  0  0  0  0  0  0  0  0  0  0
   -5.8915    3.3217   -0.3267 C   0  0  0  0  0  0  0  0  0  0  0  0
   -5.4151    3.9061   -1.1430 H   0  0  0  0  0  0  0  0  0  0  0  0
   -5.9491    3.9835    0.5597 H   0  0  0  0  0  0  0  0  0  0  0  0
   -6.9236    3.0879   -0.6552 H   0  0  0  0  0  0  0  0  0  0  0  0
   -2.3112    0.8774    2.3143 C   0  0  0  0  0  0  0  0  0  0  0  0
   -2.5676    0.1064    3.0718 H   0  0  0  0  0  0  0  0  0  0  0  0
   -2.2483    1.8531    2.8309 H   0  0  0  0  0  0  0  0  0  0  0  0
   -1.3033    0.6237    1.9292 H   0  0  0  0  0  0  0  0  0  0  0  0
  1  6  1  0  0  0  0
  2  8  1  0  0  0  0
  3 16  1  0  0  0  0
  4 14  1  0  0  0  0
  5  1  1  0  0  0  0
  5  2  1  0  0  0  0
  6  8  2  0  0  0  0
  6  7  1  0  0  0  0
  8  9  1  0  0  0  0
 10  3  1  0  0  0  0
 10  2  1  0  0  0  0
 10 12  1  0  0  0  0
 11 10  1  0  0  0  0
 13  4  1  0  0  0  0
 13  3  1  0  0  0  0
 14 16  2  0  0  0  0
 14 15  1  0  0  0  0
 16 17  1  0  0  0  0
 18 26  1  0  0  0  0
 18  1  1  0  0  0  0
 19 18  2  0  0  0  0
 20 22  2  0  0  0  0
 20 19  1  0  0  0  0
 21 20  1  0  0  0  0
 22 24  1  0  0  0  0
 23 22  1  0  0  0  0
 24 25  1  0  0  0  0
 24 26  2  0  0  0  0
 26 37  1  0  0  0  0
 27 28  1  0  0  0  0
 27 19  1  0  0  0  0
 27 33  1  0  0  0  0
 29 27  1  0  0  0  0
 30 29  1  0  0  0  0
 31 29  1  0  0  0  0
 32 29  1  0  0  0  0
 33 34  1  0  0  0  0
 35 33  1  0  0  0  0
 36 33  1  0  0  0  0
 37 38  1  0  0  0  0
 37 39  1  0  0  0  0
 39 40  1  0  0  0  0
 39 42  1  0  0  0  0
 41 39  1  0  0  0  0
 43 46  1  0  0  0  0
 43 37  1  0  0  0  0
 44 43  1  0  0  0  0
 45 43  1  0  0  0  0
 47  4  1  0  0  0  0
 47 54  1  0  0  0  0
 48 47  2  0  0  0  0
 49 48  1  0  0  0  0
 49 51  2  0  0  0  0
 50 49  1  0  0  0  0
 51 52  1  0  0  0  0
 52 54  2  0  0  0  0
 52 53  1  0  0  0  0
 54 63  1  0  0  0  0
 55 58  1  0  0  0  0
 55 48  1  0  0  0  0
 56 55  1  0  0  0  0
 57 55  1  0  0  0  0
 59 51  1  0  0  0  0
 59 61  1  0  0  0  0
 60 59  1  0  0  0  0
 62 59  1  0  0  0  0
 63 65  1  0  0  0  0
 63 64  1  0  0  0  0
 66 63  1  0  0  0  0
M  END
