2,12
 OpenBabel05122313053D

 31 31  0  0  1  0  0  0  0  0999 V2000
    0.9627    1.0591    0.0956 C   0  0  2  0  0  3  0  0  0  0  0  0
    0.5160    0.9146   -1.2476 C   0  0  0  0  0  3  0  0  0  0  0  0
    1.0904    0.2297   -1.8933 H   0  0  0  0  0  0  0  0  0  0  0  0
   -0.3712    1.8909   -1.9950 C   0  0  0  0  0  0  0  0  0  0  0  0
   -0.7263    1.3722   -2.9075 H   0  0  0  0  0  0  0  0  0  0  0  0
    0.2409    2.7510   -2.3503 H   0  0  0  0  0  0  0  0  0  0  0  0
   -1.5918    2.3811   -1.1831 C   0  0  0  0  0  0  0  0  0  0  0  0
   -1.3526    3.3062   -0.6228 H   0  0  0  0  0  0  0  0  0  0  0  0
   -2.4048    2.6509   -1.8847 H   0  0  0  0  0  0  0  0  0  0  0  0
   -2.1133    1.3232   -0.2183 C   0  0  0  0  0  3  0  0  0  0  0  0
   -3.0752    0.8512   -0.4812 H   0  0  0  0  0  0  0  0  0  0  0  0
   -1.7100    1.1791    1.1352 C   0  0  0  0  0  3  0  0  0  0  0  0
   -2.4091    0.6306    1.7900 H   0  0  0  0  0  0  0  0  0  0  0  0
   -0.6458    1.9834    1.8406 C   0  0  0  0  0  0  0  0  0  0  0  0
   -0.3144    1.4014    2.7236 H   0  0  0  0  0  0  0  0  0  0  0  0
   -1.0860    2.9294    2.2305 H   0  0  0  0  0  0  0  0  0  0  0  0
    0.5816    2.2623    0.9583 C   0  0  0  0  0  0  0  0  0  0  0  0
    0.4237    3.1422    0.3059 H   0  0  0  0  0  0  0  0  0  0  0  0
    1.4398    2.4947    1.6159 H   0  0  0  0  0  0  0  0  0  0  0  0
    2.1502    0.2757    0.6640 C   0  0  0  0  0  0  0  0  0  0  0  0
    2.2878    0.2490    1.8803 O   0  0  0  0  0  0  0  0  0  0  0  0
    3.1971   -0.2984   -0.2852 C   0  0  0  0  0  0  0  0  0  0  0  0
    2.6672   -0.7567   -1.1442 H   0  0  0  0  0  0  0  0  0  0  0  0
    4.0540    0.8774   -0.7997 C   0  0  0  0  0  0  0  0  0  0  0  0
    4.8061    0.5105   -1.5264 H   0  0  0  0  0  0  0  0  0  0  0  0
    3.4429    1.6516   -1.3083 H   0  0  0  0  0  0  0  0  0  0  0  0
    4.5969    1.3646    0.0362 H   0  0  0  0  0  0  0  0  0  0  0  0
    4.0299   -1.3738    0.4086 C   0  0  0  0  0  0  0  0  0  0  0  0
    4.8300   -1.7419   -0.2637 H   0  0  0  0  0  0  0  0  0  0  0  0
    4.4942   -0.9754    1.3320 H   0  0  0  0  0  0  0  0  0  0  0  0
    3.3874   -2.2297    0.6925 H   0  0  0  0  0  0  0  0  0  0  0  0
  1 20  1  6  0  0  0
  1 17  1  0  0  0  0
  2  1  1  0  0  0  0
  3  2  1  0  0  0  0
  4  2  1  0  0  0  0
  4  7  1  0  0  0  0
  5  4  1  0  0  0  0
  6  4  1  0  0  0  0
  7  8  1  0  0  0  0
  7 10  1  0  0  0  0
  9  7  1  0  0  0  0
 10 12  1  0  0  0  0
 11 10  1  0  0  0  0
 12 13  1  0  0  0  0
 12 14  1  0  0  0  0
 14 16  1  0  0  0  0
 14 15  1  0  0  0  0
 17 19  1  0  0  0  0
 17 14  1  0  0  0  0
 18 17  1  0  0  0  0
 20 21  2  0  0  0  0
 22 28  1  0  0  0  0
 22 20  1  0  0  0  0
 23 22  1  0  0  0  0
 24 22  1  0  0  0  0
 24 27  1  0  0  0  0
 25 24  1  0  0  0  0
 26 24  1  0  0  0  0
 28 31  1  0  0  0  0
 28 30  1  0  0  0  0
 29 28  1  0  0  0  0
M  END
