4,7
 OpenBabel05122313053D

 32 32  0  0  0  0  0  0  0  0999 V2000
   -1.9824    0.1756   -0.7553 P   0  0  0  0  0  0  0  0  0  0  0  0
   -0.5161   -0.6333    0.0477 C   0  0  0  0  0  0  0  0  0  0  0  0
   -0.0636   -0.4144    1.3779 C   0  0  0  0  0  0  0  0  0  0  0  0
    1.0790   -1.1075    1.8926 C   0  0  0  0  0  3  0  0  0  0  0  0
    1.7774   -2.0300    1.0788 C   0  0  0  0  0  0  0  0  0  0  0  0
    1.3395   -2.2615   -0.2640 C   0  0  0  0  0  0  0  0  0  0  0  0
    0.2199   -1.5633   -0.7731 C   0  0  0  0  0  3  0  0  0  0  0  0
   -2.3542    1.6379    0.3754 C   0  0  0  0  0  0  0  0  0  0  0  0
   -1.2930    2.7277    0.1741 C   0  0  0  0  0  0  0  0  0  0  0  0
   -3.7594    2.1666    0.0531 C   0  0  0  0  0  0  0  0  0  0  0  0
   -3.3160   -1.0843   -0.2451 C   0  0  0  0  0  0  0  0  0  0  0  0
   -3.1109   -2.3911   -1.0219 C   0  0  0  0  0  0  0  0  0  0  0  0
   -3.4651   -1.3337    1.2565 C   0  0  0  0  0  0  0  0  0  0  0  0
   -0.5674    0.3255    2.0148 H   0  0  0  0  0  0  0  0  0  0  0  0
    1.4396   -0.8854    2.9067 H   0  0  0  0  0  0  0  0  0  0  0  0
    2.6809   -2.5269    1.4578 H   0  0  0  0  0  0  0  0  0  0  0  0
    1.9087   -2.9356   -0.9190 H   0  0  0  0  0  0  0  0  0  0  0  0
   -0.0751   -1.6934   -1.8243 H   0  0  0  0  0  0  0  0  0  0  0  0
   -2.3405    1.3044    1.4367 H   0  0  0  0  0  0  0  0  0  0  0  0
   -1.2439    3.0440   -0.8882 H   0  0  0  0  0  0  0  0  0  0  0  0
   -1.5383    3.6212    0.7854 H   0  0  0  0  0  0  0  0  0  0  0  0
   -0.2818    2.3846    0.4620 H   0  0  0  0  0  0  0  0  0  0  0  0
   -4.5583    1.4392    0.2997 H   0  0  0  0  0  0  0  0  0  0  0  0
   -3.9608    3.0904    0.6342 H   0  0  0  0  0  0  0  0  0  0  0  0
   -3.8521    2.4240   -1.0231 H   0  0  0  0  0  0  0  0  0  0  0  0
   -4.2451   -0.6058   -0.6277 H   0  0  0  0  0  0  0  0  0  0  0  0
   -2.9971   -2.2111   -2.1101 H   0  0  0  0  0  0  0  0  0  0  0  0
   -2.2092   -2.9337   -0.6690 H   0  0  0  0  0  0  0  0  0  0  0  0
   -3.9777   -3.0692   -0.8762 H   0  0  0  0  0  0  0  0  0  0  0  0
   -2.5403   -1.7733    1.6844 H   0  0  0  0  0  0  0  0  0  0  0  0
   -3.6952   -0.4082    1.8208 H   0  0  0  0  0  0  0  0  0  0  0  0
   -4.2909   -2.0510    1.4510 H   0  0  0  0  0  0  0  0  0  0  0  0
  1 11  1  0  0  0  0
  1  2  1  0  0  0  0
  1  8  1  0  0  0  0
  2  3  2  0  0  0  0
  3  4  1  0  0  0  0
  3 14  1  0  0  0  0
  4 15  1  0  0  0  0
  5 16  1  0  0  0  0
  5  4  1  0  0  0  0
  6  5  2  0  0  0  0
  7  6  1  0  0  0  0
  7  2  1  0  0  0  0
  8 19  1  0  0  0  0
  9  8  1  0  0  0  0
  9 22  1  0  0  0  0
  9 21  1  0  0  0  0
 10 23  1  0  0  0  0
 10  8  1  0  0  0  0
 10 24  1  0  0  0  0
 11 13  1  0  0  0  0
 12 29  1  0  0  0  0
 12 28  1  0  0  0  0
 12 11  1  0  0  0  0
 13 32  1  0  0  0  0
 13 30  1  0  0  0  0
 13 31  1  0  0  0  0
 17  6  1  0  0  0  0
 18  7  1  0  0  0  0
 20  9  1  0  0  0  0
 25 10  1  0  0  0  0
 26 11  1  0  0  0  0
 27 12  1  0  0  0  0
M  END
