2,13
 OpenBabel05122313053D

 58 63  0  0  1  0  0  0  0  0999 V2000
   -0.9555   -1.1970   -1.1066 C   0  0  2  0  0  3  0  0  0  0  0  0
    0.2114   -1.4567   -1.9000 C   0  0  0  0  0  3  0  0  0  0  0  0
    0.4047   -1.0693   -2.9064 H   0  0  0  0  0  0  0  0  0  0  0  0
    1.1009   -2.2992   -1.1696 C   0  0  1  0  0  3  0  0  0  0  0  0
    0.4934   -2.5788    0.0928 C   0  0  0  0  0  0  0  0  0  0  0  0
   -0.7366   -1.8594    0.1587 C   0  0  0  0  0  0  0  0  0  0  0  0
   -1.4462   -1.9079    0.9907 H   0  0  0  0  0  0  0  0  0  0  0  0
   -0.9548    1.1971    1.1065 C   0  0  0  0  0  0  0  0  0  0  0  0
   -0.7358    1.8593   -0.1589 C   0  0  0  0  0  0  0  0  0  0  0  0
   -1.4456    1.9080   -0.9908 H   0  0  0  0  0  0  0  0  0  0  0  0
    0.4943    2.5786   -0.0931 C   0  0  0  0  0  0  0  0  0  0  0  0
    1.1018    2.2990    1.1693 C   0  0  0  0  0  0  0  0  0  0  0  0
    0.2121    1.4567    1.8999 C   0  0  0  0  0  3  0  0  0  0  0  0
    0.4054    1.0694    2.9063 H   0  0  0  0  0  0  0  0  0  0  0  0
    2.3998   -2.9119   -1.6129 C   0  0  0  0  0  0  0  0  0  0  0  0
    3.0453   -2.1396   -2.0806 H   0  0  0  0  0  0  0  0  0  0  0  0
    2.1752   -3.6552   -2.4114 H   0  0  0  0  0  0  0  0  0  0  0  0
    3.1161   -3.6035   -0.4413 C   0  0  0  0  0  0  0  0  0  0  0  0
    3.5869   -2.8331    0.2055 H   0  0  0  0  0  0  0  0  0  0  0  0
    3.9344   -4.2427   -0.8304 H   0  0  0  0  0  0  0  0  0  0  0  0
    2.1405   -4.4374    0.4031 C   0  0  0  0  0  0  0  0  0  0  0  0
    2.6914   -5.0081    1.1781 H   0  0  0  0  0  0  0  0  0  0  0  0
    1.6437   -5.1907   -0.2489 H   0  0  0  0  0  0  0  0  0  0  0  0
    1.0733   -3.5552    1.0777 C   0  0  0  0  0  0  0  0  0  0  0  0
    0.2574   -4.1743    1.5060 H   0  0  0  0  0  0  0  0  0  0  0  0
    1.5328   -3.0032    1.9255 H   0  0  0  0  0  0  0  0  0  0  0  0
    1.0744    3.5549   -1.0780 C   0  0  0  0  0  0  0  0  0  0  0  0
    0.2586    4.1739   -1.5066 H   0  0  0  0  0  0  0  0  0  0  0  0
    1.5340    3.0027   -1.9257 H   0  0  0  0  0  0  0  0  0  0  0  0
    2.1415    4.4371   -0.4034 C   0  0  0  0  0  0  0  0  0  0  0  0
    1.6446    5.1904    0.2486 H   0  0  0  0  0  0  0  0  0  0  0  0
    2.6924    5.0078   -1.1784 H   0  0  0  0  0  0  0  0  0  0  0  0
    3.1171    3.6032    0.4412 C   0  0  0  0  0  0  0  0  0  0  0  0
    3.9352    4.2426    0.8304 H   0  0  0  0  0  0  0  0  0  0  0  0
    3.5880    2.8330   -0.2056 H   0  0  0  0  0  0  0  0  0  0  0  0
    2.4007    2.9116    1.6126 C   0  0  0  0  0  0  0  0  0  0  0  0
    3.0461    2.1391    2.0802 H   0  0  0  0  0  0  0  0  0  0  0  0
    2.1761    3.6548    2.4113 H   0  0  0  0  0  0  0  0  0  0  0  0
   -2.1521    0.4775    1.5943 C   0  0  0  0  0  0  0  0  0  0  0  0
   -3.1608   -0.0631    0.7439 C   0  0  0  0  0  0  0  0  0  0  0  0
   -4.2585   -0.7361    1.3230 C   0  0  0  0  0  0  0  0  0  0  0  0
   -5.0223   -1.1555    0.6509 H   0  0  0  0  0  0  0  0  0  0  0  0
   -4.3818   -0.9001    2.7084 C   0  0  0  0  0  0  0  0  0  0  0  0
   -5.2455   -1.4381    3.1268 H   0  0  0  0  0  0  0  0  0  0  0  0
   -3.3941   -0.3665    3.5478 C   0  0  0  0  0  0  0  0  0  0  0  0
   -3.4725   -0.4703    4.6405 H   0  0  0  0  0  0  0  0  0  0  0  0
   -2.3060    0.3149    2.9916 C   0  0  0  0  0  0  0  0  0  0  0  0
   -1.5560    0.7546    3.6632 H   0  0  0  0  0  0  0  0  0  0  0  0
   -3.1609    0.0641   -0.7437 C   0  0  0  0  0  0  0  0  0  0  0  0
   -2.1527   -0.4771   -1.5942 C   0  0  0  0  0  0  0  0  0  0  0  0
   -2.3069   -0.3147   -2.9915 C   0  0  0  0  0  0  0  0  0  0  0  0
   -1.5572   -0.7550   -3.6632 H   0  0  0  0  0  0  0  0  0  0  0  0
   -3.3948    0.3671   -3.5476 C   0  0  0  0  0  0  0  0  0  0  0  0
   -3.4734    0.4706   -4.6403 H   0  0  0  0  0  0  0  0  0  0  0  0
   -4.3820    0.9014   -2.7080 C   0  0  0  0  0  0  0  0  0  0  0  0
   -5.2455    1.4396   -3.1263 H   0  0  0  0  0  0  0  0  0  0  0  0
   -4.2584    0.7375   -1.3226 C   0  0  0  0  0  0  0  0  0  0  0  0
   -5.0219    1.1574   -0.6504 H   0  0  0  0  0  0  0  0  0  0  0  0
  1 50  1  6  0  0  0
  1  6  1  0  0  0  0
  2  1  1  0  0  0  0
  3  2  1  0  0  0  0
  4  2  1  6  0  0  0
  4  5  1  0  0  0  0
  5  6  2  0  0  0  0
  5 24  1  0  0  0  0
  6  7  1  0  0  0  0
  8 39  1  0  0  0  0
  8 13  1  0  0  0  0
  9 11  1  0  0  0  0
  9  8  2  0  0  0  0
 10  9  1  0  0  0  0
 11 12  2  0  0  0  0
 12 36  1  0  0  0  0
 12 13  1  0  0  0  0
 13 14  1  0  0  0  0
 15  4  1  0  0  0  0
 15 18  1  0  0  0  0
 16 15  1  0  0  0  0
 17 15  1  0  0  0  0
 18 19  1  0  0  0  0
 18 21  1  0  0  0  0
 20 18  1  0  0  0  0
 21 24  1  0  0  0  0
 21 22  1  0  0  0  0
 23 21  1  0  0  0  0
 24 25  1  0  0  0  0
 24 26  1  0  0  0  0
 27 30  1  0  0  0  0
 27 11  1  0  0  0  0
 28 27  1  0  0  0  0
 29 27  1  0  0  0  0
 30 31  1  0  0  0  0
 30 33  1  0  0  0  0
 32 30  1  0  0  0  0
 33 34  1  0  0  0  0
 33 36  1  0  0  0  0
 35 33  1  0  0  0  0
 36 37  1  0  0  0  0
 36 38  1  0  0  0  0
 39 47  1  0  0  0  0
 40 41  1  0  0  0  0
 40 39  2  0  0  0  0
 41 43  2  0  0  0  0
 42 41  1  0  0  0  0
 43 44  1  0  0  0  0
 43 45  1  0  0  0  0
 45 46  1  0  0  0  0
 47 45  2  0  0  0  0
 47 48  1  0  0  0  0
 49 40  1  0  0  0  0
 50 49  2  0  0  0  0
 51 50  1  0  0  0  0
 52 51  1  0  0  0  0
 53 51  2  0  0  0  0
 53 55  1  0  0  0  0
 54 53  1  0  0  0  0
 55 57  2  0  0  0  0
 56 55  1  0  0  0  0
 57 49  1  0  0  0  0
 57 58  1  0  0  0  0
M  END
