4,12
 OpenBabel05122313053D

 21 22  0  0  1  0  0  0  0  0999 V2000
   -1.5414   -1.3990    0.0142 O   0  0  0  0  0  0  0  0  0  0  0  0
   -2.2343   -0.7729   -1.1689 C   0  0  2  0  0  0  0  0  0  0  0  0
   -2.0018   -1.4424   -2.0169 H   0  0  0  0  0  0  0  0  0  0  0  0
   -1.5228    0.5840   -1.3092 C   0  0  0  0  0  3  0  0  0  0  0  0
   -1.1788    0.7308   -2.3547 H   0  0  0  0  0  0  0  0  0  0  0  0
   -2.2834    1.8096   -0.7936 C   0  0  0  0  0  0  0  0  0  0  0  0
   -1.8048    2.7256   -1.1964 H   0  0  0  0  0  0  0  0  0  0  0  0
   -3.3171    1.8472   -1.2032 H   0  0  0  0  0  0  0  0  0  0  0  0
   -2.2795    1.8295    0.7526 C   0  0  0  0  0  0  0  0  0  0  0  0
   -1.7925    2.7513    1.1253 H   0  0  0  0  0  0  0  0  0  0  0  0
   -3.3117    1.8811    1.1642 H   0  0  0  0  0  0  0  0  0  0  0  0
   -1.5235    0.6124    1.2965 C   0  0  0  0  0  3  0  0  0  0  0  0
   -1.1821    0.7828    2.3401 H   0  0  0  0  0  0  0  0  0  0  0  0
   -2.2354   -0.7469    1.1838 C   0  0  1  0  0  0  0  0  0  0  0  0
   -2.0033   -1.4015    2.0432 H   0  0  0  0  0  0  0  0  0  0  0  0
   -3.7135   -0.8106    0.7840 C   0  0  0  0  0  0  0  0  0  0  0  0
   -4.2775    0.0436    1.2015 H   0  0  0  0  0  0  0  0  0  0  0  0
   -4.1751   -1.7329    1.1841 H   0  0  0  0  0  0  0  0  0  0  0  0
   -3.7127   -0.8303   -0.7695 C   0  0  0  0  0  0  0  0  0  0  0  0
   -4.2790    0.0108   -1.2095 H   0  0  0  0  0  0  0  0  0  0  0  0
   -4.1706   -1.7641   -1.1465 H   0  0  0  0  0  0  0  0  0  0  0  0
  1 14  1  0  0  0  0
  2  3  1  6  0  0  0
  2 19  1  0  0  0  0
  2  1  1  0  0  0  0
  4  2  1  0  0  0  0
  4  6  1  0  0  0  0
  5  4  1  0  0  0  0
  6  9  1  0  0  0  0
  7  6  1  0  0  0  0
  8  6  1  0  0  0  0
  9 10  1  0  0  0  0
  9 11  1  0  0  0  0
  9 12  1  0  0  0  0
 12 13  1  0  0  0  0
 14 12  1  0  0  0  0
 14 15  1  1  0  0  0
 16 14  1  0  0  0  0
 16 18  1  0  0  0  0
 16 17  1  0  0  0  0
 19 16  1  0  0  0  0
 20 19  1  0  0  0  0
 21 19  1  0  0  0  0
M  END
