43,58
 OpenBabel05122313053D

 62 69  0  0  1  0  0  0  0  0999 V2000
    0.3047   -0.1350    1.7025 N   0  0  0  0  0  0  0  0  0  0  0  0
   -1.5711   -0.8523    2.5848 N   0  0  0  0  0  0  0  0  0  0  0  0
    0.6001   -1.1403   -1.1847 N   0  0  0  0  0  0  0  0  0  0  0  0
   -0.7364   -2.8681   -1.3816 N   0  0  0  0  0  0  0  0  0  0  0  0
    1.4347    2.6688    0.3556 C   0  0  0  0  0  0  0  0  0  0  0  0
    0.9288    3.8135    0.9817 C   0  0  0  0  0  0  0  0  0  0  0  0
    1.0119    3.9311    2.0733 H   0  0  0  0  0  0  0  0  0  0  0  0
    0.3317    4.8214    0.2001 C   0  0  0  0  0  0  0  0  0  0  0  0
   -0.0580    5.7290    0.6843 H   0  0  0  0  0  0  0  0  0  0  0  0
    0.2530    4.6837   -1.1945 C   0  0  0  0  0  0  0  0  0  0  0  0
   -0.1914    5.4874   -1.8007 H   0  0  0  0  0  0  0  0  0  0  0  0
    0.7476    3.5255   -1.8257 C   0  0  0  0  0  0  0  0  0  0  0  0
    0.6889    3.4189   -2.9199 H   0  0  0  0  0  0  0  0  0  0  0  0
    1.3277    2.5190   -1.0476 C   0  0  0  0  0  0  0  0  0  0  0  0
    3.4714    1.3018    0.2852 C   0  0  0  0  0  0  0  0  0  0  0  0
    4.7551    1.2862    0.8417 C   0  0  0  0  0  0  0  0  0  0  0  0
    4.8968    1.4692    1.9184 H   0  0  0  0  0  0  0  0  0  0  0  0
    5.8647    1.0530    0.0081 C   0  0  0  0  0  0  0  0  0  0  0  0
    6.8780    1.0493    0.4363 H   0  0  0  0  0  0  0  0  0  0  0  0
    5.6859    0.8385   -1.3676 C   0  0  0  0  0  0  0  0  0  0  0  0
    6.5601    0.6708   -2.0141 H   0  0  0  0  0  0  0  0  0  0  0  0
    4.3949    0.8487   -1.9276 C   0  0  0  0  0  0  0  0  0  0  0  0
    4.2554    0.6894   -3.0083 H   0  0  0  0  0  0  0  0  0  0  0  0
    3.2881    1.0683   -1.0978 C   0  0  0  0  0  0  0  0  0  0  0  0
    2.1609    1.5164    1.0292 C   0  0  2  0  0  0  0  0  0  0  0  0
    2.3102    1.6886    2.1099 H   0  0  0  0  0  0  0  0  0  0  0  0
    1.8336    1.1608   -1.5276 C   0  0  1  0  0  0  0  0  0  0  0  0
    1.6839    1.0083   -2.6122 H   0  0  0  0  0  0  0  0  0  0  0  0
    1.3910    0.1749    0.7629 C   0  0  2  0  0  0  0  0  0  0  0  0
    2.1299   -0.6455    0.8888 H   0  0  0  0  0  0  0  0  0  0  0  0
    0.9226    0.1967   -0.6966 C   0  0  2  0  0  0  0  0  0  0  0  0
   -0.0883    0.6823   -0.7052 H   0  0  0  0  0  0  0  0  0  0  0  0
    0.5967   -0.4795    3.0311 C   0  0  0  0  0  0  0  0  0  0  0  0
    1.7912   -0.4897    3.7671 C   0  0  0  0  0  0  0  0  0  0  0  0
    2.7505   -0.1812    3.3302 H   0  0  0  0  0  0  0  0  0  0  0  0
    1.7167   -0.9299    5.0980 C   0  0  0  0  0  0  0  0  0  0  0  0
    2.6323   -0.9495    5.7066 H   0  0  0  0  0  0  0  0  0  0  0  0
    0.4972   -1.3507    5.6713 C   0  0  0  0  0  0  0  0  0  0  0  0
    0.4810   -1.6835    6.7192 H   0  0  0  0  0  0  0  0  0  0  0  0
   -0.6934   -1.3624    4.9291 C   0  0  0  0  0  0  0  0  0  0  0  0
   -1.6396   -1.7031    5.3718 H   0  0  0  0  0  0  0  0  0  0  0  0
   -0.6157   -0.9242    3.6003 C   0  0  0  0  0  0  0  0  0  0  0  0
   -1.0265   -0.3710    1.4216 C   0  0  0  0  0  2  0  0  0  0  0  0
   -2.9210   -1.3726    2.7260 C   0  0  0  0  0  0  0  0  0  0  0  0
   -3.3827   -1.4043    1.7213 H   0  0  0  0  0  0  0  0  0  0  0  0
   -3.5304   -0.7360    3.3985 H   0  0  0  0  0  0  0  0  0  0  0  0
   -2.8808   -2.3978    3.1450 H   0  0  0  0  0  0  0  0  0  0  0  0
    1.4201   -2.2120   -1.5519 C   0  0  0  0  0  0  0  0  0  0  0  0
    2.8009   -2.3407   -1.7618 C   0  0  0  0  0  0  0  0  0  0  0  0
    3.4844   -1.4911   -1.6361 H   0  0  0  0  0  0  0  0  0  0  0  0
    3.2722   -3.6080   -2.1377 C   0  0  0  0  0  0  0  0  0  0  0  0
    4.3498   -3.7455   -2.3083 H   0  0  0  0  0  0  0  0  0  0  0  0
    2.4017   -4.7074   -2.3027 C   0  0  0  0  0  0  0  0  0  0  0  0
    2.8134   -5.6813   -2.6045 H   0  0  0  0  0  0  0  0  0  0  0  0
    1.0211   -4.5841   -2.0855 C   0  0  0  0  0  0  0  0  0  0  0  0
    0.3438   -5.4405   -2.2094 H   0  0  0  0  0  0  0  0  0  0  0  0
    0.5505   -3.3223   -1.7003 C   0  0  0  0  0  0  0  0  0  0  0  0
   -0.7114   -1.5465   -1.0551 C   0  0  0  0  0  2  0  0  0  0  0  0
   -1.9201   -3.7084   -1.3629 C   0  0  0  0  0  0  0  0  0  0  0  0
   -2.7531   -3.1201   -0.9377 H   0  0  0  0  0  0  0  0  0  0  0  0
   -1.7444   -4.6003   -0.7295 H   0  0  0  0  0  0  0  0  0  0  0  0
   -2.1842   -4.0425   -2.3864 H   0  0  0  0  0  0  0  0  0  0  0  0
  1 33  1  0  0  0  0
  2 44  1  0  0  0  0
  2 42  1  0  0  0  0
  3 58  1  0  0  0  0
  3 31  1  0  0  0  0
  4 59  1  0  0  0  0
  4 58  1  0  0  0  0
  5  6  1  0  0  0  0
  5 25  1  0  0  0  0
  6  7  1  0  0  0  0
  8  9  1  0  0  0  0
  8  6  2  0  0  0  0
 10  8  1  0  0  0  0
 11 10  1  0  0  0  0
 12 10  2  0  0  0  0
 12 14  1  0  0  0  0
 13 12  1  0  0  0  0
 14  5  2  0  0  0  0
 15 16  1  0  0  0  0
 15 25  1  0  0  0  0
 16 17  1  0  0  0  0
 18 19  1  0  0  0  0
 18 16  2  0  0  0  0
 20 18  1  0  0  0  0
 21 20  1  0  0  0  0
 22 20  2  0  0  0  0
 22 24  1  0  0  0  0
 23 22  1  0  0  0  0
 24 15  2  0  0  0  0
 25 26  1  1  0  0  0
 27 28  1  6  0  0  0
 27 24  1  0  0  0  0
 27 14  1  0  0  0  0
 27 31  1  0  0  0  0
 29 30  1  1  0  0  0
 29 25  1  0  0  0  0
 29  1  1  0  0  0  0
 31 32  1  1  0  0  0
 31 29  1  0  0  0  0
 33 42  2  0  0  0  0
 33 34  1  0  0  0  0
 34 36  2  0  0  0  0
 35 34  1  0  0  0  0
 36 38  1  0  0  0  0
 36 37  1  0  0  0  0
 38 39  1  0  0  0  0
 40 41  1  0  0  0  0
 40 38  2  0  0  0  0
 42 40  1  0  0  0  0
 43  1  1  0  0  0  0
 43  2  1  0  0  0  0
 44 47  1  0  0  0  0
 44 46  1  0  0  0  0
 45 44  1  0  0  0  0
 48  3  1  0  0  0  0
 49 50  1  0  0  0  0
 49 48  2  0  0  0  0
 51 49  1  0  0  0  0
 52 51  1  0  0  0  0
 53 51  2  0  0  0  0
 53 55  1  0  0  0  0
 54 53  1  0  0  0  0
 55 57  2  0  0  0  0
 56 55  1  0  0  0  0
 57 48  1  0  0  0  0
 57  4  1  0  0  0  0
 59 60  1  0  0  0  0
 59 61  1  0  0  0  0
 62 59  1  0  0  0  0
M  END
