5,13
 OpenBabel05122313053D

 59 62  0  0  1  0  0  0  0  0999 V2000
    1.0676    0.6368   -0.3819 P   0  0  2  0  0  0  0  0  0  0  0  0
   -1.8983    1.4232   -1.4712 Si  0  0  0  0  0  0  0  0  0  0  0  0
    2.1574   -1.3019    1.9765 C   0  0  0  0  0  3  0  0  0  0  0  0
    2.9659   -0.5728    2.1291 H   0  0  0  0  0  0  0  0  0  0  0  0
    2.4462   -2.6037    1.4770 C   0  0  0  0  0  3  0  0  0  0  0  0
    3.4850   -2.8554    1.2183 H   0  0  0  0  0  0  0  0  0  0  0  0
    1.4032   -3.5679    1.2351 C   0  0  0  0  0  0  0  0  0  0  0  0
    1.6438   -4.5470    0.8007 H   0  0  0  0  0  0  0  0  0  0  0  0
    0.0563   -3.1687    1.4190 C   0  0  0  0  0  0  0  0  0  0  0  0
   -0.7573   -3.8407    1.1086 H   0  0  0  0  0  0  0  0  0  0  0  0
   -0.2789   -1.8489    1.8743 C   0  0  0  0  0  3  0  0  0  0  0  0
   -1.3292   -1.5352    1.9437 H   0  0  0  0  0  0  0  0  0  0  0  0
    0.7703   -0.8921    2.1021 C   0  0  2  0  0  3  0  0  0  0  0  0
    0.4401    0.5531    2.3165 C   0  0  0  0  0  0  0  0  0  0  0  0
    0.0066    1.0560    3.5557 C   0  0  0  0  0  0  0  0  0  0  0  0
   -0.0909    0.3756    4.4152 H   0  0  0  0  0  0  0  0  0  0  0  0
   -0.3074    2.4178    3.6878 C   0  0  0  0  0  0  0  0  0  0  0  0
   -0.6573    2.8055    4.6563 H   0  0  0  0  0  0  0  0  0  0  0  0
   -0.1749    3.2860    2.5909 C   0  0  0  0  0  0  0  0  0  0  0  0
   -0.4182    4.3535    2.7006 H   0  0  0  0  0  0  0  0  0  0  0  0
    0.2642    2.7925    1.3531 C   0  0  0  0  0  0  0  0  0  0  0  0
    0.3720    3.4713    0.4936 H   0  0  0  0  0  0  0  0  0  0  0  0
    0.5570    1.4250    1.2083 C   0  0  0  0  0  0  0  0  0  0  0  0
    2.7282    1.3579   -0.6908 C   0  0  0  0  0  0  0  0  0  0  0  0
    3.4903    1.9110    0.3582 C   0  0  0  0  0  0  0  0  0  0  0  0
    3.0710    1.9686    1.3741 H   0  0  0  0  0  0  0  0  0  0  0  0
    4.7792    2.4073    0.1099 C   0  0  0  0  0  0  0  0  0  0  0  0
    5.3633    2.8441    0.9343 H   0  0  0  0  0  0  0  0  0  0  0  0
    5.3173    2.3524   -1.1851 C   0  0  0  0  0  0  0  0  0  0  0  0
    6.3280    2.7423   -1.3795 H   0  0  0  0  0  0  0  0  0  0  0  0
    4.5635    1.7973   -2.2315 C   0  0  0  0  0  0  0  0  0  0  0  0
    4.9843    1.7432   -3.2469 H   0  0  0  0  0  0  0  0  0  0  0  0
    3.2770    1.2961   -1.9894 C   0  0  0  0  0  0  0  0  0  0  0  0
    2.7038    0.8380   -2.8071 H   0  0  0  0  0  0  0  0  0  0  0  0
    0.0107    1.2903   -1.7248 C   0  0  0  0  0  0  0  0  0  0  0  0
    0.1656    0.5707   -2.5568 H   0  0  0  0  0  0  0  0  0  0  0  0
    0.4163    2.2757   -2.0347 H   0  0  0  0  0  0  0  0  0  0  0  0
   -2.3493    3.2592   -1.3296 C   0  0  0  0  0  0  0  0  0  0  0  0
   -2.0280    3.8290   -2.2258 H   0  0  0  0  0  0  0  0  0  0  0  0
   -1.8940    3.7308   -0.4353 H   0  0  0  0  0  0  0  0  0  0  0  0
   -3.4506    3.3638   -1.2405 H   0  0  0  0  0  0  0  0  0  0  0  0
   -2.7167    0.6968   -3.0033 C   0  0  0  0  0  0  0  0  0  0  0  0
   -3.8208    0.7505   -2.9220 H   0  0  0  0  0  0  0  0  0  0  0  0
   -2.4223   -0.3651   -3.1176 H   0  0  0  0  0  0  0  0  0  0  0  0
   -2.4048    1.2504   -3.9128 H   0  0  0  0  0  0  0  0  0  0  0  0
   -2.4752    0.5354    0.1195 C   0  0  0  0  0  0  0  0  0  0  0  0
   -1.8592   -0.3827    0.1795 H   0  0  0  0  0  0  0  0  0  0  0  0
   -2.2433    1.1834    0.9890 H   0  0  0  0  0  0  0  0  0  0  0  0
   -3.9357    0.1865    0.0648 C   0  0  0  0  0  0  0  0  0  0  0  0
   -4.9269    1.0899    0.5060 C   0  0  0  0  0  0  0  0  0  0  0  0
   -4.6195    2.0548    0.9412 H   0  0  0  0  0  0  0  0  0  0  0  0
   -6.2902    0.7734    0.4044 C   0  0  0  0  0  0  0  0  0  0  0  0
   -7.0456    1.4922    0.7585 H   0  0  0  0  0  0  0  0  0  0  0  0
   -6.6915   -0.4557   -0.1425 C   0  0  0  0  0  0  0  0  0  0  0  0
   -7.7605   -0.7056   -0.2219 H   0  0  0  0  0  0  0  0  0  0  0  0
   -5.7155   -1.3647   -0.5839 C   0  0  0  0  0  0  0  0  0  0  0  0
   -6.0184   -2.3330   -1.0118 H   0  0  0  0  0  0  0  0  0  0  0  0
   -4.3534   -1.0479   -0.4830 C   0  0  0  0  0  0  0  0  0  0  0  0
   -3.5858   -1.7564   -0.8342 H   0  0  0  0  0  0  0  0  0  0  0  0
  1 35  1  6  0  0  0
  1 23  1  0  0  0  0
  2 38  1  0  0  0  0
  2 46  1  0  0  0  0
  3 13  1  0  0  0  0
  3  4  1  0  0  0  0
  5  3  1  0  0  0  0
  6  5  1  0  0  0  0
  7  9  2  0  0  0  0
  7  5  1  0  0  0  0
  8  7  1  0  0  0  0
  9 11  1  0  0  0  0
 10  9  1  0  0  0  0
 11 12  1  0  0  0  0
 11 13  1  0  0  0  0
 13 14  1  6  0  0  0
 14 15  1  0  0  0  0
 15 17  2  0  0  0  0
 15 16  1  0  0  0  0
 17 18  1  0  0  0  0
 19 20  1  0  0  0  0
 19 17  1  0  0  0  0
 21 19  2  0  0  0  0
 22 21  1  0  0  0  0
 23 21  1  0  0  0  0
 23 14  2  0  0  0  0
 24  1  1  0  0  0  0
 24 25  1  0  0  0  0
 25 26  1  0  0  0  0
 27 25  2  0  0  0  0
 27 28  1  0  0  0  0
 29 27  1  0  0  0  0
 30 29  1  0  0  0  0
 31 33  1  0  0  0  0
 31 29  2  0  0  0  0
 32 31  1  0  0  0  0
 33 24  2  0  0  0  0
 34 33  1  0  0  0  0
 35  2  1  0  0  0  0
 36 35  1  0  0  0  0
 37 35  1  0  0  0  0
 38 41  1  0  0  0  0
 38 40  1  0  0  0  0
 39 38  1  0  0  0  0
 42 43  1  0  0  0  0
 42  2  1  0  0  0  0
 44 42  1  0  0  0  0
 45 42  1  0  0  0  0
 46 47  1  0  0  0  0
 46 48  1  0  0  0  0
 49 46  1  0  0  0  0
 49 50  1  0  0  0  0
 50 51  1  0  0  0  0
 52 50  2  0  0  0  0
 52 53  1  0  0  0  0
 54 52  1  0  0  0  0
 55 54  1  0  0  0  0
 56 58  1  0  0  0  0
 56 54  2  0  0  0  0
 57 56  1  0  0  0  0
 58 49  2  0  0  0  0
 59 58  1  0  0  0  0
M  END
