3,11
 OpenBabel05122313053D

 61 65  0  0  1  0  0  0  0  0999 V2000
   -0.4444    0.2506    0.8270 P   0  0  1  0  0  0  0  0  0  0  0  0
   -0.6720   -2.9146    1.3795 Si  0  0  0  0  0  0  0  0  0  0  0  0
   -2.3296   -2.1838   -1.5885 C   0  0  0  0  0  3  0  0  0  0  0  0
   -2.9026   -2.9008   -0.9848 H   0  0  0  0  0  0  0  0  0  0  0  0
   -3.0408   -1.3174   -2.4991 C   0  0  0  0  0  0  0  0  0  0  0  0
   -4.1368   -1.3743   -2.5537 H   0  0  0  0  0  0  0  0  0  0  0  0
   -2.3481   -0.2921   -3.1755 C   0  0  0  0  0  0  0  0  0  0  0  0
   -2.9040    0.4598   -3.7528 H   0  0  0  0  0  0  0  0  0  0  0  0
   -0.9306   -0.1313   -2.9724 C   0  0  0  0  0  3  0  0  0  0  0  0
   -0.3959    0.7184   -3.4187 H   0  0  0  0  0  0  0  0  0  0  0  0
   -0.2312   -1.0399   -2.1262 C   0  0  0  0  0  3  0  0  0  0  0  0
    0.8440   -0.8858   -1.9543 H   0  0  0  0  0  0  0  0  0  0  0  0
   -0.9111   -2.1072   -1.4226 C   0  0  1  0  0  3  0  0  0  0  0  0
   -0.1746   -3.0160   -0.4770 C   0  0  0  0  0  0  0  0  0  0  0  0
    0.9151   -2.8224   -0.5440 H   0  0  0  0  0  0  0  0  0  0  0  0
   -0.3239   -4.0760   -0.7776 H   0  0  0  0  0  0  0  0  0  0  0  0
    0.5856   -3.9714    2.3254 C   0  0  0  0  0  0  0  0  0  0  0  0
    0.3944   -3.9279    3.4173 H   0  0  0  0  0  0  0  0  0  0  0  0
    1.6330   -3.6538    2.1473 H   0  0  0  0  0  0  0  0  0  0  0  0
    0.5022   -5.0330    2.0133 H   0  0  0  0  0  0  0  0  0  0  0  0
   -2.4016   -3.6147    1.6496 C   0  0  0  0  0  0  0  0  0  0  0  0
   -3.1615   -2.8938    1.2824 H   0  0  0  0  0  0  0  0  0  0  0  0
   -2.5801   -3.7618    2.7351 H   0  0  0  0  0  0  0  0  0  0  0  0
   -2.5374   -4.5942    1.1471 H   0  0  0  0  0  0  0  0  0  0  0  0
   -0.6488   -1.1160    2.0449 C   0  0  0  0  0  0  0  0  0  0  0  0
   -1.6736   -0.9212    2.4273 H   0  0  0  0  0  0  0  0  0  0  0  0
    0.0627   -0.9823    2.8856 H   0  0  0  0  0  0  0  0  0  0  0  0
   -0.6000    1.7729    1.8527 C   0  0  0  0  0  0  0  0  0  0  0  0
   -1.8769    2.3013    2.1326 C   0  0  0  0  0  0  0  0  0  0  0  0
   -2.7669    1.8289    1.6912 H   0  0  0  0  0  0  0  0  0  0  0  0
   -1.9951    3.4213    2.9679 C   0  0  0  0  0  0  0  0  0  0  0  0
   -2.9940    3.8314    3.1812 H   0  0  0  0  0  0  0  0  0  0  0  0
   -0.8530    4.0253    3.5177 C   0  0  0  0  0  0  0  0  0  0  0  0
   -0.9532    4.9095    4.1660 H   0  0  0  0  0  0  0  0  0  0  0  0
    0.4182    3.5021    3.2354 C   0  0  0  0  0  0  0  0  0  0  0  0
    1.3188    3.9713    3.6599 H   0  0  0  0  0  0  0  0  0  0  0  0
    0.5472    2.3780    2.4057 C   0  0  0  0  0  0  0  0  0  0  0  0
    1.5471    1.9747    2.1864 H   0  0  0  0  0  0  0  0  0  0  0  0
    1.3540    0.2227    0.3896 C   0  0  0  0  0  0  0  0  0  0  0  0
    2.1801   -0.7360    0.9349 C   0  0  0  0  0  0  0  0  0  0  0  0
    1.7969   -1.4437    1.6821 H   0  0  0  0  0  0  0  0  0  0  0  0
    3.5595   -0.8709    0.5619 C   0  0  0  0  0  0  0  0  0  0  0  0
    4.3673   -1.8884    1.1390 C   0  0  0  0  0  0  0  0  0  0  0  0
    3.9164   -2.5594    1.8872 H   0  0  0  0  0  0  0  0  0  0  0  0
    5.6991   -2.0374    0.7707 C   0  0  0  0  0  0  0  0  0  0  0  0
    6.3159   -2.8286    1.2225 H   0  0  0  0  0  0  0  0  0  0  0  0
    6.2570   -1.1632   -0.1905 C   0  0  0  0  0  0  0  0  0  0  0  0
    7.3105   -1.2759   -0.4878 H   0  0  0  0  0  0  0  0  0  0  0  0
    5.4834   -0.1573   -0.7646 C   0  0  0  0  0  0  0  0  0  0  0  0
    5.9465    0.5061   -1.5077 H   0  0  0  0  0  0  0  0  0  0  0  0
    4.1206    0.0219   -0.4086 C   0  0  0  0  0  0  0  0  0  0  0  0
    3.2727    1.0660   -0.9759 C   0  0  0  0  0  0  0  0  0  0  0  0
    3.7681    1.9990   -1.9255 C   0  0  0  0  0  0  0  0  0  0  0  0
    4.8178    1.9426   -2.2443 H   0  0  0  0  0  0  0  0  0  0  0  0
    2.9554    2.9916   -2.4646 C   0  0  0  0  0  0  0  0  0  0  0  0
    3.3703    3.6992   -3.1985 H   0  0  0  0  0  0  0  0  0  0  0  0
    1.6049    3.0905   -2.0655 C   0  0  0  0  0  0  0  0  0  0  0  0
    0.9516    3.8717   -2.4823 H   0  0  0  0  0  0  0  0  0  0  0  0
    1.0863    2.1966   -1.1345 C   0  0  0  0  0  0  0  0  0  0  0  0
    0.0245    2.2922   -0.8525 H   0  0  0  0  0  0  0  0  0  0  0  0
    1.8935    1.1689   -0.5749 C   0  0  0  0  0  0  0  0  0  0  0  0
  1 28  1  0  0  0  0
  1 25  1  1  0  0  0
  2 21  1  0  0  0  0
  2 25  1  0  0  0  0
  2 17  1  0  0  0  0
  3 13  1  0  0  0  0
  3  4  1  0  0  0  0
  5  3  1  0  0  0  0
  6  5  1  0  0  0  0
  7  9  1  0  0  0  0
  7  5  2  0  0  0  0
  8  7  1  0  0  0  0
  9 11  1  0  0  0  0
 10  9  1  0  0  0  0
 11 12  1  0  0  0  0
 11 13  1  0  0  0  0
 13 14  1  1  0  0  0
 14  2  1  0  0  0  0
 15 14  1  0  0  0  0
 16 14  1  0  0  0  0
 17 18  1  0  0  0  0
 19 17  1  0  0  0  0
 20 17  1  0  0  0  0
 21 23  1  0  0  0  0
 22 21  1  0  0  0  0
 24 21  1  0  0  0  0
 25 26  1  0  0  0  0
 25 27  1  0  0  0  0
 28 29  2  0  0  0  0
 28 37  1  0  0  0  0
 29 31  1  0  0  0  0
 30 29  1  0  0  0  0
 31 32  1  0  0  0  0
 31 33  2  0  0  0  0
 33 34  1  0  0  0  0
 35 33  1  0  0  0  0
 35 36  1  0  0  0  0
 37 35  2  0  0  0  0
 38 37  1  0  0  0  0
 39  1  1  0  0  0  0
 39 40  1  0  0  0  0
 40 41  1  0  0  0  0
 42 40  2  0  0  0  0
 42 43  1  0  0  0  0
 43 44  1  0  0  0  0
 45 43  2  0  0  0  0
 45 46  1  0  0  0  0
 47 45  1  0  0  0  0
 48 47  1  0  0  0  0
 49 51  1  0  0  0  0
 49 47  2  0  0  0  0
 50 49  1  0  0  0  0
 51 42  1  0  0  0  0
 52 61  1  0  0  0  0
 52 51  2  0  0  0  0
 53 52  1  0  0  0  0
 54 53  1  0  0  0  0
 55 57  1  0  0  0  0
 55 53  2  0  0  0  0
 56 55  1  0  0  0  0
 57 59  2  0  0  0  0
 58 57  1  0  0  0  0
 59 60  1  0  0  0  0
 59 61  1  0  0  0  0
 61 39  2  0  0  0  0
M  END
