3,13
 OpenBabel05122313053D

 23 23  0  0  0  0  0  0  0  0999 V2000
    1.4161   -0.6256    2.2370 N   0  0  0  0  0  0  0  0  0  0  0  0
    2.6223   -0.1634    0.4963 N   0  0  0  0  0  0  0  0  0  0  0  0
    1.3453   -0.0915    0.9731 C   0  0  0  0  0  2  0  0  0  0  0  0
    2.7194   -1.0218    2.5273 C   0  0  0  0  0  0  0  0  0  0  0  0
    2.9897   -1.4800    3.4832 H   0  0  0  0  0  0  0  0  0  0  0  0
    3.4808   -0.7291    1.4245 C   0  0  0  0  0  0  0  0  0  0  0  0
    4.5468   -0.8828    1.2359 H   0  0  0  0  0  0  0  0  0  0  0  0
    0.2676   -0.8519    3.0933 C   0  0  0  0  0  0  0  0  0  0  0  0
   -0.0183    0.0679    3.6436 H   0  0  0  0  0  0  0  0  0  0  0  0
    0.5079   -1.6458    3.8242 H   0  0  0  0  0  0  0  0  0  0  0  0
   -0.5822   -1.1792    2.4642 H   0  0  0  0  0  0  0  0  0  0  0  0
    2.8883    0.2480   -0.9001 C   0  0  0  0  0  0  0  0  0  0  0  0
    1.5146    0.6762   -1.4905 C   0  0  0  0  0  3  0  0  0  0  0  0
    1.2535    0.0210   -2.3440 H   0  0  0  0  0  0  0  0  0  0  0  0
    1.6013    1.7098   -1.8855 H   0  0  0  0  0  0  0  0  0  0  0  0
    3.8857    1.4176   -0.8775 C   0  0  0  0  0  0  0  0  0  0  0  0
    3.4669    2.2727   -0.3103 H   0  0  0  0  0  0  0  0  0  0  0  0
    4.0931    1.7546   -1.9122 H   0  0  0  0  0  0  0  0  0  0  0  0
    4.8521    1.1298   -0.4130 H   0  0  0  0  0  0  0  0  0  0  0  0
    3.4685   -0.9568   -1.6592 C   0  0  0  0  0  0  0  0  0  0  0  0
    4.4331   -1.2972   -1.2271 H   0  0  0  0  0  0  0  0  0  0  0  0
    3.6493   -0.6773   -2.7156 H   0  0  0  0  0  0  0  0  0  0  0  0
    2.7463   -1.7971   -1.6368 H   0  0  0  0  0  0  0  0  0  0  0  0
  1  4  1  0  0  0  0
  1  8  1  0  0  0  0
  2  3  1  0  0  0  0
  2  6  1  0  0  0  0
  3  1  1  0  0  0  0
  4  5  1  0  0  0  0
  6  4  2  0  0  0  0
  7  6  1  0  0  0  0
  8  9  1  0  0  0  0
  8 10  1  0  0  0  0
 11  8  1  0  0  0  0
 12 16  1  0  0  0  0
 12  2  1  0  0  0  0
 13 12  1  0  0  0  0
 14 13  1  0  0  0  0
 15 13  1  0  0  0  0
 16 19  1  0  0  0  0
 16 17  1  0  0  0  0
 18 16  1  0  0  0  0
 20 23  1  0  0  0  0
 20 21  1  0  0  0  0
 20 12  1  0  0  0  0
 22 20  1  0  0  0  0
M  END
