2,6
 OpenBabel05122313053D

 30 32  0  0  1  0  0  0  0  0999 V2000
    0.0569   -1.2152   -0.3725 C   0  0  2  0  0  3  0  0  0  0  0  0
   -0.4435   -0.5668   -1.5376 C   0  0  0  0  0  3  0  0  0  0  0  0
   -1.8426   -0.5445   -1.8266 C   0  0  0  0  0  3  0  0  0  0  0  0
   -2.7860   -1.1464   -0.9526 C   0  0  0  0  0  0  0  0  0  0  0  0
   -2.2838   -1.8008    0.2242 C   0  0  0  0  0  0  0  0  0  0  0  0
   -0.9014   -1.8273    0.5114 C   0  0  0  0  0  3  0  0  0  0  0  0
    1.4966   -1.2653   -0.0635 C   0  0  0  0  0  0  0  0  0  0  0  0
    2.1434   -2.3558    0.4528 C   0  0  0  0  0  0  0  0  0  0  0  0
    3.6143   -2.0882    0.6060 C   0  0  0  0  0  0  0  0  0  0  0  0
    3.7583   -0.6693    0.1147 C   0  0  0  0  0  0  0  0  0  0  0  0
    4.8880    0.1492    0.0388 C   0  0  0  0  0  0  0  0  0  0  0  0
    4.7409    1.4691   -0.4271 C   0  0  0  0  0  0  0  0  0  0  0  0
    3.4752    1.9594   -0.7943 C   0  0  0  0  0  0  0  0  0  0  0  0
    2.3342    1.1435   -0.7185 C   0  0  0  0  0  0  0  0  0  0  0  0
    2.4811   -0.1828   -0.2755 C   0  0  0  0  0  0  0  0  0  0  0  0
   -4.2608   -1.1139   -1.2450 C   0  0  0  0  0  0  0  0  0  0  0  0
    0.2570   -0.0645   -2.2178 H   0  0  0  0  0  0  0  0  0  0  0  0
   -2.1988   -0.0035   -2.7147 H   0  0  0  0  0  0  0  0  0  0  0  0
   -2.9943   -2.2323    0.9437 H   0  0  0  0  0  0  0  0  0  0  0  0
   -0.5476   -2.2726    1.4511 H   0  0  0  0  0  0  0  0  0  0  0  0
    1.6704   -3.3180    0.6934 H   0  0  0  0  0  0  0  0  0  0  0  0
    4.2300   -2.8085    0.0204 H   0  0  0  0  0  0  0  0  0  0  0  0
    3.9519   -2.1978    1.6621 H   0  0  0  0  0  0  0  0  0  0  0  0
    5.8769   -0.2269    0.3442 H   0  0  0  0  0  0  0  0  0  0  0  0
    5.6212    2.1262   -0.4931 H   0  0  0  0  0  0  0  0  0  0  0  0
    3.3723    3.0000   -1.1372 H   0  0  0  0  0  0  0  0  0  0  0  0
    1.3481    1.5519   -0.9767 H   0  0  0  0  0  0  0  0  0  0  0  0
   -4.5796   -2.0589   -1.7338 H   0  0  0  0  0  0  0  0  0  0  0  0
   -4.8525   -0.9983   -0.3163 H   0  0  0  0  0  0  0  0  0  0  0  0
   -4.5164   -0.2757   -1.9204 H   0  0  0  0  0  0  0  0  0  0  0  0
  1  7  1  1  0  0  0
  1  6  1  0  0  0  0
  2  1  1  0  0  0  0
  3  2  1  0  0  0  0
  3  4  1  0  0  0  0
  4  5  2  0  0  0  0
  5  6  1  0  0  0  0
  5 19  1  0  0  0  0
  6 20  1  0  0  0  0
  7  8  2  0  0  0  0
  8  9  1  0  0  0  0
  8 21  1  0  0  0  0
  9 23  1  0  0  0  0
 10  9  1  0  0  0  0
 11 10  1  0  0  0  0
 11 24  1  0  0  0  0
 12 11  2  0  0  0  0
 13 14  2  0  0  0  0
 13 12  1  0  0  0  0
 14 15  1  0  0  0  0
 15  7  1  0  0  0  0
 15 10  2  0  0  0  0
 16  4  1  0  0  0  0
 16 29  1  0  0  0  0
 17  2  1  0  0  0  0
 18  3  1  0  0  0  0
 22  9  1  0  0  0  0
 25 12  1  0  0  0  0
 26 13  1  0  0  0  0
 27 14  1  0  0  0  0
 28 16  1  0  0  0  0
 30 16  1  0  0  0  0
M  END
