1,4
 OpenBabel05122313053D

 31 32  0  0  1  0  0  0  0  0999 V2000
    0.8782   -1.6203    0.9079 C   0  0  0  0  0  3  0  0  0  0  0  0
    0.8077   -2.7809    1.9094 C   0  0  0  0  0  0  0  0  0  0  0  0
   -0.0982   -3.9142    1.4008 C   0  0  0  0  0  0  0  0  0  0  0  0
   -1.2573   -3.3333    0.6019 C   0  0  0  0  0  3  0  0  0  0  0  0
   -1.1372   -3.0161   -0.7671 C   0  0  0  0  0  3  0  0  0  0  0  0
    0.0975   -3.3063   -1.5995 C   0  0  0  0  0  0  0  0  0  0  0  0
    1.1059   -2.1520   -1.6804 C   0  0  0  0  0  0  0  0  0  0  0  0
    1.7973   -1.8263   -0.3321 C   0  0  1  0  0  0  0  0  0  0  0  0
    2.7251   -0.6297   -0.4666 C   0  0  0  0  0  0  0  0  0  0  0  0
    2.2903    0.6344   -0.9108 C   0  0  0  0  0  0  0  0  0  0  0  0
    3.1394    1.7523   -0.9431 C   0  0  0  0  0  0  0  0  0  0  0  0
    4.4722    1.6220   -0.5183 C   0  0  0  0  0  0  0  0  0  0  0  0
    4.9419    0.3750   -0.0750 C   0  0  0  0  0  0  0  0  0  0  0  0
    4.0657   -0.7226   -0.0491 C   0  0  0  0  0  0  0  0  0  0  0  0
    1.0246    0.8187   -1.3272 F   0  0  0  0  0  0  0  0  0  0  0  0
    2.6873    2.9334   -1.3689 F   0  0  0  0  0  0  0  0  0  0  0  0
    5.2902    2.6755   -0.5441 F   0  0  0  0  0  0  0  0  0  0  0  0
    6.2095    0.2429    0.3264 F   0  0  0  0  0  0  0  0  0  0  0  0
    4.5477   -1.8944    0.4030 F   0  0  0  0  0  0  0  0  0  0  0  0
    1.1834   -0.6953    1.4365 H   0  0  0  0  0  0  0  0  0  0  0  0
   -2.2729   -3.4243    1.0257 H   0  0  0  0  0  0  0  0  0  0  0  0
   -2.0735   -2.8378   -1.3244 H   0  0  0  0  0  0  0  0  0  0  0  0
    2.4478   -2.6972   -0.0987 H   0  0  0  0  0  0  0  0  0  0  0  0
    1.8291   -3.1538    2.1566 H   0  0  0  0  0  0  0  0  0  0  0  0
    0.3856   -2.3829    2.8554 H   0  0  0  0  0  0  0  0  0  0  0  0
    0.4798   -4.6052    0.7487 H   0  0  0  0  0  0  0  0  0  0  0  0
   -0.4788   -4.5246    2.2429 H   0  0  0  0  0  0  0  0  0  0  0  0
    0.6113   -4.2119   -1.2081 H   0  0  0  0  0  0  0  0  0  0  0  0
   -0.2310   -3.5533   -2.6291 H   0  0  0  0  0  0  0  0  0  0  0  0
    1.8943   -2.4055   -2.4202 H   0  0  0  0  0  0  0  0  0  0  0  0
    0.5884   -1.2514   -2.0636 H   0  0  0  0  0  0  0  0  0  0  0  0
  1 20  1  0  0  0  0
  1  2  1  0  0  0  0
  2 24  1  0  0  0  0
  2 25  1  0  0  0  0
  3  2  1  0  0  0  0
  3 27  1  0  0  0  0
  4 21  1  0  0  0  0
  4  3  1  0  0  0  0
  5  4  1  0  0  0  0
  6 28  1  0  0  0  0
  6  5  1  0  0  0  0
  7  6  1  0  0  0  0
  7  8  1  0  0  0  0
  8 23  1  1  0  0  0
  8  1  1  0  0  0  0
  9  8  1  0  0  0  0
  9 14  1  0  0  0  0
 10  9  2  0  0  0  0
 11 10  1  0  0  0  0
 11 12  2  0  0  0  0
 12 13  1  0  0  0  0
 13 14  2  0  0  0  0
 13 18  1  0  0  0  0
 14 19  1  0  0  0  0
 15 10  1  0  0  0  0
 16 11  1  0  0  0  0
 17 12  1  0  0  0  0
 22  5  1  0  0  0  0
 26  3  1  0  0  0  0
 29  6  1  0  0  0  0
 30  7  1  0  0  0  0
 31  7  1  0  0  0  0
M  END
