1,24
 OpenBabel05122313053D

 40 43  0  0  0  0  0  0  0  0999 V2000
   -0.1706    2.0661   -0.2171 C   0  0  0  0  0  3  0  0  0  0  0  0
    0.2149    3.1297   -1.0683 C   0  0  0  0  0  0  0  0  0  0  0  0
    0.2507    4.4718   -0.6540 C   0  0  0  0  0  0  0  0  0  0  0  0
   -0.1135    4.8041    0.6588 C   0  0  0  0  0  0  0  0  0  0  0  0
   -0.5397    3.7861    1.5218 C   0  0  0  0  0  0  0  0  0  0  0  0
   -0.5799    2.4335    1.1074 C   0  0  0  0  0  0  0  0  0  0  0  0
   -1.1932    1.4390    2.0454 C   0  0  0  0  0  0  0  0  0  0  0  0
   -2.4822    1.7282    2.5511 C   0  0  0  0  0  0  0  0  0  0  0  0
   -3.1808    0.8332    3.3747 C   0  0  0  0  0  0  0  0  0  0  0  0
   -2.6047   -0.4071    3.6881 C   0  0  0  0  0  0  0  0  0  0  0  0
   -1.3192   -0.7070    3.2191 C   0  0  0  0  0  0  0  0  0  0  0  0
   -0.5825    0.2067    2.4309 C   0  0  0  0  0  0  0  0  0  0  0  0
    0.8895   -0.0493    2.3365 C   0  0  0  0  0  0  0  0  0  0  0  0
    1.7129    0.9107    2.9708 C   0  0  0  0  0  0  0  0  0  0  0  0
    3.0598    0.6570    3.2577 C   0  0  0  0  0  0  0  0  0  0  0  0
    3.6134   -0.5859    2.9166 C   0  0  0  0  0  0  0  0  0  0  0  0
    2.8201   -1.5312    2.2515 C   0  0  0  0  0  0  0  0  0  0  0  0
    1.4639   -1.2899    1.9247 C   0  0  0  0  0  0  0  0  0  0  0  0
    0.7730   -2.3403    1.1062 C   0  0  0  0  0  0  0  0  0  0  0  0
    0.8281   -3.6759    1.5704 C   0  0  0  0  0  0  0  0  0  0  0  0
    0.3869   -4.7445    0.7780 C   0  0  0  0  0  0  0  0  0  0  0  0
   -0.0762   -4.4815   -0.5194 C   0  0  0  0  0  0  0  0  0  0  0  0
   -0.1470   -3.1555   -0.9775 C   0  0  0  0  0  0  0  0  0  0  0  0
    0.2247   -2.0438   -0.1862 C   0  0  0  0  0  3  0  0  0  0  0  0
    0.4944    2.9056   -2.1102 H   0  0  0  0  0  0  0  0  0  0  0  0
    0.5652    5.2580   -1.3593 H   0  0  0  0  0  0  0  0  0  0  0  0
   -0.0765    5.8477    1.0070 H   0  0  0  0  0  0  0  0  0  0  0  0
   -0.8456    4.0360    2.5509 H   0  0  0  0  0  0  0  0  0  0  0  0
   -2.9513    2.6817    2.2626 H   0  0  0  0  0  0  0  0  0  0  0  0
   -4.1815    1.0964    3.7495 H   0  0  0  0  0  0  0  0  0  0  0  0
   -3.1442   -1.1339    4.3140 H   0  0  0  0  0  0  0  0  0  0  0  0
   -0.8354   -1.6508    3.5117 H   0  0  0  0  0  0  0  0  0  0  0  0
    1.2572    1.8614    3.2842 H   0  0  0  0  0  0  0  0  0  0  0  0
    3.6672    1.4224    3.7639 H   0  0  0  0  0  0  0  0  0  0  0  0
    4.6641   -0.8155    3.1501 H   0  0  0  0  0  0  0  0  0  0  0  0
    3.2624   -2.4921    1.9459 H   0  0  0  0  0  0  0  0  0  0  0  0
    1.2302   -3.8730    2.5777 H   0  0  0  0  0  0  0  0  0  0  0  0
    0.4246   -5.7744    1.1647 H   0  0  0  0  0  0  0  0  0  0  0  0
   -0.3909   -5.3094   -1.1751 H   0  0  0  0  0  0  0  0  0  0  0  0
   -0.5093   -2.9830   -2.0043 H   0  0  0  0  0  0  0  0  0  0  0  0
  1  6  1  0  0  0  0
  2  3  1  0  0  0  0
  2  1  2  0  0  0  0
  3  4  2  0  0  0  0
  4 27  1  0  0  0  0
  4  5  1  0  0  0  0
  5 28  1  0  0  0  0
  6  5  2  0  0  0  0
  6  7  1  0  0  0  0
  7 12  2  0  0  0  0
  7  8  1  0  0  0  0
  8  9  2  0  0  0  0
  9 10  1  0  0  0  0
  9 30  1  0  0  0  0
 10 31  1  0  0  0  0
 11 32  1  0  0  0  0
 11 10  2  0  0  0  0
 12 11  1  0  0  0  0
 13 12  1  0  0  0  0
 13 14  1  0  0  0  0
 14 15  2  0  0  0  0
 14 33  1  0  0  0  0
 15 34  1  0  0  0  0
 16 35  1  0  0  0  0
 16 15  1  0  0  0  0
 17 16  2  0  0  0  0
 18 17  1  0  0  0  0
 18 13  2  0  0  0  0
 19 20  1  0  0  0  0
 19 18  1  0  0  0  0
 20 37  1  0  0  0  0
 21 38  1  0  0  0  0
 21 20  2  0  0  0  0
 22 21  1  0  0  0  0
 23 22  2  0  0  0  0
 23 24  1  0  0  0  0
 24 19  2  0  0  0  0
 25  2  1  0  0  0  0
 26  3  1  0  0  0  0
 29  8  1  0  0  0  0
 36 17  1  0  0  0  0
 39 22  1  0  0  0  0
 40 23  1  0  0  0  0
M  END
