5,20
 OpenBabel05122313053D

 68 75  0  0  1  0  0  0  0  0999 V2000
   -2.7618    1.4131   -1.3646 N   0  0  0  0  0  0  0  0  0  0  0  0
   -0.6358    1.8029   -1.0082 N   0  0  0  0  0  0  0  0  0  0  0  0
   -0.5761   -0.6162    2.0305 N   0  0  0  0  0  0  0  0  0  0  0  0
   -2.7410   -0.8235    1.7880 N   0  0  0  0  0  0  0  0  0  0  0  0
   -1.5603    0.7925   -1.1310 C   0  0  0  0  0  2  0  0  0  0  0  0
   -4.0192    0.7442   -1.6370 C   0  0  0  0  0  0  0  0  0  0  0  0
   -3.8363   -0.3452   -1.6208 H   0  0  0  0  0  0  0  0  0  0  0  0
   -4.3992    1.0412   -2.6354 H   0  0  0  0  0  0  0  0  0  0  0  0
   -4.7815    1.0079   -0.8769 H   0  0  0  0  0  0  0  0  0  0  0  0
   -2.6173    2.8019   -1.3865 C   0  0  0  0  0  0  0  0  0  0  0  0
   -3.5390    3.8386   -1.5857 C   0  0  0  0  0  0  0  0  0  0  0  0
   -4.6063    3.6411   -1.7572 H   0  0  0  0  0  0  0  0  0  0  0  0
   -3.0342    5.1475   -1.5584 C   0  0  0  0  0  0  0  0  0  0  0  0
   -3.7221    5.9922   -1.7084 H   0  0  0  0  0  0  0  0  0  0  0  0
   -1.6613    5.4030   -1.3472 C   0  0  0  0  0  0  0  0  0  0  0  0
   -1.3035    6.4428   -1.3382 H   0  0  0  0  0  0  0  0  0  0  0  0
   -0.7400    4.3625   -1.1523 C   0  0  0  0  0  0  0  0  0  0  0  0
    0.3275    4.5730   -0.9993 H   0  0  0  0  0  0  0  0  0  0  0  0
   -1.2465    3.0550   -1.1652 C   0  0  0  0  0  0  0  0  0  0  0  0
   -1.5511   -0.9104    1.1111 C   0  0  0  0  0  2  0  0  0  0  0  0
   -1.1387   -0.3083    3.2750 C   0  0  0  0  0  0  0  0  0  0  0  0
   -0.5774    0.0591    4.5060 C   0  0  0  0  0  0  0  0  0  0  0  0
    0.5070    0.1766    4.6393 H   0  0  0  0  0  0  0  0  0  0  0  0
   -1.4653    0.2812    5.5698 C   0  0  0  0  0  0  0  0  0  0  0  0
   -1.0633    0.5758    6.5500 H   0  0  0  0  0  0  0  0  0  0  0  0
   -2.8613    0.1371    5.4112 C   0  0  0  0  0  0  0  0  0  0  0  0
   -3.5222    0.3205    6.2706 H   0  0  0  0  0  0  0  0  0  0  0  0
   -3.4236   -0.2340    4.1804 C   0  0  0  0  0  0  0  0  0  0  0  0
   -4.5100   -0.3467    4.0597 H   0  0  0  0  0  0  0  0  0  0  0  0
   -2.5355   -0.4488    3.1179 C   0  0  0  0  0  0  0  0  0  0  0  0
   -4.0441   -1.1511    1.2447 C   0  0  0  0  0  0  0  0  0  0  0  0
   -3.8989   -1.5293    0.2171 H   0  0  0  0  0  0  0  0  0  0  0  0
   -4.7033   -0.2601    1.2261 H   0  0  0  0  0  0  0  0  0  0  0  0
   -4.5264   -1.9355    1.8620 H   0  0  0  0  0  0  0  0  0  0  0  0
    0.8240    1.6747   -1.0537 C   0  0  0  0  0  0  0  0  0  0  0  0
    1.2494    2.5690   -0.5585 H   0  0  0  0  0  0  0  0  0  0  0  0
    1.1280    1.7394   -2.1217 H   0  0  0  0  0  0  0  0  0  0  0  0
    1.4212    0.4131   -0.4346 C   0  0  2  0  0  0  0  0  0  0  0  0
    0.7715   -0.4592   -0.7277 H   0  0  0  0  0  0  0  0  0  0  0  0
    1.5489    0.4475    1.1201 C   0  0  1  0  0  0  0  0  0  0  0  0
    1.1105    1.3867    1.5177 H   0  0  0  0  0  0  0  0  0  0  0  0
    0.8597   -0.7442    1.8077 C   0  0  0  0  0  0  0  0  0  0  0  0
    1.0347   -1.6674    1.2241 H   0  0  0  0  0  0  0  0  0  0  0  0
    1.3153   -0.9130    2.8026 H   0  0  0  0  0  0  0  0  0  0  0  0
    2.8415    0.1726   -1.0666 C   0  0  1  0  0  0  0  0  0  0  0  0
    2.7604    0.0577   -2.1651 H   0  0  0  0  0  0  0  0  0  0  0  0
    3.6704    1.3804   -0.6699 C   0  0  0  0  0  0  0  0  0  0  0  0
    4.2495    2.3240   -1.5268 C   0  0  0  0  0  0  0  0  0  0  0  0
    4.1728    2.2036   -2.6190 H   0  0  0  0  0  0  0  0  0  0  0  0
    4.9385    3.4213   -0.9779 C   0  0  0  0  0  0  0  0  0  0  0  0
    5.4073    4.1610   -1.6440 H   0  0  0  0  0  0  0  0  0  0  0  0
    5.0371    3.5722    0.4146 C   0  0  0  0  0  0  0  0  0  0  0  0
    5.5817    4.4306    0.8354 H   0  0  0  0  0  0  0  0  0  0  0  0
    4.4511    2.6267    1.2762 C   0  0  0  0  0  0  0  0  0  0  0  0
    4.5335    2.7425    2.3682 H   0  0  0  0  0  0  0  0  0  0  0  0
    3.7703    1.5310    0.7319 C   0  0  0  0  0  0  0  0  0  0  0  0
    3.0789    0.4228    1.4991 C   0  0  2  0  0  0  0  0  0  0  0  0
    3.2073    0.5326    2.5936 H   0  0  0  0  0  0  0  0  0  0  0  0
    3.5993   -0.9087    0.9869 C   0  0  0  0  0  0  0  0  0  0  0  0
    4.1306   -1.9567    1.7483 C   0  0  0  0  0  0  0  0  0  0  0  0
    4.2595   -1.8429    2.8363 H   0  0  0  0  0  0  0  0  0  0  0  0
    4.5054   -3.1534    1.1097 C   0  0  0  0  0  0  0  0  0  0  0  0
    4.9336   -3.9770    1.7002 H   0  0  0  0  0  0  0  0  0  0  0  0
    4.3445   -3.2977   -0.2778 C   0  0  0  0  0  0  0  0  0  0  0  0
    4.6489   -4.2333   -0.7703 H   0  0  0  0  0  0  0  0  0  0  0  0
    3.8098   -2.2451   -1.0436 C   0  0  0  0  0  0  0  0  0  0  0  0
    3.6991   -2.3496   -2.1346 H   0  0  0  0  0  0  0  0  0  0  0  0
    3.4385   -1.0531   -0.4094 C   0  0  0  0  0  0  0  0  0  0  0  0
  1  5  1  0  0  0  0
  3 21  1  0  0  0  0
  4 30  1  0  0  0  0
  5  2  1  0  0  0  0
  6  7  1  0  0  0  0
  6  1  1  0  0  0  0
  6  9  1  0  0  0  0
  8  6  1  0  0  0  0
 10  1  1  0  0  0  0
 10 19  1  0  0  0  0
 11 13  1  0  0  0  0
 11 10  2  0  0  0  0
 12 11  1  0  0  0  0
 13 15  2  0  0  0  0
 14 13  1  0  0  0  0
 15 16  1  0  0  0  0
 15 17  1  0  0  0  0
 17 18  1  0  0  0  0
 19 17  2  0  0  0  0
 19  2  1  0  0  0  0
 20  4  1  0  0  0  0
 20  3  1  0  0  0  0
 21 22  1  0  0  0  0
 22 23  1  0  0  0  0
 22 24  2  0  0  0  0
 24 25  1  0  0  0  0
 26 24  1  0  0  0  0
 26 27  1  0  0  0  0
 28 26  2  0  0  0  0
 29 28  1  0  0  0  0
 30 21  2  0  0  0  0
 30 28  1  0  0  0  0
 31  4  1  0  0  0  0
 31 34  1  0  0  0  0
 32 31  1  0  0  0  0
 33 31  1  0  0  0  0
 35  2  1  0  0  0  0
 35 36  1  0  0  0  0
 35 38  1  0  0  0  0
 37 35  1  0  0  0  0
 38 39  1  6  0  0  0
 38 40  1  0  0  0  0
 40 57  1  0  0  0  0
 40 41  1  1  0  0  0
 40 42  1  0  0  0  0
 42  3  1  0  0  0  0
 42 44  1  0  0  0  0
 43 42  1  0  0  0  0
 45 46  1  6  0  0  0
 45 47  1  0  0  0  0
 45 38  1  0  0  0  0
 45 68  1  0  0  0  0
 47 56  1  0  0  0  0
 48 50  1  0  0  0  0
 48 47  2  0  0  0  0
 49 48  1  0  0  0  0
 50 52  2  0  0  0  0
 51 50  1  0  0  0  0
 52 53  1  0  0  0  0
 52 54  1  0  0  0  0
 54 55  1  0  0  0  0
 56 54  2  0  0  0  0
 56 57  1  0  0  0  0
 57 58  1  1  0  0  0
 59 57  1  0  0  0  0
 59 60  1  0  0  0  0
 60 61  1  0  0  0  0
 62 63  1  0  0  0  0
 62 60  2  0  0  0  0
 64 62  1  0  0  0  0
 65 64  1  0  0  0  0
 66 68  1  0  0  0  0
 66 64  2  0  0  0  0
 67 66  1  0  0  0  0
 68 59  2  0  0  0  0
M  END
