7,31
 OpenBabel05122313053D

 70 74  0  0  1  0  0  0  0  0999 V2000
   -2.3571   -1.5905   -1.3093 N   0  0  0  0  0  0  0  0  0  0  0  0
   -2.2061   -1.8322   -2.3016 H   0  0  0  0  0  0  0  0  0  0  0  0
   -0.8634    0.0963    0.8915 C   0  0  1  0  0  3  0  0  0  0  0  0
   -0.0592   -0.4825    2.0295 C   0  0  0  0  0  0  0  0  0  0  0  0
    3.3425   -1.7446   -1.7308 C   0  0  0  0  0  0  0  0  0  0  0  0
    2.7512   -1.6984   -2.6550 H   0  0  0  0  0  0  0  0  0  0  0  0
    1.5742   -0.3995   -0.5274 C   0  0  0  0  0  3  0  0  0  0  0  0
    4.3088    3.1835   -0.2286 C   0  0  0  0  0  0  0  0  0  0  0  0
    5.3493    3.1678   -0.5879 H   0  0  0  0  0  0  0  0  0  0  0  0
    1.6566    3.2159    0.6629 C   0  0  0  0  0  0  0  0  0  0  0  0
    0.6120    3.2423    1.0072 H   0  0  0  0  0  0  0  0  0  0  0  0
   -4.7289    0.2495    0.6612 C   0  0  0  0  0  0  0  0  0  0  0  0
   -5.5372    0.1143   -0.0750 H   0  0  0  0  0  0  0  0  0  0  0  0
    1.3743   -1.5590    4.2215 C   0  0  0  0  0  0  0  0  0  0  0  0
    1.9388   -1.9799    5.0672 H   0  0  0  0  0  0  0  0  0  0  0  0
    1.2787    0.8896   -0.1918 C   0  0  0  0  0  0  0  0  0  0  0  0
   -2.3427    0.1947    1.1826 C   0  0  0  0  0  0  0  0  0  0  0  0
   -0.2033   -1.8388    2.3914 C   0  0  0  0  0  0  0  0  0  0  0  0
   -0.8660   -2.4849    1.7961 H   0  0  0  0  0  0  0  0  0  0  0  0
   -2.6897    0.5303    2.5144 C   0  0  0  0  0  0  0  0  0  0  0  0
   -1.8838    0.6372    3.2541 H   0  0  0  0  0  0  0  0  0  0  0  0
    2.1477    2.0589    0.0102 C   0  0  0  0  0  0  0  0  0  0  0  0
    3.8103    4.3207    0.4310 C   0  0  0  0  0  0  0  0  0  0  0  0
    4.4567    5.1964    0.5940 H   0  0  0  0  0  0  0  0  0  0  0  0
    2.8350   -1.1329   -0.5604 C   0  0  0  0  0  0  0  0  0  0  0  0
   -3.1946   -0.3830   -1.1976 C   0  0  0  0  0  0  0  0  0  0  0  0
   -4.1921   -0.5369   -1.6645 H   0  0  0  0  0  0  0  0  0  0  0  0
   -2.6885    0.4178   -1.7763 H   0  0  0  0  0  0  0  0  0  0  0  0
   -3.4017    0.0349    0.2404 C   0  0  0  0  0  0  0  0  0  0  0  0
   -0.9413    1.9963   -0.8710 C   0  0  0  0  0  0  0  0  0  0  0  0
   -0.2289    0.9521   -0.0797 C   0  0  2  0  0  3  0  0  0  0  0  0
   -0.5876    2.1874   -2.2267 C   0  0  0  0  0  0  0  0  0  0  0  0
    0.1811    1.5354   -2.6690 H   0  0  0  0  0  0  0  0  0  0  0  0
    3.5759   -1.2393    0.6445 C   0  0  0  0  0  0  0  0  0  0  0  0
    3.1711   -0.7829    1.5600 H   0  0  0  0  0  0  0  0  0  0  0  0
   -4.0136    0.7542    2.9089 C   0  0  0  0  0  0  0  0  0  0  0  0
   -4.2330    1.0286    3.9518 H   0  0  0  0  0  0  0  0  0  0  0  0
    1.5110   -0.2035    3.8837 C   0  0  0  0  0  0  0  0  0  0  0  0
    2.1791    0.4483    4.4670 H   0  0  0  0  0  0  0  0  0  0  0  0
    2.4782    4.3318    0.8722 C   0  0  0  0  0  0  0  0  0  0  0  0
    2.0723    5.2184    1.3832 H   0  0  0  0  0  0  0  0  0  0  0  0
    3.4906    2.0687   -0.4413 C   0  0  0  0  0  0  0  0  0  0  0  0
    3.8867    1.1902   -0.9692 H   0  0  0  0  0  0  0  0  0  0  0  0
   -5.0475    0.6208    1.9731 C   0  0  0  0  0  0  0  0  0  0  0  0
   -6.0959    0.7847    2.2635 H   0  0  0  0  0  0  0  0  0  0  0  0
    0.7983    0.3311    2.7997 C   0  0  0  0  0  0  0  0  0  0  0  0
    0.9157    1.3930    2.5411 H   0  0  0  0  0  0  0  0  0  0  0  0
   -2.8564   -2.7960   -0.6118 C   0  0  0  0  0  0  0  0  0  0  0  0
   -2.8715   -2.5724    0.4747 H   0  0  0  0  0  0  0  0  0  0  0  0
   -2.0866   -3.5756   -0.7808 H   0  0  0  0  0  0  0  0  0  0  0  0
   -2.5342    3.8383   -1.0703 C   0  0  0  0  0  0  0  0  0  0  0  0
   -3.2875    4.4938   -0.6075 H   0  0  0  0  0  0  0  0  0  0  0  0
   -1.9146    2.8448   -0.2987 C   0  0  0  0  0  0  0  0  0  0  0  0
   -2.1801    2.7333    0.7617 H   0  0  0  0  0  0  0  0  0  0  0  0
    4.5729   -2.4134   -1.6998 C   0  0  0  0  0  0  0  0  0  0  0  0
    4.9602   -2.8779   -2.6197 H   0  0  0  0  0  0  0  0  0  0  0  0
    0.5111   -2.3743    3.4712 C   0  0  0  0  0  0  0  0  0  0  0  0
    0.3991   -3.4397    3.7229 H   0  0  0  0  0  0  0  0  0  0  0  0
   -4.2289   -3.2808   -1.0737 C   0  0  0  0  0  0  0  0  0  0  0  0
   -5.0342   -2.5583   -0.8317 H   0  0  0  0  0  0  0  0  0  0  0  0
   -4.4812   -4.2351   -0.5700 H   0  0  0  0  0  0  0  0  0  0  0  0
   -4.2447   -3.4671   -2.1678 H   0  0  0  0  0  0  0  0  0  0  0  0
    5.3060   -2.5053   -0.5047 C   0  0  0  0  0  0  0  0  0  0  0  0
    6.2683   -3.0393   -0.4854 H   0  0  0  0  0  0  0  0  0  0  0  0
    4.7984   -1.9211    0.6679 C   0  0  0  0  0  0  0  0  0  0  0  0
    5.3597   -1.9979    1.6120 H   0  0  0  0  0  0  0  0  0  0  0  0
   -1.2143    3.1744   -2.9974 C   0  0  0  0  0  0  0  0  0  0  0  0
   -0.9331    3.3022   -4.0536 H   0  0  0  0  0  0  0  0  0  0  0  0
   -2.1945    4.0012   -2.4226 C   0  0  0  0  0  0  0  0  0  0  0  0
   -2.6863    4.7788   -3.0266 H   0  0  0  0  0  0  0  0  0  0  0  0
  1 26  1  0  0  0  0
  1 48  1  0  0  0  0
  2  1  1  0  0  0  0
  3 31  1  1  0  0  0
  3 17  1  0  0  0  0
  3  4  1  0  0  0  0
  4 18  2  0  0  0  0
  4 46  1  0  0  0  0
  5 55  2  0  0  0  0
  5 25  1  0  0  0  0
  6  5  1  0  0  0  0
  7 16  2  0  0  0  0
  8 23  1  0  0  0  0
  9  8  1  0  0  0  0
 10 40  1  0  0  0  0
 10 11  1  0  0  0  0
 12 44  1  0  0  0  0
 13 12  1  0  0  0  0
 14 15  1  0  0  0  0
 16 22  1  0  0  0  0
 17 20  2  0  0  0  0
 18 57  1  0  0  0  0
 19 18  1  0  0  0  0
 20 36  1  0  0  0  0
 20 21  1  0  0  0  0
 22 10  2  0  0  0  0
 23 24  1  0  0  0  0
 23 40  2  0  0  0  0
 25  7  1  0  0  0  0
 25 34  2  0  0  0  0
 26 29  1  0  0  0  0
 27 26  1  0  0  0  0
 28 26  1  0  0  0  0
 29 12  2  0  0  0  0
 29 17  1  0  0  0  0
 30 53  1  0  0  0  0
 30 31  1  0  0  0  0
 31 16  1  1  0  0  0
 32 30  2  0  0  0  0
 33 32  1  0  0  0  0
 34 65  1  0  0  0  0
 34 35  1  0  0  0  0
 36 37  1  0  0  0  0
 38 14  1  0  0  0  0
 38 39  1  0  0  0  0
 40 41  1  0  0  0  0
 42  8  2  0  0  0  0
 42 22  1  0  0  0  0
 43 42  1  0  0  0  0
 44 45  1  0  0  0  0
 44 36  2  0  0  0  0
 46 38  2  0  0  0  0
 47 46  1  0  0  0  0
 48 49  1  0  0  0  0
 50 48  1  0  0  0  0
 51 52  1  0  0  0  0
 51 53  2  0  0  0  0
 53 54  1  0  0  0  0
 55 63  1  0  0  0  0
 56 55  1  0  0  0  0
 57 58  1  0  0  0  0
 57 14  2  0  0  0  0
 59 60  1  0  0  0  0
 59 48  1  0  0  0  0
 59 61  1  0  0  0  0
 62 59  1  0  0  0  0
 63 64  1  0  0  0  0
 63 65  2  0  0  0  0
 65 66  1  0  0  0  0
 67 69  2  0  0  0  0
 67 32  1  0  0  0  0
 68 67  1  0  0  0  0
 69 51  1  0  0  0  0
 70 69  1  0  0  0  0
M  END
