3,6
 OpenBabel05122313053D

 19 18  0  0  0  0  0  0  0  0999 V2000
   -1.8739    1.0028    0.6040 N   0  0  0  0  0  0  0  0  0  0  0  0
   -1.8737   -1.0030   -0.6040 N   0  0  0  0  0  0  0  0  0  0  0  0
   -1.0580    0.5074    1.7196 C   0  0  0  0  0  3  0  0  0  0  0  0
   -1.5443   -0.3383    2.2532 H   0  0  0  0  0  0  0  0  0  0  0  0
   -0.8413    1.3206    2.4348 H   0  0  0  0  0  0  0  0  0  0  0  0
   -1.0581   -0.5077   -1.7199 C   0  0  0  0  0  3  0  0  0  0  0  0
   -1.5446    0.3379   -2.2533 H   0  0  0  0  0  0  0  0  0  0  0  0
   -0.8416   -1.3209   -2.4350 H   0  0  0  0  0  0  0  0  0  0  0  0
   -2.7278   -0.0002   -0.0000 C   0  0  0  0  0  0  0  0  0  0  0  0
   -3.3863   -0.5029    0.7530 H   0  0  0  0  0  0  0  0  0  0  0  0
   -3.3863    0.5025   -0.7531 H   0  0  0  0  0  0  0  0  0  0  0  0
   -2.4971    2.3089    0.7520 C   0  0  0  0  0  0  0  0  0  0  0  0
   -1.7450    3.0471    1.0871 H   0  0  0  0  0  0  0  0  0  0  0  0
   -3.3229    2.2987    1.5042 H   0  0  0  0  0  0  0  0  0  0  0  0
   -2.9105    2.6535   -0.2184 H   0  0  0  0  0  0  0  0  0  0  0  0
   -2.4967   -2.3094   -0.7516 C   0  0  0  0  0  0  0  0  0  0  0  0
   -1.7445   -3.0474   -1.0868 H   0  0  0  0  0  0  0  0  0  0  0  0
   -3.3227   -2.2994   -1.5036 H   0  0  0  0  0  0  0  0  0  0  0  0
   -2.9097   -2.6538    0.2190 H   0  0  0  0  0  0  0  0  0  0  0  0
  1 12  1  0  0  0  0
  1  3  1  0  0  0  0
  2  9  1  0  0  0  0
  3  4  1  0  0  0  0
  3  5  1  0  0  0  0
  6  2  1  0  0  0  0
  7  6  1  0  0  0  0
  8  6  1  0  0  0  0
  9  1  1  0  0  0  0
  9 10  1  0  0  0  0
 11  9  1  0  0  0  0
 12 13  1  0  0  0  0
 12 14  1  0  0  0  0
 15 12  1  0  0  0  0
 16  2  1  0  0  0  0
 16 19  1  0  0  0  0
 17 16  1  0  0  0  0
 18 16  1  0  0  0  0
M  END
