2
 OpenBabel05122313053D

 53 56  0  0  1  0  0  0  0  0999 V2000
    0.0000    3.2696   -0.0001 Si  0  0  0  0  0  0  0  0  0  0  0  0
    1.0924    1.9849   -0.8571 C   0  0  1  0  0  3  0  0  0  0  0  0
    2.0935    1.2673   -0.1140 C   0  0  0  0  0  0  0  0  0  0  0  0
    2.4761    0.0863   -0.8321 C   0  0  0  0  0  0  0  0  0  0  0  0
    1.6480    0.0379   -1.9900 C   0  0  0  0  0  0  0  0  0  0  0  0
    0.8008    1.1892   -2.0233 C   0  0  0  0  0  0  0  0  0  0  0  0
   -0.1491    1.5009   -3.1449 C   0  0  0  0  0  0  0  0  0  0  0  0
    3.5260   -0.8766   -0.4613 C   0  0  0  0  0  0  0  0  0  0  0  0
    4.5785   -0.4953    0.3984 C   0  0  0  0  0  0  0  0  0  0  0  0
    5.5830   -1.4068    0.7507 C   0  0  0  0  0  0  0  0  0  0  0  0
    5.5544   -2.7172    0.2492 C   0  0  0  0  0  0  0  0  0  0  0  0
    4.5104   -3.1095   -0.6051 C   0  0  0  0  0  0  0  0  0  0  0  0
    3.5054   -2.2005   -0.9549 C   0  0  0  0  0  0  0  0  0  0  0  0
   -1.0924    1.9850    0.8571 C   0  0  1  0  0  3  0  0  0  0  0  0
   -2.0935    1.2674    0.1139 C   0  0  0  0  0  0  0  0  0  0  0  0
   -2.4762    0.0864    0.8321 C   0  0  0  0  0  0  0  0  0  0  0  0
   -1.6481    0.0380    1.9901 C   0  0  0  0  0  0  0  0  0  0  0  0
   -0.8009    1.1893    2.0233 C   0  0  0  0  0  0  0  0  0  0  0  0
    0.1489    1.5011    3.1450 C   0  0  0  0  0  0  0  0  0  0  0  0
   -3.5260   -0.8766    0.4612 C   0  0  0  0  0  0  0  0  0  0  0  0
   -3.5056   -2.2004    0.9550 C   0  0  0  0  0  0  0  0  0  0  0  0
   -4.5104   -3.1094    0.6051 C   0  0  0  0  0  0  0  0  0  0  0  0
   -5.5543   -2.7172   -0.2494 C   0  0  0  0  0  0  0  0  0  0  0  0
   -5.5828   -1.4069   -0.7511 C   0  0  0  0  0  0  0  0  0  0  0  0
   -4.5784   -0.4953   -0.3986 C   0  0  0  0  0  0  0  0  0  0  0  0
   -1.0191    4.3614   -1.1503 C   0  0  0  0  0  0  0  0  0  0  0  0
    1.0193    4.3614    1.1501 C   0  0  0  0  0  0  0  0  0  0  0  0
    2.5126    1.5725    0.8537 H   0  0  0  0  0  0  0  0  0  0  0  0
    1.6648   -0.7464   -2.7556 H   0  0  0  0  0  0  0  0  0  0  0  0
    0.3757    2.0511   -3.9548 H   0  0  0  0  0  0  0  0  0  0  0  0
   -0.5651    0.5704   -3.5766 H   0  0  0  0  0  0  0  0  0  0  0  0
   -0.9952    2.1329   -2.8191 H   0  0  0  0  0  0  0  0  0  0  0  0
    4.6199    0.5354    0.7807 H   0  0  0  0  0  0  0  0  0  0  0  0
    6.3976   -1.0893    1.4194 H   0  0  0  0  0  0  0  0  0  0  0  0
    6.3424   -3.4337    0.5261 H   0  0  0  0  0  0  0  0  0  0  0  0
    4.4720   -4.1389   -0.9926 H   0  0  0  0  0  0  0  0  0  0  0  0
    2.6715   -2.5283   -1.5932 H   0  0  0  0  0  0  0  0  0  0  0  0
   -2.5126    1.5726   -0.8538 H   0  0  0  0  0  0  0  0  0  0  0  0
   -1.6649   -0.7462    2.7557 H   0  0  0  0  0  0  0  0  0  0  0  0
    0.5646    0.5706    3.5770 H   0  0  0  0  0  0  0  0  0  0  0  0
    0.9953    2.1328    2.8191 H   0  0  0  0  0  0  0  0  0  0  0  0
   -0.3759    2.0517    3.9546 H   0  0  0  0  0  0  0  0  0  0  0  0
   -2.6718   -2.5281    1.5935 H   0  0  0  0  0  0  0  0  0  0  0  0
   -4.4721   -4.1387    0.9928 H   0  0  0  0  0  0  0  0  0  0  0  0
   -6.3422   -3.4338   -0.5264 H   0  0  0  0  0  0  0  0  0  0  0  0
   -6.3973   -1.0895   -1.4199 H   0  0  0  0  0  0  0  0  0  0  0  0
   -4.6197    0.5354   -0.7811 H   0  0  0  0  0  0  0  0  0  0  0  0
   -0.3659    4.8713   -1.8873 H   0  0  0  0  0  0  0  0  0  0  0  0
   -1.7924    3.8001   -1.7090 H   0  0  0  0  0  0  0  0  0  0  0  0
   -1.5360    5.1408   -0.5535 H   0  0  0  0  0  0  0  0  0  0  0  0
    1.5367    5.1404    0.5530 H   0  0  0  0  0  0  0  0  0  0  0  0
    0.3662    4.8719    1.8867 H   0  0  0  0  0  0  0  0  0  0  0  0
    1.7922    3.8000    1.7091 H   0  0  0  0  0  0  0  0  0  0  0  0
  1 27  1  0  0  0  0
  2  3  1  0  0  0  0
  2  1  1  1  0  0  0
  3 28  1  0  0  0  0
  4  8  1  0  0  0  0
  4  3  2  0  0  0  0
  5  4  1  0  0  0  0
  6  5  2  0  0  0  0
  6  2  1  0  0  0  0
  7 32  1  0  0  0  0
  7  6  1  0  0  0  0
  8  9  1  0  0  0  0
  9 10  2  0  0  0  0
  9 33  1  0  0  0  0
 10 34  1  0  0  0  0
 11 35  1  0  0  0  0
 11 10  1  0  0  0  0
 12 11  2  0  0  0  0
 13 12  1  0  0  0  0
 13  8  2  0  0  0  0
 14  1  1  6  0  0  0
 14 18  1  0  0  0  0
 15 16  2  0  0  0  0
 15 14  1  0  0  0  0
 16 17  1  0  0  0  0
 17 18  2  0  0  0  0
 17 39  1  0  0  0  0
 18 19  1  0  0  0  0
 19 40  1  0  0  0  0
 19 42  1  0  0  0  0
 20 16  1  0  0  0  0
 20 21  1  0  0  0  0
 21 43  1  0  0  0  0
 22 21  2  0  0  0  0
 22 44  1  0  0  0  0
 23 22  1  0  0  0  0
 24 25  1  0  0  0  0
 24 23  2  0  0  0  0
 25 20  2  0  0  0  0
 26 50  1  0  0  0  0
 26  1  1  0  0  0  0
 27 53  1  0  0  0  0
 27 52  1  0  0  0  0
 29  5  1  0  0  0  0
 30  7  1  0  0  0  0
 31  7  1  0  0  0  0
 36 12  1  0  0  0  0
 37 13  1  0  0  0  0
 38 15  1  0  0  0  0
 41 19  1  0  0  0  0
 45 23  1  0  0  0  0
 46 24  1  0  0  0  0
 47 25  1  0  0  0  0
 48 26  1  0  0  0  0
 49 26  1  0  0  0  0
 51 27  1  0  0  0  0
M  END
