1,4
 OpenBabel05122313053D

 29 29  0  0  0  0  0  0  0  0999 V2000
   -1.0452   -2.1689    0.0002 C   0  0  0  0  0  3  0  0  0  0  0  0
   -2.4270   -1.9386    0.0003 O   0  0  0  0  0  0  0  0  0  0  0  0
   -2.7633   -0.5757    0.0005 N   0  0  0  0  0  0  0  0  0  0  0  0
   -1.7047    0.3288    0.0004 C   0  0  0  0  0  3  0  0  0  0  0  0
   -0.7130   -3.3394    0.0000 O   0  0  0  0  0  0  0  0  0  0  0  0
   -1.8977    1.5497    0.0006 O   0  0  0  0  0  0  0  0  0  0  0  0
   -4.1560   -0.3573    0.0002 C   0  0  0  0  0  0  0  0  0  0  0  0
   -5.0444   -1.4582    0.0004 C   0  0  0  0  0  0  0  0  0  0  0  0
   -6.4253   -1.2440    0.0002 C   0  0  0  0  0  0  0  0  0  0  0  0
   -6.9905    0.0492   -0.0002 C   0  0  0  0  0  0  0  0  0  0  0  0
   -6.0859    1.1288   -0.0003 C   0  0  0  0  0  0  0  0  0  0  0  0
   -4.6963    0.9478   -0.0001 C   0  0  0  0  0  0  0  0  0  0  0  0
   -8.5183    0.2267   -0.0004 C   0  0  0  0  0  0  0  0  0  0  0  0
   -8.9291    1.7093   -0.0012 C   0  0  0  0  0  0  0  0  0  0  0  0
   -9.1104   -0.4412    1.2617 C   0  0  0  0  0  0  0  0  0  0  0  0
   -9.1104   -0.4426   -1.2616 C   0  0  0  0  0  0  0  0  0  0  0  0
   -4.6418   -2.4776    0.0007 H   0  0  0  0  0  0  0  0  0  0  0  0
   -7.0812   -2.1287    0.0003 H   0  0  0  0  0  0  0  0  0  0  0  0
   -6.4601    2.1619   -0.0006 H   0  0  0  0  0  0  0  0  0  0  0  0
   -4.0180    1.8076   -0.0002 H   0  0  0  0  0  0  0  0  0  0  0  0
  -10.0348    1.7940   -0.0014 H   0  0  0  0  0  0  0  0  0  0  0  0
   -8.5529    2.2410    0.8961 H   0  0  0  0  0  0  0  0  0  0  0  0
   -8.5527    2.2400   -0.8990 H   0  0  0  0  0  0  0  0  0  0  0  0
  -10.2153   -0.3338    1.2785 H   0  0  0  0  0  0  0  0  0  0  0  0
   -8.8761   -1.5235    1.3009 H   0  0  0  0  0  0  0  0  0  0  0  0
   -8.7035    0.0243    2.1822 H   0  0  0  0  0  0  0  0  0  0  0  0
  -10.2153   -0.3352   -1.2786 H   0  0  0  0  0  0  0  0  0  0  0  0
   -8.7035    0.0218   -2.1826 H   0  0  0  0  0  0  0  0  0  0  0  0
   -8.8762   -1.5250   -1.2997 H   0  0  0  0  0  0  0  0  0  0  0  0
  1  2  1  0  0  0  0
  2  3  1  0  0  0  0
  4  3  1  0  0  0  0
  4  6  2  0  0  0  0
  5  1  2  0  0  0  0
  7  8  1  0  0  0  0
  7  3  1  0  0  0  0
  8 17  1  0  0  0  0
  9 18  1  0  0  0  0
  9  8  2  0  0  0  0
 10  9  1  0  0  0  0
 11 10  2  0  0  0  0
 11 12  1  0  0  0  0
 12  7  2  0  0  0  0
 13 10  1  0  0  0  0
 13 15  1  0  0  0  0
 14 13  1  0  0  0  0
 14 22  1  0  0  0  0
 15 24  1  0  0  0  0
 15 25  1  0  0  0  0
 15 26  1  0  0  0  0
 16 13  1  0  0  0  0
 19 11  1  0  0  0  0
 20 12  1  0  0  0  0
 21 14  1  0  0  0  0
 23 14  1  0  0  0  0
 27 16  1  0  0  0  0
 28 16  1  0  0  0  0
 29 16  1  0  0  0  0
M  END
