4,6
 OpenBabel05122313053D

 50 52  0  0  1  0  0  0  0  0999 V2000
    1.2352   -0.7687   -0.4272 C   0  0  1  0  0  3  0  0  0  0  0  0
    2.2895   -1.7349   -0.2694 C   0  0  0  0  0  0  0  0  0  0  0  0
    3.4816   -1.5850   -1.0523 C   0  0  0  0  0  0  0  0  0  0  0  0
    3.6443   -0.5192   -1.9710 C   0  0  0  0  0  3  0  0  0  0  0  0
    2.5781    0.3975   -2.1817 C   0  0  0  0  0  3  0  0  0  0  0  0
    1.4087    0.2716   -1.3956 C   0  0  0  0  0  3  0  0  0  0  0  0
   -0.1041   -0.8127    0.3567 C   0  0  2  0  0  0  0  0  0  0  0  0
    0.0996   -0.8685    1.8822 C   0  0  0  0  0  0  0  0  0  0  0  0
   -0.8301   -2.0939   -0.1370 C   0  0  0  0  0  0  0  0  0  0  0  0
   -1.1616   -3.0356    0.5576 O   0  0  0  0  0  0  0  0  0  0  0  0
   -0.9831   -2.0624   -1.4815 O   0  0  0  0  0  0  0  0  0  0  0  0
   -1.5726   -3.2350   -2.0578 C   0  0  0  0  0  0  0  0  0  0  0  0
   -0.8054    0.4366    0.0913 N   0  0  0  0  0  0  0  0  0  0  0  0
   -2.0795    0.6337    0.1038 C   0  0  0  0  0  0  0  0  0  0  0  0
   -2.5558    2.0409   -0.0660 C   0  0  0  0  0  0  0  0  0  0  0  0
   -1.6263    3.1070   -0.0218 C   0  0  0  0  0  0  0  0  0  0  0  0
   -2.0555    4.4278   -0.1844 C   0  0  0  0  0  0  0  0  0  0  0  0
   -3.4175    4.7116   -0.3924 C   0  0  0  0  0  0  0  0  0  0  0  0
   -4.3490    3.6633   -0.4242 C   0  0  0  0  0  0  0  0  0  0  0  0
   -3.9239    2.3373   -0.2553 C   0  0  0  0  0  0  0  0  0  0  0  0
    2.2317   -2.9330    0.6556 C   0  0  0  0  0  0  0  0  0  0  0  0
   -3.1355   -0.4215    0.2862 C   0  0  0  0  0  0  0  0  0  0  0  0
   -3.5081   -0.8555    1.5736 C   0  0  0  0  0  0  0  0  0  0  0  0
   -4.4935   -1.8401    1.7322 C   0  0  0  0  0  0  0  0  0  0  0  0
   -4.7831   -1.9428   -0.6763 C   0  0  0  0  0  0  0  0  0  0  0  0
   -3.7942   -0.9612   -0.8380 C   0  0  0  0  0  0  0  0  0  0  0  0
   -5.1295   -2.3898    0.6089 C   0  0  0  0  0  0  0  0  0  0  0  0
    4.3063   -2.2926   -0.8895 H   0  0  0  0  0  0  0  0  0  0  0  0
    4.5925   -0.4060   -2.5150 H   0  0  0  0  0  0  0  0  0  0  0  0
    2.6876    1.2373   -2.8804 H   0  0  0  0  0  0  0  0  0  0  0  0
    0.6004    1.0107   -1.4748 H   0  0  0  0  0  0  0  0  0  0  0  0
   -0.8713   -1.0540    2.3755 H   0  0  0  0  0  0  0  0  0  0  0  0
    0.5121    0.1001    2.2177 H   0  0  0  0  0  0  0  0  0  0  0  0
    0.7905   -1.6706    2.1854 H   0  0  0  0  0  0  0  0  0  0  0  0
   -1.6107   -3.0539   -3.1466 H   0  0  0  0  0  0  0  0  0  0  0  0
   -2.5911   -3.3971   -1.6523 H   0  0  0  0  0  0  0  0  0  0  0  0
   -0.9576   -4.1296   -1.8339 H   0  0  0  0  0  0  0  0  0  0  0  0
   -0.5675    2.8779    0.1650 H   0  0  0  0  0  0  0  0  0  0  0  0
   -1.3215    5.2467   -0.1395 H   0  0  0  0  0  0  0  0  0  0  0  0
   -3.7525    5.7525   -0.5191 H   0  0  0  0  0  0  0  0  0  0  0  0
   -5.4177    3.8777   -0.5768 H   0  0  0  0  0  0  0  0  0  0  0  0
   -4.6618    1.5225   -0.2721 H   0  0  0  0  0  0  0  0  0  0  0  0
    2.8456   -3.7520    0.2336 H   0  0  0  0  0  0  0  0  0  0  0  0
    2.6488   -2.6985    1.6554 H   0  0  0  0  0  0  0  0  0  0  0  0
    1.2063   -3.3161    0.7990 H   0  0  0  0  0  0  0  0  0  0  0  0
   -3.0248   -0.4125    2.4569 H   0  0  0  0  0  0  0  0  0  0  0  0
   -4.7676   -2.1789    2.7426 H   0  0  0  0  0  0  0  0  0  0  0  0
   -5.2895   -2.3590   -1.5608 H   0  0  0  0  0  0  0  0  0  0  0  0
   -3.5182   -0.6097   -1.8435 H   0  0  0  0  0  0  0  0  0  0  0  0
   -5.9020   -3.1632    0.7350 H   0  0  0  0  0  0  0  0  0  0  0  0
  1  2  1  0  0  0  0
  1  7  1  6  0  0  0
  2 21  1  0  0  0  0
  3 28  1  0  0  0  0
  3  2  2  0  0  0  0
  4  3  1  0  0  0  0
  5  4  1  0  0  0  0
  5  6  1  0  0  0  0
  6  1  1  0  0  0  0
  7  9  1  6  0  0  0
  7  8  1  0  0  0  0
  8 34  1  0  0  0  0
  8 33  1  0  0  0  0
  8 32  1  0  0  0  0
  9 10  2  0  0  0  0
 11  9  1  0  0  0  0
 12 37  1  0  0  0  0
 12 36  1  0  0  0  0
 12 11  1  0  0  0  0
 13 14  2  0  0  0  0
 13  7  1  0  0  0  0
 14 22  1  0  0  0  0
 15 16  1  0  0  0  0
 15 14  1  0  0  0  0
 16 38  1  0  0  0  0
 17 39  1  0  0  0  0
 17 16  2  0  0  0  0
 18 17  1  0  0  0  0
 19 18  2  0  0  0  0
 19 20  1  0  0  0  0
 20 15  2  0  0  0  0
 21 45  1  0  0  0  0
 21 44  1  0  0  0  0
 22 23  1  0  0  0  0
 23 24  2  0  0  0  0
 23 46  1  0  0  0  0
 24 47  1  0  0  0  0
 25 27  2  0  0  0  0
 26 25  1  0  0  0  0
 26 22  2  0  0  0  0
 27 50  1  0  0  0  0
 27 24  1  0  0  0  0
 29  4  1  0  0  0  0
 30  5  1  0  0  0  0
 31  6  1  0  0  0  0
 35 12  1  0  0  0  0
 40 18  1  0  0  0  0
 41 19  1  0  0  0  0
 42 20  1  0  0  0  0
 43 21  1  0  0  0  0
 48 25  1  0  0  0  0
 49 26  1  0  0  0  0
M  END
