1,7
 OpenBabel05122313053D

 19 18  0  0  0  0  0  0  0  0999 V2000
   -1.7479   -1.5854   -1.4583 C   0  0  0  0  0  3  0  0  0  0  0  0
   -2.9978   -0.9280   -1.5234 C   0  0  0  0  0  3  0  0  0  0  0  0
   -4.1624   -1.2678   -0.6182 C   0  0  0  0  0  0  0  0  0  0  0  0
   -5.0182   -0.0520   -0.2408 C   0  0  0  0  0  0  0  0  0  0  0  0
   -4.2125    1.0387    0.4760 C   0  0  0  0  0  0  0  0  0  0  0  0
   -3.0591    1.5668   -0.3492 C   0  0  0  0  0  3  0  0  0  0  0  0
   -1.8362    2.0124    0.2056 C   0  0  0  0  0  3  0  0  0  0  0  0
   -1.1054   -1.6648   -2.3529 H   0  0  0  0  0  0  0  0  0  0  0  0
   -1.6038   -2.4017   -0.7262 H   0  0  0  0  0  0  0  0  0  0  0  0
   -3.2853   -0.4517   -2.4811 H   0  0  0  0  0  0  0  0  0  0  0  0
   -4.8106   -2.0238   -1.1194 H   0  0  0  0  0  0  0  0  0  0  0  0
   -3.7818   -1.7581    0.3056 H   0  0  0  0  0  0  0  0  0  0  0  0
   -5.4597    0.3797   -1.1678 H   0  0  0  0  0  0  0  0  0  0  0  0
   -5.8768   -0.3696    0.3883 H   0  0  0  0  0  0  0  0  0  0  0  0
   -4.8952    1.8802    0.7382 H   0  0  0  0  0  0  0  0  0  0  0  0
   -3.8305    0.6463    1.4456 H   0  0  0  0  0  0  0  0  0  0  0  0
   -3.3561    1.9749   -1.3352 H   0  0  0  0  0  0  0  0  0  0  0  0
   -1.2429    2.7841   -0.3141 H   0  0  0  0  0  0  0  0  0  0  0  0
   -1.6955    2.0093    1.3027 H   0  0  0  0  0  0  0  0  0  0  0  0
  1  9  1  0  0  0  0
  2  1  1  0  0  0  0
  2  3  1  0  0  0  0
  3  4  1  0  0  0  0
  3 12  1  0  0  0  0
  4 14  1  0  0  0  0
  4  5  1  0  0  0  0
  5 15  1  0  0  0  0
  5 16  1  0  0  0  0
  6  7  1  0  0  0  0
  6  5  1  0  0  0  0
  7 19  1  0  0  0  0
  8  1  1  0  0  0  0
 10  2  1  0  0  0  0
 11  3  1  0  0  0  0
 13  4  1  0  0  0  0
 17  6  1  0  0  0  0
 18  7  1  0  0  0  0
M  END
