1,2
 OpenBabel05122313053D

 24 24  0  0  1  0  0  0  0  0999 V2000
   -0.8477   -0.2214   -1.4082 C   0  0  0  0  0  3  0  0  0  0  0  0
   -1.0843    0.1961    0.8826 C   0  0  0  0  0  3  0  0  0  0  0  0
   -1.9246   -0.3052   -0.3067 C   0  0  0  0  0  0  0  0  0  0  0  0
   -3.2448    0.4567   -0.6417 C   0  0  2  0  0  0  0  0  0  0  0  0
   -3.9543    0.8609    0.6400 C   0  0  0  0  0  0  0  0  0  0  0  0
   -4.7863   -0.2215    1.3142 C   0  0  0  0  0  0  0  0  0  0  0  0
   -5.6855   -0.9803    0.3223 C   0  0  0  0  0  0  0  0  0  0  0  0
   -4.8815   -1.5011   -0.8741 C   0  0  0  0  0  0  0  0  0  0  0  0
   -4.1531   -0.3563   -1.5892 C   0  0  0  0  0  0  0  0  0  0  0  0
   -3.8108    1.9748    1.1330 O   0  0  0  0  0  0  0  0  0  0  0  0
   -1.0015    0.6371   -2.0935 H   0  0  0  0  0  0  0  0  0  0  0  0
   -0.7535   -1.1358   -2.0307 H   0  0  0  0  0  0  0  0  0  0  0  0
   -1.1560   -0.4416    1.7905 H   0  0  0  0  0  0  0  0  0  0  0  0
   -1.3383    1.2300    1.1915 H   0  0  0  0  0  0  0  0  0  0  0  0
   -2.1788   -1.3726   -0.1283 H   0  0  0  0  0  0  0  0  0  0  0  0
   -2.9537    1.4071   -1.1327 H   0  0  0  0  0  0  0  0  0  0  0  0
   -4.0585   -0.9340    1.7676 H   0  0  0  0  0  0  0  0  0  0  0  0
   -5.3542    0.2414    2.1448 H   0  0  0  0  0  0  0  0  0  0  0  0
   -6.2061   -1.8118    0.8417 H   0  0  0  0  0  0  0  0  0  0  0  0
   -6.4818   -0.2939   -0.0423 H   0  0  0  0  0  0  0  0  0  0  0  0
   -4.1458   -2.2576   -0.5214 H   0  0  0  0  0  0  0  0  0  0  0  0
   -5.5488   -2.0305   -1.5859 H   0  0  0  0  0  0  0  0  0  0  0  0
   -4.9105    0.3226   -2.0396 H   0  0  0  0  0  0  0  0  0  0  0  0
   -3.5405   -0.7424   -2.4318 H   0  0  0  0  0  0  0  0  0  0  0  0
  1  3  1  0  0  0  0
  2 14  1  0  0  0  0
  2 13  1  0  0  0  0
  3 15  1  0  0  0  0
  3  2  1  0  0  0  0
  4 16  1  6  0  0  0
  4  3  1  0  0  0  0
  4  5  1  0  0  0  0
  5 10  2  0  0  0  0
  5  6  1  0  0  0  0
  6 17  1  0  0  0  0
  6 18  1  0  0  0  0
  7 19  1  0  0  0  0
  7  6  1  0  0  0  0
  8 21  1  0  0  0  0
  8  7  1  0  0  0  0
  9  8  1  0  0  0  0
  9  4  1  0  0  0  0
 11  1  1  0  0  0  0
 12  1  1  0  0  0  0
 20  7  1  0  0  0  0
 22  8  1  0  0  0  0
 23  9  1  0  0  0  0
 24  9  1  0  0  0  0
M  END
