5,9
 OpenBabel05122313053D

 41 43  0  0  1  0  0  0  0  0999 V2000
   -2.8905    1.8239   -1.3887 O   0  0  0  0  0  0  0  0  0  0  0  0
   -3.5527   -0.7086   -1.5257 O   0  0  0  0  0  0  0  0  0  0  0  0
    4.8139    1.0693   -1.3356 O   0  0  0  0  0  0  0  0  0  0  0  0
    0.4991    0.2782   -0.8503 C   0  0  2  0  0  3  0  0  0  0  0  0
   -0.5301    1.2678   -0.9505 C   0  0  0  0  0  3  0  0  0  0  0  0
   -1.8887    0.9339   -1.2092 C   0  0  2  0  0  3  0  0  0  0  0  0
   -2.2499   -0.4570   -1.2916 C   0  0  0  0  0  0  0  0  0  0  0  0
   -1.2496   -1.4500   -1.1070 C   0  0  0  0  0  0  0  0  0  0  0  0
    0.1200   -1.0963   -0.8880 C   0  0  1  0  0  3  0  0  0  0  0  0
    1.1568   -2.1899   -0.7675 C   0  0  0  0  0  0  0  0  0  0  0  0
    2.4799   -1.7123   -0.1651 C   0  0  0  0  0  0  0  0  0  0  0  0
    2.9653   -0.4477   -0.8809 C   0  0  1  0  0  0  0  0  0  0  0  0
    1.9454    0.6980   -0.6854 C   0  0  2  0  0  0  0  0  0  0  0  0
   -2.6850    3.1510   -0.9278 C   0  0  0  0  0  0  0  0  0  0  0  0
   -4.0215   -2.0422   -1.3724 C   0  0  0  0  0  0  0  0  0  0  0  0
    2.3275    1.3079    0.6960 C   0  0  0  0  0  0  0  0  0  0  0  0
    3.8223    0.9652    0.9126 C   0  0  0  0  0  0  0  0  0  0  0  0
    4.2841    0.1758   -0.3427 C   0  0  2  0  0  0  0  0  0  0  0  0
    5.4052   -0.8182   -0.0702 C   0  0  0  0  0  0  0  0  0  0  0  0
   -0.2472    2.3245   -0.8535 H   0  0  0  0  0  0  0  0  0  0  0  0
   -1.5240   -2.5116   -1.1079 H   0  0  0  0  0  0  0  0  0  0  0  0
    1.3407   -2.5857   -1.7920 H   0  0  0  0  0  0  0  0  0  0  0  0
    0.7366   -3.0309   -0.1793 H   0  0  0  0  0  0  0  0  0  0  0  0
    3.2326   -2.5203   -0.2539 H   0  0  0  0  0  0  0  0  0  0  0  0
    2.3457   -1.5219    0.9208 H   0  0  0  0  0  0  0  0  0  0  0  0
    3.1086   -0.6783   -1.9584 H   0  0  0  0  0  0  0  0  0  0  0  0
    2.1332    1.4613   -1.4750 H   0  0  0  0  0  0  0  0  0  0  0  0
    1.6965    0.8387    1.4739 H   0  0  0  0  0  0  0  0  0  0  0  0
    2.1128    2.3938    0.7410 H   0  0  0  0  0  0  0  0  0  0  0  0
    3.9502    0.3487    1.8247 H   0  0  0  0  0  0  0  0  0  0  0  0
    4.4714    1.8547    1.0352 H   0  0  0  0  0  0  0  0  0  0  0  0
    6.3076   -0.2713    0.2666 H   0  0  0  0  0  0  0  0  0  0  0  0
    5.1250   -1.5473    0.7132 H   0  0  0  0  0  0  0  0  0  0  0  0
    5.6673   -1.3679   -0.9963 H   0  0  0  0  0  0  0  0  0  0  0  0
    4.1587    1.7779   -1.4699 H   0  0  0  0  0  0  0  0  0  0  0  0
   -3.6552    3.6695   -1.0339 H   0  0  0  0  0  0  0  0  0  0  0  0
   -1.9241    3.6907   -1.5344 H   0  0  0  0  0  0  0  0  0  0  0  0
   -3.8204   -2.4215   -0.3479 H   0  0  0  0  0  0  0  0  0  0  0  0
   -5.1133   -2.0031   -1.5365 H   0  0  0  0  0  0  0  0  0  0  0  0
   -2.3766    3.1572    0.1408 H   0  0  0  0  0  0  0  0  0  0  0  0
   -3.5669   -2.7268   -2.1215 H   0  0  0  0  0  0  0  0  0  0  0  0
  1 14  1  0  0  0  0
  2 15  1  0  0  0  0
  2  7  1  0  0  0  0
  4  5  1  1  0  0  0
  4 13  1  0  0  0  0
  5 20  1  0  0  0  0
  6  1  1  6  0  0  0
  6  5  1  0  0  0  0
  7  6  1  0  0  0  0
  7  8  2  0  0  0  0
  9  8  1  6  0  0  0
  9  4  1  0  0  0  0
  9 10  1  0  0  0  0
 10 23  1  0  0  0  0
 10 11  1  0  0  0  0
 11 25  1  0  0  0  0
 12 26  1  6  0  0  0
 12 13  1  0  0  0  0
 12 18  1  0  0  0  0
 12 11  1  0  0  0  0
 13 27  1  6  0  0  0
 13 16  1  0  0  0  0
 14 40  1  0  0  0  0
 15 38  1  0  0  0  0
 16 29  1  0  0  0  0
 16 17  1  0  0  0  0
 16 28  1  0  0  0  0
 17 31  1  0  0  0  0
 17 30  1  0  0  0  0
 18  3  1  6  0  0  0
 18 19  1  0  0  0  0
 18 17  1  0  0  0  0
 19 32  1  0  0  0  0
 19 33  1  0  0  0  0
 21  8  1  0  0  0  0
 22 10  1  0  0  0  0
 24 11  1  0  0  0  0
 34 19  1  0  0  0  0
 35  3  1  0  0  0  0
 36 14  1  0  0  0  0
 37 14  1  0  0  0  0
 39 15  1  0  0  0  0
 41 15  1  0  0  0  0
M  END
