3,13
 OpenBabel05122313053D

 34 36  0  0  0  0  0  0  0  0999 V2000
   -1.1568   -2.0715   -0.6942 N   0  0  0  0  0  0  0  0  0  0  0  0
   -3.1984   -1.1533    0.2810 N   0  0  0  0  0  0  0  0  0  0  0  0
    0.0392   -1.6857   -1.3459 C   0  0  0  0  0  2  0  0  0  0  0  0
    0.8719   -2.7701   -1.7360 C   0  0  0  0  0  0  0  0  0  0  0  0
    1.8083   -2.5199   -2.2505 H   0  0  0  0  0  0  0  0  0  0  0  0
    0.5607   -4.0992   -1.4676 C   0  0  0  0  0  0  0  0  0  0  0  0
    1.2350   -4.9051   -1.7930 H   0  0  0  0  0  0  0  0  0  0  0  0
   -0.6172   -4.4048   -0.7450 C   0  0  0  0  0  0  0  0  0  0  0  0
   -0.8801   -5.4361   -0.4750 H   0  0  0  0  0  0  0  0  0  0  0  0
   -1.4504   -3.3719   -0.3622 C   0  0  0  0  0  0  0  0  0  0  0  0
   -2.3586   -3.5437    0.2306 H   0  0  0  0  0  0  0  0  0  0  0  0
   -1.9286   -0.9467   -0.3277 C   0  0  0  0  0  0  0  0  0  0  0  0
   -1.3972    0.2986   -0.6412 C   0  0  0  0  0  3  0  0  0  0  0  0
   -2.2423    1.5059   -0.4874 C   0  0  0  0  0  0  0  0  0  0  0  0
   -3.4348    1.6378   -1.2396 C   0  0  0  0  0  0  0  0  0  0  0  0
   -3.7186    0.8381   -1.9420 H   0  0  0  0  0  0  0  0  0  0  0  0
   -4.2378    2.7811   -1.1194 C   0  0  0  0  0  0  0  0  0  0  0  0
   -5.1520    2.8720   -1.7256 H   0  0  0  0  0  0  0  0  0  0  0  0
   -3.8760    3.8092   -0.2341 C   0  0  0  0  0  0  0  0  0  0  0  0
   -4.5065    4.7057   -0.1392 H   0  0  0  0  0  0  0  0  0  0  0  0
   -2.6999    3.6871    0.5242 C   0  0  0  0  0  0  0  0  0  0  0  0
   -2.4090    4.4867    1.2225 H   0  0  0  0  0  0  0  0  0  0  0  0
   -1.8876    2.5526    0.3928 C   0  0  0  0  0  0  0  0  0  0  0  0
   -0.9698    2.4574    0.9873 H   0  0  0  0  0  0  0  0  0  0  0  0
   -4.1856   -1.8962   -0.3275 C   0  0  0  0  0  3  0  0  0  0  0  0
   -3.9107   -2.3696   -1.2793 H   0  0  0  0  0  0  0  0  0  0  0  0
   -5.4551   -1.9799    0.2232 C   0  0  0  0  0  0  0  0  0  0  0  0
   -6.2167   -2.5817   -0.2923 H   0  0  0  0  0  0  0  0  0  0  0  0
   -5.7582   -1.2672    1.4002 C   0  0  0  0  0  0  0  0  0  0  0  0
   -6.7660   -1.3109    1.8369 H   0  0  0  0  0  0  0  0  0  0  0  0
   -4.7459   -0.5047    2.0018 C   0  0  0  0  0  0  0  0  0  0  0  0
   -4.9257    0.0596    2.9272 H   0  0  0  0  0  0  0  0  0  0  0  0
   -3.4710   -0.4785    1.4469 C   0  0  0  0  0  0  0  0  0  0  0  0
   -2.6213    0.0510    1.8951 H   0  0  0  0  0  0  0  0  0  0  0  0
  1 10  1  0  0  0  0
  1 12  1  0  0  0  0
  2 33  1  0  0  0  0
  3  1  1  0  0  0  0
  4  6  2  0  0  0  0
  4  3  1  0  0  0  0
  5  4  1  0  0  0  0
  6  8  1  0  0  0  0
  7  6  1  0  0  0  0
  8  9  1  0  0  0  0
  8 10  2  0  0  0  0
 10 11  1  0  0  0  0
 12  2  1  0  0  0  0
 13 14  1  0  0  0  0
 13 12  2  0  0  0  0
 14 23  1  0  0  0  0
 15 17  1  0  0  0  0
 15 14  2  0  0  0  0
 16 15  1  0  0  0  0
 17 19  2  0  0  0  0
 18 17  1  0  0  0  0
 19 20  1  0  0  0  0
 19 21  1  0  0  0  0
 21 22  1  0  0  0  0
 23 21  2  0  0  0  0
 23 24  1  0  0  0  0
 25 27  1  0  0  0  0
 25  2  1  0  0  0  0
 26 25  1  0  0  0  0
 27 29  2  0  0  0  0
 28 27  1  0  0  0  0
 29 30  1  0  0  0  0
 29 31  1  0  0  0  0
 31 32  1  0  0  0  0
 33 34  1  0  0  0  0
 33 31  2  0  0  0  0
M  END
