26
 OpenBabel05122313053D

 52 55  0  0  1  0  0  0  0  0999 V2000
    0.3979   -1.3166    1.8221 N   0  0  0  0  0  0  0  0  0  0  0  0
   -0.9772   -1.4645    0.1144 N   0  0  0  0  0  0  0  0  0  0  0  0
    2.4764   -0.1517    1.5878 C   0  0  1  0  0  3  0  0  0  0  0  0
    3.4785   -0.6221    0.6509 C   0  0  2  0  0  3  0  0  0  0  0  0
    3.9443    0.2994   -0.3722 C   0  0  0  0  0  0  0  0  0  0  0  0
    4.6347   -0.0928   -1.1350 H   0  0  0  0  0  0  0  0  0  0  0  0
    3.4344    1.6018   -0.5221 C   0  0  0  0  0  0  0  0  0  0  0  0
    2.4099    2.0147    0.4188 C   0  0  0  0  0  0  0  0  0  0  0  0
    1.9104    2.9816    0.2542 H   0  0  0  0  0  0  0  0  0  0  0  0
    1.9896    1.2245    1.5259 C   0  0  0  0  0  0  0  0  0  0  0  0
    4.0356   -2.0202    0.6245 C   0  0  0  0  0  0  0  0  0  0  0  0
    3.6844   -2.6447    1.4657 H   0  0  0  0  0  0  0  0  0  0  0  0
    5.1438   -1.9946    0.6602 H   0  0  0  0  0  0  0  0  0  0  0  0
    3.7222   -2.5126   -0.3215 H   0  0  0  0  0  0  0  0  0  0  0  0
    3.7676    2.4832   -1.6892 C   0  0  0  0  0  0  0  0  0  0  0  0
    4.4791    1.9895   -2.3772 H   0  0  0  0  0  0  0  0  0  0  0  0
    4.2055    3.4471   -1.3570 H   0  0  0  0  0  0  0  0  0  0  0  0
    2.8337    2.7021   -2.2514 H   0  0  0  0  0  0  0  0  0  0  0  0
    0.9783    1.7605    2.5044 C   0  0  0  0  0  0  0  0  0  0  0  0
    0.5530    2.7139    2.1389 H   0  0  0  0  0  0  0  0  0  0  0  0
    1.4542    1.9543    3.4894 H   0  0  0  0  0  0  0  0  0  0  0  0
    0.1393    1.0555    2.6635 H   0  0  0  0  0  0  0  0  0  0  0  0
    1.6917   -1.1243    2.4556 C   0  0  0  0  0  0  0  0  0  0  0  0
    2.2208   -2.0976    2.5501 H   0  0  0  0  0  0  0  0  0  0  0  0
    1.5559   -0.7291    3.4858 H   0  0  0  0  0  0  0  0  0  0  0  0
    0.1889   -0.9384    0.5147 C   0  0  0  0  0  2  0  0  0  0  0  0
   -0.5695   -2.3114    2.2775 C   0  0  0  0  0  0  0  0  0  0  0  0
   -0.9645   -2.0716    3.2863 H   0  0  0  0  0  0  0  0  0  0  0  0
   -0.0897   -3.3170    2.3297 H   0  0  0  0  0  0  0  0  0  0  0  0
   -1.6454   -2.2309    1.1788 C   0  0  0  0  0  0  0  0  0  0  0  0
   -1.9652   -3.2238    0.8022 H   0  0  0  0  0  0  0  0  0  0  0  0
   -2.5547   -1.6884    1.5151 H   0  0  0  0  0  0  0  0  0  0  0  0
   -1.6476   -1.2354   -1.1635 C   0  0  0  0  0  0  0  0  0  0  0  0
   -1.5874   -2.1634   -1.7701 H   0  0  0  0  0  0  0  0  0  0  0  0
   -1.0667   -0.4503   -1.6938 H   0  0  0  0  0  0  0  0  0  0  0  0
   -3.0982   -0.8481   -0.9644 C   0  0  0  0  0  0  0  0  0  0  0  0
   -3.4572    0.3520   -0.2540 C   0  0  0  0  0  0  0  0  0  0  0  0
   -2.4881    1.2957    0.2059 C   0  0  0  0  0  0  0  0  0  0  0  0
   -1.4276    1.1627   -0.0523 H   0  0  0  0  0  0  0  0  0  0  0  0
   -2.8775    2.4221    0.9179 C   0  0  0  0  0  0  0  0  0  0  0  0
   -2.1140    3.1433    1.2483 H   0  0  0  0  0  0  0  0  0  0  0  0
   -4.2470    2.6661    1.2008 C   0  0  0  0  0  0  0  0  0  0  0  0
   -4.5401    3.5634    1.7671 H   0  0  0  0  0  0  0  0  0  0  0  0
   -5.2143    1.7841    0.7441 C   0  0  0  0  0  0  0  0  0  0  0  0
   -6.2816    1.9742    0.9384 H   0  0  0  0  0  0  0  0  0  0  0  0
   -4.8541    0.6173    0.0071 C   0  0  0  0  0  0  0  0  0  0  0  0
   -5.8435   -0.2849   -0.4846 C   0  0  0  0  0  0  0  0  0  0  0  0
   -6.9045   -0.0654   -0.2873 H   0  0  0  0  0  0  0  0  0  0  0  0
   -5.4762   -1.4126   -1.1994 C   0  0  0  0  0  0  0  0  0  0  0  0
   -6.2431   -2.1021   -1.5834 H   0  0  0  0  0  0  0  0  0  0  0  0
   -4.1032   -1.6954   -1.4215 C   0  0  0  0  0  0  0  0  0  0  0  0
   -3.8198   -2.6129   -1.9617 H   0  0  0  0  0  0  0  0  0  0  0  0
  1 27  1  0  0  0  0
  1 23  1  0  0  0  0
  2 26  1  0  0  0  0
  2 30  1  0  0  0  0
  3 23  1  6  0  0  0
  4 11  1  6  0  0  0
  4  3  1  0  0  0  0
  5  4  1  0  0  0  0
  6  5  1  0  0  0  0
  7  5  2  0  0  0  0
  7  8  1  0  0  0  0
  8 10  2  0  0  0  0
  9  8  1  0  0  0  0
 10  3  1  0  0  0  0
 10 19  1  0  0  0  0
 11 13  1  0  0  0  0
 11 12  1  0  0  0  0
 14 11  1  0  0  0  0
 15 17  1  0  0  0  0
 15  7  1  0  0  0  0
 16 15  1  0  0  0  0
 18 15  1  0  0  0  0
 19 22  1  0  0  0  0
 19 21  1  0  0  0  0
 20 19  1  0  0  0  0
 23 24  1  0  0  0  0
 23 25  1  0  0  0  0
 26  1  1  0  0  0  0
 27 29  1  0  0  0  0
 27 28  1  0  0  0  0
 30 32  1  0  0  0  0
 30 27  1  0  0  0  0
 31 30  1  0  0  0  0
 33 36  1  0  0  0  0
 33  2  1  0  0  0  0
 34 33  1  0  0  0  0
 35 33  1  0  0  0  0
 36 37  1  0  0  0  0
 37 46  2  0  0  0  0
 37 38  1  0  0  0  0
 38 40  2  0  0  0  0
 39 38  1  0  0  0  0
 40 42  1  0  0  0  0
 40 41  1  0  0  0  0
 42 43  1  0  0  0  0
 44 45  1  0  0  0  0
 44 42  2  0  0  0  0
 46 44  1  0  0  0  0
 47 48  1  0  0  0  0
 47 46  1  0  0  0  0
 49 47  2  0  0  0  0
 50 49  1  0  0  0  0
 51 49  1  0  0  0  0
 51 36  2  0  0  0  0
 52 51  1  0  0  0  0
M  END
