3,5
 OpenBabel05122313053D

 35 36  0  0  1  0  0  0  0  0999 V2000
    0.5402   -0.2130    1.1409 C   0  0  0  0  0  0  0  0  0  0  0  0
   -0.0895    1.0542    0.8647 C   0  0  2  0  0  3  0  0  0  0  0  0
   -1.4512    1.2258    1.2930 C   0  0  0  0  0  3  0  0  0  0  0  0
   -2.1814    0.2114    1.9626 C   0  0  0  0  0  3  0  0  0  0  0  0
   -1.5631   -1.0544    2.1589 C   0  0  0  0  0  3  0  0  0  0  0  0
   -0.2135   -1.2563    1.7742 C   0  0  0  0  0  0  0  0  0  0  0  0
    1.9766   -0.4318    0.8260 C   0  0  1  0  0  0  0  0  0  0  0  0
    2.8675   -1.1745    1.8250 C   0  0  0  0  0  0  0  0  0  0  0  0
    2.5942   -1.7965    0.5020 C   0  0  2  0  0  0  0  0  0  0  0  0
    3.6707   -1.8435   -0.3692 O   0  0  0  0  0  0  0  0  0  0  0  0
    3.3070   -1.9824   -1.7337 C   0  0  0  0  0  0  0  0  0  0  0  0
    0.7290    2.4679   -0.1342 Si  0  0  0  0  0  0  0  0  0  0  0  0
   -0.5807    3.7993   -0.4317 C   0  0  0  0  0  0  0  0  0  0  0  0
    2.1476    3.2159    0.8764 C   0  0  0  0  0  0  0  0  0  0  0  0
    1.3394    1.8680   -1.8201 C   0  0  0  0  0  0  0  0  0  0  0  0
   -1.9643    2.1720    1.0713 H   0  0  0  0  0  0  0  0  0  0  0  0
   -3.2302    0.3729    2.2443 H   0  0  0  0  0  0  0  0  0  0  0  0
   -2.1308   -1.8834    2.6043 H   0  0  0  0  0  0  0  0  0  0  0  0
    0.2412   -2.2435    1.9324 H   0  0  0  0  0  0  0  0  0  0  0  0
    2.4775    0.3948    0.3047 H   0  0  0  0  0  0  0  0  0  0  0  0
    3.8811   -0.7741    1.9764 H   0  0  0  0  0  0  0  0  0  0  0  0
    2.3875   -1.5944    2.7223 H   0  0  0  0  0  0  0  0  0  0  0  0
    1.8930   -2.6546    0.4378 H   0  0  0  0  0  0  0  0  0  0  0  0
    4.2475   -2.0652   -2.3110 H   0  0  0  0  0  0  0  0  0  0  0  0
    2.7231   -1.1102   -2.1037 H   0  0  0  0  0  0  0  0  0  0  0  0
    2.6888   -2.8919   -1.9080 H   0  0  0  0  0  0  0  0  0  0  0  0
   -1.4368    3.4040   -1.0152 H   0  0  0  0  0  0  0  0  0  0  0  0
   -0.1283    4.6244   -1.0197 H   0  0  0  0  0  0  0  0  0  0  0  0
   -0.9652    4.2385    0.5114 H   0  0  0  0  0  0  0  0  0  0  0  0
    2.9588    2.4885    1.0791 H   0  0  0  0  0  0  0  0  0  0  0  0
    1.7771    3.5872    1.8538 H   0  0  0  0  0  0  0  0  0  0  0  0
    2.5919    4.0750    0.3323 H   0  0  0  0  0  0  0  0  0  0  0  0
    0.4899    1.4713   -2.4112 H   0  0  0  0  0  0  0  0  0  0  0  0
    2.1055    1.0714   -1.7553 H   0  0  0  0  0  0  0  0  0  0  0  0
    1.7821    2.7191   -2.3783 H   0  0  0  0  0  0  0  0  0  0  0  0
  1  6  2  0  0  0  0
  2 12  1  6  0  0  0
  2  1  1  0  0  0  0
  2  3  1  0  0  0  0
  3  4  1  0  0  0  0
  4  5  1  0  0  0  0
  4 17  1  0  0  0  0
  5 18  1  0  0  0  0
  6 19  1  0  0  0  0
  6  5  1  0  0  0  0
  7 20  1  6  0  0  0
  7  1  1  0  0  0  0
  7  8  1  0  0  0  0
  8 21  1  0  0  0  0
  8 22  1  0  0  0  0
  9 23  1  6  0  0  0
  9  7  1  0  0  0  0
  9  8  1  0  0  0  0
 10  9  1  0  0  0  0
 11 10  1  0  0  0  0
 12 14  1  0  0  0  0
 13 12  1  0  0  0  0
 13 29  1  0  0  0  0
 14 30  1  0  0  0  0
 14 31  1  0  0  0  0
 15 34  1  0  0  0  0
 15 12  1  0  0  0  0
 16  3  1  0  0  0  0
 24 11  1  0  0  0  0
 25 11  1  0  0  0  0
 26 11  1  0  0  0  0
 27 13  1  0  0  0  0
 28 13  1  0  0  0  0
 32 14  1  0  0  0  0
 33 15  1  0  0  0  0
 35 15  1  0  0  0  0
M  END
