2,13
 OpenBabel05122313053D

 53 56  0  0  1  0  0  0  0  0999 V2000
    0.0024    2.7202   -0.0004 Si  0  0  2  0  0  0  0  0  0  0  0  0
    1.3809    1.4570    0.1640 C   0  0  1  0  0  3  0  0  0  0  0  0
    1.4946    0.8275    1.4546 C   0  0  0  0  0  0  0  0  0  0  0  0
    2.2391   -0.3808    1.2885 C   0  0  0  0  0  0  0  0  0  0  0  0
    2.5924   -0.5264   -0.0838 C   0  0  0  0  0  0  0  0  0  0  0  0
    2.0318    0.5969   -0.7790 C   0  0  0  0  0  0  0  0  0  0  0  0
    3.4667   -1.5962   -0.6943 C   0  0  0  0  0  0  0  0  0  0  0  0
    4.9013   -1.0618   -0.8671 C   0  0  0  0  0  0  0  0  0  0  0  0
    3.4453   -2.9053    0.1021 C   0  0  0  0  0  0  0  0  0  0  0  0
    0.9762    1.4429    2.7363 C   0  0  0  0  0  0  0  0  0  0  0  0
    0.9755    2.9851    2.6831 C   0  0  0  0  0  0  0  0  0  0  0  0
   -0.0222    3.6102    1.6789 C   0  0  0  0  0  0  0  0  0  0  0  0
   -1.3784    1.4597   -0.1656 C   0  0  1  0  0  3  0  0  0  0  0  0
   -1.4909    0.8298   -1.4562 C   0  0  1  0  0  3  0  0  0  0  0  0
   -2.2380   -0.3770   -1.2908 C   0  0  0  0  0  0  0  0  0  0  0  0
   -2.5937   -0.5215    0.0810 C   0  0  0  0  0  0  0  0  0  0  0  0
   -2.0327    0.6014    0.7765 C   0  0  0  0  0  3  0  0  0  0  0  0
   -3.4704   -1.5899    0.6906 C   0  0  0  0  0  0  0  0  0  0  0  0
   -4.9053   -1.0546    0.8581 C   0  0  0  0  0  0  0  0  0  0  0  0
   -3.4471   -2.9003   -0.1035 C   0  0  0  0  0  0  0  0  0  0  0  0
   -0.9705    1.4443   -2.7376 C   0  0  0  0  0  0  0  0  0  0  0  0
   -0.9682    2.9865   -2.6846 C   0  0  0  0  0  0  0  0  0  0  0  0
    0.0291    3.6107   -1.6794 C   0  0  0  0  0  0  0  0  0  0  0  0
    2.4895   -1.0850    2.0903 H   0  0  0  0  0  0  0  0  0  0  0  0
    2.1135    0.7648   -1.8613 H   0  0  0  0  0  0  0  0  0  0  0  0
   -2.4884   -1.0811   -2.0928 H   0  0  0  0  0  0  0  0  0  0  0  0
   -2.1157    0.7698    1.8587 H   0  0  0  0  0  0  0  0  0  0  0  0
    3.0517   -1.8063   -1.7040 H   0  0  0  0  0  0  0  0  0  0  0  0
    5.5402   -1.8135   -1.3744 H   0  0  0  0  0  0  0  0  0  0  0  0
    4.9192   -0.1321   -1.4705 H   0  0  0  0  0  0  0  0  0  0  0  0
    5.3593   -0.8332    0.1178 H   0  0  0  0  0  0  0  0  0  0  0  0
    4.0365   -3.6853   -0.4178 H   0  0  0  0  0  0  0  0  0  0  0  0
    3.8887   -2.7737    1.1113 H   0  0  0  0  0  0  0  0  0  0  0  0
    2.4110   -3.2826    0.2261 H   0  0  0  0  0  0  0  0  0  0  0  0
   -3.0586   -1.7982    1.7019 H   0  0  0  0  0  0  0  0  0  0  0  0
   -4.9246   -0.1238    1.4599 H   0  0  0  0  0  0  0  0  0  0  0  0
   -5.3602   -0.8275   -0.1286 H   0  0  0  0  0  0  0  0  0  0  0  0
   -5.5461   -1.8051    1.3647 H   0  0  0  0  0  0  0  0  0  0  0  0
   -2.4126   -3.2782   -0.2239 H   0  0  0  0  0  0  0  0  0  0  0  0
   -4.0401   -3.6792    0.4160 H   0  0  0  0  0  0  0  0  0  0  0  0
   -3.8874   -2.7703   -1.1142 H   0  0  0  0  0  0  0  0  0  0  0  0
    1.6153    1.0986    3.5750 H   0  0  0  0  0  0  0  0  0  0  0  0
   -0.0446    1.0736    2.9817 H   0  0  0  0  0  0  0  0  0  0  0  0
    2.0044    3.3174    2.4273 H   0  0  0  0  0  0  0  0  0  0  0  0
    0.7655    3.3781    3.7001 H   0  0  0  0  0  0  0  0  0  0  0  0
   -1.0609    3.5362    2.0689 H   0  0  0  0  0  0  0  0  0  0  0  0
    0.1843    4.6944    1.5603 H   0  0  0  0  0  0  0  0  0  0  0  0
    0.0502    1.0739   -2.9820 H   0  0  0  0  0  0  0  0  0  0  0  0
   -1.6093    1.1006   -3.5768 H   0  0  0  0  0  0  0  0  0  0  0  0
   -0.7567    3.3791   -3.7015 H   0  0  0  0  0  0  0  0  0  0  0  0
   -1.9970    3.3199   -2.4299 H   0  0  0  0  0  0  0  0  0  0  0  0
    1.0681    3.5363   -2.0685 H   0  0  0  0  0  0  0  0  0  0  0  0
   -0.1769    4.6950   -1.5607 H   0  0  0  0  0  0  0  0  0  0  0  0
  1 23  1  6  0  0  0
  1  2  1  0  0  0  0
  1 12  1  0  0  0  0
  2  6  1  6  0  0  0
  2  3  1  0  0  0  0
  3 10  1  0  0  0  0
  4  3  2  0  0  0  0
  4 24  1  0  0  0  0
  5  4  1  0  0  0  0
  6  5  2  0  0  0  0
  7  5  1  0  0  0  0
  7  9  1  0  0  0  0
  8  7  1  0  0  0  0
  8 31  1  0  0  0  0
  9 34  1  0  0  0  0
  9 33  1  0  0  0  0
 10 43  1  0  0  0  0
 10 42  1  0  0  0  0
 11 10  1  0  0  0  0
 11 45  1  0  0  0  0
 12 46  1  0  0  0  0
 12 11  1  0  0  0  0
 13  1  1  0  0  0  0
 13 17  1  1  0  0  0
 14 15  1  6  0  0  0
 14 13  1  0  0  0  0
 15 16  2  0  0  0  0
 16 18  1  0  0  0  0
 16 17  1  0  0  0  0
 17 27  1  0  0  0  0
 18 19  1  0  0  0  0
 18 35  1  0  0  0  0
 19 38  1  0  0  0  0
 19 36  1  0  0  0  0
 20 40  1  0  0  0  0
 20 18  1  0  0  0  0
 21 22  1  0  0  0  0
 21 14  1  0  0  0  0
 22 51  1  0  0  0  0
 22 23  1  0  0  0  0
 23 53  1  0  0  0  0
 25  6  1  0  0  0  0
 26 15  1  0  0  0  0
 28  7  1  0  0  0  0
 29  8  1  0  0  0  0
 30  8  1  0  0  0  0
 32  9  1  0  0  0  0
 37 19  1  0  0  0  0
 39 20  1  0  0  0  0
 41 20  1  0  0  0  0
 44 11  1  0  0  0  0
 47 12  1  0  0  0  0
 48 21  1  0  0  0  0
 49 21  1  0  0  0  0
 50 22  1  0  0  0  0
 52 23  1  0  0  0  0
M  END
