2,14
 OpenBabel05122313053D

 59 62  0  0  1  0  0  0  0  0999 V2000
   -0.0004    2.8067   -0.0003 Si  0  0  1  0  0  0  0  0  0  0  0  0
    1.3568    1.5430   -0.2752 C   0  0  2  0  0  3  0  0  0  0  0  0
    1.3611    0.9209   -1.5738 C   0  0  0  0  0  0  0  0  0  0  0  0
    2.1360   -0.2729   -1.4808 C   0  0  0  0  0  0  0  0  0  0  0  0
    2.6299   -0.4148   -0.1512 C   0  0  0  0  0  0  0  0  0  0  0  0
    2.1083    0.6908    0.6002 C   0  0  0  0  0  0  0  0  0  0  0  0
    3.6823   -1.4301    0.2847 C   0  0  0  0  0  0  0  0  0  0  0  0
    3.2886   -2.8604   -0.1373 C   0  0  0  0  0  0  0  0  0  0  0  0
    4.9982   -1.0358   -0.4311 C   0  0  0  0  0  0  0  0  0  0  0  0
    3.9128   -1.3761    1.8050 C   0  0  0  0  0  0  0  0  0  0  0  0
    0.7218    1.5291   -2.8031 C   0  0  0  0  0  0  0  0  0  0  0  0
    0.7340    3.0715   -2.7590 C   0  0  0  0  0  0  0  0  0  0  0  0
   -0.1625    3.7037   -1.6679 C   0  0  0  0  0  0  0  0  0  0  0  0
   -1.3573    1.5426    0.2746 C   0  0  2  0  0  3  0  0  0  0  0  0
   -1.3620    0.9208    1.5733 C   0  0  0  0  0  0  0  0  0  0  0  0
   -2.1364   -0.2732    1.4804 C   0  0  0  0  0  0  0  0  0  0  0  0
   -2.6298   -0.4156    0.1506 C   0  0  0  0  0  0  0  0  0  0  0  0
   -2.1081    0.6898   -0.6009 C   0  0  0  0  0  0  0  0  0  0  0  0
   -3.6819   -1.4312   -0.2854 C   0  0  0  0  0  0  0  0  0  0  0  0
   -4.9984   -1.0359    0.4289 C   0  0  0  0  0  0  0  0  0  0  0  0
   -3.2889   -2.8612    0.1382 C   0  0  0  0  0  0  0  0  0  0  0  0
   -3.9110   -1.3784   -1.8059 C   0  0  0  0  0  0  0  0  0  0  0  0
   -0.7231    1.5295    2.8027 C   0  0  0  0  0  0  0  0  0  0  0  0
   -0.7355    3.0719    2.7582 C   0  0  0  0  0  0  0  0  0  0  0  0
    0.1612    3.7039    1.6673 C   0  0  0  0  0  0  0  0  0  0  0  0
    2.3309   -0.9624   -2.3109 H   0  0  0  0  0  0  0  0  0  0  0  0
    2.2908    0.8690    1.6669 H   0  0  0  0  0  0  0  0  0  0  0  0
    2.3725   -3.1898    0.3888 H   0  0  0  0  0  0  0  0  0  0  0  0
    3.1012   -2.9279   -1.2277 H   0  0  0  0  0  0  0  0  0  0  0  0
    4.1076   -3.5673    0.1077 H   0  0  0  0  0  0  0  0  0  0  0  0
    5.2977    0.0007   -0.1740 H   0  0  0  0  0  0  0  0  0  0  0  0
    5.8185   -1.7182   -0.1259 H   0  0  0  0  0  0  0  0  0  0  0  0
    4.8932   -1.0972   -1.5330 H   0  0  0  0  0  0  0  0  0  0  0  0
    2.9821   -1.6036    2.3588 H   0  0  0  0  0  0  0  0  0  0  0  0
    4.6802   -2.1213    2.0967 H   0  0  0  0  0  0  0  0  0  0  0  0
    4.2814   -0.3792    2.1225 H   0  0  0  0  0  0  0  0  0  0  0  0
   -0.3205    1.1653   -2.9445 H   0  0  0  0  0  0  0  0  0  0  0  0
    1.2736    1.1749   -3.6976 H   0  0  0  0  0  0  0  0  0  0  0  0
    0.4312    3.4610   -3.7537 H   0  0  0  0  0  0  0  0  0  0  0  0
    1.7838    3.3997   -2.6023 H   0  0  0  0  0  0  0  0  0  0  0  0
    0.0670    4.7847   -1.5632 H   0  0  0  0  0  0  0  0  0  0  0  0
   -1.2326    3.6438   -1.9641 H   0  0  0  0  0  0  0  0  0  0  0  0
   -2.3314   -0.9626    2.3106 H   0  0  0  0  0  0  0  0  0  0  0  0
   -2.2903    0.8678   -1.6677 H   0  0  0  0  0  0  0  0  0  0  0  0
   -5.2974    0.0004    0.1706 H   0  0  0  0  0  0  0  0  0  0  0  0
   -5.8186   -1.7185    0.1236 H   0  0  0  0  0  0  0  0  0  0  0  0
   -4.8943   -1.0963    1.5309 H   0  0  0  0  0  0  0  0  0  0  0  0
   -2.3723   -3.1911   -0.3866 H   0  0  0  0  0  0  0  0  0  0  0  0
   -3.1027   -2.9278    1.2288 H   0  0  0  0  0  0  0  0  0  0  0  0
   -4.1078   -3.5681   -0.1070 H   0  0  0  0  0  0  0  0  0  0  0  0
   -4.2792   -0.3817   -2.1246 H   0  0  0  0  0  0  0  0  0  0  0  0
   -2.9798   -1.6065   -2.3587 H   0  0  0  0  0  0  0  0  0  0  0  0
   -4.6782   -2.1238   -2.0977 H   0  0  0  0  0  0  0  0  0  0  0  0
    0.3192    1.1658    2.9445 H   0  0  0  0  0  0  0  0  0  0  0  0
   -1.2751    1.1754    3.6971 H   0  0  0  0  0  0  0  0  0  0  0  0
   -0.4330    3.4617    3.7529 H   0  0  0  0  0  0  0  0  0  0  0  0
   -1.7853    3.3999    2.6011 H   0  0  0  0  0  0  0  0  0  0  0  0
   -0.0681    4.7849    1.5624 H   0  0  0  0  0  0  0  0  0  0  0  0
    1.2313    3.6439    1.9637 H   0  0  0  0  0  0  0  0  0  0  0  0
  1 13  1  6  0  0  0
  1 14  1  0  0  0  0
  1 25  1  0  0  0  0
  2  3  1  6  0  0  0
  2  1  1  0  0  0  0
  2  6  1  0  0  0  0
  3  4  2  0  0  0  0
  4  5  1  0  0  0  0
  5  7  1  0  0  0  0
  5  6  2  0  0  0  0
  6 27  1  0  0  0  0
  7 10  1  0  0  0  0
  8 30  1  0  0  0  0
  8  7  1  0  0  0  0
  8 28  1  0  0  0  0
  9 31  1  0  0  0  0
  9 32  1  0  0  0  0
  9  7  1  0  0  0  0
 10 35  1  0  0  0  0
 10 36  1  0  0  0  0
 10 34  1  0  0  0  0
 11 12  1  0  0  0  0
 11  3  1  0  0  0  0
 12 40  1  0  0  0  0
 12 13  1  0  0  0  0
 13 41  1  0  0  0  0
 14 18  1  6  0  0  0
 14 15  1  0  0  0  0
 15 23  1  0  0  0  0
 16 15  2  0  0  0  0
 16 43  1  0  0  0  0
 17 16  1  0  0  0  0
 18 17  2  0  0  0  0
 19 21  1  0  0  0  0
 19 17  1  0  0  0  0
 19 20  1  0  0  0  0
 20 47  1  0  0  0  0
 21 49  1  0  0  0  0
 22 19  1  0  0  0  0
 23 54  1  0  0  0  0
 23 55  1  0  0  0  0
 24 23  1  0  0  0  0
 24 56  1  0  0  0  0
 25 59  1  0  0  0  0
 25 24  1  0  0  0  0
 26  4  1  0  0  0  0
 29  8  1  0  0  0  0
 33  9  1  0  0  0  0
 37 11  1  0  0  0  0
 38 11  1  0  0  0  0
 39 12  1  0  0  0  0
 42 13  1  0  0  0  0
 44 18  1  0  0  0  0
 45 20  1  0  0  0  0
 46 20  1  0  0  0  0
 48 21  1  0  0  0  0
 50 21  1  0  0  0  0
 51 22  1  0  0  0  0
 52 22  1  0  0  0  0
 53 22  1  0  0  0  0
 57 24  1  0  0  0  0
 58 25  1  0  0  0  0
M  END
