7,12
 OpenBabel05122313053D

 36 37  0  0  1  0  0  0  0  0999 V2000
   -2.2517    1.1897   -0.0353 Si  0  0  0  0  0  0  0  0  0  0  0  0
   -2.2516   -1.1898   -0.0356 Si  0  0  0  0  0  0  0  0  0  0  0  0
   -2.6768    1.8692    1.6778 C   0  0  0  0  0  0  0  0  0  0  0  0
   -3.4342    1.8635   -1.3591 C   0  0  0  0  0  0  0  0  0  0  0  0
   -2.6772   -1.8696    1.6772 C   0  0  0  0  0  0  0  0  0  0  0  0
   -3.4337   -1.8634   -1.3600 C   0  0  0  0  0  0  0  0  0  0  0  0
   -0.4860    1.7330   -0.4634 C   0  0  1  0  0  3  0  0  0  0  0  0
    0.4515    2.3827    0.4118 C   0  0  0  0  0  0  0  0  0  0  0  0
    1.6986    2.5104   -0.2494 C   0  0  0  0  0  0  0  0  0  0  0  0
    1.5594    1.9612   -1.5605 C   0  0  0  0  0  0  0  0  0  0  0  0
    0.2193    1.5039   -1.6966 C   0  0  0  0  0  0  0  0  0  0  0  0
   -0.4858   -1.7331   -0.4632 C   0  0  1  0  0  3  0  0  0  0  0  0
    0.2200   -1.5047   -1.6963 C   0  0  0  0  0  0  0  0  0  0  0  0
    1.5601   -1.9619   -1.5594 C   0  0  0  0  0  0  0  0  0  0  0  0
    1.6988   -2.5105   -0.2480 C   0  0  0  0  0  0  0  0  0  0  0  0
    0.4514   -2.3824    0.4127 C   0  0  0  0  0  0  0  0  0  0  0  0
   -1.9589    1.4802    2.4279 H   0  0  0  0  0  0  0  0  0  0  0  0
   -3.6974    1.5625    1.9836 H   0  0  0  0  0  0  0  0  0  0  0  0
   -2.6315    2.9779    1.6876 H   0  0  0  0  0  0  0  0  0  0  0  0
   -3.1573    1.4979   -2.3687 H   0  0  0  0  0  0  0  0  0  0  0  0
   -3.4108    2.9726   -1.3773 H   0  0  0  0  0  0  0  0  0  0  0  0
   -4.4763    1.5407   -1.1578 H   0  0  0  0  0  0  0  0  0  0  0  0
   -1.9597   -1.4806    2.4276 H   0  0  0  0  0  0  0  0  0  0  0  0
   -2.6317   -2.9783    1.6869 H   0  0  0  0  0  0  0  0  0  0  0  0
   -3.6980   -1.5631    1.9827 H   0  0  0  0  0  0  0  0  0  0  0  0
   -4.4758   -1.5405   -1.1590 H   0  0  0  0  0  0  0  0  0  0  0  0
   -3.4103   -2.9725   -1.3784 H   0  0  0  0  0  0  0  0  0  0  0  0
   -3.1564   -1.4975   -2.3695 H   0  0  0  0  0  0  0  0  0  0  0  0
    0.2495    2.6790    1.4471 H   0  0  0  0  0  0  0  0  0  0  0  0
    2.6212    2.9186    0.1797 H   0  0  0  0  0  0  0  0  0  0  0  0
    2.3486    1.9049   -2.3206 H   0  0  0  0  0  0  0  0  0  0  0  0
   -0.2141    1.0801   -2.6091 H   0  0  0  0  0  0  0  0  0  0  0  0
   -0.2130   -1.0812   -2.6092 H   0  0  0  0  0  0  0  0  0  0  0  0
    2.3495   -1.9059   -2.3193 H   0  0  0  0  0  0  0  0  0  0  0  0
    2.6212   -2.9184    0.1816 H   0  0  0  0  0  0  0  0  0  0  0  0
    0.2490   -2.6783    1.4480 H   0  0  0  0  0  0  0  0  0  0  0  0
  1  3  1  0  0  0  0
  2  1  1  0  0  0  0
  2  5  1  0  0  0  0
  3 19  1  0  0  0  0
  3 18  1  0  0  0  0
  3 17  1  0  0  0  0
  4 22  1  0  0  0  0
  4  1  1  0  0  0  0
  5 24  1  0  0  0  0
  5 25  1  0  0  0  0
  5 23  1  0  0  0  0
  6 26  1  0  0  0  0
  6  2  1  0  0  0  0
  7  1  1  1  0  0  0
  7  8  1  0  0  0  0
  8 29  1  0  0  0  0
  9 30  1  0  0  0  0
  9  8  2  0  0  0  0
 10  9  1  0  0  0  0
 11 10  2  0  0  0  0
 11  7  1  0  0  0  0
 12  2  1  1  0  0  0
 12 16  1  0  0  0  0
 13 14  2  0  0  0  0
 13 12  1  0  0  0  0
 14 15  1  0  0  0  0
 15 35  1  0  0  0  0
 15 16  2  0  0  0  0
 16 36  1  0  0  0  0
 20  4  1  0  0  0  0
 21  4  1  0  0  0  0
 27  6  1  0  0  0  0
 28  6  1  0  0  0  0
 31 10  1  0  0  0  0
 32 11  1  0  0  0  0
 33 13  1  0  0  0  0
 34 14  1  0  0  0  0
M  END
