1,3
 OpenBabel05122313053D

 51 51  0  0  1  0  0  0  0  0999 V2000
    0.5141    0.4718   -0.1221 C   0  0  2  0  0  3  0  0  0  0  0  0
    0.8952   -0.6529   -0.9329 C   0  0  2  0  0  3  0  0  0  0  0  0
   -0.1998   -1.2203   -1.6759 C   0  0  0  0  0  3  0  0  0  0  0  0
   -1.5302   -0.7211   -1.6301 C   0  0  0  0  0  0  0  0  0  0  0  0
   -1.8763    0.3698   -0.7759 C   0  0  0  0  0  0  0  0  0  0  0  0
   -0.8174    0.9803   -0.0400 C   0  0  0  0  0  3  0  0  0  0  0  0
    1.7101    1.4172    0.8864 S   0  0  0  0  0  0  0  0  0  0  0  0
    2.9800    0.6420    0.9402 O   0  0  0  0  0  0  0  0  0  0  0  0
    1.0206    1.8310    2.1362 O   0  0  0  0  0  0  0  0  0  0  0  0
    2.0635    2.9927   -0.0980 C   0  0  0  0  0  0  0  0  0  0  0  0
    2.5047    2.6073   -1.5079 C   0  0  0  0  0  0  0  0  0  0  0  0
    3.1985    3.6431    0.7048 C   0  0  0  0  0  0  0  0  0  0  0  0
    0.8110    3.8700   -0.1011 C   0  0  0  0  0  0  0  0  0  0  0  0
    2.5549   -1.6631   -0.9517 Si  0  0  0  0  0  0  0  0  0  0  0  0
    4.0053   -0.6982   -1.6876 C   0  0  0  0  0  0  0  0  0  0  0  0
    2.2288   -3.1142   -2.1363 C   0  0  0  0  0  0  0  0  0  0  0  0
    2.9810   -2.4237    0.7186 C   0  0  0  0  0  0  0  0  0  0  0  0
   -3.6493    1.0807   -0.6934 Si  0  0  0  0  0  0  0  0  0  0  0  0
   -3.7229    2.4044   -2.0458 C   0  0  0  0  0  0  0  0  0  0  0  0
   -3.9318    1.8599    1.0004 C   0  0  0  0  0  0  0  0  0  0  0  0
   -4.8959   -0.2924   -1.0360 C   0  0  0  0  0  0  0  0  0  0  0  0
   -0.0152   -2.1161   -2.2835 H   0  0  0  0  0  0  0  0  0  0  0  0
   -2.3101   -1.2454   -2.2000 H   0  0  0  0  0  0  0  0  0  0  0  0
   -1.0220    1.7803    0.6832 H   0  0  0  0  0  0  0  0  0  0  0  0
    3.4067    1.9691   -1.4927 H   0  0  0  0  0  0  0  0  0  0  0  0
    2.7475    3.5314   -2.0724 H   0  0  0  0  0  0  0  0  0  0  0  0
    1.7044    2.0760   -2.0608 H   0  0  0  0  0  0  0  0  0  0  0  0
    2.8739    3.8650    1.7401 H   0  0  0  0  0  0  0  0  0  0  0  0
    3.4850    4.5954    0.2141 H   0  0  0  0  0  0  0  0  0  0  0  0
    4.0861    2.9840    0.7476 H   0  0  0  0  0  0  0  0  0  0  0  0
    0.4290    4.0195    0.9270 H   0  0  0  0  0  0  0  0  0  0  0  0
    0.0057    3.4433   -0.7305 H   0  0  0  0  0  0  0  0  0  0  0  0
    1.0731    4.8620   -0.5235 H   0  0  0  0  0  0  0  0  0  0  0  0
    3.7316   -0.2031   -2.6411 H   0  0  0  0  0  0  0  0  0  0  0  0
    4.8279   -1.4113   -1.9034 H   0  0  0  0  0  0  0  0  0  0  0  0
    4.3793    0.0601   -0.9752 H   0  0  0  0  0  0  0  0  0  0  0  0
    1.4283   -3.7900   -1.7729 H   0  0  0  0  0  0  0  0  0  0  0  0
    3.1601   -3.7160   -2.1903 H   0  0  0  0  0  0  0  0  0  0  0  0
    1.9869   -2.7951   -3.1711 H   0  0  0  0  0  0  0  0  0  0  0  0
    2.2176   -3.1702    1.0135 H   0  0  0  0  0  0  0  0  0  0  0  0
    3.0625   -1.6554    1.5080 H   0  0  0  0  0  0  0  0  0  0  0  0
    3.9564   -2.9471    0.6324 H   0  0  0  0  0  0  0  0  0  0  0  0
   -3.5278    1.9687   -3.0468 H   0  0  0  0  0  0  0  0  0  0  0  0
   -2.9684    3.1978   -1.8663 H   0  0  0  0  0  0  0  0  0  0  0  0
   -4.7224    2.8855   -2.0714 H   0  0  0  0  0  0  0  0  0  0  0  0
   -3.8893    1.0986    1.8038 H   0  0  0  0  0  0  0  0  0  0  0  0
   -4.9342    2.3346    1.0311 H   0  0  0  0  0  0  0  0  0  0  0  0
   -3.1853    2.6485    1.2259 H   0  0  0  0  0  0  0  0  0  0  0  0
   -4.7265   -0.7736   -2.0207 H   0  0  0  0  0  0  0  0  0  0  0  0
   -5.9232    0.1265   -1.0451 H   0  0  0  0  0  0  0  0  0  0  0  0
   -4.8528   -1.0723   -0.2503 H   0  0  0  0  0  0  0  0  0  0  0  0
  1  6  1  0  0  0  0
  1  7  1  6  0  0  0
  2 14  1  1  0  0  0
  2  1  1  0  0  0  0
  3  4  1  0  0  0  0
  3  2  1  0  0  0  0
  4  5  2  0  0  0  0
  5 18  1  0  0  0  0
  5  6  1  0  0  0  0
  6 24  1  0  0  0  0
  7  8  2  0  0  0  0
  7  9  2  0  0  0  0
 10 12  1  0  0  0  0
 10  7  1  0  0  0  0
 11 25  1  0  0  0  0
 11 10  1  0  0  0  0
 12 30  1  0  0  0  0
 12 28  1  0  0  0  0
 13 10  1  0  0  0  0
 13 31  1  0  0  0  0
 14 17  1  0  0  0  0
 15 36  1  0  0  0  0
 15 14  1  0  0  0  0
 16 37  1  0  0  0  0
 16 14  1  0  0  0  0
 17 40  1  0  0  0  0
 17 41  1  0  0  0  0
 18 20  1  0  0  0  0
 19 44  1  0  0  0  0
 19 18  1  0  0  0  0
 20 47  1  0  0  0  0
 20 48  1  0  0  0  0
 20 46  1  0  0  0  0
 21 18  1  0  0  0  0
 21 51  1  0  0  0  0
 22  3  1  0  0  0  0
 23  4  1  0  0  0  0
 26 11  1  0  0  0  0
 27 11  1  0  0  0  0
 29 12  1  0  0  0  0
 32 13  1  0  0  0  0
 33 13  1  0  0  0  0
 34 15  1  0  0  0  0
 35 15  1  0  0  0  0
 38 16  1  0  0  0  0
 39 16  1  0  0  0  0
 42 17  1  0  0  0  0
 43 19  1  0  0  0  0
 45 19  1  0  0  0  0
 49 21  1  0  0  0  0
 50 21  1  0  0  0  0
M  END
