1,2
 OpenBabel05122313053D

 34 35  0  0  0  0  0  0  0  0999 V2000
    0.5869    1.6676    0.0988 C   0  0  0  0  0  2  0  0  0  0  0  0
    0.9796   -1.2085    0.7114 C   0  0  0  0  0  2  0  0  0  0  0  0
    1.9090   -1.9221   -1.5049 C   0  0  0  0  0  0  0  0  0  0  0  0
    0.9440   -1.4803   -1.8291 H   0  0  0  0  0  0  0  0  0  0  0  0
    1.9469   -2.9628   -1.8846 H   0  0  0  0  0  0  0  0  0  0  0  0
    0.5393    2.6873    1.0140 N   0  0  0  0  0  0  0  0  0  0  0  0
   -0.3215    2.7108    2.1873 C   0  0  0  0  0  0  0  0  0  0  0  0
   -0.9965    1.8366    2.1279 H   0  0  0  0  0  0  0  0  0  0  0  0
   -0.9214    3.6410    2.2089 H   0  0  0  0  0  0  0  0  0  0  0  0
    0.2823    2.6484    3.1146 H   0  0  0  0  0  0  0  0  0  0  0  0
    1.5378    2.0660   -0.8048 N   0  0  0  0  0  0  0  0  0  0  0  0
    1.8460   -1.9598   -0.0439 N   0  0  0  0  0  0  0  0  0  0  0  0
    2.3869   -2.3878    2.0600 C   0  0  0  0  0  0  0  0  0  0  0  0
    2.8023   -2.7496    3.0054 H   0  0  0  0  0  0  0  0  0  0  0  0
    3.1050   -1.1147   -2.0312 C   0  0  0  0  0  0  0  0  0  0  0  0
    4.0472   -1.6483   -1.7859 H   0  0  0  0  0  0  0  0  0  0  0  0
    3.0440   -1.1054   -3.1405 H   0  0  0  0  0  0  0  0  0  0  0  0
    1.3267   -1.4888    2.0069 N   0  0  0  0  0  0  0  0  0  0  0  0
    3.1848    0.3118   -1.4758 C   0  0  0  0  0  0  0  0  0  0  0  0
    4.1457    0.7736   -1.7790 H   0  0  0  0  0  0  0  0  0  0  0  0
    3.2082    0.2641   -0.3670 H   0  0  0  0  0  0  0  0  0  0  0  0
    2.0045    1.2144   -1.8954 C   0  0  0  0  0  0  0  0  0  0  0  0
    2.2678    1.8616   -2.7546 H   0  0  0  0  0  0  0  0  0  0  0  0
    1.1278    0.6071   -2.1963 H   0  0  0  0  0  0  0  0  0  0  0  0
    2.0797    3.2972   -0.4565 C   0  0  0  0  0  0  0  0  0  0  0  0
    2.8507    3.7910   -1.0554 H   0  0  0  0  0  0  0  0  0  0  0  0
    1.4471    3.6915    0.6917 C   0  0  0  0  0  0  0  0  0  0  0  0
    1.5550    4.5983    1.2943 H   0  0  0  0  0  0  0  0  0  0  0  0
    0.6712   -0.9186    3.1735 C   0  0  0  0  0  0  0  0  0  0  0  0
   -0.1556   -0.2789    2.8123 H   0  0  0  0  0  0  0  0  0  0  0  0
    1.3843   -0.3072    3.7615 H   0  0  0  0  0  0  0  0  0  0  0  0
    0.2601   -1.7183    3.8201 H   0  0  0  0  0  0  0  0  0  0  0  0
    2.7178   -2.6812    0.7649 C   0  0  0  0  0  0  0  0  0  0  0  0
    3.4845   -3.3462    0.3560 H   0  0  0  0  0  0  0  0  0  0  0  0
  1  6  1  0  0  0  0
  2 18  1  0  0  0  0
  3 12  1  0  0  0  0
  4  3  1  0  0  0  0
  5  3  1  0  0  0  0
  6  7  1  0  0  0  0
  7  9  1  0  0  0  0
  7 10  1  0  0  0  0
  8  7  1  0  0  0  0
 11 25  1  0  0  0  0
 11  1  1  0  0  0  0
 12  2  1  0  0  0  0
 12 33  1  0  0  0  0
 13 14  1  0  0  0  0
 15 16  1  0  0  0  0
 15  3  1  0  0  0  0
 15 19  1  0  0  0  0
 17 15  1  0  0  0  0
 18 13  1  0  0  0  0
 18 29  1  0  0  0  0
 19 21  1  0  0  0  0
 20 19  1  0  0  0  0
 22 19  1  0  0  0  0
 22 11  1  0  0  0  0
 23 22  1  0  0  0  0
 24 22  1  0  0  0  0
 25 27  2  0  0  0  0
 26 25  1  0  0  0  0
 27  6  1  0  0  0  0
 27 28  1  0  0  0  0
 29 31  1  0  0  0  0
 29 32  1  0  0  0  0
 30 29  1  0  0  0  0
 33 13  2  0  0  0  0
 34 33  1  0  0  0  0
M  END
