4,26
 OpenBabel05122313053D

 70 71  0  0  1  0  0  0  0  0999 V2000
   -3.0112    1.7454   -0.1815 Si  0  0  0  0  0  0  0  0  0  0  0  0
    2.7286    2.0337    0.3102 Si  0  0  0  0  0  0  0  0  0  0  0  0
   -2.0584    0.2100    0.4162 C   0  0  2  0  0  3  0  0  0  0  0  0
   -2.4420   -1.1480    0.1315 C   0  0  1  0  0  3  0  0  0  0  0  0
   -1.8244   -2.0057    1.1000 C   0  0  0  0  0  0  0  0  0  0  0  0
   -1.0411   -1.1971    1.9753 C   0  0  0  0  0  0  0  0  0  0  0  0
   -1.1741    0.1707    1.5492 C   0  0  2  0  0  3  0  0  0  0  0  0
   -3.3902   -1.5995   -0.9365 C   0  0  0  0  0  0  0  0  0  0  0  0
   -3.3160   -2.6896   -1.1000 H   0  0  0  0  0  0  0  0  0  0  0  0
   -3.1652   -1.1017   -1.8978 H   0  0  0  0  0  0  0  0  0  0  0  0
   -4.4394   -1.3611   -0.6580 H   0  0  0  0  0  0  0  0  0  0  0  0
   -2.0771   -3.4656    1.3045 C   0  0  0  0  0  0  0  0  0  0  0  0
   -1.1746   -3.9917    1.6713 H   0  0  0  0  0  0  0  0  0  0  0  0
   -2.3944   -3.9627    0.3706 H   0  0  0  0  0  0  0  0  0  0  0  0
   -2.8774   -3.6044    2.0648 H   0  0  0  0  0  0  0  0  0  0  0  0
   -0.5273   -1.6934    3.2935 C   0  0  0  0  0  0  0  0  0  0  0  0
   -1.3929   -2.0021    3.9191 H   0  0  0  0  0  0  0  0  0  0  0  0
    0.0235   -0.9223    3.8579 H   0  0  0  0  0  0  0  0  0  0  0  0
    0.1224   -2.5854    3.1996 H   0  0  0  0  0  0  0  0  0  0  0  0
   -0.7221    1.3724    2.3211 C   0  0  0  0  0  0  0  0  0  0  0  0
   -1.5842    1.8294    2.8535 H   0  0  0  0  0  0  0  0  0  0  0  0
   -0.2954    2.1439    1.6553 H   0  0  0  0  0  0  0  0  0  0  0  0
    0.0306    1.1187    3.0893 H   0  0  0  0  0  0  0  0  0  0  0  0
    2.0483    0.2747    0.0440 C   0  0  2  0  0  3  0  0  0  0  0  0
    2.0253   -0.7891    1.0218 C   0  0  1  0  0  3  0  0  0  0  0  0
    2.0296   -2.0457    0.3370 C   0  0  1  0  0  3  0  0  0  0  0  0
    2.1619   -1.7766   -1.0697 C   0  0  0  0  0  0  0  0  0  0  0  0
    2.1613   -0.3686   -1.2491 C   0  0  0  0  0  0  0  0  0  0  0  0
    2.3304   -0.6420    2.4820 C   0  0  0  0  0  0  0  0  0  0  0  0
    2.1409   -1.5718    3.0446 H   0  0  0  0  0  0  0  0  0  0  0  0
    1.7838    0.1832    2.9683 H   0  0  0  0  0  0  0  0  0  0  0  0
    3.4138   -0.4186    2.5927 H   0  0  0  0  0  0  0  0  0  0  0  0
    2.0665   -3.4137    0.9480 C   0  0  0  0  0  0  0  0  0  0  0  0
    1.4124   -4.1081    0.3841 H   0  0  0  0  0  0  0  0  0  0  0  0
    1.7306   -3.4097    2.0023 H   0  0  0  0  0  0  0  0  0  0  0  0
    3.0977   -3.8278    0.9327 H   0  0  0  0  0  0  0  0  0  0  0  0
    2.4381   -2.7758   -2.1472 C   0  0  0  0  0  0  0  0  0  0  0  0
    1.8772   -2.5444   -3.0728 H   0  0  0  0  0  0  0  0  0  0  0  0
    2.1644   -3.8010   -1.8415 H   0  0  0  0  0  0  0  0  0  0  0  0
    3.5229   -2.7615   -2.3937 H   0  0  0  0  0  0  0  0  0  0  0  0
    2.4238    0.2885   -2.5677 C   0  0  0  0  0  0  0  0  0  0  0  0
    3.5159    0.2902   -2.7761 H   0  0  0  0  0  0  0  0  0  0  0  0
    2.0607    1.3300   -2.5950 H   0  0  0  0  0  0  0  0  0  0  0  0
    1.9225   -0.2525   -3.3919 H   0  0  0  0  0  0  0  0  0  0  0  0
   -2.0319    3.3937   -0.1478 C   0  0  0  0  0  0  0  0  0  0  0  0
   -0.6732    3.3338   -0.7634 C   0  0  0  0  0  0  0  0  0  0  0  0
    0.4755    3.6792   -0.1427 C   0  0  0  0  0  0  0  0  0  0  0  0
    1.8491    3.4182   -0.6724 C   0  0  0  0  0  0  0  0  0  0  0  0
   -3.7988    1.5983   -1.8938 C   0  0  0  0  0  0  0  0  0  0  0  0
   -4.2963    2.5628   -2.1276 H   0  0  0  0  0  0  0  0  0  0  0  0
   -4.5680    0.8039   -1.9370 H   0  0  0  0  0  0  0  0  0  0  0  0
   -3.0398    1.3925   -2.6724 H   0  0  0  0  0  0  0  0  0  0  0  0
   -4.4124    1.9189    1.0918 C   0  0  0  0  0  0  0  0  0  0  0  0
   -4.0168    2.0391    2.1211 H   0  0  0  0  0  0  0  0  0  0  0  0
   -5.0635    1.0207    1.0836 H   0  0  0  0  0  0  0  0  0  0  0  0
   -5.0448    2.8020    0.8630 H   0  0  0  0  0  0  0  0  0  0  0  0
    2.7735    2.6104    2.1176 C   0  0  0  0  0  0  0  0  0  0  0  0
    3.1473    3.6561    2.1211 H   0  0  0  0  0  0  0  0  0  0  0  0
    3.4718    2.0087    2.7308 H   0  0  0  0  0  0  0  0  0  0  0  0
    1.7843    2.6085    2.6117 H   0  0  0  0  0  0  0  0  0  0  0  0
    4.5396    1.9577   -0.2598 C   0  0  0  0  0  0  0  0  0  0  0  0
    5.0494    2.9193   -0.0425 H   0  0  0  0  0  0  0  0  0  0  0  0
    4.6267    1.7643   -1.3469 H   0  0  0  0  0  0  0  0  0  0  0  0
    5.0860    1.1524    0.2730 H   0  0  0  0  0  0  0  0  0  0  0  0
   -2.7007    4.0854   -0.7125 H   0  0  0  0  0  0  0  0  0  0  0  0
   -1.9840    3.7834    0.8911 H   0  0  0  0  0  0  0  0  0  0  0  0
   -0.6040    2.8940   -1.7740 H   0  0  0  0  0  0  0  0  0  0  0  0
    0.4142    4.1217    0.8704 H   0  0  0  0  0  0  0  0  0  0  0  0
    2.5099    4.3085   -0.5635 H   0  0  0  0  0  0  0  0  0  0  0  0
    1.8200    3.1666   -1.7519 H   0  0  0  0  0  0  0  0  0  0  0  0
  1 45  1  0  0  0  0
  1 53  1  0  0  0  0
  2 57  1  0  0  0  0
  3  1  1  1  0  0  0
  3  7  1  0  0  0  0
  4  8  1  1  0  0  0
  4  3  1  0  0  0  0
  4  5  1  0  0  0  0
  5 12  1  0  0  0  0
  5  6  2  0  0  0  0
  6 16  1  0  0  0  0
  7  6  1  0  0  0  0
  7 20  1  1  0  0  0
  8 11  1  0  0  0  0
  9  8  1  0  0  0  0
 10  8  1  0  0  0  0
 12 13  1  0  0  0  0
 12 15  1  0  0  0  0
 14 12  1  0  0  0  0
 16 18  1  0  0  0  0
 16 17  1  0  0  0  0
 19 16  1  0  0  0  0
 20 21  1  0  0  0  0
 20 23  1  0  0  0  0
 22 20  1  0  0  0  0
 24  2  1  1  0  0  0
 24 25  1  0  0  0  0
 25 29  1  1  0  0  0
 26 33  1  1  0  0  0
 26 25  1  0  0  0  0
 27 26  1  0  0  0  0
 28 27  2  0  0  0  0
 28 24  1  0  0  0  0
 29 32  1  0  0  0  0
 29 31  1  0  0  0  0
 29 30  1  0  0  0  0
 33 35  1  0  0  0  0
 34 33  1  0  0  0  0
 36 33  1  0  0  0  0
 37 39  1  0  0  0  0
 37 27  1  0  0  0  0
 38 37  1  0  0  0  0
 40 37  1  0  0  0  0
 41 28  1  0  0  0  0
 42 41  1  0  0  0  0
 43 41  1  0  0  0  0
 44 41  1  0  0  0  0
 45 66  1  0  0  0  0
 46 45  1  0  0  0  0
 46 47  2  0  0  0  0
 47 68  1  0  0  0  0
 48 69  1  0  0  0  0
 48 47  1  0  0  0  0
 48  2  1  0  0  0  0
 49  1  1  0  0  0  0
 50 49  1  0  0  0  0
 51 49  1  0  0  0  0
 52 49  1  0  0  0  0
 53 54  1  0  0  0  0
 55 53  1  0  0  0  0
 56 53  1  0  0  0  0
 57 58  1  0  0  0  0
 57 60  1  0  0  0  0
 57 59  1  0  0  0  0
 61 62  1  0  0  0  0
 61 64  1  0  0  0  0
 61  2  1  0  0  0  0
 63 61  1  0  0  0  0
 65 45  1  0  0  0  0
 67 46  1  0  0  0  0
 70 48  1  0  0  0  0
M  END
