2,13
 OpenBabel05122313053D

 21 22  0  0  1  0  0  0  0  0999 V2000
   -2.7946    0.0001    0.0002 C   0  0  0  0  0  0  0  0  0  0  0  0
   -1.8365   -1.1777    0.0001 C   0  0  1  0  0  3  0  0  0  0  0  0
   -1.1289   -1.6513   -1.1494 C   0  0  0  0  0  3  0  0  0  0  0  0
   -0.0267   -2.4492   -0.7076 C   0  0  0  0  0  0  0  0  0  0  0  0
   -0.0266   -2.4492    0.7077 C   0  0  0  0  0  0  0  0  0  0  0  0
   -1.1287   -1.6512    1.1496 C   0  0  0  0  0  3  0  0  0  0  0  0
   -3.4412    0.0002    0.8980 H   0  0  0  0  0  0  0  0  0  0  0  0
   -3.4414    0.0001   -0.8976 H   0  0  0  0  0  0  0  0  0  0  0  0
   -1.3799   -1.4281   -2.1944 H   0  0  0  0  0  0  0  0  0  0  0  0
    0.7071   -2.9415   -1.3558 H   0  0  0  0  0  0  0  0  0  0  0  0
    0.7073   -2.9415    1.3558 H   0  0  0  0  0  0  0  0  0  0  0  0
   -1.3797   -1.4280    2.1947 H   0  0  0  0  0  0  0  0  0  0  0  0
   -1.8364    1.1778   -0.0000 C   0  0  1  0  0  3  0  0  0  0  0  0
   -1.1286    1.6515    1.1494 C   0  0  0  0  0  3  0  0  0  0  0  0
   -1.1287    1.6512   -1.1496 C   0  0  0  0  0  3  0  0  0  0  0  0
   -0.0264    2.4493    0.7074 C   0  0  0  0  0  0  0  0  0  0  0  0
   -1.3796    1.4284    2.1945 H   0  0  0  0  0  0  0  0  0  0  0  0
   -0.0265    2.4491   -0.7079 C   0  0  0  0  0  0  0  0  0  0  0  0
   -1.3798    1.4279   -2.1946 H   0  0  0  0  0  0  0  0  0  0  0  0
    0.7074    2.9413   -1.3561 H   0  0  0  0  0  0  0  0  0  0  0  0
    0.7076    2.9416    1.3554 H   0  0  0  0  0  0  0  0  0  0  0  0
  1  7  1  0  0  0  0
  2  1  1  6  0  0  0
  2  6  1  0  0  0  0
  3  4  1  0  0  0  0
  3  2  1  0  0  0  0
  4  5  2  0  0  0  0
  5  6  1  0  0  0  0
  5 11  1  0  0  0  0
  6 12  1  0  0  0  0
  8  1  1  0  0  0  0
  9  3  1  0  0  0  0
 10  4  1  0  0  0  0
 13  1  1  1  0  0  0
 13 14  1  0  0  0  0
 14 17  1  0  0  0  0
 15 18  1  0  0  0  0
 15 13  1  0  0  0  0
 16 14  1  0  0  0  0
 16 21  1  0  0  0  0
 18 16  2  0  0  0  0
 19 15  1  0  0  0  0
 20 18  1  0  0  0  0
M  END
