3,5
 OpenBabel05122313053D

 34 35  0  0  1  0  0  0  0  0999 V2000
    1.1860   -0.8104   -0.1260 C   0  0  0  0  0  0  0  0  0  0  0  0
    0.4318   -0.9999    1.0749 C   0  0  0  0  0  3  0  0  0  0  0  0
   -0.9847   -1.1172    1.0472 C   0  0  0  0  0  3  0  0  0  0  0  0
   -1.7383   -1.0411   -0.1628 C   0  0  1  0  0  3  0  0  0  0  0  0
   -0.9799   -0.7756   -1.3459 C   0  0  0  0  0  3  0  0  0  0  0  0
    0.4334   -0.6572   -1.3359 C   0  0  0  0  0  0  0  0  0  0  0  0
    2.6603   -0.7398   -0.1111 C   0  0  0  0  0  0  0  0  0  0  0  0
    3.3881   -1.4272    0.8889 C   0  0  0  0  0  0  0  0  0  0  0  0
    4.7874   -1.3983    0.8949 C   0  0  0  0  0  0  0  0  0  0  0  0
    5.4810   -0.6736   -0.0874 C   0  0  0  0  0  0  0  0  0  0  0  0
    4.7696    0.0168   -1.0833 C   0  0  0  0  0  0  0  0  0  0  0  0
    3.3717   -0.0194   -1.0999 C   0  0  0  0  0  0  0  0  0  0  0  0
   -3.2549   -1.2595   -0.1714 C   0  0  0  0  0  0  0  0  0  0  0  0
   -3.9440   -0.3942    0.9038 C   0  0  0  0  0  0  0  0  0  0  0  0
   -3.8707   -0.9318   -1.5428 C   0  0  0  0  0  0  0  0  0  0  0  0
   -3.4746   -2.7617    0.1419 C   0  0  0  0  0  0  0  0  0  0  0  0
    0.9488   -1.0195    2.0434 H   0  0  0  0  0  0  0  0  0  0  0  0
   -1.5134   -1.2472    2.0025 H   0  0  0  0  0  0  0  0  0  0  0  0
   -1.5036   -0.6372   -2.3010 H   0  0  0  0  0  0  0  0  0  0  0  0
    0.9563   -0.4530   -2.2795 H   0  0  0  0  0  0  0  0  0  0  0  0
    2.8616   -2.0242    1.6480 H   0  0  0  0  0  0  0  0  0  0  0  0
    5.3406   -1.9504    1.6686 H   0  0  0  0  0  0  0  0  0  0  0  0
    6.5807   -0.6466   -0.0780 H   0  0  0  0  0  0  0  0  0  0  0  0
    5.3092    0.5929   -1.8489 H   0  0  0  0  0  0  0  0  0  0  0  0
    2.8336    0.5499   -1.8723 H   0  0  0  0  0  0  0  0  0  0  0  0
   -3.5566   -0.5813    1.9248 H   0  0  0  0  0  0  0  0  0  0  0  0
   -5.0270   -0.6247    0.9246 H   0  0  0  0  0  0  0  0  0  0  0  0
   -3.8348    0.6860    0.6820 H   0  0  0  0  0  0  0  0  0  0  0  0
   -3.7048    0.1252   -1.8340 H   0  0  0  0  0  0  0  0  0  0  0  0
   -4.9654   -1.0895   -1.4993 H   0  0  0  0  0  0  0  0  0  0  0  0
   -3.4834   -1.5891   -2.3469 H   0  0  0  0  0  0  0  0  0  0  0  0
   -2.9760   -3.4095   -0.6064 H   0  0  0  0  0  0  0  0  0  0  0  0
   -4.5586   -2.9897    0.1219 H   0  0  0  0  0  0  0  0  0  0  0  0
   -3.0915   -3.0347    1.1457 H   0  0  0  0  0  0  0  0  0  0  0  0
  1  7  1  0  0  0  0
  1  2  1  0  0  0  0
  2 17  1  0  0  0  0
  3  2  1  0  0  0  0
  3 18  1  0  0  0  0
  4 13  1  6  0  0  0
  4  3  1  0  0  0  0
  5  6  1  0  0  0  0
  5  4  1  0  0  0  0
  6  1  2  0  0  0  0
  7  8  1  0  0  0  0
  8  9  2  0  0  0  0
  8 21  1  0  0  0  0
  9 22  1  0  0  0  0
 10 23  1  0  0  0  0
 10  9  1  0  0  0  0
 11 10  2  0  0  0  0
 12 11  1  0  0  0  0
 12  7  2  0  0  0  0
 13 16  1  0  0  0  0
 13 14  1  0  0  0  0
 14 27  1  0  0  0  0
 14 26  1  0  0  0  0
 15 30  1  0  0  0  0
 15 13  1  0  0  0  0
 16 34  1  0  0  0  0
 19  5  1  0  0  0  0
 20  6  1  0  0  0  0
 24 11  1  0  0  0  0
 25 12  1  0  0  0  0
 28 14  1  0  0  0  0
 29 15  1  0  0  0  0
 31 15  1  0  0  0  0
 32 16  1  0  0  0  0
 33 16  1  0  0  0  0
M  END
