1,3
 OpenBabel05122313053D

 20 20  0  0  1  0  0  0  0  0999 V2000
    2.3623    0.7502   -0.7260 C   0  0  1  0  0  3  0  0  0  0  0  0
    2.3625   -0.7479   -0.7281 C   0  0  2  0  0  3  0  0  0  0  0  0
    2.3624   -0.7500    0.7260 C   0  0  2  0  0  3  0  0  0  0  0  0
    2.3623    0.7481    0.7281 C   0  0  1  0  0  3  0  0  0  0  0  0
    2.5547    1.7851   -1.7742 C   0  0  0  0  0  0  0  0  0  0  0  0
    2.5550   -1.7798   -1.7793 C   0  0  0  0  0  0  0  0  0  0  0  0
    2.5551   -1.7850    1.7741 C   0  0  0  0  0  0  0  0  0  0  0  0
    2.5546    1.7800    1.7793 C   0  0  0  0  0  0  0  0  0  0  0  0
    2.0369    1.5060   -2.7123 H   0  0  0  0  0  0  0  0  0  0  0  0
    3.6357    1.9058   -2.0060 H   0  0  0  0  0  0  0  0  0  0  0  0
    2.1663    2.7674   -1.4428 H   0  0  0  0  0  0  0  0  0  0  0  0
    2.1666   -2.7630   -1.4508 H   0  0  0  0  0  0  0  0  0  0  0  0
    3.6360   -1.8997   -2.0112 H   0  0  0  0  0  0  0  0  0  0  0  0
    2.0374   -1.4979   -2.7167 H   0  0  0  0  0  0  0  0  0  0  0  0
    2.0398   -1.5045    2.7132 H   0  0  0  0  0  0  0  0  0  0  0  0
    3.6363   -1.9077    2.0036 H   0  0  0  0  0  0  0  0  0  0  0  0
    2.1640   -2.7666    1.4439 H   0  0  0  0  0  0  0  0  0  0  0  0
    2.1656    2.7631    1.4509 H   0  0  0  0  0  0  0  0  0  0  0  0
    3.6356    1.9006    2.0110 H   0  0  0  0  0  0  0  0  0  0  0  0
    2.0372    1.4979    2.7167 H   0  0  0  0  0  0  0  0  0  0  0  0
  1  5  1  1  0  0  0
  1  4  1  0  0  0  0
  2  6  1  1  0  0  0
  2  1  1  0  0  0  0
  2  3  1  0  0  0  0
  3  4  1  0  0  0  0
  3  7  1  1  0  0  0
  4  8  1  1  0  0  0
  5 11  1  0  0  0  0
  6 12  1  0  0  0  0
  7 16  1  0  0  0  0
  7 15  1  0  0  0  0
  8 19  1  0  0  0  0
  8 20  1  0  0  0  0
  9  5  1  0  0  0  0
 10  5  1  0  0  0  0
 13  6  1  0  0  0  0
 14  6  1  0  0  0  0
 17  7  1  0  0  0  0
 18  8  1  0  0  0  0
M  END
