1,24
 OpenBabel05122313053D

 28 29  0  0  1  0  0  0  0  0999 V2000
   -0.1113   -2.3998   -1.1307 C   0  0  0  0  0  3  0  0  0  0  0  0
   -0.9110   -2.3480   -1.8850 H   0  0  0  0  0  0  0  0  0  0  0  0
    0.8679   -2.7522   -1.4943 H   0  0  0  0  0  0  0  0  0  0  0  0
   -0.4104   -2.4986    0.2376 C   0  0  2  0  0  3  0  0  0  0  0  0
    0.5789   -3.0878    1.2095 C   0  0  0  0  0  0  0  0  0  0  0  0
    0.2373   -4.1100    1.4839 H   0  0  0  0  0  0  0  0  0  0  0  0
    0.6220   -2.5096    2.1546 H   0  0  0  0  0  0  0  0  0  0  0  0
    1.5968   -3.1726    0.7868 H   0  0  0  0  0  0  0  0  0  0  0  0
   -1.8266   -2.3493    0.7502 C   0  0  0  0  0  0  0  0  0  0  0  0
   -1.7726   -1.9307    1.7782 H   0  0  0  0  0  0  0  0  0  0  0  0
   -2.2688   -3.3649    0.8723 H   0  0  0  0  0  0  0  0  0  0  0  0
   -2.7082   -1.4530   -0.1253 C   0  0  1  0  0  0  0  0  0  0  0  0
   -3.1382   -2.0569   -0.9519 H   0  0  0  0  0  0  0  0  0  0  0  0
   -3.8422   -0.7759    0.6903 C   0  0  2  0  0  0  0  0  0  0  0  0
   -4.3099   -1.4558    1.4291 H   0  0  0  0  0  0  0  0  0  0  0  0
   -4.8376   -0.1338   -0.2977 C   0  0  0  0  0  0  0  0  0  0  0  0
   -5.7500    0.2041    0.2316 H   0  0  0  0  0  0  0  0  0  0  0  0
   -5.1613   -0.8485   -1.0801 H   0  0  0  0  0  0  0  0  0  0  0  0
   -4.0319    1.0721   -0.8677 C   0  0  0  0  0  0  0  0  0  0  0  0
   -3.9007    1.0289   -1.9674 H   0  0  0  0  0  0  0  0  0  0  0  0
   -4.5263    2.0377   -0.6384 H   0  0  0  0  0  0  0  0  0  0  0  0
   -2.6731    0.9857   -0.1162 C   0  0  2  0  0  0  0  0  0  0  0  0
   -2.1227    1.9429   -0.1375 H   0  0  0  0  0  0  0  0  0  0  0  0
   -1.9208   -0.2238   -0.7006 C   0  0  0  0  0  3  0  0  0  0  0  0
   -1.9148   -0.1897   -1.8122 H   0  0  0  0  0  0  0  0  0  0  0  0
   -3.1217    0.4649    1.2638 C   0  0  0  0  0  0  0  0  0  0  0  0
   -3.8050    1.1549    1.7982 H   0  0  0  0  0  0  0  0  0  0  0  0
   -2.2763    0.2143    1.9391 H   0  0  0  0  0  0  0  0  0  0  0  0
  2  1  1  0  0  0  0
  3  1  1  0  0  0  0
  4  1  1  6  0  0  0
  4  9  1  0  0  0  0
  4  5  1  0  0  0  0
  5  6  1  0  0  0  0
  5  7  1  0  0  0  0
  8  5  1  0  0  0  0
  9 11  1  0  0  0  0
  9 10  1  0  0  0  0
 12 13  1  6  0  0  0
 12 14  1  0  0  0  0
 12  9  1  0  0  0  0
 14 26  1  0  0  0  0
 14 15  1  1  0  0  0
 16 17  1  0  0  0  0
 16 14  1  0  0  0  0
 18 16  1  0  0  0  0
 19 21  1  0  0  0  0
 19 16  1  0  0  0  0
 19 22  1  0  0  0  0
 20 19  1  0  0  0  0
 22 23  1  1  0  0  0
 22 26  1  0  0  0  0
 24 12  1  0  0  0  0
 24 22  1  0  0  0  0
 25 24  1  0  0  0  0
 26 27  1  0  0  0  0
 26 28  1  0  0  0  0
M  END
