11,32
 OpenBabel05122313053D

 52 53  0  0  1  0  0  0  0  0999 V2000
    2.2563   -0.9184    0.6592 Si  0  0  2  0  0  0  0  0  0  0  0  0
    3.0213   -1.2776    2.3544 C   0  0  0  0  0  0  0  0  0  0  0  0
    3.8871   -0.5994    2.4979 H   0  0  0  0  0  0  0  0  0  0  0  0
    3.4110   -2.3164    2.3391 H   0  0  0  0  0  0  0  0  0  0  0  0
    2.3533   -1.1828    3.2288 H   0  0  0  0  0  0  0  0  0  0  0  0
    3.6407   -1.4345   -0.5130 C   0  0  0  0  0  0  0  0  0  0  0  0
    3.7395   -2.5160   -0.7296 H   0  0  0  0  0  0  0  0  0  0  0  0
    4.6073   -0.6092   -0.9636 C   0  0  0  0  0  0  0  0  0  0  0  0
    4.5746    0.4782   -0.7730 H   0  0  0  0  0  0  0  0  0  0  0  0
    5.4693   -0.9730   -1.5495 H   0  0  0  0  0  0  0  0  0  0  0  0
    1.6146    0.8463    0.3785 C   0  0  1  0  0  3  0  0  0  0  0  0
    1.3217    1.4355   -0.9141 C   0  0  1  0  0  3  0  0  0  0  0  0
    0.4146    2.5331   -0.7198 C   0  0  0  0  0  0  0  0  0  0  0  0
    0.1051    2.6151    0.6688 C   0  0  0  0  0  0  0  0  0  0  0  0
    0.8249    1.5751    1.3482 C   0  0  2  0  0  3  0  0  0  0  0  0
    1.9236    1.1425   -2.2600 C   0  0  0  0  0  0  0  0  0  0  0  0
    1.1455    1.1223   -3.0487 H   0  0  0  0  0  0  0  0  0  0  0  0
    2.4738    0.1894   -2.2864 H   0  0  0  0  0  0  0  0  0  0  0  0
    2.6427    1.9457   -2.5329 H   0  0  0  0  0  0  0  0  0  0  0  0
   -0.0093    3.4856   -1.7926 C   0  0  0  0  0  0  0  0  0  0  0  0
   -0.8115    4.1637   -1.4454 H   0  0  0  0  0  0  0  0  0  0  0  0
   -0.3899    2.9461   -2.6826 H   0  0  0  0  0  0  0  0  0  0  0  0
    0.8499    4.1113   -2.1165 H   0  0  0  0  0  0  0  0  0  0  0  0
   -0.7129    3.6653    1.3512 C   0  0  0  0  0  0  0  0  0  0  0  0
   -0.0565    4.3611    1.9172 H   0  0  0  0  0  0  0  0  0  0  0  0
   -1.4275    3.2146    2.0680 H   0  0  0  0  0  0  0  0  0  0  0  0
   -1.2983    4.2644    0.6286 H   0  0  0  0  0  0  0  0  0  0  0  0
    0.8122    1.4506    2.8463 C   0  0  0  0  0  0  0  0  0  0  0  0
    1.2268    2.3751    3.3023 H   0  0  0  0  0  0  0  0  0  0  0  0
    1.4242    0.6083    3.2076 H   0  0  0  0  0  0  0  0  0  0  0  0
   -0.2174    1.3312    3.2396 H   0  0  0  0  0  0  0  0  0  0  0  0
    0.6041   -1.7817    0.3200 C   0  0  2  0  0  3  0  0  0  0  0  0
    0.0632   -1.9694   -1.0089 C   0  0  2  0  0  3  0  0  0  0  0  0
   -1.3504   -2.1955   -0.9011 C   0  0  0  0  0  0  0  0  0  0  0  0
   -1.7073   -2.1202    0.4773 C   0  0  0  0  0  0  0  0  0  0  0  0
   -0.5160   -1.8472    1.2338 C   0  0  1  0  0  3  0  0  0  0  0  0
    0.8034   -2.0939   -2.3107 C   0  0  0  0  0  0  0  0  0  0  0  0
    0.7400   -3.1403   -2.6801 H   0  0  0  0  0  0  0  0  0  0  0  0
    1.8747   -1.8452   -2.2095 H   0  0  0  0  0  0  0  0  0  0  0  0
    0.3665   -1.4462   -3.0969 H   0  0  0  0  0  0  0  0  0  0  0  0
   -2.2393   -2.5714   -2.0437 C   0  0  0  0  0  0  0  0  0  0  0  0
   -2.0115   -3.6034   -2.3876 H   0  0  0  0  0  0  0  0  0  0  0  0
   -2.0981   -1.8878   -2.9041 H   0  0  0  0  0  0  0  0  0  0  0  0
   -3.3086   -2.5361   -1.7623 H   0  0  0  0  0  0  0  0  0  0  0  0
   -3.0513   -2.3966    1.0739 C   0  0  0  0  0  0  0  0  0  0  0  0
   -3.8427   -2.4335    0.3018 H   0  0  0  0  0  0  0  0  0  0  0  0
   -3.3346   -1.6138    1.8055 H   0  0  0  0  0  0  0  0  0  0  0  0
   -3.0478   -3.3728    1.6048 H   0  0  0  0  0  0  0  0  0  0  0  0
   -0.5182   -1.8112    2.7361 C   0  0  0  0  0  0  0  0  0  0  0  0
   -1.3596   -1.2018    3.1208 H   0  0  0  0  0  0  0  0  0  0  0  0
    0.4150   -1.4043    3.1570 H   0  0  0  0  0  0  0  0  0  0  0  0
   -0.6421   -2.8390    3.1411 H   0  0  0  0  0  0  0  0  0  0  0  0
  1  6  1  6  0  0  0
  1  2  1  0  0  0  0
  2  3  1  0  0  0  0
  2  5  1  0  0  0  0
  4  2  1  0  0  0  0
  7  6  1  0  0  0  0
  8  9  1  0  0  0  0
  8  6  2  0  0  0  0
 10  8  1  0  0  0  0
 11  1  1  6  0  0  0
 11 15  1  0  0  0  0
 12 16  1  1  0  0  0
 12 13  1  0  0  0  0
 12 11  1  0  0  0  0
 13 14  2  0  0  0  0
 14 15  1  0  0  0  0
 14 24  1  0  0  0  0
 15 28  1  1  0  0  0
 17 16  1  0  0  0  0
 18 16  1  0  0  0  0
 19 16  1  0  0  0  0
 20 21  1  0  0  0  0
 20 13  1  0  0  0  0
 22 20  1  0  0  0  0
 23 20  1  0  0  0  0
 24 25  1  0  0  0  0
 24 26  1  0  0  0  0
 27 24  1  0  0  0  0
 28 30  1  0  0  0  0
 28 31  1  0  0  0  0
 28 29  1  0  0  0  0
 32  1  1  6  0  0  0
 32 36  1  0  0  0  0
 33 37  1  1  0  0  0
 33 34  1  0  0  0  0
 33 32  1  0  0  0  0
 34 35  2  0  0  0  0
 35 45  1  0  0  0  0
 35 36  1  0  0  0  0
 36 49  1  1  0  0  0
 37 39  1  0  0  0  0
 38 37  1  0  0  0  0
 40 37  1  0  0  0  0
 41 44  1  0  0  0  0
 41 34  1  0  0  0  0
 42 41  1  0  0  0  0
 43 41  1  0  0  0  0
 45 48  1  0  0  0  0
 45 47  1  0  0  0  0
 46 45  1  0  0  0  0
 49 50  1  0  0  0  0
 49 52  1  0  0  0  0
 49 51  1  0  0  0  0
M  END
