4,7
 OpenBabel05122313053D

 23 24  0  0  0  0  0  0  0  0999 V2000
    2.4693   -1.8810   -0.4004 C   0  0  0  0  0  0  0  0  0  0  0  0
    1.7786   -1.6338    0.8895 C   0  0  0  0  0  3  0  0  0  0  0  0
    2.3213   -1.8904    1.8113 H   0  0  0  0  0  0  0  0  0  0  0  0
    0.4061   -1.3034    0.9544 C   0  0  0  0  0  3  0  0  0  0  0  0
   -0.1031   -1.2859    1.9307 H   0  0  0  0  0  0  0  0  0  0  0  0
   -0.3301   -0.8887   -0.2071 C   0  0  0  0  0  3  0  0  0  0  0  0
    0.4285   -0.7760   -1.4212 C   0  0  0  0  0  3  0  0  0  0  0  0
   -0.0716   -0.3816   -2.3194 H   0  0  0  0  0  0  0  0  0  0  0  0
    1.8026   -1.1035   -1.4747 C   0  0  0  0  0  3  0  0  0  0  0  0
    2.3596   -0.9569   -2.4118 H   0  0  0  0  0  0  0  0  0  0  0  0
   -1.7791   -0.5874   -0.1449 C   0  0  0  0  0  0  0  0  0  0  0  0
   -2.6298   -1.3464    0.6907 C   0  0  0  0  0  0  0  0  0  0  0  0
   -2.2113   -2.1717    1.2863 H   0  0  0  0  0  0  0  0  0  0  0  0
   -4.0025   -1.0951    0.7567 C   0  0  0  0  0  0  0  0  0  0  0  0
   -4.6615   -1.6934    1.4016 H   0  0  0  0  0  0  0  0  0  0  0  0
   -4.5678   -0.0648   -0.0210 C   0  0  0  0  0  0  0  0  0  0  0  0
   -3.7320    0.7018   -0.8603 C   0  0  0  0  0  0  0  0  0  0  0  0
   -4.1611    1.5203   -1.4612 H   0  0  0  0  0  0  0  0  0  0  0  0
   -2.3600    0.4413   -0.9182 C   0  0  0  0  0  0  0  0  0  0  0  0
   -1.7274    1.0786   -1.5536 H   0  0  0  0  0  0  0  0  0  0  0  0
    3.5276   -2.4898   -0.5264 O   0  0  0  0  0  0  0  0  0  0  0  0
   -5.9051    0.1443    0.0776 O   0  0  0  0  0  0  0  0  0  0  0  0
   -6.1523    0.8806   -0.5125 H   0  0  0  0  0  0  0  0  0  0  0  0
  1  2  1  0  0  0  0
  2  4  1  0  0  0  0
  2  3  1  0  0  0  0
  4  5  1  0  0  0  0
  6 11  1  0  0  0  0
  6  4  1  0  0  0  0
  7  6  1  0  0  0  0
  8  7  1  0  0  0  0
  9  7  1  0  0  0  0
  9  1  1  0  0  0  0
 10  9  1  0  0  0  0
 11 12  1  0  0  0  0
 12 14  2  0  0  0  0
 12 13  1  0  0  0  0
 14 15  1  0  0  0  0
 16 22  1  0  0  0  0
 16 14  1  0  0  0  0
 17 16  2  0  0  0  0
 18 17  1  0  0  0  0
 19 17  1  0  0  0  0
 19 11  2  0  0  0  0
 20 19  1  0  0  0  0
 21  1  2  0  0  0  0
 23 22  1  0  0  0  0
M  END
