5,9
 OpenBabel05122313053D

 25 25  0  0  1  0  0  0  0  0999 V2000
   -0.1038   -2.3214   -1.8864 O   0  0  0  0  0  0  0  0  0  0  0  0
   -1.0326   -2.6215   -1.8927 H   0  0  0  0  0  0  0  0  0  0  0  0
    0.2465    3.0329   -0.9273 O   0  0  0  0  0  0  0  0  0  0  0  0
   -0.0639   -1.0463   -1.4162 C   0  0  1  0  0  3  0  0  0  0  0  0
   -1.2568   -0.2845   -1.1743 C   0  0  1  0  0  3  0  0  0  0  0  0
   -1.1463    1.0876   -0.7881 C   0  0  1  0  0  3  0  0  0  0  0  0
    0.1511    1.8025   -0.9240 C   0  0  0  0  0  0  0  0  0  0  0  0
    1.3193    0.8941   -0.7762 C   0  0  1  0  0  3  0  0  0  0  0  0
    1.2285   -0.4777   -1.1628 C   0  0  2  0  0  3  0  0  0  0  0  0
   -2.5948   -0.9455   -1.3995 C   0  0  0  0  0  0  0  0  0  0  0  0
   -2.8669   -0.9017   -2.4755 H   0  0  0  0  0  0  0  0  0  0  0  0
   -3.3971   -0.4427   -0.8320 H   0  0  0  0  0  0  0  0  0  0  0  0
   -2.6089   -2.0082   -1.0772 H   0  0  0  0  0  0  0  0  0  0  0  0
   -2.3514    1.9433   -0.5158 C   0  0  0  0  0  0  0  0  0  0  0  0
   -2.8776    2.2026   -1.4595 H   0  0  0  0  0  0  0  0  0  0  0  0
   -2.0152    2.8951   -0.0634 H   0  0  0  0  0  0  0  0  0  0  0  0
   -3.0786    1.4510    0.1580 H   0  0  0  0  0  0  0  0  0  0  0  0
    2.6419    1.5479   -0.4940 C   0  0  0  0  0  0  0  0  0  0  0  0
    3.2110    1.7084   -1.4349 H   0  0  0  0  0  0  0  0  0  0  0  0
    3.2745    0.9439    0.1839 H   0  0  0  0  0  0  0  0  0  0  0  0
    2.4624    2.5445   -0.0491 H   0  0  0  0  0  0  0  0  0  0  0  0
    2.4510   -1.3328   -1.3668 C   0  0  0  0  0  0  0  0  0  0  0  0
    3.2441   -1.0933   -0.6363 H   0  0  0  0  0  0  0  0  0  0  0  0
    2.8636   -1.1456   -2.3807 H   0  0  0  0  0  0  0  0  0  0  0  0
    2.2075   -2.4073   -1.2934 H   0  0  0  0  0  0  0  0  0  0  0  0
  2  1  1  0  0  0  0
  3  7  2  0  0  0  0
  4  1  1  1  0  0  0
  4  5  1  0  0  0  0
  4  9  1  0  0  0  0
  5 10  1  6  0  0  0
  5  6  1  0  0  0  0
  6 14  1  6  0  0  0
  7  6  1  0  0  0  0
  7  8  1  0  0  0  0
  8 18  1  6  0  0  0
  9 22  1  6  0  0  0
  9  8  1  0  0  0  0
 10 13  1  0  0  0  0
 10 12  1  0  0  0  0
 11 10  1  0  0  0  0
 14 16  1  0  0  0  0
 14 17  1  0  0  0  0
 15 14  1  0  0  0  0
 18 21  1  0  0  0  0
 18 20  1  0  0  0  0
 19 18  1  0  0  0  0
 22 25  1  0  0  0  0
 22 23  1  0  0  0  0
 24 22  1  0  0  0  0
M  END
