2,4
 OpenBabel05122313053D

 23 23  0  0  1  0  0  0  0  0999 V2000
   -1.5136   -0.4798    1.4886 N   0  0  0  0  0  1  0  0  0  0  0  0
   -2.4586   -0.3818    0.7038 C   0  0  0  0  0  2  0  0  0  0  0  0
   -2.1891   -0.5132   -1.9588 C   0  0  1  0  0  3  0  0  0  0  0  0
   -0.9519    0.0656   -2.3622 C   0  0  0  0  0  3  0  0  0  0  0  0
   -0.9098    1.1419   -2.6128 H   0  0  0  0  0  0  0  0  0  0  0  0
   -0.2252   -0.5535   -2.9181 H   0  0  0  0  0  0  0  0  0  0  0  0
   -3.8959   -0.3739    0.5111 C   0  0  0  0  0  0  0  0  0  0  0  0
   -4.7712   -0.6862    1.5750 C   0  0  0  0  0  0  0  0  0  0  0  0
   -4.3418   -0.9407    2.5552 H   0  0  0  0  0  0  0  0  0  0  0  0
   -6.1556   -0.6752    1.3727 C   0  0  0  0  0  0  0  0  0  0  0  0
   -6.8364   -0.9237    2.2010 H   0  0  0  0  0  0  0  0  0  0  0  0
   -6.6696   -0.3514    0.1054 C   0  0  0  0  0  0  0  0  0  0  0  0
   -7.7575   -0.3471   -0.0628 H   0  0  0  0  0  0  0  0  0  0  0  0
   -5.8001   -0.0387   -0.9513 C   0  0  0  0  0  0  0  0  0  0  0  0
   -6.2107    0.2103   -1.9428 H   0  0  0  0  0  0  0  0  0  0  0  0
   -4.4065   -0.0390   -0.7710 C   0  0  0  0  0  0  0  0  0  0  0  0
   -3.4534    0.3309   -1.8903 C   0  0  0  0  0  0  0  0  0  0  0  0
   -4.0053    0.2615   -2.8561 H   0  0  0  0  0  0  0  0  0  0  0  0
   -3.1657    1.3996   -1.7750 H   0  0  0  0  0  0  0  0  0  0  0  0
   -2.4310   -1.9939   -2.1877 C   0  0  0  0  0  0  0  0  0  0  0  0
   -3.0887   -2.4313   -1.4088 H   0  0  0  0  0  0  0  0  0  0  0  0
   -1.4833   -2.5676   -2.1930 H   0  0  0  0  0  0  0  0  0  0  0  0
   -2.9330   -2.1599   -3.1690 H   0  0  0  0  0  0  0  0  0  0  0  0
  2  1  1  0  0  0  0
  3  4  1  6  0  0  0
  3 17  1  0  0  0  0
  5  4  1  0  0  0  0
  6  4  1  0  0  0  0
  7  2  1  0  0  0  0
  7  8  1  0  0  0  0
  8  9  1  0  0  0  0
 10  8  2  0  0  0  0
 10 11  1  0  0  0  0
 12 10  1  0  0  0  0
 13 12  1  0  0  0  0
 14 16  1  0  0  0  0
 14 12  2  0  0  0  0
 15 14  1  0  0  0  0
 16  7  2  0  0  0  0
 17 19  1  0  0  0  0
 17 16  1  0  0  0  0
 18 17  1  0  0  0  0
 20  3  1  0  0  0  0
 20 21  1  0  0  0  0
 22 20  1  0  0  0  0
 23 20  1  0  0  0  0
M  END
