1,4
 OpenBabel05122313053D

 33 35  0  0  0  0  0  0  0  0999 V2000
   -1.2760    1.0071   -0.1573 C   0  0  0  0  0  2  0  0  0  0  0  0
   -0.6968    2.2958    0.0075 C   0  0  0  0  0  0  0  0  0  0  0  0
    0.6971    2.2957    0.0076 C   0  0  0  0  0  0  0  0  0  0  0  0
    1.2761    1.0068   -0.1572 C   0  0  0  0  0  2  0  0  0  0  0  0
   -1.1746    3.7238    0.0143 C   0  0  0  0  0  0  0  0  0  0  0  0
   -1.9198    3.9402   -0.7838 H   0  0  0  0  0  0  0  0  0  0  0  0
   -1.6560    3.9988    0.9892 H   0  0  0  0  0  0  0  0  0  0  0  0
    1.1753    3.7235    0.0145 C   0  0  0  0  0  0  0  0  0  0  0  0
    1.6565    3.9985    0.9894 H   0  0  0  0  0  0  0  0  0  0  0  0
    1.9206    3.9398   -0.7835 H   0  0  0  0  0  0  0  0  0  0  0  0
   -2.7284    0.8235   -0.2697 C   0  0  0  0  0  0  0  0  0  0  0  0
   -3.2530   -0.1810   -1.1242 C   0  0  0  0  0  0  0  0  0  0  0  0
   -2.5468   -0.7852   -1.7127 H   0  0  0  0  0  0  0  0  0  0  0  0
   -4.6352   -0.3769   -1.2389 C   0  0  0  0  0  0  0  0  0  0  0  0
   -5.0215   -1.1532   -1.9172 H   0  0  0  0  0  0  0  0  0  0  0  0
   -5.5271    0.4148   -0.4964 C   0  0  0  0  0  0  0  0  0  0  0  0
   -6.6129    0.2542   -0.5802 H   0  0  0  0  0  0  0  0  0  0  0  0
   -5.0267    1.4220    0.3482 C   0  0  0  0  0  0  0  0  0  0  0  0
   -5.7207    2.0467    0.9312 H   0  0  0  0  0  0  0  0  0  0  0  0
   -3.6468    1.6313    0.4515 C   0  0  0  0  0  0  0  0  0  0  0  0
   -3.2636    2.4093    1.1288 H   0  0  0  0  0  0  0  0  0  0  0  0
    2.7285    0.8231   -0.2696 C   0  0  0  0  0  0  0  0  0  0  0  0
    3.2531   -0.1812   -1.1242 C   0  0  0  0  0  0  0  0  0  0  0  0
    2.5469   -0.7855   -1.7127 H   0  0  0  0  0  0  0  0  0  0  0  0
    4.6353   -0.3771   -1.2390 C   0  0  0  0  0  0  0  0  0  0  0  0
    5.0216   -1.1533   -1.9175 H   0  0  0  0  0  0  0  0  0  0  0  0
    5.5272    0.4145   -0.4964 C   0  0  0  0  0  0  0  0  0  0  0  0
    6.6130    0.2540   -0.5802 H   0  0  0  0  0  0  0  0  0  0  0  0
    5.0268    1.4215    0.3484 C   0  0  0  0  0  0  0  0  0  0  0  0
    5.7208    2.0461    0.9316 H   0  0  0  0  0  0  0  0  0  0  0  0
    3.6469    1.6308    0.4518 C   0  0  0  0  0  0  0  0  0  0  0  0
    3.2637    2.4087    1.1292 H   0  0  0  0  0  0  0  0  0  0  0  0
    0.0004    4.5097   -0.2030 O   0  0  0  0  0  0  0  0  0  0  0  0
  1  2  1  0  0  0  0
  2  3  2  0  0  0  0
  2  5  1  0  0  0  0
  3  8  1  0  0  0  0
  4  3  1  0  0  0  0
  5  7  1  0  0  0  0
  6  5  1  0  0  0  0
  8  9  1  0  0  0  0
 10  8  1  0  0  0  0
 11  1  1  0  0  0  0
 11 20  1  0  0  0  0
 12 11  2  0  0  0  0
 13 12  1  0  0  0  0
 14 12  1  0  0  0  0
 14 16  2  0  0  0  0
 15 14  1  0  0  0  0
 16 18  1  0  0  0  0
 17 16  1  0  0  0  0
 18 20  2  0  0  0  0
 18 19  1  0  0  0  0
 20 21  1  0  0  0  0
 22  4  1  0  0  0  0
 22 31  1  0  0  0  0
 23 22  2  0  0  0  0
 24 23  1  0  0  0  0
 25 23  1  0  0  0  0
 25 27  2  0  0  0  0
 26 25  1  0  0  0  0
 27 29  1  0  0  0  0
 28 27  1  0  0  0  0
 29 31  2  0  0  0  0
 29 30  1  0  0  0  0
 31 32  1  0  0  0  0
 33  5  1  0  0  0  0
 33  8  1  0  0  0  0
M  END
