6,7
 OpenBabel05122313053D

 59 62  0  0  0  0  0  0  0  0999 V2000
   -2.6675    0.9415    0.2976 N   0  0  0  0  0  0  0  0  0  0  0  0
   -3.3564    2.0299    0.6512 N   0  0  0  0  0  2  0  0  0  0  0  0
   -2.4976    3.0213    0.4815 N   0  0  0  0  0  0  0  0  0  0  0  0
    1.1558    2.7859    0.0875 N   0  0  0  0  0  0  0  0  0  0  0  0
    2.7182    1.3212    0.3578 N   0  0  0  0  0  0  0  0  0  0  0  0
    1.4361    1.4550   -0.1076 C   0  0  0  0  0  2  0  0  0  0  0  0
   -1.3682    1.1881   -0.1064 C   0  0  0  0  0  3  0  0  0  0  0  0
   -2.9268    4.3837    0.7721 C   0  0  0  0  0  0  0  0  0  0  0  0
   -3.9662    4.3360    1.1394 H   0  0  0  0  0  0  0  0  0  0  0  0
   -2.8842    5.0014   -0.1454 H   0  0  0  0  0  0  0  0  0  0  0  0
   -2.2792    4.8270    1.5529 H   0  0  0  0  0  0  0  0  0  0  0  0
   -3.6519   -2.4861    1.3577 C   0  0  0  0  0  0  0  0  0  0  0  0
   -3.4251   -3.2030    2.1625 H   0  0  0  0  0  0  0  0  0  0  0  0
    4.9130   -2.3121    0.4398 C   0  0  0  0  0  0  0  0  0  0  0  0
   -1.2797    2.5764    0.0319 C   0  0  0  0  0  0  0  0  0  0  0  0
    3.9557   -2.0256    1.4320 C   0  0  0  0  0  0  0  0  0  0  0  0
    3.7773   -2.7570    2.2361 H   0  0  0  0  0  0  0  0  0  0  0  0
    5.1241   -1.3620   -0.5786 C   0  0  0  0  0  0  0  0  0  0  0  0
    5.8623   -1.5729   -1.3684 H   0  0  0  0  0  0  0  0  0  0  0  0
    2.2366    3.4626    0.6437 C   0  0  0  0  0  0  0  0  0  0  0  0
    2.2135    4.5337    0.8664 H   0  0  0  0  0  0  0  0  0  0  0  0
    3.2245    2.5321    0.8185 C   0  0  0  0  0  0  0  0  0  0  0  0
    4.2311    2.6175    1.2381 H   0  0  0  0  0  0  0  0  0  0  0  0
   -3.0205   -1.2304    1.3772 C   0  0  0  0  0  0  0  0  0  0  0  0
   -5.2532   -4.1875    0.3716 C   0  0  0  0  0  0  0  0  0  0  0  0
   -4.6689   -4.9401    0.9349 H   0  0  0  0  0  0  0  0  0  0  0  0
   -5.4291   -4.5738   -0.6513 H   0  0  0  0  0  0  0  0  0  0  0  0
   -6.2464   -4.1069    0.8630 H   0  0  0  0  0  0  0  0  0  0  0  0
   -4.2416   -0.6453   -0.7016 C   0  0  0  0  0  0  0  0  0  0  0  0
   -2.0362   -0.8608    2.4541 C   0  0  0  0  0  0  0  0  0  0  0  0
   -2.0240   -1.6176    3.2599 H   0  0  0  0  0  0  0  0  0  0  0  0
   -2.2761    0.1222    2.9080 H   0  0  0  0  0  0  0  0  0  0  0  0
   -1.0079   -0.7800    2.0410 H   0  0  0  0  0  0  0  0  0  0  0  0
    2.1830   -0.5475    2.4902 C   0  0  0  0  0  0  0  0  0  0  0  0
    2.2305   -1.2938    3.3045 H   0  0  0  0  0  0  0  0  0  0  0  0
    1.1603   -0.5763    2.0557 H   0  0  0  0  0  0  0  0  0  0  0  0
    2.3082    0.4602    2.9360 H   0  0  0  0  0  0  0  0  0  0  0  0
   -4.5652   -2.8481    0.3488 C   0  0  0  0  0  0  0  0  0  0  0  0
    3.2193   -0.8276    1.4343 C   0  0  0  0  0  0  0  0  0  0  0  0
   -4.5244    0.3348   -1.8096 C   0  0  0  0  0  0  0  0  0  0  0  0
   -5.1877   -0.1103   -2.5737 H   0  0  0  0  0  0  0  0  0  0  0  0
   -3.5870    0.6547   -2.3129 H   0  0  0  0  0  0  0  0  0  0  0  0
   -5.0151    1.2517   -1.4237 H   0  0  0  0  0  0  0  0  0  0  0  0
    4.6231    0.8392   -1.7429 C   0  0  0  0  0  0  0  0  0  0  0  0
    5.3301    0.4450   -2.4961 H   0  0  0  0  0  0  0  0  0  0  0  0
    5.0295    1.8036   -1.3738 H   0  0  0  0  0  0  0  0  0  0  0  0
    3.6660    1.0740   -2.2547 H   0  0  0  0  0  0  0  0  0  0  0  0
    5.7133   -3.5876    0.4802 C   0  0  0  0  0  0  0  0  0  0  0  0
    5.9307   -3.9657   -0.5379 H   0  0  0  0  0  0  0  0  0  0  0  0
    5.1902   -4.3832    1.0446 H   0  0  0  0  0  0  0  0  0  0  0  0
    6.6918   -3.4195    0.9789 H   0  0  0  0  0  0  0  0  0  0  0  0
   -0.0995    3.4406   -0.2810 C   0  0  0  0  0  0  0  0  0  0  0  0
   -0.0785    3.6814   -1.3673 H   0  0  0  0  0  0  0  0  0  0  0  0
   -0.1526    4.4036    0.2624 H   0  0  0  0  0  0  0  0  0  0  0  0
    3.4644    0.0893    0.3906 C   0  0  0  0  0  0  0  0  0  0  0  0
    4.4142   -0.1502   -0.6261 C   0  0  0  0  0  0  0  0  0  0  0  0
   -3.3336   -0.3363    0.3336 C   0  0  0  0  0  0  0  0  0  0  0  0
   -4.8430   -1.9144   -0.6694 C   0  0  0  0  0  0  0  0  0  0  0  0
   -5.5497   -2.1833   -1.4702 H   0  0  0  0  0  0  0  0  0  0  0  0
  1 57  1  0  0  0  0
  1  2  1  0  0  0  0
  3  2  1  0  0  0  0
  3  8  1  0  0  0  0
  4 20  1  0  0  0  0
  5 55  1  0  0  0  0
  5 22  1  0  0  0  0
  6  4  1  0  0  0  0
  6  5  1  0  0  0  0
  7 15  2  0  0  0  0
  7  1  1  0  0  0  0
  8  9  1  0  0  0  0
  8 11  1  0  0  0  0
 10  8  1  0  0  0  0
 12 24  1  0  0  0  0
 12 13  1  0  0  0  0
 14 48  1  0  0  0  0
 14 16  1  0  0  0  0
 15  3  1  0  0  0  0
 16 39  2  0  0  0  0
 16 17  1  0  0  0  0
 18 14  2  0  0  0  0
 19 18  1  0  0  0  0
 20 22  2  0  0  0  0
 20 21  1  0  0  0  0
 22 23  1  0  0  0  0
 24 30  1  0  0  0  0
 25 28  1  0  0  0  0
 25 26  1  0  0  0  0
 27 25  1  0  0  0  0
 29 58  2  0  0  0  0
 29 57  1  0  0  0  0
 30 32  1  0  0  0  0
 30 31  1  0  0  0  0
 33 30  1  0  0  0  0
 34 37  1  0  0  0  0
 34 35  1  0  0  0  0
 36 34  1  0  0  0  0
 38 25  1  0  0  0  0
 38 12  2  0  0  0  0
 39 34  1  0  0  0  0
 40 43  1  0  0  0  0
 40 29  1  0  0  0  0
 41 40  1  0  0  0  0
 42 40  1  0  0  0  0
 44 46  1  0  0  0  0
 44 56  1  0  0  0  0
 45 44  1  0  0  0  0
 47 44  1  0  0  0  0
 48 51  1  0  0  0  0
 48 50  1  0  0  0  0
 49 48  1  0  0  0  0
 52 15  1  0  0  0  0
 52  4  1  0  0  0  0
 52 54  1  0  0  0  0
 53 52  1  0  0  0  0
 55 39  1  0  0  0  0
 56 18  1  0  0  0  0
 56 55  2  0  0  0  0
 57 24  2  0  0  0  0
 58 38  1  0  0  0  0
 59 58  1  0  0  0  0
M  END
