15,64
 OpenBabel05122313053D

 77 81  0  0  0  0  0  0  0  0999 V2000
    2.9044    0.6529   -1.2370 N   0  0  0  0  0  0  0  0  0  0  0  0
    2.9757   -1.4320   -0.5508 N   0  0  0  0  0  0  0  0  0  0  0  0
   -2.8513   -1.5296   -0.7625 N   0  0  0  0  0  0  0  0  0  0  0  0
   -2.8804    0.6330   -1.1460 N   0  0  0  0  0  0  0  0  0  0  0  0
    4.2528    0.2912   -1.2398 C   0  0  0  0  0  0  0  0  0  0  0  0
    4.2990   -1.0541   -0.8081 C   0  0  0  0  0  0  0  0  0  0  0  0
    5.5119   -1.7543   -0.7144 C   0  0  0  0  0  0  0  0  0  0  0  0
    5.5579   -2.8036   -0.3926 H   0  0  0  0  0  0  0  0  0  0  0  0
    6.6738   -1.0506   -1.0575 C   0  0  0  0  0  0  0  0  0  0  0  0
    7.6462   -1.5601   -0.9955 H   0  0  0  0  0  0  0  0  0  0  0  0
    6.6275    0.2979   -1.4828 C   0  0  0  0  0  0  0  0  0  0  0  0
    7.5652    0.8111   -1.7407 H   0  0  0  0  0  0  0  0  0  0  0  0
    5.4170    0.9952   -1.5835 C   0  0  0  0  0  0  0  0  0  0  0  0
    5.3857    2.0432   -1.9115 H   0  0  0  0  0  0  0  0  0  0  0  0
    2.1375   -0.3882   -0.8158 C   0  0  0  0  0  2  0  0  0  0  0  0
    2.4085    1.9935   -1.5564 C   0  0  0  0  0  0  0  0  0  0  0  0
    1.3454    1.8799   -1.8547 H   0  0  0  0  0  0  0  0  0  0  0  0
    2.9518    2.3458   -2.4577 H   0  0  0  0  0  0  0  0  0  0  0  0
    2.5343    2.9796   -0.3950 C   0  0  0  0  0  0  0  0  0  0  0  0
    2.0336    2.5387    0.4946 H   0  0  0  0  0  0  0  0  0  0  0  0
    3.6051    3.1102   -0.1274 H   0  0  0  0  0  0  0  0  0  0  0  0
    1.8999    4.3342   -0.7233 C   0  0  0  0  0  0  0  0  0  0  0  0
    2.4362    4.8087   -1.5748 H   0  0  0  0  0  0  0  0  0  0  0  0
    0.8589    4.1648   -1.0817 H   0  0  0  0  0  0  0  0  0  0  0  0
    1.8715    5.2796    0.4776 C   0  0  0  0  0  0  0  0  0  0  0  0
    1.2924    4.8383    1.3149 H   0  0  0  0  0  0  0  0  0  0  0  0
    1.4074    6.2512    0.2171 H   0  0  0  0  0  0  0  0  0  0  0  0
    2.8945    5.4872    0.8530 H   0  0  0  0  0  0  0  0  0  0  0  0
    2.6286   -2.8093   -0.1292 C   0  0  0  0  0  0  0  0  0  0  0  0
    3.4175   -3.1165    0.5813 H   0  0  0  0  0  0  0  0  0  0  0  0
    2.7266   -3.4682   -1.0143 H   0  0  0  0  0  0  0  0  0  0  0  0
    1.2726   -2.9172    0.5195 C   0  0  0  0  0  0  0  0  0  0  0  0
    0.1019   -3.1024   -0.2686 C   0  0  0  0  0  0  0  0  0  0  0  0
   -1.1705   -2.9810    0.3577 C   0  0  0  0  0  0  0  0  0  0  0  0
   -1.2769   -2.7846    1.7574 C   0  0  0  0  0  0  0  0  0  0  0  0
   -0.0976   -2.6950    2.5128 C   0  0  0  0  0  0  0  0  0  0  0  0
   -0.1749   -2.5307    3.5976 H   0  0  0  0  0  0  0  0  0  0  0  0
    1.1741   -2.7098    1.9213 C   0  0  0  0  0  0  0  0  0  0  0  0
    0.1772   -3.3772   -1.7571 C   0  0  0  0  0  0  0  0  0  0  0  0
    1.2020   -3.3041   -2.1592 H   0  0  0  0  0  0  0  0  0  0  0  0
   -0.4387   -2.6690   -2.3472 H   0  0  0  0  0  0  0  0  0  0  0  0
   -0.1904   -4.3990   -1.9880 H   0  0  0  0  0  0  0  0  0  0  0  0
   -2.6106   -2.5904    2.4290 C   0  0  0  0  0  0  0  0  0  0  0  0
   -2.4967   -2.5271    3.5265 H   0  0  0  0  0  0  0  0  0  0  0  0
   -3.3193   -3.4156    2.2092 H   0  0  0  0  0  0  0  0  0  0  0  0
   -3.0891   -1.6460    2.0939 H   0  0  0  0  0  0  0  0  0  0  0  0
    2.3874   -2.4285    2.7683 C   0  0  0  0  0  0  0  0  0  0  0  0
    2.1120   -2.3418    3.8351 H   0  0  0  0  0  0  0  0  0  0  0  0
    2.8574   -1.4663    2.4747 H   0  0  0  0  0  0  0  0  0  0  0  0
    3.1595   -3.2212    2.6829 H   0  0  0  0  0  0  0  0  0  0  0  0
   -2.4220   -2.9198   -0.4814 C   0  0  0  0  0  0  0  0  0  0  0  0
   -2.3107   -3.4497   -1.4467 H   0  0  0  0  0  0  0  0  0  0  0  0
   -3.2681   -3.3944    0.0495 H   0  0  0  0  0  0  0  0  0  0  0  0
   -4.1847   -1.1931   -1.0227 C   0  0  0  0  0  0  0  0  0  0  0  0
   -4.2033    0.2005   -1.2618 C   0  0  0  0  0  0  0  0  0  0  0  0
   -5.3942    0.8812   -1.5587 C   0  0  0  0  0  0  0  0  0  0  0  0
   -5.4126    1.9641   -1.7415 H   0  0  0  0  0  0  0  0  0  0  0  0
   -6.5638    0.1126   -1.6087 C   0  0  0  0  0  0  0  0  0  0  0  0
   -7.5198    0.6050   -1.8380 H   0  0  0  0  0  0  0  0  0  0  0  0
   -6.5454   -1.2824   -1.3728 C   0  0  0  0  0  0  0  0  0  0  0  0
   -7.4872   -1.8474   -1.4254 H   0  0  0  0  0  0  0  0  0  0  0  0
   -5.3571   -1.9632   -1.0784 C   0  0  0  0  0  0  0  0  0  0  0  0
   -5.3526   -3.0485   -0.9084 H   0  0  0  0  0  0  0  0  0  0  0  0
   -2.0680   -0.4149   -0.8466 C   0  0  0  0  0  2  0  0  0  0  0  0
   -2.4631    2.0364   -1.2121 C   0  0  0  0  0  0  0  0  0  0  0  0
   -2.9167    2.4833   -2.1213 H   0  0  0  0  0  0  0  0  0  0  0  0
   -1.3644    2.0380   -1.3661 H   0  0  0  0  0  0  0  0  0  0  0  0
   -2.8172    2.8264    0.0488 C   0  0  0  0  0  0  0  0  0  0  0  0
   -3.9213    2.8758    0.1661 H   0  0  0  0  0  0  0  0  0  0  0  0
   -2.4189    2.2738    0.9269 H   0  0  0  0  0  0  0  0  0  0  0  0
   -2.2224    4.2370    0.0267 C   0  0  0  0  0  0  0  0  0  0  0  0
   -2.6003    4.7937   -0.8599 H   0  0  0  0  0  0  0  0  0  0  0  0
   -1.1210    4.1544   -0.1073 H   0  0  0  0  0  0  0  0  0  0  0  0
   -2.5155    5.0215    1.3052 C   0  0  0  0  0  0  0  0  0  0  0  0
   -3.6065    5.1447    1.4654 H   0  0  0  0  0  0  0  0  0  0  0  0
   -2.0663    6.0335    1.2692 H   0  0  0  0  0  0  0  0  0  0  0  0
   -2.1021    4.4992    2.1921 H   0  0  0  0  0  0  0  0  0  0  0  0
  1 15  1  0  0  0  0
  2 29  1  0  0  0  0
  3 51  1  0  0  0  0
  4 64  1  0  0  0  0
  5  1  1  0  0  0  0
  5  6  1  0  0  0  0
  6  7  2  0  0  0  0
  6  2  1  0  0  0  0
  7  8  1  0  0  0  0
  9 10  1  0  0  0  0
  9  7  1  0  0  0  0
 11  9  2  0  0  0  0
 12 11  1  0  0  0  0
 13 11  1  0  0  0  0
 13  5  2  0  0  0  0
 14 13  1  0  0  0  0
 15  2  1  0  0  0  0
 16  1  1  0  0  0  0
 16 19  1  0  0  0  0
 17 16  1  0  0  0  0
 18 16  1  0  0  0  0
 19 21  1  0  0  0  0
 19 20  1  0  0  0  0
 22 19  1  0  0  0  0
 22 25  1  0  0  0  0
 23 22  1  0  0  0  0
 24 22  1  0  0  0  0
 25 28  1  0  0  0  0
 25 26  1  0  0  0  0
 27 25  1  0  0  0  0
 29 32  1  0  0  0  0
 29 30  1  0  0  0  0
 31 29  1  0  0  0  0
 32 38  1  0  0  0  0
 33 34  1  0  0  0  0
 33 32  2  0  0  0  0
 34 35  2  0  0  0  0
 35 43  1  0  0  0  0
 35 36  1  0  0  0  0
 36 37  1  0  0  0  0
 38 36  2  0  0  0  0
 38 47  1  0  0  0  0
 39 33  1  0  0  0  0
 40 39  1  0  0  0  0
 41 39  1  0  0  0  0
 42 39  1  0  0  0  0
 43 44  1  0  0  0  0
 45 43  1  0  0  0  0
 46 43  1  0  0  0  0
 47 48  1  0  0  0  0
 49 47  1  0  0  0  0
 50 47  1  0  0  0  0
 51 53  1  0  0  0  0
 51 34  1  0  0  0  0
 52 51  1  0  0  0  0
 54  3  1  0  0  0  0
 55  4  1  0  0  0  0
 55 54  2  0  0  0  0
 56 55  1  0  0  0  0
 57 56  1  0  0  0  0
 58 56  2  0  0  0  0
 58 60  1  0  0  0  0
 59 58  1  0  0  0  0
 60 62  2  0  0  0  0
 61 60  1  0  0  0  0
 62 54  1  0  0  0  0
 62 63  1  0  0  0  0
 64  3  1  0  0  0  0
 65  4  1  0  0  0  0
 65 68  1  0  0  0  0
 66 65  1  0  0  0  0
 67 65  1  0  0  0  0
 68 69  1  0  0  0  0
 68 70  1  0  0  0  0
 71 68  1  0  0  0  0
 71 74  1  0  0  0  0
 72 71  1  0  0  0  0
 73 71  1  0  0  0  0
 74 75  1  0  0  0  0
 74 77  1  0  0  0  0
 76 74  1  0  0  0  0
M  END
