5,11
 OpenBabel05122313053D

 29 30  0  0  1  0  0  0  0  0999 V2000
    0.9384    1.6094   -1.1617 C   0  0  0  0  0  0  0  0  0  0  0  0
   -0.0596    2.5299   -0.7125 C   0  0  0  0  0  0  0  0  0  0  0  0
   -0.0598    2.5306    0.7097 C   0  0  0  0  0  0  0  0  0  0  0  0
    0.9382    1.6107    1.1601 C   0  0  0  0  0  0  0  0  0  0  0  0
    1.5575    1.0175   -0.0004 C   0  0  1  0  0  3  0  0  0  0  0  0
    2.1625   -0.3898    0.0003 C   0  0  0  0  0  0  0  0  0  0  0  0
   -0.0412   -1.3781   -1.1341 C   0  0  0  0  0  3  0  0  0  0  0  0
   -1.0262   -2.4829   -0.7775 C   0  0  0  0  0  0  0  0  0  0  0  0
   -1.0267   -2.4830    0.7763 C   0  0  0  0  0  0  0  0  0  0  0  0
   -0.0415   -1.3785    1.1336 C   0  0  0  0  0  3  0  0  0  0  0  0
    0.8127   -1.1319   -0.0000 C   0  0  0  0  0  3  0  0  0  0  0  0
    2.9909   -0.6859    1.2541 C   0  0  0  0  0  0  0  0  0  0  0  0
    2.9920   -0.6867   -1.2526 C   0  0  0  0  0  0  0  0  0  0  0  0
    1.1631    1.3761   -2.2082 H   0  0  0  0  0  0  0  0  0  0  0  0
   -0.7162    3.1274   -1.3560 H   0  0  0  0  0  0  0  0  0  0  0  0
   -0.7166    3.1289    1.3523 H   0  0  0  0  0  0  0  0  0  0  0  0
    1.1628    1.3786    2.2070 H   0  0  0  0  0  0  0  0  0  0  0  0
    0.3033   -1.2607   -2.1725 H   0  0  0  0  0  0  0  0  0  0  0  0
   -0.6601   -3.4546   -1.1780 H   0  0  0  0  0  0  0  0  0  0  0  0
   -2.0308   -2.3223   -1.2164 H   0  0  0  0  0  0  0  0  0  0  0  0
   -2.0315   -2.3219    1.2146 H   0  0  0  0  0  0  0  0  0  0  0  0
   -0.6612   -3.4547    1.1771 H   0  0  0  0  0  0  0  0  0  0  0  0
    0.3027   -1.2614    2.1722 H   0  0  0  0  0  0  0  0  0  0  0  0
    2.4291   -0.4971    2.1881 H   0  0  0  0  0  0  0  0  0  0  0  0
    3.9002   -0.0518    1.2718 H   0  0  0  0  0  0  0  0  0  0  0  0
    3.3050   -1.7488    1.2637 H   0  0  0  0  0  0  0  0  0  0  0  0
    3.9012   -0.0526   -1.2700 H   0  0  0  0  0  0  0  0  0  0  0  0
    2.4309   -0.4986   -2.1873 H   0  0  0  0  0  0  0  0  0  0  0  0
    3.3062   -1.7496   -1.2612 H   0  0  0  0  0  0  0  0  0  0  0  0
  1  2  2  0  0  0  0
  1  5  1  0  0  0  0
  2  3  1  0  0  0  0
  3  4  2  0  0  0  0
  3 16  1  0  0  0  0
  4 17  1  0  0  0  0
  5  6  1  1  0  0  0
  5  4  1  0  0  0  0
  6 12  1  0  0  0  0
  7  8  1  0  0  0  0
  7 11  1  0  0  0  0
  8  9  1  0  0  0  0
  9 10  1  0  0  0  0
  9 22  1  0  0  0  0
  9 21  1  0  0  0  0
 10 23  1  0  0  0  0
 11  6  1  0  0  0  0
 11 10  1  0  0  0  0
 12 26  1  0  0  0  0
 12 25  1  0  0  0  0
 12 24  1  0  0  0  0
 13  6  1  0  0  0  0
 14  1  1  0  0  0  0
 15  2  1  0  0  0  0
 18  7  1  0  0  0  0
 19  8  1  0  0  0  0
 20  8  1  0  0  0  0
 27 13  1  0  0  0  0
 28 13  1  0  0  0  0
 29 13  1  0  0  0  0
M  END
