5,9
 OpenBabel05122313053D

 32 33  0  0  1  0  0  0  0  0999 V2000
    1.6846   -0.5134   -0.7734 N   0  0  0  0  0  2  0  0  0  0  0  0
    2.4351   -0.8969    0.1774 N   0  0  0  0  0  2  0  0  0  0  0  0
   -3.8847   -1.5024   -0.2618 N   0  0  0  0  0  0  0  0  0  0  0  0
    0.3238   -0.8009   -0.5907 C   0  0  1  0  0  3  0  0  0  0  0  0
   -0.2545   -1.2633    0.6350 C   0  0  0  0  0  3  0  0  0  0  0  0
   -1.6483   -1.4800    0.7532 C   0  0  0  0  0  0  0  0  0  0  0  0
   -2.5352   -1.2581   -0.3611 C   0  0  0  0  0  0  0  0  0  0  0  0
   -1.9625   -0.6910   -1.5530 C   0  0  0  0  0  3  0  0  0  0  0  0
   -0.5658   -0.4706   -1.6581 C   0  0  0  0  0  3  0  0  0  0  0  0
    3.8021   -0.5869    0.0252 C   0  0  0  0  0  0  0  0  0  0  0  0
    4.3385    0.1536   -1.0559 C   0  0  0  0  0  0  0  0  0  0  0  0
    5.7107    0.4086   -1.1057 C   0  0  0  0  0  0  0  0  0  0  0  0
    6.5621   -0.0660   -0.0881 C   0  0  0  0  0  0  0  0  0  0  0  0
    6.0326   -0.7989    0.9869 C   0  0  0  0  0  0  0  0  0  0  0  0
    4.6576   -1.0571    1.0455 C   0  0  0  0  0  0  0  0  0  0  0  0
   -4.4634   -1.8175    1.0358 C   0  0  0  0  0  0  0  0  0  0  0  0
   -4.7798   -0.9867   -1.2865 C   0  0  0  0  0  0  0  0  0  0  0  0
    0.4206   -1.4343    1.4838 H   0  0  0  0  0  0  0  0  0  0  0  0
   -2.0478   -1.7923    1.7239 H   0  0  0  0  0  0  0  0  0  0  0  0
   -2.6023   -0.3938   -2.3900 H   0  0  0  0  0  0  0  0  0  0  0  0
   -0.1360   -0.0326   -2.5694 H   0  0  0  0  0  0  0  0  0  0  0  0
    3.6496    0.5143   -1.8325 H   0  0  0  0  0  0  0  0  0  0  0  0
    6.1299    0.9870   -1.9436 H   0  0  0  0  0  0  0  0  0  0  0  0
    7.6420    0.1414   -0.1344 H   0  0  0  0  0  0  0  0  0  0  0  0
    6.6960   -1.1674    1.7838 H   0  0  0  0  0  0  0  0  0  0  0  0
    4.2070   -1.6238    1.8736 H   0  0  0  0  0  0  0  0  0  0  0  0
   -4.4164   -0.9583    1.7432 H   0  0  0  0  0  0  0  0  0  0  0  0
   -3.9537   -2.6858    1.4980 H   0  0  0  0  0  0  0  0  0  0  0  0
   -5.5244   -2.0938    0.8970 H   0  0  0  0  0  0  0  0  0  0  0  0
   -5.8040   -1.3477   -1.0832 H   0  0  0  0  0  0  0  0  0  0  0  0
   -4.4916   -1.3563   -2.2908 H   0  0  0  0  0  0  0  0  0  0  0  0
   -4.8003    0.1269   -1.3101 H   0  0  0  0  0  0  0  0  0  0  0  0
  1  2  1  0  0  0  0
  3 16  1  0  0  0  0
  4  1  1  1  0  0  0
  4  5  1  0  0  0  0
  5  6  1  0  0  0  0
  5 18  1  0  0  0  0
  6 19  1  0  0  0  0
  7  3  1  0  0  0  0
  7  6  2  0  0  0  0
  8  7  1  0  0  0  0
  9  8  1  0  0  0  0
  9  4  1  0  0  0  0
 10  2  1  0  0  0  0
 10 15  1  0  0  0  0
 11 10  2  0  0  0  0
 12 11  1  0  0  0  0
 12 13  2  0  0  0  0
 13 14  1  0  0  0  0
 14 15  2  0  0  0  0
 14 25  1  0  0  0  0
 15 26  1  0  0  0  0
 16 28  1  0  0  0  0
 16 27  1  0  0  0  0
 17 30  1  0  0  0  0
 17  3  1  0  0  0  0
 20  8  1  0  0  0  0
 21  9  1  0  0  0  0
 22 11  1  0  0  0  0
 23 12  1  0  0  0  0
 24 13  1  0  0  0  0
 29 16  1  0  0  0  0
 31 17  1  0  0  0  0
 32 17  1  0  0  0  0
M  END
