3,16
 OpenBabel05122313053D

 53 56  0  0  0  0  0  0  0  0999 V2000
   -0.1737    1.9513    0.0298 P   0  0  0  0  0  4  0  0  0  0  0  0
   -1.9622    1.8187    0.2390 C   0  0  0  0  0  3  0  0  0  0  0  0
   -2.7844    1.5530   -0.8921 C   0  0  0  0  0  3  0  0  0  0  0  0
    0.6401    2.7359    1.4458 C   0  0  0  0  0  0  0  0  0  0  0  0
   -0.0540    3.1176    2.6115 C   0  0  0  0  0  0  0  0  0  0  0  0
    0.6578    3.6263    3.7084 C   0  0  0  0  0  0  0  0  0  0  0  0
    2.0554    3.7443    3.6484 C   0  0  0  0  0  0  0  0  0  0  0  0
    2.7479    3.3654    2.4853 C   0  0  0  0  0  0  0  0  0  0  0  0
    2.0460    2.8657    1.3812 C   0  0  0  0  0  0  0  0  0  0  0  0
    0.3512    2.8136   -1.4701 C   0  0  0  0  0  0  0  0  0  0  0  0
    0.2183    4.2187   -1.5287 C   0  0  0  0  0  0  0  0  0  0  0  0
    0.6153    4.8975   -2.6868 C   0  0  0  0  0  0  0  0  0  0  0  0
    1.1466    4.1813   -3.7746 C   0  0  0  0  0  0  0  0  0  0  0  0
    1.2784    2.7858   -3.7096 C   0  0  0  0  0  0  0  0  0  0  0  0
    0.8772    2.0903   -2.5592 C   0  0  0  0  0  0  0  0  0  0  0  0
    0.0637    0.1962   -0.0627 C   0  0  0  0  0  3  0  0  0  0  0  0
    1.1857   -0.4686   -0.0614 C   0  0  0  0  0  0  0  0  0  0  0  0
    2.3454   -1.1461   -0.0657 C   0  0  0  0  0  0  0  0  0  0  0  0
    2.9472   -1.5478    1.2375 C   0  0  0  0  0  0  0  0  0  0  0  0
    3.6085   -2.7894    1.3772 C   0  0  0  0  0  0  0  0  0  0  0  0
    4.0988   -3.1975    2.6260 C   0  0  0  0  0  0  0  0  0  0  0  0
    3.9417   -2.3761    3.7538 C   0  0  0  0  0  0  0  0  0  0  0  0
    3.2900   -1.1378    3.6252 C   0  0  0  0  0  0  0  0  0  0  0  0
    2.7979   -0.7272    2.3801 C   0  0  0  0  0  0  0  0  0  0  0  0
    2.9921   -1.4781   -1.3625 C   0  0  0  0  0  0  0  0  0  0  0  0
    4.3987   -1.5785   -1.4675 C   0  0  0  0  0  0  0  0  0  0  0  0
    5.0005   -1.8412   -2.7059 C   0  0  0  0  0  0  0  0  0  0  0  0
    4.2128   -2.0069   -3.8564 C   0  0  0  0  0  0  0  0  0  0  0  0
    2.8142   -1.9061   -3.7622 C   0  0  0  0  0  0  0  0  0  0  0  0
    2.2060   -1.6456   -2.5282 C   0  0  0  0  0  0  0  0  0  0  0  0
   -2.3920    2.1200    1.2068 H   0  0  0  0  0  0  0  0  0  0  0  0
   -2.4143    1.7299   -1.9137 H   0  0  0  0  0  0  0  0  0  0  0  0
   -3.8780    1.6307   -0.7728 H   0  0  0  0  0  0  0  0  0  0  0  0
   -1.1491    3.0349    2.6675 H   0  0  0  0  0  0  0  0  0  0  0  0
    0.1159    3.9350    4.6146 H   0  0  0  0  0  0  0  0  0  0  0  0
    2.6096    4.1413    4.5119 H   0  0  0  0  0  0  0  0  0  0  0  0
    3.8423    3.4647    2.4361 H   0  0  0  0  0  0  0  0  0  0  0  0
    2.5879    2.5754    0.4675 H   0  0  0  0  0  0  0  0  0  0  0  0
   -0.1849    4.7800   -0.6712 H   0  0  0  0  0  0  0  0  0  0  0  0
    0.5164    5.9917   -2.7405 H   0  0  0  0  0  0  0  0  0  0  0  0
    1.4622    4.7202   -4.6806 H   0  0  0  0  0  0  0  0  0  0  0  0
    1.6948    2.2269   -4.5605 H   0  0  0  0  0  0  0  0  0  0  0  0
    0.9598    0.9954   -2.5102 H   0  0  0  0  0  0  0  0  0  0  0  0
    3.7217   -3.4454    0.5015 H   0  0  0  0  0  0  0  0  0  0  0  0
    4.6064   -4.1695    2.7188 H   0  0  0  0  0  0  0  0  0  0  0  0
    4.3331   -2.6973    4.7306 H   0  0  0  0  0  0  0  0  0  0  0  0
    3.1759   -0.4802    4.5005 H   0  0  0  0  0  0  0  0  0  0  0  0
    2.3036    0.2504    2.2751 H   0  0  0  0  0  0  0  0  0  0  0  0
    5.0242   -1.4316   -0.5749 H   0  0  0  0  0  0  0  0  0  0  0  0
    6.0965   -1.9123   -2.7732 H   0  0  0  0  0  0  0  0  0  0  0  0
    4.6888   -2.2181   -4.8257 H   0  0  0  0  0  0  0  0  0  0  0  0
    2.1886   -2.0412   -4.6576 H   0  0  0  0  0  0  0  0  0  0  0  0
    1.1085   -1.5752   -2.4561 H   0  0  0  0  0  0  0  0  0  0  0  0
  1  2  1  0  0  0  0
  1  4  1  0  0  0  0
  2 31  1  0  0  0  0
  3 33  1  0  0  0  0
  3  2  1  0  0  0  0
  4  5  1  0  0  0  0
  5 34  1  0  0  0  0
  5  6  2  0  0  0  0
  6 35  1  0  0  0  0
  7  6  1  0  0  0  0
  7 36  1  0  0  0  0
  8  7  2  0  0  0  0
  9  4  2  0  0  0  0
  9  8  1  0  0  0  0
 10  1  1  0  0  0  0
 11 10  1  0  0  0  0
 11 39  1  0  0  0  0
 12 11  2  0  0  0  0
 13 14  2  0  0  0  0
 13 12  1  0  0  0  0
 14 15  1  0  0  0  0
 15 43  1  0  0  0  0
 15 10  2  0  0  0  0
 16 17  2  0  0  0  0
 16  1  1  0  0  0  0
 18 17  2  0  0  0  0
 18 19  1  0  0  0  0
 19 20  2  0  0  0  0
 19 24  1  0  0  0  0
 20 21  1  0  0  0  0
 21 45  1  0  0  0  0
 21 22  2  0  0  0  0
 22 46  1  0  0  0  0
 23 22  1  0  0  0  0
 23 47  1  0  0  0  0
 24 23  2  0  0  0  0
 25 18  1  0  0  0  0
 26 25  1  0  0  0  0
 26 49  1  0  0  0  0
 27 26  2  0  0  0  0
 28 29  2  0  0  0  0
 28 27  1  0  0  0  0
 29 30  1  0  0  0  0
 30 53  1  0  0  0  0
 30 25  2  0  0  0  0
 32  3  1  0  0  0  0
 37  8  1  0  0  0  0
 38  9  1  0  0  0  0
 40 12  1  0  0  0  0
 41 13  1  0  0  0  0
 42 14  1  0  0  0  0
 44 20  1  0  0  0  0
 48 24  1  0  0  0  0
 50 27  1  0  0  0  0
 51 28  1  0  0  0  0
 52 29  1  0  0  0  0
M  END
