4,15
 OpenBabel05122313053D

 60 65  0  0  1  0  0  0  0  0999 V2000
    2.3317   -1.6316    0.2813 O   0  0  0  0  0  0  0  0  0  0  0  0
   -1.2497    1.8625   -0.4777 N   0  0  0  0  0  0  0  0  0  0  0  0
   -2.4274    0.0008   -0.7328 N   0  0  0  0  0  0  0  0  0  0  0  0
    1.5065    0.9058    0.0016 C   0  0  0  0  0  2  0  0  0  0  0  0
    2.9393    0.5889   -0.1589 C   0  0  0  0  0  0  0  0  0  0  0  0
    3.3575   -0.7618    0.0388 C   0  0  0  0  0  0  0  0  0  0  0  0
    4.7069   -1.1322   -0.0556 C   0  0  0  0  0  0  0  0  0  0  0  0
    5.0240   -2.1632    0.1463 H   0  0  0  0  0  0  0  0  0  0  0  0
    5.6572   -0.1741   -0.4433 C   0  0  0  0  0  0  0  0  0  0  0  0
    6.7132   -0.4708   -0.5316 H   0  0  0  0  0  0  0  0  0  0  0  0
    5.2629    1.1382   -0.7438 C   0  0  0  0  0  0  0  0  0  0  0  0
    6.0016    1.8741   -1.0934 H   0  0  0  0  0  0  0  0  0  0  0  0
    3.9210    1.5108   -0.5978 C   0  0  0  0  0  0  0  0  0  0  0  0
    3.6101    2.5339   -0.8495 H   0  0  0  0  0  0  0  0  0  0  0  0
   -1.1552    0.4864   -0.5036 C   0  0  0  0  0  2  0  0  0  0  0  0
   -0.2570    2.7361   -0.0288 C   0  0  0  0  0  0  0  0  0  0  0  0
    1.0617    2.2656    0.2923 C   0  0  0  0  0  0  0  0  0  0  0  0
    1.9357    3.1716    0.9546 C   0  0  0  0  0  0  0  0  0  0  0  0
    2.9051    2.7934    1.3037 H   0  0  0  0  0  0  0  0  0  0  0  0
    1.5890    4.4996    1.1933 C   0  0  0  0  0  0  0  0  0  0  0  0
    2.2858    5.1695    1.7179 H   0  0  0  0  0  0  0  0  0  0  0  0
    0.3411    4.9686    0.7562 C   0  0  0  0  0  0  0  0  0  0  0  0
    0.0590    6.0217    0.9125 H   0  0  0  0  0  0  0  0  0  0  0  0
   -0.5873    4.1107    0.1520 C   0  0  0  0  0  0  0  0  0  0  0  0
   -1.9445    4.6329   -0.2625 C   0  0  0  0  0  0  0  0  0  0  0  0
   -1.9226    4.9334   -1.3345 H   0  0  0  0  0  0  0  0  0  0  0  0
   -2.1829    5.5498    0.3116 H   0  0  0  0  0  0  0  0  0  0  0  0
   -3.0175    3.5657   -0.0579 C   0  0  0  0  0  0  0  0  0  0  0  0
   -4.0097    3.9127   -0.4110 H   0  0  0  0  0  0  0  0  0  0  0  0
   -3.1073    3.3308    1.0220 H   0  0  0  0  0  0  0  0  0  0  0  0
   -2.6135    2.3200   -0.8304 C   0  0  2  0  0  0  0  0  0  0  0  0
   -2.6141    2.5572   -1.9188 H   0  0  0  0  0  0  0  0  0  0  0  0
   -3.4514    1.0471   -0.6059 C   0  0  2  0  0  0  0  0  0  0  0  0
   -4.1979    0.9374   -1.4210 H   0  0  0  0  0  0  0  0  0  0  0  0
   -4.1463    0.8748    0.7493 C   0  0  0  0  0  0  0  0  0  0  0  0
   -3.3771    0.9298    1.5488 H   0  0  0  0  0  0  0  0  0  0  0  0
   -4.8822    1.6850    0.9246 H   0  0  0  0  0  0  0  0  0  0  0  0
   -4.8422   -0.4909    0.7713 C   0  0  0  0  0  0  0  0  0  0  0  0
   -5.1764   -0.7342    1.8005 H   0  0  0  0  0  0  0  0  0  0  0  0
   -5.7700   -0.4377    0.1574 H   0  0  0  0  0  0  0  0  0  0  0  0
   -3.9739   -1.6153    0.2428 C   0  0  0  0  0  0  0  0  0  0  0  0
   -4.3056   -2.9591    0.4914 C   0  0  0  0  0  0  0  0  0  0  0  0
   -5.2076   -3.1776    1.0856 H   0  0  0  0  0  0  0  0  0  0  0  0
   -3.5062   -4.0132    0.0266 C   0  0  0  0  0  0  0  0  0  0  0  0
   -3.7851   -5.0542    0.2474 H   0  0  0  0  0  0  0  0  0  0  0  0
   -2.3551   -3.7281   -0.7234 C   0  0  0  0  0  0  0  0  0  0  0  0
   -1.7239   -4.5423   -1.1101 H   0  0  0  0  0  0  0  0  0  0  0  0
   -2.0101   -2.4002   -1.0035 C   0  0  0  0  0  0  0  0  0  0  0  0
   -1.1452   -2.1671   -1.6462 H   0  0  0  0  0  0  0  0  0  0  0  0
   -2.8027   -1.3468   -0.5079 C   0  0  0  0  0  0  0  0  0  0  0  0
    2.5637   -3.0292    0.6415 C   0  0  0  0  0  0  0  0  0  0  0  0
    3.4358   -3.3736    0.0460 H   0  0  0  0  0  0  0  0  0  0  0  0
    1.3327   -3.8055    0.2015 C   0  0  0  0  0  0  0  0  0  0  0  0
    1.1482   -3.6489   -0.8790 H   0  0  0  0  0  0  0  0  0  0  0  0
    0.4416   -3.4752    0.7715 H   0  0  0  0  0  0  0  0  0  0  0  0
    1.4921   -4.8861    0.3874 H   0  0  0  0  0  0  0  0  0  0  0  0
    2.8508   -3.1082    2.1350 C   0  0  0  0  0  0  0  0  0  0  0  0
    3.7481   -2.5171    2.4055 H   0  0  0  0  0  0  0  0  0  0  0  0
    3.0253   -4.1603    2.4368 H   0  0  0  0  0  0  0  0  0  0  0  0
    1.9819   -2.7057    2.6924 H   0  0  0  0  0  0  0  0  0  0  0  0
  1 51  1  0  0  0  0
  2 16  1  0  0  0  0
  3 33  1  0  0  0  0
  3 50  1  0  0  0  0
  3 15  1  0  0  0  0
  4 17  1  0  0  0  0
  5  4  1  0  0  0  0
  5  6  1  0  0  0  0
  6  1  1  0  0  0  0
  7  6  2  0  0  0  0
  7  8  1  0  0  0  0
  9  7  1  0  0  0  0
 10  9  1  0  0  0  0
 11 13  1  0  0  0  0
 11  9  2  0  0  0  0
 12 11  1  0  0  0  0
 13  5  2  0  0  0  0
 14 13  1  0  0  0  0
 15  2  1  0  0  0  0
 16 24  2  0  0  0  0
 16 17  1  0  0  0  0
 17 18  2  0  0  0  0
 18 20  1  0  0  0  0
 18 19  1  0  0  0  0
 20 21  1  0  0  0  0
 22 23  1  0  0  0  0
 22 20  2  0  0  0  0
 24 22  1  0  0  0  0
 25 28  1  0  0  0  0
 25 24  1  0  0  0  0
 25 27  1  0  0  0  0
 26 25  1  0  0  0  0
 28 30  1  0  0  0  0
 29 28  1  0  0  0  0
 31 32  1  6  0  0  0
 31 33  1  0  0  0  0
 31  2  1  0  0  0  0
 31 28  1  0  0  0  0
 33 34  1  6  0  0  0
 33 35  1  0  0  0  0
 35 38  1  0  0  0  0
 35 37  1  0  0  0  0
 35 36  1  0  0  0  0
 38 39  1  0  0  0  0
 40 38  1  0  0  0  0
 41 42  1  0  0  0  0
 41 38  1  0  0  0  0
 42 43  1  0  0  0  0
 44 45  1  0  0  0  0
 44 42  2  0  0  0  0
 46 44  1  0  0  0  0
 47 46  1  0  0  0  0
 48 46  2  0  0  0  0
 48 50  1  0  0  0  0
 49 48  1  0  0  0  0
 50 41  2  0  0  0  0
 51 57  1  0  0  0  0
 52 51  1  0  0  0  0
 53 56  1  0  0  0  0
 53 51  1  0  0  0  0
 53 55  1  0  0  0  0
 54 53  1  0  0  0  0
 57 58  1  0  0  0  0
 57 59  1  0  0  0  0
 57 60  1  0  0  0  0
M  END
