1,2
 OpenBabel05122313053D

 51 52  0  0  1  0  0  0  0  0999 V2000
   -1.5100   -0.9140   -0.0600 C   0  0  0  0  0  2  0  0  0  0  0  0
    0.0263    0.4219   -0.7706 C   0  0  2  0  0  3  0  0  0  0  0  0
    0.3970   -0.1543   -2.0361 C   0  0  0  0  0  3  0  0  0  0  0  0
    0.8504    0.7098    0.3737 C   0  0  1  0  0  3  0  0  0  0  0  0
    2.2909    1.0922    0.3035 C   0  0  0  0  0  0  0  0  0  0  0  0
    3.3065    0.3872    0.9801 C   0  0  0  0  0  0  0  0  0  0  0  0
    4.6288    0.8502    0.9457 C   0  0  0  0  0  0  0  0  0  0  0  0
    4.9462    2.0282    0.2510 C   0  0  0  0  0  0  0  0  0  0  0  0
    3.9356    2.7493   -0.4049 C   0  0  0  0  0  0  0  0  0  0  0  0
    2.6127    2.2880   -0.3773 C   0  0  0  0  0  0  0  0  0  0  0  0
   -2.2620    1.4850   -0.5062 C   0  0  0  0  0  0  0  0  0  0  0  0
   -3.5863    1.4376   -0.0277 C   0  0  0  0  0  0  0  0  0  0  0  0
   -4.3836    2.5869   -0.1178 C   0  0  0  0  0  0  0  0  0  0  0  0
   -3.8789    3.7724   -0.6744 C   0  0  0  0  0  0  0  0  0  0  0  0
   -2.5584    3.8095   -1.1492 C   0  0  0  0  0  0  0  0  0  0  0  0
   -1.7486    2.6705   -1.0683 C   0  0  0  0  0  0  0  0  0  0  0  0
   -0.6736   -0.3356   -3.0937 C   0  0  0  0  0  0  0  0  0  0  0  0
    1.7656    0.0322   -2.6551 C   0  0  0  0  0  0  0  0  0  0  0  0
    0.7940    1.3248    2.7328 C   0  0  0  0  0  0  0  0  0  0  0  0
   -0.2698    1.8273    3.6833 C   0  0  0  0  0  0  0  0  0  0  0  0
   -2.8531   -2.7203    0.8214 C   0  0  0  0  0  0  0  0  0  0  0  0
   -3.1507   -2.7022    2.3049 C   0  0  0  0  0  0  0  0  0  0  0  0
   -1.3944    0.3600   -0.4434 N   0  0  0  0  0  0  0  0  0  0  0  0
    0.1490    1.0925    1.4544 O   0  0  0  0  0  0  0  0  0  0  0  0
   -2.6749   -1.3537    0.3351 O   0  0  0  0  0  0  0  0  0  0  0  0
    3.0631   -0.5346    1.5278 H   0  0  0  0  0  0  0  0  0  0  0  0
    5.4170    0.2845    1.4637 H   0  0  0  0  0  0  0  0  0  0  0  0
    5.9854    2.3876    0.2231 H   0  0  0  0  0  0  0  0  0  0  0  0
    4.1784    3.6772   -0.9436 H   0  0  0  0  0  0  0  0  0  0  0  0
    1.8194    2.8540   -0.8886 H   0  0  0  0  0  0  0  0  0  0  0  0
   -3.9865    0.5160    0.4086 H   0  0  0  0  0  0  0  0  0  0  0  0
   -5.4177    2.5508    0.2555 H   0  0  0  0  0  0  0  0  0  0  0  0
   -4.5148    4.6672   -0.7398 H   0  0  0  0  0  0  0  0  0  0  0  0
   -2.1539    4.7325   -1.5899 H   0  0  0  0  0  0  0  0  0  0  0  0
   -0.7156    2.6974   -1.4461 H   0  0  0  0  0  0  0  0  0  0  0  0
   -0.7357    0.5885   -3.7097 H   0  0  0  0  0  0  0  0  0  0  0  0
   -0.3946   -1.1574   -3.7805 H   0  0  0  0  0  0  0  0  0  0  0  0
   -1.6823   -0.5401   -2.6958 H   0  0  0  0  0  0  0  0  0  0  0  0
    1.7464    0.9482   -3.2855 H   0  0  0  0  0  0  0  0  0  0  0  0
    2.5912    0.1437   -1.9356 H   0  0  0  0  0  0  0  0  0  0  0  0
    1.9936   -0.8133   -3.3325 H   0  0  0  0  0  0  0  0  0  0  0  0
    1.2368    0.3666    3.0793 H   0  0  0  0  0  0  0  0  0  0  0  0
    1.6169    2.0569    2.5988 H   0  0  0  0  0  0  0  0  0  0  0  0
    0.1803    2.0189    4.6767 H   0  0  0  0  0  0  0  0  0  0  0  0
   -0.7155    2.7719    3.3153 H   0  0  0  0  0  0  0  0  0  0  0  0
   -1.0789    1.0812    3.8079 H   0  0  0  0  0  0  0  0  0  0  0  0
   -3.6983   -3.1230    0.2300 H   0  0  0  0  0  0  0  0  0  0  0  0
   -1.9419   -3.3001    0.5785 H   0  0  0  0  0  0  0  0  0  0  0  0
   -3.3497   -3.7370    2.6478 H   0  0  0  0  0  0  0  0  0  0  0  0
   -2.2931   -2.3099    2.8853 H   0  0  0  0  0  0  0  0  0  0  0  0
   -4.0468   -2.0913    2.5281 H   0  0  0  0  0  0  0  0  0  0  0  0
  1 25  1  0  0  0  0
  2  3  1  1  0  0  0
  2 23  1  0  0  0  0
  2  4  1  0  0  0  0
  4 24  1  6  0  0  0
  5  4  1  0  0  0  0
  5  6  1  0  0  0  0
  6 26  1  0  0  0  0
  7  6  2  0  0  0  0
  7 27  1  0  0  0  0
  8  7  1  0  0  0  0
  9 10  1  0  0  0  0
  9  8  2  0  0  0  0
 10  5  2  0  0  0  0
 11 23  1  0  0  0  0
 11 12  1  0  0  0  0
 12 31  1  0  0  0  0
 13 12  2  0  0  0  0
 13 32  1  0  0  0  0
 14 13  1  0  0  0  0
 15 16  1  0  0  0  0
 15 14  2  0  0  0  0
 16 11  2  0  0  0  0
 17 38  1  0  0  0  0
 17  3  1  0  0  0  0
 18  3  1  0  0  0  0
 18 40  1  0  0  0  0
 19 42  1  0  0  0  0
 19 20  1  0  0  0  0
 20 46  1  0  0  0  0
 20 44  1  0  0  0  0
 21 22  1  0  0  0  0
 22 51  1  0  0  0  0
 22 49  1  0  0  0  0
 22 50  1  0  0  0  0
 23  1  1  0  0  0  0
 24 19  1  0  0  0  0
 25 21  1  0  0  0  0
 28  8  1  0  0  0  0
 29  9  1  0  0  0  0
 30 10  1  0  0  0  0
 33 14  1  0  0  0  0
 34 15  1  0  0  0  0
 35 16  1  0  0  0  0
 36 17  1  0  0  0  0
 37 17  1  0  0  0  0
 39 18  1  0  0  0  0
 41 18  1  0  0  0  0
 43 19  1  0  0  0  0
 45 20  1  0  0  0  0
 47 21  1  0  0  0  0
 48 21  1  0  0  0  0
M  END
