1,3
 OpenBabel05122313053D

 15 14  0  0  0  0  0  0  0  0999 V2000
   -0.5276   -1.4959   -2.2479 C   0  0  0  0  0  3  0  0  0  0  0  0
   -0.7173   -2.4699   -1.2368 C   0  0  0  0  0  0  0  0  0  0  0  0
   -0.6324   -2.0796    0.2103 C   0  0  0  0  0  2  0  0  0  0  0  0
   -0.5392   -1.6367   -3.7218 C   0  0  0  0  0  0  0  0  0  0  0  0
   -1.5488   -1.9192   -4.0896 H   0  0  0  0  0  0  0  0  0  0  0  0
    0.1822   -2.4129   -4.0564 H   0  0  0  0  0  0  0  0  0  0  0  0
   -0.2570   -0.6818   -4.2042 H   0  0  0  0  0  0  0  0  0  0  0  0
   -1.0149   -3.9112   -1.5538 C   0  0  0  0  0  0  0  0  0  0  0  0
   -0.4524   -4.5874   -0.8837 H   0  0  0  0  0  0  0  0  0  0  0  0
   -0.7675   -4.1479   -2.6044 H   0  0  0  0  0  0  0  0  0  0  0  0
   -2.0971   -4.0919   -1.3945 H   0  0  0  0  0  0  0  0  0  0  0  0
   -0.8210   -2.9913    1.3602 C   0  0  0  0  0  0  0  0  0  0  0  0
   -0.8855   -2.4056    2.2966 H   0  0  0  0  0  0  0  0  0  0  0  0
    0.0365   -3.6921    1.4593 H   0  0  0  0  0  0  0  0  0  0  0  0
   -1.7542   -3.5832    1.2599 H   0  0  0  0  0  0  0  0  0  0  0  0
  1  2  2  0  0  0  0
  2  3  1  0  0  0  0
  3 12  1  0  0  0  0
  4  1  1  0  0  0  0
  5  4  1  0  0  0  0
  6  4  1  0  0  0  0
  7  4  1  0  0  0  0
  8 11  1  0  0  0  0
  8  2  1  0  0  0  0
  8  9  1  0  0  0  0
 10  8  1  0  0  0  0
 12 14  1  0  0  0  0
 12 13  1  0  0  0  0
 15 12  1  0  0  0  0
M  END
