6,9
 OpenBabel05122313053D

 15 16  0  0  1  0  0  0  0  0999 V2000
   -3.4219   -0.9724    0.7885 O   0  0  0  0  0  0  0  0  0  0  0  0
   -2.6271   -0.2665    0.2194 C   0  0  0  0  0  0  0  0  0  0  0  0
   -2.4383    0.1940   -1.2793 C   0  0  0  0  0  0  0  0  0  0  0  0
   -3.2728    0.8334   -1.6365 H   0  0  0  0  0  0  0  0  0  0  0  0
   -2.2472   -0.6092   -2.0182 H   0  0  0  0  0  0  0  0  0  0  0  0
   -1.2347    0.9654   -0.7510 C   0  0  2  0  0  3  0  0  0  0  0  0
   -0.1468    1.7749   -1.1461 C   0  0  0  0  0  3  0  0  0  0  0  0
    0.0599    2.0368   -2.1921 H   0  0  0  0  0  0  0  0  0  0  0  0
    0.7372    2.1837   -0.0964 C   0  0  0  0  0  3  0  0  0  0  0  0
    1.6293    2.7735   -0.3521 H   0  0  0  0  0  0  0  0  0  0  0  0
    0.5253    1.8295    1.2755 C   0  0  0  0  0  0  0  0  0  0  0  0
    1.2629    2.1425    2.0269 H   0  0  0  0  0  0  0  0  0  0  0  0
   -0.5476    0.9675    1.6483 C   0  0  0  0  0  0  0  0  0  0  0  0
   -0.6647    0.6227    2.6851 H   0  0  0  0  0  0  0  0  0  0  0  0
   -1.4505    0.5902    0.6161 C   0  0  2  0  0  3  0  0  0  0  0  0
  2  1  2  0  0  0  0
  3  6  1  0  0  0  0
  3  2  1  0  0  0  0
  4  3  1  0  0  0  0
  5  3  1  0  0  0  0
  6  7  1  6  0  0  0
  6 15  1  0  0  0  0
  7  9  1  0  0  0  0
  8  7  1  0  0  0  0
  9 11  1  0  0  0  0
 10  9  1  0  0  0  0
 11 13  2  0  0  0  0
 11 12  1  0  0  0  0
 13 14  1  0  0  0  0
 15  2  1  6  0  0  0
 15 13  1  0  0  0  0
M  END
