4,11
 OpenBabel05122313053D

 24 24  0  0  1  0  0  0  0  0999 V2000
   -0.8962   -2.3867   -0.0381 O   0  0  0  0  0  0  0  0  0  0  0  0
    0.2729    2.5175    0.3396 O   0  0  0  0  0  0  0  0  0  0  0  0
    1.6307    2.9634    0.2691 C   0  0  0  0  0  0  0  0  0  0  0  0
   -0.0275    1.2232    0.3139 C   0  0  0  0  0  2  0  0  0  0  0  0
   -1.5229    1.0584    0.4734 C   0  0  1  0  0  0  0  0  0  0  0  0
   -2.1740    1.2884   -0.9173 C   0  0  0  0  0  0  0  0  0  0  0  0
   -3.6379    0.8415   -0.9484 C   0  0  0  0  0  0  0  0  0  0  0  0
   -3.7617   -0.6377   -0.5675 C   0  0  0  0  0  0  0  0  0  0  0  0
   -3.1852   -0.8974    0.8281 C   0  0  0  0  0  0  0  0  0  0  0  0
   -1.7552   -0.3694    0.9799 C   0  0  1  0  0  0  0  0  0  0  0  0
   -0.6734   -1.2364    0.2935 C   0  0  0  0  0  3  0  0  0  0  0  0
    1.6458    3.9776    0.7093 H   0  0  0  0  0  0  0  0  0  0  0  0
    2.2856    2.2700    0.8316 H   0  0  0  0  0  0  0  0  0  0  0  0
    1.9671    3.0137   -0.7853 H   0  0  0  0  0  0  0  0  0  0  0  0
   -1.9203    1.8218    1.1775 H   0  0  0  0  0  0  0  0  0  0  0  0
   -2.0645    2.3572   -1.1929 H   0  0  0  0  0  0  0  0  0  0  0  0
   -1.6000    0.7028   -1.6697 H   0  0  0  0  0  0  0  0  0  0  0  0
   -4.2331    1.4621   -0.2409 H   0  0  0  0  0  0  0  0  0  0  0  0
   -4.0603    1.0244   -1.9589 H   0  0  0  0  0  0  0  0  0  0  0  0
   -4.8211   -0.9654   -0.6107 H   0  0  0  0  0  0  0  0  0  0  0  0
   -3.2082   -1.2558   -1.3076 H   0  0  0  0  0  0  0  0  0  0  0  0
   -3.1763   -1.9848    1.0455 H   0  0  0  0  0  0  0  0  0  0  0  0
   -3.8340   -0.4132    1.5908 H   0  0  0  0  0  0  0  0  0  0  0  0
   -1.4678   -0.4006    2.0557 H   0  0  0  0  0  0  0  0  0  0  0  0
  1 11  2  0  0  0  0
  3  2  1  0  0  0  0
  3 12  1  0  0  0  0
  3 13  1  0  0  0  0
  4  2  1  0  0  0  0
  4  5  1  0  0  0  0
  5 10  1  0  0  0  0
  5 15  1  1  0  0  0
  6  5  1  0  0  0  0
  7  6  1  0  0  0  0
  7  8  1  0  0  0  0
  7 18  1  0  0  0  0
  8  9  1  0  0  0  0
  9 10  1  0  0  0  0
  9 22  1  0  0  0  0
  9 23  1  0  0  0  0
 10 24  1  1  0  0  0
 11 10  1  0  0  0  0
 14  3  1  0  0  0  0
 16  6  1  0  0  0  0
 17  6  1  0  0  0  0
 19  7  1  0  0  0  0
 20  8  1  0  0  0  0
 21  8  1  0  0  0  0
M  END
