5,9
 OpenBabel05122313053D

 31 31  0  0  0  0  0  0  0  0999 V2000
    0.5708   -2.5977    1.1331 O   0  0  0  0  0  0  0  0  0  0  0  0
    1.8918   -2.9126   -0.6802 O   0  0  0  0  0  0  0  0  0  0  0  0
    3.8730   -2.0257    1.2758 O   0  0  0  0  0  0  0  0  0  0  0  0
    4.8890   -1.3286   -0.6192 O   0  0  0  0  0  0  0  0  0  0  0  0
    0.8677    1.9637    0.4878 C   0  0  0  0  0  2  0  0  0  0  0  0
    2.2684    2.2374    0.2111 C   0  0  0  0  0  0  0  0  0  0  0  0
    3.2227    1.1834   -0.0591 C   0  0  0  0  0  0  0  0  0  0  0  0
    2.8529   -0.2309    0.0315 C   0  0  0  0  0  0  0  0  0  0  0  0
    1.5394   -0.6688    0.0207 C   0  0  0  0  0  3  0  0  0  0  0  0
    0.1123    2.9546    1.3390 C   0  0  0  0  0  0  0  0  0  0  0  0
   -0.2948    3.7696    0.7017 H   0  0  0  0  0  0  0  0  0  0  0  0
    0.7476    3.4303    2.1133 H   0  0  0  0  0  0  0  0  0  0  0  0
   -0.7598    2.4735    1.8193 H   0  0  0  0  0  0  0  0  0  0  0  0
    2.7203    3.5879    0.2213 C   0  0  0  0  0  0  0  0  0  0  0  0
    1.9924    4.3848    0.4298 H   0  0  0  0  0  0  0  0  0  0  0  0
    4.0350    3.9346   -0.0772 C   0  0  0  0  0  0  0  0  0  0  0  0
    4.3410    4.9911   -0.1031 H   0  0  0  0  0  0  0  0  0  0  0  0
    4.9629    2.9090   -0.3412 C   0  0  0  0  0  0  0  0  0  0  0  0
    6.0102    3.1569   -0.5732 H   0  0  0  0  0  0  0  0  0  0  0  0
    4.5666    1.5720   -0.3105 C   0  0  0  0  0  0  0  0  0  0  0  0
    5.3056    0.7893   -0.5180 H   0  0  0  0  0  0  0  0  0  0  0  0
    3.9022   -1.2700    0.3171 C   0  0  0  0  0  0  0  0  0  0  0  0
    5.8741   -2.3439   -0.3949 C   0  0  0  0  0  0  0  0  0  0  0  0
    5.4076   -3.3495   -0.4190 H   0  0  0  0  0  0  0  0  0  0  0  0
    6.3638   -2.2156    0.5915 H   0  0  0  0  0  0  0  0  0  0  0  0
    6.6107   -2.2419   -1.2119 H   0  0  0  0  0  0  0  0  0  0  0  0
    1.2727   -2.1292    0.2557 C   0  0  0  0  0  0  0  0  0  0  0  0
    1.7229   -4.3208   -0.4914 C   0  0  0  0  0  0  0  0  0  0  0  0
    0.6477   -4.5855   -0.4371 H   0  0  0  0  0  0  0  0  0  0  0  0
    2.2140   -4.6415    0.4500 H   0  0  0  0  0  0  0  0  0  0  0  0
    2.2005   -4.8069   -1.3613 H   0  0  0  0  0  0  0  0  0  0  0  0
  2 28  1  0  0  0  0
  2 27  1  0  0  0  0
  4 23  1  0  0  0  0
  4 22  1  0  0  0  0
  5 10  1  0  0  0  0
  6 14  1  0  0  0  0
  6  5  1  0  0  0  0
  7  8  1  0  0  0  0
  7  6  2  0  0  0  0
  8 22  1  0  0  0  0
  9  8  2  0  0  0  0
  9 27  1  0  0  0  0
 10 13  1  0  0  0  0
 10 12  1  0  0  0  0
 11 10  1  0  0  0  0
 14 15  1  0  0  0  0
 16 14  2  0  0  0  0
 17 16  1  0  0  0  0
 18 20  2  0  0  0  0
 18 16  1  0  0  0  0
 19 18  1  0  0  0  0
 20  7  1  0  0  0  0
 21 20  1  0  0  0  0
 22  3  2  0  0  0  0
 23 25  1  0  0  0  0
 24 23  1  0  0  0  0
 26 23  1  0  0  0  0
 27  1  2  0  0  0  0
 28 29  1  0  0  0  0
 28 30  1  0  0  0  0
 31 28  1  0  0  0  0
M  END
