1,21
 OpenBabel05122313053D

 38 39  0  0  1  0  0  0  0  0999 V2000
    1.7001    0.0419    0.0108 C   0  0  0  0  0  2  0  0  0  0  0  0
    2.7541   -0.8315   -0.0553 N   0  0  0  0  0  0  0  0  0  0  0  0
    2.6765   -2.2696   -0.3036 C   0  0  0  0  0  0  0  0  0  0  0  0
    2.4767   -2.8152    0.6358 H   0  0  0  0  0  0  0  0  0  0  0  0
    3.6345   -2.5903   -0.7542 H   0  0  0  0  0  0  0  0  0  0  0  0
    1.8433   -2.4569   -1.0066 H   0  0  0  0  0  0  0  0  0  0  0  0
    2.2872    1.2753    0.1937 N   0  0  0  0  0  0  0  0  0  0  0  0
    3.9599   -0.1640    0.1034 C   0  0  0  0  0  0  0  0  0  0  0  0
    4.9176   -0.6921    0.0961 H   0  0  0  0  0  0  0  0  0  0  0  0
    3.6715    1.1637    0.2564 C   0  0  0  0  0  0  0  0  0  0  0  0
    4.3236    2.0316    0.3891 H   0  0  0  0  0  0  0  0  0  0  0  0
    1.6097    2.5632    0.0790 C   0  0  0  0  0  0  0  0  0  0  0  0
    1.3960    2.7447   -0.9942 H   0  0  0  0  0  0  0  0  0  0  0  0
    2.3314    3.3381    0.4031 H   0  0  0  0  0  0  0  0  0  0  0  0
    0.3245    2.6847    0.9049 C   0  0  0  0  0  0  0  0  0  0  0  0
    0.5731    2.5842    1.9799 H   0  0  0  0  0  0  0  0  0  0  0  0
   -0.0605    3.7179    0.7635 H   0  0  0  0  0  0  0  0  0  0  0  0
   -2.3864    0.0127    0.7265 C   0  0  0  0  0  0  0  0  0  0  0  0
   -2.3600    0.4440   -0.6250 C   0  0  0  0  0  0  0  0  0  0  0  0
   -1.3264    1.4774   -0.7691 C   0  0  2  0  0  3  0  0  0  0  0  0
   -0.7446    1.6928    0.5466 C   0  0  1  0  0  3  0  0  0  0  0  0
   -1.3545    0.7515    1.4684 C   0  0  1  0  0  3  0  0  0  0  0  0
   -1.1119    0.5954    2.9349 C   0  0  0  0  0  0  0  0  0  0  0  0
   -0.1929    1.1198    3.2592 H   0  0  0  0  0  0  0  0  0  0  0  0
   -0.9843   -0.4795    3.1754 H   0  0  0  0  0  0  0  0  0  0  0  0
   -1.9638    0.9918    3.5281 H   0  0  0  0  0  0  0  0  0  0  0  0
   -3.2372   -1.0541    1.3299 C   0  0  0  0  0  0  0  0  0  0  0  0
   -3.9792   -1.4442    0.6089 H   0  0  0  0  0  0  0  0  0  0  0  0
   -3.7768   -0.6726    2.2210 H   0  0  0  0  0  0  0  0  0  0  0  0
   -2.5880   -1.8985    1.6527 H   0  0  0  0  0  0  0  0  0  0  0  0
   -3.1712   -0.0763   -1.7651 C   0  0  0  0  0  0  0  0  0  0  0  0
   -3.9161   -0.8215   -1.4303 H   0  0  0  0  0  0  0  0  0  0  0  0
   -2.4980   -0.5695   -2.5004 H   0  0  0  0  0  0  0  0  0  0  0  0
   -3.7056    0.7471   -2.2826 H   0  0  0  0  0  0  0  0  0  0  0  0
   -1.1137    2.2381   -2.0420 C   0  0  0  0  0  0  0  0  0  0  0  0
   -0.3591    3.0397   -1.9384 H   0  0  0  0  0  0  0  0  0  0  0  0
   -2.0600    2.7161   -2.3737 H   0  0  0  0  0  0  0  0  0  0  0  0
   -0.7835    1.5505   -2.8477 H   0  0  0  0  0  0  0  0  0  0  0  0
  1  7  1  0  0  0  0
  2  1  1  0  0  0  0
  2  8  1  0  0  0  0
  3  2  1  0  0  0  0
  3  4  1  0  0  0  0
  5  3  1  0  0  0  0
  6  3  1  0  0  0  0
  7 10  1  0  0  0  0
  8 10  2  0  0  0  0
  9  8  1  0  0  0  0
 10 11  1  0  0  0  0
 12  7  1  0  0  0  0
 12 14  1  0  0  0  0
 12 15  1  0  0  0  0
 13 12  1  0  0  0  0
 15 16  1  0  0  0  0
 17 15  1  0  0  0  0
 18 27  1  0  0  0  0
 18 22  1  0  0  0  0
 19 18  2  0  0  0  0
 20 35  1  1  0  0  0
 20 19  1  0  0  0  0
 20 21  1  0  0  0  0
 21 15  1  6  0  0  0
 21 22  1  0  0  0  0
 22 23  1  1  0  0  0
 23 25  1  0  0  0  0
 23 24  1  0  0  0  0
 23 26  1  0  0  0  0
 27 30  1  0  0  0  0
 27 29  1  0  0  0  0
 28 27  1  0  0  0  0
 31 32  1  0  0  0  0
 31 19  1  0  0  0  0
 33 31  1  0  0  0  0
 34 31  1  0  0  0  0
 35 36  1  0  0  0  0
 37 35  1  0  0  0  0
 38 35  1  0  0  0  0
M  END
