3,31
 OpenBabel05122313053D

 31 33  0  0  0  0  0  0  0  0999 V2000
    1.3840    1.3379   -0.9427 N   0  0  0  0  0  0  0  0  0  0  0  0
    1.8896    2.0490   -1.4724 H   0  0  0  0  0  0  0  0  0  0  0  0
   -0.0470    1.2119   -1.1091 C   0  0  0  0  0  3  0  0  0  0  0  0
   -0.3186    0.9356   -2.1583 H   0  0  0  0  0  0  0  0  0  0  0  0
   -0.7842    2.4831   -0.8218 C   0  0  0  0  0  0  0  0  0  0  0  0
   -2.1208    2.6536   -1.2614 C   0  0  0  0  0  0  0  0  0  0  0  0
   -2.6029    1.8337   -1.8101 H   0  0  0  0  0  0  0  0  0  0  0  0
   -2.8353    3.8225   -0.9763 C   0  0  0  0  0  0  0  0  0  0  0  0
   -3.8775    3.9198   -1.3194 H   0  0  0  0  0  0  0  0  0  0  0  0
   -2.2316    4.8743   -0.2628 C   0  0  0  0  0  0  0  0  0  0  0  0
   -2.7949    5.7931   -0.0396 H   0  0  0  0  0  0  0  0  0  0  0  0
   -0.8930    4.7447    0.1368 C   0  0  0  0  0  0  0  0  0  0  0  0
   -0.3931    5.5692    0.6691 H   0  0  0  0  0  0  0  0  0  0  0  0
   -0.1802    3.5690   -0.1460 C   0  0  0  0  0  0  0  0  0  0  0  0
    0.8760    3.4841    0.1494 H   0  0  0  0  0  0  0  0  0  0  0  0
    2.0794    0.3389   -0.2963 C   0  0  0  0  0  0  0  0  0  0  0  0
    3.5094    0.3393   -0.1586 C   0  0  0  0  0  0  0  0  0  0  0  0
    4.3452    1.3672   -0.6886 C   0  0  0  0  0  0  0  0  0  0  0  0
    3.8950    2.2161   -1.2275 H   0  0  0  0  0  0  0  0  0  0  0  0
    5.7240    1.3317   -0.5329 C   0  0  0  0  0  0  0  0  0  0  0  0
    6.3461    2.1384   -0.9499 H   0  0  0  0  0  0  0  0  0  0  0  0
    6.3332    0.2561    0.1687 C   0  0  0  0  0  0  0  0  0  0  0  0
    7.4271    0.2308    0.2898 H   0  0  0  0  0  0  0  0  0  0  0  0
    5.5494   -0.7562    0.7016 C   0  0  0  0  0  0  0  0  0  0  0  0
    6.0172   -1.5901    1.2493 H   0  0  0  0  0  0  0  0  0  0  0  0
    4.1287   -0.7542    0.5637 C   0  0  0  0  0  0  0  0  0  0  0  0
    3.3147   -1.7854    1.1094 C   0  0  0  0  0  0  0  0  0  0  0  0
    3.7950   -2.6112    1.6575 H   0  0  0  0  0  0  0  0  0  0  0  0
    1.9278   -1.7469    0.9484 C   0  0  0  0  0  0  0  0  0  0  0  0
    1.3021   -2.5511    1.3681 H   0  0  0  0  0  0  0  0  0  0  0  0
    1.2904   -0.6932    0.2528 C   0  0  0  0  0  3  0  0  0  0  0  0
  1 16  1  0  0  0  0
  2  1  1  0  0  0  0
  3  1  1  0  0  0  0
  3  5  1  0  0  0  0
  4  3  1  0  0  0  0
  5 14  1  0  0  0  0
  6  8  1  0  0  0  0
  6  5  2  0  0  0  0
  7  6  1  0  0  0  0
  8 10  2  0  0  0  0
  9  8  1  0  0  0  0
 10 11  1  0  0  0  0
 10 12  1  0  0  0  0
 12 13  1  0  0  0  0
 14 12  2  0  0  0  0
 14 15  1  0  0  0  0
 16 17  2  0  0  0  0
 16 31  1  0  0  0  0
 17 26  1  0  0  0  0
 18 20  2  0  0  0  0
 18 17  1  0  0  0  0
 19 18  1  0  0  0  0
 20 22  1  0  0  0  0
 21 20  1  0  0  0  0
 22 23  1  0  0  0  0
 22 24  2  0  0  0  0
 24 25  1  0  0  0  0
 26 24  1  0  0  0  0
 26 27  2  0  0  0  0
 27 28  1  0  0  0  0
 29 27  1  0  0  0  0
 29 30  1  0  0  0  0
 31 29  2  0  0  0  0
M  END
