3,7
 OpenBabel05122313053D

 23 22  0  0  1  0  0  0  0  0999 V2000
   -0.7262   -1.4953    1.4304 C   0  0  0  0  0  3  0  0  0  0  0  0
   -1.2531   -1.5751   -0.9384 C   0  0  0  0  0  3  0  0  0  0  0  0
   -1.6052   -1.1453    0.3623 C   0  0  0  0  0  3  0  0  0  0  0  0
   -2.7282   -0.1249    0.5302 C   0  0  0  0  0  0  0  0  0  0  0  0
   -2.3407    1.1165   -0.2758 C   0  0  0  0  0  0  0  0  0  0  0  0
   -0.9379    1.4947    0.1581 C   0  0  0  0  0  3  0  0  0  0  0  0
    0.2100    1.6913   -0.6755 C   0  0  2  0  0  3  0  0  0  0  0  0
    0.3844    0.8380   -1.7990 C   0  0  0  0  0  3  0  0  0  0  0  0
    1.2822    2.6857   -0.2950 C   0  0  0  0  0  0  0  0  0  0  0  0
   -0.9300   -1.0826    2.4311 H   0  0  0  0  0  0  0  0  0  0  0  0
   -0.2088   -2.4674    1.4274 H   0  0  0  0  0  0  0  0  0  0  0  0
   -1.8373   -1.2164   -1.8012 H   0  0  0  0  0  0  0  0  0  0  0  0
   -0.7552   -2.5438   -1.0898 H   0  0  0  0  0  0  0  0  0  0  0  0
   -2.8203    0.1382    1.6040 H   0  0  0  0  0  0  0  0  0  0  0  0
   -3.7010   -0.5608    0.2159 H   0  0  0  0  0  0  0  0  0  0  0  0
   -3.0527    1.9560   -0.1102 H   0  0  0  0  0  0  0  0  0  0  0  0
   -2.3716    0.8972   -1.3628 H   0  0  0  0  0  0  0  0  0  0  0  0
   -0.9005    2.0237    1.1278 H   0  0  0  0  0  0  0  0  0  0  0  0
    1.3332    0.8987   -2.3548 H   0  0  0  0  0  0  0  0  0  0  0  0
   -0.4756    0.4987   -2.3928 H   0  0  0  0  0  0  0  0  0  0  0  0
    1.0790    3.6494   -0.8096 H   0  0  0  0  0  0  0  0  0  0  0  0
    1.2983    2.8852    0.7940 H   0  0  0  0  0  0  0  0  0  0  0  0
    2.2891    2.3437   -0.6046 H   0  0  0  0  0  0  0  0  0  0  0  0
  1 10  1  0  0  0  0
  2  3  1  0  0  0  0
  3  4  1  0  0  0  0
  3  1  1  0  0  0  0
  4 14  1  0  0  0  0
  5 16  1  0  0  0  0
  5  6  1  0  0  0  0
  5  4  1  0  0  0  0
  6 18  1  0  0  0  0
  7  8  1  1  0  0  0
  7  9  1  0  0  0  0
  7  6  1  0  0  0  0
  9 22  1  0  0  0  0
 11  1  1  0  0  0  0
 12  2  1  0  0  0  0
 13  2  1  0  0  0  0
 15  4  1  0  0  0  0
 17  5  1  0  0  0  0
 19  8  1  0  0  0  0
 20  8  1  0  0  0  0
 21  9  1  0  0  0  0
 23  9  1  0  0  0  0
M  END
