1,15
 OpenBabel05122313053D

 39 40  0  0  1  0  0  0  0  0999 V2000
   -1.8813   -0.6221   -1.9854 C   0  0  2  0  0  3  0  0  0  0  0  0
   -1.5724    0.7554   -2.1773 C   0  0  0  0  0  0  0  0  0  0  0  0
   -1.2059    1.1853   -3.1147 H   0  0  0  0  0  0  0  0  0  0  0  0
   -1.7299    1.4886   -0.9583 C   0  0  0  0  0  0  0  0  0  0  0  0
   -2.2640    0.5616    0.0194 C   0  0  0  0  0  0  0  0  0  0  0  0
   -2.7131    0.7340    1.3762 C   0  0  0  0  0  0  0  0  0  0  0  0
   -3.1853   -0.3995    2.0362 C   0  0  0  0  0  0  0  0  0  0  0  0
   -3.5549   -0.2901    3.0684 H   0  0  0  0  0  0  0  0  0  0  0  0
   -3.2460   -1.6779    1.4245 C   0  0  0  0  0  0  0  0  0  0  0  0
   -3.6568   -2.5231    1.9989 H   0  0  0  0  0  0  0  0  0  0  0  0
   -2.8514   -1.8925    0.1061 C   0  0  0  0  0  0  0  0  0  0  0  0
   -2.3508   -0.7547   -0.6185 C   0  0  0  0  0  0  0  0  0  0  0  0
   -1.2915   -1.7635   -2.8178 C   0  0  2  0  0  0  0  0  0  0  0  0
   -2.0150   -2.6019   -2.8970 H   0  0  0  0  0  0  0  0  0  0  0  0
   -0.0521   -2.1202   -1.9656 C   0  0  0  0  0  3  0  0  0  0  0  0
    0.8581   -2.3460   -2.5559 H   0  0  0  0  0  0  0  0  0  0  0  0
   -0.2382   -2.9869   -1.2935 H   0  0  0  0  0  0  0  0  0  0  0  0
   -0.9277   -1.3327   -4.2395 C   0  0  0  0  0  0  0  0  0  0  0  0
   -1.8065   -0.9347   -4.7874 H   0  0  0  0  0  0  0  0  0  0  0  0
   -0.5273   -2.1952   -4.8090 H   0  0  0  0  0  0  0  0  0  0  0  0
   -0.1413   -0.5498   -4.2278 H   0  0  0  0  0  0  0  0  0  0  0  0
   -1.5988    2.9963   -0.8455 C   0  0  0  0  0  0  0  0  0  0  0  0
   -1.3153    3.2397    0.1982 H   0  0  0  0  0  0  0  0  0  0  0  0
   -0.5003    3.5667   -1.7530 C   0  0  0  0  0  0  0  0  0  0  0  0
    0.4746    3.0798   -1.5620 H   0  0  0  0  0  0  0  0  0  0  0  0
   -0.3857    4.6565   -1.5844 H   0  0  0  0  0  0  0  0  0  0  0  0
   -0.7440    3.4237   -2.8259 H   0  0  0  0  0  0  0  0  0  0  0  0
   -2.9502    3.6714   -1.1517 C   0  0  0  0  0  0  0  0  0  0  0  0
   -3.2431    3.4829   -2.2054 H   0  0  0  0  0  0  0  0  0  0  0  0
   -2.8916    4.7697   -1.0038 H   0  0  0  0  0  0  0  0  0  0  0  0
   -3.7643    3.2783   -0.5111 H   0  0  0  0  0  0  0  0  0  0  0  0
   -2.7226    2.0681    2.0715 C   0  0  0  0  0  0  0  0  0  0  0  0
   -3.1361    1.9732    3.0937 H   0  0  0  0  0  0  0  0  0  0  0  0
   -3.3345    2.8139    1.5254 H   0  0  0  0  0  0  0  0  0  0  0  0
   -1.7004    2.4892    2.1552 H   0  0  0  0  0  0  0  0  0  0  0  0
   -3.0631   -3.2357   -0.5392 C   0  0  0  0  0  0  0  0  0  0  0  0
   -3.5172   -3.9459    0.1780 H   0  0  0  0  0  0  0  0  0  0  0  0
   -2.1199   -3.6862   -0.9115 H   0  0  0  0  0  0  0  0  0  0  0  0
   -3.7397   -3.1529   -1.4150 H   0  0  0  0  0  0  0  0  0  0  0  0
  1 13  1  1  0  0  0
  1 12  1  0  0  0  0
  2  1  1  0  0  0  0
  2  4  2  0  0  0  0
  3  2  1  0  0  0  0
  4 22  1  0  0  0  0
  4  5  1  0  0  0  0
  5  6  1  0  0  0  0
  6  7  2  0  0  0  0
  6 32  1  0  0  0  0
  7  8  1  0  0  0  0
  9 10  1  0  0  0  0
  9  7  1  0  0  0  0
 11  9  2  0  0  0  0
 12  5  2  0  0  0  0
 12 11  1  0  0  0  0
 13 14  1  6  0  0  0
 13 15  1  0  0  0  0
 15 17  1  0  0  0  0
 16 15  1  0  0  0  0
 18 21  1  0  0  0  0
 18 13  1  0  0  0  0
 19 18  1  0  0  0  0
 20 18  1  0  0  0  0
 22 23  1  0  0  0  0
 24 26  1  0  0  0  0
 24 25  1  0  0  0  0
 24 22  1  0  0  0  0
 27 24  1  0  0  0  0
 28 30  1  0  0  0  0
 28 22  1  0  0  0  0
 28 31  1  0  0  0  0
 29 28  1  0  0  0  0
 32 35  1  0  0  0  0
 32 33  1  0  0  0  0
 34 32  1  0  0  0  0
 36 11  1  0  0  0  0
 36 37  1  0  0  0  0
 38 36  1  0  0  0  0
 39 36  1  0  0  0  0
M  END
