13,26
 OpenBabel05122313053D

 70 76  0  0  0  0  0  0  0  0999 V2000
   -0.0864    2.4798   -1.3926 C   0  0  0  0  0  0  0  0  0  0  0  0
    0.7621    2.7560   -0.1659 C   0  0  0  0  0  0  0  0  0  0  0  0
    0.2324    2.6547    1.1161 C   0  0  0  0  0  0  0  0  0  0  0  0
    1.0322    2.8889    2.2656 C   0  0  0  0  0  0  0  0  0  0  0  0
    2.3632    3.2456    2.1307 C   0  0  0  0  0  0  0  0  0  0  0  0
    2.9504    3.3679    0.8366 C   0  0  0  0  0  0  0  0  0  0  0  0
    4.3209    3.7254    0.6719 C   0  0  0  0  0  0  0  0  0  0  0  0
    4.8929    3.8011   -0.5890 C   0  0  0  0  0  0  0  0  0  0  0  0
    4.1144    3.5113   -1.7397 C   0  0  0  0  0  0  0  0  0  0  0  0
    2.7742    3.1715   -1.6156 C   0  0  0  0  0  0  0  0  0  0  0  0
    2.1476    3.1011   -0.3349 C   0  0  0  0  0  0  0  0  0  0  0  0
   -1.4911    2.2902   -1.0842 N   0  0  0  0  0  0  0  0  0  0  0  0
   -2.0616    1.0651   -0.8884 C   0  0  0  0  0  2  0  0  0  0  0  0
   -3.3569    1.3401   -0.5508 N   0  0  0  0  0  0  0  0  0  0  0  0
   -3.5933    2.7111   -0.5450 C   0  0  0  0  0  0  0  0  0  0  0  0
   -2.4104    3.3128   -0.8807 C   0  0  0  0  0  0  0  0  0  0  0  0
   -4.3572    0.3143   -0.2466 C   0  0  0  0  0  0  0  0  0  0  0  0
   -3.9920   -0.6535    2.1220 C   0  0  0  0  0  0  0  0  0  0  0  0
   -4.6665    0.2278    1.2373 C   0  0  0  0  0  0  0  0  0  0  0  0
   -5.6600    1.0837    1.7567 C   0  0  0  0  0  0  0  0  0  0  0  0
   -5.9760    1.1049    3.1208 C   0  0  0  0  0  0  0  0  0  0  0  0
   -5.3054    0.2390    3.9962 C   0  0  0  0  0  0  0  0  0  0  0  0
   -4.3365   -0.6360    3.4896 C   0  0  0  0  0  0  0  0  0  0  0  0
   -2.9400   -1.6461    1.6633 C   0  0  0  0  0  0  0  0  0  0  0  0
   -1.5542   -1.1986    1.8314 N   0  0  0  0  0  0  0  0  0  0  0  0
   -0.7310   -0.8935    0.7821 C   0  0  0  0  0  2  0  0  0  0  0  0
    0.4985   -0.7039    1.3444 N   0  0  0  0  0  0  0  0  0  0  0  0
    0.4462   -0.8748    2.7230 C   0  0  0  0  0  0  0  0  0  0  0  0
   -0.8501   -1.1886    3.0329 C   0  0  0  0  0  0  0  0  0  0  0  0
    1.7274   -0.4481    0.5956 C   0  0  0  0  0  0  0  0  0  0  0  0
    2.7701   -1.5339    0.7782 C   0  0  0  0  0  0  0  0  0  0  0  0
    2.3739   -2.8532    0.9781 C   0  0  0  0  0  0  0  0  0  0  0  0
    3.3263   -3.8905    1.1414 C   0  0  0  0  0  0  0  0  0  0  0  0
    4.6811   -3.6081    1.1041 C   0  0  0  0  0  0  0  0  0  0  0  0
    5.1360   -2.2766    0.8793 C   0  0  0  0  0  0  0  0  0  0  0  0
    6.5275   -1.9720    0.8143 C   0  0  0  0  0  0  0  0  0  0  0  0
    6.9690   -0.6811    0.5700 C   0  0  0  0  0  0  0  0  0  0  0  0
    6.0251    0.3607    0.3770 C   0  0  0  0  0  0  0  0  0  0  0  0
    4.6635    0.1006    0.4401 C   0  0  0  0  0  0  0  0  0  0  0  0
    4.1701   -1.2140    0.7012 C   0  0  0  0  0  0  0  0  0  0  0  0
    0.2436    1.5551   -1.9150 H   0  0  0  0  0  0  0  0  0  0  0  0
   -0.0017    3.3083   -2.1252 H   0  0  0  0  0  0  0  0  0  0  0  0
   -0.8219    2.3737    1.2495 H   0  0  0  0  0  0  0  0  0  0  0  0
    0.5817    2.7850    3.2639 H   0  0  0  0  0  0  0  0  0  0  0  0
    5.9524    4.0765   -0.7006 H   0  0  0  0  0  0  0  0  0  0  0  0
    4.5770    3.5526   -2.7370 H   0  0  0  0  0  0  0  0  0  0  0  0
    2.1962    2.9430   -2.5222 H   0  0  0  0  0  0  0  0  0  0  0  0
   -4.5736    3.1384   -0.3188 H   0  0  0  0  0  0  0  0  0  0  0  0
   -2.1471    4.3677   -0.9984 H   0  0  0  0  0  0  0  0  0  0  0  0
   -3.9573   -0.6276   -0.6672 H   0  0  0  0  0  0  0  0  0  0  0  0
   -5.2778    0.5628   -0.8105 H   0  0  0  0  0  0  0  0  0  0  0  0
   -6.2103    1.7418    1.0654 H   0  0  0  0  0  0  0  0  0  0  0  0
   -6.7563    1.7837    3.4961 H   0  0  0  0  0  0  0  0  0  0  0  0
   -5.5514    0.2291    5.0686 H   0  0  0  0  0  0  0  0  0  0  0  0
   -3.8422   -1.3455    4.1724 H   0  0  0  0  0  0  0  0  0  0  0  0
   -3.0344   -1.9056    0.5921 H   0  0  0  0  0  0  0  0  0  0  0  0
   -3.0520   -2.5884    2.2363 H   0  0  0  0  0  0  0  0  0  0  0  0
    1.3365   -0.7859    3.3516 H   0  0  0  0  0  0  0  0  0  0  0  0
   -1.3206   -1.4148    3.9934 H   0  0  0  0  0  0  0  0  0  0  0  0
    2.1180    0.5384    0.9078 H   0  0  0  0  0  0  0  0  0  0  0  0
    1.4190   -0.3708   -0.4696 H   0  0  0  0  0  0  0  0  0  0  0  0
    1.3021   -3.1012    0.9710 H   0  0  0  0  0  0  0  0  0  0  0  0
    2.9758   -4.9228    1.2900 H   0  0  0  0  0  0  0  0  0  0  0  0
    5.4276   -4.4072    1.2336 H   0  0  0  0  0  0  0  0  0  0  0  0
    7.2491   -2.7920    0.9557 H   0  0  0  0  0  0  0  0  0  0  0  0
    8.0467   -0.4636    0.5182 H   0  0  0  0  0  0  0  0  0  0  0  0
    6.3681    1.3855    0.1706 H   0  0  0  0  0  0  0  0  0  0  0  0
    3.9631    0.9289    0.2705 H   0  0  0  0  0  0  0  0  0  0  0  0
    2.9888    3.4364    3.0162 H   0  0  0  0  0  0  0  0  0  0  0  0
    4.9220    3.9290    1.5715 H   0  0  0  0  0  0  0  0  0  0  0  0
  1 12  1  0  0  0  0
  1  2  1  0  0  0  0
  2  3  1  0  0  0  0
  3 43  1  0  0  0  0
  3  4  2  0  0  0  0
  4 44  1  0  0  0  0
  5  4  1  0  0  0  0
  5 69  1  0  0  0  0
  6  5  2  0  0  0  0
  7  6  1  0  0  0  0
  7 70  1  0  0  0  0
  8  7  2  0  0  0  0
  9 10  2  0  0  0  0
  9  8  1  0  0  0  0
 10 11  1  0  0  0  0
 11  2  2  0  0  0  0
 11  6  1  0  0  0  0
 12 13  1  0  0  0  0
 12 16  1  0  0  0  0
 13 14  1  0  0  0  0
 14 15  1  0  0  0  0
 14 17  1  0  0  0  0
 15 48  1  0  0  0  0
 16 15  2  0  0  0  0
 17 19  1  0  0  0  0
 18 23  1  0  0  0  0
 19 20  1  0  0  0  0
 19 18  2  0  0  0  0
 20 21  2  0  0  0  0
 21 53  1  0  0  0  0
 21 22  1  0  0  0  0
 22 54  1  0  0  0  0
 23 22  2  0  0  0  0
 23 55  1  0  0  0  0
 24 25  1  0  0  0  0
 24 18  1  0  0  0  0
 24 57  1  0  0  0  0
 25 29  1  0  0  0  0
 26 27  1  0  0  0  0
 26 25  1  0  0  0  0
 27 28  1  0  0  0  0
 28 29  2  0  0  0  0
 28 58  1  0  0  0  0
 29 59  1  0  0  0  0
 30 31  1  0  0  0  0
 30 60  1  0  0  0  0
 30 27  1  0  0  0  0
 31 32  1  0  0  0  0
 32 33  2  0  0  0  0
 33 63  1  0  0  0  0
 34 33  1  0  0  0  0
 34 64  1  0  0  0  0
 35 34  2  0  0  0  0
 36 35  1  0  0  0  0
 36 65  1  0  0  0  0
 37 36  2  0  0  0  0
 38 39  2  0  0  0  0
 38 37  1  0  0  0  0
 39 40  1  0  0  0  0
 40 31  2  0  0  0  0
 40 35  1  0  0  0  0
 41  1  1  0  0  0  0
 42  1  1  0  0  0  0
 45  8  1  0  0  0  0
 46  9  1  0  0  0  0
 47 10  1  0  0  0  0
 49 16  1  0  0  0  0
 50 17  1  0  0  0  0
 51 17  1  0  0  0  0
 52 20  1  0  0  0  0
 56 24  1  0  0  0  0
 61 30  1  0  0  0  0
 62 32  1  0  0  0  0
 66 37  1  0  0  0  0
 67 38  1  0  0  0  0
 68 39  1  0  0  0  0
M  END
