9,13
 OpenBabel05122313053D

 29 30  0  0  0  0  0  0  0  0999 V2000
   -7.3362    0.1163   -0.0414 C   0  0  0  0  0  0  0  0  0  0  0  0
   -6.6117    0.3446   -1.2236 C   0  0  0  0  0  0  0  0  0  0  0  0
   -5.2492    0.6599   -1.1717 C   0  0  0  0  0  0  0  0  0  0  0  0
   -4.5704    0.7528    0.0746 C   0  0  0  0  0  0  0  0  0  0  0  0
   -5.3187    0.5221    1.2610 C   0  0  0  0  0  0  0  0  0  0  0  0
   -6.6814    0.2086    1.1984 C   0  0  0  0  0  0  0  0  0  0  0  0
   -3.1775    1.0386    0.1234 C   0  0  0  0  0  0  0  0  0  0  0  0
   -1.9477    1.2158    0.1422 C   0  0  0  0  0  0  0  0  0  0  0  0
   -0.5511    1.3611    0.1212 C   0  0  0  0  0  3  0  0  0  0  0  0
    0.0101    2.6272    0.0709 C   0  0  0  0  0  0  0  0  0  0  0  0
   -0.7880    3.9035    0.0859 C   0  0  0  0  0  0  0  0  0  0  0  0
    1.4662    2.6583    0.0199 C   0  0  0  0  0  0  0  0  0  0  0  0
    2.1171    1.3751   -0.0135 C   0  0  0  0  0  3  0  0  0  0  0  0
    3.5276    1.4117    0.0293 C   0  0  0  0  0  0  0  0  0  0  0  0
    4.2701    2.6092    0.0407 C   0  0  0  0  0  0  0  0  0  0  0  0
    3.6096    3.8460    0.0251 C   0  0  0  0  0  0  0  0  0  0  0  0
    2.2081    3.8637    0.0260 C   0  0  0  0  0  0  0  0  0  0  0  0
   -8.4078   -0.1298   -0.0861 H   0  0  0  0  0  0  0  0  0  0  0  0
   -7.1164    0.2777   -2.1999 H   0  0  0  0  0  0  0  0  0  0  0  0
   -4.6835    0.8434   -2.0973 H   0  0  0  0  0  0  0  0  0  0  0  0
   -4.8087    0.5965    2.2327 H   0  0  0  0  0  0  0  0  0  0  0  0
   -7.2413    0.0346    2.1303 H   0  0  0  0  0  0  0  0  0  0  0  0
    4.1046    0.4779    0.0877 H   0  0  0  0  0  0  0  0  0  0  0  0
    5.3711    2.5685    0.0683 H   0  0  0  0  0  0  0  0  0  0  0  0
    4.1794    4.7880    0.0283 H   0  0  0  0  0  0  0  0  0  0  0  0
    1.6785    4.8291    0.0419 H   0  0  0  0  0  0  0  0  0  0  0  0
   -1.8749    3.6980    0.1139 H   0  0  0  0  0  0  0  0  0  0  0  0
   -0.5349    4.5334    0.9672 H   0  0  0  0  0  0  0  0  0  0  0  0
   -0.5758    4.5288   -0.8091 H   0  0  0  0  0  0  0  0  0  0  0  0
  1  6  1  0  0  0  0
  2  3  1  0  0  0  0
  2  1  2  0  0  0  0
  3  4  2  0  0  0  0
  4  7  1  0  0  0  0
  4  5  1  0  0  0  0
  5 21  1  0  0  0  0
  6  5  2  0  0  0  0
  6 22  1  0  0  0  0
  7  8  3  0  0  0  0
  9  8  1  0  0  0  0
 10 11  1  0  0  0  0
 10  9  2  0  0  0  0
 11 27  1  0  0  0  0
 11 28  1  0  0  0  0
 12 17  1  0  0  0  0
 12 10  1  0  0  0  0
 13 12  2  0  0  0  0
 13 14  1  0  0  0  0
 14 15  2  0  0  0  0
 14 23  1  0  0  0  0
 15 24  1  0  0  0  0
 16 17  2  0  0  0  0
 16 25  1  0  0  0  0
 16 15  1  0  0  0  0
 17 26  1  0  0  0  0
 18  1  1  0  0  0  0
 19  2  1  0  0  0  0
 20  3  1  0  0  0  0
 29 11  1  0  0  0  0
M  END
