2,4
 OpenBabel05122313053D

 70 74  0  0  1  0  0  0  0  0999 V2000
    2.3372   -1.6825   -1.4821 N   0  0  0  0  0  0  0  0  0  0  0  0
   -1.5259   -0.2685   -0.5292 C   0  0  0  0  0  3  0  0  0  0  0  0
   -1.0922    0.9847   -0.2019 C   0  0  0  0  0  0  0  0  0  0  0  0
    0.4069    0.8880   -0.0287 C   0  0  2  0  0  3  0  0  0  0  0  0
    0.8810   -0.0662    0.9429 C   0  0  1  0  0  3  0  0  0  0  0  0
    2.3341   -0.1990    1.3249 C   0  0  0  0  0  0  0  0  0  0  0  0
    3.4203   -0.4380    0.4331 C   0  0  0  0  0  0  0  0  0  0  0  0
    3.2746   -0.6192   -1.0566 C   0  0  0  0  0  0  0  0  0  0  0  0
   -2.8631   -0.8485   -0.5720 C   0  0  0  0  0  0  0  0  0  0  0  0
   -3.4364   -1.3817   -1.7504 C   0  0  0  0  0  0  0  0  0  0  0  0
   -4.7411   -1.8901   -1.7327 C   0  0  0  0  0  0  0  0  0  0  0  0
   -5.4862   -1.9008   -0.5413 C   0  0  0  0  0  0  0  0  0  0  0  0
   -4.9168   -1.3948    0.6388 C   0  0  0  0  0  0  0  0  0  0  0  0
   -3.6187   -0.8699    0.6274 C   0  0  0  0  0  0  0  0  0  0  0  0
   -1.8434    2.2386   -0.0312 C   0  0  0  0  0  0  0  0  0  0  0  0
   -3.1554    2.3892   -0.5443 C   0  0  0  0  0  0  0  0  0  0  0  0
   -3.8649    3.5805   -0.3569 C   0  0  0  0  0  0  0  0  0  0  0  0
   -3.2848    4.6559    0.3385 C   0  0  0  0  0  0  0  0  0  0  0  0
   -1.9811    4.5270    0.8416 C   0  0  0  0  0  0  0  0  0  0  0  0
   -1.2682    3.3346    0.6571 C   0  0  0  0  0  0  0  0  0  0  0  0
    1.2652    1.8857   -0.7232 C   0  0  0  0  0  0  0  0  0  0  0  0
    1.0030    2.1919   -2.0786 C   0  0  0  0  0  0  0  0  0  0  0  0
    1.7801    3.1350   -2.7625 C   0  0  0  0  0  0  0  0  0  0  0  0
    2.8243    3.8018   -2.0993 C   0  0  0  0  0  0  0  0  0  0  0  0
    3.0753    3.5264   -0.7455 C   0  0  0  0  0  0  0  0  0  0  0  0
    2.3026    2.5781   -0.0603 C   0  0  0  0  0  0  0  0  0  0  0  0
   -0.0596   -0.5554    2.0206 C   0  0  0  0  0  0  0  0  0  0  0  0
   -0.7723    0.3673    2.8153 C   0  0  0  0  0  0  0  0  0  0  0  0
   -1.5988   -0.0749    3.8595 C   0  0  0  0  0  0  0  0  0  0  0  0
   -1.7226   -1.4468    4.1305 C   0  0  0  0  0  0  0  0  0  0  0  0
   -1.0082   -2.3722    3.3521 C   0  0  0  0  0  0  0  0  0  0  0  0
   -0.1786   -1.9298    2.3130 C   0  0  0  0  0  0  0  0  0  0  0  0
    2.6354   -0.0506    2.7025 C   0  0  0  0  0  0  0  0  0  0  0  0
    3.9451   -0.0895    3.1925 C   0  0  0  0  0  0  0  0  0  0  0  0
    5.0091   -0.3124    2.3095 C   0  0  0  0  0  0  0  0  0  0  0  0
    4.7304   -0.4938    0.9499 C   0  0  0  0  0  0  0  0  0  0  0  0
    2.3494   -1.7466   -2.9576 C   0  0  0  0  0  0  0  0  0  0  0  0
    2.6976   -2.9931   -0.9125 C   0  0  0  0  0  0  0  0  0  0  0  0
    4.2832   -0.8429   -1.4780 H   0  0  0  0  0  0  0  0  0  0  0  0
    2.9343    0.3219   -1.5344 H   0  0  0  0  0  0  0  0  0  0  0  0
   -2.8413   -1.3982   -2.6731 H   0  0  0  0  0  0  0  0  0  0  0  0
   -5.1785   -2.2935   -2.6589 H   0  0  0  0  0  0  0  0  0  0  0  0
   -6.5078   -2.3106   -0.5317 H   0  0  0  0  0  0  0  0  0  0  0  0
   -5.4887   -1.4084    1.5794 H   0  0  0  0  0  0  0  0  0  0  0  0
   -3.1676   -0.4733    1.5485 H   0  0  0  0  0  0  0  0  0  0  0  0
   -3.6144    1.5596   -1.0995 H   0  0  0  0  0  0  0  0  0  0  0  0
   -4.8834    3.6738   -0.7641 H   0  0  0  0  0  0  0  0  0  0  0  0
   -3.8453    5.5921    0.4815 H   0  0  0  0  0  0  0  0  0  0  0  0
   -1.5117    5.3633    1.3821 H   0  0  0  0  0  0  0  0  0  0  0  0
   -0.2445    3.2517    1.0506 H   0  0  0  0  0  0  0  0  0  0  0  0
    0.1824    1.6647   -2.5893 H   0  0  0  0  0  0  0  0  0  0  0  0
    1.5676    3.3547   -3.8198 H   0  0  0  0  0  0  0  0  0  0  0  0
    3.4352    4.5441   -2.6350 H   0  0  0  0  0  0  0  0  0  0  0  0
    3.8790    4.0586   -0.2143 H   0  0  0  0  0  0  0  0  0  0  0  0
    2.4992    2.3757    1.0019 H   0  0  0  0  0  0  0  0  0  0  0  0
   -0.6861    1.4432    2.6051 H   0  0  0  0  0  0  0  0  0  0  0  0
   -2.1514    0.6616    4.4626 H   0  0  0  0  0  0  0  0  0  0  0  0
   -2.3769   -1.7946    4.9441 H   0  0  0  0  0  0  0  0  0  0  0  0
   -1.1045   -3.4507    3.5485 H   0  0  0  0  0  0  0  0  0  0  0  0
    0.3635   -2.6589    1.6917 H   0  0  0  0  0  0  0  0  0  0  0  0
    1.8082    0.1177    3.4055 H   0  0  0  0  0  0  0  0  0  0  0  0
    4.1279    0.0471    4.2690 H   0  0  0  0  0  0  0  0  0  0  0  0
    6.0459   -0.3607    2.6743 H   0  0  0  0  0  0  0  0  0  0  0  0
    5.5570   -0.6915    0.2495 H   0  0  0  0  0  0  0  0  0  0  0  0
    2.0616   -0.7593   -3.3675 H   0  0  0  0  0  0  0  0  0  0  0  0
    3.3686   -2.0085   -3.3275 H   0  0  0  0  0  0  0  0  0  0  0  0
    1.6125   -2.4992   -3.2910 H   0  0  0  0  0  0  0  0  0  0  0  0
    2.6950   -2.9316    0.1919 H   0  0  0  0  0  0  0  0  0  0  0  0
    1.9415   -3.7320   -1.2372 H   0  0  0  0  0  0  0  0  0  0  0  0
    3.7121   -3.3102   -1.2513 H   0  0  0  0  0  0  0  0  0  0  0  0
  1  8  1  0  0  0  0
  1 38  1  0  0  0  0
  2  3  2  0  0  0  0
  3 15  1  0  0  0  0
  4  3  1  1  0  0  0
  5  4  1  1  0  0  0
  5  6  1  0  0  0  0
  5 27  1  0  0  0  0
  6 33  1  0  0  0  0
  7 36  1  0  0  0  0
  7  6  2  0  0  0  0
  8  7  1  0  0  0  0
  9  2  1  0  0  0  0
  9 14  1  0  0  0  0
 10 11  1  0  0  0  0
 10  9  2  0  0  0  0
 11 12  2  0  0  0  0
 12 43  1  0  0  0  0
 12 13  1  0  0  0  0
 13 44  1  0  0  0  0
 14 13  2  0  0  0  0
 14 45  1  0  0  0  0
 15 20  1  0  0  0  0
 16 17  1  0  0  0  0
 16 15  2  0  0  0  0
 17 18  2  0  0  0  0
 18 48  1  0  0  0  0
 18 19  1  0  0  0  0
 19 49  1  0  0  0  0
 20 19  2  0  0  0  0
 20 50  1  0  0  0  0
 21 26  1  0  0  0  0
 21  4  1  0  0  0  0
 22 21  2  0  0  0  0
 23 24  2  0  0  0  0
 23 22  1  0  0  0  0
 24 25  1  0  0  0  0
 25 54  1  0  0  0  0
 25 26  2  0  0  0  0
 26 55  1  0  0  0  0
 27 32  2  0  0  0  0
 27 28  1  0  0  0  0
 28 29  2  0  0  0  0
 29 30  1  0  0  0  0
 29 57  1  0  0  0  0
 30 58  1  0  0  0  0
 31 59  1  0  0  0  0
 31 30  2  0  0  0  0
 32 31  1  0  0  0  0
 33 34  2  0  0  0  0
 33 61  1  0  0  0  0
 34 62  1  0  0  0  0
 35 63  1  0  0  0  0
 35 34  1  0  0  0  0
 36 35  2  0  0  0  0
 37  1  1  0  0  0  0
 38 68  1  0  0  0  0
 39  8  1  0  0  0  0
 40  8  1  0  0  0  0
 41 10  1  0  0  0  0
 42 11  1  0  0  0  0
 46 16  1  0  0  0  0
 47 17  1  0  0  0  0
 51 22  1  0  0  0  0
 52 23  1  0  0  0  0
 53 24  1  0  0  0  0
 56 28  1  0  0  0  0
 60 32  1  0  0  0  0
 64 36  1  0  0  0  0
 65 37  1  0  0  0  0
 66 37  1  0  0  0  0
 67 37  1  0  0  0  0
 69 38  1  0  0  0  0
 70 38  1  0  0  0  0
M  END
