1,4
 OpenBabel05122313053D

 45 47  0  0  1  0  0  0  0  0999 V2000
    0.0734   -0.4301   -0.0768 C   0  0  2  0  0  3  0  0  0  0  0  0
   -0.6709   -1.5949    0.3838 C   0  0  0  0  0  0  0  0  0  0  0  0
   -1.7535   -1.8321   -0.5327 C   0  0  0  0  0  0  0  0  0  0  0  0
   -1.6924   -0.8159   -1.5702 C   0  0  1  0  0  3  0  0  0  0  0  0
   -0.5439    0.0288   -1.3058 C   0  0  2  0  0  3  0  0  0  0  0  0
    1.3670    0.0050    0.5836 C   0  0  0  0  0  0  0  0  0  0  0  0
    1.1849   -0.0413    1.6782 H   0  0  0  0  0  0  0  0  0  0  0  0
   -0.2845   -2.4751    1.5261 C   0  0  0  0  0  0  0  0  0  0  0  0
   -1.1506   -3.0205    1.9441 H   0  0  0  0  0  0  0  0  0  0  0  0
    0.2114   -1.9179    2.3418 H   0  0  0  0  0  0  0  0  0  0  0  0
    0.4496   -3.2239    1.1602 H   0  0  0  0  0  0  0  0  0  0  0  0
   -2.6936   -2.9928   -0.4941 C   0  0  0  0  0  0  0  0  0  0  0  0
   -3.6623   -2.7688   -0.9776 H   0  0  0  0  0  0  0  0  0  0  0  0
   -2.8897   -3.3344    0.5391 H   0  0  0  0  0  0  0  0  0  0  0  0
   -2.2394   -3.8447   -1.0437 H   0  0  0  0  0  0  0  0  0  0  0  0
   -2.5769   -0.7486   -2.7730 C   0  0  0  0  0  0  0  0  0  0  0  0
   -2.6923    0.2851   -3.1480 H   0  0  0  0  0  0  0  0  0  0  0  0
   -3.5852   -1.1542   -2.5684 H   0  0  0  0  0  0  0  0  0  0  0  0
   -2.1379   -1.3531   -3.5953 H   0  0  0  0  0  0  0  0  0  0  0  0
   -0.0672    1.1068   -2.2275 C   0  0  0  0  0  0  0  0  0  0  0  0
    0.2795    2.0081   -1.6936 H   0  0  0  0  0  0  0  0  0  0  0  0
   -0.8498    1.3915   -2.9539 H   0  0  0  0  0  0  0  0  0  0  0  0
    0.8040    0.7271   -2.8007 H   0  0  0  0  0  0  0  0  0  0  0  0
    2.4561   -1.0276    0.2911 C   0  0  0  0  0  0  0  0  0  0  0  0
    2.5227   -1.7195   -0.9341 C   0  0  0  0  0  0  0  0  0  0  0  0
    1.7623   -1.5457   -1.7116 H   0  0  0  0  0  0  0  0  0  0  0  0
    3.5582   -2.6353   -1.1820 C   0  0  0  0  0  0  0  0  0  0  0  0
    3.5993   -3.1673   -2.1442 H   0  0  0  0  0  0  0  0  0  0  0  0
    4.5384   -2.8693   -0.2063 C   0  0  0  0  0  0  0  0  0  0  0  0
    5.3495   -3.5868   -0.3991 H   0  0  0  0  0  0  0  0  0  0  0  0
    4.4793   -2.1836    1.0182 C   0  0  0  0  0  0  0  0  0  0  0  0
    5.2446   -2.3621    1.7883 H   0  0  0  0  0  0  0  0  0  0  0  0
    3.4445   -1.2709    1.2649 C   0  0  0  0  0  0  0  0  0  0  0  0
    3.4064   -0.7311    2.2244 H   0  0  0  0  0  0  0  0  0  0  0  0
    1.7847    1.4430    0.2802 C   0  0  0  0  0  0  0  0  0  0  0  0
    2.7935    1.7432   -0.6538 C   0  0  0  0  0  0  0  0  0  0  0  0
    3.3370    0.9260   -1.1508 H   0  0  0  0  0  0  0  0  0  0  0  0
    3.1089    3.0776   -0.9540 C   0  0  0  0  0  0  0  0  0  0  0  0
    3.8999    3.2986   -1.6861 H   0  0  0  0  0  0  0  0  0  0  0  0
    2.4254    4.1270   -0.3203 C   0  0  0  0  0  0  0  0  0  0  0  0
    2.6738    5.1721   -0.5570 H   0  0  0  0  0  0  0  0  0  0  0  0
    1.4394    3.8364    0.6370 C   0  0  0  0  0  0  0  0  0  0  0  0
    0.9185    4.6526    1.1595 H   0  0  0  0  0  0  0  0  0  0  0  0
    1.1297    2.5025    0.9399 C   0  0  0  0  0  0  0  0  0  0  0  0
    0.3751    2.2835    1.7120 H   0  0  0  0  0  0  0  0  0  0  0  0
  1  2  1  0  0  0  0
  1  6  1  6  0  0  0
  2  8  1  0  0  0  0
  3 12  1  0  0  0  0
  3  2  2  0  0  0  0
  4 16  1  6  0  0  0
  4  5  1  0  0  0  0
  4  3  1  0  0  0  0
  5 20  1  6  0  0  0
  5  1  1  0  0  0  0
  6  7  1  0  0  0  0
  8  9  1  0  0  0  0
  8 10  1  0  0  0  0
 11  8  1  0  0  0  0
 12 14  1  0  0  0  0
 13 12  1  0  0  0  0
 15 12  1  0  0  0  0
 16 18  1  0  0  0  0
 17 16  1  0  0  0  0
 19 16  1  0  0  0  0
 20 21  1  0  0  0  0
 22 20  1  0  0  0  0
 23 20  1  0  0  0  0
 24  6  1  0  0  0  0
 24 33  1  0  0  0  0
 25 24  2  0  0  0  0
 26 25  1  0  0  0  0
 27 25  1  0  0  0  0
 27 29  2  0  0  0  0
 28 27  1  0  0  0  0
 29 31  1  0  0  0  0
 30 29  1  0  0  0  0
 31 33  2  0  0  0  0
 31 32  1  0  0  0  0
 33 34  1  0  0  0  0
 35  6  1  0  0  0  0
 35 44  1  0  0  0  0
 36 35  2  0  0  0  0
 37 36  1  0  0  0  0
 38 36  1  0  0  0  0
 38 40  2  0  0  0  0
 39 38  1  0  0  0  0
 40 42  1  0  0  0  0
 41 40  1  0  0  0  0
 42 44  2  0  0  0  0
 42 43  1  0  0  0  0
 44 45  1  0  0  0  0
M  END
