38,41
 OpenBabel05122313053D

 48 51  0  0  1  0  0  0  0  0999 V2000
    1.9305    1.7088    1.4633 O   0  0  0  0  0  0  0  0  0  0  0  0
    2.0051    1.9037   -0.7962 O   0  0  0  0  0  0  0  0  0  0  0  0
    0.5912   -0.3845   -0.9299 O   0  0  0  0  0  0  0  0  0  0  0  0
    3.7711    0.5208    0.2512 C   0  0  1  0  0  0  0  0  0  0  0  0
    4.4792    1.3332   -0.0045 H   0  0  0  0  0  0  0  0  0  0  0  0
    2.2962    1.0119    0.2765 C   0  0  0  0  0  0  0  0  0  0  0  0
    1.4843   -0.3331    0.1811 C   0  0  2  0  0  0  0  0  0  0  0  0
    0.8974   -0.4738    1.1129 H   0  0  0  0  0  0  0  0  0  0  0  0
    2.5862   -1.4182    0.0531 C   0  0  2  0  0  0  0  0  0  0  0  0
    3.2074   -1.4899    1.4777 C   0  0  0  0  0  0  0  0  0  0  0  0
    3.8466   -2.3901    1.5655 H   0  0  0  0  0  0  0  0  0  0  0  0
    2.4205   -1.5847    2.2523 H   0  0  0  0  0  0  0  0  0  0  0  0
    4.0285   -0.1738    1.6051 C   0  0  0  0  0  0  0  0  0  0  0  0
    5.1085   -0.3701    1.7449 H   0  0  0  0  0  0  0  0  0  0  0  0
    3.6935    0.4572    2.4485 H   0  0  0  0  0  0  0  0  0  0  0  0
    3.7209   -0.6736   -0.7532 C   0  0  0  0  0  0  0  0  0  0  0  0
    2.2258    3.0777    1.2031 C   0  0  0  0  0  0  0  0  0  0  0  0
    3.3079    3.2907    1.3651 H   0  0  0  0  0  0  0  0  0  0  0  0
    1.6291    3.7035    1.8942 H   0  0  0  0  0  0  0  0  0  0  0  0
    1.8336    3.2202   -0.2738 C   0  0  0  0  0  0  0  0  0  0  0  0
    0.7717    3.5325   -0.3929 H   0  0  0  0  0  0  0  0  0  0  0  0
    2.4790    3.9345   -0.8268 H   0  0  0  0  0  0  0  0  0  0  0  0
    2.0906   -2.7510   -0.4834 C   0  0  0  0  0  0  0  0  0  0  0  0
    1.3013   -3.1719    0.1705 H   0  0  0  0  0  0  0  0  0  0  0  0
    2.9224   -3.4821   -0.5335 H   0  0  0  0  0  0  0  0  0  0  0  0
    1.6582   -2.6431   -1.4967 H   0  0  0  0  0  0  0  0  0  0  0  0
    3.3468   -0.3052   -2.1981 C   0  0  0  0  0  0  0  0  0  0  0  0
    4.1454    0.3219   -2.6454 H   0  0  0  0  0  0  0  0  0  0  0  0
    2.3978    0.2472   -2.2875 H   0  0  0  0  0  0  0  0  0  0  0  0
    3.2689   -1.2266   -2.8110 H   0  0  0  0  0  0  0  0  0  0  0  0
    5.0424   -1.4576   -0.8229 C   0  0  0  0  0  0  0  0  0  0  0  0
    5.8352   -0.8239   -1.2705 H   0  0  0  0  0  0  0  0  0  0  0  0
    4.9269   -2.3452   -1.4773 H   0  0  0  0  0  0  0  0  0  0  0  0
    5.4120   -1.8130    0.1565 H   0  0  0  0  0  0  0  0  0  0  0  0
   -0.6003    0.2439   -0.8542 C   0  0  0  0  0  0  0  0  0  0  0  0
   -0.9664    1.1672    0.1665 C   0  0  0  0  0  0  0  0  0  0  0  0
   -0.2642    1.4110    0.9740 H   0  0  0  0  0  0  0  0  0  0  0  0
   -2.2654    1.7574    0.1389 C   0  0  0  0  0  3  0  0  0  0  0  0
   -2.5460    2.4475    0.9483 H   0  0  0  0  0  0  0  0  0  0  0  0
   -3.2121    1.4743   -0.8885 C   0  0  1  0  0  3  0  0  0  0  0  0
   -2.8338    0.4981   -1.8624 C   0  0  0  0  0  3  0  0  0  0  0  0
   -3.5645    0.1927   -2.6257 H   0  0  0  0  0  0  0  0  0  0  0  0
   -1.5527   -0.1119   -1.8570 C   0  0  0  0  0  3  0  0  0  0  0  0
   -1.2804   -0.8797   -2.5918 H   0  0  0  0  0  0  0  0  0  0  0  0
   -4.5659    2.1291   -0.9181 C   0  0  0  0  0  0  0  0  0  0  0  0
   -4.5482    3.0470   -1.5443 H   0  0  0  0  0  0  0  0  0  0  0  0
   -4.8927    2.4196    0.0988 H   0  0  0  0  0  0  0  0  0  0  0  0
   -5.3306    1.4487   -1.3400 H   0  0  0  0  0  0  0  0  0  0  0  0
  2 20  1  0  0  0  0
  2  6  1  0  0  0  0
  3 35  1  0  0  0  0
  3  7  1  0  0  0  0
  4  5  1  6  0  0  0
  4  6  1  0  0  0  0
  4 13  1  0  0  0  0
  6  1  1  0  0  0  0
  7  6  1  0  0  0  0
  7  8  1  1  0  0  0
  9 23  1  6  0  0  0
  9  7  1  0  0  0  0
  9 10  1  0  0  0  0
 10 11  1  0  0  0  0
 10 13  1  0  0  0  0
 10 12  1  0  0  0  0
 13 14  1  0  0  0  0
 13 15  1  0  0  0  0
 16  9  1  0  0  0  0
 16  4  1  0  0  0  0
 17 18  1  0  0  0  0
 17  1  1  0  0  0  0
 17 19  1  0  0  0  0
 20 17  1  0  0  0  0
 21 20  1  0  0  0  0
 22 20  1  0  0  0  0
 23 24  1  0  0  0  0
 25 23  1  0  0  0  0
 26 23  1  0  0  0  0
 27 16  1  0  0  0  0
 28 27  1  0  0  0  0
 29 27  1  0  0  0  0
 30 27  1  0  0  0  0
 31 16  1  0  0  0  0
 31 34  1  0  0  0  0
 32 31  1  0  0  0  0
 33 31  1  0  0  0  0
 35 36  2  0  0  0  0
 36 37  1  0  0  0  0
 38 36  1  0  0  0  0
 38 39  1  0  0  0  0
 40 45  1  1  0  0  0
 40 38  1  0  0  0  0
 41 43  1  0  0  0  0
 41 40  1  0  0  0  0
 42 41  1  0  0  0  0
 43 35  1  0  0  0  0
 44 43  1  0  0  0  0
 45 47  1  0  0  0  0
 46 45  1  0  0  0  0
 48 45  1  0  0  0  0
M  END
