7,8
 OpenBabel05122313053D

 78 77  0  0  0  0  0  0  0  0999 V2000
    2.1498    0.2310    1.8212 Si  0  0  0  0  0  0  0  0  0  0  0  0
    2.8176    1.2920   -1.1062 Si  0  0  0  0  0  0  0  0  0  0  0  0
    2.3303   -1.8111   -0.6239 Si  0  0  0  0  0  0  0  0  0  0  0  0
   -2.1498   -0.2327    1.8210 Si  0  0  0  0  0  0  0  0  0  0  0  0
   -2.3303    1.8117   -0.6222 Si  0  0  0  0  0  0  0  0  0  0  0  0
   -2.8176   -1.2910   -1.1074 Si  0  0  0  0  0  0  0  0  0  0  0  0
    1.9516   -0.0333   -0.0587 C   0  0  0  0  0  3  0  0  0  0  0  0
   -1.9516    0.0334   -0.0587 C   0  0  0  0  0  3  0  0  0  0  0  0
    4.6417    1.4870   -0.6029 C   0  0  0  0  0  0  0  0  0  0  0  0
    2.7996    0.8803   -2.9628 C   0  0  0  0  0  0  0  0  0  0  0  0
    2.0141    3.0114   -0.9915 C   0  0  0  0  0  0  0  0  0  0  0  0
    4.1826   -2.1882   -0.7948 C   0  0  0  0  0  0  0  0  0  0  0  0
    1.5401   -2.1913   -2.3208 C   0  0  0  0  0  0  0  0  0  0  0  0
    1.5841   -3.0875    0.5749 C   0  0  0  0  0  0  0  0  0  0  0  0
    3.7029   -0.6282    2.5037 C   0  0  0  0  0  0  0  0  0  0  0  0
    2.3034    2.0580    2.3252 C   0  0  0  0  0  0  0  0  0  0  0  0
    0.6584   -0.4128    2.8455 C   0  0  0  0  0  0  0  0  0  0  0  0
   -0.6584    0.4101    2.8459 C   0  0  0  0  0  0  0  0  0  0  0  0
   -2.3034   -2.0602    2.3232 C   0  0  0  0  0  0  0  0  0  0  0  0
   -3.7029    0.6258    2.5043 C   0  0  0  0  0  0  0  0  0  0  0  0
   -2.0142   -3.0104   -0.9942 C   0  0  0  0  0  0  0  0  0  0  0  0
   -4.6418   -1.4863   -0.6043 C   0  0  0  0  0  0  0  0  0  0  0  0
   -2.7995   -0.8775   -2.9636 C   0  0  0  0  0  0  0  0  0  0  0  0
   -1.5840    3.0870    0.5778 C   0  0  0  0  0  0  0  0  0  0  0  0
   -4.1826    2.1889   -0.7927 C   0  0  0  0  0  0  0  0  0  0  0  0
   -1.5401    2.1935   -2.3187 C   0  0  0  0  0  0  0  0  0  0  0  0
    4.7495    1.8429    0.4414 H   0  0  0  0  0  0  0  0  0  0  0  0
    5.1400    2.2284   -1.2617 H   0  0  0  0  0  0  0  0  0  0  0  0
    5.1927    0.5297   -0.6896 H   0  0  0  0  0  0  0  0  0  0  0  0
    1.7731    0.6926   -3.3391 H   0  0  0  0  0  0  0  0  0  0  0  0
    3.4214   -0.0019   -3.2136 H   0  0  0  0  0  0  0  0  0  0  0  0
    3.2094    1.7462   -3.5235 H   0  0  0  0  0  0  0  0  0  0  0  0
    2.0143    3.4277    0.0328 H   0  0  0  0  0  0  0  0  0  0  0  0
    0.9691    3.0045   -1.3590 H   0  0  0  0  0  0  0  0  0  0  0  0
    2.5843    3.7112   -1.6381 H   0  0  0  0  0  0  0  0  0  0  0  0
    4.6488   -1.5747   -1.5919 H   0  0  0  0  0  0  0  0  0  0  0  0
    4.3212   -3.2548   -1.0690 H   0  0  0  0  0  0  0  0  0  0  0  0
    4.7334   -2.0014    0.1476 H   0  0  0  0  0  0  0  0  0  0  0  0
    0.5270   -1.7509   -2.4337 H   0  0  0  0  0  0  0  0  0  0  0  0
    1.4372   -3.2889   -2.4492 H   0  0  0  0  0  0  0  0  0  0  0  0
    2.1531   -1.8106   -3.1597 H   0  0  0  0  0  0  0  0  0  0  0  0
    0.4851   -2.9693    0.6660 H   0  0  0  0  0  0  0  0  0  0  0  0
    2.0159   -3.0302    1.5934 H   0  0  0  0  0  0  0  0  0  0  0  0
    1.7730   -4.1095    0.1858 H   0  0  0  0  0  0  0  0  0  0  0  0
    3.8233   -0.3924    3.5813 H   0  0  0  0  0  0  0  0  0  0  0  0
    4.6095   -0.2718    1.9742 H   0  0  0  0  0  0  0  0  0  0  0  0
    3.6631   -1.7308    2.4020 H   0  0  0  0  0  0  0  0  0  0  0  0
    2.3749    2.1030    3.4322 H   0  0  0  0  0  0  0  0  0  0  0  0
    1.4234    2.6607    2.0258 H   0  0  0  0  0  0  0  0  0  0  0  0
    3.2068    2.5462    1.9107 H   0  0  0  0  0  0  0  0  0  0  0  0
    0.4720   -1.4809    2.6060 H   0  0  0  0  0  0  0  0  0  0  0  0
    1.0758   -0.4342    3.8781 H   0  0  0  0  0  0  0  0  0  0  0  0
   -0.4720    1.4785    2.6074 H   0  0  0  0  0  0  0  0  0  0  0  0
   -1.0759    0.4305    3.8785 H   0  0  0  0  0  0  0  0  0  0  0  0
   -1.4234   -2.6626    2.0232 H   0  0  0  0  0  0  0  0  0  0  0  0
   -3.2068   -2.5480    1.9082 H   0  0  0  0  0  0  0  0  0  0  0  0
   -2.3748   -2.1063    3.4301 H   0  0  0  0  0  0  0  0  0  0  0  0
   -3.6632    1.7285    2.4037 H   0  0  0  0  0  0  0  0  0  0  0  0
   -3.8233    0.3890    3.5817 H   0  0  0  0  0  0  0  0  0  0  0  0
   -4.6096    0.2699    1.9745 H   0  0  0  0  0  0  0  0  0  0  0  0
   -2.0144   -3.4277    0.0296 H   0  0  0  0  0  0  0  0  0  0  0  0
   -0.9691   -3.0032   -1.3616 H   0  0  0  0  0  0  0  0  0  0  0  0
   -2.5843   -3.7096   -1.6415 H   0  0  0  0  0  0  0  0  0  0  0  0
   -4.7495   -1.8433    0.4396 H   0  0  0  0  0  0  0  0  0  0  0  0
   -5.1400   -2.2272   -1.2638 H   0  0  0  0  0  0  0  0  0  0  0  0
   -5.1927   -0.5291   -0.6902 H   0  0  0  0  0  0  0  0  0  0  0  0
   -3.2093   -1.7429   -3.5252 H   0  0  0  0  0  0  0  0  0  0  0  0
   -1.7729   -0.6895   -3.3396 H   0  0  0  0  0  0  0  0  0  0  0  0
   -3.4213    0.0049   -3.2136 H   0  0  0  0  0  0  0  0  0  0  0  0
   -0.4850    2.9687    0.6687 H   0  0  0  0  0  0  0  0  0  0  0  0
   -2.0159    3.0287    1.5962 H   0  0  0  0  0  0  0  0  0  0  0  0
   -1.7729    4.1094    0.1896 H   0  0  0  0  0  0  0  0  0  0  0  0
   -4.3213    3.2558   -1.0659 H   0  0  0  0  0  0  0  0  0  0  0  0
   -4.7334    2.0013    0.1495 H   0  0  0  0  0  0  0  0  0  0  0  0
   -4.6489    1.5762   -1.5903 H   0  0  0  0  0  0  0  0  0  0  0  0
   -0.5270    1.7532   -2.4321 H   0  0  0  0  0  0  0  0  0  0  0  0
   -1.4373    3.2912   -2.4462 H   0  0  0  0  0  0  0  0  0  0  0  0
   -2.1532    1.8136   -3.1580 H   0  0  0  0  0  0  0  0  0  0  0  0
  1 16  1  0  0  0  0
  1 15  1  0  0  0  0
  1 17  1  0  0  0  0
  2 11  1  0  0  0  0
  2  9  1  0  0  0  0
  2  7  1  0  0  0  0
  3  7  1  0  0  0  0
  3 14  1  0  0  0  0
  4 19  1  0  0  0  0
  4 20  1  0  0  0  0
  4 18  1  0  0  0  0
  5  8  1  0  0  0  0
  5 24  1  0  0  0  0
  6 21  1  0  0  0  0
  6 22  1  0  0  0  0
  6  8  1  0  0  0  0
  7  1  1  0  0  0  0
  8  4  1  0  0  0  0
  9 27  1  0  0  0  0
 10  2  1  0  0  0  0
 11 33  1  0  0  0  0
 12  3  1  0  0  0  0
 12 38  1  0  0  0  0
 13  3  1  0  0  0  0
 14 42  1  0  0  0  0
 14 43  1  0  0  0  0
 15 45  1  0  0  0  0
 16 48  1  0  0  0  0
 17 18  1  0  0  0  0
 17 52  1  0  0  0  0
 18 54  1  0  0  0  0
 19 57  1  0  0  0  0
 20 59  1  0  0  0  0
 21 61  1  0  0  0  0
 22 64  1  0  0  0  0
 23  6  1  0  0  0  0
 24 70  1  0  0  0  0
 24 71  1  0  0  0  0
 25  5  1  0  0  0  0
 25 74  1  0  0  0  0
 26  5  1  0  0  0  0
 28  9  1  0  0  0  0
 29  9  1  0  0  0  0
 30 10  1  0  0  0  0
 31 10  1  0  0  0  0
 32 10  1  0  0  0  0
 34 11  1  0  0  0  0
 35 11  1  0  0  0  0
 36 12  1  0  0  0  0
 37 12  1  0  0  0  0
 39 13  1  0  0  0  0
 40 13  1  0  0  0  0
 41 13  1  0  0  0  0
 44 14  1  0  0  0  0
 46 15  1  0  0  0  0
 47 15  1  0  0  0  0
 49 16  1  0  0  0  0
 50 16  1  0  0  0  0
 51 17  1  0  0  0  0
 53 18  1  0  0  0  0
 55 19  1  0  0  0  0
 56 19  1  0  0  0  0
 58 20  1  0  0  0  0
 60 20  1  0  0  0  0
 62 21  1  0  0  0  0
 63 21  1  0  0  0  0
 65 22  1  0  0  0  0
 66 22  1  0  0  0  0
 67 23  1  0  0  0  0
 68 23  1  0  0  0  0
 69 23  1  0  0  0  0
 72 24  1  0  0  0  0
 73 25  1  0  0  0  0
 75 25  1  0  0  0  0
 76 26  1  0  0  0  0
 77 26  1  0  0  0  0
 78 26  1  0  0  0  0
M  END
