1,5
 OpenBabel05122313053D

 31 32  0  0  0  0  0  0  0  0999 V2000
    0.2032   -1.4526    0.3925 C   0  0  0  0  0  3  0  0  0  0  0  0
    1.4083   -1.0409   -0.0817 C   0  0  0  0  0  0  0  0  0  0  0  0
    1.1623    0.1941   -0.9309 C   0  0  0  0  0  0  0  0  0  0  0  0
    0.3060    0.0639   -2.0592 C   0  0  0  0  0  0  0  0  0  0  0  0
   -0.5215   -1.0828   -2.2840 C   0  0  0  0  0  3  0  0  0  0  0  0
    3.7808   -1.3594   -0.8370 C   0  0  0  0  0  0  0  0  0  0  0  0
    5.0421   -1.9562   -0.7070 C   0  0  0  0  0  0  0  0  0  0  0  0
    5.2946   -2.8631    0.3346 C   0  0  0  0  0  0  0  0  0  0  0  0
    4.2693   -3.1650    1.2485 C   0  0  0  0  0  0  0  0  0  0  0  0
    3.0100   -2.5679    1.1216 C   0  0  0  0  0  0  0  0  0  0  0  0
    2.7365   -1.6581    0.0709 C   0  0  0  0  0  0  0  0  0  0  0  0
    2.6794    1.5465    0.5404 C   0  0  0  0  0  0  0  0  0  0  0  0
    3.3251    2.7408    0.8873 C   0  0  0  0  0  0  0  0  0  0  0  0
    3.1956    3.8786    0.0757 C   0  0  0  0  0  0  0  0  0  0  0  0
    2.4169    3.8011   -1.0921 C   0  0  0  0  0  0  0  0  0  0  0  0
    1.7734    2.6087   -1.4408 C   0  0  0  0  0  0  0  0  0  0  0  0
    1.8806    1.4535   -0.6272 C   0  0  0  0  0  0  0  0  0  0  0  0
    3.5898   -0.6530   -1.6591 H   0  0  0  0  0  0  0  0  0  0  0  0
    5.8370   -1.7099   -1.4279 H   0  0  0  0  0  0  0  0  0  0  0  0
    6.2864   -3.3284    0.4389 H   0  0  0  0  0  0  0  0  0  0  0  0
    4.4587   -3.8676    2.0749 H   0  0  0  0  0  0  0  0  0  0  0  0
    2.2201   -2.7931    1.8547 H   0  0  0  0  0  0  0  0  0  0  0  0
    2.7861    0.6647    1.1875 H   0  0  0  0  0  0  0  0  0  0  0  0
    3.9354    2.7811    1.8026 H   0  0  0  0  0  0  0  0  0  0  0  0
    3.7003    4.8181    0.3468 H   0  0  0  0  0  0  0  0  0  0  0  0
    2.3060    4.6843   -1.7396 H   0  0  0  0  0  0  0  0  0  0  0  0
    1.1602    2.5851   -2.3519 H   0  0  0  0  0  0  0  0  0  0  0  0
    0.0409   -2.3600    1.0029 H   0  0  0  0  0  0  0  0  0  0  0  0
    0.1107    0.9598   -2.6676 H   0  0  0  0  0  0  0  0  0  0  0  0
   -1.2302   -1.0206   -3.1244 H   0  0  0  0  0  0  0  0  0  0  0  0
   -0.1298   -2.0871   -2.0543 H   0  0  0  0  0  0  0  0  0  0  0  0
  1 28  1  0  0  0  0
  2 11  1  0  0  0  0
  2  1  2  0  0  0  0
  3 17  1  0  0  0  0
  3  2  1  0  0  0  0
  4  3  2  0  0  0  0
  5  4  1  0  0  0  0
  5 31  1  0  0  0  0
  6  7  2  0  0  0  0
  6 11  1  0  0  0  0
  7  8  1  0  0  0  0
  8 20  1  0  0  0  0
  8  9  2  0  0  0  0
  9 21  1  0  0  0  0
 10  9  1  0  0  0  0
 10 22  1  0  0  0  0
 11 10  2  0  0  0  0
 12 13  1  0  0  0  0
 12 23  1  0  0  0  0
 13 24  1  0  0  0  0
 14 25  1  0  0  0  0
 14 13  2  0  0  0  0
 15 14  1  0  0  0  0
 16 15  2  0  0  0  0
 16 17  1  0  0  0  0
 17 12  2  0  0  0  0
 18  6  1  0  0  0  0
 19  7  1  0  0  0  0
 26 15  1  0  0  0  0
 27 16  1  0  0  0  0
 29  4  1  0  0  0  0
 30  5  1  0  0  0  0
M  END
