2,13
 OpenBabel05122313053D

 61 66  0  0  1  0  0  0  0  0999 V2000
    2.4292   -1.3440    2.8222 O   0  0  0  0  0  0  0  0  0  0  0  0
    2.0312   -0.9911    1.7278 C   0  0  0  0  0  3  0  0  0  0  0  0
    2.9175   -1.1616    0.5053 C   0  0  0  0  0  0  0  0  0  0  0  0
    4.2337   -1.6434    0.6353 C   0  0  0  0  0  0  0  0  0  0  0  0
    4.5883   -1.9246    1.6378 H   0  0  0  0  0  0  0  0  0  0  0  0
    5.0549   -1.7344   -0.4956 C   0  0  0  0  0  0  0  0  0  0  0  0
    6.0878   -2.1017   -0.3974 H   0  0  0  0  0  0  0  0  0  0  0  0
    4.5666   -1.3453   -1.7558 C   0  0  0  0  0  0  0  0  0  0  0  0
    5.2187   -1.4054   -2.6404 H   0  0  0  0  0  0  0  0  0  0  0  0
    3.2503   -0.8777   -1.8937 C   0  0  0  0  0  0  0  0  0  0  0  0
    2.8678   -0.5697   -2.8784 H   0  0  0  0  0  0  0  0  0  0  0  0
    2.4182   -0.7938   -0.7654 C   0  0  0  0  0  0  0  0  0  0  0  0
    1.0150   -0.3171   -0.8035 C   0  0  1  0  0  3  0  0  0  0  0  0
   -0.1517   -1.1696   -0.7104 C   0  0  1  0  0  3  0  0  0  0  0  0
   -1.3080   -0.2943   -0.5249 C   0  0  0  0  0  0  0  0  0  0  0  0
   -0.8535    1.0679   -0.5128 C   0  0  0  0  0  0  0  0  0  0  0  0
    0.6005    1.0592   -0.6622 C   0  0  2  0  0  3  0  0  0  0  0  0
    1.4721    2.2445   -0.8510 C   0  0  0  0  0  0  0  0  0  0  0  0
    1.1293    3.1984   -1.8339 C   0  0  0  0  0  0  0  0  0  0  0  0
    0.2077    3.0636   -2.4190 H   0  0  0  0  0  0  0  0  0  0  0  0
    1.9516    4.3098   -2.0652 C   0  0  0  0  0  0  0  0  0  0  0  0
    1.6680    5.0460   -2.8326 H   0  0  0  0  0  0  0  0  0  0  0  0
    3.1294    4.4838   -1.3219 C   0  0  0  0  0  0  0  0  0  0  0  0
    3.7727    5.3586   -1.5012 H   0  0  0  0  0  0  0  0  0  0  0  0
    3.4793    3.5390   -0.3440 C   0  0  0  0  0  0  0  0  0  0  0  0
    4.3967    3.6705    0.2492 H   0  0  0  0  0  0  0  0  0  0  0  0
    2.6568    2.4291   -0.1077 C   0  0  0  0  0  0  0  0  0  0  0  0
    2.9231    1.7015    0.6722 H   0  0  0  0  0  0  0  0  0  0  0  0
   -0.1742   -2.6394   -0.8955 C   0  0  0  0  0  0  0  0  0  0  0  0
   -0.9443   -3.4819   -0.0632 C   0  0  0  0  0  0  0  0  0  0  0  0
   -1.5138   -3.0485    0.7705 H   0  0  0  0  0  0  0  0  0  0  0  0
   -0.9755   -4.8644   -0.2806 C   0  0  0  0  0  0  0  0  0  0  0  0
   -1.5755   -5.5039    0.3841 H   0  0  0  0  0  0  0  0  0  0  0  0
   -0.2367   -5.4347   -1.3309 C   0  0  0  0  0  0  0  0  0  0  0  0
   -0.2575   -6.5226   -1.4955 H   0  0  0  0  0  0  0  0  0  0  0  0
    0.5302   -4.6084   -2.1651 C   0  0  0  0  0  0  0  0  0  0  0  0
    1.1119   -5.0433   -2.9920 H   0  0  0  0  0  0  0  0  0  0  0  0
    0.5578   -3.2221   -1.9526 C   0  0  0  0  0  0  0  0  0  0  0  0
    1.1487   -2.5788   -2.6194 H   0  0  0  0  0  0  0  0  0  0  0  0
   -2.7191   -0.7372   -0.4435 C   0  0  0  0  0  0  0  0  0  0  0  0
   -3.5626   -0.3018    0.6006 C   0  0  0  0  0  0  0  0  0  0  0  0
   -3.1481    0.3491    1.3850 H   0  0  0  0  0  0  0  0  0  0  0  0
   -4.9043   -0.7011    0.6431 C   0  0  0  0  0  0  0  0  0  0  0  0
   -5.5487   -0.3576    1.4662 H   0  0  0  0  0  0  0  0  0  0  0  0
   -5.4230   -1.5432   -0.3547 C   0  0  0  0  0  0  0  0  0  0  0  0
   -6.4762   -1.8604   -0.3174 H   0  0  0  0  0  0  0  0  0  0  0  0
   -4.5909   -1.9833   -1.3958 C   0  0  0  0  0  0  0  0  0  0  0  0
   -4.9892   -2.6450   -2.1797 H   0  0  0  0  0  0  0  0  0  0  0  0
   -3.2471   -1.5849   -1.4411 C   0  0  0  0  0  0  0  0  0  0  0  0
   -2.5961   -1.9298   -2.2578 H   0  0  0  0  0  0  0  0  0  0  0  0
   -1.7050    2.2767   -0.4593 C   0  0  0  0  0  0  0  0  0  0  0  0
   -1.3717    3.3779    0.3602 C   0  0  0  0  0  0  0  0  0  0  0  0
   -0.4852    3.3229    1.0074 H   0  0  0  0  0  0  0  0  0  0  0  0
   -2.1679    4.5300    0.3645 C   0  0  0  0  0  0  0  0  0  0  0  0
   -1.8955    5.3751    1.0146 H   0  0  0  0  0  0  0  0  0  0  0  0
   -3.3107    4.6049   -0.4487 C   0  0  0  0  0  0  0  0  0  0  0  0
   -3.9371    5.5097   -0.4412 H   0  0  0  0  0  0  0  0  0  0  0  0
   -3.6495    3.5180   -1.2694 C   0  0  0  0  0  0  0  0  0  0  0  0
   -4.5412    3.5674   -1.9127 H   0  0  0  0  0  0  0  0  0  0  0  0
   -2.8539    2.3638   -1.2771 C   0  0  0  0  0  0  0  0  0  0  0  0
   -3.1194    1.5186   -1.9282 H   0  0  0  0  0  0  0  0  0  0  0  0
  2  1  2  0  0  0  0
  3  4  1  0  0  0  0
  3  2  1  0  0  0  0
  4  5  1  0  0  0  0
  6  7  1  0  0  0  0
  6  4  2  0  0  0  0
  8  6  1  0  0  0  0
  9  8  1  0  0  0  0
 10  8  2  0  0  0  0
 10 12  1  0  0  0  0
 11 10  1  0  0  0  0
 12  3  2  0  0  0  0
 13 12  1  1  0  0  0
 13 14  1  0  0  0  0
 13 17  1  0  0  0  0
 14 29  1  6  0  0  0
 14 15  1  0  0  0  0
 15 16  2  0  0  0  0
 15 40  1  0  0  0  0
 16 51  1  0  0  0  0
 17 18  1  6  0  0  0
 17 16  1  0  0  0  0
 18 27  1  0  0  0  0
 19 18  2  0  0  0  0
 20 19  1  0  0  0  0
 21 19  1  0  0  0  0
 21 23  2  0  0  0  0
 22 21  1  0  0  0  0
 23 25  1  0  0  0  0
 24 23  1  0  0  0  0
 25 27  2  0  0  0  0
 25 26  1  0  0  0  0
 27 28  1  0  0  0  0
 29 30  1  0  0  0  0
 30 31  1  0  0  0  0
 32 30  2  0  0  0  0
 32 33  1  0  0  0  0
 34 32  1  0  0  0  0
 35 34  1  0  0  0  0
 36 38  1  0  0  0  0
 36 34  2  0  0  0  0
 37 36  1  0  0  0  0
 38 29  2  0  0  0  0
 39 38  1  0  0  0  0
 40 41  1  0  0  0  0
 41 43  2  0  0  0  0
 41 42  1  0  0  0  0
 43 44  1  0  0  0  0
 45 46  1  0  0  0  0
 45 43  1  0  0  0  0
 47 45  2  0  0  0  0
 48 47  1  0  0  0  0
 49 47  1  0  0  0  0
 49 40  2  0  0  0  0
 50 49  1  0  0  0  0
 51 52  1  0  0  0  0
 52 54  2  0  0  0  0
 52 53  1  0  0  0  0
 54 55  1  0  0  0  0
 56 57  1  0  0  0  0
 56 54  1  0  0  0  0
 58 56  2  0  0  0  0
 59 58  1  0  0  0  0
 60 58  1  0  0  0  0
 60 51  2  0  0  0  0
 61 60  1  0  0  0  0
M  END
