4,15
 OpenBabel05122313053D

 25 26  0  0  1  0  0  0  0  0999 V2000
    1.6845    3.4985   -0.5005 O   0  0  0  0  0  0  0  0  0  0  0  0
   -0.0316    1.9530   -0.3828 N   0  0  0  0  0  0  0  0  0  0  0  0
    1.3114    2.3531   -0.3241 C   0  0  0  0  0  0  0  0  0  0  0  0
   -0.3819    0.6255   -0.2124 C   0  0  0  0  0  2  0  0  0  0  0  0
   -1.8481    0.4338   -0.1573 C   0  0  0  0  0  0  0  0  0  0  0  0
   -2.4732   -0.7124   -0.7030 C   0  0  0  0  0  0  0  0  0  0  0  0
   -3.8601   -0.8803   -0.6207 C   0  0  0  0  0  0  0  0  0  0  0  0
   -4.6566    0.0759    0.0305 C   0  0  0  0  0  0  0  0  0  0  0  0
   -4.0531    1.2108    0.5940 C   0  0  0  0  0  0  0  0  0  0  0  0
   -2.6685    1.3937    0.4925 C   0  0  0  0  0  0  0  0  0  0  0  0
    2.6660    0.2289   -0.9914 C   0  0  0  0  0  3  0  0  0  0  0  0
    3.1450   -0.9257   -0.2779 C   0  0  0  0  0  0  0  0  0  0  0  0
    2.9371   -0.7159    1.1132 C   0  0  0  0  0  0  0  0  0  0  0  0
    2.3188    0.5684    1.2919 C   0  0  0  0  0  3  0  0  0  0  0  0
    2.1473    1.1427   -0.0164 C   0  0  2  0  0  3  0  0  0  0  0  0
   -1.8644   -1.4652   -1.2186 H   0  0  0  0  0  0  0  0  0  0  0  0
   -4.3243   -1.7721   -1.0681 H   0  0  0  0  0  0  0  0  0  0  0  0
   -5.7453   -0.0667    0.1044 H   0  0  0  0  0  0  0  0  0  0  0  0
   -4.6639    1.9576    1.1236 H   0  0  0  0  0  0  0  0  0  0  0  0
   -2.2086    2.2728    0.9706 H   0  0  0  0  0  0  0  0  0  0  0  0
    2.6777    0.3802   -2.0766 H   0  0  0  0  0  0  0  0  0  0  0  0
    3.5862   -1.8201   -0.7335 H   0  0  0  0  0  0  0  0  0  0  0  0
    3.1883   -1.4210    1.9143 H   0  0  0  0  0  0  0  0  0  0  0  0
    2.0222    1.0263    2.2423 H   0  0  0  0  0  0  0  0  0  0  0  0
   -0.7292    2.6822   -0.5874 H   0  0  0  0  0  0  0  0  0  0  0  0
  1  3  2  0  0  0  0
  2  3  1  0  0  0  0
  2  4  1  0  0  0  0
  4  5  1  0  0  0  0
  5 10  1  0  0  0  0
  6  7  1  0  0  0  0
  6  5  2  0  0  0  0
  7  8  2  0  0  0  0
  8 18  1  0  0  0  0
  8  9  1  0  0  0  0
  9 19  1  0  0  0  0
 10  9  2  0  0  0  0
 10 20  1  0  0  0  0
 11 12  1  0  0  0  0
 11 15  1  0  0  0  0
 12 13  2  0  0  0  0
 13 14  1  0  0  0  0
 13 23  1  0  0  0  0
 14 24  1  0  0  0  0
 15  3  1  6  0  0  0
 15 14  1  0  0  0  0
 16  6  1  0  0  0  0
 17  7  1  0  0  0  0
 21 11  1  0  0  0  0
 22 12  1  0  0  0  0
 25  2  1  0  0  0  0
M  END
