5,12
 OpenBabel05122313053D

 66 69  0  0  0  0  0  0  0  0999 V2000
    2.8775    1.0494   -0.7219 N   0  0  0  0  0  0  0  0  0  0  0  0
    1.2221    2.2791   -1.3468 N   0  0  0  0  0  0  0  0  0  0  0  0
   -1.1584    2.3784    1.4613 N   0  0  0  0  0  0  0  0  0  0  0  0
   -2.8081    1.1040    0.9126 N   0  0  0  0  0  0  0  0  0  0  0  0
    1.5025    1.1292   -0.6412 C   0  0  0  0  0  2  0  0  0  0  0  0
    3.4183    2.0981   -1.4586 C   0  0  0  0  0  0  0  0  0  0  0  0
    2.3665    2.8765   -1.8525 C   0  0  0  0  0  0  0  0  0  0  0  0
   -0.1028    2.8617   -1.5124 C   0  0  0  0  0  0  0  0  0  0  0  0
   -0.2982    4.1570   -0.7033 C   0  0  0  0  0  0  0  0  0  0  0  0
    0.3617    4.2093    0.6870 C   0  0  0  0  0  0  0  0  0  0  0  0
    0.1642    2.9750    1.5861 C   0  0  0  0  0  0  0  0  0  0  0  0
   -1.4314    1.1778    0.8335 C   0  0  0  0  0  2  0  0  0  0  0  0
   -2.3084    3.0169    1.9033 C   0  0  0  0  0  0  0  0  0  0  0  0
   -3.3543    2.2092    1.5579 C   0  0  0  0  0  0  0  0  0  0  0  0
    3.7145    0.0022   -0.2040 C   0  0  0  0  0  0  0  0  0  0  0  0
    4.1735    0.0721    1.1276 C   0  0  0  0  0  0  0  0  0  0  0  0
    5.0146   -0.9623    1.5781 C   0  0  0  0  0  0  0  0  0  0  0  0
    5.4073   -2.0215    0.7412 C   0  0  0  0  0  0  0  0  0  0  0  0
    4.9566   -2.0249   -0.5925 C   0  0  0  0  0  0  0  0  0  0  0  0
    4.1102   -1.0238   -1.0926 C   0  0  0  0  0  0  0  0  0  0  0  0
    3.7897    1.2037    2.0462 C   0  0  0  0  0  0  0  0  0  0  0  0
    6.2666   -3.1452    1.2626 C   0  0  0  0  0  0  0  0  0  0  0  0
    3.6027   -1.0534   -2.5106 C   0  0  0  0  0  0  0  0  0  0  0  0
   -3.6564    0.0225    0.4852 C   0  0  0  0  0  0  0  0  0  0  0  0
   -4.0158   -0.9532    1.4411 C   0  0  0  0  0  0  0  0  0  0  0  0
   -4.8809   -1.9793    1.0313 C   0  0  0  0  0  0  0  0  0  0  0  0
   -5.3890   -2.0418   -0.2798 C   0  0  0  0  0  0  0  0  0  0  0  0
   -5.0388   -1.0229   -1.1833 C   0  0  0  0  0  0  0  0  0  0  0  0
   -4.1812    0.0325   -0.8242 C   0  0  0  0  0  0  0  0  0  0  0  0
   -3.4610   -0.9036    2.8409 C   0  0  0  0  0  0  0  0  0  0  0  0
   -6.2625   -3.1921   -0.7113 C   0  0  0  0  0  0  0  0  0  0  0  0
   -3.8285    1.1180   -1.8024 C   0  0  0  0  0  0  0  0  0  0  0  0
    4.4943    2.1810   -1.6340 H   0  0  0  0  0  0  0  0  0  0  0  0
    2.3317    3.7920   -2.4504 H   0  0  0  0  0  0  0  0  0  0  0  0
   -0.8170    2.0726   -1.2223 H   0  0  0  0  0  0  0  0  0  0  0  0
   -0.2711    3.0449   -2.5920 H   0  0  0  0  0  0  0  0  0  0  0  0
    0.0753    5.0288   -1.2816 H   0  0  0  0  0  0  0  0  0  0  0  0
   -1.3935    4.3121   -0.6056 H   0  0  0  0  0  0  0  0  0  0  0  0
   -0.0117    5.1195    1.2026 H   0  0  0  0  0  0  0  0  0  0  0  0
    1.4574    4.3559    0.5789 H   0  0  0  0  0  0  0  0  0  0  0  0
    0.8795    2.1746    1.3300 H   0  0  0  0  0  0  0  0  0  0  0  0
    0.3356    3.2381    2.6497 H   0  0  0  0  0  0  0  0  0  0  0  0
   -2.2809    3.9786    2.4240 H   0  0  0  0  0  0  0  0  0  0  0  0
   -4.4325    2.3055    1.7124 H   0  0  0  0  0  0  0  0  0  0  0  0
    5.3774   -0.9329    2.6181 H   0  0  0  0  0  0  0  0  0  0  0  0
    5.2561   -2.8459   -1.2631 H   0  0  0  0  0  0  0  0  0  0  0  0
    3.5699    2.1350    1.4889 H   0  0  0  0  0  0  0  0  0  0  0  0
    4.6027    1.4148    2.7677 H   0  0  0  0  0  0  0  0  0  0  0  0
    2.8873    0.9430    2.6357 H   0  0  0  0  0  0  0  0  0  0  0  0
    6.8186   -2.8511    2.1764 H   0  0  0  0  0  0  0  0  0  0  0  0
    7.0014   -3.4836    0.5050 H   0  0  0  0  0  0  0  0  0  0  0  0
    5.6411   -4.0261    1.5225 H   0  0  0  0  0  0  0  0  0  0  0  0
    2.4966   -0.9565   -2.5522 H   0  0  0  0  0  0  0  0  0  0  0  0
    3.8856   -1.9987   -3.0097 H   0  0  0  0  0  0  0  0  0  0  0  0
    4.0148   -0.2145   -3.1103 H   0  0  0  0  0  0  0  0  0  0  0  0
   -5.1517   -2.7637    1.7557 H   0  0  0  0  0  0  0  0  0  0  0  0
   -5.4470   -1.0439   -2.2063 H   0  0  0  0  0  0  0  0  0  0  0  0
   -3.8181   -0.0084    3.3928 H   0  0  0  0  0  0  0  0  0  0  0  0
   -2.3528   -0.8491    2.8340 H   0  0  0  0  0  0  0  0  0  0  0  0
   -3.7580   -1.7999    3.4164 H   0  0  0  0  0  0  0  0  0  0  0  0
   -5.6389   -4.0506   -1.0418 H   0  0  0  0  0  0  0  0  0  0  0  0
   -6.9161   -2.9153   -1.5616 H   0  0  0  0  0  0  0  0  0  0  0  0
   -6.9020   -3.5552    0.1176 H   0  0  0  0  0  0  0  0  0  0  0  0
   -4.5485    1.1450   -2.6420 H   0  0  0  0  0  0  0  0  0  0  0  0
   -2.8160    0.9191   -2.2227 H   0  0  0  0  0  0  0  0  0  0  0  0
   -3.8070    2.1181   -1.3242 H   0  0  0  0  0  0  0  0  0  0  0  0
  1  5  1  0  0  0  0
  1 15  1  0  0  0  0
  2  5  1  0  0  0  0
  3 11  1  0  0  0  0
  3 13  1  0  0  0  0
  4 14  1  0  0  0  0
  6  1  1  0  0  0  0
  7  6  2  0  0  0  0
  7  2  1  0  0  0  0
  8  2  1  0  0  0  0
  8 35  1  0  0  0  0
  8  9  1  0  0  0  0
  9 38  1  0  0  0  0
  9 10  1  0  0  0  0
 10 39  1  0  0  0  0
 10 11  1  0  0  0  0
 11 42  1  0  0  0  0
 12  4  1  0  0  0  0
 12  3  1  0  0  0  0
 13 43  1  0  0  0  0
 14 44  1  0  0  0  0
 14 13  2  0  0  0  0
 15 16  1  0  0  0  0
 16 17  2  0  0  0  0
 16 21  1  0  0  0  0
 17 45  1  0  0  0  0
 18 22  1  0  0  0  0
 18 17  1  0  0  0  0
 19 18  2  0  0  0  0
 20 19  1  0  0  0  0
 20 15  2  0  0  0  0
 21 49  1  0  0  0  0
 21 48  1  0  0  0  0
 22 52  1  0  0  0  0
 22 50  1  0  0  0  0
 23 20  1  0  0  0  0
 24  4  1  0  0  0  0
 24 25  1  0  0  0  0
 25 30  1  0  0  0  0
 26 25  2  0  0  0  0
 26 56  1  0  0  0  0
 27 26  1  0  0  0  0
 28 29  1  0  0  0  0
 28 27  2  0  0  0  0
 29 24  2  0  0  0  0
 30 58  1  0  0  0  0
 30 60  1  0  0  0  0
 31 27  1  0  0  0  0
 31 63  1  0  0  0  0
 32 66  1  0  0  0  0
 32 29  1  0  0  0  0
 33  6  1  0  0  0  0
 34  7  1  0  0  0  0
 36  8  1  0  0  0  0
 37  9  1  0  0  0  0
 40 10  1  0  0  0  0
 41 11  1  0  0  0  0
 46 19  1  0  0  0  0
 47 21  1  0  0  0  0
 51 22  1  0  0  0  0
 53 23  1  0  0  0  0
 54 23  1  0  0  0  0
 55 23  1  0  0  0  0
 57 28  1  0  0  0  0
 59 30  1  0  0  0  0
 61 31  1  0  0  0  0
 62 31  1  0  0  0  0
 64 32  1  0  0  0  0
 65 32  1  0  0  0  0
M  END
