10,12
 OpenBabel05122313053D

 26 26  0  0  1  0  0  0  0  0999 V2000
   -0.6693   -1.3060    0.6345 C   0  0  0  0  0  0  0  0  0  0  0  0
   -1.5996   -2.0797   -0.0032 N   0  0  0  0  0  0  0  0  0  0  0  0
   -1.2030   -3.2927   -0.6964 C   0  0  0  0  0  0  0  0  0  0  0  0
   -3.0314   -1.9001    0.1765 C   0  0  0  0  0  0  0  0  0  0  0  0
   -0.8744    0.1108    0.9070 C   0  0  2  0  0  3  0  0  0  0  0  0
   -1.8445    0.9355    0.1233 C   0  0  0  0  0  0  0  0  0  0  0  0
   -2.4753    0.5795   -0.8590 O   0  0  0  0  0  0  0  0  0  0  0  0
   -1.9098    2.2039    0.6148 O   0  0  0  0  0  0  0  0  0  0  0  0
   -2.6416    3.1318   -0.1918 C   0  0  0  0  0  0  0  0  0  0  0  0
    0.0630    0.7996    1.7585 C   0  0  0  0  0  3  0  0  0  0  0  0
    1.2375    0.1758    2.2390 C   0  0  0  0  0  3  0  0  0  0  0  0
    1.5397   -1.1339    1.7781 C   0  0  0  0  0  3  0  0  0  0  0  0
    0.6121   -1.8596    0.9865 C   0  0  0  0  0  0  0  0  0  0  0  0
   -0.1376    1.8529    1.9875 H   0  0  0  0  0  0  0  0  0  0  0  0
    1.9558    0.7370    2.8505 H   0  0  0  0  0  0  0  0  0  0  0  0
    2.4950   -1.6074    2.0452 H   0  0  0  0  0  0  0  0  0  0  0  0
    0.8627   -2.8829    0.6864 H   0  0  0  0  0  0  0  0  0  0  0  0
   -0.2374   -3.1450   -1.2163 H   0  0  0  0  0  0  0  0  0  0  0  0
   -1.9611   -3.5230   -1.4698 H   0  0  0  0  0  0  0  0  0  0  0  0
   -1.1219   -4.1756   -0.0200 H   0  0  0  0  0  0  0  0  0  0  0  0
   -3.4750   -2.8695    0.4937 H   0  0  0  0  0  0  0  0  0  0  0  0
   -3.5283   -1.5454   -0.7480 H   0  0  0  0  0  0  0  0  0  0  0  0
   -3.2284   -1.1619    0.9739 H   0  0  0  0  0  0  0  0  0  0  0  0
   -2.1338    3.2827   -1.1663 H   0  0  0  0  0  0  0  0  0  0  0  0
   -3.6699    2.7667   -0.3847 H   0  0  0  0  0  0  0  0  0  0  0  0
   -2.6632    4.0789    0.3758 H   0  0  0  0  0  0  0  0  0  0  0  0
  1  5  1  0  0  0  0
  1 13  2  0  0  0  0
  2  4  1  0  0  0  0
  2  1  1  0  0  0  0
  3 20  1  0  0  0  0
  3  2  1  0  0  0  0
  4 21  1  0  0  0  0
  4 23  1  0  0  0  0
  5  6  1  6  0  0  0
  5 10  1  0  0  0  0
  6  8  1  0  0  0  0
  7  6  2  0  0  0  0
  9 26  1  0  0  0  0
  9  8  1  0  0  0  0
 10 14  1  0  0  0  0
 10 11  1  0  0  0  0
 11 15  1  0  0  0  0
 12 16  1  0  0  0  0
 12 11  1  0  0  0  0
 13 12  1  0  0  0  0
 17 13  1  0  0  0  0
 18  3  1  0  0  0  0
 19  3  1  0  0  0  0
 22  4  1  0  0  0  0
 24  9  1  0  0  0  0
 25  9  1  0  0  0  0
M  END
