8,11
 OpenBabel05122313053D

 28 30  0  0  1  0  0  0  0  0999 V2000
    2.6195    0.1227   -0.1398 Si  0  0  0  0  0  0  0  0  0  0  0  0
    0.5113    2.0699   -0.8240 C   0  0  0  0  0  3  0  0  0  0  0  0
    0.7968    2.8220   -0.0762 H   0  0  0  0  0  0  0  0  0  0  0  0
   -0.6836    2.0773   -1.6065 C   0  0  0  0  0  0  0  0  0  0  0  0
   -1.4803    2.8296   -1.5664 H   0  0  0  0  0  0  0  0  0  0  0  0
   -0.6662    0.9378   -2.4494 C   0  0  0  0  0  0  0  0  0  0  0  0
   -1.4442    0.6545   -3.1679 H   0  0  0  0  0  0  0  0  0  0  0  0
    0.5309    0.2136   -2.1809 C   0  0  0  0  0  3  0  0  0  0  0  0
    0.8240   -0.7327   -2.6563 H   0  0  0  0  0  0  0  0  0  0  0  0
    1.2925    0.9253   -1.1941 C   0  0  2  0  0  3  0  0  0  0  0  0
    0.7095   -0.0699    2.0657 C   0  0  0  0  0  3  0  0  0  0  0  0
    0.9705    0.9051    2.5002 H   0  0  0  0  0  0  0  0  0  0  0  0
   -0.4083   -0.8698    2.4410 C   0  0  0  0  0  0  0  0  0  0  0  0
   -1.1476   -0.6255    3.2130 H   0  0  0  0  0  0  0  0  0  0  0  0
   -0.4092   -2.0264    1.6216 C   0  0  0  0  0  0  0  0  0  0  0  0
   -1.1508   -2.8333    1.6571 H   0  0  0  0  0  0  0  0  0  0  0  0
    0.7200   -1.9528    0.7484 C   0  0  0  0  0  3  0  0  0  0  0  0
    1.0010   -2.6990   -0.0070 H   0  0  0  0  0  0  0  0  0  0  0  0
    1.4433   -0.7492    1.0356 C   0  0  1  0  0  3  0  0  0  0  0  0
    4.0660   -0.8944   -0.8331 C   0  0  0  0  0  0  0  0  0  0  0  0
    4.0405   -2.0007   -0.8587 H   0  0  0  0  0  0  0  0  0  0  0  0
    4.3706   -0.5250   -1.8344 H   0  0  0  0  0  0  0  0  0  0  0  0
    4.9264   -0.2445    0.3020 C   0  0  0  0  0  0  0  0  0  0  0  0
    4.9431   -0.9141    1.1868 H   0  0  0  0  0  0  0  0  0  0  0  0
    5.9838   -0.0492    0.0238 H   0  0  0  0  0  0  0  0  0  0  0  0
    4.0938    1.0400    0.6301 C   0  0  0  0  0  0  0  0  0  0  0  0
    4.4051    1.8968   -0.0030 H   0  0  0  0  0  0  0  0  0  0  0  0
    4.0888    1.3664    1.6876 H   0  0  0  0  0  0  0  0  0  0  0  0
  1 26  1  0  0  0  0
  2  3  1  0  0  0  0
  4  5  1  0  0  0  0
  4  2  1  0  0  0  0
  6  8  1  0  0  0  0
  6  4  2  0  0  0  0
  7  6  1  0  0  0  0
  9  8  1  0  0  0  0
 10  8  1  1  0  0  0
 10  2  1  0  0  0  0
 10  1  1  0  0  0  0
 11 13  1  0  0  0  0
 11 12  1  0  0  0  0
 13 14  1  0  0  0  0
 15 16  1  0  0  0  0
 15 13  2  0  0  0  0
 17 19  1  0  0  0  0
 17 15  1  0  0  0  0
 18 17  1  0  0  0  0
 19  1  1  6  0  0  0
 19 11  1  0  0  0  0
 20  1  1  0  0  0  0
 20 23  1  0  0  0  0
 21 20  1  0  0  0  0
 22 20  1  0  0  0  0
 23 26  1  0  0  0  0
 23 24  1  0  0  0  0
 25 23  1  0  0  0  0
 26 28  1  0  0  0  0
 27 26  1  0  0  0  0
M  END
