3,31
 OpenBabel05122313053D

 45 45  0  0  0  0  0  0  0  0999 V2000
   -3.4319   -0.4802    0.0979 Si  0  0  0  0  0  0  0  0  0  0  0  0
   -1.9142    2.9536   -0.1056 Si  0  0  0  0  0  0  0  0  0  0  0  0
   -1.6118   -0.0047    0.0212 C   0  0  0  0  0  3  0  0  0  0  0  0
   -4.4822    0.5507    1.3099 C   0  0  0  0  0  0  0  0  0  0  0  0
   -4.5703    1.6212    1.0495 H   0  0  0  0  0  0  0  0  0  0  0  0
   -4.0575    0.4863    2.3333 H   0  0  0  0  0  0  0  0  0  0  0  0
   -5.5069    0.1245    1.3476 H   0  0  0  0  0  0  0  0  0  0  0  0
   -4.2134   -0.4279   -1.6394 C   0  0  0  0  0  0  0  0  0  0  0  0
   -4.0654    0.5500   -2.1346 H   0  0  0  0  0  0  0  0  0  0  0  0
   -5.3050   -0.6191   -1.5716 H   0  0  0  0  0  0  0  0  0  0  0  0
   -3.7796   -1.2046   -2.3010 H   0  0  0  0  0  0  0  0  0  0  0  0
   -3.7083   -2.2556    0.7344 C   0  0  0  0  0  0  0  0  0  0  0  0
   -4.7863   -2.4946    0.6170 H   0  0  0  0  0  0  0  0  0  0  0  0
   -3.4696   -2.3520    1.8126 H   0  0  0  0  0  0  0  0  0  0  0  0
   -3.1341   -3.0268    0.1864 H   0  0  0  0  0  0  0  0  0  0  0  0
   -1.0242    1.2455   -0.1164 C   0  0  0  0  0  0  0  0  0  0  0  0
   -2.2805    3.4442    1.6916 C   0  0  0  0  0  0  0  0  0  0  0  0
   -2.7761    4.4363    1.7411 H   0  0  0  0  0  0  0  0  0  0  0  0
   -1.3283    3.5110    2.2574 H   0  0  0  0  0  0  0  0  0  0  0  0
   -2.9266    2.7079    2.2067 H   0  0  0  0  0  0  0  0  0  0  0  0
   -3.4778    3.0604   -1.1772 C   0  0  0  0  0  0  0  0  0  0  0  0
   -3.8525    4.1050   -1.1440 H   0  0  0  0  0  0  0  0  0  0  0  0
   -4.3048    2.3983   -0.8637 H   0  0  0  0  0  0  0  0  0  0  0  0
   -3.2343    2.8274   -2.2343 H   0  0  0  0  0  0  0  0  0  0  0  0
   -0.7632    4.2932   -0.8156 C   0  0  0  0  0  0  0  0  0  0  0  0
   -1.3284    5.2452   -0.9012 H   0  0  0  0  0  0  0  0  0  0  0  0
   -0.3936    4.0287   -1.8275 H   0  0  0  0  0  0  0  0  0  0  0  0
    0.1171    4.4885   -0.1705 H   0  0  0  0  0  0  0  0  0  0  0  0
    0.4410    1.3882   -0.2079 C   0  0  0  0  0  0  0  0  0  0  0  0
    0.8287    2.4196   -0.3180 H   0  0  0  0  0  0  0  0  0  0  0  0
    1.3478    0.3563   -0.1519 C   0  0  0  0  0  3  0  0  0  0  0  0
    2.7963    0.5814   -0.1122 C   0  0  0  0  0  0  0  0  0  0  0  0
    3.7153   -0.4424   -0.4533 C   0  0  0  0  0  0  0  0  0  0  0  0
    3.3258   -1.4227   -0.7591 H   0  0  0  0  0  0  0  0  0  0  0  0
    5.1007   -0.2369   -0.4107 C   0  0  0  0  0  0  0  0  0  0  0  0
    5.7786   -1.0593   -0.6911 H   0  0  0  0  0  0  0  0  0  0  0  0
    5.6460    0.9977   -0.0103 C   0  0  0  0  0  0  0  0  0  0  0  0
    4.7394    2.0191    0.3526 C   0  0  0  0  0  0  0  0  0  0  0  0
    5.1322    2.9922    0.6903 H   0  0  0  0  0  0  0  0  0  0  0  0
    3.3584    1.8188    0.3071 C   0  0  0  0  0  0  0  0  0  0  0  0
    2.6878    2.6319    0.6236 H   0  0  0  0  0  0  0  0  0  0  0  0
    7.1344    1.2287    0.0428 C   0  0  0  0  0  0  0  0  0  0  0  0
    7.7001    0.3146   -0.2225 H   0  0  0  0  0  0  0  0  0  0  0  0
    7.4601    1.5483    1.0550 H   0  0  0  0  0  0  0  0  0  0  0  0
    7.4437    2.0325   -0.6587 H   0  0  0  0  0  0  0  0  0  0  0  0
  1 12  1  0  0  0  0
  1  4  1  0  0  0  0
  2 17  1  0  0  0  0
  3  1  1  0  0  0  0
  4  7  1  0  0  0  0
  4  6  1  0  0  0  0
  5  4  1  0  0  0  0
  8 10  1  0  0  0  0
  8  1  1  0  0  0  0
  9  8  1  0  0  0  0
 11  8  1  0  0  0  0
 12 14  1  0  0  0  0
 13 12  1  0  0  0  0
 15 12  1  0  0  0  0
 16  2  1  0  0  0  0
 16  3  2  0  0  0  0
 17 18  1  0  0  0  0
 17 20  1  0  0  0  0
 17 19  1  0  0  0  0
 21 22  1  0  0  0  0
 21 23  1  0  0  0  0
 21  2  1  0  0  0  0
 24 21  1  0  0  0  0
 25 28  1  0  0  0  0
 25  2  1  0  0  0  0
 26 25  1  0  0  0  0
 27 25  1  0  0  0  0
 29 31  2  0  0  0  0
 29 16  1  0  0  0  0
 30 29  1  0  0  0  0
 31 32  1  0  0  0  0
 32 40  1  0  0  0  0
 33 35  1  0  0  0  0
 33 32  2  0  0  0  0
 34 33  1  0  0  0  0
 35 37  2  0  0  0  0
 36 35  1  0  0  0  0
 37 42  1  0  0  0  0
 37 38  1  0  0  0  0
 38 39  1  0  0  0  0
 40 38  2  0  0  0  0
 40 41  1  0  0  0  0
 42 44  1  0  0  0  0
 43 42  1  0  0  0  0
 45 42  1  0  0  0  0
M  END
