2,5
 OpenBabel05122313053D

  9  9  0  0  0  0  0  0  0  0999 V2000
    1.9194   -0.4176    0.0015 Se  0  0  0  0  0  0  0  0  0  0  0  0
    1.0719    0.7122    1.2877 C   0  0  0  0  0  3  0  0  0  0  0  0
    0.4711    1.8465    0.7138 C   0  0  0  0  0  0  0  0  0  0  0  0
    0.4712    1.8420   -0.7238 C   0  0  0  0  0  0  0  0  0  0  0  0
    1.0727    0.7051   -1.2916 C   0  0  0  0  0  3  0  0  0  0  0  0
    1.1977    0.5054    2.3599 H   0  0  0  0  0  0  0  0  0  0  0  0
    0.0012    2.6347    1.3200 H   0  0  0  0  0  0  0  0  0  0  0  0
    0.0011    2.6267   -1.3346 H   0  0  0  0  0  0  0  0  0  0  0  0
    1.1991    0.4926   -2.3625 H   0  0  0  0  0  0  0  0  0  0  0  0
  1  2  1  0  0  0  0
  2  6  1  0  0  0  0
  3  2  1  0  0  0  0
  3  7  1  0  0  0  0
  4  3  2  0  0  0  0
  5  4  1  0  0  0  0
  5  1  1  0  0  0  0
  8  4  1  0  0  0  0
  9  5  1  0  0  0  0
M  END
