10,12
 OpenBabel05122313053D

 24 25  0  0  0  0  0  0  0  0999 V2000
   -1.0307    2.2936   -0.0000 N   0  0  0  0  0  0  0  0  0  0  0  0
   -4.4120   -2.0880   -0.0001 O   0  0  0  0  0  0  0  0  0  0  0  0
    2.4200    3.1918   -0.0000 C   0  0  0  0  0  0  0  0  0  0  0  0
    2.8524    2.1729   -0.0000 H   0  0  0  0  0  0  0  0  0  0  0  0
    2.7562    3.7383    0.9031 H   0  0  0  0  0  0  0  0  0  0  0  0
    2.7561    3.7384   -0.9031 H   0  0  0  0  0  0  0  0  0  0  0  0
   -1.1926    3.6393   -0.0001 N   0  0  0  0  0  0  0  0  0  0  0  0
   -2.2693   -1.1192   -0.0000 C   0  0  0  0  0  0  0  0  0  0  0  0
   -1.8680   -2.1430    0.0000 H   0  0  0  0  0  0  0  0  0  0  0  0
   -1.4120   -0.0159   -0.0000 C   0  0  0  0  0  3  0  0  0  0  0  0
    0.9700    3.0640    0.0000 N   0  0  0  0  0  0  0  0  0  0  0  0
    0.2737    1.8807    0.0000 C   0  0  0  0  0  2  0  0  0  0  0  0
   -3.6746   -0.9390   -0.0001 C   0  0  0  0  0  0  0  0  0  0  0  0
   -2.0125    1.2746   -0.0001 C   0  0  0  0  0  0  0  0  0  0  0  0
   -3.3896    1.4803   -0.0001 C   0  0  0  0  0  0  0  0  0  0  0  0
   -3.7974    2.5013   -0.0002 H   0  0  0  0  0  0  0  0  0  0  0  0
   -4.2362    0.3565   -0.0001 C   0  0  0  0  0  0  0  0  0  0  0  0
   -5.3234    0.5054   -0.0002 H   0  0  0  0  0  0  0  0  0  0  0  0
    0.0445    4.0928    0.0000 C   0  0  0  0  0  0  0  0  0  0  0  0
    0.3198    5.1536    0.0000 H   0  0  0  0  0  0  0  0  0  0  0  0
   -5.8199   -1.9829    0.0000 C   0  0  0  0  0  0  0  0  0  0  0  0
   -6.1998   -1.4532    0.9035 H   0  0  0  0  0  0  0  0  0  0  0  0
   -6.2134   -3.0168    0.0002 H   0  0  0  0  0  0  0  0  0  0  0  0
   -6.1999   -1.4533   -0.9035 H   0  0  0  0  0  0  0  0  0  0  0  0
  1 12  1  0  0  0  0
  2 13  1  0  0  0  0
  2 21  1  0  0  0  0
  3 11  1  0  0  0  0
  3  5  1  0  0  0  0
  4  3  1  0  0  0  0
  6  3  1  0  0  0  0
  7  1  1  0  0  0  0
  7 19  2  0  0  0  0
  8 10  1  0  0  0  0
  8  9  1  0  0  0  0
 11 19  1  0  0  0  0
 12 11  1  0  0  0  0
 13  8  2  0  0  0  0
 14  1  1  0  0  0  0
 14 10  2  0  0  0  0
 15 14  1  0  0  0  0
 16 15  1  0  0  0  0
 17 15  2  0  0  0  0
 17 13  1  0  0  0  0
 18 17  1  0  0  0  0
 19 20  1  0  0  0  0
 21 23  1  0  0  0  0
 21 22  1  0  0  0  0
 24 21  1  0  0  0  0
M  END
