23,34
 OpenBabel05122313053D

 38 40  0  0  0  0  0  0  0  0999 V2000
   -0.3458    2.3511   -0.4521 N   0  0  0  0  0  0  0  0  0  0  0  0
    1.7613    1.9427   -0.7457 N   0  0  0  0  0  0  0  0  0  0  0  0
    2.5186   -0.9846   -0.7757 N   0  0  0  0  0  0  0  0  0  0  0  0
    0.7781   -2.1871   -1.2391 N   0  0  0  0  0  0  0  0  0  0  0  0
   -2.4694    1.0355   -0.5104 C   0  0  0  0  0  0  0  0  0  0  0  0
   -2.7285    0.8737   -1.8857 C   0  0  0  0  0  0  0  0  0  0  0  0
   -2.3809    1.6367   -2.6016 H   0  0  0  0  0  0  0  0  0  0  0  0
   -3.4322   -0.2477   -2.3503 C   0  0  0  0  0  0  0  0  0  0  0  0
   -3.6373   -0.3608   -3.4260 H   0  0  0  0  0  0  0  0  0  0  0  0
   -3.8861   -1.2181   -1.4393 C   0  0  0  0  0  0  0  0  0  0  0  0
   -4.4440   -2.0952   -1.8021 H   0  0  0  0  0  0  0  0  0  0  0  0
   -3.6207   -1.0682   -0.0692 C   0  0  0  0  0  0  0  0  0  0  0  0
   -3.9526   -1.8327    0.6491 H   0  0  0  0  0  0  0  0  0  0  0  0
   -2.9114    0.0506    0.3951 C   0  0  0  0  0  0  0  0  0  0  0  0
   -2.6753    0.1642    1.4646 H   0  0  0  0  0  0  0  0  0  0  0  0
   -1.7401    2.2566    0.0102 C   0  0  0  0  0  0  0  0  0  0  0  0
   -2.2417    3.1863   -0.3238 H   0  0  0  0  0  0  0  0  0  0  0  0
   -1.6998    2.2329    1.1196 H   0  0  0  0  0  0  0  0  0  0  0  0
    0.1308    3.3292   -1.3093 C   0  0  0  0  0  0  0  0  0  0  0  0
   -0.5115    4.1213   -1.7049 H   0  0  0  0  0  0  0  0  0  0  0  0
    1.4619    3.0774   -1.4977 C   0  0  0  0  0  0  0  0  0  0  0  0
    2.2182    3.6058   -2.0854 H   0  0  0  0  0  0  0  0  0  0  0  0
    0.6465    1.4825   -0.0838 C   0  0  0  0  0  2  0  0  0  0  0  0
    3.1346    1.4307   -0.6987 C   0  0  0  0  0  0  0  0  0  0  0  0
    3.7582    2.1324   -0.1038 H   0  0  0  0  0  0  0  0  0  0  0  0
    3.5195    1.4476   -1.7397 H   0  0  0  0  0  0  0  0  0  0  0  0
    3.3156    0.0341   -0.1105 C   0  0  0  0  0  0  0  0  0  0  0  0
    4.3872   -0.2360   -0.1882 H   0  0  0  0  0  0  0  0  0  0  0  0
    3.0274    0.0216    0.9601 H   0  0  0  0  0  0  0  0  0  0  0  0
    2.8959   -1.8290   -1.8133 C   0  0  0  0  0  0  0  0  0  0  0  0
    3.9051   -1.8388   -2.2351 H   0  0  0  0  0  0  0  0  0  0  0  0
    1.7910   -2.5903   -2.1016 C   0  0  0  0  0  0  0  0  0  0  0  0
    1.6486   -3.3932   -2.8308 H   0  0  0  0  0  0  0  0  0  0  0  0
    1.2159   -1.1973   -0.4154 C   0  0  0  0  0  2  0  0  0  0  0  0
   -0.5727   -2.7355   -1.1860 C   0  0  0  0  0  0  0  0  0  0  0  0
   -1.2876   -2.0529   -1.6848 H   0  0  0  0  0  0  0  0  0  0  0  0
   -0.8459   -2.8396   -0.1156 H   0  0  0  0  0  0  0  0  0  0  0  0
   -0.5812   -3.7214   -1.6854 H   0  0  0  0  0  0  0  0  0  0  0  0
  1 23  1  0  0  0  0
  1 16  1  0  0  0  0
  2 24  1  0  0  0  0
  2 23  1  0  0  0  0
  3 34  1  0  0  0  0
  3 27  1  0  0  0  0
  4 35  1  0  0  0  0
  4 34  1  0  0  0  0
  5 16  1  0  0  0  0
  5 14  1  0  0  0  0
  6  5  2  0  0  0  0
  7  6  1  0  0  0  0
  8  6  1  0  0  0  0
  8 10  2  0  0  0  0
  9  8  1  0  0  0  0
 10 12  1  0  0  0  0
 11 10  1  0  0  0  0
 12 14  2  0  0  0  0
 12 13  1  0  0  0  0
 14 15  1  0  0  0  0
 16 18  1  0  0  0  0
 17 16  1  0  0  0  0
 19  1  1  0  0  0  0
 20 19  1  0  0  0  0
 21 19  2  0  0  0  0
 21  2  1  0  0  0  0
 22 21  1  0  0  0  0
 24 27  1  0  0  0  0
 24 25  1  0  0  0  0
 26 24  1  0  0  0  0
 27 29  1  0  0  0  0
 28 27  1  0  0  0  0
 30  3  1  0  0  0  0
 31 30  1  0  0  0  0
 32 30  2  0  0  0  0
 32  4  1  0  0  0  0
 33 32  1  0  0  0  0
 35 37  1  0  0  0  0
 36 35  1  0  0  0  0
 38 35  1  0  0  0  0
M  END
