3,9
 OpenBabel05122313053D

 44 46  0  0  1  0  0  0  0  0999 V2000
    1.7780    1.7609    1.3856 Si  0  0  0  0  0  0  0  0  0  0  0  0
    0.3602    2.1517    0.5269 O   0  0  0  0  0  0  0  0  0  0  0  0
    3.4086   -1.4371   -1.0088 C   0  0  0  0  0  3  0  0  0  0  0  0
    4.1949   -2.2049   -1.0271 H   0  0  0  0  0  0  0  0  0  0  0  0
    3.2946   -0.5635    0.1189 C   0  0  0  0  0  3  0  0  0  0  0  0
    3.9991   -0.6664    0.9565 H   0  0  0  0  0  0  0  0  0  0  0  0
    2.2405    0.3847    0.1725 C   0  0  0  0  0  0  0  0  0  0  0  0
    1.2957    0.4650   -0.9097 C   0  0  0  0  0  0  0  0  0  0  0  0
    1.4109   -0.4114   -2.0182 C   0  0  0  0  0  3  0  0  0  0  0  0
    0.6653   -0.3911   -2.8262 H   0  0  0  0  0  0  0  0  0  0  0  0
    2.4903   -1.3494   -2.0834 C   0  0  0  0  0  3  0  0  0  0  0  0
    2.5618   -2.0454   -2.9297 H   0  0  0  0  0  0  0  0  0  0  0  0
    0.1832    1.5172   -0.7362 C   0  0  1  0  0  0  0  0  0  0  0  0
   -1.1682    0.8373   -0.7986 C   0  0  0  0  0  0  0  0  0  0  0  0
   -1.3579    0.2448   -1.7090 H   0  0  0  0  0  0  0  0  0  0  0  0
   -2.0992    0.9162    0.1757 C   0  0  0  0  0  0  0  0  0  0  0  0
   -1.8651    1.5589    1.0403 H   0  0  0  0  0  0  0  0  0  0  0  0
   -3.3945    0.2255    0.1995 C   0  0  0  0  0  0  0  0  0  0  0  0
   -4.4015    0.6783    1.0839 C   0  0  0  0  0  0  0  0  0  0  0  0
   -4.1873    1.5375    1.7388 H   0  0  0  0  0  0  0  0  0  0  0  0
   -5.6571    0.0583    1.1305 C   0  0  0  0  0  0  0  0  0  0  0  0
   -6.4266    0.4316    1.8236 H   0  0  0  0  0  0  0  0  0  0  0  0
   -5.9304   -1.0402    0.3004 C   0  0  0  0  0  0  0  0  0  0  0  0
   -6.9129   -1.5345    0.3398 H   0  0  0  0  0  0  0  0  0  0  0  0
   -4.9334   -1.5157   -0.5693 C   0  0  0  0  0  0  0  0  0  0  0  0
   -5.1303   -2.3917   -1.2061 H   0  0  0  0  0  0  0  0  0  0  0  0
   -3.6804   -0.8944   -0.6187 C   0  0  0  0  0  0  0  0  0  0  0  0
   -2.8999   -1.3077   -1.2748 H   0  0  0  0  0  0  0  0  0  0  0  0
    0.3324    2.5921   -1.8585 C   0  0  0  0  0  0  0  0  0  0  0  0
    1.3892    2.9322   -1.8816 H   0  0  0  0  0  0  0  0  0  0  0  0
    0.1306    2.0926   -2.8326 H   0  0  0  0  0  0  0  0  0  0  0  0
   -0.5902    3.7593   -1.6763 C   0  0  0  0  0  0  0  0  0  0  0  0
   -1.6673    3.5182   -1.6314 H   0  0  0  0  0  0  0  0  0  0  0  0
   -0.1904    5.0354   -1.5506 C   0  0  0  0  0  0  0  0  0  0  0  0
    0.8787    5.3069   -1.5743 H   0  0  0  0  0  0  0  0  0  0  0  0
   -0.9127    5.8559   -1.4194 H   0  0  0  0  0  0  0  0  0  0  0  0
    1.4083    1.2980    3.1588 C   0  0  0  0  0  0  0  0  0  0  0  0
    1.0947    2.1984    3.7257 H   0  0  0  0  0  0  0  0  0  0  0  0
    2.3168    0.8922    3.6501 H   0  0  0  0  0  0  0  0  0  0  0  0
    0.6048    0.5405    3.2202 H   0  0  0  0  0  0  0  0  0  0  0  0
    3.0266    3.1645    1.2979 C   0  0  0  0  0  0  0  0  0  0  0  0
    3.2588    3.4271    0.2467 H   0  0  0  0  0  0  0  0  0  0  0  0
    3.9742    2.8924    1.8073 H   0  0  0  0  0  0  0  0  0  0  0  0
    2.6215    4.0689    1.7968 H   0  0  0  0  0  0  0  0  0  0  0  0
  1 37  1  0  0  0  0
  2  1  1  0  0  0  0
  3  5  1  0  0  0  0
  4  3  1  0  0  0  0
  5  7  1  0  0  0  0
  5  6  1  0  0  0  0
  7  1  1  0  0  0  0
  8 13  1  0  0  0  0
  8  7  2  0  0  0  0
  9  8  1  0  0  0  0
 10  9  1  0  0  0  0
 11  9  1  0  0  0  0
 11  3  1  0  0  0  0
 12 11  1  0  0  0  0
 13 14  1  6  0  0  0
 13  2  1  0  0  0  0
 14 16  2  0  0  0  0
 15 14  1  0  0  0  0
 16 18  1  0  0  0  0
 16 17  1  0  0  0  0
 18 19  1  0  0  0  0
 19 21  2  0  0  0  0
 19 20  1  0  0  0  0
 21 22  1  0  0  0  0
 23 24  1  0  0  0  0
 23 21  1  0  0  0  0
 25 23  2  0  0  0  0
 26 25  1  0  0  0  0
 27 25  1  0  0  0  0
 27 18  2  0  0  0  0
 28 27  1  0  0  0  0
 29 32  1  0  0  0  0
 29 13  1  0  0  0  0
 30 29  1  0  0  0  0
 31 29  1  0  0  0  0
 32 33  1  0  0  0  0
 32 34  2  0  0  0  0
 34 36  1  0  0  0  0
 35 34  1  0  0  0  0
 37 40  1  0  0  0  0
 37 39  1  0  0  0  0
 37 38  1  0  0  0  0
 41  1  1  0  0  0  0
 41 44  1  0  0  0  0
 41 43  1  0  0  0  0
 42 41  1  0  0  0  0
M  END
