13,16
 OpenBabel05122313053D

 55 57  0  0  1  0  0  0  0  0999 V2000
   -3.8060    0.6901    0.7702 S   0  0  0  0  0  0  0  0  0  0  0  0
    2.5286    2.6760   -0.7851 C   0  0  0  0  0  0  0  0  0  0  0  0
    3.4122    2.7555   -1.4498 H   0  0  0  0  0  0  0  0  0  0  0  0
    2.9241    2.8290    0.2402 H   0  0  0  0  0  0  0  0  0  0  0  0
    1.4926    3.7570   -1.1093 C   0  0  0  0  0  0  0  0  0  0  0  0
    1.8321    4.7267   -0.6933 H   0  0  0  0  0  0  0  0  0  0  0  0
    1.4264    3.8973   -2.2105 H   0  0  0  0  0  0  0  0  0  0  0  0
    0.1034    3.3960   -0.5837 C   0  0  0  0  0  0  0  0  0  0  0  0
   -0.6038    4.2202   -0.7995 H   0  0  0  0  0  0  0  0  0  0  0  0
    0.1268    3.2689    0.5192 H   0  0  0  0  0  0  0  0  0  0  0  0
   -0.3871    2.1041   -1.2558 C   0  0  1  0  0  0  0  0  0  0  0  0
   -0.3129    2.2854   -2.3558 H   0  0  0  0  0  0  0  0  0  0  0  0
    0.1902   -0.4069   -1.0188 C   0  0  0  0  0  3  0  0  0  0  0  0
   -0.8787   -0.6575   -1.0637 H   0  0  0  0  0  0  0  0  0  0  0  0
    1.1177   -1.4957   -0.9716 C   0  0  1  0  0  3  0  0  0  0  0  0
    2.5021   -1.1797   -0.8696 C   0  0  1  0  0  3  0  0  0  0  0  0
    2.9424    0.1913   -0.8127 C   0  0  0  0  0  0  0  0  0  0  0  0
    1.9964    1.2577   -0.8709 C   0  0  0  0  0  0  0  0  0  0  0  0
    0.5921    0.9581   -1.0139 C   0  0  1  0  0  3  0  0  0  0  0  0
   -1.8903    1.7906   -1.0312 C   0  0  1  0  0  0  0  0  0  0  0  0
   -2.0968    0.8481   -1.5830 H   0  0  0  0  0  0  0  0  0  0  0  0
   -2.2180    1.5429    0.4457 C   0  0  0  0  0  0  0  0  0  0  0  0
   -2.3356    2.4820    1.0256 H   0  0  0  0  0  0  0  0  0  0  0  0
   -1.4532    0.9218    0.9539 H   0  0  0  0  0  0  0  0  0  0  0  0
   -2.7788    2.8756   -1.6568 C   0  0  0  0  0  0  0  0  0  0  0  0
   -3.8456    2.6016   -1.5671 H   0  0  0  0  0  0  0  0  0  0  0  0
   -2.5293    3.0191   -2.7278 H   0  0  0  0  0  0  0  0  0  0  0  0
   -2.6508    3.8505   -1.1444 H   0  0  0  0  0  0  0  0  0  0  0  0
    0.6537   -2.9243   -1.0210 C   0  0  0  0  0  0  0  0  0  0  0  0
    0.5567   -3.2676   -2.0735 H   0  0  0  0  0  0  0  0  0  0  0  0
   -0.3391   -3.0298   -0.5442 H   0  0  0  0  0  0  0  0  0  0  0  0
    1.3749   -3.5880   -0.5108 H   0  0  0  0  0  0  0  0  0  0  0  0
    5.0690    0.1397    0.3091 C   0  0  0  0  0  0  0  0  0  0  0  0
    4.6847    0.6288    1.2286 H   0  0  0  0  0  0  0  0  0  0  0  0
    6.0908    0.5024    0.0917 H   0  0  0  0  0  0  0  0  0  0  0  0
    5.0792   -0.9576    0.4633 H   0  0  0  0  0  0  0  0  0  0  0  0
    4.1656   -2.3807   -2.0110 C   0  0  0  0  0  0  0  0  0  0  0  0
    3.4953   -2.6775   -2.8477 H   0  0  0  0  0  0  0  0  0  0  0  0
    4.8824   -3.1993   -1.8143 H   0  0  0  0  0  0  0  0  0  0  0  0
    4.7202   -1.4615   -2.2954 H   0  0  0  0  0  0  0  0  0  0  0  0
   -3.6045   -0.9357   -0.0104 C   0  0  0  0  0  0  0  0  0  0  0  0
   -3.1581   -2.0061    0.7764 C   0  0  0  0  0  0  0  0  0  0  0  0
   -2.9277   -1.8388    1.8370 H   0  0  0  0  0  0  0  0  0  0  0  0
   -3.0109   -3.2673    0.1780 C   0  0  0  0  0  0  0  0  0  0  0  0
   -2.6624   -4.1176    0.7834 H   0  0  0  0  0  0  0  0  0  0  0  0
   -3.3129   -3.4432   -1.1830 C   0  0  0  0  0  0  0  0  0  0  0  0
   -3.1946   -4.4343   -1.6470 H   0  0  0  0  0  0  0  0  0  0  0  0
   -3.7811   -2.3636   -1.9519 C   0  0  0  0  0  0  0  0  0  0  0  0
   -4.0382   -2.5106   -3.0118 H   0  0  0  0  0  0  0  0  0  0  0  0
   -3.9416   -1.0997   -1.3638 C   0  0  0  0  0  0  0  0  0  0  0  0
   -4.3477   -0.2489   -1.9304 H   0  0  0  0  0  0  0  0  0  0  0  0
    4.2687    0.5147   -0.8178 O   0  0  0  0  0  0  0  0  0  0  0  0
    3.4253   -2.1901   -0.8012 O   0  0  0  0  0  0  0  0  0  0  0  0
   -3.8822    0.4874    2.2354 O   0  0  0  0  0  0  0  0  0  0  0  0
   -4.8932    1.3891    0.0350 O   0  0  0  0  0  0  0  0  0  0  0  0
  1 54  2  0  0  0  0
  2  4  1  0  0  0  0
  3  2  1  0  0  0  0
  5  2  1  0  0  0  0
  5  6  1  0  0  0  0
  5  8  1  0  0  0  0
  7  5  1  0  0  0  0
  8 10  1  0  0  0  0
  9  8  1  0  0  0  0
 11 12  1  6  0  0  0
 11 20  1  0  0  0  0
 11 19  1  0  0  0  0
 11  8  1  0  0  0  0
 13 15  1  0  0  0  0
 14 13  1  0  0  0  0
 15 29  1  1  0  0  0
 15 16  1  0  0  0  0
 16 17  1  0  0  0  0
 16 53  1  1  0  0  0
 18 17  2  0  0  0  0
 18  2  1  0  0  0  0
 19 13  1  6  0  0  0
 19 18  1  0  0  0  0
 20 21  1  6  0  0  0
 20 22  1  0  0  0  0
 22  1  1  0  0  0  0
 22 24  1  0  0  0  0
 22 23  1  0  0  0  0
 25 26  1  0  0  0  0
 25 28  1  0  0  0  0
 25 20  1  0  0  0  0
 27 25  1  0  0  0  0
 29 31  1  0  0  0  0
 29 32  1  0  0  0  0
 30 29  1  0  0  0  0
 33 36  1  0  0  0  0
 33 34  1  0  0  0  0
 35 33  1  0  0  0  0
 37 39  1  0  0  0  0
 37 53  1  0  0  0  0
 38 37  1  0  0  0  0
 40 37  1  0  0  0  0
 41  1  1  0  0  0  0
 41 42  1  0  0  0  0
 42 43  1  0  0  0  0
 44 42  2  0  0  0  0
 44 45  1  0  0  0  0
 46 44  1  0  0  0  0
 47 46  1  0  0  0  0
 48 50  1  0  0  0  0
 48 46  2  0  0  0  0
 49 48  1  0  0  0  0
 50 41  2  0  0  0  0
 51 50  1  0  0  0  0
 52 17  1  0  0  0  0
 52 33  1  0  0  0  0
 55  1  2  0  0  0  0
M  END
