11,15
 OpenBabel05122313053D

 50 51  0  0  1  0  0  0  0  0999 V2000
    0.5138    2.1603   -0.5202 C   0  0  2  0  0  0  0  0  0  0  0  0
    0.9725    2.0184   -1.5195 H   0  0  0  0  0  0  0  0  0  0  0  0
   -0.9398    2.6166   -0.6889 C   0  0  0  0  0  0  0  0  0  0  0  0
   -0.9342    3.6423   -1.1050 H   0  0  0  0  0  0  0  0  0  0  0  0
   -1.4335    1.9671   -1.4378 H   0  0  0  0  0  0  0  0  0  0  0  0
   -1.6873    2.5909    0.6455 C   0  0  0  0  0  0  0  0  0  0  0  0
   -1.1936    3.2983    1.3436 H   0  0  0  0  0  0  0  0  0  0  0  0
   -2.7168    2.9840    0.5211 H   0  0  0  0  0  0  0  0  0  0  0  0
   -1.7424    1.1913    1.2987 C   0  0  2  0  0  0  0  0  0  0  0  0
   -1.7541    1.3479    2.4004 H   0  0  0  0  0  0  0  0  0  0  0  0
   -0.3052   -0.8722    1.7260 C   0  0  0  0  0  3  0  0  0  0  0  0
   -1.1444   -1.2685    2.3172 H   0  0  0  0  0  0  0  0  0  0  0  0
    0.8967   -1.6322    1.6906 C   0  0  0  0  0  0  0  0  0  0  0  0
    1.9699   -1.1271    0.8897 C   0  0  0  0  0  0  0  0  0  0  0  0
    1.8249    0.0922    0.1500 C   0  0  1  0  0  3  0  0  0  0  0  0
    0.6038    0.8477    0.2306 C   0  0  0  0  0  0  0  0  0  0  0  0
   -0.4687    0.3819    1.0586 C   0  0  0  0  0  0  0  0  0  0  0  0
   -3.0701    0.4189    1.0209 C   0  0  2  0  0  0  0  0  0  0  0  0
   -2.9235   -0.6304    1.3522 H   0  0  0  0  0  0  0  0  0  0  0  0
   -3.4247    0.3548   -0.4837 C   0  0  0  0  0  0  0  0  0  0  0  0
   -3.6355    1.3717   -0.8777 H   0  0  0  0  0  0  0  0  0  0  0  0
   -2.5635   -0.0469   -1.0563 H   0  0  0  0  0  0  0  0  0  0  0  0
   -4.5933   -0.4793   -0.7530 C   0  0  0  0  0  0  0  0  0  0  0  0
   -4.2285    1.0030    1.8377 C   0  0  0  0  0  0  0  0  0  0  0  0
   -4.4227    2.0628    1.5711 H   0  0  0  0  0  0  0  0  0  0  0  0
   -4.0096    0.9638    2.9238 H   0  0  0  0  0  0  0  0  0  0  0  0
   -5.1635    0.4376    1.6560 H   0  0  0  0  0  0  0  0  0  0  0  0
    1.0485   -2.9238    2.4441 C   0  0  0  0  0  0  0  0  0  0  0  0
    0.0650   -3.4075    2.5956 H   0  0  0  0  0  0  0  0  0  0  0  0
    1.4995   -2.7462    3.4441 H   0  0  0  0  0  0  0  0  0  0  0  0
    1.7096   -3.6217    1.8987 H   0  0  0  0  0  0  0  0  0  0  0  0
    1.3746    3.2146    0.1991 C   0  0  0  0  0  0  0  0  0  0  0  0
    1.0227    3.3533    1.2540 H   0  0  0  0  0  0  0  0  0  0  0  0
    2.4293    2.8546    0.2523 H   0  0  0  0  0  0  0  0  0  0  0  0
    2.0451    5.4608    0.0604 C   0  0  0  0  0  0  0  0  0  0  0  0
    1.7048    5.7005    1.0983 H   0  0  0  0  0  0  0  0  0  0  0  0
    1.9192    6.3631   -0.5690 H   0  0  0  0  0  0  0  0  0  0  0  0
    3.1335    5.2112    0.1115 H   0  0  0  0  0  0  0  0  0  0  0  0
    3.3255   -0.1724   -1.7020 C   0  0  0  0  0  0  0  0  0  0  0  0
    3.7172   -1.1584   -1.3815 H   0  0  0  0  0  0  0  0  0  0  0  0
    4.1300    0.4244   -2.1701 H   0  0  0  0  0  0  0  0  0  0  0  0
    2.5009   -0.3327   -2.4276 H   0  0  0  0  0  0  0  0  0  0  0  0
    4.2382   -1.2407    1.5004 C   0  0  0  0  0  0  0  0  0  0  0  0
    4.4732   -0.2370    1.0874 H   0  0  0  0  0  0  0  0  0  0  0  0
    5.1026   -1.9140    1.3523 H   0  0  0  0  0  0  0  0  0  0  0  0
    4.0310   -1.1492    2.5892 H   0  0  0  0  0  0  0  0  0  0  0  0
   -5.5459   -1.1350   -0.9401 N   0  0  0  0  0  0  0  0  0  0  0  0
    1.2905    4.4251   -0.5185 O   0  0  0  0  0  0  0  0  0  0  0  0
    2.8546    0.6029   -0.5900 O   0  0  0  0  0  0  0  0  0  0  0  0
    3.1348   -1.8434    0.8165 O   0  0  0  0  0  0  0  0  0  0  0  0
  1  2  1  6  0  0  0
  1 32  1  0  0  0  0
  1 16  1  0  0  0  0
  3  1  1  0  0  0  0
  3  6  1  0  0  0  0
  4  3  1  0  0  0  0
  5  3  1  0  0  0  0
  6  9  1  0  0  0  0
  6  7  1  0  0  0  0
  8  6  1  0  0  0  0
  9 10  1  1  0  0  0
 11 12  1  0  0  0  0
 13 11  1  0  0  0  0
 13 28  1  0  0  0  0
 14 13  2  0  0  0  0
 15 49  1  1  0  0  0
 15 16  1  0  0  0  0
 15 14  1  0  0  0  0
 16 17  2  0  0  0  0
 17  9  1  0  0  0  0
 17 11  1  0  0  0  0
 18  9  1  0  0  0  0
 18 19  1  1  0  0  0
 18 24  1  0  0  0  0
 20 18  1  0  0  0  0
 21 20  1  0  0  0  0
 22 20  1  0  0  0  0
 23 20  1  0  0  0  0
 24 26  1  0  0  0  0
 25 24  1  0  0  0  0
 27 24  1  0  0  0  0
 28 29  1  0  0  0  0
 28 30  1  0  0  0  0
 31 28  1  0  0  0  0
 32 34  1  0  0  0  0
 32 33  1  0  0  0  0
 35 38  1  0  0  0  0
 35 36  1  0  0  0  0
 37 35  1  0  0  0  0
 39 40  1  0  0  0  0
 39 49  1  0  0  0  0
 41 39  1  0  0  0  0
 42 39  1  0  0  0  0
 43 46  1  0  0  0  0
 44 43  1  0  0  0  0
 45 43  1  0  0  0  0
 47 23  3  0  0  0  0
 48 35  1  0  0  0  0
 48 32  1  0  0  0  0
 50 14  1  0  0  0  0
 50 43  1  0  0  0  0
M  END
