1,6
 OpenBabel05122313053D

 31 33  0  0  1  0  0  0  0  0999 V2000
   -1.0753   -0.8851   -0.0015 C   0  0  1  0  0  3  0  0  0  0  0  0
   -0.4207   -1.4326   -1.1496 C   0  0  0  0  0  3  0  0  0  0  0  0
    0.5787   -2.3522   -0.7074 C   0  0  0  0  0  0  0  0  0  0  0  0
    0.5784   -2.3533    0.7026 C   0  0  0  0  0  0  0  0  0  0  0  0
   -0.4216   -1.4347    1.1459 C   0  0  0  0  0  3  0  0  0  0  0  0
   -0.7270    1.3819   -0.0018 C   0  0  1  0  0  3  0  0  0  0  0  0
    0.0595    1.7094    1.1469 C   0  0  0  0  0  3  0  0  0  0  0  0
    1.2888    2.2857    0.7024 C   0  0  0  0  0  0  0  0  0  0  0  0
    1.2888    2.2841   -0.7081 C   0  0  0  0  0  0  0  0  0  0  0  0
    0.0597    1.7066   -1.1513 C   0  0  0  0  0  3  0  0  0  0  0  0
   -1.8906    0.4092   -0.0009 C   0  0  0  0  0  0  0  0  0  0  0  0
   -2.8591    0.5177    1.1921 C   0  0  0  0  0  0  0  0  0  0  0  0
   -4.0661   -0.3502    0.7793 C   0  0  0  0  0  0  0  0  0  0  0  0
   -4.0663   -0.3516   -0.7780 C   0  0  0  0  0  0  0  0  0  0  0  0
   -2.8609    0.5174   -1.1925 C   0  0  0  0  0  0  0  0  0  0  0  0
   -0.6192   -1.1708   -2.1951 H   0  0  0  0  0  0  0  0  0  0  0  0
    1.2716   -2.8992   -1.3551 H   0  0  0  0  0  0  0  0  0  0  0  0
    1.2709   -2.9014    1.3499 H   0  0  0  0  0  0  0  0  0  0  0  0
   -0.6203   -1.1745    2.1918 H   0  0  0  0  0  0  0  0  0  0  0  0
   -0.2144    1.5211    2.1913 H   0  0  0  0  0  0  0  0  0  0  0  0
    2.1142    2.6018    1.3486 H   0  0  0  0  0  0  0  0  0  0  0  0
    2.1142    2.5989   -1.3550 H   0  0  0  0  0  0  0  0  0  0  0  0
   -0.2144    1.5163   -2.1952 H   0  0  0  0  0  0  0  0  0  0  0  0
   -2.4105    0.2091    2.1562 H   0  0  0  0  0  0  0  0  0  0  0  0
   -3.1506    1.5835    1.2985 H   0  0  0  0  0  0  0  0  0  0  0  0
   -5.0118    0.0369    1.2068 H   0  0  0  0  0  0  0  0  0  0  0  0
   -3.9436   -1.3821    1.1646 H   0  0  0  0  0  0  0  0  0  0  0  0
   -5.0128    0.0328   -1.2061 H   0  0  0  0  0  0  0  0  0  0  0  0
   -3.9418   -1.3840   -1.1614 H   0  0  0  0  0  0  0  0  0  0  0  0
   -3.1535    1.5830   -1.2981 H   0  0  0  0  0  0  0  0  0  0  0  0
   -2.4136    0.2094   -2.1574 H   0  0  0  0  0  0  0  0  0  0  0  0
  1 11  1  1  0  0  0
  1  5  1  0  0  0  0
  2  3  1  0  0  0  0
  2  1  1  0  0  0  0
  3  4  2  0  0  0  0
  4  5  1  0  0  0  0
  4 18  1  0  0  0  0
  5 19  1  0  0  0  0
  6 11  1  1  0  0  0
  6  7  1  0  0  0  0
  7 20  1  0  0  0  0
  8  7  1  0  0  0  0
  8 21  1  0  0  0  0
  9  8  2  0  0  0  0
 10  9  1  0  0  0  0
 10  6  1  0  0  0  0
 11 12  1  0  0  0  0
 12 25  1  0  0  0  0
 12 24  1  0  0  0  0
 13 27  1  0  0  0  0
 13 12  1  0  0  0  0
 13 26  1  0  0  0  0
 14 13  1  0  0  0  0
 15 14  1  0  0  0  0
 15 11  1  0  0  0  0
 16  2  1  0  0  0  0
 17  3  1  0  0  0  0
 22  9  1  0  0  0  0
 23 10  1  0  0  0  0
 28 14  1  0  0  0  0
 29 14  1  0  0  0  0
 30 15  1  0  0  0  0
 31 15  1  0  0  0  0
M  END
