3,10
 OpenBabel05122313053D

 40 41  0  0  1  0  0  0  0  0999 V2000
    2.1638    1.2049    0.9455 C   0  0  2  0  0  0  0  0  0  0  0  0
    0.6483    1.3873    1.1065 C   0  0  0  0  0  3  0  0  0  0  0  0
   -0.2852    2.1173    0.3212 C   0  0  0  0  0  3  0  0  0  0  0  0
   -0.0163    3.0099   -0.8741 C   0  0  0  0  0  0  0  0  0  0  0  0
    0.6226    4.3575   -0.4859 C   0  0  0  0  0  0  0  0  0  0  0  0
    1.8909    4.2427    0.3679 C   0  0  0  0  0  0  0  0  0  0  0  0
    3.0250    3.3786   -0.2065 C   0  0  0  0  0  0  0  0  0  0  0  0
    2.8057    1.8532   -0.2978 C   0  0  0  0  0  0  0  0  0  0  0  0
    2.3803   -0.3013    0.9871 C   0  0  0  0  0  0  0  0  0  0  0  0
    1.0964   -1.0643    1.0310 C   0  0  0  0  0  3  0  0  0  0  0  0
    0.6964   -1.9733    0.0184 C   0  0  0  0  0  3  0  0  0  0  0  0
    1.5032   -2.2986   -1.2212 C   0  0  0  0  0  0  0  0  0  0  0  0
    2.5081   -3.4547   -1.0247 C   0  0  0  0  0  0  0  0  0  0  0  0
    3.8628   -3.0878   -0.4042 C   0  0  0  0  0  0  0  0  0  0  0  0
    3.8060   -2.4116    0.9864 C   0  0  0  0  0  0  0  0  0  0  0  0
    3.5811   -0.9210    0.9527 C   0  0  0  0  0  0  0  0  0  0  0  0
    2.6542    1.6695    1.8353 H   0  0  0  0  0  0  0  0  0  0  0  0
    0.3340    1.2443    2.1577 H   0  0  0  0  0  0  0  0  0  0  0  0
   -1.1552    2.4698    0.9033 H   0  0  0  0  0  0  0  0  0  0  0  0
    0.6152    2.5079   -1.6269 H   0  0  0  0  0  0  0  0  0  0  0  0
   -0.9809    3.2037   -1.3892 H   0  0  0  0  0  0  0  0  0  0  0  0
    0.8531    4.9160   -1.4204 H   0  0  0  0  0  0  0  0  0  0  0  0
   -0.1192    4.9771    0.0656 H   0  0  0  0  0  0  0  0  0  0  0  0
    2.2893    5.2661    0.5385 H   0  0  0  0  0  0  0  0  0  0  0  0
    1.6210    3.8633    1.3775 H   0  0  0  0  0  0  0  0  0  0  0  0
    3.9201    3.5491    0.4317 H   0  0  0  0  0  0  0  0  0  0  0  0
    3.3028    3.7588   -1.2148 H   0  0  0  0  0  0  0  0  0  0  0  0
    3.8002    1.3834   -0.4412 H   0  0  0  0  0  0  0  0  0  0  0  0
    2.2239    1.5628   -1.1940 H   0  0  0  0  0  0  0  0  0  0  0  0
    0.6788   -1.2322    2.0435 H   0  0  0  0  0  0  0  0  0  0  0  0
    0.0442   -2.8032    0.3393 H   0  0  0  0  0  0  0  0  0  0  0  0
    2.0379   -1.3978   -1.5838 H   0  0  0  0  0  0  0  0  0  0  0  0
    0.7955   -2.5802   -2.0288 H   0  0  0  0  0  0  0  0  0  0  0  0
    2.7048   -3.9208   -2.0142 H   0  0  0  0  0  0  0  0  0  0  0  0
    2.0279   -4.2502   -0.4103 H   0  0  0  0  0  0  0  0  0  0  0  0
    4.4644   -4.0190   -0.3240 H   0  0  0  0  0  0  0  0  0  0  0  0
    4.4210   -2.4252   -1.1019 H   0  0  0  0  0  0  0  0  0  0  0  0
    4.7670   -2.6052    1.5079 H   0  0  0  0  0  0  0  0  0  0  0  0
    3.0169   -2.9052    1.5941 H   0  0  0  0  0  0  0  0  0  0  0  0
    4.4892   -0.2934    0.8865 H   0  0  0  0  0  0  0  0  0  0  0  0
  1  9  1  0  0  0  0
  1  2  1  0  0  0  0
  1 17  1  1  0  0  0
  2 18  1  0  0  0  0
  3 19  1  0  0  0  0
  3  2  1  0  0  0  0
  4  5  1  0  0  0  0
  4  3  1  0  0  0  0
  5 23  1  0  0  0  0
  5  6  1  0  0  0  0
  6 24  1  0  0  0  0
  6 25  1  0  0  0  0
  7  6  1  0  0  0  0
  7 26  1  0  0  0  0
  8  7  1  0  0  0  0
  8  1  1  0  0  0  0
  9 10  1  0  0  0  0
 10 30  1  0  0  0  0
 11 31  1  0  0  0  0
 11 10  1  0  0  0  0
 12 13  1  0  0  0  0
 12 11  1  0  0  0  0
 13 35  1  0  0  0  0
 13 14  1  0  0  0  0
 14 36  1  0  0  0  0
 14 15  1  0  0  0  0
 15 38  1  0  0  0  0
 15 39  1  0  0  0  0
 16 15  1  0  0  0  0
 16  9  2  0  0  0  0
 20  4  1  0  0  0  0
 21  4  1  0  0  0  0
 22  5  1  0  0  0  0
 27  7  1  0  0  0  0
 28  8  1  0  0  0  0
 29  8  1  0  0  0  0
 32 12  1  0  0  0  0
 33 12  1  0  0  0  0
 34 13  1  0  0  0  0
 37 14  1  0  0  0  0
 40 16  1  0  0  0  0
M  END
