5,10
 OpenBabel05122313053D

 22 22  0  0  0  0  0  0  0  0999 V2000
   -2.8970    0.3975    0.5371 F   0  0  0  0  0  0  0  0  0  0  0  0
   -1.2084    1.1547    1.7442 F   0  0  0  0  0  0  0  0  0  0  0  0
   -2.1595    1.8963   -1.5994 F   0  0  0  0  0  0  0  0  0  0  0  0
   -2.3003    3.1325    0.2173 F   0  0  0  0  0  0  0  0  0  0  0  0
   -1.5658    0.8269    0.4233 C   0  0  0  0  0  3  0  0  0  0  0  0
   -1.5626    2.1404   -0.3784 C   0  0  0  0  0  0  0  0  0  0  0  0
   -0.1093    2.5104   -0.5684 C   0  0  0  0  0  0  0  0  0  0  0  0
    0.2572    2.9172    0.3945 H   0  0  0  0  0  0  0  0  0  0  0  0
   -0.0230    3.3153   -1.3278 H   0  0  0  0  0  0  0  0  0  0  0  0
    0.6280    1.2236   -0.9580 C   0  0  0  0  0  3  0  0  0  0  0  0
    0.7168    1.1470   -2.0635 H   0  0  0  0  0  0  0  0  0  0  0  0
    1.9430    0.9809   -0.3031 C   0  0  0  0  0  0  0  0  0  0  0  0
    3.0747    0.5614   -1.0508 C   0  0  0  0  0  0  0  0  0  0  0  0
    2.9989    0.5230   -2.1508 H   0  0  0  0  0  0  0  0  0  0  0  0
    4.2865    0.2198   -0.4268 C   0  0  0  0  0  0  0  0  0  0  0  0
    5.1454   -0.0963   -1.0401 H   0  0  0  0  0  0  0  0  0  0  0  0
    4.4123    0.3037    0.9682 C   0  0  0  0  0  0  0  0  0  0  0  0
    5.3612    0.0422    1.4602 H   0  0  0  0  0  0  0  0  0  0  0  0
    3.3099    0.7409    1.7271 C   0  0  0  0  0  0  0  0  0  0  0  0
    3.3940    0.8155    2.8227 H   0  0  0  0  0  0  0  0  0  0  0  0
    2.0995    1.0710    1.1070 C   0  0  0  0  0  0  0  0  0  0  0  0
    1.2343    1.3715    1.7172 H   0  0  0  0  0  0  0  0  0  0  0  0
  3  6  1  0  0  0  0
  5  1  1  0  0  0  0
  5  2  1  0  0  0  0
  6  4  1  0  0  0  0
  6  5  1  0  0  0  0
  7  6  1  0  0  0  0
  7  8  1  0  0  0  0
  9  7  1  0  0  0  0
 10  7  1  0  0  0  0
 10 12  1  0  0  0  0
 11 10  1  0  0  0  0
 12 21  1  0  0  0  0
 13 15  1  0  0  0  0
 13 12  2  0  0  0  0
 14 13  1  0  0  0  0
 15 17  2  0  0  0  0
 16 15  1  0  0  0  0
 17 18  1  0  0  0  0
 17 19  1  0  0  0  0
 19 20  1  0  0  0  0
 21 22  1  0  0  0  0
 21 19  2  0  0  0  0
M  END
