5,10
 OpenBabel05122313053D

 28 29  0  0  0  0  0  0  0  0999 V2000
    0.3634   -2.0099   -2.0259 F   0  0  0  0  0  0  0  0  0  0  0  0
   -1.2139   -2.8429   -0.7077 F   0  0  0  0  0  0  0  0  0  0  0  0
    0.4975   -4.3110    0.6390 F   0  0  0  0  0  0  0  0  0  0  0  0
    1.0163   -4.5074   -1.4888 F   0  0  0  0  0  0  0  0  0  0  0  0
    0.1005   -2.3915   -0.7057 C   0  0  0  0  0  3  0  0  0  0  0  0
    1.0068   -3.6262   -0.4419 C   0  0  0  0  0  0  0  0  0  0  0  0
    2.3887   -3.0830   -0.1111 C   0  0  0  0  0  0  0  0  0  0  0  0
    2.7714   -2.6184   -1.0376 H   0  0  0  0  0  0  0  0  0  0  0  0
    3.0674   -3.9088    0.1889 H   0  0  0  0  0  0  0  0  0  0  0  0
    2.0962   -2.0794    0.9763 C   0  0  0  0  0  3  0  0  0  0  0  0
    1.7198   -2.5596    1.8995 H   0  0  0  0  0  0  0  0  0  0  0  0
    2.5139   -0.7088    1.1384 C   0  0  0  0  0  0  0  0  0  0  0  0
    1.6695    0.0312    2.0447 C   0  0  0  0  0  0  0  0  0  0  0  0
    1.0838   -0.5387    2.7885 H   0  0  0  0  0  0  0  0  0  0  0  0
    1.8908    1.4208    2.2982 C   0  0  0  0  0  0  0  0  0  0  0  0
    1.2833    1.9255    3.0653 H   0  0  0  0  0  0  0  0  0  0  0  0
    2.8565    2.1131    1.6067 C   0  0  0  0  0  0  0  0  0  0  0  0
    3.0300    3.1831    1.7957 H   0  0  0  0  0  0  0  0  0  0  0  0
    3.6844    1.4472    0.6380 C   0  0  0  0  0  0  0  0  0  0  0  0
    4.6775    2.1702   -0.0773 C   0  0  0  0  0  0  0  0  0  0  0  0
    4.7614    3.2545    0.0962 H   0  0  0  0  0  0  0  0  0  0  0  0
    5.5355    1.5324   -0.9667 C   0  0  0  0  0  0  0  0  0  0  0  0
    6.2966    2.1104   -1.5124 H   0  0  0  0  0  0  0  0  0  0  0  0
    5.4422    0.1346   -1.1471 C   0  0  0  0  0  0  0  0  0  0  0  0
    6.1406   -0.3823   -1.8221 H   0  0  0  0  0  0  0  0  0  0  0  0
    4.4706   -0.5966   -0.4664 C   0  0  0  0  0  0  0  0  0  0  0  0
    4.4341   -1.6840   -0.6005 H   0  0  0  0  0  0  0  0  0  0  0  0
    3.5450    0.0311    0.4070 C   0  0  0  0  0  0  0  0  0  0  0  0
  1  5  1  0  0  0  0
  2  5  1  0  0  0  0
  4  6  1  0  0  0  0
  5  6  1  0  0  0  0
  6  7  1  0  0  0  0
  6  3  1  0  0  0  0
  7  9  1  0  0  0  0
  7 10  1  0  0  0  0
  8  7  1  0  0  0  0
 10 12  1  0  0  0  0
 10 11  1  0  0  0  0
 12 13  1  0  0  0  0
 13 15  2  0  0  0  0
 13 14  1  0  0  0  0
 15 16  1  0  0  0  0
 17 18  1  0  0  0  0
 17 15  1  0  0  0  0
 19 17  2  0  0  0  0
 20 21  1  0  0  0  0
 20 19  1  0  0  0  0
 22 20  2  0  0  0  0
 23 22  1  0  0  0  0
 24 22  1  0  0  0  0
 24 26  2  0  0  0  0
 25 24  1  0  0  0  0
 26 28  1  0  0  0  0
 27 26  1  0  0  0  0
 28 19  1  0  0  0  0
 28 12  2  0  0  0  0
M  END
