5,10
 OpenBabel05122313053D

 28 29  0  0  0  0  0  0  0  0999 V2000
    1.3104   -2.7354    1.1087 F   0  0  0  0  0  0  0  0  0  0  0  0
    2.9054   -1.2654    0.6964 F   0  0  0  0  0  0  0  0  0  0  0  0
    3.2086   -2.2349   -1.8559 F   0  0  0  0  0  0  0  0  0  0  0  0
    3.4271   -3.7885   -0.3142 F   0  0  0  0  0  0  0  0  0  0  0  0
    1.8808   -1.9585    0.0819 C   0  0  0  0  0  3  0  0  0  0  0  0
    2.5132   -2.9607   -0.9092 C   0  0  0  0  0  0  0  0  0  0  0  0
    1.3710   -3.7168   -1.5766 C   0  0  0  0  0  0  0  0  0  0  0  0
    1.7641   -4.2984   -2.4342 H   0  0  0  0  0  0  0  0  0  0  0  0
    0.9554   -4.4221   -0.8328 H   0  0  0  0  0  0  0  0  0  0  0  0
    0.3966   -2.6410   -1.9804 C   0  0  0  0  0  3  0  0  0  0  0  0
    0.6354   -2.1299   -2.9311 H   0  0  0  0  0  0  0  0  0  0  0  0
   -0.9307   -2.4565   -1.4647 C   0  0  0  0  0  0  0  0  0  0  0  0
   -1.5624   -1.1938   -1.7585 C   0  0  0  0  0  0  0  0  0  0  0  0
   -1.2546   -0.6469   -2.6675 H   0  0  0  0  0  0  0  0  0  0  0  0
   -2.8582   -0.8732   -1.2093 C   0  0  0  0  0  0  0  0  0  0  0  0
   -3.5912    0.2747   -1.6074 C   0  0  0  0  0  0  0  0  0  0  0  0
   -3.1870    0.9111   -2.4092 H   0  0  0  0  0  0  0  0  0  0  0  0
   -4.8037    0.6048   -1.0009 C   0  0  0  0  0  0  0  0  0  0  0  0
   -5.3462    1.5078   -1.3207 H   0  0  0  0  0  0  0  0  0  0  0  0
   -5.3412   -0.2185    0.0141 C   0  0  0  0  0  0  0  0  0  0  0  0
   -6.2950    0.0474    0.4935 H   0  0  0  0  0  0  0  0  0  0  0  0
   -4.6677   -1.3820    0.3861 C   0  0  0  0  0  0  0  0  0  0  0  0
   -5.0904   -2.0473    1.1557 H   0  0  0  0  0  0  0  0  0  0  0  0
   -3.4342   -1.7354   -0.2149 C   0  0  0  0  0  0  0  0  0  0  0  0
   -2.7354   -2.9468    0.1324 C   0  0  0  0  0  0  0  0  0  0  0  0
   -3.1854   -3.6055    0.8921 H   0  0  0  0  0  0  0  0  0  0  0  0
   -1.5494   -3.3011   -0.4595 C   0  0  0  0  0  0  0  0  0  0  0  0
   -1.0533   -4.2400   -0.1758 H   0  0  0  0  0  0  0  0  0  0  0  0
  3  6  1  0  0  0  0
  5  2  1  0  0  0  0
  5  1  1  0  0  0  0
  6  4  1  0  0  0  0
  6  5  1  0  0  0  0
  7  6  1  0  0  0  0
  7  9  1  0  0  0  0
  8  7  1  0  0  0  0
 10  7  1  0  0  0  0
 10 12  1  0  0  0  0
 11 10  1  0  0  0  0
 12 27  1  0  0  0  0
 13 12  2  0  0  0  0
 13 15  1  0  0  0  0
 14 13  1  0  0  0  0
 15 24  1  0  0  0  0
 16 15  2  0  0  0  0
 16 18  1  0  0  0  0
 17 16  1  0  0  0  0
 18 20  2  0  0  0  0
 19 18  1  0  0  0  0
 20 22  1  0  0  0  0
 20 21  1  0  0  0  0
 22 23  1  0  0  0  0
 24 25  1  0  0  0  0
 24 22  2  0  0  0  0
 25 26  1  0  0  0  0
 27 28  1  0  0  0  0
 27 25  2  0  0  0  0
M  END
