1,14
 OpenBabel05122313053D

 39 40  0  0  0  0  0  0  0  0999 V2000
    1.1389    1.0051   -0.4686 C   0  0  0  0  0  3  0  0  0  0  0  0
    2.2869    0.9505    0.4667 C   0  0  0  0  0  0  0  0  0  0  0  0
    3.6185    0.9564   -0.0234 C   0  0  0  0  0  0  0  0  0  0  0  0
    4.7216    0.8516    0.8380 C   0  0  0  0  0  0  0  0  0  0  0  0
    4.5321    0.7507    2.2249 C   0  0  0  0  0  0  0  0  0  0  0  0
    3.2206    0.7657    2.7357 C   0  0  0  0  0  0  0  0  0  0  0  0
    2.1216    0.8623    1.8747 C   0  0  0  0  0  0  0  0  0  0  0  0
   -0.0788    1.8771   -0.1415 C   0  0  0  0  0  0  0  0  0  0  0  0
   -0.1360    3.2754   -0.8456 C   0  0  0  0  0  0  0  0  0  0  0  0
    1.0888    4.1196   -0.4337 C   0  0  0  0  0  0  0  0  0  0  0  0
   -1.4481    3.9986   -0.4744 C   0  0  0  0  0  0  0  0  0  0  0  0
   -0.1029    3.0653   -2.3052 C   0  0  0  0  0  0  0  0  0  0  0  0
   -0.0747    2.8774   -3.4622 N   0  0  0  0  0  0  0  0  0  0  0  0
   -1.2035    0.8980   -0.4836 C   0  0  0  0  0  3  0  0  0  0  0  0
   -2.4012    0.7816    0.3760 C   0  0  0  0  0  0  0  0  0  0  0  0
   -3.6771    0.5642   -0.2072 C   0  0  0  0  0  0  0  0  0  0  0  0
   -4.8276    0.3982    0.5779 C   0  0  0  0  0  0  0  0  0  0  0  0
   -4.7448    0.4520    1.9787 C   0  0  0  0  0  0  0  0  0  0  0  0
   -3.4928    0.6844    2.5775 C   0  0  0  0  0  0  0  0  0  0  0  0
   -2.3453    0.8465    1.7927 C   0  0  0  0  0  0  0  0  0  0  0  0
    1.4688    1.1400   -1.5204 H   0  0  0  0  0  0  0  0  0  0  0  0
    3.7813    1.0646   -1.1081 H   0  0  0  0  0  0  0  0  0  0  0  0
    5.7406    0.8597    0.4201 H   0  0  0  0  0  0  0  0  0  0  0  0
    5.3948    0.6692    2.9031 H   0  0  0  0  0  0  0  0  0  0  0  0
    3.0539    0.6926    3.8219 H   0  0  0  0  0  0  0  0  0  0  0  0
    1.1029    0.8384    2.2918 H   0  0  0  0  0  0  0  0  0  0  0  0
   -0.0929    2.1024    0.9452 H   0  0  0  0  0  0  0  0  0  0  0  0
    1.0724    4.2762    0.6636 H   0  0  0  0  0  0  0  0  0  0  0  0
    1.0786    5.1099   -0.9306 H   0  0  0  0  0  0  0  0  0  0  0  0
    2.0355    3.6070   -0.6901 H   0  0  0  0  0  0  0  0  0  0  0  0
   -1.4863    4.1472    0.6235 H   0  0  0  0  0  0  0  0  0  0  0  0
   -2.3331    3.4024   -0.7677 H   0  0  0  0  0  0  0  0  0  0  0  0
   -1.5118    4.9894   -0.9663 H   0  0  0  0  0  0  0  0  0  0  0  0
   -1.4799    0.9670   -1.5578 H   0  0  0  0  0  0  0  0  0  0  0  0
   -3.7560    0.5365   -1.3063 H   0  0  0  0  0  0  0  0  0  0  0  0
   -5.8006    0.2319    0.0893 H   0  0  0  0  0  0  0  0  0  0  0  0
   -5.6449    0.3220    2.5980 H   0  0  0  0  0  0  0  0  0  0  0  0
   -3.4110    0.7347    3.6747 H   0  0  0  0  0  0  0  0  0  0  0  0
   -1.3726    1.0027    2.2844 H   0  0  0  0  0  0  0  0  0  0  0  0
  1  8  1  0  0  0  0
  1  2  1  0  0  0  0
  2  7  1  0  0  0  0
  3  2  2  0  0  0  0
  3  4  1  0  0  0  0
  4  5  2  0  0  0  0
  5  6  1  0  0  0  0
  5 24  1  0  0  0  0
  6 25  1  0  0  0  0
  7 26  1  0  0  0  0
  7  6  2  0  0  0  0
  8 27  1  0  0  0  0
  9 11  1  0  0  0  0
  9 10  1  0  0  0  0
  9  8  1  0  0  0  0
 10 28  1  0  0  0  0
 11 31  1  0  0  0  0
 12  9  1  0  0  0  0
 13 12  3  0  0  0  0
 14  8  1  0  0  0  0
 14 15  1  0  0  0  0
 15 20  1  0  0  0  0
 16 15  2  0  0  0  0
 16 17  1  0  0  0  0
 17 18  2  0  0  0  0
 18 19  1  0  0  0  0
 18 37  1  0  0  0  0
 19 38  1  0  0  0  0
 20 39  1  0  0  0  0
 20 19  2  0  0  0  0
 21  1  1  0  0  0  0
 22  3  1  0  0  0  0
 23  4  1  0  0  0  0
 29 10  1  0  0  0  0
 30 10  1  0  0  0  0
 32 11  1  0  0  0  0
 33 11  1  0  0  0  0
 34 14  1  0  0  0  0
 35 16  1  0  0  0  0
 36 17  1  0  0  0  0
M  END
