2,23
 OpenBabel05122313053D

 50 52  0  0  0  0  0  0  0  0999 V2000
    1.2971    2.2957   -0.9332 N   0  0  0  0  0  0  0  0  0  0  0  0
    0.0942    1.6943   -0.5853 C   0  0  0  0  0  2  0  0  0  0  0  0
   -0.8461    2.6628   -0.8400 N   0  0  0  0  0  0  0  0  0  0  0  0
   -0.2615    3.8053   -1.3696 C   0  0  0  0  0  0  0  0  0  0  0  0
   -0.8616    4.6664   -1.6764 H   0  0  0  0  0  0  0  0  0  0  0  0
    2.4056   -0.4448   -1.3164 N   0  0  0  0  0  0  0  0  0  0  0  0
    1.0803    3.5843   -1.4333 C   0  0  0  0  0  0  0  0  0  0  0  0
    1.8994    4.2009   -1.8107 H   0  0  0  0  0  0  0  0  0  0  0  0
    1.1229   -2.1957   -1.4770 N   0  0  0  0  0  0  0  0  0  0  0  0
   -2.2671    2.6463   -0.4752 C   0  0  0  0  0  0  0  0  0  0  0  0
   -2.5964    1.5945   -0.4474 H   0  0  0  0  0  0  0  0  0  0  0  0
   -2.8181    3.1477   -1.2976 H   0  0  0  0  0  0  0  0  0  0  0  0
   -2.5179    3.3414    0.8657 C   0  0  0  0  0  0  0  0  0  0  0  0
   -2.0358    4.3438    0.8554 H   0  0  0  0  0  0  0  0  0  0  0  0
   -2.0186    2.7466    1.6591 H   0  0  0  0  0  0  0  0  0  0  0  0
   -4.0111    3.5032    1.1827 C   0  0  0  0  0  0  0  0  0  0  0  0
   -4.0998    4.0792    2.1287 H   0  0  0  0  0  0  0  0  0  0  0  0
   -4.4831    4.1410    0.4007 H   0  0  0  0  0  0  0  0  0  0  0  0
   -4.7894    2.1909    1.3141 C   0  0  0  0  0  0  0  0  0  0  0  0
   -5.8404    2.3807    1.6121 H   0  0  0  0  0  0  0  0  0  0  0  0
   -4.3226    1.5278    2.0689 H   0  0  0  0  0  0  0  0  0  0  0  0
   -4.8109    1.6227    0.3618 H   0  0  0  0  0  0  0  0  0  0  0  0
    1.1606   -0.9327   -0.9397 C   0  0  0  0  0  2  0  0  0  0  0  0
    2.2741   -2.4707   -2.2015 C   0  0  0  0  0  0  0  0  0  0  0  0
    2.4021   -3.4152   -2.7375 H   0  0  0  0  0  0  0  0  0  0  0  0
    3.0826   -1.3786   -2.1097 C   0  0  0  0  0  0  0  0  0  0  0  0
    4.0577   -1.1598   -2.5511 H   0  0  0  0  0  0  0  0  0  0  0  0
    0.1392   -3.2408   -1.1765 C   0  0  0  0  0  0  0  0  0  0  0  0
    0.0514   -3.8769   -2.0806 H   0  0  0  0  0  0  0  0  0  0  0  0
   -0.8384   -2.7534   -1.0177 H   0  0  0  0  0  0  0  0  0  0  0  0
    0.5418   -4.0555    0.0539 C   0  0  0  0  0  0  0  0  0  0  0  0
    0.6975   -3.3498    0.8968 H   0  0  0  0  0  0  0  0  0  0  0  0
    1.5141   -4.5666   -0.1299 H   0  0  0  0  0  0  0  0  0  0  0  0
   -0.5302   -5.0764    0.4393 C   0  0  0  0  0  0  0  0  0  0  0  0
   -1.4800   -4.5271    0.6125 H   0  0  0  0  0  0  0  0  0  0  0  0
   -0.7176   -5.7662   -0.4144 H   0  0  0  0  0  0  0  0  0  0  0  0
   -0.1640   -5.8801    1.6870 C   0  0  0  0  0  0  0  0  0  0  0  0
   -0.9570   -6.6079    1.9525 H   0  0  0  0  0  0  0  0  0  0  0  0
   -0.0157   -5.2104    2.5593 H   0  0  0  0  0  0  0  0  0  0  0  0
    0.7784   -6.4497    1.5434 H   0  0  0  0  0  0  0  0  0  0  0  0
    2.5957    1.9049   -0.5029 C   0  0  0  0  0  0  0  0  0  0  0  0
    3.1206    0.6130   -0.6880 C   0  0  0  0  0  0  0  0  0  0  0  0
    4.4199    0.3280   -0.2200 C   0  0  0  0  0  0  0  0  0  0  0  0
    4.7982   -0.6984   -0.3205 H   0  0  0  0  0  0  0  0  0  0  0  0
    5.2018    1.3071    0.3966 C   0  0  0  0  0  0  0  0  0  0  0  0
    6.2090    1.0535    0.7578 H   0  0  0  0  0  0  0  0  0  0  0  0
    4.6781    2.5948    0.5814 C   0  0  0  0  0  0  0  0  0  0  0  0
    5.2659    3.3722    1.0905 H   0  0  0  0  0  0  0  0  0  0  0  0
    3.3823    2.8791    0.1454 C   0  0  0  0  0  0  0  0  0  0  0  0
    2.9406    3.8676    0.3318 H   0  0  0  0  0  0  0  0  0  0  0  0
  1  2  1  0  0  0  0
  1 41  1  0  0  0  0
  3  2  1  0  0  0  0
  3 10  1  0  0  0  0
  4  3  1  0  0  0  0
  5  4  1  0  0  0  0
  6 23  1  0  0  0  0
  6 42  1  0  0  0  0
  7  4  2  0  0  0  0
  7  1  1  0  0  0  0
  8  7  1  0  0  0  0
  9 28  1  0  0  0  0
  9 23  1  0  0  0  0
 10 11  1  0  0  0  0
 10 13  1  0  0  0  0
 12 10  1  0  0  0  0
 13 16  1  0  0  0  0
 13 15  1  0  0  0  0
 14 13  1  0  0  0  0
 16 19  1  0  0  0  0
 16 17  1  0  0  0  0
 18 16  1  0  0  0  0
 19 20  1  0  0  0  0
 19 21  1  0  0  0  0
 22 19  1  0  0  0  0
 24 26  2  0  0  0  0
 24  9  1  0  0  0  0
 25 24  1  0  0  0  0
 26  6  1  0  0  0  0
 27 26  1  0  0  0  0
 28 30  1  0  0  0  0
 28 31  1  0  0  0  0
 29 28  1  0  0  0  0
 31 34  1  0  0  0  0
 31 32  1  0  0  0  0
 33 31  1  0  0  0  0
 34 35  1  0  0  0  0
 34 37  1  0  0  0  0
 36 34  1  0  0  0  0
 37 38  1  0  0  0  0
 37 39  1  0  0  0  0
 40 37  1  0  0  0  0
 41 49  1  0  0  0  0
 42 41  2  0  0  0  0
 42 43  1  0  0  0  0
 43 45  2  0  0  0  0
 44 43  1  0  0  0  0
 45 47  1  0  0  0  0
 45 46  1  0  0  0  0
 47 48  1  0  0  0  0
 49 50  1  0  0  0  0
 49 47  2  0  0  0  0
M  END
