3,6
 OpenBabel05122313053D

 15 15  0  0  1  0  0  0  0  0999 V2000
    1.7828    0.0000   -0.5477 Se  0  0  0  0  0  0  0  0  0  0  0  0
    1.1528    2.7836    0.3440 C   0  0  0  0  0  0  0  0  0  0  0  0
    0.9528    1.3227    0.6009 C   0  0  2  0  0  3  0  0  0  0  0  0
    0.4442    0.7162    1.7724 C   0  0  0  0  0  0  0  0  0  0  0  0
    0.4443   -0.7162    1.7724 C   0  0  0  0  0  0  0  0  0  0  0  0
    0.9529   -1.3227    0.6009 C   0  0  2  0  0  3  0  0  0  0  0  0
    1.1529   -2.7835    0.3441 C   0  0  0  0  0  0  0  0  0  0  0  0
    2.1644    3.1203    0.6549 H   0  0  0  0  0  0  0  0  0  0  0  0
    0.4043    3.3598    0.9232 H   0  0  0  0  0  0  0  0  0  0  0  0
    1.0128    3.0402   -0.7238 H   0  0  0  0  0  0  0  0  0  0  0  0
    0.0138    1.3131    2.5886 H   0  0  0  0  0  0  0  0  0  0  0  0
    0.0139   -1.3130    2.5886 H   0  0  0  0  0  0  0  0  0  0  0  0
    2.1641   -3.1204    0.6560 H   0  0  0  0  0  0  0  0  0  0  0  0
    1.0139   -3.0400   -0.7239 H   0  0  0  0  0  0  0  0  0  0  0  0
    0.4037   -3.3597    0.9223 H   0  0  0  0  0  0  0  0  0  0  0  0
  1  3  1  0  0  0  0
  1  6  1  0  0  0  0
  2  8  1  0  0  0  0
  2  9  1  0  0  0  0
  3  2  1  1  0  0  0
  3  4  1  0  0  0  0
  4  5  2  0  0  0  0
  4 11  1  0  0  0  0
  5 12  1  0  0  0  0
  6  7  1  1  0  0  0
  6  5  1  0  0  0  0
  7 13  1  0  0  0  0
  7 15  1  0  0  0  0
 10  2  1  0  0  0  0
 14  7  1  0  0  0  0
M  END
