1,9
 OpenBabel05122313053D

 16 16  0  0  0  0  0  0  0  0999 V2000
   -0.4814    2.0927    1.3090 C   0  0  0  0  0  2  0  0  0  0  0  0
    0.7821    2.1353    1.1095 C   0  0  0  0  0  2  0  0  0  0  0  0
    1.8633    2.9711    0.5158 C   0  0  0  0  0  0  0  0  0  0  0  0
    1.7629    4.0189    0.8736 H   0  0  0  0  0  0  0  0  0  0  0  0
    2.8803    2.6352    0.7900 H   0  0  0  0  0  0  0  0  0  0  0  0
    1.6899    2.9225   -1.0640 C   0  0  0  0  0  0  0  0  0  0  0  0
    2.6093    2.5257   -1.5407 H   0  0  0  0  0  0  0  0  0  0  0  0
    1.5398    3.9489   -1.4639 H   0  0  0  0  0  0  0  0  0  0  0  0
    0.4813    2.0927   -1.3090 C   0  0  0  0  0  2  0  0  0  0  0  0
   -0.7822    2.1353   -1.1095 C   0  0  0  0  0  2  0  0  0  0  0  0
   -1.8634    2.9710   -0.5158 C   0  0  0  0  0  0  0  0  0  0  0  0
   -2.8804    2.6352   -0.7900 H   0  0  0  0  0  0  0  0  0  0  0  0
   -1.7630    4.0189   -0.8735 H   0  0  0  0  0  0  0  0  0  0  0  0
   -1.6900    2.9225    1.0640 C   0  0  0  0  0  0  0  0  0  0  0  0
   -1.5399    3.9488    1.4639 H   0  0  0  0  0  0  0  0  0  0  0  0
   -2.6094    2.5257    1.5407 H   0  0  0  0  0  0  0  0  0  0  0  0
  2  1  1  0  0  0  0
  3  5  1  0  0  0  0
  3  4  1  0  0  0  0
  3  2  1  0  0  0  0
  6  3  1  0  0  0  0
  7  6  1  0  0  0  0
  8  6  1  0  0  0  0
  9 10  1  0  0  0  0
  9  6  1  0  0  0  0
 10 11  1  0  0  0  0
 11 14  1  0  0  0  0
 12 11  1  0  0  0  0
 13 11  1  0  0  0  0
 14  1  1  0  0  0  0
 14 15  1  0  0  0  0
 14 16  1  0  0  0  0
M  END
