15
 OpenBabel05122313053D

 43 47  0  0  1  0  0  0  0  0999 V2000
    2.3300   -0.0075   -0.0017 Si  0  0  0  0  0  0  0  0  0  0  0  0
    3.6007   -1.0101   -1.0023 C   0  0  0  0  0  0  0  0  0  0  0  0
    4.9266   -0.2605   -0.7280 C   0  0  0  0  0  0  0  0  0  0  0  0
    4.9248    0.2301    0.7339 C   0  0  0  0  0  0  0  0  0  0  0  0
    3.6030    0.9895    1.0012 C   0  0  0  0  0  0  0  0  0  0  0  0
    1.0582   -0.9953    0.9666 C   0  0  1  0  0  3  0  0  0  0  0  0
    0.2893   -0.4955    2.0753 C   0  0  0  0  0  0  0  0  0  0  0  0
   -0.8773   -1.2852    2.2619 C   0  0  0  0  0  0  0  0  0  0  0  0
   -0.8499   -2.3420    1.2964 C   0  0  0  0  0  0  0  0  0  0  0  0
    0.3319   -2.1448    0.4665 C   0  0  0  0  0  0  0  0  0  0  0  0
    0.5789   -3.0330   -0.6255 C   0  0  0  0  0  0  0  0  0  0  0  0
   -0.2949   -4.0862   -0.8422 C   0  0  0  0  0  0  0  0  0  0  0  0
   -1.4357   -4.2915   -0.0070 C   0  0  0  0  0  0  0  0  0  0  0  0
   -1.7211   -3.4400    1.0473 C   0  0  0  0  0  0  0  0  0  0  0  0
    1.0613    0.9834   -0.9709 C   0  0  1  0  0  3  0  0  0  0  0  0
    0.2856    0.4792   -2.0731 C   0  0  0  0  0  0  0  0  0  0  0  0
   -0.8768    1.2742   -2.2624 C   0  0  0  0  0  0  0  0  0  0  0  0
   -0.8405    2.3378   -1.3046 C   0  0  0  0  0  0  0  0  0  0  0  0
    0.3437    2.1411   -0.4779 C   0  0  0  0  0  0  0  0  0  0  0  0
    0.6005    3.0375    0.6051 C   0  0  0  0  0  0  0  0  0  0  0  0
   -0.2667    4.0971    0.8166 C   0  0  0  0  0  0  0  0  0  0  0  0
   -1.4105    4.3009   -0.0149 C   0  0  0  0  0  0  0  0  0  0  0  0
   -1.7051    3.4422   -1.0607 C   0  0  0  0  0  0  0  0  0  0  0  0
    3.3700   -1.1059   -2.0820 H   0  0  0  0  0  0  0  0  0  0  0  0
    3.6467   -2.0382   -0.5825 H   0  0  0  0  0  0  0  0  0  0  0  0
    5.0002    0.6203   -1.4038 H   0  0  0  0  0  0  0  0  0  0  0  0
    5.8126   -0.8946   -0.9411 H   0  0  0  0  0  0  0  0  0  0  0  0
    4.9884   -0.6511    1.4102 H   0  0  0  0  0  0  0  0  0  0  0  0
    5.8143    0.8577    0.9514 H   0  0  0  0  0  0  0  0  0  0  0  0
    3.3689    1.0899    2.0797 H   0  0  0  0  0  0  0  0  0  0  0  0
    3.6580    2.0160    0.5786 H   0  0  0  0  0  0  0  0  0  0  0  0
    0.5402    0.3966    2.6661 H   0  0  0  0  0  0  0  0  0  0  0  0
   -1.6512   -1.1233    3.0203 H   0  0  0  0  0  0  0  0  0  0  0  0
    1.4620   -2.8936   -1.2660 H   0  0  0  0  0  0  0  0  0  0  0  0
   -0.1101   -4.7833   -1.6732 H   0  0  0  0  0  0  0  0  0  0  0  0
   -2.1015   -5.1422   -0.2150 H   0  0  0  0  0  0  0  0  0  0  0  0
   -2.6095   -3.5919    1.6773 H   0  0  0  0  0  0  0  0  0  0  0  0
    0.5295   -0.4188   -2.6580 H   0  0  0  0  0  0  0  0  0  0  0  0
   -1.6541    1.1110   -3.0170 H   0  0  0  0  0  0  0  0  0  0  0  0
    1.4854    2.8983    1.2432 H   0  0  0  0  0  0  0  0  0  0  0  0
   -0.0745    4.8003    1.6407 H   0  0  0  0  0  0  0  0  0  0  0  0
   -2.0710    5.1568    0.1892 H   0  0  0  0  0  0  0  0  0  0  0  0
   -2.5955    3.5936   -1.6881 H   0  0  0  0  0  0  0  0  0  0  0  0
  1  5  1  0  0  0  0
  2  3  1  0  0  0  0
  2 25  1  0  0  0  0
  2  1  1  0  0  0  0
  3  4  1  0  0  0  0
  4 29  1  0  0  0  0
  4  5  1  0  0  0  0
  4 28  1  0  0  0  0
  5 30  1  0  0  0  0
  6  1  1  6  0  0  0
  6  7  1  0  0  0  0
  7  8  2  0  0  0  0
  7 32  1  0  0  0  0
  8 33  1  0  0  0  0
  9  8  1  0  0  0  0
 10  6  1  0  0  0  0
 10  9  2  0  0  0  0
 11 10  1  0  0  0  0
 12 11  2  0  0  0  0
 12 13  1  0  0  0  0
 13 14  2  0  0  0  0
 14  9  1  0  0  0  0
 14 37  1  0  0  0  0
 15 16  1  1  0  0  0
 15 19  1  0  0  0  0
 15  1  1  0  0  0  0
 17 16  2  0  0  0  0
 17 18  1  0  0  0  0
 18 23  2  0  0  0  0
 18 19  1  0  0  0  0
 19 20  2  0  0  0  0
 20 21  1  0  0  0  0
 20 40  1  0  0  0  0
 21 41  1  0  0  0  0
 22 42  1  0  0  0  0
 22 21  2  0  0  0  0
 23 22  1  0  0  0  0
 24  2  1  0  0  0  0
 26  3  1  0  0  0  0
 27  3  1  0  0  0  0
 31  5  1  0  0  0  0
 34 11  1  0  0  0  0
 35 12  1  0  0  0  0
 36 13  1  0  0  0  0
 38 16  1  0  0  0  0
 39 17  1  0  0  0  0
 43 23  1  0  0  0  0
M  END
