5,29
 OpenBabel05122313053D

 46 48  0  0  1  0  0  0  0  0999 V2000
    1.8724   -1.5174    1.2463 C   0  0  0  0  0  0  0  0  0  0  0  0
    2.2621   -2.5231    1.0507 H   0  0  0  0  0  0  0  0  0  0  0  0
    0.9927   -1.1594    2.2987 C   0  0  0  0  0  0  0  0  0  0  0  0
    0.5693   -1.8401    3.0458 H   0  0  0  0  0  0  0  0  0  0  0  0
    0.7088    0.2363    2.1861 C   0  0  0  0  0  3  0  0  0  0  0  0
    0.0318    0.8022    2.8372 H   0  0  0  0  0  0  0  0  0  0  0  0
    1.1689    2.0428    0.2924 C   0  0  1  0  0  0  0  0  0  0  0  0
    2.3315    2.3023   -0.6990 C   0  0  0  0  0  0  0  0  0  0  0  0
    2.0037    3.0656   -1.4354 H   0  0  0  0  0  0  0  0  0  0  0  0
    3.1477    2.7762   -0.1135 H   0  0  0  0  0  0  0  0  0  0  0  0
    2.9075    1.0839   -1.4407 C   0  0  0  0  0  0  0  0  0  0  0  0
    2.2163    0.7353   -2.2308 H   0  0  0  0  0  0  0  0  0  0  0  0
    3.8245    1.4031   -1.9798 H   0  0  0  0  0  0  0  0  0  0  0  0
    3.2651   -0.1290   -0.5469 C   0  0  0  0  0  0  0  0  0  0  0  0
    2.1681   -0.3406    0.4831 C   0  0  2  0  0  3  0  0  0  0  0  0
    1.4367    0.7468    1.0614 C   0  0  2  0  0  3  0  0  0  0  0  0
    1.0047    3.2576    1.2155 C   0  0  0  0  0  0  0  0  0  0  0  0
    0.7692    4.1642    0.6227 H   0  0  0  0  0  0  0  0  0  0  0  0
    1.9403    3.4393    1.7809 H   0  0  0  0  0  0  0  0  0  0  0  0
    0.1910    3.1168    1.9524 H   0  0  0  0  0  0  0  0  0  0  0  0
    3.5129   -1.3654   -1.4228 C   0  0  0  0  0  0  0  0  0  0  0  0
    4.3152   -1.1546   -2.1591 H   0  0  0  0  0  0  0  0  0  0  0  0
    2.5972   -1.6647   -1.9680 H   0  0  0  0  0  0  0  0  0  0  0  0
    3.8411   -2.2318   -0.8139 H   0  0  0  0  0  0  0  0  0  0  0  0
    4.5517    0.1798    0.2617 C   0  0  0  0  0  0  0  0  0  0  0  0
    4.4336    1.0847    0.8903 H   0  0  0  0  0  0  0  0  0  0  0  0
    5.4072    0.3403   -0.4268 H   0  0  0  0  0  0  0  0  0  0  0  0
    4.8035   -0.6630    0.9356 H   0  0  0  0  0  0  0  0  0  0  0  0
   -0.1621    1.6791   -0.3927 C   0  0  1  0  0  3  0  0  0  0  0  0
   -0.3417    0.9829   -1.6307 C   0  0  0  0  0  3  0  0  0  0  0  0
    0.4062    0.8301   -2.4130 H   0  0  0  0  0  0  0  0  0  0  0  0
   -1.6815    0.4874   -1.6935 C   0  0  0  0  0  0  0  0  0  0  0  0
   -2.0996   -0.0932   -2.5231 H   0  0  0  0  0  0  0  0  0  0  0  0
   -2.3599    0.8609   -0.5053 C   0  0  0  0  0  0  0  0  0  0  0  0
   -1.4106    1.5638    0.3080 C   0  0  0  0  0  3  0  0  0  0  0  0
   -1.6287    1.9625    1.3065 H   0  0  0  0  0  0  0  0  0  0  0  0
   -3.8164    0.6504   -0.1685 C   0  0  0  0  0  0  0  0  0  0  0  0
   -3.8566    0.3334    0.8968 H   0  0  0  0  0  0  0  0  0  0  0  0
   -4.4620   -0.4554   -1.0088 C   0  0  0  0  0  0  0  0  0  0  0  0
   -4.4798   -0.1876   -2.0860 H   0  0  0  0  0  0  0  0  0  0  0  0
   -5.5113   -0.6193   -0.6925 H   0  0  0  0  0  0  0  0  0  0  0  0
   -3.9176   -1.4133   -0.8935 H   0  0  0  0  0  0  0  0  0  0  0  0
   -4.5801    1.9818   -0.3028 C   0  0  0  0  0  0  0  0  0  0  0  0
   -5.6388    1.8565    0.0031 H   0  0  0  0  0  0  0  0  0  0  0  0
   -4.5680    2.3401   -1.3532 H   0  0  0  0  0  0  0  0  0  0  0  0
   -4.1328    2.7757    0.3285 H   0  0  0  0  0  0  0  0  0  0  0  0
  1  3  2  0  0  0  0
  2  1  1  0  0  0  0
  3  4  1  0  0  0  0
  5  3  1  0  0  0  0
  5  6  1  0  0  0  0
  7 16  1  0  0  0  0
  7 17  1  1  0  0  0
  8 10  1  0  0  0  0
  8  7  1  0  0  0  0
  9  8  1  0  0  0  0
 11  8  1  0  0  0  0
 11 14  1  0  0  0  0
 12 11  1  0  0  0  0
 13 11  1  0  0  0  0
 14 25  1  0  0  0  0
 14 15  1  0  0  0  0
 15 16  1  0  0  0  0
 15  1  1  1  0  0  0
 16  5  1  6  0  0  0
 17 19  1  0  0  0  0
 17 20  1  0  0  0  0
 18 17  1  0  0  0  0
 21 24  1  0  0  0  0
 21 14  1  0  0  0  0
 22 21  1  0  0  0  0
 23 21  1  0  0  0  0
 25 26  1  0  0  0  0
 25 28  1  0  0  0  0
 27 25  1  0  0  0  0
 29 30  1  1  0  0  0
 29  7  1  0  0  0  0
 29 35  1  0  0  0  0
 31 30  1  0  0  0  0
 32 30  1  0  0  0  0
 32 34  2  0  0  0  0
 33 32  1  0  0  0  0
 34 37  1  0  0  0  0
 34 35  1  0  0  0  0
 35 36  1  0  0  0  0
 37 38  1  0  0  0  0
 39 42  1  0  0  0  0
 39 41  1  0  0  0  0
 39 37  1  0  0  0  0
 40 39  1  0  0  0  0
 43 37  1  0  0  0  0
 43 44  1  0  0  0  0
 43 46  1  0  0  0  0
 45 43  1  0  0  0  0
M  END
