3,13
 OpenBabel05122313053D

 37 39  0  0  1  0  0  0  0  0999 V2000
    0.6515   -1.5621    1.5334 C   0  0  0  0  0  0  0  0  0  0  0  0
   -0.2072   -0.8128    2.3764 C   0  0  0  0  0  0  0  0  0  0  0  0
   -0.0274    0.5723    2.0768 C   0  0  0  0  0  3  0  0  0  0  0  0
    1.2205    1.8699    0.1200 C   0  0  1  0  0  0  0  0  0  0  0  0
    2.5175    1.6250   -0.6930 C   0  0  0  0  0  0  0  0  0  0  0  0
    2.7733    0.1927   -1.1929 C   0  0  0  0  0  0  0  0  0  0  0  0
    2.6348   -0.9153   -0.1207 C   0  0  0  0  0  0  0  0  0  0  0  0
    1.3979   -0.6477    0.7197 C   0  0  2  0  0  3  0  0  0  0  0  0
    0.9672    0.6778    1.0486 C   0  0  2  0  0  3  0  0  0  0  0  0
    1.3356    3.1990    0.8786 C   0  0  0  0  0  0  0  0  0  0  0  0
    2.6180   -2.2941   -0.7956 C   0  0  0  0  0  0  0  0  0  0  0  0
    3.8355   -0.8512    0.8583 C   0  0  0  0  0  0  0  0  0  0  0  0
   -0.0615    1.8229   -0.7329 C   0  0  1  0  0  3  0  0  0  0  0  0
   -0.2879    1.0572   -1.9215 C   0  0  0  0  0  3  0  0  0  0  0  0
   -1.6962    0.9523   -2.1467 C   0  0  0  0  0  0  0  0  0  0  0  0
   -2.3561    1.6410   -1.1035 C   0  0  0  0  0  0  0  0  0  0  0  0
   -1.3617    2.1648   -0.2247 C   0  0  0  0  0  3  0  0  0  0  0  0
    0.7322   -2.6550    1.5086 H   0  0  0  0  0  0  0  0  0  0  0  0
   -0.9173   -1.2232    3.1030 H   0  0  0  0  0  0  0  0  0  0  0  0
   -0.5741    1.3996    2.5448 H   0  0  0  0  0  0  0  0  0  0  0  0
    3.3639    1.9260   -0.0403 H   0  0  0  0  0  0  0  0  0  0  0  0
    2.5328    2.3282   -1.5520 H   0  0  0  0  0  0  0  0  0  0  0  0
    2.1025   -0.0631   -2.0347 H   0  0  0  0  0  0  0  0  0  0  0  0
    3.7997    0.1466   -1.6146 H   0  0  0  0  0  0  0  0  0  0  0  0
    1.4767    4.0382    0.1682 H   0  0  0  0  0  0  0  0  0  0  0  0
    2.2016    3.1726    1.5695 H   0  0  0  0  0  0  0  0  0  0  0  0
    0.4335    3.4170    1.4818 H   0  0  0  0  0  0  0  0  0  0  0  0
    3.5391   -2.4329   -1.3977 H   0  0  0  0  0  0  0  0  0  0  0  0
    1.7381   -2.4097   -1.4569 H   0  0  0  0  0  0  0  0  0  0  0  0
    2.5867   -3.1097   -0.0452 H   0  0  0  0  0  0  0  0  0  0  0  0
    3.9088    0.1366    1.3548 H   0  0  0  0  0  0  0  0  0  0  0  0
    4.7837   -1.0413    0.3136 H   0  0  0  0  0  0  0  0  0  0  0  0
    3.7344   -1.6163    1.6534 H   0  0  0  0  0  0  0  0  0  0  0  0
    0.4733    0.6020   -2.5604 H   0  0  0  0  0  0  0  0  0  0  0  0
   -2.1704    0.4071   -2.9708 H   0  0  0  0  0  0  0  0  0  0  0  0
   -3.4397    1.7272   -0.9657 H   0  0  0  0  0  0  0  0  0  0  0  0
   -1.5685    2.7314    0.6906 H   0  0  0  0  0  0  0  0  0  0  0  0
  1  2  2  0  0  0  0
  2 19  1  0  0  0  0
  3  2  1  0  0  0  0
  3 20  1  0  0  0  0
  4 10  1  1  0  0  0
  4  9  1  0  0  0  0
  5 21  1  0  0  0  0
  5  4  1  0  0  0  0
  6  5  1  0  0  0  0
  6  7  1  0  0  0  0
  7  8  1  0  0  0  0
  7 12  1  0  0  0  0
  8  9  1  0  0  0  0
  8  1  1  1  0  0  0
  9  3  1  6  0  0  0
 10 27  1  0  0  0  0
 10 26  1  0  0  0  0
 11  7  1  0  0  0  0
 11 30  1  0  0  0  0
 12 31  1  0  0  0  0
 12 33  1  0  0  0  0
 13 14  1  1  0  0  0
 13 17  1  0  0  0  0
 13  4  1  0  0  0  0
 15 14  1  0  0  0  0
 15 16  2  0  0  0  0
 16 36  1  0  0  0  0
 16 17  1  0  0  0  0
 17 37  1  0  0  0  0
 18  1  1  0  0  0  0
 22  5  1  0  0  0  0
 23  6  1  0  0  0  0
 24  6  1  0  0  0  0
 25 10  1  0  0  0  0
 28 11  1  0  0  0  0
 29 11  1  0  0  0  0
 32 12  1  0  0  0  0
 34 14  1  0  0  0  0
 35 15  1  0  0  0  0
M  END
