4,8
 OpenBabel05122313053D

 21 22  0  0  0  0  0  0  0  0999 V2000
   -0.9850   -0.4385   -0.9761 C   0  0  0  0  0  0  0  0  0  0  0  0
    0.0315   -0.2606   -1.9694 C   0  0  0  0  0  3  0  0  0  0  0  0
   -0.1256    0.4650   -2.7796 H   0  0  0  0  0  0  0  0  0  0  0  0
    1.2356   -1.0077   -1.9019 C   0  0  0  0  0  3  0  0  0  0  0  0
    2.0084   -0.8537   -2.6678 H   0  0  0  0  0  0  0  0  0  0  0  0
    1.4587   -1.9347   -0.8435 C   0  0  0  0  0  3  0  0  0  0  0  0
    2.4050   -2.4872   -0.7787 H   0  0  0  0  0  0  0  0  0  0  0  0
    0.5020   -2.0262    0.1963 C   0  0  0  0  0  3  0  0  0  0  0  0
    0.6937   -2.6748    1.0634 H   0  0  0  0  0  0  0  0  0  0  0  0
   -0.7491   -1.3164    0.1433 C   0  0  0  0  0  0  0  0  0  0  0  0
   -1.7448   -1.4240    1.1895 C   0  0  0  0  0  0  0  0  0  0  0  0
   -1.4918   -2.0928    2.0311 H   0  0  0  0  0  0  0  0  0  0  0  0
   -2.9351   -0.7491    1.1359 C   0  0  0  0  0  0  0  0  0  0  0  0
   -3.6466   -0.8867    1.9664 H   0  0  0  0  0  0  0  0  0  0  0  0
   -4.5343    1.0566   -0.2357 C   0  0  0  0  0  0  0  0  0  0  0  0
   -4.6283    1.7820    0.6014 H   0  0  0  0  0  0  0  0  0  0  0  0
   -5.4417    0.4181   -0.1812 H   0  0  0  0  0  0  0  0  0  0  0  0
   -4.5784    1.6321   -1.1829 H   0  0  0  0  0  0  0  0  0  0  0  0
   -2.1790    0.2496   -1.0389 N   0  0  0  0  0  0  0  0  0  0  0  0
   -2.2691    0.8728   -1.8457 H   0  0  0  0  0  0  0  0  0  0  0  0
   -3.2279    0.1918   -0.0531 B   0  0  0  0  0  0  0  0  0  0  0  0
  1 10  2  0  0  0  0
  2  4  1  0  0  0  0
  2  1  1  0  0  0  0
  3  2  1  0  0  0  0
  4  6  1  0  0  0  0
  5  4  1  0  0  0  0
  6  7  1  0  0  0  0
  6  8  1  0  0  0  0
  8  9  1  0  0  0  0
 10  8  1  0  0  0  0
 10 11  1  0  0  0  0
 11 12  1  0  0  0  0
 13 11  2  0  0  0  0
 13 14  1  0  0  0  0
 15 17  1  0  0  0  0
 15 21  1  0  0  0  0
 15 16  1  0  0  0  0
 18 15  1  0  0  0  0
 19  1  1  0  0  0  0
 19 21  1  0  0  0  0
 20 19  1  0  0  0  0
 21 13  1  0  0  0  0
M  END
