5,8
 OpenBabel05122313053D

 20 20  0  0  1  0  0  0  0  0999 V2000
    1.3090   -1.8845   -1.5202 F   0  0  0  0  0  0  0  0  0  0  0  0
    1.8791   -3.5664    0.5835 F   0  0  0  0  0  0  0  0  0  0  0  0
    0.8362   -4.4101   -1.1332 F   0  0  0  0  0  0  0  0  0  0  0  0
   -0.2338   -4.1264    0.7365 F   0  0  0  0  0  0  0  0  0  0  0  0
    0.2823   -2.1739   -0.5624 C   0  0  1  0  0  3  0  0  0  0  0  0
   -1.0762   -2.0695   -1.1591 C   0  0  0  0  0  0  0  0  0  0  0  0
   -1.4561   -2.6557   -2.0205 H   0  0  0  0  0  0  0  0  0  0  0  0
   -1.6473   -1.0700   -0.4413 C   0  0  0  0  0  3  0  0  0  0  0  0
    0.6885   -3.5629   -0.0813 C   0  0  0  0  0  0  0  0  0  0  0  0
   -2.9829   -0.4806   -0.5615 C   0  0  0  0  0  0  0  0  0  0  0  0
   -4.0069   -1.1326   -1.2960 C   0  0  0  0  0  0  0  0  0  0  0  0
   -3.8006   -2.1147   -1.7475 H   0  0  0  0  0  0  0  0  0  0  0  0
   -5.2714   -0.5504   -1.4377 C   0  0  0  0  0  0  0  0  0  0  0  0
   -6.0528   -1.0759   -2.0083 H   0  0  0  0  0  0  0  0  0  0  0  0
   -5.5500    0.6973   -0.8508 C   0  0  0  0  0  0  0  0  0  0  0  0
   -6.5463    1.1513   -0.9628 H   0  0  0  0  0  0  0  0  0  0  0  0
   -4.5511    1.3531   -0.1142 C   0  0  0  0  0  0  0  0  0  0  0  0
   -4.7579    2.3285    0.3532 H   0  0  0  0  0  0  0  0  0  0  0  0
   -3.2865    0.7667    0.0336 C   0  0  0  0  0  0  0  0  0  0  0  0
   -2.5011    1.2751    0.6094 H   0  0  0  0  0  0  0  0  0  0  0  0
  3  9  1  0  0  0  0
  5  1  1  6  0  0  0
  5  9  1  0  0  0  0
  6  5  1  0  0  0  0
  6  8  2  0  0  0  0
  7  6  1  0  0  0  0
  9  2  1  0  0  0  0
  9  4  1  0  0  0  0
 10  8  1  0  0  0  0
 10 19  1  0  0  0  0
 11 10  2  0  0  0  0
 12 11  1  0  0  0  0
 13 11  1  0  0  0  0
 13 15  2  0  0  0  0
 14 13  1  0  0  0  0
 15 17  1  0  0  0  0
 16 15  1  0  0  0  0
 17 19  2  0  0  0  0
 17 18  1  0  0  0  0
 19 20  1  0  0  0  0
M  END
