10,12
 OpenBabel05122313053D

 27 29  0  0  1  0  0  0  0  0999 V2000
   -3.4785   -0.3385   -1.0387 O   0  0  0  0  0  0  0  0  0  0  0  0
   -0.7972    2.1626   -0.4103 O   0  0  0  0  0  0  0  0  0  0  0  0
   -2.8403   -1.2833   -0.1675 N   0  0  0  0  0  0  0  0  0  0  0  0
   -3.8257   -1.8713    0.7337 C   0  0  0  0  0  0  0  0  0  0  0  0
   -3.5868    0.9225   -0.3378 C   0  0  0  0  0  0  0  0  0  0  0  0
   -2.5290    0.8895    0.7883 C   0  0  2  0  0  0  0  0  0  0  0  0
   -1.5546    2.0595    0.8032 C   0  0  0  0  0  0  0  0  0  0  0  0
   -0.2031    1.0218   -0.8348 C   0  0  0  0  0  0  0  0  0  0  0  0
    0.9178    1.1702   -1.7104 C   0  0  0  0  0  3  0  0  0  0  0  0
    1.5685    0.0208   -2.2204 C   0  0  0  0  0  3  0  0  0  0  0  0
    1.1091   -1.2853   -1.8748 C   0  0  0  0  0  3  0  0  0  0  0  0
    0.0316   -1.4148   -0.9670 C   0  0  0  0  0  3  0  0  0  0  0  0
   -0.6421   -0.2729   -0.4309 C   0  0  0  0  0  0  0  0  0  0  0  0
   -1.8237   -0.4649    0.5019 C   0  0  2  0  0  0  0  0  0  0  0  0
   -4.6121    1.0711    0.0691 H   0  0  0  0  0  0  0  0  0  0  0  0
   -3.3847    1.7163   -1.0859 H   0  0  0  0  0  0  0  0  0  0  0  0
   -3.0170    0.8506    1.7824 H   0  0  0  0  0  0  0  0  0  0  0  0
   -2.0827    3.0277    0.8978 H   0  0  0  0  0  0  0  0  0  0  0  0
   -0.8471    1.9666    1.6559 H   0  0  0  0  0  0  0  0  0  0  0  0
   -1.4976   -0.9808    1.4270 H   0  0  0  0  0  0  0  0  0  0  0  0
   -3.3204   -2.6429    1.3477 H   0  0  0  0  0  0  0  0  0  0  0  0
   -4.3273   -1.1456    1.4205 H   0  0  0  0  0  0  0  0  0  0  0  0
   -4.6010   -2.3687    0.1215 H   0  0  0  0  0  0  0  0  0  0  0  0
    1.2690    2.1840   -1.9405 H   0  0  0  0  0  0  0  0  0  0  0  0
    2.4494    0.1401   -2.8664 H   0  0  0  0  0  0  0  0  0  0  0  0
    1.6319   -2.1759   -2.2467 H   0  0  0  0  0  0  0  0  0  0  0  0
   -0.3164   -2.4101   -0.6572 H   0  0  0  0  0  0  0  0  0  0  0  0
  1  5  1  0  0  0  0
  1  3  1  0  0  0  0
  2  7  1  0  0  0  0
  3 14  1  0  0  0  0
  3  4  1  0  0  0  0
  4 21  1  0  0  0  0
  4 22  1  0  0  0  0
  5 15  1  0  0  0  0
  5  6  1  0  0  0  0
  6  7  1  0  0  0  0
  6 17  1  1  0  0  0
  7 18  1  0  0  0  0
  7 19  1  0  0  0  0
  8 13  2  0  0  0  0
  8  2  1  0  0  0  0
  9  8  1  0  0  0  0
 10 11  1  0  0  0  0
 10  9  1  0  0  0  0
 11 12  1  0  0  0  0
 12 27  1  0  0  0  0
 12 13  1  0  0  0  0
 13 14  1  0  0  0  0
 14  6  1  0  0  0  0
 14 20  1  1  0  0  0
 16  5  1  0  0  0  0
 23  4  1  0  0  0  0
 24  9  1  0  0  0  0
 25 10  1  0  0  0  0
 26 11  1  0  0  0  0
M  END
