5,13
 OpenBabel05122313053D

 31 33  0  0  0  0  0  0  0  0999 V2000
   -1.9656   -1.3231   -0.4403 N   0  0  0  0  0  0  0  0  0  0  0  0
   -1.8032    0.5514    0.6622 N   0  0  0  0  0  0  0  0  0  0  0  0
   -0.2581    2.3628    0.4372 N   0  0  0  0  0  0  0  0  0  0  0  0
    1.3916    2.6430   -0.9184 N   0  0  0  0  0  0  0  0  0  0  0  0
   -1.0418   -0.4909    0.1539 C   0  0  0  0  0  2  0  0  0  0  0  0
   -3.2595   -0.8143   -0.3407 C   0  0  0  0  0  0  0  0  0  0  0  0
   -4.4954   -1.2892   -0.8015 C   0  0  0  0  0  0  0  0  0  0  0  0
   -5.6297   -0.5092   -0.5216 C   0  0  0  0  0  0  0  0  0  0  0  0
   -5.5298    0.7038    0.1913 C   0  0  0  0  0  0  0  0  0  0  0  0
   -4.2912    1.1825    0.6516 C   0  0  0  0  0  0  0  0  0  0  0  0
   -3.1592    0.4062    0.3714 C   0  0  0  0  0  0  0  0  0  0  0  0
   -1.1868    1.6821    1.3215 C   0  0  0  0  0  0  0  0  0  0  0  0
    0.7969    1.6861   -0.1343 C   0  0  0  0  0  2  0  0  0  0  0  0
    0.7283    3.8623   -0.8360 C   0  0  0  0  0  0  0  0  0  0  0  0
   -0.3269    3.6866    0.0195 C   0  0  0  0  0  0  0  0  0  0  0  0
   -1.6453   -2.5520   -1.1424 C   0  0  0  0  0  0  0  0  0  0  0  0
    2.5667    2.4015   -1.7435 C   0  0  0  0  0  0  0  0  0  0  0  0
   -4.5751   -2.2300   -1.3634 H   0  0  0  0  0  0  0  0  0  0  0  0
   -6.6158   -0.8512   -0.8684 H   0  0  0  0  0  0  0  0  0  0  0  0
   -6.4389    1.2895    0.3915 H   0  0  0  0  0  0  0  0  0  0  0  0
   -4.2246    2.1290    1.2072 H   0  0  0  0  0  0  0  0  0  0  0  0
   -0.6306    1.3209    2.2099 H   0  0  0  0  0  0  0  0  0  0  0  0
   -1.9701    2.3921    1.6413 H   0  0  0  0  0  0  0  0  0  0  0  0
    1.0581    4.7480   -1.3872 H   0  0  0  0  0  0  0  0  0  0  0  0
   -1.0974    4.3829    0.3636 H   0  0  0  0  0  0  0  0  0  0  0  0
   -0.6552   -2.9029   -0.8068 H   0  0  0  0  0  0  0  0  0  0  0  0
   -2.4048   -3.3229   -0.9082 H   0  0  0  0  0  0  0  0  0  0  0  0
   -1.6154   -2.3869   -2.2388 H   0  0  0  0  0  0  0  0  0  0  0  0
    3.4612    2.2362   -1.1139 H   0  0  0  0  0  0  0  0  0  0  0  0
    2.4081    1.4978   -2.3610 H   0  0  0  0  0  0  0  0  0  0  0  0
    2.7315    3.2744   -2.4009 H   0  0  0  0  0  0  0  0  0  0  0  0
  1  6  1  0  0  0  0
  1  5  1  0  0  0  0
  2 12  1  0  0  0  0
  3 12  1  0  0  0  0
  4 14  1  0  0  0  0
  4 13  1  0  0  0  0
  5  2  1  0  0  0  0
  6 11  1  0  0  0  0
  7  8  1  0  0  0  0
  7  6  2  0  0  0  0
  8  9  2  0  0  0  0
  9 20  1  0  0  0  0
  9 10  1  0  0  0  0
 10 21  1  0  0  0  0
 11 10  2  0  0  0  0
 11  2  1  0  0  0  0
 12 23  1  0  0  0  0
 12 22  1  0  0  0  0
 13  3  1  0  0  0  0
 14 15  2  0  0  0  0
 15 25  1  0  0  0  0
 15  3  1  0  0  0  0
 16 27  1  0  0  0  0
 16 26  1  0  0  0  0
 16  1  1  0  0  0  0
 17 29  1  0  0  0  0
 17  4  1  0  0  0  0
 18  7  1  0  0  0  0
 19  8  1  0  0  0  0
 24 14  1  0  0  0  0
 28 16  1  0  0  0  0
 30 17  1  0  0  0  0
 31 17  1  0  0  0  0
M  END
