24
 OpenBabel05122313053D

 51 54  0  0  1  0  0  0  0  0999 V2000
    1.3523   -0.0835    1.5071 C   0  0  0  0  0  3  0  0  0  0  0  0
    2.2451   -0.6867    0.5220 C   0  0  0  0  0  0  0  0  0  0  0  0
    2.7459   -2.0115    0.3159 C   0  0  0  0  0  0  0  0  0  0  0  0
    2.5138   -2.8206    1.0152 H   0  0  0  0  0  0  0  0  0  0  0  0
    3.5697   -2.2797   -0.7703 C   0  0  0  0  0  0  0  0  0  0  0  0
    3.9494   -3.3032   -0.9090 H   0  0  0  0  0  0  0  0  0  0  0  0
    3.9331   -1.2742   -1.7046 C   0  0  0  0  0  0  0  0  0  0  0  0
    4.5798   -1.5300   -2.5563 H   0  0  0  0  0  0  0  0  0  0  0  0
    3.4769    0.0266   -1.5400 C   0  0  0  0  0  0  0  0  0  0  0  0
    3.7494    0.8168   -2.2548 H   0  0  0  0  0  0  0  0  0  0  0  0
    2.6360    0.3290   -0.4434 C   0  0  0  0  0  0  0  0  0  0  0  0
    2.0308    1.5758   -0.0448 C   0  0  0  0  0  0  0  0  0  0  0  0
    2.1061    2.8601   -0.6315 C   0  0  0  0  0  0  0  0  0  0  0  0
    2.7002    3.0106   -1.5447 H   0  0  0  0  0  0  0  0  0  0  0  0
    1.4089    3.9113   -0.0514 C   0  0  0  0  0  0  0  0  0  0  0  0
    1.4485    4.9150   -0.4987 H   0  0  0  0  0  0  0  0  0  0  0  0
    0.6415    3.6942    1.1232 C   0  0  0  0  0  0  0  0  0  0  0  0
    0.0996    4.5393    1.5738 H   0  0  0  0  0  0  0  0  0  0  0  0
    0.5526    2.4440    1.7234 C   0  0  0  0  0  0  0  0  0  0  0  0
   -0.0378    2.3387    2.6387 H   0  0  0  0  0  0  0  0  0  0  0  0
    1.2563    1.3315    1.1620 C   0  0  0  0  0  0  0  0  0  0  0  0
    0.4722   -0.8401    2.5308 C   0  0  0  0  0  0  0  0  0  0  0  0
   -0.7295   -1.1510    1.6313 C   0  0  2  0  0  3  0  0  0  0  0  0
   -0.7691   -2.1850    0.6408 C   0  0  0  0  0  3  0  0  0  0  0  0
   -0.0773   -3.0310    0.5516 H   0  0  0  0  0  0  0  0  0  0  0  0
   -1.8457   -1.9133   -0.2592 C   0  0  0  0  0  0  0  0  0  0  0  0
   -2.1237   -2.5396   -1.1140 H   0  0  0  0  0  0  0  0  0  0  0  0
   -2.4957   -0.7164    0.1490 C   0  0  0  0  0  0  0  0  0  0  0  0
   -1.7740   -0.2279    1.2912 C   0  0  0  0  0  3  0  0  0  0  0  0
   -2.0025    0.7040    1.8201 H   0  0  0  0  0  0  0  0  0  0  0  0
   -3.8301   -0.2020   -0.3807 C   0  0  0  0  0  0  0  0  0  0  0  0
   -4.9178   -1.1387    0.2023 C   0  0  0  0  0  0  0  0  0  0  0  0
   -5.9250   -0.8016   -0.1192 H   0  0  0  0  0  0  0  0  0  0  0  0
   -4.8919   -1.1398    1.3110 H   0  0  0  0  0  0  0  0  0  0  0  0
   -4.7768   -2.1826   -0.1430 H   0  0  0  0  0  0  0  0  0  0  0  0
   -3.8811   -0.2646   -1.9196 C   0  0  0  0  0  0  0  0  0  0  0  0
   -4.8833    0.0471   -2.2780 H   0  0  0  0  0  0  0  0  0  0  0  0
   -3.7000   -1.2923   -2.2934 H   0  0  0  0  0  0  0  0  0  0  0  0
   -3.1234    0.4056   -2.3685 H   0  0  0  0  0  0  0  0  0  0  0  0
   -4.1063    1.2351    0.0961 C   0  0  0  0  0  0  0  0  0  0  0  0
   -5.0766    1.5860   -0.3095 H   0  0  0  0  0  0  0  0  0  0  0  0
   -3.3158    1.9299   -0.2464 H   0  0  0  0  0  0  0  0  0  0  0  0
   -4.1737    1.2894    1.2019 H   0  0  0  0  0  0  0  0  0  0  0  0
    0.0740    0.0061    3.7536 C   0  0  0  0  0  0  0  0  0  0  0  0
    0.9724    0.4277    4.2458 H   0  0  0  0  0  0  0  0  0  0  0  0
   -0.4570   -0.6338    4.4855 H   0  0  0  0  0  0  0  0  0  0  0  0
   -0.6072    0.8381    3.5104 H   0  0  0  0  0  0  0  0  0  0  0  0
    1.1228   -2.1225    3.0812 C   0  0  0  0  0  0  0  0  0  0  0  0
    0.4860   -2.5410    3.8851 H   0  0  0  0  0  0  0  0  0  0  0  0
    2.1218   -1.9020    3.5064 H   0  0  0  0  0  0  0  0  0  0  0  0
    1.2378   -2.9168    2.3254 H   0  0  0  0  0  0  0  0  0  0  0  0
  1 22  1  0  0  0  0
  2  1  1  0  0  0  0
  3  2  1  0  0  0  0
  3  4  1  0  0  0  0
  5  3  2  0  0  0  0
  6  5  1  0  0  0  0
  7  9  2  0  0  0  0
  7  5  1  0  0  0  0
  8  7  1  0  0  0  0
  9 11  1  0  0  0  0
 10  9  1  0  0  0  0
 11 12  1  0  0  0  0
 11  2  2  0  0  0  0
 12 21  1  0  0  0  0
 13 15  1  0  0  0  0
 13 12  2  0  0  0  0
 14 13  1  0  0  0  0
 15 17  2  0  0  0  0
 16 15  1  0  0  0  0
 17 18  1  0  0  0  0
 17 19  1  0  0  0  0
 19 20  1  0  0  0  0
 21  1  1  0  0  0  0
 21 19  2  0  0  0  0
 22 48  1  0  0  0  0
 22 44  1  0  0  0  0
 23 22  1  6  0  0  0
 24 23  1  0  0  0  0
 25 24  1  0  0  0  0
 26 28  2  0  0  0  0
 26 24  1  0  0  0  0
 27 26  1  0  0  0  0
 28 29  1  0  0  0  0
 29 23  1  0  0  0  0
 29 30  1  0  0  0  0
 31 40  1  0  0  0  0
 31 28  1  0  0  0  0
 31 32  1  0  0  0  0
 32 34  1  0  0  0  0
 33 32  1  0  0  0  0
 35 32  1  0  0  0  0
 36 31  1  0  0  0  0
 37 36  1  0  0  0  0
 38 36  1  0  0  0  0
 39 36  1  0  0  0  0
 40 43  1  0  0  0  0
 41 40  1  0  0  0  0
 42 40  1  0  0  0  0
 44 45  1  0  0  0  0
 44 46  1  0  0  0  0
 47 44  1  0  0  0  0
 48 50  1  0  0  0  0
 48 49  1  0  0  0  0
 51 48  1  0  0  0  0
M  END
