3,6
 OpenBabel05122313053D

 14 14  0  0  0  0  0  0  0  0999 V2000
   -0.5486   -2.4143   -0.0002 S   0  0  0  0  0  0  0  0  0  0  0  0
   -2.1205    0.5385    0.0000 B   0  0  0  0  0  0  0  0  0  0  0  0
   -0.9457   -1.3500    1.3749 C   0  0  0  0  0  3  0  0  0  0  0  0
   -1.6839   -0.1652    1.3071 C   0  0  0  0  0  0  0  0  0  0  0  0
   -1.6840   -0.1650   -1.3071 C   0  0  0  0  0  3  0  0  0  0  0  0
   -0.9456   -1.3496   -1.3750 C   0  0  0  0  0  3  0  0  0  0  0  0
   -2.9469    1.8873    0.0002 C   0  0  0  0  0  0  0  0  0  0  0  0
   -0.6076   -1.8081    2.3195 H   0  0  0  0  0  0  0  0  0  0  0  0
   -1.8308    0.3233    2.2860 H   0  0  0  0  0  0  0  0  0  0  0  0
   -1.8310    0.3236   -2.2859 H   0  0  0  0  0  0  0  0  0  0  0  0
   -0.6073   -1.8076   -2.3196 H   0  0  0  0  0  0  0  0  0  0  0  0
   -2.7558    2.5097   -0.8974 H   0  0  0  0  0  0  0  0  0  0  0  0
   -4.0353    1.6548    0.0003 H   0  0  0  0  0  0  0  0  0  0  0  0
   -2.7556    2.5095    0.8980 H   0  0  0  0  0  0  0  0  0  0  0  0
  1  3  1  0  0  0  0
  2  7  1  0  0  0  0
  2  4  2  0  0  0  0
  3  8  1  0  0  0  0
  4  3  1  0  0  0  0
  4  9  1  0  0  0  0
  5  2  1  0  0  0  0
  6  5  1  0  0  0  0
  6  1  1  0  0  0  0
  7 13  1  0  0  0  0
  7 14  1  0  0  0  0
 10  5  1  0  0  0  0
 11  6  1  0  0  0  0
 12  7  1  0  0  0  0
M  END
