6,17
 OpenBabel05122313053D

 39 40  0  0  1  0  0  0  0  0999 V2000
   -3.2032   -0.7901    0.0115 Si  0  0  0  0  0  0  0  0  0  0  0  0
    2.6499   -1.5032   -0.0276 Si  0  0  0  0  0  0  0  0  0  0  0  0
   -0.3025   -1.5111    0.1068 C   0  0  0  0  0  3  0  0  0  0  0  0
   -0.3644   -1.9427    1.1133 H   0  0  0  0  0  0  0  0  0  0  0  0
    0.8839   -1.4382   -0.6825 C   0  0  1  0  0  3  0  0  0  0  0  0
    0.5161   -0.7126   -1.8753 C   0  0  0  0  0  3  0  0  0  0  0  0
    1.1830   -0.4628   -2.7098 H   0  0  0  0  0  0  0  0  0  0  0  0
   -0.8682   -0.4055   -1.8107 C   0  0  0  0  0  0  0  0  0  0  0  0
   -1.4265    0.1548   -2.5697 H   0  0  0  0  0  0  0  0  0  0  0  0
   -1.3975   -0.8748   -0.5719 C   0  0  0  0  0  0  0  0  0  0  0  0
    2.2409    1.0457    1.4014 C   0  0  0  0  0  3  0  0  0  0  0  0
    2.1548    0.6043    2.4008 H   0  0  0  0  0  0  0  0  0  0  0  0
    1.8467    2.3742    1.0572 C   0  0  0  0  0  0  0  0  0  0  0  0
    1.4155    3.1146    1.7402 H   0  0  0  0  0  0  0  0  0  0  0  0
    2.0490    2.5391   -0.3350 C   0  0  0  0  0  0  0  0  0  0  0  0
    1.8162    3.4377   -0.9157 H   0  0  0  0  0  0  0  0  0  0  0  0
    2.5212    1.3060   -0.8591 C   0  0  0  0  0  3  0  0  0  0  0  0
    2.7601    1.1183   -1.9128 H   0  0  0  0  0  0  0  0  0  0  0  0
    2.6774    0.3652    0.2257 C   0  0  2  0  0  3  0  0  0  0  0  0
   -3.8167    0.9846    0.1657 C   0  0  0  0  0  0  0  0  0  0  0  0
   -3.2414    1.5182    0.9472 H   0  0  0  0  0  0  0  0  0  0  0  0
   -4.8930    0.9937    0.4362 H   0  0  0  0  0  0  0  0  0  0  0  0
   -3.6848    1.5396   -0.7839 H   0  0  0  0  0  0  0  0  0  0  0  0
   -3.3248   -1.7081    1.6576 C   0  0  0  0  0  0  0  0  0  0  0  0
   -2.6942   -1.2058    2.4183 H   0  0  0  0  0  0  0  0  0  0  0  0
   -2.9907   -2.7617    1.5608 H   0  0  0  0  0  0  0  0  0  0  0  0
   -4.3720   -1.7168    2.0236 H   0  0  0  0  0  0  0  0  0  0  0  0
   -4.2164   -1.6961   -1.3128 C   0  0  0  0  0  0  0  0  0  0  0  0
   -5.2916   -1.7155   -1.0381 H   0  0  0  0  0  0  0  0  0  0  0  0
   -3.8746   -2.7439   -1.4365 H   0  0  0  0  0  0  0  0  0  0  0  0
   -4.1294   -1.1909   -2.2969 H   0  0  0  0  0  0  0  0  0  0  0  0
    2.7429   -2.4191    1.6106 C   0  0  0  0  0  0  0  0  0  0  0  0
    2.5516   -3.5022    1.4699 H   0  0  0  0  0  0  0  0  0  0  0  0
    1.9880   -2.0271    2.3215 H   0  0  0  0  0  0  0  0  0  0  0  0
    3.7438   -2.3050    2.0737 H   0  0  0  0  0  0  0  0  0  0  0  0
    3.8969   -2.0978   -1.3030 C   0  0  0  0  0  0  0  0  0  0  0  0
    4.9333   -1.9729   -0.9287 H   0  0  0  0  0  0  0  0  0  0  0  0
    3.8054   -1.5272   -2.2489 H   0  0  0  0  0  0  0  0  0  0  0  0
    3.7394   -3.1705   -1.5363 H   0  0  0  0  0  0  0  0  0  0  0  0
  1 20  1  0  0  0  0
  1 24  1  0  0  0  0
  2 32  1  0  0  0  0
  3  4  1  0  0  0  0
  5  2  1  1  0  0  0
  5  3  1  0  0  0  0
  6  8  1  0  0  0  0
  6  5  1  0  0  0  0
  7  6  1  0  0  0  0
  8 10  2  0  0  0  0
  9  8  1  0  0  0  0
 10  1  1  0  0  0  0
 10  3  1  0  0  0  0
 11 12  1  0  0  0  0
 13 11  1  0  0  0  0
 13 14  1  0  0  0  0
 15 13  2  0  0  0  0
 16 15  1  0  0  0  0
 17 15  1  0  0  0  0
 17 19  1  0  0  0  0
 18 17  1  0  0  0  0
 19  2  1  6  0  0  0
 19 11  1  0  0  0  0
 20 22  1  0  0  0  0
 20 21  1  0  0  0  0
 23 20  1  0  0  0  0
 24 27  1  0  0  0  0
 24 25  1  0  0  0  0
 26 24  1  0  0  0  0
 28 29  1  0  0  0  0
 28  1  1  0  0  0  0
 30 28  1  0  0  0  0
 31 28  1  0  0  0  0
 32 35  1  0  0  0  0
 32 34  1  0  0  0  0
 33 32  1  0  0  0  0
 36 37  1  0  0  0  0
 36  2  1  0  0  0  0
 38 36  1  0  0  0  0
 39 36  1  0  0  0  0
M  END
