4,31
 OpenBabel05122313053D

 39 42  0  0  1  0  0  0  0  0999 V2000
    0.0893    3.2894    0.9811 O   0  0  0  0  0  0  0  0  0  0  0  0
   -1.1246    1.0803   -0.1847 N   0  0  0  0  0  0  0  0  0  0  0  0
   -2.8520    0.4355    1.0528 N   0  0  0  0  0  0  0  0  0  0  0  0
    0.2231    1.4355   -0.5843 C   0  0  0  0  0  3  0  0  0  0  0  0
    0.1976    1.6795   -1.6661 H   0  0  0  0  0  0  0  0  0  0  0  0
   -1.4913    0.7297    1.0787 C   0  0  1  0  0  3  0  0  0  0  0  0
   -3.4963   -0.0304    2.1790 C   0  0  0  0  0  0  0  0  0  0  0  0
   -4.5607   -0.2690    2.0633 H   0  0  0  0  0  0  0  0  0  0  0  0
   -2.7845   -0.1725    3.3499 C   0  0  0  0  0  0  0  0  0  0  0  0
   -3.3079   -0.5370    4.2442 H   0  0  0  0  0  0  0  0  0  0  0  0
   -1.3981    0.1519    3.4002 C   0  0  0  0  0  0  0  0  0  0  0  0
   -0.8481    0.0499    4.3462 H   0  0  0  0  0  0  0  0  0  0  0  0
   -0.7415    0.5980    2.2632 C   0  0  0  0  0  0  0  0  0  0  0  0
    0.3255    0.8520    2.2483 H   0  0  0  0  0  0  0  0  0  0  0  0
   -3.3391    0.6317   -0.2505 C   0  0  0  0  0  0  0  0  0  0  0  0
   -4.7284    0.4064   -0.6662 C   0  0  0  0  0  0  0  0  0  0  0  0
   -4.9868   -0.3137   -1.8550 C   0  0  0  0  0  0  0  0  0  0  0  0
   -4.1441   -0.7274   -2.4299 H   0  0  0  0  0  0  0  0  0  0  0  0
   -6.3025   -0.5106   -2.2934 C   0  0  0  0  0  0  0  0  0  0  0  0
   -6.4912   -1.0720   -3.2204 H   0  0  0  0  0  0  0  0  0  0  0  0
   -7.3773   -0.0002   -1.5479 C   0  0  0  0  0  0  0  0  0  0  0  0
   -8.4104   -0.1592   -1.8904 H   0  0  0  0  0  0  0  0  0  0  0  0
   -7.1310    0.7211   -0.3685 C   0  0  0  0  0  0  0  0  0  0  0  0
   -7.9697    1.1397    0.2072 H   0  0  0  0  0  0  0  0  0  0  0  0
   -5.8168    0.9309    0.0698 C   0  0  0  0  0  0  0  0  0  0  0  0
   -5.6344    1.5404    0.9678 H   0  0  0  0  0  0  0  0  0  0  0  0
   -2.2422    1.0362   -0.9907 C   0  0  0  0  0  0  0  0  0  0  0  0
   -2.1945    1.3227   -2.0456 H   0  0  0  0  0  0  0  0  0  0  0  0
    0.7645    2.6328    0.1941 C   0  0  0  0  0  0  0  0  0  0  0  0
    2.2012    2.8025   -0.1207 C   0  0  0  0  0  0  0  0  0  0  0  0
    2.8319    1.6099   -0.5604 C   0  0  0  0  0  3  0  0  0  0  0  0
    4.1924    1.6733   -0.9209 C   0  0  0  0  0  0  0  0  0  0  0  0
    4.7256    0.7826   -1.2869 H   0  0  0  0  0  0  0  0  0  0  0  0
    4.8829    2.8971   -0.8378 C   0  0  0  0  0  0  0  0  0  0  0  0
    5.9380    2.9428   -1.1507 H   0  0  0  0  0  0  0  0  0  0  0  0
    4.2499    4.0615   -0.3613 C   0  0  0  0  0  0  0  0  0  0  0  0
    4.8156    5.0021   -0.2864 H   0  0  0  0  0  0  0  0  0  0  0  0
    2.9007    4.0165    0.0087 C   0  0  0  0  0  0  0  0  0  0  0  0
    2.3757    4.9054    0.3914 H   0  0  0  0  0  0  0  0  0  0  0  0
  2  6  1  0  0  0  0
  3  6  1  0  0  0  0
  3  7  1  0  0  0  0
  4  2  1  0  0  0  0
  4 29  1  0  0  0  0
  5  4  1  0  0  0  0
  6 13  1  6  0  0  0
  7  9  2  0  0  0  0
  8  7  1  0  0  0  0
  9 11  1  0  0  0  0
  9 10  1  0  0  0  0
 11 12  1  0  0  0  0
 13 11  2  0  0  0  0
 14 13  1  0  0  0  0
 15  3  1  0  0  0  0
 16 15  1  0  0  0  0
 16 25  1  0  0  0  0
 17 16  2  0  0  0  0
 18 17  1  0  0  0  0
 19 17  1  0  0  0  0
 19 21  2  0  0  0  0
 20 19  1  0  0  0  0
 21 23  1  0  0  0  0
 22 21  1  0  0  0  0
 23 25  2  0  0  0  0
 23 24  1  0  0  0  0
 25 26  1  0  0  0  0
 27 15  2  0  0  0  0
 27  2  1  0  0  0  0
 28 27  1  0  0  0  0
 29  1  2  0  0  0  0
 30 38  1  0  0  0  0
 30 29  1  0  0  0  0
 31 30  2  0  0  0  0
 32 34  2  0  0  0  0
 32 31  1  0  0  0  0
 33 32  1  0  0  0  0
 34 36  1  0  0  0  0
 35 34  1  0  0  0  0
 36 37  1  0  0  0  0
 36 38  2  0  0  0  0
 38 39  1  0  0  0  0
M  END
