3,17
 OpenBabel05122313053D

 28 30  0  0  1  0  0  0  0  0999 V2000
    3.9599    2.6409   -0.7696 F   0  0  0  0  0  0  0  0  0  0  0  0
    6.3160    1.3103   -0.3804 F   0  0  0  0  0  0  0  0  0  0  0  0
    0.5205   -0.3307    1.3042 C   0  0  0  0  0  3  0  0  0  0  0  0
    0.5326    1.0326    0.9371 C   0  0  2  0  0  3  0  0  0  0  0  0
    1.3314    1.2483   -0.3706 C   0  0  1  0  0  0  0  0  0  0  0  0
    0.2691    2.1726    1.8754 C   0  0  0  0  0  0  0  0  0  0  0  0
    2.7239    0.6790   -0.1986 C   0  0  0  0  0  0  0  0  0  0  0  0
    3.9312    1.3498   -0.3933 C   0  0  0  0  0  0  0  0  0  0  0  0
    5.1525    0.6750   -0.1961 C   0  0  0  0  0  0  0  0  0  0  0  0
    0.2395   -0.6693    2.3119 H   0  0  0  0  0  0  0  0  0  0  0  0
    1.3291    2.3008   -0.6979 H   0  0  0  0  0  0  0  0  0  0  0  0
   -0.3705    1.8533    2.7210 H   0  0  0  0  0  0  0  0  0  0  0  0
   -0.2288    3.0160    1.3581 H   0  0  0  0  0  0  0  0  0  0  0  0
    1.2275    2.5551    2.2906 H   0  0  0  0  0  0  0  0  0  0  0  0
    3.9599   -2.6408    0.7696 F   0  0  0  0  0  0  0  0  0  0  0  0
    6.3160   -1.3102    0.3803 F   0  0  0  0  0  0  0  0  0  0  0  0
    0.5205    0.3308   -1.3041 C   0  0  0  0  0  3  0  0  0  0  0  0
    0.5326   -1.0326   -0.9371 C   0  0  2  0  0  3  0  0  0  0  0  0
    1.3314   -1.2483    0.3706 C   0  0  1  0  0  0  0  0  0  0  0  0
    0.2691   -2.1726   -1.8754 C   0  0  0  0  0  0  0  0  0  0  0  0
    2.7239   -0.6790    0.1986 C   0  0  0  0  0  0  0  0  0  0  0  0
    3.9312   -1.3497    0.3933 C   0  0  0  0  0  0  0  0  0  0  0  0
    5.1526   -0.6750    0.1961 C   0  0  0  0  0  0  0  0  0  0  0  0
    0.2395    0.6693   -2.3119 H   0  0  0  0  0  0  0  0  0  0  0  0
    1.3291   -2.3007    0.6979 H   0  0  0  0  0  0  0  0  0  0  0  0
   -0.3705   -1.8533   -2.7210 H   0  0  0  0  0  0  0  0  0  0  0  0
   -0.2288   -3.0160   -1.3581 H   0  0  0  0  0  0  0  0  0  0  0  0
    1.2275   -2.5551   -2.2905 H   0  0  0  0  0  0  0  0  0  0  0  0
  1  8  1  0  0  0  0
  2  9  1  0  0  0  0
  3 10  1  0  0  0  0
  4  3  1  0  0  0  0
  4  6  1  1  0  0  0
  5 11  1  6  0  0  0
  5  7  1  0  0  0  0
  5  4  1  0  0  0  0
  6 14  1  0  0  0  0
  6 12  1  0  0  0  0
  7 21  1  0  0  0  0
  8  7  2  0  0  0  0
  8  9  1  0  0  0  0
  9 23  2  0  0  0  0
 13  6  1  0  0  0  0
 17 18  1  0  0  0  0
 17  5  1  0  0  0  0
 18 20  1  6  0  0  0
 18 19  1  0  0  0  0
 19 25  1  1  0  0  0
 19  3  1  0  0  0  0
 20 27  1  0  0  0  0
 21 19  1  0  0  0  0
 21 22  2  0  0  0  0
 22 15  1  0  0  0  0
 23 16  1  0  0  0  0
 23 22  1  0  0  0  0
 24 17  1  0  0  0  0
 26 20  1  0  0  0  0
 28 20  1  0  0  0  0
M  END
