21,23
 OpenBabel05122313053D

 55 58  0  0  1  0  0  0  0  0999 V2000
    1.5095    0.1064    0.1308 P   0  0  0  0  0  0  0  0  0  0  0  0
    2.9121   -0.9979   -0.3301 C   0  0  0  0  0  0  0  0  0  0  0  0
    2.8541   -2.3404    0.1104 C   0  0  0  0  0  0  0  0  0  0  0  0
    3.8738   -3.2394   -0.2285 C   0  0  0  0  0  0  0  0  0  0  0  0
    4.9619   -2.8108   -1.0077 C   0  0  0  0  0  0  0  0  0  0  0  0
    5.0292   -1.4772   -1.4360 C   0  0  0  0  0  0  0  0  0  0  0  0
    4.0108   -0.5700   -1.0996 C   0  0  0  0  0  0  0  0  0  0  0  0
    2.1524    1.8228    0.0232 C   0  0  0  0  0  0  0  0  0  0  0  0
    2.4773    2.3742   -1.2373 C   0  0  0  0  0  0  0  0  0  0  0  0
    2.9309    3.6969   -1.3353 C   0  0  0  0  0  0  0  0  0  0  0  0
    3.0482    4.4885   -0.1805 C   0  0  0  0  0  0  0  0  0  0  0  0
    2.7094    3.9524    1.0706 C   0  0  0  0  0  0  0  0  0  0  0  0
    2.2639    2.6248    1.1772 C   0  0  0  0  0  0  0  0  0  0  0  0
    1.2619   -0.2815    1.8968 C   0  0  0  0  0  0  0  0  0  0  0  0
    2.3157   -0.4309    2.8182 C   0  0  0  0  0  0  0  0  0  0  0  0
    2.0363   -0.8744    4.1183 C   0  0  0  0  0  0  0  0  0  0  0  0
    0.7135   -1.1847    4.4823 C   0  0  0  0  0  0  0  0  0  0  0  0
   -0.3341   -1.0318    3.5630 C   0  0  0  0  0  0  0  0  0  0  0  0
   -0.0750   -0.5609    2.2590 C   0  0  0  0  0  0  0  0  0  0  0  0
   -1.1647   -0.3089    1.2835 C   0  0  0  0  0  3  0  0  0  0  0  0
   -1.3449    1.0227    0.7381 C   0  0  0  0  0  3  0  0  0  0  0  0
   -2.4641    1.0730   -0.2183 C   0  0  1  0  0  3  0  0  0  0  0  0
   -2.0909    1.5134   -1.5259 C   0  0  0  0  0  3  0  0  0  0  0  0
   -0.7556    2.0863   -1.7895 C   0  0  0  0  0  0  0  0  0  0  0  0
   -3.8332    0.6104    0.1201 C   0  0  0  0  0  0  0  0  0  0  0  0
   -4.2594    0.6445    1.4678 C   0  0  0  0  0  0  0  0  0  0  0  0
   -5.5530    0.2372    1.8238 C   0  0  0  0  0  0  0  0  0  0  0  0
   -6.4503   -0.2044    0.8402 C   0  0  0  0  0  0  0  0  0  0  0  0
   -6.0463   -0.2293   -0.5056 C   0  0  0  0  0  0  0  0  0  0  0  0
   -4.7539    0.1741   -0.8619 C   0  0  0  0  0  0  0  0  0  0  0  0
    2.0151   -2.6795    0.7378 H   0  0  0  0  0  0  0  0  0  0  0  0
    3.8224   -4.2799    0.1252 H   0  0  0  0  0  0  0  0  0  0  0  0
    5.7633   -3.5168   -1.2714 H   0  0  0  0  0  0  0  0  0  0  0  0
    5.8872   -1.1306   -2.0311 H   0  0  0  0  0  0  0  0  0  0  0  0
    4.0947    0.4768   -1.4219 H   0  0  0  0  0  0  0  0  0  0  0  0
    2.3697    1.7718   -2.1536 H   0  0  0  0  0  0  0  0  0  0  0  0
    3.1899    4.1138   -2.3200 H   0  0  0  0  0  0  0  0  0  0  0  0
    3.4003    5.5277   -0.2588 H   0  0  0  0  0  0  0  0  0  0  0  0
    2.7935    4.5699    1.9772 H   0  0  0  0  0  0  0  0  0  0  0  0
    2.0049    2.2119    2.1632 H   0  0  0  0  0  0  0  0  0  0  0  0
    3.3536   -0.2314    2.5103 H   0  0  0  0  0  0  0  0  0  0  0  0
    2.8538   -1.0010    4.8433 H   0  0  0  0  0  0  0  0  0  0  0  0
    0.4978   -1.5526    5.4966 H   0  0  0  0  0  0  0  0  0  0  0  0
   -1.3683   -1.2677    3.8571 H   0  0  0  0  0  0  0  0  0  0  0  0
   -3.5705    1.0189    2.2393 H   0  0  0  0  0  0  0  0  0  0  0  0
   -5.8658    0.2773    2.8779 H   0  0  0  0  0  0  0  0  0  0  0  0
   -7.4664   -0.5211    1.1181 H   0  0  0  0  0  0  0  0  0  0  0  0
   -6.7460   -0.5665   -1.2849 H   0  0  0  0  0  0  0  0  0  0  0  0
   -4.4603    0.1404   -1.9215 H   0  0  0  0  0  0  0  0  0  0  0  0
   -2.0766   -0.9090    1.4443 H   0  0  0  0  0  0  0  0  0  0  0  0
   -0.7605    1.9040    1.0577 H   0  0  0  0  0  0  0  0  0  0  0  0
   -2.8253    1.4941   -2.3437 H   0  0  0  0  0  0  0  0  0  0  0  0
    0.1369    1.2606   -1.7880 H   0  0  0  0  0  0  0  0  0  0  0  0
   -0.6480    2.4479   -2.8285 H   0  0  0  0  0  0  0  0  0  0  0  0
   -0.3795    2.8355   -1.0685 H   0  0  0  0  0  0  0  0  0  0  0  0
  1 14  1  0  0  0  0
  2  3  1  0  0  0  0
  2  1  1  0  0  0  0
  3 31  1  0  0  0  0
  4  3  2  0  0  0  0
  4 32  1  0  0  0  0
  5  4  1  0  0  0  0
  6  7  1  0  0  0  0
  6  5  2  0  0  0  0
  7  2  2  0  0  0  0
  8  1  1  0  0  0  0
  8 13  1  0  0  0  0
  9  8  2  0  0  0  0
 10  9  1  0  0  0  0
 10 11  2  0  0  0  0
 11 12  1  0  0  0  0
 12 13  2  0  0  0  0
 12 39  1  0  0  0  0
 13 40  1  0  0  0  0
 14 19  2  0  0  0  0
 14 15  1  0  0  0  0
 15 16  2  0  0  0  0
 16 17  1  0  0  0  0
 16 42  1  0  0  0  0
 17 43  1  0  0  0  0
 18 44  1  0  0  0  0
 18 17  2  0  0  0  0
 19 18  1  0  0  0  0
 20 50  1  0  0  0  0
 20 19  1  0  0  0  0
 21 51  1  0  0  0  0
 21 20  1  0  0  0  0
 22 23  1  6  0  0  0
 22 25  1  0  0  0  0
 22 21  1  0  0  0  0
 24 53  1  0  0  0  0
 24 23  1  0  0  0  0
 24 55  1  0  0  0  0
 25 26  1  0  0  0  0
 26 27  2  0  0  0  0
 26 45  1  0  0  0  0
 27 46  1  0  0  0  0
 28 47  1  0  0  0  0
 28 27  1  0  0  0  0
 29 28  2  0  0  0  0
 30 29  1  0  0  0  0
 30 25  2  0  0  0  0
 33  5  1  0  0  0  0
 34  6  1  0  0  0  0
 35  7  1  0  0  0  0
 36  9  1  0  0  0  0
 37 10  1  0  0  0  0
 38 11  1  0  0  0  0
 41 15  1  0  0  0  0
 48 29  1  0  0  0  0
 49 30  1  0  0  0  0
 52 23  1  0  0  0  0
 54 24  1  0  0  0  0
M  END
