4,17
 OpenBabel05122313053D

 44 46  0  0  0  0  0  0  0  0999 V2000
   -5.5636   -2.1088   -0.9026 O   0  0  0  0  0  0  0  0  0  0  0  0
   -0.2676   -1.7514    0.6927 N   0  0  0  0  0  0  0  0  0  0  0  0
    1.5663   -0.5898    0.6687 N   0  0  0  0  0  0  0  0  0  0  0  0
   -2.2033   -0.8100   -0.2567 C   0  0  0  0  0  3  0  0  0  0  0  0
   -3.5347   -0.9379   -0.6752 C   0  0  0  0  0  0  0  0  0  0  0  0
   -4.0512   -0.1291   -1.2120 H   0  0  0  0  0  0  0  0  0  0  0  0
   -4.2717   -2.1264   -0.4551 C   0  0  0  0  0  0  0  0  0  0  0  0
   -3.6728   -3.2298    0.1861 C   0  0  0  0  0  0  0  0  0  0  0  0
   -4.2271   -4.1599    0.3643 H   0  0  0  0  0  0  0  0  0  0  0  0
   -2.3295   -3.1375    0.5920 C   0  0  0  0  0  0  0  0  0  0  0  0
   -1.8475   -4.0005    1.0763 H   0  0  0  0  0  0  0  0  0  0  0  0
   -1.6275   -1.9533    0.3646 C   0  0  0  0  0  0  0  0  0  0  0  0
    0.7293   -2.5928    1.1614 C   0  0  0  0  0  0  0  0  0  0  0  0
    0.5480   -3.6323    1.4460 H   0  0  0  0  0  0  0  0  0  0  0  0
    1.8898   -1.8585    1.1471 C   0  0  0  0  0  0  0  0  0  0  0  0
    2.9159   -2.1317    1.4071 H   0  0  0  0  0  0  0  0  0  0  0  0
    0.2301   -0.5082    0.3858 C   0  0  0  0  0  2  0  0  0  0  0  0
   -6.3452   -3.2714   -0.7330 C   0  0  0  0  0  0  0  0  0  0  0  0
   -5.9086   -4.1499   -1.2613 H   0  0  0  0  0  0  0  0  0  0  0  0
   -7.3386   -3.0511   -1.1673 H   0  0  0  0  0  0  0  0  0  0  0  0
   -6.4740   -3.5372    0.3416 H   0  0  0  0  0  0  0  0  0  0  0  0
    2.5158    0.5127    0.4568 C   0  0  0  0  0  0  0  0  0  0  0  0
    2.4488    1.2046    1.3202 H   0  0  0  0  0  0  0  0  0  0  0  0
    2.1430    1.0592   -0.4297 H   0  0  0  0  0  0  0  0  0  0  0  0
    3.9320    0.0286    0.2605 C   0  0  0  0  0  0  0  0  0  0  0  0
    4.3537   -0.3913   -1.0295 C   0  0  0  0  0  0  0  0  0  0  0  0
    5.6630   -0.8777   -1.1869 C   0  0  0  0  0  0  0  0  0  0  0  0
    5.9873   -1.2054   -2.1881 H   0  0  0  0  0  0  0  0  0  0  0  0
    6.5660   -0.9599   -0.1104 C   0  0  0  0  0  0  0  0  0  0  0  0
    6.1240   -0.5385    1.1550 C   0  0  0  0  0  0  0  0  0  0  0  0
    6.8132   -0.5976    2.0131 H   0  0  0  0  0  0  0  0  0  0  0  0
    4.8209   -0.0467    1.3617 C   0  0  0  0  0  0  0  0  0  0  0  0
    4.3978    0.3808    2.7489 C   0  0  0  0  0  0  0  0  0  0  0  0
    4.1634    1.4656    2.7944 H   0  0  0  0  0  0  0  0  0  0  0  0
    5.2012    0.1872    3.4848 H   0  0  0  0  0  0  0  0  0  0  0  0
    3.4901   -0.1563    3.0952 H   0  0  0  0  0  0  0  0  0  0  0  0
    3.4290   -0.3098   -2.2172 C   0  0  0  0  0  0  0  0  0  0  0  0
    2.4434   -0.7883   -2.0434 H   0  0  0  0  0  0  0  0  0  0  0  0
    3.8865   -0.7757   -3.1103 H   0  0  0  0  0  0  0  0  0  0  0  0
    3.1957    0.7450   -2.4775 H   0  0  0  0  0  0  0  0  0  0  0  0
    7.9670   -1.4770   -0.3204 C   0  0  0  0  0  0  0  0  0  0  0  0
    7.9618   -2.4634   -0.8284 H   0  0  0  0  0  0  0  0  0  0  0  0
    8.5115   -1.5876    0.6372 H   0  0  0  0  0  0  0  0  0  0  0  0
    8.5550   -0.7897   -0.9648 H   0  0  0  0  0  0  0  0  0  0  0  0
  1 18  1  0  0  0  0
  1  7  1  0  0  0  0
  2 13  1  0  0  0  0
  3 15  1  0  0  0  0
  4 12  1  0  0  0  0
  5  7  1  0  0  0  0
  5  4  2  0  0  0  0
  6  5  1  0  0  0  0
  7  8  2  0  0  0  0
  8  9  1  0  0  0  0
  8 10  1  0  0  0  0
 10 11  1  0  0  0  0
 12 10  2  0  0  0  0
 12  2  1  0  0  0  0
 13 14  1  0  0  0  0
 15 13  2  0  0  0  0
 15 16  1  0  0  0  0
 17  3  1  0  0  0  0
 17  2  1  0  0  0  0
 18 21  1  0  0  0  0
 19 18  1  0  0  0  0
 20 18  1  0  0  0  0
 22  3  1  0  0  0  0
 22 23  1  0  0  0  0
 24 22  1  0  0  0  0
 25 22  1  0  0  0  0
 25 32  1  0  0  0  0
 26 25  2  0  0  0  0
 27 26  1  0  0  0  0
 27 29  2  0  0  0  0
 28 27  1  0  0  0  0
 29 30  1  0  0  0  0
 30 32  2  0  0  0  0
 30 31  1  0  0  0  0
 32 33  1  0  0  0  0
 33 34  1  0  0  0  0
 33 36  1  0  0  0  0
 33 35  1  0  0  0  0
 37 38  1  0  0  0  0
 37 26  1  0  0  0  0
 39 37  1  0  0  0  0
 40 37  1  0  0  0  0
 41 29  1  0  0  0  0
 41 43  1  0  0  0  0
 42 41  1  0  0  0  0
 44 41  1  0  0  0  0
M  END
