4,10
 OpenBabel05122313053D

 40 42  0  0  0  0  0  0  0  0999 V2000
    5.8612   -1.8774   -0.5622 Br  0  0  0  0  0  0  0  0  0  0  0  0
   -0.0202   -1.5822    0.9025 N   0  0  0  0  0  0  0  0  0  0  0  0
   -1.9120   -0.5342    0.7184 N   0  0  0  0  0  0  0  0  0  0  0  0
   -0.5740   -0.3987    0.4727 C   0  0  0  0  0  2  0  0  0  0  0  0
   -0.9865   -2.4381    1.4097 C   0  0  0  0  0  0  0  0  0  0  0  0
   -0.7600   -3.4375    1.7896 H   0  0  0  0  0  0  0  0  0  0  0  0
   -2.1828   -1.7754    1.2938 C   0  0  0  0  0  0  0  0  0  0  0  0
   -3.2014   -2.0839    1.5435 H   0  0  0  0  0  0  0  0  0  0  0  0
    1.3570   -1.7341    0.6326 C   0  0  0  0  0  0  0  0  0  0  0  0
    1.8878   -0.6178   -0.0676 C   0  0  0  0  0  3  0  0  0  0  0  0
    3.2445   -0.7023   -0.4358 C   0  0  0  0  0  0  0  0  0  0  0  0
    3.7166    0.0939   -1.0276 H   0  0  0  0  0  0  0  0  0  0  0  0
    4.0138   -1.8226   -0.0711 C   0  0  0  0  0  0  0  0  0  0  0  0
    3.4692   -2.9012    0.6427 C   0  0  0  0  0  0  0  0  0  0  0  0
    4.0921   -3.7643    0.9127 H   0  0  0  0  0  0  0  0  0  0  0  0
    2.1103   -2.8568    0.9917 C   0  0  0  0  0  0  0  0  0  0  0  0
    1.6570   -3.6994    1.5355 H   0  0  0  0  0  0  0  0  0  0  0  0
   -2.9155    0.4866    0.3780 C   0  0  0  0  0  0  0  0  0  0  0  0
   -2.5442    0.9720   -0.5439 H   0  0  0  0  0  0  0  0  0  0  0  0
   -2.9174    1.2551    1.1765 H   0  0  0  0  0  0  0  0  0  0  0  0
   -4.2940   -0.0974    0.1864 C   0  0  0  0  0  0  0  0  0  0  0  0
   -4.6478   -0.6541   -1.0718 C   0  0  0  0  0  0  0  0  0  0  0  0
   -5.9206   -1.2313   -1.2207 C   0  0  0  0  0  0  0  0  0  0  0  0
   -6.1922   -1.6655   -2.1968 H   0  0  0  0  0  0  0  0  0  0  0  0
   -6.8522   -1.2730   -0.1665 C   0  0  0  0  0  0  0  0  0  0  0  0
   -6.4772   -0.7158    1.0678 C   0  0  0  0  0  0  0  0  0  0  0  0
   -7.1895   -0.7413    1.9085 H   0  0  0  0  0  0  0  0  0  0  0  0
   -5.2127   -0.1290    1.2653 C   0  0  0  0  0  0  0  0  0  0  0  0
   -3.6909   -0.6218   -2.2362 C   0  0  0  0  0  0  0  0  0  0  0  0
   -3.5100    0.4181   -2.5833 H   0  0  0  0  0  0  0  0  0  0  0  0
   -4.0919   -1.1905   -3.0964 H   0  0  0  0  0  0  0  0  0  0  0  0
   -2.6862   -1.0247   -1.9936 H   0  0  0  0  0  0  0  0  0  0  0  0
   -8.2148   -1.8868   -0.3683 C   0  0  0  0  0  0  0  0  0  0  0  0
   -8.1412   -2.8929   -0.8296 H   0  0  0  0  0  0  0  0  0  0  0  0
   -8.8346   -1.2674   -1.0509 H   0  0  0  0  0  0  0  0  0  0  0  0
   -8.7660   -1.9859    0.5867 H   0  0  0  0  0  0  0  0  0  0  0  0
   -4.8611    0.4441    2.6194 C   0  0  0  0  0  0  0  0  0  0  0  0
   -5.6765    0.2695    3.3467 H   0  0  0  0  0  0  0  0  0  0  0  0
   -4.6900    1.5407    2.5732 H   0  0  0  0  0  0  0  0  0  0  0  0
   -3.9369   -0.0054    3.0392 H   0  0  0  0  0  0  0  0  0  0  0  0
  1 13  1  0  0  0  0
  2  5  1  0  0  0  0
  3  7  1  0  0  0  0
  4  3  1  0  0  0  0
  4  2  1  0  0  0  0
  5  6  1  0  0  0  0
  7  5  2  0  0  0  0
  7  8  1  0  0  0  0
  9  2  1  0  0  0  0
  9 16  1  0  0  0  0
 10  9  2  0  0  0  0
 11 13  2  0  0  0  0
 11 10  1  0  0  0  0
 12 11  1  0  0  0  0
 13 14  1  0  0  0  0
 14 15  1  0  0  0  0
 14 16  2  0  0  0  0
 16 17  1  0  0  0  0
 18  3  1  0  0  0  0
 18 20  1  0  0  0  0
 19 18  1  0  0  0  0
 21 18  1  0  0  0  0
 21 28  1  0  0  0  0
 22 21  2  0  0  0  0
 23 22  1  0  0  0  0
 23 25  2  0  0  0  0
 24 23  1  0  0  0  0
 25 26  1  0  0  0  0
 26 28  2  0  0  0  0
 26 27  1  0  0  0  0
 28 37  1  0  0  0  0
 29 32  1  0  0  0  0
 29 22  1  0  0  0  0
 30 29  1  0  0  0  0
 31 29  1  0  0  0  0
 33 25  1  0  0  0  0
 33 36  1  0  0  0  0
 34 33  1  0  0  0  0
 35 33  1  0  0  0  0
 37 40  1  0  0  0  0
 37 38  1  0  0  0  0
 39 37  1  0  0  0  0
M  END
