4,14
 OpenBabel05122313053D

 44 46  0  0  1  0  0  0  0  0999 V2000
   -6.0561    0.1709    0.0939 Br  0  0  0  0  0  0  0  0  0  0  0  0
    2.6008    2.2843   -0.0815 O   0  0  0  0  0  0  0  0  0  0  0  0
    2.8894    0.0101    0.1614 O   0  0  0  0  0  0  0  0  0  0  0  0
    0.5223    0.5638    0.0797 C   0  0  0  0  0  3  0  0  0  0  0  0
   -0.7242    1.1373    0.0502 C   0  0  2  0  0  3  0  0  0  0  0  0
   -1.8607    0.1874   -0.0066 C   0  0  0  0  0  0  0  0  0  0  0  0
   -3.2154    0.5908    0.0608 C   0  0  0  0  0  0  0  0  0  0  0  0
   -3.4788    1.6522    0.1686 H   0  0  0  0  0  0  0  0  0  0  0  0
   -4.2265   -0.3760    0.0060 C   0  0  0  0  0  0  0  0  0  0  0  0
   -3.9183   -1.7397   -0.1096 C   0  0  0  0  0  0  0  0  0  0  0  0
   -4.7236   -2.4872   -0.1584 H   0  0  0  0  0  0  0  0  0  0  0  0
   -2.5646   -2.1249   -0.1484 C   0  0  0  0  0  0  0  0  0  0  0  0
   -2.3504   -3.2058   -0.2272 H   0  0  0  0  0  0  0  0  0  0  0  0
   -1.5069   -1.1983   -0.0884 C   0  0  0  0  0  3  0  0  0  0  0  0
    4.0111    2.0143   -0.3217 C   0  0  0  0  0  0  0  0  0  0  0  0
    4.2134    0.5901    0.3391 C   0  0  0  0  0  0  0  0  0  0  0  0
    4.8348    3.1316    0.3104 C   0  0  0  0  0  0  0  0  0  0  0  0
    5.9197    2.9207    0.2234 H   0  0  0  0  0  0  0  0  0  0  0  0
    4.6270    4.0854   -0.2124 H   0  0  0  0  0  0  0  0  0  0  0  0
    4.5827    3.2696    1.3776 H   0  0  0  0  0  0  0  0  0  0  0  0
    4.2073    1.9959   -1.8423 C   0  0  0  0  0  0  0  0  0  0  0  0
    5.2745    1.8945   -2.1209 H   0  0  0  0  0  0  0  0  0  0  0  0
    3.6389    1.1677   -2.3102 H   0  0  0  0  0  0  0  0  0  0  0  0
    3.8254    2.9472   -2.2601 H   0  0  0  0  0  0  0  0  0  0  0  0
    4.4739    0.6686    1.8479 C   0  0  0  0  0  0  0  0  0  0  0  0
    5.4823    1.0697    2.0672 H   0  0  0  0  0  0  0  0  0  0  0  0
    3.7234    1.3114    2.3480 H   0  0  0  0  0  0  0  0  0  0  0  0
    4.4055   -0.3450    2.2881 H   0  0  0  0  0  0  0  0  0  0  0  0
    5.2568   -0.2917   -0.3373 C   0  0  0  0  0  0  0  0  0  0  0  0
    6.2635    0.1638   -0.2514 H   0  0  0  0  0  0  0  0  0  0  0  0
    5.2901   -1.2838    0.1553 H   0  0  0  0  0  0  0  0  0  0  0  0
    5.0383   -0.4459   -1.4095 H   0  0  0  0  0  0  0  0  0  0  0  0
   -0.9388    2.6104    0.0644 C   0  0  0  0  0  0  0  0  0  0  0  0
   -0.2840    3.4182    1.0203 C   0  0  0  0  0  0  0  0  0  0  0  0
    0.3502    2.9319    1.7762 H   0  0  0  0  0  0  0  0  0  0  0  0
   -0.4383    4.8104    1.0148 C   0  0  0  0  0  0  0  0  0  0  0  0
    0.0746    5.4197    1.7749 H   0  0  0  0  0  0  0  0  0  0  0  0
   -1.2436    5.4284    0.0442 C   0  0  0  0  0  0  0  0  0  0  0  0
   -1.3642    6.5225    0.0383 H   0  0  0  0  0  0  0  0  0  0  0  0
   -1.8928    4.6407   -0.9197 C   0  0  0  0  0  0  0  0  0  0  0  0
   -2.5170    5.1165   -1.6917 H   0  0  0  0  0  0  0  0  0  0  0  0
   -1.7489    3.2460   -0.9060 C   0  0  0  0  0  0  0  0  0  0  0  0
   -2.2490    2.6367   -1.6738 H   0  0  0  0  0  0  0  0  0  0  0  0
    1.9546    1.0734    0.0621 B   0  0  0  0  0  0  0  0  0  0  0  0
  2 44  1  0  0  0  0
  3 16  1  0  0  0  0
  5 33  1  0  0  0  0
  5  4  1  6  0  0  0
  6  5  1  0  0  0  0
  6  7  1  0  0  0  0
  7  8  1  0  0  0  0
  9  7  2  0  0  0  0
  9  1  1  0  0  0  0
 10  9  1  0  0  0  0
 11 10  1  0  0  0  0
 12 10  2  0  0  0  0
 12 14  1  0  0  0  0
 13 12  1  0  0  0  0
 14  6  2  0  0  0  0
 15  2  1  0  0  0  0
 15 17  1  0  0  0  0
 15 16  1  0  0  0  0
 16 25  1  0  0  0  0
 17 20  1  0  0  0  0
 18 17  1  0  0  0  0
 19 17  1  0  0  0  0
 21 15  1  0  0  0  0
 22 21  1  0  0  0  0
 23 21  1  0  0  0  0
 24 21  1  0  0  0  0
 25 26  1  0  0  0  0
 25 28  1  0  0  0  0
 25 27  1  0  0  0  0
 29 30  1  0  0  0  0
 29 31  1  0  0  0  0
 29 16  1  0  0  0  0
 32 29  1  0  0  0  0
 33 34  1  0  0  0  0
 34 35  1  0  0  0  0
 36 34  2  0  0  0  0
 36 37  1  0  0  0  0
 38 36  1  0  0  0  0
 39 38  1  0  0  0  0
 40 42  1  0  0  0  0
 40 38  2  0  0  0  0
 41 40  1  0  0  0  0
 42 33  2  0  0  0  0
 43 42  1  0  0  0  0
 44  4  2  0  0  0  0
 44  3  1  0  0  0  0
M  END
