1,19
 OpenBabel05122313053D

 30 32  0  0  1  0  0  0  0  0999 V2000
    1.5262   -1.3433   -0.3463 C   0  0  0  0  0  3  0  0  0  0  0  0
    1.3548   -1.9035   -1.2936 H   0  0  0  0  0  0  0  0  0  0  0  0
    1.4465   -2.2591    0.8993 C   0  0  1  0  0  0  0  0  0  0  0  0
    0.4192   -2.5447    1.2012 H   0  0  0  0  0  0  0  0  0  0  0  0
    2.3819   -3.4801    0.6798 C   0  0  0  0  0  0  0  0  0  0  0  0
    2.1929   -4.2647    1.4422 H   0  0  0  0  0  0  0  0  0  0  0  0
    2.2221   -3.9460   -0.3146 H   0  0  0  0  0  0  0  0  0  0  0  0
    3.8086   -2.8656    0.8360 C   0  0  0  0  0  0  0  0  0  0  0  0
    4.3405   -3.3038    1.7053 H   0  0  0  0  0  0  0  0  0  0  0  0
    4.4486   -3.0253   -0.0559 H   0  0  0  0  0  0  0  0  0  0  0  0
    3.5159   -1.3682    1.0736 C   0  0  1  0  0  0  0  0  0  0  0  0
    4.3641   -0.8059    1.5086 H   0  0  0  0  0  0  0  0  0  0  0  0
    2.9849   -0.7706   -0.2696 C   0  0  2  0  0  0  0  0  0  0  0  0
    3.6152   -1.1686   -1.0983 H   0  0  0  0  0  0  0  0  0  0  0  0
    2.2417   -1.4385    1.9359 C   0  0  0  0  0  0  0  0  0  0  0  0
    1.7872   -0.4464    2.1294 H   0  0  0  0  0  0  0  0  0  0  0  0
    2.3998   -1.9701    2.8979 H   0  0  0  0  0  0  0  0  0  0  0  0
    2.9482    0.7266   -0.3647 C   0  0  0  0  0  0  0  0  0  0  0  0
    1.6480    1.3140   -0.3581 C   0  0  0  0  0  3  0  0  0  0  0  0
    1.5482    2.7077   -0.5707 C   0  0  0  0  0  0  0  0  0  0  0  0
    0.5627    3.1903   -0.6605 H   0  0  0  0  0  0  0  0  0  0  0  0
    2.6947    3.5019   -0.7293 C   0  0  0  0  0  0  0  0  0  0  0  0
    2.5970    4.5868   -0.8965 H   0  0  0  0  0  0  0  0  0  0  0  0
    3.9660    2.9109   -0.6997 C   0  0  0  0  0  0  0  0  0  0  0  0
    4.8657    3.5334   -0.8350 H   0  0  0  0  0  0  0  0  0  0  0  0
    4.1127    1.5197   -0.5349 C   0  0  0  0  0  0  0  0  0  0  0  0
    5.4861    0.8948   -0.5828 C   0  0  0  0  0  0  0  0  0  0  0  0
    6.2605    1.6426   -0.8435 H   0  0  0  0  0  0  0  0  0  0  0  0
    5.5350    0.0763   -1.3324 H   0  0  0  0  0  0  0  0  0  0  0  0
    5.7728    0.4387    0.3879 H   0  0  0  0  0  0  0  0  0  0  0  0
  1 13  1  0  0  0  0
  1  3  1  0  0  0  0
  2  1  1  0  0  0  0
  3  4  1  1  0  0  0
  3 15  1  0  0  0  0
  5  8  1  0  0  0  0
  5  3  1  0  0  0  0
  5  6  1  0  0  0  0
  7  5  1  0  0  0  0
  8 11  1  0  0  0  0
  8  9  1  0  0  0  0
 10  8  1  0  0  0  0
 11 12  1  1  0  0  0
 11 15  1  0  0  0  0
 13 14  1  6  0  0  0
 13 11  1  0  0  0  0
 15 16  1  0  0  0  0
 15 17  1  0  0  0  0
 18 19  1  0  0  0  0
 18 13  1  0  0  0  0
 20 19  2  0  0  0  0
 21 20  1  0  0  0  0
 22 24  2  0  0  0  0
 22 20  1  0  0  0  0
 23 22  1  0  0  0  0
 24 26  1  0  0  0  0
 25 24  1  0  0  0  0
 26 18  2  0  0  0  0
 27 26  1  0  0  0  0
 27 30  1  0  0  0  0
 28 27  1  0  0  0  0
 29 27  1  0  0  0  0
M  END
