6,8
 OpenBabel05122313053D

 43 46  0  0  1  0  0  0  0  0999 V2000
   -2.3247    4.3356    0.4707 O   0  0  0  0  0  0  0  0  0  0  0  0
   -1.2100    0.3484    0.0991 N   0  0  2  0  0  0  0  0  0  0  0  0
    1.0990    1.0387   -0.5062 C   0  0  0  0  0  0  0  0  0  0  0  0
    2.3604    1.6312   -0.1294 C   0  0  0  0  0  0  0  0  0  0  0  0
    3.5287    1.2897   -0.8715 C   0  0  0  0  0  3  0  0  0  0  0  0
    3.4738    0.3472   -1.9399 C   0  0  0  0  0  3  0  0  0  0  0  0
    2.2394   -0.2390   -2.3108 C   0  0  0  0  0  3  0  0  0  0  0  0
    1.0692    0.0981   -1.5716 C   0  0  0  0  0  3  0  0  0  0  0  0
   -0.2095    1.4212    0.1829 C   0  0  1  0  0  0  0  0  0  0  0  0
   -0.7236    2.7557   -0.4040 C   0  0  0  0  0  0  0  0  0  0  0  0
   -2.0600    3.1776    0.1996 C   0  0  0  0  0  0  0  0  0  0  0  0
   -3.0270    2.0221    0.4113 C   0  0  0  0  0  0  0  0  0  0  0  0
   -2.5471    0.7627   -0.3483 C   0  0  2  0  0  0  0  0  0  0  0  0
   -3.5590   -0.3705   -0.2917 C   0  0  0  0  0  0  0  0  0  0  0  0
   -4.8115   -0.1900   -0.9146 C   0  0  0  0  0  0  0  0  0  0  0  0
   -5.7851   -1.1944   -0.8877 C   0  0  0  0  0  0  0  0  0  0  0  0
   -5.5128   -2.4064   -0.2307 C   0  0  0  0  0  0  0  0  0  0  0  0
   -4.2703   -2.5952    0.3841 C   0  0  0  0  0  0  0  0  0  0  0  0
   -3.2811   -1.5903    0.3624 C   0  0  0  0  0  0  0  0  0  0  0  0
   -1.9339   -1.8147    1.0023 C   0  0  0  0  0  0  0  0  0  0  0  0
   -1.2207   -0.5005    1.2888 C   0  0  0  0  0  0  0  0  0  0  0  0
    2.4732    2.6154    1.0064 C   0  0  0  0  0  0  0  0  0  0  0  0
    4.4965    1.7114   -0.5673 H   0  0  0  0  0  0  0  0  0  0  0  0
    4.4001    0.0549   -2.4542 H   0  0  0  0  0  0  0  0  0  0  0  0
    2.1955   -0.9944   -3.1065 H   0  0  0  0  0  0  0  0  0  0  0  0
    0.1047   -0.3918   -1.7703 H   0  0  0  0  0  0  0  0  0  0  0  0
    0.0194    1.6209    1.2559 H   0  0  0  0  0  0  0  0  0  0  0  0
    0.0065    3.5722   -0.2567 H   0  0  0  0  0  0  0  0  0  0  0  0
   -0.8663    2.6438   -1.5016 H   0  0  0  0  0  0  0  0  0  0  0  0
   -3.0751    1.8041    1.5018 H   0  0  0  0  0  0  0  0  0  0  0  0
   -4.0462    2.3496    0.1238 H   0  0  0  0  0  0  0  0  0  0  0  0
   -2.4644    1.0412   -1.4230 H   0  0  0  0  0  0  0  0  0  0  0  0
   -5.0235    0.7569   -1.4374 H   0  0  0  0  0  0  0  0  0  0  0  0
   -6.7554   -1.0343   -1.3813 H   0  0  0  0  0  0  0  0  0  0  0  0
   -6.2707   -3.2037   -0.2000 H   0  0  0  0  0  0  0  0  0  0  0  0
   -4.0497   -3.5446    0.8980 H   0  0  0  0  0  0  0  0  0  0  0  0
   -2.0465   -2.3966    1.9405 H   0  0  0  0  0  0  0  0  0  0  0  0
   -1.2996   -2.4315    0.3303 H   0  0  0  0  0  0  0  0  0  0  0  0
   -1.7045    0.0137    2.1623 H   0  0  0  0  0  0  0  0  0  0  0  0
   -0.1705   -0.6963    1.5774 H   0  0  0  0  0  0  0  0  0  0  0  0
    3.5269    2.7232    1.3243 H   0  0  0  0  0  0  0  0  0  0  0  0
    2.1071    3.6170    0.6987 H   0  0  0  0  0  0  0  0  0  0  0  0
    1.8870    2.3033    1.8915 H   0  0  0  0  0  0  0  0  0  0  0  0
  2  9  1  0  0  0  0
  2 21  1  1  0  0  0
  3  4  2  0  0  0  0
  3  9  1  0  0  0  0
  4 22  1  0  0  0  0
  5 23  1  0  0  0  0
  5  4  1  0  0  0  0
  6  5  1  0  0  0  0
  7  6  1  0  0  0  0
  7  8  1  0  0  0  0
  8  3  1  0  0  0  0
  9 27  1  1  0  0  0
 10 28  1  0  0  0  0
 10  9  1  0  0  0  0
 10 11  1  0  0  0  0
 11 12  1  0  0  0  0
 11  1  2  0  0  0  0
 12 30  1  0  0  0  0
 13 32  1  6  0  0  0
 13 14  1  0  0  0  0
 13  2  1  0  0  0  0
 13 12  1  0  0  0  0
 14 19  1  0  0  0  0
 15 16  1  0  0  0  0
 15 14  2  0  0  0  0
 16 17  2  0  0  0  0
 17 35  1  0  0  0  0
 17 18  1  0  0  0  0
 18 36  1  0  0  0  0
 19 18  2  0  0  0  0
 19 20  1  0  0  0  0
 20 21  1  0  0  0  0
 20 37  1  0  0  0  0
 21 40  1  0  0  0  0
 21 39  1  0  0  0  0
 22 41  1  0  0  0  0
 22 43  1  0  0  0  0
 24  6  1  0  0  0  0
 25  7  1  0  0  0  0
 26  8  1  0  0  0  0
 29 10  1  0  0  0  0
 31 12  1  0  0  0  0
 33 15  1  0  0  0  0
 34 16  1  0  0  0  0
 38 20  1  0  0  0  0
 42 22  1  0  0  0  0
M  END
