1,2,3,69
 OpenBabel05122313063D

 71 71  0  0  1  0  0  0  0  0999 V2000
    2.3230   -0.2147   -0.0299 P   0  0  0  0  0  0  0  0  0  0  0  0
   -2.4477   -0.0429   -0.0599 P   0  0  0  0  0  0  0  0  0  0  0  0
   -0.0636    1.5457   -0.5879 N   0  0  0  0  0  2  0  0  0  0  0  0
    2.0289    1.5353    0.6344 C   0  0  1  0  0  0  0  0  0  0  0  0
    2.9346    2.1419    0.8113 H   0  0  0  0  0  0  0  0  0  0  0  0
    1.0267    2.2685   -0.1977 C   0  0  2  0  0  3  0  0  0  0  0  0
    1.0994    3.6490   -0.4599 C   0  0  0  0  0  0  0  0  0  0  0  0
    1.9802    4.2165   -0.1292 H   0  0  0  0  0  0  0  0  0  0  0  0
    0.0396    4.2707   -1.1279 C   0  0  0  0  0  0  0  0  0  0  0  0
    0.0824    5.3464   -1.3550 H   0  0  0  0  0  0  0  0  0  0  0  0
   -1.0956    3.5210   -1.4748 C   0  0  0  0  0  0  0  0  0  0  0  0
   -1.9609    3.9948   -1.9589 H   0  0  0  0  0  0  0  0  0  0  0  0
   -1.1361    2.1524   -1.1686 C   0  0  0  0  0  0  0  0  0  0  0  0
   -2.3614    1.3030   -1.3843 C   0  0  0  0  0  0  0  0  0  0  0  0
   -2.2685    0.7343   -2.3350 H   0  0  0  0  0  0  0  0  0  0  0  0
   -3.2702    1.9332   -1.4565 H   0  0  0  0  0  0  0  0  0  0  0  0
    3.2738   -0.0096   -1.6858 C   0  0  0  0  0  0  0  0  0  0  0  0
    2.4767    0.9553   -2.5860 C   0  0  0  0  0  0  0  0  0  0  0  0
    2.4972    1.9961   -2.2127 H   0  0  0  0  0  0  0  0  0  0  0  0
    1.4237    0.6430   -2.7094 H   0  0  0  0  0  0  0  0  0  0  0  0
    2.9462    0.9547   -3.5923 H   0  0  0  0  0  0  0  0  0  0  0  0
    3.3281   -1.3759   -2.3999 C   0  0  0  0  0  0  0  0  0  0  0  0
    3.8075   -1.2357   -3.3922 H   0  0  0  0  0  0  0  0  0  0  0  0
    2.3141   -1.7805   -2.5762 H   0  0  0  0  0  0  0  0  0  0  0  0
    3.9177   -2.1301   -1.8515 H   0  0  0  0  0  0  0  0  0  0  0  0
    4.6852    0.5691   -1.4952 C   0  0  0  0  0  0  0  0  0  0  0  0
    5.3596   -0.1102   -0.9416 H   0  0  0  0  0  0  0  0  0  0  0  0
    4.6654    1.5447   -0.9688 H   0  0  0  0  0  0  0  0  0  0  0  0
    5.1406    0.7422   -2.4937 H   0  0  0  0  0  0  0  0  0  0  0  0
    3.4715   -1.0168    1.3065 C   0  0  0  0  0  0  0  0  0  0  0  0
    4.4484    0.0123    1.9059 C   0  0  0  0  0  0  0  0  0  0  0  0
    5.1192   -0.5130    2.6190 H   0  0  0  0  0  0  0  0  0  0  0  0
    3.9132    0.7953    2.4773 H   0  0  0  0  0  0  0  0  0  0  0  0
    5.0908    0.4962    1.1468 H   0  0  0  0  0  0  0  0  0  0  0  0
    2.5996   -1.5962    2.4396 C   0  0  0  0  0  0  0  0  0  0  0  0
    3.2779   -2.0978    3.1621 H   0  0  0  0  0  0  0  0  0  0  0  0
    1.8866   -2.3521    2.0630 H   0  0  0  0  0  0  0  0  0  0  0  0
    2.0307   -0.8294    2.9925 H   0  0  0  0  0  0  0  0  0  0  0  0
    4.2388   -2.1975    0.6842 C   0  0  0  0  0  0  0  0  0  0  0  0
    4.9909   -1.8860   -0.0642 H   0  0  0  0  0  0  0  0  0  0  0  0
    3.5535   -2.9329    0.2169 H   0  0  0  0  0  0  0  0  0  0  0  0
    4.7832   -2.7242    1.4958 H   0  0  0  0  0  0  0  0  0  0  0  0
   -3.1529    0.8236    1.5063 C   0  0  0  0  0  0  0  0  0  0  0  0
   -2.8086   -0.0806    2.7082 C   0  0  0  0  0  0  0  0  0  0  0  0
   -1.7126   -0.2112    2.7953 H   0  0  0  0  0  0  0  0  0  0  0  0
   -3.2858   -1.0761    2.6463 H   0  0  0  0  0  0  0  0  0  0  0  0
   -3.1701    0.4076    3.6384 H   0  0  0  0  0  0  0  0  0  0  0  0
   -2.4107    2.1629    1.6822 C   0  0  0  0  0  0  0  0  0  0  0  0
   -2.6690    2.8979    0.8948 H   0  0  0  0  0  0  0  0  0  0  0  0
   -1.3165    2.0220    1.7131 H   0  0  0  0  0  0  0  0  0  0  0  0
   -2.7147    2.6025    2.6556 H   0  0  0  0  0  0  0  0  0  0  0  0
   -4.6591    1.1231    1.4631 C   0  0  0  0  0  0  0  0  0  0  0  0
   -4.9309    1.6835    2.3832 H   0  0  0  0  0  0  0  0  0  0  0  0
   -5.2854    0.2117    1.4429 H   0  0  0  0  0  0  0  0  0  0  0  0
   -4.9373    1.7623    0.6006 H   0  0  0  0  0  0  0  0  0  0  0  0
   -3.7450   -1.2751   -0.7565 C   0  0  0  0  0  0  0  0  0  0  0  0
   -4.1680   -2.2335    0.3723 C   0  0  0  0  0  0  0  0  0  0  0  0
   -4.7598   -1.7370    1.1638 H   0  0  0  0  0  0  0  0  0  0  0  0
   -3.2886   -2.7186    0.8414 H   0  0  0  0  0  0  0  0  0  0  0  0
   -4.8013   -3.0370   -0.0593 H   0  0  0  0  0  0  0  0  0  0  0  0
   -4.9665   -0.5680   -1.3723 C   0  0  0  0  0  0  0  0  0  0  0  0
   -4.6835    0.0551   -2.2440 H   0  0  0  0  0  0  0  0  0  0  0  0
   -5.5174    0.0654   -0.6567 H   0  0  0  0  0  0  0  0  0  0  0  0
   -5.6733   -1.3395   -1.7455 H   0  0  0  0  0  0  0  0  0  0  0  0
   -3.0774   -2.1159   -1.8570 C   0  0  0  0  0  0  0  0  0  0  0  0
   -3.8348   -2.8168   -2.2678 H   0  0  0  0  0  0  0  0  0  0  0  0
   -2.2348   -2.7119   -1.4627 H   0  0  0  0  0  0  0  0  0  0  0  0
   -2.6992   -1.5071   -2.7001 H   0  0  0  0  0  0  0  0  0  0  0  0
    0.2973    0.4342    1.9034 O   0  5  0  0  0  0  0  0  0  0  0  0
    1.2943    1.2600    2.0194 C   0  0  0  0  0  0  0  0  0  0  0  0
    1.6945    1.8139    3.0364 O   0  0  0  0  0  0  0  0  0  0  0  0
  1  4  1  0  0  0  0
  1 30  1  0  0  0  0
  2 43  1  0  0  0  0
  3  6  1  0  0  0  0
  4  5  1  1  0  0  0
  4 70  1  0  0  0  0
  6  4  1  1  0  0  0
  7  6  1  0  0  0  0
  7  8  1  0  0  0  0
  9  7  2  0  0  0  0
 10  9  1  0  0  0  0
 11 13  2  0  0  0  0
 11  9  1  0  0  0  0
 12 11  1  0  0  0  0
 13  3  1  0  0  0  0
 14 13  1  0  0  0  0
 14  2  1  0  0  0  0
 15 14  1  0  0  0  0
 16 14  1  0  0  0  0
 17 26  1  0  0  0  0
 17  1  1  0  0  0  0
 18 19  1  0  0  0  0
 18 17  1  0  0  0  0
 20 18  1  0  0  0  0
 21 18  1  0  0  0  0
 22 25  1  0  0  0  0
 22 17  1  0  0  0  0
 23 22  1  0  0  0  0
 24 22  1  0  0  0  0
 26 28  1  0  0  0  0
 26 27  1  0  0  0  0
 29 26  1  0  0  0  0
 30 31  1  0  0  0  0
 30 35  1  0  0  0  0
 31 33  1  0  0  0  0
 31 32  1  0  0  0  0
 34 31  1  0  0  0  0
 35 38  1  0  0  0  0
 35 36  1  0  0  0  0
 37 35  1  0  0  0  0
 39 30  1  0  0  0  0
 39 42  1  0  0  0  0
 40 39  1  0  0  0  0
 41 39  1  0  0  0  0
 43 48  1  0  0  0  0
 43 44  1  0  0  0  0
 44 45  1  0  0  0  0
 44 47  1  0  0  0  0
 46 44  1  0  0  0  0
 48 50  1  0  0  0  0
 48 51  1  0  0  0  0
 49 48  1  0  0  0  0
 52 43  1  0  0  0  0
 52 53  1  0  0  0  0
 54 52  1  0  0  0  0
 55 52  1  0  0  0  0
 56  2  1  0  0  0  0
 56 57  1  0  0  0  0
 57 59  1  0  0  0  0
 57 58  1  0  0  0  0
 60 57  1  0  0  0  0
 61 56  1  0  0  0  0
 61 63  1  0  0  0  0
 62 61  1  0  0  0  0
 64 61  1  0  0  0  0
 65 67  1  0  0  0  0
 65 56  1  0  0  0  0
 66 65  1  0  0  0  0
 68 65  1  0  0  0  0
 69 70  1  0  0  0  0
 70 71  2  0  0  0  0
M  CHG  1  69  -1
M  END
