2,5
 OpenBabel05122313053D

 44 45  0  0  0  0  0  0  0  0999 V2000
   -2.9609   -1.0866    2.2063 C   0  0  0  0  0  0  0  0  0  0  0  0
   -2.8358    0.1640    1.4338 N   0  0  0  0  0  0  0  0  0  0  0  0
   -4.0564    0.4277    0.6276 C   0  0  0  0  0  0  0  0  0  0  0  0
   -4.0566   -0.4277   -0.6279 C   0  0  0  0  0  0  0  0  0  0  0  0
   -2.8359   -0.1643   -1.4342 N   0  0  0  0  0  0  0  0  0  0  0  0
   -2.9609    1.0860   -2.2071 C   0  0  0  0  0  0  0  0  0  0  0  0
   -2.5157    1.2998    2.3665 C   0  0  0  0  0  0  0  0  0  0  0  0
   -2.2331    2.6021    1.6544 C   0  0  0  0  0  0  0  0  0  0  0  0
   -0.9483    2.8497    1.1215 C   0  0  0  0  0  0  0  0  0  0  0  0
   -0.6977    4.0207    0.3900 C   0  0  0  0  0  0  0  0  0  0  0  0
   -1.7228    4.9596    0.1866 C   0  0  0  0  0  0  0  0  0  0  0  0
   -2.9954    4.7378    0.7370 C   0  0  0  0  0  0  0  0  0  0  0  0
   -3.2453    3.5660    1.4706 C   0  0  0  0  0  0  0  0  0  0  0  0
   -2.5159   -1.3003   -2.3666 C   0  0  0  0  0  0  0  0  0  0  0  0
   -2.2331   -2.6024   -1.6541 C   0  0  0  0  0  0  0  0  0  0  0  0
   -3.2453   -3.5663   -1.4697 C   0  0  0  0  0  0  0  0  0  0  0  0
   -2.9952   -4.7378   -0.7357 C   0  0  0  0  0  0  0  0  0  0  0  0
   -1.7226   -4.9594   -0.1854 C   0  0  0  0  0  0  0  0  0  0  0  0
   -0.6974   -4.0206   -0.3894 C   0  0  0  0  0  0  0  0  0  0  0  0
   -0.9482   -2.8498   -1.1213 C   0  0  0  0  0  0  0  0  0  0  0  0
   -2.0048   -1.2677    2.7229 H   0  0  0  0  0  0  0  0  0  0  0  0
   -3.7880   -1.0101    2.9493 H   0  0  0  0  0  0  0  0  0  0  0  0
   -3.1520   -1.9369    1.5254 H   0  0  0  0  0  0  0  0  0  0  0  0
   -4.0577    1.5016    0.3618 H   0  0  0  0  0  0  0  0  0  0  0  0
   -4.9715    0.2347    1.2333 H   0  0  0  0  0  0  0  0  0  0  0  0
   -4.9716   -0.2344   -1.2336 H   0  0  0  0  0  0  0  0  0  0  0  0
   -4.0582   -1.5015   -0.3621 H   0  0  0  0  0  0  0  0  0  0  0  0
   -2.0046    1.2672   -2.7234 H   0  0  0  0  0  0  0  0  0  0  0  0
   -3.7877    1.0093   -2.9504 H   0  0  0  0  0  0  0  0  0  0  0  0
   -3.1525    1.9365   -1.5266 H   0  0  0  0  0  0  0  0  0  0  0  0
   -3.3643    1.4129    3.0799 H   0  0  0  0  0  0  0  0  0  0  0  0
   -1.6208    0.9672    2.9271 H   0  0  0  0  0  0  0  0  0  0  0  0
   -0.1422    2.1175    1.2884 H   0  0  0  0  0  0  0  0  0  0  0  0
    0.3079    4.1874   -0.0241 H   0  0  0  0  0  0  0  0  0  0  0  0
   -1.5250    5.8763   -0.3901 H   0  0  0  0  0  0  0  0  0  0  0  0
   -3.7957    5.4811    0.6010 H   0  0  0  0  0  0  0  0  0  0  0  0
   -4.2420    3.4000    1.9119 H   0  0  0  0  0  0  0  0  0  0  0  0
   -1.6211   -0.9680   -2.9274 H   0  0  0  0  0  0  0  0  0  0  0  0
   -3.3645   -1.4138   -3.0798 H   0  0  0  0  0  0  0  0  0  0  0  0
   -4.2420   -3.4004   -1.9109 H   0  0  0  0  0  0  0  0  0  0  0  0
   -3.7955   -5.4811   -0.5993 H   0  0  0  0  0  0  0  0  0  0  0  0
   -1.5246   -5.8758    0.3916 H   0  0  0  0  0  0  0  0  0  0  0  0
    0.3082   -4.1870    0.0247 H   0  0  0  0  0  0  0  0  0  0  0  0
   -0.1421   -2.1177   -1.2886 H   0  0  0  0  0  0  0  0  0  0  0  0
  1 21  1  0  0  0  0
  1 22  1  0  0  0  0
  2  1  1  0  0  0  0
  2  7  1  0  0  0  0
  3 25  1  0  0  0  0
  3  2  1  0  0  0  0
  4 27  1  0  0  0  0
  4  3  1  0  0  0  0
  5  4  1  0  0  0  0
  6 30  1  0  0  0  0
  6  5  1  0  0  0  0
  7 32  1  0  0  0  0
  7 31  1  0  0  0  0
  8  7  1  0  0  0  0
  9 33  1  0  0  0  0
  9  8  2  0  0  0  0
 10  9  1  0  0  0  0
 11 10  2  0  0  0  0
 11 12  1  0  0  0  0
 12 13  2  0  0  0  0
 13  8  1  0  0  0  0
 13 37  1  0  0  0  0
 14 15  1  0  0  0  0
 14  5  1  0  0  0  0
 15 16  2  0  0  0  0
 15 20  1  0  0  0  0
 16 17  1  0  0  0  0
 17 41  1  0  0  0  0
 17 18  2  0  0  0  0
 18 42  1  0  0  0  0
 19 18  1  0  0  0  0
 19 43  1  0  0  0  0
 20 19  2  0  0  0  0
 23  1  1  0  0  0  0
 24  3  1  0  0  0  0
 26  4  1  0  0  0  0
 28  6  1  0  0  0  0
 29  6  1  0  0  0  0
 34 10  1  0  0  0  0
 35 11  1  0  0  0  0
 36 12  1  0  0  0  0
 38 14  1  0  0  0  0
 39 14  1  0  0  0  0
 40 16  1  0  0  0  0
 44 20  1  0  0  0  0
M  END
