1,2
 OpenBabel05122313053D

 33 34  0  0  0  0  0  0  0  0999 V2000
    1.4532   -1.3819   -0.4252 N   0  0  0  0  0  2  0  0  0  0  0  0
   -1.4532   -1.3819    0.4252 N   0  0  0  0  0  2  0  0  0  0  0  0
    0.7075   -2.4927   -1.0442 C   0  0  0  0  0  0  0  0  0  0  0  0
   -0.0000   -3.3791   -0.0001 C   0  0  0  0  0  0  0  0  0  0  0  0
   -0.7075   -2.4927    1.0441 C   0  0  0  0  0  0  0  0  0  0  0  0
    2.7847   -1.6002   -0.0654 C   0  0  0  0  0  0  0  0  0  0  0  0
    3.5319   -0.5539    0.5471 C   0  0  0  0  0  0  0  0  0  0  0  0
    4.8770   -0.7183    0.8885 C   0  0  0  0  0  0  0  0  0  0  0  0
    5.5407   -1.9330    0.6429 C   0  0  0  0  0  0  0  0  0  0  0  0
    4.8164   -2.9829    0.0601 C   0  0  0  0  0  0  0  0  0  0  0  0
    3.4666   -2.8289   -0.2863 C   0  0  0  0  0  0  0  0  0  0  0  0
   -2.7847   -1.6001    0.0654 C   0  0  0  0  0  0  0  0  0  0  0  0
   -3.4667   -2.8288    0.2864 C   0  0  0  0  0  0  0  0  0  0  0  0
   -4.8165   -2.9828   -0.0600 C   0  0  0  0  0  0  0  0  0  0  0  0
   -5.5408   -1.9329   -0.6429 C   0  0  0  0  0  0  0  0  0  0  0  0
   -4.8770   -0.7183   -0.8886 C   0  0  0  0  0  0  0  0  0  0  0  0
   -3.5319   -0.5538   -0.5471 C   0  0  0  0  0  0  0  0  0  0  0  0
    1.3614   -3.0913   -1.7129 H   0  0  0  0  0  0  0  0  0  0  0  0
   -0.0590   -2.0568   -1.7204 H   0  0  0  0  0  0  0  0  0  0  0  0
    0.7283   -4.0350    0.5214 H   0  0  0  0  0  0  0  0  0  0  0  0
   -0.7284   -4.0349   -0.5215 H   0  0  0  0  0  0  0  0  0  0  0  0
   -1.3614   -3.0913    1.7128 H   0  0  0  0  0  0  0  0  0  0  0  0
    0.0590   -2.0568    1.7203 H   0  0  0  0  0  0  0  0  0  0  0  0
    3.0233    0.3896    0.7780 H   0  0  0  0  0  0  0  0  0  0  0  0
    5.4138    0.1174    1.3649 H   0  0  0  0  0  0  0  0  0  0  0  0
    6.5993   -2.0612    0.9127 H   0  0  0  0  0  0  0  0  0  0  0  0
    5.3068   -3.9510   -0.1283 H   0  0  0  0  0  0  0  0  0  0  0  0
    2.9389   -3.6838   -0.7292 H   0  0  0  0  0  0  0  0  0  0  0  0
   -2.9390   -3.6837    0.7293 H   0  0  0  0  0  0  0  0  0  0  0  0
   -5.3069   -3.9508    0.1285 H   0  0  0  0  0  0  0  0  0  0  0  0
   -6.5993   -2.0611   -0.9126 H   0  0  0  0  0  0  0  0  0  0  0  0
   -5.4138    0.1175   -1.3650 H   0  0  0  0  0  0  0  0  0  0  0  0
   -3.0233    0.3896   -0.7781 H   0  0  0  0  0  0  0  0  0  0  0  0
  1  6  1  0  0  0  0
  2  5  1  0  0  0  0
  3  1  1  0  0  0  0
  3  4  1  0  0  0  0
  4 20  1  0  0  0  0
  4  5  1  0  0  0  0
  5 22  1  0  0  0  0
  5 23  1  0  0  0  0
  6  7  1  0  0  0  0
  7 24  1  0  0  0  0
  7  8  2  0  0  0  0
  8 25  1  0  0  0  0
  9  8  1  0  0  0  0
  9 26  1  0  0  0  0
 10  9  2  0  0  0  0
 11  6  2  0  0  0  0
 11 10  1  0  0  0  0
 12 13  1  0  0  0  0
 12  2  1  0  0  0  0
 13 29  1  0  0  0  0
 14 30  1  0  0  0  0
 14 13  2  0  0  0  0
 15 14  1  0  0  0  0
 16 15  2  0  0  0  0
 16 17  1  0  0  0  0
 17 12  2  0  0  0  0
 18  3  1  0  0  0  0
 19  3  1  0  0  0  0
 21  4  1  0  0  0  0
 27 10  1  0  0  0  0
 28 11  1  0  0  0  0
 31 15  1  0  0  0  0
 32 16  1  0  0  0  0
 33 17  1  0  0  0  0
M  END
