1,34
 OpenBabel05122313053D

 34 35  0  0  1  0  0  0  0  0999 V2000
   -1.6119    0.0432   -0.3880 N   0  0  0  0  0  2  0  0  0  0  0  0
   -2.8919   -0.3560   -0.2467 C   0  0  1  0  0  3  0  0  0  0  0  0
   -3.2253   -1.7820    0.0387 C   0  0  0  0  0  0  0  0  0  0  0  0
   -2.6570   -2.4643   -0.6249 H   0  0  0  0  0  0  0  0  0  0  0  0
   -4.3103   -1.9650   -0.0659 H   0  0  0  0  0  0  0  0  0  0  0  0
   -2.9157   -2.0235    1.0785 H   0  0  0  0  0  0  0  0  0  0  0  0
   -3.7452    0.7717   -0.3253 C   0  0  0  0  0  0  0  0  0  0  0  0
   -4.8375    0.7810   -0.2538 H   0  0  0  0  0  0  0  0  0  0  0  0
   -2.9140    1.8804   -0.4963 C   0  0  0  0  0  0  0  0  0  0  0  0
   -3.2463    3.3298   -0.6370 C   0  0  0  0  0  0  0  0  0  0  0  0
   -2.7841    3.9467    0.1622 H   0  0  0  0  0  0  0  0  0  0  0  0
   -4.3410    3.4654   -0.5670 H   0  0  0  0  0  0  0  0  0  0  0  0
   -2.9206    3.7442   -1.6142 H   0  0  0  0  0  0  0  0  0  0  0  0
   -1.6337    1.3912   -0.5259 N   0  0  0  0  0  0  0  0  0  0  0  0
   -0.3909    2.1283   -0.6398 C   0  0  0  0  0  0  0  0  0  0  0  0
    0.1313    1.8219   -1.5708 H   0  0  0  0  0  0  0  0  0  0  0  0
   -0.6585    3.1950   -0.7492 H   0  0  0  0  0  0  0  0  0  0  0  0
    0.5562    1.9154    0.5708 C   0  0  0  0  0  0  0  0  0  0  0  0
    0.0554    1.3032    1.3590 H   0  0  0  0  0  0  0  0  0  0  0  0
    0.8463    2.8816    1.0212 H   0  0  0  0  0  0  0  0  0  0  0  0
    1.7760    1.2282    0.1923 N   0  0  0  0  0  0  0  0  0  0  0  0
    3.0378    1.7329    0.0354 C   0  0  1  0  0  3  0  0  0  0  0  0
    3.3990    3.1466    0.3539 C   0  0  0  0  0  0  0  0  0  0  0  0
    2.8217    3.8760   -0.2520 H   0  0  0  0  0  0  0  0  0  0  0  0
    4.4711    3.3126    0.1431 H   0  0  0  0  0  0  0  0  0  0  0  0
    3.2266    3.3877    1.4236 H   0  0  0  0  0  0  0  0  0  0  0  0
    3.8182    0.6795   -0.4463 C   0  0  0  0  0  0  0  0  0  0  0  0
    4.8879    0.7139   -0.6767 H   0  0  0  0  0  0  0  0  0  0  0  0
    2.9526   -0.4363   -0.5666 C   0  0  0  0  0  0  0  0  0  0  0  0
    3.2701   -1.8301   -0.9971 C   0  0  0  0  0  0  0  0  0  0  0  0
    2.3499   -2.3663   -1.3046 H   0  0  0  0  0  0  0  0  0  0  0  0
    3.7240   -2.4015   -0.1603 H   0  0  0  0  0  0  0  0  0  0  0  0
    3.9994   -1.8249   -1.8301 H   0  0  0  0  0  0  0  0  0  0  0  0
    1.7113   -0.0747   -0.1803 N   0  0  0  0  0  2  0  0  0  0  0  0
  1  2  1  0  0  0  0
  2  3  1  1  0  0  0
  3  6  1  0  0  0  0
  4  3  1  0  0  0  0
  5  3  1  0  0  0  0
  7  8  1  0  0  0  0
  7  2  1  0  0  0  0
  9  7  2  0  0  0  0
 10 12  1  0  0  0  0
 10  9  1  0  0  0  0
 10 11  1  0  0  0  0
 13 10  1  0  0  0  0
 14  9  1  0  0  0  0
 14  1  1  0  0  0  0
 15 14  1  0  0  0  0
 15 18  1  0  0  0  0
 16 15  1  0  0  0  0
 17 15  1  0  0  0  0
 18 20  1  0  0  0  0
 18 19  1  0  0  0  0
 21 18  1  0  0  0  0
 22 21  1  0  0  0  0
 22 23  1  1  0  0  0
 23 26  1  0  0  0  0
 24 23  1  0  0  0  0
 25 23  1  0  0  0  0
 27 22  1  0  0  0  0
 28 27  1  0  0  0  0
 29 27  2  0  0  0  0
 29 34  1  0  0  0  0
 30 29  1  0  0  0  0
 30 32  1  0  0  0  0
 31 30  1  0  0  0  0
 33 30  1  0  0  0  0
 34 21  1  0  0  0  0
M  END
