3,7
 OpenBabel05122313053D

 26 28  0  0  0  0  0  0  0  0999 V2000
    2.8392    0.0007   -0.7021 B   0  0  2  0  0  0  0  0  0  0  0  0
    2.7676   -0.0443   -1.9230 H   0  0  0  0  0  0  0  0  0  0  0  0
    0.8047   -1.4334   -0.0777 N   0  0  0  0  0  2  0  0  0  0  0  0
    2.1463   -1.2449   -0.0613 N   0  0  0  0  0  0  0  0  0  0  0  0
    4.3049    0.0270   -0.2824 N   0  0  0  0  0  0  0  0  0  0  0  0
    4.6686    0.0851    1.0284 N   0  0  0  0  0  0  0  0  0  0  0  0
    0.7933    1.5075   -0.2361 N   0  0  0  0  0  2  0  0  0  0  0  0
    2.1365    1.2991   -0.1728 N   0  0  0  0  0  0  0  0  0  0  0  0
    0.5605   -2.6393    0.4788 C   0  0  0  0  0  3  0  0  0  0  0  0
   -0.4686   -2.9939    0.5954 H   0  0  0  0  0  0  0  0  0  0  0  0
    1.7703   -3.2468    0.8569 C   0  0  0  0  0  0  0  0  0  0  0  0
    1.9121   -4.2205    1.3353 H   0  0  0  0  0  0  0  0  0  0  0  0
    2.7551   -2.3222    0.4985 C   0  0  0  0  0  0  0  0  0  0  0  0
    3.8417   -2.3392    0.6213 H   0  0  0  0  0  0  0  0  0  0  0  0
    5.4002   -0.0052   -1.1017 C   0  0  0  0  0  0  0  0  0  0  0  0
    5.2835   -0.0533   -2.1900 H   0  0  0  0  0  0  0  0  0  0  0  0
    6.5327    0.0331   -0.2923 C   0  0  0  0  0  0  0  0  0  0  0  0
    7.5804    0.0218   -0.6101 H   0  0  0  0  0  0  0  0  0  0  0  0
    6.0094    0.0891    1.0266 C   0  0  0  0  0  0  0  0  0  0  0  0
    6.5554    0.1320    1.9789 H   0  0  0  0  0  0  0  0  0  0  0  0
    0.5598    2.7565    0.2385 C   0  0  0  0  0  3  0  0  0  0  0  0
   -0.4647    3.1308    0.3207 H   0  0  0  0  0  0  0  0  0  0  0  0
    1.7676    3.3680    0.5950 C   0  0  0  0  0  0  0  0  0  0  0  0
    1.9180    4.3699    1.0080 H   0  0  0  0  0  0  0  0  0  0  0  0
    2.7451    2.4029    0.3184 C   0  0  0  0  0  0  0  0  0  0  0  0
    3.8298    2.4164    0.4588 H   0  0  0  0  0  0  0  0  0  0  0  0
  1  2  1  6  0  0  0
  1  5  1  0  0  0  0
  1  8  1  0  0  0  0
  1  4  1  0  0  0  0
  3  4  1  0  0  0  0
  3  9  1  0  0  0  0
  4 13  1  0  0  0  0
  5  6  1  0  0  0  0
  7  8  1  0  0  0  0
  7 21  1  0  0  0  0
  8 25  1  0  0  0  0
  9 10  1  0  0  0  0
  9 11  1  0  0  0  0
 11 12  1  0  0  0  0
 13 14  1  0  0  0  0
 13 11  2  0  0  0  0
 15 17  2  0  0  0  0
 15  5  1  0  0  0  0
 16 15  1  0  0  0  0
 17 19  1  0  0  0  0
 18 17  1  0  0  0  0
 19  6  2  0  0  0  0
 19 20  1  0  0  0  0
 21 22  1  0  0  0  0
 21 23  1  0  0  0  0
 23 24  1  0  0  0  0
 25 26  1  0  0  0  0
 25 23  2  0  0  0  0
M  END
