1,18
 OpenBabel05122313053D

 26 27  0  0  0  0  0  0  0  0999 V2000
    1.2005    1.3161    0.0001 N   0  0  0  0  0  2  0  0  0  0  0  0
    1.1165    2.6676    0.0002 C   0  0  0  0  0  0  0  0  0  0  0  0
    0.0892    3.0714    0.0002 H   0  0  0  0  0  0  0  0  0  0  0  0
    2.2435    3.4853    0.0001 C   0  0  0  0  0  0  0  0  0  0  0  0
    2.1057    4.5768    0.0001 H   0  0  0  0  0  0  0  0  0  0  0  0
    3.5369    2.9192   -0.0001 C   0  0  0  0  0  0  0  0  0  0  0  0
    3.6076    1.5187   -0.0001 C   0  0  0  0  0  0  0  0  0  0  0  0
    4.5898    1.0264   -0.0002 H   0  0  0  0  0  0  0  0  0  0  0  0
    2.4409    0.7339   -0.0000 C   0  0  0  0  0  0  0  0  0  0  0  0
    2.4409   -0.7339   -0.0000 C   0  0  0  0  0  0  0  0  0  0  0  0
    3.6076   -1.5187   -0.0001 C   0  0  0  0  0  0  0  0  0  0  0  0
    4.5898   -1.0264   -0.0002 H   0  0  0  0  0  0  0  0  0  0  0  0
    3.5369   -2.9192   -0.0000 C   0  0  0  0  0  0  0  0  0  0  0  0
    2.2435   -3.4853    0.0002 C   0  0  0  0  0  0  0  0  0  0  0  0
    2.1057   -4.5768    0.0003 H   0  0  0  0  0  0  0  0  0  0  0  0
    1.1165   -2.6676    0.0002 C   0  0  0  0  0  0  0  0  0  0  0  0
    0.0892   -3.0714    0.0003 H   0  0  0  0  0  0  0  0  0  0  0  0
    1.2005   -1.3161    0.0001 N   0  0  0  0  0  2  0  0  0  0  0  0
    4.7687    3.7802   -0.0001 C   0  0  0  0  0  0  0  0  0  0  0  0
    5.6957    3.1763   -0.0003 H   0  0  0  0  0  0  0  0  0  0  0  0
    4.7878    4.4423    0.8902 H   0  0  0  0  0  0  0  0  0  0  0  0
    4.7875    4.4427   -0.8901 H   0  0  0  0  0  0  0  0  0  0  0  0
    4.7687   -3.7802   -0.0002 C   0  0  0  0  0  0  0  0  0  0  0  0
    5.6957   -3.1763    0.0003 H   0  0  0  0  0  0  0  0  0  0  0  0
    4.7878   -4.4421   -0.8907 H   0  0  0  0  0  0  0  0  0  0  0  0
    4.7874   -4.4430    0.8896 H   0  0  0  0  0  0  0  0  0  0  0  0
  1  2  1  0  0  0  0
  2  3  1  0  0  0  0
  4  5  1  0  0  0  0
  4  2  2  0  0  0  0
  6  4  1  0  0  0  0
  7  6  2  0  0  0  0
  7  9  1  0  0  0  0
  8  7  1  0  0  0  0
  9 10  2  0  0  0  0
  9  1  1  0  0  0  0
 10 18  1  0  0  0  0
 11 13  2  0  0  0  0
 11 10  1  0  0  0  0
 12 11  1  0  0  0  0
 13 14  1  0  0  0  0
 14 16  2  0  0  0  0
 14 15  1  0  0  0  0
 16 17  1  0  0  0  0
 18 16  1  0  0  0  0
 19  6  1  0  0  0  0
 19 21  1  0  0  0  0
 20 19  1  0  0  0  0
 22 19  1  0  0  0  0
 23 13  1  0  0  0  0
 23 24  1  0  0  0  0
 23 26  1  0  0  0  0
 25 23  1  0  0  0  0
M  END
