1,6
 OpenBabel05122313053D

 80 86  0  0  0  0  0  0  0  0999 V2000
   -2.1566   -2.1622    0.2208 N   0  0  0  0  0  2  0  0  0  0  0  0
    0.8888    0.3847    1.5118 O   0  0  0  0  0  0  0  0  0  0  0  0
    0.2438   -0.2717    1.8783 H   0  0  0  0  0  0  0  0  0  0  0  0
   -2.9187   -3.2263   -0.1254 C   0  0  0  0  0  3  0  0  0  0  0  0
   -2.3711   -4.0815   -0.5450 H   0  0  0  0  0  0  0  0  0  0  0  0
    1.9086   -2.3459   -0.0385 N   0  0  0  0  0  2  0  0  0  0  0  0
   -4.3015   -3.2337    0.0226 C   0  0  0  0  0  0  0  0  0  0  0  0
   -4.8721   -4.1232   -0.2795 H   0  0  0  0  0  0  0  0  0  0  0  0
   -0.6841    0.5713   -1.3097 O   0  0  0  0  0  0  0  0  0  0  0  0
    0.0801   -0.0344   -1.4319 H   0  0  0  0  0  0  0  0  0  0  0  0
    1.9300   -0.2518   -0.9205 O   0  0  0  0  0  0  0  0  0  0  0  0
   -4.9514   -2.0984    0.5610 C   0  0  0  0  0  0  0  0  0  0  0  0
   -1.9282   -0.0498    1.0150 O   0  0  0  0  0  0  0  0  0  0  0  0
   -4.1558   -0.9994    0.9037 C   0  0  0  0  0  0  0  0  0  0  0  0
   -4.5926   -0.0781    1.3145 H   0  0  0  0  0  0  0  0  0  0  0  0
   -2.7618   -1.0531    0.7088 C   0  0  0  0  0  0  0  0  0  0  0  0
   -6.4429   -2.0776    0.7510 C   0  0  0  0  0  0  0  0  0  0  0  0
   -6.7883   -1.1279    1.2006 H   0  0  0  0  0  0  0  0  0  0  0  0
   -6.7684   -2.9119    1.4058 H   0  0  0  0  0  0  0  0  0  0  0  0
   -6.9634   -2.2112   -0.2200 H   0  0  0  0  0  0  0  0  0  0  0  0
    2.5498   -3.4676    0.3682 C   0  0  0  0  0  3  0  0  0  0  0  0
    1.9071   -4.2451    0.8037 H   0  0  0  0  0  0  0  0  0  0  0  0
    3.9271   -3.6254    0.2587 C   0  0  0  0  0  0  0  0  0  0  0  0
    4.3933   -4.5568    0.6098 H   0  0  0  0  0  0  0  0  0  0  0  0
    4.7050   -2.5873   -0.3039 C   0  0  0  0  0  0  0  0  0  0  0  0
    4.0359   -1.4272   -0.7111 C   0  0  0  0  0  0  0  0  0  0  0  0
    4.5757   -0.5753   -1.1481 H   0  0  0  0  0  0  0  0  0  0  0  0
    2.6406   -1.3307   -0.5536 C   0  0  0  0  0  0  0  0  0  0  0  0
    6.1944   -2.7279   -0.4536 C   0  0  0  0  0  0  0  0  0  0  0  0
    6.6484   -1.8346   -0.9218 H   0  0  0  0  0  0  0  0  0  0  0  0
    6.4459   -3.6124   -1.0744 H   0  0  0  0  0  0  0  0  0  0  0  0
    6.6745   -2.8838    0.5347 H   0  0  0  0  0  0  0  0  0  0  0  0
   -2.3249    1.2886    1.0838 C   0  0  0  0  0  0  0  0  0  0  0  0
   -1.9411    1.9792    2.2563 C   0  0  0  0  0  0  0  0  0  0  0  0
   -2.2585    3.3462    2.3503 C   0  0  0  0  0  0  0  0  0  0  0  0
   -1.9552    3.8968    3.2541 H   0  0  0  0  0  0  0  0  0  0  0  0
   -2.9262    4.0073    1.3141 C   0  0  0  0  0  0  0  0  0  0  0  0
   -3.1716    5.0758    1.4053 H   0  0  0  0  0  0  0  0  0  0  0  0
   -3.2574    3.3063    0.1492 C   0  0  0  0  0  0  0  0  0  0  0  0
   -3.7419    3.8298   -0.6901 H   0  0  0  0  0  0  0  0  0  0  0  0
   -2.9574    1.9393   -0.0064 C   0  0  0  0  0  0  0  0  0  0  0  0
   -3.2770    1.2950   -1.3493 C   0  0  0  0  0  0  0  0  0  0  0  0
   -4.3184    1.5590   -1.6246 H   0  0  0  0  0  0  0  0  0  0  0  0
   -3.2342    0.1920   -1.2803 H   0  0  0  0  0  0  0  0  0  0  0  0
   -2.3504    1.7136   -2.4759 C   0  0  0  0  0  0  0  0  0  0  0  0
   -2.7585    2.4754   -3.5807 C   0  0  0  0  0  0  0  0  0  0  0  0
   -3.7944    2.8486   -3.6241 H   0  0  0  0  0  0  0  0  0  0  0  0
   -1.8706    2.7343   -4.6387 C   0  0  0  0  0  0  0  0  0  0  0  0
   -2.2007    3.3251   -5.5059 H   0  0  0  0  0  0  0  0  0  0  0  0
   -0.5678    2.2136   -4.5965 C   0  0  0  0  0  0  0  0  0  0  0  0
    0.1224    2.3922   -5.4370 H   0  0  0  0  0  0  0  0  0  0  0  0
   -0.1189    1.4525   -3.5019 C   0  0  0  0  0  0  0  0  0  0  0  0
   -1.0191    1.2345   -2.4316 C   0  0  0  0  0  0  0  0  0  0  0  0
    1.2862    0.8776   -3.4297 C   0  0  0  0  0  0  0  0  0  0  0  0
    1.7591    0.9798   -4.4267 H   0  0  0  0  0  0  0  0  0  0  0  0
    1.2320   -0.2094   -3.2101 H   0  0  0  0  0  0  0  0  0  0  0  0
    2.1531    1.5912   -2.4024 C   0  0  0  0  0  0  0  0  0  0  0  0
    2.5979    2.8991   -2.6635 C   0  0  0  0  0  0  0  0  0  0  0  0
    2.3385    3.3606   -3.6289 H   0  0  0  0  0  0  0  0  0  0  0  0
    3.3401    3.6107   -1.7150 C   0  0  0  0  0  0  0  0  0  0  0  0
    3.6885    4.6308   -1.9349 H   0  0  0  0  0  0  0  0  0  0  0  0
    3.6187    3.0264   -0.4745 C   0  0  0  0  0  0  0  0  0  0  0  0
    4.1681    3.5973    0.2903 H   0  0  0  0  0  0  0  0  0  0  0  0
    3.1845    1.7262   -0.1475 C   0  0  0  0  0  0  0  0  0  0  0  0
    2.4784    1.0180   -1.1508 C   0  0  0  0  0  0  0  0  0  0  0  0
    3.4515    1.2273    1.2673 C   0  0  0  0  0  0  0  0  0  0  0  0
    4.5027    1.4693    1.5241 H   0  0  0  0  0  0  0  0  0  0  0  0
    3.3424    0.1289    1.3287 H   0  0  0  0  0  0  0  0  0  0  0  0
    2.5358    1.8479    2.3072 C   0  0  0  0  0  0  0  0  0  0  0  0
    2.9346    2.8660    3.1869 C   0  0  0  0  0  0  0  0  0  0  0  0
    3.9622    3.2594    3.1265 H   0  0  0  0  0  0  0  0  0  0  0  0
    2.0481    3.3601    4.1580 C   0  0  0  0  0  0  0  0  0  0  0  0
    2.3739    4.1463    4.8549 H   0  0  0  0  0  0  0  0  0  0  0  0
    0.7467    2.8405    4.2417 C   0  0  0  0  0  0  0  0  0  0  0  0
    0.0507    3.2267    5.0039 H   0  0  0  0  0  0  0  0  0  0  0  0
    0.3047    1.8306    3.3679 C   0  0  0  0  0  0  0  0  0  0  0  0
    1.2179    1.3406    2.4031 C   0  0  0  0  0  0  0  0  0  0  0  0
   -1.1301    1.3271    3.3694 C   0  0  0  0  0  0  0  0  0  0  0  0
   -1.5933    1.5802    4.3442 H   0  0  0  0  0  0  0  0  0  0  0  0
   -1.1622    0.2225    3.2768 H   0  0  0  0  0  0  0  0  0  0  0  0
  1 16  1  0  0  0  0
  2  3  1  0  0  0  0
  2 77  1  0  0  0  0
  4  7  1  0  0  0  0
  4  1  1  0  0  0  0
  5  4  1  0  0  0  0
  6 21  1  0  0  0  0
  7 12  2  0  0  0  0
  8  7  1  0  0  0  0
 10  9  1  0  0  0  0
 11 28  1  0  0  0  0
 12 17  1  0  0  0  0
 12 14  1  0  0  0  0
 13 33  1  0  0  0  0
 14 15  1  0  0  0  0
 16 14  2  0  0  0  0
 16 13  1  0  0  0  0
 17 18  1  0  0  0  0
 17 19  1  0  0  0  0
 20 17  1  0  0  0  0
 21 22  1  0  0  0  0
 23 21  1  0  0  0  0
 23 24  1  0  0  0  0
 25 23  2  0  0  0  0
 26 28  2  0  0  0  0
 26 25  1  0  0  0  0
 27 26  1  0  0  0  0
 28  6  1  0  0  0  0
 29 25  1  0  0  0  0
 29 32  1  0  0  0  0
 30 29  1  0  0  0  0
 31 29  1  0  0  0  0
 33 34  1  0  0  0  0
 34 35  2  0  0  0  0
 34 78  1  0  0  0  0
 35 36  1  0  0  0  0
 37 38  1  0  0  0  0
 37 35  1  0  0  0  0
 39 37  2  0  0  0  0
 40 39  1  0  0  0  0
 41 39  1  0  0  0  0
 41 33  2  0  0  0  0
 42 44  1  0  0  0  0
 42 41  1  0  0  0  0
 43 42  1  0  0  0  0
 45 53  1  0  0  0  0
 45 42  1  0  0  0  0
 46 45  2  0  0  0  0
 47 46  1  0  0  0  0
 48 50  2  0  0  0  0
 48 46  1  0  0  0  0
 49 48  1  0  0  0  0
 50 52  1  0  0  0  0
 51 50  1  0  0  0  0
 52 54  1  0  0  0  0
 52 53  2  0  0  0  0
 53  9  1  0  0  0  0
 54 56  1  0  0  0  0
 54 57  1  0  0  0  0
 55 54  1  0  0  0  0
 57 65  1  0  0  0  0
 58 57  2  0  0  0  0
 58 60  1  0  0  0  0
 59 58  1  0  0  0  0
 60 62  2  0  0  0  0
 61 60  1  0  0  0  0
 62 64  1  0  0  0  0
 62 63  1  0  0  0  0
 64 66  1  0  0  0  0
 65 11  1  0  0  0  0
 65 64  2  0  0  0  0
 66 68  1  0  0  0  0
 66 67  1  0  0  0  0
 66 69  1  0  0  0  0
 69 77  2  0  0  0  0
 69 70  1  0  0  0  0
 70 72  2  0  0  0  0
 71 70  1  0  0  0  0
 72 74  1  0  0  0  0
 72 73  1  0  0  0  0
 74 75  1  0  0  0  0
 76 78  1  0  0  0  0
 76 74  2  0  0  0  0
 77 76  1  0  0  0  0
 78 79  1  0  0  0  0
 80 78  1  0  0  0  0
M  END
