1,2
 OpenBabel05122313053D

 66 66  0  0  0  0  0  0  0  0999 V2000
    0.9156    1.1783   -0.3858 N   0  0  0  0  0  2  0  0  0  0  0  0
    0.8235   -1.2926    0.3705 N   0  0  0  0  0  2  0  0  0  0  0  0
   -3.9545    1.4160   -0.3337 N   0  0  0  0  0  0  0  0  0  0  0  0
   -4.7278    0.9550    0.1524 H   0  0  0  0  0  0  0  0  0  0  0  0
   -4.0278   -1.2936   -0.0974 N   0  0  0  0  0  0  0  0  0  0  0  0
   -4.7360   -0.8210   -0.6659 H   0  0  0  0  0  0  0  0  0  0  0  0
   -0.3122    0.6819   -0.2644 C   0  0  0  0  0  0  0  0  0  0  0  0
   -1.5284    1.4036   -0.4377 C   0  0  0  0  0  0  0  0  0  0  0  0
   -1.4930    2.4835   -0.6121 H   0  0  0  0  0  0  0  0  0  0  0  0
   -2.7543    0.7684   -0.2733 C   0  0  0  0  0  0  0  0  0  0  0  0
   -2.7992   -0.7013   -0.0557 C   0  0  0  0  0  0  0  0  0  0  0  0
   -1.6268   -1.4041    0.1978 C   0  0  0  0  0  0  0  0  0  0  0  0
   -1.6650   -2.4845    0.3695 H   0  0  0  0  0  0  0  0  0  0  0  0
   -0.3635   -0.7440    0.1346 C   0  0  0  0  0  0  0  0  0  0  0  0
    1.1561    2.5734   -0.7069 C   0  0  0  0  0  0  0  0  0  0  0  0
    0.3932    2.9238   -1.4338 H   0  0  0  0  0  0  0  0  0  0  0  0
    2.1444    2.6360   -1.2028 H   0  0  0  0  0  0  0  0  0  0  0  0
    1.1731    3.4568    0.5537 C   0  0  0  0  0  0  0  0  0  0  0  0
    0.2395    3.2841    1.1344 H   0  0  0  0  0  0  0  0  0  0  0  0
    2.0100    3.1132    1.1963 H   0  0  0  0  0  0  0  0  0  0  0  0
    1.3205    4.9512    0.2414 C   0  0  0  0  0  0  0  0  0  0  0  0
    2.2220    5.1075   -0.3912 H   0  0  0  0  0  0  0  0  0  0  0  0
    1.5274    5.4852    1.1926 H   0  0  0  0  0  0  0  0  0  0  0  0
    0.0963    5.5781   -0.4309 C   0  0  0  0  0  0  0  0  0  0  0  0
   -0.1198    5.1284   -1.4227 H   0  0  0  0  0  0  0  0  0  0  0  0
    0.2386    6.6642   -0.5970 H   0  0  0  0  0  0  0  0  0  0  0  0
   -0.8109    5.4570    0.1985 H   0  0  0  0  0  0  0  0  0  0  0  0
    0.9875   -2.6891    0.7335 C   0  0  0  0  0  0  0  0  0  0  0  0
    0.1300   -3.0241    1.3561 H   0  0  0  0  0  0  0  0  0  0  0  0
    1.9006   -2.7608    1.3564 H   0  0  0  0  0  0  0  0  0  0  0  0
    1.1562   -3.5908   -0.4989 C   0  0  0  0  0  0  0  0  0  0  0  0
    1.9994   -3.1956   -1.1049 H   0  0  0  0  0  0  0  0  0  0  0  0
    0.2493   -3.5175   -1.1393 H   0  0  0  0  0  0  0  0  0  0  0  0
    1.4230   -5.0510   -0.1241 C   0  0  0  0  0  0  0  0  0  0  0  0
    2.3313   -5.0986    0.5163 H   0  0  0  0  0  0  0  0  0  0  0  0
    0.5894   -5.4295    0.5087 H   0  0  0  0  0  0  0  0  0  0  0  0
    1.6002   -5.9565   -1.3431 C   0  0  0  0  0  0  0  0  0  0  0  0
    0.6941   -5.9555   -1.9838 H   0  0  0  0  0  0  0  0  0  0  0  0
    1.7968   -7.0050   -1.0445 H   0  0  0  0  0  0  0  0  0  0  0  0
    2.4503   -5.6223   -1.9730 H   0  0  0  0  0  0  0  0  0  0  0  0
   -4.1034    2.8511   -0.5402 C   0  0  0  0  0  0  0  0  0  0  0  0
   -3.4186    3.1539   -1.3601 H   0  0  0  0  0  0  0  0  0  0  0  0
   -5.1303    3.0203   -0.9211 H   0  0  0  0  0  0  0  0  0  0  0  0
   -3.8490    3.7031    0.7137 C   0  0  0  0  0  0  0  0  0  0  0  0
   -2.8391    3.4674    1.1116 H   0  0  0  0  0  0  0  0  0  0  0  0
   -4.5706    3.4015    1.5050 H   0  0  0  0  0  0  0  0  0  0  0  0
   -3.9629    5.2121    0.4546 C   0  0  0  0  0  0  0  0  0  0  0  0
   -3.6360    5.7434    1.3730 H   0  0  0  0  0  0  0  0  0  0  0  0
   -3.2320    5.5023   -0.3330 H   0  0  0  0  0  0  0  0  0  0  0  0
   -5.3634    5.6907    0.0638 C   0  0  0  0  0  0  0  0  0  0  0  0
   -5.7023    5.2675   -0.9042 H   0  0  0  0  0  0  0  0  0  0  0  0
   -5.3924    6.7929   -0.0415 H   0  0  0  0  0  0  0  0  0  0  0  0
   -6.1135    5.4116    0.8329 H   0  0  0  0  0  0  0  0  0  0  0  0
   -4.2451   -2.7185    0.1060 C   0  0  0  0  0  0  0  0  0  0  0  0
   -3.8197   -2.9998    1.0939 H   0  0  0  0  0  0  0  0  0  0  0  0
   -3.6859   -3.3087   -0.6594 H   0  0  0  0  0  0  0  0  0  0  0  0
   -5.7316   -3.0625    0.0547 C   0  0  0  0  0  0  0  0  0  0  0  0
   -6.2696   -2.4642    0.8227 H   0  0  0  0  0  0  0  0  0  0  0  0
   -6.1443   -2.7517   -0.9326 H   0  0  0  0  0  0  0  0  0  0  0  0
   -6.0085   -4.5534    0.2710 C   0  0  0  0  0  0  0  0  0  0  0  0
   -5.5891   -4.8615    1.2540 H   0  0  0  0  0  0  0  0  0  0  0  0
   -5.4540   -5.1418   -0.4930 H   0  0  0  0  0  0  0  0  0  0  0  0
   -7.4961   -4.9000    0.2118 C   0  0  0  0  0  0  0  0  0  0  0  0
   -8.0699   -4.3536    0.9885 H   0  0  0  0  0  0  0  0  0  0  0  0
   -7.6644   -5.9826    0.3729 H   0  0  0  0  0  0  0  0  0  0  0  0
   -7.9341   -4.6370   -0.7731 H   0  0  0  0  0  0  0  0  0  0  0  0
  1  7  1  0  0  0  0
  2 28  1  0  0  0  0
  3 10  1  0  0  0  0
  3  4  1  0  0  0  0
  5 11  1  0  0  0  0
  5 54  1  0  0  0  0
  6  5  1  0  0  0  0
  7 14  1  0  0  0  0
  8 10  1  0  0  0  0
  8  7  2  0  0  0  0
  9  8  1  0  0  0  0
 10 11  2  0  0  0  0
 11 12  1  0  0  0  0
 12 13  1  0  0  0  0
 14 12  2  0  0  0  0
 14  2  1  0  0  0  0
 15  1  1  0  0  0  0
 15 18  1  0  0  0  0
 16 15  1  0  0  0  0
 17 15  1  0  0  0  0
 18 19  1  0  0  0  0
 18 20  1  0  0  0  0
 21 18  1  0  0  0  0
 21 23  1  0  0  0  0
 22 21  1  0  0  0  0
 24 27  1  0  0  0  0
 24 21  1  0  0  0  0
 25 24  1  0  0  0  0
 26 24  1  0  0  0  0
 28 29  1  0  0  0  0
 28 30  1  0  0  0  0
 31 34  1  0  0  0  0
 31 28  1  0  0  0  0
 32 31  1  0  0  0  0
 33 31  1  0  0  0  0
 34 36  1  0  0  0  0
 34 35  1  0  0  0  0
 37 39  1  0  0  0  0
 37 34  1  0  0  0  0
 38 37  1  0  0  0  0
 40 37  1  0  0  0  0
 41  3  1  0  0  0  0
 41 44  1  0  0  0  0
 42 41  1  0  0  0  0
 43 41  1  0  0  0  0
 44 45  1  0  0  0  0
 44 46  1  0  0  0  0
 47 44  1  0  0  0  0
 47 48  1  0  0  0  0
 49 47  1  0  0  0  0
 50 47  1  0  0  0  0
 50 53  1  0  0  0  0
 51 50  1  0  0  0  0
 52 50  1  0  0  0  0
 54 55  1  0  0  0  0
 56 54  1  0  0  0  0
 57 54  1  0  0  0  0
 57 60  1  0  0  0  0
 57 58  1  0  0  0  0
 59 57  1  0  0  0  0
 60 61  1  0  0  0  0
 62 60  1  0  0  0  0
 63 60  1  0  0  0  0
 63 65  1  0  0  0  0
 63 64  1  0  0  0  0
 66 63  1  0  0  0  0
M  END
