1,2
 OpenBabel05122313053D

 28 29  0  0  0  0  0  0  0  0999 V2000
   -2.4272    0.8518    0.2466 N   0  0  0  0  0  2  0  0  0  0  0  0
    0.2079    1.1627    0.2827 N   0  0  0  0  0  2  0  0  0  0  0  0
   -1.9460    2.1351    0.2044 C   0  0  0  0  0  0  0  0  0  0  0  0
   -0.5088    2.2583    0.1834 C   0  0  0  0  0  0  0  0  0  0  0  0
    1.5589    1.2979    0.1835 N   0  0  0  0  0  0  0  0  0  0  0  0
    2.0498   -0.5206    1.4903 O   0  0  0  0  0  0  0  0  0  0  0  0
   -3.7629    0.6652    0.3229 C   0  0  0  0  0  0  0  0  0  0  0  0
   -4.1021   -0.3805    0.3458 H   0  0  0  0  0  0  0  0  0  0  0  0
    3.8668    0.5413    0.3311 C   0  0  0  0  0  0  0  0  0  0  0  0
   -4.1857    3.0468    0.2987 C   0  0  0  0  0  0  0  0  0  0  0  0
   -4.8782    3.9010    0.3132 H   0  0  0  0  0  0  0  0  0  0  0  0
   -4.6705    1.7271    0.3520 C   0  0  0  0  0  0  0  0  0  0  0  0
   -5.7473    1.5152    0.4073 H   0  0  0  0  0  0  0  0  0  0  0  0
    2.4367    0.3661    0.7421 C   0  0  0  0  0  0  0  0  0  0  0  0
   -2.8073    3.2514    0.2271 C   0  0  0  0  0  0  0  0  0  0  0  0
   -2.3799    4.2637    0.1880 H   0  0  0  0  0  0  0  0  0  0  0  0
    4.4248    1.7734   -0.0702 C   0  0  0  0  0  0  0  0  0  0  0  0
    3.8198    2.6942   -0.0687 H   0  0  0  0  0  0  0  0  0  0  0  0
    4.6840   -0.6065    0.3830 C   0  0  0  0  0  0  0  0  0  0  0  0
    4.2291   -1.5533    0.7083 H   0  0  0  0  0  0  0  0  0  0  0  0
    6.5801    0.6997   -0.3965 C   0  0  0  0  0  0  0  0  0  0  0  0
    7.6405    0.7611   -0.6841 H   0  0  0  0  0  0  0  0  0  0  0  0
    6.0311   -0.5279    0.0114 C   0  0  0  0  0  0  0  0  0  0  0  0
    6.6595   -1.4306    0.0398 H   0  0  0  0  0  0  0  0  0  0  0  0
    5.7774    1.8510   -0.4306 C   0  0  0  0  0  0  0  0  0  0  0  0
    6.2089    2.8172   -0.7320 H   0  0  0  0  0  0  0  0  0  0  0  0
   -0.0342    3.2530    0.1195 H   0  0  0  0  0  0  0  0  0  0  0  0
    1.9041    1.9898   -0.4884 H   0  0  0  0  0  0  0  0  0  0  0  0
  1  7  1  0  0  0  0
  3 15  1  0  0  0  0
  3  1  1  0  0  0  0
  4  3  2  0  0  0  0
  4  2  1  0  0  0  0
  5  2  1  0  0  0  0
  5 14  1  0  0  0  0
  7  8  1  0  0  0  0
  7 12  2  0  0  0  0
  9 19  1  0  0  0  0
  9 14  1  0  0  0  0
 10 11  1  0  0  0  0
 10 12  1  0  0  0  0
 12 13  1  0  0  0  0
 14  6  2  0  0  0  0
 15 10  2  0  0  0  0
 16 15  1  0  0  0  0
 17 18  1  0  0  0  0
 17  9  2  0  0  0  0
 19 20  1  0  0  0  0
 21 23  1  0  0  0  0
 22 21  1  0  0  0  0
 23 24  1  0  0  0  0
 23 19  2  0  0  0  0
 25 21  2  0  0  0  0
 25 17  1  0  0  0  0
 26 25  1  0  0  0  0
 27  4  1  0  0  0  0
 28  5  1  0  0  0  0
M  END
