1,10
 OpenBabel05122313053D

 23 24  0  0  0  0  0  0  0  0999 V2000
   -1.4390    0.6092   -0.0893 N   0  0  0  0  0  2  0  0  0  0  0  0
    2.1911    2.8407    0.3949 C   0  0  0  0  0  0  0  0  0  0  0  0
    2.0121    3.7959    0.9090 H   0  0  0  0  0  0  0  0  0  0  0  0
   -2.5579    0.4027   -0.8315 C   0  0  0  0  0  3  0  0  0  0  0  0
   -2.6533   -0.6070   -1.2567 H   0  0  0  0  0  0  0  0  0  0  0  0
    2.5580    0.4024   -0.8314 C   0  0  0  0  0  3  0  0  0  0  0  0
    2.6533   -0.6074   -1.2566 H   0  0  0  0  0  0  0  0  0  0  0  0
   -3.5261    1.3953   -0.9948 C   0  0  0  0  0  0  0  0  0  0  0  0
   -4.4144    1.1818   -1.6059 H   0  0  0  0  0  0  0  0  0  0  0  0
    1.4391    0.6090   -0.0893 N   0  0  0  0  0  2  0  0  0  0  0  0
   -2.1907    2.8409    0.3951 C   0  0  0  0  0  0  0  0  0  0  0  0
   -2.0116    3.7961    0.9091 H   0  0  0  0  0  0  0  0  0  0  0  0
    0.0002    1.9549    1.3588 C   0  0  0  0  0  0  0  0  0  0  0  0
    0.0001    1.1504    2.1295 H   0  0  0  0  0  0  0  0  0  0  0  0
    0.0002    2.9346    1.8704 H   0  0  0  0  0  0  0  0  0  0  0  0
    3.5263    1.3949   -0.9949 C   0  0  0  0  0  0  0  0  0  0  0  0
    4.4145    1.1813   -1.6059 H   0  0  0  0  0  0  0  0  0  0  0  0
   -1.2535    1.8073    0.5315 C   0  0  0  0  0  0  0  0  0  0  0  0
    1.2538    1.8071    0.5315 C   0  0  0  0  0  0  0  0  0  0  0  0
   -3.3431    2.6397   -0.3763 C   0  0  0  0  0  0  0  0  0  0  0  0
   -4.0876    3.4417   -0.4879 H   0  0  0  0  0  0  0  0  0  0  0  0
    3.3434    2.6393   -0.3764 C   0  0  0  0  0  0  0  0  0  0  0  0
    4.0880    3.4413   -0.4881 H   0  0  0  0  0  0  0  0  0  0  0  0
  1 18  1  0  0  0  0
  2 19  2  0  0  0  0
  2  3  1  0  0  0  0
  4  1  1  0  0  0  0
  5  4  1  0  0  0  0
  6 10  1  0  0  0  0
  7  6  1  0  0  0  0
  8  4  1  0  0  0  0
  8 20  2  0  0  0  0
  9  8  1  0  0  0  0
 10 19  1  0  0  0  0
 11 18  2  0  0  0  0
 11 12  1  0  0  0  0
 13 15  1  0  0  0  0
 13 14  1  0  0  0  0
 16  6  1  0  0  0  0
 16 22  2  0  0  0  0
 17 16  1  0  0  0  0
 18 13  1  0  0  0  0
 19 13  1  0  0  0  0
 20 11  1  0  0  0  0
 21 20  1  0  0  0  0
 22  2  1  0  0  0  0
 23 22  1  0  0  0  0
M  END
