1,4
 OpenBabel05122313053D

 18 19  0  0  0  0  0  0  0  0999 V2000
    0.7230    1.3460   -0.0000 N   0  0  0  0  0  2  0  0  0  0  0  0
    3.0971    1.4189   -0.0001 N   0  0  0  0  0  0  0  0  0  0  0  0
    3.0633   -2.8515    0.0001 N   0  0  0  0  0  0  0  0  0  0  0  0
    0.7359   -1.3376   -0.0001 N   0  0  0  0  0  2  0  0  0  0  0  0
    0.6427    2.6917   -0.0000 C   0  0  0  0  0  0  0  0  0  0  0  0
   -0.3760    3.1166    0.0000 H   0  0  0  0  0  0  0  0  0  0  0  0
    1.8158    3.4539   -0.0001 C   0  0  0  0  0  0  0  0  0  0  0  0
    1.7698    4.5521   -0.0001 H   0  0  0  0  0  0  0  0  0  0  0  0
    3.0387    2.7602   -0.0001 C   0  0  0  0  0  0  0  0  0  0  0  0
    4.0024    3.2971   -0.0001 H   0  0  0  0  0  0  0  0  0  0  0  0
    1.9527    0.7461   -0.0000 C   0  0  0  0  0  0  0  0  0  0  0  0
    1.9508   -0.7265   -0.0000 C   0  0  0  0  0  0  0  0  0  0  0  0
    3.1175   -1.5155    0.0000 C   0  0  0  0  0  0  0  0  0  0  0  0
    4.1024   -1.0183    0.0001 H   0  0  0  0  0  0  0  0  0  0  0  0
    1.8549   -3.4266    0.0000 C   0  0  0  0  0  0  0  0  0  0  0  0
    1.8074   -4.5288    0.0000 H   0  0  0  0  0  0  0  0  0  0  0  0
    0.6591   -2.6764   -0.0001 C   0  0  0  0  0  0  0  0  0  0  0  0
   -0.3503   -3.1206   -0.0001 H   0  0  0  0  0  0  0  0  0  0  0  0
  2 11  1  0  0  0  0
  4 17  1  0  0  0  0
  4 12  1  0  0  0  0
  5  1  1  0  0  0  0
  5  6  1  0  0  0  0
  7  9  1  0  0  0  0
  7  5  2  0  0  0  0
  8  7  1  0  0  0  0
  9 10  1  0  0  0  0
  9  2  2  0  0  0  0
 11 12  2  0  0  0  0
 11  1  1  0  0  0  0
 12 13  1  0  0  0  0
 13  3  2  0  0  0  0
 13 14  1  0  0  0  0
 15 16  1  0  0  0  0
 15  3  1  0  0  0  0
 17 15  2  0  0  0  0
 18 17  1  0  0  0  0
M  END
