1,2
 OpenBabel05122313053D

 28 28  0  0  0  0  0  0  0  0999 V2000
    2.9341    1.3858    0.0745 N   0  0  0  0  0  2  0  0  0  0  0  0
    0.4187    1.5783    0.0602 N   0  0  0  0  0  2  0  0  0  0  0  0
   -5.9738    1.5534    0.8507 C   0  0  0  0  0  0  0  0  0  0  0  0
   -5.8340    0.5237    1.2477 H   0  0  0  0  0  0  0  0  0  0  0  0
   -7.0210    1.6752    0.5169 H   0  0  0  0  0  0  0  0  0  0  0  0
   -5.7657    2.2875    1.6607 H   0  0  0  0  0  0  0  0  0  0  0  0
    0.3891    4.0667    0.2000 C   0  0  0  0  0  0  0  0  0  0  0  0
    0.5029    4.6120   -0.7605 H   0  0  0  0  0  0  0  0  0  0  0  0
    0.8608    4.6880    0.9866 H   0  0  0  0  0  0  0  0  0  0  0  0
   -0.6890    3.9696    0.4138 H   0  0  0  0  0  0  0  0  0  0  0  0
    3.4788    3.7667    0.1818 C   0  0  0  0  0  0  0  0  0  0  0  0
    4.1950    3.6849   -0.6615 H   0  0  0  0  0  0  0  0  0  0  0  0
    4.0867    3.7103    1.1094 H   0  0  0  0  0  0  0  0  0  0  0  0
    2.9804    4.7505    0.1382 H   0  0  0  0  0  0  0  0  0  0  0  0
   -1.6408    1.9390   -1.2234 C   0  0  0  0  0  0  0  0  0  0  0  0
   -1.0248    2.1293   -2.1142 H   0  0  0  0  0  0  0  0  0  0  0  0
   -1.7664    1.3071    1.1238 C   0  0  0  0  0  0  0  0  0  0  0  0
   -1.2465    1.0250    2.0509 H   0  0  0  0  0  0  0  0  0  0  0  0
   -3.0332    2.0142   -1.2793 C   0  0  0  0  0  0  0  0  0  0  0  0
   -3.5534    2.2772   -2.2117 H   0  0  0  0  0  0  0  0  0  0  0  0
   -3.1641    1.3816    1.0717 C   0  0  0  0  0  0  0  0  0  0  0  0
   -3.7425    1.1434    1.9734 H   0  0  0  0  0  0  0  0  0  0  0  0
   -3.8069    1.7294   -0.1336 C   0  0  0  0  0  0  0  0  0  0  0  0
   -0.9977    1.5896   -0.0165 C   0  0  0  0  0  0  0  0  0  0  0  0
    2.5029    2.6375    0.1285 C   0  0  0  0  0  0  0  0  0  0  0  0
    1.0616    2.7261    0.1250 C   0  0  0  0  0  0  0  0  0  0  0  0
   -5.1620    1.7895   -0.2892 O   0  0  0  0  0  0  0  0  0  0  0  0
    4.2154    1.1900    0.0762 O   0  0  0  0  0  1  0  0  0  0  0  0
  1 28  1  0  0  0  0
  1 25  1  0  0  0  0
  2 26  1  0  0  0  0
  3  4  1  0  0  0  0
  3  6  1  0  0  0  0
  5  3  1  0  0  0  0
  7 10  1  0  0  0  0
  7  9  1  0  0  0  0
  8  7  1  0  0  0  0
 11 13  1  0  0  0  0
 12 11  1  0  0  0  0
 14 11  1  0  0  0  0
 15 24  1  0  0  0  0
 16 15  1  0  0  0  0
 17 18  1  0  0  0  0
 19 15  2  0  0  0  0
 19 23  1  0  0  0  0
 20 19  1  0  0  0  0
 21 17  1  0  0  0  0
 21 22  1  0  0  0  0
 23 21  2  0  0  0  0
 24  2  1  0  0  0  0
 24 17  2  0  0  0  0
 25 11  1  0  0  0  0
 26 25  2  0  0  0  0
 26  7  1  0  0  0  0
 27 23  1  0  0  0  0
 27  3  1  0  0  0  0
M  END
