7,8
 OpenBabel05122313053D

 26 27  0  0  1  0  0  0  0  0999 V2000
   -4.7139    3.1921    0.0001 O   0  0  0  0  0  0  0  0  0  0  0  0
   -3.3836    5.0285   -0.0003 O   0  0  0  0  0  0  0  0  0  0  0  0
   -4.2696    5.4516   -0.0002 H   0  0  0  0  0  0  0  0  0  0  0  0
   -4.7140   -3.1921    0.0007 O   0  0  0  0  0  0  0  0  0  0  0  0
   -3.3837   -5.0285   -0.0004 O   0  0  0  0  0  0  0  0  0  0  0  0
   -4.2697   -5.4516   -0.0001 H   0  0  0  0  0  0  0  0  0  0  0  0
   -0.0224    1.3287   -0.0002 N   0  0  0  0  0  2  0  0  0  0  0  0
   -0.0224   -1.3287   -0.0007 N   0  0  0  0  0  2  0  0  0  0  0  0
    0.0684    2.6747   -0.0004 C   0  0  0  0  0  3  0  0  0  0  0  0
    1.0829    3.0958   -0.0005 H   0  0  0  0  0  0  0  0  0  0  0  0
   -1.0562    3.5018   -0.0004 C   0  0  0  0  0  0  0  0  0  0  0  0
   -0.9424    4.5934   -0.0005 H   0  0  0  0  0  0  0  0  0  0  0  0
   -2.3308    2.9070   -0.0002 C   0  0  0  0  0  0  0  0  0  0  0  0
   -2.4230    1.5088   -0.0001 C   0  0  0  0  0  0  0  0  0  0  0  0
   -3.4213    1.0511    0.0000 H   0  0  0  0  0  0  0  0  0  0  0  0
   -1.2527    0.7367   -0.0001 C   0  0  0  0  0  0  0  0  0  0  0  0
   -1.2527   -0.7367   -0.0002 C   0  0  1  0  0  3  0  0  0  0  0  0
   -2.4230   -1.5088    0.0000 C   0  0  0  0  0  0  0  0  0  0  0  0
   -3.4213   -1.0511    0.0005 H   0  0  0  0  0  0  0  0  0  0  0  0
   -2.3308   -2.9070   -0.0003 C   0  0  0  0  0  0  0  0  0  0  0  0
   -1.0562   -3.5018   -0.0009 C   0  0  0  0  0  0  0  0  0  0  0  0
   -0.9425   -4.5934   -0.0012 H   0  0  0  0  0  0  0  0  0  0  0  0
    0.0684   -2.6747   -0.0011 C   0  0  0  0  0  0  0  0  0  0  0  0
    1.0828   -3.0958   -0.0015 H   0  0  0  0  0  0  0  0  0  0  0  0
   -3.6053    3.6948   -0.0001 C   0  0  0  0  0  0  0  0  0  0  0  0
   -3.6053   -3.6948    0.0000 C   0  0  0  0  0  0  0  0  0  0  0  0
  2  3  1  0  0  0  0
  2 25  1  0  0  0  0
  5  6  1  0  0  0  0
  5 26  1  0  0  0  0
  7 16  1  0  0  0  0
  8 17  1  0  0  0  0
  9 11  1  0  0  0  0
  9  7  1  0  0  0  0
 10  9  1  0  0  0  0
 11 13  2  0  0  0  0
 12 11  1  0  0  0  0
 13 25  1  0  0  0  0
 13 14  1  0  0  0  0
 14 15  1  0  0  0  0
 16 14  2  0  0  0  0
 17 16  1  6  0  0  0
 17 18  1  0  0  0  0
 18 19  1  0  0  0  0
 20 18  2  0  0  0  0
 20 26  1  0  0  0  0
 21 20  1  0  0  0  0
 22 21  1  0  0  0  0
 23 21  2  0  0  0  0
 23  8  1  0  0  0  0
 24 23  1  0  0  0  0
 25  1  2  0  0  0  0
 26  4  2  0  0  0  0
M  END
