1,2
 OpenBabel05122313053D

 39 40  0  0  0  0  0  0  0  0999 V2000
    0.2552    0.0184    0.4077 N   0  0  0  0  0  2  0  0  0  0  0  0
   -2.1847    0.6206   -0.3053 N   0  0  0  0  0  2  0  0  0  0  0  0
    1.5725   -0.4990    0.7592 C   0  0  0  0  0  0  0  0  0  0  0  0
    1.4058   -1.2755    1.5327 H   0  0  0  0  0  0  0  0  0  0  0  0
    2.2069    0.3148    1.1679 H   0  0  0  0  0  0  0  0  0  0  0  0
    2.2494   -1.1665   -0.4464 C   0  0  0  0  0  0  0  0  0  0  0  0
    2.4661   -0.3998   -1.2225 H   0  0  0  0  0  0  0  0  0  0  0  0
    1.5286   -1.8895   -0.8814 H   0  0  0  0  0  0  0  0  0  0  0  0
    3.5308   -1.8984   -0.0467 C   0  0  0  0  0  0  0  0  0  0  0  0
    4.2279   -1.1959    0.4647 H   0  0  0  0  0  0  0  0  0  0  0  0
    3.2717   -2.6789    0.7025 H   0  0  0  0  0  0  0  0  0  0  0  0
    4.2461   -2.5523   -1.2328 C   0  0  0  0  0  0  0  0  0  0  0  0
    4.4932   -1.7718   -1.9872 H   0  0  0  0  0  0  0  0  0  0  0  0
    3.5408   -3.2469   -1.7396 H   0  0  0  0  0  0  0  0  0  0  0  0
    5.5158   -3.3047   -0.8334 C   0  0  0  0  0  0  0  0  0  0  0  0
    6.2530   -2.6275   -0.3529 H   0  0  0  0  0  0  0  0  0  0  0  0
    6.0104   -3.7694   -1.7100 H   0  0  0  0  0  0  0  0  0  0  0  0
    5.2910   -4.1141   -0.1081 H   0  0  0  0  0  0  0  0  0  0  0  0
    0.0588    1.2929    0.1558 C   0  0  0  0  0  0  0  0  0  0  0  0
    1.1267    2.3311    0.2402 C   0  0  0  0  0  0  0  0  0  0  0  0
    2.0125    2.5374   -0.8375 C   0  0  0  0  0  0  0  0  0  0  0  0
    1.9148    1.9236   -1.7454 H   0  0  0  0  0  0  0  0  0  0  0  0
    3.0084    3.5213   -0.7515 C   0  0  0  0  0  0  0  0  0  0  0  0
    3.6975    3.6745   -1.5956 H   0  0  0  0  0  0  0  0  0  0  0  0
    3.1253    4.3074    0.4057 C   0  0  0  0  0  0  0  0  0  0  0  0
    3.9088    5.0771    0.4717 H   0  0  0  0  0  0  0  0  0  0  0  0
    2.2407    4.1117    1.4782 C   0  0  0  0  0  0  0  0  0  0  0  0
    2.3295    4.7256    2.3870 H   0  0  0  0  0  0  0  0  0  0  0  0
    1.2415    3.1306    1.3969 C   0  0  0  0  0  0  0  0  0  0  0  0
    0.5486    2.9715    2.2371 H   0  0  0  0  0  0  0  0  0  0  0  0
   -1.3023    1.6675   -0.2359 C   0  0  0  0  0  0  0  0  0  0  0  0
   -3.4615    0.8410   -0.6730 C   0  0  0  0  0  0  0  0  0  0  0  0
   -4.0917   -0.0656   -0.6978 H   0  0  0  0  0  0  0  0  0  0  0  0
   -3.9224    2.1256   -0.9885 C   0  0  0  0  0  0  0  0  0  0  0  0
   -4.9724    2.2620   -1.2840 H   0  0  0  0  0  0  0  0  0  0  0  0
   -3.0350    3.2112   -0.9217 C   0  0  0  0  0  0  0  0  0  0  0  0
   -3.3728    4.2293   -1.1648 H   0  0  0  0  0  0  0  0  0  0  0  0
   -1.7073    2.9788   -0.5424 C   0  0  0  0  0  0  0  0  0  0  0  0
   -0.9731    3.7939   -0.4794 H   0  0  0  0  0  0  0  0  0  0  0  0
  1  3  1  0  0  0  0
  2 31  1  0  0  0  0
  3  5  1  0  0  0  0
  3  4  1  0  0  0  0
  6  9  1  0  0  0  0
  6  3  1  0  0  0  0
  7  6  1  0  0  0  0
  8  6  1  0  0  0  0
  9 10  1  0  0  0  0
  9 11  1  0  0  0  0
 12 15  1  0  0  0  0
 12  9  1  0  0  0  0
 13 12  1  0  0  0  0
 14 12  1  0  0  0  0
 15 16  1  0  0  0  0
 15 18  1  0  0  0  0
 17 15  1  0  0  0  0
 19 20  1  0  0  0  0
 19  1  1  0  0  0  0
 20 29  1  0  0  0  0
 21 23  1  0  0  0  0
 21 20  2  0  0  0  0
 22 21  1  0  0  0  0
 23 25  2  0  0  0  0
 24 23  1  0  0  0  0
 25 26  1  0  0  0  0
 25 27  1  0  0  0  0
 27 28  1  0  0  0  0
 29 27  2  0  0  0  0
 29 30  1  0  0  0  0
 31 19  2  0  0  0  0
 32  2  1  0  0  0  0
 33 32  1  0  0  0  0
 34 36  1  0  0  0  0
 34 32  2  0  0  0  0
 35 34  1  0  0  0  0
 36 38  2  0  0  0  0
 37 36  1  0  0  0  0
 38 39  1  0  0  0  0
 38 31  1  0  0  0  0
M  END
