2,3
 OpenBabel05122313053D

 48 51  0  0  1  0  0  0  0  0999 V2000
   -1.4191    0.1488    0.0815 P   0  0  0  0  0  4  0  0  0  0  0  0
   -0.0549    0.5532   -0.7161 N   0  0  0  0  0  2  0  0  0  0  0  0
    2.3021    1.4959   -0.6122 N   0  0  0  0  0  2  0  0  0  0  0  0
    0.0787    1.7643   -1.5009 C   0  0  0  0  0  0  0  0  0  0  0  0
   -0.7344    2.5052   -1.3265 H   0  0  0  0  0  0  0  0  0  0  0  0
    0.0654    1.5413   -2.5969 H   0  0  0  0  0  0  0  0  0  0  0  0
    1.4091    2.3776   -1.1515 C   0  0  2  0  0  3  0  0  0  0  0  0
    1.7338    3.7213   -1.3662 C   0  0  0  0  0  0  0  0  0  0  0  0
    0.9789    4.3936   -1.8002 H   0  0  0  0  0  0  0  0  0  0  0  0
    3.0100    4.1870   -1.0196 C   0  0  0  0  0  0  0  0  0  0  0  0
    3.2850    5.2406   -1.1766 H   0  0  0  0  0  0  0  0  0  0  0  0
    3.9214    3.2767   -0.4632 C   0  0  0  0  0  0  0  0  0  0  0  0
    4.9346    3.5873   -0.1702 H   0  0  0  0  0  0  0  0  0  0  0  0
    3.5367    1.9476   -0.2746 C   0  0  0  0  0  0  0  0  0  0  0  0
    4.2058    1.1785    0.1475 H   0  0  0  0  0  0  0  0  0  0  0  0
   -2.6982   -0.7229   -0.8897 C   0  0  0  0  0  0  0  0  0  0  0  0
   -4.0425   -0.7633   -0.4602 C   0  0  0  0  0  0  0  0  0  0  0  0
   -4.3449   -0.2541    0.4681 H   0  0  0  0  0  0  0  0  0  0  0  0
   -4.9983   -1.4463   -1.2262 C   0  0  0  0  0  0  0  0  0  0  0  0
   -6.0455   -1.4822   -0.8900 H   0  0  0  0  0  0  0  0  0  0  0  0
   -4.6177   -2.0779   -2.4223 C   0  0  0  0  0  0  0  0  0  0  0  0
   -5.3701   -2.6112   -3.0233 H   0  0  0  0  0  0  0  0  0  0  0  0
   -3.2825   -2.0286   -2.8528 C   0  0  0  0  0  0  0  0  0  0  0  0
   -2.9844   -2.5266   -3.7877 H   0  0  0  0  0  0  0  0  0  0  0  0
   -2.3173   -1.3540   -2.0898 C   0  0  0  0  0  0  0  0  0  0  0  0
   -1.2574   -1.3402   -2.3889 H   0  0  0  0  0  0  0  0  0  0  0  0
   -2.2448    1.6775    0.6626 C   0  0  0  0  0  0  0  0  0  0  0  0
   -3.1284    2.3814   -0.1846 C   0  0  0  0  0  0  0  0  0  0  0  0
   -3.4191    1.9516   -1.1554 H   0  0  0  0  0  0  0  0  0  0  0  0
   -3.6484    3.6219    0.2157 C   0  0  0  0  0  0  0  0  0  0  0  0
   -4.3374    4.1648   -0.4489 H   0  0  0  0  0  0  0  0  0  0  0  0
   -3.2944    4.1652    1.4605 C   0  0  0  0  0  0  0  0  0  0  0  0
   -3.7074    5.1355    1.7752 H   0  0  0  0  0  0  0  0  0  0  0  0
   -2.4151    3.4679    2.3061 C   0  0  0  0  0  0  0  0  0  0  0  0
   -2.1402    3.8886    3.2851 H   0  0  0  0  0  0  0  0  0  0  0  0
   -1.8869    2.2317    1.9094 C   0  0  0  0  0  0  0  0  0  0  0  0
   -1.1981    1.6866    2.5725 H   0  0  0  0  0  0  0  0  0  0  0  0
   -0.9747   -0.8283    1.5423 C   0  0  0  0  0  0  0  0  0  0  0  0
   -1.8289   -1.8231    2.0510 C   0  0  0  0  0  0  0  0  0  0  0  0
   -2.7836   -2.0449    1.5522 H   0  0  0  0  0  0  0  0  0  0  0  0
   -1.4339   -2.5641    3.1743 C   0  0  0  0  0  0  0  0  0  0  0  0
   -2.0933   -3.3536    3.5646 H   0  0  0  0  0  0  0  0  0  0  0  0
   -0.1906   -2.3197    3.7802 C   0  0  0  0  0  0  0  0  0  0  0  0
    0.1241   -2.9195    4.6476 H   0  0  0  0  0  0  0  0  0  0  0  0
    0.6590   -1.3252    3.2709 C   0  0  0  0  0  0  0  0  0  0  0  0
    1.6476   -1.1494    3.7199 H   0  0  0  0  0  0  0  0  0  0  0  0
    0.2684   -0.5711    2.1576 C   0  0  0  0  0  0  0  0  0  0  0  0
    0.9496    0.1823    1.7299 H   0  0  0  0  0  0  0  0  0  0  0  0
  1 27  1  0  0  0  0
  1 38  1  0  0  0  0
  2  1  1  0  0  0  0
  3 14  1  0  0  0  0
  4  5  1  0  0  0  0
  4  2  1  0  0  0  0
  6  4  1  0  0  0  0
  7  4  1  6  0  0  0
  7  3  1  0  0  0  0
  8  7  1  0  0  0  0
  8 10  2  0  0  0  0
  9  8  1  0  0  0  0
 10 12  1  0  0  0  0
 11 10  1  0  0  0  0
 12 14  2  0  0  0  0
 12 13  1  0  0  0  0
 14 15  1  0  0  0  0
 16 17  1  0  0  0  0
 16  1  1  0  0  0  0
 17 18  1  0  0  0  0
 19 20  1  0  0  0  0
 19 17  2  0  0  0  0
 21 19  1  0  0  0  0
 22 21  1  0  0  0  0
 23 21  2  0  0  0  0
 23 25  1  0  0  0  0
 24 23  1  0  0  0  0
 25 16  2  0  0  0  0
 26 25  1  0  0  0  0
 27 36  1  0  0  0  0
 28 30  1  0  0  0  0
 28 27  2  0  0  0  0
 29 28  1  0  0  0  0
 30 32  2  0  0  0  0
 31 30  1  0  0  0  0
 32 33  1  0  0  0  0
 32 34  1  0  0  0  0
 34 35  1  0  0  0  0
 36 34  2  0  0  0  0
 36 37  1  0  0  0  0
 38 39  2  0  0  0  0
 38 47  1  0  0  0  0
 39 41  1  0  0  0  0
 40 39  1  0  0  0  0
 41 42  1  0  0  0  0
 41 43  2  0  0  0  0
 43 44  1  0  0  0  0
 45 46  1  0  0  0  0
 45 43  1  0  0  0  0
 47 45  2  0  0  0  0
 48 47  1  0  0  0  0
M  END
