1,2
 OpenBabel05122313053D

 34 33  0  0  1  0  0  0  0  0999 V2000
    1.9247    0.0484    0.5014 N   0  0  0  0  0  2  0  0  0  0  0  0
    0.1752    1.8599   -0.5839 N   0  0  0  0  0  2  0  0  0  0  0  0
    3.8101    1.0259    1.8213 C   0  0  0  0  0  0  0  0  0  0  0  0
    3.8064    0.2063    2.5710 H   0  0  0  0  0  0  0  0  0  0  0  0
    4.6577    0.8234    1.1324 H   0  0  0  0  0  0  0  0  0  0  0  0
    4.0335    1.9711    2.3496 H   0  0  0  0  0  0  0  0  0  0  0  0
    2.4826    1.1281    1.0936 C   0  0  1  0  0  3  0  0  0  0  0  0
    1.8867    2.4118    1.0076 C   0  0  0  0  0  0  0  0  0  0  0  0
    2.3858    3.2223    1.5589 H   0  0  0  0  0  0  0  0  0  0  0  0
    0.9141    2.7926    0.0576 C   0  0  0  0  0  0  0  0  0  0  0  0
    0.8012    4.2635   -0.2905 C   0  0  0  0  0  0  0  0  0  0  0  0
   -0.2539    4.5806   -0.4220 H   0  0  0  0  0  0  0  0  0  0  0  0
    1.2506    4.8797    0.5111 H   0  0  0  0  0  0  0  0  0  0  0  0
    1.3390    4.5159   -1.2309 H   0  0  0  0  0  0  0  0  0  0  0  0
    2.8099   -1.0780    0.1888 C   0  0  0  0  0  0  0  0  0  0  0  0
    3.4852   -1.3249    1.0403 H   0  0  0  0  0  0  0  0  0  0  0  0
    2.1699   -1.9678    0.0173 H   0  0  0  0  0  0  0  0  0  0  0  0
    3.6651   -0.8449   -1.0668 C   0  0  0  0  0  0  0  0  0  0  0  0
    4.3106    0.0471   -0.9160 H   0  0  0  0  0  0  0  0  0  0  0  0
    2.9906   -0.5865   -1.9092 H   0  0  0  0  0  0  0  0  0  0  0  0
    4.5193   -2.0591   -1.4288 C   0  0  0  0  0  0  0  0  0  0  0  0
    5.1227   -1.8790   -2.3412 H   0  0  0  0  0  0  0  0  0  0  0  0
    5.2223   -2.3204   -0.6099 H   0  0  0  0  0  0  0  0  0  0  0  0
    3.8880   -2.9530   -1.6168 H   0  0  0  0  0  0  0  0  0  0  0  0
   -0.2704    2.1264   -1.9560 C   0  0  0  0  0  0  0  0  0  0  0  0
   -1.3513    1.8912   -2.0530 H   0  0  0  0  0  0  0  0  0  0  0  0
   -0.1396    3.1881   -2.2552 H   0  0  0  0  0  0  0  0  0  0  0  0
    0.5168    1.2208   -2.9175 C   0  0  0  0  0  0  0  0  0  0  0  0
    1.5969    1.4734   -2.8393 H   0  0  0  0  0  0  0  0  0  0  0  0
    0.2125    1.4467   -3.9635 H   0  0  0  0  0  0  0  0  0  0  0  0
    0.3072   -0.2676   -2.6399 C   0  0  0  0  0  0  0  0  0  0  0  0
    0.8945   -0.8940   -3.3442 H   0  0  0  0  0  0  0  0  0  0  0  0
    0.7285   -0.6163   -1.6441 H   0  0  0  0  0  0  0  0  0  0  0  0
   -0.7503   -0.5743   -2.7209 H   0  0  0  0  0  0  0  0  0  0  0  0
  2 10  1  0  0  0  0
  3  6  1  0  0  0  0
  3  4  1  0  0  0  0
  5  3  1  0  0  0  0
  7  1  1  6  0  0  0
  7  3  1  0  0  0  0
  8  7  1  0  0  0  0
  8  9  1  0  0  0  0
 10  8  2  0  0  0  0
 11 10  1  0  0  0  0
 11 13  1  0  0  0  0
 12 11  1  0  0  0  0
 14 11  1  0  0  0  0
 15  1  1  0  0  0  0
 15 16  1  0  0  0  0
 17 15  1  0  0  0  0
 18 19  1  0  0  0  0
 18 15  1  0  0  0  0
 20 18  1  0  0  0  0
 21 18  1  0  0  0  0
 21 23  1  0  0  0  0
 22 21  1  0  0  0  0
 24 21  1  0  0  0  0
 25  2  1  0  0  0  0
 26 25  1  0  0  0  0
 27 25  1  0  0  0  0
 28 29  1  0  0  0  0
 28 31  1  0  0  0  0
 28 25  1  0  0  0  0
 30 28  1  0  0  0  0
 31 33  1  0  0  0  0
 32 31  1  0  0  0  0
 34 31  1  0  0  0  0
M  END
