2,3
 OpenBabel05122313053D

 26 26  0  0  0  0  0  0  0  0999 V2000
    4.3319    1.7753    0.2934 O   0  0  0  0  0  0  0  0  0  0  0  0
   -1.9181    0.6115    0.1583 N   0  0  0  0  0  2  0  0  0  0  0  0
    0.6700    1.4474    0.2817 N   0  0  0  0  0  0  0  0  0  0  0  0
   -3.1301    0.1946   -0.2721 C   0  0  0  0  0  3  0  0  0  0  0  0
   -3.2182   -0.8753   -0.5082 H   0  0  0  0  0  0  0  0  0  0  0  0
   -4.2117    1.0676   -0.4146 C   0  0  0  0  0  0  0  0  0  0  0  0
   -5.1789    0.6799   -0.7634 H   0  0  0  0  0  0  0  0  0  0  0  0
   -4.0304    2.4260   -0.1185 C   0  0  0  0  0  0  0  0  0  0  0  0
   -4.8587    3.1414   -0.2278 H   0  0  0  0  0  0  0  0  0  0  0  0
   -2.7680    2.8603    0.3062 C   0  0  0  0  0  0  0  0  0  0  0  0
   -2.5771    3.9194    0.5316 H   0  0  0  0  0  0  0  0  0  0  0  0
   -1.7313    1.9265    0.4400 C   0  0  0  0  0  0  0  0  0  0  0  0
   -0.3528    2.3008    0.9173 C   0  0  0  0  0  0  0  0  0  0  0  0
   -0.2898    2.1389    2.0167 H   0  0  0  0  0  0  0  0  0  0  0  0
   -0.1581    3.3812    0.7352 H   0  0  0  0  0  0  0  0  0  0  0  0
    2.0276    1.7630    0.7701 C   0  0  0  0  0  0  0  0  0  0  0  0
    2.1418    1.3621    1.7977 H   0  0  0  0  0  0  0  0  0  0  0  0
    2.1671    2.8669    0.8231 H   0  0  0  0  0  0  0  0  0  0  0  0
    3.1173    1.2114   -0.1423 C   0  0  0  0  0  0  0  0  0  0  0  0
    3.1505    0.0990   -0.1000 H   0  0  0  0  0  0  0  0  0  0  0  0
    2.8952    1.4796   -1.2080 H   0  0  0  0  0  0  0  0  0  0  0  0
    5.4480    1.2686   -0.4021 C   0  0  0  0  0  0  0  0  0  0  0  0
    5.5514    0.1634   -0.2800 H   0  0  0  0  0  0  0  0  0  0  0  0
    6.3507    1.7584    0.0115 H   0  0  0  0  0  0  0  0  0  0  0  0
    5.3940    1.4857   -1.4969 H   0  0  0  0  0  0  0  0  0  0  0  0
    0.6386    1.5911   -0.7505 H   0  0  0  0  0  0  0  0  0  0  0  0
  2 12  1  0  0  0  0
  3 16  1  0  0  0  0
  3 13  1  0  0  0  0
  4  2  1  0  0  0  0
  5  4  1  0  0  0  0
  6  4  1  0  0  0  0
  6  8  2  0  0  0  0
  7  6  1  0  0  0  0
  8 10  1  0  0  0  0
  9  8  1  0  0  0  0
 10 12  2  0  0  0  0
 10 11  1  0  0  0  0
 12 13  1  0  0  0  0
 13 14  1  0  0  0  0
 15 13  1  0  0  0  0
 16 18  1  0  0  0  0
 16 17  1  0  0  0  0
 19 20  1  0  0  0  0
 19  1  1  0  0  0  0
 19 16  1  0  0  0  0
 21 19  1  0  0  0  0
 22 23  1  0  0  0  0
 22 24  1  0  0  0  0
 22  1  1  0  0  0  0
 25 22  1  0  0  0  0
 26  3  1  0  0  0  0
M  END
