1,2
 OpenBabel05122313053D

 28 28  0  0  0  0  0  0  0  0999 V2000
    0.5335    1.6164    0.4000 N   0  0  0  0  0  2  0  0  0  0  0  0
   -1.0856   -0.0208   -0.9089 N   0  0  0  0  0  2  0  0  0  0  0  0
   -3.9103   -0.0694   -0.0842 N   0  0  0  0  0  0  0  0  0  0  0  0
    1.3967    2.4172    1.0576 C   0  0  0  0  0  3  0  0  0  0  0  0
    2.1746    1.9104    1.6466 H   0  0  0  0  0  0  0  0  0  0  0  0
    1.3217    3.8130    0.9957 C   0  0  0  0  0  0  0  0  0  0  0  0
    2.0525    4.4178    1.5505 H   0  0  0  0  0  0  0  0  0  0  0  0
    0.3151    4.4117    0.2202 C   0  0  0  0  0  0  0  0  0  0  0  0
    0.2342    5.5064    0.1523 H   0  0  0  0  0  0  0  0  0  0  0  0
   -0.5793    3.5877   -0.4689 C   0  0  0  0  0  0  0  0  0  0  0  0
   -1.3805    4.0069   -1.0942 H   0  0  0  0  0  0  0  0  0  0  0  0
   -0.4456    2.1908   -0.3663 C   0  0  0  0  0  0  0  0  0  0  0  0
   -1.3218    1.2537   -1.0453 C   0  0  0  0  0  3  0  0  0  0  0  0
   -2.1543    1.6278   -1.6656 H   0  0  0  0  0  0  0  0  0  0  0  0
   -2.0420   -0.9563   -1.4683 C   0  0  0  0  0  0  0  0  0  0  0  0
   -1.5219   -1.8955   -1.7332 H   0  0  0  0  0  0  0  0  0  0  0  0
   -2.4957   -0.5396   -2.3937 H   0  0  0  0  0  0  0  0  0  0  0  0
   -3.1487   -1.2525   -0.4276 C   0  0  0  0  0  0  0  0  0  0  0  0
   -3.7855   -2.0773   -0.8369 H   0  0  0  0  0  0  0  0  0  0  0  0
   -2.6609   -1.6478    0.4846 H   0  0  0  0  0  0  0  0  0  0  0  0
   -4.3279    0.0058    1.3059 C   0  0  0  0  0  0  0  0  0  0  0  0
   -5.1149   -0.7467    1.5741 H   0  0  0  0  0  0  0  0  0  0  0  0
   -4.7446    1.0120    1.5177 H   0  0  0  0  0  0  0  0  0  0  0  0
   -3.4592   -0.1537    1.9742 H   0  0  0  0  0  0  0  0  0  0  0  0
   -4.9737    0.2381   -1.0200 C   0  0  0  0  0  0  0  0  0  0  0  0
   -4.5858    0.2652   -2.0592 H   0  0  0  0  0  0  0  0  0  0  0  0
   -5.4019    1.2368   -0.7977 H   0  0  0  0  0  0  0  0  0  0  0  0
   -5.8136   -0.5058   -0.9956 H   0  0  0  0  0  0  0  0  0  0  0  0
  1  4  1  0  0  0  0
  3 21  1  0  0  0  0
  4  5  1  0  0  0  0
  6  4  1  0  0  0  0
  6  7  1  0  0  0  0
  8  6  2  0  0  0  0
  9  8  1  0  0  0  0
 10 12  2  0  0  0  0
 10  8  1  0  0  0  0
 11 10  1  0  0  0  0
 12  1  1  0  0  0  0
 13  2  1  0  0  0  0
 13 12  1  0  0  0  0
 14 13  1  0  0  0  0
 15  2  1  0  0  0  0
 15 18  1  0  0  0  0
 16 15  1  0  0  0  0
 17 15  1  0  0  0  0
 18  3  1  0  0  0  0
 18 20  1  0  0  0  0
 19 18  1  0  0  0  0
 21 23  1  0  0  0  0
 21 22  1  0  0  0  0
 21 24  1  0  0  0  0
 25 28  1  0  0  0  0
 25 27  1  0  0  0  0
 25  3  1  0  0  0  0
 26 25  1  0  0  0  0
M  END
