1,30
 OpenBabel05122313053D

 58 63  0  0  0  0  0  0  0  0999 V2000
   -1.3355    0.5427    0.1613 N   0  0  0  0  0  2  0  0  0  0  0  0
   -0.6540   -0.7411    0.3920 C   0  0  0  0  0  0  0  0  0  0  0  0
   -1.2972   -1.5944    0.0973 H   0  0  0  0  0  0  0  0  0  0  0  0
   -0.4440   -0.8332    1.4784 H   0  0  0  0  0  0  0  0  0  0  0  0
   -2.6319    0.6321    0.0573 C   0  0  0  0  0  3  0  0  0  0  0  0
   -2.9948    1.6559   -0.1701 H   0  0  0  0  0  0  0  0  0  0  0  0
   -3.5857   -0.4770    0.2244 C   0  0  0  0  0  0  0  0  0  0  0  0
   -3.6946   -1.1723    1.4636 C   0  0  0  0  0  0  0  0  0  0  0  0
   -2.9501   -0.7977    2.6304 C   0  0  0  0  0  0  0  0  0  0  0  0
   -2.2968    0.0863    2.5882 H   0  0  0  0  0  0  0  0  0  0  0  0
   -3.0725   -1.5054    3.8118 C   0  0  0  0  0  0  0  0  0  0  0  0
   -2.4967   -1.1932    4.6961 H   0  0  0  0  0  0  0  0  0  0  0  0
   -3.9535   -2.6245    3.9034 C   0  0  0  0  0  0  0  0  0  0  0  0
   -4.0346   -3.1786    4.8505 H   0  0  0  0  0  0  0  0  0  0  0  0
   -4.7186   -2.9919    2.8145 C   0  0  0  0  0  0  0  0  0  0  0  0
   -5.4232   -3.8352    2.8822 H   0  0  0  0  0  0  0  0  0  0  0  0
   -4.6299   -2.2785    1.5743 C   0  0  0  0  0  0  0  0  0  0  0  0
   -5.4388   -2.6136    0.4728 C   0  0  0  0  0  0  0  0  0  0  0  0
   -6.1458   -3.4535    0.5647 H   0  0  0  0  0  0  0  0  0  0  0  0
   -5.3794   -1.8991   -0.7386 C   0  0  0  0  0  0  0  0  0  0  0  0
   -6.2172   -2.2320   -1.8522 C   0  0  0  0  0  0  0  0  0  0  0  0
   -6.9291   -3.0646   -1.7409 H   0  0  0  0  0  0  0  0  0  0  0  0
   -6.1367   -1.5274   -3.0374 C   0  0  0  0  0  0  0  0  0  0  0  0
   -6.7885   -1.7911   -3.8837 H   0  0  0  0  0  0  0  0  0  0  0  0
   -5.2039   -0.4560   -3.1716 C   0  0  0  0  0  0  0  0  0  0  0  0
   -5.1461    0.0985   -4.1202 H   0  0  0  0  0  0  0  0  0  0  0  0
   -4.3699   -0.1114   -2.1237 C   0  0  0  0  0  0  0  0  0  0  0  0
   -3.6451    0.7071   -2.2473 H   0  0  0  0  0  0  0  0  0  0  0  0
   -4.4345   -0.8060   -0.8722 C   0  0  0  0  0  0  0  0  0  0  0  0
    1.3355    0.5427   -0.1616 N   0  0  0  0  0  2  0  0  0  0  0  0
    0.6539   -0.7411   -0.3923 C   0  0  0  0  0  0  0  0  0  0  0  0
    1.2972   -1.5945   -0.0976 H   0  0  0  0  0  0  0  0  0  0  0  0
    0.4439   -0.8331   -1.4787 H   0  0  0  0  0  0  0  0  0  0  0  0
    2.6318    0.6321   -0.0574 C   0  0  0  0  0  3  0  0  0  0  0  0
    2.9947    1.6559    0.1700 H   0  0  0  0  0  0  0  0  0  0  0  0
    3.5856   -0.4770   -0.2244 C   0  0  0  0  0  0  0  0  0  0  0  0
    3.6947   -1.1725   -1.4634 C   0  0  0  0  0  0  0  0  0  0  0  0
    2.9502   -0.7980   -2.6304 C   0  0  0  0  0  0  0  0  0  0  0  0
    2.2969    0.0860   -2.5884 H   0  0  0  0  0  0  0  0  0  0  0  0
    3.0728   -1.5059   -3.8117 C   0  0  0  0  0  0  0  0  0  0  0  0
    2.4971   -1.1939   -4.6961 H   0  0  0  0  0  0  0  0  0  0  0  0
    3.9537   -2.6251   -3.9031 C   0  0  0  0  0  0  0  0  0  0  0  0
    4.0349   -3.1792   -4.8501 H   0  0  0  0  0  0  0  0  0  0  0  0
    4.7187   -2.9922   -2.8141 C   0  0  0  0  0  0  0  0  0  0  0  0
    5.4234   -3.8356   -2.8816 H   0  0  0  0  0  0  0  0  0  0  0  0
    4.6300   -2.2787   -1.5740 C   0  0  0  0  0  0  0  0  0  0  0  0
    5.4388   -2.6137   -0.4724 C   0  0  0  0  0  0  0  0  0  0  0  0
    6.1458   -3.4536   -0.5641 H   0  0  0  0  0  0  0  0  0  0  0  0
    5.3794   -1.8990    0.7389 C   0  0  0  0  0  0  0  0  0  0  0  0
    6.2172   -2.2316    1.8526 C   0  0  0  0  0  0  0  0  0  0  0  0
    6.9290   -3.0642    1.7415 H   0  0  0  0  0  0  0  0  0  0  0  0
    6.1366   -1.5269    3.0376 C   0  0  0  0  0  0  0  0  0  0  0  0
    6.7883   -1.7904    3.8841 H   0  0  0  0  0  0  0  0  0  0  0  0
    5.2037   -0.4556    3.1717 C   0  0  0  0  0  0  0  0  0  0  0  0
    5.1459    0.0991    4.1203 H   0  0  0  0  0  0  0  0  0  0  0  0
    4.3697   -0.1111    2.1238 C   0  0  0  0  0  0  0  0  0  0  0  0
    3.6450    0.7074    2.2472 H   0  0  0  0  0  0  0  0  0  0  0  0
    4.4344   -0.8059    0.8724 C   0  0  0  0  0  0  0  0  0  0  0  0
  1  2  1  0  0  0  0
  2  4  1  0  0  0  0
  3  2  1  0  0  0  0
  5  1  1  0  0  0  0
  5  7  1  0  0  0  0
  6  5  1  0  0  0  0
  7  8  1  0  0  0  0
  8 17  2  0  0  0  0
  8  9  1  0  0  0  0
  9 11  2  0  0  0  0
 10  9  1  0  0  0  0
 11 13  1  0  0  0  0
 11 12  1  0  0  0  0
 13 14  1  0  0  0  0
 15 16  1  0  0  0  0
 15 13  2  0  0  0  0
 17 15  1  0  0  0  0
 18 19  1  0  0  0  0
 18 17  1  0  0  0  0
 20 18  2  0  0  0  0
 21 22  1  0  0  0  0
 21 20  1  0  0  0  0
 23 21  2  0  0  0  0
 24 23  1  0  0  0  0
 25 23  1  0  0  0  0
 25 27  2  0  0  0  0
 26 25  1  0  0  0  0
 27 29  1  0  0  0  0
 28 27  1  0  0  0  0
 29 20  1  0  0  0  0
 29  7  2  0  0  0  0
 30 34  1  0  0  0  0
 31 30  1  0  0  0  0
 31 32  1  0  0  0  0
 31  2  1  0  0  0  0
 33 31  1  0  0  0  0
 34 35  1  0  0  0  0
 36 34  1  0  0  0  0
 36 58  1  0  0  0  0
 37 36  2  0  0  0  0
 38 39  1  0  0  0  0
 38 37  1  0  0  0  0
 40 38  2  0  0  0  0
 41 40  1  0  0  0  0
 42 40  1  0  0  0  0
 42 44  2  0  0  0  0
 43 42  1  0  0  0  0
 44 46  1  0  0  0  0
 45 44  1  0  0  0  0
 46 37  1  0  0  0  0
 46 47  2  0  0  0  0
 47 49  1  0  0  0  0
 48 47  1  0  0  0  0
 49 58  2  0  0  0  0
 49 50  1  0  0  0  0
 50 52  2  0  0  0  0
 51 50  1  0  0  0  0
 52 54  1  0  0  0  0
 52 53  1  0  0  0  0
 54 55  1  0  0  0  0
 56 57  1  0  0  0  0
 56 54  2  0  0  0  0
 58 56  1  0  0  0  0
M  END
