6,8
 OpenBabel05122313053D

 14 13  0  0  0  0  0  0  0  0999 V2000
   -2.6265    0.7202   -0.0522 C   0  0  0  0  0  0  0  0  0  0  0  0
   -3.8595    1.5645    0.0157 C   0  0  0  0  0  0  0  0  0  0  0  0
   -4.6116    1.2444   -0.7337 H   0  0  0  0  0  0  0  0  0  0  0  0
   -4.3481    1.5058    1.0127 H   0  0  0  0  0  0  0  0  0  0  0  0
   -3.5806    2.6183   -0.1685 H   0  0  0  0  0  0  0  0  0  0  0  0
   -1.4107    1.2505   -0.0938 N   0  0  0  0  0  2  0  0  0  0  0  0
   -1.1925    2.5361    0.0373 O   0  0  0  0  0  1  0  0  0  0  0  0
   -1.4054   -1.2708    0.0057 N   0  0  0  0  0  2  0  0  0  0  0  0
   -2.6251   -0.7393   -0.0241 C   0  0  0  0  0  0  0  0  0  0  0  0
   -1.2052   -2.5594    0.0049 O   0  0  0  0  0  1  0  0  0  0  0  0
   -3.8551   -1.5887   -0.0609 C   0  0  0  0  0  0  0  0  0  0  0  0
   -4.2598   -1.6663   -1.0939 H   0  0  0  0  0  0  0  0  0  0  0  0
   -4.6609   -1.1755    0.5775 H   0  0  0  0  0  0  0  0  0  0  0  0
   -3.5994   -2.6109    0.2746 H   0  0  0  0  0  0  0  0  0  0  0  0
  1  9  2  0  0  0  0
  1  2  1  0  0  0  0
  2  4  1  0  0  0  0
  3  2  1  0  0  0  0
  5  2  1  0  0  0  0
  6  1  1  0  0  0  0
  6  7  1  0  0  0  0
  9  8  1  0  0  0  0
 10  8  1  0  0  0  0
 11  9  1  0  0  0  0
 11 14  1  0  0  0  0
 11 13  1  0  0  0  0
 12 11  1  0  0  0  0
M  END
