1,2
 OpenBabel05122313053D

 21 21  0  0  0  0  0  0  0  0999 V2000
   -1.5911   -0.1466    0.0464 N   0  0  0  0  0  2  0  0  0  0  0  0
    0.4687    1.3808   -0.8502 N   0  0  0  0  0  2  0  0  0  0  0  0
   -2.5996   -0.9550    0.3951 C   0  0  0  0  0  3  0  0  0  0  0  0
   -2.3222   -1.9863    0.6610 H   0  0  0  0  0  0  0  0  0  0  0  0
   -3.9317   -0.5149    0.4260 C   0  0  0  0  0  0  0  0  0  0  0  0
   -4.7300   -1.2110    0.7196 H   0  0  0  0  0  0  0  0  0  0  0  0
   -4.2119    0.8162    0.0842 C   0  0  0  0  0  0  0  0  0  0  0  0
   -5.2447    1.1945    0.1041 H   0  0  0  0  0  0  0  0  0  0  0  0
   -3.1560    1.6572   -0.2874 C   0  0  0  0  0  0  0  0  0  0  0  0
   -3.3309    2.7059   -0.5680 H   0  0  0  0  0  0  0  0  0  0  0  0
   -1.8471    1.1414   -0.3072 C   0  0  0  0  0  0  0  0  0  0  0  0
   -0.6891    1.9425   -0.7029 C   0  0  0  0  0  3  0  0  0  0  0  0
   -0.8316    3.0268   -0.8770 H   0  0  0  0  0  0  0  0  0  0  0  0
    1.6181    2.2222   -1.0442 C   0  0  0  0  0  0  0  0  0  0  0  0
    1.3146    3.2063   -1.4646 H   0  0  0  0  0  0  0  0  0  0  0  0
    2.3306    1.7342   -1.7402 H   0  0  0  0  0  0  0  0  0  0  0  0
    2.3147    2.4469    0.3503 C   0  0  0  0  0  0  0  0  0  0  0  0
    2.9180    1.5364    0.5702 H   0  0  0  0  0  0  0  0  0  0  0  0
    3.0209    3.2971    0.2133 H   0  0  0  0  0  0  0  0  0  0  0  0
    1.4054    2.7318    1.3559 O   0  0  0  0  0  0  0  0  0  0  0  0
    1.0828    1.8102    1.6588 H   0  0  0  0  0  0  0  0  0  0  0  0
  1  3  1  0  0  0  0
  2 12  1  0  0  0  0
  3  5  1  0  0  0  0
  3  4  1  0  0  0  0
  5  6  1  0  0  0  0
  7  8  1  0  0  0  0
  7  5  2  0  0  0  0
  9  7  1  0  0  0  0
 10  9  1  0  0  0  0
 11  9  2  0  0  0  0
 11  1  1  0  0  0  0
 12 11  1  0  0  0  0
 13 12  1  0  0  0  0
 14  2  1  0  0  0  0
 14 17  1  0  0  0  0
 15 14  1  0  0  0  0
 16 14  1  0  0  0  0
 17 18  1  0  0  0  0
 17 20  1  0  0  0  0
 19 17  1  0  0  0  0
 20 21  1  0  0  0  0
M  END
