1,2
 OpenBabel05122313053D

 42 44  0  0  1  0  0  0  0  0999 V2000
    1.6331   -0.3720   -1.3834 N   0  0  0  0  0  2  0  0  0  0  0  0
    1.6336   -0.3730    1.3828 N   0  0  0  0  0  2  0  0  0  0  0  0
    2.8411   -0.8073   -1.8026 C   0  0  0  0  0  3  0  0  0  0  0  0
    3.7011   -0.1857   -1.5119 H   0  0  0  0  0  0  0  0  0  0  0  0
    2.9910   -1.9719   -2.5592 C   0  0  0  0  0  0  0  0  0  0  0  0
    3.9926   -2.2874   -2.8831 H   0  0  0  0  0  0  0  0  0  0  0  0
    1.8432   -2.7091   -2.8867 C   0  0  0  0  0  0  0  0  0  0  0  0
    1.9195   -3.6351   -3.4762 H   0  0  0  0  0  0  0  0  0  0  0  0
    0.5953   -2.2347   -2.4690 C   0  0  0  0  0  0  0  0  0  0  0  0
   -0.3289   -2.7702   -2.7313 H   0  0  0  0  0  0  0  0  0  0  0  0
    0.5021   -1.0458   -1.7195 C   0  0  0  0  0  0  0  0  0  0  0  0
   -0.8284   -0.4687   -1.3204 C   0  0  0  0  0  0  0  0  0  0  0  0
   -1.5453   -0.7072   -2.1319 H   0  0  0  0  0  0  0  0  0  0  0  0
   -0.7219    0.6365   -1.2880 H   0  0  0  0  0  0  0  0  0  0  0  0
    2.8417   -0.8086    1.8013 C   0  0  0  0  0  3  0  0  0  0  0  0
    3.7016   -0.1868    1.5109 H   0  0  0  0  0  0  0  0  0  0  0  0
    2.9918   -1.9737    2.5570 C   0  0  0  0  0  0  0  0  0  0  0  0
    3.9935   -2.2895    2.8804 H   0  0  0  0  0  0  0  0  0  0  0  0
    1.8441   -2.7112    2.8844 C   0  0  0  0  0  0  0  0  0  0  0  0
    1.9206   -3.6376    3.4732 H   0  0  0  0  0  0  0  0  0  0  0  0
    0.5961   -2.2366    2.4674 C   0  0  0  0  0  0  0  0  0  0  0  0
   -0.3281   -2.7722    2.7296 H   0  0  0  0  0  0  0  0  0  0  0  0
    0.5026   -1.0471    1.7188 C   0  0  0  0  0  0  0  0  0  0  0  0
   -0.8280   -0.4697    1.3205 C   0  0  0  0  0  0  0  0  0  0  0  0
   -0.7215    0.6355    1.2889 H   0  0  0  0  0  0  0  0  0  0  0  0
   -1.5447   -0.7088    2.1320 H   0  0  0  0  0  0  0  0  0  0  0  0
   -1.4771   -0.9787   -0.0001 C   0  0  1  0  0  0  0  0  0  0  0  0
   -1.4270   -2.0900   -0.0005 H   0  0  0  0  0  0  0  0  0  0  0  0
   -2.9463   -0.5832    0.0003 C   0  0  0  0  0  0  0  0  0  0  0  0
   -3.9614   -1.5549    0.0008 C   0  0  0  0  0  0  0  0  0  0  0  0
   -3.6894   -2.6231    0.0011 H   0  0  0  0  0  0  0  0  0  0  0  0
   -5.3156   -1.1842    0.0014 C   0  0  0  0  0  0  0  0  0  0  0  0
   -6.0924   -1.9654    0.0022 H   0  0  0  0  0  0  0  0  0  0  0  0
   -5.6988    0.1700    0.0014 C   0  0  0  0  0  0  0  0  0  0  0  0
   -4.6750    1.1421    0.0014 C   0  0  0  0  0  0  0  0  0  0  0  0
   -4.9435    2.2106    0.0022 H   0  0  0  0  0  0  0  0  0  0  0  0
   -3.3243    0.7764    0.0007 C   0  0  0  0  0  0  0  0  0  0  0  0
   -2.5531    1.5633    0.0010 H   0  0  0  0  0  0  0  0  0  0  0  0
   -7.1499    0.5803   -0.0020 C   0  0  0  0  0  0  0  0  0  0  0  0
   -7.8239   -0.2971    0.0362 H   0  0  0  0  0  0  0  0  0  0  0  0
   -7.4013    1.1614   -0.9140 H   0  0  0  0  0  0  0  0  0  0  0  0
   -7.3872    1.2305    0.8655 H   0  0  0  0  0  0  0  0  0  0  0  0
  2 23  1  0  0  0  0
  2 15  1  0  0  0  0
  3  4  1  0  0  0  0
  3  1  1  0  0  0  0
  5  3  1  0  0  0  0
  6  5  1  0  0  0  0
  7  5  2  0  0  0  0
  7  9  1  0  0  0  0
  8  7  1  0  0  0  0
  9 11  2  0  0  0  0
 10  9  1  0  0  0  0
 11  1  1  0  0  0  0
 11 12  1  0  0  0  0
 12 14  1  0  0  0  0
 12 27  1  0  0  0  0
 13 12  1  0  0  0  0
 15 17  1  0  0  0  0
 16 15  1  0  0  0  0
 17 18  1  0  0  0  0
 17 19  2  0  0  0  0
 19 20  1  0  0  0  0
 21 22  1  0  0  0  0
 21 19  1  0  0  0  0
 23 21  2  0  0  0  0
 24 23  1  0  0  0  0
 24 26  1  0  0  0  0
 25 24  1  0  0  0  0
 27 28  1  6  0  0  0
 27 29  1  0  0  0  0
 27 24  1  0  0  0  0
 29 37  2  0  0  0  0
 29 30  1  0  0  0  0
 30 31  1  0  0  0  0
 30 32  2  0  0  0  0
 32 33  1  0  0  0  0
 34 32  1  0  0  0  0
 34 35  2  0  0  0  0
 35 36  1  0  0  0  0
 37 38  1  0  0  0  0
 37 35  1  0  0  0  0
 39 34  1  0  0  0  0
 39 40  1  0  0  0  0
 39 42  1  0  0  0  0
 41 39  1  0  0  0  0
M  END
