1,4
 OpenBabel05122313053D

 25 27  0  0  1  0  0  0  0  0999 V2000
    1.9745   -0.3002    0.4180 N   0  0  0  0  0  0  0  0  0  0  0  0
    3.0318    0.4153    0.8232 N   0  0  0  0  0  2  0  0  0  0  0  0
    3.7832   -1.4375   -0.2759 N   0  0  0  0  0  0  0  0  0  0  0  0
    0.1864   -1.9546   -0.7313 N   0  0  0  0  0  2  0  0  0  0  0  0
    8.1587    0.9803    1.0833 N   0  0  0  0  0  0  0  0  0  0  0  0
    4.1099   -0.2976    0.3948 C   0  0  0  0  0  0  0  0  0  0  0  0
    2.4440   -1.3983   -0.2468 C   0  0  0  0  0  0  0  0  0  0  0  0
    1.4918   -2.3279   -0.8408 C   0  0  2  0  0  3  0  0  0  0  0  0
    1.8579   -3.5253   -1.4871 C   0  0  0  0  0  0  0  0  0  0  0  0
    2.9239   -3.7821   -1.5570 H   0  0  0  0  0  0  0  0  0  0  0  0
    0.8475   -4.3375   -2.0105 C   0  0  0  0  0  0  0  0  0  0  0  0
    1.1046   -5.2778   -2.5213 H   0  0  0  0  0  0  0  0  0  0  0  0
   -0.4989   -3.9492   -1.8767 C   0  0  0  0  0  0  0  0  0  0  0  0
   -1.3162   -4.5675   -2.2735 H   0  0  0  0  0  0  0  0  0  0  0  0
   -0.7829   -2.7428   -1.2250 C   0  0  0  0  0  0  0  0  0  0  0  0
   -1.8160   -2.3829   -1.0820 H   0  0  0  0  0  0  0  0  0  0  0  0
    7.8798   -0.1426    0.3990 C   0  0  0  0  0  0  0  0  0  0  0  0
    8.7483   -0.7146    0.0242 H   0  0  0  0  0  0  0  0  0  0  0  0
    6.5811   -0.6054    0.1469 C   0  0  0  0  0  0  0  0  0  0  0  0
    6.3973   -1.5302   -0.4187 H   0  0  0  0  0  0  0  0  0  0  0  0
    5.4890    0.1409    0.6345 C   0  0  0  0  0  0  0  0  0  0  0  0
    5.7727    1.3193    1.3560 C   0  0  0  0  0  0  0  0  0  0  0  0
    4.9489    1.9266    1.7577 H   0  0  0  0  0  0  0  0  0  0  0  0
    7.1118    1.6854    1.5465 C   0  0  0  0  0  0  0  0  0  0  0  0
    7.3534    2.6054    2.1097 H   0  0  0  0  0  0  0  0  0  0  0  0
  1  2  1  0  0  0  0
  3  7  1  0  0  0  0
  3  6  2  0  0  0  0
  5 24  1  0  0  0  0
  6 21  1  0  0  0  0
  6  2  1  0  0  0  0
  7  1  2  0  0  0  0
  8  4  1  0  0  0  0
  8  7  1  6  0  0  0
  9  8  1  0  0  0  0
 10  9  1  0  0  0  0
 11 13  1  0  0  0  0
 11  9  2  0  0  0  0
 12 11  1  0  0  0  0
 13 15  2  0  0  0  0
 14 13  1  0  0  0  0
 15 16  1  0  0  0  0
 15  4  1  0  0  0  0
 17  5  2  0  0  0  0
 18 17  1  0  0  0  0
 19 17  1  0  0  0  0
 19 21  2  0  0  0  0
 20 19  1  0  0  0  0
 21 22  1  0  0  0  0
 22 24  2  0  0  0  0
 22 23  1  0  0  0  0
 24 25  1  0  0  0  0
M  END
