1,2
 OpenBabel05122313053D

 49 52  0  0  1  0  0  0  0  0999 V2000
    2.3740    0.0705    0.8314 N   0  0  0  0  0  2  0  0  0  0  0  0
   -0.1733   -0.0600    0.1744 N   0  0  0  0  0  2  0  0  0  0  0  0
   -1.4342   -0.0698   -0.2976 N   0  0  0  0  0  0  0  0  0  0  0  0
    3.6797    0.2247    1.1198 C   0  0  0  0  0  0  0  0  0  0  0  0
    4.2910    0.6101    0.2862 H   0  0  0  0  0  0  0  0  0  0  0  0
    4.1998   -0.1125    2.3754 C   0  0  0  0  0  0  0  0  0  0  0  0
    5.2699    0.0398    2.5740 H   0  0  0  0  0  0  0  0  0  0  0  0
    3.3425   -0.6475    3.3516 C   0  0  0  0  0  0  0  0  0  0  0  0
    3.7290   -0.9329    4.3412 H   0  0  0  0  0  0  0  0  0  0  0  0
    1.9888   -0.8192    3.0472 C   0  0  0  0  0  0  0  0  0  0  0  0
    1.2856   -1.2451    3.7769 H   0  0  0  0  0  0  0  0  0  0  0  0
    1.5170   -0.4401    1.7743 C   0  0  0  0  0  0  0  0  0  0  0  0
    0.1324   -0.5122    1.3775 C   0  0  0  0  0  0  0  0  0  0  0  0
   -0.6316   -0.8742    2.0785 H   0  0  0  0  0  0  0  0  0  0  0  0
   -2.4141   -1.0109    0.2605 C   0  0  1  0  0  0  0  0  0  0  0  0
   -2.7245   -0.6948    1.2889 H   0  0  0  0  0  0  0  0  0  0  0  0
   -3.6708   -1.0476   -0.6374 C   0  0  0  0  0  0  0  0  0  0  0  0
   -3.3974   -1.5843   -1.5701 H   0  0  0  0  0  0  0  0  0  0  0  0
   -4.4259   -1.6727   -0.1201 H   0  0  0  0  0  0  0  0  0  0  0  0
   -4.2147    0.3335   -0.9933 C   0  0  0  0  0  0  0  0  0  0  0  0
   -5.0897    0.2264   -1.6666 H   0  0  0  0  0  0  0  0  0  0  0  0
   -4.5847    0.8585   -0.0875 H   0  0  0  0  0  0  0  0  0  0  0  0
   -3.1146    1.1372   -1.6844 C   0  0  0  0  0  0  0  0  0  0  0  0
   -3.4499    2.1626   -1.9365 H   0  0  0  0  0  0  0  0  0  0  0  0
   -2.8402    0.6368   -2.6373 H   0  0  0  0  0  0  0  0  0  0  0  0
   -1.8281    1.2488   -0.8591 C   0  0  1  0  0  0  0  0  0  0  0  0
   -1.0145    1.4876   -1.5732 H   0  0  0  0  0  0  0  0  0  0  0  0
   -1.8223   -2.4128    0.3386 C   0  0  0  0  0  0  0  0  0  0  0  0
   -2.1547   -3.2600    1.4105 C   0  0  0  0  0  0  0  0  0  0  0  0
   -2.8042   -2.8851    2.2189 H   0  0  0  0  0  0  0  0  0  0  0  0
   -1.6646   -4.5749    1.4577 C   0  0  0  0  0  0  0  0  0  0  0  0
   -1.9316   -5.2293    2.3014 H   0  0  0  0  0  0  0  0  0  0  0  0
   -0.8308   -5.0485    0.4332 C   0  0  0  0  0  0  0  0  0  0  0  0
   -0.4384   -6.0760    0.4716 H   0  0  0  0  0  0  0  0  0  0  0  0
   -0.4951   -4.2045   -0.6390 C   0  0  0  0  0  0  0  0  0  0  0  0
    0.1642   -4.5663   -1.4424 H   0  0  0  0  0  0  0  0  0  0  0  0
   -0.9908   -2.8944   -0.6932 C   0  0  0  0  0  0  0  0  0  0  0  0
   -0.7119   -2.2281   -1.5267 H   0  0  0  0  0  0  0  0  0  0  0  0
   -1.8117    2.3211    0.2249 C   0  0  0  0  0  0  0  0  0  0  0  0
   -2.6427    2.2966    1.3658 C   0  0  0  0  0  0  0  0  0  0  0  0
   -3.3753    1.4888    1.5030 H   0  0  0  0  0  0  0  0  0  0  0  0
   -2.5498    3.2986    2.3445 C   0  0  0  0  0  0  0  0  0  0  0  0
   -3.2091    3.2625    3.2254 H   0  0  0  0  0  0  0  0  0  0  0  0
   -1.6232    4.3430    2.2022 C   0  0  0  0  0  0  0  0  0  0  0  0
   -1.5519    5.1282    2.9701 H   0  0  0  0  0  0  0  0  0  0  0  0
   -0.7846    4.3748    1.0774 C   0  0  0  0  0  0  0  0  0  0  0  0
   -0.0477    5.1837    0.9587 H   0  0  0  0  0  0  0  0  0  0  0  0
   -0.8764    3.3696    0.1034 C   0  0  0  0  0  0  0  0  0  0  0  0
   -0.2021    3.3829   -0.7678 H   0  0  0  0  0  0  0  0  0  0  0  0
  1  4  1  0  0  0  0
  1 12  1  0  0  0  0
  2 13  1  0  0  0  0
  3  2  1  0  0  0  0
  3 15  1  0  0  0  0
  4  6  2  0  0  0  0
  5  4  1  0  0  0  0
  6  7  1  0  0  0  0
  6  8  1  0  0  0  0
  8  9  1  0  0  0  0
 10  8  2  0  0  0  0
 10 11  1  0  0  0  0
 12 10  1  0  0  0  0
 13 12  2  0  0  0  0
 13 14  1  0  0  0  0
 15 28  1  0  0  0  0
 15 16  1  1  0  0  0
 17 19  1  0  0  0  0
 17 15  1  0  0  0  0
 18 17  1  0  0  0  0
 20 17  1  0  0  0  0
 20 22  1  0  0  0  0
 21 20  1  0  0  0  0
 23 20  1  0  0  0  0
 23 26  1  0  0  0  0
 24 23  1  0  0  0  0
 25 23  1  0  0  0  0
 26 27  1  6  0  0  0
 26  3  1  0  0  0  0
 26 39  1  0  0  0  0
 28 29  1  0  0  0  0
 29 31  2  0  0  0  0
 29 30  1  0  0  0  0
 31 32  1  0  0  0  0
 33 34  1  0  0  0  0
 33 31  1  0  0  0  0
 35 33  2  0  0  0  0
 36 35  1  0  0  0  0
 37 35  1  0  0  0  0
 37 28  2  0  0  0  0
 38 37  1  0  0  0  0
 39 40  1  0  0  0  0
 40 41  1  0  0  0  0
 40 42  2  0  0  0  0
 42 43  1  0  0  0  0
 44 42  1  0  0  0  0
 44 45  1  0  0  0  0
 46 44  2  0  0  0  0
 47 46  1  0  0  0  0
 48 39  2  0  0  0  0
 48 46  1  0  0  0  0
 49 48  1  0  0  0  0
M  END
