13,15
 OpenBabel05122313053D

 65 70  0  0  1  0  0  0  0  0999 V2000
   -1.5961   -4.1562   -3.3349 F   0  0  0  0  0  0  0  0  0  0  0  0
   -2.6122   -2.2246   -3.3795 F   0  0  0  0  0  0  0  0  0  0  0  0
   -2.6068   -3.4033   -1.5449 F   0  0  0  0  0  0  0  0  0  0  0  0
   -2.0202   -1.2019    4.9670 F   0  0  0  0  0  0  0  0  0  0  0  0
   -2.8895   -1.9974    3.1263 F   0  0  0  0  0  0  0  0  0  0  0  0
   -2.9088    0.1521    3.4962 F   0  0  0  0  0  0  0  0  0  0  0  0
   -2.1446    4.8369   -1.4404 F   0  0  0  0  0  0  0  0  0  0  0  0
   -3.1279    3.3425   -0.1830 F   0  0  0  0  0  0  0  0  0  0  0  0
   -2.7925    2.9353   -2.3004 F   0  0  0  0  0  0  0  0  0  0  0  0
    0.7048   -0.9992   -1.1282 N   0  0  0  0  0  0  0  0  0  0  0  0
   -0.5701   -1.4173   -1.2605 N   0  0  0  0  0  0  0  0  0  0  0  0
    0.5894   -0.4988    1.3805 N   0  0  0  0  0  0  0  0  0  0  0  0
   -0.7242   -0.4849    1.6921 N   0  0  0  0  0  2  0  0  0  0  0  0
    0.5450    1.4266   -0.3007 N   0  0  0  0  0  0  0  0  0  0  0  0
   -0.7661    1.6349   -0.5500 N   0  0  0  0  0  2  0  0  0  0  0  0
   -0.5650   -2.3860   -2.1884 C   0  0  0  0  0  0  0  0  0  0  0  0
    0.7369   -2.6133   -2.6774 C   0  0  0  0  0  0  0  0  0  0  0  0
    1.0568   -3.3180   -3.4500 H   0  0  0  0  0  0  0  0  0  0  0  0
    1.5378   -1.6971   -1.9799 C   0  0  0  0  0  0  0  0  0  0  0  0
   -1.8409   -3.0457   -2.6088 C   0  0  0  0  0  0  0  0  0  0  0  0
    2.9923   -1.4946   -2.0933 C   0  0  0  0  0  0  0  0  0  0  0  0
    3.8454   -2.6206   -2.1496 C   0  0  0  0  0  0  0  0  0  0  0  0
    3.4079   -3.6287   -2.0898 H   0  0  0  0  0  0  0  0  0  0  0  0
    5.2344   -2.4602   -2.2522 C   0  0  0  0  0  0  0  0  0  0  0  0
    5.8842   -3.3479   -2.2907 H   0  0  0  0  0  0  0  0  0  0  0  0
    5.7946   -1.1728   -2.2917 C   0  0  0  0  0  0  0  0  0  0  0  0
    6.8858   -1.0464   -2.3590 H   0  0  0  0  0  0  0  0  0  0  0  0
    4.9554   -0.0479   -2.2499 C   0  0  0  0  0  0  0  0  0  0  0  0
    5.3790    0.9668   -2.2826 H   0  0  0  0  0  0  0  0  0  0  0  0
    3.5665   -0.2060   -2.1644 C   0  0  0  0  0  0  0  0  0  0  0  0
    2.9198    0.6815   -2.1602 H   0  0  0  0  0  0  0  0  0  0  0  0
   -0.8230   -0.8454    2.9814 C   0  0  2  0  0  3  0  0  0  0  0  0
    0.4476   -1.0971    3.5323 C   0  0  0  0  0  0  0  0  0  0  0  0
    0.6908   -1.4279    4.5457 H   0  0  0  0  0  0  0  0  0  0  0  0
    1.3408   -0.8732    2.4741 C   0  0  0  0  0  0  0  0  0  0  0  0
   -2.1604   -0.9687    3.6437 C   0  0  0  0  0  0  0  0  0  0  0  0
    2.8096   -0.9888    2.4882 C   0  0  0  0  0  0  0  0  0  0  0  0
    3.5364   -0.4309    3.5645 C   0  0  0  0  0  0  0  0  0  0  0  0
    2.9924    0.0931    4.3651 H   0  0  0  0  0  0  0  0  0  0  0  0
    4.9354   -0.5172    3.6021 C   0  0  0  0  0  0  0  0  0  0  0  0
    5.4864   -0.0733    4.4453 H   0  0  0  0  0  0  0  0  0  0  0  0
    5.6305   -1.1554    2.5619 C   0  0  0  0  0  0  0  0  0  0  0  0
    6.7294   -1.2118    2.5844 H   0  0  0  0  0  0  0  0  0  0  0  0
    4.9170   -1.7249    1.4951 C   0  0  0  0  0  0  0  0  0  0  0  0
    5.4473   -2.2291    0.6736 H   0  0  0  0  0  0  0  0  0  0  0  0
    3.5187   -1.6540    1.4637 C   0  0  0  0  0  0  0  0  0  0  0  0
    2.9709   -2.1259    0.6371 H   0  0  0  0  0  0  0  0  0  0  0  0
   -0.9004    2.9314   -0.8732 C   0  0  2  0  0  3  0  0  0  0  0  0
    0.3436    3.5881   -0.8434 C   0  0  0  0  0  0  0  0  0  0  0  0
    0.5536    4.6443   -1.0325 H   0  0  0  0  0  0  0  0  0  0  0  0
    1.2578    2.5956   -0.4600 C   0  0  0  0  0  0  0  0  0  0  0  0
   -2.2433    3.5109   -1.1981 C   0  0  0  0  0  0  0  0  0  0  0  0
    2.7107    2.7365   -0.2571 C   0  0  0  0  0  0  0  0  0  0  0  0
    3.4773    3.4362   -1.2165 C   0  0  0  0  0  0  0  0  0  0  0  0
    2.9781    3.8440   -2.1086 H   0  0  0  0  0  0  0  0  0  0  0  0
    4.8614    3.5886   -1.0514 C   0  0  0  0  0  0  0  0  0  0  0  0
    5.4442    4.1327   -1.8103 H   0  0  0  0  0  0  0  0  0  0  0  0
    5.5024    3.0382    0.0705 C   0  0  0  0  0  0  0  0  0  0  0  0
    6.5906    3.1466    0.1940 H   0  0  0  0  0  0  0  0  0  0  0  0
    4.7478    2.3528    1.0362 C   0  0  0  0  0  0  0  0  0  0  0  0
    5.2352    1.9179    1.9213 H   0  0  0  0  0  0  0  0  0  0  0  0
    3.3629    2.2135    0.8814 C   0  0  0  0  0  0  0  0  0  0  0  0
    2.7808    1.6985    1.6572 H   0  0  0  0  0  0  0  0  0  0  0  0
    1.0968    0.0017   -0.0044 B   0  0  2  0  0  0  0  0  0  0  0  0
    2.2961    0.0677    0.0381 H   0  0  0  0  0  0  0  0  0  0  0  0
  1 20  1  0  0  0  0
  2 20  1  0  0  0  0
  5 36  1  0  0  0  0
  6 36  1  0  0  0  0
  7 52  1  0  0  0  0
  9 52  1  0  0  0  0
 10 64  1  0  0  0  0
 11 10  1  0  0  0  0
 12 13  1  0  0  0  0
 12 35  1  0  0  0  0
 13 32  1  0  0  0  0
 14 64  1  0  0  0  0
 15 14  1  0  0  0  0
 16 11  2  0  0  0  0
 17 16  1  0  0  0  0
 17 19  2  0  0  0  0
 18 17  1  0  0  0  0
 19 10  1  0  0  0  0
 20 16  1  0  0  0  0
 20  3  1  0  0  0  0
 21 19  1  0  0  0  0
 22 21  1  0  0  0  0
 22 23  1  0  0  0  0
 24 22  2  0  0  0  0
 25 24  1  0  0  0  0
 26 24  1  0  0  0  0
 26 28  2  0  0  0  0
 27 26  1  0  0  0  0
 28 30  1  0  0  0  0
 29 28  1  0  0  0  0
 30 31  1  0  0  0  0
 30 21  2  0  0  0  0
 32 33  1  0  0  0  0
 32 36  1  6  0  0  0
 33 34  1  0  0  0  0
 35 37  1  0  0  0  0
 35 33  2  0  0  0  0
 36  4  1  0  0  0  0
 37 38  1  0  0  0  0
 38 40  2  0  0  0  0
 38 39  1  0  0  0  0
 40 41  1  0  0  0  0
 42 43  1  0  0  0  0
 42 40  1  0  0  0  0
 44 42  2  0  0  0  0
 45 44  1  0  0  0  0
 46 44  1  0  0  0  0
 46 37  2  0  0  0  0
 47 46  1  0  0  0  0
 48 52  1  1  0  0  0
 48 49  1  0  0  0  0
 48 15  1  0  0  0  0
 49 51  2  0  0  0  0
 50 49  1  0  0  0  0
 51 14  1  0  0  0  0
 51 53  1  0  0  0  0
 52  8  1  0  0  0  0
 53 62  1  0  0  0  0
 54 56  1  0  0  0  0
 54 53  2  0  0  0  0
 55 54  1  0  0  0  0
 56 58  2  0  0  0  0
 57 56  1  0  0  0  0
 58 59  1  0  0  0  0
 58 60  1  0  0  0  0
 60 61  1  0  0  0  0
 62 60  2  0  0  0  0
 62 63  1  0  0  0  0
 64 65  1  1  0  0  0
 64 12  1  0  0  0  0
M  END
