1,3
 OpenBabel05122313053D

 44 46  0  0  1  0  0  0  0  0999 V2000
    0.9945    1.5996   -0.5839 N   0  0  0  0  0  2  0  0  0  0  0  0
    2.3376    1.3585   -0.5160 N   0  0  0  0  0  0  0  0  0  0  0  0
    1.0090   -1.3778   -0.9928 N   0  0  0  0  0  2  0  0  0  0  0  0
    2.3496   -1.1508   -0.8601 N   0  0  0  0  0  0  0  0  0  0  0  0
    0.9945   -0.2484    1.6757 N   0  0  0  0  0  0  0  0  0  0  0  0
    2.3408   -0.1914    1.4520 N   0  0  0  0  0  0  0  0  0  0  0  0
   -0.5205    3.4386   -1.3637 C   0  0  0  0  0  0  0  0  0  0  0  0
   -1.0193    2.8851   -2.1861 H   0  0  0  0  0  0  0  0  0  0  0  0
   -0.4207    4.5002   -1.6562 H   0  0  0  0  0  0  0  0  0  0  0  0
   -1.1866    3.3598   -0.4816 H   0  0  0  0  0  0  0  0  0  0  0  0
    0.8220    2.8534   -1.0792 C   0  0  2  0  0  3  0  0  0  0  0  0
    2.0906    3.4210   -1.3117 C   0  0  0  0  0  0  0  0  0  0  0  0
    2.3006    4.4202   -1.7063 H   0  0  0  0  0  0  0  0  0  0  0  0
    3.0297    2.4500   -0.9400 C   0  0  0  0  0  0  0  0  0  0  0  0
    4.5224    2.5183   -0.9642 C   0  0  0  0  0  0  0  0  0  0  0  0
    4.9572    2.3979    0.0491 H   0  0  0  0  0  0  0  0  0  0  0  0
    4.8451    3.4983   -1.3617 H   0  0  0  0  0  0  0  0  0  0  0  0
    4.9620    1.7258   -1.6032 H   0  0  0  0  0  0  0  0  0  0  0  0
   -0.4914   -2.9607   -2.2248 C   0  0  0  0  0  0  0  0  0  0  0  0
   -1.1632   -3.0958   -1.3537 H   0  0  0  0  0  0  0  0  0  0  0  0
   -0.3878   -3.9206   -2.7636 H   0  0  0  0  0  0  0  0  0  0  0  0
   -0.9869   -2.2259   -2.8926 H   0  0  0  0  0  0  0  0  0  0  0  0
    0.8475   -2.4598   -1.7983 C   0  0  1  0  0  3  0  0  0  0  0  0
    2.1214   -2.9362   -2.1677 C   0  0  0  0  0  0  0  0  0  0  0  0
    2.3407   -3.7961   -2.8087 H   0  0  0  0  0  0  0  0  0  0  0  0
    3.0516   -2.0883   -1.5526 C   0  0  0  0  0  0  0  0  0  0  0  0
    4.5449   -2.1362   -1.5882 C   0  0  0  0  0  0  0  0  0  0  0  0
    4.9791   -1.1999   -1.9938 H   0  0  0  0  0  0  0  0  0  0  0  0
    4.8766   -2.9742   -2.2287 H   0  0  0  0  0  0  0  0  0  0  0  0
    4.9768   -2.2841   -0.5773 H   0  0  0  0  0  0  0  0  0  0  0  0
   -0.4873   -0.5990    3.6980 C   0  0  0  0  0  0  0  0  0  0  0  0
   -1.2145    0.1568    3.3419 H   0  0  0  0  0  0  0  0  0  0  0  0
   -0.3515   -0.4932    4.7911 H   0  0  0  0  0  0  0  0  0  0  0  0
   -0.9374   -1.5908    3.4914 H   0  0  0  0  0  0  0  0  0  0  0  0
    0.8289   -0.4489    3.0099 C   0  0  0  0  0  0  0  0  0  0  0  0
    2.0979   -0.5108    3.6300 C   0  0  0  0  0  0  0  0  0  0  0  0
    2.2998   -0.6596    4.6959 H   0  0  0  0  0  0  0  0  0  0  0  0
    3.0388   -0.3456    2.6113 C   0  0  0  0  0  0  0  0  0  0  0  0
    4.5319   -0.3262    2.6848 C   0  0  0  0  0  0  0  0  0  0  0  0
    4.9883   -1.1330    2.0752 H   0  0  0  0  0  0  0  0  0  0  0  0
    4.8563   -0.4659    3.7327 H   0  0  0  0  0  0  0  0  0  0  0  0
    4.9533    0.6334    2.3212 H   0  0  0  0  0  0  0  0  0  0  0  0
    2.8651    0.0090    0.0253 B   0  0  2  0  0  0  0  0  0  0  0  0
    4.0785    0.0167    0.0138 H   0  0  0  0  0  0  0  0  0  0  0  0
  1  2  1  0  0  0  0
  2 43  1  0  0  0  0
  3  4  1  0  0  0  0
  4 43  1  0  0  0  0
  5 35  2  0  0  0  0
  6  5  1  0  0  0  0
  6 38  1  0  0  0  0
  7 10  1  0  0  0  0
  8  7  1  0  0  0  0
  9  7  1  0  0  0  0
 11  7  1  6  0  0  0
 11  1  1  0  0  0  0
 12 11  1  0  0  0  0
 12 14  2  0  0  0  0
 13 12  1  0  0  0  0
 14  2  1  0  0  0  0
 15 14  1  0  0  0  0
 15 16  1  0  0  0  0
 17 15  1  0  0  0  0
 18 15  1  0  0  0  0
 19 20  1  0  0  0  0
 21 19  1  0  0  0  0
 22 19  1  0  0  0  0
 23 19  1  6  0  0  0
 23  3  1  0  0  0  0
 24 23  1  0  0  0  0
 24 26  2  0  0  0  0
 25 24  1  0  0  0  0
 26  4  1  0  0  0  0
 27 26  1  0  0  0  0
 27 30  1  0  0  0  0
 28 27  1  0  0  0  0
 29 27  1  0  0  0  0
 31 33  1  0  0  0  0
 32 31  1  0  0  0  0
 34 31  1  0  0  0  0
 35 36  1  0  0  0  0
 35 31  1  0  0  0  0
 36 37  1  0  0  0  0
 38 39  1  0  0  0  0
 38 36  2  0  0  0  0
 39 41  1  0  0  0  0
 40 39  1  0  0  0  0
 42 39  1  0  0  0  0
 43 44  1  1  0  0  0
 43  6  1  0  0  0  0
M  END
