1,2
 OpenBabel05122313053D

 27 28  0  0  1  0  0  0  0  0999 V2000
    0.7366    1.3487   -1.3099 N   0  0  0  0  0  2  0  0  0  0  0  0
   -0.1103   -1.0357   -1.3595 N   0  0  0  0  0  2  0  0  0  0  0  0
    0.1563   -0.5741   -2.5670 N   0  0  0  0  0  2  0  0  0  0  0  0
    1.0891    1.4704   -3.5151 N   0  0  0  0  0  0  0  0  0  0  0  0
    0.6001    0.6968   -2.4934 C   0  0  2  0  0  3  0  0  0  0  0  0
    1.5457    2.6416   -2.9451 C   0  0  0  0  0  0  0  0  0  0  0  0
    1.9837    3.4422   -3.5495 H   0  0  0  0  0  0  0  0  0  0  0  0
    1.3258    2.5546   -1.5727 C   0  0  0  0  0  0  0  0  0  0  0  0
    1.5479    3.2792   -0.7829 H   0  0  0  0  0  0  0  0  0  0  0  0
    1.1066    1.1009   -4.9223 C   0  0  0  0  0  0  0  0  0  0  0  0
    2.1273    1.2155   -5.3348 H   0  0  0  0  0  0  0  0  0  0  0  0
    0.4053    1.7341   -5.5011 H   0  0  0  0  0  0  0  0  0  0  0  0
    0.7968    0.0438   -5.0051 H   0  0  0  0  0  0  0  0  0  0  0  0
   -0.5199   -2.3950   -1.3252 C   0  0  0  0  0  0  0  0  0  0  0  0
   -0.2152   -3.1828   -0.1974 C   0  0  0  0  0  0  0  0  0  0  0  0
    0.3733   -2.7491    0.6208 H   0  0  0  0  0  0  0  0  0  0  0  0
   -0.6157   -4.5219   -0.1550 C   0  0  0  0  0  0  0  0  0  0  0  0
   -0.3522   -5.1340    0.7212 H   0  0  0  0  0  0  0  0  0  0  0  0
   -1.3404   -5.1087   -1.2139 C   0  0  0  0  0  0  0  0  0  0  0  0
   -1.6310   -4.3036   -2.3399 C   0  0  0  0  0  0  0  0  0  0  0  0
   -2.1922   -4.7373   -3.1824 H   0  0  0  0  0  0  0  0  0  0  0  0
   -1.2204   -2.9716   -2.4087 C   0  0  0  0  0  0  0  0  0  0  0  0
   -1.4354   -2.3563   -3.2931 H   0  0  0  0  0  0  0  0  0  0  0  0
   -1.7924   -6.5424   -1.1591 C   0  0  0  0  0  0  0  0  0  0  0  0
   -1.4267   -7.0561   -0.2502 H   0  0  0  0  0  0  0  0  0  0  0  0
   -1.4337   -7.1092   -2.0429 H   0  0  0  0  0  0  0  0  0  0  0  0
   -2.9006   -6.6114   -1.1673 H   0  0  0  0  0  0  0  0  0  0  0  0
  2 14  1  0  0  0  0
  3  2  1  0  0  0  0
  4  6  1  0  0  0  0
  4  5  1  0  0  0  0
  5  3  1  1  0  0  0
  5  1  1  0  0  0  0
  6  8  2  0  0  0  0
  7  6  1  0  0  0  0
  8  1  1  0  0  0  0
  8  9  1  0  0  0  0
 10  4  1  0  0  0  0
 11 10  1  0  0  0  0
 12 10  1  0  0  0  0
 13 10  1  0  0  0  0
 14 15  1  0  0  0  0
 15 17  2  0  0  0  0
 15 16  1  0  0  0  0
 17 18  1  0  0  0  0
 19 24  1  0  0  0  0
 19 17  1  0  0  0  0
 20 19  2  0  0  0  0
 21 20  1  0  0  0  0
 22 20  1  0  0  0  0
 22 14  2  0  0  0  0
 23 22  1  0  0  0  0
 24 25  1  0  0  0  0
 26 24  1  0  0  0  0
 27 24  1  0  0  0  0
M  END
