4,5
 OpenBabel05122313053D

 46 47  0  0  1  0  0  0  0  0999 V2000
    0.7956   -1.0737   -1.3533 S   0  0  0  0  0  0  0  0  0  0  0  0
    1.0948   -0.3683   -2.6276 O   0  0  0  0  0  0  0  0  0  0  0  0
   -0.0589   -2.2883   -1.3516 O   0  0  0  0  0  0  0  0  0  0  0  0
   -1.4663    2.0023    0.3844 N   0  0  0  0  0  0  0  0  0  0  0  0
    0.2199   -0.0095   -0.1672 N   0  0  0  0  0  2  0  0  0  0  0  0
    0.7274    1.3639   -0.3791 C   0  0  1  0  0  0  0  0  0  0  0  0
   -0.0281    2.2691    0.6099 C   0  0  1  0  0  0  0  0  0  0  0  0
    0.3371    3.7695    0.5461 C   0  0  0  0  0  0  0  0  0  0  0  0
    1.4340    3.8075    0.7214 H   0  0  0  0  0  0  0  0  0  0  0  0
    0.0531    4.4124   -0.8169 C   0  0  0  0  0  0  0  0  0  0  0  0
   -1.0286    4.3878   -1.0689 H   0  0  0  0  0  0  0  0  0  0  0  0
    0.5981    3.9080   -1.6375 H   0  0  0  0  0  0  0  0  0  0  0  0
    0.3607    5.4771   -0.8145 H   0  0  0  0  0  0  0  0  0  0  0  0
   -0.3418    4.5466    1.6822 C   0  0  0  0  0  0  0  0  0  0  0  0
    0.0119    5.5964    1.7109 H   0  0  0  0  0  0  0  0  0  0  0  0
   -0.1310    4.0926    2.6725 H   0  0  0  0  0  0  0  0  0  0  0  0
   -1.4457    4.5897    1.5539 H   0  0  0  0  0  0  0  0  0  0  0  0
    2.2289    1.4925   -0.1740 C   0  0  0  0  0  0  0  0  0  0  0  0
    3.0410    2.0466   -1.1793 C   0  0  0  0  0  0  0  0  0  0  0  0
    2.5803    2.3444   -2.1337 H   0  0  0  0  0  0  0  0  0  0  0  0
    4.4251    2.1816   -0.9875 C   0  0  0  0  0  0  0  0  0  0  0  0
    5.0491    2.6113   -1.7861 H   0  0  0  0  0  0  0  0  0  0  0  0
    5.0138    1.7523    0.2115 C   0  0  0  0  0  0  0  0  0  0  0  0
    6.1004    1.8471    0.3596 H   0  0  0  0  0  0  0  0  0  0  0  0
    4.2112    1.1869    1.2172 C   0  0  0  0  0  0  0  0  0  0  0  0
    4.6688    0.8307    2.1529 H   0  0  0  0  0  0  0  0  0  0  0  0
    2.8296    1.0608    1.0250 C   0  0  0  0  0  0  0  0  0  0  0  0
    2.2044    0.5899    1.7986 H   0  0  0  0  0  0  0  0  0  0  0  0
    2.3960   -1.6149   -0.6992 C   0  0  0  0  0  0  0  0  0  0  0  0
    3.5628   -1.2825   -1.3983 C   0  0  0  0  0  0  0  0  0  0  0  0
    3.4747   -0.7104   -2.3321 H   0  0  0  0  0  0  0  0  0  0  0  0
    4.8062   -1.6661   -0.8809 C   0  0  0  0  0  0  0  0  0  0  0  0
    5.7243   -1.3898   -1.4235 H   0  0  0  0  0  0  0  0  0  0  0  0
    4.9058   -2.3859    0.3271 C   0  0  0  0  0  0  0  0  0  0  0  0
    3.7119   -2.7405    0.9910 C   0  0  0  0  0  0  0  0  0  0  0  0
    3.7660   -3.3240    1.9240 H   0  0  0  0  0  0  0  0  0  0  0  0
    2.4621   -2.3640    0.4839 C   0  0  0  0  0  0  0  0  0  0  0  0
    1.5397   -2.6509    1.0080 H   0  0  0  0  0  0  0  0  0  0  0  0
    6.2533   -2.7399    0.9024 C   0  0  0  0  0  0  0  0  0  0  0  0
    6.1774   -3.5327    1.6719 H   0  0  0  0  0  0  0  0  0  0  0  0
    6.7216   -1.8537    1.3832 H   0  0  0  0  0  0  0  0  0  0  0  0
    6.9547   -3.0861    0.1168 H   0  0  0  0  0  0  0  0  0  0  0  0
    0.4873    1.7016   -1.4131 H   0  0  0  0  0  0  0  0  0  0  0  0
    0.1985    1.9028    1.6352 H   0  0  0  0  0  0  0  0  0  0  0  0
   -1.7509    2.2883   -0.5749 H   0  0  0  0  0  0  0  0  0  0  0  0
   -2.0569    2.5023    1.0616 H   0  0  0  0  0  0  0  0  0  0  0  0
  1  3  2  0  0  0  0
  1 29  1  0  0  0  0
  1  5  1  0  0  0  0
  2  1  2  0  0  0  0
  4  7  1  0  0  0  0
  4 46  1  0  0  0  0
  6 43  1  6  0  0  0
  6 18  1  0  0  0  0
  6  5  1  0  0  0  0
  6  7  1  0  0  0  0
  7 44  1  1  0  0  0
  8  7  1  0  0  0  0
  8  9  1  0  0  0  0
  8 14  1  0  0  0  0
 10 13  1  0  0  0  0
 10  8  1  0  0  0  0
 11 10  1  0  0  0  0
 12 10  1  0  0  0  0
 14 15  1  0  0  0  0
 14 16  1  0  0  0  0
 17 14  1  0  0  0  0
 18 27  1  0  0  0  0
 19 21  1  0  0  0  0
 19 18  2  0  0  0  0
 20 19  1  0  0  0  0
 21 23  2  0  0  0  0
 22 21  1  0  0  0  0
 23 24  1  0  0  0  0
 23 25  1  0  0  0  0
 25 26  1  0  0  0  0
 27 25  2  0  0  0  0
 27 28  1  0  0  0  0
 29 37  1  0  0  0  0
 30 32  1  0  0  0  0
 30 29  2  0  0  0  0
 31 30  1  0  0  0  0
 32 34  2  0  0  0  0
 33 32  1  0  0  0  0
 34 39  1  0  0  0  0
 34 35  1  0  0  0  0
 35 36  1  0  0  0  0
 37 35  2  0  0  0  0
 37 38  1  0  0  0  0
 39 41  1  0  0  0  0
 39 40  1  0  0  0  0
 42 39  1  0  0  0  0
 45  4  1  0  0  0  0
M  END
